
#######################################################################
#
#                 Cambridge Crystallographic Data Centre
#                                CCDC 
#
#######################################################################
#
# If this CIF has been generated from an entry in the Cambridge 
# Structural Database, then it will include bibliographic, chemical, 
# crystal, experimental, refinement or atomic coordinate data resulting 
# from the CCDC's data processing and validation procedures.
#
#######################################################################

data_RUVZEP
_chemical_formula_moiety         'C26 H23 N1 O4 S1'
_chemical_name_systematic        
2-(2-(1,3-benzodioxol-5-yl)cyclopropyl)-3-methyl-1-((4-methylphenyl)sulfonyl)-1H-indole
_symmetry_cell_setting           monoclinic
_symmetry_space_group_name_H-M   'P 21/n'
_symmetry_Int_Tables_number      14
_space_group_name_Hall           '-P 2yn'
loop_
_symmetry_equiv_pos_site_id
_symmetry_equiv_pos_as_xyz
1 x,y,z
2 1/2-x,1/2+y,1/2-z
3 -x,-y,-z
4 1/2+x,1/2-y,1/2+z
_cell_length_a                   13.070(3)
_cell_length_b                   10.022(3)
_cell_length_c                   16.590(4)
_cell_angle_alpha                90
_cell_angle_beta                 102.093(12)
_cell_angle_gamma                90
_cell_volume                     2124.86
_exptl_crystal_colour            colorless
_exptl_crystal_description       block
_cell_formula_units_Z            4
loop_
_atom_site_label
_atom_site_type_symbol
_atom_site_fract_x
_atom_site_fract_y
_atom_site_fract_z
S1 S 0.15940(3) 0.14594(4) 0.19823(2)
O1 O 0.22196(9) 0.15590(12) 0.27958(7)
O2 O 0.11815(9) 0.01839(11) 0.16844(7)
O3 O -0.31882(9) 0.37613(13) 0.23438(8)
O4 O -0.37080(9) 0.57113(13) 0.28824(8)
N1 N 0.05666(9) 0.24721(12) 0.19252(7)
C1 C 0.36676(16) 0.4102(2) -0.05265(12)
H1 H 0.3560 0.5065 -0.0483
H2 H 0.3318 0.3794 -0.1076
H3 H 0.4419 0.3914 -0.0439
C2 C 0.32157(13) 0.33865(17) 0.01160(10)
C3 C 0.26760(13) 0.21861(17) -0.00704(10)
H4 H 0.2636 0.1789 -0.0596
C4 C 0.21975(12) 0.15649(16) 0.05012(9)
H5 H 0.1820 0.0757 0.0366
C5 C 0.22781(11) 0.21411(15) 0.12761(9)
C6 C 0.28395(12) 0.33172(16) 0.14881(10)
H6 H 0.2906 0.3691 0.2023
C7 C 0.33001(12) 0.39337(16) 0.09024(10)
H7 H 0.3678 0.4740 0.1039
C8 C -0.00835(11) 0.26825(15) 0.11309(9)
C9 C -0.04298(12) 0.17770(16) 0.04976(9)
H8 H -0.0236 0.0862 0.0548
C10 C -0.10753(12) 0.22765(17) -0.02158(9)
H9 H -0.1322 0.1691 -0.0665
C11 C -0.13663(12) 0.36199(17) -0.02837(9)
H10 H -0.1810 0.3930 -0.0776
C12 C -0.10194(12) 0.45061(16) 0.03541(9)
H11 H -0.1226 0.5417 0.0306
C13 C -0.03587(11) 0.40326(15) 0.10706(9)
C14 C 0.01275(11) 0.46845(15) 0.18331(9)
C15 C 0.06780(11) 0.37509(15) 0.23393(9)
C16 C -0.00268(13) 0.61159(15) 0.20241(10)
H12 H -0.0769 0.6279 0.2013
H13 H 0.0200 0.6681 0.1612
H14 H 0.0387 0.6328 0.2573
C17 C 0.11795(11) 0.38658(16) 0.32231(9)
H15 H 0.1921 0.4184 0.3342
C18 C 0.09127(12) 0.28808(17) 0.38293(9)
H16 H 0.1484 0.2588 0.4286
H17 H 0.0390 0.2183 0.3615
C19 C 0.05281(12) 0.42938(17) 0.38498(9)
H18 H 0.0930 0.4832 0.4318
C20 C -0.06021(12) 0.46483(16) 0.36190(9)
C21 C -0.09365(13) 0.58031(17) 0.39591(9)
H19 H -0.0440 0.6309 0.4338
C22 C -0.19754(14) 0.62428(17) 0.37633(10)
H20 H -0.2195 0.7027 0.4000
C23 C -0.26586(12) 0.54812(16) 0.32117(10)
C24 C -0.23440(12) 0.43228(16) 0.28797(9)
C25 C -0.13292(12) 0.38711(16) 0.30647(9)
H21 H -0.1127 0.3074 0.2830
C26 C -0.40745(13) 0.44671(18) 0.25114(12)
H22 H -0.4595 0.4621 0.1994
H23 H -0.4411 0.3942 0.2889
loop_
_geom_bond_atom_site_label_1
_geom_bond_atom_site_label_2
_geom_bond_site_symmetry_1
_geom_bond_site_symmetry_2
S1 O1 1_555 1_555
O2 S1 1_555 1_555
O3 C24 1_555 1_555
O4 C23 1_555 1_555
N1 S1 1_555 1_555
C1 H1 1_555 1_555
H2 C1 1_555 1_555
H3 C1 1_555 1_555
C2 C1 1_555 1_555
C3 C2 1_555 1_555
H4 C3 1_555 1_555
C4 C3 1_555 1_555
H5 C4 1_555 1_555
C5 S1 1_555 1_555
C6 C5 1_555 1_555
H6 C6 1_555 1_555
C7 C2 1_555 1_555
H7 C7 1_555 1_555
C8 N1 1_555 1_555
C9 C8 1_555 1_555
H8 C9 1_555 1_555
C10 C9 1_555 1_555
H9 C10 1_555 1_555
C11 C10 1_555 1_555
H10 C11 1_555 1_555
C12 C11 1_555 1_555
H11 C12 1_555 1_555
C13 C8 1_555 1_555
C14 C13 1_555 1_555
C15 N1 1_555 1_555
C16 C14 1_555 1_555
H12 C16 1_555 1_555
H13 C16 1_555 1_555
H14 C16 1_555 1_555
C17 C15 1_555 1_555
H15 C17 1_555 1_555
C18 C17 1_555 1_555
H16 C18 1_555 1_555
H17 C18 1_555 1_555
C19 C17 1_555 1_555
H18 C19 1_555 1_555
C20 C19 1_555 1_555
C21 C20 1_555 1_555
H19 C21 1_555 1_555
C22 C21 1_555 1_555
H20 C22 1_555 1_555
C23 C22 1_555 1_555
C24 C23 1_555 1_555
C25 C20 1_555 1_555
H21 C25 1_555 1_555
C26 O3 1_555 1_555
H22 C26 1_555 1_555
H23 C26 1_555 1_555
O4 C26 1_555 1_555
C4 C5 1_555 1_555
C6 C7 1_555 1_555
C12 C13 1_555 1_555
C14 C15 1_555 1_555
C18 C19 1_555 1_555
C24 C25 1_555 1_555

#END
