
#######################################################################
#
#                 Cambridge Crystallographic Data Centre
#                                CCDC 
#
#######################################################################
#
# If this CIF has been generated from an entry in the Cambridge 
# Structural Database, then it will include bibliographic, chemical, 
# crystal, experimental, refinement or atomic coordinate data resulting 
# from the CCDC's data processing and validation procedures.
#
#######################################################################

data_RUVZAL
_chemical_formula_moiety         'C24 H22 N2 O4'
_chemical_name_systematic        
"dimethyl 2,2'-ethene-1,2-diylbis(3-methyl-1H-indole-1-carboxylate)"
_symmetry_cell_setting           monoclinic
_symmetry_space_group_name_H-M   'P 21/n'
_symmetry_Int_Tables_number      14
_space_group_name_Hall           '-P 2yn'
loop_
_symmetry_equiv_pos_site_id
_symmetry_equiv_pos_as_xyz
1 x,y,z
2 1/2-x,1/2+y,1/2-z
3 -x,-y,-z
4 1/2+x,1/2-y,1/2+z
_cell_length_a                   6.2290(3)
_cell_length_b                   25.163(2)
_cell_length_c                   12.3370(15)
_cell_angle_alpha                90
_cell_angle_beta                 91.297(5)
_cell_angle_gamma                90
_cell_volume                     1933.21
_exptl_crystal_colour            colorless
_exptl_crystal_description       block
_cell_formula_units_Z            4
loop_
_atom_site_label
_atom_site_type_symbol
_atom_site_fract_x
_atom_site_fract_y
_atom_site_fract_z
O1 O 0.05441(14) 0.14360(3) 0.78436(7)
O2 O 0.21952(14) 0.06583(3) 0.82064(7)
O3 O 0.29685(14) 0.43838(3) 1.01714(7)
O4 O 0.13290(15) 0.35955(3) 1.03805(8)
N1 N 0.34300(15) 0.13899(4) 0.90447(8)
N2 N 0.39289(15) 0.36672(4) 0.91472(8)
C1 C 0.17075(18) 0.22909(5) 0.91383(9)
H1 H 0.0316 0.2137 0.9110
C2 C 0.34911(18) 0.19316(4) 0.93800(9)
C3 C 0.52912(18) 0.20127(4) 1.00108(9)
C4 C 0.64333(18) 0.15162(4) 1.00756(9)
C5 C 0.83444(18) 0.13742(5) 1.06248(10)
H2 H 0.9155 0.1633 1.1018
C6 C 0.90322(19) 0.08518(5) 1.05863(10)
H3 H 1.0325 0.0750 1.0953
C7 C 0.78237(19) 0.04731(5) 1.00072(10)
H4 H 0.8305 0.0115 1.0000
C8 C 0.59438(19) 0.06046(5) 0.94438(10)
H5 H 0.5153 0.0345 0.9043
C9 C 0.52596(18) 0.11309(4) 0.94881(9)
C10 C 0.59364(19) 0.25040(4) 1.06210(10)
H6 H 0.7055 0.2691 1.0226
H7 H 0.6491 0.2406 1.1343
H8 H 0.4686 0.2737 1.0693
C11 C 0.19037(18) 0.11804(5) 0.83149(9)
C12 C 0.0704(2) 0.03931(5) 0.74692(11)
H9 H 0.0773 0.0557 0.6750
H10 H -0.0757 0.0426 0.7741
H11 H 0.1086 0.0016 0.7417
C13 C 0.18143(18) 0.28154(5) 0.89519(9)
H12 H 0.0488 0.3001 0.8955
C14 C 0.37203(18) 0.31366(4) 0.87440(9)
C15 C 0.53884(18) 0.30364(4) 0.80739(9)
C16 C 0.66842(19) 0.35097(4) 0.80296(9)
C17 C 0.85227(19) 0.36338(5) 0.74474(10)
H13 H 0.9128 0.3381 0.6971
C18 C 0.9442(2) 0.41313(5) 0.75784(11)
H14 H 1.0683 0.4222 0.7184
C19 C 0.8559(2) 0.45025(5) 0.82879(11)
H15 H 0.9237 0.4838 0.8379
C20 C 0.67170(19) 0.43928(5) 0.88614(10)
H16 H 0.6122 0.4647 0.9339
C21 C 0.57773(18) 0.38945(5) 0.87061(9)
C22 C 0.58400(19) 0.25363(4) 0.74593(10)
H17 H 0.6975 0.2335 0.7839
H18 H 0.6307 0.2627 0.6729
H19 H 0.4533 0.2320 0.7408
C23 C 0.27336(19) 0.39241(5) 0.99305(10)
C24 C 0.0034(2) 0.38355(6) 1.12037(12)
H20 H -0.0577 0.4169 1.0928
H21 H 0.0929 0.3908 1.1850
H22 H -0.1130 0.3593 1.1391
loop_
_geom_bond_atom_site_label_1
_geom_bond_atom_site_label_2
_geom_bond_site_symmetry_1
_geom_bond_site_symmetry_2
O1 C11 1_555 1_555
O2 C11 1_555 1_555
O3 C23 1_555 1_555
O4 C23 1_555 1_555
N1 C2 1_555 1_555
N2 C14 1_555 1_555
C1 H1 1_555 1_555
C2 C1 1_555 1_555
C3 C2 1_555 1_555
C4 C3 1_555 1_555
C5 C4 1_555 1_555
H2 C5 1_555 1_555
C6 C5 1_555 1_555
H3 C6 1_555 1_555
C7 C6 1_555 1_555
H4 C7 1_555 1_555
C8 C7 1_555 1_555
H5 C8 1_555 1_555
C9 N1 1_555 1_555
C10 C3 1_555 1_555
H6 C10 1_555 1_555
H7 C10 1_555 1_555
H8 C10 1_555 1_555
C11 N1 1_555 1_555
C12 O2 1_555 1_555
H9 C12 1_555 1_555
H10 C12 1_555 1_555
H11 C12 1_555 1_555
C13 C1 1_555 1_555
H12 C13 1_555 1_555
C14 C13 1_555 1_555
C15 C14 1_555 1_555
C16 C15 1_555 1_555
C17 C16 1_555 1_555
H13 C17 1_555 1_555
C18 C17 1_555 1_555
H14 C18 1_555 1_555
C19 C18 1_555 1_555
H15 C19 1_555 1_555
C20 C19 1_555 1_555
H16 C20 1_555 1_555
C21 N2 1_555 1_555
C22 C15 1_555 1_555
H17 C22 1_555 1_555
H18 C22 1_555 1_555
H19 C22 1_555 1_555
C23 N2 1_555 1_555
C24 O4 1_555 1_555
H20 C24 1_555 1_555
H21 C24 1_555 1_555
H22 C24 1_555 1_555
C4 C9 1_555 1_555
C8 C9 1_555 1_555
C16 C21 1_555 1_555
C20 C21 1_555 1_555

#END
