
#######################################################################
#
#                 Cambridge Crystallographic Data Centre
#                                CCDC 
#
#######################################################################
#
# If this CIF has been generated from an entry in the Cambridge 
# Structural Database, then it will include bibliographic, chemical, 
# crystal, experimental, refinement or atomic coordinate data resulting 
# from the CCDC's data processing and validation procedures.
#
#######################################################################

data_RUWCIX
_chemical_formula_moiety         'C39 H46 N4 P1 S1 1+,I1 1-'
_chemical_name_systematic        
'1-((methylimino)(diphenyl)sulfanyl)-1-(tris(4-(dimethylamino)phenyl)phosphaniumyl)ethan-1-ide iodide'
_symmetry_cell_setting           triclinic
_symmetry_space_group_name_H-M   'P -1'
_symmetry_Int_Tables_number      2
_space_group_name_Hall           '-P 1'
loop_
_symmetry_equiv_pos_site_id
_symmetry_equiv_pos_as_xyz
1 x,y,z
2 -x,-y,-z
_cell_length_a                   10.197(5)
_cell_length_b                   12.632(4)
_cell_length_c                   14.493(5)
_cell_angle_alpha                83.654(14)
_cell_angle_beta                 88.149(17)
_cell_angle_gamma                76.750(16)
_cell_volume                     1805.94
_exptl_crystal_colour            colorless
_exptl_crystal_description       block
_chemical_melting_point          '483-484 K'
_cell_formula_units_Z            2
loop_
_atom_site_label
_atom_site_type_symbol
_atom_site_fract_x
_atom_site_fract_y
_atom_site_fract_z
P1 P 0.73575(6) 0.18185(5) 0.60054(4)
C1 C 0.6109(2) 0.2421(2) 0.67655(17)
C2 C 0.5666(3) 0.3678(2) 0.6722(2)
H1 H 0.4682 0.3903 0.6685
H2 H 0.6067 0.4010 0.6173
H3 H 0.5968 0.3920 0.7282
S1 S 0.52773(6) 0.16043(5) 0.74192(4)
N1 N 0.4567(2) 0.08414(18) 0.69755(16)
C3 C 0.3797(3) 0.1302(2) 0.6125(2)
H4 H 0.2845 0.1564 0.6285
H5 H 0.3883 0.0736 0.5702
H6 H 0.4150 0.1913 0.5821
C4 C 0.4160(2) 0.2496(2) 0.81431(17)
C5 C 0.4564(3) 0.3198(2) 0.8686(2)
H7 H 0.5473 0.3267 0.8675
C6 C 0.3615(3) 0.3796(2) 0.9246(2)
H8 H 0.3875 0.4283 0.9621
C7 C 0.2291(3) 0.3692(2) 0.9267(2)
H9 H 0.1648 0.4115 0.9649
C8 C 0.1907(3) 0.2985(2) 0.8742(2)
H10 H 0.1000 0.2911 0.8765
C9 C 0.2838(3) 0.2373(2) 0.81743(19)
H11 H 0.2575 0.1876 0.7811
C10 C 0.6329(3) 0.0692(2) 0.82772(17)
C11 C 0.7267(3) 0.1096(2) 0.87090(18)
H12 H 0.7370 0.1820 0.8538
C12 C 0.8063(3) 0.0417(3) 0.9402(2)
H13 H 0.8722 0.0676 0.9705
C13 C 0.7893(4) -0.0633(3) 0.9647(2)
H14 H 0.8433 -0.1091 1.0122
C14 C 0.6950(4) -0.1017(3) 0.9211(2)
H15 H 0.6842 -0.1739 0.9388
C15 C 0.6146(3) -0.0359(2) 0.8508(2)
H16 H 0.5498 -0.0623 0.8199
C16 C 0.7961(2) 0.03975(19) 0.63576(17)
C17 C 0.9088(3) 0.0028(2) 0.69314(19)
H17 H 0.9612 0.0526 0.7060
C18 C 0.9451(3) -0.1046(2) 0.7313(2)
H18 H 1.0231 -0.1278 0.7689
C19 C 0.8689(3) -0.1802(2) 0.71574(19)
C20 C 0.7594(3) -0.1443(2) 0.65389(18)
H19 H 0.7097 -0.1948 0.6383
C21 C 0.7242(3) -0.0370(2) 0.61599(17)
H20 H 0.6493 -0.0144 0.5754
N2 N 0.8984(3) -0.2851(2) 0.75828(19)
C22 C 0.8008(4) -0.3513(3) 0.7579(3)
H21 H 0.7120 -0.3088 0.7750
H22 H 0.8272 -0.4163 0.8027
H23 H 0.7967 -0.3739 0.6957
C23 C 1.0033(4) -0.3171(3) 0.8291(2)
H24 H 1.0903 -0.3107 0.8011
H25 H 1.0085 -0.3929 0.8550
H26 H 0.9814 -0.2690 0.8788
C24 C 0.6828(2) 0.1944(2) 0.48210(17)
C25 C 0.7403(3) 0.1178(2) 0.42132(18)
H27 H 0.8020 0.0526 0.4446
C26 C 0.7093(3) 0.1350(2) 0.32804(19)
H28 H 0.7479 0.0802 0.2889
C27 C 0.6220(3) 0.2315(2) 0.28955(18)
C28 C 0.5621(3) 0.3075(2) 0.35113(19)
H29 H 0.5007 0.3729 0.3280
C29 C 0.5912(3) 0.2885(2) 0.44422(18)
H30 H 0.5478 0.3408 0.4842
N3 N 0.5961(3) 0.2522(2) 0.19603(17)
C30 C 0.6657(4) 0.1753(3) 0.1325(2)
H31 H 0.7606 0.1789 0.1274
H32 H 0.6238 0.1945 0.0712
H33 H 0.6593 0.1010 0.1564
C31 C 0.5502(4) 0.3649(3) 0.1556(2)
H34 H 0.4568 0.3931 0.1747
H35 H 0.5553 0.3678 0.0877
H36 H 0.6076 0.4096 0.1770
C32 C 0.8693(2) 0.25287(19) 0.59937(16)
C33 C 0.9532(3) 0.2591(2) 0.52098(18)
H37 H 0.9407 0.2234 0.4687
C34 C 1.0533(3) 0.3165(2) 0.51911(18)
H38 H 1.1095 0.3190 0.4657
C35 C 1.0739(2) 0.3718(2) 0.59540(18)
C36 C 0.9908(3) 0.3633(2) 0.67389(18)
H39 H 1.0029 0.3987 0.7265
C37 C 0.8920(3) 0.3045(2) 0.67579(17)
H40 H 0.8384 0.2991 0.7302
N4 N 1.1719(2) 0.43096(19) 0.59269(16)
C38 C 1.2461(3) 0.4476(3) 0.5073(2)
H41 H 1.2892 0.3765 0.4865
H42 H 1.3153 0.4873 0.5183
H43 H 1.1841 0.4902 0.4595
C39 C 1.1721(3) 0.5047(2) 0.6629(2)
H44 H 1.0846 0.5568 0.6636
H45 H 1.2433 0.5447 0.6486
H46 H 1.1885 0.4624 0.7240
I1 I 0.806822(18) 0.378730(15) 0.929069(12)
loop_
_geom_bond_atom_site_label_1
_geom_bond_atom_site_label_2
_geom_bond_site_symmetry_1
_geom_bond_site_symmetry_2
P1 C1 1_555 1_555
C1 C2 1_555 1_555
C2 H1 1_555 1_555
H2 C2 1_555 1_555
H3 C2 1_555 1_555
S1 C1 1_555 1_555
N1 S1 1_555 1_555
C3 N1 1_555 1_555
H4 C3 1_555 1_555
H5 C3 1_555 1_555
H6 C3 1_555 1_555
C4 S1 1_555 1_555
C5 C4 1_555 1_555
H7 C5 1_555 1_555
C6 C5 1_555 1_555
H8 C6 1_555 1_555
C7 C6 1_555 1_555
H9 C7 1_555 1_555
C8 C7 1_555 1_555
H10 C8 1_555 1_555
C9 C4 1_555 1_555
H11 C9 1_555 1_555
C10 S1 1_555 1_555
C11 C10 1_555 1_555
H12 C11 1_555 1_555
C12 C11 1_555 1_555
H13 C12 1_555 1_555
C13 C12 1_555 1_555
H14 C13 1_555 1_555
C14 C13 1_555 1_555
H15 C14 1_555 1_555
C15 C10 1_555 1_555
H16 C15 1_555 1_555
C16 P1 1_555 1_555
C17 C16 1_555 1_555
H17 C17 1_555 1_555
C18 C17 1_555 1_555
H18 C18 1_555 1_555
C19 C18 1_555 1_555
C20 C19 1_555 1_555
H19 C20 1_555 1_555
C21 C16 1_555 1_555
H20 C21 1_555 1_555
N2 C19 1_555 1_555
C22 N2 1_555 1_555
H21 C22 1_555 1_555
H22 C22 1_555 1_555
H23 C22 1_555 1_555
C23 N2 1_555 1_555
H24 C23 1_555 1_555
H25 C23 1_555 1_555
H26 C23 1_555 1_555
C24 P1 1_555 1_555
C25 C24 1_555 1_555
H27 C25 1_555 1_555
C26 C25 1_555 1_555
H28 C26 1_555 1_555
C27 C26 1_555 1_555
C28 C27 1_555 1_555
H29 C28 1_555 1_555
C29 C24 1_555 1_555
H30 C29 1_555 1_555
N3 C27 1_555 1_555
C30 N3 1_555 1_555
H31 C30 1_555 1_555
H32 C30 1_555 1_555
H33 C30 1_555 1_555
C31 N3 1_555 1_555
H34 C31 1_555 1_555
H35 C31 1_555 1_555
H36 C31 1_555 1_555
C32 P1 1_555 1_555
C33 C32 1_555 1_555
H37 C33 1_555 1_555
C34 C33 1_555 1_555
H38 C34 1_555 1_555
C35 C34 1_555 1_555
C36 C35 1_555 1_555
H39 C36 1_555 1_555
C37 C32 1_555 1_555
H40 C37 1_555 1_555
N4 C35 1_555 1_555
C38 N4 1_555 1_555
H41 C38 1_555 1_555
H42 C38 1_555 1_555
H43 C38 1_555 1_555
C39 N4 1_555 1_555
H44 C39 1_555 1_555
H45 C39 1_555 1_555
H46 C39 1_555 1_555
C8 C9 1_555 1_555
C14 C15 1_555 1_555
C20 C21 1_555 1_555
C28 C29 1_555 1_555
C36 C37 1_555 1_555

#END
