
#######################################################################
#
#                 Cambridge Crystallographic Data Centre
#                                CCDC 
#
#######################################################################
#
# If this CIF has been generated from an entry in the Cambridge 
# Structural Database, then it will include bibliographic, chemical, 
# crystal, experimental, refinement or atomic coordinate data resulting 
# from the CCDC's data processing and validation procedures.
#
#######################################################################

data_RUZHAW
_chemical_formula_moiety         'C34 H38 S6'
_chemical_name_systematic        
2,11-Dioctylthieno[3',2':4,5]thieno[2,3-b]thieno[3'',2'':4',5']thieno[3',2':4,5]thieno[3,2-e][1]benzothiophene
_symmetry_cell_setting           monoclinic
_symmetry_space_group_name_H-M   'P 21/n'
_symmetry_Int_Tables_number      14
_space_group_name_Hall           '-P 2yn'
loop_
_symmetry_equiv_pos_site_id
_symmetry_equiv_pos_as_xyz
1 x,y,z
2 1/2-x,1/2+y,1/2-z
3 -x,-y,-z
4 1/2+x,1/2-y,1/2+z
_cell_length_a                   11.085(4)
_cell_length_b                   9.696(4)
_cell_length_c                   30.569(11)
_cell_angle_alpha                90
_cell_angle_beta                 98.777(6)
_cell_angle_gamma                90
_cell_volume                     3247.09
_exptl_crystal_colour            colorless
_exptl_crystal_description       block
_cell_formula_units_Z            4
loop_
_atom_site_label
_atom_site_type_symbol
_atom_site_fract_x
_atom_site_fract_y
_atom_site_fract_z
S1 S 0.77133(8) 0.41183(12) 0.76191(4)
S2 S 0.09250(9) 0.79937(13) 0.70010(5)
S3 S 0.67386(10) 0.46693(13) 0.84922(4)
S4 S 0.52325(12) 0.79678(13) 0.61609(4)
S5 S 0.26921(12) 0.88637(14) 0.63560(5)
S6 S 0.50491(13) 0.68007(15) 0.88528(4)
C1 C 0.6079(3) 0.5908(3) 0.72723(13)
C2 C 0.5954(3) 0.5800(3) 0.77290(12)
C3 C 0.2677(3) 0.6480(4) 0.73685(14)
H1 H 0.3127 0.5835 0.7551
C4 C 0.3156(3) 0.7239(4) 0.70456(13)
C5 C 0.5442(3) 0.6654(3) 0.69161(12)
C6 C 0.4633(3) 0.7718(4) 0.80637(14)
H2 H 0.4357 0.8263 0.7818
C7 C 0.7093(3) 0.5145(4) 0.71811(14)
C8 C 0.4257(3) 0.7303(4) 0.68524(13)
C9 C 0.6018(4) 0.6853(4) 0.65459(13)
C10 C 0.5360(3) 0.6510(4) 0.80428(13)
C11 C 0.6747(3) 0.4839(4) 0.79394(14)
C12 C 0.1508(3) 0.6772(4) 0.73890(16)
C13 C 0.7090(4) 0.6181(5) 0.64909(16)
H3 H 0.7459 0.6352 0.6243
C14 C 0.7589(4) 0.5278(4) 0.68016(17)
H4 H 0.8262 0.4752 0.6758
C15 C 0.2280(4) 0.8075(4) 0.68150(15)
C16 C 0.5675(4) 0.5953(4) 0.84581(14)
C17 C 0.4391(4) 0.7987(5) 0.84664(15)
C18 C 0.0714(4) 0.6265(5) 0.76999(18)
H5 H 0.1031 0.5397 0.7827
H6 H -0.0099 0.6098 0.7540
C19 C 0.4092(4) 0.8074(4) 0.64702(14)
C20 C -0.0226(5) 0.6942(6) 0.8366(3)
H7 H -0.0070 0.6008 0.8474
H8 H -0.1047 0.6967 0.8202
C21 C 0.0640(5) 0.7279(6) 0.8063(2)
H9 H 0.1447 0.7371 0.8236
H10 H 0.0419 0.8170 0.7931
C22 C -0.0165(6) 0.7878(7) 0.8751(2)
H11 H 0.0647 0.7826 0.8921
H12 H -0.0290 0.8817 0.8643
C23 C 0.3587(6) 0.9122(6) 0.8593(2)
H13 H 0.2788 0.8717 0.8596
H14 H 0.3495 0.9781 0.8351
C24 C -0.1066(7) 0.7570(8) 0.9045(3)
H15 H -0.0941 0.6631 0.9152
H16 H -0.1877 0.7622 0.8874
C25 C -0.1010(9) 0.8502(10) 0.9430(3)
H17 H -0.0203 0.8438 0.9604
H18 H -0.1121 0.9443 0.9324
C26 C 0.5018(9) 1.0530(13) 0.9043(3)
H19 H 0.5127 1.1073 0.8786
H20 H 0.5673 0.9861 0.9105
C27 C 0.3872(10) 0.9918(11) 0.9000(3)
H21 H 0.3259 1.0630 0.9004
H22 H 0.3838 0.9315 0.9251
C28 C 0.4899(14) 1.1426(13) 0.9444(5)
H23 H 0.4142 1.1943 0.9394
H24 H 0.4903 1.0857 0.9705
C29 C -0.1923(12) 0.8204(12) 0.9718(4)
H25 H -0.2727 0.8435 0.9562
H26 H -0.1913 0.7224 0.9782
C30 C -0.1725(12) 0.8913(18) 1.0105(4)
H27 H -0.2343 0.8680 1.0280
H28 H -0.1754 0.9885 1.0044
H29 H -0.0937 0.8677 1.0263
C31 C 0.6261(15) 1.3250(16) 0.9911(5)
H30 H 0.5672 1.3990 0.9910
H31 H 0.6259 1.2704 1.0176
C32 C 0.5932(14) 1.2356(14) 0.9504(3)
H32 H 0.5822 1.2975 0.9251
H33 H 0.6646 1.1802 0.9478
C33 C 0.7483(15) 1.382(2) 0.9900(5)
H34 H 0.7454 1.4424 0.9645
H35 H 0.8041 1.3072 0.9865
C34 C 0.7954(15) 1.4598(15) 1.0302(5)
H36 H 0.8742 1.4970 1.0275
H37 H 0.8025 1.3995 1.0553
H38 H 0.7404 1.5337 1.0340
loop_
_geom_bond_atom_site_label_1
_geom_bond_atom_site_label_2
_geom_bond_site_symmetry_1
_geom_bond_site_symmetry_2
S1 C7 1_555 1_555
S2 C12 1_555 1_555
S3 C11 1_555 1_555
S4 C9 1_555 1_555
S5 C15 1_555 1_555
S6 C16 1_555 1_555
C1 C2 1_555 1_555
C2 C10 1_555 1_555
C3 H1 1_555 1_555
C4 C3 1_555 1_555
C5 C1 1_555 1_555
C6 H2 1_555 1_555
C7 C1 1_555 1_555
C8 C4 1_555 1_555
C9 C5 1_555 1_555
C10 C6 1_555 1_555
C11 S1 1_555 1_555
C12 C3 1_555 1_555
C13 C9 1_555 1_555
H3 C13 1_555 1_555
C14 C7 1_555 1_555
H4 C14 1_555 1_555
C15 S2 1_555 1_555
C16 S3 1_555 1_555
C17 S6 1_555 1_555
C18 C12 1_555 1_555
H5 C18 1_555 1_555
H6 C18 1_555 1_555
C19 S4 1_555 1_555
C20 H7 1_555 1_555
H8 C20 1_555 1_555
C21 C18 1_555 1_555
H9 C21 1_555 1_555
H10 C21 1_555 1_555
C22 C20 1_555 1_555
H11 C22 1_555 1_555
H12 C22 1_555 1_555
C23 C17 1_555 1_555
H13 C23 1_555 1_555
H14 C23 1_555 1_555
C24 C22 1_555 1_555
H15 C24 1_555 1_555
H16 C24 1_555 1_555
C25 C24 1_555 1_555
H17 C25 1_555 1_555
H18 C25 1_555 1_555
C26 H19 1_555 1_555
H20 C26 1_555 1_555
C27 C23 1_555 1_555
H21 C27 1_555 1_555
H22 C27 1_555 1_555
C28 C26 1_555 1_555
H23 C28 1_555 1_555
H24 C28 1_555 1_555
C29 C25 1_555 1_555
H25 C29 1_555 1_555
H26 C29 1_555 1_555
C30 C29 1_555 1_555
H27 C30 1_555 1_555
H28 C30 1_555 1_555
H29 C30 1_555 1_555
C31 H30 1_555 1_555
H31 C31 1_555 1_555
C32 C28 1_555 1_555
H32 C32 1_555 1_555
H33 C32 1_555 1_555
C33 C31 1_555 1_555
H34 C33 1_555 1_555
H35 C33 1_555 1_555
C34 C33 1_555 1_555
H36 C34 1_555 1_555
H37 C34 1_555 1_555
H38 C34 1_555 1_555
S5 C19 1_555 1_555
C2 C11 1_555 1_555
C4 C15 1_555 1_555
C5 C8 1_555 1_555
C6 C17 1_555 1_555
C8 C19 1_555 1_555
C10 C16 1_555 1_555
C13 C14 1_555 1_555
C20 C21 1_555 1_555
C26 C27 1_555 1_555
C31 C32 1_555 1_555

#END
