
#######################################################################
#
#                 Cambridge Crystallographic Data Centre
#                                CCDC 
#
#######################################################################
#
# If this CIF has been generated from an entry in the Cambridge 
# Structural Database, then it will include bibliographic, chemical, 
# crystal, experimental, refinement or atomic coordinate data resulting 
# from the CCDC's data processing and validation procedures.
#
#######################################################################

data_RUZPEI
_chemical_formula_moiety         'C51 H35 N5 O2'
_chemical_name_systematic        
2-Hydroxy-N-(5,10,15,20-tetraphenylporphyrin-21(23H)-yl)benzamide
_symmetry_cell_setting           triclinic
_symmetry_space_group_name_H-M   'P -1'
_symmetry_Int_Tables_number      2
_space_group_name_Hall           '-P 1'
loop_
_symmetry_equiv_pos_site_id
_symmetry_equiv_pos_as_xyz
1 x,y,z
2 -x,-y,-z
_cell_length_a                   10.856(2)
_cell_length_b                   12.509(3)
_cell_length_c                   14.273(3)
_cell_angle_alpha                84.284(3)
_cell_angle_beta                 80.731(3)
_cell_angle_gamma                86.415(3)
_cell_volume                     1901.29
_exptl_crystal_colour            purple
_cell_formula_units_Z            2
_exptl_crystal_recrystallization_method dichloromethane/methanol
loop_
_atom_site_label
_atom_site_type_symbol
_atom_site_fract_x
_atom_site_fract_y
_atom_site_fract_z
O1 O 0.25146(9) 0.74339(8) 0.35074(7)
O2 O 0.42252(9) 0.82109(8) 0.41830(7)
H1 H 0.3748 0.7762 0.4093
N1 N -0.08238(9) 0.96265(8) 0.31675(8)
N2 N 0.03124(9) 1.08183(8) 0.13890(8)
H2 H 0.0249 1.0142 0.1559
N3 N 0.16939(9) 0.88875(8) 0.06849(7)
N4 N 0.06627(9) 0.75879(8) 0.25593(7)
N5 N 0.12992(9) 0.85294(8) 0.25898(7)
H3 H 0.1106 0.9149 0.2320
C1 C -0.12505(11) 0.88874(10) 0.39088(9)
C2 C -0.20841(12) 0.94670(10) 0.45893(9)
H4 H -0.2501 0.9177 0.5171
C3 C -0.21569(12) 1.05122(10) 0.42346(9)
H5 H -0.2649 1.1060 0.4524
C4 C -0.13435(11) 1.06281(10) 0.33350(9)
C5 C -0.11076(11) 1.15724(10) 0.27328(9)
C6 C -0.03028(11) 1.16533(10) 0.18463(9)
C7 C 0.00454(12) 1.26742(10) 0.13272(10)
H6 H -0.0255 1.3354 0.1492
C8 C 0.08841(12) 1.24513(10) 0.05643(10)
H7 H 0.1281 1.2945 0.0101
C9 C 0.10492(11) 1.12824(10) 0.06064(9)
C10 C 0.19264(11) 1.07460(10) -0.00515(9)
C11 C 0.21920(11) 0.96323(10) -0.00181(9)
C12 C 0.30705(12) 0.90612(10) -0.06793(9)
H8 H 0.3528 0.9359 -0.1242
C13 C 0.31123(12) 0.80129(10) -0.03362(9)
H9 H 0.3617 0.7468 -0.0619
C14 C 0.22448(11) 0.78824(10) 0.05403(9)
C15 C 0.19856(11) 0.69282(10) 0.11167(9)
C16 C 0.11210(11) 0.68054(10) 0.19674(9)
C17 C 0.04703(11) 0.58621(10) 0.23269(9)
H10 H 0.0590 0.5202 0.2069
C18 C -0.03589(11) 0.60896(10) 0.31140(9)
H11 H -0.0902 0.5611 0.3484
C19 C -0.02523(11) 0.71851(10) 0.32747(9)
C20 C -0.10341(11) 0.77635(10) 0.39509(9)
C21 C -0.17622(11) 1.25763(10) 0.30845(9)
C22 C -0.16251(12) 1.28954(10) 0.39684(10)
H12 H -0.1093 1.2494 0.4333
C23 C -0.22718(13) 1.38059(10) 0.43132(10)
H13 H -0.2187 1.4000 0.4911
C24 C -0.30428(12) 1.44233(10) 0.37641(10)
H14 H -0.3468 1.5039 0.3988
C25 C -0.31775(12) 1.41198(11) 0.28797(10)
H15 H -0.3689 1.4536 0.2508
C26 C -0.25528(12) 1.31990(10) 0.25466(10)
H16 H -0.2662 1.2994 0.1958
C27 C 0.27320(11) 1.14124(10) -0.08151(9)
C28 C 0.22385(12) 1.20513(10) -0.15333(9)
H17 H 0.1386 1.2062 -0.1556
C29 C 0.30144(12) 1.26738(11) -0.22181(9)
H18 H 0.2677 1.3102 -0.2694
C30 C 0.42923(12) 1.26592(11) -0.21946(9)
H19 H 0.4808 1.3079 -0.2651
C31 C 0.47912(12) 1.20169(11) -0.14887(10)
H20 H 0.5646 1.1998 -0.1475
C32 C 0.40186(12) 1.14001(11) -0.08005(9)
H21 H 0.4360 1.0975 -0.0325
C33 C 0.26307(11) 0.59018(10) 0.08160(9)
C34 C 0.25250(12) 0.55076(11) -0.00474(10)
H22 H 0.2052 0.5897 -0.0465
C35 C 0.31236(14) 0.45366(12) -0.02844(11)
H23 H 0.3057 0.4281 -0.0863
C36 C 0.38181(13) 0.39467(11) 0.03346(11)
H24 H 0.4220 0.3298 0.0169
C37 C 0.39172(13) 0.43173(11) 0.11976(11)
H25 H 0.4373 0.3914 0.1619
C38 C 0.33323(12) 0.52960(11) 0.14343(10)
H26 H 0.3410 0.5550 0.2012
C39 C -0.18602(11) 0.71126(10) 0.47040(9)
C40 C -0.13810(12) 0.63237(10) 0.53225(9)
H27 H -0.0521 0.6203 0.5282
C41 C -0.21748(13) 0.57147(11) 0.59995(10)
H28 H -0.1845 0.5195 0.6415
C42 C -0.34630(12) 0.58789(11) 0.60585(10)
H29 H -0.3994 0.5466 0.6510
C43 C -0.39544(12) 0.66573(10) 0.54443(9)
H30 H -0.4815 0.6769 0.5483
C44 C -0.31609(11) 0.72701(10) 0.47705(9)
H31 H -0.3495 0.7791 0.4358
C45 C 0.22391(11) 0.83366(10) 0.30910(9)
C46 C 0.30105(11) 0.92739(10) 0.31241(9)
C47 C 0.28149(13) 1.02684(11) 0.26254(10)
H32 H 0.2157 1.0367 0.2276
C48 C 0.35735(14) 1.11147(12) 0.26353(11)
H33 H 0.3427 1.1774 0.2300
C49 C 0.45618(13) 1.09624(13) 0.31574(11)
H34 H 0.5082 1.1524 0.3165
C50 C 0.47751(12) 0.99919(12) 0.36602(10)
H35 H 0.5438 0.9901 0.4005
C51 C 0.40042(12) 0.91432(11) 0.36570(9)
H36? H -0.0305 0.9480 0.2670
H37? H 0.1118 0.9027 0.1151
loop_
_geom_bond_atom_site_label_1
_geom_bond_atom_site_label_2
_geom_bond_site_symmetry_1
_geom_bond_site_symmetry_2
O1 C45 1_555 1_555
O2 H1 1_555 1_555
N1 C1 1_555 1_555
N2 H2 1_555 1_555
N3 C11 1_555 1_555
N4 N5 1_555 1_555
N5 H3 1_555 1_555
C1 C2 1_555 1_555
C2 H4 1_555 1_555
C3 C2 1_555 1_555
H5 C3 1_555 1_555
C4 N1 1_555 1_555
C5 C4 1_555 1_555
C6 N2 1_555 1_555
C7 C6 1_555 1_555
H6 C7 1_555 1_555
C8 C7 1_555 1_555
H7 C8 1_555 1_555
C9 N2 1_555 1_555
C10 C9 1_555 1_555
C11 C10 1_555 1_555
C12 C11 1_555 1_555
H8 C12 1_555 1_555
C13 C12 1_555 1_555
H9 C13 1_555 1_555
C14 N3 1_555 1_555
C15 C14 1_555 1_555
C16 N4 1_555 1_555
C17 C16 1_555 1_555
H10 C17 1_555 1_555
C18 C17 1_555 1_555
H11 C18 1_555 1_555
C19 N4 1_555 1_555
C20 C1 1_555 1_555
C21 C5 1_555 1_555
C22 C21 1_555 1_555
H12 C22 1_555 1_555
C23 C22 1_555 1_555
H13 C23 1_555 1_555
C24 C23 1_555 1_555
H14 C24 1_555 1_555
C25 C24 1_555 1_555
H15 C25 1_555 1_555
C26 C21 1_555 1_555
H16 C26 1_555 1_555
C27 C10 1_555 1_555
C28 C27 1_555 1_555
H17 C28 1_555 1_555
C29 C28 1_555 1_555
H18 C29 1_555 1_555
C30 C29 1_555 1_555
H19 C30 1_555 1_555
C31 C30 1_555 1_555
H20 C31 1_555 1_555
C32 C27 1_555 1_555
H21 C32 1_555 1_555
C33 C15 1_555 1_555
C34 C33 1_555 1_555
H22 C34 1_555 1_555
C35 C34 1_555 1_555
H23 C35 1_555 1_555
C36 C35 1_555 1_555
H24 C36 1_555 1_555
C37 C36 1_555 1_555
H25 C37 1_555 1_555
C38 C33 1_555 1_555
H26 C38 1_555 1_555
C39 C20 1_555 1_555
C40 C39 1_555 1_555
H27 C40 1_555 1_555
C41 C40 1_555 1_555
H28 C41 1_555 1_555
C42 C41 1_555 1_555
H29 C42 1_555 1_555
C43 C42 1_555 1_555
H30 C43 1_555 1_555
C44 C39 1_555 1_555
H31 C44 1_555 1_555
C45 N5 1_555 1_555
C46 C45 1_555 1_555
C47 C46 1_555 1_555
H32 C47 1_555 1_555
C48 C47 1_555 1_555
H33 C48 1_555 1_555
C49 C48 1_555 1_555
H34 C49 1_555 1_555
C50 C49 1_555 1_555
H35 C50 1_555 1_555
C51 O2 1_555 1_555
C3 C4 1_555 1_555
C5 C6 1_555 1_555
C8 C9 1_555 1_555
C13 C14 1_555 1_555
C15 C16 1_555 1_555
C18 C19 1_555 1_555
C19 C20 1_555 1_555
C25 C26 1_555 1_555
C31 C32 1_555 1_555
C37 C38 1_555 1_555
C43 C44 1_555 1_555
C46 C51 1_555 1_555
C50 C51 1_555 1_555

#END
