
#######################################################################
#
#                 Cambridge Crystallographic Data Centre
#                                CCDC 
#
#######################################################################
#
# If this CIF has been generated from an entry in the Cambridge 
# Structural Database, then it will include bibliographic, chemical, 
# crystal, experimental, refinement or atomic coordinate data resulting 
# from the CCDC's data processing and validation procedures.
#
#######################################################################

data_RUZZUJ
_chemical_formula_moiety         'C10 H18 O2'
_chemical_name_systematic        'dec-2-enoic acid'
_symmetry_cell_setting           triclinic
_symmetry_space_group_name_H-M   'P -1'
_symmetry_Int_Tables_number      2
_space_group_name_Hall           '-P 1'
loop_
_symmetry_equiv_pos_site_id
_symmetry_equiv_pos_as_xyz
1 x,y,z
2 -x,-y,-z
_cell_length_a                   4.1405(2)
_cell_length_b                   15.2839(6)
_cell_length_c                   17.7089(7)
_cell_angle_alpha                68.3291(11)
_cell_angle_beta                 83.3850(13)
_cell_angle_gamma                85.0779(12)
_cell_volume                     1033.39
_exptl_crystal_colour            colorless
_exptl_crystal_description       prism
_cell_formula_units_Z            4
loop_
_atom_site_label
_atom_site_type_symbol
_atom_site_fract_x
_atom_site_fract_y
_atom_site_fract_z
C1 C 0.5770(3) 0.13146(8) 0.96894(7)
C2 C 0.6287(3) 0.23242(8) 0.94589(8)
H1 H 0.5164 0.2644 0.9787
C3 C 0.8221(3) 0.28107(8) 0.88218(8)
H2 H 0.9312 0.2488 0.8492
C4 C 0.8820(3) 0.38340(8) 0.85820(8)
H3 H 1.1087 0.3895 0.8676
H4 H 0.7354 0.4092 0.8940
C5 C 0.8289(3) 0.44248(8) 0.76922(8)
H5 H 0.9775 0.4178 0.7330
H6 H 0.6027 0.4366 0.7593
C6 C 0.8894(3) 0.54608(8) 0.74811(7)
H7 H 0.7401 0.5703 0.7845
H8 H 1.1148 0.5513 0.7590
C7 C 0.8421(3) 0.60787(8) 0.66006(7)
H9 H 0.6198 0.6007 0.6483
H10 H 0.9985 0.5858 0.6235
C8 C 0.8892(3) 0.71177(8) 0.64127(7)
H11 H 0.7347 0.7335 0.6784
H12 H 1.1123 0.7188 0.6525
C9 C 0.8388(4) 0.77462(9) 0.55363(8)
H13 H 0.6174 0.7668 0.5419
H14 H 0.9967 0.7540 0.5164
C10 C 0.8799(4) 0.87845(10) 0.53629(10)
H15 H 0.7246 0.8994 0.5730
H16 H 0.8393 0.9155 0.4796
H17 H 1.1022 0.8873 0.5452
O1 O 0.7258(3) 0.08880(7) 0.92358(6)
H18 H 0.672(4) 0.0233(13) 0.9440(11)
O2 O 0.3914(3) 0.09133(6) 1.03140(6)
C11 C 0.8861(3) 0.38412(8) 0.08521(7)
C12 C 0.7997(3) 0.29736(8) 0.15407(7)
H19 H 0.6226 0.3012 0.1921
C13 C 0.9525(3) 0.21450(8) 0.16647(8)
H20 H 1.1233 0.2100 0.1272
C14 C 0.8739(3) 0.12735(8) 0.23837(8)
H21 H 0.6890 0.1424 0.2730
H22 H 1.0637 0.1071 0.2711
C15 C 0.7862(3) 0.04552(8) 0.21573(7)
H23 H 0.5940 0.0648 0.1838
H24 H 0.9698 0.0301 0.1810
C16 C 0.7118(3) -0.04165(8) 0.29112(7)
H25 H 0.5301 -0.0254 0.3258
H26 H 0.9048 -0.0602 0.3228
C17 C 0.6209(3) -0.12579(8) 0.27255(7)
H27 H 0.4234 -0.1084 0.2425
H28 H 0.7997 -0.1416 0.2369
C18 C 0.5576(3) -0.21198(8) 0.34955(8)
H29 H 0.3811 -0.1954 0.3853
H30 H 0.7561 -0.2291 0.3792
C19 C 0.4629(3) -0.29745(9) 0.33398(8)
H31 H 0.2533 -0.2825 0.3090
H32 H 0.6297 -0.3109 0.2944
C20 C 0.4299(4) -0.38499(10) 0.41096(10)
H33 H 0.6376 -0.4010 0.4355
H34 H 0.3701 -0.4376 0.3972
H35 H 0.2606 -0.3728 0.4498
O3 O 1.1225(2) 0.37951(6) 0.03363(6)
H36 H 1.1482 0.4331 -0.0026
O4 O 0.7260(2) 0.45925(6) 0.08111(6)
H37? H 0.7970 0.5037 0.0395
loop_
_geom_bond_atom_site_label_1
_geom_bond_atom_site_label_2
_geom_bond_site_symmetry_1
_geom_bond_site_symmetry_2
C1 C2 1_555 1_555
C2 H1 1_555 1_555
C3 C2 1_555 1_555
H2 C3 1_555 1_555
C4 C3 1_555 1_555
H3 C4 1_555 1_555
H4 C4 1_555 1_555
C5 C4 1_555 1_555
H5 C5 1_555 1_555
H6 C5 1_555 1_555
C6 C5 1_555 1_555
H7 C6 1_555 1_555
H8 C6 1_555 1_555
C7 C6 1_555 1_555
H9 C7 1_555 1_555
H10 C7 1_555 1_555
C8 C7 1_555 1_555
H11 C8 1_555 1_555
H12 C8 1_555 1_555
C9 C8 1_555 1_555
H13 C9 1_555 1_555
H14 C9 1_555 1_555
C10 C9 1_555 1_555
H15 C10 1_555 1_555
H16 C10 1_555 1_555
H17 C10 1_555 1_555
O1 C1 1_555 1_555
H18 O1 1_555 1_555
O2 C1 1_555 1_555
C11 C12 1_555 1_555
C12 H19 1_555 1_555
C13 C12 1_555 1_555
H20 C13 1_555 1_555
C14 C13 1_555 1_555
H21 C14 1_555 1_555
H22 C14 1_555 1_555
C15 C14 1_555 1_555
H23 C15 1_555 1_555
H24 C15 1_555 1_555
C16 C15 1_555 1_555
H25 C16 1_555 1_555
H26 C16 1_555 1_555
C17 C16 1_555 1_555
H27 C17 1_555 1_555
H28 C17 1_555 1_555
C18 C17 1_555 1_555
H29 C18 1_555 1_555
H30 C18 1_555 1_555
C19 C18 1_555 1_555
H31 C19 1_555 1_555
H32 C19 1_555 1_555
C20 C19 1_555 1_555
H33 C20 1_555 1_555
H34 C20 1_555 1_555
H35 C20 1_555 1_555
O3 C11 1_555 1_555
H36 O3 1_555 1_555
O4 C11 1_555 1_555

#END
