
#######################################################################
#
#                 Cambridge Crystallographic Data Centre
#                                CCDC 
#
#######################################################################
#
# If this CIF has been generated from an entry in the Cambridge 
# Structural Database, then it will include bibliographic, chemical, 
# crystal, experimental, refinement or atomic coordinate data resulting 
# from the CCDC's data processing and validation procedures.
#
#######################################################################

data_SABCAC
_chemical_formula_moiety         'C30 H25 N1 O6'
_chemical_name_systematic        
'2,4,6-tris(4-Carboxyphenyl)aniline trimethyl ester'
_symmetry_cell_setting           orthorhombic
_symmetry_space_group_name_H-M   'P b c n'
_symmetry_Int_Tables_number      60
_space_group_name_Hall           '-P 2n 2ab'
loop_
_symmetry_equiv_pos_site_id
_symmetry_equiv_pos_as_xyz
1 x,y,z
2 1/2-x,1/2-y,1/2+z
3 -x,y,1/2-z
4 1/2+x,1/2-y,-z
5 -x,-y,-z
6 1/2+x,1/2+y,1/2-z
7 x,-y,1/2+z
8 1/2-x,1/2+y,z
_cell_length_a                   24.2244(10)
_cell_length_b                   7.7980(4)
_cell_length_c                   26.5186(11)
_cell_angle_alpha                90
_cell_angle_beta                 90
_cell_angle_gamma                90
_cell_volume                     5009.41
_exptl_crystal_colour            yellow
_exptl_crystal_description       plate
_cell_formula_units_Z            8
loop_
_atom_site_label
_atom_site_type_symbol
_atom_site_fract_x
_atom_site_fract_y
_atom_site_fract_z
C1 C 0.73955(10) 0.1924(3) -0.02718(9)
C2 C 0.73529(10) 0.2551(3) 0.02322(9)
C3 C 0.68420(10) 0.3036(3) 0.04175(9)
H1 H 0.6821 0.3462 0.0752
C4 C 0.63548(10) 0.2927(3) 0.01340(9)
C5 C 0.64013(10) 0.2296(3) -0.03568(9)
H2 H 0.6078 0.2206 -0.0558
C6 C 0.69068(11) 0.1794(3) -0.05632(9)
C7 C 0.78390(10) 0.2752(3) 0.05695(9)
C8 C 0.83141(11) 0.3618(4) 0.04183(9)
H3 H 0.8352 0.3964 0.0077
C9 C 0.87321(11) 0.3982(4) 0.07581(10)
H4 H 0.9053 0.4574 0.0649
C10 C 0.86805(11) 0.3478(4) 0.12616(9)
C11 C 0.82183(11) 0.2577(4) 0.14159(9)
H5 H 0.8186 0.2215 0.1757
C12 C 0.78023(10) 0.2200(4) 0.10753(9)
H6 H 0.7489 0.1564 0.1183
C13 C 0.91147(11) 0.3908(4) 0.16417(11)
C14 C 0.99585(16) 0.5332(7) 0.17906(16)
H7 H 1.0239 0.5993 0.1609
H8 H 1.0128 0.4308 0.1938
H9 H 0.9800 0.6040 0.2059
C15 C 0.58214(10) 0.3453(4) 0.03638(9)
C16 C 0.58167(11) 0.4667(4) 0.07509(10)
H10 H 0.6151 0.5223 0.0842
C17 C 0.53341(11) 0.5077(4) 0.10041(10)
H11 H 0.5342 0.5888 0.1271
C18 C 0.48413(10) 0.4312(4) 0.08696(9)
C19 C 0.48321(11) 0.3161(4) 0.04666(10)
H12 H 0.4492 0.2674 0.0360
C20 C 0.53177(11) 0.2726(4) 0.02206(9)
H13 H 0.5308 0.1923 -0.0049
C21 C 0.43211(11) 0.4665(4) 0.11510(10)
C22 C 0.39270(12) 0.5976(4) 0.18734(11)
H14 H 0.3636 0.6507 0.1669
H15 H 0.4030 0.6751 0.2149
H16 H 0.3791 0.4893 0.2014
C23 C 0.69102(10) 0.1073(4) -0.10839(9)
C24 C 0.65117(10) -0.0136(4) -0.12201(9)
H17 H 0.6251 -0.0511 -0.0977
C25 C 0.64907(11) -0.0799(4) -0.17059(9)
H18 H 0.6215 -0.1612 -0.1794
C26 C 0.68748(11) -0.0268(4) -0.20630(9)
C27 C 0.72754(11) 0.0923(4) -0.19324(9)
H19 H 0.7539 0.1278 -0.2176
C28 C 0.72934(11) 0.1603(4) -0.14481(9)
H20 H 0.7566 0.2429 -0.1364
C29 C 0.68898(11) -0.1031(4) -0.25834(9)
C30 C 0.65091(13) -0.3121(4) -0.31252(10)
H21 H 0.6443 -0.2294 -0.3397
H22 H 0.6220 -0.4000 -0.3130
H23 H 0.6870 -0.3664 -0.3174
N1 N 0.78978(9) 0.1431(3) -0.04557(8)
H24 H 0.7925 0.1018 -0.0764
H25 H 0.8195 0.1526 -0.0266
O1 O 0.95268(9) 0.4822(4) 0.14431(8)
O2 O 0.91003(9) 0.3483(3) 0.20786(7)
O3 O 0.44076(8) 0.5644(3) 0.15591(8)
O4 O 0.38758(8) 0.4112(3) 0.10356(8)
O5 O 0.65011(8) -0.2239(3) -0.26431(6)
O6 O 0.72219(8) -0.0645(3) -0.29030(6)
loop_
_geom_bond_atom_site_label_1
_geom_bond_atom_site_label_2
_geom_bond_site_symmetry_1
_geom_bond_site_symmetry_2
C1 C2 1_555 1_555
C2 C3 1_555 1_555
C3 H1 1_555 1_555
C4 C3 1_555 1_555
C5 C4 1_555 1_555
H2 C5 1_555 1_555
C6 C1 1_555 1_555
C7 C2 1_555 1_555
C8 C7 1_555 1_555
H3 C8 1_555 1_555
C9 C8 1_555 1_555
H4 C9 1_555 1_555
C10 C9 1_555 1_555
C11 C10 1_555 1_555
H5 C11 1_555 1_555
C12 C7 1_555 1_555
H6 C12 1_555 1_555
C13 C10 1_555 1_555
C14 H7 1_555 1_555
H8 C14 1_555 1_555
H9 C14 1_555 1_555
C15 C4 1_555 1_555
C16 C15 1_555 1_555
H10 C16 1_555 1_555
C17 C16 1_555 1_555
H11 C17 1_555 1_555
C18 C17 1_555 1_555
C19 C18 1_555 1_555
H12 C19 1_555 1_555
C20 C15 1_555 1_555
H13 C20 1_555 1_555
C21 C18 1_555 1_555
C22 H14 1_555 1_555
H15 C22 1_555 1_555
H16 C22 1_555 1_555
C23 C6 1_555 1_555
C24 C23 1_555 1_555
H17 C24 1_555 1_555
C25 C24 1_555 1_555
H18 C25 1_555 1_555
C26 C25 1_555 1_555
C27 C26 1_555 1_555
H19 C27 1_555 1_555
C28 C23 1_555 1_555
H20 C28 1_555 1_555
C29 C26 1_555 1_555
C30 H21 1_555 1_555
H22 C30 1_555 1_555
H23 C30 1_555 1_555
N1 C1 1_555 1_555
H24 N1 1_555 1_555
H25 N1 1_555 1_555
O1 C13 1_555 1_555
O2 C13 1_555 1_555
O3 C21 1_555 1_555
O4 C21 1_555 1_555
O5 C29 1_555 1_555
O6 C29 1_555 1_555
C5 C6 1_555 1_555
C11 C12 1_555 1_555
C14 O1 1_555 1_555
C19 C20 1_555 1_555
C22 O3 1_555 1_555
C27 C28 1_555 1_555
C30 O5 1_555 1_555

#END
