
#######################################################################
#
#                 Cambridge Crystallographic Data Centre
#                                CCDC 
#
#######################################################################
#
# If this CIF has been generated from an entry in the Cambridge 
# Structural Database, then it will include bibliographic, chemical, 
# crystal, experimental, refinement or atomic coordinate data resulting 
# from the CCDC's data processing and validation procedures.
#
#######################################################################

data_SABMOZ
_chemical_formula_moiety         'C18 H20 N2 O3'
_chemical_name_systematic        
1-sec-Butyl-3-[hydroxy(1-methyl-1H-indol-3-yl)methylidene]pyrrolidine-2,4-dione
_symmetry_cell_setting           monoclinic
_symmetry_space_group_name_H-M   'P 21/c'
_symmetry_Int_Tables_number      14
_space_group_name_Hall           '-P 2ybc'
loop_
_symmetry_equiv_pos_site_id
_symmetry_equiv_pos_as_xyz
1 x,y,z
2 -x,1/2+y,1/2-z
3 -x,-y,-z
4 x,1/2-y,1/2+z
_cell_length_a                   11.781(2)
_cell_length_b                   10.529(2)
_cell_length_c                   12.644(3)
_cell_angle_alpha                90
_cell_angle_beta                 97.18(3)
_cell_angle_gamma                90
_cell_volume                     1556.09
_exptl_crystal_colour            yellow
_exptl_crystal_description       prism
_cell_formula_units_Z            4
_exptl_crystal_recrystallization_method 'petroleum ether/ethyl acetate'
loop_
_atom_site_label
_atom_site_type_symbol
_atom_site_fract_x
_atom_site_fract_y
_atom_site_fract_z
O1 O 0.66886(10) 1.07272(11) 0.42060(10)
H1 H 0.6268 1.0643 0.4691
O2 O 0.93397(11) 0.78344(12) 0.54741(11)
O3 O 0.59380(11) 1.00771(11) 0.58894(10)
N1 N 0.98265(12) 0.96858(14) 0.26733(12)
N2 N 0.69798(14) 0.85187(15) 0.68474(13)
C1 C 0.83455(14) 1.00283(15) 0.35989(13)
C2 C 0.81236(14) 1.06960(15) 0.25917(13)
C3 C 0.72166(16) 1.14252(16) 0.20819(15)
H2 H 0.6560 1.1595 0.2425
C4 C 0.72960(18) 1.18928(18) 0.10697(15)
H3 H 0.6677 1.2368 0.0714
C5 C 0.82620(19) 1.16822(18) 0.05608(16)
H4 H 0.8299 1.2041 -0.0123
C6 C 0.91688(17) 1.09601(17) 0.10329(15)
H5 H 0.9827 1.0810 0.0687
C7 C 0.90694(15) 1.04631(16) 0.20424(14)
C8 C 0.93954(14) 0.94263(16) 0.35943(14)
H6 H 0.9757 0.8910 0.4154
C9 C 1.08481(15) 0.91093(18) 0.23351(16)
H7 H 1.1285 0.8681 0.2943
H8 H 1.1322 0.9770 0.2065
H9 H 1.0623 0.8489 0.1770
C10 C 0.75981(14) 0.99897(15) 0.44100(13)
C11 C 0.76929(14) 0.92599(15) 0.53493(14)
C12 C 0.84678(15) 0.82736(17) 0.57785(14)
C13 C 0.80043(16) 0.77699(18) 0.67725(16)
H10 H 0.7816 0.6855 0.6696
H11 H 0.8569 0.7890 0.7413
C14 C 0.67860(15) 0.93502(16) 0.60328(14)
C15 C 0.61807(18) 0.8307(2) 0.76310(17)
H12 H 0.5520 0.8898 0.7455
C16 C 0.6765(2) 0.8655(4) 0.87609(19)
H13 H 0.7046 0.9511 0.8762
H14 H 0.6218 0.8582 0.9260
H15 H 0.7391 0.8085 0.8962
C17 C 0.5719(2) 0.6974(2) 0.7563(2)
H16 H 0.5187 0.6874 0.8073
H17 H 0.6336 0.6388 0.7749
C18 C 0.5146(3) 0.6638(3) 0.6507(3)
H18 H 0.4453 0.7153 0.6346
H19 H 0.4939 0.5736 0.6495
H20 H 0.5662 0.6800 0.5971
C19? C 0.5954(8) 0.8519(12) 0.9604(7)
H21? H 0.7043 0.9511 0.8756
H22? H 0.7411 0.8106 0.8945
H23? H 0.5373 0.6820 0.6846
H24? H 0.6328 0.6378 0.7745
H25? H 0.5155 0.6875 0.8043
H26? H 0.5255 0.9007 0.9387
H27? H 0.6326 0.8840 1.0287
H28? H 0.5758 0.7621 0.9678
loop_
_geom_bond_atom_site_label_1
_geom_bond_atom_site_label_2
_geom_bond_site_symmetry_1
_geom_bond_site_symmetry_2
O1 H1 1_555 1_555
O2 C12 1_555 1_555
O3 C14 1_555 1_555
N1 C7 1_555 1_555
N2 C13 1_555 1_555
C1 C2 1_555 1_555
C2 C3 1_555 1_555
C3 H2 1_555 1_555
C4 C3 1_555 1_555
H3 C4 1_555 1_555
C5 C4 1_555 1_555
H4 C5 1_555 1_555
C6 C5 1_555 1_555
H5 C6 1_555 1_555
C7 C2 1_555 1_555
C8 N1 1_555 1_555
H6 C8 1_555 1_555
C9 N1 1_555 1_555
H7 C9 1_555 1_555
H8 C9 1_555 1_555
H9 C9 1_555 1_555
C10 O1 1_555 1_555
C11 C10 1_555 1_555
C12 C11 1_555 1_555
C13 C12 1_555 1_555
H10 C13 1_555 1_555
H11 C13 1_555 1_555
C14 N2 1_555 1_555
C15 N2 1_555 1_555
H12 C15 1_555 1_555
C16 C15 1_555 1_555
H13 C16 1_555 1_555
H14 C16 1_555 1_555
H15 C16 1_555 1_555
C17 C15 1_555 1_555
H16 C17 1_555 1_555
H17 C17 1_555 1_555
C18 C17 1_555 1_555
H18 C18 1_555 1_555
H19 C18 1_555 1_555
H20 C18 1_555 1_555
C1 C8 1_555 1_555
C1 C10 1_555 1_555
C6 C7 1_555 1_555
C11 C14 1_555 1_555

#END
