
#######################################################################
#
#                 Cambridge Crystallographic Data Centre
#                                CCDC 
#
#######################################################################
#
# If this CIF has been generated from an entry in the Cambridge 
# Structural Database, then it will include bibliographic, chemical, 
# crystal, experimental, refinement or atomic coordinate data resulting 
# from the CCDC's data processing and validation procedures.
#
#######################################################################

data_SADMOA
_chemical_formula_moiety         'C16 H23 N2 O1 1+,Cl1 1-'
_chemical_name_systematic        
"N-t-Butyl-N'-(2-hydroxy-2-phenylpropyl)imidazolium chloride"
_symmetry_cell_setting           triclinic
_symmetry_space_group_name_H-M   'P -1'
_symmetry_Int_Tables_number      2
_space_group_name_Hall           '-P 1'
loop_
_symmetry_equiv_pos_site_id
_symmetry_equiv_pos_as_xyz
1 x,y,z
2 -x,-y,-z
_cell_length_a                   11.2459(6)
_cell_length_b                   11.3574(6)
_cell_length_c                   14.0301(7)
_cell_angle_alpha                108.942(2)
_cell_angle_beta                 91.217(2)
_cell_angle_gamma                102.273(2)
_cell_volume                     1648.29
_exptl_crystal_colour            colorless
_exptl_crystal_description       tablet
_chemical_melting_point          '64-66 deg.C'
_cell_formula_units_Z            4
loop_
_atom_site_label
_atom_site_type_symbol
_atom_site_fract_x
_atom_site_fract_y
_atom_site_fract_z
O1 O 0.50855(8) -0.04174(8) -0.16288(7)
H1 H 0.5106 0.0141 -0.1904
N1 N 0.76830(9) 0.02670(9) -0.12735(7)
C1 C 0.76092(11) 0.14761(11) -0.08601(9)
H2 H 0.7190 0.1923 -0.1169
N2 N 0.82202(9) 0.19616(9) 0.00593(8)
C2 C 0.83561(11) -0.00428(12) -0.05929(9)
H3 H 0.8544 -0.0848 -0.0691
C3 C 0.86964(11) 0.10160(12) 0.02389(9)
H4 H 0.9172 0.1096 0.0834
C4 C 0.70624(11) -0.05882(11) -0.22606(9)
H5 H 0.7550 -0.1219 -0.2576
H6 H 0.7005 -0.0083 -0.2710
C5 C 0.57657(11) -0.13036(11) -0.21599(9)
C6 C 0.51395(13) -0.20486(13) -0.32325(10)
H7 H 0.4313 -0.2516 -0.3193
H8 H 0.5614 -0.2656 -0.3596
H9 H 0.5092 -0.1450 -0.3594
C7 C 0.84115(13) 0.33108(12) 0.07712(10)
C8 C 0.97888(14) 0.38915(14) 0.09195(12)
H10 H 1.0080 0.3906 0.0269
H11 H 1.0212 0.3373 0.1182
H12 H 0.9957 0.4767 0.1403
C9 C 0.78994(16) 0.32647(16) 0.17546(11)
H13 H 0.8342 0.2792 0.2053
H14 H 0.7030 0.2834 0.1618
H15 H 0.7996 0.4138 0.2228
C10 C 0.77416(16) 0.40440(13) 0.02883(13)
H16 H 0.8088 0.4066 -0.0343
H17 H 0.7836 0.4920 0.0756
H18 H 0.6871 0.3616 0.0142
C11 C 0.58563(11) -0.21796(11) -0.15477(9)
C12 C 0.63313(14) -0.32520(13) -0.19540(10)
H19 H 0.6587 -0.3441 -0.2617
C13 C 0.64380(16) -0.40515(14) -0.14059(12)
H20 H 0.6752 -0.4789 -0.1698
C14 C 0.60867(14) -0.37731(14) -0.04331(11)
H21 H 0.6147 -0.4325 -0.0059
C15 C 0.56499(13) -0.26937(14) -0.00096(10)
H22 H 0.5430 -0.2488 0.0665
C16 C 0.55274(12) -0.19000(12) -0.05638(10)
H23 H 0.5217 -0.1162 -0.0267
O2 O 0.02449(8) 0.03339(9) 0.66130(7)
H24 H -0.0016 -0.0260 0.6843
N3 N 0.23807(9) -0.19920(9) 0.49639(7)
C17 C 0.19680(11) -0.15829(11) 0.58668(9)
H25 H 0.1371 -0.2082 0.6136
N4 N 0.25270(9) -0.03619(9) 0.63309(7)
C18 C 0.32281(11) -0.09830(11) 0.48437(9)
H26 H 0.3666 -0.1003 0.4269
C19 C 0.33149(11) 0.00322(11) 0.56935(9)
H27 H 0.3822 0.0863 0.5829
C20 C 0.22620(11) 0.04156(11) 0.73268(9)
H28 H 0.3026 0.1019 0.7700
H29 H 0.1951 -0.0149 0.7720
C21 C 0.13055(11) 0.11758(12) 0.72301(9)
C22 C 0.09744(13) 0.18320(13) 0.82972(10)
H30 H 0.0361 0.2316 0.8256
H31 H 0.1709 0.2417 0.8715
H32 H 0.0642 0.1183 0.8602
C23 C 0.20518(12) -0.33222(12) 0.42136(10)
C24 C 0.11142(16) -0.41523(14) 0.46364(13)
H33 H 0.1476 -0.4189 0.5265
H34 H 0.0865 -0.5018 0.4140
H35 H 0.0398 -0.3783 0.4776
C25 C 0.15161(14) -0.32566(16) 0.32317(11)
H36 H 0.2130 -0.2716 0.2973
H37 H 0.0796 -0.2892 0.3360
H38 H 0.1278 -0.4120 0.2731
C26 C 0.32216(14) -0.38099(13) 0.40697(11)
H39 H 0.3541 -0.3841 0.4714
H40 H 0.3832 -0.3232 0.3840
H41 H 0.3044 -0.4670 0.3562
C27 C 0.18400(12) 0.21385(12) 0.67133(9)
C28 C 0.28522(13) 0.31283(12) 0.71912(10)
H42 H 0.3163 0.3235 0.7856
C29 C 0.34096(15) 0.39555(14) 0.67109(12)
H43 H 0.4099 0.4626 0.7046
C30 C 0.29635(17) 0.38074(15) 0.57431(13)
H44 H 0.3347 0.4375 0.5412
C31 C 0.19602(16) 0.28329(16) 0.52573(12)
H45 H 0.1653 0.2733 0.4593
C32 C 0.13985(14) 0.19961(14) 0.57407(10)
H46 H 0.0711 0.1325 0.5403
Cl1 Cl -0.04065(3) -0.20867(3) 0.73218(2)
Cl2 Cl 0.55600(3) 0.18788(3) -0.24405(2)
loop_
_geom_bond_atom_site_label_1
_geom_bond_atom_site_label_2
_geom_bond_site_symmetry_1
_geom_bond_site_symmetry_2
O1 H1 1_555 1_555
N1 C1 1_555 1_555
C1 H2 1_555 1_555
N2 C1 1_555 1_555
C2 N1 1_555 1_555
H3 C2 1_555 1_555
C3 N2 1_555 1_555
H4 C3 1_555 1_555
C4 N1 1_555 1_555
H5 C4 1_555 1_555
H6 C4 1_555 1_555
C5 O1 1_555 1_555
C6 C5 1_555 1_555
H7 C6 1_555 1_555
H8 C6 1_555 1_555
H9 C6 1_555 1_555
C7 N2 1_555 1_555
C8 C7 1_555 1_555
H10 C8 1_555 1_555
H11 C8 1_555 1_555
H12 C8 1_555 1_555
C9 C7 1_555 1_555
H13 C9 1_555 1_555
H14 C9 1_555 1_555
H15 C9 1_555 1_555
C10 C7 1_555 1_555
H16 C10 1_555 1_555
H17 C10 1_555 1_555
H18 C10 1_555 1_555
C11 C5 1_555 1_555
C12 C11 1_555 1_555
H19 C12 1_555 1_555
C13 C12 1_555 1_555
H20 C13 1_555 1_555
C14 C13 1_555 1_555
H21 C14 1_555 1_555
C15 C14 1_555 1_555
H22 C15 1_555 1_555
C16 C11 1_555 1_555
H23 C16 1_555 1_555
O2 H24 1_555 1_555
N3 C17 1_555 1_555
C17 H25 1_555 1_555
N4 C17 1_555 1_555
C18 N3 1_555 1_555
H26 C18 1_555 1_555
C19 N4 1_555 1_555
H27 C19 1_555 1_555
C20 N4 1_555 1_555
H28 C20 1_555 1_555
H29 C20 1_555 1_555
C21 O2 1_555 1_555
C22 C21 1_555 1_555
H30 C22 1_555 1_555
H31 C22 1_555 1_555
H32 C22 1_555 1_555
C23 N3 1_555 1_555
C24 C23 1_555 1_555
H33 C24 1_555 1_555
H34 C24 1_555 1_555
H35 C24 1_555 1_555
C25 C23 1_555 1_555
H36 C25 1_555 1_555
H37 C25 1_555 1_555
H38 C25 1_555 1_555
C26 C23 1_555 1_555
H39 C26 1_555 1_555
H40 C26 1_555 1_555
H41 C26 1_555 1_555
C27 C21 1_555 1_555
C28 C27 1_555 1_555
H42 C28 1_555 1_555
C29 C28 1_555 1_555
H43 C29 1_555 1_555
C30 C29 1_555 1_555
H44 C30 1_555 1_555
C31 C30 1_555 1_555
H45 C31 1_555 1_555
C32 C27 1_555 1_555
H46 C32 1_555 1_555
C2 C3 1_555 1_555
C4 C5 1_555 1_555
C15 C16 1_555 1_555
C18 C19 1_555 1_555
C20 C21 1_555 1_555
C31 C32 1_555 1_555

#END
