
#######################################################################
#
#                 Cambridge Crystallographic Data Centre
#                                CCDC 
#
#######################################################################
#
# If this CIF has been generated from an entry in the Cambridge 
# Structural Database, then it will include bibliographic, chemical, 
# crystal, experimental, refinement or atomic coordinate data resulting 
# from the CCDC's data processing and validation procedures.
#
#######################################################################

data_SAFDAH
_chemical_formula_moiety         'C15 H24 Br1 N1 O4'
_chemical_name_systematic        
6-Bromo-7-ethyl-N,N-dimethyldecahydrooxireno[e]pyrano[3,2-b]oxocine-3-carboxamide
_symmetry_cell_setting           trigonal
_symmetry_space_group_name_H-M   'P 32 2 1'
_symmetry_Int_Tables_number      154
_space_group_name_Hall           'P 32 2"'
loop_
_symmetry_equiv_pos_site_id
_symmetry_equiv_pos_as_xyz
1 x,y,z
2 -y,x-y,2/3+z
3 -x+y,-x,1/3+z
4 y,x,-z
5 x-y,-y,1/3-z
6 -x,-x+y,2/3-z
_cell_length_a                   10.8064(1)
_cell_length_b                   10.8064(1)
_cell_length_c                   25.8156(4)
_cell_angle_alpha                90
_cell_angle_beta                 90
_cell_angle_gamma                120
_cell_volume                     2610.81
_exptl_crystal_colour            silver
_exptl_crystal_description       block
_cell_formula_units_Z            6
loop_
_atom_site_label
_atom_site_type_symbol
_atom_site_fract_x
_atom_site_fract_y
_atom_site_fract_z
Br1 Br 0.53239(2) 0.253774(19) 0.060883(7)
O1 O -0.02755(14) -0.47474(13) 0.06796(5)
O2 O 0.29579(12) -0.22173(11) 0.11526(4)
O3 O 0.38866(15) -0.53514(14) 0.12801(5)
O4 O 0.58934(12) -0.09616(13) 0.08087(4)
N1 N -0.00275(16) -0.27353(16) 0.10331(6)
C1 C 0.0561(2) -0.1607(2) 0.14223(7)
H1 H 0.1402 -0.1568 0.1582
H2 H -0.0161 -0.1806 0.1689
H3 H 0.0837 -0.0687 0.1258
C2 C -0.1286(2) -0.2923(2) 0.07587(8)
H4 H -0.1592 -0.3701 0.0507
H5 H -0.1056 -0.2037 0.0577
H6 H -0.2059 -0.3158 0.1007
C3 C 0.03748(17) -0.37220(19) 0.09710(6)
C4 C 0.16879(19) -0.35251(18) 0.12767(6)
H7 H 0.1486 -0.3480 0.1652
C5 C 0.18782(19) -0.48192(19) 0.12063(7)
H8 H 0.1069 -0.5670 0.1368
H9 H 0.1895 -0.5017 0.0833
C6 C 0.3254(2) -0.45226(19) 0.14549(7)
H10 H 0.3329 -0.4321 0.1835
C7 C 0.45969(19) -0.38310(19) 0.11716(7)
H11 H 0.5468 -0.3220 0.1383
C8 C 0.46929(19) -0.3433(2) 0.06074(6)
H12 H 0.3863 -0.4206 0.0423
H13 H 0.5567 -0.3371 0.0459
C9 C 0.47279(18) -0.20293(18) 0.05090(7)
H14 H 0.4973 -0.1784 0.0135
C10 C 0.33717(19) -0.19725(18) 0.06160(6)
H15 H 0.2575 -0.2690 0.0395
C11 C 0.3663(2) -0.04738(19) 0.04856(6)
H16 H 0.3849 -0.0293 0.0110
H17 H 0.2819 -0.0386 0.0574
C12 C 0.4955(2) 0.06148(19) 0.07919(7)
H18 H 0.4731 0.0452 0.1170
C13 C 0.6263(2) 0.04742(19) 0.06802(7)
H19 H 0.6501 0.0646 0.0303
C14 C 0.7572(2) 0.1446(2) 0.09967(8)
H20 H 0.7326 0.1290 0.1369
H21 H 0.7875 0.2454 0.0915
C15 C 0.8803(2) 0.1181(3) 0.08903(12)
H22 H 0.9628 0.1829 0.1103
H23 H 0.9063 0.1355 0.0523
H24 H 0.8513 0.0190 0.0977
loop_
_geom_bond_atom_site_label_1
_geom_bond_atom_site_label_2
_geom_bond_site_symmetry_1
_geom_bond_site_symmetry_2
Br1 C12 1_555 1_555
O1 C3 1_555 1_555
O2 C4 1_555 1_555
O3 C6 1_555 1_555
O4 C9 1_555 1_555
N1 C1 1_555 1_555
C1 H1 1_555 1_555
H2 C1 1_555 1_555
H3 C1 1_555 1_555
C2 N1 1_555 1_555
H4 C2 1_555 1_555
H5 C2 1_555 1_555
H6 C2 1_555 1_555
C3 N1 1_555 1_555
C4 C3 1_555 1_555
H7 C4 1_555 1_555
C5 C4 1_555 1_555
H8 C5 1_555 1_555
H9 C5 1_555 1_555
C6 C5 1_555 1_555
H10 C6 1_555 1_555
C7 O3 1_555 1_555
H11 C7 1_555 1_555
C8 C7 1_555 1_555
H12 C8 1_555 1_555
H13 C8 1_555 1_555
C9 C8 1_555 1_555
H14 C9 1_555 1_555
C10 O2 1_555 1_555
H15 C10 1_555 1_555
C11 C10 1_555 1_555
H16 C11 1_555 1_555
H17 C11 1_555 1_555
C12 C11 1_555 1_555
H18 C12 1_555 1_555
C13 O4 1_555 1_555
H19 C13 1_555 1_555
C14 C13 1_555 1_555
H20 C14 1_555 1_555
H21 C14 1_555 1_555
C15 C14 1_555 1_555
H22 C15 1_555 1_555
H23 C15 1_555 1_555
H24 C15 1_555 1_555
C6 C7 1_555 1_555
C9 C10 1_555 1_555
C12 C13 1_555 1_555

#END
