
#######################################################################
#
#                 Cambridge Crystallographic Data Centre
#                                CCDC 
#
#######################################################################
#
# If this CIF has been generated from an entry in the Cambridge 
# Structural Database, then it will include bibliographic, chemical, 
# crystal, experimental, refinement or atomic coordinate data resulting 
# from the CCDC's data processing and validation procedures.
#
#######################################################################

data_SAFQUN
_chemical_formula_moiety         'C18 H13 F1 N2 O2'
_chemical_name_systematic        
2-Fluoro-N'-((2-hydroxy-1-naphthyl)methylene)benzohydrazide
_symmetry_cell_setting           monoclinic
_symmetry_space_group_name_H-M   'C c'
_symmetry_Int_Tables_number      9
_space_group_name_Hall           'C -2yc'
loop_
_symmetry_equiv_pos_site_id
_symmetry_equiv_pos_as_xyz
1 x,y,z
2 x,-y,1/2+z
3 1/2+x,1/2+y,z
4 1/2+x,1/2-y,1/2+z
_cell_length_a                   7.078(3)
_cell_length_b                   29.1953(16)
_cell_length_c                   7.3013(10)
_cell_angle_alpha                90
_cell_angle_beta                 106.521(3)
_cell_angle_gamma                90
_cell_volume                     1446.48
_exptl_crystal_colour            colorless
_exptl_crystal_description       block
_cell_formula_units_Z            4
loop_
_atom_site_label
_atom_site_type_symbol
_atom_site_fract_x
_atom_site_fract_y
_atom_site_fract_z
F1 F 0.1283(4) 0.37460(7) 0.8168(4)
N1 N 0.1961(4) 0.24093(9) 0.8406(4)
N2 N 0.0468(4) 0.20916(9) 0.8074(4)
O1 O 0.0092(3) 0.29182(7) 0.6358(3)
O2 O -0.3144(4) 0.18598(9) 0.7215(4)
H1 H -0.2211 0.2032 0.7283
C1 C 0.3335(4) 0.31244(10) 0.8066(4)
C2 C 0.3090(5) 0.35837(11) 0.8366(5)
C3 C 0.4602(7) 0.38825(14) 0.8874(6)
H2 H 0.4377 0.4191 0.9055
C4 C 0.6445(7) 0.37250(16) 0.9116(6)
H3 H 0.7500 0.3927 0.9482
C5 C 0.6796(5) 0.32759(16) 0.8836(6)
H4 H 0.8075 0.3173 0.8989
C6 C 0.5243(5) 0.29761(13) 0.8327(5)
H5 H 0.5480 0.2668 0.8156
C7 C 0.1631(4) 0.28143(10) 0.7509(4)
C8 C 0.0955(5) 0.17013(11) 0.8843(5)
H6 H 0.2266 0.1642 0.9488
C9 C -0.0507(4) 0.13518(11) 0.8723(4)
C10 C -0.2470(5) 0.14513(12) 0.7981(5)
C11 C -0.3917(6) 0.11228(14) 0.7994(6)
H7 H -0.5245 0.1194 0.7495
C12 C -0.3365(6) 0.07047(14) 0.8733(6)
H8 H -0.4334 0.0490 0.8733
C13 C -0.1387(6) 0.05826(11) 0.9502(5)
C14 C -0.0837(7) 0.01541(13) 1.0315(6)
H9 H -0.1810 -0.0060 1.0314
C15 C 0.1059(8) 0.00411(13) 1.1100(6)
H10 H 0.1393 -0.0246 1.1645
C16 C 0.2514(6) 0.03585(12) 1.1089(5)
H11 H 0.3832 0.0284 1.1635
C17 C 0.2030(5) 0.07762(10) 1.0289(5)
H12 H 0.3030 0.0982 1.0272
C18 C 0.0072(5) 0.09071(10) 0.9490(4)
H13 H 0.311(4) 0.2354(13) 0.931(4)
loop_
_geom_bond_atom_site_label_1
_geom_bond_atom_site_label_2
_geom_bond_site_symmetry_1
_geom_bond_site_symmetry_2
F1 C2 1_555 1_555
N1 N2 1_555 1_555
N2 C8 1_555 1_555
O1 C7 1_555 1_555
O2 H1 1_555 1_555
C1 C2 1_555 1_555
C2 C3 1_555 1_555
C3 H2 1_555 1_555
C4 C3 1_555 1_555
H3 C4 1_555 1_555
C5 C4 1_555 1_555
H4 C5 1_555 1_555
C6 C1 1_555 1_555
H5 C6 1_555 1_555
C7 N1 1_555 1_555
C8 H6 1_555 1_555
C9 C8 1_555 1_555
C10 O2 1_555 1_555
C11 C10 1_555 1_555
H7 C11 1_555 1_555
C12 C11 1_555 1_555
H8 C12 1_555 1_555
C13 C12 1_555 1_555
C14 C13 1_555 1_555
H9 C14 1_555 1_555
C15 C14 1_555 1_555
H10 C15 1_555 1_555
C16 C15 1_555 1_555
H11 C16 1_555 1_555
C17 C16 1_555 1_555
H12 C17 1_555 1_555
C18 C9 1_555 1_555
H13 N1 1_555 1_555
C1 C7 1_555 1_555
C5 C6 1_555 1_555
C9 C10 1_555 1_555
C13 C18 1_555 1_555
C17 C18 1_555 1_555

#END
