
#######################################################################
#
#                 Cambridge Crystallographic Data Centre
#                                CCDC 
#
#######################################################################
#
# If this CIF has been generated from an entry in the Cambridge 
# Structural Database, then it will include bibliographic, chemical, 
# crystal, experimental, refinement or atomic coordinate data resulting 
# from the CCDC's data processing and validation procedures.
#
#######################################################################

data_SAFRAU
_chemical_formula_moiety         'C51 H56 B2 N2'
_chemical_name_systematic        
2,8-bis(Dimesitylboryl)-6H,12H-5,11-methanodibenzo[b,f][1,5]diazocine
_symmetry_cell_setting           triclinic
_symmetry_space_group_name_H-M   'P -1'
_symmetry_Int_Tables_number      2
_space_group_name_Hall           '-P 1'
loop_
_symmetry_equiv_pos_site_id
_symmetry_equiv_pos_as_xyz
1 x,y,z
2 -x,-y,-z
_cell_length_a                   9.3565(3)
_cell_length_b                   14.0077(6)
_cell_length_c                   16.3650(6)
_cell_angle_alpha                86.079(3)
_cell_angle_beta                 83.808(3)
_cell_angle_gamma                88.377(3)
_cell_volume                     2126.87
_exptl_crystal_colour            colorless
_exptl_crystal_description       prism
_cell_formula_units_Z            2
loop_
_atom_site_label
_atom_site_type_symbol
_atom_site_fract_x
_atom_site_fract_y
_atom_site_fract_z
N1 N 0.51726(17) 0.23628(12) -0.05204(10)
N2 N 0.68504(18) 0.10503(11) -0.07519(10)
B1 B 0.7203(2) 0.04164(15) 0.27696(14)
B2 B 0.9474(2) 0.51197(16) -0.18209(13)
C1 C 0.5453(2) 0.14646(15) -0.09129(13)
H1 H 0.5426 0.1577 -0.1503
H2 H 0.4707 0.1016 -0.0708
C2 C 0.7951(2) 0.16395(13) -0.12414(12)
H3 H 0.7995 0.1494 -0.1815
H4 H 0.8882 0.1483 -0.1053
C3 C 0.7623(2) 0.26997(13) -0.11699(11)
C4 C 0.63185(19) 0.30059(13) -0.07553(11)
C5 C 0.6121(2) 0.39681(14) -0.06065(12)
H5 H 0.5290 0.4170 -0.0296
C6 C 0.7135(2) 0.46231(14) -0.09109(12)
H6 H 0.6975 0.5262 -0.0800
C7 C 0.8414(2) 0.43589(13) -0.13864(11)
C8 C 0.8623(2) 0.33790(13) -0.14839(11)
H7 H 0.9474 0.3173 -0.1773
C9 C 0.8986(2) 0.62122(13) -0.18429(12)
C10 C 0.9727(2) 0.68868(14) -0.14580(12)
C11 C 1.0972(2) 0.65917(17) -0.09758(14)
H8 H 1.1338 0.7146 -0.0761
H9 H 1.1718 0.6299 -0.1331
H10 H 1.0651 0.6142 -0.0529
C12 C 0.9304(2) 0.78453(14) -0.15086(13)
H11 H 0.9781 0.8276 -0.1232
C13 C 0.8197(2) 0.81844(14) -0.19557(13)
C14 C 0.7811(3) 0.92348(15) -0.20363(17)
H12 H 0.7024 0.9332 -0.2366
H13 H 0.8627 0.9582 -0.2295
H14 H 0.7537 0.9460 -0.1500
C15 C 0.7466(2) 0.75212(14) -0.23226(13)
H15 H 0.6718 0.7732 -0.2625
C16 C 0.7802(2) 0.65504(14) -0.22575(12)
C17 C 0.6879(3) 0.58954(16) -0.26633(17)
H16 H 0.6139 0.6266 -0.2909
H17 H 0.6447 0.5433 -0.2258
H18 H 0.7465 0.5571 -0.3081
C18 C 1.0993(2) 0.48020(13) -0.22664(13)
C19 C 1.1326(3) 0.49816(15) -0.31254(14)
C20 C 1.0258(3) 0.5441(2) -0.36643(15)
H19 H 1.0687 0.5500 -0.4225
H20 H 0.9983 0.6064 -0.3484
H21 H 0.9423 0.5051 -0.3628
C21 C 1.2663(3) 0.47011(18) -0.35033(17)
H22 H 1.2852 0.4806 -0.4071
C22 C 1.3716(3) 0.42734(19) -0.3067(2)
C23 C 1.5150(3) 0.3967(3) -0.3497(3)
H23 H 1.5742 0.3685 -0.3098
H24 H 1.5617 0.4515 -0.3781
H25 H 1.5000 0.3507 -0.3887
C24 C 1.3400(2) 0.41133(17) -0.22313(19)
H26 H 1.4104 0.3840 -0.1924
C25 C 1.2059(2) 0.43463(15) -0.18253(15)
C26 C 1.1834(3) 0.4101(2) -0.09124(16)
H27 H 1.2688 0.3794 -0.0734
H28 H 1.1041 0.3676 -0.0790
H29 H 1.1628 0.4675 -0.0630
C27 C 0.4894(2) 0.21334(15) 0.03740(12)
H30 H 0.3945 0.1866 0.0500
H31 H 0.4914 0.2716 0.0661
C28 C 0.60092(19) 0.14230(13) 0.06734(11)
C29 C 0.69825(19) 0.09638(13) 0.01080(11)
C30 C 0.8076(2) 0.03798(13) 0.03987(12)
H32 H 0.8744 0.0089 0.0026
C31 C 0.8177(2) 0.02289(14) 0.12294(12)
H33 H 0.8926 -0.0154 0.1406
C32 C 0.7184(2) 0.06351(13) 0.18185(11)
C33 C 0.6120(2) 0.12375(14) 0.15082(12)
H34 H 0.5454 0.1528 0.1881
C34 C 0.6102(2) 0.09831(14) 0.33754(11)
C35 C 0.6192(2) 0.19725(15) 0.34510(12)
C36 C 0.7362(3) 0.25709(17) 0.29743(16)
H35 H 0.7231 0.3225 0.3113
H36 H 0.7312 0.2534 0.2394
H37 H 0.8284 0.2334 0.3113
C37 C 0.5181(2) 0.24404(17) 0.39760(13)
H38 H 0.5287 0.3088 0.4040
C38 C 0.4024(3) 0.19763(19) 0.44059(13)
C39 C 0.2895(3) 0.2517(3) 0.49355(19)
H39 H 0.3146 0.3178 0.4918
H40 H 0.2843 0.2248 0.5493
H41 H 0.1978 0.2467 0.4731
C40 C 0.3923(2) 0.10108(19) 0.43229(14)
H42 H 0.3148 0.0687 0.4607
C41 C 0.4933(2) 0.05027(16) 0.38313(12)
C42 C 0.4710(3) -0.05449(17) 0.37687(17)
H43 H 0.3867 -0.0739 0.4121
H44 H 0.5531 -0.0903 0.3936
H45 H 0.4588 -0.0663 0.3210
C43 C 0.8282(2) -0.03840(14) 0.30881(11)
C44 C 0.8245(2) -0.13399(15) 0.28621(12)
C45 C 0.7138(3) -0.16693(17) 0.23423(17)
H46 H 0.7295 -0.2337 0.2258
H47 H 0.7223 -0.1309 0.1819
H48 H 0.6193 -0.1571 0.2619
C46 C 0.9208(3) -0.20248(17) 0.31466(14)
H49 H 0.9144 -0.2653 0.3005
C47 C 1.0246(3) -0.1808(2) 0.36275(15)
C48 C 1.1298(4) -0.2561(3) 0.3933(2)
H50 H 1.1110 -0.3166 0.3728
H51 H 1.1186 -0.2615 0.4524
H52 H 1.2263 -0.2378 0.3739
C49 C 1.0302(2) -0.0873(2) 0.38415(14)
H53 H 1.1013 -0.0711 0.4160
C50 C 0.9336(2) -0.01686(16) 0.35988(12)
C51 C 0.9476(3) 0.08288(19) 0.38673(16)
H54 H 1.0246 0.0838 0.4210
H55 H 0.8593 0.1022 0.4172
H56 H 0.9677 0.1262 0.3391
loop_
_geom_bond_atom_site_label_1
_geom_bond_atom_site_label_2
_geom_bond_site_symmetry_1
_geom_bond_site_symmetry_2
N1 C1 1_555 1_555
N2 C1 1_555 1_555
B1 C32 1_555 1_555
B2 C7 1_555 1_555
C1 H1 1_555 1_555
H2 C1 1_555 1_555
C2 N2 1_555 1_555
H3 C2 1_555 1_555
H4 C2 1_555 1_555
C3 C2 1_555 1_555
C4 N1 1_555 1_555
C5 C4 1_555 1_555
H5 C5 1_555 1_555
C6 C5 1_555 1_555
H6 C6 1_555 1_555
C7 C6 1_555 1_555
C8 C3 1_555 1_555
H7 C8 1_555 1_555
C9 B2 1_555 1_555
C10 C9 1_555 1_555
C11 C10 1_555 1_555
H8 C11 1_555 1_555
H9 C11 1_555 1_555
H10 C11 1_555 1_555
C12 C10 1_555 1_555
H11 C12 1_555 1_555
C13 C12 1_555 1_555
C14 C13 1_555 1_555
H12 C14 1_555 1_555
H13 C14 1_555 1_555
H14 C14 1_555 1_555
C15 C13 1_555 1_555
H15 C15 1_555 1_555
C16 C9 1_555 1_555
C17 C16 1_555 1_555
H16 C17 1_555 1_555
H17 C17 1_555 1_555
H18 C17 1_555 1_555
C18 B2 1_555 1_555
C19 C18 1_555 1_555
C20 C19 1_555 1_555
H19 C20 1_555 1_555
H20 C20 1_555 1_555
H21 C20 1_555 1_555
C21 C19 1_555 1_555
H22 C21 1_555 1_555
C22 C21 1_555 1_555
C23 C22 1_555 1_555
H23 C23 1_555 1_555
H24 C23 1_555 1_555
H25 C23 1_555 1_555
C24 C22 1_555 1_555
H26 C24 1_555 1_555
C25 C18 1_555 1_555
C26 C25 1_555 1_555
H27 C26 1_555 1_555
H28 C26 1_555 1_555
H29 C26 1_555 1_555
C27 N1 1_555 1_555
H30 C27 1_555 1_555
H31 C27 1_555 1_555
C28 C27 1_555 1_555
C29 N2 1_555 1_555
C30 C29 1_555 1_555
H32 C30 1_555 1_555
C31 C30 1_555 1_555
H33 C31 1_555 1_555
C32 C31 1_555 1_555
C33 C28 1_555 1_555
H34 C33 1_555 1_555
C34 B1 1_555 1_555
C35 C34 1_555 1_555
C36 C35 1_555 1_555
H35 C36 1_555 1_555
H36 C36 1_555 1_555
H37 C36 1_555 1_555
C37 C35 1_555 1_555
H38 C37 1_555 1_555
C38 C37 1_555 1_555
C39 C38 1_555 1_555
H39 C39 1_555 1_555
H40 C39 1_555 1_555
H41 C39 1_555 1_555
C40 C38 1_555 1_555
H42 C40 1_555 1_555
C41 C34 1_555 1_555
C42 C41 1_555 1_555
H43 C42 1_555 1_555
H44 C42 1_555 1_555
H45 C42 1_555 1_555
C43 B1 1_555 1_555
C44 C43 1_555 1_555
C45 C44 1_555 1_555
H46 C45 1_555 1_555
H47 C45 1_555 1_555
H48 C45 1_555 1_555
C46 C44 1_555 1_555
H49 C46 1_555 1_555
C47 C46 1_555 1_555
C48 C47 1_555 1_555
H50 C48 1_555 1_555
H51 C48 1_555 1_555
H52 C48 1_555 1_555
C49 C47 1_555 1_555
H53 C49 1_555 1_555
C50 C43 1_555 1_555
C51 C50 1_555 1_555
H54 C51 1_555 1_555
H55 C51 1_555 1_555
H56 C51 1_555 1_555
C3 C4 1_555 1_555
C7 C8 1_555 1_555
C15 C16 1_555 1_555
C24 C25 1_555 1_555
C28 C29 1_555 1_555
C32 C33 1_555 1_555
C40 C41 1_555 1_555
C49 C50 1_555 1_555

#END
