
#######################################################################
#
#                 Cambridge Crystallographic Data Centre
#                                CCDC 
#
#######################################################################
#
# If this CIF has been generated from an entry in the Cambridge 
# Structural Database, then it will include bibliographic, chemical, 
# crystal, experimental, refinement or atomic coordinate data resulting 
# from the CCDC's data processing and validation procedures.
#
#######################################################################

data_SAFTEA
_chemical_formula_moiety         'C30 H36 N2 O2'
_chemical_name_systematic        
2,2'-(1,2-Phenylenebis(nitrilomethylylidene))bis(6-t-butyl-4-methylphenol)
_symmetry_cell_setting           triclinic
_symmetry_space_group_name_H-M   'P -1'
_symmetry_Int_Tables_number      2
_space_group_name_Hall           '-P 1'
loop_
_symmetry_equiv_pos_site_id
_symmetry_equiv_pos_as_xyz
1 x,y,z
2 -x,-y,-z
_cell_length_a                   10.578(7)
_cell_length_b                   11.394(7)
_cell_length_c                   12.217(7)
_cell_angle_alpha                72.195(6)
_cell_angle_beta                 73.525(6)
_cell_angle_gamma                72.975(6)
_cell_volume                     1309.69
_exptl_crystal_colour            orange
_exptl_crystal_description       block
_cell_formula_units_Z            2
loop_
_atom_site_label
_atom_site_type_symbol
_atom_site_fract_x
_atom_site_fract_y
_atom_site_fract_z
N1 N 0.2830(3) 0.5924(3) 0.9145(3)
N2 N 0.4261(3) 0.7498(3) 0.7380(2)
O1 O 0.0609(2) 0.7680(2) 0.9079(2)
H1 H 0.1431 0.7403 0.8950
O2 O 0.2253(2) 0.9257(2) 0.6653(3)
H2 H 0.2684 0.8546 0.6911
C1 C 0.4186(3) 0.5407(3) 0.8651(3)
C2 C 0.4834(4) 0.4144(4) 0.8975(4)
H3 H 0.4367 0.3594 0.9571
C3 C 0.6136(4) 0.3682(4) 0.8448(4)
H4 H 0.6542 0.2829 0.8682
C4 C 0.6842(4) 0.4480(4) 0.7573(4)
H5 H 0.7729 0.4171 0.7213
C5 C 0.6236(4) 0.5733(4) 0.7231(3)
H6 H 0.6717 0.6269 0.6632
C6 C 0.4910(3) 0.6220(3) 0.7765(3)
C7 C 0.2184(3) 0.5328(3) 1.0093(3)
H7 H 0.2646 0.4556 1.0486
C8 C 0.0780(3) 0.5772(3) 1.0597(3)
C9 C 0.0143(4) 0.5004(3) 1.1613(3)
H8 H 0.0650 0.4232 1.1960
C10 C -0.1199(3) 0.5353(3) 1.2109(3)
C11 C -0.1908(3) 0.6540(3) 1.1575(3)
H9 H -0.2815 0.6801 1.1916
C12 C -0.1352(3) 0.7354(3) 1.0573(3)
C13 C 0.0023(3) 0.6937(3) 1.0077(3)
C14 C -0.1909(4) 0.4504(4) 1.3160(3)
H10 H -0.1396 0.3646 1.3231
H11 H -0.2794 0.4561 1.3060
H12 H -0.1988 0.4763 1.3858
C15 C -0.2195(3) 0.8652(3) 1.0034(3)
C16 C -0.3626(4) 0.8925(4) 1.0780(4)
H13 H -0.3579 0.8885 1.1564
H14 H -0.4093 0.8308 1.0805
H15 H -0.4105 0.9754 1.0440
C17 C -0.1554(4) 0.9714(4) 0.9985(4)
H16 H -0.2100 1.0516 0.9665
H17 H -0.0662 0.9608 0.9494
H18 H -0.1499 0.9684 1.0764
C18 C -0.2286(4) 0.8684(4) 0.8795(3)
H19 H -0.2766 0.9509 0.8444
H20 H -0.2759 0.8062 0.8843
H21 H -0.1391 0.8502 0.8322
C19 C 0.4916(3) 0.8371(4) 0.7072(3)
H22 H 0.5806 0.8146 0.7161
C20 C 0.4349(3) 0.9685(3) 0.6595(3)
C21 C 0.5145(3) 1.0562(4) 0.6317(3)
H23 H 0.6034 1.0280 0.6413
C22 C 0.4643(3) 1.1837(4) 0.5903(3)
C23 C 0.3297(3) 1.2211(3) 0.5787(3)
H24 H 0.2936 1.3072 0.5537
C24 C 0.2463(3) 1.1391(3) 0.6016(3)
C25 C 0.3013(3) 1.0107(3) 0.6425(3)
C26 C 0.5487(4) 1.2799(4) 0.5618(4)
H25 H 0.5223 1.3229 0.6240
H26 H 0.5349 1.3402 0.4892
H27 H 0.6426 1.2377 0.5541
C27 C 0.1000(3) 1.1870(3) 0.5839(3)
C28 C -0.0004(4) 1.1451(4) 0.6987(4)
H28 H -0.0906 1.1728 0.6849
H29 H 0.0051 1.1817 0.7578
H30 H 0.0216 1.0545 0.7251
C29 C 0.0872(4) 1.1343(4) 0.4862(4)
H31 H 0.1115 1.0435 0.5082
H32 H 0.1466 1.1647 0.4139
H33 H -0.0044 1.1618 0.4759
C30 C 0.0582(4) 1.3314(4) 0.5466(4)
H34 H -0.0328 1.3563 0.5348
H35 H 0.1181 1.3618 0.4746
H36 H 0.0631 1.3666 0.6069
loop_
_geom_bond_atom_site_label_1
_geom_bond_atom_site_label_2
_geom_bond_site_symmetry_1
_geom_bond_site_symmetry_2
N1 C1 1_555 1_555
N2 C6 1_555 1_555
O1 H1 1_555 1_555
O2 H2 1_555 1_555
C1 C2 1_555 1_555
C2 H3 1_555 1_555
C3 C2 1_555 1_555
H4 C3 1_555 1_555
C4 C3 1_555 1_555
H5 C4 1_555 1_555
C5 C4 1_555 1_555
H6 C5 1_555 1_555
C6 C1 1_555 1_555
C7 N1 1_555 1_555
H7 C7 1_555 1_555
C8 C7 1_555 1_555
C9 C8 1_555 1_555
H8 C9 1_555 1_555
C10 C9 1_555 1_555
C11 C10 1_555 1_555
H9 C11 1_555 1_555
C12 C11 1_555 1_555
C13 O1 1_555 1_555
C14 C10 1_555 1_555
H10 C14 1_555 1_555
H11 C14 1_555 1_555
H12 C14 1_555 1_555
C15 C12 1_555 1_555
C16 C15 1_555 1_555
H13 C16 1_555 1_555
H14 C16 1_555 1_555
H15 C16 1_555 1_555
C17 C15 1_555 1_555
H16 C17 1_555 1_555
H17 C17 1_555 1_555
H18 C17 1_555 1_555
C18 C15 1_555 1_555
H19 C18 1_555 1_555
H20 C18 1_555 1_555
H21 C18 1_555 1_555
C19 N2 1_555 1_555
H22 C19 1_555 1_555
C20 C19 1_555 1_555
C21 C20 1_555 1_555
H23 C21 1_555 1_555
C22 C21 1_555 1_555
C23 C22 1_555 1_555
H24 C23 1_555 1_555
C24 C23 1_555 1_555
C25 O2 1_555 1_555
C26 C22 1_555 1_555
H25 C26 1_555 1_555
H26 C26 1_555 1_555
H27 C26 1_555 1_555
C27 C24 1_555 1_555
C28 C27 1_555 1_555
H28 C28 1_555 1_555
H29 C28 1_555 1_555
H30 C28 1_555 1_555
C29 C27 1_555 1_555
H31 C29 1_555 1_555
H32 C29 1_555 1_555
H33 C29 1_555 1_555
C30 C27 1_555 1_555
H34 C30 1_555 1_555
H35 C30 1_555 1_555
H36 C30 1_555 1_555
C5 C6 1_555 1_555
C8 C13 1_555 1_555
C12 C13 1_555 1_555
C20 C25 1_555 1_555
C24 C25 1_555 1_555

#END
