
#######################################################################
#
#                 Cambridge Crystallographic Data Centre
#                                CCDC 
#
#######################################################################
#
# If this CIF has been generated from an entry in the Cambridge 
# Structural Database, then it will include bibliographic, chemical, 
# crystal, experimental, refinement or atomic coordinate data resulting 
# from the CCDC's data processing and validation procedures.
#
#######################################################################

data_SAFTAW
_chemical_formula_moiety         'C15 H10 Cl1 N1 O2'
_chemical_name_systematic        1-Benzyl-4-chloro-1H-indole-2,3-dione
_symmetry_cell_setting           orthorhombic
_symmetry_space_group_name_H-M   'P b c a'
_symmetry_Int_Tables_number      61
_space_group_name_Hall           '-P 2ac 2ab'
loop_
_symmetry_equiv_pos_site_id
_symmetry_equiv_pos_as_xyz
1 x,y,z
2 1/2-x,-y,1/2+z
3 -x,1/2+y,1/2-z
4 1/2+x,1/2-y,-z
5 -x,-y,-z
6 1/2+x,y,1/2-z
7 x,1/2-y,1/2+z
8 1/2-x,1/2+y,z
_cell_length_a                   22.864(5)
_cell_length_b                   16.600(3)
_cell_length_c                   13.335(3)
_cell_angle_alpha                90
_cell_angle_beta                 90
_cell_angle_gamma                90
_cell_volume                     5061.2
_exptl_crystal_colour            yellow
_exptl_crystal_description       block
_cell_formula_units_Z            16
loop_
_atom_site_label
_atom_site_type_symbol
_atom_site_fract_x
_atom_site_fract_y
_atom_site_fract_z
Cl1 Cl 0.61720(4) 0.52555(7) 0.54905(10)
C1 C 0.73389(14) 0.5069(2) 0.5352(3)
N1 N 0.83104(11) 0.47219(17) 0.5229(2)
O1 O 0.82562(10) 0.33371(14) 0.5350(2)
O2 O 0.70097(10) 0.36781(14) 0.5538(2)
C2 C 0.68738(15) 0.5601(2) 0.5384(3)
C3 C 0.69793(18) 0.6420(2) 0.5343(3)
H1 H 0.6671 0.6785 0.5358
C4 C 0.7549(2) 0.6687(2) 0.5278(3)
H2 H 0.7617 0.7239 0.5269
C5 C 0.80188(17) 0.6178(2) 0.5228(3)
H3 H 0.8398 0.6375 0.5173
C6 C 0.79077(15) 0.5362(2) 0.5261(3)
C7 C 0.80405(15) 0.3997(2) 0.5335(3)
C8 C 0.73753(16) 0.4189(2) 0.5423(3)
C9 C 0.89331(15) 0.4816(2) 0.5095(3)
H4 H 0.9002 0.5207 0.4567
H5 H 0.9096 0.4306 0.4876
C10 C 0.92469(15) 0.5083(2) 0.6021(3)
C11 C 0.96343(16) 0.5718(2) 0.5974(3)
H6 H 0.9693 0.5990 0.5373
C12 C 0.9933(2) 0.5946(3) 0.6822(5)
H7 H 1.0196 0.6373 0.6790
C13 C 0.9849(2) 0.5558(4) 0.7704(5)
H8 H 1.0054 0.5717 0.8273
C14 C 0.9457(2) 0.4926(3) 0.7757(4)
H9 H 0.9398 0.4657 0.8360
C15 C 0.91552(17) 0.4698(2) 0.6912(3)
H10 H 0.8886 0.4279 0.6947
O3 O 0.78599(12) 0.39116(16) 0.7763(2)
O4 O 0.66106(12) 0.42670(16) 0.7850(2)
N2 N 0.65413(13) 0.28816(19) 0.7866(2)
Cl2 Cl 0.86828(5) 0.23348(8) 0.78394(10)
C16 C 0.69392(17) 0.2242(2) 0.7838(3)
C17 C 0.6827(2) 0.1434(2) 0.7823(3)
H11 H 0.6444 0.1245 0.7811
C18 C 0.7288(2) 0.0906(2) 0.7827(3)
H12 H 0.7214 0.0355 0.7817
C19 C 0.7861(2) 0.1170(3) 0.7845(3)
H13 H 0.8167 0.0802 0.7859
C20 C 0.79739(17) 0.1997(3) 0.7842(3)
C21 C 0.75154(15) 0.2526(2) 0.7840(3)
C22 C 0.74875(18) 0.3404(2) 0.7816(3)
C23 C 0.68310(19) 0.3602(3) 0.7847(3)
C24 C 0.59128(16) 0.2818(3) 0.7776(3)
H14 H 0.5827 0.2432 0.7252
H15 H 0.5764 0.3336 0.7556
C25 C 0.55801(16) 0.2574(2) 0.8702(3)
C26 C 0.58256(16) 0.2129(2) 0.9452(3)
H16 H 0.6223 0.2009 0.9437
C27 C 0.5485(2) 0.1861(3) 1.0228(3)
H17 H 0.5653 0.1545 1.0727
C28 C 0.4906(2) 0.2049(3) 1.0284(4)
H18 H 0.4677 0.1864 1.0813
C29 C 0.46671(18) 0.2517(3) 0.9539(5)
H19 H 0.4275 0.2662 0.9573
C30 C 0.49984(18) 0.2771(2) 0.8754(3)
H20 H 0.4830 0.3079 0.8249
loop_
_geom_bond_atom_site_label_1
_geom_bond_atom_site_label_2
_geom_bond_site_symmetry_1
_geom_bond_site_symmetry_2
Cl1 C2 1_555 1_555
C1 C2 1_555 1_555
N1 C6 1_555 1_555
O1 C7 1_555 1_555
O2 C8 1_555 1_555
C2 C3 1_555 1_555
C3 H1 1_555 1_555
C4 C3 1_555 1_555
H2 C4 1_555 1_555
C5 C4 1_555 1_555
H3 C5 1_555 1_555
C6 C1 1_555 1_555
C7 N1 1_555 1_555
C8 C1 1_555 1_555
C9 N1 1_555 1_555
H4 C9 1_555 1_555
H5 C9 1_555 1_555
C10 C9 1_555 1_555
C11 C10 1_555 1_555
H6 C11 1_555 1_555
C12 C11 1_555 1_555
H7 C12 1_555 1_555
C13 C12 1_555 1_555
H8 C13 1_555 1_555
C14 C13 1_555 1_555
H9 C14 1_555 1_555
C15 C10 1_555 1_555
H10 C15 1_555 1_555
O3 C22 1_555 1_555
O4 C23 1_555 1_555
N2 C16 1_555 1_555
Cl2 C20 1_555 1_555
C16 C17 1_555 1_555
C17 H11 1_555 1_555
C18 C17 1_555 1_555
H12 C18 1_555 1_555
C19 C18 1_555 1_555
H13 C19 1_555 1_555
C20 C19 1_555 1_555
C21 C16 1_555 1_555
C22 C21 1_555 1_555
C23 N2 1_555 1_555
C24 N2 1_555 1_555
H14 C24 1_555 1_555
H15 C24 1_555 1_555
C25 C24 1_555 1_555
C26 C25 1_555 1_555
H16 C26 1_555 1_555
C27 C26 1_555 1_555
H17 C27 1_555 1_555
C28 C27 1_555 1_555
H18 C28 1_555 1_555
C29 C28 1_555 1_555
H19 C29 1_555 1_555
C30 C25 1_555 1_555
H20 C30 1_555 1_555
C5 C6 1_555 1_555
C7 C8 1_555 1_555
C14 C15 1_555 1_555
C20 C21 1_555 1_555
C22 C23 1_555 1_555
C29 C30 1_555 1_555

#END
