
#######################################################################
#
#                 Cambridge Crystallographic Data Centre
#                                CCDC 
#
#######################################################################
#
# If this CIF has been generated from an entry in the Cambridge 
# Structural Database, then it will include bibliographic, chemical, 
# crystal, experimental, refinement or atomic coordinate data resulting 
# from the CCDC's data processing and validation procedures.
#
#######################################################################

data_SAFVON
_chemical_compound_source        'Phoma sp. fungus'
_chemical_formula_moiety         'C15 H24 O3,H2 O1'
_chemical_name_systematic        
'3,8,11,11-Tetramethyl-4,13-dioxatricyclo[10.1.0.0^3,5^]tridec-8-en-7-ol monohydrate'
_symmetry_cell_setting           orthorhombic
_symmetry_space_group_name_H-M   'P 21 21 21'
_symmetry_Int_Tables_number      19
_space_group_name_Hall           'P 2ac 2ab'
loop_
_symmetry_equiv_pos_site_id
_symmetry_equiv_pos_as_xyz
1 x,y,z
2 1/2-x,-y,1/2+z
3 1/2+x,1/2-y,-z
4 -x,1/2+y,1/2-z
_cell_length_a                   8.28899(19)
_cell_length_b                   11.8587(2)
_cell_length_c                   15.3047(3)
_cell_angle_alpha                90
_cell_angle_beta                 90
_cell_angle_gamma                90
_cell_volume                     1504.4
_cell_formula_units_Z            4
loop_
_atom_site_label
_atom_site_type_symbol
_atom_site_fract_x
_atom_site_fract_y
_atom_site_fract_z
O1 O 0.02311(14) 0.79860(10) 0.94207(7)
H1 H 0.1210 0.7897 0.9383
O2 O -0.18305(14) 0.94732(10) 0.51656(6)
O3 O -0.47823(14) 0.85680(10) 0.77762(7)
C1 C 0.1404(2) 1.02213(12) 0.56353(9)
H2 H 0.1110 1.0377 0.5041
H3 H 0.2554 1.0279 0.5698
H4 H 0.0890 1.0756 0.6015
C2 C -0.04100(18) 0.82826(13) 0.85776(9)
H5 H -0.0137 0.7685 0.8161
C3 C -0.30490(19) 0.84171(12) 0.78003(10)
H6 H -0.2644 0.7875 0.7370
C4 C 0.03238(18) 0.93789(12) 0.82634(9)
C5 C -0.37436(17) 0.94391(13) 0.74114(9)
C6 C 0.08611(19) 0.90291(12) 0.58779(10)
C7 C -0.21317(19) 0.98015(13) 0.60644(9)
H7 H -0.1689 1.0530 0.6249
C8 C -0.09583(18) 0.89151(12) 0.58608(9)
H8 H -0.1345 0.8151 0.5987
C9 C -0.22469(18) 0.83290(13) 0.86794(9)
H9 H -0.2620 0.7654 0.8976
H10 H -0.2540 0.8975 0.9034
C10 C 0.14569(18) 0.86745(12) 0.67962(9)
H11 H 0.0958 0.7961 0.6948
H12 H 0.2613 0.8553 0.6770
C11 C -0.37781(18) 0.94989(13) 0.64166(9)
H13 H -0.4111 0.8776 0.6182
H14 H -0.4557 1.0061 0.6232
C12 C 0.1547(2) 0.81956(13) 0.52073(9)
H15 H 0.1154 0.8384 0.4636
H16 H 0.1213 0.7444 0.5355
H17 H 0.2704 0.8237 0.5211
C13 C -0.3805(2) 1.05565(14) 0.78766(10)
H18 H -0.4786 1.0941 0.7726
H19 H -0.2897 1.1007 0.7704
H20 H -0.3771 1.0434 0.8496
C14 C 0.0194(2) 1.03528(13) 0.88985(10)
H21 H -0.0922 1.0507 0.9015
H22 H 0.0691 1.1009 0.8649
H23 H 0.0731 1.0160 0.9434
C15 C 0.11072(18) 0.95081(12) 0.75093(9)
H24 H 0.1500 1.0231 0.7409
O4 O -0.33697(13) 1.24648(9) 0.58992(7)
H25 H -0.3981 1.2375 0.5457
H26 H -0.3869 1.2895 0.6258
loop_
_geom_bond_atom_site_label_1
_geom_bond_atom_site_label_2
_geom_bond_site_symmetry_1
_geom_bond_site_symmetry_2
O1 H1 1_555 1_555
O2 C7 1_555 1_555
O3 C3 1_555 1_555
C1 H2 1_555 1_555
H3 C1 1_555 1_555
H4 C1 1_555 1_555
C2 O1 1_555 1_555
H5 C2 1_555 1_555
C3 H6 1_555 1_555
C4 C2 1_555 1_555
C5 O3 1_555 1_555
C6 C1 1_555 1_555
C7 H7 1_555 1_555
C8 O2 1_555 1_555
H8 C8 1_555 1_555
C9 C2 1_555 1_555
H9 C9 1_555 1_555
H10 C9 1_555 1_555
C10 C6 1_555 1_555
H11 C10 1_555 1_555
H12 C10 1_555 1_555
C11 C5 1_555 1_555
H13 C11 1_555 1_555
H14 C11 1_555 1_555
C12 C6 1_555 1_555
H15 C12 1_555 1_555
H16 C12 1_555 1_555
H17 C12 1_555 1_555
C13 C5 1_555 1_555
H18 C13 1_555 1_555
H19 C13 1_555 1_555
H20 C13 1_555 1_555
C14 C4 1_555 1_555
H21 C14 1_555 1_555
H22 C14 1_555 1_555
H23 C14 1_555 1_555
C15 C4 1_555 1_555
H24 C15 1_555 1_555
O4 H25 1_555 1_555
H26 O4 1_555 1_555
C3 C5 1_555 1_555
C3 C9 1_555 1_555
C6 C8 1_555 1_555
C7 C8 1_555 1_555
C7 C11 1_555 1_555
C10 C15 1_555 1_555

#END
