
#######################################################################
#
#                 Cambridge Crystallographic Data Centre
#                                CCDC 
#
#######################################################################
#
# If this CIF has been generated from an entry in the Cambridge 
# Structural Database, then it will include bibliographic, chemical, 
# crystal, experimental, refinement or atomic coordinate data resulting 
# from the CCDC's data processing and validation procedures.
#
#######################################################################

data_SAGQUO
_chemical_formula_moiety         'C20 H22 O6'
_chemical_name_systematic        
(E)-3-(2,4-Dimethoxyphenyl)-1-(3,4,5-trimethoxyphenyl)prop-2-en-1-one
_symmetry_cell_setting           monoclinic
_symmetry_space_group_name_H-M   'P 21/c'
_symmetry_Int_Tables_number      14
_space_group_name_Hall           '-P 2ybc'
loop_
_symmetry_equiv_pos_site_id
_symmetry_equiv_pos_as_xyz
1 x,y,z
2 -x,1/2+y,1/2-z
3 -x,-y,-z
4 x,1/2-y,1/2+z
_cell_length_a                   8.3111(11)
_cell_length_b                   13.8493(17)
_cell_length_c                   15.887(2)
_cell_angle_alpha                90
_cell_angle_beta                 101.588(2)
_cell_angle_gamma                90
_cell_volume                     1791.37
_exptl_crystal_colour            green
_exptl_crystal_description       prismatic
_chemical_melting_point          '125.7-127.7 deg.C'
_cell_formula_units_Z            4
_exptl_crystal_recrystallization_method dichloromethane/ethanol
loop_
_atom_site_label
_atom_site_type_symbol
_atom_site_fract_x
_atom_site_fract_y
_atom_site_fract_z
O1 O 0.3078(3) 0.60842(10) -0.03257(9)
O2 O 0.45908(16) 0.73756(8) 0.24726(7)
O3 O 0.34229(18) 0.58134(9) 0.49898(7)
O4 O 0.20538(17) 0.38935(8) -0.28996(7)
O5 O 0.11723(15) 0.21987(8) -0.23292(7)
O6 O 0.07241(18) 0.19802(8) -0.07336(8)
C1 C 0.2622(3) 0.53394(12) -0.00427(11)
C2 C 0.2513(2) 0.52558(12) 0.08616(11)
H1 H 0.1994 0.4719 0.1037
C3 C 0.3124(2) 0.59147(12) 0.14391(11)
H2 H 0.3597 0.6450 0.1231
C4 C 0.3155(2) 0.59116(11) 0.23532(10)
C5 C 0.3969(2) 0.66447(11) 0.28813(10)
C6 C 0.4097(2) 0.66259(11) 0.37629(10)
H3 H 0.4670 0.7109 0.4104
C7 C 0.3368(2) 0.58853(12) 0.41331(11)
C8 C 0.2505(2) 0.51675(12) 0.36245(12)
H4 H 0.1993 0.4677 0.3872
C9 C 0.2416(2) 0.51894(11) 0.27580(11)
H5 H 0.1839 0.4703 0.2423
C10 C 0.2178(2) 0.44929(11) -0.06312(10)
C11 C 0.2324(2) 0.46042(11) -0.14787(11)
H6 H 0.2675 0.5192 -0.1662
C12 C 0.1956(2) 0.38529(11) -0.20524(10)
C13 C 0.1453(2) 0.29723(11) -0.17775(10)
C14 C 0.1279(2) 0.28626(11) -0.09326(11)
C15 C 0.1647(2) 0.36210(11) -0.03595(11)
H7 H 0.1538 0.3545 0.0208
C16 C 0.4271(3) 0.65505(15) 0.55295(12)
H8 H 0.5415 0.6534 0.5505
H9 H 0.4147 0.6445 0.6110
H10 H 0.3821 0.7169 0.5336
C17 C 0.5458(2) 0.81254(12) 0.29860(11)
H11 H 0.4751 0.8421 0.3321
H12 H 0.5805 0.8601 0.2621
H13 H 0.6402 0.7859 0.3363
C18 C 0.2455(3) 0.47971(13) -0.32250(12)
H14 H 0.1629 0.5263 -0.3168
H15 H 0.2508 0.4730 -0.3820
H16 H 0.3501 0.5010 -0.2907
C19 C -0.0442(2) 0.21605(14) -0.28238(13)
H17 H -0.1204 0.2052 -0.2452
H18 H -0.0523 0.1643 -0.3232
H19 H -0.0697 0.2761 -0.3123
C20 C 0.0313(3) 0.18677(15) 0.00746(13)
H20 H 0.1280 0.1943 0.0515
H21 H -0.0141 0.1236 0.0115
H22 H -0.0483 0.2347 0.0147
loop_
_geom_bond_atom_site_label_1
_geom_bond_atom_site_label_2
_geom_bond_site_symmetry_1
_geom_bond_site_symmetry_2
O1 C1 1_555 1_555
O2 C5 1_555 1_555
O3 C7 1_555 1_555
O4 C12 1_555 1_555
O5 C13 1_555 1_555
O6 C14 1_555 1_555
C1 C2 1_555 1_555
C2 H1 1_555 1_555
C3 C2 1_555 1_555
H2 C3 1_555 1_555
C4 C3 1_555 1_555
C5 C4 1_555 1_555
C6 C5 1_555 1_555
H3 C6 1_555 1_555
C7 C6 1_555 1_555
C8 C7 1_555 1_555
H4 C8 1_555 1_555
C9 C4 1_555 1_555
H5 C9 1_555 1_555
C10 C1 1_555 1_555
C11 C10 1_555 1_555
H6 C11 1_555 1_555
C12 C11 1_555 1_555
C13 C12 1_555 1_555
C14 C13 1_555 1_555
C15 C10 1_555 1_555
H7 C15 1_555 1_555
C16 O3 1_555 1_555
H8 C16 1_555 1_555
H9 C16 1_555 1_555
H10 C16 1_555 1_555
C17 O2 1_555 1_555
H11 C17 1_555 1_555
H12 C17 1_555 1_555
H13 C17 1_555 1_555
C18 O4 1_555 1_555
H14 C18 1_555 1_555
H15 C18 1_555 1_555
H16 C18 1_555 1_555
C19 O5 1_555 1_555
H17 C19 1_555 1_555
H18 C19 1_555 1_555
H19 C19 1_555 1_555
C20 O6 1_555 1_555
H20 C20 1_555 1_555
H21 C20 1_555 1_555
H22 C20 1_555 1_555
C8 C9 1_555 1_555
C14 C15 1_555 1_555

#END
