
#######################################################################
#
#                 Cambridge Crystallographic Data Centre
#                                CCDC 
#
#######################################################################
#
# If this CIF has been generated from an entry in the Cambridge 
# Structural Database, then it will include bibliographic, chemical, 
# crystal, experimental, refinement or atomic coordinate data resulting 
# from the CCDC's data processing and validation procedures.
#
#######################################################################

data_SAGWUU02
_chemical_formula_moiety         'C9 H6 Cl1 N1 O1'
_chemical_name_systematic        6-chloroquinolin-2(1H)-one
_symmetry_cell_setting           monoclinic
_symmetry_space_group_name_H-M   'P 21/c'
_symmetry_Int_Tables_number      14
_space_group_name_Hall           '-P 2ybc'
loop_
_symmetry_equiv_pos_site_id
_symmetry_equiv_pos_as_xyz
1 x,y,z
2 -x,1/2+y,1/2-z
3 -x,-y,-z
4 x,1/2-y,1/2+z
_cell_length_a                   12.009(3)
_cell_length_b                   3.8693(7)
_cell_length_c                   18.171(7)
_cell_angle_alpha                90
_cell_angle_beta                 110.87(3)
_cell_angle_gamma                90
_cell_volume                     788.945
_cell_formula_units_Z            4
loop_
_atom_site_label
_atom_site_type_symbol
_atom_site_fract_x
_atom_site_fract_y
_atom_site_fract_z
Cl1 Cl 0.10344(4) -0.08294(14) 0.09200(3)
O1 O 0.40740(11) 0.3347(4) 0.55004(7)
N1 N 0.38387(13) 0.2845(4) 0.42065(8)
C1 C 0.32036(13) 0.1906(4) 0.34394(9)
C2 C 0.20817(14) 0.0331(4) 0.32574(10)
C3 C 0.14254(15) -0.0520(5) 0.24728(10)
H1 H 0.0682 -0.1561 0.2343
C4 C 0.30034(15) 0.1695(5) 0.20701(10)
H2 H 0.3303 0.2118 0.1672
C5 C 0.18817(15) 0.0186(5) 0.18954(10)
C6 C 0.34635(15) 0.2330(5) 0.48263(10)
C7 C 0.16712(16) -0.0314(5) 0.38979(11)
H3 H 0.0941 -0.1398 0.3798
C8 C 0.36614(15) 0.2552(5) 0.28401(10)
H4 H 0.4409 0.3559 0.2963
C9 C 0.23231(16) 0.0620(5) 0.46373(11)
H5 H 0.2035 0.0156 0.5039
H6 H 0.4507(19) 0.388(5) 0.4299(12)
loop_
_geom_bond_atom_site_label_1
_geom_bond_atom_site_label_2
_geom_bond_site_symmetry_1
_geom_bond_site_symmetry_2
Cl1 C5 1_555 1_555
O1 C6 1_555 1_555
N1 C1 1_555 1_555
C1 C2 1_555 1_555
C2 C3 1_555 1_555
C3 H1 1_555 1_555
C4 H2 1_555 1_555
C5 C3 1_555 1_555
C6 N1 1_555 1_555
C7 C2 1_555 1_555
H3 C7 1_555 1_555
C8 C1 1_555 1_555
H4 C8 1_555 1_555
C9 C6 1_555 1_555
H5 C9 1_555 1_555
H6 N1 1_555 1_555
C4 C5 1_555 1_555
C4 C8 1_555 1_555
C7 C9 1_555 1_555

#END
