
#######################################################################
#
#                 Cambridge Crystallographic Data Centre
#                                CCDC 
#
#######################################################################
#
# If this CIF has been generated from an entry in the Cambridge 
# Structural Database, then it will include bibliographic, chemical, 
# crystal, experimental, refinement or atomic coordinate data resulting 
# from the CCDC's data processing and validation procedures.
#
#######################################################################

data_SAGYEE
_chemical_formula_moiety         'C32 H34 N2 O5 S2'
_chemical_name_systematic        
4,5,6,7,8,9,10,11-Octahydro-N,N'-ditosyl-1-oxa-5,10-diazadibenzo(b,l)cyclotridecene
_symmetry_cell_setting           monoclinic
_symmetry_space_group_name_H-M   'P 21/c'
_symmetry_Int_Tables_number      14
_space_group_name_Hall           '-P 2ybc'
loop_
_symmetry_equiv_pos_site_id
_symmetry_equiv_pos_as_xyz
1 x,y,z
2 -x,1/2+y,1/2-z
3 -x,-y,-z
4 x,1/2-y,1/2+z
_cell_length_a                   11.055(6)
_cell_length_b                   13.835(5)
_cell_length_c                   19.227(5)
_cell_angle_alpha                90
_cell_angle_beta                 99.73(3)
_cell_angle_gamma                90
_cell_volume                     2898.39
_exptl_crystal_colour            colorless
_cell_formula_units_Z            4
loop_
_atom_site_label
_atom_site_type_symbol
_atom_site_fract_x
_atom_site_fract_y
_atom_site_fract_z
S1 S -0.0056(2) 0.6839(2) 0.1042(1)
S2 S 0.5424(2) 1.0930(2) 0.2270(1)
O1 O 0.2419(4) 0.9093(4) 0.0351(3)
O2 O -0.1255(4) 0.7028(4) 0.0641(3)
O3 O 0.0059(5) 0.6274(4) 0.1675(3)
O4 O 0.5742(5) 1.0579(4) 0.2981(3)
O5 O 0.6359(5) 1.1299(5) 0.1905(3)
N1 N 0.0542(5) 0.7896(5) 0.1245(3)
N2 N 0.4789(6) 1.0031(5) 0.1800(3)
C1 C 0.3111(8) 0.4935(7) -0.0854(5)
C2 C 0.1796(7) 0.7876(6) 0.1715(4)
C3 C 0.1992(8) 0.8667(7) 0.2263(4)
C4 C 0.2720(7) 0.9552(6) 0.2078(4)
C5 C 0.4066(7) 0.9301(7) 0.2123(4)
C6 C 0.1592(9) 1.4058(8) 0.2309(6)
C7 C 0.4453(7) 1.0166(6) 0.1022(4)
C8 C 0.0122(6) 0.8737(6) 0.0800(4)
C9 C 0.0821(6) 0.6274(5) 0.0475(4)
C10 C 0.1949(7) 0.5828(6) 0.0780(4)
C11 C 0.2668(7) 0.5409(6) 0.0342(4)
C12 C 0.2299(7) 0.5391(6) -0.0383(4)
C13 C 0.1196(7) 0.5817(6) -0.0668(4)
C14 C 0.0459(7) 0.6246(6) -0.0249(4)
C15 C 0.4309(6) 1.1843(6) 0.2276(4)
C16 C 0.4042(7) 1.2461(6) 0.1704(4)
C17 C 0.3142(7) 1.3163(6) 0.1715(4)
C18 C 0.2531(8) 1.3271(6) 0.2294(4)
C19 C 0.2831(7) 1.2631(6) 0.2839(4)
C20 C 0.3698(7) 1.1938(6) 0.2843(4)
C21 C 0.4575(6) 0.9234(6) 0.0652(4)
C22 C 0.5729(7) 0.8814(6) 0.0640(4)
C23 C 0.5873(7) 0.7939(6) 0.0335(4)
C24 C 0.4855(7) 0.7412(6) 0.0032(4)
C25 C 0.3677(7) 0.7807(6) 0.0026(4)
C26 C 0.3551(7) 0.8687(6) 0.0318(4)
C27 C 0.1418(7) 0.8863(5) -0.0188(4)
C28 C 0.1552(8) 0.8879(5) -0.0885(4)
C29 C 0.0497(8) 0.8722(6) -0.1404(5)
C30 C -0.0602(8) 0.8565(6) -0.1198(4)
C31 C -0.0730(7) 0.8580(6) -0.0507(4)
C32 C 0.0302(6) 0.8724(6) 0.0041(4)
H1 H 0.2235 0.5821 0.1346
H2 H 0.3535 0.5088 0.0569
H3 H 0.0905 0.5811 -0.1233
H4 H -0.0406 0.6565 -0.0485
H5 H 0.2680 0.5003 -0.1400
H6 H 0.3257 0.4180 -0.0724
H7 H 0.3982 0.5308 -0.0774
H8 H 0.1895 0.7188 0.1984
H9 H 0.2489 0.7943 0.1383
H10 H 0.1102 0.8914 0.2347
H11 H 0.2482 0.8360 0.2747
H12 H 0.2632 1.0128 0.2445
H13 H 0.2356 0.9788 0.1549
H14 H 0.4125 0.8621 0.1856
H15 H 0.4466 0.9226 0.2673
H16 H 0.4521 1.2403 0.1260
H17 H 0.2907 1.3638 0.1266
H18 H 0.2360 1.2684 0.3285
H19 H 0.3911 1.1459 0.3290
H20 H 0.1495 1.4615 0.1910
H21 H 0.1610 1.4383 0.2821
H22 H 0.0825 1.3565 0.2200
H23 H 0.5057 1.0696 0.0850
H24 H 0.3516 1.0416 0.0896
H25 H 0.6540 0.9200 0.0886
H26 H 0.6783 0.7660 0.0326
H27 H 0.4963 0.6708 -0.0193
H28 H 0.2873 0.7409 -0.0213
H29 H 0.2437 0.9010 -0.1034
H30 H 0.0567 0.8728 -0.1957
H31 H -0.1396 0.8419 -0.1594
H32 H -0.1630 0.8486 -0.0369
H33 H -0.0851 0.8809 0.0799
H34 H 0.0594 0.9366 0.1045
loop_
_geom_bond_atom_site_label_1
_geom_bond_atom_site_label_2
_geom_bond_site_symmetry_1
_geom_bond_site_symmetry_2
S1 O2 1_555 1_555
S2 O4 1_555 1_555
O1 C26 1_555 1_555
O3 S1 1_555 1_555
O5 S2 1_555 1_555
N1 S1 1_555 1_555
N2 S2 1_555 1_555
C1 C12 1_555 1_555
C2 N1 1_555 1_555
C3 C2 1_555 1_555
C4 C3 1_555 1_555
C5 N2 1_555 1_555
C6 C18 1_555 1_555
C7 N2 1_555 1_555
C8 N1 1_555 1_555
C9 S1 1_555 1_555
C10 C9 1_555 1_555
C11 C10 1_555 1_555
C12 C11 1_555 1_555
C13 C12 1_555 1_555
C14 C9 1_555 1_555
C15 S2 1_555 1_555
C16 C15 1_555 1_555
C17 C16 1_555 1_555
C18 C17 1_555 1_555
C19 C18 1_555 1_555
C20 C15 1_555 1_555
C21 C7 1_555 1_555
C22 C21 1_555 1_555
C23 C22 1_555 1_555
C24 C23 1_555 1_555
C25 C24 1_555 1_555
C26 C21 1_555 1_555
C27 O1 1_555 1_555
C28 C27 1_555 1_555
C29 C28 1_555 1_555
C30 C29 1_555 1_555
C31 C30 1_555 1_555
C32 C8 1_555 1_555
H1 C10 1_555 1_555
H2 C11 1_555 1_555
H3 C13 1_555 1_555
H4 C14 1_555 1_555
H5 C1 1_555 1_555
H6 C1 1_555 1_555
H7 C1 1_555 1_555
H8 C2 1_555 1_555
H9 C2 1_555 1_555
H10 C3 1_555 1_555
H11 C3 1_555 1_555
H12 C4 1_555 1_555
H13 C4 1_555 1_555
H14 C5 1_555 1_555
H15 C5 1_555 1_555
H16 C16 1_555 1_555
H17 C17 1_555 1_555
H18 C19 1_555 1_555
H19 C20 1_555 1_555
H20 C6 1_555 1_555
H21 C6 1_555 1_555
H22 C6 1_555 1_555
H23 C7 1_555 1_555
H24 C7 1_555 1_555
H25 C22 1_555 1_555
H26 C23 1_555 1_555
H27 C24 1_555 1_555
H28 C25 1_555 1_555
H29 C28 1_555 1_555
H30 C29 1_555 1_555
H31 C30 1_555 1_555
H32 C31 1_555 1_555
H33 C8 1_555 1_555
H34 C8 1_555 1_555
C4 C5 1_555 1_555
C13 C14 1_555 1_555
C19 C20 1_555 1_555
C25 C26 1_555 1_555
C27 C32 1_555 1_555
C31 C32 1_555 1_555

#END
