
#######################################################################
#
#                 Cambridge Crystallographic Data Centre
#                                CCDC 
#
#######################################################################
#
# If this CIF has been generated from an entry in the Cambridge 
# Structural Database, then it will include bibliographic, chemical, 
# crystal, experimental, refinement or atomic coordinate data resulting 
# from the CCDC's data processing and validation procedures.
#
#######################################################################

data_SAHJES01
_chemical_formula_moiety         'C17 H10 O2'
_chemical_name_systematic        1-Hydroxy-11H-benzo[b]fluoren-11-one
_symmetry_cell_setting           monoclinic
_symmetry_space_group_name_H-M   'P 21/c'
_symmetry_Int_Tables_number      14
_space_group_name_Hall           '-P 2ybc'
loop_
_symmetry_equiv_pos_site_id
_symmetry_equiv_pos_as_xyz
1 x,y,z
2 -x,1/2+y,1/2-z
3 -x,-y,-z
4 x,1/2-y,1/2+z
_cell_length_a                   12.474(2)
_cell_length_b                   6.4401(12)
_cell_length_c                   15.601(3)
_cell_angle_alpha                90
_cell_angle_beta                 109.188(3)
_cell_angle_gamma                90
_cell_volume                     1183.66
_exptl_crystal_colour            yellow
_exptl_crystal_description       parallelepiped
_cell_formula_units_Z            4
loop_
_atom_site_label
_atom_site_type_symbol
_atom_site_fract_x
_atom_site_fract_y
_atom_site_fract_z
O1 O 0.33816(18) -0.4251(3) 0.38186(13)
O2 O 0.1185(2) -0.3135(4) 0.25766(17)
H1 H 0.1640 -0.3970 0.2895
C1 C 0.3654(2) -0.2550(4) 0.36001(17)
C2 C 0.4781(2) -0.1509(4) 0.39116(16)
C3 C 0.5778(2) -0.2157(4) 0.45260(17)
H2 H 0.5825 -0.3438 0.4811
C4 C 0.6743(2) -0.0845(4) 0.47243(16)
C5 C 0.7810(2) -0.1415(5) 0.53433(19)
H3 H 0.7888 -0.2690 0.5638
C6 C 0.8722(3) -0.0144(6) 0.5517(2)
H4 H 0.9417 -0.0549 0.5927
C7 C 0.8618(3) 0.1774(6) 0.5079(2)
H5 H 0.9248 0.2638 0.5200
C8 C 0.7606(2) 0.2397(5) 0.4478(2)
H6 H 0.7553 0.3681 0.4195
C9 C 0.6634(2) 0.1113(4) 0.42803(16)
C10 C 0.5575(2) 0.1735(4) 0.36495(17)
H7 H 0.5506 0.3019 0.3363
C11 C 0.4665(2) 0.0454(4) 0.34657(16)
C12 C 0.3467(2) 0.0694(4) 0.28640(15)
C13 C 0.2893(3) 0.2251(5) 0.22994(19)
H8 H 0.3267 0.3450 0.2222
C14 C 0.1736(3) 0.1990(5) 0.1845(2)
H9 H 0.1340 0.3045 0.1465
C15 C 0.1155(3) 0.0231(6) 0.1936(2)
H10 H 0.0379 0.0118 0.1631
C16 C 0.1740(2) -0.1378(5) 0.24919(19)
C17 C 0.2889(2) -0.1116(4) 0.29513(16)
loop_
_geom_bond_atom_site_label_1
_geom_bond_atom_site_label_2
_geom_bond_site_symmetry_1
_geom_bond_site_symmetry_2
O1 C1 1_555 1_555
O2 H1 1_555 1_555
C1 C2 1_555 1_555
C2 C3 1_555 1_555
C3 H2 1_555 1_555
C4 C3 1_555 1_555
C5 C4 1_555 1_555
H3 C5 1_555 1_555
C6 C5 1_555 1_555
H4 C6 1_555 1_555
C7 C6 1_555 1_555
H5 C7 1_555 1_555
C8 C7 1_555 1_555
H6 C8 1_555 1_555
C9 C4 1_555 1_555
C10 C9 1_555 1_555
H7 C10 1_555 1_555
C11 C2 1_555 1_555
C12 C11 1_555 1_555
C13 C12 1_555 1_555
H8 C13 1_555 1_555
C14 C13 1_555 1_555
H9 C14 1_555 1_555
C15 C14 1_555 1_555
H10 C15 1_555 1_555
C16 O2 1_555 1_555
C17 C1 1_555 1_555
C8 C9 1_555 1_555
C10 C11 1_555 1_555
C12 C17 1_555 1_555
C15 C16 1_555 1_555
C16 C17 1_555 1_555

#END
