
#######################################################################
#
#                 Cambridge Crystallographic Data Centre
#                                CCDC 
#
#######################################################################
#
# If this CIF has been generated from an entry in the Cambridge 
# Structural Database, then it will include bibliographic, chemical, 
# crystal, experimental, refinement or atomic coordinate data resulting 
# from the CCDC's data processing and validation procedures.
#
#######################################################################

data_SAHMAR
_chemical_formula_moiety         'C20 H44 N1 O2 1+,Br1 1-'
_chemical_name_systematic        
'2-Hydroxy-N,N,N-trimethyl-3-tetradecyloxypropan-1-aminium bromide'
_symmetry_cell_setting           monoclinic
_symmetry_space_group_name_H-M   'P 21/m'
_symmetry_Int_Tables_number      11
_space_group_name_Hall           '-P 2yb'
loop_
_symmetry_equiv_pos_site_id
_symmetry_equiv_pos_as_xyz
1 x,y,z
2 -x,1/2+y,-z
3 -x,-y,-z
4 x,1/2-y,z
_cell_length_a                   5.9470(4)
_cell_length_b                   7.4331(5)
_cell_length_c                   26.720(2)
_cell_angle_alpha                90
_cell_angle_beta                 92.1850(10)
_cell_angle_gamma                90
_cell_volume                     1180.29
_exptl_crystal_colour            colorless
_exptl_crystal_description       block
_chemical_melting_point          '342 K'
_cell_formula_units_Z            2
_exptl_crystal_recrystallization_method 'ethyl acetate'
loop_
_atom_site_label
_atom_site_type_symbol
_atom_site_fract_x
_atom_site_fract_y
_atom_site_fract_z
O1 O -0.3202(8) 0.3776(8) 0.13541(18)
H1 H -0.2738 0.4655 0.1183
O2 O 0.0819(8) 0.2500 0.23481(14)
N1 N 0.0902(7) 0.2500 0.07672(15)
C1 C 0.0206(14) 0.1957(11) 0.1295(3)
H2 H -0.0773 0.4086 0.1269
H3 H 0.1538 0.1618 0.1494
C2 C -0.1016(13) 0.3479(12) 0.1561(3)
H4 H -0.0133 0.4590 0.1549
C3 C -0.1261(14) 0.290(4) 0.2101(2)
H5 H -0.1997 0.3853 0.2282
H6 H -0.2218 0.1843 0.2108
C4 C 0.0878(14) 0.2500 0.2862(2)
H7 H 0.0049 0.3548 0.2968
C5 C 0.2932(11) 0.2500 0.3127(2)
H8 H 0.3553 0.3698 0.3092
H9 H 0.3907 0.1694 0.2950
C6 C 0.3204(15) 0.203(3) 0.3659(3)
H10 H 0.1945 0.2500 0.3826
H11 H 0.3032 0.0739 0.3683
C7 C 0.5191(12) 0.2500 0.3947(2)
H12 H 0.5322 0.3800 0.3935
H13 H 0.6454 0.2018 0.3771
C8 C 0.5521(14) 0.1965(14) 0.4480(3)
H14 H 0.4234 0.2500 0.4655
H15 H 0.5452 0.0662 0.4492
C9 C 0.7504(12) 0.2500 0.4770(2)
H16 H 0.7576 0.3803 0.4760
H17 H 0.8796 0.2057 0.4596
C10 C 0.7807(16) 0.1948(14) 0.5305(3)
H18 H 0.6513 0.2500 0.5479
H19 H 0.7751 0.0645 0.5315
C11 C 0.9785(12) 0.2500 0.5590(2)
H20 H 0.9839 0.3803 0.5577
H21 H 1.1074 0.2063 0.5414
C12 C 1.0140(15) 0.1975(15) 0.6127(3)
H22 H 0.8865 0.2500 0.6304
H23 H 1.0059 0.0672 0.6141
C13 C 1.2124(13) 0.2500 0.6409(2)
H24 H 1.2690 0.3530 0.6229
H25 H 1.3187 0.1536 0.6355
C14 C 1.2474(15) 0.203(2) 0.6938(3)
H26 H 1.2309 0.0733 0.6963
H27 H 1.1238 0.2500 0.7115
C15 C 1.4523(14) 0.2500 0.7218(2)
H28 H 1.4903 0.3705 0.7110
H29 H 1.5678 0.1714 0.7094
C16 C 1.4849(15) 0.2500 0.7756(3)
H30 H 1.4050 0.1456 0.7875
C17 C 1.6923(17) 0.2500 0.8012(3)
H31 H 1.6703 0.2500 0.8366
H32 H 1.7751 0.1445 0.7923
C18 C -0.1067(9) 0.2500 0.04103(18)
H33 H -0.1988 0.3532 0.0471
H34 H -0.1930 0.1424 0.0455
H35 H -0.0558 0.2544 0.0074
C19 C 0.2289(7) 0.0874(7) 0.06755(16)
H36 H 0.2678 0.0842 0.0330
H37 H 0.3638 0.0916 0.0885
H38 H 0.1447 -0.0186 0.0753
O1C O -0.3202(8) 0.1224(8) 0.13541(18)
H1C H -0.2738 0.0345 0.1183
C1C C 0.0206(14) 0.3043(11) 0.1295(3)
H2C H -0.0773 0.0914 0.1269
H3C H 0.1538 0.3382 0.1494
C2C C -0.1016(13) 0.1521(12) 0.1561(3)
H4C H -0.0133 0.0410 0.1549
C3C C -0.1261(14) 0.210(4) 0.2101(2)
H5C H -0.1997 0.1147 0.2282
H6C H -0.2218 0.3157 0.2108
H7C H 0.0049 0.1452 0.2968
H8C H 0.3553 0.1302 0.3092
H9C H 0.3907 0.3306 0.2950
C6C C 0.3204(15) 0.297(3) 0.3659(3)
H11C H 0.3032 0.4261 0.3683
H12C H 0.5322 0.1200 0.3935
H13C H 0.6454 0.2982 0.3771
C8C C 0.5521(14) 0.3035(14) 0.4480(3)
H15C H 0.5452 0.4338 0.4492
H16C H 0.7576 0.1197 0.4760
H17C H 0.8796 0.2943 0.4596
C10C C 0.7807(16) 0.3052(14) 0.5305(3)
H19C H 0.7751 0.4355 0.5315
H20C H 0.9839 0.1197 0.5577
H21C H 1.1074 0.2937 0.5414
C12C C 1.0140(15) 0.3025(15) 0.6127(3)
H23C H 1.0059 0.4328 0.6141
H24C H 1.2690 0.1470 0.6229
H25C H 1.3187 0.3464 0.6355
C14C C 1.2474(15) 0.297(2) 0.6938(3)
H26C H 1.2309 0.4267 0.6963
H28C H 1.4903 0.1295 0.7110
H29C H 1.5678 0.3286 0.7094
H30C H 1.4050 0.3544 0.7875
H32C H 1.7751 0.3555 0.7923
H33C H -0.1988 0.1468 0.0471
H34C H -0.1930 0.3576 0.0455
H35C H -0.0558 0.2456 0.0074
C19C C 0.2289(7) 0.4126(7) 0.06755(16)
H36C H 0.2678 0.4158 0.0330
H37C H 0.3638 0.4084 0.0885
H38C H 0.1447 0.5186 0.0753
Br1 Br -0.29860(11) 0.7500 0.07517(2)
loop_
_geom_bond_atom_site_label_1
_geom_bond_atom_site_label_2
_geom_bond_site_symmetry_1
_geom_bond_site_symmetry_2
O1 H1 1_555 1_555
O2 C3 1_555 1_555
N1 C1 1_555 1_555
C1 H3 1_555 1_555
H2 C2 1_555 1_555
C2 O1 1_555 1_555
H4 C2 1_555 1_555
C3 C2 1_555 1_555
H5 C3 1_555 1_555
H6 C3 1_555 1_555
C4 O2 1_555 1_555
H7 C4 1_555 1_555
C5 C4 1_555 1_555
H8 C5 1_555 1_555
H9 C5 1_555 1_555
C6 C5 1_555 1_555
H10 C6 1_555 1_555
H11 C6 1_555 1_555
C7 C6 1_555 1_555
H12 C7 1_555 1_555
H13 C7 1_555 1_555
C8 C7 1_555 1_555
H14 C8 1_555 1_555
H15 C8 1_555 1_555
C9 C8 1_555 1_555
H16 C9 1_555 1_555
H17 C9 1_555 1_555
C10 C9 1_555 1_555
H18 C10 1_555 1_555
H19 C10 1_555 1_555
C11 C10 1_555 1_555
H20 C11 1_555 1_555
H21 C11 1_555 1_555
C12 C11 1_555 1_555
H22 C12 1_555 1_555
H23 C12 1_555 1_555
C13 C12 1_555 1_555
H24 C13 1_555 1_555
H25 C13 1_555 1_555
C14 C13 1_555 1_555
H26 C14 1_555 1_555
H27 C14 1_555 1_555
C15 C14 1_555 1_555
H28 C15 1_555 1_555
H29 C15 1_555 1_555
C16 C15 1_555 1_555
H30 C16 1_555 1_555
C17 C16 1_555 1_555
H31 C17 1_555 1_555
H32 C17 1_555 1_555
C18 N1 1_555 1_555
H33 C18 1_555 1_555
H34 C18 1_555 1_555
H35 C18 1_555 1_555
C19 N1 1_555 1_555
H36 C19 1_555 1_555
H37 C19 1_555 1_555
H38 C19 1_555 1_555
O1C H1C 1_555 1_555
C1C N1 1_555 1_555
H2C C1 1_555 1_555
H3C C1C 1_555 1_555
C2C C1 1_555 1_555
H4C C2C 1_555 1_555
C3C O2 1_555 1_555
H5C H6 1_555 1_555
H6C C3 1_555 1_555
H7C C4 1_555 1_555
H8C C5 1_555 1_555
H9C C5 1_555 1_555
C6C C5 1_555 1_555
H11C C6C 1_555 1_555
H12C C7 1_555 1_555
H13C C7 1_555 1_555
C8C C7 1_555 1_555
H15C C8C 1_555 1_555
H16C C9 1_555 1_555
H17C C9 1_555 1_555
C10C C9 1_555 1_555
H19C C10C 1_555 1_555
H20C C11 1_555 1_555
H21C C11 1_555 1_555
C12C C11 1_555 1_555
H23C C12C 1_555 1_555
H24C C13 1_555 1_555
H25C C13 1_555 1_555
C14C C13 1_555 1_555
H26C C14C 1_555 1_555
H28C C15 1_555 1_555
H29C C15 1_555 1_555
H30C C16 1_555 1_555
H32C C17 1_555 1_555
H33C C18 1_555 1_555
H34C C18 1_555 1_555
H35C C18 1_555 1_555
C19C N1 1_555 1_555
H36C C19C 1_555 1_555
H37C C19C 1_555 1_555
H38C C19C 1_555 1_555
C1 C2 1_555 1_555
C1 C1C 1_555 1_555
H2 C1C 1_555 1_555
C2 C1C 1_555 1_555
C2 C2C 1_555 1_555
C3 C3C 1_555 1_555
H5 H6C 1_555 1_555
H6 C3C 1_555 1_555
H8 H9C 1_555 1_555
H9 H8C 1_555 1_555
C6 C6C 1_555 1_555
H10 C6C 1_555 1_555
C7 C6C 1_555 1_555
H13 H13C 1_555 1_555
C8 C8C 1_555 1_555
H14 C8C 1_555 1_555
C9 C8C 1_555 1_555
H17 H17C 1_555 1_555
C10 C10C 1_555 1_555
H18 C10C 1_555 1_555
C11 C10C 1_555 1_555
H21 H21C 1_555 1_555
C12 C12C 1_555 1_555
H22 C12C 1_555 1_555
C13 C12C 1_555 1_555
H24 H25C 1_555 1_555
H25 H24C 1_555 1_555
C14 C14C 1_555 1_555
H27 C14C 1_555 1_555
C15 C14C 1_555 1_555
H28 H29C 1_555 1_555
H29 H28C 1_555 1_555
H33 H34C 1_555 1_555
H34 H33C 1_555 1_555
H35 H35C 1_555 1_555
O1C C2C 1_555 1_555
C1C C2C 1_555 1_555
H2C C2C 1_555 1_555
C2C C3C 1_555 1_555
C3C H5C 1_555 1_555
C3C H6C 1_555 1_555

#END
