
#######################################################################
#
#                 Cambridge Crystallographic Data Centre
#                                CCDC 
#
#######################################################################
#
# If this CIF has been generated from an entry in the Cambridge 
# Structural Database, then it will include bibliographic, chemical, 
# crystal, experimental, refinement or atomic coordinate data resulting 
# from the CCDC's data processing and validation procedures.
#
#######################################################################

data_SAHNOG
_chemical_formula_moiety         'C8 H18 N1 1+,Cl1 1-'
_chemical_name_systematic        '4,4-Dimethylazepanium chloride'
_symmetry_cell_setting           monoclinic
_symmetry_space_group_name_H-M   'P 21/c'
_symmetry_Int_Tables_number      14
_space_group_name_Hall           '-P 2ybc'
loop_
_symmetry_equiv_pos_site_id
_symmetry_equiv_pos_as_xyz
1 x,y,z
2 -x,1/2+y,1/2-z
3 -x,-y,-z
4 x,1/2-y,1/2+z
_cell_length_a                   14.2975(13)
_cell_length_b                   7.2035(7)
_cell_length_c                   9.9433(9)
_cell_angle_alpha                90
_cell_angle_beta                 101.939(4)
_cell_angle_gamma                90
_cell_volume                     1001.93
_exptl_crystal_colour            colorless
_exptl_crystal_description       plate
_cell_formula_units_Z            4
loop_
_atom_site_label
_atom_site_type_symbol
_atom_site_fract_x
_atom_site_fract_y
_atom_site_fract_z
N1 N 0.40118(8) 0.55393(16) 0.20912(12)
H1 H 0.4644 0.5406 0.2415
H2 H 0.3881 0.6760 0.2106
C1 C 0.35028(10) 0.45862(19) 0.30628(14)
H3 H 0.3901 0.4610 0.3979
H4 H 0.3395 0.3298 0.2790
C2 C 0.25487(10) 0.5504(2) 0.30904(14)
H5 H 0.2653 0.6834 0.3172
H6 H 0.2348 0.5096 0.3916
C3 C 0.17194(10) 0.5157(2) 0.18641(16)
C4 C 0.20029(10) 0.5618(2) 0.04898(14)
H7 H 0.1432 0.5562 -0.0233
H8 H 0.2233 0.6888 0.0534
C5 C 0.27623(10) 0.4373(2) 0.00795(14)
H9 H 0.2670 0.3121 0.0387
H10 H 0.2653 0.4343 -0.0916
C6 C 0.37934(11) 0.4914(2) 0.06257(15)
H11 H 0.4197 0.3857 0.0535
H12 H 0.3960 0.5905 0.0058
C7 C 0.13717(12) 0.3149(3) 0.18803(18)
H13 H 0.0881 0.2924 0.1079
H14 H 0.1119 0.2944 0.2690
H15 H 0.1897 0.2318 0.1882
C8 C 0.09065(12) 0.6470(3) 0.20252(19)
H16 H 0.1110 0.7732 0.1972
H17 H 0.0740 0.6261 0.2900
H18 H 0.0359 0.6238 0.1304
Cl1 Cl 0.38237(2) 0.98354(4) 0.18426(3)
loop_
_geom_bond_atom_site_label_1
_geom_bond_atom_site_label_2
_geom_bond_site_symmetry_1
_geom_bond_site_symmetry_2
N1 H1 1_555 1_555
H2 N1 1_555 1_555
C1 N1 1_555 1_555
H3 C1 1_555 1_555
H4 C1 1_555 1_555
C2 C1 1_555 1_555
H5 C2 1_555 1_555
H6 C2 1_555 1_555
C3 C2 1_555 1_555
C4 C3 1_555 1_555
H7 C4 1_555 1_555
H8 C4 1_555 1_555
C5 C4 1_555 1_555
H9 C5 1_555 1_555
H10 C5 1_555 1_555
C6 N1 1_555 1_555
H11 C6 1_555 1_555
H12 C6 1_555 1_555
C7 C3 1_555 1_555
H13 C7 1_555 1_555
H14 C7 1_555 1_555
H15 C7 1_555 1_555
C8 C3 1_555 1_555
H16 C8 1_555 1_555
H17 C8 1_555 1_555
H18 C8 1_555 1_555
C5 C6 1_555 1_555

#END
