
#######################################################################
#
#                 Cambridge Crystallographic Data Centre
#                                CCDC 
#
#######################################################################
#
# If this CIF has been generated from an entry in the Cambridge 
# Structural Database, then it will include bibliographic, chemical, 
# crystal, experimental, refinement or atomic coordinate data resulting 
# from the CCDC's data processing and validation procedures.
#
#######################################################################

data_SAJCAJ
_chemical_formula_moiety         'C36 H34 O2'
_chemical_name_systematic        
3,3'-bis(4-methoxyphenyl)-1,1,1',1'-tetramethyl-1H,1'H-2,2'-biindene
_symmetry_cell_setting           triclinic
_symmetry_space_group_name_H-M   'P -1'
_symmetry_Int_Tables_number      2
_space_group_name_Hall           '-P 1'
loop_
_symmetry_equiv_pos_site_id
_symmetry_equiv_pos_as_xyz
1 x,y,z
2 -x,-y,-z
_cell_length_a                   10.8535(11)
_cell_length_b                   11.8030(13)
_cell_length_c                   12.1517(13)
_cell_angle_alpha                79.986(2)
_cell_angle_beta                 75.544(2)
_cell_angle_gamma                67.069(2)
_cell_volume                     1383.14
_exptl_crystal_colour            colorless
_exptl_crystal_description       prismatic
_cell_formula_units_Z            2
loop_
_atom_site_label
_atom_site_type_symbol
_atom_site_fract_x
_atom_site_fract_y
_atom_site_fract_z
O1 O -0.22504(15) 0.65431(12) 0.48907(12)
O2 O 0.39950(16) -0.35203(15) 0.38401(16)
C1 C 0.05726(18) 0.20229(16) 0.14540(15)
C2 C 0.07545(19) 0.30296(16) 0.16552(15)
C3 C 0.19721(19) 0.31712(16) 0.08652(15)
C4 C 0.2600(2) 0.40235(19) 0.07702(18)
H1 H 0.2239 0.4656 0.1253
C5 C 0.3773(2) 0.3912(2) -0.0058(2)
H2 H 0.4200 0.4475 -0.0129
C6 C 0.4315(2) 0.2969(2) -0.0781(2)
H3 H 0.5097 0.2913 -0.1336
C7 C 0.3706(2) 0.2118(2) -0.06827(18)
H4 H 0.4074 0.1485 -0.1166
C8 C 0.25343(19) 0.22153(17) 0.01487(15)
C9 C 0.17435(19) 0.13627(16) 0.04719(15)
C10 C 0.2703(2) 0.00718(18) 0.0836(2)
H5 H 0.3448 -0.0231 0.0211
H6 H 0.2208 -0.0479 0.1051
H7 H 0.3051 0.0118 0.1473
C11 C 0.1192(2) 0.1273(2) -0.05444(17)
H8 H 0.0640 0.2083 -0.0811
H9 H 0.0648 0.0764 -0.0309
H10 H 0.1942 0.0914 -0.1148
C12 C -0.00673(19) 0.39260(16) 0.25256(15)
C13 C -0.0524(2) 0.51936(17) 0.22114(16)
H11 H -0.0337 0.5475 0.1447
C14 C -0.1248(2) 0.60372(17) 0.30134(17)
H12 H -0.1549 0.6878 0.2787
C15 C -0.15241(19) 0.56317(17) 0.41525(16)
C16 C -0.1088(2) 0.43876(17) 0.44879(16)
H13 H -0.1277 0.4112 0.5254
C17 C -0.0360(2) 0.35441(17) 0.36706(16)
H14 H -0.0064 0.2704 0.3900
C18 C -0.2609(2) 0.6161(2) 0.60642(18)
H15 H -0.3202 0.5711 0.6151
H16 H -0.3070 0.6874 0.6491
H17 H -0.1798 0.5642 0.6342
C19 C -0.05870(18) 0.16017(15) 0.20026(14)
C20 C -0.05388(19) 0.05377(16) 0.26720(14)
C21 C -0.1896(2) 0.04349(16) 0.29424(16)
C22 C -0.2349(2) -0.04770(19) 0.35988(17)
H18 H -0.1768 -0.1141 0.3983
C23 C -0.3679(2) -0.0372(2) 0.3665(2)
H19 H -0.3994 -0.0971 0.4100
C24 C -0.4544(2) 0.0610(2) 0.3093(2)
H20 H -0.5427 0.0652 0.3130
C25 C -0.4108(2) 0.1544(2) 0.2457(2)
H21 H -0.4697 0.2213 0.2083
C26 C -0.2778(2) 0.14454(17) 0.23966(17)
C27 C -0.20648(19) 0.23274(16) 0.17990(16)
C28 C -0.2784(2) 0.35567(18) 0.2369(2)
H22 H -0.3722 0.3904 0.2294
H23 H -0.2337 0.4124 0.2004
H24 H -0.2738 0.3405 0.3163
C29 C -0.2136(2) 0.2593(2) 0.05301(19)
H25 H -0.1736 0.1831 0.0174
H26 H -0.1643 0.3124 0.0168
H27 H -0.3072 0.2989 0.0454
C30 C 0.06367(19) -0.04818(16) 0.30492(15)
C31 C 0.0972(2) -0.16627(17) 0.27226(16)
H28 H 0.0422 -0.1792 0.2318
C32 C 0.2100(2) -0.26385(18) 0.29867(17)
H29 H 0.2317 -0.3409 0.2740
C33 C 0.2912(2) -0.24798(19) 0.36145(17)
C34 C 0.2575(2) -0.1329(2) 0.39833(18)
H30 H 0.3099 -0.1214 0.4423
C35 C 0.1454(2) -0.03507(19) 0.36933(17)
H31 H 0.1243 0.0419 0.3938
C36 C 0.5001(3) -0.3386(3) 0.4301(3)
H32 H 0.5371 -0.2820 0.3802
H33 H 0.5719 -0.4173 0.4377
H34 H 0.4596 -0.3072 0.5037
loop_
_geom_bond_atom_site_label_1
_geom_bond_atom_site_label_2
_geom_bond_site_symmetry_1
_geom_bond_site_symmetry_2
O1 C15 1_555 1_555
O2 C33 1_555 1_555
C1 C2 1_555 1_555
C2 C3 1_555 1_555
C3 C4 1_555 1_555
C4 H1 1_555 1_555
C5 C4 1_555 1_555
H2 C5 1_555 1_555
C6 C5 1_555 1_555
H3 C6 1_555 1_555
C7 C6 1_555 1_555
H4 C7 1_555 1_555
C8 C3 1_555 1_555
C9 C1 1_555 1_555
C10 C9 1_555 1_555
H5 C10 1_555 1_555
H6 C10 1_555 1_555
H7 C10 1_555 1_555
C11 C9 1_555 1_555
H8 C11 1_555 1_555
H9 C11 1_555 1_555
H10 C11 1_555 1_555
C12 C2 1_555 1_555
C13 C12 1_555 1_555
H11 C13 1_555 1_555
C14 C13 1_555 1_555
H12 C14 1_555 1_555
C15 C14 1_555 1_555
C16 C15 1_555 1_555
H13 C16 1_555 1_555
C17 C12 1_555 1_555
H14 C17 1_555 1_555
C18 O1 1_555 1_555
H15 C18 1_555 1_555
H16 C18 1_555 1_555
H17 C18 1_555 1_555
C19 C1 1_555 1_555
C20 C19 1_555 1_555
C21 C20 1_555 1_555
C22 C21 1_555 1_555
H18 C22 1_555 1_555
C23 C22 1_555 1_555
H19 C23 1_555 1_555
C24 C23 1_555 1_555
H20 C24 1_555 1_555
C25 C24 1_555 1_555
H21 C25 1_555 1_555
C26 C21 1_555 1_555
C27 C19 1_555 1_555
C28 C27 1_555 1_555
H22 C28 1_555 1_555
H23 C28 1_555 1_555
H24 C28 1_555 1_555
C29 C27 1_555 1_555
H25 C29 1_555 1_555
H26 C29 1_555 1_555
H27 C29 1_555 1_555
C30 C20 1_555 1_555
C31 C30 1_555 1_555
H28 C31 1_555 1_555
C32 C31 1_555 1_555
H29 C32 1_555 1_555
C33 C32 1_555 1_555
C34 C33 1_555 1_555
H30 C34 1_555 1_555
C35 C30 1_555 1_555
H31 C35 1_555 1_555
C36 O2 1_555 1_555
H32 C36 1_555 1_555
H33 C36 1_555 1_555
H34 C36 1_555 1_555
C7 C8 1_555 1_555
C8 C9 1_555 1_555
C16 C17 1_555 1_555
C25 C26 1_555 1_555
C26 C27 1_555 1_555
C34 C35 1_555 1_555

#END
