
#######################################################################
#
#                 Cambridge Crystallographic Data Centre
#                                CCDC 
#
#######################################################################
#
# If this CIF has been generated from an entry in the Cambridge 
# Structural Database, then it will include bibliographic, chemical, 
# crystal, experimental, refinement or atomic coordinate data resulting 
# from the CCDC's data processing and validation procedures.
#
#######################################################################

data_SAJCOX
_chemical_formula_moiety         'C52 H40 B2 F4 N4,C1 H1 Cl3'
_chemical_name_systematic        
"10,10'-((1,1,1',1'-Tetramethyl-1H,1'H-2,2'-biindene-3,3'-diyl)di-4,1-phenylene)bis(5,5-difluoro-5H-6\l^5^,5\l^5^-dipyrrolo[1,2-c:2',1'-f][1,3,2]diazaborinine) chloroform solvate"
_symmetry_cell_setting           monoclinic
_symmetry_space_group_name_H-M   'P 21/c'
_symmetry_Int_Tables_number      14
_space_group_name_Hall           '-P 2ybc'
loop_
_symmetry_equiv_pos_site_id
_symmetry_equiv_pos_as_xyz
1 x,y,z
2 -x,1/2+y,1/2-z
3 -x,-y,-z
4 x,1/2-y,1/2+z
_cell_length_a                   13.0986(16)
_cell_length_b                   22.617(3)
_cell_length_c                   15.2046(18)
_cell_angle_alpha                90
_cell_angle_beta                 92.982(2)
_cell_angle_gamma                90
_cell_volume                     4498.28
_exptl_crystal_colour            red
_exptl_crystal_description       prismatic
_cell_formula_units_Z            4
_exptl_crystal_recrystallization_method Chloroform/ethanol
_exptl_crystal_preparation       luminescent
loop_
_atom_site_label
_atom_site_type_symbol
_atom_site_fract_x
_atom_site_fract_y
_atom_site_fract_z
Cl1 Cl 0.20203(18) 0.07046(9) 0.34703(14)
Cl2 Cl 0.21524(14) -0.02891(8) 0.46643(14)
Cl3 Cl 0.02058(12) 0.00843(7) 0.38906(10)
C53 C 0.1413(5) 0.0317(3) 0.4296(4)
H41 H 0.1327 0.0584 0.4794
F1 F 0.7480(2) 0.25192(15) 0.1078(2)
F2 F 0.6447(3) 0.30560(15) 0.01514(18)
F3 F -0.5168(2) 0.01264(14) 0.10911(18)
F4 F -0.3975(2) -0.04905(11) 0.17021(18)
N1 N 0.5715(3) 0.22383(17) 0.0891(2)
N2 N 0.6212(3) 0.31434(17) 0.1710(2)
N3 N -0.3380(3) 0.04322(16) 0.1160(2)
N4 N -0.4366(3) 0.04007(16) 0.2494(2)
B1 B 0.6503(4) 0.2739(3) 0.0934(3)
B2 B -0.4249(4) 0.0091(2) 0.1593(3)
C1 C 0.1046(3) 0.22974(17) 0.4985(2)
C2 C 0.0508(3) 0.19794(18) 0.5738(3)
C3 C 0.1333(3) 0.15521(18) 0.6060(3)
C4 C 0.1307(3) 0.1155(2) 0.6749(3)
H1 H 0.0744 0.1135 0.7096
C5 C 0.2141(4) 0.0785(2) 0.6912(3)
H2 H 0.2141 0.0520 0.7380
C6 C 0.2968(4) 0.0805(2) 0.6392(3)
H3 H 0.3514 0.0548 0.6505
C7 C 0.3001(3) 0.1204(2) 0.5698(3)
H4 H 0.3563 0.1219 0.5349
C8 C 0.2169(3) 0.15817(18) 0.5537(3)
C9 C 0.1973(3) 0.20453(18) 0.4867(3)
C10 C 0.2699(3) 0.21704(17) 0.4175(3)
C11 C 0.3745(3) 0.22130(19) 0.4387(3)
H5 H 0.3987 0.2164 0.4969
C12 C 0.4426(3) 0.23266(19) 0.3747(3)
H6 H 0.5118 0.2362 0.3905
C13 C 0.4091(3) 0.23900(19) 0.2864(3)
C14 C 0.3051(3) 0.2352(2) 0.2648(3)
H7 H 0.2812 0.2400 0.2066
C15 C 0.2365(3) 0.22438(19) 0.3295(3)
H8 H 0.1671 0.2220 0.3139
C16 C 0.4845(3) 0.2515(2) 0.2198(3)
C17 C 0.4958(3) 0.2128(2) 0.1487(3)
C18 C 0.4443(3) 0.1612(2) 0.1229(3)
H9 H 0.3908 0.1438 0.1514
C19 C 0.4870(4) 0.1404(2) 0.0478(3)
H10 H 0.4673 0.1069 0.0157
C20 C 0.5654(4) 0.1796(2) 0.0294(3)
H11 H 0.6076 0.1758 -0.0176
C21 C 0.5459(3) 0.3018(2) 0.2296(3)
C22 C 0.5445(3) 0.3485(2) 0.2907(3)
H12 H 0.5014 0.3520 0.3371
C23 C 0.6186(4) 0.3880(2) 0.2689(3)
H13 H 0.6358 0.4230 0.2981
C24 C 0.6634(3) 0.3657(2) 0.1946(3)
H14 H 0.7155 0.3842 0.1657
C25 C -0.0444(3) 0.1636(2) 0.5417(3)
H15 H -0.0277 0.1377 0.4945
H16 H -0.0966 0.1908 0.5211
H17 H -0.0689 0.1407 0.5894
C26 C 0.0205(4) 0.2400(2) 0.6473(3)
H18 H -0.0083 0.2176 0.6935
H19 H -0.0290 0.2679 0.6239
H20 H 0.0800 0.2607 0.6703
C27 C 0.0618(3) 0.28250(17) 0.4520(3)
C28 C 0.1072(3) 0.34548(19) 0.4687(3)
C29 C 0.0342(3) 0.38306(19) 0.4134(3)
C30 C 0.0351(3) 0.44398(19) 0.4009(3)
H21 H 0.0836 0.4675 0.4311
C31 C -0.0385(4) 0.4694(2) 0.3418(3)
H22 H -0.0395 0.5101 0.3329
C32 C -0.1099(3) 0.4335(2) 0.2966(3)
H23 H -0.1576 0.4505 0.2568
C33 C -0.1113(3) 0.37249(19) 0.3100(3)
H24 H -0.1591 0.3488 0.2793
C34 C -0.0400(3) 0.34781(17) 0.3699(3)
C35 C -0.0217(3) 0.28568(18) 0.3958(2)
C36 C -0.0887(3) 0.23716(18) 0.3595(2)
C37 C -0.1947(3) 0.24398(18) 0.3565(3)
H25 H -0.2227 0.2782 0.3791
C38 C -0.2589(3) 0.20085(18) 0.3207(3)
H26 H -0.3293 0.2061 0.3207
C39 C -0.2192(3) 0.14930(18) 0.2845(3)
C40 C -0.1134(3) 0.14223(18) 0.2877(3)
H27 H -0.0852 0.1085 0.2638
C41 C -0.0502(3) 0.18467(18) 0.3259(3)
H28 H 0.0200 0.1782 0.3294
C42 C -0.2887(3) 0.10447(17) 0.2427(3)
C43 C -0.2743(3) 0.08549(18) 0.1553(3)
C44 C -0.2059(3) 0.1056(2) 0.0944(3)
H29 H -0.1559 0.1344 0.1038
C45 C -0.2271(4) 0.0740(2) 0.0171(3)
H30 H -0.1932 0.0772 -0.0349
C46 C -0.3091(4) 0.0367(2) 0.0328(3)
H31 H -0.3395 0.0110 -0.0085
C47 C -0.3699(3) 0.08122(18) 0.2889(3)
C48 C -0.4017(3) 0.0931(2) 0.3740(3)
H32 H -0.3706 0.1188 0.4148
C49 C -0.4880(4) 0.0593(2) 0.3857(3)
H33 H -0.5260 0.0580 0.4356
C50 C -0.5064(4) 0.0277(2) 0.3081(3)
H34 H -0.5604 0.0014 0.2981
C51 C 0.2161(3) 0.3532(2) 0.4348(4)
H35 H 0.2150 0.3442 0.3731
H36 H 0.2624 0.3269 0.4663
H37 H 0.2382 0.3933 0.4441
C52 C 0.1098(4) 0.3645(2) 0.5658(3)
H38 H 0.1365 0.4039 0.5713
H39 H 0.1527 0.3379 0.6003
H40 H 0.0418 0.3634 0.5864
loop_
_geom_bond_atom_site_label_1
_geom_bond_atom_site_label_2
_geom_bond_site_symmetry_1
_geom_bond_site_symmetry_2
Cl1 C53 1_555 1_555
Cl2 C53 1_555 1_555
Cl3 C53 1_555 1_555
F1 B1 1_555 1_555
F2 B1 1_555 1_555
F3 B2 1_555 1_555
F4 B2 1_555 1_555
N1 B1 1_555 1_555
N2 B1 1_555 1_555
N3 B2 1_555 1_555
N4 B2 1_555 1_555
C1 C2 1_555 1_555
C2 C3 1_555 1_555
C3 C4 1_555 1_555
C4 H1 1_555 1_555
C5 C4 1_555 1_555
H2 C5 1_555 1_555
C6 C5 1_555 1_555
H3 C6 1_555 1_555
C7 C6 1_555 1_555
H4 C7 1_555 1_555
C8 C3 1_555 1_555
C9 C1 1_555 1_555
C10 C9 1_555 1_555
C11 C10 1_555 1_555
H5 C11 1_555 1_555
C12 C11 1_555 1_555
H6 C12 1_555 1_555
C13 C12 1_555 1_555
C14 C13 1_555 1_555
H7 C14 1_555 1_555
C15 C10 1_555 1_555
H8 C15 1_555 1_555
C16 C13 1_555 1_555
C17 N1 1_555 1_555
C18 C17 1_555 1_555
H9 C18 1_555 1_555
C19 C18 1_555 1_555
H10 C19 1_555 1_555
C20 N1 1_555 1_555
H11 C20 1_555 1_555
C21 N2 1_555 1_555
C22 C21 1_555 1_555
H12 C22 1_555 1_555
C23 C22 1_555 1_555
H13 C23 1_555 1_555
C24 N2 1_555 1_555
H14 C24 1_555 1_555
C25 C2 1_555 1_555
H15 C25 1_555 1_555
H16 C25 1_555 1_555
H17 C25 1_555 1_555
C26 C2 1_555 1_555
H18 C26 1_555 1_555
H19 C26 1_555 1_555
H20 C26 1_555 1_555
C27 C1 1_555 1_555
C28 C27 1_555 1_555
C29 C28 1_555 1_555
C30 C29 1_555 1_555
H21 C30 1_555 1_555
C31 C30 1_555 1_555
H22 C31 1_555 1_555
C32 C31 1_555 1_555
H23 C32 1_555 1_555
C33 C32 1_555 1_555
H24 C33 1_555 1_555
C34 C29 1_555 1_555
C35 C27 1_555 1_555
C36 C35 1_555 1_555
C37 C36 1_555 1_555
H25 C37 1_555 1_555
C38 C37 1_555 1_555
H26 C38 1_555 1_555
C39 C38 1_555 1_555
C40 C39 1_555 1_555
H27 C40 1_555 1_555
C41 C36 1_555 1_555
H28 C41 1_555 1_555
C42 C39 1_555 1_555
C43 N3 1_555 1_555
C44 C43 1_555 1_555
H29 C44 1_555 1_555
C45 C44 1_555 1_555
H30 C45 1_555 1_555
C46 N3 1_555 1_555
H31 C46 1_555 1_555
C47 N4 1_555 1_555
C48 C47 1_555 1_555
H32 C48 1_555 1_555
C49 C48 1_555 1_555
H33 C49 1_555 1_555
C50 N4 1_555 1_555
H34 C50 1_555 1_555
C51 C28 1_555 1_555
H35 C51 1_555 1_555
H36 C51 1_555 1_555
H37 C51 1_555 1_555
C52 C28 1_555 1_555
H38 C52 1_555 1_555
H39 C52 1_555 1_555
H40 C52 1_555 1_555
C53 H41 1_555 1_555
C7 C8 1_555 1_555
C8 C9 1_555 1_555
C14 C15 1_555 1_555
C16 C17 1_555 1_555
C16 C21 1_555 1_555
C19 C20 1_555 1_555
C23 C24 1_555 1_555
C33 C34 1_555 1_555
C34 C35 1_555 1_555
C40 C41 1_555 1_555
C42 C43 1_555 1_555
C42 C47 1_555 1_555
C45 C46 1_555 1_555
C49 C50 1_555 1_555

#END
