
#######################################################################
#
#                 Cambridge Crystallographic Data Centre
#                                CCDC 
#
#######################################################################
#
# If this CIF has been generated from an entry in the Cambridge 
# Structural Database, then it will include bibliographic, chemical, 
# crystal, experimental, refinement or atomic coordinate data resulting 
# from the CCDC's data processing and validation procedures.
#
#######################################################################

data_SAJMEX
_chemical_formula_moiety         'C24 H19 F6 N3 O3'
_chemical_name_systematic        
4-(3-(3-Nitrophenyl)hexahydro[1,3]oxazolo[3,4-a]pyridin-1-yl)-2,8-bis(trifluoromethyl)quinoline
_symmetry_cell_setting           triclinic
_symmetry_space_group_name_H-M   'P -1'
_symmetry_Int_Tables_number      2
_space_group_name_Hall           '-P 1'
loop_
_symmetry_equiv_pos_site_id
_symmetry_equiv_pos_as_xyz
1 x,y,z
2 -x,-y,-z
_cell_length_a                   9.8636(3)
_cell_length_b                   10.5931(5)
_cell_length_c                   12.1152(6)
_cell_angle_alpha                82.465(2)
_cell_angle_beta                 86.282(3)
_cell_angle_gamma                62.431(3)
_cell_volume                     1112.43
_exptl_crystal_colour            colorless
_exptl_crystal_description       block
_cell_formula_units_Z            2
loop_
_atom_site_label
_atom_site_type_symbol
_atom_site_fract_x
_atom_site_fract_y
_atom_site_fract_z
F1 F -0.08483(11) 0.73638(12) 0.53604(10)
F2 F 0.00796(13) 0.72145(11) 0.69430(9)
F3 F 0.05479(13) 0.83871(10) 0.55207(10)
F4 F 0.37800(13) 0.11245(12) 0.86376(9)
F5 F 0.16686(11) 0.27776(11) 0.79304(9)
F6 F 0.32775(12) 0.33293(12) 0.85712(8)
O1 O 0.41332(11) 0.61146(10) 0.26741(8)
O2 O -0.25511(15) 1.17216(14) 0.22397(12)
O3 O -0.17996(14) 0.96689(13) 0.32282(11)
N1 N 0.21985(14) 0.47485(13) 0.63290(10)
N2 N 0.26999(13) 0.54282(12) 0.17688(10)
N3 N -0.16005(15) 1.04687(14) 0.24933(12)
C1 C 0.17925(16) 0.58691(15) 0.55835(12)
C2 C 0.25114(16) 0.59090(15) 0.45477(12)
H1 H 0.2154 0.6772 0.4055
C3 C 0.37337(15) 0.46859(15) 0.42616(12)
C4 C 0.42535(15) 0.34346(15) 0.50494(12)
C5 C 0.55485(17) 0.21202(15) 0.48692(13)
H2 H 0.6108 0.2048 0.4192
C6 C 0.59995(18) 0.09608(16) 0.56557(13)
H3 H 0.6860 0.0085 0.5517
C7 C 0.51988(18) 0.10518(16) 0.66729(13)
H4 H 0.5532 0.0240 0.7219
C8 C 0.39508(17) 0.22943(16) 0.68808(12)
C9 C 0.34391(16) 0.35218(15) 0.60749(12)
C10 C 0.45124(15) 0.46718(15) 0.31421(12)
H5 H 0.5646 0.4103 0.3234
C11 C 0.39738(15) 0.40952(15) 0.22494(12)
H6 H 0.4796 0.3748 0.1672
C12 C 0.21262(17) 0.52468(16) 0.07481(12)
H7 H 0.2949 0.4949 0.0180
H8 H 0.1270 0.6167 0.0448
C13 C 0.15797(17) 0.41097(16) 0.10079(13)
H9 H 0.0684 0.4461 0.1514
H10 H 0.1254 0.3937 0.0310
C14 C 0.28364(18) 0.27086(16) 0.15509(13)
H11 H 0.3677 0.2290 0.1009
H12 H 0.2423 0.2019 0.1767
C15 C 0.34621(17) 0.29522(15) 0.25807(12)
H13 H 0.2659 0.3264 0.3162
H14 H 0.4337 0.2049 0.2886
C16 C 0.04004(18) 0.72075(17) 0.58611(14)
C17 C 0.31655(18) 0.23909(18) 0.79884(14)
C18 C 0.33642(15) 0.64017(15) 0.16374(12)
H15 H 0.4126 0.6157 0.1014
C19 C 0.22253(16) 0.79621(15) 0.14557(12)
C20 C 0.08389(16) 0.84747(15) 0.20347(12)
H16 H 0.0577 0.7843 0.2524
C21 C -0.01424(16) 0.99265(15) 0.18762(12)
C22 C 0.01695(18) 1.08882(16) 0.11606(13)
H17 H -0.0536 1.1880 0.1069
C23 C 0.15379(18) 1.03650(16) 0.05815(13)
H18 H 0.1780 1.0999 0.0079
C24 C 0.25621(17) 0.89108(16) 0.07326(12)
H19 H 0.3504 0.8562 0.0336
loop_
_geom_bond_atom_site_label_1
_geom_bond_atom_site_label_2
_geom_bond_site_symmetry_1
_geom_bond_site_symmetry_2
F1 C16 1_555 1_555
F2 C16 1_555 1_555
F3 C16 1_555 1_555
F4 C17 1_555 1_555
F5 C17 1_555 1_555
F6 C17 1_555 1_555
O1 C10 1_555 1_555
O2 N3 1_555 1_555
O3 N3 1_555 1_555
N1 C1 1_555 1_555
N2 C11 1_555 1_555
N3 C21 1_555 1_555
C1 C2 1_555 1_555
C2 H1 1_555 1_555
C3 C2 1_555 1_555
C4 C3 1_555 1_555
C5 C4 1_555 1_555
H2 C5 1_555 1_555
C6 C5 1_555 1_555
H3 C6 1_555 1_555
C7 C6 1_555 1_555
H4 C7 1_555 1_555
C8 C7 1_555 1_555
C9 N1 1_555 1_555
C10 C3 1_555 1_555
H5 C10 1_555 1_555
C11 C10 1_555 1_555
H6 C11 1_555 1_555
C12 N2 1_555 1_555
H7 C12 1_555 1_555
H8 C12 1_555 1_555
C13 C12 1_555 1_555
H9 C13 1_555 1_555
H10 C13 1_555 1_555
C14 C13 1_555 1_555
H11 C14 1_555 1_555
H12 C14 1_555 1_555
C15 C11 1_555 1_555
H13 C15 1_555 1_555
H14 C15 1_555 1_555
C16 C1 1_555 1_555
C17 C8 1_555 1_555
C18 O1 1_555 1_555
H15 C18 1_555 1_555
C19 C18 1_555 1_555
C20 C19 1_555 1_555
H16 C20 1_555 1_555
C21 C20 1_555 1_555
C22 C21 1_555 1_555
H17 C22 1_555 1_555
C23 C22 1_555 1_555
H18 C23 1_555 1_555
C24 C19 1_555 1_555
H19 C24 1_555 1_555
N2 C18 1_555 1_555
C4 C9 1_555 1_555
C8 C9 1_555 1_555
C14 C15 1_555 1_555
C23 C24 1_555 1_555

#END
