
#######################################################################
#
#                 Cambridge Crystallographic Data Centre
#                                CCDC 
#
#######################################################################
#
# If this CIF has been generated from an entry in the Cambridge 
# Structural Database, then it will include bibliographic, chemical, 
# crystal, experimental, refinement or atomic coordinate data resulting 
# from the CCDC's data processing and validation procedures.
#
#######################################################################

data_SAJQOL
_chemical_name_common            
(E)-2-(2-(2,4-Dimethylbenzylidene)hydrazino)-1,3-benzothiazole
_chemical_formula_moiety         'C16 H15 N3 S1'
_chemical_name_systematic        
(E)-2-(2-(2,4-dimethybenzylidene)hydrazinyl)benzo[d]thiazole
_symmetry_cell_setting           monoclinic
_symmetry_space_group_name_H-M   'P 21/c'
_symmetry_Int_Tables_number      14
_space_group_name_Hall           '-P 2ybc'
loop_
_symmetry_equiv_pos_site_id
_symmetry_equiv_pos_as_xyz
1 x,y,z
2 -x,1/2+y,1/2-z
3 -x,-y,-z
4 x,1/2-y,1/2+z
_cell_length_a                   11.6872(5)
_cell_length_b                   4.7536(2)
_cell_length_c                   24.6895(9)
_cell_angle_alpha                90
_cell_angle_beta                 96.349(1)
_cell_angle_gamma                90
_cell_volume                     1363.24
_exptl_crystal_colour            colorless
_exptl_crystal_description       needle
_cell_formula_units_Z            4
loop_
_atom_site_label
_atom_site_type_symbol
_atom_site_fract_x
_atom_site_fract_y
_atom_site_fract_z
C1 C 0.2542(2) 0.8058(5) 0.59541(9)
C2 C 0.0537(2) -0.2831(6) 0.34219(11)
H1 H -0.0156 -0.3773 0.3480
C3 C 0.4282(2) 1.0773(5) 0.61113(11)
H2 H 0.5016 1.1275 0.6010
C4 C 0.4121(2) 0.7425(6) 0.53307(11)
H3 H 0.4916 0.8068 0.5321
H4 H 0.3660 0.7951 0.4990
H5 H 0.4113 0.5375 0.5373
C5 C 0.1307(2) 0.1585(5) 0.45562(10)
C6 C 0.2585(2) -0.0045(6) 0.32360(11)
H6 H 0.3272 0.0917 0.3175
C7 C 0.1762(2) 0.5984(5) 0.56753(10)
C8 C 0.2162(2) 0.9369(5) 0.64096(10)
H7 H 0.1429 0.8893 0.6515
C9 C 0.1050(2) -0.0955(5) 0.38068(10)
C10 C 0.3900(3) 1.2072(5) 0.65658(11)
C11 C 0.4642(3) 1.4219(6) 0.68902(12)
H8 H 0.4270 1.6067 0.6853
H9 H 0.5396 1.4314 0.6753
H10 H 0.4741 1.3670 0.7275
C12 C 0.3630(2) 0.8761(5) 0.57975(10)
C13 C 0.1064(3) -0.3308(6) 0.29460(11)
H11 H 0.0722 -0.4589 0.2681
C14 C 0.2833(3) 1.1345(6) 0.67101(11)
H12 H 0.2556 1.2204 0.7018
C15 C 0.2078(3) -0.1936(6) 0.28559(12)
H13 H 0.2423 -0.2298 0.2532
C16 C 0.2067(2) 0.0414(5) 0.37088(11)
N1 N 0.11286(19) 0.2795(5) 0.50349(9)
H14 H 0.109(3) 0.548(6) 0.5846(12)
H15 H 0.059(3) 0.223(6) 0.5248(11)
N2 N 0.19475(18) 0.4715(4) 0.52382(8)
N3 N 0.06310(18) -0.0267(5) 0.43009(8)
S1 S 0.25145(6) 0.26805(14) 0.42459(3)
loop_
_geom_bond_atom_site_label_1
_geom_bond_atom_site_label_2
_geom_bond_site_symmetry_1
_geom_bond_site_symmetry_2
C1 C7 1_555 1_555
C2 H1 1_555 1_555
C3 H2 1_555 1_555
C4 H3 1_555 1_555
H4 C4 1_555 1_555
H5 C4 1_555 1_555
C5 N1 1_555 1_555
C6 H6 1_555 1_555
C7 H14 1_555 1_555
C8 C1 1_555 1_555
H7 C8 1_555 1_555
C9 C2 1_555 1_555
C10 C3 1_555 1_555
C11 C10 1_555 1_555
H8 C11 1_555 1_555
H9 C11 1_555 1_555
H10 C11 1_555 1_555
C12 C1 1_555 1_555
C13 C2 1_555 1_555
H11 C13 1_555 1_555
C14 C8 1_555 1_555
H12 C14 1_555 1_555
C15 C6 1_555 1_555
H13 C15 1_555 1_555
C16 C6 1_555 1_555
N1 H15 1_555 1_555
N2 C7 1_555 1_555
N3 C5 1_555 1_555
S1 C5 1_555 1_555
C3 C12 1_555 1_555
C4 C12 1_555 1_555
C9 C16 1_555 1_555
C9 N3 1_555 1_555
C10 C14 1_555 1_555
C13 C15 1_555 1_555
C16 S1 1_555 1_555
N1 N2 1_555 1_555

#END
