
#######################################################################
#
#                 Cambridge Crystallographic Data Centre
#                                CCDC 
#
#######################################################################
#
# If this CIF has been generated from an entry in the Cambridge 
# Structural Database, then it will include bibliographic, chemical, 
# crystal, experimental, refinement or atomic coordinate data resulting 
# from the CCDC's data processing and validation procedures.
#
#######################################################################

data_SAJREC
_chemical_name_common            
'(E)-2-(1,3-Benzothiazol-2(3H)-ylidenecarbohydrazonoyl)-4-nitrophenol dimethylsulfoxide solvate'
_chemical_formula_moiety         'C14 H10 N4 O3 S1,C2 H6 O1 S1'
_chemical_name_systematic        
'(E)-2-(2-(2-Hydroxy-5-nitrobenzylidene)hydrazinyl)benzo[d]thiazole dimethylsulfoxide solvate'
_symmetry_cell_setting           triclinic
_symmetry_space_group_name_H-M   'P -1'
_symmetry_Int_Tables_number      2
_space_group_name_Hall           '-P 1'
loop_
_symmetry_equiv_pos_site_id
_symmetry_equiv_pos_as_xyz
1 x,y,z
2 -x,-y,-z
_cell_length_a                   7.2384(2)
_cell_length_b                   10.4259(3)
_cell_length_c                   12.0046(4)
_cell_angle_alpha                88.513(1)
_cell_angle_beta                 84.842(2)
_cell_angle_gamma                77.173(2)
_cell_volume                     879.747
_exptl_crystal_colour            yellow
_exptl_crystal_description       needle
_cell_formula_units_Z            2
loop_
_atom_site_label
_atom_site_type_symbol
_atom_site_fract_x
_atom_site_fract_y
_atom_site_fract_z
S1 S 0.04193(6) 0.25708(4) 0.94488(4)
O1 O 0.30386(18) 0.04186(12) 1.16896(11)
H1 H 0.2672 0.0572 1.1046
N1 N 0.25191(19) -0.01140(14) 0.96368(12)
O2 O 0.6626(2) -0.56264(13) 1.14414(13)
N2 N 0.0595(2) 0.18227(14) 0.73961(13)
H2 H 0.099(3) 0.133(2) 0.6792(18)
N3 N 0.2028(2) 0.01347(14) 0.85465(12)
C1 C 0.3362(2) -0.13232(17) 0.98067(15)
H3 H 0.362(3) -0.194(2) 0.9243(17)
C2 C 0.4004(2) -0.17543(17) 1.08973(15)
O3 O 0.6761(2) -0.52557(14) 1.31981(13)
C3 C 0.4839(2) -0.30804(17) 1.10617(15)
H4 H 0.4981 -0.3689 1.0468
C4 C 0.1125(2) 0.13500(16) 0.84098(14)
N4 N 0.6338(2) -0.48842(15) 1.22530(15)
C5 C 0.3811(2) -0.08760(17) 1.17956(15)
C6 C 0.5457(2) -0.35016(17) 1.20924(15)
C7 C -0.0276(2) 0.31465(17) 0.73796(16)
C8 C -0.0508(2) 0.37236(17) 0.84352(16)
C9 C 0.5249(2) -0.26394(18) 1.29861(16)
H5 H 0.5662 -0.2952 1.3693
C10 C -0.0888(2) 0.38858(19) 0.64472(17)
H6 H -0.0739 0.3497 0.5729
C11 C 0.4439(2) -0.13279(18) 1.28313(15)
H7 H 0.4306 -0.0729 1.3431
C12 C -0.1977(3) 0.57871(19) 0.76517(19)
H8 H -0.2563 0.6694 0.7734
C13 C -0.1379(2) 0.50457(18) 0.85831(18)
H9 H -0.1559 0.5432 0.9304
C14 C -0.1728(3) 0.52152(19) 0.66007(18)
H10 H -0.2138 0.5741 0.5973
S2 S 0.22085(6) 0.88336(4) 0.55139(4)
O4 O 0.19208(17) 1.03201(12) 0.55235(10)
C15 C 0.0554(2) 0.83930(18) 0.65656(16)
H11 H 0.0688 0.8784 0.7279
H12 H 0.0808 0.7433 0.6644
H13 H -0.0742 0.8720 0.6351
C16 C 0.4336(2) 0.82211(18) 0.61908(18)
H14 H 0.5422 0.8434 0.5735
H15 H 0.4532 0.7265 0.6281
H16 H 0.4219 0.8630 0.6927
loop_
_geom_bond_atom_site_label_1
_geom_bond_atom_site_label_2
_geom_bond_site_symmetry_1
_geom_bond_site_symmetry_2
S1 C4 1_555 1_555
O1 H1 1_555 1_555
N1 N3 1_555 1_555
O2 N4 1_555 1_555
N2 H2 1_555 1_555
N3 C4 1_555 1_555
C1 N1 1_555 1_555
H3 C1 1_555 1_555
C2 C1 1_555 1_555
O3 N4 1_555 1_555
C3 C2 1_555 1_555
H4 C3 1_555 1_555
C4 N2 1_555 1_555
N4 C6 1_555 1_555
C5 O1 1_555 1_555
C6 C3 1_555 1_555
C7 N2 1_555 1_555
C8 S1 1_555 1_555
C9 C6 1_555 1_555
H5 C9 1_555 1_555
C10 C7 1_555 1_555
H6 C10 1_555 1_555
C11 C5 1_555 1_555
H7 C11 1_555 1_555
C12 H8 1_555 1_555
C13 C8 1_555 1_555
H9 C13 1_555 1_555
C14 C10 1_555 1_555
H10 C14 1_555 1_555
S2 O4 1_555 1_555
C15 S2 1_555 1_555
H11 C15 1_555 1_555
H12 C15 1_555 1_555
H13 C15 1_555 1_555
C16 S2 1_555 1_555
H14 C16 1_555 1_555
H15 C16 1_555 1_555
H16 C16 1_555 1_555
C2 C5 1_555 1_555
C7 C8 1_555 1_555
C9 C11 1_555 1_555
C12 C13 1_555 1_555
C12 C14 1_555 1_555

#END
