
#######################################################################
#
#                 Cambridge Crystallographic Data Centre
#                                CCDC 
#
#######################################################################
#
# If this CIF has been generated from an entry in the Cambridge 
# Structural Database, then it will include bibliographic, chemical, 
# crystal, experimental, refinement or atomic coordinate data resulting 
# from the CCDC's data processing and validation procedures.
#
#######################################################################

data_SAKXAG
_chemical_formula_moiety         'C22 H16 N2 O2'
_chemical_name_systematic        
10-methyl-7-phenyl-7,9-dihydro-8H-benzo[7,8]chromeno[2,3-d]pyrimidin-8-one
_symmetry_cell_setting           monoclinic
_symmetry_space_group_name_H-M   'P 21/n'
_symmetry_Int_Tables_number      14
_space_group_name_Hall           '-P 2yn'
loop_
_symmetry_equiv_pos_site_id
_symmetry_equiv_pos_as_xyz
1 x,y,z
2 1/2-x,1/2+y,1/2-z
3 -x,-y,-z
4 1/2+x,1/2-y,1/2+z
_cell_length_a                   8.948(4)
_cell_length_b                   11.278(5)
_cell_length_c                   16.323(7)
_cell_angle_alpha                90
_cell_angle_beta                 98.982(7)
_cell_angle_gamma                90
_cell_volume                     1627.04
_exptl_crystal_colour            colorless
_exptl_crystal_description       rod
_cell_formula_units_Z            4
loop_
_atom_site_label
_atom_site_type_symbol
_atom_site_fract_x
_atom_site_fract_y
_atom_site_fract_z
O1 O 0.53296(15) 0.72533(12) 0.95332(8)
O2 O 0.12942(15) 0.44644(13) 0.93434(8)
N1 N 0.14534(17) 0.61069(15) 1.01700(9)
H1 H 0.0600 0.5909 1.0338
N2 N 0.34481(19) 0.74633(15) 1.02781(10)
C1 C 0.7522(2) 0.71414(17) 0.88956(11)
C2 C 0.8040(2) 0.82332(19) 0.92658(13)
H2 H 0.7458 0.8638 0.9617
C3 C 0.9386(2) 0.8704(2) 0.91150(13)
H3 H 0.9725 0.9439 0.9361
C4 C 1.0270(2) 0.8113(2) 0.86004(13)
H4 H 1.1204 0.8446 0.8508
C5 C 0.9791(2) 0.7062(2) 0.82343(13)
H5 H 1.0394 0.6673 0.7886
C6 C 0.8400(2) 0.65418(18) 0.83676(12)
C7 C 0.7867(2) 0.54580(19) 0.79884(12)
H6 H 0.8468 0.5042 0.7652
C8 C 0.6500(2) 0.50074(18) 0.81025(12)
H7 H 0.6152 0.4290 0.7833
C9 C 0.5585(2) 0.55908(17) 0.86183(11)
C10 C 0.6115(2) 0.66135(17) 0.90074(11)
C11 C 0.3993(2) 0.67925(18) 0.96989(11)
C12 C 0.3352(2) 0.57934(17) 0.93241(11)
C13 C 0.4008(2) 0.51295(17) 0.86545(11)
H8 H 0.4080 0.4270 0.8806
C14 C 0.3004(2) 0.52531(17) 0.78071(11)
C15 C 0.3177(2) 0.62003(18) 0.72825(12)
H9 H 0.3945 0.6772 0.7447
C16 C 0.2243(3) 0.6325(2) 0.65211(13)
H10 H 0.2373 0.6980 0.6172
C17 C 0.1127(2) 0.5494(2) 0.62735(13)
H11 H 0.0485 0.5575 0.5755
C18 C 0.0952(2) 0.4546(2) 0.67846(13)
H12 H 0.0190 0.3972 0.6614
C19 C 0.1878(2) 0.44226(18) 0.75466(12)
H13 H 0.1743 0.3766 0.7892
C20 C 0.1983(2) 0.53869(17) 0.95915(11)
C21 C 0.2169(2) 0.70940(18) 1.04908(12)
C22 C 0.1471(2) 0.7757(2) 1.11279(13)
H14 H 0.1591 0.7299 1.1644
H15 H 0.0392 0.7879 1.0926
H16 H 0.1973 0.8527 1.1231
loop_
_geom_bond_atom_site_label_1
_geom_bond_atom_site_label_2
_geom_bond_site_symmetry_1
_geom_bond_site_symmetry_2
O1 C10 1_555 1_555
O2 C20 1_555 1_555
N1 H1 1_555 1_555
N2 C11 1_555 1_555
C1 C2 1_555 1_555
C2 H2 1_555 1_555
C3 C2 1_555 1_555
H3 C3 1_555 1_555
C4 C3 1_555 1_555
H4 C4 1_555 1_555
C5 C4 1_555 1_555
H5 C5 1_555 1_555
C6 C1 1_555 1_555
C7 C6 1_555 1_555
H6 C7 1_555 1_555
C8 C7 1_555 1_555
H7 C8 1_555 1_555
C9 C8 1_555 1_555
C10 C1 1_555 1_555
C11 O1 1_555 1_555
C12 C11 1_555 1_555
C13 C9 1_555 1_555
H8 C13 1_555 1_555
C14 C13 1_555 1_555
C15 C14 1_555 1_555
H9 C15 1_555 1_555
C16 C15 1_555 1_555
H10 C16 1_555 1_555
C17 C16 1_555 1_555
H11 C17 1_555 1_555
C18 C17 1_555 1_555
H12 C18 1_555 1_555
C19 C14 1_555 1_555
H13 C19 1_555 1_555
C20 N1 1_555 1_555
C21 N1 1_555 1_555
C22 C21 1_555 1_555
H14 C22 1_555 1_555
H15 C22 1_555 1_555
H16 C22 1_555 1_555
N2 C21 1_555 1_555
C5 C6 1_555 1_555
C9 C10 1_555 1_555
C12 C13 1_555 1_555
C12 C20 1_555 1_555
C18 C19 1_555 1_555

#END
