
#######################################################################
#
#                 Cambridge Crystallographic Data Centre
#                                CCDC 
#
#######################################################################
#
# If this CIF has been generated from an entry in the Cambridge 
# Structural Database, then it will include bibliographic, chemical, 
# crystal, experimental, refinement or atomic coordinate data resulting 
# from the CCDC's data processing and validation procedures.
#
#######################################################################

data_SALYEM
_chemical_formula_moiety         'C20 H15 Br1 Cl1 N1 O3'
_chemical_name_systematic        
'ethyl 2-(4-bromobenzoyl)-3-(4-chlorophenyl)-1-cyanocyclopropanecarboxylate'
_symmetry_cell_setting           monoclinic
_symmetry_space_group_name_H-M   'P 21/n'
_symmetry_Int_Tables_number      14
_space_group_name_Hall           '-P 2yn'
loop_
_symmetry_equiv_pos_site_id
_symmetry_equiv_pos_as_xyz
1 x,y,z
2 1/2-x,1/2+y,1/2-z
3 -x,-y,-z
4 1/2+x,1/2-y,1/2+z
_cell_length_a                   10.469(3)
_cell_length_b                   10.286(3)
_cell_length_c                   18.722(5)
_cell_angle_alpha                90
_cell_angle_beta                 103.550(9)
_cell_angle_gamma                90
_cell_volume                     1959.95
_exptl_crystal_colour            white
_exptl_crystal_description       block
_cell_formula_units_Z            4
loop_
_atom_site_label
_atom_site_type_symbol
_atom_site_fract_x
_atom_site_fract_y
_atom_site_fract_z
Br1 Br 1.92632(5) 2.09980(5) -1.24464(2)
Cl1 Cl 2.02234(9) 1.25248(9) -0.66611(5)
N1 N 1.8536(3) 1.3896(3) -1.01966(18)
C1 C 1.8473(3) 2.0968(3) -1.11002(19)
H1 H 1.8338 2.1874 -1.1183
C2 C 1.8192(3) 1.3896(3) -0.74881(17)
H2 H 1.7656 1.3467 -0.7216
O1 O 1.7744(3) 1.9156(2) -0.92314(13)
C3 C 1.9756(3) 1.5155(3) -0.82749(17)
H3 H 2.0300 1.5586 -0.8541
C4 C 1.8037(3) 1.4813(3) -1.00510(16)
O2 O 1.5496(3) 1.5474(3) -1.07475(14)
C5 C 1.8223(3) 2.0385(3) -1.04778(17)
H4 H 1.7926 2.0904 -1.0129
C6 C 1.7772(3) 1.6353(3) -0.90162(14)
H5 H 1.7057 1.6865 -0.8875
C7 C 1.8420(3) 1.5417(3) -0.84393(14)
C8 C 1.7646(3) 1.4778(3) -0.80357(16)
H6 H 1.6729 1.4951 -0.8137
C9 C 1.9524(3) 1.3649(3) -0.73446(15)
O3 O 1.5662(2) 1.7390(2) -1.01573(13)
C10 C 1.8916(3) 2.0211(3) -1.15909(18)
C11 C 1.8398(3) 1.9060(3) -1.03550(16)
C12 C 1.8130(3) 1.8496(3) -0.96717(16)
C13 C 1.8426(3) 1.7069(3) -0.95151(15)
H7 H 1.9370 1.6831 -0.9462
C14 C 2.0314(3) 1.4271(3) -0.77277(18)
H8 H 2.1231 1.4101 -0.7620
C15 C 1.7452(3) 1.5988(3) -0.98496(14)
C16 C 1.6095(3) 1.6237(3) -1.03169(16)
C17 C 1.4333(4) 1.7792(4) -1.0546(2)
H9 H 1.3780 1.7012 -1.0693
H10 H 1.3932 1.8316 -1.0213
C18 C 1.9124(4) 1.8902(3) -1.1483(2)
H11 H 1.9447 1.8396 -1.1827
C19 C 1.8855(4) 1.8327(3) -1.08629(18)
H12 H 1.8986 1.7419 -1.0786
C20 C 1.4370(6) 1.8549(6) -1.1193(3)
H13 H 1.4894 1.9335 -1.1046
H14 H 1.3474 1.8793 -1.1446
H15 H 1.4768 1.8030 -1.1523
loop_
_geom_bond_atom_site_label_1
_geom_bond_atom_site_label_2
_geom_bond_site_symmetry_1
_geom_bond_site_symmetry_2
Br1 C10 1_555 1_555
Cl1 C9 1_555 1_555
N1 C4 1_555 1_555
C1 H1 1_555 1_555
C2 H2 1_555 1_555
O1 C12 1_555 1_555
C3 H3 1_555 1_555
C4 C15 1_555 1_555
O2 C16 1_555 1_555
C5 C1 1_555 1_555
H4 C5 1_555 1_555
C6 H5 1_555 1_555
C7 C3 1_555 1_555
C8 C2 1_555 1_555
H6 C8 1_555 1_555
C9 C2 1_555 1_555
O3 C16 1_555 1_555
C10 C1 1_555 1_555
C11 C5 1_555 1_555
C12 C11 1_555 1_555
C13 C6 1_555 1_555
H7 C13 1_555 1_555
C14 C3 1_555 1_555
H8 C14 1_555 1_555
C15 C6 1_555 1_555
C16 C15 1_555 1_555
C17 O3 1_555 1_555
H9 C17 1_555 1_555
H10 C17 1_555 1_555
C18 C10 1_555 1_555
H11 C18 1_555 1_555
C19 C11 1_555 1_555
H12 C19 1_555 1_555
C20 C17 1_555 1_555
H13 C20 1_555 1_555
H14 C20 1_555 1_555
H15 C20 1_555 1_555
C6 C7 1_555 1_555
C7 C8 1_555 1_555
C9 C14 1_555 1_555
C12 C13 1_555 1_555
C13 C15 1_555 1_555
C18 C19 1_555 1_555

#END
