
#######################################################################
#
#                 Cambridge Crystallographic Data Centre
#                                CCDC 
#
#######################################################################
#
# If this CIF has been generated from an entry in the Cambridge 
# Structural Database, then it will include bibliographic, chemical, 
# crystal, experimental, refinement or atomic coordinate data resulting 
# from the CCDC's data processing and validation procedures.
#
#######################################################################

data_SANPAA
_chemical_formula_moiety         'C21 H14 O2'
_chemical_name_systematic        
cis-2-Ethynyl-10-phenyl-14-oxatetracyclo[9.2.1.0^1,9^.0^3,8^]tetradeca-3,5,7,9,12-pentaen-2-ol
_symmetry_cell_setting           triclinic
_symmetry_space_group_name_H-M   'P -1'
_symmetry_Int_Tables_number      2
_space_group_name_Hall           '-P 1'
loop_
_symmetry_equiv_pos_site_id
_symmetry_equiv_pos_as_xyz
1 x,y,z
2 -x,-y,-z
_cell_length_a                   7.1631(11)
_cell_length_b                   7.9324(11)
_cell_length_c                   14.263(2)
_cell_angle_alpha                82.321(3)
_cell_angle_beta                 85.875(2)
_cell_angle_gamma                75.213(3)
_cell_volume                     775.959
_exptl_crystal_colour            colorless
_exptl_crystal_description       prismatic
_chemical_melting_point          '216 deg.C'
_cell_formula_units_Z            2
loop_
_atom_site_label
_atom_site_type_symbol
_atom_site_fract_x
_atom_site_fract_y
_atom_site_fract_z
O1 O 0.06278(17) 0.11299(15) 0.57620(8)
O2 O 0.02712(18) -0.23172(15) 0.61404(8)
H1 H 0.0219 -0.2049 0.5566
C1 C -0.0697(2) 0.0707(2) 0.65237(11)
C2 C -0.2239(3) 0.2440(2) 0.64789(13)
H2 H -0.3566 0.2599 0.6585
C3 C -0.1280(3) 0.3663(2) 0.62555(14)
H3 H -0.1789 0.4873 0.6174
C4 C 0.0832(3) 0.2683(2) 0.61603(12)
H4 H 0.1675 0.3346 0.5791
C5 C 0.1527(2) 0.1828(2) 0.71692(12)
C6 C 0.0546(2) 0.0599(2) 0.73753(11)
C7 C 0.0108(2) -0.0764(2) 0.80828(11)
C8 C 0.0508(3) -0.1178(2) 0.90427(12)
H5 H 0.1293 -0.0624 0.9316
C9 C -0.0288(3) -0.2427(2) 0.95776(13)
H6 H -0.0058 -0.2694 1.0221
C10 C -0.1418(3) -0.3285(2) 0.91714(13)
H7 H -0.1946 -0.4114 0.9546
C11 C -0.1777(3) -0.2928(2) 0.82147(13)
H8 H -0.2521 -0.3521 0.7941
C12 C -0.1002(2) -0.1669(2) 0.76777(11)
C13 C -0.1196(2) -0.1091(2) 0.66050(11)
C14 C -0.3137(3) -0.1043(2) 0.62968(12)
C15 C -0.4684(3) -0.1075(3) 0.60906(15)
H9 H -0.5909 -0.1100 0.5927
C16 C 0.2836(2) 0.2420(2) 0.77141(12)
C17 C 0.4074(3) 0.1236(3) 0.83524(13)
H10 H 0.4097 0.0049 0.8413
C18 C 0.5254(3) 0.1803(3) 0.88899(15)
H11 H 0.6074 0.0999 0.9308
C19 C 0.5230(3) 0.3569(4) 0.88126(17)
H12 H 0.6005 0.3957 0.9188
C20 C 0.4047(3) 0.4744(3) 0.81744(19)
H13 H 0.4040 0.5928 0.8114
C21 C 0.2874(3) 0.4185(3) 0.76237(15)
H14 H 0.2100 0.4991 0.7188
loop_
_geom_bond_atom_site_label_1
_geom_bond_atom_site_label_2
_geom_bond_site_symmetry_1
_geom_bond_site_symmetry_2
O1 C1 1_555 1_555
O2 H1 1_555 1_555
C1 C2 1_555 1_555
C2 H2 1_555 1_555
C3 C2 1_555 1_555
H3 C3 1_555 1_555
C4 O1 1_555 1_555
H4 C4 1_555 1_555
C5 C4 1_555 1_555
C6 C1 1_555 1_555
C7 C6 1_555 1_555
C8 C7 1_555 1_555
H5 C8 1_555 1_555
C9 C8 1_555 1_555
H6 C9 1_555 1_555
C10 C9 1_555 1_555
H7 C10 1_555 1_555
C11 C10 1_555 1_555
H8 C11 1_555 1_555
C12 C7 1_555 1_555
C13 O2 1_555 1_555
C14 C13 1_555 1_555
C15 C14 1_555 1_555
H9 C15 1_555 1_555
C16 C5 1_555 1_555
C17 C16 1_555 1_555
H10 C17 1_555 1_555
C18 C17 1_555 1_555
H11 C18 1_555 1_555
C19 C18 1_555 1_555
H12 C19 1_555 1_555
C20 C19 1_555 1_555
H13 C20 1_555 1_555
C21 C16 1_555 1_555
H14 C21 1_555 1_555
C1 C13 1_555 1_555
C3 C4 1_555 1_555
C5 C6 1_555 1_555
C11 C12 1_555 1_555
C12 C13 1_555 1_555
C20 C21 1_555 1_555

#END
