
#######################################################################
#
#                 Cambridge Crystallographic Data Centre
#                                CCDC 
#
#######################################################################
#
# If this CIF has been generated from an entry in the Cambridge 
# Structural Database, then it will include bibliographic, chemical, 
# crystal, experimental, refinement or atomic coordinate data resulting 
# from the CCDC's data processing and validation procedures.
#
#######################################################################

data_SANTAD
_chemical_formula_moiety         'C23 H27 Br1 N2 O2'
_chemical_name_systematic        
10-Amino-3,3,6,6-tetramethyl-9-(4-bromophenyl)-3,4,5,6,9,10-hexahydroacridine-1,8(2H,7H)-dione
_symmetry_cell_setting           orthorhombic
_symmetry_space_group_name_H-M   'P b c a'
_symmetry_Int_Tables_number      61
_space_group_name_Hall           '-P 2ac 2ab'
loop_
_symmetry_equiv_pos_site_id
_symmetry_equiv_pos_as_xyz
1 x,y,z
2 1/2+x,1/2-y,-z
3 -x,1/2+y,1/2-z
4 1/2-x,-y,1/2+z
5 -x,-y,-z
6 1/2-x,1/2+y,z
7 x,1/2-y,1/2+z
8 1/2+x,y,1/2-z
_cell_length_a                   11.8053(10)
_cell_length_b                   15.6404(15)
_cell_length_c                   22.432(2)
_cell_angle_alpha                90
_cell_angle_beta                 90
_cell_angle_gamma                90
_cell_volume                     4141.84
_exptl_crystal_colour            yellow
_exptl_crystal_description       chunk
_chemical_melting_point          '553-554 K'
_cell_formula_units_Z            8
_exptl_crystal_recrystallization_method '95% ethanol'
loop_
_atom_site_label
_atom_site_type_symbol
_atom_site_fract_x
_atom_site_fract_y
_atom_site_fract_z
Br1 Br 0.73075(2) 0.394197(17) 0.717748(12)
O1 O 0.40897(15) 0.24985(12) 0.45248(7)
O2 O 0.35654(14) 0.05231(10) 0.62079(7)
N1 N 0.14650(14) 0.30821(10) 0.60544(7)
N2 N 0.05666(16) 0.35757(12) 0.62989(8)
C1 C 0.19740(17) 0.32965(13) 0.55150(9)
C2 C 0.28796(17) 0.28403(13) 0.53208(9)
C3 C 0.34559(17) 0.22150(13) 0.57390(9)
H1 H 0.3821 0.1757 0.5494
C4 C 0.25607(17) 0.18115(13) 0.61207(9)
C5 C 0.16373(17) 0.22707(12) 0.62948(9)
C6 C 0.33166(19) 0.29506(14) 0.47198(9)
C7 C 0.27664(19) 0.36195(15) 0.43280(10)
H2 H 0.2160 0.3345 0.4091
H3 H 0.3339 0.3844 0.4046
C8 C 0.22555(18) 0.43706(14) 0.46778(9)
C9 C 0.14619(18) 0.40181(13) 0.51624(9)
H4 H 0.1259 0.4487 0.5439
H5 H 0.0755 0.3815 0.4972
C10 C 0.27002(18) 0.09297(13) 0.63196(9)
C11 C 0.1718(2) 0.05280(14) 0.66483(10)
H6 H 0.1997 0.0030 0.6877
H7 H 0.1158 0.0317 0.6354
C12 C 0.11326(19) 0.11478(14) 0.70745(10)
C13 C 0.07576(18) 0.19428(14) 0.67204(9)
H8 H 0.0064 0.1801 0.6493
H9 H 0.0563 0.2404 0.7005
C14 C 0.43785(17) 0.26775(12) 0.60913(9)
C15 C 0.54134(19) 0.28625(14) 0.58218(10)
H10 H 0.5528 0.2714 0.5416
C16 C 0.62767(19) 0.32579(14) 0.61342(11)
H11 H 0.6983 0.3372 0.5948
C17 C 0.60967(19) 0.34837(13) 0.67203(10)
C18 C 0.50635(19) 0.33552(14) 0.69931(10)
H12 H 0.4938 0.3542 0.7391
C19 C 0.42111(18) 0.29471(14) 0.66760(9)
H13 H 0.3499 0.2850 0.6862
C20 C 0.1557(2) 0.49348(17) 0.42604(11)
H14 H 0.0927 0.4602 0.4096
H15 H 0.2038 0.5139 0.3934
H16 H 0.1259 0.5425 0.4483
C21 C 0.3212(2) 0.49031(16) 0.49552(11)
H17 H 0.3732 0.5092 0.4641
H18 H 0.3625 0.4554 0.5245
H19 H 0.2889 0.5403 0.5156
C22 C 0.0090(2) 0.07263(17) 0.73503(13)
H20 H 0.0323 0.0225 0.7582
H21 H -0.0430 0.0548 0.7033
H22 H -0.0293 0.1135 0.7613
C23 C 0.1941(2) 0.14062(15) 0.75762(11)
H23 H 0.2189 0.0894 0.7791
H24 H 0.1550 0.1792 0.7852
H25 H 0.2601 0.1698 0.7407
H26 H 0.081(2) 0.4117(18) 0.6308(11)
H27 H -0.003(2) 0.3483(17) 0.6061(12)
loop_
_geom_bond_atom_site_label_1
_geom_bond_atom_site_label_2
_geom_bond_site_symmetry_1
_geom_bond_site_symmetry_2
Br1 C17 1_555 1_555
O1 C6 1_555 1_555
O2 C10 1_555 1_555
N1 N2 1_555 1_555
N2 H26 1_555 1_555
C1 N1 1_555 1_555
C2 C1 1_555 1_555
C3 C2 1_555 1_555
H1 C3 1_555 1_555
C4 C3 1_555 1_555
C5 N1 1_555 1_555
C6 C2 1_555 1_555
C7 C6 1_555 1_555
H2 C7 1_555 1_555
H3 C7 1_555 1_555
C8 C7 1_555 1_555
C9 C1 1_555 1_555
H4 C9 1_555 1_555
H5 C9 1_555 1_555
C10 C4 1_555 1_555
C11 C10 1_555 1_555
H6 C11 1_555 1_555
H7 C11 1_555 1_555
C12 C11 1_555 1_555
C13 C5 1_555 1_555
H8 C13 1_555 1_555
H9 C13 1_555 1_555
C14 C3 1_555 1_555
C15 C14 1_555 1_555
H10 C15 1_555 1_555
C16 C15 1_555 1_555
H11 C16 1_555 1_555
C17 C16 1_555 1_555
C18 C17 1_555 1_555
H12 C18 1_555 1_555
C19 C14 1_555 1_555
H13 C19 1_555 1_555
C20 C8 1_555 1_555
H14 C20 1_555 1_555
H15 C20 1_555 1_555
H16 C20 1_555 1_555
C21 C8 1_555 1_555
H17 C21 1_555 1_555
H18 C21 1_555 1_555
H19 C21 1_555 1_555
C22 C12 1_555 1_555
H20 C22 1_555 1_555
H21 C22 1_555 1_555
H22 C22 1_555 1_555
C23 C12 1_555 1_555
H23 C23 1_555 1_555
H24 C23 1_555 1_555
H25 C23 1_555 1_555
H27 N2 1_555 1_555
C4 C5 1_555 1_555
C8 C9 1_555 1_555
C12 C13 1_555 1_555
C18 C19 1_555 1_555

#END
