
#######################################################################
#
#                 Cambridge Crystallographic Data Centre
#                                CCDC 
#
#######################################################################
#
# If this CIF has been generated from an entry in the Cambridge 
# Structural Database, then it will include bibliographic, chemical, 
# crystal, experimental, refinement or atomic coordinate data resulting 
# from the CCDC's data processing and validation procedures.
#
#######################################################################

data_SANVOU01
_chemical_formula_moiety         'C21 H17 N1 O2'
_chemical_name_systematic        
2-((4-methoxyphenyl)imino)-1,2-diphenylethanone
_symmetry_cell_setting           triclinic
_symmetry_space_group_name_H-M   'P -1'
_symmetry_Int_Tables_number      2
_space_group_name_Hall           '-P 1'
loop_
_symmetry_equiv_pos_site_id
_symmetry_equiv_pos_as_xyz
1 x,y,z
2 -x,-y,-z
_cell_length_a                   9.1410(11)
_cell_length_b                   9.7210(11)
_cell_length_c                   10.0939(12)
_cell_angle_alpha                93.460(2)
_cell_angle_beta                 112.441(2)
_cell_angle_gamma                92.977(2)
_cell_volume                     824.77
_exptl_crystal_colour            yellow
_exptl_crystal_description       prism
_cell_formula_units_Z            2
loop_
_atom_site_label
_atom_site_type_symbol
_atom_site_fract_x
_atom_site_fract_y
_atom_site_fract_z
C1 C 0.2080(3) 0.4398(2) 0.8150(2)
H1 H 0.1539 0.4322 0.7099
H2 H 0.3189 0.4751 0.8423
H3 H 0.1548 0.5035 0.8574
O1 O 0.20252(16) 0.30730(14) 0.86622(14)
O2 O 0.77248(16) 0.44917(14) 1.52376(15)
C2 C 0.8161(2) 0.23290(19) 1.42944(18)
C3 C 0.6043(2) 0.26335(18) 1.5386(2)
C4 C 0.2725(2) 0.2976(2) 1.0121(2)
C5 C 0.5265(2) 0.21688(19) 1.7428(2)
H4 H 0.4185 0.2115 1.6780
C6 C 0.4095(2) 0.25398(19) 1.3024(2)
C7 C 0.6468(2) 0.24432(17) 1.6928(2)
C8 C 0.7657(2) 0.09403(19) 1.38923(19)
H5 H 0.6750 0.0561 1.4027
C9 C 0.9508(2) 0.2870(2) 1.41089(19)
H6 H 0.9862 0.3819 1.4382
C10 C 0.7348(2) 0.32557(19) 1.49623(19)
C11 C 0.3309(2) 0.1443(2) 1.1995(2)
H7 H 0.3222 0.0542 1.2288
C12 C 0.5635(2) 0.1974(2) 1.8862(2)
H8 H 0.4807 0.1775 1.9190
C13 C 0.8042(2) 0.2534(2) 1.7906(2)
H9 H 0.8877 0.2725 1.7586
C14 C 0.2659(2) 0.1659(2) 1.0558(2)
H10 H 0.2162 0.0901 0.9862
C15 C 0.8466(2) 0.0106(2) 1.3296(2)
H11 H 0.8109 -0.0841 1.3010
C16 C 0.9801(2) 0.0656(2) 1.3118(2)
H12 H 1.0358 0.0082 1.2710
C17 C 0.4154(2) 0.3850(2) 1.2577(2)
H13 H 0.4671 0.4606 1.3269
C18 C 0.3468(2) 0.4077(2) 1.1130(2)
H14 H 0.3509 0.4984 1.0837
C19 C 1.0328(2) 0.2035(2) 1.3531(2)
H15 H 1.1251 0.2404 1.3417
C20 C 0.8394(2) 0.2346(2) 1.9341(2)
H16 H 0.9470 0.2409 2.0000
C21 C 0.7195(2) 0.2067(2) 1.9820(2)
H17 H 0.7442 0.1940 2.0806
N1 N 0.46213(18) 0.22828(16) 1.44964(16)
loop_
_geom_bond_atom_site_label_1
_geom_bond_atom_site_label_2
_geom_bond_site_symmetry_1
_geom_bond_site_symmetry_2
C1 H1 1_555 1_555
H2 C1 1_555 1_555
H3 C1 1_555 1_555
O1 C1 1_555 1_555
O2 C10 1_555 1_555
C2 C8 1_555 1_555
C3 C7 1_555 1_555
C4 O1 1_555 1_555
C5 H4 1_555 1_555
C6 C11 1_555 1_555
C7 C5 1_555 1_555
C8 H5 1_555 1_555
C9 C2 1_555 1_555
H6 C9 1_555 1_555
C10 C2 1_555 1_555
C11 H7 1_555 1_555
C12 C5 1_555 1_555
H8 C12 1_555 1_555
C13 C7 1_555 1_555
H9 C13 1_555 1_555
C14 C4 1_555 1_555
H10 C14 1_555 1_555
C15 C8 1_555 1_555
H11 C15 1_555 1_555
C16 C15 1_555 1_555
H12 C16 1_555 1_555
C17 C6 1_555 1_555
H13 C17 1_555 1_555
C18 C4 1_555 1_555
H14 C18 1_555 1_555
C19 C9 1_555 1_555
H15 C19 1_555 1_555
C20 C13 1_555 1_555
H16 C20 1_555 1_555
C21 C12 1_555 1_555
H17 C21 1_555 1_555
N1 C3 1_555 1_555
C3 C10 1_555 1_555
C6 N1 1_555 1_555
C11 C14 1_555 1_555
C16 C19 1_555 1_555
C17 C18 1_555 1_555
C20 C21 1_555 1_555

#END
