
#######################################################################
#
#                 Cambridge Crystallographic Data Centre
#                                CCDC 
#
#######################################################################
#
# If this CIF has been generated from an entry in the Cambridge 
# Structural Database, then it will include bibliographic, chemical, 
# crystal, experimental, refinement or atomic coordinate data resulting 
# from the CCDC's data processing and validation procedures.
#
#######################################################################

data_SAPCUH
_chemical_formula_moiety         'C16 H14 N2'
_chemical_name_systematic        2,3-Dihydro-5,6-diphenylpyrazine
_symmetry_cell_setting           monoclinic
_symmetry_space_group_name_H-M   'P 21/n'
_symmetry_Int_Tables_number      14
_space_group_name_Hall           '-P 2yn'
loop_
_symmetry_equiv_pos_site_id
_symmetry_equiv_pos_as_xyz
1 x,y,z
2 1/2-x,1/2+y,1/2-z
3 -x,-y,-z
4 1/2+x,1/2-y,1/2+z
_cell_length_a                   5.685(3)
_cell_length_b                   7.928(1)
_cell_length_c                   27.261(8)
_cell_angle_alpha                90
_cell_angle_beta                 95.02(6)
_cell_angle_gamma                90
_cell_volume                     1223.96
_cell_formula_units_Z            4
loop_
_atom_site_label
_atom_site_type_symbol
_atom_site_fract_x
_atom_site_fract_y
_atom_site_fract_z
C1 C 0.452(2) 0.187(2) 0.3334(5)
C2 C 0.649(2) 0.140(2) 0.3106(5)
C3 C 0.672(2) 0.155(2) 0.2626(5)
C4 C 0.490(2) 0.231(2) 0.2332(5)
C5 C 0.299(2) 0.286(2) 0.2542(5)
C6 C 0.273(3) 0.262(2) 0.3037(5)
C7 C 0.672(2) -0.101(2) 0.4032(4)
C8 C 0.518(2) -0.203(2) 0.3757(5)
C9 C 0.591(3) -0.365(2) 0.3648(5)
C10 C 0.807(3) -0.427(2) 0.3843(6)
C11 C 0.958(2) -0.327(2) 0.4112(5)
C12 C 0.892(2) -0.166(2) 0.4217(5)
C13 C 0.438(2) 0.177(2) 0.3861(5)
C14 C 0.603(2) 0.070(2) 0.4209(5)
C15 C 0.552(2) 0.268(2) 0.4816(5)
C16 C 0.298(2) 0.266(2) 0.4602(5)
N1 N 0.670(2) 0.116(1) 0.4648(4)
N2 N 0.288(2) 0.270(1) 0.4066(3)
loop_
_geom_bond_atom_site_label_1
_geom_bond_atom_site_label_2
_geom_bond_site_symmetry_1
_geom_bond_site_symmetry_2
C1 C2 1_555 1_555
C2 C3 1_555 1_555
C3 C4 1_555 1_555
C4 C5 1_555 1_555
C5 C6 1_555 1_555
C6 C1 1_555 1_555
C7 C8 1_555 1_555
C8 C9 1_555 1_555
C9 C10 1_555 1_555
C10 C11 1_555 1_555
C11 C12 1_555 1_555
C12 C7 1_555 1_555
C13 C1 1_555 1_555
C14 C7 1_555 1_555
C15 C16 1_555 1_555
C16 N2 1_555 1_555
N1 C14 1_555 1_555
N2 C13 1_555 1_555
C13 C14 1_555 1_555
C15 N1 1_555 1_555

#END
