
#######################################################################
#
#                 Cambridge Crystallographic Data Centre
#                                CCDC 
#
#######################################################################
#
# If this CIF has been generated from an entry in the Cambridge 
# Structural Database, then it will include bibliographic, chemical, 
# crystal, experimental, refinement or atomic coordinate data resulting 
# from the CCDC's data processing and validation procedures.
#
#######################################################################

data_SAPHIB
_chemical_formula_moiety         'C17 H18 O3'
_chemical_name_systematic        
1-(2-Hydroxy-4-isopropoxyphenyl)-2-phenylethanone
_symmetry_cell_setting           monoclinic
_symmetry_space_group_name_H-M   'P 21/c'
_symmetry_Int_Tables_number      14
_space_group_name_Hall           '-P 2ybc'
loop_
_symmetry_equiv_pos_site_id
_symmetry_equiv_pos_as_xyz
1 x,y,z
2 -x,1/2+y,1/2-z
3 -x,-y,-z
4 x,1/2-y,1/2+z
_cell_length_a                   14.949(4)
_cell_length_b                   13.366(2)
_cell_length_c                   7.324(8)
_cell_angle_alpha                90
_cell_angle_beta                 101.214(8)
_cell_angle_gamma                90
_cell_volume                     1435.46
_exptl_crystal_colour            colorless
_exptl_crystal_description       prism
_chemical_melting_point          '351 K'
_cell_formula_units_Z            4
_exptl_crystal_recrystallization_method ethanol
loop_
_atom_site_label
_atom_site_type_symbol
_atom_site_fract_x
_atom_site_fract_y
_atom_site_fract_z
O1 O 0.46160(9) 0.07444(9) 0.0997(2)
H1 H 0.5118 0.0906 0.0801
O2 O 0.58939(9) 0.19553(10) 0.0516(2)
O3 O 0.18460(9) 0.21920(10) 0.2001(2)
C1 C 0.41295(14) 0.15793(14) 0.1211(3)
C2 C 0.45041(14) 0.25472(14) 0.1137(3)
C3 C 0.39284(14) 0.33516(14) 0.1354(3)
H2 H 0.4149 0.4000 0.1318
C4 C 0.30567(14) 0.32162(15) 0.1617(3)
H3 H 0.2692 0.3766 0.1739
C5 C 0.27145(14) 0.22447(15) 0.1703(3)
C6 C 0.32518(14) 0.14353(15) 0.1500(3)
H4 H 0.3026 0.0790 0.1558
C7 C 0.54311(15) 0.26790(16) 0.0834(3)
C8 C 0.58325(14) 0.37265(14) 0.0897(3)
H5 H 0.5516 0.4100 -0.0171
H6 H 0.5723 0.4062 0.2008
C9 C 0.68424(15) 0.37473(15) 0.0900(4)
C10 C 0.71758(17) 0.40314(16) -0.0647(4)
H7 H 0.6771 0.4226 -0.1718
C11 C 0.8104(2) 0.40323(18) -0.0636(4)
H8 H 0.8317 0.4238 -0.1687
C12 C 0.87060(19) 0.37306(18) 0.0917(5)
H9 H 0.9328 0.3718 0.0919
C13 C 0.83852(18) 0.34453(18) 0.2474(5)
H10 H 0.8792 0.3244 0.3538
C14 C 0.74587(17) 0.34568(16) 0.2462(4)
H11 H 0.7248 0.3265 0.3525
C15 C 0.14078(14) 0.12209(15) 0.1972(3)
H12 H 0.1834 0.0740 0.2680
C16 C 0.06113(15) 0.13765(18) 0.2934(4)
H13 H 0.0832 0.1602 0.4185
H14 H 0.0289 0.0757 0.2959
H15 H 0.0207 0.1869 0.2270
C17 C 0.11203(16) 0.08607(18) -0.0012(4)
H16 H 0.1650 0.0776 -0.0556
H17 H 0.0721 0.1345 -0.0717
H18 H 0.0807 0.0233 -0.0022
loop_
_geom_bond_atom_site_label_1
_geom_bond_atom_site_label_2
_geom_bond_site_symmetry_1
_geom_bond_site_symmetry_2
O1 H1 1_555 1_555
O2 C7 1_555 1_555
O3 C5 1_555 1_555
C1 O1 1_555 1_555
C2 C1 1_555 1_555
C3 C2 1_555 1_555
H2 C3 1_555 1_555
C4 C3 1_555 1_555
H3 C4 1_555 1_555
C5 C4 1_555 1_555
C6 C1 1_555 1_555
H4 C6 1_555 1_555
C7 C2 1_555 1_555
C8 C7 1_555 1_555
H5 C8 1_555 1_555
H6 C8 1_555 1_555
C9 C8 1_555 1_555
C10 C9 1_555 1_555
H7 C10 1_555 1_555
C11 C10 1_555 1_555
H8 C11 1_555 1_555
C12 C11 1_555 1_555
H9 C12 1_555 1_555
C13 C12 1_555 1_555
H10 C13 1_555 1_555
C14 C9 1_555 1_555
H11 C14 1_555 1_555
C15 O3 1_555 1_555
H12 C15 1_555 1_555
C16 C15 1_555 1_555
H13 C16 1_555 1_555
H14 C16 1_555 1_555
H15 C16 1_555 1_555
C17 C15 1_555 1_555
H16 C17 1_555 1_555
H17 C17 1_555 1_555
H18 C17 1_555 1_555
C5 C6 1_555 1_555
C13 C14 1_555 1_555

#END
