
#######################################################################
#
#                 Cambridge Crystallographic Data Centre
#                                CCDC 
#
#######################################################################
#
# If this CIF has been generated from an entry in the Cambridge 
# Structural Database, then it will include bibliographic, chemical, 
# crystal, experimental, refinement or atomic coordinate data resulting 
# from the CCDC's data processing and validation procedures.
#
#######################################################################

data_SAPROR
_chemical_formula_moiety         'C27 H27 N1 O4 S1'
_chemical_name_systematic        
1-Benzyl-6-benzylidene-5-methoxy-3-(toluene-4-sulfonyl)piperidin-2-one
_symmetry_cell_setting           triclinic
_symmetry_space_group_name_H-M   'P -1'
_symmetry_Int_Tables_number      2
_space_group_name_Hall           '-P 1'
loop_
_symmetry_equiv_pos_site_id
_symmetry_equiv_pos_as_xyz
1 x,y,z
2 -x,-y,-z
_cell_length_a                   8.9309(8)
_cell_length_b                   11.7081(10)
_cell_length_c                   11.9410(10)
_cell_angle_alpha                78.590(2)
_cell_angle_beta                 73.669(2)
_cell_angle_gamma                86.681(2)
_cell_volume                     1174.54
_exptl_crystal_colour            colorless
_exptl_crystal_description       prism
_chemical_melting_point          179-180deg.C
_cell_formula_units_Z            2
_exptl_crystal_recrystallization_method 'ethyl acetate'
loop_
_atom_site_label
_atom_site_type_symbol
_atom_site_fract_x
_atom_site_fract_y
_atom_site_fract_z
S1 S 1.35329(6) 0.33362(4) 0.17463(5)
O1 O 1.52060(18) 0.34019(14) 0.14058(15)
O2 O 1.26482(19) 0.43708(12) 0.19713(14)
O3 O 1.04955(18) 0.23250(15) 0.16862(13)
O4 O 1.33865(19) 0.23126(13) -0.16592(14)
N1 N 1.06664(18) 0.33938(14) -0.01467(14)
C1 C 1.3059(2) 0.28775(17) 0.05348(17)
H1 H 1.3449 0.2080 0.0518
C2 C 1.1295(2) 0.28438(17) 0.07438(17)
C3 C 1.1594(2) 0.39239(16) -0.12983(17)
C4 C 1.3257(2) 0.35181(18) -0.15919(18)
H2 H 1.3848 0.3981 -0.2349
C5 C 1.3973(2) 0.36505(18) -0.06182(18)
H3 H 1.3919 0.4457 -0.0525
H4 H 1.5061 0.3415 -0.0817
C6 C 0.8953(2) 0.33186(18) 0.00880(19)
H5 H 0.8562 0.4057 -0.0253
H6 H 0.8475 0.3178 0.0939
C7 C 0.8488(2) 0.23618(18) -0.04252(18)
C8 C 0.8400(5) 0.1241(3) 0.0183(3)
H7 H 0.8601 0.1073 0.0921
C9 C 0.8013(7) 0.0351(3) -0.0295(4)
H8 H 0.7958 -0.0411 0.0127
C10 C 0.7714(5) 0.0577(3) -0.1369(3)
H9 H 0.7459 -0.0028 -0.1682
C11 C 0.7787(3) 0.1683(2) -0.1982(3)
H10 H 0.7583 0.1842 -0.2719
C12 C 0.8165(3) 0.2570(2) -0.1513(2)
H11 H 0.8203 0.3330 -0.1938
C13 C 1.1010(2) 0.46899(18) -0.20545(18)
H12 H 0.9961 0.4888 -0.1803
C14 C 1.1911(3) 0.52488(19) -0.32683(18)
C15 C 1.1598(3) 0.4997(3) -0.4261(2)
H13 H 1.0825 0.4460 -0.4168
C16 C 1.2414(4) 0.5530(3) -0.5389(2)
H14 H 1.2205 0.5333 -0.6047
C17 C 1.3523(3) 0.6341(3) -0.5548(2)
H15 H 1.4059 0.6707 -0.6309
C18 C 1.3843(4) 0.6612(3) -0.4573(2)
H16 H 1.4602 0.7163 -0.4673
C19 C 1.3045(3) 0.6071(2) -0.3446(2)
H17 H 1.3273 0.6262 -0.2792
C20 C 1.2784(3) 0.2011(2) -0.2547(2)
H18 H 1.2912 0.1189 -0.2536
H19 H 1.3339 0.2432 -0.3314
H20 H 1.1696 0.2208 -0.2391
C21 C 1.2969(3) 0.22307(18) 0.30191(18)
C22 C 1.3907(3) 0.1244(2) 0.3105(2)
H21 H 1.4798 0.1163 0.2496
C23 C 1.3488(4) 0.0382(2) 0.4118(2)
H22 H 1.4095 -0.0289 0.4169
C24 C 1.2209(3) 0.0490(2) 0.5043(2)
C25 C 1.1308(3) 0.1489(3) 0.4940(2)
H23 H 1.0443 0.1583 0.5565
C26 C 1.1669(3) 0.2355(2) 0.3923(2)
H24 H 1.1035 0.3010 0.3859
C27 C 1.1768(4) -0.0451(3) 0.6148(3)
H25 H 1.2513 -0.1075 0.6073
H26 H 1.0749 -0.0743 0.6242
H27 H 1.1762 -0.0131 0.6830
loop_
_geom_bond_atom_site_label_1
_geom_bond_atom_site_label_2
_geom_bond_site_symmetry_1
_geom_bond_site_symmetry_2
S1 O1 1_555 1_555
O2 S1 1_555 1_555
O3 C2 1_555 1_555
O4 C4 1_555 1_555
N1 C2 1_555 1_555
C1 S1 1_555 1_555
H1 C1 1_555 1_555
C2 C1 1_555 1_555
C3 N1 1_555 1_555
C4 C3 1_555 1_555
H2 C4 1_555 1_555
C5 C1 1_555 1_555
H3 C5 1_555 1_555
H4 C5 1_555 1_555
C6 N1 1_555 1_555
H5 C6 1_555 1_555
H6 C6 1_555 1_555
C7 C6 1_555 1_555
C8 C7 1_555 1_555
H7 C8 1_555 1_555
C9 C8 1_555 1_555
H8 C9 1_555 1_555
C10 C9 1_555 1_555
H9 C10 1_555 1_555
C11 C10 1_555 1_555
H10 C11 1_555 1_555
C12 C7 1_555 1_555
H11 C12 1_555 1_555
C13 C3 1_555 1_555
H12 C13 1_555 1_555
C14 C13 1_555 1_555
C15 C14 1_555 1_555
H13 C15 1_555 1_555
C16 C15 1_555 1_555
H14 C16 1_555 1_555
C17 C16 1_555 1_555
H15 C17 1_555 1_555
C18 C17 1_555 1_555
H16 C18 1_555 1_555
C19 C14 1_555 1_555
H17 C19 1_555 1_555
C20 O4 1_555 1_555
H18 C20 1_555 1_555
H19 C20 1_555 1_555
H20 C20 1_555 1_555
C21 S1 1_555 1_555
C22 C21 1_555 1_555
H21 C22 1_555 1_555
C23 C22 1_555 1_555
H22 C23 1_555 1_555
C24 C23 1_555 1_555
C25 C24 1_555 1_555
H23 C25 1_555 1_555
C26 C21 1_555 1_555
H24 C26 1_555 1_555
C27 C24 1_555 1_555
H25 C27 1_555 1_555
H26 C27 1_555 1_555
H27 C27 1_555 1_555
C4 C5 1_555 1_555
C11 C12 1_555 1_555
C18 C19 1_555 1_555
C25 C26 1_555 1_555

#END
