
#######################################################################
#
#                 Cambridge Crystallographic Data Centre
#                                CCDC 
#
#######################################################################
#
# If this CIF has been generated from an entry in the Cambridge 
# Structural Database, then it will include bibliographic, chemical, 
# crystal, experimental, refinement or atomic coordinate data resulting 
# from the CCDC's data processing and validation procedures.
#
#######################################################################

data_SAPZIV
_chemical_formula_moiety         'C12 H6 O3 S2'
_chemical_name_systematic        3,4-bis(2-thienyl)furan-2,5-dione
_symmetry_cell_setting           monoclinic
_symmetry_space_group_name_H-M   'P 21/c'
_symmetry_Int_Tables_number      14
_space_group_name_Hall           '-P 2ybc'
loop_
_symmetry_equiv_pos_site_id
_symmetry_equiv_pos_as_xyz
1 x,y,z
2 -x,1/2+y,1/2-z
3 -x,-y,-z
4 x,1/2-y,1/2+z
_cell_length_a                   15.1632(4)
_cell_length_b                   5.75337(13)
_cell_length_c                   12.5157(3)
_cell_angle_alpha                90
_cell_angle_beta                 95.460(2)
_cell_angle_gamma                90
_cell_volume                     1086.91
_cell_formula_units_Z            4
loop_
_atom_site_label
_atom_site_type_symbol
_atom_site_fract_x
_atom_site_fract_y
_atom_site_fract_z
S1 S 0.57573(5) 0.09947(14) 0.91259(6)
S2 S 0.83999(5) -0.49926(12) 0.67286(6)
O1 O 0.74000(14) -0.5260(4) 1.01344(16)
O2 O 0.62752(16) -0.2918(5) 1.04661(18)
C1 C 0.67876(18) 0.1135(5) 0.7597(2)
O3 O 0.85536(15) -0.6794(4) 0.93833(17)
C2 C 0.83579(16) -0.2959(5) 0.7731(2)
C3 C 0.71278(17) -0.2123(4) 0.89567(19)
C4 C 0.80021(18) -0.5315(5) 0.9367(2)
C5 C 0.89070(18) -0.1090(5) 0.7577(2)
H1 H 0.89742(18) 0.0192(5) 0.8030(2)
C6 C 0.78132(16) -0.3341(5) 0.86267(19)
C7 C 0.9354(2) -0.1379(6) 0.6641(3)
H2 H 0.9755(2) -0.0301(6) 0.6416(3)
C8 C 0.66467(16) -0.0127(5) 0.8527(2)
C9 C 0.68543(19) -0.3370(5) 0.9928(2)
C10 C 0.9141(2) -0.3368(6) 0.6109(2)
H3 H 0.9371(2) -0.3804(6) 0.5476(2)
C11 C 0.6168(2) 0.2953(5) 0.7420(2)
H4 H 0.6161(2) 0.3977(5) 0.6844(2)
C12 C 0.55829(19) 0.3059(6) 0.8174(3)
H5 H 0.51323(19) 0.4157(6) 0.8167(3)
H6 H 0.717(2) 0.083(5) 0.725(3)
loop_
_geom_bond_atom_site_label_1
_geom_bond_atom_site_label_2
_geom_bond_site_symmetry_1
_geom_bond_site_symmetry_2
S1 C8 1_555 1_555
S2 C2 1_555 1_555
O1 C4 1_555 1_555
O2 C9 1_555 1_555
C1 C8 1_555 1_555
O3 C4 1_555 1_555
C2 C5 1_555 1_555
C3 C6 1_555 1_555
C4 C6 1_555 1_555
C5 H1 1_555 1_555
C6 C2 1_555 1_555
C7 C5 1_555 1_555
H2 C7 1_555 1_555
C8 C3 1_555 1_555
C9 O1 1_555 1_555
C10 S2 1_555 1_555
H3 C10 1_555 1_555
C11 C1 1_555 1_555
H4 C11 1_555 1_555
C12 S1 1_555 1_555
H5 C12 1_555 1_555
H6 C1 1_555 1_555
C3 C9 1_555 1_555
C7 C10 1_555 1_555
C11 C12 1_555 1_555

#END
