
#######################################################################
#
#                 Cambridge Crystallographic Data Centre
#                                CCDC 
#
#######################################################################
#
# If this CIF has been generated from an entry in the Cambridge 
# Structural Database, then it will include bibliographic, chemical, 
# crystal, experimental, refinement or atomic coordinate data resulting 
# from the CCDC's data processing and validation procedures.
#
#######################################################################

data_SARGUO
_chemical_compound_source        'gorgonian Isis hippuris'
_chemical_formula_moiety         'C30 H44 O7'
_chemical_name_systematic        
3-Acetoxy-11-hydroxy-24-methyl-22,25-epoxy-5-furostan-18,20-lactone
_chemical_properties_biological  
'weak cytotoxicity towards the cancer cell lines Hep G2, Hep 3B, MCF-7 and MDA-MB-231'
_symmetry_cell_setting           orthorhombic
_symmetry_space_group_name_H-M   'P 21 21 21'
_symmetry_Int_Tables_number      19
_space_group_name_Hall           'P 2ac 2ab'
loop_
_symmetry_equiv_pos_site_id
_symmetry_equiv_pos_as_xyz
1 x,y,z
2 1/2-x,-y,1/2+z
3 1/2+x,1/2-y,-z
4 -x,1/2+y,1/2-z
_cell_length_a                   6.95(1)
_cell_length_b                   11.48(1)
_cell_length_c                   35.38(1)
_cell_angle_alpha                90
_cell_angle_beta                 90
_cell_angle_gamma                90
_cell_volume                     2822.83
_exptl_crystal_colour            colorless
_exptl_crystal_description       prism
_cell_formula_units_Z            4
loop_
_atom_site_label
_atom_site_type_symbol
_atom_site_fract_x
_atom_site_fract_y
_atom_site_fract_z
O1 O 0.114(2) -0.0199(8) -0.5432(3)
O2 O -0.0371(9) 0.0332(5) -0.4923(1)
O3 O -0.5597(5) -0.0605(4) -0.3511(1)
O4 O -0.4976(6) -0.2285(4) -0.2969(1)
O5 O -0.4117(6) -0.1809(4) -0.2390(1)
O6 O -0.0383(6) -0.2429(4) -0.2163(1)
O7 O -0.0608(7) -0.1027(3) -0.1685(1)
C1 C -0.336(1) 0.0017(5) -0.4353(2)
C2 C -0.356(1) -0.0167(7) -0.4780(2)
C3 C -0.174(1) -0.0601(7) -0.4962(2)
C4 C -0.100(1) -0.1666(6) -0.4760(2)
C5 C -0.0844(9) -0.1510(6) -0.4324(2)
C6 C -0.008(1) -0.2614(5) -0.4139(2)
C7 C 0.030(1) -0.2413(6) -0.3718(2)
C8 C -0.1406(8) -0.1844(5) -0.3512(2)
C9 C -0.2184(8) -0.0802(5) -0.3724(2)
C10 C -0.2708(8) -0.1080(5) -0.4142(2)
C11 C -0.3717(8) -0.0072(4) -0.3499(2)
C12 C -0.3108(9) 0.0187(5) -0.3092(2)
C13 C -0.2335(8) -0.0896(5) -0.2876(2)
C14 C -0.0754(8) -0.1453(5) -0.3116(2)
C15 C 0.0124(9) -0.2361(7) -0.2843(2)
C16 C 0.0166(9) -0.1652(6) -0.2470(2)
C17 C -0.1346(8) -0.0726(5) -0.2501(2)
C18 C -0.3920(8) -0.1717(5) -0.2768(2)
C19 C -0.4325(9) -0.2006(6) -0.4171(2)
C20 C -0.2806(9) -0.1045(5) -0.2191(2)
C21 C -0.396(1) -0.0068(6) -0.2019(2)
C22 C -0.1643(9) -0.1771(5) -0.1922(2)
C23 C -0.2627(9) -0.2649(5) -0.1660(2)
C24 C -0.116(1) -0.2783(5) -0.1342(2)
C25 C -0.030(1) -0.1535(6) -0.1318(2)
C26 C -0.125(2) -0.0790(7) -0.1032(2)
C27 C 0.189(1) -0.158(1) -0.1247(2)
C28 C -0.190(1) -0.3304(7) -0.0985(2)
C29 C 0.077(2) 0.0587(9) -0.5185(3)
C30 C 0.201(1) 0.1621(8) -0.5137(2)
H1 H -0.2444 0.0615 -0.4309
H2 H -0.4576 0.0250 -0.4254
H3 H -0.4554 -0.0720 -0.4824
H4 H -0.3906 0.0555 -0.4893
H5 H -0.1960 -0.0765 -0.5221
H6 H -0.1851 -0.2297 -0.4810
H7 H 0.0242 -0.1846 -0.4855
H8 H 0.0087 -0.0923 -0.4282
H9 H -0.0994 -0.3221 -0.4167
H10 H 0.1093 -0.2833 -0.4259
H11 H 0.0561 -0.3144 -0.3602
H12 H 0.1395 -0.1922 -0.3692
H13 H -0.2407 -0.2399 -0.3483
H14 H -0.1107 -0.0294 -0.3741
H15 H -0.3838 0.0651 -0.3625
H16 H -0.2120 0.0760 -0.3098
H17 H -0.4187 0.0483 -0.2959
H18 H 0.0199 -0.0870 -0.3156
H19 H -0.0667 -0.3030 -0.2823
H20 H 0.1381 -0.2584 -0.2921
H21 H 0.1401 -0.1319 -0.2428
H22 H -0.0844 0.0039 -0.2472
H23 H -0.5463 -0.1710 -0.4058
H24 H -0.4564 -0.2181 -0.4429
H25 H -0.3935 -0.2694 -0.4042
H26 H -0.3119 0.0450 -0.1887
H27 H -0.4614 0.0351 -0.2212
H28 H -0.4873 -0.0377 -0.1846
H29 H -0.3816 -0.2355 -0.1567
H30 H -0.2849 -0.3370 -0.1785
H31 H -0.0164 -0.3283 -0.1431
H32 H -0.0708 -0.0027 -0.1040
H33 H -0.2591 -0.0739 -0.1084
H34 H -0.1068 -0.1109 -0.0787
H35 H 0.2125 -0.1910 -0.1005
H36 H 0.2485 -0.2034 -0.1436
H37 H 0.2391 -0.0808 -0.1253
H38 H -0.2908 -0.2831 -0.0888
H39 H -0.2381 -0.4064 -0.1035
H40 H -0.0891 -0.3350 -0.0805
H41 H 0.3033 0.1442 -0.4969
H42 H 0.2526 0.1843 -0.5376
H43 H 0.1270 0.2244 -0.5037
H44 H -0.5403 -0.1291 -0.3321
O8? O -0.052(4) 0.109(2) -0.5429(7)
loop_
_geom_bond_atom_site_label_1
_geom_bond_atom_site_label_2
_geom_bond_site_symmetry_1
_geom_bond_site_symmetry_2
O1 C29 1_555 1_555
O2 C3 1_555 1_555
O3 C11 1_555 1_555
O4 C18 1_555 1_555
O5 C18 1_555 1_555
O6 C16 1_555 1_555
O7 C22 1_555 1_555
C1 C2 1_555 1_555
C2 C3 1_555 1_555
C3 C4 1_555 1_555
C4 C5 1_555 1_555
C5 C6 1_555 1_555
C6 C7 1_555 1_555
C7 C8 1_555 1_555
C8 C9 1_555 1_555
C9 C10 1_555 1_555
C10 C1 1_555 1_555
C11 C9 1_555 1_555
C12 C11 1_555 1_555
C13 C12 1_555 1_555
C14 C8 1_555 1_555
C15 C14 1_555 1_555
C16 C15 1_555 1_555
C17 C13 1_555 1_555
C18 C13 1_555 1_555
C19 C10 1_555 1_555
C20 O5 1_555 1_555
C21 C20 1_555 1_555
C22 O6 1_555 1_555
C23 C22 1_555 1_555
C24 C23 1_555 1_555
C25 O7 1_555 1_555
C26 C25 1_555 1_555
C27 C25 1_555 1_555
C28 C24 1_555 1_555
C29 O2 1_555 1_555
C30 C29 1_555 1_555
H1 C1 1_555 1_555
H2 C1 1_555 1_555
H3 C2 1_555 1_555
H4 C2 1_555 1_555
H5 C3 1_555 1_555
H6 C4 1_555 1_555
H7 C4 1_555 1_555
H8 C5 1_555 1_555
H9 C6 1_555 1_555
H10 C6 1_555 1_555
H11 C7 1_555 1_555
H12 C7 1_555 1_555
H13 C8 1_555 1_555
H14 C9 1_555 1_555
H15 C11 1_555 1_555
H16 C12 1_555 1_555
H17 C12 1_555 1_555
H18 C14 1_555 1_555
H19 C15 1_555 1_555
H20 C15 1_555 1_555
H21 C16 1_555 1_555
H22 C17 1_555 1_555
H23 C19 1_555 1_555
H24 C19 1_555 1_555
H25 C19 1_555 1_555
H26 C21 1_555 1_555
H27 C21 1_555 1_555
H28 C21 1_555 1_555
H29 C23 1_555 1_555
H30 C23 1_555 1_555
H31 C24 1_555 1_555
H32 C26 1_555 1_555
H33 C26 1_555 1_555
H34 C26 1_555 1_555
H35 C27 1_555 1_555
H36 C27 1_555 1_555
H37 C27 1_555 1_555
H38 C28 1_555 1_555
H39 C28 1_555 1_555
H40 C28 1_555 1_555
H41 C30 1_555 1_555
H42 C30 1_555 1_555
H43 C30 1_555 1_555
H44 O3 1_555 1_555
C5 C10 1_555 1_555
C13 C14 1_555 1_555
C16 C17 1_555 1_555
C17 C20 1_555 1_555
C20 C22 1_555 1_555
C24 C25 1_555 1_555

#END
