
#######################################################################
#
#                 Cambridge Crystallographic Data Centre
#                                CCDC 
#
#######################################################################
#
# If this CIF has been generated from an entry in the Cambridge 
# Structural Database, then it will include bibliographic, chemical, 
# crystal, experimental, refinement or atomic coordinate data resulting 
# from the CCDC's data processing and validation procedures.
#
#######################################################################

data_SARHAV
_chemical_compound_source        'gorgonian Isis hippuris'
_chemical_formula_moiety         'C30 H44 O6'
_chemical_name_systematic        
3-Acetoxy-24-methyl-11,18:18,20:22,25-triepoxy-5-furostane
_chemical_properties_biological  
'weak cytotoxicity towards the cancer cell lines Hep G2, Hep 3B, MCF-7 and MDA-MB-231'
_symmetry_cell_setting           orthorhombic
_symmetry_space_group_name_H-M   'P 21 21 21'
_symmetry_Int_Tables_number      19
_space_group_name_Hall           'P 2ac 2ab'
loop_
_symmetry_equiv_pos_site_id
_symmetry_equiv_pos_as_xyz
1 x,y,z
2 1/2-x,-y,1/2+z
3 1/2+x,1/2-y,-z
4 -x,1/2+y,1/2-z
_cell_length_a                   7.430(2)
_cell_length_b                   10.575(2)
_cell_length_c                   34.36(2)
_cell_angle_alpha                90
_cell_angle_beta                 90
_cell_angle_gamma                90
_cell_volume                     2699.74
_exptl_crystal_colour            colorless
_exptl_crystal_description       prism
_cell_formula_units_Z            4
loop_
_atom_site_label
_atom_site_type_symbol
_atom_site_fract_x
_atom_site_fract_y
_atom_site_fract_z
O1 O -0.4753(7) 0.0122(4) -0.9818(1)
O2 O -0.8572(5) -0.1129(4) -0.8066(1)
O3 O -0.5737(5) -0.1379(4) -0.6949(1)
O4 O -0.9020(5) -0.0851(4) -0.7394(1)
O5 O -0.7064(6) -0.0221(4) -0.6440(1)
O6 O -0.262(1) -0.0628(6) -1.0220(2)
C1 C -0.7418(8) -0.0454(6) -0.9191(2)
C2 C -0.735(1) -0.1010(8) -0.9601(2)
C3 C -0.547(1) -0.1189(7) -0.9755(2)
C4 C -0.427(1) -0.1851(7) -0.9457(2)
C5 C -0.4328(9) -0.1236(6) -0.9059(2)
C6 C -0.2970(9) -0.1796(7) -0.8775(2)
C7 C -0.2867(8) -0.1025(6) -0.8404(2)
C8 C -0.4718(7) -0.0911(6) -0.8213(1)
C9 C -0.6129(7) -0.0365(5) -0.8507(2)
C10 C -0.6238(8) -0.1156(5) -0.8891(2)
C11 C -0.7926(8) -0.0063(6) -0.8294(2)
C12 C -0.7663(8) 0.0946(6) -0.7996(2)
C13 C -0.6586(8) 0.0163(5) -0.7704(2)
C14 C -0.4682(7) -0.0103(5) -0.7841(2)
C15 C -0.3792(7) -0.0699(6) -0.7482(2)
C16 C -0.4912(8) -0.0271(6) -0.7134(2)
C17 C -0.6493(8) 0.0511(5) -0.7278(2)
C18 C -0.7725(7) -0.1030(5) -0.7701(1)
C19 C -0.704(1) -0.2488(6) -0.8813(2)
C20 C -0.8213(8) -0.0087(5) -0.7092(2)
C21 C -0.9618(9) 0.0821(7) -0.6943(2)
C22 C -0.7399(8) -0.0960(6) -0.6781(2)
C23 C -0.8461(9) -0.2085(6) -0.6646(2)
C24 C -0.792(2) -0.2209(7) -0.6232(2)
C25 C -0.721(1) -0.1013(7) -0.6100(2)
C26 C -0.526(2) -0.126(2) -0.5968(4)
C27 C -0.812(4) -0.0334(9) -0.5812(3)
C28 C -0.901(2) -0.294(1) -0.5984(3)
C29 C -0.335(1) 0.0236(9) -1.0059(2)
C30 C -0.273(2) 0.157(1) -1.0072(2)
H1 H -0.7026 0.0400 -0.9204
H2 H -0.8630 -0.0481 -0.9104
H3 H -0.7930 -0.1810 -0.9598
H4 H -0.7972 -0.0456 -0.9772
H5 H -0.5488 -0.1646 -0.9992
H6 H -0.4651 -0.2704 -0.9433
H7 H -0.3062 -0.1831 -0.9549
H8 H -0.3959 -0.0386 -0.9098
H9 H -0.3321 -0.2635 -0.8713
H10 H -0.1818 -0.1808 -0.8895
H11 H -0.2063 -0.1426 -0.8228
H12 H -0.2432 -0.0203 -0.8464
H13 H -0.5098 -0.1738 -0.8143
H14 H -0.5661 0.0434 -0.8583
H15 H -0.8816 0.0189 -0.8476
H16 H -0.6996 0.1643 -0.8095
H17 H -0.8769 0.1240 -0.7891
H18 H -0.4104 0.0678 -0.7896
H19 H -0.3801 -0.1595 -0.7502
H20 H -0.2586 -0.0411 -0.7457
H21 H -0.4202 0.0193 -0.6954
H22 H -0.6372 0.1393 -0.7232
H23 H -0.7000 -0.1752 -0.7652
H24 H -0.8228 -0.2404 -0.8714
H25 H -0.7073 -0.2956 -0.9049
H26 H -0.6313 -0.2920 -0.8629
H27 H -0.9111 0.1336 -0.6745
H28 H -1.0021 0.1342 -0.7151
H29 H -1.0606 0.0360 -0.6840
H30 H -0.9717 -0.1936 -0.6669
H31 H -0.8148 -0.2820 -0.6790
H32 H -0.6861 -0.2713 -0.6250
H33 H -0.5268 -0.1776 -0.5742
H34 H -0.4619 -0.1677 -0.6169
H35 H -0.4690 -0.0477 -0.5910
H36 H -0.7470 0.0416 -0.5753
H37 H -0.9286 -0.0119 -0.5903
H38 H -0.8219 -0.0838 -0.5584
H39 H -1.0053 -0.2467 -0.5915
H40 H -0.9373 -0.3690 -0.6116
H41 H -0.8362 -0.3158 -0.5757
H42 H -0.2386 0.1831 -0.9819
H43 H -0.1726 0.1635 -1.0243
H44 H -0.3677 0.2090 -1.0164
loop_
_geom_bond_atom_site_label_1
_geom_bond_atom_site_label_2
_geom_bond_site_symmetry_1
_geom_bond_site_symmetry_2
O1 C3 1_555 1_555
O2 C11 1_555 1_555
O3 C16 1_555 1_555
O4 C18 1_555 1_555
O5 C22 1_555 1_555
O6 C29 1_555 1_555
C1 C2 1_555 1_555
C2 C3 1_555 1_555
C3 C4 1_555 1_555
C4 C5 1_555 1_555
C5 C6 1_555 1_555
C6 C7 1_555 1_555
C7 C8 1_555 1_555
C8 C9 1_555 1_555
C9 C10 1_555 1_555
C10 C1 1_555 1_555
C11 C9 1_555 1_555
C12 C11 1_555 1_555
C13 C12 1_555 1_555
C14 C8 1_555 1_555
C15 C14 1_555 1_555
C16 C15 1_555 1_555
C17 C13 1_555 1_555
C18 O2 1_555 1_555
C19 C10 1_555 1_555
C20 O4 1_555 1_555
C21 C20 1_555 1_555
C22 O3 1_555 1_555
C23 C22 1_555 1_555
C24 C23 1_555 1_555
C25 O5 1_555 1_555
C26 C25 1_555 1_555
C27 C25 1_555 1_555
C28 C24 1_555 1_555
C29 O1 1_555 1_555
C30 C29 1_555 1_555
H1 C1 1_555 1_555
H2 C1 1_555 1_555
H3 C2 1_555 1_555
H4 C2 1_555 1_555
H5 C3 1_555 1_555
H6 C4 1_555 1_555
H7 C4 1_555 1_555
H8 C5 1_555 1_555
H9 C6 1_555 1_555
H10 C6 1_555 1_555
H11 C7 1_555 1_555
H12 C7 1_555 1_555
H13 C8 1_555 1_555
H14 C9 1_555 1_555
H15 C11 1_555 1_555
H16 C12 1_555 1_555
H17 C12 1_555 1_555
H18 C14 1_555 1_555
H19 C15 1_555 1_555
H20 C15 1_555 1_555
H21 C16 1_555 1_555
H22 C17 1_555 1_555
H23 C18 1_555 1_555
H24 C19 1_555 1_555
H25 C19 1_555 1_555
H26 C19 1_555 1_555
H27 C21 1_555 1_555
H28 C21 1_555 1_555
H29 C21 1_555 1_555
H30 C23 1_555 1_555
H31 C23 1_555 1_555
H32 C24 1_555 1_555
H33 C26 1_555 1_555
H34 C26 1_555 1_555
H35 C26 1_555 1_555
H36 C27 1_555 1_555
H37 C27 1_555 1_555
H38 C27 1_555 1_555
H39 C28 1_555 1_555
H40 C28 1_555 1_555
H41 C28 1_555 1_555
H42 C30 1_555 1_555
H43 C30 1_555 1_555
H44 C30 1_555 1_555
C5 C10 1_555 1_555
C13 C14 1_555 1_555
C13 C18 1_555 1_555
C16 C17 1_555 1_555
C17 C20 1_555 1_555
C20 C22 1_555 1_555
C24 C25 1_555 1_555

#END
