
#######################################################################
#
#                 Cambridge Crystallographic Data Centre
#                                CCDC 
#
#######################################################################
#
# If this CIF has been generated from an entry in the Cambridge 
# Structural Database, then it will include bibliographic, chemical, 
# crystal, experimental, refinement or atomic coordinate data resulting 
# from the CCDC's data processing and validation procedures.
#
#######################################################################

data_SARXOB
_chemical_formula_moiety         'C25 H35 N1 O2 S1 Si1'
_chemical_name_systematic        
N-cyclohexyl-N-[2-(diethylsilyl)-2-phenylethenyl]-4-methylbenzene-1-sulfonamide
_symmetry_cell_setting           triclinic
_symmetry_space_group_name_H-M   'P -1'
_symmetry_Int_Tables_number      2
_space_group_name_Hall           '-P 1'
loop_
_symmetry_equiv_pos_site_id
_symmetry_equiv_pos_as_xyz
1 x,y,z
2 -x,-y,-z
_cell_length_a                   9.9367(5)
_cell_length_b                   11.6098(6)
_cell_length_c                   12.8011(6)
_cell_angle_alpha                104.929(2)
_cell_angle_beta                 105.574(2)
_cell_angle_gamma                111.041(2)
_cell_volume                     1220.44
_exptl_crystal_colour            colorless
_exptl_crystal_description       plate
_cell_formula_units_Z            2
loop_
_atom_site_label
_atom_site_type_symbol
_atom_site_fract_x
_atom_site_fract_y
_atom_site_fract_z
C1 C 0.48324(17) 0.58934(14) 0.23588(12)
H1 H 0.5120 0.5359 0.1855
C2 C 0.58354(17) 0.66090(14) 0.34864(12)
C3 C 0.73687(17) 0.65618(14) 0.38426(13)
C4 C 0.80382(18) 0.64878(16) 0.49153(14)
H2 H 0.7525 0.6490 0.5444
C5 C 0.9445(2) 0.64115(18) 0.52203(16)
H3 H 0.9884 0.6359 0.5953
C6 C 1.0212(2) 0.64116(17) 0.44658(17)
H4 H 1.1166 0.6346 0.4672
C7 C 0.9581(2) 0.65079(17) 0.34078(15)
H5 H 1.0106 0.6516 0.2888
C8 C 0.81803(18) 0.65931(16) 0.31060(14)
H6 H 0.7766 0.6674 0.2383
C9 C 0.7351(2) 0.93729(18) 0.53775(17)
H7 H 0.7181 1.0048 0.5903
H8 H 0.8184 0.9236 0.5877
C10 C 0.7921(3) 0.9922(2) 0.4525(2)
H9 H 0.8080 0.9254 0.3995
H10 H 0.8916 1.0750 0.4975
H11 H 0.7131 1.0112 0.4061
C11 C 0.4905(2) 0.7017(2) 0.56525(15)
H12 H 0.3876 0.6202 0.5206
H13 H 0.5689 0.6741 0.6007
C12 C 0.4784(3) 0.7993(3) 0.66389(18)
H14 H 0.5830 0.8747 0.7149
H15 H 0.4366 0.7528 0.7106
H16 H 0.4078 0.8331 0.6295
C13 C 0.15092(16) 0.31564(14) 0.07019(12)
C14 C 0.06906(17) 0.28091(15) -0.04910(13)
H17 H 0.0261 0.3351 -0.0739
C15 C 0.05111(18) 0.16603(16) -0.13111(14)
H18 H -0.0044 0.1422 -0.2126
C16 C 0.11249(18) 0.08462(15) -0.09686(14)
C17 C 0.0930(2) -0.03981(18) -0.18656(17)
H19 H 0.1578 -0.0141 -0.2304
H20 H -0.0178 -0.0940 -0.2415
H21 H 0.1262 -0.0922 -0.1462
C18 C 0.19258(19) 0.12146(16) 0.02298(15)
H22 H 0.2340 0.0666 0.0481
C19 C 0.21327(18) 0.23637(16) 0.10651(14)
H23 H 0.2697 0.2607 0.1880
C20 C 0.31358(17) 0.64360(14) 0.09260(12)
H24 H 0.1984 0.6000 0.0424
C21 C 0.39645(19) 0.61552(15) 0.01179(13)
H25 H 0.3582 0.5175 -0.0262
H26 H 0.5112 0.6581 0.0587
C22 C 0.3635(2) 0.67144(16) -0.08278(14)
H27 H 0.4199 0.6553 -0.1336
H28 H 0.2494 0.6241 -0.1331
C23 C 0.4163(2) 0.82143(16) -0.02705(15)
H29 H 0.5321 0.8698 0.0164
H30 H 0.3882 0.8541 -0.0898
C24 C 0.3392(2) 0.85121(16) 0.05717(15)
H31 H 0.2244 0.8122 0.0119
H32 H 0.3813 0.9496 0.0964
C25 C 0.36853(19) 0.79369(15) 0.15075(13)
H33 H 0.4822 0.8397 0.2020
H34 H 0.3111 0.8096 0.2007
N1 N 0.33449(14) 0.58806(12) 0.18590(10)
O1 O 0.21982(13) 0.45117(12) 0.28807(9)
O2 O 0.04832(12) 0.48734(11) 0.13265(9)
S1 S 0.18044(4) 0.46362(4) 0.17674(3)
Si1 Si 0.54856(5) 0.77502(5) 0.46107(4)
H35 H 0.431(2) 0.8044(17) 0.4059(15)
loop_
_geom_bond_atom_site_label_1
_geom_bond_atom_site_label_2
_geom_bond_site_symmetry_1
_geom_bond_site_symmetry_2
C1 H1 1_555 1_555
C2 C1 1_555 1_555
C3 C2 1_555 1_555
C4 C3 1_555 1_555
H2 C4 1_555 1_555
C5 C4 1_555 1_555
H3 C5 1_555 1_555
C6 C5 1_555 1_555
H4 C6 1_555 1_555
C7 C6 1_555 1_555
H5 C7 1_555 1_555
C8 C3 1_555 1_555
H6 C8 1_555 1_555
C9 H7 1_555 1_555
H8 C9 1_555 1_555
C10 C9 1_555 1_555
H9 C10 1_555 1_555
H10 C10 1_555 1_555
H11 C10 1_555 1_555
C11 H12 1_555 1_555
H13 C11 1_555 1_555
C12 C11 1_555 1_555
H14 C12 1_555 1_555
H15 C12 1_555 1_555
H16 C12 1_555 1_555
C13 C14 1_555 1_555
C14 H17 1_555 1_555
C15 C14 1_555 1_555
H18 C15 1_555 1_555
C16 C15 1_555 1_555
C17 C16 1_555 1_555
H19 C17 1_555 1_555
H20 C17 1_555 1_555
H21 C17 1_555 1_555
C18 C16 1_555 1_555
H22 C18 1_555 1_555
C19 C13 1_555 1_555
H23 C19 1_555 1_555
C20 H24 1_555 1_555
C21 C20 1_555 1_555
H25 C21 1_555 1_555
H26 C21 1_555 1_555
C22 C21 1_555 1_555
H27 C22 1_555 1_555
H28 C22 1_555 1_555
C23 C22 1_555 1_555
H29 C23 1_555 1_555
H30 C23 1_555 1_555
C24 C23 1_555 1_555
H31 C24 1_555 1_555
H32 C24 1_555 1_555
C25 C20 1_555 1_555
H33 C25 1_555 1_555
H34 C25 1_555 1_555
N1 C1 1_555 1_555
O1 S1 1_555 1_555
O2 S1 1_555 1_555
S1 C13 1_555 1_555
Si1 C2 1_555 1_555
H35 Si1 1_555 1_555
C7 C8 1_555 1_555
C9 Si1 1_555 1_555
C11 Si1 1_555 1_555
C18 C19 1_555 1_555
C20 N1 1_555 1_555
C24 C25 1_555 1_555
N1 S1 1_555 1_555

#END
