
#######################################################################
#
#                 Cambridge Crystallographic Data Centre
#                                CCDC 
#
#######################################################################
#
# If this CIF has been generated from an entry in the Cambridge 
# Structural Database, then it will include bibliographic, chemical, 
# crystal, experimental, refinement or atomic coordinate data resulting 
# from the CCDC's data processing and validation procedures.
#
#######################################################################

data_SASJIH
_chemical_formula_moiety         'C10 H10 Cl2 F2 O5'
_chemical_name_systematic        
'Methyl 3-chloro-6-(chloro(difluoro)methyl)-6-hydroxy-4-methoxy-2-oxocyclohex-3-ene-1-carboxylate'
_symmetry_cell_setting           orthorhombic
_symmetry_space_group_name_H-M   'P b c a'
_symmetry_Int_Tables_number      61
_space_group_name_Hall           '-P 2ac 2ab'
loop_
_symmetry_equiv_pos_site_id
_symmetry_equiv_pos_as_xyz
1 x,y,z
2 1/2-x,-y,1/2+z
3 -x,1/2+y,1/2-z
4 1/2+x,1/2-y,-z
5 -x,-y,-z
6 1/2+x,y,1/2-z
7 x,1/2-y,1/2+z
8 1/2-x,1/2+y,z
_cell_length_a                   10.616(6)
_cell_length_b                   13.083(6)
_cell_length_c                   17.866(8)
_cell_angle_alpha                90
_cell_angle_beta                 90
_cell_angle_gamma                90
_cell_volume                     2481.39
_exptl_crystal_colour            colorless
_exptl_crystal_description       block
_cell_formula_units_Z            8
loop_
_atom_site_label
_atom_site_type_symbol
_atom_site_fract_x
_atom_site_fract_y
_atom_site_fract_z
O1 O 0.71904(9) 0.44797(8) 0.22141(6)
H1 H 0.987(2) 0.355(2) 0.3172(14)
O2 O 0.90252(10) 0.20054(8) 0.07024(5)
O3 O 1.01182(9) 0.30476(8) 0.28054(6)
O4 O 0.84911(9) 0.41713(8) 0.37486(6)
O5 O 0.66426(9) 0.33540(8) 0.38852(5)
F1 F 0.81931(9) 0.10142(7) 0.34894(5)
F2 F 0.92702(9) 0.21299(8) 0.40984(5)
Cl1 Cl 0.76087(4) 0.38645(3) 0.06419(2)
Cl2 Cl 1.05648(4) 0.08399(3) 0.33899(2)
C1 C 0.76731(11) 0.36431(10) 0.21479(7)
C2 C 0.80603(13) 0.32144(11) 0.14382(7)
C3 C 0.87436(12) 0.23501(10) 0.13848(7)
C4 C 0.91721(12) 0.17633(10) 0.20550(7)
H2 H 1.0055 0.1545 0.1977
H3 H 0.8651 0.1139 0.2103
C5 C 0.90919(11) 0.23671(10) 0.27818(7)
C6 C 0.78316(11) 0.29418(10) 0.28262(7)
H4 H 0.7136 0.2427 0.2819
C7 C 0.97992(17) 0.11087(13) 0.06113(9)
H5 H 1.0647 0.1247 0.0803
H6 H 0.9849 0.0931 0.0079
H7 H 0.9427 0.0538 0.0890
C8 C 0.92176(14) 0.16193(11) 0.34455(8)
C9 C 0.77059(12) 0.35723(11) 0.35355(7)
C10 C 0.64213(16) 0.38747(14) 0.45894(8)
H8 H 0.7021 0.3627 0.4965
H9 H 0.5560 0.3737 0.4759
H10 H 0.6534 0.4612 0.4520
loop_
_geom_bond_atom_site_label_1
_geom_bond_atom_site_label_2
_geom_bond_site_symmetry_1
_geom_bond_site_symmetry_2
O1 C1 1_555 1_555
H1 O3 1_555 1_555
O2 C3 1_555 1_555
O3 C5 1_555 1_555
O4 C9 1_555 1_555
O5 C9 1_555 1_555
F1 C8 1_555 1_555
F2 C8 1_555 1_555
Cl1 C2 1_555 1_555
Cl2 C8 1_555 1_555
C1 C2 1_555 1_555
C2 C3 1_555 1_555
C3 C4 1_555 1_555
C4 H2 1_555 1_555
H3 C4 1_555 1_555
C5 C4 1_555 1_555
C6 C1 1_555 1_555
H4 C6 1_555 1_555
C7 O2 1_555 1_555
H5 C7 1_555 1_555
H6 C7 1_555 1_555
H7 C7 1_555 1_555
C8 C5 1_555 1_555
C9 C6 1_555 1_555
C10 O5 1_555 1_555
H8 C10 1_555 1_555
H9 C10 1_555 1_555
H10 C10 1_555 1_555
C5 C6 1_555 1_555

#END
