
#######################################################################
#
#                 Cambridge Crystallographic Data Centre
#                                CCDC 
#
#######################################################################
#
# If this CIF has been generated from an entry in the Cambridge 
# Structural Database, then it will include bibliographic, chemical, 
# crystal, experimental, refinement or atomic coordinate data resulting 
# from the CCDC's data processing and validation procedures.
#
#######################################################################

data_SASPEJ
_chemical_formula_moiety         'C26 H4 Cl4 F10 N4'
_chemical_name_systematic        
4,7,11,14-Tetrachloro-2,9-bis(pentafluoroethyl)-pyrimido[4',5',6':6,7]phenaleno[1,2,3-gh]perimidine
_symmetry_cell_setting           triclinic
_symmetry_space_group_name_H-M   'P -1'
_symmetry_Int_Tables_number      2
_space_group_name_Hall           '-P 1'
loop_
_symmetry_equiv_pos_site_id
_symmetry_equiv_pos_as_xyz
1 x,y,z
2 -x,-y,-z
_cell_length_a                   4.945(3)
_cell_length_b                   9.477(6)
_cell_length_c                   13.060(8)
_cell_angle_alpha                82.158(8)
_cell_angle_beta                 81.684(9)
_cell_angle_gamma                87.061(17)
_cell_volume                     599.631
_exptl_crystal_colour            red
_exptl_crystal_description       needle
_cell_formula_units_Z            1
loop_
_atom_site_label
_atom_site_type_symbol
_atom_site_fract_x
_atom_site_fract_y
_atom_site_fract_z
Cl1 Cl 0.22595(17) 0.56946(9) 0.57223(6)
Cl2 Cl 0.0105(2) 1.16293(11) 0.11259(7)
F1 F 0.8035(4) 0.6584(2) 0.24383(15)
F2 F 0.7304(4) 0.8209(2) 0.11616(15)
F3 F 0.4056(5) 0.4993(2) 0.19776(18)
F4 F 0.3278(5) 0.6602(3) 0.07263(17)
F5 F 0.7216(4) 0.5550(2) 0.06946(17)
N1 N 0.3250(5) 0.7174(3) 0.3556(2)
N2 N 0.2593(5) 0.9017(3) 0.2151(2)
C1 C 0.1120(6) 0.7714(3) 0.4148(2)
C2 C 0.0326(7) 0.7086(3) 0.5208(2)
C3 C -0.1883(6) 0.7588(3) 0.5795(2)
H1 H -0.2378 0.7126 0.6484
C4 C -0.3513(6) 0.8785(3) 0.5427(2)
C5 C -0.2722(6) 0.9465(3) 0.4388(2)
C6 C -0.0417(6) 0.8925(3) 0.3772(2)
C7 C 0.0469(6) 0.9552(3) 0.2745(2)
C8 C -0.1012(7) 1.0797(4) 0.2347(2)
C9 C -0.3252(7) 1.1321(3) 0.2923(2)
H2 H -0.4223 1.2131 0.2629
C10 C -0.4182(7) 1.0680(3) 0.3963(2)
C11 C 0.3806(7) 0.7862(4) 0.2589(2)
C12 C 0.6085(7) 0.7208(4) 0.1886(2)
C13 C 0.5139(7) 0.6062(4) 0.1302(3)
Cl1A Cl -1.22595(17) 1.43054(9) 0.42777(6)
Cl2A Cl -1.0105(2) 0.83707(11) 0.88741(7)
F1A F -1.8035(4) 1.3416(2) 0.75617(15)
F2A F -1.7304(4) 1.1791(2) 0.88384(15)
F3A F -1.4056(5) 1.5007(2) 0.80224(18)
F4A F -1.3278(5) 1.3398(3) 0.92737(17)
F5A F -1.7216(4) 1.4450(2) 0.93054(17)
N1A N -1.3250(5) 1.2826(3) 0.6444(2)
N2A N -1.2593(5) 1.0983(3) 0.7849(2)
C1A C -1.1120(6) 1.2286(3) 0.5852(2)
C2A C -1.0326(7) 1.2914(3) 0.4792(2)
C3A C -0.8117(6) 1.2412(3) 0.4205(2)
H1A H -0.7622 1.2874 0.3516
C4A C -0.6487(6) 1.1215(3) 0.4573(2)
C5A C -0.7278(6) 1.0535(3) 0.5612(2)
C6A C -0.9583(6) 1.1075(3) 0.6228(2)
C7A C -1.0469(6) 1.0448(3) 0.7255(2)
C8A C -0.8988(7) 0.9203(4) 0.7653(2)
C9A C -0.6748(7) 0.8679(3) 0.7077(2)
H2A H -0.5777 0.7869 0.7371
C10A C -0.5818(7) 0.9320(3) 0.6037(2)
C11A C -1.3806(7) 1.2138(4) 0.7411(2)
C12A C -1.6085(7) 1.2792(4) 0.8114(2)
C13A C -1.5139(7) 1.3938(4) 0.8698(3)
loop_
_geom_bond_atom_site_label_1
_geom_bond_atom_site_label_2
_geom_bond_site_symmetry_1
_geom_bond_site_symmetry_2
Cl1 C2 1_555 1_555
Cl2 C8 1_555 1_555
F1 C12 1_555 1_555
F2 C12 1_555 1_555
F3 C13 1_555 1_555
F4 C13 1_555 1_555
F5 C13 1_555 1_555
N1 C1 1_555 1_555
N2 C7 1_555 1_555
C1 C2 1_555 1_555
C2 C3 1_555 1_555
C3 H1 1_555 1_555
C4 C3 1_555 1_555
C5 C4 1_555 1_555
C6 C1 1_555 1_555
C7 C6 1_555 1_555
C8 C7 1_555 1_555
C9 C8 1_555 1_555
H2 C9 1_555 1_555
C10 C5 1_555 1_555
C11 N1 1_555 1_555
C12 C11 1_555 1_555
C13 C12 1_555 1_555
Cl1A C2A 1_555 1_555
Cl2A C8A 1_555 1_555
F1A C12A 1_555 1_555
F2A C12A 1_555 1_555
F3A C13A 1_555 1_555
F4A C13A 1_555 1_555
F5A C13A 1_555 1_555
N1A C1A 1_555 1_555
N2A C7A 1_555 1_555
C1A C2A 1_555 1_555
C2A C3A 1_555 1_555
C3A H1A 1_555 1_555
C4A C10 1_555 1_555
C5A C4A 1_555 1_555
C6A C1A 1_555 1_555
C7A C6A 1_555 1_555
C8A C7A 1_555 1_555
C9A C8A 1_555 1_555
H2A C9A 1_555 1_555
C10A C4 1_555 1_555
C11A N1A 1_555 1_555
C12A C11A 1_555 1_555
C13A C12A 1_555 1_555
N2 C11 1_555 1_555
C5 C6 1_555 1_555
C9 C10 1_555 1_555
N2A C11A 1_555 1_555
C3A C4A 1_555 1_555
C5A C6A 1_555 1_555
C5A C10A 1_555 1_555
C9A C10A 1_555 1_555

#END
