
#######################################################################
#
#                 Cambridge Crystallographic Data Centre
#                                CCDC 
#
#######################################################################
#
# If this CIF has been generated from an entry in the Cambridge 
# Structural Database, then it will include bibliographic, chemical, 
# crystal, experimental, refinement or atomic coordinate data resulting 
# from the CCDC's data processing and validation procedures.
#
#######################################################################

data_SASREJ
_chemical_formula_moiety         'C18 H16 N2 O2 S1'
_chemical_name_systematic        '(N-2-(2-Pyridyl)phenyl) p-tolylsulfonamide'
_symmetry_cell_setting           monoclinic
_symmetry_space_group_name_H-M   'P 21/c'
_symmetry_Int_Tables_number      14
_space_group_name_Hall           '-P 2ybc'
loop_
_symmetry_equiv_pos_site_id
_symmetry_equiv_pos_as_xyz
1 x,y,z
2 x,1/2-y,1/2+z
3 -x,-y,-z
4 -x,1/2+y,1/2-z
_cell_length_a                   9.3784(11)
_cell_length_b                   14.346(2)
_cell_length_c                   11.926(2)
_cell_angle_alpha                90
_cell_angle_beta                 91.493(9)
_cell_angle_gamma                90
_cell_volume                     1604.01
_exptl_crystal_colour            colorless
_cell_formula_units_Z            4
loop_
_atom_site_label
_atom_site_type_symbol
_atom_site_fract_x
_atom_site_fract_y
_atom_site_fract_z
S1 S 0.26913(4) 0.06110(3) 0.31726(3)
O1 O 0.18812(12) 0.10202(8) 0.40499(10)
O2 O 0.37492(12) 0.11717(8) 0.26424(10)
N1 N 0.16335(14) 0.02793(9) 0.21437(12)
C1 C 0.0660(2) -0.04732(11) 0.22272(13)
C2 C -0.0136(2) -0.05809(12) 0.31962(14)
H1 H -0.0016(2) -0.01496(12) 0.37958(14)
C3 C 0.3493(2) -0.04119(11) 0.37141(13)
C4 C 0.1271(2) -0.10310(11) 0.02534(14)
C5 C 0.3314(2) -0.06705(12) 0.48135(14)
H2 H 0.2741(2) -0.03049(12) 0.52900(14)
C6 C 0.3981(2) -0.14712(12) 0.52180(14)
H3 H 0.3866(2) -0.16467(12) 0.59785(14)
N2 N 0.2121(2) -0.02891(11) 0.01040(13)
C7 C 0.4308(2) -0.09539(12) 0.30094(15)
H4 H 0.4421(2) -0.07769(12) 0.22493(15)
C8 C 0.0484(2) -0.11034(11) 0.13212(14)
C9 C 0.4812(2) -0.20212(11) 0.45331(14)
C10 C 0.4956(2) -0.17569(12) 0.3426(2)
H5 H 0.5508(2) -0.21307(12) 0.2943(2)
C11 C -0.0513(2) -0.18229(12) 0.1454(2)
H6 H -0.0666(2) -0.22521(12) 0.0856(2)
C12 C 0.5546(2) -0.28786(13) 0.4996(2)
H7 H 0.6330(9) -0.26925(13) 0.5507(9)
H8 H 0.5926(12) -0.3245(5) 0.4377(2)
H9 H 0.4860(4) -0.3256(5) 0.5403(9)
C13 C -0.1090(2) -0.13058(13) 0.3289(2)
H10 H -0.1618(2) -0.13758(13) 0.3953(2)
C14 C -0.1278(2) -0.19312(13) 0.2415(2)
H11 H -0.1932(2) -0.24331(13) 0.2478(2)
C15 C 0.2820(2) -0.02040(14) -0.0860(2)
H12 H 0.3409(2) 0.03284(14) -0.0951(2)
C16 C 0.1151(2) -0.1695(2) -0.0588(2)
H13 H 0.0562(2) -0.2226(2) -0.0489(2)
C17 C 0.1882(2) -0.1589(2) -0.1567(2)
H14 H 0.1790(2) -0.2044(2) -0.2143(2)
C18 C 0.2739(2) -0.08302(15) -0.1709(2)
H15 H 0.3256(2) -0.07454(15) -0.2375(2)
H16 H 0.2061(20) 0.0282(13) 0.1506(17)
loop_
_geom_bond_atom_site_label_1
_geom_bond_atom_site_label_2
_geom_bond_site_symmetry_1
_geom_bond_site_symmetry_2
S1 O1 1_555 1_555
O2 S1 1_555 1_555
N1 S1 1_555 1_555
C1 N1 1_555 1_555
C2 C1 1_555 1_555
H1 C2 1_555 1_555
C3 S1 1_555 1_555
C4 N2 1_555 1_555
C5 C3 1_555 1_555
H2 C5 1_555 1_555
C6 C5 1_555 1_555
H3 C6 1_555 1_555
N2 C15 1_555 1_555
C7 C3 1_555 1_555
H4 C7 1_555 1_555
C8 C1 1_555 1_555
C9 C6 1_555 1_555
C10 C7 1_555 1_555
H5 C10 1_555 1_555
C11 C8 1_555 1_555
H6 C11 1_555 1_555
C12 C9 1_555 1_555
H7 C12 1_555 1_555
H8 C12 1_555 1_555
H9 C12 1_555 1_555
C13 C2 1_555 1_555
H10 C13 1_555 1_555
C14 C11 1_555 1_555
H11 C14 1_555 1_555
C15 H12 1_555 1_555
C16 C4 1_555 1_555
H13 C16 1_555 1_555
C17 C16 1_555 1_555
H14 C17 1_555 1_555
C18 C15 1_555 1_555
H15 C18 1_555 1_555
H16 N1 1_555 1_555
C4 C8 1_555 1_555
C9 C10 1_555 1_555
C13 C14 1_555 1_555
C17 C18 1_555 1_555

#END
