
#######################################################################
#
#                 Cambridge Crystallographic Data Centre
#                                CCDC 
#
#######################################################################
#
# If this CIF has been generated from an entry in the Cambridge 
# Structural Database, then it will include bibliographic, chemical, 
# crystal, experimental, refinement or atomic coordinate data resulting 
# from the CCDC's data processing and validation procedures.
#
#######################################################################

data_SATCEW
_chemical_name_common            
"5'-O-phosphoryl-1'-deoxy-2'-isoadenylyl-(3'-5')-cytidine hydrate"
_chemical_formula_moiety         'C19 H26 N8 O13 P2,6.5(H2 O1)'
_chemical_name_systematic        
'4-amino-1-(6-O-((2-(6-aminopurin-9-yl)-6-O-hydroxy(oxido)phosphoryl-1,2,5-trideoxy-3-furanosyl)oxidophosphoryl)-1,5-dideoxy-1-furanosyl)pyrimidin-2(1H)-one hydrate'
_chemical_properties_biological  'inhibitor of anti-HIV integrase activity'
_symmetry_cell_setting           tetragonal
_symmetry_space_group_name_H-M   'P 41 21 2'
_symmetry_Int_Tables_number      92
_space_group_name_Hall           'P 4abw 2nw'
loop_
_symmetry_equiv_pos_site_id
_symmetry_equiv_pos_as_xyz
1 x,y,z
2 -x,-y,1/2+z
3 1/2+x,1/2-y,3/4-z
4 1/2+y,1/2-x,3/4+z
5 -y,-x,1/2-z
6 y,x,-z
7 1/2-x,1/2+y,1/4-z
8 1/2-y,1/2+x,1/4+z
_cell_length_a                   12.566(5)
_cell_length_b                   12.566(5)
_cell_length_c                   38.708(5)
_cell_angle_alpha                90
_cell_angle_beta                 90
_cell_angle_gamma                90
_cell_volume                     6112.16
_exptl_crystal_colour            colorless
_exptl_crystal_description       needle
_cell_formula_units_Z            8
loop_
_atom_site_label
_atom_site_type_symbol
_atom_site_fract_x
_atom_site_fract_y
_atom_site_fract_z
P1 P 0.48271(7) 0.48721(6) 0.68406(2)
P2 P 0.83819(7) 0.37702(8) 0.58340(3)
O1 O 0.41287(19) 0.0256(2) 0.70951(6)
H1 H 0.4689 -0.0016 0.7032
O2 O 0.21760(19) 0.12178(19) 0.71591(6)
H2 H 0.2353 0.0794 0.7309
O3 O 0.3899(2) -0.0555(2) 0.60528(7)
O4 O 0.29711(19) 0.19956(19) 0.64610(6)
O5 O 0.42734(18) 0.37265(18) 0.68109(6)
O6 O 0.46199(19) 0.54196(18) 0.64719(6)
O7 O 0.72489(19) 0.4268(2) 0.59338(7)
O8 O 0.6082(2) 0.6112(2) 0.57538(7)
O9 O 0.42431(19) 0.55657(19) 0.70886(6)
O10 O 0.59773(19) 0.46431(19) 0.68946(6)
O11 O 0.8128(2) 0.2829(2) 0.56132(7)
O12 O 0.8877(2) 0.3455(3) 0.61966(8)
O13 O 0.9073(3) 0.4611(3) 0.56827(11)
H3 H 0.9009 0.4610 0.5472
N1 N 0.2373(2) 0.1937(2) 0.55125(7)
H4 H 0.2000 0.1487 0.5486
N2 N 0.4458(2) 0.1040(2) 0.62829(7)
N3 N 0.2732(2) 0.3564(2) 0.58083(8)
N4 N 0.5264(2) 0.0315(2) 0.57907(8)
H5 H 0.5306 -0.0183 0.5639
N5 N 0.6683(2) 0.1135(3) 0.55172(8)
H6 H 0.6721 0.0613 0.5374
H7 H 0.7119 0.1660 0.5500
N6 N 0.3494(2) 0.1157(3) 0.50967(8)
H8 H 0.3052 0.0640 0.5072
H9 H 0.4071 0.1169 0.4977
N7 N 0.4928(2) 0.3093(3) 0.52318(7)
N8 N 0.4429(2) 0.4318(2) 0.56227(7)
C1 C 0.3594(3) 0.1079(3) 0.65397(9)
H10 H 0.3155 0.0437 0.6521
C2 C 0.3972(3) 0.1224(3) 0.69174(9)
H11 H 0.4630 0.1642 0.6921
C3 C 0.2141(3) 0.2738(3) 0.57430(9)
H12 H 0.1503 0.2682 0.5864
C4 C 0.4493(3) 0.0212(3) 0.60468(9)
C5 C 0.3061(3) 0.1879(3) 0.70735(9)
H13 H 0.3298 0.2304 0.7271
C6 C 0.2697(3) 0.2577(3) 0.67719(8)
H14 H 0.1919 0.2620 0.6782
C7 C 0.3642(3) 0.3565(3) 0.56165(8)
C8 C 0.5952(3) 0.1135(3) 0.57640(9)
C9 C 0.3119(3) 0.3709(3) 0.67603(9)
H15 H 0.2947 0.4025 0.6538
H16 H 0.2778 0.4129 0.6939
C10 C 0.3951(3) 0.2813(3) 0.53764(9)
C11 C 0.5872(3) 0.1983(3) 0.60042(9)
H17 H 0.6316 0.2573 0.5990
C12 C 0.5181(3) 0.5054(3) 0.61694(8)
H18 H 0.5374 0.4301 0.6189
C13 C 0.3289(3) 0.1928(3) 0.53158(9)
C14 C 0.5126(3) 0.1901(3) 0.62562(9)
H19 H 0.5063 0.2448 0.6417
C15 C 0.6172(3) 0.5755(3) 0.61027(9)
H20 H 0.6147 0.6374 0.6256
C16 C 0.7231(3) 0.5216(3) 0.61415(10)
H21 H 0.7795 0.5693 0.6069
H22 H 0.7349 0.5035 0.6382
C17 C 0.5172(3) 0.3995(3) 0.53873(9)
H23 H 0.5810 0.4394 0.5338
C18 C 0.4964(3) 0.6227(3) 0.56883(10)
H24 H 0.4822 0.6245 0.5442
H25 H 0.4693 0.6876 0.5792
C19 C 0.4461(3) 0.5252(3) 0.58535(9)
H26 H 0.3739 0.5424 0.5931
O14 O 0.5664(4) 0.8772(3) 0.53483(11)
H27 H 0.508(4) 0.871(5) 0.5217(16)
H28 H 0.566(5) 0.8102(17) 0.5370(17)
O15 O 0.2172(2) 0.9491(2) 0.49094(7)
H29 H 0.157(3) 0.972(5) 0.4863(16)
H30 H 0.231(5) 0.916(5) 0.4732(10)
O16 O 0.4182(3) 0.7666(3) 0.50005(10)
H31 H 0.385(5) 0.716(4) 0.5102(14)
H32 H 0.380(5) 0.773(5) 0.4819(10)
O17 O 0.7512(3) 0.8130(3) 0.57915(9)
H33 H 0.799(4) 0.852(4) 0.5744(16)
H34 H 0.709(4) 0.819(5) 0.5945(13)
O18 O 0.7784(2) 0.9744(3) 0.50187(8)
H35 H 0.723(3) 0.972(6) 0.5118(14)
H36 H 0.823(4) 0.957(5) 0.5159(13)
O19 O 0.8290(3) 0.6533(3) 0.53969(9)
H37 H 0.860(5) 0.688(4) 0.5243(13)
H38 H 0.852(5) 0.594(3) 0.5463(16)
O20? O 0.6322(4) 0.6322(4) 0.5000
H39? H 0.6894 0.6369 0.5091
H40? H 0.6283 0.6885 0.4865
loop_
_geom_bond_atom_site_label_1
_geom_bond_atom_site_label_2
_geom_bond_site_symmetry_1
_geom_bond_site_symmetry_2
P1 O5 1_555 1_555
P2 O7 1_555 1_555
O1 H1 1_555 1_555
O2 H2 1_555 1_555
O3 C4 1_555 1_555
O4 C1 1_555 1_555
O5 C9 1_555 1_555
O6 P1 1_555 1_555
O7 C16 1_555 1_555
O8 C15 1_555 1_555
O9 P1 1_555 1_555
O10 P1 1_555 1_555
O11 P2 1_555 1_555
O12 P2 1_555 1_555
O13 P2 1_555 1_555
H3 O13 1_555 1_555
N1 H4 1_555 1_555
N2 C1 1_555 1_555
N3 C3 1_555 1_555
N4 H5 1_555 1_555
N5 H6 1_555 1_555
H7 N5 1_555 1_555
N6 H8 1_555 1_555
H9 N6 1_555 1_555
N7 C10 1_555 1_555
N8 C7 1_555 1_555
C1 H10 1_555 1_555
C2 O1 1_555 1_555
H11 C2 1_555 1_555
C3 N1 1_555 1_555
H12 C3 1_555 1_555
C4 N2 1_555 1_555
C5 O2 1_555 1_555
H13 C5 1_555 1_555
C6 O4 1_555 1_555
H14 C6 1_555 1_555
C7 N3 1_555 1_555
C8 N4 1_555 1_555
C9 C6 1_555 1_555
H15 C9 1_555 1_555
H16 C9 1_555 1_555
C10 C7 1_555 1_555
C11 C8 1_555 1_555
H17 C11 1_555 1_555
C12 O6 1_555 1_555
H18 C12 1_555 1_555
C13 N1 1_555 1_555
C14 N2 1_555 1_555
H19 C14 1_555 1_555
C15 C12 1_555 1_555
H20 C15 1_555 1_555
C16 C15 1_555 1_555
H21 C16 1_555 1_555
H22 C16 1_555 1_555
C17 N7 1_555 1_555
H23 C17 1_555 1_555
C18 O8 1_555 1_555
H24 C18 1_555 1_555
H25 C18 1_555 1_555
C19 N8 1_555 1_555
H26 C19 1_555 1_555
O14 H27 1_555 1_555
H28 O14 1_555 1_555
O15 H29 1_555 1_555
H30 O15 1_555 1_555
O16 H31 1_555 1_555
H32 O16 1_555 1_555
O17 H33 1_555 1_555
H34 O17 1_555 1_555
O18 H35 1_555 1_555
H36 O18 1_555 1_555
O19 H37 1_555 1_555
H38 O19 1_555 1_555
N4 C4 1_555 1_555
N5 C8 1_555 1_555
N6 C13 1_555 1_555
N8 C17 1_555 1_555
C1 C2 1_555 1_555
C2 C5 1_555 1_555
C5 C6 1_555 1_555
C10 C13 1_555 1_555
C11 C14 1_555 1_555
C12 C19 1_555 1_555
C18 C19 1_555 1_555

#END
