
#######################################################################
#
#                 Cambridge Crystallographic Data Centre
#                                CCDC 
#
#######################################################################
#
# If this CIF has been generated from an entry in the Cambridge 
# Structural Database, then it will include bibliographic, chemical, 
# crystal, experimental, refinement or atomic coordinate data resulting 
# from the CCDC's data processing and validation procedures.
#
#######################################################################

data_SATNUX
_chemical_name_common            
'2,8,14,20-Tetra-isobutyl-pyrogallol(4)arene benzene solvate monohydrate'
_chemical_formula_moiety         'C44 H56 O12,C6 H6,H2 O1'
_chemical_name_systematic        
'2,8,14,20-Tetra-isobutyl-4,5,6,10,11,12,16,17,18,22,23,24-dodecahydroxycalix(4)arene benzene solvate monohydrate'
_symmetry_cell_setting           rhombohedral
_symmetry_space_group_name_H-M   'R -3'
_symmetry_Int_Tables_number      148
_space_group_name_Hall           '-R 3'
loop_
_symmetry_equiv_pos_site_id
_symmetry_equiv_pos_as_xyz
1 x,y,z
2 -y,x-y,z
3 -x+y,-x,z
4 2/3+x,1/3+y,1/3+z
5 2/3-y,1/3+x-y,1/3+z
6 2/3-x+y,1/3-x,1/3+z
7 1/3+x,2/3+y,2/3+z
8 1/3-y,2/3+x-y,2/3+z
9 1/3-x+y,2/3-x,2/3+z
10 -x,-y,-z
11 y,-x+y,-z
12 x-y,x,-z
13 1/3-x,2/3-y,2/3-z
14 1/3+y,2/3-x+y,2/3-z
15 1/3+x-y,2/3+x,2/3-z
16 2/3-x,1/3-y,1/3-z
17 2/3+y,1/3-x+y,1/3-z
18 2/3+x-y,1/3+x,1/3-z
_cell_length_a                   34.9792(10)
_cell_length_b                   34.9792(10)
_cell_length_c                   24.4459(15)
_cell_angle_alpha                90
_cell_angle_beta                 90
_cell_angle_gamma                120.00
_cell_volume                     25903.4
_exptl_crystal_colour            colorless
_exptl_crystal_description       block
_cell_formula_units_Z            18
_exptl_crystal_recrystallization_method methanol/benzene
loop_
_atom_site_label
_atom_site_type_symbol
_atom_site_fract_x
_atom_site_fract_y
_atom_site_fract_z
O1 O 0.56503(15) 0.14115(19) 0.0675(2)
H1 H 0.5711 0.1626 0.0867
O2 O 0.55419(17) 0.1107(2) -0.0379(3)
H2 H 0.5757 0.1204 -0.0176
O3 O 0.47655(18) 0.08045(18) -0.0906(2)
H3 H 0.4615 0.0876 -0.1090
O4 O 0.42727(17) 0.10285(18) -0.1546(2)
H4 H 0.4420 0.0964 -0.1346
O5 O 0.4242(2) 0.1701(2) -0.2057(2)
H5 H 0.4319 0.1528 -0.2169
O6 O 0.39668(19) 0.22005(18) -0.1540(2)
H6 H 0.4037 0.2412 -0.1337
O7 O 0.41949(18) 0.29156(18) -0.0906(2)
H7 H 0.4126 0.2696 -0.1093
O8 O 0.4856(2) 0.36056(16) -0.0374(3)
H8 H 0.5047 0.3787 -0.0171
O9 O 0.50762(17) 0.35261(16) 0.0676(3)
H9 H 0.5221 0.3453 0.0868
O10 O 0.55602(18) 0.32898(15) 0.1323(3)
H10 H 0.5407 0.3350 0.1127
O11 O 0.61479(15) 0.2998(2) 0.1345(4)
H11 H 0.6291 0.2871 0.1351
O12 O 0.58740(16) 0.21134(19) 0.1322(3)
H12 H 0.5794 0.1898 0.1123
C1 C 0.52427(17) 0.1267(2) 0.0424(3)
C2 C 0.5194(2) 0.1114(2) -0.0105(3)
C3 C 0.4798(2) 0.0959(2) -0.0373(2)
C4 C 0.44415(17) 0.09612(19) -0.0125(2)
C5 C 0.4510(2) 0.11239(19) 0.0407(3)
H13 H 0.4278 0.1132 0.0581
C6 C 0.4898(2) 0.1273(2) 0.0696(3)
C7 C 0.4118(2) 0.1265(2) -0.1247(3)
C8 C 0.4111(2) 0.1607(2) -0.1512(2)
C9 C 0.3968(2) 0.1857(2) -0.1244(3)
C10 C 0.3822(2) 0.17686(19) -0.0706(2)
C11 C 0.38403(19) 0.14243(19) -0.0452(3)
H14 H 0.3751 0.1364 -0.0089
C12 C 0.39847(19) 0.11615(18) -0.0709(2)
C13 C 0.4288(2) 0.2842(2) -0.0371(2)
C14 C 0.4622(2) 0.31994(19) -0.0101(3)
C15 C 0.4729(2) 0.31501(19) 0.0430(3)
C16 C 0.4502(2) 0.27536(19) 0.0701(2)
C17 C 0.4166(2) 0.2403(2) 0.0413(3)
H15 H 0.4013 0.2129 0.0585
C18 C 0.40467(18) 0.24401(17) -0.0121(3)
C19 C 0.5394(2) 0.28333(17) 0.1315(3)
C20 C 0.56962(16) 0.2687(2) 0.1329(4)
C21 C 0.55536(19) 0.2243(2) 0.1319(3)
C22 C 0.51079(19) 0.1930(2) 0.1305(3)
C23 C 0.4819(2) 0.20961(19) 0.1293(3)
H16 H 0.4518 0.1894 0.1281
C24 C 0.49476(18) 0.25402(19) 0.1297(3)
C25 C 0.40025(16) 0.07901(17) -0.0416(2)
H17 H 0.3996 0.0591 -0.0702
C26 C 0.3605(2) 0.0509(2) -0.0044(3)
H18 H 0.3622 0.0681 0.0276
H19 H 0.3336 0.0439 -0.0239
C27 C 0.3581(3) 0.0078(2) 0.0141(4)
H20 H 0.3875 0.0144 0.0260
C28 C 0.3262(5) -0.0119(4) 0.0623(6)
H21 H 0.3252 -0.0387 0.0739
H22 H 0.2973 -0.0183 0.0512
H23 H 0.3362 0.0088 0.0920
C29 C 0.3437(5) -0.0243(3) -0.0337(5)
H24 H 0.3422 -0.0513 -0.0221
H25 H 0.3646 -0.0115 -0.0630
H26 H 0.3151 -0.0305 -0.0462
C30 C 0.36700(17) 0.20495(18) -0.0412(3)
H27 H 0.3572 0.2177 -0.0699
C31 C 0.3264(2) 0.1771(3) -0.0060(4)
H28 H 0.3356 0.1684 0.0269
H29 H 0.3066 0.1505 -0.0259
C32 C 0.3014(4) 0.2006(4) 0.0102(6)
H30 H 0.3198 0.2301 0.0258
C33 C 0.2660(8) 0.1672(9) 0.0489(13)
H31 H 0.2796 0.1661 0.0826
H32 H 0.2518 0.1385 0.0322
H33 H 0.2446 0.1760 0.0563
C34 C 0.2755(6) 0.1993(8) -0.0412(7)
H34 H 0.2957 0.2161 -0.0698
H35 H 0.2570 0.2116 -0.0329
H36 H 0.2574 0.1692 -0.0529
C35 C 0.46186(18) 0.2703(2) 0.1283(2)
H37 H 0.4774 0.3002 0.1436
C36 C 0.4215(2) 0.2440(3) 0.1646(3)
H38 H 0.4317 0.2430 0.2013
H39 H 0.4054 0.2139 0.1511
C37 C 0.3896(3) 0.2619(3) 0.1682(5)
H40 H 0.3786 0.2620 0.1313
C38 C 0.3503(3) 0.2320(4) 0.2043(5)
H41 H 0.3305 0.2435 0.2063
H42 H 0.3606 0.2309 0.2404
H43 H 0.3352 0.2028 0.1890
C39 C 0.4130(5) 0.3092(4) 0.1900(9)
H44 H 0.3924 0.3197 0.1918
H45 H 0.4368 0.3278 0.1660
H46 H 0.4244 0.3098 0.2259
C40 C 0.4950(2) 0.1444(2) 0.1282(3)
H47 H 0.5187 0.1409 0.1444
C41 C 0.4541(3) 0.1162(3) 0.1630(4)
H48 H 0.4592 0.1297 0.1988
H49 H 0.4296 0.1176 0.1467
C42 C 0.4404(5) 0.0696(4) 0.1708(6)
H50 H 0.4374 0.0556 0.1351
C43 C 0.3980(5) 0.0454(5) 0.2013(9)
H51 H 0.3747 0.0449 0.1800
H52 H 0.4005 0.0600 0.2355
H53 H 0.3915 0.0157 0.2081
C44 C 0.4747(6) 0.0657(6) 0.2053(11)
H54 H 0.5031 0.0819 0.1881
H55 H 0.4665 0.0352 0.2083
H56 H 0.4759 0.0775 0.2411
C45 C 0.4785(8) 0.9813(9) 0.9502(13)
H57 H 0.4624 0.9676 0.9189
C46 C 0.5266(8) 1.0011(8) 0.9514(10)
H58 H 0.5443 1.0031 0.9219
C47 C 0.4585(7) 0.9836(6) 0.9949(8)
H59 H 0.4284 0.9730 0.9901
C45I C 0.5215(8) 1.0187(9) 1.0498(13)
H57I H 0.5376 1.0324 1.0811
C46I C 0.4734(8) 0.9989(8) 1.0486(10)
H58I H 0.4557 0.9969 1.0781
C47I C 0.5415(7) 1.0164(6) 1.0051(8)
H59I H 0.5716 1.0270 1.0099
O13 O 0.5214(7) 0.2333(6) -0.0372(8)
H60 H 0.5068(16) 0.2329(18) -0.0638(16)
H61 H 0.5341(15) 0.2529(12) -0.0143(16)
loop_
_geom_bond_atom_site_label_1
_geom_bond_atom_site_label_2
_geom_bond_site_symmetry_1
_geom_bond_site_symmetry_2
O1 H1 1_555 1_555
O2 H2 1_555 1_555
O3 H3 1_555 1_555
O4 H4 1_555 1_555
O5 H5 1_555 1_555
O6 H6 1_555 1_555
O7 H7 1_555 1_555
O8 H8 1_555 1_555
O9 H9 1_555 1_555
O10 H10 1_555 1_555
O11 H11 1_555 1_555
O12 H12 1_555 1_555
C1 O1 1_555 1_555
C2 O2 1_555 1_555
C3 O3 1_555 1_555
C4 C3 1_555 1_555
C5 C4 1_555 1_555
H13 C5 1_555 1_555
C6 C1 1_555 1_555
C7 O4 1_555 1_555
C8 O5 1_555 1_555
C9 O6 1_555 1_555
C10 C9 1_555 1_555
C11 C10 1_555 1_555
H14 C11 1_555 1_555
C12 C7 1_555 1_555
C13 O7 1_555 1_555
C14 O8 1_555 1_555
C15 O9 1_555 1_555
C16 C15 1_555 1_555
C17 C16 1_555 1_555
H15 C17 1_555 1_555
C18 C13 1_555 1_555
C19 O10 1_555 1_555
C20 O11 1_555 1_555
C21 O12 1_555 1_555
C22 C21 1_555 1_555
C23 C22 1_555 1_555
H16 C23 1_555 1_555
C24 C19 1_555 1_555
C25 C4 1_555 1_555
H17 C25 1_555 1_555
C26 C25 1_555 1_555
H18 C26 1_555 1_555
H19 C26 1_555 1_555
C27 C26 1_555 1_555
H20 C27 1_555 1_555
C28 C27 1_555 1_555
H21 C28 1_555 1_555
H22 C28 1_555 1_555
H23 C28 1_555 1_555
C29 C27 1_555 1_555
H24 C29 1_555 1_555
H25 C29 1_555 1_555
H26 C29 1_555 1_555
C30 C10 1_555 1_555
H27 C30 1_555 1_555
C31 C30 1_555 1_555
H28 C31 1_555 1_555
H29 C31 1_555 1_555
C32 C31 1_555 1_555
H30 C32 1_555 1_555
C33 C32 1_555 1_555
H31 C33 1_555 1_555
H32 C33 1_555 1_555
H33 C33 1_555 1_555
C34 C32 1_555 1_555
H34 C34 1_555 1_555
H35 C34 1_555 1_555
H36 C34 1_555 1_555
C35 C16 1_555 1_555
H37 C35 1_555 1_555
C36 C35 1_555 1_555
H38 C36 1_555 1_555
H39 C36 1_555 1_555
C37 C36 1_555 1_555
H40 C37 1_555 1_555
C38 C37 1_555 1_555
H41 C38 1_555 1_555
H42 C38 1_555 1_555
H43 C38 1_555 1_555
C39 C37 1_555 1_555
H44 C39 1_555 1_555
H45 C39 1_555 1_555
H46 C39 1_555 1_555
C40 C6 1_555 1_555
H47 C40 1_555 1_555
C41 C40 1_555 1_555
H48 C41 1_555 1_555
H49 C41 1_555 1_555
C42 C41 1_555 1_555
H50 C42 1_555 1_555
C43 C42 1_555 1_555
H51 C43 1_555 1_555
H52 C43 1_555 1_555
H53 C43 1_555 1_555
C44 C42 1_555 1_555
H54 C44 1_555 1_555
H55 C44 1_555 1_555
H56 C44 1_555 1_555
C45 H57 1_555 1_555
C46 C45 1_555 1_555
H58 C46 1_555 1_555
C47 C45 1_555 1_555
H59 C47 1_555 1_555
O13 H60 1_555 1_555
H61 O13 1_555 1_555
C45I H57I 1_555 1_555
C46I C47 1_555 1_555
H58I C46I 1_555 1_555
C47I C46 1_555 1_555
H59I C47I 1_555 1_555
C1 C2 1_555 1_555
C2 C3 1_555 1_555
C5 C6 1_555 1_555
C7 C8 1_555 1_555
C8 C9 1_555 1_555
C11 C12 1_555 1_555
C12 C25 1_555 1_555
C13 C14 1_555 1_555
C14 C15 1_555 1_555
C17 C18 1_555 1_555
C18 C30 1_555 1_555
C19 C20 1_555 1_555
C20 C21 1_555 1_555
C22 C40 1_555 1_555
C23 C24 1_555 1_555
C24 C35 1_555 1_555
C45I C46I 1_555 1_555
C45I C47I 1_555 1_555

#END
