
#######################################################################
#
#                 Cambridge Crystallographic Data Centre
#                                CCDC 
#
#######################################################################
#
# If this CIF has been generated from an entry in the Cambridge 
# Structural Database, then it will include bibliographic, chemical, 
# crystal, experimental, refinement or atomic coordinate data resulting 
# from the CCDC's data processing and validation procedures.
#
#######################################################################

data_SATXUJ
_chemical_formula_moiety         'C15 H12 N2 O1'
_chemical_name_systematic        2-(5-phenyl-1H-pyrazol-3-yl)phenol
_symmetry_cell_setting           orthorhombic
_symmetry_space_group_name_H-M   'P c a 21'
_symmetry_Int_Tables_number      29
_space_group_name_Hall           'P 2c -2ac'
loop_
_symmetry_equiv_pos_site_id
_symmetry_equiv_pos_as_xyz
1 x,y,z
2 -x,-y,1/2+z
3 1/2-x,y,1/2+z
4 1/2+x,-y,z
_cell_length_a                   18.2533(11)
_cell_length_b                   6.3201(3)
_cell_length_c                   20.6576(11)
_cell_angle_alpha                90
_cell_angle_beta                 90
_cell_angle_gamma                90
_cell_volume                     2383.12
_exptl_crystal_colour            colorless
_exptl_crystal_description       block
_cell_formula_units_Z            8
_exptl_crystal_recrystallization_method 'dichloromethane/ hexane'
_exptl_crystal_preparation       ', Luminescent'
loop_
_atom_site_label
_atom_site_type_symbol
_atom_site_fract_x
_atom_site_fract_y
_atom_site_fract_z
C1 C -0.47188(12) -0.0722(4) -0.28832(11)
N1 N -0.61282(12) 0.0036(3) -0.40281(10)
H1 H -0.6466 0.0796 -0.4202
C2 C -0.52556(13) -0.0918(3) -0.34055(11)
O1 O -0.51238(11) 0.2801(3) -0.25894(9)
H2 H -0.5389 0.2585 -0.2903
N2 N -0.57110(13) 0.0697(3) -0.35303(11)
C3 C -0.59621(13) -0.1936(4) -0.42261(12)
C4 C -0.46711(14) 0.1106(4) -0.25000(12)
C5 C -0.41548(14) 0.1256(5) -0.20107(13)
H3 H -0.4128 0.2477 -0.1761
C6 C -0.53966(13) -0.2590(4) -0.38341(11)
H4 H -0.5155 -0.3886 -0.3850
C7 C -0.37159(15) -0.2220(4) -0.22658(12)
H5 H -0.3395 -0.3335 -0.2187
C8 C -0.36831(15) -0.0391(5) -0.18937(14)
H6 H -0.3339 -0.0282 -0.1563
C9 C -0.42297(14) -0.2359(4) -0.27526(11)
H7 H -0.4251 -0.3583 -0.3002
C10 C -0.63546(13) -0.2952(4) -0.47608(11)
C11 C -0.69560(16) -0.2017(5) -0.50506(13)
H8 H -0.7125 -0.0720 -0.4899
C12 C -0.70666(17) -0.4853(6) -0.57964(16)
H9 H -0.7297 -0.5477 -0.6149
C13 C -0.73104(18) -0.2988(6) -0.55638(13)
H10 H -0.7719 -0.2349 -0.5749
C14 C -0.61281(17) -0.4888(5) -0.49970(17)
H11 H -0.5732 -0.5568 -0.4805
C15 C -0.64778(19) -0.5826(6) -0.55108(17)
H12 H -0.6315 -0.7125 -0.5666
N3 N -0.12619(12) -0.5797(3) -0.23035(9)
H13 H -0.0908 -0.5110 -0.2126
O2 O -0.22676(11) -0.2746(3) -0.36965(9)
H14 H -0.1956 -0.3114 -0.3434
N4 N -0.16802(11) -0.5021(3) -0.27901(10)
C16 C -0.27060(13) -0.6237(3) -0.34432(11)
C17 C -0.21619(13) -0.6542(4) -0.29269(11)
C18 C -0.37188(16) -0.7578(4) -0.40751(12)
H15 H -0.4046 -0.8662 -0.4169
C19 C -0.32112(14) -0.7832(4) -0.35918(11)
H16 H -0.3202 -0.9089 -0.3358
C20 C -0.37435(15) -0.5721(4) -0.44194(13)
H17 H -0.4090 -0.5549 -0.4745
C21 C -0.11162(12) -0.8940(4) -0.15972(11)
C22 C -0.20397(13) -0.8298(4) -0.25220(11)
H18 H -0.2299 -0.9565 -0.2522
C23 C -0.14635(13) -0.7772(3) -0.21283(11)
C24 C -0.27418(13) -0.4374(4) -0.38029(12)
C25 C -0.32609(15) -0.4123(4) -0.42851(13)
H19 H -0.3282 -0.2866 -0.4518
C26 C -0.05398(16) -1.1191(5) -0.05563(13)
H20 H -0.0353 -1.1932 -0.0204
C27 C -0.13707(14) -1.0947(4) -0.14426(13)
H21 H -0.1741 -1.1552 -0.1690
C28 C -0.05559(14) -0.8101(4) -0.12191(12)
H22 H -0.0371 -0.6766 -0.1314
C29 C -0.02729(16) -0.9229(5) -0.07059(13)
H23 H 0.0103 -0.8651 -0.0459
C30 C -0.10831(17) -1.2058(4) -0.09274(14)
H24 H -0.1259 -1.3403 -0.0832
loop_
_geom_bond_atom_site_label_1
_geom_bond_atom_site_label_2
_geom_bond_site_symmetry_1
_geom_bond_site_symmetry_2
C1 C2 1_555 1_555
N1 H1 1_555 1_555
C2 N2 1_555 1_555
O1 H2 1_555 1_555
N2 N1 1_555 1_555
C3 N1 1_555 1_555
C4 C1 1_555 1_555
C5 C4 1_555 1_555
H3 C5 1_555 1_555
C6 C2 1_555 1_555
H4 C6 1_555 1_555
C7 H5 1_555 1_555
C8 C5 1_555 1_555
H6 C8 1_555 1_555
C9 C1 1_555 1_555
H7 C9 1_555 1_555
C10 C3 1_555 1_555
C11 C10 1_555 1_555
H8 C11 1_555 1_555
C12 H9 1_555 1_555
C13 C11 1_555 1_555
H10 C13 1_555 1_555
C14 C10 1_555 1_555
H11 C14 1_555 1_555
C15 C12 1_555 1_555
H12 C15 1_555 1_555
N3 H13 1_555 1_555
O2 H14 1_555 1_555
N4 N3 1_555 1_555
C16 C17 1_555 1_555
C17 N4 1_555 1_555
C18 H15 1_555 1_555
C19 C16 1_555 1_555
H16 C19 1_555 1_555
C20 C18 1_555 1_555
H17 C20 1_555 1_555
C21 C23 1_555 1_555
C22 C17 1_555 1_555
H18 C22 1_555 1_555
C23 N3 1_555 1_555
C24 O2 1_555 1_555
C25 C20 1_555 1_555
H19 C25 1_555 1_555
C26 H20 1_555 1_555
C27 C21 1_555 1_555
H21 C27 1_555 1_555
C28 C21 1_555 1_555
H22 C28 1_555 1_555
C29 C26 1_555 1_555
H23 C29 1_555 1_555
C30 C26 1_555 1_555
H24 C30 1_555 1_555
O1 C4 1_555 1_555
C3 C6 1_555 1_555
C7 C8 1_555 1_555
C7 C9 1_555 1_555
C12 C13 1_555 1_555
C14 C15 1_555 1_555
C16 C24 1_555 1_555
C18 C19 1_555 1_555
C22 C23 1_555 1_555
C24 C25 1_555 1_555
C27 C30 1_555 1_555
C28 C29 1_555 1_555

#END
