
#######################################################################
#
#                 Cambridge Crystallographic Data Centre
#                                CCDC 
#
#######################################################################
#
# If this CIF has been generated from an entry in the Cambridge 
# Structural Database, then it will include bibliographic, chemical, 
# crystal, experimental, refinement or atomic coordinate data resulting 
# from the CCDC's data processing and validation procedures.
#
#######################################################################

data_SATYIY
_chemical_formula_moiety         'C18 H19 N3 O1'
_chemical_name_systematic        
2-(5-(4-(dimethylamino)phenyl)-1H-pyrazol-3-yl)-5-methylphenol
_symmetry_cell_setting           monoclinic
_symmetry_space_group_name_H-M   'P 21/c'
_symmetry_Int_Tables_number      14
_space_group_name_Hall           '-P 2ybc'
loop_
_symmetry_equiv_pos_site_id
_symmetry_equiv_pos_as_xyz
1 x,y,z
2 -x,1/2+y,1/2-z
3 -x,-y,-z
4 x,1/2-y,1/2+z
_cell_length_a                   8.2675(10)
_cell_length_b                   9.2336(11)
_cell_length_c                   20.109(3)
_cell_angle_alpha                90
_cell_angle_beta                 99.166(2)
_cell_angle_gamma                90
_cell_volume                     1515.49
_exptl_crystal_colour            colorless
_exptl_crystal_description       slab-like
_cell_formula_units_Z            4
loop_
_atom_site_label
_atom_site_type_symbol
_atom_site_fract_x
_atom_site_fract_y
_atom_site_fract_z
O1 O 1.15680(18) 0.41961(16) 0.40050(8)
H1 H 1.040(4) 0.422(3) 0.3820(14)
N1 N 0.8740(2) 0.5052(2) 0.33553(9)
N2 N 0.7202(2) 0.5088(2) 0.29990(9)
H2 H 0.653(3) 0.437(3) 0.3056(12)
N3 N 0.0999(2) 0.6797(2) 0.07468(9)
C1 C 1.2156(2) 0.5521(2) 0.38543(10)
C2 C 1.3768(2) 0.5832(2) 0.41242(10)
H3 H 1.439(2) 0.508(2) 0.4408(10)
C3 C 1.4468(3) 0.7154(2) 0.40166(11)
C4 C 1.3514(3) 0.8165(3) 0.36182(11)
H4 H 1.398(2) 0.908(2) 0.3526(10)
C5 C 1.1926(3) 0.7848(2) 0.33341(11)
H5 H 1.127(2) 0.855(2) 0.3061(11)
C6 C 1.1194(2) 0.6530(2) 0.34429(10)
C7 C 0.9486(2) 0.6216(2) 0.31467(10)
C8 C 0.8408(2) 0.6978(2) 0.26566(10)
H6 H 0.864(2) 0.786(2) 0.2426(10)
C9 C 0.6946(2) 0.6230(2) 0.25713(10)
C10 C 0.5390(2) 0.6438(2) 0.21223(10)
C11 C 0.5321(3) 0.7217(2) 0.15252(11)
H7 H 0.632(2) 0.761(2) 0.1398(10)
C12 C 0.3888(2) 0.7341(2) 0.10720(11)
H8 H 0.392(2) 0.785(2) 0.0660(11)
C13 C 0.2426(2) 0.6682(2) 0.11952(10)
C14 C 0.2501(3) 0.5916(2) 0.18035(10)
H9 H 0.151(3) 0.544(2) 0.1937(10)
C15 C 0.3939(2) 0.5803(2) 0.22487(11)
H10 H 0.393(3) 0.528(2) 0.2668(11)
C16 C 1.6214(3) 0.7491(3) 0.43238(13)
H11 H 1.6749 0.6619 0.4501
H12 H 1.6219 0.8182 0.4681
H13 H 1.6783 0.7887 0.3985
C17 C 0.0963(3) 0.7620(3) 0.01301(12)
H14 H 0.131(3) 0.863(3) 0.0251(11)
H15 H -0.023(3) 0.764(2) -0.0104(11)
H16 H 0.168(3) 0.718(2) -0.0163(12)
C18 C -0.0407(3) 0.5920(3) 0.08354(13)
H17 H -0.086(3) 0.617(3) 0.1267(13)
H18 H -0.130(3) 0.606(2) 0.0450(12)
H19 H -0.011(3) 0.487(3) 0.0851(13)
loop_
_geom_bond_atom_site_label_1
_geom_bond_atom_site_label_2
_geom_bond_site_symmetry_1
_geom_bond_site_symmetry_2
O1 H1 1_555 1_555
N1 N2 1_555 1_555
N2 H2 1_555 1_555
N3 C13 1_555 1_555
C1 O1 1_555 1_555
C2 C1 1_555 1_555
H3 C2 1_555 1_555
C3 C2 1_555 1_555
C4 C3 1_555 1_555
H4 C4 1_555 1_555
C5 C4 1_555 1_555
H5 C5 1_555 1_555
C6 C1 1_555 1_555
C7 N1 1_555 1_555
C8 C7 1_555 1_555
H6 C8 1_555 1_555
C9 N2 1_555 1_555
C10 C9 1_555 1_555
C11 C10 1_555 1_555
H7 C11 1_555 1_555
C12 C11 1_555 1_555
H8 C12 1_555 1_555
C13 C12 1_555 1_555
C14 C13 1_555 1_555
H9 C14 1_555 1_555
C15 C10 1_555 1_555
H10 C15 1_555 1_555
C16 C3 1_555 1_555
H11 C16 1_555 1_555
H12 C16 1_555 1_555
H13 C16 1_555 1_555
C17 N3 1_555 1_555
H14 C17 1_555 1_555
H15 C17 1_555 1_555
H16 C17 1_555 1_555
C18 N3 1_555 1_555
H17 C18 1_555 1_555
H18 C18 1_555 1_555
H19 C18 1_555 1_555
C5 C6 1_555 1_555
C6 C7 1_555 1_555
C8 C9 1_555 1_555
C14 C15 1_555 1_555

#END
