
#######################################################################
#
#                 Cambridge Crystallographic Data Centre
#                                CCDC 
#
#######################################################################
#
# If this CIF has been generated from an entry in the Cambridge 
# Structural Database, then it will include bibliographic, chemical, 
# crystal, experimental, refinement or atomic coordinate data resulting 
# from the CCDC's data processing and validation procedures.
#
#######################################################################

data_SAVPIQ
_chemical_formula_moiety         'C25 H28 N2 O5'
_chemical_name_systematic        
'Methyl 1-cyano-8,9-dimethoxy-2-(4-methoxyphenyl)-3-methyl-1,2,3,5,6,10b-hexahydropyrrolo[2,1-a]isoquinoline-3-carboxylate'
_symmetry_cell_setting           monoclinic
_symmetry_space_group_name_H-M   'P 21'
_symmetry_Int_Tables_number      4
_space_group_name_Hall           'P 2yb'
loop_
_symmetry_equiv_pos_site_id
_symmetry_equiv_pos_as_xyz
1 x,y,z
2 -x,1/2+y,-z
_cell_length_a                   9.3947(6)
_cell_length_b                   6.9115(5)
_cell_length_c                   17.1186(10)
_cell_angle_alpha                90
_cell_angle_beta                 98.267(3)
_cell_angle_gamma                90
_cell_volume                     1099.99
_exptl_crystal_colour            'light colorless'
_exptl_crystal_description       block
_cell_formula_units_Z            2
loop_
_atom_site_label
_atom_site_type_symbol
_atom_site_fract_x
_atom_site_fract_y
_atom_site_fract_z
C1 C -0.4920(2) -0.1249(4) -0.70857(13)
O1 O -0.58966(16) -0.0919(3) -0.32134(8)
C2 C -0.5197(2) -0.0791(3) -0.44737(12)
O2 O -0.38347(15) -0.0818(2) -0.40566(8)
C3 C -0.6944(2) -0.0719(3) -0.56589(12)
C4 C -0.5516(2) -0.0705(3) -0.52810(12)
H1 H -0.4771 -0.0636 -0.5583
C5 C -0.6321(2) -0.0862(4) -0.40121(12)
C6 C -0.8057(2) -0.0784(4) -0.52084(13)
C7 C -0.8914(2) -0.1515(3) -0.76747(13)
C8 C -0.7727(2) -0.0850(4) -0.43794(12)
H2 H -0.8470 -0.0886 -0.4075
N1 N -0.87152(19) -0.1306(3) -0.68153(10)
O3 O -0.96686(18) -0.4837(2) -0.74720(10)
O4 O -0.63289(19) -0.7410(3) -1.01183(10)
C9 C -0.9619(2) -0.0856(4) -0.55853(13)
H3 H -1.0174 0.0024 -0.5307
H4 H -0.9988 -0.2152 -0.5530
O5 O -1.03279(18) -0.3387(3) -0.86461(10)
C10 C -0.7268(2) -0.0571(4) -0.65447(12)
H5 H -0.7206 0.0784 -0.6704
C11 C -0.2660(2) -0.0716(4) -0.45054(13)
H6 H -0.1769 -0.0661 -0.4152
H7 H -0.2757 0.0424 -0.4829
H8 H -0.2667 -0.1841 -0.4835
N2 N -0.3769(2) -0.0824(4) -0.71494(11)
C12 C -0.7327(2) -0.1698(4) -0.78652(13)
H9 H -0.7092 -0.0454 -0.8090
C13 C -0.6607(2) -0.5964(4) -0.96095(13)
C14 C -0.6430(3) -0.6475(4) -0.88133(14)
H10 H -0.6151 -0.7727 -0.8662
C15 C -0.9686(3) -0.3439(4) -0.78905(14)
C16 C -0.7057(2) -0.3235(3) -0.84577(13)
C17 C -0.6666(2) -0.5129(4) -0.82453(14)
H11 H -0.6562 -0.5494 -0.7717
C18 C -0.9819(2) -0.0315(4) -0.64532(13)
H12 H -1.0766 -0.0704 -0.6706
H13 H -0.9729 0.1074 -0.6512
C19 C -0.6997(3) -0.4106(4) -0.98300(15)
H14 H -0.7118 -0.3754 -1.0360
C20 C -0.6405(2) -0.1840(3) -0.70441(12)
H15 H -0.6411 -0.3179 -0.6857
C21 C -0.6311(3) -0.6855(5) -1.09248(14)
H16 H -0.5620 -0.5840 -1.0946
H17 H -0.7248 -0.6403 -1.1148
H18 H -0.6054 -0.7951 -1.1220
C22 C -0.7010(3) -0.0945(4) -0.27298(13)
H19 H -0.6591 -0.1008 -0.2185
H20 H -0.7611 -0.2056 -0.2859
H21 H -0.7577 0.0210 -0.2820
C23 C -0.7212(3) -0.2748(4) -0.92539(14)
H22 H -0.7464 -0.1488 -0.9406
C24 C -0.9659(3) 0.0200(4) -0.81233(15)
H23 H -0.9195 0.1379 -0.7930
H24 H -1.0651 0.0235 -0.8045
H25 H -0.9601 0.0066 -0.8676
C25 C -1.0846(3) -0.5216(4) -0.89807(16)
H26 H -1.1363 -0.5879 -0.8616
H27 H -1.0046 -0.5993 -0.9083
H28 H -1.1475 -0.4993 -0.9466
loop_
_geom_bond_atom_site_label_1
_geom_bond_atom_site_label_2
_geom_bond_site_symmetry_1
_geom_bond_site_symmetry_2
C1 N2 1_555 1_555
O1 C5 1_555 1_555
C2 O2 1_555 1_555
O2 C11 1_555 1_555
C3 C4 1_555 1_555
C4 C2 1_555 1_555
H1 C4 1_555 1_555
C5 C2 1_555 1_555
C6 C3 1_555 1_555
C7 N1 1_555 1_555
C8 C5 1_555 1_555
H2 C8 1_555 1_555
N1 C10 1_555 1_555
O3 C15 1_555 1_555
O4 C13 1_555 1_555
C9 C6 1_555 1_555
H3 C9 1_555 1_555
H4 C9 1_555 1_555
O5 C15 1_555 1_555
C10 C3 1_555 1_555
H5 C10 1_555 1_555
C11 H6 1_555 1_555
H7 C11 1_555 1_555
H8 C11 1_555 1_555
C12 C7 1_555 1_555
H9 C12 1_555 1_555
C13 C14 1_555 1_555
C14 H10 1_555 1_555
C15 C7 1_555 1_555
C16 C12 1_555 1_555
C17 C14 1_555 1_555
H11 C17 1_555 1_555
C18 N1 1_555 1_555
H12 C18 1_555 1_555
H13 C18 1_555 1_555
C19 C13 1_555 1_555
H14 C19 1_555 1_555
C20 C1 1_555 1_555
H15 C20 1_555 1_555
C21 O4 1_555 1_555
H16 C21 1_555 1_555
H17 C21 1_555 1_555
H18 C21 1_555 1_555
C22 O1 1_555 1_555
H19 C22 1_555 1_555
H20 C22 1_555 1_555
H21 C22 1_555 1_555
C23 C16 1_555 1_555
H22 C23 1_555 1_555
C24 C7 1_555 1_555
H23 C24 1_555 1_555
H24 C24 1_555 1_555
H25 C24 1_555 1_555
C25 O5 1_555 1_555
H26 C25 1_555 1_555
H27 C25 1_555 1_555
H28 C25 1_555 1_555
C6 C8 1_555 1_555
C9 C18 1_555 1_555
C10 C20 1_555 1_555
C12 C20 1_555 1_555
C16 C17 1_555 1_555
C19 C23 1_555 1_555

#END
