
#######################################################################
#
#                 Cambridge Crystallographic Data Centre
#                                CCDC 
#
#######################################################################
#
# If this CIF has been generated from an entry in the Cambridge 
# Structural Database, then it will include bibliographic, chemical, 
# crystal, experimental, refinement or atomic coordinate data resulting 
# from the CCDC's data processing and validation procedures.
#
#######################################################################

data_SAVZIA
_chemical_formula_moiety         'C22 H26 Br2 O2'
_chemical_name_systematic        
2,7-bis(3-bromopropyl)-1,8-dimethoxy-9,10-dihydroanthracene
_symmetry_cell_setting           monoclinic
_symmetry_space_group_name_H-M   'P 21/c'
_symmetry_Int_Tables_number      14
_space_group_name_Hall           '-P 2ybc'
loop_
_symmetry_equiv_pos_site_id
_symmetry_equiv_pos_as_xyz
1 x,y,z
2 -x,1/2+y,1/2-z
3 -x,-y,-z
4 x,1/2-y,1/2+z
_cell_length_a                   9.5538(15)
_cell_length_b                   7.3896(12)
_cell_length_c                   28.663(4)
_cell_angle_alpha                90
_cell_angle_beta                 92.130(3)
_cell_angle_gamma                90
_cell_volume                     2022.17
_exptl_crystal_colour            colorless
_exptl_crystal_description       block
_cell_formula_units_Z            4
loop_
_atom_site_label
_atom_site_type_symbol
_atom_site_fract_x
_atom_site_fract_y
_atom_site_fract_z
Br1 Br 0.33289(8) -0.15396(11) 0.21627(2)
Br2 Br 0.18832(10) 0.10880(12) 0.81318(2)
C1 C 0.4333(7) -0.2096(9) 0.2741(2)
H1 H 0.4199 -0.3364 0.2815
H2 H 0.5326 -0.1900 0.2703
C2 C 0.3856(7) -0.0957(8) 0.3141(2)
H3 H 0.2862 -0.1151 0.3179
H4 H 0.3992 0.0310 0.3068
C3 C 0.4644(7) -0.1399(8) 0.3598(2)
H5 H 0.4452 -0.2641 0.3684
H6 H 0.5642 -0.1288 0.3555
C4 C 0.4230(6) -0.0163(8) 0.39841(19)
C5 C 0.4562(7) 0.1702(8) 0.3958(2)
H7 H 0.5009 0.2141 0.3698
C6 C 0.4235(6) 0.2868(8) 0.4309(2)
H8 H 0.4429 0.4094 0.4277
C7 C 0.3618(6) 0.2263(7) 0.47129(19)
C8 C 0.3358(7) 0.3475(7) 0.5091(2)
H9 H 0.2840 0.4501 0.4962
H10 H 0.4256 0.3930 0.5208
C9 C 0.2614(5) 0.2815(7) 0.54838(19)
C10 C 0.2231(6) 0.3995(7) 0.58447(19)
H11 H 0.2433 0.5222 0.5823
C11 C 0.1574(6) 0.3366(8) 0.6221(2)
H12 H 0.1328 0.4174 0.6453
C12 C 0.1249(6) 0.1511(7) 0.6271(2)
C13 C 0.0567(7) 0.0863(9) 0.6705(2)
H13 H -0.0319 0.1484 0.6736
H14 H 0.0375 -0.0423 0.6677
C14 C 0.1476(7) 0.1194(8) 0.7136(2)
H15 H 0.1638 0.2483 0.7171
H16 H 0.2376 0.0612 0.7101
C15 C 0.0812(7) 0.0474(9) 0.7570(2)
H17 H 0.0732 -0.0832 0.7547
H18 H -0.0125 0.0968 0.7588
C16 C 0.1596(5) 0.0374(7) 0.59241(18)
C17 C 0.2290(6) 0.0968(7) 0.55201(18)
C18 C 0.2677(5) -0.0287(7) 0.51642(18)
H19 H 0.3329 -0.1148 0.5307
H20 H 0.1843 -0.0957 0.5068
C19 C 0.3289(5) 0.0395(7) 0.47536(18)
C20 C 0.3606(5) -0.0763(7) 0.43780(18)
C21 C 0.1919(7) -0.3047(8) 0.4251(3)
H21 H 0.1259 -0.2188 0.4364
H22 H 0.1681 -0.4237 0.4356
H23 H 0.1892 -0.3024 0.3916
C22 C -0.0039(6) -0.1951(8) 0.5769(3)
H24 H -0.0746 -0.1324 0.5935
H25 H -0.0172 -0.3233 0.5799
H26 H -0.0109 -0.1622 0.5445
O1 O 0.3302(4) -0.2588(4) 0.44249(13)
O2 O 0.1302(4) -0.1472(5) 0.59563(14)
loop_
_geom_bond_atom_site_label_1
_geom_bond_atom_site_label_2
_geom_bond_site_symmetry_1
_geom_bond_site_symmetry_2
Br1 C1 1_555 1_555
Br2 C15 1_555 1_555
C1 H1 1_555 1_555
H2 C1 1_555 1_555
C2 C1 1_555 1_555
H3 C2 1_555 1_555
H4 C2 1_555 1_555
C3 C2 1_555 1_555
H5 C3 1_555 1_555
H6 C3 1_555 1_555
C4 C3 1_555 1_555
C5 C4 1_555 1_555
H7 C5 1_555 1_555
C6 C5 1_555 1_555
H8 C6 1_555 1_555
C7 C6 1_555 1_555
C8 C7 1_555 1_555
H9 C8 1_555 1_555
H10 C8 1_555 1_555
C9 C8 1_555 1_555
C10 C9 1_555 1_555
H11 C10 1_555 1_555
C11 C10 1_555 1_555
H12 C11 1_555 1_555
C12 C11 1_555 1_555
C13 C12 1_555 1_555
H13 C13 1_555 1_555
H14 C13 1_555 1_555
C14 C13 1_555 1_555
H15 C14 1_555 1_555
H16 C14 1_555 1_555
C15 C14 1_555 1_555
H17 C15 1_555 1_555
H18 C15 1_555 1_555
C16 C12 1_555 1_555
C17 C9 1_555 1_555
C18 C17 1_555 1_555
H19 C18 1_555 1_555
H20 C18 1_555 1_555
C19 C7 1_555 1_555
C20 C4 1_555 1_555
C21 H21 1_555 1_555
H22 C21 1_555 1_555
H23 C21 1_555 1_555
C22 H24 1_555 1_555
H25 C22 1_555 1_555
H26 C22 1_555 1_555
O1 C20 1_555 1_555
O2 C16 1_555 1_555
C16 C17 1_555 1_555
C18 C19 1_555 1_555
C19 C20 1_555 1_555
C21 O1 1_555 1_555
C22 O2 1_555 1_555

#END
