
#######################################################################
#
#                 Cambridge Crystallographic Data Centre
#                                CCDC 
#
#######################################################################
#
# If this CIF has been generated from an entry in the Cambridge 
# Structural Database, then it will include bibliographic, chemical, 
# crystal, experimental, refinement or atomic coordinate data resulting 
# from the CCDC's data processing and validation procedures.
#
#######################################################################

data_SAWJOR
_chemical_formula_moiety         'C23 H21 N1 O2 S1'
_chemical_name_systematic        
1-Methyl-16-((4-methylphenyl)sulfonyl)-16-azatetracyclo[7.6.1.0^2,7^.0^10,15^]hexadeca-2,4,6,10,12,14-hexaene
_symmetry_cell_setting           monoclinic
_symmetry_space_group_name_H-M   'P 21/n'
_symmetry_Int_Tables_number      14
_space_group_name_Hall           '-P 2yn'
loop_
_symmetry_equiv_pos_site_id
_symmetry_equiv_pos_as_xyz
1 x,y,z
2 1/2-x,1/2+y,1/2-z
3 -x,-y,-z
4 1/2+x,1/2-y,1/2+z
_cell_length_a                   9.6183(4)
_cell_length_b                   11.5389(5)
_cell_length_c                   16.8837(8)
_cell_angle_alpha                90
_cell_angle_beta                 93.9980(10)
_cell_angle_gamma                90
_cell_volume                     1869.27
_exptl_crystal_colour            colorless
_cell_formula_units_Z            4
loop_
_atom_site_label
_atom_site_type_symbol
_atom_site_fract_x
_atom_site_fract_y
_atom_site_fract_z
S1 S 0.34165(6) 0.26437(5) 0.18540(4)
O1 O 0.24056(18) 0.30993(17) 0.12732(10)
O2 O 0.3804(2) 0.14535(15) 0.18266(12)
N1 N 0.48203(17) 0.33953(14) 0.17473(11)
C1 C 0.6068(3) 0.5297(3) 0.43328(18)
H1 H 0.6049 0.5748 0.4789
C2 C 0.6834(3) 0.4319(4) 0.43464(17)
H2 H 0.7326 0.4091 0.4814
C3 C 0.6895(3) 0.3657(3) 0.36771(15)
H3 H 0.7443 0.2992 0.3693
C4 C 0.6150(2) 0.39627(18) 0.29755(13)
C5 C 0.6209(2) 0.32688(17) 0.22036(13)
C6 C 0.2760(2) 0.28647(17) 0.27939(13)
C7 C 0.3225(2) 0.2195(2) 0.34387(15)
H4 H 0.3951 0.1671 0.3395
C8 C 0.2606(3) 0.2309(2) 0.41464(16)
H5 H 0.2926 0.1860 0.4578
C9 C 0.1522(2) 0.3075(2) 0.42304(14)
C10 C 0.0816(3) 0.3166(3) 0.50004(17)
H6 H 0.0999 0.2478 0.5310
H7 H -0.0171 0.3251 0.4887
H8 H 0.1172 0.3828 0.5293
C11 C 0.5317(3) 0.5632(2) 0.36515(19)
H9 H 0.4782 0.6304 0.3650
C12 C 0.5350(2) 0.49643(18) 0.29505(14)
C13 C 0.7086(2) 0.39704(18) 0.16517(12)
C14 C 0.8485(2) 0.3896(2) 0.15397(14)
H10 H 0.9052 0.3354 0.1812
C15 C 0.9028(3) 0.4671(3) 0.09984(16)
H11 H 0.9968 0.4640 0.0904
C16 C 0.8172(3) 0.5477(2) 0.06055(15)
H12 H 0.8548 0.5993 0.0255
C17 C 0.6778(3) 0.5530(2) 0.07238(15)
H13 H 0.6203 0.6066 0.0450
C18 C 0.6252(2) 0.47785(19) 0.12526(13)
C19 C 0.4753(2) 0.46331(19) 0.15161(15)
H14 H 0.4048 0.4775 0.1080
C20 C 0.1701(2) 0.36586(19) 0.28749(14)
H15 H 0.1400 0.4126 0.2448
C21 C 0.1094(2) 0.3757(2) 0.35868(15)
H16 H 0.0382 0.4292 0.3635
C22 C 0.4521(2) 0.5360(2) 0.22248(15)
H17 H 0.4767 0.6156 0.2114
H18 H 0.3539 0.5343 0.2322
C23 C 0.6696(3) 0.2023(2) 0.23124(16)
H19 H 0.6138 0.1640 0.2683
H20 H 0.7655 0.2014 0.2512
H21 H 0.6601 0.1628 0.1811
loop_
_geom_bond_atom_site_label_1
_geom_bond_atom_site_label_2
_geom_bond_site_symmetry_1
_geom_bond_site_symmetry_2
S1 O1 1_555 1_555
O2 S1 1_555 1_555
N1 S1 1_555 1_555
C1 H1 1_555 1_555
C2 C1 1_555 1_555
H2 C2 1_555 1_555
C3 C2 1_555 1_555
H3 C3 1_555 1_555
C4 C3 1_555 1_555
C5 N1 1_555 1_555
C6 S1 1_555 1_555
C7 C6 1_555 1_555
H4 C7 1_555 1_555
C8 C7 1_555 1_555
H5 C8 1_555 1_555
C9 C8 1_555 1_555
C10 C9 1_555 1_555
H6 C10 1_555 1_555
H7 C10 1_555 1_555
H8 C10 1_555 1_555
C11 C1 1_555 1_555
H9 C11 1_555 1_555
C12 C4 1_555 1_555
C13 C5 1_555 1_555
C14 C13 1_555 1_555
H10 C14 1_555 1_555
C15 C14 1_555 1_555
H11 C15 1_555 1_555
C16 C15 1_555 1_555
H12 C16 1_555 1_555
C17 C16 1_555 1_555
H13 C17 1_555 1_555
C18 C13 1_555 1_555
C19 N1 1_555 1_555
H14 C19 1_555 1_555
C20 C6 1_555 1_555
H15 C20 1_555 1_555
C21 C9 1_555 1_555
H16 C21 1_555 1_555
C22 C12 1_555 1_555
H17 C22 1_555 1_555
H18 C22 1_555 1_555
C23 C5 1_555 1_555
H19 C23 1_555 1_555
H20 C23 1_555 1_555
H21 C23 1_555 1_555
C4 C5 1_555 1_555
C11 C12 1_555 1_555
C17 C18 1_555 1_555
C18 C19 1_555 1_555
C19 C22 1_555 1_555
C20 C21 1_555 1_555

#END
