
#######################################################################
#
#                 Cambridge Crystallographic Data Centre
#                                CCDC 
#
#######################################################################
#
# If this CIF has been generated from an entry in the Cambridge 
# Structural Database, then it will include bibliographic, chemical, 
# crystal, experimental, refinement or atomic coordinate data resulting 
# from the CCDC's data processing and validation procedures.
#
#######################################################################

data_SAWJAD
_chemical_formula_moiety         'C22 H17 N1 O3 S1'
_chemical_name_systematic        
1-((4-Methylphenyl)sulfonyl)-1a,10b-dihydrodibenzo[3,4:6,7]cyclohepta[1,2-b]aziren-6(1H)-one
_symmetry_cell_setting           orthorhombic
_symmetry_space_group_name_H-M   'P 21 21 21'
_symmetry_Int_Tables_number      19
_space_group_name_Hall           'P 2ac 2ab'
loop_
_symmetry_equiv_pos_site_id
_symmetry_equiv_pos_as_xyz
1 x,y,z
2 1/2+x,1/2-y,-z
3 -x,1/2+y,1/2-z
4 1/2-x,-y,1/2+z
_cell_length_a                   7.793(2)
_cell_length_b                   12.120(3)
_cell_length_c                   19.369(6)
_cell_angle_alpha                90
_cell_angle_beta                 90
_cell_angle_gamma                90
_cell_volume                     1829.42
_exptl_crystal_colour            colorless
_cell_formula_units_Z            4
loop_
_atom_site_label
_atom_site_type_symbol
_atom_site_fract_x
_atom_site_fract_y
_atom_site_fract_z
S1 S 0.14268(14) 0.87662(9) 0.87705(5)
O1 O 0.1040(4) 0.6745(3) 0.65371(15)
O2 O 0.3149(4) 0.9158(2) 0.86793(15)
O3 O 0.0275(4) 0.9385(3) 0.91896(15)
N1 N 0.0652(4) 0.8604(3) 0.79730(16)
C1 C 0.1895(6) 0.5322(4) 0.9636(2)
C2 C 0.2691(6) 0.5600(4) 0.9021(2)
H1 H 0.3363 0.5066 0.8785
C3 C 0.2520(6) 0.6642(4) 0.8746(2)
H2 H 0.3093 0.6831 0.8330
C4 C 0.1508(5) 0.7411(4) 0.9081(2)
C5 C -0.1098(5) 0.9037(3) 0.7815(2)
H3 H -0.1704 0.9387 0.8214
C6 C -0.2191(6) 0.8332(3) 0.7368(2)
C7 C -0.1507(6) 0.7648(3) 0.68582(19)
C8 C 0.0338(6) 0.7611(3) 0.6651(2)
C9 C 0.2857(7) 0.9621(5) 0.5587(2)
H4 H 0.3431 0.9625 0.5154
C10 C 0.2794(7) 1.0572(4) 0.5991(3)
H5 H 0.3312 1.1233 0.5829
C11 C 0.1990(6) 1.0561(4) 0.6620(2)
H6 H 0.1987 1.1211 0.6895
C12 C 0.1178(5) 0.9618(3) 0.6866(2)
C13 C 0.0463(6) 0.9634(4) 0.7573(2)
H7 H 0.0731 1.0319 0.7839
C14 C -0.2605(6) 0.6948(4) 0.6494(2)
H8 H -0.2153 0.6471 0.6150
C15 C -0.4365(7) 0.6945(4) 0.6632(3)
H9 H -0.5106 0.6469 0.6381
C16 C -0.5018(6) 0.7629(4) 0.7130(2)
H10 H -0.6216 0.7634 0.7221
C17 C -0.3934(6) 0.8316(4) 0.7502(2)
H11 H -0.4393 0.8778 0.7853
C18 C 0.1200(5) 0.8673(3) 0.64611(19)
C19 C 0.2069(6) 0.8673(4) 0.5826(2)
H12 H 0.2116 0.8016 0.5558
C20 C 0.0868(6) 0.6107(5) 0.9963(2)
H13 H 0.0310 0.5924 1.0384
C21 C 0.0650(6) 0.7137(4) 0.9685(2)
H14 H -0.0079 0.7659 0.9904
C22 C 0.2165(8) 0.4162(5) 0.9936(3)
H15 H 0.2797 0.3709 0.9603
H16 H 0.1049 0.3822 1.0030
H17 H 0.2823 0.4215 1.0366
loop_
_geom_bond_atom_site_label_1
_geom_bond_atom_site_label_2
_geom_bond_site_symmetry_1
_geom_bond_site_symmetry_2
S1 O2 1_555 1_555
O1 C8 1_555 1_555
O3 S1 1_555 1_555
N1 S1 1_555 1_555
C1 C2 1_555 1_555
C2 H1 1_555 1_555
C3 C2 1_555 1_555
H2 C3 1_555 1_555
C4 S1 1_555 1_555
C5 N1 1_555 1_555
H3 C5 1_555 1_555
C6 C5 1_555 1_555
C7 C6 1_555 1_555
C8 C7 1_555 1_555
C9 H4 1_555 1_555
C10 C9 1_555 1_555
H5 C10 1_555 1_555
C11 C10 1_555 1_555
H6 C11 1_555 1_555
C12 C11 1_555 1_555
C13 N1 1_555 1_555
H7 C13 1_555 1_555
C14 C7 1_555 1_555
H8 C14 1_555 1_555
C15 C14 1_555 1_555
H9 C15 1_555 1_555
C16 C15 1_555 1_555
H10 C16 1_555 1_555
C17 C6 1_555 1_555
H11 C17 1_555 1_555
C18 C8 1_555 1_555
C19 C9 1_555 1_555
H12 C19 1_555 1_555
C20 C1 1_555 1_555
H13 C20 1_555 1_555
C21 C4 1_555 1_555
H14 C21 1_555 1_555
C22 C1 1_555 1_555
H15 C22 1_555 1_555
H16 C22 1_555 1_555
H17 C22 1_555 1_555
C3 C4 1_555 1_555
C5 C13 1_555 1_555
C12 C13 1_555 1_555
C12 C18 1_555 1_555
C16 C17 1_555 1_555
C18 C19 1_555 1_555
C20 C21 1_555 1_555

#END
