
#######################################################################
#
#                 Cambridge Crystallographic Data Centre
#                                CCDC 
#
#######################################################################
#
# If this CIF has been generated from an entry in the Cambridge 
# Structural Database, then it will include bibliographic, chemical, 
# crystal, experimental, refinement or atomic coordinate data resulting 
# from the CCDC's data processing and validation procedures.
#
#######################################################################

data_SAXDOM
_chemical_formula_moiety         'C32 H32 N2 O4'
_chemical_name_systematic        
'Methyl 2-((benzylamino)(oxo)acetyl)-1-phenyl-3-(2-phenylvinyl)hexahydro-1H-pyrrolizine-3-carboxylate'
_symmetry_cell_setting           monoclinic
_symmetry_space_group_name_H-M   'P 21/n'
_symmetry_Int_Tables_number      14
_space_group_name_Hall           '-P 2yn'
loop_
_symmetry_equiv_pos_site_id
_symmetry_equiv_pos_as_xyz
1 x,y,z
2 1/2-x,1/2+y,1/2-z
3 -x,-y,-z
4 1/2+x,1/2-y,1/2+z
_cell_length_a                   10.85570(10)
_cell_length_b                   8.51410(10)
_cell_length_c                   29.6167(4)
_cell_angle_alpha                90
_cell_angle_beta                 98.9710(10)
_cell_angle_gamma                90
_cell_volume                     2703.88
_exptl_crystal_colour            yellow
_exptl_crystal_description       block
_cell_formula_units_Z            4
loop_
_atom_site_label
_atom_site_type_symbol
_atom_site_fract_x
_atom_site_fract_y
_atom_site_fract_z
O1 O 0.10889(11) -0.19258(13) 0.38036(4)
O2 O -0.15815(12) 0.02935(14) 0.27930(4)
O3 O -0.08018(11) -0.15781(14) 0.39880(5)
N1 N 0.08987(10) 0.14610(14) 0.41852(4)
O4 O -0.10970(14) 0.39956(13) 0.32749(4)
N2 N -0.16932(14) 0.26707(17) 0.24474(4)
C1 C 0.03198(12) 0.07026(16) 0.37637(4)
C2 C -0.10981(12) 0.24693(17) 0.41306(4)
H1 H -0.0892 0.3570 0.4081
C3 C -0.10064(12) 0.15479(16) 0.36861(4)
H2 H -0.1657 0.0739 0.3646
C4 C -0.00447(12) 0.17611(17) 0.44707(4)
H3 H -0.0320 0.0767 0.4589
C5 C 0.11022(12) 0.08862(17) 0.33856(5)
H4 H 0.0923 0.0238 0.3131
C6 C -0.23364(13) 0.24229(19) 0.43080(5)
C7 C -0.10542(15) 0.22537(19) 0.16848(5)
C8 C -0.11753(13) 0.25837(17) 0.32670(5)
C9 C -0.20569(16) 0.2124(2) 0.19818(5)
H5 H -0.2776 0.2723 0.1842
H6 H -0.2310 0.1033 0.1990
C10 C 0.19863(14) 0.0885(2) 0.44925(5)
H7 H 0.2741 0.0979 0.4357
H8 H 0.1880 -0.0199 0.4580
C11 C 0.01014(12) -0.10569(17) 0.38552(4)
C12 C 0.06911(15) 0.2707(2) 0.48594(5)
H9 H 0.0349 0.2573 0.5141
H10 H 0.0695 0.3815 0.4784
C13 C 0.20207(15) 0.19060(19) 0.33942(5)
H11 H 0.2132 0.2617 0.3636
C14 C -0.15074(13) 0.17266(17) 0.28052(5)
C15 C 0.20013(17) 0.2006(3) 0.49008(6)
H12 H 0.2207 0.1438 0.5186
H13 H 0.2614 0.2829 0.4891
C16 C 0.1015(2) -0.3569(2) 0.39190(8)
H14 H 0.0988 -0.3672 0.4240
H15 H 0.1735 -0.4110 0.3846
H16 H 0.0275 -0.4019 0.3748
C17 C 0.27468(19) 0.1178(3) 0.26561(7)
H17 H 0.2048 0.0544 0.2579
C18 C -0.25252(19) 0.3474(3) 0.46427(7)
H18 H -0.1932 0.4251 0.4728
C19 C 0.28897(15) 0.2031(2) 0.30587(6)
C20 C 0.3630(2) 0.1256(3) 0.23670(8)
H19 H 0.3524 0.0662 0.2100
C21 C 0.4653(2) 0.2193(3) 0.24682(9)
H20 H 0.5239 0.2244 0.2271
C22 C -0.3574(2) 0.3412(3) 0.48578(8)
H21 H -0.3664 0.4124 0.5088
C23 C -0.1285(2) 0.1598(3) 0.12550(7)
H22 H -0.2038 0.1087 0.1160
C24 C 0.3933(2) 0.2981(3) 0.31552(8)
H23 H 0.4049 0.3579 0.3421
C25 C 0.0071(2) 0.2951(3) 0.18183(8)
H24 H 0.0256 0.3367 0.2111
C26 C 0.0947(2) 0.3053(4) 0.15242(10)
H25 H 0.1711 0.3533 0.1623
C27 C 0.4810(2) 0.3053(3) 0.28605(10)
H26 H 0.5508 0.3692 0.2932
C28 C -0.32316(19) 0.1290(3) 0.42013(9)
H27 H -0.3133 0.0534 0.3983
C29 C 0.0700(2) 0.2466(4) 0.10995(8)
H28 H 0.1272 0.2580 0.0899
C30 C -0.4463(2) 0.2316(3) 0.47317(9)
H29 H -0.5187 0.2300 0.4863
C31 C -0.4284(2) 0.1253(4) 0.44146(11)
H30 H -0.4878 0.0472 0.4336
C32 C -0.0413(2) 0.1690(4) 0.09632(8)
H31 H -0.0574 0.1230 0.0675
H32 H -0.172(2) 0.3687(18) 0.2501(8)
loop_
_geom_bond_atom_site_label_1
_geom_bond_atom_site_label_2
_geom_bond_site_symmetry_1
_geom_bond_site_symmetry_2
O1 C11 1_555 1_555
O2 C14 1_555 1_555
O3 C11 1_555 1_555
N1 C1 1_555 1_555
O4 C8 1_555 1_555
N2 C9 1_555 1_555
C1 C3 1_555 1_555
C2 H1 1_555 1_555
C3 C2 1_555 1_555
H2 C3 1_555 1_555
C4 N1 1_555 1_555
H3 C4 1_555 1_555
C5 C1 1_555 1_555
H4 C5 1_555 1_555
C6 C2 1_555 1_555
C7 C9 1_555 1_555
C8 C3 1_555 1_555
C9 H5 1_555 1_555
H6 C9 1_555 1_555
C10 N1 1_555 1_555
H7 C10 1_555 1_555
H8 C10 1_555 1_555
C11 C1 1_555 1_555
C12 C4 1_555 1_555
H9 C12 1_555 1_555
H10 C12 1_555 1_555
C13 C5 1_555 1_555
H11 C13 1_555 1_555
C14 N2 1_555 1_555
C15 C10 1_555 1_555
H12 C15 1_555 1_555
H13 C15 1_555 1_555
C16 O1 1_555 1_555
H14 C16 1_555 1_555
H15 C16 1_555 1_555
H16 C16 1_555 1_555
C17 H17 1_555 1_555
C18 C6 1_555 1_555
H18 C18 1_555 1_555
C19 C13 1_555 1_555
C20 C17 1_555 1_555
H19 C20 1_555 1_555
C21 C20 1_555 1_555
H20 C21 1_555 1_555
C22 C18 1_555 1_555
H21 C22 1_555 1_555
C23 C7 1_555 1_555
H22 C23 1_555 1_555
C24 C19 1_555 1_555
H23 C24 1_555 1_555
C25 C7 1_555 1_555
H24 C25 1_555 1_555
C26 C25 1_555 1_555
H25 C26 1_555 1_555
C27 C21 1_555 1_555
H26 C27 1_555 1_555
C28 C6 1_555 1_555
H27 C28 1_555 1_555
C29 C26 1_555 1_555
H28 C29 1_555 1_555
C30 C22 1_555 1_555
H29 C30 1_555 1_555
C31 C28 1_555 1_555
H30 C31 1_555 1_555
C32 C23 1_555 1_555
H31 C32 1_555 1_555
H32 N2 1_555 1_555
C2 C4 1_555 1_555
C8 C14 1_555 1_555
C12 C15 1_555 1_555
C17 C19 1_555 1_555
C24 C27 1_555 1_555
C29 C32 1_555 1_555
C30 C31 1_555 1_555

#END
