
#######################################################################
#
#                 Cambridge Crystallographic Data Centre
#                                CCDC 
#
#######################################################################
#
# If this CIF has been generated from an entry in the Cambridge 
# Structural Database, then it will include bibliographic, chemical, 
# crystal, experimental, refinement or atomic coordinate data resulting 
# from the CCDC's data processing and validation procedures.
#
#######################################################################

data_SAXMAI
_chemical_formula_moiety         'C33 H42 B1 F2 N6 O3'
_chemical_name_systematic        
'((4-((1-(2-(4-((3,5-dimethylpyrrol-1-id-2-yl)(3,5-dimethyl-2H-pyrrol-2-ylidene)methyl)phenoxy)ethyl)-1H-1,2,3-triazol-4-yl)methoxy)-2,2,6,6-tetramethylpiperidin-1-yl)oxidanyl)(difluoro)boron radical unknown solvate'
_symmetry_cell_setting           triclinic
_symmetry_space_group_name_H-M   'P -1'
_symmetry_Int_Tables_number      2
_space_group_name_Hall           '-P 1'
loop_
_symmetry_equiv_pos_site_id
_symmetry_equiv_pos_as_xyz
1 x,y,z
2 -x,-y,-z
_cell_length_a                   9.0110(9)
_cell_length_b                   10.8873(11)
_cell_length_c                   17.883(2)
_cell_angle_alpha                98.641(8)
_cell_angle_beta                 90.004(8)
_cell_angle_gamma                112.949(7)
_cell_volume                     1593.91
_exptl_crystal_colour            yellow
_exptl_crystal_description       triclinic
_cell_formula_units_Z            2
loop_
_atom_site_label
_atom_site_type_symbol
_atom_site_fract_x
_atom_site_fract_y
_atom_site_fract_z
O1 O 0.3049(3) 0.6655(3) 0.31888(15)
F1 F -0.2063(3) 1.0567(2) 0.00133(13)
F2 F -0.2773(3) 1.0959(2) 0.12123(14)
N1 N -0.2514(4) 0.8852(3) 0.07984(18)
C1 C -0.0101(4) 0.9032(4) 0.1500(2)
C2 C 0.0745(4) 0.8394(4) 0.1933(2)
N2 N -0.0103(4) 1.1018(3) 0.10372(17)
C3 C 0.2325(4) 0.7212(4) 0.2732(2)
N3 N 0.5732(4) 0.6289(3) 0.3970(2)
C4 C 0.1278(4) 0.7727(4) 0.3088(2)
H1 H 0.1104 0.7683 0.3598
C5 C 0.0689(5) 1.0395(4) 0.1427(2)
C6 C 0.0500(4) 0.8303(4) 0.2688(2)
H2 H -0.0209 0.8640 0.2930
N4 N 0.8154(4) 0.7713(4) 0.4297(2)
C7 C -0.1682(5) 0.8270(4) 0.1193(2)
N5 N 0.7191(4) 0.6909(4) 0.3713(2)
C8 C 0.1791(5) 0.7856(4) 0.1586(2)
H3 H 0.1964 0.7896 0.1076
C9 C 0.3954(5) 0.5918(4) 0.2839(2)
H4 H 0.4904 0.6520 0.2629
H5 H 0.3297 0.5217 0.2433
C10 C -0.2684(5) 0.6883(4) 0.1150(2)
C11 C 0.7289(5) 0.7615(4) 0.4932(3)
C12 C -0.4082(5) 0.6677(4) 0.0734(2)
H6 H -0.4964 0.5856 0.0613
C13 C 0.2297(5) 1.1360(4) 0.1642(2)
C14 C 0.2568(5) 0.7273(4) 0.1973(2)
H7 H 0.3257 0.6917 0.1728
C15 C 0.0939(5) 1.2288(4) 0.1016(2)
C16 C 0.5762(5) 0.6703(4) 0.4710(3)
H8 H 0.4901 0.6421 0.5018
C17 C -0.3956(5) 0.7888(5) 0.0526(2)
C18 C 0.2407(5) 1.2507(4) 0.1384(2)
H9 H 0.3320 1.3311 0.1443
C19 C 0.4442(5) 0.5297(4) 0.3444(3)
H10 H 0.3510 0.4864 0.3724
H11 H 0.4795 0.4606 0.3205
C20 C 0.0509(6) 1.3283(4) 0.0670(3)
H12 H -0.0583 1.2855 0.0456
H13 H 0.1225 1.3598 0.0280
H14 H 0.0609 1.4034 0.1054
C21 C -0.5180(5) 0.8139(5) 0.0080(3)
H15 H -0.4770 0.9074 0.0022
H16 H -0.6158 0.7921 0.0342
H17 H -0.5400 0.7583 -0.0410
B1 B -0.1892(6) 1.0371(5) 0.0753(3)
C22 C 0.8026(6) 0.8363(5) 0.5678(3)
H18 H 0.8769 0.9289 0.5643
C23 C 0.3638(5) 1.1184(5) 0.2060(3)
H19 H 0.4588 1.2008 0.2117
H20 H 0.3869 1.0464 0.1778
H21 H 0.3309 1.0969 0.2551
C24 C -0.2399(6) 0.5793(4) 0.1465(3)
H22 H -0.3321 0.4956 0.1332
H23 H -0.2233 0.6026 0.2006
H24 H -0.1460 0.5697 0.1257
O2 O 0.8916(5) 0.7574(3) 0.5950(2)
C25 C 1.2770(5) 0.8873(4) 0.6119(3)
C26 C 1.1470(5) 0.9290(4) 0.6461(3)
H25 H 1.1915 0.9862 0.6945
H26 H 1.1261 0.9850 0.6135
C27 C 0.9883(6) 0.8238(5) 0.6591(4)
N6 N 1.2786(4) 0.7679(3) 0.64217(18)
O3 O 1.3985(4) 0.7353(3) 0.62678(18)
C28 C 1.1346(5) 0.6603(4) 0.6647(2)
C29 C 1.1857(5) 0.6031(4) 0.7270(2)
H27 H 1.2333 0.6733 0.7698
H28 H 1.2633 0.5671 0.7090
H29 H 1.0931 0.5324 0.7420
C30 C 1.0162(5) 0.7226(5) 0.6986(3)
H30 H 0.9126 0.6491 0.7008
H31 H 1.0556 0.7652 0.7504
C31 C 1.0578(7) 0.5501(5) 0.5970(3)
H32 H 1.1351 0.5148 0.5778
H33 H 1.0233 0.5869 0.5582
H34 H 0.9662 0.4788 0.6123
C32 C 1.2526(7) 0.8522(6) 0.5249(3)
H35 H 1.1482 0.7811 0.5109
H36 H 1.3346 0.8229 0.5053
H37 H 1.2597 0.9307 0.5044
C33 C 1.4392(6) 0.9992(5) 0.6314(4)
H38 H 1.4576 1.0229 0.6855
H39 H 1.4434 1.0765 0.6104
H40 H 1.5209 0.9703 0.6109
O4? O 0.8309(14) 0.8009(15) 0.6325(8)
loop_
_geom_bond_atom_site_label_1
_geom_bond_atom_site_label_2
_geom_bond_site_symmetry_1
_geom_bond_site_symmetry_2
O1 C3 1_555 1_555
F1 B1 1_555 1_555
F2 B1 1_555 1_555
N1 C7 1_555 1_555
C1 C2 1_555 1_555
C2 C6 1_555 1_555
N2 C5 1_555 1_555
C3 C4 1_555 1_555
N3 N5 1_555 1_555
C4 H1 1_555 1_555
C5 C1 1_555 1_555
C6 C4 1_555 1_555
H2 C6 1_555 1_555
N4 N5 1_555 1_555
C7 C1 1_555 1_555
C8 C2 1_555 1_555
H3 C8 1_555 1_555
C9 O1 1_555 1_555
H4 C9 1_555 1_555
H5 C9 1_555 1_555
C10 C7 1_555 1_555
C11 N4 1_555 1_555
C12 C10 1_555 1_555
H6 C12 1_555 1_555
C13 C5 1_555 1_555
C14 C3 1_555 1_555
H7 C14 1_555 1_555
C15 N2 1_555 1_555
C16 N3 1_555 1_555
H8 C16 1_555 1_555
C17 N1 1_555 1_555
C18 C13 1_555 1_555
H9 C18 1_555 1_555
C19 N3 1_555 1_555
H10 C19 1_555 1_555
H11 C19 1_555 1_555
C20 C15 1_555 1_555
H12 C20 1_555 1_555
H13 C20 1_555 1_555
H14 C20 1_555 1_555
C21 C17 1_555 1_555
H15 C21 1_555 1_555
H16 C21 1_555 1_555
H17 C21 1_555 1_555
B1 N1 1_555 1_555
C22 C11 1_555 1_555
H18 C22 1_555 1_555
C23 C13 1_555 1_555
H19 C23 1_555 1_555
H20 C23 1_555 1_555
H21 C23 1_555 1_555
C24 C10 1_555 1_555
H22 C24 1_555 1_555
H23 C24 1_555 1_555
H24 C24 1_555 1_555
O2 C22 1_555 1_555
C25 C26 1_555 1_555
C26 H25 1_555 1_555
H26 C26 1_555 1_555
C27 O2 1_555 1_555
N6 C25 1_555 1_555
O3 N6 1_555 1_555
C28 N6 1_555 1_555
C29 C28 1_555 1_555
H27 C29 1_555 1_555
H28 C29 1_555 1_555
H29 C29 1_555 1_555
C30 C27 1_555 1_555
H30 C30 1_555 1_555
H31 C30 1_555 1_555
C31 C28 1_555 1_555
H32 C31 1_555 1_555
H33 C31 1_555 1_555
H34 C31 1_555 1_555
C32 C25 1_555 1_555
H35 C32 1_555 1_555
H36 C32 1_555 1_555
H37 C32 1_555 1_555
C33 C25 1_555 1_555
H38 C33 1_555 1_555
H39 C33 1_555 1_555
H40 C33 1_555 1_555
N2 B1 1_555 1_555
C8 C14 1_555 1_555
C9 C19 1_555 1_555
C11 C16 1_555 1_555
C12 C17 1_555 1_555
C15 C18 1_555 1_555
C26 C27 1_555 1_555
C28 C30 1_555 1_555

#END
