
#######################################################################
#
#                 Cambridge Crystallographic Data Centre
#                                CCDC 
#
#######################################################################
#
# If this CIF has been generated from an entry in the Cambridge 
# Structural Database, then it will include bibliographic, chemical, 
# crystal, experimental, refinement or atomic coordinate data resulting 
# from the CCDC's data processing and validation procedures.
#
#######################################################################

data_SAXQIU
_chemical_formula_moiety         'C23 H20 O2'
_chemical_name_systematic        
2-[(anthracen-9-yl)methylidene]-5,5-dimethylcyclohexane-1,3-dione
_symmetry_cell_setting           orthorhombic
_symmetry_space_group_name_H-M   'P n a 21'
_symmetry_Int_Tables_number      33
_space_group_name_Hall           'P 2c -2n'
loop_
_symmetry_equiv_pos_site_id
_symmetry_equiv_pos_as_xyz
1 x,y,z
2 -x,-y,1/2+z
3 1/2-x,1/2+y,1/2+z
4 1/2+x,1/2-y,z
_cell_length_a                   11.5968(10)
_cell_length_b                   11.597
_cell_length_c                   25.977(3)
_cell_angle_alpha                90
_cell_angle_beta                 90
_cell_angle_gamma                90
_cell_volume                     3493.6
_exptl_crystal_colour            yellow
_exptl_crystal_description       Block
_cell_formula_units_Z            8
loop_
_atom_site_label
_atom_site_type_symbol
_atom_site_fract_x
_atom_site_fract_y
_atom_site_fract_z
O1 O 0.4743(3) 1.0538(3) 0.40048(13)
C1 C -0.0570(4) 0.9152(5) 0.51538(16)
H1 H -0.1260 0.9029 0.5327
O2 O 0.1321(2) 0.8764(4) 0.35306(13)
C2 C 0.3035(3) 0.9424(4) 0.39094(16)
C3 C 0.1134(4) 0.8381(4) 0.47216(15)
C4 C -0.0206(4) 1.0289(4) 0.50650(16)
C5 C 0.0866(4) 1.0455(4) 0.47964(15)
C6 C 0.1510(3) 0.9511(4) 0.46238(16)
C7 C 0.0055(4) 0.8220(4) 0.49938(16)
C8 C 0.2619(4) 0.9748(4) 0.43726(16)
H2 H 0.3122 1.0199 0.4566
C9 C 0.4265(4) 0.9749(4) 0.37910(16)
C10 C 0.2354(3) 0.8823(4) 0.35097(16)
C11 C 0.4141(4) 0.8814(4) 0.29242(17)
C12 C 0.1365(4) 0.6296(4) 0.46942(19)
H3 H 0.1787 0.5650 0.4597
C13 C 0.0567(5) 1.2514(5) 0.4863(2)
H4 H 0.0820 1.3261 0.4797
C14 C 0.1770(4) 0.7377(4) 0.4587(2)
H5 H 0.2479 0.7457 0.4423
C15 C 0.4860(3) 0.9003(4) 0.34045(17)
H6 H 0.5031 0.8262 0.3560
H7 H 0.5585 0.9359 0.3308
C16 C 0.0312(5) 0.6164(5) 0.4950(2)
H8 H 0.0047 0.5424 0.5022
C17 C -0.0851(4) 1.1272(5) 0.52198(18)
H9 H -0.1548 1.1169 0.5391
C18 C 0.1212(4) 1.1624(4) 0.47053(17)
H10 H 0.1900 1.1768 0.4533
C19 C -0.0472(5) 1.2353(5) 0.5123(2)
H11 H -0.0903 1.2987 0.5230
C20 C 0.3003(4) 0.8233(5) 0.3083(2)
H12 H 0.2506 0.8192 0.2783
H13 H 0.3170 0.7449 0.3190
C21 C -0.0324(4) 0.7062(5) 0.5096(2)
H14 H -0.1021 0.6940 0.5264
C22 C 0.3893(5) 0.9966(5) 0.2663(2)
H15 H 0.3431 0.9839 0.2362
H16 H 0.4607 1.0323 0.2566
H17 H 0.3486 1.0459 0.2897
C23 C 0.4794(4) 0.8029(6) 0.2553(2)
H18 H 0.4342 0.7913 0.2248
H19 H 0.4937 0.7299 0.2716
H20 H 0.5515 0.8382 0.2463
O3 O -0.2136(3) 0.9538(3) 0.22637(13)
C24 C -0.1658(4) 1.0311(4) 0.24865(17)
O4 O 0.1307(2) 1.1266(4) 0.27406(14)
C25 C 0.2486(4) 1.1966(5) 0.12589(17)
C26 C 0.1420(4) 1.1769(4) 0.15331(16)
C27 C 0.1097(3) 1.0635(4) 0.16533(16)
C28 C 0.1785(4) 0.9692(4) 0.15043(15)
C29 C -0.0433(3) 1.0634(4) 0.23651(16)
C30 C -0.2239(3) 1.1016(4) 0.28872(18)
H21 H -0.2959 1.0648 0.2983
H22 H -0.2420 1.1769 0.2746
C31 C -0.0031(4) 1.0380(4) 0.18973(17)
H23 H -0.0543 0.9975 0.1690
C32 C -0.1493(4) 1.1166(4) 0.33669(18)
C33 C 0.2842(4) 0.9899(5) 0.12392(17)
C34 C 0.1487(5) 0.8537(5) 0.16190(17)
H24 H 0.0807 0.8388 0.1796
C35 C 0.0262(3) 1.1223(4) 0.27707(17)
C36 C 0.2806(4) 1.3091(5) 0.11281(19)
H25 H 0.3491 1.3207 0.0949
C37 C 0.0763(4) 1.2754(5) 0.1663(2)
H26 H 0.0081 1.2660 0.1846
C38 C 0.1103(5) 1.3840(5) 0.1528(2)
H27 H 0.0643 1.4467 0.1617
C39 C -0.0373(4) 1.1743(5) 0.3211(2)
H28 H -0.0539 1.2540 0.3126
H29 H 0.0136 1.1746 0.3507
C40 C 0.2146(5) 1.4027(6) 0.1255(2)
H30 H 0.2375 1.4768 0.1165
C41 C 0.3533(5) 0.8950(6) 0.10951(19)
H31 H 0.4220 0.9077 0.0919
C42 C 0.2168(5) 0.7647(5) 0.1477(2)
H32 H 0.1955 0.6894 0.1555
C43 C 0.3213(6) 0.7871(6) 0.1209(2)
H33 H 0.3680 0.7258 0.1110
C44 C -0.2134(5) 1.1937(6) 0.3752(2)
H34 H -0.2272 1.2679 0.3600
H35 H -0.1675 1.2029 0.4057
H36 H -0.2857 1.1587 0.3841
C45 C -0.1253(5) 1.0001(6) 0.3606(2)
H37 H -0.0841 0.9529 0.3364
H38 H -0.1969 0.9635 0.3694
H39 H -0.0797 1.0100 0.3911
C46 C 0.3161(4) 1.1017(5) 0.11228(17)
H40 H 0.3850 1.1142 0.0948
loop_
_geom_bond_atom_site_label_1
_geom_bond_atom_site_label_2
_geom_bond_site_symmetry_1
_geom_bond_site_symmetry_2
O1 C9 1_555 1_555
C1 H1 1_555 1_555
O2 C10 1_555 1_555
C2 C8 1_555 1_555
C3 C6 1_555 1_555
C4 C1 1_555 1_555
C5 C4 1_555 1_555
C6 C5 1_555 1_555
C7 C1 1_555 1_555
C8 C6 1_555 1_555
H2 C8 1_555 1_555
C9 C2 1_555 1_555
C10 C2 1_555 1_555
C11 C15 1_555 1_555
C12 H3 1_555 1_555
C13 H4 1_555 1_555
C14 C3 1_555 1_555
H5 C14 1_555 1_555
C15 C9 1_555 1_555
H6 C15 1_555 1_555
H7 C15 1_555 1_555
C16 C12 1_555 1_555
H8 C16 1_555 1_555
C17 C4 1_555 1_555
H9 C17 1_555 1_555
C18 C5 1_555 1_555
H10 C18 1_555 1_555
C19 C13 1_555 1_555
H11 C19 1_555 1_555
C20 C10 1_555 1_555
H12 C20 1_555 1_555
H13 C20 1_555 1_555
C21 C7 1_555 1_555
H14 C21 1_555 1_555
C22 C11 1_555 1_555
H15 C22 1_555 1_555
H16 C22 1_555 1_555
H17 C22 1_555 1_555
C23 C11 1_555 1_555
H18 C23 1_555 1_555
H19 C23 1_555 1_555
H20 C23 1_555 1_555
O3 C24 1_555 1_555
C24 C29 1_555 1_555
O4 C35 1_555 1_555
C25 C26 1_555 1_555
C26 C27 1_555 1_555
C27 C28 1_555 1_555
C28 C33 1_555 1_555
C29 C31 1_555 1_555
C30 C24 1_555 1_555
H21 C30 1_555 1_555
H22 C30 1_555 1_555
C31 C27 1_555 1_555
H23 C31 1_555 1_555
C32 C30 1_555 1_555
C33 C41 1_555 1_555
C34 C28 1_555 1_555
H24 C34 1_555 1_555
C35 C29 1_555 1_555
C36 C25 1_555 1_555
H25 C36 1_555 1_555
C37 C26 1_555 1_555
H26 C37 1_555 1_555
C38 C37 1_555 1_555
H27 C38 1_555 1_555
C39 C32 1_555 1_555
H28 C39 1_555 1_555
H29 C39 1_555 1_555
C40 C36 1_555 1_555
H30 C40 1_555 1_555
C41 H31 1_555 1_555
C42 C34 1_555 1_555
H32 C42 1_555 1_555
C43 C41 1_555 1_555
H33 C43 1_555 1_555
C44 C32 1_555 1_555
H34 C44 1_555 1_555
H35 C44 1_555 1_555
H36 C44 1_555 1_555
C45 C32 1_555 1_555
H37 C45 1_555 1_555
H38 C45 1_555 1_555
H39 C45 1_555 1_555
C46 C25 1_555 1_555
H40 C46 1_555 1_555
C3 C7 1_555 1_555
C11 C20 1_555 1_555
C12 C14 1_555 1_555
C13 C18 1_555 1_555
C16 C21 1_555 1_555
C17 C19 1_555 1_555
C33 C46 1_555 1_555
C35 C39 1_555 1_555
C38 C40 1_555 1_555
C42 C43 1_555 1_555

#END
