
#######################################################################
#
#                 Cambridge Crystallographic Data Centre
#                                CCDC 
#
#######################################################################
#
# If this CIF has been generated from an entry in the Cambridge 
# Structural Database, then it will include bibliographic, chemical, 
# crystal, experimental, refinement or atomic coordinate data resulting 
# from the CCDC's data processing and validation procedures.
#
#######################################################################

data_SAXQAM
_chemical_formula_moiety         'C38 H28 N8'
_chemical_name_systematic        
"1,1',1'',1'''-[ethene-1,1,2,2-tetrayltetrakis(4,1-phenylene)]tetrakis(1H-imidazole) unknown solvate"
_symmetry_cell_setting           monoclinic
_symmetry_space_group_name_H-M   'P 21/n'
_symmetry_Int_Tables_number      14
_space_group_name_Hall           '-P 2yn'
loop_
_symmetry_equiv_pos_site_id
_symmetry_equiv_pos_as_xyz
1 x,y,z
2 1/2-x,1/2+y,1/2-z
3 -x,-y,-z
4 1/2+x,1/2-y,1/2+z
_cell_length_a                   11.6541(10)
_cell_length_b                   9.2206(7)
_cell_length_c                   31.877(3)
_cell_angle_alpha                90
_cell_angle_beta                 96.825(2)
_cell_angle_gamma                90
_cell_volume                     3401.16
_exptl_crystal_colour            colorless
_exptl_crystal_description       Plate
_cell_formula_units_Z            4
_chemical_properties_physical    ', Air-sensitive'
_exptl_crystal_recrystallization_method 'Vapour deposition'
loop_
_atom_site_label
_atom_site_type_symbol
_atom_site_fract_x
_atom_site_fract_y
_atom_site_fract_z
N1 N 0.3971(3) 0.2809(4) 0.19933(14)
N2 N -0.1664(4) 0.6684(4) 0.43569(13)
C1 C -0.2823(4) 0.6541(5) 0.43289(14)
H1 H -0.3241 0.6528 0.4560
N3 N -0.3798(4) 0.6517(4) -0.08493(13)
N4 N -0.9155(3) 0.9973(5) 0.13430(14)
C2 C 0.3646(4) 0.2404(5) 0.23759(16)
H2 H 0.4110 0.1890 0.2582
C3 C -0.9149(4) 0.9289(6) 0.09629(19)
H3 H -0.9764 0.9309 0.0748
C4 C -0.3437(5) 0.7938(6) -0.08049(17)
H4 H -0.3385 0.8578 -0.1027
N5 N 0.2189(3) 0.3590(4) 0.20425(11)
C5 C -0.2248(3) 0.6185(4) 0.16065(13)
N6 N -0.3339(3) 0.7014(4) -0.01706(12)
N7 N -0.2388(3) 0.6477(4) 0.36842(11)
C6 C -0.3007(3) 0.6516(4) 0.18779(13)
C7 C -0.0927(3) 0.4384(4) 0.20138(13)
H5 H -0.1555 0.4044 0.2140
C8 C -0.2767(3) 0.6401(4) 0.23486(13)
N8 N -0.7492(3) 0.8818(4) 0.13150(12)
C9 C -0.5578(3) 0.9045(4) 0.17212(13)
H6 H -0.5771 0.9967 0.1808
C10 C -0.1807(3) 0.7029(4) 0.25790(14)
H7 H -0.1244 0.7452 0.2435
C11 C 0.0945(3) 0.5391(5) 0.16459(13)
H8 H 0.1575 0.5738 0.1522
C12 C -0.4982(3) 0.6312(5) 0.14527(13)
H9 H -0.4785 0.5399 0.1360
C13 C -0.3580(3) 0.5725(4) 0.25793(14)
H10 H -0.4229 0.5286 0.2435
C14 C -0.6357(4) 0.8251(4) 0.14503(14)
C15 C -0.3428(3) 0.5703(4) 0.30141(13)
H11 H -0.3960 0.5222 0.3160
C16 C -0.2491(3) 0.6392(4) 0.32358(14)
C17 C -0.2534(3) 0.6430(4) 0.11431(13)
C18 C -0.4511(4) 0.8451(4) 0.18614(13)
H12 H -0.3997 0.8974 0.2049
C19 C -0.2857(4) 0.7780(5) 0.09716(14)
H13 H -0.2884 0.8571 0.1151
C20 C -0.6064(3) 0.6887(5) 0.13174(14)
H14 H -0.6591 0.6355 0.1137
C21 C -0.3292(4) 0.6422(5) 0.39294(14)
H15 H -0.4073 0.6321 0.3833
C22 C 0.2555(4) 0.2857(5) 0.24120(14)
H16 H 0.2138 0.2705 0.2639
C23 C -0.1087(3) 0.5529(4) 0.17303(12)
C24 C 0.1089(3) 0.4246(4) 0.19309(13)
C25 C -0.3137(4) 0.7976(5) 0.05434(15)
H17 H -0.3359 0.8885 0.0437
C26 C -0.2772(4) 0.5457(5) 0.04363(14)
H18 H -0.2745 0.4667 0.0256
C27 C -0.3084(4) 0.6811(5) 0.02734(13)
C28 C -0.2502(4) 0.5282(5) 0.08633(13)
H19 H -0.2292 0.4367 0.0969
C29 C 0.3067(4) 0.3504(5) 0.18043(15)
H20 H 0.3038 0.3895 0.1534
C30 C -0.4187(3) 0.7092(4) 0.17278(13)
C31 C -0.3733(4) 0.6027(5) -0.04651(15)
H21 H -0.3938 0.5087 -0.0399
C32 C -0.0121(3) 0.6009(4) 0.15462(13)
H22 H -0.0206 0.6766 0.1352
C33 C 0.0139(3) 0.3734(4) 0.21146(13)
H23 H 0.0222 0.2961 0.2303
C34 C -0.8144(4) 0.8582(5) 0.09350(17)
H24 H -0.7941 0.8050 0.0707
C35 C -0.1664(3) 0.7043(4) 0.30182(14)
H25 H -0.1020 0.7485 0.3165
C36 C -0.1410(4) 0.6649(5) 0.39573(17)
H26 H -0.0669 0.6730 0.3879
C37 C -0.3170(5) 0.8266(6) -0.03921(17)
H27 H -0.2921 0.9158 -0.0279
C38 C -0.8122(4) 0.9675(5) 0.15456(16)
H28 H -0.7861 1.0015 0.1815
loop_
_geom_bond_atom_site_label_1
_geom_bond_atom_site_label_2
_geom_bond_site_symmetry_1
_geom_bond_site_symmetry_2
N1 C2 1_555 1_555
N2 C1 1_555 1_555
C1 H1 1_555 1_555
N3 C4 1_555 1_555
N4 C3 1_555 1_555
C2 H2 1_555 1_555
C3 H3 1_555 1_555
C4 H4 1_555 1_555
N5 C22 1_555 1_555
C5 C6 1_555 1_555
N6 C27 1_555 1_555
N7 C16 1_555 1_555
C6 C8 1_555 1_555
C7 H5 1_555 1_555
C8 C10 1_555 1_555
N8 C14 1_555 1_555
C9 H6 1_555 1_555
C10 H7 1_555 1_555
C11 H8 1_555 1_555
C12 H9 1_555 1_555
C13 C8 1_555 1_555
H10 C13 1_555 1_555
C14 C9 1_555 1_555
C15 C13 1_555 1_555
H11 C15 1_555 1_555
C16 C15 1_555 1_555
C17 C5 1_555 1_555
C18 C9 1_555 1_555
H12 C18 1_555 1_555
C19 C17 1_555 1_555
H13 C19 1_555 1_555
C20 C12 1_555 1_555
H14 C20 1_555 1_555
C21 C1 1_555 1_555
H15 C21 1_555 1_555
C22 C2 1_555 1_555
H16 C22 1_555 1_555
C23 C5 1_555 1_555
C24 N5 1_555 1_555
C25 C19 1_555 1_555
H17 C25 1_555 1_555
C26 H18 1_555 1_555
C27 C25 1_555 1_555
C28 C17 1_555 1_555
H19 C28 1_555 1_555
C29 N1 1_555 1_555
H20 C29 1_555 1_555
C30 C6 1_555 1_555
C31 N3 1_555 1_555
H21 C31 1_555 1_555
C32 C11 1_555 1_555
H22 C32 1_555 1_555
C33 C7 1_555 1_555
H23 C33 1_555 1_555
C34 C3 1_555 1_555
H24 C34 1_555 1_555
C35 C10 1_555 1_555
H25 C35 1_555 1_555
C36 N2 1_555 1_555
H26 C36 1_555 1_555
C37 C4 1_555 1_555
H27 C37 1_555 1_555
C38 N4 1_555 1_555
H28 C38 1_555 1_555
N5 C29 1_555 1_555
N6 C31 1_555 1_555
N6 C37 1_555 1_555
N7 C21 1_555 1_555
N7 C36 1_555 1_555
C7 C23 1_555 1_555
N8 C34 1_555 1_555
N8 C38 1_555 1_555
C11 C24 1_555 1_555
C12 C30 1_555 1_555
C14 C20 1_555 1_555
C16 C35 1_555 1_555
C18 C30 1_555 1_555
C23 C32 1_555 1_555
C24 C33 1_555 1_555
C26 C27 1_555 1_555
C26 C28 1_555 1_555

#END
