
#######################################################################
#
#                 Cambridge Crystallographic Data Centre
#                                CCDC 
#
#######################################################################
#
# If this CIF has been generated from an entry in the Cambridge 
# Structural Database, then it will include bibliographic, chemical, 
# crystal, experimental, refinement or atomic coordinate data resulting 
# from the CCDC's data processing and validation procedures.
#
#######################################################################

data_SAYJEK
_chemical_formula_moiety         'C25 H29 N2 S2'
_chemical_name_systematic        
'bis(5-[(t-butylimino)methyl]thiophen-2-yl)(phenyl)methyl radical'
_symmetry_cell_setting           triclinic
_symmetry_space_group_name_H-M   'P -1'
_symmetry_Int_Tables_number      2
_space_group_name_Hall           '-P 1'
loop_
_symmetry_equiv_pos_site_id
_symmetry_equiv_pos_as_xyz
1 x,y,z
2 -x,-y,-z
_cell_length_a                   5.7800(3)
_cell_length_b                   11.1718(5)
_cell_length_c                   19.2205(9)
_cell_angle_alpha                98.344(4)
_cell_angle_beta                 97.954(4)
_cell_angle_gamma                96.777(4)
_cell_volume                     1204.04
_exptl_crystal_colour            orange
_exptl_crystal_description       plate
_cell_formula_units_Z            2
loop_
_atom_site_label
_atom_site_type_symbol
_atom_site_fract_x
_atom_site_fract_y
_atom_site_fract_z
S1 S 0.82233(14) 0.39601(8) 0.69448(4)
S2 S 0.38591(14) 0.21756(8) 0.69597(4)
N1 N 0.1218(5) 0.1389(3) 0.81106(16)
C1 C 0.4933(5) 0.2455(3) 0.48984(17)
N2 N 1.2093(5) 0.5422(3) 0.80737(16)
C2 C 0.5368(5) 0.2692(3) 0.56895(17)
C3 C 0.7393(6) 0.3509(3) 0.60237(17)
C4 C 1.0987(6) 0.4769(3) 0.61234(18)
H1 H 1.2273 0.5193 0.5959
C5 C 0.1180(6) 0.1251(3) 0.68676(18)
C6 C 0.9127(6) 0.4048(3) 0.56755(18)
H2 H 0.9021 0.3923 0.5172
C7 C 0.1588(6) 0.1332(3) 0.56960(18)
H3 H 0.1152 0.1154 0.5193
C8 C 0.3669(6) 0.2083(3) 0.60356(17)
C9 C 1.0810(6) 0.4819(3) 0.68358(18)
C10 C 0.0160(6) 0.0993(3) 0.74745(19)
H4 H -0.1349 0.0513 0.7404
C11 C 0.5815(6) 0.1512(3) 0.45215(18)
H5 H 0.6706 0.1001 0.4772
C12 C 0.0228(6) 0.0875(3) 0.61607(19)
H6 H -0.1226 0.0350 0.6007
C13 C 0.5423(6) 0.1296(4) 0.37836(19)
H7 H 0.6049 0.0643 0.3534
C14 C 0.4138(6) 0.2018(3) 0.34118(18)
H8 H 0.3865 0.1868 0.2906
C15 C 0.3246(6) 0.2964(4) 0.37800(19)
H9 H 0.2352 0.3468 0.3526
C16 C 1.2465(6) 0.5443(3) 0.74436(19)
H10 H 1.3889 0.5889 0.7369
C17 C 0.3638(6) 0.3185(3) 0.45131(19)
H11 H 0.3018 0.3845 0.4759
C18 C 0.0042(8) 0.1173(5) 0.8727(2)
C19 C 1.3896(8) 0.6015(5) 0.8687(2)
C20 C -0.1989(10) 0.0241(6) 0.8593(3)
H12 H -0.3145 0.0413 0.8210
H13 H -0.2702 0.0235 0.9027
H14 H -0.1502 -0.0558 0.8452
C21 C 1.5741(11) 0.6899(6) 0.8541(3)
H15 H 1.6470 0.6528 0.8147
H16 H 1.6939 0.7154 0.8967
H17 H 1.5058 0.7613 0.8410
C22 C 1.2775(10) 0.6210(8) 0.9294(3)
H18 H 1.1948 0.6925 0.9278
H19 H 1.3961 0.6352 0.9725
H20 H 1.1638 0.5489 0.9300
C23 C 1.5439(12) 0.4920(7) 0.8852(4)
H21 H 1.4373 0.4193 0.8894
H22 H 1.6538 0.5189 0.9299
H23 H 1.6329 0.4722 0.8462
C24 C 0.1854(11) 0.1167(11) 0.9314(3)
H24 H 0.2351 0.0355 0.9284
H25 H 0.1246 0.1368 0.9761
H26 H 0.3207 0.1775 0.9297
C25 C -0.108(2) 0.2393(7) 0.8917(5)
H27 H 0.0179 0.3088 0.9062
H28 H -0.1983 0.2314 0.9308
H29 H -0.2134 0.2525 0.8498
loop_
_geom_bond_atom_site_label_1
_geom_bond_atom_site_label_2
_geom_bond_site_symmetry_1
_geom_bond_site_symmetry_2
S1 C3 1_555 1_555
S2 C5 1_555 1_555
N1 C10 1_555 1_555
C1 C2 1_555 1_555
N2 C16 1_555 1_555
C2 C3 1_555 1_555
C3 C6 1_555 1_555
C4 H1 1_555 1_555
C5 C10 1_555 1_555
C6 C4 1_555 1_555
H2 C6 1_555 1_555
C7 H3 1_555 1_555
C8 S2 1_555 1_555
C9 S1 1_555 1_555
C10 H4 1_555 1_555
C11 C1 1_555 1_555
H5 C11 1_555 1_555
C12 C5 1_555 1_555
H6 C12 1_555 1_555
C13 C11 1_555 1_555
H7 C13 1_555 1_555
C14 C13 1_555 1_555
H8 C14 1_555 1_555
C15 C14 1_555 1_555
H9 C15 1_555 1_555
C16 C9 1_555 1_555
H10 C16 1_555 1_555
C17 C1 1_555 1_555
H11 C17 1_555 1_555
C18 N1 1_555 1_555
C19 N2 1_555 1_555
C20 C18 1_555 1_555
H12 C20 1_555 1_555
H13 C20 1_555 1_555
H14 C20 1_555 1_555
C21 C19 1_555 1_555
H15 C21 1_555 1_555
H16 C21 1_555 1_555
H17 C21 1_555 1_555
C22 C19 1_555 1_555
H18 C22 1_555 1_555
H19 C22 1_555 1_555
H20 C22 1_555 1_555
C23 C19 1_555 1_555
H21 C23 1_555 1_555
H22 C23 1_555 1_555
H23 C23 1_555 1_555
C24 C18 1_555 1_555
H24 C24 1_555 1_555
H25 C24 1_555 1_555
H26 C24 1_555 1_555
C25 C18 1_555 1_555
H27 C25 1_555 1_555
H28 C25 1_555 1_555
H29 C25 1_555 1_555
C2 C8 1_555 1_555
C4 C9 1_555 1_555
C7 C8 1_555 1_555
C7 C12 1_555 1_555
C15 C17 1_555 1_555

#END
