
#######################################################################
#
#                 Cambridge Crystallographic Data Centre
#                                CCDC 
#
#######################################################################
#
# If this CIF has been generated from an entry in the Cambridge 
# Structural Database, then it will include bibliographic, chemical, 
# crystal, experimental, refinement or atomic coordinate data resulting 
# from the CCDC's data processing and validation procedures.
#
#######################################################################

data_SAYMUD
_chemical_formula_moiety         'C24 H27 N1 O4'
_chemical_name_systematic        
'(4-butyl-1,4-dimethyl-2-phenylcyclobut-2-en-1-yl)methyl 4-nitrobenzoate'
_symmetry_cell_setting           triclinic
_symmetry_space_group_name_H-M   'P -1'
_symmetry_Int_Tables_number      2
_space_group_name_Hall           '-P 1'
loop_
_symmetry_equiv_pos_site_id
_symmetry_equiv_pos_as_xyz
1 x,y,z
2 -x,-y,-z
_cell_length_a                   8.780(6)
_cell_length_b                   9.429(4)
_cell_length_c                   14.132(7)
_cell_angle_alpha                104.70(10)
_cell_angle_beta                 92.47(2)
_cell_angle_gamma                109.332(12)
_cell_volume                     1057.44
_exptl_crystal_colour            colorless
_exptl_crystal_description       block
_cell_formula_units_Z            2
loop_
_atom_site_label
_atom_site_type_symbol
_atom_site_fract_x
_atom_site_fract_y
_atom_site_fract_z
O1 O 1.0117(3) 0.7838(3) 0.36317(18)
O2 O 1.0329(2) 0.8675(2) 0.51939(16)
O3 O 0.19692(18) 0.4469(2) 0.33292(11)
O4 O 0.1993(2) 0.5804(3) 0.48641(14)
N1 N 0.9532(3) 0.7987(3) 0.43929(19)
C1 C 0.7771(3) 0.7318(3) 0.43405(18)
C2 C 0.6900(3) 0.6267(3) 0.34813(19)
H1 H 0.7418 0.5978 0.2944
C3 C 0.5250(3) 0.5647(3) 0.34279(18)
H2 H 0.4633 0.4920 0.2849
C4 C 0.4479(3) 0.6087(3) 0.42256(16)
C5 C 0.5399(3) 0.7143(3) 0.50838(17)
H3 H 0.4893 0.7433 0.5627
C6 C 0.7050(3) 0.7767(3) 0.51435(18)
H4 H 0.7677 0.8488 0.5722
C7 C 0.2696(3) 0.5464(3) 0.41938(17)
C8 C 0.0218(3) 0.3800(3) 0.32019(17)
H5 H -0.0252 0.4606 0.3236
H6 H -0.0143 0.3296 0.3712
C9 C -0.0286(3) 0.2620(3) 0.22023(16)
C10 C 0.0373(3) 0.1311(3) 0.21737(19)
H7 H 0.1543 0.1739 0.2294
H8 H 0.0024 0.0552 0.1536
H9 H -0.0030 0.0815 0.2673
C11 C -0.0070(3) 0.3355(3) 0.12878(18)
C12 C -0.1877(3) 0.2652(4) 0.1086(2)
H10 H -0.2617 0.2639 0.0590
C13 C -0.2095(3) 0.2050(3) 0.18426(18)
C14 C -0.35086(16) 0.10845(19) 0.21826(13)
C15 C -0.5025(2) 0.0530(2) 0.16096(13)
H11 H -0.5132 0.0802 0.1029
C16 C -0.63800(15) -0.0431(2) 0.19051(18)
H12 H -0.7394 -0.0802 0.1522
C17 C -0.6219(2) -0.0837(2) 0.27736(19)
H13 H -0.7126 -0.1480 0.2971
C18 C -0.4703(3) -0.0283(2) 0.33465(14)
H14 H -0.4596 -0.0554 0.3927
C19 C -0.33478(18) 0.0678(2) 0.30510(12)
H15 H -0.2333 0.1049 0.3434
C20 C 0.0591(4) 0.5139(3) 0.1539(2)
H16 H -0.0051 0.5559 0.1984
H17 H 0.0537 0.5448 0.0945
H18 H 0.1704 0.5534 0.1846
C21 C 0.0766(3) 0.2669(3) 0.04587(18)
H19 H 0.0361 0.1539 0.0331
H20 H 0.0442 0.2894 -0.0136
C22 C 0.2600(4) 0.3246(4) 0.0639(2)
H21 H 0.2934 0.3028 0.1234
H22 H 0.3015 0.4374 0.0756
C23 C 0.3370(4) 0.2515(4) -0.0203(2)
H23 H 0.4525 0.2819 0.0016
H24 H 0.2893 0.1384 -0.0352
C24 C 0.3179(5) 0.2957(4) -0.1119(2)
H25 H 0.3767 0.2516 -0.1594
H26 H 0.3599 0.4079 -0.0976
H27 H 0.2044 0.2565 -0.1383
loop_
_geom_bond_atom_site_label_1
_geom_bond_atom_site_label_2
_geom_bond_site_symmetry_1
_geom_bond_site_symmetry_2
O1 N1 1_555 1_555
O2 N1 1_555 1_555
O3 C7 1_555 1_555
O4 C7 1_555 1_555
N1 C1 1_555 1_555
C1 C2 1_555 1_555
C2 H1 1_555 1_555
C3 C2 1_555 1_555
H2 C3 1_555 1_555
C4 C3 1_555 1_555
C5 C4 1_555 1_555
H3 C5 1_555 1_555
C6 C1 1_555 1_555
H4 C6 1_555 1_555
C7 C4 1_555 1_555
C8 O3 1_555 1_555
H5 C8 1_555 1_555
H6 C8 1_555 1_555
C9 C8 1_555 1_555
C10 C9 1_555 1_555
H7 C10 1_555 1_555
H8 C10 1_555 1_555
H9 C10 1_555 1_555
C11 C9 1_555 1_555
C12 C11 1_555 1_555
H10 C12 1_555 1_555
C13 C9 1_555 1_555
C14 C13 1_555 1_555
C15 C14 1_555 1_555
H11 C15 1_555 1_555
C16 C15 1_555 1_555
H12 C16 1_555 1_555
C17 C16 1_555 1_555
H13 C17 1_555 1_555
C18 C17 1_555 1_555
H14 C18 1_555 1_555
C19 C14 1_555 1_555
H15 C19 1_555 1_555
C20 C11 1_555 1_555
H16 C20 1_555 1_555
H17 C20 1_555 1_555
H18 C20 1_555 1_555
C21 C11 1_555 1_555
H19 C21 1_555 1_555
H20 C21 1_555 1_555
C22 C21 1_555 1_555
H21 C22 1_555 1_555
H22 C22 1_555 1_555
C23 C22 1_555 1_555
H23 C23 1_555 1_555
H24 C23 1_555 1_555
C24 C23 1_555 1_555
H25 C24 1_555 1_555
H26 C24 1_555 1_555
H27 C24 1_555 1_555
C5 C6 1_555 1_555
C12 C13 1_555 1_555
C18 C19 1_555 1_555

#END
