
#######################################################################
#
#                 Cambridge Crystallographic Data Centre
#                                CCDC 
#
#######################################################################
#
# If this CIF has been generated from an entry in the Cambridge 
# Structural Database, then it will include bibliographic, chemical, 
# crystal, experimental, refinement or atomic coordinate data resulting 
# from the CCDC's data processing and validation procedures.
#
#######################################################################

data_SAYWEV
_chemical_formula_moiety         'C9 H6 Br1 Cl1 S1'
_chemical_name_systematic        3-Bromomethyl-5-chloro-2-benzothiophene
_chemical_properties_biological  'potential biological activity'
_symmetry_cell_setting           monoclinic
_symmetry_space_group_name_H-M   'P 21/c'
_symmetry_Int_Tables_number      14
_space_group_name_Hall           '-P 2ybc'
loop_
_symmetry_equiv_pos_site_id
_symmetry_equiv_pos_as_xyz
1 x,y,z
2 -x,1/2+y,1/2-z
3 -x,-y,-z
4 x,1/2-y,1/2+z
_cell_length_a                   7.2891(9)
_cell_length_b                   13.6044(16)
_cell_length_c                   9.4539(12)
_cell_angle_alpha                90
_cell_angle_beta                 96.946(2)
_cell_angle_gamma                90
_cell_volume                     930.604
_exptl_crystal_colour            colorless
_exptl_crystal_description       prism
_chemical_melting_point          '409 K'
_cell_formula_units_Z            4
_exptl_crystal_recrystallization_method 'ethyl acetate/petroleum ether'
loop_
_atom_site_label
_atom_site_type_symbol
_atom_site_fract_x
_atom_site_fract_y
_atom_site_fract_z
Br1 Br 0.65145(4) 0.18964(2) -0.02590(3)
Cl1 Cl 0.60567(10) 0.56974(6) 0.26136(10)
S1 S 1.29663(9) 0.33864(6) 0.12678(8)
C1 C 1.1176(3) 0.40894(18) 0.1780(3)
C2 C 0.9491(3) 0.38833(17) 0.0921(2)
C3 C 0.7899(3) 0.43886(18) 0.1185(3)
H1 H 0.6773 0.4268 0.0638
C4 C 0.8028(3) 0.50625(18) 0.2260(3)
C5 C 0.9682(4) 0.5268(2) 0.3107(3)
H2 H 0.9718 0.5736 0.3827
C6 C 1.1265(4) 0.4771(2) 0.2869(3)
H3 H 1.2377 0.4894 0.3433
C7 C 1.1484(4) 0.2825(2) -0.0039(3)
H4 H 1.1868 0.2343 -0.0636
C8 C 0.9719(4) 0.31392(17) -0.0126(3)
C9 C 0.8203(4) 0.2768(2) -0.1173(3)
H5 H 0.8722 0.2408 -0.1916
H6 H 0.7509 0.3319 -0.1613
loop_
_geom_bond_atom_site_label_1
_geom_bond_atom_site_label_2
_geom_bond_site_symmetry_1
_geom_bond_site_symmetry_2
Br1 C9 1_555 1_555
Cl1 C4 1_555 1_555
S1 C1 1_555 1_555
C1 C2 1_555 1_555
C2 C3 1_555 1_555
C3 H1 1_555 1_555
C4 C3 1_555 1_555
C5 C4 1_555 1_555
H2 C5 1_555 1_555
C6 C1 1_555 1_555
H3 C6 1_555 1_555
C7 S1 1_555 1_555
H4 C7 1_555 1_555
C8 C2 1_555 1_555
C9 C8 1_555 1_555
H5 C9 1_555 1_555
H6 C9 1_555 1_555
C5 C6 1_555 1_555
C7 C8 1_555 1_555

#END
