
#######################################################################
#
#                 Cambridge Crystallographic Data Centre
#                                CCDC 
#
#######################################################################
#
# If this CIF has been generated from an entry in the Cambridge 
# Structural Database, then it will include bibliographic, chemical, 
# crystal, experimental, refinement or atomic coordinate data resulting 
# from the CCDC's data processing and validation procedures.
#
#######################################################################

data_SAZCEC
_chemical_formula_moiety         'C2 H2 N2 S2'
_chemical_name_systematic        1,3,4-Thiadiazolium-2-thiolate
_symmetry_cell_setting           orthorhombic
_symmetry_space_group_name_H-M   'P b c a'
_symmetry_Int_Tables_number      61
_space_group_name_Hall           '-P 2ac 2ab'
loop_
_symmetry_equiv_pos_site_id
_symmetry_equiv_pos_as_xyz
1 x,y,z
2 1/2-x,-y,1/2+z
3 -x,1/2+y,1/2-z
4 1/2+x,1/2-y,-z
5 -x,-y,-z
6 1/2+x,y,1/2-z
7 x,1/2-y,1/2+z
8 1/2-x,1/2+y,z
_cell_length_a                   8.623(2)
_cell_length_b                   8.249(2)
_cell_length_c                   13.075(3)
_cell_angle_alpha                90
_cell_angle_beta                 90
_cell_angle_gamma                90
_cell_volume                     930.039
_exptl_crystal_colour            colorless
_exptl_crystal_description       needle
_cell_formula_units_Z            8
loop_
_atom_site_label
_atom_site_type_symbol
_atom_site_fract_x
_atom_site_fract_y
_atom_site_fract_z
S1 S 0.09586(4) 0.15440(4) 0.60840(2)
S2 S 0.21697(4) -0.03176(4) 0.79383(2)
N1 N 0.37514(12) 0.09299(14) 0.63640(8)
H1 H 0.4600 0.0562 0.6620
N2 N 0.37633(13) 0.17856(15) 0.54651(8)
C1 C 0.23979(14) 0.06778(14) 0.68338(9)
C2 C 0.23609(15) 0.21803(17) 0.52344(10)
H2 H 0.2121 0.2769 0.4649
loop_
_geom_bond_atom_site_label_1
_geom_bond_atom_site_label_2
_geom_bond_site_symmetry_1
_geom_bond_site_symmetry_2
S1 C1 1_555 1_555
S2 C1 1_555 1_555
N1 H1 1_555 1_555
N2 N1 1_555 1_555
C1 N1 1_555 1_555
C2 S1 1_555 1_555
H2 C2 1_555 1_555
N2 C2 1_555 1_555

#END
