
#######################################################################
#
#                 Cambridge Crystallographic Data Centre
#                                CCDC 
#
#######################################################################
#
# If this CIF has been generated from an entry in the Cambridge 
# Structural Database, then it will include bibliographic, chemical, 
# crystal, experimental, refinement or atomic coordinate data resulting 
# from the CCDC's data processing and validation procedures.
#
#######################################################################

data_SAZGIL
_chemical_formula_moiety         'C27 H27 Br1 N2 O7'
_chemical_name_systematic        
"1-t-Butyl 4'-ethyl 5'-methyl 5-bromo-2-oxo-5'-phenyl-4',5'-dihydrospiro[indole-3,3'-pyrrole]-1,4',5'(2H)-tricarboxylate"
_symmetry_cell_setting           orthorhombic
_symmetry_space_group_name_H-M   'P 21 21 21'
_symmetry_Int_Tables_number      19
_space_group_name_Hall           'P 2ac 2ab'
loop_
_symmetry_equiv_pos_site_id
_symmetry_equiv_pos_as_xyz
1 x,y,z
2 1/2+x,1/2-y,-z
3 -x,1/2+y,1/2-z
4 1/2-x,-y,1/2+z
_cell_length_a                   11.9894(7)
_cell_length_b                   13.0968(8)
_cell_length_c                   17.2527(10)
_cell_angle_alpha                90
_cell_angle_beta                 90
_cell_angle_gamma                90
_cell_volume                     2709.07
_exptl_crystal_colour            colorless
_exptl_crystal_description       block
_cell_formula_units_Z            4
loop_
_atom_site_label
_atom_site_type_symbol
_atom_site_fract_x
_atom_site_fract_y
_atom_site_fract_z
Br1 Br 0.398305(11) 0.803934(11) 0.809184(8)
O1 O 0.88426(9) 1.11713(7) 0.57548(6)
O2 O 0.69697(9) 1.14287(8) 0.57387(6)
O3 O 0.89128(10) 0.51000(8) 0.76876(6)
O4 O 0.75762(9) 0.62566(9) 0.79203(7)
O5 O 0.72180(11) 0.58603(9) 0.62474(8)
O6 O 0.69274(9) 0.73543(8) 0.56253(6)
O7 O 0.93797(8) 0.91989(8) 0.58965(6)
N1 N 0.77214(10) 0.99903(9) 0.62727(7)
N2 N 0.94391(10) 0.75622(9) 0.76737(7)
C1 C 1.20728(14) 0.55058(13) 0.60226(10)
H1 H 1.2719 0.5259 0.5765
C2 C 1.21752(14) 0.61053(13) 0.66800(10)
H2 H 1.2894 0.6255 0.6881
C3 C 1.12333(12) 0.64882(12) 0.70465(9)
H3 H 1.1313 0.6900 0.7497
C4 C 1.01720(12) 0.62744(11) 0.67597(8)
C5 C 0.91297(11) 0.67517(10) 0.71121(8)
C6 C 0.84168(11) 0.73074(10) 0.64833(8)
H4 H 0.8942 0.7440 0.6044
C7 C 0.81445(11) 0.83710(10) 0.68219(8)
C8 C 0.85334(12) 0.92213(11) 0.62678(8)
C9 C 0.77907(12) 1.09412(11) 0.58870(8)
C10 C 0.91365(12) 1.20918(11) 0.52869(8)
C11 C 0.86409(12) 1.19882(14) 0.44803(8)
H5 H 0.8908 1.1355 0.4241
H6 H 0.8870 1.2572 0.4163
H7 H 0.7825 1.1971 0.4517
C12 C 1.04010(12) 1.20071(15) 0.52725(9)
H8 H 1.0689 1.2035 0.5804
H9 H 1.0712 1.2574 0.4971
H10 H 1.0617 1.1358 0.5033
C13 C 0.67570(11) 0.96516(11) 0.66846(8)
C14 C 0.69616(11) 0.86999(10) 0.70080(8)
C15 C 0.61454(11) 0.82073(10) 0.74393(7)
H11 H 0.6276 0.7556 0.7664
C16 C 0.51271(12) 0.87048(12) 0.75300(8)
C17 C 0.49282(12) 0.96609(12) 0.72220(9)
H12 H 0.4231 0.9986 0.7309
C18 C 0.57481(11) 1.01522(11) 0.67821(9)
H13 H 0.5618 1.0804 0.6559
C19 C 1.10205(15) 0.52690(11) 0.57422(9)
H14 H 1.0945 0.4844 0.5299
C20 C 1.00779(13) 0.56519(12) 0.61068(9)
H15 H 0.9360 0.5488 0.5910
C21 C 0.89065(13) 0.83731(10) 0.75271(8)
H16 H 0.8980 0.8961 0.7845
C22 C 0.84302(12) 0.60059(11) 0.76101(9)
C23 C 0.83237(13) 0.43988(12) 0.81931(11)
H17 H 0.8200 0.4723 0.8698
H18 H 0.8769 0.3778 0.8263
H19 H 0.7604 0.4221 0.7960
C24 C 0.74487(12) 0.67346(12) 0.61287(8)
C25 C 0.59468(12) 0.69453(14) 0.52334(9)
H20 H 0.6037 0.6201 0.5157
H21 H 0.5869 0.7268 0.4717
C26 C 0.49197(15) 0.7148(2) 0.57059(12)
H22 H 0.4964 0.6770 0.6195
H23 H 0.4260 0.6926 0.5416
H24 H 0.4864 0.7881 0.5815
C27 C 0.87568(14) 1.30508(13) 0.56993(9)
H25 H 0.7940 1.3075 0.5706
H26 H 0.9046 1.3651 0.5426
H27 H 0.9038 1.3047 0.6233
loop_
_geom_bond_atom_site_label_1
_geom_bond_atom_site_label_2
_geom_bond_site_symmetry_1
_geom_bond_site_symmetry_2
Br1 C16 1_555 1_555
O1 C9 1_555 1_555
O2 C9 1_555 1_555
O3 C22 1_555 1_555
O4 C22 1_555 1_555
O5 C24 1_555 1_555
O6 C24 1_555 1_555
O7 C8 1_555 1_555
N1 C8 1_555 1_555
N2 C5 1_555 1_555
C1 H1 1_555 1_555
C2 C1 1_555 1_555
H2 C2 1_555 1_555
C3 C2 1_555 1_555
H3 C3 1_555 1_555
C4 C3 1_555 1_555
C5 C4 1_555 1_555
C6 C5 1_555 1_555
H4 C6 1_555 1_555
C7 C6 1_555 1_555
C8 C7 1_555 1_555
C9 N1 1_555 1_555
C10 O1 1_555 1_555
C11 C10 1_555 1_555
H5 C11 1_555 1_555
H6 C11 1_555 1_555
H7 C11 1_555 1_555
C12 C10 1_555 1_555
H8 C12 1_555 1_555
H9 C12 1_555 1_555
H10 C12 1_555 1_555
C13 N1 1_555 1_555
C14 C7 1_555 1_555
C15 C14 1_555 1_555
H11 C15 1_555 1_555
C16 C15 1_555 1_555
C17 C16 1_555 1_555
H12 C17 1_555 1_555
C18 C13 1_555 1_555
H13 C18 1_555 1_555
C19 C1 1_555 1_555
H14 C19 1_555 1_555
C20 C4 1_555 1_555
H15 C20 1_555 1_555
C21 N2 1_555 1_555
H16 C21 1_555 1_555
C22 C5 1_555 1_555
C23 O3 1_555 1_555
H17 C23 1_555 1_555
H18 C23 1_555 1_555
H19 C23 1_555 1_555
C24 C6 1_555 1_555
C25 O6 1_555 1_555
H20 C25 1_555 1_555
H21 C25 1_555 1_555
C26 C25 1_555 1_555
H22 C26 1_555 1_555
H23 C26 1_555 1_555
H24 C26 1_555 1_555
C27 C10 1_555 1_555
H25 C27 1_555 1_555
H26 C27 1_555 1_555
H27 C27 1_555 1_555
C7 C21 1_555 1_555
C13 C14 1_555 1_555
C17 C18 1_555 1_555
C19 C20 1_555 1_555

#END
