
#######################################################################
#
#                 Cambridge Crystallographic Data Centre
#                                CCDC 
#
#######################################################################
#
# If this CIF has been generated from an entry in the Cambridge 
# Structural Database, then it will include bibliographic, chemical, 
# crystal, experimental, refinement or atomic coordinate data resulting 
# from the CCDC's data processing and validation procedures.
#
#######################################################################

data_SAZSOE
_chemical_formula_moiety         'C26 H26 N2 O4 S1'
_chemical_name_systematic        
1-((4-methylphenyl)sulfonyl)-17,18-didehydro-2,7-dihydroyohimban-5,16-dione
_symmetry_cell_setting           orthorhombic
_symmetry_space_group_name_H-M   'P 21 21 21'
_symmetry_Int_Tables_number      19
_space_group_name_Hall           'P 2ac 2ab'
loop_
_symmetry_equiv_pos_site_id
_symmetry_equiv_pos_as_xyz
1 x,y,z
2 1/2-x,-y,1/2+z
3 1/2+x,1/2-y,-z
4 -x,1/2+y,1/2-z
_cell_length_a                   10.5402(4)
_cell_length_b                   11.5965(6)
_cell_length_c                   23.3877(17)
_cell_angle_alpha                90
_cell_angle_beta                 90
_cell_angle_gamma                90
_cell_volume                     2858.67
_exptl_crystal_colour            white
_cell_formula_units_Z            4
_exptl_crystal_recrystallization_method dichloromethane/n-hexane
loop_
_atom_site_label
_atom_site_type_symbol
_atom_site_fract_x
_atom_site_fract_y
_atom_site_fract_z
S1 S 0.45035(13) 0.62413(12) 0.23829(6)
O1 O 0.1237(4) 0.8605(4) 0.44769(19)
O2 O 0.7730(3) 0.6884(4) 0.3839(2)
O3 O 0.4798(3) 0.5182(3) 0.20912(16)
O4 O 0.5500(3) 0.6936(3) 0.26177(16)
N1 N 0.3086(4) 0.7692(4) 0.42439(19)
N2 N 0.3558(3) 0.5887(3) 0.29303(17)
C1 C 0.1786(5) 0.7803(5) 0.4251(3)
C2 C 0.1134(5) 0.6891(5) 0.3904(2)
H1 H 0.0233 0.7056 0.3886
H2 H 0.1243 0.6147 0.4088
C3 C 0.1670(4) 0.6841(5) 0.3304(2)
H3 H 0.1342 0.7492 0.3081
C4 C 0.1385(5) 0.5733(5) 0.2994(2)
C5 C 0.0217(6) 0.5225(7) 0.2927(3)
H4 H -0.0512 0.5583 0.3063
C6 C 0.0149(7) 0.4176(8) 0.2655(4)
H5 H -0.0636 0.3827 0.2599
C7 C 0.1246(7) 0.3631(6) 0.2461(3)
H6 H 0.1190 0.2918 0.2280
C8 C 0.2428(5) 0.4148(5) 0.2535(2)
H7 H 0.3167 0.3794 0.2407
C9 C 0.2462(5) 0.5208(5) 0.2807(2)
C10 C 0.3141(4) 0.6871(4) 0.3299(2)
H8 H 0.3433 0.7600 0.3132
C11 C 0.3660(5) 0.6748(4) 0.3906(2)
H9 H 0.3313 0.6027 0.4059
C12 C 0.5082(4) 0.6678(4) 0.3977(2)
H10 H 0.5428 0.6237 0.3660
H11 H 0.5267 0.6258 0.4325
C13 C 0.5757(4) 0.7833(4) 0.4001(2)
H12 H 0.5568 0.8254 0.3648
C14 C 0.7167(5) 0.7716(5) 0.4050(3)
C15 C 0.7858(5) 0.8633(5) 0.4336(3)
H13 H 0.8738 0.8588 0.4347
C16 C 0.7316(5) 0.9513(5) 0.4577(3)
H14 H 0.7822 1.0066 0.4753
C17 C 0.5894(5) 0.9669(5) 0.4583(3)
H15 H 0.5650 1.0194 0.4280
H16 H 0.5639 1.0008 0.4945
C18 C 0.5208(5) 0.8516(4) 0.4501(2)
H17 H 0.5308 0.8058 0.4851
C19 C 0.3800(5) 0.8735(5) 0.4406(3)
H18 H 0.3438 0.9049 0.4754
H19 H 0.3702 0.9309 0.4108
C20 C 0.3573(5) 0.7105(5) 0.1923(2)
C21 C 0.2777(6) 0.6578(5) 0.1536(3)
H20 H 0.2725 0.5778 0.1520
C22 C 0.2049(6) 0.7255(6) 0.1167(3)
H21 H 0.1502 0.6901 0.0909
C23 C 0.2129(6) 0.8428(6) 0.1180(3)
C24 C 0.2956(6) 0.8939(5) 0.1579(3)
H22 H 0.3024 0.9739 0.1592
C25 C 0.3654(5) 0.8297(5) 0.1943(3)
H23 H 0.4188 0.8653 0.2206
C26 C 0.1409(7) 0.9158(6) 0.0748(3)
H24 H 0.0514 0.9089 0.0815
H25 H 0.1600 0.8896 0.0368
H26 H 0.1658 0.9951 0.0786
loop_
_geom_bond_atom_site_label_1
_geom_bond_atom_site_label_2
_geom_bond_site_symmetry_1
_geom_bond_site_symmetry_2
S1 O3 1_555 1_555
O1 C1 1_555 1_555
O2 C14 1_555 1_555
O4 S1 1_555 1_555
N1 C1 1_555 1_555
N2 S1 1_555 1_555
C1 C2 1_555 1_555
C2 H1 1_555 1_555
H2 C2 1_555 1_555
C3 C2 1_555 1_555
H3 C3 1_555 1_555
C4 C3 1_555 1_555
C5 C4 1_555 1_555
H4 C5 1_555 1_555
C6 C5 1_555 1_555
H5 C6 1_555 1_555
C7 C6 1_555 1_555
H6 C7 1_555 1_555
C8 C7 1_555 1_555
H7 C8 1_555 1_555
C9 N2 1_555 1_555
C10 N2 1_555 1_555
H8 C10 1_555 1_555
C11 N1 1_555 1_555
H9 C11 1_555 1_555
C12 C11 1_555 1_555
H10 C12 1_555 1_555
H11 C12 1_555 1_555
C13 C12 1_555 1_555
H12 C13 1_555 1_555
C14 C13 1_555 1_555
C15 C14 1_555 1_555
H13 C15 1_555 1_555
C16 C15 1_555 1_555
H14 C16 1_555 1_555
C17 C16 1_555 1_555
H15 C17 1_555 1_555
H16 C17 1_555 1_555
C18 C13 1_555 1_555
H17 C18 1_555 1_555
C19 N1 1_555 1_555
H18 C19 1_555 1_555
H19 C19 1_555 1_555
C20 S1 1_555 1_555
C21 C20 1_555 1_555
H20 C21 1_555 1_555
C22 C21 1_555 1_555
H21 C22 1_555 1_555
C23 C22 1_555 1_555
C24 C23 1_555 1_555
H22 C24 1_555 1_555
C25 C20 1_555 1_555
H23 C25 1_555 1_555
C26 C23 1_555 1_555
H24 C26 1_555 1_555
H25 C26 1_555 1_555
H26 C26 1_555 1_555
C3 C10 1_555 1_555
C4 C9 1_555 1_555
C8 C9 1_555 1_555
C10 C11 1_555 1_555
C17 C18 1_555 1_555
C18 C19 1_555 1_555
C24 C25 1_555 1_555

#END
