
#######################################################################
#
#                 Cambridge Crystallographic Data Centre
#                                CCDC 
#
#######################################################################
#
# If this CIF has been generated from an entry in the Cambridge 
# Structural Database, then it will include bibliographic, chemical, 
# crystal, experimental, refinement or atomic coordinate data resulting 
# from the CCDC's data processing and validation procedures.
#
#######################################################################

data_SEBBEJ
_chemical_formula_moiety         'C16 H12 N8'
_chemical_name_systematic        
N,N'-bis(pyrazin-2-yl)-1,8-naphthyridine-2,7-diamine
_symmetry_cell_setting           monoclinic
_symmetry_space_group_name_H-M   'P 21/c'
_symmetry_Int_Tables_number      14
_space_group_name_Hall           '-P 2ybc'
loop_
_symmetry_equiv_pos_site_id
_symmetry_equiv_pos_as_xyz
1 x,y,z
2 -x,1/2+y,1/2-z
3 -x,-y,-z
4 x,1/2-y,1/2+z
_cell_length_a                   12.9516(5)
_cell_length_b                   12.1606(5)
_cell_length_c                   18.4241(7)
_cell_angle_alpha                90
_cell_angle_beta                 96.404(1)
_cell_angle_gamma                90
_cell_volume                     2883.67
_exptl_crystal_colour            'orange yellow'
_exptl_crystal_description       block
_cell_formula_units_Z            8
loop_
_atom_site_label
_atom_site_type_symbol
_atom_site_fract_x
_atom_site_fract_y
_atom_site_fract_z
N1 N -0.01736(10) 0.25462(11) 0.22708(7)
N2 N 0.11832(10) 0.38491(11) 0.23572(7)
H1 H 0.1616 0.4223 0.2667
N3 N 0.21715(9) 0.45434(10) 0.15260(7)
N4 N 0.32323(9) 0.54014(11) 0.07837(7)
N5 N 0.43271(10) 0.62890(11) 0.00511(7)
H2 H 0.4383 0.6535 -0.0392
N6 N 0.59171(10) 0.71005(12) 0.02956(7)
N7 N -0.00247(10) 0.25413(11) 0.37987(7)
N8 N 0.60757(11) 0.64917(12) 0.17643(8)
C1 C -0.07708(13) 0.18992(14) 0.26428(9)
H3 H -0.1259 0.1427 0.2376
C2 C -0.07063(13) 0.18904(13) 0.33883(9)
H4 H -0.1149 0.1417 0.3623
C3 C 0.05749(11) 0.31680(13) 0.34426(8)
H5 H 0.1070 0.3630 0.3712
C4 C 0.05057(11) 0.31756(12) 0.26743(8)
C5 C 0.12898(11) 0.40292(12) 0.16266(8)
C6 C 0.05298(12) 0.37367(13) 0.10473(8)
H6 H -0.0091 0.3370 0.1138
C7 C 0.07181(12) 0.39999(13) 0.03540(8)
H7 H 0.0231 0.3794 -0.0047
C8 C 0.16235(12) 0.45707(12) 0.02249(8)
C9 C 0.23354(11) 0.48334(12) 0.08359(8)
C10 C 0.18682(12) 0.49228(14) -0.04708(8)
H8 H 0.1413 0.4758 -0.0898
C11 C 0.27529(12) 0.54945(14) -0.05222(8)
H9 H 0.2921 0.5745 -0.0983
C12 C 0.34286(11) 0.57154(12) 0.01263(8)
C13 C 0.51580(12) 0.65378(12) 0.05683(8)
C14 C 0.52376(12) 0.62490(14) 0.13099(9)
H10 H 0.4678 0.5871 0.1491
C15 C 0.68342(13) 0.70358(15) 0.14867(9)
H11 H 0.7448 0.7216 0.1796
C16 C 0.67501(13) 0.73433(14) 0.07620(9)
H12 H 0.7304 0.7742 0.0589
N9 N -0.55724(10) -0.13820(12) 0.20100(7)
N10 N -0.39161(9) -0.06064(11) 0.23398(7)
H13 H -0.3398 -0.0567 0.2691
N11 N -0.27415(9) 0.00140(10) 0.16009(6)
N12 N -0.14566(9) 0.06486(10) 0.09386(7)
N13 N -0.01507(10) 0.12875(11) 0.02607(7)
H14 H -0.0040 0.1560 -0.0166
N14 N 0.16126(10) 0.14304(11) 0.04598(7)
N15 N -0.56287(10) -0.19451(11) 0.34766(7)
N16 N 0.16692(11) 0.05241(14) 0.18567(8)
C17 C -0.63790(13) -0.19082(16) 0.22502(10)
H15 H -0.6951 -0.2099 0.1905
C18 C -0.64223(13) -0.21837(15) 0.29647(9)
H16 H -0.7019 -0.2548 0.3102
C19 C -0.48210(12) -0.14487(13) 0.32520(8)
H17 H -0.4239 -0.1288 0.3596
C20 C -0.47908(11) -0.11471(12) 0.25146(8)
C21 C -0.37433(11) -0.01168(12) 0.16839(8)
C22 C -0.45639(11) 0.02619(13) 0.11773(8)
H18 H -0.5268 0.0157 0.1261
C23 C -0.43178(12) 0.07815(13) 0.05656(8)
H19 H -0.4854 0.1059 0.0220
C24 C -0.32708(11) 0.09090(12) 0.04432(8)
C25 C -0.24977(11) 0.05292(12) 0.09871(8)
C26 C -0.29402(12) 0.13983(13) -0.01893(8)
H20 H -0.3436 0.1648 -0.0573
C27 C -0.19131(12) 0.15064(13) -0.02416(8)
H21 H -0.1678 0.1829 -0.0663
C28 C -0.11847(11) 0.11283(12) 0.03457(8)
C29 C 0.07469(11) 0.10947(12) 0.07295(8)
C30 C 0.07828(12) 0.06170(14) 0.14220(9)
H22 H 0.0159 0.0352 0.1586
C31 C 0.25295(13) 0.09009(16) 0.15978(10)
H23 H 0.3174 0.0869 0.1898
C32 C 0.24963(13) 0.13328(15) 0.09050(10)
H24 H 0.3126 0.1571 0.0737
loop_
_geom_bond_atom_site_label_1
_geom_bond_atom_site_label_2
_geom_bond_site_symmetry_1
_geom_bond_site_symmetry_2
N1 C1 1_555 1_555
N2 H1 1_555 1_555
N3 C5 1_555 1_555
N4 C9 1_555 1_555
N5 H2 1_555 1_555
N6 C13 1_555 1_555
N7 C2 1_555 1_555
N8 C14 1_555 1_555
C1 H3 1_555 1_555
C2 C1 1_555 1_555
H4 C2 1_555 1_555
C3 N7 1_555 1_555
H5 C3 1_555 1_555
C4 N1 1_555 1_555
C5 N2 1_555 1_555
C6 C5 1_555 1_555
H6 C6 1_555 1_555
C7 C6 1_555 1_555
H7 C7 1_555 1_555
C8 C7 1_555 1_555
C9 N3 1_555 1_555
C10 C8 1_555 1_555
H8 C10 1_555 1_555
C11 C10 1_555 1_555
H9 C11 1_555 1_555
C12 N4 1_555 1_555
C13 N5 1_555 1_555
C14 C13 1_555 1_555
H10 C14 1_555 1_555
C15 N8 1_555 1_555
H11 C15 1_555 1_555
C16 N6 1_555 1_555
H12 C16 1_555 1_555
N9 C17 1_555 1_555
N10 H13 1_555 1_555
N11 C21 1_555 1_555
N12 C25 1_555 1_555
N13 H14 1_555 1_555
N14 C29 1_555 1_555
N15 C18 1_555 1_555
N16 C30 1_555 1_555
C17 H15 1_555 1_555
C18 C17 1_555 1_555
H16 C18 1_555 1_555
C19 N15 1_555 1_555
H17 C19 1_555 1_555
C20 N9 1_555 1_555
C21 N10 1_555 1_555
C22 C21 1_555 1_555
H18 C22 1_555 1_555
C23 C22 1_555 1_555
H19 C23 1_555 1_555
C24 C23 1_555 1_555
C25 N11 1_555 1_555
C26 C24 1_555 1_555
H20 C26 1_555 1_555
C27 C26 1_555 1_555
H21 C27 1_555 1_555
C28 N12 1_555 1_555
C29 N13 1_555 1_555
C30 C29 1_555 1_555
H22 C30 1_555 1_555
C31 N16 1_555 1_555
H23 C31 1_555 1_555
C32 N14 1_555 1_555
H24 C32 1_555 1_555
N2 C4 1_555 1_555
N5 C12 1_555 1_555
C3 C4 1_555 1_555
C8 C9 1_555 1_555
C11 C12 1_555 1_555
C15 C16 1_555 1_555
N10 C20 1_555 1_555
N13 C28 1_555 1_555
C19 C20 1_555 1_555
C24 C25 1_555 1_555
C27 C28 1_555 1_555
C31 C32 1_555 1_555

#END
