
#######################################################################
#
#                 Cambridge Crystallographic Data Centre
#                                CCDC 
#
#######################################################################
#
# If this CIF has been generated from an entry in the Cambridge 
# Structural Database, then it will include bibliographic, chemical, 
# crystal, experimental, refinement or atomic coordinate data resulting 
# from the CCDC's data processing and validation procedures.
#
#######################################################################

data_SEBCAE
_chemical_formula_moiety         'C16 H42 F6 O6 S2 Si7'
_chemical_name_systematic        
1,1,1,3,3,5,5,5-Octamethyl-2,4-bis(trifluoromethanesulfonato)-2,4-bis(trimethylsilyl)pentasilane
_symmetry_cell_setting           monoclinic
_symmetry_space_group_name_H-M   'P 21/c'
_symmetry_Int_Tables_number      14
_space_group_name_Hall           '-P 2ybc'
loop_
_symmetry_equiv_pos_site_id
_symmetry_equiv_pos_as_xyz
1 x,y,z
2 -x,1/2+y,1/2-z
3 -x,-y,-z
4 x,1/2-y,1/2+z
_cell_length_a                   8.992(2)
_cell_length_b                   16.534(3)
_cell_length_c                   23.992(5)
_cell_angle_alpha                90
_cell_angle_beta                 92.85(3)
_cell_angle_gamma                90
_cell_volume                     3562.57
_exptl_crystal_colour            colorless
_exptl_crystal_description       prism
_cell_formula_units_Z            4
loop_
_atom_site_label
_atom_site_type_symbol
_atom_site_fract_x
_atom_site_fract_y
_atom_site_fract_z
C1 C 0.4672(7) 0.4384(3) 0.5830(2)
F1 F 0.4664(4) 0.4238(2) 0.52825(14)
F2 F 0.4766(5) 0.5179(2) 0.58879(15)
F3 F 0.5793(4) 0.4047(3) 0.6074(2)
S1 S 0.23161(10) -0.04891(5) 0.63460(4)
S2 S 0.29424(11) 0.40399(6) 0.60929(4)
Si1 Si 0.03819(10) 0.17841(5) 0.60943(4)
Si2 Si 0.15394(10) 0.11084(5) 0.68651(4)
Si3 Si 0.18748(10) 0.25094(5) 0.54865(4)
Si4 Si -0.02998(11) 0.05203(6) 0.74203(4)
Si5 Si 0.33073(11) 0.18253(6) 0.74327(4)
Si6 Si 0.03350(12) 0.32294(6) 0.48219(4)
Si7 Si 0.37000(11) 0.17578(6) 0.50353(4)
O1 O 0.2669(3) 0.03522(14) 0.65712(11)
O2 O 0.2732(3) -0.0567(2) 0.57880(11)
O3 O 0.0893(3) -0.0755(2) 0.64997(12)
O4 O 0.2972(3) 0.31699(14) 0.59249(11)
O5 O 0.3151(4) 0.4113(2) 0.66877(12)
O6 O 0.1748(4) 0.4457(2) 0.58174(14)
F4 F 0.3611(4) -0.0924(2) 0.72940(11)
F5 F 0.5048(3) -0.0879(2) 0.66186(13)
F6 F 0.3493(3) -0.18448(14) 0.66658(12)
C2 C -0.0979(4) 0.2486(2) 0.6412(2)
H1 H -0.0437(4) 0.2886(2) 0.6645(2)
H2 H -0.1645(4) 0.2175(2) 0.6642(2)
H3 H -0.1566(4) 0.2764(2) 0.6115(2)
C3 C -0.0590(4) 0.1001(2) 0.5641(2)
H4 H 0.0151(4) 0.0645(2) 0.5482(2)
H5 H -0.1174(4) 0.1269(2) 0.5339(2)
H6 H -0.1253(4) 0.0680(2) 0.5866(2)
C4 C -0.1976(4) 0.0152(3) 0.7011(2)
H7 H -0.2397(4) 0.0594(3) 0.6781(2)
H8 H -0.2719(4) -0.0037(3) 0.7266(2)
H9 H -0.1696(4) -0.0295(3) 0.6769(2)
C5 C 0.0524(5) -0.0314(3) 0.7863(2)
H10 H 0.1405(5) -0.0113(3) 0.8077(2)
H11 H 0.0811(5) -0.0763(3) 0.7624(2)
H12 H -0.0213(5) -0.0504(3) 0.8121(2)
C6 C -0.0904(5) 0.1349(3) 0.7891(2)
H13 H -0.0039(5) 0.1554(3) 0.8112(2)
H14 H -0.1639(5) 0.1137(3) 0.8141(2)
H15 H -0.1350(5) 0.1789(3) 0.7666(2)
C7 C 0.3957(5) 0.1163(3) 0.8023(2)
H16 H 0.3107(5) 0.1011(3) 0.8241(2)
H17 H 0.4690(5) 0.1455(3) 0.8262(2)
H18 H 0.4416(5) 0.0675(3) 0.7876(2)
C8 C 0.2378(5) 0.2744(3) 0.7706(2)
H19 H 0.2039(5) 0.3090(3) 0.7393(2)
H20 H 0.3086(5) 0.3044(3) 0.7951(2)
H21 H 0.1522(5) 0.2581(3) 0.7916(2)
C9 C 0.4956(4) 0.2098(3) 0.7033(2)
H22 H 0.4643(4) 0.2447(3) 0.6719(2)
H23 H 0.5410(4) 0.1604(3) 0.6891(2)
H24 H 0.5684(4) 0.2385(3) 0.7278(2)
C10 C -0.1301(6) 0.3698(3) 0.5119(2)
H25 H -0.1854(6) 0.3288(3) 0.5319(2)
H26 H -0.1946(6) 0.3928(3) 0.4817(2)
H27 H -0.0977(6) 0.4129(3) 0.5378(2)
C11 C 0.1403(6) 0.3995(3) 0.4439(2)
H28 H 0.2272(6) 0.3737(3) 0.4284(2)
H29 H 0.1735(6) 0.4426(3) 0.4697(2)
H30 H 0.0766(6) 0.4225(3) 0.4136(2)
C12 C -0.0313(7) 0.2442(3) 0.4308(2)
H31 H 0.0550(7) 0.2187(3) 0.4147(2)
H32 H -0.0940(7) 0.2694(3) 0.4011(2)
H33 H -0.0891(7) 0.2031(3) 0.4497(2)
C13 C 0.4632(6) 0.2427(3) 0.4532(2)
H34 H 0.3889(6) 0.2638(3) 0.4257(2)
H35 H 0.5383(6) 0.2117(3) 0.4341(2)
H36 H 0.5114(6) 0.2879(3) 0.4735(2)
C14 C 0.2818(5) 0.0881(3) 0.4663(2)
H37 H 0.2056(5) 0.1075(3) 0.4389(2)
H38 H 0.2356(5) 0.0526(3) 0.4932(2)
H39 H 0.3578(5) 0.0578(3) 0.4471(2)
C15 C 0.5137(5) 0.1369(3) 0.5551(2)
H40 H 0.5614(5) 0.1824(3) 0.5751(2)
H41 H 0.5889(5) 0.1065(3) 0.5356(2)
H42 H 0.4667(5) 0.1013(3) 0.5817(2)
C16 C 0.3696(5) -0.1069(2) 0.6758(2)
loop_
_geom_bond_atom_site_label_1
_geom_bond_atom_site_label_2
_geom_bond_site_symmetry_1
_geom_bond_site_symmetry_2
C1 F1 1_555 1_555
F2 C1 1_555 1_555
F3 C1 1_555 1_555
S1 O1 1_555 1_555
S2 C1 1_555 1_555
Si1 Si2 1_555 1_555
Si2 Si4 1_555 1_555
Si3 Si1 1_555 1_555
Si4 C4 1_555 1_555
Si5 Si2 1_555 1_555
Si6 Si3 1_555 1_555
Si7 Si3 1_555 1_555
O1 Si2 1_555 1_555
O2 S1 1_555 1_555
O3 S1 1_555 1_555
O4 S2 1_555 1_555
O5 S2 1_555 1_555
O6 S2 1_555 1_555
F4 C16 1_555 1_555
F5 C16 1_555 1_555
F6 C16 1_555 1_555
C2 Si1 1_555 1_555
H1 C2 1_555 1_555
H2 C2 1_555 1_555
H3 C2 1_555 1_555
C3 Si1 1_555 1_555
H4 C3 1_555 1_555
H5 C3 1_555 1_555
H6 C3 1_555 1_555
C4 H7 1_555 1_555
H8 C4 1_555 1_555
H9 C4 1_555 1_555
C5 Si4 1_555 1_555
H10 C5 1_555 1_555
H11 C5 1_555 1_555
H12 C5 1_555 1_555
C6 Si4 1_555 1_555
H13 C6 1_555 1_555
H14 C6 1_555 1_555
H15 C6 1_555 1_555
C7 Si5 1_555 1_555
H16 C7 1_555 1_555
H17 C7 1_555 1_555
H18 C7 1_555 1_555
C8 Si5 1_555 1_555
H19 C8 1_555 1_555
H20 C8 1_555 1_555
H21 C8 1_555 1_555
C9 Si5 1_555 1_555
H22 C9 1_555 1_555
H23 C9 1_555 1_555
H24 C9 1_555 1_555
C10 Si6 1_555 1_555
H25 C10 1_555 1_555
H26 C10 1_555 1_555
H27 C10 1_555 1_555
C11 Si6 1_555 1_555
H28 C11 1_555 1_555
H29 C11 1_555 1_555
H30 C11 1_555 1_555
C12 Si6 1_555 1_555
H31 C12 1_555 1_555
H32 C12 1_555 1_555
H33 C12 1_555 1_555
C13 Si7 1_555 1_555
H34 C13 1_555 1_555
H35 C13 1_555 1_555
H36 C13 1_555 1_555
C14 Si7 1_555 1_555
H37 C14 1_555 1_555
H38 C14 1_555 1_555
H39 C14 1_555 1_555
C15 Si7 1_555 1_555
H40 C15 1_555 1_555
H41 C15 1_555 1_555
H42 C15 1_555 1_555
C16 S1 1_555 1_555
Si3 O4 1_555 1_555

#END
