
#######################################################################
#
#                 Cambridge Crystallographic Data Centre
#                                CCDC 
#
#######################################################################
#
# If this CIF has been generated from an entry in the Cambridge 
# Structural Database, then it will include bibliographic, chemical, 
# crystal, experimental, refinement or atomic coordinate data resulting 
# from the CCDC's data processing and validation procedures.
#
#######################################################################

data_SEBJOB
_chemical_formula_moiety         'C10 H12 N3 1+,C8 H6 Cl1 O3 1-'
_chemical_name_systematic        
'2-amino-5,7-dimethyl-1,8-naphthyridin-1-ium (4-chlorophenoxy)acetate'
_symmetry_cell_setting           monoclinic
_symmetry_space_group_name_H-M   'P 21/c'
_symmetry_Int_Tables_number      14
_space_group_name_Hall           '-P 2ybc'
loop_
_symmetry_equiv_pos_site_id
_symmetry_equiv_pos_as_xyz
1 x,y,z
2 -x,1/2+y,1/2-z
3 -x,-y,-z
4 x,1/2-y,1/2+z
_cell_length_a                   7.8519(5)
_cell_length_b                   14.7443(16)
_cell_length_c                   14.4940(15)
_cell_angle_alpha                90
_cell_angle_beta                 93.6010(10)
_cell_angle_gamma                90
_cell_volume                     1674.67
_exptl_crystal_colour            colorless
_exptl_crystal_description       block
_cell_formula_units_Z            4
loop_
_atom_site_label
_atom_site_type_symbol
_atom_site_fract_x
_atom_site_fract_y
_atom_site_fract_z
Cl1 Cl 0.86345(11) 0.64019(5) -0.11684(6)
O1 O 0.5569(3) 0.14331(12) 0.19333(13)
O2 O 0.4852(3) 0.26626(13) 0.26905(14)
O3 O 0.6161(3) 0.37590(12) 0.14570(13)
C1 C 0.5449(3) 0.22787(18) 0.20326(18)
C2 C 0.6095(4) 0.28198(17) 0.12435(19)
H1 H 0.7226 0.2609 0.1115
H2 H 0.5348 0.2725 0.0693
C3 C 0.6742(3) 0.43329(18) 0.08044(18)
C4 C 0.6903(4) 0.52322(19) 0.1060(2)
H3 H 0.6621 0.5412 0.1646
C5 C 0.7477(4) 0.5863(2) 0.0457(2)
H4 H 0.7576 0.6468 0.0633
C6 C 0.7904(3) 0.55990(19) -0.0403(2)
C7 C 0.7730(4) 0.4719(2) -0.0673(2)
H5 H 0.8007 0.4546 -0.1263
C8 C 0.7142(4) 0.40820(19) -0.0071(2)
H6 H 0.7016 0.3481 -0.0257
N1 N 0.3253(3) 0.52833(13) 0.42646(13)
H7 H 0.3509 0.5779 0.3992
N2 N 0.2078(3) 0.61866(13) 0.53452(14)
N3 N 0.4402(3) 0.44992(15) 0.30892(15)
H8 H 0.4613 0.5006 0.2825
H9 H 0.4672 0.3996 0.2836
C9 C 0.3670(3) 0.44944(16) 0.38747(16)
C10 C 0.3321(3) 0.36709(17) 0.43467(18)
H10 H 0.3629 0.3115 0.4104
C11 C 0.2539(3) 0.37073(17) 0.51482(18)
H11 H 0.2310 0.3169 0.5451
C12 C 0.2051(3) 0.45468(16) 0.55454(17)
C13 C 0.2435(3) 0.53440(16) 0.50775(16)
C14 C 0.1282(3) 0.62559(17) 0.61309(17)
C15 C 0.0848(3) 0.54981(18) 0.66423(18)
H12 H 0.0303 0.5583 0.7187
C16 C 0.1201(3) 0.46341(18) 0.63667(18)
C17 C 0.0874(4) 0.71940(19) 0.6444(2)
H13 H 0.1894 0.7477 0.6707
H14 H 0.0043 0.7163 0.6902
H15 H 0.0425 0.7543 0.5926
C18 C 0.0700(4) 0.38214(19) 0.69043(19)
H16 H 0.0148 0.4015 0.7443
H17 H 0.1699 0.3476 0.7089
H18 H -0.0071 0.3452 0.6526
loop_
_geom_bond_atom_site_label_1
_geom_bond_atom_site_label_2
_geom_bond_site_symmetry_1
_geom_bond_site_symmetry_2
Cl1 C6 1_555 1_555
O1 C1 1_555 1_555
O2 C1 1_555 1_555
O3 C2 1_555 1_555
C1 C2 1_555 1_555
C2 H1 1_555 1_555
H2 C2 1_555 1_555
C3 O3 1_555 1_555
C4 C3 1_555 1_555
H3 C4 1_555 1_555
C5 C4 1_555 1_555
H4 C5 1_555 1_555
C6 C5 1_555 1_555
C7 C6 1_555 1_555
H5 C7 1_555 1_555
C8 C3 1_555 1_555
H6 C8 1_555 1_555
N1 H7 1_555 1_555
N2 C13 1_555 1_555
N3 H8 1_555 1_555
H9 N3 1_555 1_555
C9 N1 1_555 1_555
C10 C9 1_555 1_555
H10 C10 1_555 1_555
C11 C10 1_555 1_555
H11 C11 1_555 1_555
C12 C11 1_555 1_555
C13 N1 1_555 1_555
C14 N2 1_555 1_555
C15 C14 1_555 1_555
H12 C15 1_555 1_555
C16 C12 1_555 1_555
C17 C14 1_555 1_555
H13 C17 1_555 1_555
H14 C17 1_555 1_555
H15 C17 1_555 1_555
C18 C16 1_555 1_555
H16 C18 1_555 1_555
H17 C18 1_555 1_555
H18 C18 1_555 1_555
C7 C8 1_555 1_555
N3 C9 1_555 1_555
C12 C13 1_555 1_555
C15 C16 1_555 1_555

#END
