
#######################################################################
#
#                 Cambridge Crystallographic Data Centre
#                                CCDC 
#
#######################################################################
#
# If this CIF has been generated from an entry in the Cambridge 
# Structural Database, then it will include bibliographic, chemical, 
# crystal, experimental, refinement or atomic coordinate data resulting 
# from the CCDC's data processing and validation procedures.
#
#######################################################################

data_SEBJUH
_chemical_formula_moiety         
'C10 H12 O4,C10 H12 N3 1+,C10 H11 O4 1-,C10 H11 N3,H2 O1'
_chemical_name_systematic        
'2-amino-5,7-dimethyl-1,8-naphthyridin-1-ium (3,4-dimethoxyphenyl)acetate 5,7-dimethyl-1,8-naphthyridin-2-amine (3,4-dimethoxyphenyl)acetic acid monohydrate'
_symmetry_cell_setting           triclinic
_symmetry_space_group_name_H-M   'P -1'
_symmetry_Int_Tables_number      2
_space_group_name_Hall           '-P 1'
loop_
_symmetry_equiv_pos_site_id
_symmetry_equiv_pos_as_xyz
1 x,y,z
2 -x,-y,-z
_cell_length_a                   6.9471(6)
_cell_length_b                   12.7714(11)
_cell_length_c                   23.668(2)
_cell_angle_alpha                101.557(2)
_cell_angle_beta                 92.4620(10)
_cell_angle_gamma                97.6970(10)
_cell_volume                     2033.54
_exptl_crystal_colour            colorless
_exptl_crystal_description       BLOCK
_cell_formula_units_Z            2
loop_
_atom_site_label
_atom_site_type_symbol
_atom_site_fract_x
_atom_site_fract_y
_atom_site_fract_z
N1 N 0.2778(9) 0.5790(5) 0.0927(3)
H1 H 0.2642 0.5320 0.0607
N2 N 0.2223(9) 0.4388(4) 0.1404(3)
N3 N 0.3293(11) 0.7190(5) 0.0429(3)
H2 H 0.3121 0.6722 0.0108
H3 H 0.3542 0.7867 0.0427
C1 C 0.3173(11) 0.6864(5) 0.0931(3)
C2 C 0.3396(12) 0.7647(6) 0.1456(4)
H4 H 0.3645 0.8377 0.1447
C3 C 0.3251(12) 0.7339(6) 0.1968(3)
H5 H 0.3428 0.7857 0.2311
C4 C 0.2823(11) 0.6215(6) 0.1984(3)
C5 C 0.2604(11) 0.5477(5) 0.1437(3)
C6 C 0.2061(11) 0.4029(5) 0.1896(3)
C7 C 0.2217(12) 0.4694(6) 0.2444(3)
H6 H 0.2054 0.4400 0.2771
C8 C 0.2635(11) 0.5840(6) 0.2496(3)
C9 C 0.1636(15) 0.2812(6) 0.1817(4)
H7 H 0.0346 0.2561 0.1638
H8 H 0.1730 0.2617 0.2188
H9 H 0.2563 0.2486 0.1576
C10 C 0.2806(14) 0.6567(7) 0.3089(3)
H10 H 0.4082 0.6983 0.3160
H11 H 0.2601 0.6135 0.3375
H12 H 0.1845 0.7045 0.3108
N4 N 0.2183(9) 0.4116(5) 0.9811(3)
N5 N 0.2767(10) 0.5505(6) 0.9332(3)
N6 N 0.1745(12) 0.2828(5) 1.0343(3)
H13 H 0.1881 0.3333 1.0649
H14 H 0.1535 0.2163 1.0372
C11 C 0.1856(12) 0.3070(6) 0.9837(3)
C12 C 0.1553(14) 0.2252(7) 0.9320(4)
H15 H 0.1300 0.1525 0.9335
C13 C 0.1647(13) 0.2572(8) 0.8791(4)
H16 H 0.1448 0.2044 0.8452
C14 C 0.2033(12) 0.3663(7) 0.8749(3)
C15 C 0.2350(11) 0.4454(6) 0.9277(3)
C16 C 0.2873(13) 0.5854(8) 0.8816(4)
C17 C 0.2600(13) 0.5128(9) 0.8275(4)
H17 H 0.2679 0.5389 0.7936
C18 C 0.2231(12) 0.4074(8) 0.8249(4)
C19 C 0.3360(17) 0.7079(8) 0.8879(4)
H18 H 0.3271 0.7428 0.9274
H19 H 0.2456 0.7322 0.8634
H20 H 0.4659 0.7253 0.8769
C20 C 0.1925(15) 0.3241(9) 0.7659(4)
H21 H 0.1664 0.3606 0.7353
H22 H 0.0844 0.2694 0.7671
H23 H 0.3080 0.2911 0.7591
O1 O 0.5579(17) 0.0318(8) 0.1438(5)
H24 H 0.4757 0.0282 0.1674
O2 O 0.8792(9) 0.0315(4) 0.1397(3)
O3 O 1.1013(9) 0.3448(4) 0.3768(2)
O4 O 0.8252(10) 0.4591(5) 0.3659(3)
C21 C 0.730(2) 0.0331(10) 0.1685(6)
C22 C 0.7552(14) 0.0311(6) 0.2327(3)
H25 H 0.6441 -0.0127 0.2439
H26 H 0.8716 0.0005 0.2405
C23 C 0.7722(14) 0.1457(6) 0.2663(3)
C24 C 0.9319(13) 0.1911(6) 0.3048(3)
H27 H 1.0306 0.1502 0.3092
C25 C 0.9483(13) 0.2960(6) 0.3371(3)
C26 C 0.8018(14) 0.3569(6) 0.3308(4)
C27 C 0.6424(14) 0.3132(7) 0.2925(4)
H28 H 0.5447 0.3544 0.2875
C28 C 0.6283(15) 0.2078(8) 0.2616(4)
H29 H 0.5181 0.1784 0.2369
C29 C 1.2338(15) 0.2770(8) 0.3944(4)
H30 H 1.1608 0.2166 0.4061
H31 H 1.3203 0.3181 0.4261
H32 H 1.3080 0.2514 0.3625
C30 C 0.6679(19) 0.5181(9) 0.3691(5)
H33 H 0.6262 0.5249 0.3309
H34 H 0.7078 0.5887 0.3928
H35 H 0.5622 0.4812 0.3856
O5 O 0.3148(10) -0.0120(6) 0.2938(3)
O6 O 0.0612(14) -0.0730(9) 0.3300(4)
O7 O 0.3372(10) 0.2248(5) 0.5601(3)
O8 O 0.6538(10) 0.3355(5) 0.5387(3)
C31 C 0.2373(18) -0.0470(7) 0.3337(4)
C32 C 0.3639(16) -0.0597(7) 0.3842(4)
H36 H 0.4714 -0.0960 0.3698
H37 H 0.2885 -0.1056 0.4058
C33 C 0.4454(15) 0.0458(6) 0.4249(4)
C34 C 0.3502(14) 0.0830(7) 0.4734(4)
H38 H 0.2364 0.0425 0.4810
C35 C 0.4222(14) 0.1802(7) 0.5111(4)
C36 C 0.5952(14) 0.2405(6) 0.4998(4)
C37 C 0.6880(14) 0.2034(7) 0.4508(4)
H39 H 0.8003 0.2443 0.4425
C38 C 0.6164(14) 0.1070(7) 0.4143(4)
H40 H 0.6827 0.0822 0.3821
C39 C 0.1602(17) 0.1650(9) 0.5717(5)
H41 H 0.0702 0.1500 0.5381
H42 H 0.1048 0.2064 0.6037
H43 H 0.1864 0.0983 0.5810
C40 C 0.8247(18) 0.4042(8) 0.5278(4)
H44 H 0.9359 0.3671 0.5286
H45 H 0.8455 0.4694 0.5570
H46 H 0.8063 0.4217 0.4905
O9 O 0.1607(14) 0.0135(5) 0.1992(3)
H47 H 0.1695 0.0047 0.2338
H48 H 0.0428 0.0171 0.1897
loop_
_geom_bond_atom_site_label_1
_geom_bond_atom_site_label_2
_geom_bond_site_symmetry_1
_geom_bond_site_symmetry_2
N1 H1 1_555 1_555
N2 C5 1_555 1_555
N3 H2 1_555 1_555
H3 N3 1_555 1_555
C1 N1 1_555 1_555
C2 C1 1_555 1_555
H4 C2 1_555 1_555
C3 C2 1_555 1_555
H5 C3 1_555 1_555
C4 C3 1_555 1_555
C5 N1 1_555 1_555
C6 N2 1_555 1_555
C7 C6 1_555 1_555
H6 C7 1_555 1_555
C8 C4 1_555 1_555
C9 C6 1_555 1_555
H7 C9 1_555 1_555
H8 C9 1_555 1_555
H9 C9 1_555 1_555
C10 C8 1_555 1_555
H10 C10 1_555 1_555
H11 C10 1_555 1_555
H12 C10 1_555 1_555
N4 C11 1_555 1_555
N5 C15 1_555 1_555
N6 H13 1_555 1_555
H14 N6 1_555 1_555
C11 N6 1_555 1_555
C12 C11 1_555 1_555
H15 C12 1_555 1_555
C13 C12 1_555 1_555
H16 C13 1_555 1_555
C14 C13 1_555 1_555
C15 N4 1_555 1_555
C16 N5 1_555 1_555
C17 C16 1_555 1_555
H17 C17 1_555 1_555
C18 C14 1_555 1_555
C19 C16 1_555 1_555
H18 C19 1_555 1_555
H19 C19 1_555 1_555
H20 C19 1_555 1_555
C20 C18 1_555 1_555
H21 C20 1_555 1_555
H22 C20 1_555 1_555
H23 C20 1_555 1_555
O1 H24 1_555 1_555
O2 C21 1_555 1_555
O3 C25 1_555 1_555
O4 C26 1_555 1_555
C21 O1 1_555 1_555
C22 C21 1_555 1_555
H25 C22 1_555 1_555
H26 C22 1_555 1_555
C23 C22 1_555 1_555
C24 C23 1_555 1_555
H27 C24 1_555 1_555
C25 C24 1_555 1_555
C26 C25 1_555 1_555
C27 C26 1_555 1_555
H28 C27 1_555 1_555
C28 C23 1_555 1_555
H29 C28 1_555 1_555
C29 O3 1_555 1_555
H30 C29 1_555 1_555
H31 C29 1_555 1_555
H32 C29 1_555 1_555
C30 O4 1_555 1_555
H33 C30 1_555 1_555
H34 C30 1_555 1_555
H35 C30 1_555 1_555
O5 C31 1_555 1_555
O6 C31 1_555 1_555
O7 C35 1_555 1_555
O8 C36 1_555 1_555
C31 C32 1_555 1_555
C32 H36 1_555 1_555
H37 C32 1_555 1_555
C33 C32 1_555 1_555
C34 C33 1_555 1_555
H38 C34 1_555 1_555
C35 C34 1_555 1_555
C36 C35 1_555 1_555
C37 C36 1_555 1_555
H39 C37 1_555 1_555
C38 C33 1_555 1_555
H40 C38 1_555 1_555
C39 O7 1_555 1_555
H41 C39 1_555 1_555
H42 C39 1_555 1_555
H43 C39 1_555 1_555
C40 O8 1_555 1_555
H44 C40 1_555 1_555
H45 C40 1_555 1_555
H46 C40 1_555 1_555
O9 H47 1_555 1_555
H48 O9 1_555 1_555
N3 C1 1_555 1_555
C4 C5 1_555 1_555
C7 C8 1_555 1_555
C14 C15 1_555 1_555
C17 C18 1_555 1_555
C27 C28 1_555 1_555
C37 C38 1_555 1_555

#END
