
#######################################################################
#
#                 Cambridge Crystallographic Data Centre
#                                CCDC 
#
#######################################################################
#
# If this CIF has been generated from an entry in the Cambridge 
# Structural Database, then it will include bibliographic, chemical, 
# crystal, experimental, refinement or atomic coordinate data resulting 
# from the CCDC's data processing and validation procedures.
#
#######################################################################

data_SEBPOE
_chemical_formula_moiety         'C20 H23 N1 O2'
_chemical_name_systematic        
trans-6,6a,7,8,9,13b-Hexahydro-11-methoxy-7-methyl-5H-benzo(d)naphth(2,1-b)azepin-12-ol
_symmetry_cell_setting           monoclinic
_symmetry_space_group_name_H-M   'P 21/c'
_symmetry_Int_Tables_number      14
_space_group_name_Hall           '-P 2ybc'
loop_
_symmetry_equiv_pos_site_id
_symmetry_equiv_pos_as_xyz
1 x,y,z
2 -x,1/2+y,1/2-z
3 -x,-y,-z
4 x,1/2-y,1/2+z
_cell_length_a                   8.048(1)
_cell_length_b                   19.394(3)
_cell_length_c                   10.899(1)
_cell_angle_alpha                90
_cell_angle_beta                 108.92(1)
_cell_angle_gamma                90
_cell_volume                     1609.24
_chemical_melting_point          198-199deg.C
_cell_formula_units_Z            4
loop_
_atom_site_label
_atom_site_type_symbol
_atom_site_fract_x
_atom_site_fract_y
_atom_site_fract_z
C1 C 0.3095(3) 0.35925(14) 0.1466(2)
C2 C 0.1842(4) 0.40821(15) 0.0884(3)
C3 C 0.1250(4) 0.45290(15) 0.1632(3)
C4 C 0.1945(4) 0.44996(15) 0.2970(3)
C5 C 0.3228(3) 0.40131(14) 0.3572(3)
C6 C 0.4125(4) 0.40154(15) 0.5022(3)
C7 C 0.6061(4) 0.38578(14) 0.5320(3)
C8 C 0.6252(3) 0.31242(13) 0.4874(2)
N1 N 0.8125(3) 0.29213(11) 0.5215(2)
C9 C 0.8324(3) 0.21639(15) 0.5236(3)
C10 C 0.7490(3) 0.17831(15) 0.3952(3)
C11 C 0.5519(3) 0.17019(14) 0.3539(2)
C12 C 0.4825(3) 0.10326(13) 0.3410(2)
C13 C 0.3033(2) 0.09246(13) 0.3006(3)
C14 C 0.1897(3) 0.14844(13) 0.2735(2)
C15 C 0.2582(3) 0.21466(13) 0.2870(2)
C16 C 0.4393(3) 0.22642(13) 0.3257(2)
C17 C 0.5155(3) 0.29944(12) 0.3420(2)
C18 C 0.3797(3) 0.35455(12) 0.2818(2)
C19 C 0.9120(4) 0.32643(18) 0.4473(3)
O1 O 0.2241(3) 0.02879(10) 0.2830(2)
O2 O 0.0140(2) 0.13550(10) 0.2377(2)
C20 C 0.3329(5) -0.02961(16) 0.3106(4)
H1 H 0.351 0.3267 0.091
H2 H 0.136 0.4112 -0.008
H3 H 0.032 0.4875 0.121
H4 H 0.153 0.4830 0.351
H5 H 0.355 0.3639 0.545
H6 H 0.398 0.4502 0.540
H7 H 0.671 0.3900 0.632
H8 H 0.661 0.4208 0.483
H9 H 0.570 0.2792 0.539
H10 H 0.776 0.1968 0.591
H11 H 0.968 0.2054 0.555
H12 H 0.805 0.1289 0.404
H13 H 0.780 0.2056 0.322
H14 H 0.564 0.0628 0.361
H15 H 0.176 0.2549 0.269
H16 H 0.603 0.3033 0.288
H17 H 0.893 0.3800 0.449
H18 H 1.046 0.3150 0.489
H19 H 0.868 0.3088 0.351
H20 H -0.055 0.1594 0.164
H21 H 0.255 -0.0743 0.293
H22 H 0.413 -0.0297 0.251
H23 H 0.412 -0.0285 0.408
loop_
_geom_bond_atom_site_label_1
_geom_bond_atom_site_label_2
_geom_bond_site_symmetry_1
_geom_bond_site_symmetry_2
C1 C2 1_555 1_555
C2 C3 1_555 1_555
C3 C4 1_555 1_555
C4 C5 1_555 1_555
C5 C6 1_555 1_555
C6 C7 1_555 1_555
C7 C8 1_555 1_555
C8 N1 1_555 1_555
N1 C9 1_555 1_555
C9 C10 1_555 1_555
C10 C11 1_555 1_555
C11 C12 1_555 1_555
C12 C13 1_555 1_555
C13 C14 1_555 1_555
C14 C15 1_555 1_555
C15 C16 1_555 1_555
C16 C11 1_555 1_555
C17 C8 1_555 1_555
C18 C1 1_555 1_555
C19 N1 1_555 1_555
O1 C13 1_555 1_555
O2 C14 1_555 1_555
C20 O1 1_555 1_555
H1 C1 1_555 1_555
H2 C2 1_555 1_555
H3 C3 1_555 1_555
H4 C4 1_555 1_555
H5 C6 1_555 1_555
H6 C6 1_555 1_555
H7 C7 1_555 1_555
H8 C7 1_555 1_555
H9 C8 1_555 1_555
H10 C9 1_555 1_555
H11 C9 1_555 1_555
H12 C10 1_555 1_555
H13 C10 1_555 1_555
H14 C12 1_555 1_555
H15 C15 1_555 1_555
H16 C17 1_555 1_555
H17 C19 1_555 1_555
H18 C19 1_555 1_555
H19 C19 1_555 1_555
H20 O2 1_555 1_555
H21 C20 1_555 1_555
H22 C20 1_555 1_555
H23 C20 1_555 1_555
C5 C18 1_555 1_555
C16 C17 1_555 1_555
C17 C18 1_555 1_555

#END
