
#######################################################################
#
#                 Cambridge Crystallographic Data Centre
#                                CCDC 
#
#######################################################################
#
# If this CIF has been generated from an entry in the Cambridge 
# Structural Database, then it will include bibliographic, chemical, 
# crystal, experimental, refinement or atomic coordinate data resulting 
# from the CCDC's data processing and validation procedures.
#
#######################################################################

data_SECFEL
_chemical_formula_moiety         'C16 H36 N4 O1 2+,2(C6 H2 N3 O7 1-)'
_chemical_name_systematic        
'12,17-Dimethyl-5-oxa-1,9-diaza-12,17-diazoniabicyclo(7.5.5)nonadecane dipicrate'
_symmetry_cell_setting           monoclinic
_symmetry_space_group_name_H-M   'P 21/n'
_symmetry_Int_Tables_number      14
_space_group_name_Hall           '-P 2yn'
loop_
_symmetry_equiv_pos_site_id
_symmetry_equiv_pos_as_xyz
1 x,y,z
2 1/2-x,1/2+y,1/2-z
3 -x,-y,-z
4 1/2+x,1/2-y,1/2+z
_cell_length_a                   12.868(2)
_cell_length_b                   17.201(2)
_cell_length_c                   16.614(2)
_cell_angle_alpha                90
_cell_angle_beta                 110.18(1)
_cell_angle_gamma                90
_cell_volume                     3451.64
_exptl_crystal_colour            yellow
_cell_formula_units_Z            4
loop_
_atom_site_label
_atom_site_type_symbol
_atom_site_fract_x
_atom_site_fract_y
_atom_site_fract_z
N1 N 0.2598(4) 0.8401(3) 0.4568(3)
H1 H 0.2389(55) 0.8618(41) 0.4003(45)
C1 C 0.2992(5) 0.7582(4) 0.4499(4)
C2 C 0.2331(5) 0.7219(4) 0.3654(4)
N2 N 0.2235(4) 0.7723(3) 0.2926(3)
C3 C 0.1371(5) 0.7445(4) 0.2151(4)
C4 C 0.0261(5) 0.7792(4) 0.2092(4)
N3 N 0.0311(4) 0.8661(3) 0.2038(3)
H2 H 0.1028(47) 0.8843(32) 0.2395(36)
C5 C -0.0613(5) 0.9055(4) 0.2252(4)
C6 C -0.0410(5) 0.9056(4) 0.3195(4)
N4 N 0.0662(4) 0.9388(3) 0.3693(3)
C7 C 0.0981(5) 0.9162(4) 0.4606(4)
C8 C 0.1540(5) 0.8383(4) 0.4768(4)
C9 C 0.3504(5) 0.8848(4) 0.5219(4)
C10 C 0.3318(6) 0.7816(5) 0.2798(5)
C11 C 0.3429(8) 0.8565(5) 0.2347(5)
C12 C 0.3456(7) 0.9307(5) 0.2770(6)
O1 O 0.2476(4) 0.9486(3) 0.2942(3)
C13 C 0.2413(7) 1.0303(5) 0.3118(5)
C14 C 0.1175(11) 1.0549(8) 0.3033(9)
C16 C 0.0685(6) 1.0253(4) 0.3589(5)
C17 C 0.0284(6) 0.8917(4) 0.1169(4)
H6 H 0.2901(5) 0.7233(4) 0.5011(4)
H7 H 0.3854(5) 0.7600(4) 0.4557(4)
H8 H 0.1511(5) 0.7089(4) 0.3656(4)
H9 H 0.2733(5) 0.6686(4) 0.3579(4)
H10 H 0.1567(5) 0.7619(4) 0.1595(4)
H11 H 0.1325(5) 0.6819(4) 0.2170(4)
H12 H 0.0074(5) 0.7634(4) 0.2656(4)
H13 H -0.0379(5) 0.7572(4) 0.1528(4)
H14 H -0.1377(5) 0.8750(4) 0.1928(4)
H15 H -0.0685(5) 0.9649(4) 0.2028(4)
H16 H -0.0442(5) 0.8464(4) 0.3402(4)
H17 H -0.1052(5) 0.9393(4) 0.3311(4)
H18 H 0.1544(5) 0.9593(4) 0.4994(4)
H19 H 0.0248(5) 0.9138(4) 0.4782(4)
H20 H 0.1729(5) 0.8230(3) 0.5433(4)
H21 H 0.0989(5) 0.7954(3) 0.4366(4)
H22 H 0.3687(5) 0.8580(4) 0.5841(4)
H23 H 0.3240(5) 0.9440(4) 0.5243(4)
H24 H 0.4237(5) 0.8843(4) 0.5042(4)
H25 H 0.3966(6) 0.7816(4) 0.3419(5)
H26 H 0.3431(6) 0.7328(4) 0.2427(5)
H27 H 0.2710(8) 0.8594(5) 0.1770(5)
H28 H 0.4166(8) 0.8517(5) 0.2179(6)
H29 H 0.3613(7) 0.9768(5) 0.2385(6)
H30 H 0.4130(7) 0.9276(5) 0.3376(6)
H31 H -0.0496(6) 0.8750(4) 0.0694(4)
H32 H 0.0954(6) 0.8645(4) 0.1022(4)
H33 H 0.0373(6) 0.9541(4) 0.1164(4)
C18 C 0.3110(5) 0.1993(4) 0.6791(4)
H3 H 0.2893(50) 0.1569(39) 0.7027(39)
C19 C 0.3461(5) 0.1872(4) 0.6112(4)
C20 C 0.3907(5) 0.2471(4) 0.5708(4)
C21 C 0.3953(5) 0.3206(3) 0.6145(4)
C22 C 0.3593(5) 0.3335(4) 0.6814(4)
H4 H 0.3547(42) 0.3876(32) 0.7016(32)
C23 C 0.3183(5) 0.2722(4) 0.7142(4)
O2 O 0.4166(4) 0.2395(3) 0.5063(3)
N5 N 0.3339(5) 0.1092(4) 0.5757(4)
O3 O 0.2553(5) 0.0698(3) 0.5788(4)
O4 O 0.4017(5) 0.0855(3) 0.5452(4)
N6 N 0.4440(5) 0.3866(3) 0.5855(3)
O5 O 0.5329(4) 0.3783(3) 0.5762(4)
O6 O 0.3969(5) 0.4466(4) 0.5728(6)
N7 N 0.2816(5) 0.2870(4) 0.7862(3)
O7 O 0.2853(5) 0.3533(4) 0.8125(3)
O8 O 0.2486(5) 0.2320(4) 0.8173(3)
C24 C 0.0655(5) 0.3519(4) 0.5990(4)
C25 C 0.0858(5) 0.3496(4) 0.5186(4)
C26 C 0.1239(5) 0.4109(4) 0.4835(4)
H5 H 0.1373(53) 0.4011(39) 0.4373(43)
C27 C 0.1458(5) 0.4799(4) 0.5269(4)
C28 C 0.1282(5) 0.4900(4) 0.6022(4)
C29 C 0.0871(5) 0.4292(3) 0.6368(4)
O9 O 0.0329(4) 0.2958(3) 0.6293(3)
N8 N 0.0666(6) 0.2750(4) 0.4716(4)
O10 O 0.0821(8) 0.2147(5) 0.5114(6)
O11 O 0.0144(17) 0.2839(7) 0.3912(8)
N9 N 0.1901(5) 0.5440(4) 0.4910(4)
O16 O 0.1996(5) 0.5348(3) 0.4210(4)
O17 O 0.2160(5) 0.6034(3) 0.5332(4)
N10 N 0.0653(5) 0.4467(4) 0.7159(4)
O18 O 0.0846(7) 0.5109(4) 0.7452(5)
O19 O 0.0259(5) 0.3974(4) 0.7482(4)
H34 H 0.1351(47) 0.5317(36) 0.6304(37)
C15? C 0.1905(14) 1.0517(10) 0.3636(10)
O12? O 0.1575(20) 0.2567(13) 0.4396(15)
O13? O 0.0219(18) 0.2237(13) 0.4759(13)
O14? O 0.0798(34) 0.2642(19) 0.4054(28)
O15? O -0.0326(35) 0.2903(25) 0.4017(28)
loop_
_geom_bond_atom_site_label_1
_geom_bond_atom_site_label_2
_geom_bond_site_symmetry_1
_geom_bond_site_symmetry_2
N1 H1 1_555 1_555
C1 N1 1_555 1_555
C2 C1 1_555 1_555
N2 C2 1_555 1_555
C3 N2 1_555 1_555
C4 C3 1_555 1_555
N3 C4 1_555 1_555
H2 N3 1_555 1_555
C5 N3 1_555 1_555
C6 C5 1_555 1_555
N4 C6 1_555 1_555
C7 N4 1_555 1_555
C8 N1 1_555 1_555
C9 N1 1_555 1_555
C10 N2 1_555 1_555
C11 C10 1_555 1_555
C12 C11 1_555 1_555
O1 C12 1_555 1_555
C13 O1 1_555 1_555
C14 C13 1_555 1_555
C16 N4 1_555 1_555
C17 N3 1_555 1_555
C18 H3 1_555 1_555
C19 C18 1_555 1_555
C20 C19 1_555 1_555
C21 C20 1_555 1_555
C22 C21 1_555 1_555
H4 C22 1_555 1_555
C23 C18 1_555 1_555
O2 C20 1_555 1_555
N5 C19 1_555 1_555
O3 N5 1_555 1_555
O4 N5 1_555 1_555
N6 C21 1_555 1_555
O5 N6 1_555 1_555
O6 N6 1_555 1_555
N7 C23 1_555 1_555
O7 N7 1_555 1_555
O8 N7 1_555 1_555
C24 C25 1_555 1_555
C25 C26 1_555 1_555
C26 H5 1_555 1_555
C27 C26 1_555 1_555
C28 C27 1_555 1_555
C29 C24 1_555 1_555
O9 C24 1_555 1_555
N8 C25 1_555 1_555
O10 N8 1_555 1_555
O11 N8 1_555 1_555
N9 C27 1_555 1_555
O16 N9 1_555 1_555
O17 N9 1_555 1_555
N10 C29 1_555 1_555
O18 N10 1_555 1_555
O19 N10 1_555 1_555
H6 C1 1_555 1_555
H7 C1 1_555 1_555
H8 C2 1_555 1_555
H9 C2 1_555 1_555
H10 C3 1_555 1_555
H11 C3 1_555 1_555
H12 C4 1_555 1_555
H13 C4 1_555 1_555
H14 C5 1_555 1_555
H15 C5 1_555 1_555
H16 C6 1_555 1_555
H17 C6 1_555 1_555
H18 C7 1_555 1_555
H19 C7 1_555 1_555
H20 C8 1_555 1_555
H21 C8 1_555 1_555
H22 C9 1_555 1_555
H23 C9 1_555 1_555
H24 C9 1_555 1_555
H25 C10 1_555 1_555
H26 C10 1_555 1_555
H27 C11 1_555 1_555
H28 C11 1_555 1_555
H29 C12 1_555 1_555
H30 C12 1_555 1_555
H31 C17 1_555 1_555
H32 C17 1_555 1_555
H33 C17 1_555 1_555
H34 C28 1_555 1_555
C7 C8 1_555 1_555
C14 C16 1_555 1_555
C22 C23 1_555 1_555
C28 C29 1_555 1_555

#END
