
#######################################################################
#
#                 Cambridge Crystallographic Data Centre
#                                CCDC 
#
#######################################################################
#
# If this CIF has been generated from an entry in the Cambridge 
# Structural Database, then it will include bibliographic, chemical, 
# crystal, experimental, refinement or atomic coordinate data resulting 
# from the CCDC's data processing and validation procedures.
#
#######################################################################

data_SECLUK
_chemical_formula_moiety         'C22 H16 N2'
_chemical_name_systematic        3,5-diphenyl-4,4'-bipyridine
_symmetry_cell_setting           orthorhombic
_symmetry_space_group_name_H-M   'P b c n'
_symmetry_Int_Tables_number      60
_space_group_name_Hall           '-P 2n 2ab'
loop_
_symmetry_equiv_pos_site_id
_symmetry_equiv_pos_as_xyz
1 x,y,z
2 1/2-x,1/2-y,1/2+z
3 1/2+x,1/2-y,-z
4 -x,y,1/2-z
5 -x,-y,-z
6 1/2+x,1/2+y,1/2-z
7 1/2-x,1/2+y,z
8 x,-y,1/2+z
_cell_length_a                   15.441(5)
_cell_length_b                   13.310(4)
_cell_length_c                   7.814(2)
_cell_angle_alpha                90
_cell_angle_beta                 90
_cell_angle_gamma                90
_cell_volume                     1605.93
_exptl_crystal_colour            colorless
_exptl_crystal_description       block
_cell_formula_units_Z            4
loop_
_atom_site_label
_atom_site_type_symbol
_atom_site_fract_x
_atom_site_fract_y
_atom_site_fract_z
N1 N 0.0000 0.07270(13) 0.2500
N2 N 0.0000 0.60815(13) 0.2500
C1 C 0.22647(10) 0.44326(11) 0.1082(2)
H1 H 0.2101 0.4940 0.0331
C2 C 0.31062(11) 0.40745(13) 0.1042(2)
H2 H 0.3500 0.4339 0.0263
C3 C 0.33622(11) 0.33257(13) 0.2154(2)
H3 H 0.3928 0.3088 0.2139
C4 C 0.27677(11) 0.29361(13) 0.3288(2)
H4 H 0.2935 0.2430 0.4038
C5 C 0.19259(10) 0.32865(10) 0.3327(2)
H5 H 0.1534 0.3011 0.4099
C6 C 0.16583(9) 0.40471(10) 0.22256(18)
C7 C 0.07772(9) 0.45027(10) 0.23361(18)
C8 C 0.07295(11) 0.55534(10) 0.2351(2)
H6 H 0.1245 0.5909 0.2249
C9 C 0.0000 0.39626(14) 0.2500
C10 C 0.0000 0.28340(14) 0.2500
C11 C -0.02552(9) 0.22965(10) 0.3926(2)
H7 H -0.0433 0.2628 0.4913
C12 C -0.02421(10) 0.12581(11) 0.3866(2)
H8 H -0.0413 0.0908 0.4839
C1C C -0.22647(10) 0.44326(11) 0.3918(2)
H1C H -0.2101 0.4940 0.4669
C2C C -0.31062(11) 0.40745(13) 0.3958(2)
H2C H -0.3500 0.4339 0.4737
C3C C -0.33622(11) 0.33257(13) 0.2846(2)
H3C H -0.3928 0.3088 0.2861
C4C C -0.27677(11) 0.29361(13) 0.1712(2)
H4C H -0.2935 0.2430 0.0962
C5C C -0.19259(10) 0.32865(10) 0.1673(2)
H5C H -0.1534 0.3011 0.0901
C6C C -0.16583(9) 0.40471(10) 0.27744(18)
C7C C -0.07772(9) 0.45027(10) 0.26639(18)
C8C C -0.07295(11) 0.55534(10) 0.2649(2)
H6C H -0.1245 0.5909 0.2751
C11C C 0.02552(9) 0.22965(10) 0.1074(2)
H7C H 0.0433 0.2628 0.0087
C12C C 0.02421(10) 0.12581(11) 0.1134(2)
H8C H 0.0413 0.0908 0.0161
loop_
_geom_bond_atom_site_label_1
_geom_bond_atom_site_label_2
_geom_bond_site_symmetry_1
_geom_bond_site_symmetry_2
N1 C12 1_555 1_555
N2 C8 1_555 1_555
C1 H1 1_555 1_555
C2 C1 1_555 1_555
H2 C2 1_555 1_555
C3 C2 1_555 1_555
H3 C3 1_555 1_555
C4 C3 1_555 1_555
H4 C4 1_555 1_555
C5 C4 1_555 1_555
H5 C5 1_555 1_555
C6 C1 1_555 1_555
C7 C6 1_555 1_555
C8 C7 1_555 1_555
H6 C8 1_555 1_555
C9 C7 1_555 1_555
C10 C9 1_555 1_555
C11 C10 1_555 1_555
H7 C11 1_555 1_555
C12 C11 1_555 1_555
H8 C12 1_555 1_555
C1C H1C 1_555 1_555
C2C C1C 1_555 1_555
H2C C2C 1_555 1_555
C3C C2C 1_555 1_555
H3C C3C 1_555 1_555
C4C C3C 1_555 1_555
H4C C4C 1_555 1_555
C5C C4C 1_555 1_555
H5C C5C 1_555 1_555
C6C C1C 1_555 1_555
C7C C9 1_555 1_555
C8C N2 1_555 1_555
H6C C8C 1_555 1_555
C11C C10 1_555 1_555
H7C C11C 1_555 1_555
C12C N1 1_555 1_555
H8C C12C 1_555 1_555
C5 C6 1_555 1_555
C5C C6C 1_555 1_555
C6C C7C 1_555 1_555
C7C C8C 1_555 1_555
C11C C12C 1_555 1_555

#END
