
#######################################################################
#
#                 Cambridge Crystallographic Data Centre
#                                CCDC 
#
#######################################################################
#
# If this CIF has been generated from an entry in the Cambridge 
# Structural Database, then it will include bibliographic, chemical, 
# crystal, experimental, refinement or atomic coordinate data resulting 
# from the CCDC's data processing and validation procedures.
#
#######################################################################

data_SECPUL
_chemical_formula_moiety         'C11 H15 Br1 O3'
_chemical_name_systematic        
Bicyclo(4.2.0)octane-7-spiro-4'-(5'-bromomethyl-1',3'-dioxolan-2'-one)
_symmetry_cell_setting           triclinic
_symmetry_space_group_name_H-M   'P -1'
_symmetry_Int_Tables_number      2
_space_group_name_Hall           '-P 1'
loop_
_symmetry_equiv_pos_site_id
_symmetry_equiv_pos_as_xyz
1 x,y,z
2 -x,-y,-z
_cell_length_a                   5.735(1)
_cell_length_b                   9.646(2)
_cell_length_c                   10.915(2)
_cell_angle_alpha                104.44(1)
_cell_angle_beta                 99.14(1)
_cell_angle_gamma                97.92(1)
_cell_volume                     567.292
_exptl_crystal_colour            colorless
_chemical_melting_point          109-111deg.C
_cell_formula_units_Z            2
loop_
_atom_site_label
_atom_site_type_symbol
_atom_site_fract_x
_atom_site_fract_y
_atom_site_fract_z
Br1 Br 0.22349(8) 0.39732(5) 0.55069(3)
O1 O 0.0390(4) 0.3359(2) 0.8100(2)
O2 O -0.0125(5) 0.5667(3) 0.8793(3)
O3 O 0.3522(4) 0.5156(2) 0.8645(2)
C1 C 0.1076(6) 0.0540(3) 0.8229(3)
C2 C 0.1458(8) -0.0981(4) 0.8273(3)
C3 C 0.3680(8) -0.1365(4) 0.7809(4)
C4 C 0.3797(8) -0.1077(4) 0.6514(4)
C5 C 0.3898(7) 0.0539(3) 0.6621(3)
C6 C 0.1768(6) 0.1119(3) 0.7102(3)
C7 C 0.2470(5) 0.2646(3) 0.8071(3)
C8 C 0.2721(6) 0.1920(3) 0.9178(3)
C9 C 0.4433(5) 0.3877(3) 0.8054(3)
C10 C 0.5040(6) 0.4007(4) 0.6790(3)
C11 C 0.1153(6) 0.4812(3) 0.8543(3)
H1 H -0.049(5) 0.060(3) 0.826(2)
H2 H 0.013(7) -0.165(4) 0.765(4)
H3 H 0.141(7) -0.116(4) 0.918(3)
H4 H 0.375(8) -0.250(5) 0.780(4)
H5 H 0.501(7) -0.086(4) 0.840(4)
H6 H 0.526(6) -0.137(4) 0.623(3)
H7 H 0.253(6) -0.149(4) 0.604(3)
H8 H 0.530(5) 0.106(3) 0.721(3)
H9 H 0.398(6) 0.077(4) 0.580(3)
H10 H 0.052(6) 0.109(3) 0.640(3)
H11 H 0.216(6) 0.240(3) 0.997(3)
H12 H 0.426(5) 0.181(3) 0.935(3)
H13 H 0.592(6) 0.384(3) 0.863(3)
H14 H 0.600(6) 0.497(3) 0.699(3)
H15 H 0.580(6) 0.308(3) 0.641(3)
loop_
_geom_bond_atom_site_label_1
_geom_bond_atom_site_label_2
_geom_bond_site_symmetry_1
_geom_bond_site_symmetry_2
Br1 C10 1_555 1_555
O1 C7 1_555 1_555
O2 C11 1_555 1_555
O3 C9 1_555 1_555
C1 C2 1_555 1_555
C2 C3 1_555 1_555
C3 C4 1_555 1_555
C4 C5 1_555 1_555
C5 C6 1_555 1_555
C6 C1 1_555 1_555
C7 C6 1_555 1_555
C8 C1 1_555 1_555
C9 C7 1_555 1_555
C10 C9 1_555 1_555
C11 O1 1_555 1_555
H1 C1 1_555 1_555
H2 C2 1_555 1_555
H3 C2 1_555 1_555
H4 C3 1_555 1_555
H5 C3 1_555 1_555
H6 C4 1_555 1_555
H7 C4 1_555 1_555
H8 C5 1_555 1_555
H9 C5 1_555 1_555
H10 C6 1_555 1_555
H11 C8 1_555 1_555
H12 C8 1_555 1_555
H13 C9 1_555 1_555
H14 C10 1_555 1_555
H15 C10 1_555 1_555
O3 C11 1_555 1_555
C7 C8 1_555 1_555

#END
