
#######################################################################
#
#                 Cambridge Crystallographic Data Centre
#                                CCDC 
#
#######################################################################
#
# If this CIF has been generated from an entry in the Cambridge 
# Structural Database, then it will include bibliographic, chemical, 
# crystal, experimental, refinement or atomic coordinate data resulting 
# from the CCDC's data processing and validation procedures.
#
#######################################################################

data_SECQAU
_chemical_name_common            
4-(Diphenylphosphoroselenoyl)-N,N-dimethylaniline
_chemical_formula_moiety         'C20 H20 N1 P1 Se1'
_chemical_name_systematic        
'[4-(Dimethylamino)phenyl]diphenylphosphine selenide'
_symmetry_cell_setting           monoclinic
_symmetry_space_group_name_H-M   'P 21/c'
_symmetry_Int_Tables_number      14
_space_group_name_Hall           '-P 2ybc'
loop_
_symmetry_equiv_pos_site_id
_symmetry_equiv_pos_as_xyz
1 x,y,z
2 -x,1/2+y,1/2-z
3 -x,-y,-z
4 x,1/2-y,1/2+z
_cell_length_a                   12.1757(13)
_cell_length_b                   10.6173(11)
_cell_length_c                   17.5211(14)
_cell_angle_alpha                90
_cell_angle_beta                 128.098(5)
_cell_angle_gamma                90
_cell_volume                     1782.46
_exptl_crystal_colour            colorless
_exptl_crystal_description       cuboid
_cell_formula_units_Z            4
loop_
_atom_site_label
_atom_site_type_symbol
_atom_site_fract_x
_atom_site_fract_y
_atom_site_fract_z
Se1 Se 0.65445(3) 0.81555(3) 0.51517(2)
P1 P 0.79548(6) 0.70500(6) 0.51220(4)
N1 N 0.5685(2) 0.1943(2) 0.33365(16)
C1 C 0.8477(2) 0.7754(2) 0.44440(17)
C2 C 0.9861(3) 0.7749(3) 0.4794(2)
H1 H 1.0572 0.744 0.5427
C3 C 1.0206(3) 0.8195(3) 0.4219(2)
H2 H 1.1152 0.8193 0.4463
C4 C 0.9182(3) 0.8642(3) 0.3296(2)
H3 H 0.9421 0.8945 0.2906
C5 C 0.7798(3) 0.8645(3) 0.29429(19)
H4 H 0.7089 0.894 0.2305
C6 C 0.7448(3) 0.8218(3) 0.35178(19)
H5 H 0.6504 0.8243 0.3278
C7 C 0.9584(2) 0.6739(2) 0.63238(17)
C8 C 1.0104(3) 0.5520(2) 0.66278(18)
H6 H 0.9605 0.4827 0.6205
C9 C 1.1364(3) 0.5315(3) 0.75581(19)
H7 H 1.1713 0.4484 0.777
C10 C 1.2095(3) 0.6329(3) 0.81646(19)
H8 H 1.2953 0.6191 0.8791
C11 C 1.1586(3) 0.7546(3) 0.78654(19)
H9 H 1.2098 0.8235 0.8288
C12 C 1.0330(3) 0.7762(3) 0.69497(19)
H10 H 0.9979 0.8595 0.6749
C13 C 0.7256(2) 0.5533(2) 0.45680(17)
C14 C 0.7489(2) 0.4999(2) 0.39474(17)
H11 H 0.802 0.5451 0.3809
C15 C 0.6959(2) 0.3825(2) 0.35318(17)
H12 H 0.7116 0.3495 0.3102
C16 C 0.6189(2) 0.3111(2) 0.37367(17)
C17 C 0.5955(2) 0.3657(2) 0.43629(17)
H13 H 0.5443 0.3202 0.4517
C18 C 0.6462(2) 0.4845(2) 0.47526(17)
H14 H 0.6267 0.5201 0.5155
C19 C 0.6003(3) 0.1393(3) 0.2728(2)
H15 H 0.5672 0.1957 0.2182
H16 H 0.5536 0.0575 0.2482
H17 H 0.7013 0.1278 0.3113
C20 C 0.5016(3) 0.1166(3) 0.3625(2)
H18 H 0.5668 0.1017 0.4326
H19 H 0.4743 0.0359 0.3282
H20 H 0.4184 0.1599 0.3463
loop_
_geom_bond_atom_site_label_1
_geom_bond_atom_site_label_2
_geom_bond_site_symmetry_1
_geom_bond_site_symmetry_2
Se1 P1 1_555 1_555
P1 C1 1_555 1_555
N1 C16 1_555 1_555
C1 C2 1_555 1_555
C2 H1 1_555 1_555
C3 C2 1_555 1_555
H2 C3 1_555 1_555
C4 C3 1_555 1_555
H3 C4 1_555 1_555
C5 C4 1_555 1_555
H4 C5 1_555 1_555
C6 C1 1_555 1_555
H5 C6 1_555 1_555
C7 P1 1_555 1_555
C8 C7 1_555 1_555
H6 C8 1_555 1_555
C9 C8 1_555 1_555
H7 C9 1_555 1_555
C10 C9 1_555 1_555
H8 C10 1_555 1_555
C11 C10 1_555 1_555
H9 C11 1_555 1_555
C12 C7 1_555 1_555
H10 C12 1_555 1_555
C13 P1 1_555 1_555
C14 C13 1_555 1_555
H11 C14 1_555 1_555
C15 C14 1_555 1_555
H12 C15 1_555 1_555
C16 C15 1_555 1_555
C17 C16 1_555 1_555
H13 C17 1_555 1_555
C18 C13 1_555 1_555
H14 C18 1_555 1_555
C19 N1 1_555 1_555
H15 C19 1_555 1_555
H16 C19 1_555 1_555
H17 C19 1_555 1_555
C20 N1 1_555 1_555
H18 C20 1_555 1_555
H19 C20 1_555 1_555
H20 C20 1_555 1_555
C5 C6 1_555 1_555
C11 C12 1_555 1_555
C17 C18 1_555 1_555

#END
