
#######################################################################
#
#                 Cambridge Crystallographic Data Centre
#                                CCDC 
#
#######################################################################
#
# If this CIF has been generated from an entry in the Cambridge 
# Structural Database, then it will include bibliographic, chemical, 
# crystal, experimental, refinement or atomic coordinate data resulting 
# from the CCDC's data processing and validation procedures.
#
#######################################################################

data_SEDNIA
_chemical_formula_moiety         'C19 H17 N5 O2'
_chemical_name_systematic        
N,N'-bis(3-Aminophenyl)pyridine-2,6-dicarboxamide
_symmetry_cell_setting           rhombohedral
_symmetry_space_group_name_H-M   'R 3 c'
_symmetry_Int_Tables_number      161
_space_group_name_Hall           'R 3 -2"c'
loop_
_symmetry_equiv_pos_site_id
_symmetry_equiv_pos_as_xyz
1 x,y,z
2 -y,x-y,z
3 -x+y,-x,z
4 -x+y,y,1/2+z
5 x,x-y,1/2+z
6 -y,-x,1/2+z
7 2/3+x,1/3+y,1/3+z
8 2/3-y,1/3+x-y,1/3+z
9 2/3-x+y,1/3-x,1/3+z
10 2/3-x+y,1/3+y,5/6+z
11 2/3+x,1/3+x-y,5/6+z
12 2/3-y,1/3-x,5/6+z
13 1/3+x,2/3+y,2/3+z
14 1/3-y,2/3+x-y,2/3+z
15 1/3-x+y,2/3-x,2/3+z
16 1/3-x+y,2/3+y,1/6+z
17 1/3+x,2/3+x-y,1/6+z
18 1/3-y,2/3-x,1/6+z
_cell_length_a                   31.582(11)
_cell_length_b                   31.582(11)
_cell_length_c                   8.780(4)
_cell_angle_alpha                90
_cell_angle_beta                 90
_cell_angle_gamma                120
_cell_volume                     7584.11
_cell_formula_units_Z            18
loop_
_atom_site_label
_atom_site_type_symbol
_atom_site_fract_x
_atom_site_fract_y
_atom_site_fract_z
N1 N 0.84482(9) 0.08162(9) 0.3344(3)
O1 O 0.78780(10) 0.09752(10) 0.6579(3)
N2 N 0.92374(10) 0.09259(11) 0.1681(3)
H1 H 0.9255 0.1047 0.2572
N3 N 0.85138(10) 0.15359(10) 0.5145(4)
H2 H 0.8696 0.1556 0.4388
O2 O 0.86893(9) 0.04067(9) -0.0079(3)
C1 C 0.87875(12) 0.05989(12) 0.1183(4)
N4 N 0.96973(11) 0.32449(10) 0.5886(3)
H3 H 0.9903 0.3215 0.5318
H4 H 0.9777 0.3523 0.6287
C2 C 0.83828(12) 0.04747(12) 0.2317(4)
C3 C 0.80793(13) 0.07062(12) 0.4334(4)
C4 C 0.96851(12) 0.10922(14) 0.0901(4)
C5 C 0.90890(12) 0.23864(12) 0.5541(4)
H5 H 0.9299 0.2351 0.4877
C6 C 0.86428(13) 0.19835(13) 0.5879(4)
C7 C 1.00668(14) 0.15414(14) 0.1310(5)
H6 H 1.0026 0.1725 0.2062
C8 C 0.76505(13) 0.02623(14) 0.4300(5)
H7 H 0.7401 0.0197 0.4987
C9 C 0.81474(13) 0.10842(13) 0.5464(4)
C10 C 0.89140(15) 0.28920(15) 0.7113(5)
H8 H 0.8998 0.3196 0.7519
C11 C 1.01933(15) 0.09976(17) -0.0940(4)
C12 C 0.92344(12) 0.28411(12) 0.6157(4)
C13 C 0.83240(14) 0.20325(16) 0.6850(5)
H9 H 0.8020 0.1765 0.7084
C14 C 0.75943(14) -0.00826(14) 0.3246(5)
H10 H 0.7308 -0.0384 0.3213
C15 C 0.79651(13) 0.00230(12) 0.2249(4)
H11 H 0.7936 -0.0207 0.1533
C16 C 0.97435(14) 0.08134(15) -0.0203(4)
H12 H 0.9485 0.0506 -0.0452
N5 N 1.02466(14) 0.07128(15) -0.2080(5)
H13 H 1.0523 0.0819 -0.2530
H14 H 1.0002 0.0433 -0.2324
C17 C 1.05146(15) 0.17173(17) 0.0589(5)
H15 H 1.0776 0.2021 0.0856
C18 C 0.84677(16) 0.24859(16) 0.7459(6)
H16 H 0.8258 0.2521 0.8124
C19 C 1.05720(17) 0.1439(2) -0.0536(5)
H17 H 1.0873 0.1557 -0.1013
loop_
_geom_bond_atom_site_label_1
_geom_bond_atom_site_label_2
_geom_bond_site_symmetry_1
_geom_bond_site_symmetry_2
N1 C2 1_555 1_555
O1 C9 1_555 1_555
N2 H1 1_555 1_555
N3 H2 1_555 1_555
O2 C1 1_555 1_555
C1 N2 1_555 1_555
N4 H3 1_555 1_555
H4 N4 1_555 1_555
C2 C1 1_555 1_555
C3 N1 1_555 1_555
C4 N2 1_555 1_555
C5 H5 1_555 1_555
C6 N3 1_555 1_555
C7 C4 1_555 1_555
H6 C7 1_555 1_555
C8 C3 1_555 1_555
H7 C8 1_555 1_555
C9 N3 1_555 1_555
C10 H8 1_555 1_555
C11 C16 1_555 1_555
C12 N4 1_555 1_555
C13 C6 1_555 1_555
H9 C13 1_555 1_555
C14 C8 1_555 1_555
H10 C14 1_555 1_555
C15 C2 1_555 1_555
H11 C15 1_555 1_555
C16 C4 1_555 1_555
H12 C16 1_555 1_555
N5 C11 1_555 1_555
H13 N5 1_555 1_555
H14 N5 1_555 1_555
C17 C7 1_555 1_555
H15 C17 1_555 1_555
C18 C10 1_555 1_555
H16 C18 1_555 1_555
C19 C11 1_555 1_555
H17 C19 1_555 1_555
C3 C9 1_555 1_555
C5 C6 1_555 1_555
C5 C12 1_555 1_555
C10 C12 1_555 1_555
C13 C18 1_555 1_555
C14 C15 1_555 1_555
C17 C19 1_555 1_555

#END
