
#######################################################################
#
#                 Cambridge Crystallographic Data Centre
#                                CCDC 
#
#######################################################################
#
# If this CIF has been generated from an entry in the Cambridge 
# Structural Database, then it will include bibliographic, chemical, 
# crystal, experimental, refinement or atomic coordinate data resulting 
# from the CCDC's data processing and validation procedures.
#
#######################################################################

data_SEDXAB
_chemical_formula_moiety         'C10 H10 N2 S1'
_chemical_name_systematic        2,3-Dimethyl-5-(thiophen-2-yl)pyrazine
_symmetry_cell_setting           monoclinic
_symmetry_space_group_name_H-M   'P 21/c'
_symmetry_Int_Tables_number      14
_space_group_name_Hall           '-P 2ybc'
loop_
_symmetry_equiv_pos_site_id
_symmetry_equiv_pos_as_xyz
1 x,y,z
2 -x,1/2+y,1/2-z
3 -x,-y,-z
4 x,1/2-y,1/2+z
_cell_length_a                   7.1352(19)
_cell_length_b                   12.292(3)
_cell_length_c                   11.175(3)
_cell_angle_alpha                90
_cell_angle_beta                 94.168(4)
_cell_angle_gamma                90
_cell_volume                     977.521
_exptl_crystal_colour            colorless
_exptl_crystal_description       prism
_chemical_melting_point          '50-52 deg.C'
_cell_formula_units_Z            4
loop_
_atom_site_label
_atom_site_type_symbol
_atom_site_fract_x
_atom_site_fract_y
_atom_site_fract_z
S1 S 0.51912(7) 0.22599(5) 0.30145(4)
N1 N -0.0494(2) 0.34525(16) 0.02235(14)
N2 N 0.1438(2) 0.33080(12) 0.24700(12)
C1 C 0.6805(3) 0.1370(2) 0.2521(2)
H1 H 0.792(3) 0.1170(19) 0.300(2)
C2 C 0.6315(3) 0.1018(2) 0.1400(2)
H2 H 0.706(3) 0.046(2) 0.098(2)
C3 C 0.4611(3) 0.14710(18) 0.09138(18)
H3 H 0.407(3) 0.1310(19) 0.015(2)
C4 C 0.3813(2) 0.21720(14) 0.16850(14)
C5 C 0.2079(2) 0.27997(13) 0.15095(14)
C6 C -0.0151(3) 0.38769(15) 0.23091(17)
C7 C -0.1141(3) 0.39453(16) 0.11772(19)
C8 C 0.1101(3) 0.28849(17) 0.03927(17)
H4 H 0.153(3) 0.2559(17) -0.031(2)
C9 C -0.2948(3) 0.4570(2) 0.0972(3)
H5 H -0.2726 0.5330 0.1170
H6 H -0.3874 0.4276 0.1478
H7 H -0.3409 0.4508 0.0137
C10 C -0.0844(3) 0.4433(2) 0.3393(2)
H8 H -0.0917 0.5211 0.3250
H9 H 0.0020 0.4290 0.4086
H10 H -0.2079 0.4157 0.3540
loop_
_geom_bond_atom_site_label_1
_geom_bond_atom_site_label_2
_geom_bond_site_symmetry_1
_geom_bond_site_symmetry_2
S1 C1 1_555 1_555
N1 C7 1_555 1_555
N2 C5 1_555 1_555
C1 H1 1_555 1_555
C2 C1 1_555 1_555
H2 C2 1_555 1_555
C3 C2 1_555 1_555
H3 C3 1_555 1_555
C4 S1 1_555 1_555
C5 C4 1_555 1_555
C6 N2 1_555 1_555
C7 C6 1_555 1_555
C8 N1 1_555 1_555
H4 C8 1_555 1_555
C9 C7 1_555 1_555
H5 C9 1_555 1_555
H6 C9 1_555 1_555
H7 C9 1_555 1_555
C10 C6 1_555 1_555
H8 C10 1_555 1_555
H9 C10 1_555 1_555
H10 C10 1_555 1_555
C3 C4 1_555 1_555
C5 C8 1_555 1_555

#END
