
#######################################################################
#
#                 Cambridge Crystallographic Data Centre
#                                CCDC 
#
#######################################################################
#
# If this CIF has been generated from an entry in the Cambridge 
# Structural Database, then it will include bibliographic, chemical, 
# crystal, experimental, refinement or atomic coordinate data resulting 
# from the CCDC's data processing and validation procedures.
#
#######################################################################

data_SEFLAR
_chemical_formula_moiety         'C31 H52 N6'
_chemical_name_systematic        
tris(3-t-butyl-5-isopropyl-1-pyrazolyl)methane
_symmetry_cell_setting           monoclinic
_symmetry_space_group_name_H-M   'P 21/a'
_symmetry_Int_Tables_number      14
_space_group_name_Hall           '-P 2yab'
loop_
_symmetry_equiv_pos_site_id
_symmetry_equiv_pos_as_xyz
1 x,y,z
2 1/2-x,1/2+y,-z
3 -x,-y,-z
4 1/2+x,1/2-y,z
_cell_length_a                   11.777(2)
_cell_length_b                   22.315(4)
_cell_length_c                   12.774(2)
_cell_angle_alpha                90
_cell_angle_beta                 94.287(9)
_cell_angle_gamma                90
_cell_volume                     3347.66
_exptl_crystal_colour            colorless
_exptl_crystal_description       prism
_cell_formula_units_Z            4
loop_
_atom_site_label
_atom_site_type_symbol
_atom_site_fract_x
_atom_site_fract_y
_atom_site_fract_z
N1 N 0.7588(5) 0.1737(3) 0.8893(5)
N2 N 0.8262(5) 0.1554(3) 0.8123(5)
N3 N 0.7235(5) 0.0479(3) 0.7936(5)
N4 N 0.7394(5) 0.0787(3) 0.7032(5)
N5 N 0.6867(5) 0.1816(3) 0.6709(4)
N6 N 0.7152(5) 0.2194(3) 0.5913(4)
C1 C 0.7763(6) 0.1413(3) 0.7090(5)
C2 C 0.6711(9) 0.2126(7) 1.0690(7)
C3 C 0.8603(10) 0.2294(6) 1.1340(8)
C4 C 0.780(1) 0.1337(6) 1.1446(8)
C5 C 0.7827(7) 0.1878(5) 1.0795(6)
C6 C 0.8283(7) 0.1699(3) 0.9760(6)
C7 C 0.9351(6) 0.1480(4) 0.9549(6)
C8 C 0.9327(6) 0.1382(3) 0.8507(6)
C9 C 1.0225(7) 0.1136(5) 0.7838(6)
C10 C 1.1363(6) 0.1424(4) 0.8145(6)
C11 C 1.0303(8) 0.0472(5) 0.7907(9)
C12 C 0.5839(9) -0.0959(5) 0.8014(9)
C13 C 0.6517(12) -0.0267(5) 0.9433(9)
C14 C 0.7811(9) -0.0906(5) 0.8613(8)
C15 C 0.6746(9) -0.0542(4) 0.8406(8)
C16 C 0.6975(6) -0.0069(4) 0.7603(7)
C17 C 0.6960(6) -0.0115(4) 0.6505(7)
C18 C 0.7249(6) 0.0429(4) 0.6165(7)
C19 C 0.7385(8) 0.0666(4) 0.5064(6)
C20 C 0.8050(9) 0.0235(4) 0.4468(6)
C21 C 0.6236(8) 0.0771(4) 0.4488(6)
C22 C 0.6137(11) 0.2573(5) 0.3723(7)
C23 C 0.7162(11) 0.3281(6) 0.4752(9)
C24 C 0.5129(11) 0.3283(5) 0.4661(8)
C25 C 0.6143(8) 0.2905(4) 0.4706(7)
C26 C 0.6181(7) 0.2463(3) 0.5624(6)
C27 C 0.5288(6) 0.2278(4) 0.6211(6)
C28 C 0.5743(6) 0.1857(4) 0.6896(5)
C29 C 0.5177(6) 0.1493(3) 0.7697(5)
C30 C 0.4468(6) 0.0980(3) 0.7152(5)
C31 C 0.4407(6) 0.1896(3) 0.8320(5)
H1 H 0.8345 0.1454 0.6618
H2 H 0.6433 0.2243 1.1339
H3 H 0.6720 0.2464 1.0237
H4 H 0.6228 0.1825 1.0372
H5 H 0.9329 0.2112 1.1469
H6 H 0.8669 0.2635 1.0903
H7 H 0.8326 0.2415 1.1987
H8 H 0.7520 0.1428 1.2106
H9 H 0.7313 0.1053 1.1087
H10 H 0.8546 0.1175 1.1552
H11 H 0.9966 0.1401 1.0054
H12 H 1.0006 0.1236 0.7129
H13 H 1.1568 0.1323 0.8857
H14 H 1.1927 0.1278 0.7715
H15 H 1.1309 0.1847 0.8078
H16 H 0.9586 0.0293 0.7715
H17 H 1.0855 0.0321 0.7469
H18 H 1.0527 0.0379 0.8619
H19 H 0.5163 -0.0737 0.7841
H20 H 0.6076 -0.1148 0.7400
H21 H 0.5696 -0.1255 0.8521
H22 H 0.7170 -0.0025 0.9593
H23 H 0.5853 -0.0024 0.9408
H24 H 0.6472 -0.0566 0.9959
H25 H 0.7705 -0.1212 0.9113
H26 H 0.7995 -0.1082 0.7970
H27 H 0.8415 -0.0650 0.8869
H28 H 0.6796 -0.0465 0.6099
H29 H 0.7785 0.1036 0.5124
H30 H 0.7628 -0.0128 0.4415
H31 H 0.8202 0.0368 0.3786
H32 H 0.8749 0.0168 0.4873
H33 H 0.5821 0.1038 0.4895
H34 H 0.6283 0.0932 0.3804
H35 H 0.5857 0.0394 0.4438
H36 H 0.5474 0.2330 0.3631
H37 H 0.6170 0.2832 0.3136
H38 H 0.6794 0.2325 0.3779
H39 H 0.7802 0.3020 0.4793
H40 H 0.7175 0.3524 0.4142
H41 H 0.7190 0.3529 0.5357
H42 H 0.5133 0.3523 0.5276
H43 H 0.5097 0.3535 0.4060
H44 H 0.4482 0.3027 0.4624
H45 H 0.4523 0.2414 0.6125
H46 H 0.5740 0.1316 0.8171
H47 H 0.4102 0.0745 0.7647
H48 H 0.3911 0.1164 0.6681
H49 H 0.4945 0.0731 0.6771
H50 H 0.4864 0.2203 0.8647
H51 H 0.3848 0.2069 0.7837
H52 H 0.4041 0.1679 0.8839
loop_
_geom_bond_atom_site_label_1
_geom_bond_atom_site_label_2
_geom_bond_site_symmetry_1
_geom_bond_site_symmetry_2
N1 N2 1_555 1_555
N2 C1 1_555 1_555
N3 N4 1_555 1_555
N4 C1 1_555 1_555
N5 N6 1_555 1_555
N6 C26 1_555 1_555
C1 N5 1_555 1_555
C2 C5 1_555 1_555
C3 C5 1_555 1_555
C4 C5 1_555 1_555
C5 C6 1_555 1_555
C6 N1 1_555 1_555
C7 C6 1_555 1_555
C8 N2 1_555 1_555
C9 C8 1_555 1_555
C10 C9 1_555 1_555
C11 C9 1_555 1_555
C12 C15 1_555 1_555
C13 C15 1_555 1_555
C14 C15 1_555 1_555
C15 C16 1_555 1_555
C16 N3 1_555 1_555
C17 C16 1_555 1_555
C18 N4 1_555 1_555
C19 C18 1_555 1_555
C20 C19 1_555 1_555
C21 C19 1_555 1_555
C22 C25 1_555 1_555
C23 C25 1_555 1_555
C24 C25 1_555 1_555
C25 C26 1_555 1_555
C26 C27 1_555 1_555
C27 C28 1_555 1_555
C28 N5 1_555 1_555
C29 C28 1_555 1_555
C30 C29 1_555 1_555
C31 C29 1_555 1_555
H1 C1 1_555 1_555
H2 C2 1_555 1_555
H3 C2 1_555 1_555
H4 C2 1_555 1_555
H5 C3 1_555 1_555
H6 C3 1_555 1_555
H7 C3 1_555 1_555
H8 C4 1_555 1_555
H9 C4 1_555 1_555
H10 C4 1_555 1_555
H11 C7 1_555 1_555
H12 C9 1_555 1_555
H13 C10 1_555 1_555
H14 C10 1_555 1_555
H15 C10 1_555 1_555
H16 C11 1_555 1_555
H17 C11 1_555 1_555
H18 C11 1_555 1_555
H19 C12 1_555 1_555
H20 C12 1_555 1_555
H21 C12 1_555 1_555
H22 C13 1_555 1_555
H23 C13 1_555 1_555
H24 C13 1_555 1_555
H25 C14 1_555 1_555
H26 C14 1_555 1_555
H27 C14 1_555 1_555
H28 C17 1_555 1_555
H29 C19 1_555 1_555
H30 C20 1_555 1_555
H31 C20 1_555 1_555
H32 C20 1_555 1_555
H33 C21 1_555 1_555
H34 C21 1_555 1_555
H35 C21 1_555 1_555
H36 C22 1_555 1_555
H37 C22 1_555 1_555
H38 C22 1_555 1_555
H39 C23 1_555 1_555
H40 C23 1_555 1_555
H41 C23 1_555 1_555
H42 C24 1_555 1_555
H43 C24 1_555 1_555
H44 C24 1_555 1_555
H45 C27 1_555 1_555
H46 C29 1_555 1_555
H47 C30 1_555 1_555
H48 C30 1_555 1_555
H49 C30 1_555 1_555
H50 C31 1_555 1_555
H51 C31 1_555 1_555
H52 C31 1_555 1_555
C7 C8 1_555 1_555
C17 C18 1_555 1_555

#END
