
#######################################################################
#
#                 Cambridge Crystallographic Data Centre
#                                CCDC 
#
#######################################################################
#
# If this CIF has been generated from an entry in the Cambridge 
# Structural Database, then it will include bibliographic, chemical, 
# crystal, experimental, refinement or atomic coordinate data resulting 
# from the CCDC's data processing and validation procedures.
#
#######################################################################

data_SEFRON
_chemical_formula_moiety         'C18 H30 N1 O5 P1'
_chemical_name_systematic        
'ethyl N-{[2,6-bis(propan-2-yl)phenoxy](hydroxymethyl)phosphoryl}alaninate'
_symmetry_cell_setting           monoclinic
_symmetry_space_group_name_H-M   'P 21'
_symmetry_Int_Tables_number      4
_space_group_name_Hall           'P 2yb'
loop_
_symmetry_equiv_pos_site_id
_symmetry_equiv_pos_as_xyz
1 x,y,z
2 -x,1/2+y,-z
_cell_length_a                   9.856(2)
_cell_length_b                   18.160(4)
_cell_length_c                   11.549(3)
_cell_angle_alpha                90
_cell_angle_beta                 90.5(5)
_cell_angle_gamma                90
_cell_volume                     2067.02
_exptl_crystal_colour            colorless
_exptl_crystal_description       plate
_cell_formula_units_Z            4
loop_
_atom_site_label
_atom_site_type_symbol
_atom_site_fract_x
_atom_site_fract_y
_atom_site_fract_z
P1 P 0.83597(14) 0.49734(10) 0.19159(14)
O1 O 0.9161(4) 0.5103(2) 0.0730(4)
O2 O 0.6905(4) 0.5159(3) 0.1859(4)
O3 O 1.0036(9) 0.3821(7) 0.2199(12)
H1 H 1.039030 0.402848 0.275527
O4 O 1.0694(5) 0.6466(4) 0.4003(6)
O5 O 0.8925(6) 0.6976(4) 0.4854(7)
N1 N 0.9152(6) 0.5431(4) 0.2907(5)
H2 H 0.968828 0.513855 0.327390
C1 C 0.8775(6) 0.5564(4) -0.0177(6)
C2 C 0.9314(7) 0.6271(4) -0.0249(7)
C3 C 0.8973(9) 0.6709(5) -0.1194(8)
H3 H 0.931047 0.718587 -0.125535
C4 C 0.8124(9) 0.6424(6) -0.2042(8)
H4 H 0.790960 0.672057 -0.267384
C5 C 0.7586(8) 0.5737(6) -0.2004(7)
H5 H 0.700865 0.557225 -0.258981
C6 C 0.7923(7) 0.5273(5) -0.1048(7)
C7 C 0.7431(9) 0.4481(5) -0.1013(7)
H6 H 0.737330 0.433834 -0.019596
C8 C 0.5978(16) 0.4423(10) -0.1537(17)
H7 H 0.545452 0.484248 -0.130463
H8 H 0.555182 0.398123 -0.126492
H9 H 0.603109 0.440954 -0.236661
C9 C 0.8409(19) 0.3972(10) -0.157(2)
H10 H 0.858674 0.413816 -0.234414
H11 H 0.803078 0.348533 -0.159754
H12 H 0.924020 0.396503 -0.113204
C10 C 1.0258(9) 0.6573(5) 0.0678(8)
H13 H 1.042630 0.617684 0.123603
C11 C 1.1609(12) 0.6790(9) 0.0180(13)
H14 H 1.216485 0.635896 0.009588
H15 H 1.205252 0.713215 0.069095
H16 H 1.147126 0.701504 -0.056339
C12 C 0.9672(14) 0.7215(7) 0.1339(11)
H17 H 0.945793 0.760682 0.081042
H18 H 1.032292 0.738465 0.190110
H19 H 0.886153 0.706032 0.172522
C13 C 0.8734(8) 0.4007(6) 0.2131(11)
H20 H 0.829786 0.384919 0.283891
H21 H 0.832312 0.373278 0.149880
C14 C 0.8490(7) 0.5928(5) 0.3749(7)
H22 H 0.779333 0.620744 0.332705
C15 C 0.7782(11) 0.5526(7) 0.4755(8)
H23 H 0.693678 0.532331 0.448491
H24 H 0.761399 0.586777 0.537061
H25 H 0.835540 0.513570 0.503394
C16 C 0.9515(8) 0.6469(5) 0.4200(8)
C17 C 0.9763(11) 0.7537(6) 0.5460(10)
H26 H 0.938637 0.764279 0.621474
H27 H 1.068219 0.735709 0.556629
C18 C 0.9763(14) 0.8199(7) 0.4749(13)
H28 H 0.989441 0.806664 0.395348
H29 H 1.048493 0.851821 0.499921
H30 H 0.891057 0.844897 0.482717
P2 P 0.33462(14) 0.49056(10) 0.33714(14)
O6 O 0.4137(4) 0.4755(2) 0.4558(4)
O7 O 0.1880(4) 0.4727(3) 0.3406(4)
O8 O 0.5058(8) 0.6042(6) 0.3180(9)
H31 H 0.536512 0.599777 0.252637
O9 O 0.5709(6) 0.3417(4) 0.1427(7)
O10 O 0.3999(6) 0.2855(4) 0.0588(8)
N2 N 0.4120(6) 0.4466(4) 0.2333(5)
H32 H 0.485908 0.427858 0.259811
C19 C 0.3720(6) 0.4292(4) 0.5481(6)
C20 C 0.4228(7) 0.3575(4) 0.5529(6)
C21 C 0.3865(9) 0.3169(5) 0.6507(8)
H33 H 0.417815 0.268756 0.657693
C22 C 0.3066(10) 0.3451(5) 0.7368(8)
H34 H 0.284833 0.316254 0.800549
C23 C 0.2589(8) 0.4161(5) 0.7285(7)
H35 H 0.203607 0.434723 0.786369
C24 C 0.2922(7) 0.4605(4) 0.6347(6)
C25 C 0.2451(8) 0.5404(5) 0.6286(7)
H36 H 0.234434 0.552793 0.546481
C26 C 0.1081(13) 0.5533(8) 0.6854(13)
H37 H 0.041508 0.521341 0.650903
H38 H 0.081246 0.603622 0.674336
H39 H 0.115276 0.543015 0.766780
C27 C 0.3551(17) 0.5894(7) 0.6769(17)
H40 H 0.329593 0.606471 0.752320
H41 H 0.367629 0.630761 0.626460
H42 H 0.438340 0.562079 0.682841
C28 C 0.5115(8) 0.3248(5) 0.4589(8)
H43 H 0.525872 0.362700 0.399951
C29 C 0.4428(13) 0.2601(7) 0.4014(11)
H44 H 0.444928 0.218493 0.452739
H45 H 0.489358 0.247995 0.331270
H46 H 0.350245 0.272503 0.383593
C30 C 0.6488(11) 0.3024(9) 0.5070(13)
H47 H 0.698155 0.345581 0.530405
H48 H 0.698716 0.276781 0.448430
H49 H 0.636737 0.270718 0.572614
C31 C 0.3751(8) 0.5867(5) 0.3168(9)
H50 H 0.336558 0.602358 0.243244
H51 H 0.330575 0.614727 0.377020
C32 C 0.3484(7) 0.3942(5) 0.1576(7)
H52 H 0.281155 0.367541 0.203430
C33 C 0.2737(11) 0.4283(8) 0.0562(8)
H53 H 0.207456 0.462584 0.084124
H54 H 0.229176 0.390372 0.012258
H55 H 0.337140 0.453676 0.007748
C34 C 0.4542(7) 0.3387(5) 0.1204(8)
C35 C 0.4940(13) 0.2274(9) 0.0220(19)
H56 H 0.569489 0.250238 -0.017610
H57 H 0.530073 0.203161 0.090493
C36 C 0.4397(13) 0.1766(9) -0.0473(16)
H58 H 0.464854 0.186504 -0.125898
H59 H 0.342634 0.177902 -0.040993
H60 H 0.472317 0.128831 -0.025045
loop_
_geom_bond_atom_site_label_1
_geom_bond_atom_site_label_2
_geom_bond_site_symmetry_1
_geom_bond_site_symmetry_2
P1 O1 1_555 1_555
O1 C1 1_555 1_555
O2 P1 1_555 1_555
O3 H1 1_555 1_555
O4 C16 1_555 1_555
O5 C16 1_555 1_555
N1 P1 1_555 1_555
H2 N1 1_555 1_555
C1 C2 1_555 1_555
C2 C3 1_555 1_555
C3 H3 1_555 1_555
C4 C3 1_555 1_555
H4 C4 1_555 1_555
C5 C4 1_555 1_555
H5 C5 1_555 1_555
C6 C1 1_555 1_555
C7 C6 1_555 1_555
H6 C7 1_555 1_555
C8 C7 1_555 1_555
H7 C8 1_555 1_555
H8 C8 1_555 1_555
H9 C8 1_555 1_555
C9 C7 1_555 1_555
H10 C9 1_555 1_555
H11 C9 1_555 1_555
H12 C9 1_555 1_555
C10 C2 1_555 1_555
H13 C10 1_555 1_555
C11 C10 1_555 1_555
H14 C11 1_555 1_555
H15 C11 1_555 1_555
H16 C11 1_555 1_555
C12 C10 1_555 1_555
H17 C12 1_555 1_555
H18 C12 1_555 1_555
H19 C12 1_555 1_555
C13 P1 1_555 1_555
H20 C13 1_555 1_555
H21 C13 1_555 1_555
C14 N1 1_555 1_555
H22 C14 1_555 1_555
C15 C14 1_555 1_555
H23 C15 1_555 1_555
H24 C15 1_555 1_555
H25 C15 1_555 1_555
C16 C14 1_555 1_555
C17 O5 1_555 1_555
H26 C17 1_555 1_555
H27 C17 1_555 1_555
C18 C17 1_555 1_555
H28 C18 1_555 1_555
H29 C18 1_555 1_555
H30 C18 1_555 1_555
P2 O6 1_555 1_555
O6 C19 1_555 1_555
O7 P2 1_555 1_555
O8 H31 1_555 1_555
O9 C34 1_555 1_555
O10 C34 1_555 1_555
N2 P2 1_555 1_555
H32 N2 1_555 1_555
C19 C20 1_555 1_555
C20 C21 1_555 1_555
C21 H33 1_555 1_555
C22 C21 1_555 1_555
H34 C22 1_555 1_555
C23 C22 1_555 1_555
H35 C23 1_555 1_555
C24 C19 1_555 1_555
C25 C24 1_555 1_555
H36 C25 1_555 1_555
C26 C25 1_555 1_555
H37 C26 1_555 1_555
H38 C26 1_555 1_555
H39 C26 1_555 1_555
C27 C25 1_555 1_555
H40 C27 1_555 1_555
H41 C27 1_555 1_555
H42 C27 1_555 1_555
C28 C20 1_555 1_555
H43 C28 1_555 1_555
C29 C28 1_555 1_555
H44 C29 1_555 1_555
H45 C29 1_555 1_555
H46 C29 1_555 1_555
C30 C28 1_555 1_555
H47 C30 1_555 1_555
H48 C30 1_555 1_555
H49 C30 1_555 1_555
C31 P2 1_555 1_555
H50 C31 1_555 1_555
H51 C31 1_555 1_555
C32 N2 1_555 1_555
H52 C32 1_555 1_555
C33 C32 1_555 1_555
H53 C33 1_555 1_555
H54 C33 1_555 1_555
H55 C33 1_555 1_555
C34 C32 1_555 1_555
C35 O10 1_555 1_555
H56 C35 1_555 1_555
H57 C35 1_555 1_555
C36 C35 1_555 1_555
H58 C36 1_555 1_555
H59 C36 1_555 1_555
H60 C36 1_555 1_555
O3 C13 1_555 1_555
C5 C6 1_555 1_555
O8 C31 1_555 1_555
C23 C24 1_555 1_555

#END
