
#######################################################################
#
#                 Cambridge Crystallographic Data Centre
#                                CCDC 
#
#######################################################################
#
# If this CIF has been generated from an entry in the Cambridge 
# Structural Database, then it will include bibliographic, chemical, 
# crystal, experimental, refinement or atomic coordinate data resulting 
# from the CCDC's data processing and validation procedures.
#
#######################################################################

data_SEGGOA
_chemical_formula_moiety         'C15 H19 O1 P1 S1'
_chemical_name_systematic        
cis-2-Phenyl-2-thioxo-2-phosphabicyclo(4.4.0)decan-5-one
_symmetry_cell_setting           monoclinic
_symmetry_space_group_name_H-M   'P 21/c'
_symmetry_Int_Tables_number      14
_space_group_name_Hall           '-P 2ybc'
loop_
_symmetry_equiv_pos_site_id
_symmetry_equiv_pos_as_xyz
1 x,y,z
2 -x,1/2+y,1/2-z
3 -x,-y,-z
4 x,1/2-y,1/2+z
_cell_length_a                   10.814(1)
_cell_length_b                   9.530(1)
_cell_length_c                   14.601(1)
_cell_angle_alpha                90
_cell_angle_beta                 109.68(1)
_cell_angle_gamma                90
_cell_volume                     1416.85
_chemical_melting_point          172.5deg.C
_cell_formula_units_Z            4
loop_
_atom_site_label
_atom_site_type_symbol
_atom_site_fract_x
_atom_site_fract_y
_atom_site_fract_z
S1 S 0.23383(7) 0.00810(7) 0.44868(5)
P1 P 0.23689(5) 0.18748(6) 0.51472(4)
O1 O -0.0831(2) 0.4532(2) 0.3534(1)
C1 C 0.0860(2) 0.2226(2) 0.5382(2)
C2 C -0.0273(2) 0.2423(2) 0.4416(2)
C3 C -0.0042(2) 0.3583(3) 0.3806(2)
C4 C 0.1178(2) 0.3497(2) 0.3499(2)
C5 C 0.1273(2) 0.4718(3) 0.2845(2)
C6 C 0.1675(2) 0.6095(3) 0.3391(2)
C7 C 0.2939(2) 0.5936(3) 0.4256(2)
C8 C 0.2826(2) 0.4767(2) 0.4933(2)
C9 C 0.2465(2) 0.3371(2) 0.4390(1)
C10 C 0.3706(2) 0.2050(2) 0.6291(2)
C11 C 0.3592(2) 0.2807(3) 0.7070(2)
C12 C 0.4664(3) 0.2915(3) 0.7919(2)
C13 C 0.5842(2) 0.2303(3) 0.7980(2)
C14 C 0.5961(2) 0.1567(3) 0.7223(2)
C15 C 0.4901(2) 0.1431(3) 0.6368(2)
H1 H 0.094(2) 0.303(2) 0.571(2)
H2 H 0.070(2) 0.156(2) 0.575(2)
H3 H -0.108(2) 0.264(3) 0.461(2)
H4 H -0.040(2) 0.168(3) 0.411(2)
H5 H 0.191(2) 0.442(3) 0.245(2)
H6 H 0.041(2) 0.486(3) 0.232(2)
H7 H 0.100(2) 0.633(3) 0.371(2)
H8 H 0.186(2) 0.679(3) 0.298(2)
H9 H 0.102(2) 0.265(2) 0.313(1)
H10 H 0.328(2) 0.682(3) 0.461(2)
H11 H 0.354(2) 0.569(2) 0.399(2)
H12 H 0.214(2) 0.498(2) 0.524(2)
H13 H 0.368(2) 0.465(2) 0.553(1)
H14 H 0.319(2) 0.311(2) 0.409(1)
H15 H 0.275(2) 0.332(3) 0.700(2)
H16 H 0.454(2) 0.329(2) 0.832(2)
H17 H 0.653(2) 0.238(3) 0.857(2)
H18 H 0.674(3) 0.105(3) 0.719(2)
H19 H 0.492(2) 0.089(2) 0.585(1)
loop_
_geom_bond_atom_site_label_1
_geom_bond_atom_site_label_2
_geom_bond_site_symmetry_1
_geom_bond_site_symmetry_2
S1 P1 1_555 1_555
P1 C1 1_555 1_555
O1 C3 1_555 1_555
C1 C2 1_555 1_555
C2 C3 1_555 1_555
C3 C4 1_555 1_555
C4 C5 1_555 1_555
C5 C6 1_555 1_555
C6 C7 1_555 1_555
C7 C8 1_555 1_555
C8 C9 1_555 1_555
C9 P1 1_555 1_555
C10 P1 1_555 1_555
C11 C10 1_555 1_555
C12 C11 1_555 1_555
C13 C12 1_555 1_555
C14 C13 1_555 1_555
C15 C10 1_555 1_555
H1 C1 1_555 1_555
H2 C1 1_555 1_555
H3 C2 1_555 1_555
H4 C2 1_555 1_555
H5 C5 1_555 1_555
H6 C5 1_555 1_555
H7 C6 1_555 1_555
H8 C6 1_555 1_555
H9 C4 1_555 1_555
H10 C7 1_555 1_555
H11 C7 1_555 1_555
H12 C8 1_555 1_555
H13 C8 1_555 1_555
H14 C9 1_555 1_555
H15 C11 1_555 1_555
H16 C12 1_555 1_555
H17 C13 1_555 1_555
H18 C14 1_555 1_555
H19 C15 1_555 1_555
C4 C9 1_555 1_555
C14 C15 1_555 1_555

#END
