
#######################################################################
#
#                 Cambridge Crystallographic Data Centre
#                                CCDC 
#
#######################################################################
#
# If this CIF has been generated from an entry in the Cambridge 
# Structural Database, then it will include bibliographic, chemical, 
# crystal, experimental, refinement or atomic coordinate data resulting 
# from the CCDC's data processing and validation procedures.
#
#######################################################################

data_SEHJEW
_chemical_formula_moiety         'C2 H6 O1 S1,C1 H1 Br3'
_chemical_name_systematic        '(Methylsulfinyl)methane bromoform'
_symmetry_cell_setting           monoclinic
_symmetry_space_group_name_H-M   'C c'
_symmetry_Int_Tables_number      9
_space_group_name_Hall           'C -2yc'
loop_
_symmetry_equiv_pos_site_id
_symmetry_equiv_pos_as_xyz
1 x,y,z
2 x,-y,1/2+z
3 1/2+x,1/2+y,z
4 1/2+x,1/2-y,1/2+z
_cell_length_a                   7.9562(8)
_cell_length_b                   9.6768(9)
_cell_length_c                   12.0633(17)
_cell_angle_alpha                90
_cell_angle_beta                 94.923(11)
_cell_angle_gamma                90
_cell_volume                     925.334
_exptl_crystal_colour            'dull light white'
_exptl_crystal_description       cylinder
_chemical_melting_point          '236-238 K'
_cell_formula_units_Z            4
loop_
_atom_site_label
_atom_site_type_symbol
_atom_site_fract_x
_atom_site_fract_y
_atom_site_fract_z
S1 S 0.8588(4) 0.5192(4) 0.8467(3)
O1 O 0.6850(12) 0.5758(13) 0.8576(9)
C1 C 0.872(2) 0.3574(16) 0.9153(15)
H1 H 0.7907 0.2951 0.8794
H2 H 0.8496 0.3693 0.9916
H3 H 0.9833 0.3199 0.9120
C2 C 0.997(2) 0.6099(16) 0.9443(19)
H4 H 0.9599 0.5989 1.0175
H5 H 0.9969 0.7062 0.9253
H6 H 1.1092 0.5737 0.9431
Br1 Br 0.50479(14) 0.48018(14) 0.55461(12)
Br2 Br 0.27358(18) 0.35768(18) 0.73364(15)
Br3 Br 0.22470(18) 0.66779(16) 0.65021(14)
C3 C 0.3863(17) 0.5177(12) 0.6825(12)
H7 H 0.4687 0.5484 0.7425
loop_
_geom_bond_atom_site_label_1
_geom_bond_atom_site_label_2
_geom_bond_site_symmetry_1
_geom_bond_site_symmetry_2
S1 O1 1_555 1_555
C1 S1 1_555 1_555
H1 C1 1_555 1_555
H2 C1 1_555 1_555
H3 C1 1_555 1_555
C2 S1 1_555 1_555
H4 C2 1_555 1_555
H5 C2 1_555 1_555
H6 C2 1_555 1_555
Br1 C3 1_555 1_555
Br2 C3 1_555 1_555
Br3 C3 1_555 1_555
C3 H7 1_555 1_555

#END
