
#######################################################################
#
#                 Cambridge Crystallographic Data Centre
#                                CCDC 
#
#######################################################################
#
# If this CIF has been generated from an entry in the Cambridge 
# Structural Database, then it will include bibliographic, chemical, 
# crystal, experimental, refinement or atomic coordinate data resulting 
# from the CCDC's data processing and validation procedures.
#
#######################################################################

data_SEHJIA02
_chemical_formula_moiety         'C4 H8 O2,C1 H1 Br3'
_chemical_name_systematic        '1,4-Dioxane bromoform'
_symmetry_cell_setting           monoclinic
_symmetry_space_group_name_H-M   'P 21/m'
_symmetry_Int_Tables_number      11
_space_group_name_Hall           '-P 2yb'
loop_
_symmetry_equiv_pos_site_id
_symmetry_equiv_pos_as_xyz
1 x,y,z
2 -x,1/2+y,-z
3 -x,-y,-z
4 x,1/2-y,z
_cell_length_a                   4.2311(5)
_cell_length_b                   19.421(2)
_cell_length_c                   6.0413(6)
_cell_angle_alpha                90
_cell_angle_beta                 106.760(10)
_cell_angle_gamma                90
_cell_volume                     475.339
_exptl_crystal_colour            'dull light colorless'
_exptl_crystal_description       cylinder
_cell_formula_units_Z            2
loop_
_atom_site_label
_atom_site_type_symbol
_atom_site_fract_x
_atom_site_fract_y
_atom_site_fract_z
O1 O -0.0298(6) 0.45665(10) 0.1813(4)
C1 C -0.0190(11) 0.42977(15) -0.0354(7)
C2 C 0.1549(10) 0.51909(17) 0.2269(6)
H1 H -0.160(10) 0.390(2) -0.067(7)
H2 H 0.195(10) 0.420(2) -0.029(7)
H3 H 0.401(10) 0.512(2) 0.242(7)
H4 H 0.144(11) 0.536(2) 0.376(9)
O1B O 0.0298(6) 0.54335(10) -0.1813(4)
C1B C 0.0190(11) 0.57023(15) 0.0354(7)
C2B C -0.1549(10) 0.48091(17) -0.2269(6)
H1B H 0.160(10) 0.610(2) 0.067(7)
H2B H -0.195(10) 0.580(2) 0.029(7)
H3B H -0.401(10) 0.488(2) -0.242(7)
H4B H -0.144(11) 0.464(2) -0.376(9)
Br1 Br 0.25193(9) 0.331769(14) 0.46312(6)
Br2 Br 0.42544(15) 0.2500 0.93623(8)
C3 C 0.4505(12) 0.2500 0.6239(8)
H5 H 0.658(12) 0.2500 0.639(8)
Br1C Br 0.25193(9) 0.168231(14) 0.46312(6)
loop_
_geom_bond_atom_site_label_1
_geom_bond_atom_site_label_2
_geom_bond_site_symmetry_1
_geom_bond_site_symmetry_2
O1 C1 1_555 1_555
C1 H1 1_555 1_555
C2 O1 1_555 1_555
H2 C1 1_555 1_555
H3 C2 1_555 1_555
H4 C2 1_555 1_555
Br1 C3 1_555 1_555
Br2 C3 1_555 1_555
C3 H5 1_555 1_555
O1B C1B 1_555 1_555
C1B C2 1_555 1_555
C2B C1 1_555 1_555
H1B C1B 1_555 1_555
H2B C1B 1_555 1_555
H3B C2B 1_555 1_555
H4B C2B 1_555 1_555
Br1C C3 1_555 1_555
O1B C2B 1_555 1_555

#END
