
#######################################################################
#
#                 Cambridge Crystallographic Data Centre
#                                CCDC 
#
#######################################################################
#
# If this CIF has been generated from an entry in the Cambridge 
# Structural Database, then it will include bibliographic, chemical, 
# crystal, experimental, refinement or atomic coordinate data resulting 
# from the CCDC's data processing and validation procedures.
#
#######################################################################

data_SEHNIF
_chemical_formula_moiety         'C21 H25 N1 O2 S1'
_chemical_name_systematic        
8,10b-dimethyl-5-sulfanylidene-3,4,4a,5,7,8,9,10,10a,10b,11,12,12a,12b-tetradecahydro-1H-9,10c-methanocyclopenta[1,8]azuleno[4,5-a]indolizine-1,13-dione
_symmetry_cell_setting           monoclinic
_symmetry_space_group_name_H-M   'P 21/c'
_symmetry_Int_Tables_number      14
_space_group_name_Hall           '-P 2ybc'
loop_
_symmetry_equiv_pos_site_id
_symmetry_equiv_pos_as_xyz
1 x,y,z
2 -x,1/2+y,1/2-z
3 -x,-y,-z
4 x,1/2-y,1/2+z
_cell_length_a                   17.5698(4)
_cell_length_b                   8.3155(2)
_cell_length_c                   11.8728(3)
_cell_angle_alpha                90
_cell_angle_beta                 99.0830(10)
_cell_angle_gamma                90
_cell_volume                     1712.88
_exptl_crystal_colour            colorless
_exptl_crystal_description       block
_cell_formula_units_Z            4
loop_
_atom_site_label
_atom_site_type_symbol
_atom_site_fract_x
_atom_site_fract_y
_atom_site_fract_z
C1 C 0.15194(12) 0.2717(2) 0.27632(18)
C2 C 0.22164(12) 0.2721(2) 0.36974(18)
H1 H 0.2024 0.2376 0.4390
C3 C 0.28297(13) 0.1483(3) 0.3515(2)
H2 H 0.2676 0.0443 0.3773
H3 H 0.2844 0.1399 0.2704
C4 C 0.36384(14) 0.1855(3) 0.4123(2)
H4 H 0.3618 0.2060 0.4922
H5 H 0.3962 0.0919 0.4080
C5 C 0.39974(12) 0.3271(3) 0.36328(18)
C6 C 0.47227(13) 0.3771(3) 0.39189(19)
H6 H 0.5078 0.3312 0.4492
C7 C 0.48880(13) 0.5126(3) 0.3221(2)
C8 C 0.41721(13) 0.5442(3) 0.2356(2)
H7 H 0.4271 0.5266 0.1576
C9 C 0.35624(12) 0.4244(3) 0.26692(18)
H8 H 0.3380 0.3546 0.2018
C10 C 0.28830(11) 0.5286(2) 0.29734(17)
C11 C 0.33091(13) 0.6903(3) 0.3347(2)
H9 H 0.2946 0.7788 0.3309
H10 H 0.3587 0.6825 0.4118
C12 C 0.38602(14) 0.7136(3) 0.2498(2)
H11 H 0.4273 0.7870 0.2793
H12 H 0.3593 0.7547 0.1778
C13 C 0.23332(12) 0.5720(2) 0.18686(18)
C14 C 0.16400(12) 0.6800(2) 0.19687(18)
H13 H 0.1739 0.7877 0.1689
C15 C 0.14960(12) 0.6932(2) 0.32078(18)
H14 H 0.1871 0.7638 0.3645
H15 H 0.0983 0.7344 0.3238
C16 C 0.15794(12) 0.5227(2) 0.36667(17)
H16 H 0.1347 0.5137 0.4362
C17 C 0.24109(12) 0.4558(2) 0.38770(17)
C18 C 0.05683(12) 0.4797(3) 0.19323(19)
H17 H 0.0169 0.5257 0.2311
H18 H 0.0340 0.3946 0.1431
C19 C 0.09073(12) 0.6107(2) 0.12301(19)
H19 H 0.1057 0.5602 0.0552
C20 C 0.03009(13) 0.7381(3) 0.0844(2)
H20 H -0.0170 0.6868 0.0506
H21 H 0.0480 0.8072 0.0294
H22 H 0.0210 0.8005 0.1490
C21 C 0.27781(13) 0.4941(3) 0.51087(18)
H23 H 0.2727 0.6070 0.5251
H24 H 0.3314 0.4659 0.5218
H25 H 0.2523 0.4336 0.5627
N1 N 0.11849(10) 0.4142(2) 0.27792(15)
O1 O 0.24604(9) 0.5302(2) 0.09400(13)
O2 O 0.54840(10) 0.5909(2) 0.33035(16)
S1 S 0.12159(3) 0.12134(7) 0.18807(6)
loop_
_geom_bond_atom_site_label_1
_geom_bond_atom_site_label_2
_geom_bond_site_symmetry_1
_geom_bond_site_symmetry_2
C1 C2 1_555 1_555
C2 H1 1_555 1_555
C3 C2 1_555 1_555
H2 C3 1_555 1_555
H3 C3 1_555 1_555
C4 C3 1_555 1_555
H4 C4 1_555 1_555
H5 C4 1_555 1_555
C5 C4 1_555 1_555
C6 C5 1_555 1_555
H6 C6 1_555 1_555
C7 C6 1_555 1_555
C8 C7 1_555 1_555
H7 C8 1_555 1_555
C9 C5 1_555 1_555
H8 C9 1_555 1_555
C10 C9 1_555 1_555
C11 C10 1_555 1_555
H9 C11 1_555 1_555
H10 C11 1_555 1_555
C12 C8 1_555 1_555
H11 C12 1_555 1_555
H12 C12 1_555 1_555
C13 C10 1_555 1_555
C14 C13 1_555 1_555
H13 C14 1_555 1_555
C15 C14 1_555 1_555
H14 C15 1_555 1_555
H15 C15 1_555 1_555
C16 C15 1_555 1_555
H16 C16 1_555 1_555
C17 C2 1_555 1_555
C18 H17 1_555 1_555
H18 C18 1_555 1_555
C19 C14 1_555 1_555
H19 C19 1_555 1_555
C20 C19 1_555 1_555
H20 C20 1_555 1_555
H21 C20 1_555 1_555
H22 C20 1_555 1_555
C21 C17 1_555 1_555
H23 C21 1_555 1_555
H24 C21 1_555 1_555
H25 C21 1_555 1_555
N1 C1 1_555 1_555
O1 C13 1_555 1_555
O2 C7 1_555 1_555
S1 C1 1_555 1_555
C8 C9 1_555 1_555
C10 C17 1_555 1_555
C11 C12 1_555 1_555
C16 C17 1_555 1_555
C16 N1 1_555 1_555
C18 C19 1_555 1_555
C18 N1 1_555 1_555

#END
