
#######################################################################
#
#                 Cambridge Crystallographic Data Centre
#                                CCDC 
#
#######################################################################
#
# If this CIF has been generated from an entry in the Cambridge 
# Structural Database, then it will include bibliographic, chemical, 
# crystal, experimental, refinement or atomic coordinate data resulting 
# from the CCDC's data processing and validation procedures.
#
#######################################################################

data_SEHSOP
_chemical_formula_moiety         'C20 H20 N10,C2 H6 O1'
_chemical_name_systematic        
'4,6-bis(2-(1H-imidazol-2-ylmethylene)-1-methylhydrazino)-2-phenylpyrimidine ethanol solvate'
_symmetry_cell_setting           triclinic
_symmetry_space_group_name_H-M   'P -1'
_symmetry_Int_Tables_number      2
_space_group_name_Hall           '-P 1'
loop_
_symmetry_equiv_pos_site_id
_symmetry_equiv_pos_as_xyz
1 x,y,z
2 -x,-y,-z
_cell_length_a                   7.8886(3)
_cell_length_b                   11.4824(7)
_cell_length_c                   25.5965(16)
_cell_angle_alpha                92.693(2)
_cell_angle_beta                 92.650(3)
_cell_angle_gamma                94.577(4)
_cell_volume                     2305.68
_exptl_crystal_colour            colorless
_exptl_crystal_description       prism
_cell_formula_units_Z            4
loop_
_atom_site_label
_atom_site_type_symbol
_atom_site_fract_x
_atom_site_fract_y
_atom_site_fract_z
C1 C 0.3383(9) 0.7063(7) 0.3283(3)
C2 C 0.4695(8) 0.8176(6) 0.2672(3)
C3 C 0.5144(8) 0.7162(6) 0.2442(3)
H1 H 0.5786 0.7187 0.2137
C4 C 0.4681(7) 0.6100(6) 0.2645(3)
C5 C 0.4789(9) 1.0360(6) 0.2779(3)
H2 H 0.5198 1.1020 0.2577
H3 H 0.5391 1.0413 0.3124
H4 H 0.3564 1.0383 0.2823
C6 C 0.6492(8) 1.0229(6) 0.1857(3)
H5 H 0.6346 1.0965 0.2028
C7 C 0.7341(9) 1.0144(6) 0.1369(3)
C8 C 0.8355(9) 0.9394(7) 0.0658(3)
H6 H 0.8606 0.8863 0.0382
C9 C 0.8885(10) 1.0544(7) 0.0719(3)
H7 H 0.9600 1.0954 0.0489
C10 C 0.4838(9) 0.3948(6) 0.2699(3)
H8 H 0.5222 0.3315 0.2476
H9 H 0.3628 0.3783 0.2761
H10 H 0.5500 0.4006 0.3034
C11 C 0.6406(8) 0.4168(7) 0.1756(3)
H11 H 0.6238 0.3427 0.1905
C12 C 0.7260(9) 0.4302(6) 0.1264(3)
C13 C 0.8297(9) 0.4936(7) 0.0565(3)
H12 H 0.8604 0.5434 0.0293
C14 C 0.8680(10) 0.3819(8) 0.0594(3)
H13 H 0.9293 0.3395 0.0349
C15 C 0.2412(8) 0.7039(7) 0.3782(3)
C16 C 0.2094(9) 0.6006(8) 0.4020(3)
H14 H 0.2430 0.5301 0.3861
C17 C 0.1282(10) 0.5975(9) 0.4493(3)
H15 H 0.1091 0.5259 0.4661
C18 C 0.0760(11) 0.6997(10) 0.4713(4)
H16 H 0.0189 0.6981 0.5031
C19 C 0.1058(10) 0.8035(9) 0.4476(3)
H17 H 0.0692 0.8735 0.4630
C20 C 0.1906(9) 0.8060(8) 0.4005(3)
H18 H 0.2128 0.8779 0.3842
N1 N 0.3752(7) 0.8143(5) 0.3113(2)
N2 N 0.3748(7) 0.6045(5) 0.3080(2)
N3 N 0.5100(7) 0.9282(5) 0.2507(2)
N4 N 0.5943(7) 0.9261(5) 0.2049(2)
N5 N 0.7389(7) 0.9149(5) 0.1074(2)
H19 H 0.6886 0.8462 0.1137
N6 N 0.8238(7) 1.1040(5) 0.1166(2)
N7 N 0.5081(7) 0.5041(5) 0.2443(2)
N8 N 0.5894(7) 0.5089(5) 0.1979(2)
N9 N 0.7394(8) 0.5248(5) 0.0990(2)
N10 N 0.8021(7) 0.3401(5) 0.1044(2)
H20 H 0.8082 0.2698 0.1163
C21 C 0.1944(9) 0.2327(6) 0.1632(3)
C22 C 0.0584(8) 0.3446(6) 0.2227(3)
C23 C 0.0140(8) 0.2441(6) 0.2475(3)
H21 H -0.0511 0.2475 0.2777
C24 C 0.0628(7) 0.1391(5) 0.2289(2)
C25 C 0.0483(9) 0.5590(6) 0.2111(3)
H22 H 0.1074 0.5414 0.1792
H23 H 0.1181 0.6182 0.2333
H24 H -0.0614 0.5890 0.2017
C26 C -0.1102(8) 0.5484(7) 0.3049(3)
H25 H -0.0920 0.6196 0.2877
C27 C -0.1948(8) 0.5440(6) 0.3548(3)
C28 C -0.3001(9) 0.4710(7) 0.4246(3)
H26 H -0.3296 0.4199 0.4514
C29 C -0.3427(9) 0.5811(7) 0.4207(3)
H27 H -0.4078 0.6210 0.4450
C30 C 0.0522(8) -0.0788(5) 0.2259(3)
H28 H 0.1145 -0.0672 0.1941
H29 H -0.0579 -0.1225 0.2168
H30 H 0.1186 -0.1230 0.2502
C31 C -0.1121(9) -0.0513(7) 0.3188(3)
H31 H -0.0929 -0.1266 0.3044
C32 C -0.2011(9) -0.0372(6) 0.3676(3)
C33 C -0.3083(9) 0.0313(7) 0.4364(3)
H32 H -0.3406 0.0840 0.4631
C34 C -0.3475(10) -0.0856(7) 0.4332(3)
H33 H -0.4108 -0.1291 0.4574
C35 C 0.2895(8) 0.2239(7) 0.1148(3)
C36 C 0.3524(8) 0.1210(7) 0.0987(3)
H34 H 0.3337 0.0543 0.1189
C37 C 0.4439(10) 0.1116(7) 0.0530(3)
H35 H 0.4873 0.0398 0.0423
C38 C 0.4691(9) 0.2094(7) 0.0240(3)
H36 H 0.5305 0.2047 -0.0070
C39 C 0.4074(9) 0.3124(7) 0.0391(3)
H37 H 0.4244 0.3784 0.0184
C40 C 0.3185(9) 0.3217(7) 0.0853(3)
H38 H 0.2785 0.3943 0.0963
N11 N 0.1493(7) 0.3376(6) 0.1787(2)
N12 N 0.1613(7) 0.1325(5) 0.1866(2)
N13 N 0.0200(7) 0.4542(5) 0.2393(2)
N14 N -0.0627(7) 0.4540(5) 0.2859(2)
N15 N -0.2053(7) 0.4460(5) 0.3821(2)
H39 H -0.1608 0.3798 0.3744
N16 N -0.2778(7) 0.6286(5) 0.3758(2)
N17 N 0.0249(7) 0.0326(4) 0.2502(2)
N18 N -0.0615(7) 0.0415(5) 0.2964(2)
N19 N -0.2130(8) 0.0615(5) 0.3940(3)
N20 N -0.2794(7) -0.1307(5) 0.3887(2)
H40 H -0.2859 -0.2041 0.3768
C41 C 0.2638(12) 0.7633(8) 0.1126(4)
H41 H 0.1433 0.7352 0.1130
H42 H 0.2797 0.8172 0.0843
H43 H 0.3001 0.8042 0.1462
O1 O 0.5383(6) 0.7065(4) 0.1032(2)
H44 H 0.6006 0.6505 0.1028
C42 C 0.3669(10) 0.6628(7) 0.1039(3)
H45 H 0.3519 0.6079 0.1323
H46 H 0.3306 0.6205 0.0701
O2 O -0.0028(7) 0.2621(4) 0.3914(2)
H47 H -0.0589 0.1975 0.3939
C43 C 0.1693(11) 0.2427(9) 0.3802(4)
H48 H 0.2121 0.3025 0.3563
H49 H 0.1708 0.1651 0.3617
C44 C 0.283(3) 0.247(2) 0.4265(10)
H50 H 0.3987 0.2348 0.4162
H51 H 0.2444 0.1865 0.4498
H52 H 0.2835 0.3244 0.4449
C45? C 0.252(4) 0.171(2) 0.4204(11)
H53? H 0.2343 0.3171 0.3803
H54? H 0.1718 0.2056 0.3459
H55? H 0.3692 0.1608 0.4116
H56? H 0.1879 0.0944 0.4210
H57? H 0.2514 0.2114 0.4550
loop_
_geom_bond_atom_site_label_1
_geom_bond_atom_site_label_2
_geom_bond_site_symmetry_1
_geom_bond_site_symmetry_2
C1 C15 1_555 1_555
C2 C3 1_555 1_555
C3 H1 1_555 1_555
C4 C3 1_555 1_555
C5 H2 1_555 1_555
H3 C5 1_555 1_555
H4 C5 1_555 1_555
C6 H5 1_555 1_555
C7 C6 1_555 1_555
C8 H6 1_555 1_555
C9 C8 1_555 1_555
H7 C9 1_555 1_555
C10 H8 1_555 1_555
H9 C10 1_555 1_555
H10 C10 1_555 1_555
C11 H11 1_555 1_555
C12 C11 1_555 1_555
C13 H12 1_555 1_555
C14 C13 1_555 1_555
H13 C14 1_555 1_555
C15 C16 1_555 1_555
C16 H14 1_555 1_555
C17 C16 1_555 1_555
H15 C17 1_555 1_555
C18 C17 1_555 1_555
H16 C18 1_555 1_555
C19 C18 1_555 1_555
H17 C19 1_555 1_555
C20 C15 1_555 1_555
H18 C20 1_555 1_555
N1 C1 1_555 1_555
N2 C1 1_555 1_555
N3 C2 1_555 1_555
N4 C6 1_555 1_555
N5 C7 1_555 1_555
H19 N5 1_555 1_555
N6 C7 1_555 1_555
N7 C4 1_555 1_555
N8 C11 1_555 1_555
N9 C12 1_555 1_555
N10 C12 1_555 1_555
H20 N10 1_555 1_555
C21 C35 1_555 1_555
C22 C23 1_555 1_555
C23 H21 1_555 1_555
C24 C23 1_555 1_555
C25 H22 1_555 1_555
H23 C25 1_555 1_555
H24 C25 1_555 1_555
C26 H25 1_555 1_555
C27 C26 1_555 1_555
C28 H26 1_555 1_555
C29 C28 1_555 1_555
H27 C29 1_555 1_555
C30 H28 1_555 1_555
H29 C30 1_555 1_555
H30 C30 1_555 1_555
C31 H31 1_555 1_555
C32 C31 1_555 1_555
C33 H32 1_555 1_555
C34 C33 1_555 1_555
H33 C34 1_555 1_555
C35 C36 1_555 1_555
C36 H34 1_555 1_555
C37 C36 1_555 1_555
H35 C37 1_555 1_555
C38 C37 1_555 1_555
H36 C38 1_555 1_555
C39 C38 1_555 1_555
H37 C39 1_555 1_555
C40 C35 1_555 1_555
H38 C40 1_555 1_555
N11 C21 1_555 1_555
N12 C21 1_555 1_555
N13 C22 1_555 1_555
N14 C26 1_555 1_555
N15 C27 1_555 1_555
H39 N15 1_555 1_555
N16 C27 1_555 1_555
N17 C24 1_555 1_555
N18 C31 1_555 1_555
N19 C32 1_555 1_555
N20 C32 1_555 1_555
H40 N20 1_555 1_555
C41 H41 1_555 1_555
H42 C41 1_555 1_555
H43 C41 1_555 1_555
O1 H44 1_555 1_555
C42 C41 1_555 1_555
H45 C42 1_555 1_555
H46 C42 1_555 1_555
O2 H47 1_555 1_555
C43 O2 1_555 1_555
H48 C43 1_555 1_555
H49 C43 1_555 1_555
C44 C43 1_555 1_555
H50 C44 1_555 1_555
H51 C44 1_555 1_555
H52 C44 1_555 1_555
C2 N1 1_555 1_555
C4 N2 1_555 1_555
C5 N3 1_555 1_555
C8 N5 1_555 1_555
C9 N6 1_555 1_555
C10 N7 1_555 1_555
C13 N9 1_555 1_555
C14 N10 1_555 1_555
C19 C20 1_555 1_555
N3 N4 1_555 1_555
N7 N8 1_555 1_555
C22 N11 1_555 1_555
C24 N12 1_555 1_555
C25 N13 1_555 1_555
C28 N15 1_555 1_555
C29 N16 1_555 1_555
C30 N17 1_555 1_555
C33 N19 1_555 1_555
C34 N20 1_555 1_555
C39 C40 1_555 1_555
N13 N14 1_555 1_555
N17 N18 1_555 1_555
O1 C42 1_555 1_555

#END
