
#######################################################################
#
#                 Cambridge Crystallographic Data Centre
#                                CCDC 
#
#######################################################################
#
# If this CIF has been generated from an entry in the Cambridge 
# Structural Database, then it will include bibliographic, chemical, 
# crystal, experimental, refinement or atomic coordinate data resulting 
# from the CCDC's data processing and validation procedures.
#
#######################################################################

data_SEJJUM
_chemical_formula_moiety         'C18 H24 N6 2+,2(C4 N3 1-)'
_chemical_name_systematic        
'Hexa-azaoctadecahydrocoronene bis(tricyanomethanide)'
_symmetry_cell_setting           triclinic
_symmetry_space_group_name_H-M   'P -1'
_symmetry_Int_Tables_number      2
_space_group_name_Hall           '-P 1'
loop_
_symmetry_equiv_pos_site_id
_symmetry_equiv_pos_as_xyz
1 x,y,z
2 -x,-y,-z
_cell_length_a                   8.649(2)
_cell_length_b                   8.994(3)
_cell_length_c                   9.112(2)
_cell_angle_alpha                103.35(2)
_cell_angle_beta                 108.04(2)
_cell_angle_gamma                109.48(2)
_cell_volume                     589.589
_cell_formula_units_Z            1
loop_
_atom_site_label
_atom_site_type_symbol
_atom_site_fract_x
_atom_site_fract_y
_atom_site_fract_z
N1 N 0.2573(2) 0.3258(2) 0.2006(2)
N2 N -0.0734(2) 0.2038(2) 0.2178(2)
N3 N 0.3334(2) 0.1312(2) -0.0279(2)
C1 C 0.1322(3) 0.1690(2) 0.0978(2)
C2 C -0.0392(3) 0.0998(2) 0.1142(2)
C3 C 0.1658(3) 0.0677(2) -0.0187(2)
C4 C 0.4341(3) 0.3946(3) 0.1973(3)
C5 C 0.2360(3) 0.4184(3) 0.3428(3)
C6 C 0.0439(3) 0.3864(3) 0.2934(3)
C7 C -0.2481(3) 0.1445(3) 0.2259(3)
C8 C 0.3241(3) 0.0435(3) -0.1898(3)
C9 C 0.4164(3) 0.3162(3) 0.0240(3)
H1 H 0.5223(30) 0.3729(27) 0.2808(28)
H2 H 0.4804(28) 0.5183(29) 0.2318(26)
H3 H 0.3150(28) 0.5405(28) 0.3793(26)
H4 H 0.2769(28) 0.3756(27) 0.4347(27)
H5 H 0.0217(29) 0.4256(28) 0.3922(29)
H6 H 0.0043(25) 0.4356(25) 0.2127(24)
H7 H -0.3325(29) 0.1700(27) 0.1455(28)
H8 H -0.2248(28) 0.2087(27) 0.3443(29)
H9 H 0.2470(27) 0.0637(25) -0.2814(25)
H10 H 0.4489(31) 0.0887(28) -0.1836(27)
H11 H 0.5344(27) 0.3525(24) 0.0251(23)
H12 H 0.3395(26) 0.3524(24) -0.0596(25)
C3A C -0.1658(3) -0.0677(2) 0.0187(2)
C2A C 0.0392(3) -0.0998(2) -0.1142(2)
C8A C -0.3241(3) -0.0435(3) 0.1898(3)
C7A C 0.2481(3) -0.1445(3) -0.2259(3)
N3A N -0.3334(2) -0.1312(2) 0.0279(2)
C1A C -0.1322(3) -0.1690(2) -0.0978(2)
N2A N 0.0734(2) -0.2038(2) -0.2178(2)
H9A H -0.2470(27) -0.0637(25) 0.2814(25)
H10A H -0.4489(31) -0.0887(28) 0.1836(27)
H7A H 0.3325(29) -0.1700(27) -0.1455(28)
H8A H 0.2248(28) -0.2087(27) -0.3443(29)
C9A C -0.4164(3) -0.3162(3) -0.0240(3)
N1A N -0.2573(2) -0.3258(2) -0.2006(2)
C6A C -0.0439(3) -0.3864(3) -0.2934(3)
C4A C -0.4341(3) -0.3946(3) -0.1973(3)
H11A H -0.5344(27) -0.3525(24) -0.0251(23)
H12A H -0.3395(26) -0.3524(24) 0.0596(25)
C5A C -0.2360(3) -0.4184(3) -0.3428(3)
H5A H -0.0217(29) -0.4256(28) -0.3922(29)
H6A H -0.0043(25) -0.4356(25) -0.2127(24)
H1A H -0.5223(30) -0.3729(27) -0.2808(28)
H2A H -0.4804(28) -0.5183(29) -0.2318(26)
H3A H -0.3150(28) -0.5405(28) -0.3793(26)
H4A H -0.2769(28) -0.3756(27) -0.4347(27)
N4 N -0.0911(3) 0.7201(3) 0.3704(3)
N5 N 0.4127(3) 1.1611(3) 0.4572(3)
N6 N 0.2262(3) 0.6565(3) 0.0840(3)
C10 C 0.1783(3) 0.8493(3) 0.3041(3)
C11 C 0.0307(3) 0.7807(3) 0.3413(3)
C12 C 0.3070(3) 1.0216(3) 0.3899(3)
C13 C 0.2044(3) 0.7435(3) 0.1830(3)
loop_
_geom_bond_atom_site_label_1
_geom_bond_atom_site_label_2
_geom_bond_site_symmetry_1
_geom_bond_site_symmetry_2
N1 C1 1_555 1_555
N2 C2 1_555 1_555
N3 C3 1_555 1_555
C1 C2 1_555 1_555
C2 C3A 1_555 1_555
C3 C1 1_555 1_555
C4 N1 1_555 1_555
C5 N1 1_555 1_555
C6 N2 1_555 1_555
C7 N2 1_555 1_555
C8 N3 1_555 1_555
C9 N3 1_555 1_555
H1 C4 1_555 1_555
H2 C4 1_555 1_555
H3 C5 1_555 1_555
H4 C5 1_555 1_555
H5 C6 1_555 1_555
H6 C6 1_555 1_555
H7 C7 1_555 1_555
H8 C7 1_555 1_555
H9 C8 1_555 1_555
H10 C8 1_555 1_555
H11 C9 1_555 1_555
H12 C9 1_555 1_555
N4 C11 1_555 1_555
N5 C12 1_555 1_555
N6 C13 1_555 1_555
C10 C11 1_555 1_555
C12 C10 1_555 1_555
C13 C10 1_555 1_555
C3A N3A 1_555 1_555
C2A C3 1_555 1_555
C8A C7 1_555 1_555
C7A C8 1_555 1_555
N3A C8A 1_555 1_555
C1A C3A 1_555 1_555
N2A C2A 1_555 1_555
H9A C8A 1_555 1_555
H10A C8A 1_555 1_555
H7A C7A 1_555 1_555
H8A C7A 1_555 1_555
C9A N3A 1_555 1_555
N1A C1A 1_555 1_555
C6A N2A 1_555 1_555
C4A C9A 1_555 1_555
H11A C9A 1_555 1_555
H12A C9A 1_555 1_555
C5A N1A 1_555 1_555
H5A C6A 1_555 1_555
H6A C6A 1_555 1_555
H1A C4A 1_555 1_555
H2A C4A 1_555 1_555
H3A C5A 1_555 1_555
H4A C5A 1_555 1_555
C4 C9 1_555 1_555
C5 C6 1_555 1_555
C2A C1A 1_555 1_555
C7A N2A 1_555 1_555
N1A C4A 1_555 1_555
C6A C5A 1_555 1_555

#END
