
#######################################################################
#
#                 Cambridge Crystallographic Data Centre
#                                CCDC 
#
#######################################################################
#
# If this CIF has been generated from an entry in the Cambridge 
# Structural Database, then it will include bibliographic, chemical, 
# crystal, experimental, refinement or atomic coordinate data resulting 
# from the CCDC's data processing and validation procedures.
#
#######################################################################

data_SEJJOI
_chemical_formula_moiety         'C33 H48 B1 F3 N2 O3 S1'
_chemical_name_systematic        
(1,3-bis(2,6-Di-isopropylphenyl)-2-methyl-1H-imidazol-3-ium-5-yl)(diethyl)(trifluoromethylsulfonyl)borate
_symmetry_cell_setting           triclinic
_symmetry_space_group_name_H-M   'P -1'
_symmetry_Int_Tables_number      2
_space_group_name_Hall           '-P 1'
loop_
_symmetry_equiv_pos_site_id
_symmetry_equiv_pos_as_xyz
1 x,y,z
2 -x,-y,-z
_cell_length_a                   10.425(3)
_cell_length_b                   10.804(4)
_cell_length_c                   17.325(8)
_cell_angle_alpha                97.410(6)
_cell_angle_beta                 102.396(6)
_cell_angle_gamma                109.684(4)
_cell_volume                     1750.98
_exptl_crystal_colour            colorless
_exptl_crystal_description       plate
_cell_formula_units_Z            2
loop_
_atom_site_label
_atom_site_type_symbol
_atom_site_fract_x
_atom_site_fract_y
_atom_site_fract_z
B1 B 0.3682(4) 0.1629(4) 0.2741(2)
S1 S 0.25047(16) 0.31426(18) 0.17993(9)
O1 O 0.3349(3) 0.2968(3) 0.25313(17)
O2 O 0.2787(5) 0.2675(5) 0.1091(2)
O3 O 0.1095(5) 0.2857(7) 0.1805(3)
N1 N 0.6875(2) 0.2190(2) 0.19109(14)
N2 N 0.6589(2) 0.2451(2) 0.31032(13)
C1 C 0.7566(3) 0.2584(3) 0.26958(17)
C2 C 0.5442(3) 0.1790(3) 0.18327(18)
H1 H 0.4734 0.1466 0.1344
C3 C 0.5222(3) 0.1939(3) 0.25725(17)
C4 C 0.6969(3) 0.2749(3) 0.39853(17)
C5 C 0.7134(3) 0.1749(4) 0.4378(2)
C6 C 0.7482(4) 0.2061(5) 0.5220(2)
H2 H 0.7612 0.1419 0.5505
C7 C 0.7637(5) 0.3279(6) 0.5635(2)
H3 H 0.7846 0.3453 0.6197
C8 C 0.7489(4) 0.4249(5) 0.5235(3)
H4 H 0.7615 0.5082 0.5532
C9 C 0.7153(3) 0.4027(3) 0.4388(2)
C10 C 0.7012(5) 0.5099(4) 0.3949(3)
H5 H 0.6646 0.4687 0.3368
C11 C 0.5980(6) 0.5702(5) 0.4184(4)
H6 H 0.5070 0.4997 0.4090
H7 H 0.5888 0.6344 0.3862
H8 H 0.6333 0.6144 0.4746
C12 C 0.8467(8) 0.6208(6) 0.4088(6)
H9 H 0.9099 0.5818 0.3929
H10 H 0.8840 0.6646 0.4651
H11 H 0.8377 0.6855 0.3770
C13 C 0.6957(5) 0.0378(4) 0.3934(3)
H12 H 0.6675 0.0343 0.3352
C14 C 0.5810(6) -0.0747(5) 0.4117(3)
H13 H 0.4936 -0.0602 0.3990
H14 H 0.6079 -0.0757 0.4682
H15 H 0.5688 -0.1594 0.3797
C15 C 0.8373(6) 0.0147(6) 0.4131(4)
H16 H 0.8228 -0.0729 0.3840
H17 H 0.8690 0.0206 0.4702
H18 H 0.9075 0.0822 0.3972
C16 C 0.7501(3) 0.2119(3) 0.12430(18)
C17 C 0.7577(4) 0.0894(3) 0.0950(2)
C18 C 0.8161(4) 0.0858(5) 0.0290(2)
H19 H 0.8234 0.0063 0.0066
C19 C 0.8618(5) 0.1957(5) -0.0024(3)
H20 H 0.9003 0.1905 -0.0459
C20 C 0.8526(5) 0.3140(5) 0.0285(2)
H21 H 0.8855 0.3879 0.0058
C21 C 0.7951(4) 0.3271(4) 0.0933(2)
C22 C 0.7834(5) 0.4577(4) 0.1260(2)
H22 H 0.7509 0.4465 0.1746
C23 C 0.9259(6) 0.5735(5) 0.1526(5)
H23 H 0.9924 0.5503 0.1896
H24 H 0.9163 0.6523 0.1790
H25 H 0.9593 0.5913 0.1062
C24 C 0.6756(8) 0.4886(6) 0.0690(4)
H26 H 0.6724 0.5726 0.0925
H27 H 0.5843 0.4181 0.0588
H28 H 0.7005 0.4951 0.0191
C25 C 0.7065(4) -0.0326(4) 0.1300(2)
H29 H 0.6763 -0.0057 0.1771
C26 C 0.5787(6) -0.1441(5) 0.0701(3)
H30 H 0.5057 -0.1101 0.0528
H31 H 0.5438 -0.2175 0.0955
H32 H 0.6058 -0.1750 0.0239
C27 C 0.8239(6) -0.0831(6) 0.1595(4)
H33 H 0.9033 -0.0111 0.1973
H34 H 0.8528 -0.1144 0.1143
H35 H 0.7897 -0.1558 0.1857
C28 C 0.9123(3) 0.3073(4) 0.3041(2)
H36 H 0.9566 0.3056 0.2609
H37 H 0.9347 0.2500 0.3383
H38 H 0.9466 0.3978 0.3353
C29 C 0.2757(6) -0.0985(5) 0.2299(4)
H39 H 0.2063 -0.1760 0.1906
H40 H 0.2651 -0.1067 0.2830
H41 H 0.3690 -0.0926 0.2283
C30 C 0.2546(4) 0.0269(4) 0.2110(2)
H42 H 0.1597 0.0196 0.2119
H43 H 0.2626 0.0331 0.1567
C31 C 0.2114(4) 0.1435(5) 0.3757(2)
H44 H 0.2143 0.1496 0.4319
H45 H 0.1491 0.0547 0.3453
H46 H 0.1773 0.2087 0.3559
C32 C 0.3599(3) 0.1710(4) 0.3664(2)
H47 H 0.3944 0.1062 0.3881
H48 H 0.4223 0.2600 0.3983
C33 C 0.3251(15) 0.4921(10) 0.1946(5)
F1 F 0.3056(8) 0.5513(6) 0.2615(3)
F2 F 0.4658(8) 0.5373(6) 0.2024(5)
F3 F 0.2595(9) 0.5309(6) 0.1334(3)
loop_
_geom_bond_atom_site_label_1
_geom_bond_atom_site_label_2
_geom_bond_site_symmetry_1
_geom_bond_site_symmetry_2
B1 O1 1_555 1_555
S1 O1 1_555 1_555
O2 S1 1_555 1_555
O3 S1 1_555 1_555
N1 C1 1_555 1_555
N2 C1 1_555 1_555
C1 C28 1_555 1_555
C2 N1 1_555 1_555
H1 C2 1_555 1_555
C3 B1 1_555 1_555
C4 N2 1_555 1_555
C5 C4 1_555 1_555
C6 C5 1_555 1_555
H2 C6 1_555 1_555
C7 C6 1_555 1_555
H3 C7 1_555 1_555
C8 C7 1_555 1_555
H4 C8 1_555 1_555
C9 C4 1_555 1_555
C10 C9 1_555 1_555
H5 C10 1_555 1_555
C11 C10 1_555 1_555
H6 C11 1_555 1_555
H7 C11 1_555 1_555
H8 C11 1_555 1_555
C12 C10 1_555 1_555
H9 C12 1_555 1_555
H10 C12 1_555 1_555
H11 C12 1_555 1_555
C13 C5 1_555 1_555
H12 C13 1_555 1_555
C14 C13 1_555 1_555
H13 C14 1_555 1_555
H14 C14 1_555 1_555
H15 C14 1_555 1_555
C15 C13 1_555 1_555
H16 C15 1_555 1_555
H17 C15 1_555 1_555
H18 C15 1_555 1_555
C16 N1 1_555 1_555
C17 C16 1_555 1_555
C18 C17 1_555 1_555
H19 C18 1_555 1_555
C19 C18 1_555 1_555
H20 C19 1_555 1_555
C20 C19 1_555 1_555
H21 C20 1_555 1_555
C21 C16 1_555 1_555
C22 C21 1_555 1_555
H22 C22 1_555 1_555
C23 C22 1_555 1_555
H23 C23 1_555 1_555
H24 C23 1_555 1_555
H25 C23 1_555 1_555
C24 C22 1_555 1_555
H26 C24 1_555 1_555
H27 C24 1_555 1_555
H28 C24 1_555 1_555
C25 C17 1_555 1_555
H29 C25 1_555 1_555
C26 C25 1_555 1_555
H30 C26 1_555 1_555
H31 C26 1_555 1_555
H32 C26 1_555 1_555
C27 C25 1_555 1_555
H33 C27 1_555 1_555
H34 C27 1_555 1_555
H35 C27 1_555 1_555
C28 H36 1_555 1_555
H37 C28 1_555 1_555
H38 C28 1_555 1_555
C29 H39 1_555 1_555
H40 C29 1_555 1_555
H41 C29 1_555 1_555
C30 B1 1_555 1_555
H42 C30 1_555 1_555
H43 C30 1_555 1_555
C31 H44 1_555 1_555
H45 C31 1_555 1_555
H46 C31 1_555 1_555
C32 B1 1_555 1_555
H47 C32 1_555 1_555
H48 C32 1_555 1_555
C33 S1 1_555 1_555
F1 C33 1_555 1_555
F2 C33 1_555 1_555
F3 C33 1_555 1_555
N2 C3 1_555 1_555
C2 C3 1_555 1_555
C8 C9 1_555 1_555
C20 C21 1_555 1_555
C29 C30 1_555 1_555
C31 C32 1_555 1_555

#END
