
#######################################################################
#
#                 Cambridge Crystallographic Data Centre
#                                CCDC 
#
#######################################################################
#
# If this CIF has been generated from an entry in the Cambridge 
# Structural Database, then it will include bibliographic, chemical, 
# crystal, experimental, refinement or atomic coordinate data resulting 
# from the CCDC's data processing and validation procedures.
#
#######################################################################

data_SEJJIC
_chemical_formula_moiety         'C33 H51 B1 N2'
_chemical_name_systematic        
(1,3-bis(2,6-Di-isopropylphenyl)-1H-imidazol-3-ium-5-yl)(triethyl)borate
_symmetry_cell_setting           triclinic
_symmetry_space_group_name_H-M   'P -1'
_symmetry_Int_Tables_number      2
_space_group_name_Hall           '-P 1'
loop_
_symmetry_equiv_pos_site_id
_symmetry_equiv_pos_as_xyz
1 x,y,z
2 -x,-y,-z
_cell_length_a                   11.2979(14)
_cell_length_b                   15.4458(19)
_cell_length_c                   19.384(2)
_cell_angle_alpha                79.110(2)
_cell_angle_beta                 81.492(2)
_cell_angle_gamma                72.090(2)
_cell_volume                     3146.08
_exptl_crystal_colour            colorless
_exptl_crystal_description       plate
_cell_formula_units_Z            4
loop_
_atom_site_label
_atom_site_type_symbol
_atom_site_fract_x
_atom_site_fract_y
_atom_site_fract_z
B1 B 0.4425(3) 0.21706(19) 0.19364(15)
N1 N 0.66309(15) 0.03983(11) 0.32240(9)
N2 N 0.66144(15) 0.07345(11) 0.20953(9)
C1 C 0.7258(2) 0.01989(15) 0.26147(11)
H1 H 0.8045(19) -0.0262(14) 0.2577(10)
C2 C 0.5550(2) 0.10901(15) 0.30745(12)
H2 H 0.4943 0.1356 0.3413
C3 C 0.54925(19) 0.13313(14) 0.23628(11)
C4 C 0.70760(19) 0.06082(14) 0.13676(11)
C5 C 0.6723(2) -0.00346(15) 0.10894(12)
C6 C 0.7243(3) -0.01925(18) 0.04106(14)
H3 H 0.7034 -0.0617 0.0205
C7 C 0.8053(3) 0.02640(19) 0.00428(13)
H4 H 0.8383 0.0149 -0.0411
C8 C 0.8390(2) 0.08897(18) 0.03301(12)
H5 H 0.8947 0.1191 0.0069
C9 C 0.7911(2) 0.10804(15) 0.10067(11)
C10 C 0.8339(2) 0.17436(16) 0.13244(12)
H6 H 0.7736 0.1928 0.1726
C11 C 0.8369(3) 0.26151(19) 0.08095(15)
H7 H 0.8630 0.3017 0.1037
H8 H 0.7550 0.2921 0.0661
H9 H 0.8947 0.2456 0.0406
C12 C 0.9609(3) 0.1276(2) 0.16055(17)
H10 H 0.9858 0.1707 0.1808
H11 H 1.0216 0.1066 0.1226
H12 H 0.9554 0.0761 0.1960
C13 C 0.5844(3) -0.05604(18) 0.14945(14)
H13 H 0.5405 -0.0239 0.1890
C14 C 0.4856(3) -0.0597(2) 0.10465(19)
H14 H 0.4311 -0.0924 0.1329
H15 H 0.5260 -0.0907 0.0653
H16 H 0.4377 0.0018 0.0877
C15 C 0.6560(3) -0.1526(2) 0.18002(19)
H17 H 0.5984 -0.1842 0.2061
H18 H 0.7131 -0.1495 0.2109
H19 H 0.7018 -0.1854 0.1424
C16 C 0.70541(19) 0.00150(15) 0.39161(11)
C17 C 0.6785(2) -0.07868(16) 0.42648(13)
C18 C 0.7179(3) -0.1110(2) 0.49385(15)
H20 H 0.7015 -0.1641 0.5193
C19 C 0.7798(3) -0.0663(2) 0.52299(15)
H21 H 0.8043 -0.0890 0.5683
C20 C 0.8068(3) 0.0115(2) 0.48687(14)
H22 H 0.8505 0.0404 0.5076
C21 C 0.7697(2) 0.04790(17) 0.41959(12)
C22 C 0.7990(2) 0.13471(18) 0.37995(14)
H23 H 0.7723 0.1445 0.3325
C23 C 0.7258(3) 0.2187(2) 0.4135(2)
H24 H 0.7455 0.2722 0.3865
H25 H 0.7475 0.2108 0.4608
H26 H 0.6379 0.2265 0.4145
C24 C 0.9386(3) 0.1238(3) 0.3710(2)
H27 H 0.9538 0.1796 0.3453
H28 H 0.9812 0.0737 0.3455
H29 H 0.9691 0.1114 0.4166
C25 C 0.6109(3) -0.12957(18) 0.39451(15)
H30 H 0.5897 -0.0949 0.3480
C26 C 0.6904(4) -0.2256(3) 0.3840(3)
H31 H 0.6434 -0.2548 0.3634
H32 H 0.7141 -0.2609 0.4287
H33 H 0.7640 -0.2221 0.3531
C27 C 0.4908(3) -0.1351(3) 0.4380(3)
H34 H 0.4501 -0.1674 0.4160
H35 H 0.4370 -0.0741 0.4414
H36 H 0.5086 -0.1674 0.4845
C28 C 0.3216(2) 0.24711(18) 0.25132(14)
H37 H 0.3509 0.2586 0.2924
H38 H 0.2661 0.3048 0.2309
C29 C 0.2460(3) 0.1791(2) 0.27620(17)
H39 H 0.1782 0.2037 0.3097
H40 H 0.2987 0.1220 0.2980
H41 H 0.2134 0.1686 0.2365
C30 C 0.5005(3) 0.30345(18) 0.16526(17)
H42 H 0.5680 0.2851 0.1289
H43 H 0.4362 0.3539 0.1429
C31 C 0.5503(3) 0.3399(2) 0.2191(2)
H44 H 0.5817 0.3902 0.1960
H45 H 0.6166 0.2916 0.2407
H46 H 0.4842 0.3608 0.2547
C32 C 0.4038(3) 0.18276(19) 0.12803(14)
H47 H 0.4773 0.1661 0.0950
H48 H 0.3782 0.1276 0.1460
C33 C 0.2983(3) 0.2533(2) 0.08754(17)
H49 H 0.2820 0.2269 0.0502
H50 H 0.3234 0.3076 0.0680
H51 H 0.2240 0.2692 0.1193
B2 B 0.1514(3) 0.7932(2) 0.27325(19)
N3 N 0.10739(16) 0.56180(12) 0.25450(9)
N4 N 0.26566(15) 0.61243(11) 0.25172(8)
C34 C 0.2307(2) 0.53962(16) 0.24552(11)
H52 H 0.2853(18) 0.4834(14) 0.2367(10)
C35 C 0.0640(2) 0.65190(15) 0.26668(11)
H53 H -0.0199 0.6841 0.2747
C36 C 0.16099(19) 0.68721(14) 0.26539(11)
C37 C 0.39686(19) 0.60700(14) 0.24842(12)
C38 C 0.4614(2) 0.62314(15) 0.18272(13)
C39 C 0.5874(2) 0.61547(19) 0.18253(17)
H54 H 0.6343 0.6260 0.1398
C40 C 0.6437(3) 0.5929(2) 0.2438(2)
H55 H 0.7279 0.5889 0.2422
C41 C 0.5777(3) 0.5761(2) 0.30734(18)
H56 H 0.6181 0.5597 0.3484
C42 C 0.4506(2) 0.58310(17) 0.31184(13)
C43 C 0.3777(3) 0.5622(2) 0.38170(13)
H57 H 0.2888 0.5902 0.3754
C44 C 0.4072(3) 0.6031(2) 0.44051(15)
H58 H 0.3577 0.5887 0.4834
H59 H 0.3881 0.6687 0.4277
H60 H 0.4942 0.5777 0.4475
C45 C 0.3986(3) 0.4587(2) 0.40296(16)
H61 H 0.3775 0.4343 0.3659
H62 H 0.3467 0.4474 0.4455
H63 H 0.4847 0.4294 0.4108
C46 C 0.4030(2) 0.64606(17) 0.11397(12)
H64 H 0.3125 0.6578 0.1253
C47 C 0.4254(3) 0.7315(2) 0.06739(16)
H65 H 0.3861 0.7425 0.0246
H66 H 0.5136 0.7224 0.0561
H67 H 0.3907 0.7835 0.0919
C48 C 0.4488(4) 0.5653(2) 0.07289(16)
H68 H 0.4097 0.5813 0.0297
H69 H 0.4278 0.5127 0.1007
H70 H 0.5379 0.5509 0.0623
C49 C 0.0339(2) 0.50290(14) 0.24639(12)
C50 C 0.0062(2) 0.50404(16) 0.17843(12)
C51 C -0.0602(3) 0.44458(19) 0.17140(15)
H71 H -0.0790 0.4421 0.1268
C52 C -0.0983(3) 0.3898(2) 0.22855(16)
H72 H -0.1423 0.3502 0.2225
C53 C -0.0725(3) 0.39255(18) 0.29471(15)
H73 H -0.1004 0.3552 0.3331
C54 C -0.0059(2) 0.44952(16) 0.30609(12)
C55 C 0.0189(2) 0.45291(18) 0.37986(13)
H74 H 0.0664 0.4973 0.3762
C56 C 0.0977(3) 0.3605(2) 0.41384(16)
H75 H 0.1123 0.3652 0.4604
H76 H 0.1762 0.3428 0.3858
H77 H 0.0545 0.3151 0.4169
C57 C -0.1024(3) 0.4872(3) 0.42474(17)
H78 H -0.0847 0.4890 0.4713
H79 H -0.1527 0.4464 0.4276
H80 H -0.1468 0.5479 0.4038
C58 C 0.0437(2) 0.56748(17) 0.11497(12)
H81 H 0.0884 0.6037 0.1315
C59 C 0.1313(3) 0.5144(2) 0.05979(15)
H82 H 0.1541 0.5570 0.0211
H83 H 0.0901 0.4777 0.0430
H84 H 0.2052 0.4751 0.0805
C60 C -0.0714(3) 0.6347(2) 0.08252(17)
H85 H -0.0456 0.6746 0.0428
H86 H -0.1223 0.6708 0.1171
H87 H -0.1186 0.6009 0.0672
C61 C 0.1223(5) 0.8521(4) 0.1860(3)
H88 H 0.1156 0.9163 0.1856
H89 H 0.1957 0.8279 0.1547
C62 C 0.0086(9) 0.8490(9) 0.1537(5)
H90 H 0.0059 0.8837 0.1070
H91 H -0.0661 0.8751 0.1824
H92 H 0.0145 0.7863 0.1513
C63 C 0.0323(4) 0.8336(3) 0.3220(2)
H93 H 0.0152 0.8999 0.3171
H94 H -0.0390 0.8206 0.3085
C64 C 0.0528(10) 0.7912(7) 0.3970(4)
H95 H -0.0206 0.8157 0.4273
H96 H 0.1228 0.8049 0.4103
H97 H 0.0692 0.7257 0.4016
C65 C 0.2772(10) 0.8106(9) 0.2845(5)
H98 H 0.3392 0.7887 0.2466
H99 H 0.3060 0.7730 0.3282
C66 C 0.2730(19) 0.9117(10) 0.2873(13)
H100 H 0.3543 0.9135 0.2948
H101 H 0.2137 0.9342 0.3254
H102 H 0.2484 0.9496 0.2436
C67? C 0.0274(5) 0.8576(4) 0.2486(3)
C68? C 0.0451(15) 0.8635(13) 0.1682(6)
C69? C 0.1318(9) 0.7886(6) 0.3689(4)
C70? C 0.0406(17) 0.7474(11) 0.4157(8)
C71? C 0.2794(14) 0.8228(12) 0.2563(7)
C72? C 0.253(3) 0.9236(15) 0.2695(18)
H103? H -0.0412 0.8325 0.2686
H104? H 0.0108 0.9179 0.2621
H105? H -0.0296 0.9031 0.1486
H106? H 0.0624 0.8031 0.1560
H107? H 0.1138 0.8880 0.1496
H108? H 0.2131 0.7564 0.3855
H109? H 0.1122 0.8515 0.3777
H110? H 0.0448 0.7527 0.4638
H111? H 0.0600 0.6836 0.4111
H112? H -0.0422 0.7792 0.4025
H113? H 0.3415 0.7818 0.2864
H114? H 0.3121 0.8179 0.2076
H115? H 0.3292 0.9410 0.2596
H116? H 0.2213 0.9280 0.3178
H117? H 0.1925 0.9640 0.2391
loop_
_geom_bond_atom_site_label_1
_geom_bond_atom_site_label_2
_geom_bond_site_symmetry_1
_geom_bond_site_symmetry_2
B1 C3 1_555 1_555
B2 C36 1_555 1_555
N1 C1 1_555 1_555
N2 C1 1_555 1_555
N3 C34 1_555 1_555
N4 C34 1_555 1_555
C1 H1 1_555 1_555
C2 N1 1_555 1_555
H2 C2 1_555 1_555
C3 N2 1_555 1_555
C4 N2 1_555 1_555
C5 C4 1_555 1_555
C6 C5 1_555 1_555
H3 C6 1_555 1_555
C7 C6 1_555 1_555
H4 C7 1_555 1_555
C8 C7 1_555 1_555
H5 C8 1_555 1_555
C9 C4 1_555 1_555
C10 C9 1_555 1_555
H6 C10 1_555 1_555
C11 C10 1_555 1_555
H7 C11 1_555 1_555
H8 C11 1_555 1_555
H9 C11 1_555 1_555
C12 C10 1_555 1_555
H10 C12 1_555 1_555
H11 C12 1_555 1_555
H12 C12 1_555 1_555
C13 C5 1_555 1_555
H13 C13 1_555 1_555
C14 C13 1_555 1_555
H14 C14 1_555 1_555
H15 C14 1_555 1_555
H16 C14 1_555 1_555
C15 C13 1_555 1_555
H17 C15 1_555 1_555
H18 C15 1_555 1_555
H19 C15 1_555 1_555
C16 N1 1_555 1_555
C17 C16 1_555 1_555
C18 C17 1_555 1_555
H20 C18 1_555 1_555
C19 C18 1_555 1_555
H21 C19 1_555 1_555
C20 C19 1_555 1_555
H22 C20 1_555 1_555
C21 C16 1_555 1_555
C22 C21 1_555 1_555
H23 C22 1_555 1_555
C23 C22 1_555 1_555
H24 C23 1_555 1_555
H25 C23 1_555 1_555
H26 C23 1_555 1_555
C24 C22 1_555 1_555
H27 C24 1_555 1_555
H28 C24 1_555 1_555
H29 C24 1_555 1_555
C25 C17 1_555 1_555
H30 C25 1_555 1_555
C26 C25 1_555 1_555
H31 C26 1_555 1_555
H32 C26 1_555 1_555
H33 C26 1_555 1_555
C27 C25 1_555 1_555
H34 C27 1_555 1_555
H35 C27 1_555 1_555
H36 C27 1_555 1_555
C28 B1 1_555 1_555
H37 C28 1_555 1_555
H38 C28 1_555 1_555
C29 C28 1_555 1_555
H39 C29 1_555 1_555
H40 C29 1_555 1_555
H41 C29 1_555 1_555
C30 B1 1_555 1_555
H42 C30 1_555 1_555
H43 C30 1_555 1_555
C31 C30 1_555 1_555
H44 C31 1_555 1_555
H45 C31 1_555 1_555
H46 C31 1_555 1_555
C32 B1 1_555 1_555
H47 C32 1_555 1_555
H48 C32 1_555 1_555
C33 C32 1_555 1_555
H49 C33 1_555 1_555
H50 C33 1_555 1_555
H51 C33 1_555 1_555
C34 H52 1_555 1_555
C35 N3 1_555 1_555
H53 C35 1_555 1_555
C36 N4 1_555 1_555
C37 N4 1_555 1_555
C38 C37 1_555 1_555
C39 C38 1_555 1_555
H54 C39 1_555 1_555
C40 C39 1_555 1_555
H55 C40 1_555 1_555
C41 C40 1_555 1_555
H56 C41 1_555 1_555
C42 C37 1_555 1_555
C43 C42 1_555 1_555
H57 C43 1_555 1_555
C44 C43 1_555 1_555
H58 C44 1_555 1_555
H59 C44 1_555 1_555
H60 C44 1_555 1_555
C45 C43 1_555 1_555
H61 C45 1_555 1_555
H62 C45 1_555 1_555
H63 C45 1_555 1_555
C46 C38 1_555 1_555
H64 C46 1_555 1_555
C47 C46 1_555 1_555
H65 C47 1_555 1_555
H66 C47 1_555 1_555
H67 C47 1_555 1_555
C48 C46 1_555 1_555
H68 C48 1_555 1_555
H69 C48 1_555 1_555
H70 C48 1_555 1_555
C49 N3 1_555 1_555
C50 C49 1_555 1_555
C51 C50 1_555 1_555
H71 C51 1_555 1_555
C52 C51 1_555 1_555
H72 C52 1_555 1_555
C53 C52 1_555 1_555
H73 C53 1_555 1_555
C54 C49 1_555 1_555
C55 C54 1_555 1_555
H74 C55 1_555 1_555
C56 C55 1_555 1_555
H75 C56 1_555 1_555
H76 C56 1_555 1_555
H77 C56 1_555 1_555
C57 C55 1_555 1_555
H78 C57 1_555 1_555
H79 C57 1_555 1_555
H80 C57 1_555 1_555
C58 C50 1_555 1_555
H81 C58 1_555 1_555
C59 C58 1_555 1_555
H82 C59 1_555 1_555
H83 C59 1_555 1_555
H84 C59 1_555 1_555
C60 C58 1_555 1_555
H85 C60 1_555 1_555
H86 C60 1_555 1_555
H87 C60 1_555 1_555
C61 B2 1_555 1_555
H88 C61 1_555 1_555
H89 C61 1_555 1_555
C62 C61 1_555 1_555
H90 C62 1_555 1_555
H91 C62 1_555 1_555
H92 C62 1_555 1_555
C63 B2 1_555 1_555
H93 C63 1_555 1_555
H94 C63 1_555 1_555
C64 C63 1_555 1_555
H95 C64 1_555 1_555
H96 C64 1_555 1_555
H97 C64 1_555 1_555
C65 B2 1_555 1_555
H98 C65 1_555 1_555
H99 C65 1_555 1_555
C66 C65 1_555 1_555
H100 C66 1_555 1_555
H101 C66 1_555 1_555
H102 C66 1_555 1_555
C2 C3 1_555 1_555
C8 C9 1_555 1_555
C20 C21 1_555 1_555
C35 C36 1_555 1_555
C41 C42 1_555 1_555
C53 C54 1_555 1_555

#END
