
#######################################################################
#
#                 Cambridge Crystallographic Data Centre
#                                CCDC 
#
#######################################################################
#
# If this CIF has been generated from an entry in the Cambridge 
# Structural Database, then it will include bibliographic, chemical, 
# crystal, experimental, refinement or atomic coordinate data resulting 
# from the CCDC's data processing and validation procedures.
#
#######################################################################

data_SEKJAW
_chemical_formula_moiety         'C24 H15 N3,C6 H3 N3 O7,C2 H3 N1'
_chemical_name_systematic        
'2,4,6-trinitrophenol 4-{2-[(pyren-1-yl)methylidene]hydrazinyl}benzonitrile acetonitrile solvate'
_symmetry_cell_setting           triclinic
_symmetry_space_group_name_H-M   'P -1'
_symmetry_Int_Tables_number      2
_space_group_name_Hall           '-P 1'
loop_
_symmetry_equiv_pos_site_id
_symmetry_equiv_pos_as_xyz
1 x,y,z
2 -x,-y,-z
_cell_length_a                   7.0879(6)
_cell_length_b                   8.6017(7)
_cell_length_c                   23.632(2)
_cell_angle_alpha                82.192(6)
_cell_angle_beta                 85.543(6)
_cell_angle_gamma                81.563(6)
_cell_volume                     1409.53
_exptl_crystal_colour            brown
_exptl_crystal_description       needle
_cell_formula_units_Z            2
loop_
_atom_site_label
_atom_site_type_symbol
_atom_site_fract_x
_atom_site_fract_y
_atom_site_fract_z
O1 O 0.9734(3) 0.5054(2) 0.74464(9)
H1 H 1.0035 0.4560 0.7172
O2 O 0.8490(3) 0.7212(2) 0.80640(10)
O3 O 0.7274(3) 0.6630(3) 0.89122(11)
N1 N 1.0719(3) 0.1718(3) 0.73952(12)
N2 N 0.8079(3) 0.6252(3) 0.84732(12)
O4 O 1.1156(4) 0.0292(3) 0.74460(11)
O5 O 0.7673(4) 0.1384(3) 0.98151(10)
O6 O 0.8917(4) -0.0572(3) 0.93629(11)
N3 N 0.8422(4) 0.0835(4) 0.93924(12)
O7 O 1.0960(4) 0.2546(3) 0.69580(11)
C1 C 0.8597(4) 0.4561(3) 0.84227(12)
C2 C 0.8746(4) 0.1944(3) 0.88778(12)
C3 C 0.9876(4) 0.2404(3) 0.79093(12)
C4 C 0.9410(3) 0.4054(3) 0.79088(12)
C5 C 0.8250(4) 0.3531(3) 0.89032(12)
H2 H 0.7692 0.3902 0.9237
C6 C 0.9548(4) 0.1365(3) 0.83871(12)
H3 H 0.9865 0.0279 0.8380
N4 N 0.3202(3) 0.6318(3) 0.39686(9)
N5 N 0.3103(3) 0.5404(3) 0.44804(9)
H4 H 0.3690 0.4450 0.4519
C7 C 0.5498(3) 0.6773(3) 0.19848(10)
C8 C 0.6323(3) 0.6073(3) 0.14948(11)
C9 C 0.5012(3) 0.8441(3) 0.19403(11)
C10 C 0.2071(4) 0.5992(3) 0.49370(11)
C11 C 0.5145(3) 0.5814(3) 0.25139(11)
C12 C 0.4156(4) 0.9106(3) 0.24177(12)
H5 H 0.3808 1.0198 0.2392
C13 C -0.0015(4) 0.7114(3) 0.58743(11)
C14 C 0.6792(4) 0.4397(3) 0.15312(12)
C15 C 0.6667(4) 0.7027(4) 0.09732(11)
C16 C 0.0941(4) 0.7475(3) 0.48768(11)
H6 H 0.0891 0.8093 0.4522
C17 C 0.4323(3) 0.6553(3) 0.29885(11)
C18 C 0.4026(4) 0.5634(3) 0.35461(11)
H7 H 0.4435 0.4549 0.3596
C19 C 0.3819(4) 0.8188(3) 0.29222(11)
H8 H 0.3234 0.8670 0.3232
C20 C -0.0088(4) 0.8011(3) 0.53419(12)
H9 H -0.0849 0.8992 0.5300
C21 C 0.5385(4) 0.9368(3) 0.14058(12)
H10 H 0.5068 1.0463 0.1375
C22 C 0.2132(4) 0.5086(3) 0.54694(11)
H11 H 0.2878 0.4097 0.5510
N6 N -0.2021(5) 0.8151(3) 0.67300(12)
C23 C 0.5630(4) 0.4130(3) 0.25249(12)
H12 H 0.5398 0.3480 0.2863
C24 C 0.6179(4) 0.8702(4) 0.09477(12)
H13 H 0.6416 0.9344 0.0607
C25 C 0.6404(4) 0.3460(3) 0.20648(12)
H14 H 0.6695 0.2363 0.2093
C26 C 0.1106(4) 0.5630(3) 0.59366(12)
H15 H 0.1157 0.5016 0.6292
C27 C -0.1126(5) 0.7691(4) 0.63538(13)
C28 C 0.7594(4) 0.3741(4) 0.10462(13)
H16 H 0.7911 0.2648 0.1065
C29 C 0.7464(4) 0.6296(4) 0.05001(12)
H17 H 0.7683 0.6913 0.0153
C30 C 0.7928(5) 0.4679(5) 0.05403(13)
H18 H 0.8473 0.4215 0.0222
N7 N 0.4886(5) 0.1911(4) 0.45263(15)
C31 C 0.5599(5) 0.0947(5) 0.42778(16)
C32 C 0.6537(7) -0.0299(6) 0.3968(2)
H19 H 0.6727 0.0107 0.3572
H20 H 0.5761 -0.1136 0.4002
H21 H 0.7752 -0.0703 0.4122
loop_
_geom_bond_atom_site_label_1
_geom_bond_atom_site_label_2
_geom_bond_site_symmetry_1
_geom_bond_site_symmetry_2
O1 H1 1_555 1_555
O2 N2 1_555 1_555
O3 N2 1_555 1_555
N1 O4 1_555 1_555
N2 C1 1_555 1_555
O5 N3 1_555 1_555
O6 N3 1_555 1_555
N3 C2 1_555 1_555
O7 N1 1_555 1_555
C1 C4 1_555 1_555
C2 C5 1_555 1_555
C3 N1 1_555 1_555
C4 O1 1_555 1_555
C5 C1 1_555 1_555
H2 C5 1_555 1_555
C6 C2 1_555 1_555
H3 C6 1_555 1_555
N4 N5 1_555 1_555
N5 H4 1_555 1_555
C7 C8 1_555 1_555
C8 C14 1_555 1_555
C9 C7 1_555 1_555
C10 N5 1_555 1_555
C11 C7 1_555 1_555
C12 C9 1_555 1_555
H5 C12 1_555 1_555
C13 C20 1_555 1_555
C14 C25 1_555 1_555
C15 C8 1_555 1_555
C16 C10 1_555 1_555
H6 C16 1_555 1_555
C17 C11 1_555 1_555
C18 N4 1_555 1_555
H7 C18 1_555 1_555
C19 C12 1_555 1_555
H8 C19 1_555 1_555
C20 C16 1_555 1_555
H9 C20 1_555 1_555
C21 C9 1_555 1_555
H10 C21 1_555 1_555
C22 C10 1_555 1_555
H11 C22 1_555 1_555
N6 C27 1_555 1_555
C23 C11 1_555 1_555
H12 C23 1_555 1_555
C24 C15 1_555 1_555
H13 C24 1_555 1_555
C25 C23 1_555 1_555
H14 C25 1_555 1_555
C26 C13 1_555 1_555
H15 C26 1_555 1_555
C27 C13 1_555 1_555
C28 C14 1_555 1_555
H16 C28 1_555 1_555
C29 C15 1_555 1_555
H17 C29 1_555 1_555
C30 C28 1_555 1_555
H18 C30 1_555 1_555
N7 C31 1_555 1_555
C31 C32 1_555 1_555
C32 H19 1_555 1_555
H20 C32 1_555 1_555
H21 C32 1_555 1_555
C3 C4 1_555 1_555
C3 C6 1_555 1_555
C17 C18 1_555 1_555
C17 C19 1_555 1_555
C21 C24 1_555 1_555
C22 C26 1_555 1_555
C29 C30 1_555 1_555

#END
