
#######################################################################
#
#                 Cambridge Crystallographic Data Centre
#                                CCDC 
#
#######################################################################
#
# If this CIF has been generated from an entry in the Cambridge 
# Structural Database, then it will include bibliographic, chemical, 
# crystal, experimental, refinement or atomic coordinate data resulting 
# from the CCDC's data processing and validation procedures.
#
#######################################################################

data_SEKMUT
_chemical_formula_moiety         'C44 H44 N4 O4,C1 H2 Cl2'
_chemical_name_systematic        
'2,15,23,36-tetraoxa-7,10,28,31-tetra-azaheptacyclo[35.5.3.3^16,22^.2^7,10^.2^28,31^.0^19,49^.0^40,44^]dopentaconta-1(43),16,18,20,22(48),37,39,41,44,49-decaene-4,12,25,33-tetrayne dichloromethane solvate'
_symmetry_cell_setting           monoclinic
_symmetry_space_group_name_H-M   'C 2/c'
_symmetry_Int_Tables_number      15
_space_group_name_Hall           '-C 2yn'
loop_
_symmetry_equiv_pos_site_id
_symmetry_equiv_pos_as_xyz
1 x,y,z
2 -x,y,1/2-z
3 1/2+x,1/2+y,z
4 1/2-x,1/2+y,1/2-z
5 -x,-y,-z
6 x,-y,1/2+z
7 1/2-x,1/2-y,-z
8 1/2+x,1/2-y,1/2+z
_cell_length_a                   28.922(3)
_cell_length_b                   8.5069(9)
_cell_length_c                   21.687(2)
_cell_angle_alpha                90
_cell_angle_beta                 130.6320(10)
_cell_angle_gamma                90
_cell_volume                     4049.38
_exptl_crystal_colour            colorless
_exptl_crystal_description       block
_cell_formula_units_Z            4
loop_
_atom_site_label
_atom_site_type_symbol
_atom_site_fract_x
_atom_site_fract_y
_atom_site_fract_z
C1 C 0.08018(12) 0.3497(3) 0.79589(16)
H1 H 0.0685 0.4508 0.8028
H2 H 0.0659 0.2683 0.8113
C2 C 0.05100(11) 0.3287(3) 0.70822(15)
H3 H 0.0070 0.3334 0.6741
H4 H 0.0637 0.4128 0.6920
C3 C 0.13437(10) 0.1723(3) 0.74849(13)
H5 H 0.1479 0.2548 0.7325
H6 H 0.1462 0.0720 0.7412
C4 C 0.16439(11) 0.1927(3) 0.83657(14)
H7 H 0.1527 0.1070 0.8534
H8 H 0.2083 0.1902 0.8699
C5 C 0.03700(11) 0.1467(3) 0.61185(14)
H9 H -0.0065 0.1494 0.5816
H10 H 0.0472 0.0410 0.6075
C6 C 0.05089(11) 0.2560(3) 0.57308(14)
C7 C 0.06403(11) 0.3459(3) 0.54544(14)
C8 C 0.08137(11) 0.4540(3) 0.51094(14)
H11 H 0.0448 0.4909 0.4586
H12 H 0.1017 0.5445 0.5464
O1 O 0.12078(8) 0.38276(19) 0.50064(9)
C9 C 0.17871(11) 0.3457(2) 0.56820(14)
C10 C 0.20525(10) 0.3778(3) 0.64720(13)
H13 H 0.1830 0.4301 0.6581
C11 C 0.26570(11) 0.3324(2) 0.71183(14)
C12 C 0.29525(11) 0.3669(3) 0.79419(13)
H14 H 0.2737 0.4160 0.8069
C13 C 0.35477(11) 0.3289(2) 0.85446(14)
C14 C 0.38778(12) 0.2484(3) 0.83684(16)
H15 H 0.4282 0.2206 0.8785
C15 C 0.36002(13) 0.2122(3) 0.75871(16)
H16 H 0.3819 0.1585 0.7476
C16 C 0.29920(12) 0.2533(3) 0.69410(15)
C17 C 0.26971(14) 0.2209(3) 0.61189(17)
H17 H 0.2908 0.1676 0.5994
C18 C 0.21177(13) 0.2655(3) 0.55134(16)
H18 H 0.1935 0.2430 0.4978
O2 O 0.39020(7) 0.36526(19) 0.93514(9)
C19 C 0.36355(11) 0.4448(3) 0.96344(13)
H19 H 0.3274 0.5006 0.9186
H20 H 0.3922 0.5215 1.0043
C20 C 0.34736(11) 0.3346(3) 0.99794(14)
C21 C 0.33648(12) 0.2433(3) 1.02807(15)
C22 C 0.17600(13) 0.3718(3) 0.93275(16)
H21 H 0.1637 0.4751 0.9363
H22 H 0.2196 0.3749 0.9637
N1 N 0.14610(9) 0.3416(2) 0.84792(12)
N2 N 0.06861(8) 0.1785(2) 0.69755(11)
C1F C 0.41982(12) 0.1503(3) 1.20411(16)
H1F H 0.4315 0.0492 1.1972
H2F H 0.4341 0.2317 1.1887
C2F C 0.44900(11) 0.1713(3) 1.29178(15)
H3F H 0.4930 0.1666 1.3259
H4F H 0.4363 0.0872 1.3080
C3F C 0.36563(10) 0.3277(3) 1.25151(13)
H5F H 0.3521 0.2452 1.2675
H6F H 0.3538 0.4280 1.2588
C4F C 0.33561(11) 0.3073(3) 1.16343(14)
H7F H 0.3473 0.3930 1.1466
H8F H 0.2917 0.3098 1.1301
C5F C 0.46300(11) 0.3533(3) 1.38815(14)
H9F H 0.5065 0.3506 1.4184
H10F H 0.4528 0.4590 1.3925
C6F C 0.44911(11) 0.2440(3) 1.42692(14)
C7F C 0.43597(11) 0.1541(3) 1.45456(14)
C8F C 0.41863(11) 0.0460(3) 1.48906(14)
H11F H 0.4552 0.0091 1.5414
H12F H 0.3983 -0.0445 1.4536
O1F O 0.37922(8) 0.11724(19) 1.49936(9)
C9F C 0.32129(11) 0.1543(2) 1.43180(14)
C10F C 0.29475(10) 0.1222(3) 1.35280(13)
H13F H 0.3170 0.0699 1.3419
C11F C 0.23430(11) 0.1676(2) 1.28817(14)
C12F C 0.20475(11) 0.1331(3) 1.20581(13)
H14F H 0.2263 0.0840 1.1931
C13F C 0.14523(11) 0.1711(2) 1.14554(14)
C14F C 0.11222(12) 0.2516(3) 1.16316(16)
H15F H 0.0718 0.2794 1.1215
C15F C 0.13998(13) 0.2878(3) 1.24129(16)
H16F H 0.1181 0.3415 1.2524
C16F C 0.20080(12) 0.2467(3) 1.30590(15)
C17F C 0.23029(14) 0.2791(3) 1.38811(17)
H17F H 0.2092 0.3324 1.4006
C18F C 0.28823(13) 0.2345(3) 1.44866(16)
H18F H 0.3065 0.2570 1.5022
O2F O 0.10980(7) 0.13474(19) 1.06486(9)
C19F C 0.13645(11) 0.0552(3) 1.03656(13)
H19F H 0.1726 -0.0006 1.0814
H20F H 0.1078 -0.0215 0.9957
C20F C 0.15264(11) 0.1654(3) 1.00206(14)
C21F C 0.16352(12) 0.2567(3) 0.97193(15)
C22F C 0.32400(13) 0.1282(3) 1.06725(16)
H21F H 0.3363 0.0249 1.0637
H22F H 0.2804 0.1251 1.0363
N1F N 0.35390(9) 0.1584(2) 1.15208(12)
N2F N 0.43139(8) 0.3215(2) 1.30245(11)
C23 C 0.0000 0.0829(5) 0.2500
H23 H 0.0260 0.0159 0.2477
Cl1 Cl 0.04492(5) 0.19732(12) 0.33714(5)
H23A H -0.0260 0.0159 0.2523
Cl1A Cl -0.04492(5) 0.19732(12) 0.16286(5)
H24? H 0.0260 0.0159 0.2477
loop_
_geom_bond_atom_site_label_1
_geom_bond_atom_site_label_2
_geom_bond_site_symmetry_1
_geom_bond_site_symmetry_2
C1 H1 1_555 1_555
H2 C1 1_555 1_555
C2 C1 1_555 1_555
H3 C2 1_555 1_555
H4 C2 1_555 1_555
C3 H5 1_555 1_555
H6 C3 1_555 1_555
C4 C3 1_555 1_555
H7 C4 1_555 1_555
H8 C4 1_555 1_555
C5 H9 1_555 1_555
H10 C5 1_555 1_555
C6 C5 1_555 1_555
C7 C6 1_555 1_555
C8 C7 1_555 1_555
H11 C8 1_555 1_555
H12 C8 1_555 1_555
O1 C8 1_555 1_555
C9 O1 1_555 1_555
C10 C9 1_555 1_555
H13 C10 1_555 1_555
C11 C10 1_555 1_555
C12 C11 1_555 1_555
H14 C12 1_555 1_555
C13 C12 1_555 1_555
C14 C13 1_555 1_555
H15 C14 1_555 1_555
C15 C14 1_555 1_555
H16 C15 1_555 1_555
C16 C11 1_555 1_555
C17 C16 1_555 1_555
H17 C17 1_555 1_555
C18 C9 1_555 1_555
H18 C18 1_555 1_555
O2 C13 1_555 1_555
C19 O2 1_555 1_555
H19 C19 1_555 1_555
H20 C19 1_555 1_555
C20 C19 1_555 1_555
C21 C20 1_555 1_555
C22 H21 1_555 1_555
H22 C22 1_555 1_555
N1 C1 1_555 1_555
N2 C2 1_555 1_555
C23 H23 1_555 1_555
Cl1 C23 1_555 1_555
C1F H1F 1_555 1_555
H2F C1F 1_555 1_555
C2F C1F 1_555 1_555
H3F C2F 1_555 1_555
H4F C2F 1_555 1_555
C3F H5F 1_555 1_555
H6F C3F 1_555 1_555
C4F C3F 1_555 1_555
H7F C4F 1_555 1_555
H8F C4F 1_555 1_555
C5F H9F 1_555 1_555
H10F C5F 1_555 1_555
C6F C5F 1_555 1_555
C7F C6F 1_555 1_555
C8F C7F 1_555 1_555
H11F C8F 1_555 1_555
H12F C8F 1_555 1_555
O1F C8F 1_555 1_555
C9F O1F 1_555 1_555
C10F C9F 1_555 1_555
H13F C10F 1_555 1_555
C11F C10F 1_555 1_555
C12F C11F 1_555 1_555
H14F C12F 1_555 1_555
C13F C12F 1_555 1_555
C14F C13F 1_555 1_555
H15F C14F 1_555 1_555
C15F C14F 1_555 1_555
H16F C15F 1_555 1_555
C16F C11F 1_555 1_555
C17F C16F 1_555 1_555
H17F C17F 1_555 1_555
C18F C9F 1_555 1_555
H18F C18F 1_555 1_555
O2F C13F 1_555 1_555
C19F O2F 1_555 1_555
H19F C19F 1_555 1_555
H20F C19F 1_555 1_555
C20F C19F 1_555 1_555
C21F C22 1_555 1_555
C22F C21 1_555 1_555
H21F C22F 1_555 1_555
H22F C22F 1_555 1_555
N1F C1F 1_555 1_555
N2F C2F 1_555 1_555
H23A C23 1_555 1_555
Cl1A C23 1_555 1_555
C3 N2 1_555 1_555
C4 N1 1_555 1_555
C5 N2 1_555 1_555
C15 C16 1_555 1_555
C17 C18 1_555 1_555
C22 N1 1_555 1_555
C3F N2F 1_555 1_555
C4F N1F 1_555 1_555
C5F N2F 1_555 1_555
C15F C16F 1_555 1_555
C17F C18F 1_555 1_555
C20F C21F 1_555 1_555
C22F N1F 1_555 1_555

#END
