
#######################################################################
#
#                 Cambridge Crystallographic Data Centre
#                                CCDC 
#
#######################################################################
#
# If this CIF has been generated from an entry in the Cambridge 
# Structural Database, then it will include bibliographic, chemical, 
# crystal, experimental, refinement or atomic coordinate data resulting 
# from the CCDC's data processing and validation procedures.
#
#######################################################################

data_SEKQOR
_chemical_formula_moiety         'C96 H66 F10 N4,C6 H14'
_chemical_name_systematic        
'15,35-bis(pentafluorophenyl)-10,20,30,40-tetrakis(2,4,6-trimethylphenyl)-45,46,51,52-tetraazadodecacyclo[27.11.4.4^9,21^.1^11,14^.1^16,19^.1^31,34^.1^36,39^.0^4,42^.0^5,25^.0^6,49^.0^24,48^.0^26,43^]dopentaconta-1(41),2,4(42),5(25),6,8,10,12,14(52),15,17,19,21,23,26(43),27,29(44),30,32,34(46),35,37,39,47,49-pentacosaene n-hexane solvate'
_symmetry_cell_setting           monoclinic
_symmetry_space_group_name_H-M   'C 2/c'
_symmetry_Int_Tables_number      15
_space_group_name_Hall           '-C 2yn'
loop_
_symmetry_equiv_pos_site_id
_symmetry_equiv_pos_as_xyz
1 x,y,z
2 -x,y,1/2-z
3 1/2+x,1/2+y,z
4 1/2-x,1/2+y,1/2-z
5 -x,-y,-z
6 x,-y,1/2+z
7 1/2-x,1/2-y,-z
8 1/2+x,1/2-y,1/2+z
_cell_length_a                   29.296(7)
_cell_length_b                   12.4764(12)
_cell_length_c                   27.728(4)
_cell_angle_alpha                90
_cell_angle_beta                 123.12(2)
_cell_angle_gamma                90
_cell_volume                     8488.2
_exptl_crystal_colour            red
_exptl_crystal_description       plate
_cell_formula_units_Z            4
loop_
_atom_site_label
_atom_site_type_symbol
_atom_site_fract_x
_atom_site_fract_y
_atom_site_fract_z
C1 C 0.2291(2) 0.3435(4) 0.65637(19)
C2 C 0.2253(2) 0.2528(4) 0.6859(2)
H1 H 0.2017 0.1932 0.6680
C3 C 0.2609(2) 0.2658(5) 0.7434(2)
H2 H 0.2663 0.2169 0.7723
C4 C 0.2890(2) 0.3657(4) 0.75319(18)
C5 C 0.3266(2) 0.4136(4) 0.80527(18)
C6 C 0.3506(2) 0.5140(4) 0.81068(18)
C7 C 0.3905(2) 0.5655(4) 0.86637(18)
H3 H 0.4036 0.5377 0.9036
C8 C 0.4047(2) 0.6580(5) 0.85440(18)
H4 H 0.4298 0.7086 0.8817
C9 C 0.3749(2) 0.6682(4) 0.79160(18)
C10 C 0.3809(2) 0.7514(4) 0.76401(19)
C11 C 0.3513(2) 0.7652(4) 0.70116(18)
C12 C 0.3733(2) 0.8262(5) 0.67654(19)
H5 H 0.4071 0.8618 0.7008
C13 C 0.3465(2) 0.8359(5) 0.61704(18)
H6 H 0.3619 0.8796 0.6014
C14 C 0.2969(2) 0.7821(4) 0.57931(17)
C15 C 0.2773(2) 0.7136(4) 0.60399(17)
C16 C 0.3027(2) 0.7111(4) 0.66446(17)
H7 H 0.2863 0.6715 0.6804
C17 C 0.2682(2) 0.7908(4) 0.51669(17)
C18 C 0.2378(2) 0.6297(4) 0.56826(18)
C19 C 0.2255(2) 0.5486(4) 0.59453(17)
H8 H 0.2317 0.5614 0.6314
C20 C 0.2047(2) 0.4509(4) 0.56836(18)
C21 C 0.1931(2) 0.4378(4) 0.51167(18)
H9 H 0.1796 0.3710 0.4925
C22 C 0.2012(2) 0.5202(4) 0.48437(19)
H10 H 0.1919 0.5096 0.4461
C23 C 0.2230(2) 0.6202(4) 0.51110(18)
C24 C 0.1990(2) 0.3591(4) 0.59811(19)
C25 C 0.3431(2) 0.3554(4) 0.85923(18)
C26 C 0.3834(3) 0.2790(5) 0.8819(3)
C27 C 0.4013(3) 0.2289(6) 0.9332(3)
C28 C 0.3809(3) 0.2601(6) 0.9644(3)
C29 C 0.3416(3) 0.3378(7) 0.9455(3)
C30 C 0.3224(3) 0.3844(5) 0.8918(2)
C31 C 0.4221(2) 0.8376(5) 0.79919(17)
C32 C 0.4775(2) 0.8129(5) 0.8272(2)
C33 C 0.5153(3) 0.8948(6) 0.8593(2)
H11 H 0.5532 0.8797 0.8789
C34 C 0.4989(3) 0.9960(6) 0.8630(2)
C35 C 0.4434(3) 1.0176(6) 0.8341(2)
H12 H 0.4320 1.0875 0.8366
C36 C 0.4038(3) 0.9397(5) 0.80140(19)
C37 C 0.4980(3) 0.7054(6) 0.8228(2)
H13 H 0.4970 0.6553 0.8495
H14 H 0.5355 0.7124 0.8328
H15 H 0.4748 0.6784 0.7834
C38 C 0.5404(4) 1.0819(8) 0.8986(4)
H16 H 0.5616 1.0604 0.9391
H17 H 0.5217 1.1496 0.8944
H18 H 0.5650 1.0913 0.8851
C39 C 0.3447(3) 0.9678(5) 0.7721(2)
H19 H 0.3283 0.9728 0.7305
H20 H 0.3412 1.0368 0.7867
H21 H 0.3261 0.9121 0.7800
C40 C 0.1570(2) 0.2765(4) 0.56050(18)
C41 C 0.1721(3) 0.1856(5) 0.5431(2)
C42 C 0.1303(3) 0.1131(5) 0.5057(2)
H22 H 0.1397 0.0515 0.4928
C43 C 0.0769(3) 0.1283(5) 0.4874(2)
C44 C 0.0627(2) 0.2181(5) 0.5049(2)
H23 H 0.0257 0.2292 0.4925
C45 C 0.1024(2) 0.2938(5) 0.54117(18)
C46 C 0.2298(3) 0.1645(6) 0.5622(3)
H24 H 0.2456 0.2297 0.5576
H25 H 0.2308 0.1069 0.5388
H26 H 0.2507 0.1430 0.6028
C47 C 0.0336(3) 0.0478(6) 0.4481(3)
H27 H 0.0027 0.0855 0.4156
H28 H 0.0211 0.0090 0.4696
H29 H 0.0489 -0.0031 0.4337
C48 C 0.0858(3) 0.3940(5) 0.5587(2)
H30 H 0.1048 0.3964 0.6007
H31 H 0.0463 0.3929 0.5414
H32 H 0.0954 0.4574 0.5452
N1 N 0.26973(19) 0.4101(4) 0.70016(15)
N2 N 0.34149(18) 0.5761(3) 0.76658(15)
F1 F 0.4055(2) 0.2497(4) 0.8525(2)
F2 F 0.4396(2) 0.1520(4) 0.9528(3)
F3 F 0.3989(2) 0.2131(5) 1.01610(16)
F4 F 0.3225(2) 0.3676(4) 0.97676(16)
F5 F 0.28426(18) 0.4598(3) 0.87341(15)
H33 H 0.283(2) 0.472(4) 0.696(2)
C1F C 0.2709(2) 1.1565(4) 0.34363(19)
C2F C 0.2747(2) 1.2472(4) 0.3141(2)
H1F H 0.2983 1.3068 0.3320
C3F C 0.2391(2) 1.2342(5) 0.2566(2)
H2F H 0.2337 1.2831 0.2277
C4F C 0.2110(2) 1.1343(4) 0.24681(18)
C5F C 0.1734(2) 1.0864(4) 0.19473(18)
C6F C 0.1494(2) 0.9860(4) 0.18932(18)
C7F C 0.1095(2) 0.9345(4) 0.13363(18)
H3F H 0.0964 0.9623 0.0964
C8F C 0.0953(2) 0.8420(5) 0.14560(18)
H4F H 0.0702 0.7914 0.1183
C9F C 0.1251(2) 0.8318(4) 0.20840(18)
C10F C 0.1191(2) 0.7486(4) 0.23599(19)
C11F C 0.1487(2) 0.7348(4) 0.29884(18)
C12F C 0.1267(2) 0.6738(5) 0.32346(19)
H5F H 0.0929 0.6382 0.2992
C13F C 0.1535(2) 0.6641(5) 0.38296(18)
H6F H 0.1381 0.6204 0.3986
C14F C 0.2031(2) 0.7179(4) 0.42069(17)
C15F C 0.2227(2) 0.7864(4) 0.39601(17)
C16F C 0.1973(2) 0.7889(4) 0.33554(17)
H7F H 0.2137 0.8285 0.3196
C17F C 0.2318(2) 0.7092(4) 0.48331(17)
C18F C 0.2622(2) 0.8703(4) 0.43174(18)
C19F C 0.2745(2) 0.9514(4) 0.40547(17)
H8F H 0.2683 0.9386 0.3686
C20F C 0.2953(2) 1.0491(4) 0.43164(18)
C21F C 0.3069(2) 1.0622(4) 0.48833(18)
H9F H 0.3204 1.1290 0.5075
C22F C 0.2988(2) 0.9798(4) 0.51563(19)
H10F H 0.3081 0.9904 0.5539
C23F C 0.2770(2) 0.8798(4) 0.48890(18)
C24F C 0.3010(2) 1.1409(4) 0.40189(19)
C25F C 0.1569(2) 1.1446(4) 0.14077(18)
C26F C 0.1166(3) 1.2210(5) 0.1181(3)
C27F C 0.0987(3) 1.2711(6) 0.0668(3)
C28F C 0.1191(3) 1.2399(6) 0.0356(3)
C29F C 0.1584(3) 1.1622(7) 0.0545(3)
C30F C 0.1776(3) 1.1156(5) 0.1082(2)
C31F C 0.0779(2) 0.6624(5) 0.20081(17)
C32F C 0.0225(2) 0.6871(5) 0.1728(2)
C33F C -0.0153(3) 0.6052(6) 0.1407(2)
H11F H -0.0532 0.6203 0.1211
C34F C 0.0011(3) 0.5040(6) 0.1370(2)
C35F C 0.0566(3) 0.4824(6) 0.1659(2)
H12F H 0.0680 0.4125 0.1634
C36F C 0.0962(3) 0.5603(5) 0.19860(19)
C37F C 0.0020(3) 0.7946(6) 0.1772(2)
H13F H 0.0030 0.8447 0.1505
H14F H -0.0355 0.7876 0.1672
H15F H 0.0252 0.8216 0.2166
C38F C -0.0404(4) 0.4181(8) 0.1014(4)
H16F H -0.0616 0.4396 0.0609
H17F H -0.0217 0.3504 0.1056
H18F H -0.0650 0.4087 0.1149
C39F C 0.1553(3) 0.5322(5) 0.2279(2)
H19F H 0.1717 0.5272 0.2695
H20F H 0.1588 0.4632 0.2133
H21F H 0.1739 0.5879 0.2200
C40F C 0.3430(2) 1.2235(4) 0.43950(18)
C41F C 0.3279(3) 1.3144(5) 0.4569(2)
C42F C 0.3697(3) 1.3869(5) 0.4943(2)
H22F H 0.3603 1.4485 0.5072
C43F C 0.4231(3) 1.3717(5) 0.5126(2)
C44F C 0.4373(2) 1.2819(5) 0.4951(2)
H23F H 0.4743 1.2708 0.5075
C45F C 0.3976(2) 1.2062(5) 0.45883(18)
C46F C 0.2702(3) 1.3355(6) 0.4378(3)
H24F H 0.2544 1.2703 0.4424
H25F H 0.2692 1.3931 0.4612
H26F H 0.2493 1.3570 0.3972
C47F C 0.4664(3) 1.4522(6) 0.5519(3)
H27F H 0.4973 1.4145 0.5844
H28F H 0.4789 1.4910 0.5304
H29F H 0.4511 1.5031 0.5663
C48F C 0.4142(3) 1.1060(5) 0.4413(2)
H30F H 0.3952 1.1036 0.3993
H31F H 0.4537 1.1071 0.4586
H32F H 0.4046 1.0426 0.4548
N1F N 0.23027(19) 1.0899(4) 0.29984(15)
N2F N 0.15851(18) 0.9239(3) 0.23342(15)
F1F F 0.0945(2) 1.2503(4) 0.1475(2)
F2F F 0.0604(2) 1.3480(4) 0.0472(3)
F3F F 0.1011(2) 1.2869(5) -0.01610(16)
F4F F 0.1775(2) 1.1324(4) 0.02324(16)
F5F F 0.21574(18) 1.0402(3) 0.12659(15)
H33F H 0.217(2) 1.028(4) 0.304(2)
loop_
_geom_bond_atom_site_label_1
_geom_bond_atom_site_label_2
_geom_bond_site_symmetry_1
_geom_bond_site_symmetry_2
C1 C2 1_555 1_555
C2 H1 1_555 1_555
C3 C2 1_555 1_555
H2 C3 1_555 1_555
C4 C3 1_555 1_555
C5 C4 1_555 1_555
C6 C5 1_555 1_555
C7 C6 1_555 1_555
H3 C7 1_555 1_555
C8 C7 1_555 1_555
H4 C8 1_555 1_555
C9 C8 1_555 1_555
C10 C9 1_555 1_555
C11 C10 1_555 1_555
C12 C11 1_555 1_555
H5 C12 1_555 1_555
C13 C12 1_555 1_555
H6 C13 1_555 1_555
C14 C13 1_555 1_555
C15 C14 1_555 1_555
C16 C11 1_555 1_555
H7 C16 1_555 1_555
C17 C14 1_555 1_555
C18 C15 1_555 1_555
C19 C18 1_555 1_555
H8 C19 1_555 1_555
C20 C19 1_555 1_555
C21 C20 1_555 1_555
H9 C21 1_555 1_555
C22 C21 1_555 1_555
H10 C22 1_555 1_555
C23 C18 1_555 1_555
C24 C1 1_555 1_555
C25 C5 1_555 1_555
C26 C25 1_555 1_555
C27 C26 1_555 1_555
C28 C27 1_555 1_555
C29 C28 1_555 1_555
C30 C25 1_555 1_555
C31 C10 1_555 1_555
C32 C31 1_555 1_555
C33 C32 1_555 1_555
H11 C33 1_555 1_555
C34 C33 1_555 1_555
C35 C34 1_555 1_555
H12 C35 1_555 1_555
C36 C31 1_555 1_555
C37 C32 1_555 1_555
H13 C37 1_555 1_555
H14 C37 1_555 1_555
H15 C37 1_555 1_555
C38 C34 1_555 1_555
H16 C38 1_555 1_555
H17 C38 1_555 1_555
H18 C38 1_555 1_555
C39 C36 1_555 1_555
H19 C39 1_555 1_555
H20 C39 1_555 1_555
H21 C39 1_555 1_555
C40 C24 1_555 1_555
C41 C40 1_555 1_555
C42 C41 1_555 1_555
H22 C42 1_555 1_555
C43 C42 1_555 1_555
C44 C43 1_555 1_555
H23 C44 1_555 1_555
C45 C40 1_555 1_555
C46 C41 1_555 1_555
H24 C46 1_555 1_555
H25 C46 1_555 1_555
H26 C46 1_555 1_555
C47 C43 1_555 1_555
H27 C47 1_555 1_555
H28 C47 1_555 1_555
H29 C47 1_555 1_555
C48 C45 1_555 1_555
H30 C48 1_555 1_555
H31 C48 1_555 1_555
H32 C48 1_555 1_555
N1 C1 1_555 1_555
N2 C6 1_555 1_555
F1 C26 1_555 1_555
F2 C27 1_555 1_555
F3 C28 1_555 1_555
F4 C29 1_555 1_555
F5 C30 1_555 1_555
H33 N1 1_555 1_555
C1F C2F 1_555 1_555
C2F H1F 1_555 1_555
C3F C2F 1_555 1_555
H2F C3F 1_555 1_555
C4F C3F 1_555 1_555
C5F C4F 1_555 1_555
C6F C5F 1_555 1_555
C7F C6F 1_555 1_555
H3F C7F 1_555 1_555
C8F C7F 1_555 1_555
H4F C8F 1_555 1_555
C9F C8F 1_555 1_555
C10F C9F 1_555 1_555
C11F C10F 1_555 1_555
C12F C11F 1_555 1_555
H5F C12F 1_555 1_555
C13F C12F 1_555 1_555
H6F C13F 1_555 1_555
C14F C13F 1_555 1_555
C15F C14F 1_555 1_555
C16F C11F 1_555 1_555
H7F C16F 1_555 1_555
C17F C17 1_555 1_555
C18F C15F 1_555 1_555
C19F C18F 1_555 1_555
H8F C19F 1_555 1_555
C20F C19F 1_555 1_555
C21F C20F 1_555 1_555
H9F C21F 1_555 1_555
C22F C21F 1_555 1_555
H10F C22F 1_555 1_555
C23F C17 1_555 1_555
C24F C1F 1_555 1_555
C25F C5F 1_555 1_555
C26F C25F 1_555 1_555
C27F C26F 1_555 1_555
C28F C27F 1_555 1_555
C29F C28F 1_555 1_555
C30F C25F 1_555 1_555
C31F C10F 1_555 1_555
C32F C31F 1_555 1_555
C33F C32F 1_555 1_555
H11F C33F 1_555 1_555
C34F C33F 1_555 1_555
C35F C34F 1_555 1_555
H12F C35F 1_555 1_555
C36F C31F 1_555 1_555
C37F C32F 1_555 1_555
H13F C37F 1_555 1_555
H14F C37F 1_555 1_555
H15F C37F 1_555 1_555
C38F C34F 1_555 1_555
H16F C38F 1_555 1_555
H17F C38F 1_555 1_555
H18F C38F 1_555 1_555
C39F C36F 1_555 1_555
H19F C39F 1_555 1_555
H20F C39F 1_555 1_555
H21F C39F 1_555 1_555
C40F C24F 1_555 1_555
C41F C40F 1_555 1_555
C42F C41F 1_555 1_555
H22F C42F 1_555 1_555
C43F C42F 1_555 1_555
C44F C43F 1_555 1_555
H23F C44F 1_555 1_555
C45F C40F 1_555 1_555
C46F C41F 1_555 1_555
H24F C46F 1_555 1_555
H25F C46F 1_555 1_555
H26F C46F 1_555 1_555
C47F C43F 1_555 1_555
H27F C47F 1_555 1_555
H28F C47F 1_555 1_555
H29F C47F 1_555 1_555
C48F C45F 1_555 1_555
H30F C48F 1_555 1_555
H31F C48F 1_555 1_555
H32F C48F 1_555 1_555
N1F C1F 1_555 1_555
N2F C6F 1_555 1_555
F1F C26F 1_555 1_555
F2F C27F 1_555 1_555
F3F C28F 1_555 1_555
F4F C29F 1_555 1_555
F5F C30F 1_555 1_555
H33F N1F 1_555 1_555
C4 N1 1_555 1_555
C9 N2 1_555 1_555
C15 C16 1_555 1_555
C20 C24 1_555 1_555
C22 C23 1_555 1_555
C23 C17F 1_555 1_555
C29 C30 1_555 1_555
C35 C36 1_555 1_555
C44 C45 1_555 1_555
C4F N1F 1_555 1_555
C9F N2F 1_555 1_555
C14F C17F 1_555 1_555
C15F C16F 1_555 1_555
C18F C23F 1_555 1_555
C20F C24F 1_555 1_555
C22F C23F 1_555 1_555
C29F C30F 1_555 1_555
C35F C36F 1_555 1_555
C44F C45F 1_555 1_555

#END
