
#######################################################################
#
#                 Cambridge Crystallographic Data Centre
#                                CCDC 
#
#######################################################################
#
# If this CIF has been generated from an entry in the Cambridge 
# Structural Database, then it will include bibliographic, chemical, 
# crystal, experimental, refinement or atomic coordinate data resulting 
# from the CCDC's data processing and validation procedures.
#
#######################################################################

data_SEKRUY
_chemical_formula_moiety         'C25 H36 O4'
_chemical_name_systematic        
"2,2'-(2,2-dimethylpropane-1,1-diyl)bis(5-t-butylbenzene-1,4-diol) unknown solvate"
_symmetry_cell_setting           orthorhombic
_symmetry_space_group_name_H-M   'P n m a'
_symmetry_Int_Tables_number      62
_space_group_name_Hall           '-P 2ac 2n'
loop_
_symmetry_equiv_pos_site_id
_symmetry_equiv_pos_as_xyz
1 x,y,z
2 1/2-x,-y,1/2+z
3 -x,1/2+y,-z
4 1/2+x,1/2-y,1/2-z
5 -x,-y,-z
6 1/2+x,y,1/2-z
7 x,1/2-y,z
8 1/2-x,1/2+y,1/2+z
_cell_length_a                   21.9649(15)
_cell_length_b                   20.8793(15)
_cell_length_c                   11.3150(8)
_cell_angle_alpha                90
_cell_angle_beta                 90
_cell_angle_gamma                90
_cell_volume                     5189.19
_exptl_crystal_colour            colorless
_exptl_crystal_description       Plate
_cell_formula_units_Z            8
loop_
_atom_site_label
_atom_site_type_symbol
_atom_site_fract_x
_atom_site_fract_y
_atom_site_fract_z
O1 O 0.72207(6) 0.16290(8) 0.35773(12)
H1 H 0.7542(10) 0.1893(12) 0.341(2)
C1 C 0.70088(11) 0.2500 0.1558(2)
H2 H 0.7342(14) 0.2500 0.217(3)
O2 O 0.52836(7) 0.10697(8) 0.06513(12)
H3 H 0.4967(10) 0.1235(13) 0.105(2)
C2 C 0.66323(8) 0.19014(8) 0.18106(16)
C3 C 0.61303(8) 0.17224(9) 0.11242(16)
H4 H 0.6034 0.1969 0.0444
C4 C 0.57676(8) 0.12002(9) 0.13966(17)
C5 C 0.58867(8) 0.08147(8) 0.23896(16)
C6 C 0.63847(8) 0.09941(9) 0.30590(16)
H5 H 0.6483 0.0748 0.3739
C7 C 0.67484(8) 0.15172(9) 0.27858(16)
C8 C 0.73954(12) 0.2500 0.0396(2)
C9 C 0.78040(10) 0.19064(10) 0.0426(2)
H6 H 0.8059 0.1918 0.1137
H7 H 0.8064 0.1901 -0.0277
H8 H 0.7550 0.1520 0.0439
C10 C 0.70339(14) 0.2500 -0.0754(3)
H9 H 0.6772(10) 0.2125(9) -0.083(2)
H10 H 0.7298(13) 0.2500 -0.143(2)
C11 C 0.54988(9) 0.02253(9) 0.27015(17)
C12 C 0.48277(9) 0.04102(10) 0.28618(19)
H11 H 0.4794 0.0740 0.3475
H12 H 0.4594 0.0032 0.3099
H13 H 0.4667 0.0577 0.2115
C13 C 0.55648(11) -0.02800(10) 0.1728(2)
H14 H 0.5413 -0.0106 0.0980
H15 H 0.5329 -0.0661 0.1940
H16 H 0.5995 -0.0396 0.1642
C14 C 0.57058(10) -0.00789(11) 0.3868(2)
H17 H 0.6124 -0.0236 0.3785
H18 H 0.5436 -0.0437 0.4066
H19 H 0.5689 0.0242 0.4500
O1F O 0.72207(6) 0.33710(8) 0.35773(12)
H1F H 0.7542(10) 0.3107(12) 0.341(2)
O2F O 0.52836(7) 0.39303(8) 0.06513(12)
H3F H 0.4967(10) 0.3765(13) 0.105(2)
C2F C 0.66323(8) 0.30986(8) 0.18106(16)
C3F C 0.61303(8) 0.32776(9) 0.11242(16)
H4F H 0.6034 0.3031 0.0444
C4F C 0.57676(8) 0.37998(9) 0.13966(17)
C5F C 0.58867(8) 0.41853(8) 0.23896(16)
C6F C 0.63847(8) 0.40059(9) 0.30590(16)
H5F H 0.6483 0.4252 0.3739
C7F C 0.67484(8) 0.34828(9) 0.27858(16)
C9F C 0.78040(10) 0.30936(10) 0.0426(2)
H6F H 0.8059 0.3082 0.1137
H7F H 0.8064 0.3099 -0.0277
H8F H 0.7550 0.3480 0.0439
H9F H 0.6772(10) 0.2875(9) -0.083(2)
C11F C 0.54988(9) 0.47747(9) 0.27015(17)
C12F C 0.48277(9) 0.45898(10) 0.28618(19)
H11F H 0.4794 0.4260 0.3475
H12F H 0.4594 0.4968 0.3099
H13F H 0.4667 0.4423 0.2115
C13F C 0.55648(11) 0.52800(10) 0.1728(2)
H14F H 0.5413 0.5106 0.0980
H15F H 0.5329 0.5661 0.1940
H16F H 0.5995 0.5396 0.1642
C14F C 0.57058(10) 0.50789(11) 0.3868(2)
H17F H 0.6124 0.5236 0.3785
H18F H 0.5436 0.5437 0.4066
H19F H 0.5689 0.4758 0.4500
C15 C 0.54504(11) 0.2500 0.6434(2)
H20 H 0.5119 0.2500 0.7039
O3 O 0.52655(6) 0.17993(6) 0.85676(12)
H21 H 0.5249(11) 0.1561(11) 0.9293(17)
O4 O 0.71538(6) 0.09879(7) 0.57109(13)
H22 H 0.7168(12) 0.1249(12) 0.5028(19)
C16 C 0.58244(8) 0.19086(8) 0.67421(16)
C17 C 0.63141(8) 0.16900(9) 0.60664(16)
H23 H 0.6408 0.1905 0.5349
C18 C 0.66693(8) 0.11715(9) 0.64020(17)
C19 C 0.65506(8) 0.08313(8) 0.74507(16)
C20 C 0.60652(8) 0.10580(8) 0.81256(16)
H24 H 0.5967 0.0844 0.8841
C21 C 0.57181(8) 0.15859(8) 0.77928(16)
C22 C 0.50990(12) 0.2500 0.5232(2)
C23 C 0.54800(14) 0.2500 0.4100(2)
H25 H 0.5744(10) 0.2131(9) 0.401(2)
H26 H 0.5203(12) 0.2500 0.344(2)
C24 C 0.46945(11) 0.19053(11) 0.52246(19)
H27 H 0.4950 0.1521 0.5185
H28 H 0.4424 0.1919 0.4536
H29 H 0.4450 0.1895 0.5948
C25 C 0.69384(9) 0.02619(9) 0.78487(18)
C26 C 0.76016(10) 0.04794(11) 0.8025(2)
H30 H 0.7778 0.0598 0.7260
H31 H 0.7838 0.0129 0.8372
H32 H 0.7611 0.0850 0.8556
C27 C 0.69150(10) -0.02779(10) 0.6925(2)
H33 H 0.6495 -0.0431 0.6844
H34 H 0.7177 -0.0632 0.7179
H35 H 0.7058 -0.0115 0.6162
C28 C 0.67156(11) -0.00104(11) 0.9032(2)
H36 H 0.6730 0.0325 0.9636
H37 H 0.6979 -0.0367 0.9270
H38 H 0.6296 -0.0164 0.8945
O3F O 0.52655(6) 0.32007(6) 0.85676(12)
H21F H 0.5249(11) 0.3439(11) 0.9293(17)
O4F O 0.71538(6) 0.40121(7) 0.57109(13)
H22F H 0.7168(12) 0.3751(12) 0.5028(19)
C16F C 0.58244(8) 0.30914(8) 0.67421(16)
C17F C 0.63141(8) 0.33100(9) 0.60664(16)
H23F H 0.6408 0.3095 0.5349
C18F C 0.66693(8) 0.38285(9) 0.64020(17)
C19F C 0.65506(8) 0.41687(8) 0.74507(16)
C20F C 0.60652(8) 0.39420(8) 0.81256(16)
H24F H 0.5967 0.4156 0.8841
C21F C 0.57181(8) 0.34141(8) 0.77928(16)
H25F H 0.5744(10) 0.2869(9) 0.401(2)
C24F C 0.46945(11) 0.30947(11) 0.52246(19)
H27F H 0.4950 0.3479 0.5185
H28F H 0.4424 0.3081 0.4536
H29F H 0.4450 0.3105 0.5948
C25F C 0.69384(9) 0.47381(9) 0.78487(18)
C26F C 0.76016(10) 0.45206(11) 0.8025(2)
H30F H 0.7778 0.4402 0.7260
H31F H 0.7838 0.4871 0.8372
H32F H 0.7611 0.4150 0.8556
C27F C 0.69150(10) 0.52779(10) 0.6925(2)
H33F H 0.6495 0.5431 0.6844
H34F H 0.7177 0.5632 0.7179
H35F H 0.7058 0.5115 0.6162
C28F C 0.67156(11) 0.50104(11) 0.9032(2)
H36F H 0.6730 0.4675 0.9636
H37F H 0.6979 0.5367 0.9270
H38F H 0.6296 0.5164 0.8945
loop_
_geom_bond_atom_site_label_1
_geom_bond_atom_site_label_2
_geom_bond_site_symmetry_1
_geom_bond_site_symmetry_2
O1 H1 1_555 1_555
C1 H2 1_555 1_555
O2 H3 1_555 1_555
C2 C1 1_555 1_555
C3 C2 1_555 1_555
H4 C3 1_555 1_555
C4 O2 1_555 1_555
C5 C4 1_555 1_555
C6 C5 1_555 1_555
H5 C6 1_555 1_555
C7 O1 1_555 1_555
C8 C1 1_555 1_555
C9 C8 1_555 1_555
H6 C9 1_555 1_555
H7 C9 1_555 1_555
H8 C9 1_555 1_555
C10 C8 1_555 1_555
H9 C10 1_555 1_555
H10 C10 1_555 1_555
C11 C5 1_555 1_555
C12 C11 1_555 1_555
H11 C12 1_555 1_555
H12 C12 1_555 1_555
H13 C12 1_555 1_555
C13 C11 1_555 1_555
H14 C13 1_555 1_555
H15 C13 1_555 1_555
H16 C13 1_555 1_555
C14 C11 1_555 1_555
H17 C14 1_555 1_555
H18 C14 1_555 1_555
H19 C14 1_555 1_555
C15 H20 1_555 1_555
O3 H21 1_555 1_555
O4 H22 1_555 1_555
C16 C15 1_555 1_555
C17 C16 1_555 1_555
H23 C17 1_555 1_555
C18 O4 1_555 1_555
C19 C18 1_555 1_555
C20 C19 1_555 1_555
H24 C20 1_555 1_555
C21 O3 1_555 1_555
C22 C15 1_555 1_555
C23 C22 1_555 1_555
H25 C23 1_555 1_555
H26 C23 1_555 1_555
C24 C22 1_555 1_555
H27 C24 1_555 1_555
H28 C24 1_555 1_555
H29 C24 1_555 1_555
C25 C19 1_555 1_555
C26 C25 1_555 1_555
H30 C26 1_555 1_555
H31 C26 1_555 1_555
H32 C26 1_555 1_555
C27 C25 1_555 1_555
H33 C27 1_555 1_555
H34 C27 1_555 1_555
H35 C27 1_555 1_555
C28 C25 1_555 1_555
H36 C28 1_555 1_555
H37 C28 1_555 1_555
H38 C28 1_555 1_555
O1F H1F 1_555 1_555
O2F H3F 1_555 1_555
C2F C1 1_555 1_555
C3F C2F 1_555 1_555
H4F C3F 1_555 1_555
C4F O2F 1_555 1_555
C5F C4F 1_555 1_555
C6F C5F 1_555 1_555
H5F C6F 1_555 1_555
C7F O1F 1_555 1_555
C9F C8 1_555 1_555
H6F C9F 1_555 1_555
H7F C9F 1_555 1_555
H8F C9F 1_555 1_555
H9F C10 1_555 1_555
C11F C5F 1_555 1_555
C12F C11F 1_555 1_555
H11F C12F 1_555 1_555
H12F C12F 1_555 1_555
H13F C12F 1_555 1_555
C13F C11F 1_555 1_555
H14F C13F 1_555 1_555
H15F C13F 1_555 1_555
H16F C13F 1_555 1_555
C14F C11F 1_555 1_555
H17F C14F 1_555 1_555
H18F C14F 1_555 1_555
H19F C14F 1_555 1_555
O3F H21F 1_555 1_555
O4F H22F 1_555 1_555
C16F C15 1_555 1_555
C17F C16F 1_555 1_555
H23F C17F 1_555 1_555
C18F O4F 1_555 1_555
C19F C18F 1_555 1_555
C20F C19F 1_555 1_555
H24F C20F 1_555 1_555
C21F O3F 1_555 1_555
H25F C23 1_555 1_555
C24F C22 1_555 1_555
H27F C24F 1_555 1_555
H28F C24F 1_555 1_555
H29F C24F 1_555 1_555
C25F C19F 1_555 1_555
C26F C25F 1_555 1_555
H30F C26F 1_555 1_555
H31F C26F 1_555 1_555
H32F C26F 1_555 1_555
C27F C25F 1_555 1_555
H33F C27F 1_555 1_555
H34F C27F 1_555 1_555
H35F C27F 1_555 1_555
C28F C25F 1_555 1_555
H36F C28F 1_555 1_555
H37F C28F 1_555 1_555
H38F C28F 1_555 1_555
C2 C7 1_555 1_555
C3 C4 1_555 1_555
C6 C7 1_555 1_555
C16 C21 1_555 1_555
C17 C18 1_555 1_555
C20 C21 1_555 1_555
C2F C7F 1_555 1_555
C3F C4F 1_555 1_555
C6F C7F 1_555 1_555
C16F C21F 1_555 1_555
C17F C18F 1_555 1_555
C20F C21F 1_555 1_555

#END
