
#######################################################################
#
#                 Cambridge Crystallographic Data Centre
#                                CCDC 
#
#######################################################################
#
# If this CIF has been generated from an entry in the Cambridge 
# Structural Database, then it will include bibliographic, chemical, 
# crystal, experimental, refinement or atomic coordinate data resulting 
# from the CCDC's data processing and validation procedures.
#
#######################################################################

data_SELMED
_chemical_formula_moiety         'C10 H23 N1 O3 Si2'
_chemical_name_systematic        
(3,3,7,7-Tetramethyltetrahydro-1H-[1,4,2]oxazasilino[4,5-d][1,4,2]oxazasilin-9a(9H)-yl)methanol
_symmetry_cell_setting           monoclinic
_symmetry_space_group_name_H-M   'P 21/c'
_symmetry_Int_Tables_number      14
_space_group_name_Hall           '-P 2ybc'
loop_
_symmetry_equiv_pos_site_id
_symmetry_equiv_pos_as_xyz
1 x,y,z
2 -x,1/2+y,1/2-z
3 -x,-y,-z
4 x,1/2-y,1/2+z
_cell_length_a                   6.0574(5)
_cell_length_b                   11.2877(12)
_cell_length_c                   21.5246(16)
_cell_angle_alpha                90
_cell_angle_beta                 105.601(6)
_cell_angle_gamma                90
_cell_volume                     1417.5
_exptl_crystal_colour            colorless
_exptl_crystal_description       needle
_chemical_melting_point          '168-170 deg.C'
_cell_formula_units_Z            4
loop_
_atom_site_label
_atom_site_type_symbol
_atom_site_fract_x
_atom_site_fract_y
_atom_site_fract_z
Si1 Si 0.30459(13) 0.07143(7) 0.36029(4)
Si2 Si 0.03560(13) 0.12471(8) 0.08865(4)
O1 O 0.4462(3) -0.03501(19) 0.33590(10)
O2 O 0.2155(3) 0.01211(18) 0.09975(9)
O3 O 0.7178(3) -0.01478(18) 0.22007(11)
H1 H 0.843(6) 0.015(3) 0.2211(15)
N1 N 0.1438(3) 0.10230(19) 0.22439(11)
C1 C 0.3497(5) -0.0782(3) 0.27233(14)
H2 H 0.451(5) -0.142(2) 0.2668(14)
H3 H 0.194(5) -0.111(3) 0.2705(13)
C2 C 0.3246(4) 0.0150(2) 0.21934(13)
C3 C 0.2409(5) -0.0558(3) 0.15673(14)
H4 H 0.089(5) -0.093(2) 0.1567(13)
H5 H 0.354(5) -0.113(3) 0.1555(15)
C4 C 0.0873(5) 0.1906(3) 0.17122(14)
H6 H -0.050(5) 0.228(3) 0.1728(14)
H7 H 0.206(5) 0.251(3) 0.1767(16)
C5 C 0.1956(5) 0.1661(3) 0.28704(14)
H8 H 0.049(5) 0.196(3) 0.2874(14)
H9 H 0.309(5) 0.231(3) 0.2871(15)
C6 C 0.5089(7) 0.1539(4) 0.42471(19)
H10 H 0.638(7) 0.183(3) 0.4120(19)
H11 H 0.440(8) 0.219(4) 0.444(2)
H12 H 0.562(7) 0.101(4) 0.462(3)
C7 C 0.0692(7) 0.0112(4) 0.3900(2)
H13 H 0.005(7) 0.071(4) 0.410(2)
H14 H 0.129(10) -0.038(5) 0.418(3)
H15 H -0.056(9) -0.022(4) 0.353(3)
C8 C 0.5557(5) 0.0737(3) 0.22312(16)
H16 H 0.606(5) 0.118(3) 0.2619(15)
H17 H 0.540(5) 0.130(3) 0.1879(15)
C9 C 0.1170(8) 0.2278(4) 0.0323(2)
H18 H 0.120(7) 0.194(3) -0.002(2)
H19 H 0.005(7) 0.294(4) 0.0229(19)
H20 H 0.269(10) 0.258(5) 0.047(3)
C10 C -0.2632(6) 0.0754(5) 0.0580(2)
H21 H -0.306(7) 0.016(3) 0.084(2)
H22 H -0.371(7) 0.137(3) 0.055(2)
H23 H -0.275(6) 0.055(3) 0.017(2)
loop_
_geom_bond_atom_site_label_1
_geom_bond_atom_site_label_2
_geom_bond_site_symmetry_1
_geom_bond_site_symmetry_2
Si1 O1 1_555 1_555
Si2 O2 1_555 1_555
O1 C1 1_555 1_555
O2 C3 1_555 1_555
O3 H1 1_555 1_555
N1 C2 1_555 1_555
C1 H2 1_555 1_555
H3 C1 1_555 1_555
C2 C1 1_555 1_555
C3 C2 1_555 1_555
H4 C3 1_555 1_555
H5 C3 1_555 1_555
C4 Si2 1_555 1_555
H6 C4 1_555 1_555
H7 C4 1_555 1_555
C5 Si1 1_555 1_555
H8 C5 1_555 1_555
H9 C5 1_555 1_555
C6 Si1 1_555 1_555
H10 C6 1_555 1_555
H11 C6 1_555 1_555
H12 C6 1_555 1_555
C7 Si1 1_555 1_555
H13 C7 1_555 1_555
H14 C7 1_555 1_555
H15 C7 1_555 1_555
C8 O3 1_555 1_555
H16 C8 1_555 1_555
H17 C8 1_555 1_555
C9 Si2 1_555 1_555
H18 C9 1_555 1_555
H19 C9 1_555 1_555
H20 C9 1_555 1_555
C10 Si2 1_555 1_555
H21 C10 1_555 1_555
H22 C10 1_555 1_555
H23 C10 1_555 1_555
N1 C4 1_555 1_555
N1 C5 1_555 1_555
C2 C8 1_555 1_555

#END
