
#######################################################################
#
#                 Cambridge Crystallographic Data Centre
#                                CCDC 
#
#######################################################################
#
# If this CIF has been generated from an entry in the Cambridge 
# Structural Database, then it will include bibliographic, chemical, 
# crystal, experimental, refinement or atomic coordinate data resulting 
# from the CCDC's data processing and validation procedures.
#
#######################################################################

data_SELWUC
_chemical_formula_moiety         'C17 H19 N2 S1 1+,Cl1 1-'
_chemical_name_systematic        
'2-Amino-4-phenyl-6-p-tolyl-5,6-dihydro-4H-1,3-thiazin-3-ium chloride'
_symmetry_cell_setting           monoclinic
_symmetry_space_group_name_H-M   'P n'
_symmetry_Int_Tables_number      7
_space_group_name_Hall           'P -2yac'
loop_
_symmetry_equiv_pos_site_id
_symmetry_equiv_pos_as_xyz
1 x,y,z
2 1/2+x,-y,1/2+z
_cell_length_a                   9.0868(16)
_cell_length_b                   9.7252(18)
_cell_length_c                   9.8440(17)
_cell_angle_alpha                90
_cell_angle_beta                 107.272(13)
_cell_angle_gamma                90
_cell_volume                     830.695
_chemical_melting_point          295-298deg.C
_cell_formula_units_Z            2
_exptl_crystal_recrystallization_method ethanol
loop_
_atom_site_label
_atom_site_type_symbol
_atom_site_fract_x
_atom_site_fract_y
_atom_site_fract_z
Cl1 Cl 0.03666(5) 0.44675(6) 0.97394(5)
S1 S -0.04243(5) 0.70711(8) 0.47755(5)
N1 N -0.1216(2) 0.5805(3) 0.6775(2)
N2 N 0.13827(18) 0.6083(2) 0.72732(18)
C1 C -0.0023(2) 0.6235(2) 0.6408(2)
C2 C 0.2850(2) 0.6456(2) 0.7038(2)
H1 H 0.3222 0.5654 0.6633
C3 C 0.2637(2) 0.7631(2) 0.5974(2)
H2 H 0.2259 0.8437 0.6346
H3 H 0.3622 0.7860 0.5837
C4 C 0.1509(2) 0.7229(2) 0.4568(2)
H4 H 0.1810 0.6319 0.4315
C5 C 0.4035(2) 0.6795(2) 0.8442(2)
C6 C 0.3665(3) 0.7422(4) 0.9539(3)
H5 H 0.2643 0.7648 0.9437
C7 C 0.4789(4) 0.7727(4) 1.0800(3)
H6 H 0.4519 0.8136 1.1547
C8 C 0.6302(3) 0.7420(3) 1.0943(3)
H7 H 0.7063 0.7630 1.1783
C9 C 0.6683(3) 0.6815(3) 0.9861(3)
H8 H 0.7710 0.6615 0.9956
C10 C 0.5560(2) 0.6490(2) 0.8615(2)
H9 H 0.5836 0.6060 0.7883
C11 C 0.1325(2) 0.8163(2) 0.3298(2)
C12 C 0.1737(3) 0.9539(2) 0.3401(3)
H10 H 0.2100 0.9947 0.4293
C13 C 0.1616(3) 1.0306(2) 0.2205(3)
H11 H 0.1919 1.1223 0.2304
C14 C 0.1056(2) 0.9756(2) 0.0857(2)
C15 C 0.0588(2) 0.8401(2) 0.0757(2)
H12 H 0.0155 0.8013 -0.0136
C16 C 0.0750(2) 0.7614(2) 0.1950(2)
H13 H 0.0465 0.6692 0.1849
C17 C 0.0985(4) 1.0569(3) -0.0469(3)
H14 H 0.1888 1.0383 -0.0754
H15 H 0.0938 1.1533 -0.0276
H16 H 0.0083 1.0307 -0.1219
H17 H -0.105(3) 0.541(2) 0.7569(16)
H18 H -0.2120(16) 0.575(3) 0.618(2)
H19 H 0.136(3) 0.5578(19) 0.7977(18)
loop_
_geom_bond_atom_site_label_1
_geom_bond_atom_site_label_2
_geom_bond_site_symmetry_1
_geom_bond_site_symmetry_2
S1 C1 1_555 1_555
N1 C1 1_555 1_555
N2 C1 1_555 1_555
C2 N2 1_555 1_555
H1 C2 1_555 1_555
C3 C2 1_555 1_555
H2 C3 1_555 1_555
H3 C3 1_555 1_555
C4 S1 1_555 1_555
H4 C4 1_555 1_555
C5 C2 1_555 1_555
C6 C5 1_555 1_555
H5 C6 1_555 1_555
C7 C6 1_555 1_555
H6 C7 1_555 1_555
C8 C7 1_555 1_555
H7 C8 1_555 1_555
C9 C8 1_555 1_555
H8 C9 1_555 1_555
C10 C5 1_555 1_555
H9 C10 1_555 1_555
C11 C4 1_555 1_555
C12 C11 1_555 1_555
H10 C12 1_555 1_555
C13 C12 1_555 1_555
H11 C13 1_555 1_555
C14 C13 1_555 1_555
C15 C14 1_555 1_555
H12 C15 1_555 1_555
C16 C11 1_555 1_555
H13 C16 1_555 1_555
C17 C14 1_555 1_555
H14 C17 1_555 1_555
H15 C17 1_555 1_555
H16 C17 1_555 1_555
H17 N1 1_555 1_555
H18 N1 1_555 1_555
H19 N2 1_555 1_555
C3 C4 1_555 1_555
C9 C10 1_555 1_555
C15 C16 1_555 1_555

#END
