
#######################################################################
#
#                 Cambridge Crystallographic Data Centre
#                                CCDC 
#
#######################################################################
#
# If this CIF has been generated from an entry in the Cambridge 
# Structural Database, then it will include bibliographic, chemical, 
# crystal, experimental, refinement or atomic coordinate data resulting 
# from the CCDC's data processing and validation procedures.
#
#######################################################################

data_SEMCOF
_chemical_formula_moiety         'C52 H68 O8'
_chemical_name_systematic        
'dimethyl 2,21,27,46-tetraoxatricyclo[45.3.1.1^22,26^]dopentaconta-1(51),22(52),23,25,47,49-hexaene-10,12,35,37-tetrayne-24,49-dicarboxylate'
_symmetry_cell_setting           monoclinic
_symmetry_space_group_name_H-M   'P 21/c'
_symmetry_Int_Tables_number      14
_space_group_name_Hall           '-P 2ybc'
loop_
_symmetry_equiv_pos_site_id
_symmetry_equiv_pos_as_xyz
1 x,y,z
2 -x,1/2+y,1/2-z
3 -x,-y,-z
4 x,1/2-y,1/2+z
_cell_length_a                   17.4115(5)
_cell_length_b                   14.1588(4)
_cell_length_c                   9.8695(3)
_cell_angle_alpha                90
_cell_angle_beta                 101.4317(13)
_cell_angle_gamma                90
_cell_volume                     2384.82
_exptl_crystal_colour            colorless
_exptl_crystal_description       block
_cell_formula_units_Z            2
loop_
_atom_site_label
_atom_site_type_symbol
_atom_site_fract_x
_atom_site_fract_y
_atom_site_fract_z
C1 C 0.15125(10) 0.48106(12) 0.58696(16)
H1 H 0.1945 0.5081 0.5599
C2 C 0.13719(9) 0.49781(12) 0.71810(16)
C3 C 0.07267(9) 0.45667(12) 0.75844(17)
H2 H 0.0635 0.4666 0.8470
C4 C 0.02237(9) 0.40090(12) 0.66573(17)
C5 C 0.03636(10) 0.38399(12) 0.53390(17)
H3 H 0.0024 0.3461 0.4722
C6 C 0.10067(10) 0.42379(12) 0.49587(16)
C7 C -0.04885(11) 0.35975(13) 0.70405(19)
C8 C -0.12268(12) 0.34378(18) 0.8787(2)
H4 H -0.1683 0.3726 0.8235
H5 H -0.1195 0.3602 0.9740
H6 H -0.1262 0.2764 0.8684
C9 C 0.24811(11) 0.60058(14) 0.77925(18)
H7 H 0.2317 0.6407 0.6990
H8 H 0.2853 0.5545 0.7581
C10 C 0.28493(11) 0.65897(13) 0.90260(17)
H9 H 0.2455 0.7012 0.9256
H10 H 0.3259 0.6977 0.8774
C11 C 0.31960(11) 0.60241(13) 1.02925(17)
H11 H 0.3617 0.5636 1.0085
H12 H 0.2797 0.5603 1.0507
C12 C 0.35127(11) 0.66164(13) 1.15553(18)
H13 H 0.3089 0.6998 1.1770
H14 H 0.3906 0.7044 1.1335
C13 C 0.38729(11) 0.60539(15) 1.28276(19)
H15 H 0.4137 0.6485 1.3532
H16 H 0.4265 0.5630 1.2593
C14 C 0.32821(12) 0.54790(15) 1.3422(2)
H17 H 0.2973 0.5105 1.2687
H18 H 0.2929 0.5908 1.3760
C15 C 0.36523(13) 0.48218(16) 1.4595(2)
H19 H 0.3245 0.4433 1.4848
H20 H 0.4017 0.4405 1.4263
C16 C 0.40668(12) 0.53139(17) 1.5827(2)
C17 C 0.44006(12) 0.57184(17) 1.6827(2)
C18 C 0.47981(13) 0.61811(18) 1.7998(3)
C19 C 0.51416(13) 0.6567(2) 1.9010(3)
C20 C 0.44125(13) 0.2953(2) -0.0237(3)
H21 H 0.4466 0.2276 -0.0106
H22 H 0.4633 0.3121 -0.1033
C21 C 0.35484(12) 0.32076(19) -0.0529(2)
H23 H 0.3496 0.3876 -0.0740
H24 H 0.3289 0.2865 -0.1343
C22 C 0.31346(11) 0.29947(16) 0.0644(2)
H25 H 0.3169 0.2322 0.0829
H26 H 0.3407 0.3317 0.1468
C23 C 0.22848(11) 0.32827(15) 0.03761(18)
H27 H 0.2001 0.2913 -0.0389
H28 H 0.2245 0.3941 0.0099
C24 C 0.18974(10) 0.31567(13) 0.16065(17)
H29 H 0.2225 0.3449 0.2407
H30 H 0.1869 0.2487 0.1798
C25 C 0.10823(10) 0.35716(14) 0.14166(16)
H31 H 0.1101 0.4224 0.1126
H32 H 0.0740 0.3232 0.0682
C26 C 0.07361(10) 0.35363(13) 0.26913(16)
H33 H 0.0197 0.3752 0.2486
H34 H 0.0747 0.2895 0.3042
O1 O 0.18185(7) 0.55407(9) 0.81453(11)
O2 O 0.12037(7) 0.41445(9) 0.36923(12)
O3 O -0.09821(9) 0.31706(12) 0.62583(16)
O4 O -0.05363(7) 0.37714(10) 0.83381(12)
C1B C 0.84875(10) 0.51894(12) 1.41304(16)
H1B H 0.8055 0.4919 1.4401
C2B C 0.86281(9) 0.50219(12) 1.28190(16)
C3B C 0.92733(9) 0.54333(12) 1.24156(17)
H2B H 0.9365 0.5334 1.1530
C4B C 0.97763(9) 0.59910(12) 1.33427(17)
C5B C 0.96364(10) 0.61601(12) 1.46610(17)
H3B H 0.9976 0.6539 1.5278
C6B C 0.89933(10) 0.57621(12) 1.50413(16)
C7B C 1.04885(11) 0.64025(13) 1.29595(19)
C8B C 1.12268(12) 0.65622(18) 1.1213(2)
H4B H 1.1683 0.6274 1.1765
H5B H 1.1195 0.6398 1.0260
H6B H 1.1262 0.7236 1.1316
C9B C 0.75189(11) 0.39942(14) 1.22075(18)
H7B H 0.7683 0.3593 1.3010
H8B H 0.7147 0.4455 1.2419
C10B C 0.71507(11) 0.34103(13) 1.09740(17)
H9B H 0.7545 0.2988 1.0744
H10B H 0.6741 0.3023 1.1226
C11B C 0.68040(11) 0.39759(13) 0.97075(17)
H11B H 0.6383 0.4364 0.9915
H12B H 0.7203 0.4397 0.9493
C12B C 0.64873(11) 0.33836(13) 0.84447(18)
H13B H 0.6911 0.3002 0.8230
H14B H 0.6094 0.2956 0.8665
C13B C 0.61271(11) 0.39461(15) 0.71724(19)
H15B H 0.5863 0.3515 0.6468
H16B H 0.5735 0.4370 0.7407
C14B C 0.67179(12) 0.45210(15) 0.6578(2)
H17B H 0.7027 0.4895 0.7313
H18B H 0.7071 0.4092 0.6240
C15B C 0.63477(13) 0.51782(16) 0.5405(2)
H19B H 0.6755 0.5567 0.5152
H20B H 0.5983 0.5595 0.5737
C16B C 0.59332(12) 0.46861(17) 0.4173(2)
C17B C 0.55994(12) 0.42816(17) 0.3173(2)
C18B C 0.52019(13) 0.38189(18) 0.2002(3)
C19B C 0.48584(13) 0.3433(2) 0.0990(3)
C20B C 0.55875(13) 0.7047(2) 2.0237(3)
H21B H 0.5534 0.7724 2.0106
H22B H 0.5367 0.6879 2.1033
C21B C 0.64516(12) 0.67924(19) 2.0529(2)
H23B H 0.6504 0.6124 2.0740
H24B H 0.6711 0.7135 2.1343
C22B C 0.68654(11) 0.70053(16) 1.9356(2)
H25B H 0.6831 0.7678 1.9171
H26B H 0.6593 0.6683 1.8532
C23B C 0.77152(11) 0.67173(15) 1.96239(18)
H27B H 0.7999 0.7087 2.0389
H28B H 0.7755 0.6059 1.9901
C24B C 0.81026(10) 0.68433(13) 1.83935(17)
H29B H 0.7775 0.6551 1.7593
H30B H 0.8131 0.7513 1.8202
C25B C 0.89177(10) 0.64284(14) 1.85834(16)
H31B H 0.8899 0.5776 1.8874
H32B H 0.9260 0.6768 1.9318
C26B C 0.92639(10) 0.64637(13) 1.73087(16)
H33B H 0.9803 0.6248 1.7514
H34B H 0.9253 0.7105 1.6958
O1B O 0.81815(7) 0.44593(9) 1.18547(11)
O2B O 0.87963(7) 0.58555(9) 1.63077(12)
O3B O 1.09821(9) 0.68294(12) 1.37417(16)
O4B O 1.05363(7) 0.62286(10) 1.16619(12)
loop_
_geom_bond_atom_site_label_1
_geom_bond_atom_site_label_2
_geom_bond_site_symmetry_1
_geom_bond_site_symmetry_2
C1 H1 1_555 1_555
C2 C1 1_555 1_555
C3 C2 1_555 1_555
H2 C3 1_555 1_555
C4 C3 1_555 1_555
C5 C4 1_555 1_555
H3 C5 1_555 1_555
C6 C1 1_555 1_555
C7 C4 1_555 1_555
C8 H4 1_555 1_555
H5 C8 1_555 1_555
H6 C8 1_555 1_555
C9 H7 1_555 1_555
H8 C9 1_555 1_555
C10 C9 1_555 1_555
H9 C10 1_555 1_555
H10 C10 1_555 1_555
C11 C10 1_555 1_555
H11 C11 1_555 1_555
H12 C11 1_555 1_555
C12 C11 1_555 1_555
H13 C12 1_555 1_555
H14 C12 1_555 1_555
C13 C12 1_555 1_555
H15 C13 1_555 1_555
H16 C13 1_555 1_555
C14 C13 1_555 1_555
H17 C14 1_555 1_555
H18 C14 1_555 1_555
C15 C14 1_555 1_555
H19 C15 1_555 1_555
H20 C15 1_555 1_555
C16 C15 1_555 1_555
C17 C16 1_555 1_555
C18 C17 1_555 1_555
C19 C18 1_555 1_555
C20 H21 1_555 1_555
H22 C20 1_555 1_555
C21 C20 1_555 1_555
H23 C21 1_555 1_555
H24 C21 1_555 1_555
C22 C21 1_555 1_555
H25 C22 1_555 1_555
H26 C22 1_555 1_555
C23 C22 1_555 1_555
H27 C23 1_555 1_555
H28 C23 1_555 1_555
C24 C23 1_555 1_555
H29 C24 1_555 1_555
H30 C24 1_555 1_555
C25 C24 1_555 1_555
H31 C25 1_555 1_555
H32 C25 1_555 1_555
C26 C25 1_555 1_555
H33 C26 1_555 1_555
H34 C26 1_555 1_555
O1 C2 1_555 1_555
O2 C6 1_555 1_555
O3 C7 1_555 1_555
O4 C7 1_555 1_555
C1B H1B 1_555 1_555
C2B C1B 1_555 1_555
C3B C2B 1_555 1_555
H2B C3B 1_555 1_555
C4B C3B 1_555 1_555
C5B C4B 1_555 1_555
H3B C5B 1_555 1_555
C6B C1B 1_555 1_555
C7B C4B 1_555 1_555
C8B H4B 1_555 1_555
H5B C8B 1_555 1_555
H6B C8B 1_555 1_555
C9B H7B 1_555 1_555
H8B C9B 1_555 1_555
C10B C9B 1_555 1_555
H9B C10B 1_555 1_555
H10B C10B 1_555 1_555
C11B C10B 1_555 1_555
H11B C11B 1_555 1_555
H12B C11B 1_555 1_555
C12B C11B 1_555 1_555
H13B C12B 1_555 1_555
H14B C12B 1_555 1_555
C13B C12B 1_555 1_555
H15B C13B 1_555 1_555
H16B C13B 1_555 1_555
C14B C13B 1_555 1_555
H17B C14B 1_555 1_555
H18B C14B 1_555 1_555
C15B C14B 1_555 1_555
H19B C15B 1_555 1_555
H20B C15B 1_555 1_555
C16B C15B 1_555 1_555
C17B C16B 1_555 1_555
C18B C17B 1_555 1_555
C19B C20 1_555 1_555
C20B C19 1_555 1_555
H21B C20B 1_555 1_555
H22B C20B 1_555 1_555
C21B C20B 1_555 1_555
H23B C21B 1_555 1_555
H24B C21B 1_555 1_555
C22B C21B 1_555 1_555
H25B C22B 1_555 1_555
H26B C22B 1_555 1_555
C23B C22B 1_555 1_555
H27B C23B 1_555 1_555
H28B C23B 1_555 1_555
C24B C23B 1_555 1_555
H29B C24B 1_555 1_555
H30B C24B 1_555 1_555
C25B C24B 1_555 1_555
H31B C25B 1_555 1_555
H32B C25B 1_555 1_555
C26B C25B 1_555 1_555
H33B C26B 1_555 1_555
H34B C26B 1_555 1_555
O1B C2B 1_555 1_555
O2B C6B 1_555 1_555
O3B C7B 1_555 1_555
O4B C7B 1_555 1_555
C5 C6 1_555 1_555
C8 O4 1_555 1_555
C9 O1 1_555 1_555
C26 O2 1_555 1_555
C5B C6B 1_555 1_555
C8B O4B 1_555 1_555
C9B O1B 1_555 1_555
C18B C19B 1_555 1_555
C26B O2B 1_555 1_555

#END
