
#######################################################################
#
#                 Cambridge Crystallographic Data Centre
#                                CCDC 
#
#######################################################################
#
# If this CIF has been generated from an entry in the Cambridge 
# Structural Database, then it will include bibliographic, chemical, 
# crystal, experimental, refinement or atomic coordinate data resulting 
# from the CCDC's data processing and validation procedures.
#
#######################################################################

data_SENMAC
_chemical_formula_moiety         'C13 H4 F10 N4 O1'
_chemical_name_systematic        
N'',N'''-bis(pentafluorophenyl)carbonohydrazide
_symmetry_cell_setting           monoclinic
_symmetry_space_group_name_H-M   'P 21/c'
_symmetry_Int_Tables_number      14
_space_group_name_Hall           '-P 2ybc'
loop_
_symmetry_equiv_pos_site_id
_symmetry_equiv_pos_as_xyz
1 x,y,z
2 -x,1/2+y,1/2-z
3 -x,-y,-z
4 x,1/2-y,1/2+z
_cell_length_a                   14.6959(10)
_cell_length_b                   7.2819(6)
_cell_length_c                   13.7456(10)
_cell_angle_alpha                90
_cell_angle_beta                 94.301(5)
_cell_angle_gamma                90
_cell_volume                     1466.83
_cell_formula_units_Z            4
loop_
_atom_site_label
_atom_site_type_symbol
_atom_site_fract_x
_atom_site_fract_y
_atom_site_fract_z
O1 O 0.53011(13) 0.9830(3) 0.38987(14)
F1 F 0.30546(13) 0.7932(3) 0.43766(14)
F2 F 0.26567(13) 0.5181(3) 0.12757(14)
F3 F 0.66900(15) 0.8438(3) 0.66571(16)
F4 F 0.65912(16) 0.5112(4) 0.37103(16)
N1 N 0.38611(15) 0.6433(3) 0.27577(17)
H1 H 0.4122 0.5410 0.2633
F5 F 0.12382(16) 0.8066(4) 0.44544(18)
N2 N 0.43548(16) 0.8072(3) 0.29201(17)
H2 H 0.4289 0.8939 0.2496
F6 F 0.08347(15) 0.5241(4) 0.13817(17)
N3 N 0.56125(16) 0.6963(3) 0.51880(17)
H3 H 0.5361 0.7067 0.5731
F7 F 0.85187(16) 0.8358(3) 0.6745(2)
F8 F 0.94014(15) 0.6702(4) 0.5305(2)
N4 N 0.50884(17) 0.6841(3) 0.42961(18)
H4 H 0.4863 0.5799 0.4109
F9 F 0.01098(14) 0.6707(4) 0.2978(2)
F10 F 0.83968(18) 0.5084(4) 0.37954(18)
C1 C 0.49337(18) 0.8325(4) 0.3730(2)
C2 C 0.29082(19) 0.6580(4) 0.2813(2)
C3 C 0.6568(2) 0.6910(4) 0.5158(2)
C4 C 0.2314(2) 0.5891(4) 0.2070(2)
C5 C 0.2509(2) 0.7299(4) 0.3608(2)
C6 C 0.7108(2) 0.7651(4) 0.5922(2)
C7 C 0.7041(2) 0.6014(5) 0.4458(2)
C8 C 0.1377(2) 0.5915(5) 0.2126(3)
C9 C 0.8047(2) 0.7606(5) 0.5974(3)
C10 C 0.7986(3) 0.5972(5) 0.4495(3)
C11 C 0.1011(2) 0.6677(5) 0.2917(3)
C12 C 0.1579(2) 0.7361(5) 0.3658(3)
C13 C 0.8492(2) 0.6777(5) 0.5252(3)
loop_
_geom_bond_atom_site_label_1
_geom_bond_atom_site_label_2
_geom_bond_site_symmetry_1
_geom_bond_site_symmetry_2
O1 C1 1_555 1_555
F1 C5 1_555 1_555
F2 C4 1_555 1_555
F3 C6 1_555 1_555
F4 C7 1_555 1_555
N1 H1 1_555 1_555
F5 C12 1_555 1_555
N2 N1 1_555 1_555
H2 N2 1_555 1_555
F6 C8 1_555 1_555
N3 H3 1_555 1_555
F7 C9 1_555 1_555
F8 C13 1_555 1_555
N4 N3 1_555 1_555
H4 N4 1_555 1_555
F9 C11 1_555 1_555
F10 C10 1_555 1_555
C1 N2 1_555 1_555
C2 N1 1_555 1_555
C3 N3 1_555 1_555
C4 C2 1_555 1_555
C5 C2 1_555 1_555
C6 C3 1_555 1_555
C7 C3 1_555 1_555
C8 C4 1_555 1_555
C9 C6 1_555 1_555
C10 C7 1_555 1_555
C11 C8 1_555 1_555
C12 C5 1_555 1_555
C13 C9 1_555 1_555
N4 C1 1_555 1_555
C10 C13 1_555 1_555
C11 C12 1_555 1_555

#END
