
#######################################################################
#
#                 Cambridge Crystallographic Data Centre
#                                CCDC 
#
#######################################################################
#
# If this CIF has been generated from an entry in the Cambridge 
# Structural Database, then it will include bibliographic, chemical, 
# crystal, experimental, refinement or atomic coordinate data resulting 
# from the CCDC's data processing and validation procedures.
#
#######################################################################

data_SEPCAT01
_chemical_formula_moiety         'C18 H4 F14 N4'
_chemical_name_systematic        
2,7-bis(heptafluoropropyl)pyrimido[4,5,6-gh]perimidine
_symmetry_cell_setting           monoclinic
_symmetry_space_group_name_H-M   'P 21/n'
_symmetry_Int_Tables_number      14
_space_group_name_Hall           '-P 2yn'
loop_
_symmetry_equiv_pos_site_id
_symmetry_equiv_pos_as_xyz
1 x,y,z
2 1/2-x,1/2+y,1/2-z
3 -x,-y,-z
4 1/2+x,1/2-y,1/2+z
_cell_length_a                   5.469(4)
_cell_length_b                   8.662(6)
_cell_length_c                   19.040(14)
_cell_angle_alpha                90
_cell_angle_beta                 91.630(19)
_cell_angle_gamma                90
_cell_volume                     901.607
_exptl_crystal_colour            colorless
_exptl_crystal_description       plate
_cell_formula_units_Z            2
loop_
_atom_site_label
_atom_site_type_symbol
_atom_site_fract_x
_atom_site_fract_y
_atom_site_fract_z
C1 C 0.1347(7) 0.2311(4) 0.0380(2)
H1 H 0.1520 0.1230 0.0451
C2 C 0.2923(7) 0.3297(4) 0.0709(2)
H2 H 0.4203 0.2900 0.1005
C3 C 0.2681(7) 0.4943(4) 0.0616(2)
C4 C 0.0812(7) 0.5506(4) 0.01715(19)
C5 C 0.0584(7) 0.7113(4) 0.0074(2)
C6 C 0.3835(7) 0.7409(4) 0.0824(2)
C7 C 0.5494(7) 0.8517(4) 0.1231(2)
C8 C 0.4384(7) 0.9040(5) 0.1925(2)
C9 C 0.5966(8) 1.0079(5) 0.2401(2)
F1 F 0.7659(4) 0.7846(3) 0.13807(13)
F2 F 0.5912(5) 0.9790(3) 0.08441(13)
F3 F 0.3820(5) 0.7780(3) 0.22984(13)
F4 F 0.2317(5) 0.9819(3) 0.17718(14)
F5 F 0.8022(5) 0.9416(3) 0.25945(14)
F6 F 0.4740(5) 1.0418(3) 0.29736(14)
F7 F 0.6475(6) 1.1380(3) 0.20750(15)
N1 N 0.4242(6) 0.5918(4) 0.09456(17)
N2 N 0.2135(6) 0.8079(4) 0.04150(17)
C1B C -0.1347(7) 0.7689(4) -0.0380(2)
H1B H -0.1520 0.8770 -0.0451
C2B C -0.2923(7) 0.6703(4) -0.0709(2)
H2B H -0.4203 0.7100 -0.1005
C3B C -0.2681(7) 0.5057(4) -0.0616(2)
C4B C -0.0812(7) 0.4494(4) -0.01715(19)
C5B C -0.0584(7) 0.2887(4) -0.0074(2)
C6B C -0.3835(7) 0.2591(4) -0.0824(2)
C7B C -0.5494(7) 0.1483(4) -0.1231(2)
C8B C -0.4384(7) 0.0960(5) -0.1925(2)
C9B C -0.5966(8) -0.0079(5) -0.2401(2)
F1B F -0.7659(4) 0.2154(3) -0.13807(13)
F2B F -0.5912(5) 0.0210(3) -0.08441(13)
F3B F -0.3820(5) 0.2220(3) -0.22984(13)
F4B F -0.2317(5) 0.0181(3) -0.17718(14)
F5B F -0.8022(5) 0.0584(3) -0.25945(14)
F6B F -0.4740(5) -0.0418(3) -0.29736(14)
F7B F -0.6475(6) -0.1380(3) -0.20750(15)
N1B N -0.4242(6) 0.4082(4) -0.09456(17)
N2B N -0.2135(6) 0.1921(4) -0.04150(17)
loop_
_geom_bond_atom_site_label_1
_geom_bond_atom_site_label_2
_geom_bond_site_symmetry_1
_geom_bond_site_symmetry_2
C1 H1 1_555 1_555
C2 C1 1_555 1_555
H2 C2 1_555 1_555
C3 C2 1_555 1_555
C4 C3 1_555 1_555
C5 C4 1_555 1_555
C6 C7 1_555 1_555
C7 C8 1_555 1_555
C8 C9 1_555 1_555
C9 F5 1_555 1_555
F1 C7 1_555 1_555
F2 C7 1_555 1_555
F3 C8 1_555 1_555
F4 C8 1_555 1_555
F6 C9 1_555 1_555
F7 C9 1_555 1_555
N1 C3 1_555 1_555
N2 C5 1_555 1_555
C1B C5 1_555 1_555
H1B C1B 1_555 1_555
C2B C1B 1_555 1_555
H2B C2B 1_555 1_555
C3B C2B 1_555 1_555
C4B C4 1_555 1_555
C5B C1 1_555 1_555
C6B C7B 1_555 1_555
C7B C8B 1_555 1_555
C8B C9B 1_555 1_555
C9B F5B 1_555 1_555
F1B C7B 1_555 1_555
F2B C7B 1_555 1_555
F3B C8B 1_555 1_555
F4B C8B 1_555 1_555
F6B C9B 1_555 1_555
F7B C9B 1_555 1_555
N1B C3B 1_555 1_555
N2B C5B 1_555 1_555
C6 N1 1_555 1_555
C6 N2 1_555 1_555
C3B C4B 1_555 1_555
C4B C5B 1_555 1_555
C6B N1B 1_555 1_555
C6B N2B 1_555 1_555

#END
