
#######################################################################
#
#                 Cambridge Crystallographic Data Centre
#                                CCDC 
#
#######################################################################
#
# If this CIF has been generated from an entry in the Cambridge 
# Structural Database, then it will include bibliographic, chemical, 
# crystal, experimental, refinement or atomic coordinate data resulting 
# from the CCDC's data processing and validation procedures.
#
#######################################################################

data_SEPMIL
_chemical_formula_moiety         'C31 H38 N4 O6 S2'
_chemical_name_systematic        
2-(3,6-bis(Diethylamino)-xanthenium-9-yl)-5-(piperazin-1-ylsulfonyl)benzenesulfonate
_symmetry_cell_setting           orthorhombic
_symmetry_space_group_name_H-M   'P b c a'
_symmetry_Int_Tables_number      61
_space_group_name_Hall           '-P 2ac 2ab'
loop_
_symmetry_equiv_pos_site_id
_symmetry_equiv_pos_as_xyz
1 x,y,z
2 1/2+x,1/2-y,-z
3 -x,1/2+y,1/2-z
4 1/2-x,-y,1/2+z
5 -x,-y,-z
6 1/2-x,1/2+y,z
7 x,1/2-y,1/2+z
8 1/2+x,y,1/2-z
_cell_length_a                   13.7342(13)
_cell_length_b                   19.8332(18)
_cell_length_c                   21.935(2)
_cell_angle_alpha                90
_cell_angle_beta                 90
_cell_angle_gamma                90
_cell_volume                     5974.94
_exptl_crystal_colour            red
_exptl_crystal_description       Rod
_cell_formula_units_Z            8
loop_
_atom_site_label
_atom_site_type_symbol
_atom_site_fract_x
_atom_site_fract_y
_atom_site_fract_z
N1 N 0.4671(7) 0.7116(6) 0.2159(4)
C1 C 0.4387(11) 0.7203(7) 0.2803(6)
H1 H 0.4961 0.7127 0.3066
H2 H 0.3889 0.6861 0.2910
C2 C 0.3978(10) 0.7906(6) 0.2923(6)
H3 H 0.4497 0.8240 0.2875
H4 H 0.3720 0.7927 0.3339
H5 H 0.3455 0.8001 0.2632
C3 C 0.5657(9) 0.7320(6) 0.1974(6)
H6 H 0.5923 0.6967 0.1702
H7 H 0.6073 0.7333 0.2342
C4 C 0.5747(11) 0.7993(7) 0.1651(7)
H8 H 0.5354 0.7987 0.1278
H9 H 0.6430 0.8075 0.1547
H10 H 0.5514 0.8353 0.1921
C5 C 0.2340(10) 0.5694(7) -0.2677(6)
H11 H 0.1862 0.5487 -0.2951
H12 H 0.2807 0.5958 -0.2917
H13 H 0.2005 0.5992 -0.2388
S1 S -0.22972(15) 0.67427(11) 0.07196(13)
S2 S 0.07681(13) 0.50284(10) 0.10397(8)
O1 O 0.3974(3) 0.6328(2) 0.0113(2)
O2 O -0.2419(4) 0.7458(3) 0.0665(4)
O3 O -0.2645(4) 0.6396(3) 0.1247(3)
O4 O 0.1775(4) 0.5145(3) 0.1208(2)
O5 O 0.0661(4) 0.4577(3) 0.0531(2)
O6 O 0.0143(4) 0.4864(3) 0.1547(2)
N2 N 0.3496(5) 0.5406(4) -0.1853(3)
N3 N -0.2861(5) 0.6423(3) 0.0139(4)
N4 N -0.3599(6) 0.5767(4) -0.0927(4)
H14 H -0.317(6) 0.561(4) -0.115(4)
C6 C -0.1043(5) 0.6567(4) 0.0638(4)
C7 C -0.0462(6) 0.7036(4) 0.0332(5)
H15 H -0.0730 0.7446 0.0184
C8 C 0.0511(6) 0.6888(4) 0.0251(4)
H16 H 0.0912 0.7196 0.0034
C9 C 0.0916(5) 0.6298(4) 0.0480(3)
C10 C 0.0329(5) 0.5829(3) 0.0780(3)
C11 C -0.0663(5) 0.5977(4) 0.0851(4)
H17 H -0.1076 0.5662 0.1049
C12 C 0.2377(6) 0.6669(5) 0.1418(4)
H18 H 0.1711 0.6642 0.1533
C13 C 0.3029(7) 0.6898(6) 0.1827(5)
H19 H 0.2826 0.6995 0.2232
C14 C 0.4031(7) 0.6997(6) 0.1656(5)
C15 C 0.4313(6) 0.6797(5) 0.1070(5)
H20 H 0.4973 0.6840 0.0948
C16 C 0.3642(5) 0.6538(4) 0.0670(4)
C17 C 0.2646(5) 0.6468(4) 0.0825(4)
C18 C 0.1994(5) 0.6224(4) 0.0384(3)
C19 C 0.2851(7) 0.5172(5) -0.2346(4)
H21 H 0.3246 0.4910 -0.2639
H22 H 0.2363 0.4862 -0.2168
C20 C 0.4552(6) 0.5307(5) -0.1959(4)
H23 H 0.4685 0.5317 -0.2402
H24 H 0.4918 0.5681 -0.1767
C21 C 0.4894(7) 0.4653(5) -0.1702(5)
H25 H 0.4793 0.4650 -0.1260
H26 H 0.5589 0.4595 -0.1790
H27 H 0.4526 0.4282 -0.1887
C22 C -0.2595(6) 0.6679(4) -0.0479(5)
H28 H -0.1973 0.6474 -0.0613
H29 H -0.2510 0.7175 -0.0467
C23 C -0.3398(7) 0.6497(4) -0.0920(5)
H30 H -0.3999 0.6741 -0.0804
H31 H -0.3211 0.6644 -0.1335
C24 C -0.3768(6) 0.5501(4) -0.0321(4)
H32 H -0.3838 0.5005 -0.0345
H33 H -0.4387 0.5687 -0.0161
C25 C -0.2956(6) 0.5670(4) 0.0117(4)
H34 H -0.3108 0.5492 0.0528
H35 H -0.2339 0.5465 -0.0023
C26 C 0.1726(6) 0.5787(4) -0.0658(3)
H36 H 0.1045 0.5753 -0.0590
C27 C 0.2099(6) 0.5601(4) -0.1207(3)
H37 H 0.1671 0.5455 -0.1520
C28 C 0.3138(5) 0.5622(4) -0.1325(3)
C29 C 0.3745(5) 0.5875(4) -0.0853(3)
H38 H 0.4428 0.5908 -0.0914
C30 C 0.3347(5) 0.6072(4) -0.0315(3)
C31 C 0.2335(5) 0.6029(3) -0.0188(3)
N5? N 0.4667(12) 0.7549(9) 0.1853(8)
C32? C 0.4356(17) 0.7851(11) 0.2436(8)
H39? H 0.3685 0.8025 0.2386
H40? H 0.4782 0.8242 0.2524
C33? C 0.4373(19) 0.7385(12) 0.2979(10)
H41? H 0.3899 0.7022 0.2919
H42? H 0.4205 0.7640 0.3348
H43? H 0.5025 0.7192 0.3024
C34? C 0.5598(14) 0.7821(13) 0.1629(12)
H44? H 0.5561 0.8319 0.1627
H45? H 0.5695 0.7671 0.1202
C35? C 0.6470(15) 0.7605(12) 0.2006(10)
H46? H 0.6431 0.7812 0.2411
H47? H 0.7070 0.7751 0.1803
H48? H 0.6472 0.7113 0.2047
C36? C 0.255(2) 0.4473(10) -0.2421(12)
H49? H 0.2233 0.4417 -0.2816
H50? H 0.2102 0.4349 -0.2094
H51? H 0.3130 0.4181 -0.2402
H52? H 0.2270 0.5439 -0.2320
H53? H 0.3164 0.5294 -0.2721
loop_
_geom_bond_atom_site_label_1
_geom_bond_atom_site_label_2
_geom_bond_site_symmetry_1
_geom_bond_site_symmetry_2
N1 C1 1_555 1_555
C1 H1 1_555 1_555
H2 C1 1_555 1_555
C2 C1 1_555 1_555
H3 C2 1_555 1_555
H4 C2 1_555 1_555
H5 C2 1_555 1_555
C3 N1 1_555 1_555
H6 C3 1_555 1_555
H7 C3 1_555 1_555
C4 C3 1_555 1_555
H8 C4 1_555 1_555
H9 C4 1_555 1_555
H10 C4 1_555 1_555
C5 H11 1_555 1_555
H12 C5 1_555 1_555
H13 C5 1_555 1_555
S1 O2 1_555 1_555
S2 O4 1_555 1_555
O1 C16 1_555 1_555
O3 S1 1_555 1_555
O5 S2 1_555 1_555
O6 S2 1_555 1_555
N2 C19 1_555 1_555
N3 S1 1_555 1_555
N4 H14 1_555 1_555
C6 S1 1_555 1_555
C7 C6 1_555 1_555
H15 C7 1_555 1_555
C8 C7 1_555 1_555
H16 C8 1_555 1_555
C9 C8 1_555 1_555
C10 S2 1_555 1_555
C11 C6 1_555 1_555
H17 C11 1_555 1_555
C12 H18 1_555 1_555
C13 C12 1_555 1_555
H19 C13 1_555 1_555
C14 N1 1_555 1_555
C15 C14 1_555 1_555
H20 C15 1_555 1_555
C16 C15 1_555 1_555
C17 C12 1_555 1_555
C18 C9 1_555 1_555
C19 C5 1_555 1_555
H21 C19 1_555 1_555
H22 C19 1_555 1_555
C20 N2 1_555 1_555
H23 C20 1_555 1_555
H24 C20 1_555 1_555
C21 C20 1_555 1_555
H25 C21 1_555 1_555
H26 C21 1_555 1_555
H27 C21 1_555 1_555
C22 N3 1_555 1_555
H28 C22 1_555 1_555
H29 C22 1_555 1_555
C23 N4 1_555 1_555
H30 C23 1_555 1_555
H31 C23 1_555 1_555
C24 N4 1_555 1_555
H32 C24 1_555 1_555
H33 C24 1_555 1_555
C25 N3 1_555 1_555
H34 C25 1_555 1_555
H35 C25 1_555 1_555
C26 H36 1_555 1_555
C27 C26 1_555 1_555
H37 C27 1_555 1_555
C28 N2 1_555 1_555
C29 C28 1_555 1_555
H38 C29 1_555 1_555
C30 O1 1_555 1_555
C31 C18 1_555 1_555
C9 C10 1_555 1_555
C10 C11 1_555 1_555
C13 C14 1_555 1_555
C16 C17 1_555 1_555
C17 C18 1_555 1_555
C22 C23 1_555 1_555
C24 C25 1_555 1_555
C26 C31 1_555 1_555
C27 C28 1_555 1_555
C29 C30 1_555 1_555
C30 C31 1_555 1_555

#END
