
#######################################################################
#
#                 Cambridge Crystallographic Data Centre
#                                CCDC 
#
#######################################################################
#
# If this CIF has been generated from an entry in the Cambridge 
# Structural Database, then it will include bibliographic, chemical, 
# crystal, experimental, refinement or atomic coordinate data resulting 
# from the CCDC's data processing and validation procedures.
#
#######################################################################

data_SEPYEU
_chemical_formula_moiety         'C25 H22 Cl1 N2 O3 S2 1-,C4 H12 N1 1+,C1 H4 O1'
_chemical_name_systematic        
'tetramethylammonium 5-[(2-chlorophenyl)sulfanyl]-2-[4-(morpholin-4-yl)phenyl]-6-oxo-2-(thiophen-3-yl)-1,2,3,6-tetrahydropyridin-4-olate methanol solvate'
_symmetry_cell_setting           orthorhombic
_symmetry_space_group_name_H-M   'P 21 21 21'
_symmetry_Int_Tables_number      19
_space_group_name_Hall           'P 2ac 2ab'
loop_
_symmetry_equiv_pos_site_id
_symmetry_equiv_pos_as_xyz
1 x,y,z
2 1/2-x,-y,1/2+z
3 -x,1/2+y,1/2-z
4 1/2+x,1/2-y,-z
_cell_length_a                   8.7563(6)
_cell_length_b                   18.1246(15)
_cell_length_c                   18.7984(16)
_cell_angle_alpha                90
_cell_angle_beta                 90
_cell_angle_gamma                90
_cell_volume                     2983.39
_exptl_crystal_colour            colorless
_exptl_crystal_description       prism
_cell_formula_units_Z            4
loop_
_atom_site_label
_atom_site_type_symbol
_atom_site_fract_x
_atom_site_fract_y
_atom_site_fract_z
C1 C 0.4208(4) 0.59418(19) 0.23551(18)
C2 C 0.2580(4) 0.6137(2) 0.21370(19)
H1 H 0.1860 0.5839 0.2423
H2 H 0.2391 0.6663 0.2249
C3 C 0.2252(4) 0.6009(2) 0.1356(2)
C4 C 0.3495(4) 0.6133(2) 0.08982(18)
C5 C 0.4988(4) 0.63583(19) 0.11590(19)
C6 C 0.4521(4) 0.5121(2) 0.22429(19)
C7 C 0.3448(4) 0.46055(19) 0.20819(19)
H3 H 0.2386 0.4709 0.2053
C8 C 0.6022(5) 0.4079(2) 0.20917(19)
H4 H 0.6920 0.3785 0.2072
C9 C 0.6012(4) 0.4805(2) 0.22449(19)
H5 H 0.6910 0.5080 0.2344
C10 C 0.4420(4) 0.5294(2) -0.02642(19)
C11 C 0.4779(4) 0.5177(2) -0.0973(2)
C12 C 0.5690(5) 0.4593(2) -0.1192(2)
H6 H 0.5915 0.4525 -0.1682
C13 C 0.6265(4) 0.4112(2) -0.0690(2)
H7 H 0.6904 0.3715 -0.0832
C14 C 0.5902(4) 0.4211(2) 0.0025(2)
H8 H 0.6282 0.3875 0.0370
C15 C 0.4993(4) 0.4796(2) 0.0235(2)
H9 H 0.4755 0.4858 0.0725
C16 C 0.4464(4) 0.61612(19) 0.31278(19)
C17 C 0.3918(4) 0.5719(2) 0.36762(19)
H10 H 0.3451 0.5261 0.3562
C18 C 0.4034(4) 0.59228(19) 0.43792(19)
H11 H 0.3623 0.5611 0.4737
C19 C 0.4747(4) 0.6582(2) 0.45753(19)
C20 C 0.5294(4) 0.7029(2) 0.4028(2)
H12 H 0.5778 0.7483 0.4142
C21 C 0.5144(4) 0.6823(2) 0.33200(19)
H13 H 0.5516 0.7142 0.2959
C22 C 0.4991(5) 0.6172(2) 0.58100(19)
H14 H 0.5943 0.5892 0.5721
H15 H 0.4118 0.5833 0.5739
C23 C 0.4986(5) 0.6448(2) 0.6566(2)
H16 H 0.3982 0.6674 0.6670
H17 H 0.5126 0.6024 0.6892
C24 C 0.5943(5) 0.7591(2) 0.6232(2)
H18 H 0.6754 0.7959 0.6325
H19 H 0.4947 0.7825 0.6338
C25 C 0.5986(5) 0.7371(2) 0.54565(19)
H20 H 0.5754 0.7807 0.5158
H21 H 0.7026 0.7199 0.5334
N1 N 0.5225(3) 0.63666(16) 0.18790(16)
H22 H 0.6253 0.6377 0.1988
N2 N 0.4884(3) 0.67853(17) 0.53002(16)
O1 O 0.0930(3) 0.58260(15) 0.11746(14)
O2 O 0.6049(3) 0.65513(14) 0.07591(13)
O3 O 0.6153(3) 0.69742(14) 0.66930(13)
S1 S 0.42161(12) 0.37504(5) 0.19377(5)
S2 S 0.32737(11) 0.60627(5) -0.00229(5)
Cl1 Cl 0.40935(12) 0.57946(6) -0.16104(5)
C26 C 1.0020(4) 0.6550(3) -0.1143(2)
H23 H 1.0115 0.7058 -0.1316
H24 H 0.9731 0.6226 -0.1538
H25 H 1.1001 0.6388 -0.0946
C27 C 0.7333(4) 0.6775(2) -0.0876(2)
H26 H 0.7421 0.7294 -0.1017
H27 H 0.6533 0.6724 -0.0515
H28 H 0.7069 0.6476 -0.1293
C28 C 0.9268(4) 0.69907(19) 0.0038(2)
H29 H 1.0198 0.6794 0.0257
H30 H 0.8441 0.6995 0.0389
H31 H 0.9457 0.7495 -0.0129
C29 C 0.8654(4) 0.5742(2) -0.0315(2)
H32 H 0.8387 0.5418 -0.0713
H33 H 0.7846 0.5722 0.0045
H34 H 0.9620 0.5577 -0.0104
N3 N 0.8823(3) 0.65163(16) -0.05770(16)
C30 C -0.1174(5) 0.7113(3) 0.2059(2)
H35 H -0.1690 0.7345 0.2464
H36 H -0.1639 0.7285 0.1615
H37 H -0.0089 0.7246 0.2065
O4 O -0.1326(3) 0.63240(17) 0.21092(15)
H38 H -0.0800 0.6123 0.1790
loop_
_geom_bond_atom_site_label_1
_geom_bond_atom_site_label_2
_geom_bond_site_symmetry_1
_geom_bond_site_symmetry_2
C1 C2 1_555 1_555
C2 H1 1_555 1_555
H2 C2 1_555 1_555
C3 C2 1_555 1_555
C4 C3 1_555 1_555
C5 C4 1_555 1_555
C6 C1 1_555 1_555
C7 C6 1_555 1_555
H3 C7 1_555 1_555
C8 H4 1_555 1_555
C9 C6 1_555 1_555
H5 C9 1_555 1_555
C10 C11 1_555 1_555
C11 C12 1_555 1_555
C12 H6 1_555 1_555
C13 C12 1_555 1_555
H7 C13 1_555 1_555
C14 C13 1_555 1_555
H8 C14 1_555 1_555
C15 C10 1_555 1_555
H9 C15 1_555 1_555
C16 C1 1_555 1_555
C17 C16 1_555 1_555
H10 C17 1_555 1_555
C18 C17 1_555 1_555
H11 C18 1_555 1_555
C19 C18 1_555 1_555
C20 C19 1_555 1_555
H12 C20 1_555 1_555
C21 C16 1_555 1_555
H13 C21 1_555 1_555
C22 H14 1_555 1_555
H15 C22 1_555 1_555
C23 C22 1_555 1_555
H16 C23 1_555 1_555
H17 C23 1_555 1_555
C24 H18 1_555 1_555
H19 C24 1_555 1_555
C25 C24 1_555 1_555
H20 C25 1_555 1_555
H21 C25 1_555 1_555
N1 C1 1_555 1_555
H22 N1 1_555 1_555
N2 C19 1_555 1_555
O1 C3 1_555 1_555
O2 C5 1_555 1_555
O3 C23 1_555 1_555
S1 C7 1_555 1_555
S2 C4 1_555 1_555
Cl1 C11 1_555 1_555
C26 H23 1_555 1_555
H24 C26 1_555 1_555
H25 C26 1_555 1_555
C27 H26 1_555 1_555
H27 C27 1_555 1_555
H28 C27 1_555 1_555
C28 H29 1_555 1_555
H30 C28 1_555 1_555
H31 C28 1_555 1_555
C29 H32 1_555 1_555
H33 C29 1_555 1_555
H34 C29 1_555 1_555
N3 C26 1_555 1_555
C30 H35 1_555 1_555
H36 C30 1_555 1_555
H37 C30 1_555 1_555
O4 C30 1_555 1_555
H38 O4 1_555 1_555
C5 N1 1_555 1_555
C8 C9 1_555 1_555
C8 S1 1_555 1_555
C10 S2 1_555 1_555
C14 C15 1_555 1_555
C20 C21 1_555 1_555
C22 N2 1_555 1_555
C24 O3 1_555 1_555
C25 N2 1_555 1_555
C27 N3 1_555 1_555
C28 N3 1_555 1_555
C29 N3 1_555 1_555

#END
