
#######################################################################
#
#                 Cambridge Crystallographic Data Centre
#                                CCDC 
#
#######################################################################
#
# If this CIF has been generated from an entry in the Cambridge 
# Structural Database, then it will include bibliographic, chemical, 
# crystal, experimental, refinement or atomic coordinate data resulting 
# from the CCDC's data processing and validation procedures.
#
#######################################################################

data_SEQFOL
_chemical_formula_moiety         'C58 H66 I2 O4'
_chemical_name_systematic        
2,3,6,11-tetrakis(hexyloxy)-7,10-bis((3-iodophenyl)ethynyl)triphenylene
_symmetry_cell_setting           monoclinic
_symmetry_space_group_name_H-M   'C 2/c'
_symmetry_Int_Tables_number      15
_space_group_name_Hall           '-C 2yn'
loop_
_symmetry_equiv_pos_site_id
_symmetry_equiv_pos_as_xyz
1 x,y,z
2 -x,y,1/2-z
3 1/2+x,1/2+y,z
4 1/2-x,1/2+y,1/2-z
5 -x,-y,-z
6 x,-y,1/2+z
7 1/2-x,1/2-y,-z
8 1/2+x,1/2-y,1/2+z
_cell_length_a                   35.7085(18)
_cell_length_b                   9.4740(5)
_cell_length_c                   32.0035(16)
_cell_angle_alpha                90
_cell_angle_beta                 106.182(4)
_cell_angle_gamma                90
_cell_volume                     10397.9
_exptl_crystal_colour            colorless
_exptl_crystal_description       'thin prism'
_cell_formula_units_Z            8
loop_
_atom_site_label
_atom_site_type_symbol
_atom_site_fract_x
_atom_site_fract_y
_atom_site_fract_z
C1 C 0.2780(5) 0.3576(19) 0.5503(6)
C2 C 0.3091(5) 0.2807(19) 0.5427(6)
C3 C 0.3180(5) 0.3065(19) 0.5001(6)
C4 C 0.2964(5) 0.3982(19) 0.4701(6)
C5 C 0.2661(5) 0.485(2) 0.4793(6)
C6 C 0.2558(5) 0.4539(19) 0.5187(5)
C7 C 0.2692(5) 0.3331(19) 0.5901(5)
H1 H 0.2480 0.3795 0.5954
C8 C 0.2906(5) 0.2438(19) 0.6207(6)
C9 C 0.2836(6) 0.231(2) 0.6635(7)
C10 C 0.2781(6) 0.231(2) 0.6983(7)
C11 C 0.2739(5) 0.231(2) 0.7421(6)
C12 C 0.2998(5) 0.1469(19) 0.7736(6)
H2 H 0.3187 0.0905 0.7670
C13 C 0.2948(6) 0.154(2) 0.8170(6)
I1 I 0.33168(4) 0.02140(17) 0.86316(4)
C14 C 0.2677(5) 0.236(2) 0.8260(7)
H3 H 0.2659 0.2414 0.8544
C15 C 0.2429(6) 0.312(2) 0.7946(7)
H4 H 0.2236 0.3661 0.8014
C16 C 0.2458(6) 0.311(2) 0.7516(7)
H5 H 0.2288 0.3646 0.7301
C17 C 0.3309(5) 0.188(2) 0.5734(6)
H6 H 0.3515 0.1387 0.5678
C18 C 0.3219(5) 0.167(2) 0.6130(6)
O1 O 0.3413(4) 0.0771(14) 0.6448(4)
C19 C 0.3756(5) 0.014(2) 0.6421(6)
H7 H 0.3939 0.0862 0.6387
H8 H 0.3703 -0.0479 0.6171
C20 C 0.3930(6) -0.070(2) 0.6839(6)
H9 H 0.3738 -0.1362 0.6883
H10 H 0.4153 -0.1235 0.6809
C21 C 0.4056(7) 0.026(3) 0.7226(8)
H11 H 0.3843 0.0887 0.7233
H12 H 0.4274 0.0832 0.7201
C22 C 0.3474(5) 0.222(2) 0.4898(6)
H13 H 0.3603 0.1531 0.5093
C23 C 0.3568(5) 0.2416(19) 0.4510(6)
O2 O 0.3839(3) 0.1666(13) 0.4377(4)
C24 C 0.4056(5) 0.0625(19) 0.4673(6)
H14 H 0.3887 -0.0146 0.4703
H15 H 0.4167 0.1041 0.4958
C25 C 0.4382(5) 0.008(2) 0.4490(6)
H16 H 0.4270 -0.0267 0.4197
H17 H 0.4513 -0.0705 0.4667
C26 C 0.4683(5) 0.125(2) 0.4485(7)
H18 H 0.4550 0.2027 0.4309
H19 H 0.4793 0.1590 0.4779
C27 C 0.5012(5) 0.074(2) 0.4304(6)
H20 H 0.5132 -0.0090 0.4464
H21 H 0.4905 0.0471 0.4002
C28 C 0.5320(5) 0.186(2) 0.4336(6)
H22 H 0.5427 0.2119 0.4639
H23 H 0.5198 0.2693 0.4180
C29 C 0.5652(6) 0.139(2) 0.4153(7)
H24 H 0.5838 0.2142 0.4184
H25 H 0.5549 0.1158 0.3851
H26 H 0.5777 0.0576 0.4309
C30 C 0.3067(5) 0.418(2) 0.4306(6)
H27 H 0.2937 0.4857 0.4107
C31 C 0.3351(5) 0.341(2) 0.4222(6)
O3 O 0.3464(3) 0.3505(13) 0.3838(4)
C32 C 0.3246(6) 0.444(2) 0.3503(6)
H28 H 0.3271 0.5403 0.3607
H29 H 0.2972 0.4180 0.3421
C33 C 0.3411(7) 0.428(3) 0.3117(8)
H30 H 0.3363 0.3330 0.3006
H31 H 0.3271 0.4920 0.2890
C34 C 0.3836(9) 0.458(4) 0.3210(10)
H32 H 0.3972 0.4037 0.3463
H33 H 0.3922 0.4239 0.2966
C35 C 0.3931(9) 0.578(4) 0.3272(11)
H34 H 0.3894 0.6066 0.3548
H35 H 0.3758 0.6349 0.3047
C36 C 0.4369(12) 0.613(4) 0.3278(15)
H36 H 0.4546 0.5588 0.3508
H37 H 0.4411 0.5847 0.3003
C37 C 0.4457(16) 0.772(6) 0.3354(18)
H38 H 0.4720 0.7902 0.3350
H39 H 0.4425 0.7986 0.3631
H40 H 0.4281 0.8250 0.3128
C38 C 0.2426(5) 0.5781(17) 0.4499(6)
H41 H 0.2475 0.5905 0.4231
C39 C 0.2123(5) 0.653(2) 0.4583(6)
O4 O 0.1878(4) 0.7458(14) 0.4314(4)
C40 C 0.1940(6) 0.788(2) 0.3905(6)
H42 H 0.1936 0.7066 0.3720
H43 H 0.2188 0.8361 0.3952
C41 C 0.1613(5) 0.884(2) 0.3707(6)
H44 H 0.1630 0.9644 0.3899
H45 H 0.1372 0.8352 0.3694
C42 C 0.1589(6) 0.940(2) 0.3251(6)
H46 H 0.1837 0.9825 0.3254
H47 H 0.1545 0.8612 0.3049
C43 C 0.1274(6) 1.046(2) 0.3093(8)
H48 H 0.1285 1.0797 0.2811
H49 H 0.1325 1.1254 0.3291
C44 C 0.0859(6) 0.993(3) 0.3051(8)
H50 H 0.0847 0.9549 0.3329
H51 H 0.0797 0.9168 0.2839
C45 C 0.0553(7) 1.111(3) 0.2909(8)
H52 H 0.0298 1.0732 0.2882
H53 H 0.0564 1.1484 0.2634
H54 H 0.0607 1.1846 0.3123
C46 C 0.2246(5) 0.531(2) 0.5259(6)
H55 H 0.2178 0.5120 0.5513
C47 C 0.2030(5) 0.634(2) 0.4981(6)
C48 C 0.1719(5) 0.7083(18) 0.5063(5)
C49 C 0.1468(6) 0.784(2) 0.5114(6)
C50 C 0.1147(6) 0.872(2) 0.5117(7)
C51 C 0.0999(6) 0.963(2) 0.4771(6)
H56 H 0.1122 0.9688 0.4551
C52 C 0.0678(6) 1.044(2) 0.4748(7)
I2 I 0.04613(5) 1.1729(2) 0.41991(6)
C53 C 0.0499(6) 1.039(2) 0.5078(7)
H57 H 0.0285 1.0970 0.5065
C54 C 0.0632(6) 0.950(2) 0.5424(7)
H58 H 0.0504 0.9442 0.5640
C55 C 0.0957(6) 0.869(2) 0.5449(7)
H59 H 0.1053 0.8106 0.5689
C56 C 0.445(4) -0.132(13) 0.756(4)
H60 H 0.4367 -0.1416 0.7817
H61 H 0.4341 -0.2140 0.7383
C57 C 0.473(2) -0.165(9) 0.767(3)
H62 H 0.4891 -0.0814 0.7695
H63 H 0.4783 -0.2221 0.7442
C58 C 0.489(2) -0.246(8) 0.808(2)
H64 H 0.5155 -0.2751 0.8100
H65 H 0.4735 -0.3276 0.8085
H66 H 0.4896 -0.1869 0.8327
H67? H 0.3840 0.0577 0.7330
H68? H 0.4208 0.1060 0.7177
H69? H 0.3833 0.5382 0.3022
H70? H 0.3892 0.4976 0.3500
C59? C 0.4168(16) 0.404(6) 0.3214(18)
H71? H 0.4129 0.3747 0.2915
H72? H 0.4174 0.3175 0.3377
C60? C 0.4580(14) 0.451(6) 0.3346(17)
H73? H 0.4592 0.5423 0.3216
H74? H 0.4656 0.4642 0.3659
C61? C 0.4870(17) 0.360(7) 0.3241(19)
H75? H 0.5123 0.4027 0.3347
H76? H 0.4809 0.3489 0.2931
H77? H 0.4870 0.2697 0.3375
C62? C 0.4178(9) -0.062(3) 0.7655(9)
H78? H 0.4397 -0.1228 0.7654
H79? H 0.3963 -0.1217 0.7678
C63? C 0.4302(14) 0.047(5) 0.8075(16)
H80? H 0.4112 0.1235 0.8032
H81? H 0.4297 -0.0026 0.8338
C64? C 0.4718(15) 0.111(6) 0.8132(18)
H82? H 0.4787 0.1701 0.8386
H83? H 0.4718 0.1660 0.7881
H84? H 0.4904 0.0358 0.8166
loop_
_geom_bond_atom_site_label_1
_geom_bond_atom_site_label_2
_geom_bond_site_symmetry_1
_geom_bond_site_symmetry_2
C1 C2 1_555 1_555
C2 C3 1_555 1_555
C3 C4 1_555 1_555
C4 C5 1_555 1_555
C5 C6 1_555 1_555
C6 C1 1_555 1_555
C7 C1 1_555 1_555
H1 C7 1_555 1_555
C8 C7 1_555 1_555
C9 C8 1_555 1_555
C10 C9 1_555 1_555
C11 C10 1_555 1_555
C12 C11 1_555 1_555
H2 C12 1_555 1_555
C13 C12 1_555 1_555
I1 C13 1_555 1_555
C14 C13 1_555 1_555
H3 C14 1_555 1_555
C15 C14 1_555 1_555
H4 C15 1_555 1_555
C16 C11 1_555 1_555
H5 C16 1_555 1_555
C17 C2 1_555 1_555
H6 C17 1_555 1_555
C18 C8 1_555 1_555
O1 C18 1_555 1_555
C19 O1 1_555 1_555
H7 C19 1_555 1_555
H8 C19 1_555 1_555
C20 C19 1_555 1_555
H9 C20 1_555 1_555
H10 C20 1_555 1_555
C21 C20 1_555 1_555
H11 C21 1_555 1_555
H12 C21 1_555 1_555
C22 C3 1_555 1_555
H13 C22 1_555 1_555
C23 C22 1_555 1_555
O2 C23 1_555 1_555
C24 O2 1_555 1_555
H14 C24 1_555 1_555
H15 C24 1_555 1_555
C25 C24 1_555 1_555
H16 C25 1_555 1_555
H17 C25 1_555 1_555
C26 C25 1_555 1_555
H18 C26 1_555 1_555
H19 C26 1_555 1_555
C27 C26 1_555 1_555
H20 C27 1_555 1_555
H21 C27 1_555 1_555
C28 C27 1_555 1_555
H22 C28 1_555 1_555
H23 C28 1_555 1_555
C29 C28 1_555 1_555
H24 C29 1_555 1_555
H25 C29 1_555 1_555
H26 C29 1_555 1_555
C30 C4 1_555 1_555
H27 C30 1_555 1_555
C31 C23 1_555 1_555
O3 C31 1_555 1_555
C32 O3 1_555 1_555
H28 C32 1_555 1_555
H29 C32 1_555 1_555
C33 C32 1_555 1_555
H30 C33 1_555 1_555
H31 C33 1_555 1_555
C34 C33 1_555 1_555
H32 C34 1_555 1_555
H33 C34 1_555 1_555
C35 C34 1_555 1_555
H34 C35 1_555 1_555
H35 C35 1_555 1_555
C36 C35 1_555 1_555
H36 C36 1_555 1_555
H37 C36 1_555 1_555
C37 C36 1_555 1_555
H38 C37 1_555 1_555
H39 C37 1_555 1_555
H40 C37 1_555 1_555
C38 C5 1_555 1_555
H41 C38 1_555 1_555
C39 C38 1_555 1_555
O4 C39 1_555 1_555
C40 O4 1_555 1_555
H42 C40 1_555 1_555
H43 C40 1_555 1_555
C41 C40 1_555 1_555
H44 C41 1_555 1_555
H45 C41 1_555 1_555
C42 C41 1_555 1_555
H46 C42 1_555 1_555
H47 C42 1_555 1_555
C43 C42 1_555 1_555
H48 C43 1_555 1_555
H49 C43 1_555 1_555
C44 C43 1_555 1_555
H50 C44 1_555 1_555
H51 C44 1_555 1_555
C45 C44 1_555 1_555
H52 C45 1_555 1_555
H53 C45 1_555 1_555
H54 C45 1_555 1_555
C46 C6 1_555 1_555
H55 C46 1_555 1_555
C47 C39 1_555 1_555
C48 C47 1_555 1_555
C49 C48 1_555 1_555
C50 C49 1_555 1_555
C51 C50 1_555 1_555
H56 C51 1_555 1_555
C52 C51 1_555 1_555
I2 C52 1_555 1_555
C53 C52 1_555 1_555
H57 C53 1_555 1_555
C54 C53 1_555 1_555
H58 C54 1_555 1_555
C55 C50 1_555 1_555
H59 C55 1_555 1_555
C56 C21 1_555 1_555
H60 C56 1_555 1_555
H61 C56 1_555 1_555
C57 C56 1_555 1_555
H62 C57 1_555 1_555
H63 C57 1_555 1_555
C58 C57 1_555 1_555
H64 C58 1_555 1_555
H65 C58 1_555 1_555
H66 C58 1_555 1_555
C15 C16 1_555 1_555
C17 C18 1_555 1_555
C30 C31 1_555 1_555
C46 C47 1_555 1_555
C54 C55 1_555 1_555

#END
