
#######################################################################
#
#                 Cambridge Crystallographic Data Centre
#                                CCDC 
#
#######################################################################
#
# If this CIF has been generated from an entry in the Cambridge 
# Structural Database, then it will include bibliographic, chemical, 
# crystal, experimental, refinement or atomic coordinate data resulting 
# from the CCDC's data processing and validation procedures.
#
#######################################################################

data_SEQSUC
_chemical_formula_moiety         'C18 H50 B8 Mg1 N2 Si2'
_chemical_name_systematic        
(1,2-bis(Dimethylamino)ethane)-commo-exo-bis(3-methyl-2-trimethylsilyl-2,3-dicarbahexaborane)-magnesium
_symmetry_cell_setting           monoclinic
_symmetry_space_group_name_H-M   'C 2/c'
_symmetry_Int_Tables_number      15
_space_group_name_Hall           '-C 2yn'
loop_
_symmetry_equiv_pos_site_id
_symmetry_equiv_pos_as_xyz
1 x,y,z
2 -x,y,1/2-z
3 1/2+x,1/2+y,z
4 1/2-x,1/2+y,1/2-z
5 -x,-y,-z
6 x,-y,1/2+z
7 1/2-x,1/2-y,-z
8 1/2+x,1/2-y,1/2+z
_cell_length_a                   12.403(5)
_cell_length_b                   18.807(7)
_cell_length_c                   13.406(5)
_cell_angle_alpha                90
_cell_angle_beta                 95.16(3)
_cell_angle_gamma                90
_cell_volume                     3114.45
_exptl_crystal_colour            colorless
_chemical_melting_point          'above 300deg.C'
_cell_formula_units_Z            4
_exptl_crystal_recrystallization_method benzene
loop_
_atom_site_label
_atom_site_type_symbol
_atom_site_fract_x
_atom_site_fract_y
_atom_site_fract_z
Mg1 Mg 0.0000 0.4283(1) 0.2500
Si1 Si -0.0249(2) 0.1639(1) -0.0270(1)
C1 C -0.0092(4) 0.2491(3) 0.0451(4)
C2 C 0.0680(5) 0.2624(3) 0.1311(4)
B1 B 0.0843(6) 0.3394(4) 0.1576(5)
B2 B 0.0027(6) 0.3852(4) 0.0765(5)
B3 B -0.0631(6) 0.3171(3) 0.0040(5)
B4 B 0.0789(6) 0.3180(3) 0.0282(5)
C3 C -0.0869(7) 0.0966(4) 0.0512(6)
C4 C 0.1035(5) 0.1283(4) -0.0681(5)
C5 C -0.1184(6) 0.1786(4) -0.1419(6)
C6 C 0.1426(5) 0.2045(3) 0.1753(5)
N1 N 0.1182(4) 0.5144(2) 0.2691(3)
C7 C 0.0542(5) 0.5785(3) 0.2869(4)
C8 C 0.2000(5) 0.5064(3) 0.3563(5)
C9 C 0.1767(5) 0.5235(3) 0.1795(5)
H1 H 0.1472 0.3600 0.2206
H2 H 0.0082 0.4410 0.0645
H3 H -0.1146 0.3284 -0.0693
H4 H 0.1535 0.3216 -0.0225
H5 H -0.0887 0.3580 0.0755
H6 H -0.0400 0.0884 0.1106
H7 H -0.0972 0.0530 0.0147
H8 H -0.1556 0.1137 0.0687
H9 H 0.1539 0.1199 -0.0110
H10 H 0.1337 0.1620 -0.1112
H11 H 0.0893 0.0844 -0.1032
H12 H -0.1299 0.1345 -0.1769
H13 H -0.0868 0.2125 -0.1840
H14 H -0.1864 0.1965 -0.1238
H15 H 0.1872 0.2233 0.2310
H16 H 0.1876 0.1879 0.1259
H17 H 0.1001 0.1658 0.1970
H18 H 0.0647 0.6233 0.2550
H19 H -0.0172 0.5768 0.3089
H20 H 0.2434 0.4650 0.3475
H21 H 0.1637 0.5013 0.4158
H22 H 0.2455 0.5477 0.3618
H23 H 0.1255 0.5287 0.1223
H24 H 0.2212 0.4825 0.1712
H25 H 0.2215 0.5651 0.1868
B1A B -0.0843(6) 0.3394(4) 0.3424(5)
C2A C -0.0680(5) 0.2624(3) 0.3689(4)
C1A C 0.0092(4) 0.2491(3) 0.4549(4)
Si1A Si 0.0249(2) 0.1639(1) 0.5270(1)
C3A C 0.0869(7) 0.0966(4) 0.4488(6)
H6A H 0.0400 0.0884 0.3894
H7A H 0.0972 0.0530 0.4853
H8A H 0.1556 0.1137 0.4313
C4A C -0.1035(5) 0.1283(4) 0.5681(5)
H9A H -0.1539 0.1199 0.5110
H10A H -0.1337 0.1620 0.6112
H11A H -0.0893 0.0844 0.6032
C5A C 0.1184(6) 0.1786(4) 0.6419(6)
H12A H 0.1299 0.1345 0.6769
H13A H 0.0868 0.2125 0.6840
H14A H 0.1864 0.1965 0.6238
B3A B 0.0631(6) 0.3171(3) 0.4960(5)
B2A B -0.0027(6) 0.3852(4) 0.4235(5)
C7A C -0.0542(5) 0.5785(3) 0.2131(4)
N1A N -0.1182(4) 0.5144(2) 0.2309(3)
C8A C -0.2000(5) 0.5064(3) 0.1437(5)
H20A H -0.2434 0.4650 0.1525
H21A H -0.1637 0.5013 0.0842
H22A H -0.2455 0.5477 0.1382
C9A C -0.1767(5) 0.5235(3) 0.3205(5)
H23A H -0.1255 0.5287 0.3777
H24A H -0.2212 0.4825 0.3288
H25A H -0.2215 0.5651 0.3132
H18A H -0.0647 0.6233 0.2450
H19A H 0.0172 0.5768 0.1911
B4A B -0.0789(6) 0.3180(3) 0.4718(5)
C6A C -0.1426(5) 0.2045(3) 0.3247(5)
H15A H -0.1872 0.2233 0.2690
H16A H -0.1876 0.1879 0.3741
H17A H -0.1001 0.1658 0.3030
H2A H -0.0082 0.4410 0.4355
H5A H 0.0887 0.3580 0.4245
H4A H -0.1535 0.3216 0.5225
H3A H 0.1146 0.3284 0.5693
H1A H -0.1472 0.3600 0.2794
loop_
_geom_bond_atom_site_label_1
_geom_bond_atom_site_label_2
_geom_bond_site_symmetry_1
_geom_bond_site_symmetry_2
Mg1 N1 1_555 1_555
Si1 C1 1_555 1_555
C1 C2 1_555 1_555
C2 B1 1_555 1_555
B1 B2 1_555 1_555
B2 B3 1_555 1_555
B3 C1 1_555 1_555
B4 C1 1_555 1_555
C3 Si1 1_555 1_555
C4 Si1 1_555 1_555
C5 Si1 1_555 1_555
C6 C2 1_555 1_555
N1 C7 1_555 1_555
C7 H18 1_555 1_555
C8 N1 1_555 1_555
C9 N1 1_555 1_555
H1 Mg1 1_555 1_555
H2 Mg1 1_555 1_555
H3 B3 1_555 1_555
H4 B4 1_555 1_555
H5 B2 1_555 1_555
H6 C3 1_555 1_555
H7 C3 1_555 1_555
H8 C3 1_555 1_555
H9 C4 1_555 1_555
H10 C4 1_555 1_555
H11 C4 1_555 1_555
H12 C5 1_555 1_555
H13 C5 1_555 1_555
H14 C5 1_555 1_555
H15 C6 1_555 1_555
H16 C6 1_555 1_555
H17 C6 1_555 1_555
H19 C7 1_555 1_555
H20 C8 1_555 1_555
H21 C8 1_555 1_555
H22 C8 1_555 1_555
H23 C9 1_555 1_555
H24 C9 1_555 1_555
H25 C9 1_555 1_555
B1A C2A 1_555 1_555
C2A C1A 1_555 1_555
C1A Si1A 1_555 1_555
Si1A C3A 1_555 1_555
C3A H6A 1_555 1_555
H7A C3A 1_555 1_555
H8A C3A 1_555 1_555
C4A Si1A 1_555 1_555
H9A C4A 1_555 1_555
H10A C4A 1_555 1_555
H11A C4A 1_555 1_555
C5A Si1A 1_555 1_555
H12A C5A 1_555 1_555
H13A C5A 1_555 1_555
H14A C5A 1_555 1_555
B3A C1A 1_555 1_555
B2A B1A 1_555 1_555
C7A C7 1_555 1_555
N1A Mg1 1_555 1_555
C8A N1A 1_555 1_555
H20A C8A 1_555 1_555
H21A C8A 1_555 1_555
H22A C8A 1_555 1_555
C9A N1A 1_555 1_555
H23A C9A 1_555 1_555
H24A C9A 1_555 1_555
H25A C9A 1_555 1_555
H18A C7A 1_555 1_555
H19A C7A 1_555 1_555
B4A B1A 1_555 1_555
C6A C2A 1_555 1_555
H15A C6A 1_555 1_555
H16A C6A 1_555 1_555
H17A C6A 1_555 1_555
H2A Mg1 1_555 1_555
H5A B3A 1_555 1_555
H4A B4A 1_555 1_555
H3A B3A 1_555 1_555
H1A Mg1 1_555 1_555
C2 B4 1_555 1_555
B1 B4 1_555 1_555
B1 H1 1_555 1_555
B2 H2 1_555 1_555
B2 B4 1_555 1_555
B3 H5 1_555 1_555
B3 B4 1_555 1_555
B1A H1A 1_555 1_555
C2A B4A 1_555 1_555
C1A B4A 1_555 1_555
B3A B2A 1_555 1_555
B3A B4A 1_555 1_555
B2A H2A 1_555 1_555
B2A H5A 1_555 1_555
B2A B4A 1_555 1_555
C7A N1A 1_555 1_555

#END
