
#######################################################################
#
#                 Cambridge Crystallographic Data Centre
#                                CCDC 
#
#######################################################################
#
# If this CIF has been generated from an entry in the Cambridge 
# Structural Database, then it will include bibliographic, chemical, 
# crystal, experimental, refinement or atomic coordinate data resulting 
# from the CCDC's data processing and validation procedures.
#
#######################################################################

data_SERJOR
_chemical_formula_moiety         'C104 H75 F3 O4 S1,2(C6 H14)'
_chemical_name_systematic        
'hexakis(t-butyl)(carbonyl)((trifluoromethanesulfonyl)oxy)-C78-nanographene hexane solvate'
_symmetry_cell_setting           triclinic
_symmetry_space_group_name_H-M   'P -1'
_symmetry_Int_Tables_number      2
_space_group_name_Hall           '-P 1'
loop_
_symmetry_equiv_pos_site_id
_symmetry_equiv_pos_as_xyz
1 x,y,z
2 -x,-y,-z
_cell_length_a                   14.3675(8)
_cell_length_b                   17.3718(11)
_cell_length_c                   18.9206(12)
_cell_angle_alpha                67.525(3)
_cell_angle_beta                 86.143(3)
_cell_angle_gamma                89.598(3)
_cell_volume                     4352.92
_exptl_crystal_colour            orange
_exptl_crystal_description       prism
_cell_formula_units_Z            2
loop_
_atom_site_label
_atom_site_type_symbol
_atom_site_fract_x
_atom_site_fract_y
_atom_site_fract_z
C1 C 0.9614(3) -0.0179(3) 0.7036(2)
C2 C 0.9824(3) 0.0110(2) 0.7645(2)
C3 C 0.9783(3) 0.0953(2) 0.7575(2)
C4 C 0.9409(3) 0.1635(2) 0.6916(2)
C5 C 0.9402(3) 0.1662(2) 0.6149(2)
C6 C 0.9921(3) 0.1108(2) 0.5843(2)
C7 C 1.0094(3) 0.0264(2) 0.6278(2)
C8 C 1.0122(3) -0.0514(3) 0.8291(2)
H1 H 1.012511 -0.107326 0.832247
C9 C 1.0415(3) -0.0334(3) 0.8892(3)
H2 H 1.065313 -0.075950 0.932359
C10 C 1.0358(3) 0.0458(3) 0.8859(2)
H3 H 1.054597 0.057735 0.927918
C11 C 1.0031(3) 0.1109(2) 0.8223(2)
C12 C 1.0671(3) -0.0205(3) 0.5991(2)
H4 H 1.077179 -0.077247 0.629729
C13 C 1.1100(3) 0.0149(3) 0.5261(3)
H5 H 1.155963 -0.014577 0.508666
C14 C 1.0852(3) 0.0932(3) 0.4794(3)
H6 H 1.111051 0.116138 0.427926
C15 C 1.0228(3) 0.1404(2) 0.5054(2)
C16 C 0.9856(3) 0.2814(3) 0.9001(2)
C17 C 1.0162(3) 0.2115(3) 0.8869(2)
H7 H 1.059872 0.176341 0.919230
C18 C 0.9848(3) 0.1914(2) 0.8276(2)
C19 C 0.9261(3) 0.2460(2) 0.7752(2)
C20 C 0.8928(3) 0.3165(2) 0.7885(2)
C21 C 0.9230(3) 0.3318(3) 0.8506(2)
H8 H 0.899590 0.378943 0.859366
C22 C 0.9046(3) 0.2333(2) 0.7068(2)
C23 C 0.8297(3) 0.3728(2) 0.7368(2)
C24 C 0.7863(3) 0.4376(2) 0.7523(2)
H9 H 0.796060 0.443175 0.799310
C25 C 0.7304(3) 0.4931(2) 0.7023(2)
H10 H 0.702253 0.536001 0.715315
C26 C 0.7138(3) 0.4880(2) 0.6317(2)
C27 C 0.7518(3) 0.4203(2) 0.6164(2)
C28 C 0.8105(3) 0.3626(2) 0.6693(2)
C29 C 0.8519(3) 0.2945(2) 0.6525(2)
C30 C 0.8420(3) 0.2909(2) 0.5810(2)
C31 C 0.7810(3) 0.3480(2) 0.5280(2)
C32 C 0.7331(3) 0.4093(2) 0.5477(2)
C33 C 0.9049(3) 0.2483(2) 0.4795(2)
C34 C 0.8941(3) 0.2323(2) 0.5600(2)
C35 C 0.8480(3) 0.3063(2) 0.4278(2)
C36 C 0.7707(3) 0.3428(2) 0.4572(2)
C37 C 0.9785(3) 0.2132(2) 0.4502(2)
C38 C 1.0016(3) 0.2443(2) 0.3718(2)
H11 H 1.052690 0.221298 0.352510
C39 C 0.8740(3) 0.3358(2) 0.3495(2)
H12 H 0.836433 0.376306 0.315030
C40 C 0.9519(3) 0.3086(2) 0.3202(2)
C41 C 0.6203(3) 0.6218(2) 0.5793(2)
C42 C 0.6575(3) 0.5481(2) 0.5751(2)
C43 C 0.6350(3) 0.5340(2) 0.5084(2)
C44 C 0.5774(3) 0.5895(2) 0.4537(2)
C45 C 0.5414(3) 0.6600(2) 0.4637(2)
C46 C 0.5641(3) 0.6737(2) 0.5285(2)
H13 H 0.539531 0.720560 0.537031
C47 C 0.6733(3) 0.4636(2) 0.4951(2)
C48 C 0.6509(3) 0.4478(2) 0.4296(2)
C49 C 0.5887(3) 0.5021(2) 0.3769(2)
C50 C 0.5547(3) 0.5733(2) 0.3874(2)
C51 C 0.6945(3) 0.3830(2) 0.4139(2)
C52 C 0.6573(3) 0.3569(2) 0.3559(2)
C53 C 0.5947(3) 0.4094(2) 0.3049(2)
C54 C 0.5647(3) 0.4849(2) 0.3131(2)
C55 C 0.6769(3) 0.2796(2) 0.3517(2)
H14 H 0.713924 0.241837 0.388977
C56 C 0.6447(3) 0.2558(2) 0.2957(2)
C57 C 0.5884(3) 0.3112(2) 0.2429(2)
H15 H 0.568409 0.297264 0.202347
C58 C 0.5604(3) 0.3856(2) 0.2473(2)
C59 C 0.4023(3) 0.8504(2) 0.3589(2)
C60 C 0.4525(3) 0.7921(2) 0.4140(2)
H16 H 0.465706 0.802105 0.458310
C61 C 0.4844(3) 0.7192(2) 0.4071(2)
C62 C 0.4653(3) 0.7035(2) 0.3413(2)
C63 C 0.4139(3) 0.7625(2) 0.2844(2)
C64 C 0.3822(3) 0.8329(3) 0.2955(2)
H17 H 0.345281 0.870894 0.258316
C65 C 0.4990(3) 0.6298(2) 0.3318(2)
C66 C 0.4765(3) 0.6138(2) 0.2674(2)
C67 C 0.4242(3) 0.6730(2) 0.2093(2)
C68 C 0.3970(3) 0.7489(2) 0.2148(2)
C69 C 0.5074(3) 0.5404(2) 0.2587(2)
C70 C 0.4754(3) 0.5194(2) 0.1971(2)
C71 C 0.4194(3) 0.5750(3) 0.1426(2)
C72 C 0.4023(3) 0.6578(3) 0.1438(2)
C73 C 0.4954(3) 0.4410(3) 0.1943(2)
C74 C 0.4505(3) 0.4171(3) 0.1424(2)
H18 H 0.461985 0.363450 0.141734
C75 C 0.3896(3) 0.4687(3) 0.0916(2)
C76 C 0.3770(3) 0.5480(3) 0.0918(2)
H19 H 0.338026 0.585255 0.055937
C77 C 0.3579(3) 0.8094(3) 0.1529(2)
H20 H 0.339127 0.859942 0.157307
C78 C 0.3451(3) 0.7992(3) 0.0848(2)
C79 C 0.3649(3) 0.7216(3) 0.0831(2)
H21 H 0.352281 0.711617 0.038668
C80 C 1.0107(4) 0.2999(3) 0.9706(3)
C81 C 1.0907(3) 0.2460(3) 1.0104(3)
H22 H 1.144418 0.254321 0.973331
H23 H 1.070810 0.187252 1.031207
H24 H 1.108229 0.261880 1.052238
C82 C 0.9232(4) 0.2808(3) 1.0284(3)
H25 H 0.937759 0.293635 1.072670
H26 H 0.905545 0.221771 1.045674
H27 H 0.871420 0.315124 1.003260
C83 C 1.0361(4) 0.3902(3) 0.9475(3)
H28 H 1.053549 0.400171 0.992555
H29 H 0.982460 0.424323 0.926158
H30 H 1.088785 0.405144 0.908835
C84 C 0.6696(5) 0.1031(3) 0.3699(3)
H31 H 0.685166 0.050151 0.365124
H32 H 0.606837 0.098753 0.394876
H33 H 0.714856 0.115678 0.400674
C85 C 0.6729(3) 0.1722(3) 0.2907(2)
C86 C 0.7708(4) 0.1813(3) 0.2524(4)
H34 H 0.813859 0.199778 0.281022
H35 H 0.771154 0.222486 0.199664
H36 H 0.790605 0.127452 0.251719
C87 C 0.6078(4) 0.1454(3) 0.2436(4)
H37 H 0.613214 0.185406 0.190339
H38 H 0.543313 0.143485 0.264844
H39 H 0.624945 0.089998 0.245449
C88 C 0.3709(3) 0.9314(3) 0.3662(3)
C89 C 0.3744(9) 1.0026(4) 0.2882(4)
H40 H 0.318388 1.000173 0.262235
H41 H 0.429941 0.997803 0.257318
H42 H 0.377010 1.055784 0.294862
C90 C 0.2830(6) 0.9189(5) 0.4091(7)
H43 H 0.291187 0.885023 0.463109
H44 H 0.239729 0.890098 0.389065
H45 H 0.257550 0.972941 0.404579
C91 C 0.4394(6) 0.9615(4) 0.4070(6)
H46 H 0.422304 1.017149 0.404403
H47 H 0.502198 0.963856 0.382494
H48 H 0.438396 0.922983 0.460785
C92 C 0.3341(3) 0.4377(3) 0.0407(2)
C93 C 0.2494(5) 0.3937(7) 0.0866(4)
H49 H 0.209017 0.378843 0.053748
H50 H 0.215715 0.430053 0.107887
H51 H 0.267149 0.342928 0.128433
C94 C 0.3916(4) 0.3848(5) 0.0094(4)
H52 H 0.404426 0.332123 0.051139
H53 H 0.450568 0.414061 -0.014588
H54 H 0.357586 0.373539 -0.028897
C95 C 0.3037(7) 0.5105(5) -0.0301(4)
H55 H 0.284955 0.489170 -0.068260
H56 H 0.355781 0.550391 -0.052257
H57 H 0.250822 0.538226 -0.015109
C96 C 0.3143(4) 0.8737(3) 0.0160(3)
C97 C 0.2250(3) 0.9091(3) 0.0377(3)
H58 H 0.206983 0.957410 -0.006475
H59 H 0.235225 0.926322 0.080309
H60 H 0.175170 0.866457 0.053419
C98 C 0.3052(4) 0.8544(4) -0.0531(3)
H61 H 0.255308 0.812511 -0.042824
H62 H 0.364181 0.832653 -0.066189
H63 H 0.290031 0.905213 -0.096113
C99 C 0.3931(4) 0.9435(4) -0.0057(3)
H64 H 0.452630 0.921411 -0.017327
H65 H 0.398963 0.960632 0.037517
H66 H 0.376695 0.991598 -0.050708
C100 C 0.9860(3) 0.3512(2) 0.2356(2)
C101 C 0.9054(3) 0.3900(3) 0.1848(2)
H67 H 0.929078 0.412984 0.130845
H68 H 0.878244 0.434680 0.198649
H69 H 0.857479 0.347162 0.192472
C102 C 1.0542(3) 0.4214(3) 0.2294(2)
H70 H 1.106489 0.397728 0.261065
H71 H 1.021870 0.461051 0.247400
H72 H 1.077716 0.450108 0.175851
C103 C 1.0363(3) 0.2907(3) 0.2058(2)
H73 H 1.090940 0.269028 0.235127
H74 H 1.056371 0.319833 0.151500
H75 H 0.993846 0.244379 0.211755
C104 C 0.6583(4) 0.8047(3) 0.6130(4)
O1 O 0.9167(2) -0.08208(18) 0.71683(16)
O2 O 0.63673(19) 0.64477(16) 0.64289(15)
O3 O 0.7446(3) 0.6884(2) 0.7111(2)
O4 O 0.7826(2) 0.7154(2) 0.5744(2)
F1 F 0.6365(3) 0.83606(19) 0.5403(2)
F2 F 0.71363(19) 0.86029(16) 0.62207(17)
F3 F 0.5818(2) 0.7967(2) 0.6558(3)
S1 S 0.71824(8) 0.70705(7) 0.63610(7)
C105 C 1.2334(5) 0.3817(4) 0.7935(4)
H76 H 1.206199 0.328313 0.829324
H77 H 1.238180 0.419888 0.820189
H78 H 1.295704 0.372718 0.773955
C106 C 1.1093(4) 0.4093(3) 0.6080(3)
H79 H 1.131409 0.467520 0.579476
H80 H 1.043707 0.410887 0.627037
C107 C 1.1122(4) 0.3643(4) 0.5530(4)
H81 H 1.084771 0.307652 0.580336
H82 H 1.178139 0.358237 0.537561
C108 C 1.0602(4) 0.4082(4) 0.4807(4)
H83 H 0.994613 0.414271 0.495242
H84 H 1.064013 0.375075 0.448775
H85 H 1.088679 0.463408 0.451799
C109 C 1.1712(4) 0.4193(4) 0.7267(4)
H86 H 1.107121 0.423557 0.747492
H87 H 1.194311 0.476547 0.694924
C110 C 1.1674(4) 0.3700(3) 0.6760(3)
H88 H 1.231809 0.363572 0.657109
H89 H 1.141632 0.313560 0.707302
C111 C 0.7416(6) 0.8631(5) 0.3738(5)
H90 H 0.685085 0.892810 0.379508
H91 H 0.794899 0.885931 0.389663
H92 H 0.733244 0.803779 0.405951
C112 C 0.7045(5) 0.8501(4) 0.1774(4)
H93 H 0.720433 0.908838 0.144472
H94 H 0.759990 0.816778 0.175237
C113 C 0.6285(5) 0.8226(5) 0.1437(5)
H95 H 0.575379 0.859926 0.141192
H96 H 0.607964 0.766169 0.179963
C114 C 0.6453(6) 0.8189(5) 0.0662(5)
H97 H 0.669349 0.873032 0.029480
H98 H 0.586613 0.805219 0.049694
H99 H 0.691016 0.775906 0.068754
C115 C 0.7587(6) 0.8735(5) 0.2932(4)
H100 H 0.770178 0.933612 0.262490
H101 H 0.817054 0.844555 0.288841
C116 C 0.6877(5) 0.8446(4) 0.2581(5)
H102 H 0.630433 0.875910 0.260286
H103 H 0.673727 0.785465 0.290830
loop_
_geom_bond_atom_site_label_1
_geom_bond_atom_site_label_2
_geom_bond_site_symmetry_1
_geom_bond_site_symmetry_2
C1 C2 1_555 1_555
C2 C3 1_555 1_555
C3 C4 1_555 1_555
C4 C5 1_555 1_555
C5 C6 1_555 1_555
C6 C7 1_555 1_555
C7 C1 1_555 1_555
C8 C2 1_555 1_555
H1 C8 1_555 1_555
C9 C8 1_555 1_555
H2 C9 1_555 1_555
C10 C9 1_555 1_555
H3 C10 1_555 1_555
C11 C3 1_555 1_555
C12 C7 1_555 1_555
H4 C12 1_555 1_555
C13 C12 1_555 1_555
H5 C13 1_555 1_555
C14 C13 1_555 1_555
H6 C14 1_555 1_555
C15 C6 1_555 1_555
C16 C17 1_555 1_555
C17 H7 1_555 1_555
C18 C11 1_555 1_555
C19 C18 1_555 1_555
C20 C19 1_555 1_555
C21 C16 1_555 1_555
H8 C21 1_555 1_555
C22 C4 1_555 1_555
C23 C20 1_555 1_555
C24 C23 1_555 1_555
H9 C24 1_555 1_555
C25 C24 1_555 1_555
H10 C25 1_555 1_555
C26 C25 1_555 1_555
C27 C26 1_555 1_555
C28 C23 1_555 1_555
C29 C22 1_555 1_555
C30 C29 1_555 1_555
C31 C30 1_555 1_555
C32 C27 1_555 1_555
C33 C34 1_555 1_555
C34 C5 1_555 1_555
C35 C33 1_555 1_555
C36 C31 1_555 1_555
C37 C15 1_555 1_555
C38 C37 1_555 1_555
H11 C38 1_555 1_555
C39 C35 1_555 1_555
H12 C39 1_555 1_555
C40 C38 1_555 1_555
C41 C42 1_555 1_555
C42 C26 1_555 1_555
C43 C42 1_555 1_555
C44 C43 1_555 1_555
C45 C44 1_555 1_555
C46 C41 1_555 1_555
H13 C46 1_555 1_555
C47 C32 1_555 1_555
C48 C47 1_555 1_555
C49 C48 1_555 1_555
C50 C44 1_555 1_555
C51 C36 1_555 1_555
C52 C51 1_555 1_555
C53 C52 1_555 1_555
C54 C49 1_555 1_555
C55 C52 1_555 1_555
H14 C55 1_555 1_555
C56 C55 1_555 1_555
C57 C56 1_555 1_555
H15 C57 1_555 1_555
C58 C53 1_555 1_555
C59 C60 1_555 1_555
C60 H16 1_555 1_555
C61 C45 1_555 1_555
C62 C61 1_555 1_555
C63 C62 1_555 1_555
C64 C59 1_555 1_555
H17 C64 1_555 1_555
C65 C50 1_555 1_555
C66 C65 1_555 1_555
C67 C66 1_555 1_555
C68 C63 1_555 1_555
C69 C54 1_555 1_555
C70 C69 1_555 1_555
C71 C70 1_555 1_555
C72 C67 1_555 1_555
C73 C58 1_555 1_555
C74 C73 1_555 1_555
H18 C74 1_555 1_555
C75 C74 1_555 1_555
C76 C71 1_555 1_555
H19 C76 1_555 1_555
C77 C68 1_555 1_555
H20 C77 1_555 1_555
C78 C77 1_555 1_555
C79 C72 1_555 1_555
H21 C79 1_555 1_555
C80 C16 1_555 1_555
C81 C80 1_555 1_555
H22 C81 1_555 1_555
H23 C81 1_555 1_555
H24 C81 1_555 1_555
C82 C80 1_555 1_555
H25 C82 1_555 1_555
H26 C82 1_555 1_555
H27 C82 1_555 1_555
C83 C80 1_555 1_555
H28 C83 1_555 1_555
H29 C83 1_555 1_555
H30 C83 1_555 1_555
C84 H31 1_555 1_555
H32 C84 1_555 1_555
H33 C84 1_555 1_555
C85 C56 1_555 1_555
C86 C85 1_555 1_555
H34 C86 1_555 1_555
H35 C86 1_555 1_555
H36 C86 1_555 1_555
C87 C85 1_555 1_555
H37 C87 1_555 1_555
H38 C87 1_555 1_555
H39 C87 1_555 1_555
C88 C59 1_555 1_555
C89 C88 1_555 1_555
H40 C89 1_555 1_555
H41 C89 1_555 1_555
H42 C89 1_555 1_555
C90 C88 1_555 1_555
H43 C90 1_555 1_555
H44 C90 1_555 1_555
H45 C90 1_555 1_555
C91 C88 1_555 1_555
H46 C91 1_555 1_555
H47 C91 1_555 1_555
H48 C91 1_555 1_555
C92 C75 1_555 1_555
C93 C92 1_555 1_555
H49 C93 1_555 1_555
H50 C93 1_555 1_555
H51 C93 1_555 1_555
C94 C92 1_555 1_555
H52 C94 1_555 1_555
H53 C94 1_555 1_555
H54 C94 1_555 1_555
C95 C92 1_555 1_555
H55 C95 1_555 1_555
H56 C95 1_555 1_555
H57 C95 1_555 1_555
C96 C78 1_555 1_555
C97 C96 1_555 1_555
H58 C97 1_555 1_555
H59 C97 1_555 1_555
H60 C97 1_555 1_555
C98 C96 1_555 1_555
H61 C98 1_555 1_555
H62 C98 1_555 1_555
H63 C98 1_555 1_555
C99 C96 1_555 1_555
H64 C99 1_555 1_555
H65 C99 1_555 1_555
H66 C99 1_555 1_555
C100 C40 1_555 1_555
C101 C100 1_555 1_555
H67 C101 1_555 1_555
H68 C101 1_555 1_555
H69 C101 1_555 1_555
C102 C100 1_555 1_555
H70 C102 1_555 1_555
H71 C102 1_555 1_555
H72 C102 1_555 1_555
C103 C100 1_555 1_555
H73 C103 1_555 1_555
H74 C103 1_555 1_555
H75 C103 1_555 1_555
C104 F1 1_555 1_555
O1 C1 1_555 1_555
O2 C41 1_555 1_555
O3 S1 1_555 1_555
O4 S1 1_555 1_555
F2 C104 1_555 1_555
F3 C104 1_555 1_555
S1 C104 1_555 1_555
C105 H76 1_555 1_555
H77 C105 1_555 1_555
H78 C105 1_555 1_555
C106 H79 1_555 1_555
H80 C106 1_555 1_555
C107 C106 1_555 1_555
H81 C107 1_555 1_555
H82 C107 1_555 1_555
C108 C107 1_555 1_555
H83 C108 1_555 1_555
H84 C108 1_555 1_555
H85 C108 1_555 1_555
C109 C105 1_555 1_555
H86 C109 1_555 1_555
H87 C109 1_555 1_555
C110 C106 1_555 1_555
H88 C110 1_555 1_555
H89 C110 1_555 1_555
C111 H90 1_555 1_555
H91 C111 1_555 1_555
H92 C111 1_555 1_555
C112 H93 1_555 1_555
H94 C112 1_555 1_555
C113 C112 1_555 1_555
H95 C113 1_555 1_555
H96 C113 1_555 1_555
C114 C113 1_555 1_555
H97 C114 1_555 1_555
H98 C114 1_555 1_555
H99 C114 1_555 1_555
C115 C111 1_555 1_555
H100 C115 1_555 1_555
H101 C115 1_555 1_555
C116 C112 1_555 1_555
H102 C116 1_555 1_555
H103 C116 1_555 1_555
C10 C11 1_555 1_555
C14 C15 1_555 1_555
C17 C18 1_555 1_555
C19 C22 1_555 1_555
C20 C21 1_555 1_555
C27 C28 1_555 1_555
C28 C29 1_555 1_555
C30 C34 1_555 1_555
C31 C32 1_555 1_555
C33 C37 1_555 1_555
C35 C36 1_555 1_555
C39 C40 1_555 1_555
C43 C47 1_555 1_555
C45 C46 1_555 1_555
C48 C51 1_555 1_555
C49 C50 1_555 1_555
C53 C54 1_555 1_555
C57 C58 1_555 1_555
C60 C61 1_555 1_555
C62 C65 1_555 1_555
C63 C64 1_555 1_555
C66 C69 1_555 1_555
C67 C68 1_555 1_555
C70 C73 1_555 1_555
C71 C72 1_555 1_555
C75 C76 1_555 1_555
C78 C79 1_555 1_555
C84 C85 1_555 1_555
O2 S1 1_555 1_555
C109 C110 1_555 1_555
C115 C116 1_555 1_555

#END
