
#######################################################################
#
#                 Cambridge Crystallographic Data Centre
#                                CCDC 
#
#######################################################################
#
# If this CIF has been generated from an entry in the Cambridge 
# Structural Database, then it will include bibliographic, chemical, 
# crystal, experimental, refinement or atomic coordinate data resulting 
# from the CCDC's data processing and validation procedures.
#
#######################################################################

data_SERTUH
_chemical_formula_moiety         'C28 H22 F2 O4 S1'
_chemical_name_systematic        
3-(2-fluorophenyl)-1-{2-[(2-fluorophenyl)methoxy]phenyl}-2-(phenylsulfonyl)propan-1-one
_symmetry_cell_setting           monoclinic
_symmetry_space_group_name_H-M   'P 21/n'
_symmetry_Int_Tables_number      14
_space_group_name_Hall           '-P 2yn'
loop_
_symmetry_equiv_pos_site_id
_symmetry_equiv_pos_as_xyz
1 x,y,z
2 1/2-x,1/2+y,1/2-z
3 -x,-y,-z
4 1/2+x,1/2-y,1/2+z
_cell_length_a                   10.4678(16)
_cell_length_b                   23.169(4)
_cell_length_c                   10.5024(17)
_cell_angle_alpha                90
_cell_angle_beta                 113.027(3)
_cell_angle_gamma                90
_cell_volume                     2344.18
_exptl_crystal_colour            colorless
_cell_formula_units_Z            4
loop_
_atom_site_label
_atom_site_type_symbol
_atom_site_fract_x
_atom_site_fract_y
_atom_site_fract_z
C1 C 0.8200(2) 0.45532(10) 0.7310(2)
C2 C 0.8539(3) 0.50262(10) 0.8198(3)
H1 H 0.8544 0.4996 0.9102
C3 C 0.8871(3) 0.55443(11) 0.7729(3)
H2 H 0.9106 0.5873 0.8316
C4 C 0.8860(3) 0.55812(11) 0.6408(3)
H3 H 0.9092 0.5936 0.6097
C5 C 0.8514(3) 0.51077(11) 0.5540(3)
H4 H 0.8507 0.5139 0.4635
C6 C 0.8175(2) 0.45868(11) 0.5981(2)
H5 H 0.7932 0.4260 0.5386
C7 C 0.6056(2) 0.38880(10) 0.7678(2)
H6 H 0.5796 0.3480 0.7780
C8 C 0.5813(3) 0.42454(10) 0.8791(2)
H7 H 0.6529 0.4150 0.9712
H8 H 0.5891 0.4661 0.8618
C9 C 0.4387(3) 0.41203(11) 0.8771(2)
C10 C 0.3397(3) 0.45444(12) 0.8535(3)
C11 C 0.2097(3) 0.44411(14) 0.8536(3)
H9 H 0.1447 0.4746 0.8378
C12 C 0.1762(3) 0.38847(14) 0.8770(3)
H10 H 0.0874 0.3807 0.8779
C13 C 0.2710(3) 0.34407(13) 0.8993(3)
H11 H 0.2471 0.3058 0.9139
C14 C 0.4015(3) 0.35599(12) 0.9001(2)
H12 H 0.4669 0.3256 0.9165
C15 C 0.5143(2) 0.40812(9) 0.6205(2)
C16 C 0.4970(2) 0.37130(10) 0.4987(2)
C17 C 0.4880(3) 0.39978(10) 0.3784(2)
H13 H 0.4888 0.4408 0.3768
C18 C 0.4778(3) 0.36938(11) 0.2614(3)
H14 H 0.4726 0.3893 0.1805
C19 C 0.4752(3) 0.30957(11) 0.2633(3)
H15 H 0.4692 0.2886 0.1835
C20 C 0.4814(3) 0.27988(10) 0.3806(3)
H16 H 0.4788 0.2389 0.3806
C21 C 0.4915(2) 0.31053(10) 0.4982(2)
C22 C 0.5086(3) 0.22368(10) 0.6305(3)
H17 H 0.5995 0.2127 0.6292
H18 H 0.4345 0.2031 0.5545
C23 C 0.5034(3) 0.20870(10) 0.7675(3)
C24 C 0.3831(3) 0.19036(11) 0.7789(3)
C25 C 0.3746(3) 0.17825(12) 0.9046(3)
H19 H 0.2893 0.1665 0.9085
C26 C 0.4931(3) 0.18359(11) 1.0239(3)
H20 H 0.4900 0.1749 1.1111
C27 C 0.6159(3) 0.20143(11) 1.0171(3)
H21 H 0.6973 0.2049 1.0993
C28 C 0.6203(3) 0.21430(11) 0.8897(3)
H22 H 0.7049 0.2272 0.8860
F1 F 0.26882(19) 0.18498(8) 0.66406(19)
F2 F 0.37137(19) 0.50892(7) 0.83312(18)
O1 O 0.86565(18) 0.38559(8) 0.93785(18)
O2 O 0.80228(18) 0.34328(7) 0.70460(19)
O3 O 0.46315(18) 0.45609(7) 0.60477(17)
O4 O 0.48855(18) 0.28506(7) 0.61475(17)
S1 S 0.78531(6) 0.38845(2) 0.79135(6)
loop_
_geom_bond_atom_site_label_1
_geom_bond_atom_site_label_2
_geom_bond_site_symmetry_1
_geom_bond_site_symmetry_2
C1 C2 1_555 1_555
C2 H1 1_555 1_555
C3 C2 1_555 1_555
H2 C3 1_555 1_555
C4 C3 1_555 1_555
H3 C4 1_555 1_555
C5 C4 1_555 1_555
H4 C5 1_555 1_555
C6 C1 1_555 1_555
H5 C6 1_555 1_555
C7 H6 1_555 1_555
C8 C7 1_555 1_555
H7 C8 1_555 1_555
H8 C8 1_555 1_555
C9 C8 1_555 1_555
C10 C9 1_555 1_555
C11 C10 1_555 1_555
H9 C11 1_555 1_555
C12 C11 1_555 1_555
H10 C12 1_555 1_555
C13 C12 1_555 1_555
H11 C13 1_555 1_555
C14 C9 1_555 1_555
H12 C14 1_555 1_555
C15 C7 1_555 1_555
C16 C15 1_555 1_555
C17 C16 1_555 1_555
H13 C17 1_555 1_555
C18 C17 1_555 1_555
H14 C18 1_555 1_555
C19 C18 1_555 1_555
H15 C19 1_555 1_555
C20 C19 1_555 1_555
H16 C20 1_555 1_555
C21 C16 1_555 1_555
C22 H17 1_555 1_555
H18 C22 1_555 1_555
C23 C22 1_555 1_555
C24 C23 1_555 1_555
C25 C24 1_555 1_555
H19 C25 1_555 1_555
C26 C25 1_555 1_555
H20 C26 1_555 1_555
C27 C26 1_555 1_555
H21 C27 1_555 1_555
C28 C23 1_555 1_555
H22 C28 1_555 1_555
F1 C24 1_555 1_555
F2 C10 1_555 1_555
O1 S1 1_555 1_555
O2 S1 1_555 1_555
O3 C15 1_555 1_555
O4 C21 1_555 1_555
S1 C1 1_555 1_555
C5 C6 1_555 1_555
C7 S1 1_555 1_555
C13 C14 1_555 1_555
C20 C21 1_555 1_555
C22 O4 1_555 1_555
C27 C28 1_555 1_555

#END
