
#######################################################################
#
#                 Cambridge Crystallographic Data Centre
#                                CCDC 
#
#######################################################################
#
# If this CIF has been generated from an entry in the Cambridge 
# Structural Database, then it will include bibliographic, chemical, 
# crystal, experimental, refinement or atomic coordinate data resulting 
# from the CCDC's data processing and validation procedures.
#
#######################################################################

data_SERVER
_chemical_formula_moiety         'C44 H34 S2'
_chemical_name_systematic        
4,4,6,6-tetra-p-tolyl-4,6-dihydrothieno[3',2':6,7]-s-indaceno[1,2-b]thiophene
_symmetry_cell_setting           triclinic
_symmetry_space_group_name_H-M   'P -1'
_symmetry_Int_Tables_number      2
_space_group_name_Hall           '-P 1'
loop_
_symmetry_equiv_pos_site_id
_symmetry_equiv_pos_as_xyz
1 x,y,z
2 -x,-y,-z
_cell_length_a                   9.0731(6)
_cell_length_b                   14.1751(7)
_cell_length_c                   14.4817(9)
_cell_angle_alpha                73.659(3)
_cell_angle_beta                 81.407(3)
_cell_angle_gamma                77.206(4)
_cell_volume                     1735.34
_chemical_melting_point          '326 deg.C'
_cell_formula_units_Z            2
loop_
_atom_site_label
_atom_site_type_symbol
_atom_site_fract_x
_atom_site_fract_y
_atom_site_fract_z
S1 S -0.38341(10) 0.49790(6) 0.39396(6)
S2 S -0.46950(10) 0.13442(6) 0.18666(7)
C1 C -0.2694(4) 0.5584(2) 0.4316(2)
H1 H -0.3066 0.6064 0.4660
C2 C -0.1191(4) 0.5295(2) 0.4062(2)
H2 H -0.0424 0.5560 0.4199
C3 C -0.0947(4) 0.4541(2) 0.3562(2)
C4 C 0.0414(4) 0.3891(2) 0.3148(2)
C5 C -0.0411(3) 0.3263(2) 0.2759(2)
C6 C 0.0244(4) 0.2483(2) 0.2339(2)
H3 H 0.1292 0.2321 0.2211
C7 C -0.0703(3) 0.1953(2) 0.2118(2)
C8 C -0.0238(4) 0.1072(2) 0.1646(2)
C9 C -0.1806(4) 0.0886(2) 0.1559(2)
C10 C -0.2382(4) 0.0233(2) 0.1197(2)
H4 H -0.1783 -0.0252 0.0912
C11 C -0.3927(4) 0.0398(3) 0.1317(3)
H5 H -0.4505 0.0036 0.1121
C12 C -0.2924(3) 0.1530(2) 0.1939(2)
C13 C -0.2292(3) 0.2214(2) 0.2291(2)
C14 C -0.2945(4) 0.2992(2) 0.2706(2)
H6 H -0.3993 0.3165 0.2820
C15 C -0.1992(3) 0.3506(2) 0.2949(2)
C16 C -0.2275(4) 0.4307(2) 0.3434(2)
C17 C 0.1380(4) 0.4541(2) 0.2371(2)
C18 C 0.2357(4) 0.5019(3) 0.2638(3)
H7 H 0.2419 0.4942 0.3291
C19 C 0.3245(4) 0.5606(3) 0.1960(3)
H8 H 0.3900 0.5910 0.2165
C20 C 0.3178(4) 0.5750(3) 0.0991(3)
C21 C 0.2169(5) 0.5293(3) 0.0711(3)
H9 H 0.2086 0.5389 0.0057
C22 C 0.1284(4) 0.4694(3) 0.1397(3)
H10 H 0.0621 0.4394 0.1195
C23 C 0.4170(5) 0.6375(3) 0.0236(4)
H11 H 0.4797 0.6628 0.0552
H12 H 0.3539 0.6924 -0.0166
H13 H 0.4801 0.5967 -0.0154
C24 C 0.1362(4) 0.3147(2) 0.3933(2)
C25 C 0.2840(4) 0.2705(2) 0.3709(2)
H14 H 0.3307 0.2912 0.3089
C26 C 0.3635(4) 0.1956(3) 0.4398(3)
H15 H 0.4633 0.1677 0.4231
C27 C 0.2990(4) 0.1612(3) 0.5320(3)
C28 C 0.1519(4) 0.2047(3) 0.5542(3)
H16 H 0.1050 0.1824 0.6158
C29 C 0.0717(4) 0.2806(2) 0.4872(2)
H17 H -0.0270 0.3095 0.5051
C30 C 0.3846(6) 0.0771(3) 0.6061(3)
H18 H 0.3211 0.0638 0.6658
H19 H 0.4745 0.0963 0.6168
H20 H 0.4125 0.0179 0.5828
C31 C 0.0639(4) 0.1446(2) 0.0667(2)
C32 C 0.2201(4) 0.1339(2) 0.0582(2)
H21 H 0.2736 0.0972 0.1109
C33 C 0.2985(4) 0.1770(3) -0.0277(3)
H22 H 0.4036 0.1691 -0.0311
C34 C 0.2250(5) 0.2305(3) -0.1068(3)
C35 C 0.0693(5) 0.2414(3) -0.0994(3)
H23 H 0.0168 0.2784 -0.1525
C36 C -0.0103(4) 0.1984(2) -0.0146(3)
H24 H -0.1151 0.2056 -0.0120
C37 C 0.3110(6) 0.2762(4) -0.2009(3)
H25 H 0.4175 0.2616 -0.1931
H26 H 0.2763 0.3474 -0.2184
H27 H 0.2935 0.2486 -0.2508
C38 C 0.0678(3) 0.0133(2) 0.2282(2)
C39 C 0.1255(4) -0.0698(2) 0.1929(3)
H28 H 0.1079 -0.0679 0.1307
C40 C 0.2085(4) -0.1560(3) 0.2477(3)
H29 H 0.2456 -0.2105 0.2216
C41 C 0.2372(4) -0.1623(3) 0.3398(3)
C42 C 0.1790(5) -0.0808(3) 0.3761(3)
H30 H 0.1961 -0.0834 0.4386
C43 C 0.0947(4) 0.0060(3) 0.3213(3)
H31 H 0.0560 0.0599 0.3481
C44 C 0.3311(5) -0.2562(3) 0.3989(4)
H32 H 0.3616 -0.3049 0.3618
H33 H 0.2715 -0.2830 0.4570
H34 H 0.4195 -0.2399 0.4151
loop_
_geom_bond_atom_site_label_1
_geom_bond_atom_site_label_2
_geom_bond_site_symmetry_1
_geom_bond_site_symmetry_2
S1 C1 1_555 1_555
S2 C11 1_555 1_555
C1 H1 1_555 1_555
C2 C1 1_555 1_555
H2 C2 1_555 1_555
C3 C2 1_555 1_555
C4 C3 1_555 1_555
C5 C4 1_555 1_555
C6 C5 1_555 1_555
H3 C6 1_555 1_555
C7 C6 1_555 1_555
C8 C7 1_555 1_555
C9 C8 1_555 1_555
C10 C9 1_555 1_555
H4 C10 1_555 1_555
C11 C10 1_555 1_555
H5 C11 1_555 1_555
C12 S2 1_555 1_555
C13 C7 1_555 1_555
C14 C13 1_555 1_555
H6 C14 1_555 1_555
C15 C5 1_555 1_555
C16 S1 1_555 1_555
C17 C4 1_555 1_555
C18 C17 1_555 1_555
H7 C18 1_555 1_555
C19 C18 1_555 1_555
H8 C19 1_555 1_555
C20 C19 1_555 1_555
C21 C20 1_555 1_555
H9 C21 1_555 1_555
C22 C17 1_555 1_555
H10 C22 1_555 1_555
C23 C20 1_555 1_555
H11 C23 1_555 1_555
H12 C23 1_555 1_555
H13 C23 1_555 1_555
C24 C4 1_555 1_555
C25 C24 1_555 1_555
H14 C25 1_555 1_555
C26 C25 1_555 1_555
H15 C26 1_555 1_555
C27 C26 1_555 1_555
C28 C27 1_555 1_555
H16 C28 1_555 1_555
C29 C24 1_555 1_555
H17 C29 1_555 1_555
C30 C27 1_555 1_555
H18 C30 1_555 1_555
H19 C30 1_555 1_555
H20 C30 1_555 1_555
C31 C8 1_555 1_555
C32 C31 1_555 1_555
H21 C32 1_555 1_555
C33 C32 1_555 1_555
H22 C33 1_555 1_555
C34 C33 1_555 1_555
C35 C34 1_555 1_555
H23 C35 1_555 1_555
C36 C31 1_555 1_555
H24 C36 1_555 1_555
C37 C34 1_555 1_555
H25 C37 1_555 1_555
H26 C37 1_555 1_555
H27 C37 1_555 1_555
C38 C8 1_555 1_555
C39 C38 1_555 1_555
H28 C39 1_555 1_555
C40 C39 1_555 1_555
H29 C40 1_555 1_555
C41 C40 1_555 1_555
C42 C41 1_555 1_555
H30 C42 1_555 1_555
C43 C38 1_555 1_555
H31 C43 1_555 1_555
C44 C41 1_555 1_555
H32 C44 1_555 1_555
H33 C44 1_555 1_555
H34 C44 1_555 1_555
C3 C16 1_555 1_555
C9 C12 1_555 1_555
C12 C13 1_555 1_555
C14 C15 1_555 1_555
C15 C16 1_555 1_555
C21 C22 1_555 1_555
C28 C29 1_555 1_555
C35 C36 1_555 1_555
C42 C43 1_555 1_555

#END
