
#######################################################################
#
#                 Cambridge Crystallographic Data Centre
#                                CCDC 
#
#######################################################################
#
# If this CIF has been generated from an entry in the Cambridge 
# Structural Database, then it will include bibliographic, chemical, 
# crystal, experimental, refinement or atomic coordinate data resulting 
# from the CCDC's data processing and validation procedures.
#
#######################################################################

data_SERVAN
_chemical_formula_moiety         'C60 H45 N1'
_chemical_name_systematic        
9,9,15,15-tetra-p-tolyl-7-phenyl-9,15-dihydro-7H-diindeno[2,1-b:2',1'-g]carbazole
_symmetry_cell_setting           triclinic
_symmetry_space_group_name_H-M   'P -1'
_symmetry_Int_Tables_number      2
_space_group_name_Hall           '-P 1'
loop_
_symmetry_equiv_pos_site_id
_symmetry_equiv_pos_as_xyz
1 x,y,z
2 -x,-y,-z
_cell_length_a                   10.53280(10)
_cell_length_b                   14.2613(2)
_cell_length_c                   17.2050(3)
_cell_angle_alpha                67.3510(7)
_cell_angle_beta                 72.1960(8)
_cell_angle_gamma                70.4790(8)
_cell_volume                     2200.91
_exptl_crystal_colour            white
_chemical_melting_point          '346 deg.C'
_cell_formula_units_Z            2
loop_
_atom_site_label
_atom_site_type_symbol
_atom_site_fract_x
_atom_site_fract_y
_atom_site_fract_z
N1 N 0.95783(17) 0.17371(13) 0.31053(11)
C1 C 0.84557(19) 0.23430(15) 0.27277(12)
C2 C 0.7812(2) 0.33931(15) 0.26328(13)
H1 H 0.8086 0.3778 0.2855
C3 C 0.67508(19) 0.38373(15) 0.21948(13)
C4 C 0.58999(19) 0.49777(15) 0.19688(13)
C5 C 0.4838(2) 0.49101(16) 0.15476(13)
C6 C 0.3696(2) 0.56531(18) 0.12903(16)
H2 H 0.3453 0.6303 0.1372
C7 C 0.2903(3) 0.5423(2) 0.09049(17)
H3 H 0.2129 0.5923 0.0725
C8 C 0.3258(2) 0.4453(2) 0.07876(15)
H4 H 0.2735 0.4314 0.0515
C9 C 0.4374(2) 0.36948(18) 0.10686(14)
H5 H 0.4600 0.3040 0.0998
C10 C 0.5163(2) 0.39183(16) 0.14603(13)
C11 C 0.63348(19) 0.32421(15) 0.18692(13)
C12 C 0.69516(19) 0.21872(15) 0.19934(13)
H6 H 0.6664 0.1803 0.1778
C13 C 0.80168(19) 0.17118(15) 0.24490(12)
C14 C 0.88899(19) 0.06563(15) 0.27096(12)
C15 C 0.89722(19) -0.03347(15) 0.26817(12)
C16 C 0.79854(19) -0.07256(15) 0.24419(13)
C17 C 0.8823(2) -0.18510(16) 0.24908(14)
C18 C 0.8526(3) -0.25929(19) 0.22883(18)
H7 H 0.7764 -0.2426 0.2051
C19 C 0.9394(3) -0.3595(2) 0.2448(2)
H8 H 0.9207 -0.4103 0.2316
C20 C 1.0525(3) -0.3848(2) 0.2797(2)
H9 H 1.1082 -0.4527 0.2908
C21 C 1.0845(3) -0.31039(18) 0.29870(18)
H10 H 1.1620 -0.3272 0.3212
C22 C 0.9983(2) -0.21046(17) 0.28328(15)
C23 C 1.0067(2) -0.11694(16) 0.29571(14)
C24 C 1.1050(2) -0.10631(17) 0.32831(14)
H11 H 1.1776 -0.1633 0.3447
C25 C 1.0949(2) -0.01143(17) 0.33629(14)
H12 H 1.1581 -0.0035 0.3596
C26 C 0.98719(19) 0.07178(15) 0.30848(13)
C27 C 1.0361(2) 0.21169(15) 0.34181(13)
C28 C 1.1163(2) 0.27834(18) 0.28469(15)
H13 H 1.1203 0.2982 0.2260
C29 C 1.1912(3) 0.3158(2) 0.31466(17)
H14 H 1.2463 0.3602 0.2762
C30 C 1.1838(3) 0.2870(2) 0.40110(18)
H15 H 1.2331 0.3129 0.4214
C31 C 1.1047(3) 0.2207(2) 0.45783(17)
H16 H 1.1007 0.2011 0.5165
C32 C 1.0303(2) 0.1825(2) 0.42810(15)
H17 H 0.9766 0.1371 0.4667
C33 C 0.5182(2) 0.52993(16) 0.27830(14)
C34 C 0.4279(2) 0.47483(19) 0.34093(16)
H18 H 0.4130 0.4188 0.3329
C35 C 0.3590(3) 0.5004(2) 0.41521(17)
H19 H 0.2994 0.4611 0.4560
C36 C 0.3768(3) 0.5830(2) 0.43012(18)
C37 C 0.4668(3) 0.6369(3) 0.3693(2)
H20 H 0.4814 0.6927 0.3777
C38 C 0.5387(3) 0.6108(2) 0.2938(2)
H21 H 0.6007 0.6488 0.2540
C39 C 0.2990(3) 0.6130(3) 0.5105(2)
H22 H 0.2403 0.5666 0.5456
H23 H 0.2442 0.6838 0.4946
H24 H 0.3633 0.6076 0.5423
C40 C 0.6781(2) 0.57250(16) 0.12917(14)
C41 C 0.6166(3) 0.67576(18) 0.0894(2)
H25 H 0.5215 0.6996 0.1039
C42 C 0.6912(3) 0.7435(2) 0.0296(2)
H26 H 0.6451 0.8124 0.0051
C43 C 0.8311(3) 0.7143(2) 0.00416(17)
C44 C 0.8928(3) 0.6121(2) 0.04189(17)
H27 H 0.9877 0.5887 0.0261
C45 C 0.8184(2) 0.54194(19) 0.10319(16)
H28 H 0.8645 0.4729 0.1271
C46 C 0.9129(4) 0.7905(3) -0.0617(2)
H29 H 1.0089 0.7553 -0.0700
H30 H 0.8989 0.8480 -0.0416
H31 H 0.8829 0.8163 -0.1152
C47 C 0.7674(2) -0.01461(16) 0.15449(13)
C48 C 0.8539(2) 0.04208(17) 0.08944(14)
H32 H 0.9280 0.0511 0.1021
C49 C 0.8328(2) 0.08568(19) 0.00595(15)
H33 H 0.8920 0.1246 -0.0360
C50 C 0.7260(3) 0.07286(19) -0.01658(16)
C51 C 0.6379(3) 0.0185(2) 0.04888(17)
H34 H 0.5631 0.0104 0.0362
C52 C 0.6568(3) -0.0243(2) 0.13249(16)
H35 H 0.5947 -0.0602 0.1748
C53 C 0.7097(3) 0.1130(2) -0.10893(17)
H36 H 0.6308 0.0961 -0.1119
H37 H 0.7905 0.0807 -0.1431
H38 H 0.6976 0.1877 -0.1305
C54 C 0.6679(2) -0.07545(16) 0.31704(13)
C55 C 0.5538(2) 0.00926(18) 0.31355(17)
H39 H 0.5533 0.0680 0.2647
C56 C 0.4409(2) 0.0087(2) 0.38068(18)
H40 H 0.3666 0.0672 0.3761
C57 C 0.4354(2) -0.0762(2) 0.45397(16)
C58 C 0.5483(3) -0.1609(2) 0.45709(17)
H41 H 0.5481 -0.2198 0.5057
C59 C 0.6615(3) -0.1609(2) 0.39009(16)
H42 H 0.7350 -0.2199 0.3945
C60 C 0.3139(3) -0.0774(3) 0.52765(19)
H43 H 0.2458 -0.0123 0.5140
H44 H 0.3428 -0.0864 0.5784
H45 H 0.2753 -0.1342 0.5377
loop_
_geom_bond_atom_site_label_1
_geom_bond_atom_site_label_2
_geom_bond_site_symmetry_1
_geom_bond_site_symmetry_2
N1 C1 1_555 1_555
C1 C2 1_555 1_555
C2 H1 1_555 1_555
C3 C2 1_555 1_555
C4 C3 1_555 1_555
C5 C4 1_555 1_555
C6 C5 1_555 1_555
H2 C6 1_555 1_555
C7 C6 1_555 1_555
H3 C7 1_555 1_555
C8 C7 1_555 1_555
H4 C8 1_555 1_555
C9 C8 1_555 1_555
H5 C9 1_555 1_555
C10 C5 1_555 1_555
C11 C3 1_555 1_555
C12 C11 1_555 1_555
H6 C12 1_555 1_555
C13 C1 1_555 1_555
C14 C13 1_555 1_555
C15 C14 1_555 1_555
C16 C15 1_555 1_555
C17 C16 1_555 1_555
C18 C17 1_555 1_555
H7 C18 1_555 1_555
C19 C18 1_555 1_555
H8 C19 1_555 1_555
C20 C19 1_555 1_555
H9 C20 1_555 1_555
C21 C20 1_555 1_555
H10 C21 1_555 1_555
C22 C17 1_555 1_555
C23 C15 1_555 1_555
C24 C23 1_555 1_555
H11 C24 1_555 1_555
C25 C24 1_555 1_555
H12 C25 1_555 1_555
C26 N1 1_555 1_555
C27 N1 1_555 1_555
C28 C27 1_555 1_555
H13 C28 1_555 1_555
C29 C28 1_555 1_555
H14 C29 1_555 1_555
C30 C29 1_555 1_555
H15 C30 1_555 1_555
C31 C30 1_555 1_555
H16 C31 1_555 1_555
C32 C27 1_555 1_555
H17 C32 1_555 1_555
C33 C4 1_555 1_555
C34 C33 1_555 1_555
H18 C34 1_555 1_555
C35 C34 1_555 1_555
H19 C35 1_555 1_555
C36 C35 1_555 1_555
C37 C36 1_555 1_555
H20 C37 1_555 1_555
C38 C33 1_555 1_555
H21 C38 1_555 1_555
C39 C36 1_555 1_555
H22 C39 1_555 1_555
H23 C39 1_555 1_555
H24 C39 1_555 1_555
C40 C4 1_555 1_555
C41 C40 1_555 1_555
H25 C41 1_555 1_555
C42 C41 1_555 1_555
H26 C42 1_555 1_555
C43 C42 1_555 1_555
C44 C43 1_555 1_555
H27 C44 1_555 1_555
C45 C40 1_555 1_555
H28 C45 1_555 1_555
C46 C43 1_555 1_555
H29 C46 1_555 1_555
H30 C46 1_555 1_555
H31 C46 1_555 1_555
C47 C16 1_555 1_555
C48 C47 1_555 1_555
H32 C48 1_555 1_555
C49 C48 1_555 1_555
H33 C49 1_555 1_555
C50 C49 1_555 1_555
C51 C50 1_555 1_555
H34 C51 1_555 1_555
C52 C47 1_555 1_555
H35 C52 1_555 1_555
C53 C50 1_555 1_555
H36 C53 1_555 1_555
H37 C53 1_555 1_555
H38 C53 1_555 1_555
C54 C16 1_555 1_555
C55 C54 1_555 1_555
H39 C55 1_555 1_555
C56 C55 1_555 1_555
H40 C56 1_555 1_555
C57 C56 1_555 1_555
C58 C57 1_555 1_555
H41 C58 1_555 1_555
C59 C54 1_555 1_555
H42 C59 1_555 1_555
C60 C57 1_555 1_555
H43 C60 1_555 1_555
H44 C60 1_555 1_555
H45 C60 1_555 1_555
C9 C10 1_555 1_555
C10 C11 1_555 1_555
C12 C13 1_555 1_555
C14 C26 1_555 1_555
C21 C22 1_555 1_555
C22 C23 1_555 1_555
C25 C26 1_555 1_555
C31 C32 1_555 1_555
C37 C38 1_555 1_555
C44 C45 1_555 1_555
C51 C52 1_555 1_555
C58 C59 1_555 1_555

#END
