
#######################################################################
#
#                 Cambridge Crystallographic Data Centre
#                                CCDC 
#
#######################################################################
#
# If this CIF has been generated from an entry in the Cambridge 
# Structural Database, then it will include bibliographic, chemical, 
# crystal, experimental, refinement or atomic coordinate data resulting 
# from the CCDC's data processing and validation procedures.
#
#######################################################################

data_SERVIV
_chemical_formula_moiety         'C52 H38 S2'
_chemical_name_systematic        
5,5,7,7-tetra-p-tolyl-5,7-dihydro[1]benzothieno[3',2':6,7]-s-indaceno[1,2-b][1]benzothiophene
_symmetry_cell_setting           triclinic
_symmetry_space_group_name_H-M   'P -1'
_symmetry_Int_Tables_number      2
_space_group_name_Hall           '-P 1'
loop_
_symmetry_equiv_pos_site_id
_symmetry_equiv_pos_as_xyz
1 x,y,z
2 -x,-y,-z
_cell_length_a                   9.8963(3)
_cell_length_b                   10.7278(5)
_cell_length_c                   10.7354(4)
_cell_angle_alpha                110.407(2)
_cell_angle_beta                 104.026(2)
_cell_angle_gamma                107.311(2)
_cell_volume                     940.429
_exptl_crystal_colour            white
_chemical_melting_point          '734 K'
_cell_formula_units_Z            1
loop_
_atom_site_label
_atom_site_type_symbol
_atom_site_fract_x
_atom_site_fract_y
_atom_site_fract_z
S1 S 0.44912(9) 0.16769(9) 0.00152(9)
C1 C -0.0426(3) -0.0310(3) 0.1067(3)
H1 H -0.0714 -0.0499 0.1769
C2 C 0.1501(3) 0.0452(3) 0.0142(3)
C3 C 0.1076(3) 0.0118(3) 0.1190(3)
C4 C 0.2487(3) 0.0302(3) 0.2371(3)
C5 C 0.3766(3) 0.1017(3) 0.1946(3)
C6 C 0.5422(3) 0.1679(3) 0.2537(3)
C7 C 0.6493(3) 0.1996(4) 0.3846(4)
H2 H 0.6170 0.1805 0.4531
C8 C 0.8032(4) 0.2596(5) 0.4114(5)
H3 H 0.8744 0.2801 0.4985
C9 C 0.8550(4) 0.2904(5) 0.3120(5)
H4 H 0.9598 0.3292 0.3327
C10 C 0.7534(3) 0.2641(4) 0.1831(4)
H5 H 0.7877 0.2847 0.1161
C11 C 0.5974(3) 0.2058(3) 0.1560(3)
C12 C 0.3165(3) 0.0995(3) 0.0662(3)
C13 C 0.2607(3) 0.1264(3) 0.3876(3)
C14 C 0.3073(4) 0.2763(4) 0.4363(4)
H6 H 0.3351 0.3180 0.3784
C15 C 0.3134(4) 0.3662(4) 0.5699(4)
H7 H 0.3446 0.4662 0.5994
C16 C 0.2736(4) 0.3079(4) 0.6586(3)
C17 C 0.2250(4) 0.1587(4) 0.6080(4)
H8 H 0.1953 0.1164 0.6648
C18 C 0.2190(4) 0.0697(4) 0.4755(4)
H9 H 0.1860 -0.0305 0.4457
C19 C 0.2912(5) 0.4049(4) 0.8095(4)
H10 H 0.2578 0.3449 0.8544
H11 H 0.2300 0.4588 0.8036
H12 H 0.3970 0.4721 0.8658
C20 C 0.2393(3) -0.1220(3) 0.2199(3)
C21 C 0.1048(4) -0.2368(4) 0.1799(5)
H13 H 0.0138 -0.2253 0.1572
C22 C 0.0988(4) -0.3702(4) 0.1718(6)
H14 H 0.0044 -0.4451 0.1455
C23 C 0.2280(4) -0.3944(4) 0.2016(4)
C24 C 0.3601(4) -0.2815(4) 0.2400(5)
H15 H 0.4506 -0.2941 0.2596
C25 C 0.3671(4) -0.1476(4) 0.2516(4)
H16 H 0.4625 -0.0719 0.2822
C26 C 0.2233(5) -0.5395(4) 0.1954(5)
H17 H 0.3253 -0.5348 0.2197
H18 H 0.1591 -0.6169 0.0998
H19 H 0.1825 -0.5585 0.2627
S1A S -0.44912(9) -0.16769(9) -0.00152(9)
C1A C 0.0426(3) 0.0310(3) -0.1067(3)
H1A H 0.0714 0.0499 -0.1769
C2A C -0.1501(3) -0.0452(3) -0.0142(3)
C3A C -0.1076(3) -0.0118(3) -0.1190(3)
C4A C -0.2487(3) -0.0302(3) -0.2371(3)
C5A C -0.3766(3) -0.1017(3) -0.1946(3)
C6A C -0.5422(3) -0.1679(3) -0.2537(3)
C7A C -0.6493(3) -0.1996(4) -0.3846(4)
H2A H -0.6170 -0.1805 -0.4531
C8A C -0.8032(4) -0.2596(5) -0.4114(5)
H3A H -0.8744 -0.2801 -0.4985
C9A C -0.8550(4) -0.2904(5) -0.3120(5)
H4A H -0.9598 -0.3292 -0.3327
C10A C -0.7534(3) -0.2641(4) -0.1831(4)
H5A H -0.7877 -0.2847 -0.1161
C11A C -0.5974(3) -0.2058(3) -0.1560(3)
C12A C -0.3165(3) -0.0995(3) -0.0662(3)
C13A C -0.2607(3) -0.1264(3) -0.3876(3)
C14A C -0.3073(4) -0.2763(4) -0.4363(4)
H6A H -0.3351 -0.3180 -0.3784
C15A C -0.3134(4) -0.3662(4) -0.5699(4)
H7A H -0.3446 -0.4662 -0.5994
C16A C -0.2736(4) -0.3079(4) -0.6586(3)
C17A C -0.2250(4) -0.1587(4) -0.6080(4)
H8A H -0.1953 -0.1164 -0.6648
C18A C -0.2190(4) -0.0697(4) -0.4755(4)
H9A H -0.1860 0.0305 -0.4457
C19A C -0.2912(5) -0.4049(4) -0.8095(4)
H10A H -0.2578 -0.3449 -0.8544
H11A H -0.2300 -0.4588 -0.8036
H12A H -0.3970 -0.4721 -0.8658
C20A C -0.2393(3) 0.1220(3) -0.2199(3)
C21A C -0.1048(4) 0.2368(4) -0.1799(5)
H13A H -0.0138 0.2253 -0.1572
C22A C -0.0988(4) 0.3702(4) -0.1718(6)
H14A H -0.0044 0.4451 -0.1455
C23A C -0.2280(4) 0.3944(4) -0.2016(4)
C24A C -0.3601(4) 0.2815(4) -0.2400(5)
H15A H -0.4506 0.2941 -0.2596
C25A C -0.3671(4) 0.1476(4) -0.2516(4)
H16A H -0.4625 0.0719 -0.2822
C26A C -0.2233(5) 0.5395(4) -0.1954(5)
H17A H -0.3253 0.5348 -0.2197
H18A H -0.1591 0.6169 -0.0998
H19A H -0.1825 0.5585 -0.2627
loop_
_geom_bond_atom_site_label_1
_geom_bond_atom_site_label_2
_geom_bond_site_symmetry_1
_geom_bond_site_symmetry_2
S1 C11 1_555 1_555
C1 H1 1_555 1_555
C2 C3 1_555 1_555
C3 C1 1_555 1_555
C4 C3 1_555 1_555
C5 C4 1_555 1_555
C6 C5 1_555 1_555
C7 C6 1_555 1_555
H2 C7 1_555 1_555
C8 C7 1_555 1_555
H3 C8 1_555 1_555
C9 C8 1_555 1_555
H4 C9 1_555 1_555
C10 C9 1_555 1_555
H5 C10 1_555 1_555
C11 C6 1_555 1_555
C12 S1 1_555 1_555
C13 C4 1_555 1_555
C14 C13 1_555 1_555
H6 C14 1_555 1_555
C15 C14 1_555 1_555
H7 C15 1_555 1_555
C16 C15 1_555 1_555
C17 C16 1_555 1_555
H8 C17 1_555 1_555
C18 C13 1_555 1_555
H9 C18 1_555 1_555
C19 C16 1_555 1_555
H10 C19 1_555 1_555
H11 C19 1_555 1_555
H12 C19 1_555 1_555
C20 C4 1_555 1_555
C21 C20 1_555 1_555
H13 C21 1_555 1_555
C22 C21 1_555 1_555
H14 C22 1_555 1_555
C23 C22 1_555 1_555
C24 C23 1_555 1_555
H15 C24 1_555 1_555
C25 C20 1_555 1_555
H16 C25 1_555 1_555
C26 C23 1_555 1_555
H17 C26 1_555 1_555
H18 C26 1_555 1_555
H19 C26 1_555 1_555
S1A C11A 1_555 1_555
C1A C2 1_555 1_555
H1A C1A 1_555 1_555
C2A C1 1_555 1_555
C3A C1A 1_555 1_555
C4A C3A 1_555 1_555
C5A C4A 1_555 1_555
C6A C5A 1_555 1_555
C7A C6A 1_555 1_555
H2A C7A 1_555 1_555
C8A C7A 1_555 1_555
H3A C8A 1_555 1_555
C9A C8A 1_555 1_555
H4A C9A 1_555 1_555
C10A C9A 1_555 1_555
H5A C10A 1_555 1_555
C11A C6A 1_555 1_555
C12A S1A 1_555 1_555
C13A C4A 1_555 1_555
C14A C13A 1_555 1_555
H6A C14A 1_555 1_555
C15A C14A 1_555 1_555
H7A C15A 1_555 1_555
C16A C15A 1_555 1_555
C17A C16A 1_555 1_555
H8A C17A 1_555 1_555
C18A C13A 1_555 1_555
H9A C18A 1_555 1_555
C19A C16A 1_555 1_555
H10A C19A 1_555 1_555
H11A C19A 1_555 1_555
H12A C19A 1_555 1_555
C20A C4A 1_555 1_555
C21A C20A 1_555 1_555
H13A C21A 1_555 1_555
C22A C21A 1_555 1_555
H14A C22A 1_555 1_555
C23A C22A 1_555 1_555
C24A C23A 1_555 1_555
H15A C24A 1_555 1_555
C25A C20A 1_555 1_555
H16A C25A 1_555 1_555
C26A C23A 1_555 1_555
H17A C26A 1_555 1_555
H18A C26A 1_555 1_555
H19A C26A 1_555 1_555
C2 C12 1_555 1_555
C5 C12 1_555 1_555
C10 C11 1_555 1_555
C17 C18 1_555 1_555
C24 C25 1_555 1_555
C2A C3A 1_555 1_555
C2A C12A 1_555 1_555
C5A C12A 1_555 1_555
C10A C11A 1_555 1_555
C17A C18A 1_555 1_555
C24A C25A 1_555 1_555

#END
