
#######################################################################
#
#                 Cambridge Crystallographic Data Centre
#                                CCDC 
#
#######################################################################
#
# If this CIF has been generated from an entry in the Cambridge 
# Structural Database, then it will include bibliographic, chemical, 
# crystal, experimental, refinement or atomic coordinate data resulting 
# from the CCDC's data processing and validation procedures.
#
#######################################################################

data_SERVIW
_chemical_formula_moiety         '3(C18 F10 I4),5(C9 H18 N3 1+),5(Cl1 1-)'
_chemical_name_systematic        
"pentakis[(2,3-bis(Dimethylamino)cyclopropen-1-ylidene)dimethylammonium] tris[2',3,3',3'',4,4'',5,5',5'',6'-decafluoro-2,2'',6,6''-tetraiodo-1,1':4',1''-terphenyl] pentachloride"
_symmetry_cell_setting           monoclinic
_symmetry_space_group_name_H-M   'C 2/c'
_symmetry_Int_Tables_number      15
_space_group_name_Hall           '-C 2yn'
loop_
_symmetry_equiv_pos_site_id
_symmetry_equiv_pos_as_xyz
1 x,y,z
2 -x,y,1/2-z
3 1/2+x,1/2+y,z
4 1/2-x,1/2+y,1/2-z
5 -x,-y,-z
6 x,-y,1/2+z
7 1/2-x,1/2-y,-z
8 1/2+x,1/2-y,1/2+z
_cell_length_a                   7.7361(2)
_cell_length_b                   52.0535(16)
_cell_length_c                   30.3246(9)
_cell_angle_alpha                90
_cell_angle_beta                 96.9665(12)
_cell_angle_gamma                90
_cell_volume                     12121.3
_exptl_crystal_colour            colorless
_cell_formula_units_Z            4
loop_
_atom_site_label
_atom_site_type_symbol
_atom_site_fract_x
_atom_site_fract_y
_atom_site_fract_z
I1 I 0.95606(3) 0.00517(1) 0.63823(1)
I2 I 0.90320(3) 0.12076(1) 0.68379(1)
F1 F 1.2576(3) 0.05903(4) 0.69688(7)
F2 F 0.6605(3) 0.05901(4) 0.71500(7)
F3 F 0.8334(3) 0.03125(4) 0.54715(7)
F4 F 0.7602(4) 0.07950(5) 0.52129(7)
F5 F 0.7909(3) 0.11815(4) 0.58039(7)
C1 C 0.9556(4) 0.05910(6) 0.70296(11)
C2 C 1.1273(4) 0.05836(6) 0.72269(11)
C3 C 0.8303(4) 0.05837(6) 0.73161(11)
C4 C 0.9087(4) 0.06384(6) 0.65411(11)
C5 C 0.8984(4) 0.04396(6) 0.62254(11)
C6 C 0.8486(5) 0.04982(7) 0.57822(12)
C7 C 0.8110(5) 0.07456(7) 0.56450(11)
C8 C 0.8264(5) 0.09410(7) 0.59525(12)
C9 C 0.8740(4) 0.08916(6) 0.63985(11)
I1A I 1.04394(3) 0.00517(1) 0.86177(1)
I2A I 1.09680(3) 0.12076(1) 0.81621(1)
F1A F 0.7424(3) 0.05903(4) 0.80312(7)
F2A F 1.3395(3) 0.05901(4) 0.78500(7)
F3A F 1.1666(3) 0.03125(4) 0.95285(7)
F4A F 1.2398(4) 0.07950(5) 0.97871(7)
F5A F 1.2091(3) 0.11815(4) 0.91961(7)
C1A C 1.0444(4) 0.05910(6) 0.79704(11)
C2A C 0.8727(4) 0.05836(6) 0.77731(11)
C3A C 1.1697(4) 0.05837(6) 0.76839(11)
C4A C 1.0913(4) 0.06384(6) 0.84589(11)
C5A C 1.1016(4) 0.04396(6) 0.87746(11)
C6A C 1.1514(5) 0.04982(7) 0.92178(12)
C7A C 1.1890(5) 0.07456(7) 0.93550(11)
C8A C 1.1736(5) 0.09410(7) 0.90475(12)
C9A C 1.1260(4) 0.08916(6) 0.86015(11)
I3 I 1.10860(3) 0.10786(1) 0.18013(1)
I4 I 1.00689(3) 0.22251(1) 0.13217(1)
I5 I 0.68956(3) 0.17304(1) -0.04471(1)
I6 I 0.88446(3) 0.07262(1) 0.05758(1)
F6 F 1.2973(3) 0.13698(4) 0.26520(7)
F7 F 1.3436(3) 0.18704(4) 0.28506(7)
F8 F 1.2077(3) 0.22344(4) 0.22960(7)
F9 F 1.2771(2) 0.15233(4) 0.09683(6)
F10 F 1.1437(3) 0.12942(4) 0.02124(6)
F11 F 0.5783(2) 0.14131(4) 0.06020(7)
F12 F 0.7116(3) 0.16221(4) 0.13745(6)
F13 F 0.5665(3) 0.12988(4) -0.11354(7)
F14 F 0.5839(4) 0.07858(4) -0.11215(7)
F15 F 0.7234(4) 0.05355(4) -0.03880(8)
C10 C 1.0793(4) 0.16632(6) 0.16441(10)
C11 C 1.1427(4) 0.14731(6) 0.19467(11)
C12 C 1.2305(5) 0.15448(7) 0.23527(11)
C13 C 1.2530(5) 0.18024(7) 0.24624(11)
C14 C 1.1844(5) 0.19861(6) 0.21691(11)
C15 C 1.0977(4) 0.19228(6) 0.17557(10)
C16 C 0.9986(4) 0.15806(6) 0.11937(10)
C17 C 1.1032(4) 0.14985(6) 0.08799(10)
C18 C 1.0351(4) 0.13816(6) 0.04897(10)
C19 C 0.8566(4) 0.13460(6) 0.03847(10)
C20 C 0.7518(4) 0.14394(6) 0.06872(11)
C21 C 0.8206(4) 0.15506(6) 0.10828(11)
C22 C 0.7825(4) 0.11981(6) -0.00156(10)
C23 C 0.7079(4) 0.13274(6) -0.03976(11)
C24 C 0.6414(5) 0.11842(7) -0.07615(11)
C25 C 0.6483(5) 0.09194(7) -0.07573(12)
C26 C 0.7206(5) 0.07940(7) -0.03802(12)
C27 C 0.7878(5) 0.09281(7) -0.00046(11)
N1 N 0.4915(4) 0.07763(6) 0.12647(10)
N2 N 0.4213(4) 0.00823(6) 0.11305(11)
N3 N 0.6567(4) 0.03483(6) 0.21703(10)
C28 C 0.5127(4) 0.05400(7) 0.14242(11)
C29 C 0.4873(5) 0.02800(7) 0.13755(12)
C30 C 0.5760(5) 0.03760(7) 0.17584(12)
C31 C 0.5811(5) 0.09932(7) 0.14979(14)
C32 C 0.3961(5) 0.08223(8) 0.08276(13)
C33 C 0.3414(7) 0.01262(10) 0.06752(14)
C34 C 0.4462(5) -0.01804(7) 0.12830(15)
C35 C 0.7098(6) 0.01016(9) 0.23593(13)
C36 C 0.7336(6) 0.05752(9) 0.24006(14)
H1 H 0.58380 0.09690 0.18190
H2 H 0.51920 0.11530 0.14090
H3 H 0.70060 0.10030 0.14220
H4 H 0.47740 0.08220 0.06040
H5 H 0.33730 0.09890 0.08260
H6 H 0.30930 0.06860 0.07590
H7 H 0.25890 0.02690 0.06700
H8 H 0.27970 -0.00290 0.05620
H9 H 0.43210 0.01680 0.04870
H10 H 0.52910 -0.02670 0.11120
H11 H 0.33450 -0.02710 0.12410
H12 H 0.49200 -0.01810 0.15990
H13 H 0.63920 -0.00340 0.22030
H14 H 0.69340 0.00990 0.26750
H15 H 0.83300 0.00720 0.23290
H16 H 0.83360 0.06330 0.22570
H17 H 0.77230 0.05320 0.27110
H18 H 0.64660 0.07130 0.23880
N4 N 0.3146(4) 0.28927(6) 0.14420(9)
N5 N 0.3708(4) 0.28892(6) 0.02627(10)
N6 N 0.4741(4) 0.23062(6) 0.09202(10)
C37 C 0.3571(4) 0.27644(6) 0.10899(11)
C38 C 0.3819(4) 0.27669(7) 0.06502(11)
C39 C 0.4218(4) 0.25502(7) 0.08996(11)
C40 C 0.3035(5) 0.27684(7) 0.18669(11)
C41 C 0.2298(5) 0.31432(7) 0.13765(13)
C42 C 0.3035(5) 0.31487(8) 0.02215(13)
C43 C 0.4518(6) 0.27759(9) -0.01042(13)
C44 C 0.5442(5) 0.21896(8) 0.05417(14)
C45 C 0.5011(5) 0.21732(7) 0.13443(13)
H19 H 0.18130 0.27310 0.18970
H20 H 0.35130 0.28830 0.21080
H21 H 0.37020 0.26080 0.18820
H22 H 0.29010 0.32460 0.11720
H23 H 0.23450 0.32320 0.16620
H24 H 0.10800 0.31190 0.12510
H25 H 0.20620 0.31670 0.03980
H26 H 0.26290 0.31850 -0.00910
H27 H 0.39580 0.32700 0.03290
H28 H 0.55920 0.26870 0.00140
H29 H 0.47930 0.29120 -0.03080
H30 H 0.37120 0.26530 -0.02640
H31 H 0.47530 0.22450 0.02660
H32 H 0.53890 0.20020 0.05660
H33 H 0.66550 0.22430 0.05400
H34 H 0.43580 0.22610 0.15580
H35 H 0.62540 0.21740 0.14560
H36 H 0.46030 0.19950 0.13050
N7 N 1.00000 0.36276(8) 0.25000
N8 N 0.8503(4) 0.30165(6) 0.19758(10)
C46 C 1.00000 0.33749(10) 0.25000
C47 C 0.9413(5) 0.31433(7) 0.23101(11)
C48 C 0.8889(5) 0.37757(7) 0.21726(13)
C49 C 0.7445(5) 0.31606(8) 0.16258(12)
C50 C 0.8044(5) 0.27494(7) 0.20215(13)
H37 H 0.80990 0.36600 0.19910
H38 H 0.96120 0.38680 0.19810
H39 H 0.82090 0.38990 0.23250
H40 H 0.63230 0.32040 0.17260
H41 H 0.72480 0.30550 0.13570
H42 H 0.80560 0.33180 0.15610
H43 H 0.89380 0.26640 0.22280
H44 H 0.79650 0.26650 0.17310
H45 H 0.69170 0.27380 0.21370
N8A N 1.1497(4) 0.30165(6) 0.30242(10)
C47A C 1.0587(5) 0.31433(7) 0.26899(11)
C48A C 1.1111(5) 0.37757(7) 0.28274(13)
C49A C 1.2555(5) 0.31606(8) 0.33742(12)
C50A C 1.1956(5) 0.27494(7) 0.29785(13)
H37A H 1.19010 0.36600 0.30090
H38A H 1.03880 0.38680 0.30190
H39A H 1.17910 0.38990 0.26750
H40A H 1.36770 0.32040 0.32740
H41A H 1.27520 0.30550 0.36430
H42A H 1.19440 0.33180 0.34390
H43A H 1.10620 0.26640 0.27720
H44A H 1.20350 0.26650 0.32690
H45A H 1.30830 0.27380 0.28630
Cl1 Cl 0.03920(14) 0.05151(2) 0.15016(3)
Cl2 Cl 0.87708(13) 0.26950(2) 0.07470(3)
Cl3 Cl 0.50000 0.33449(2) 0.25000
loop_
_geom_bond_atom_site_label_1
_geom_bond_atom_site_label_2
_geom_bond_site_symmetry_1
_geom_bond_site_symmetry_2
I1 C5 1_555 1_555
I2 C9 1_555 1_555
F1 C2 1_555 1_555
F2 C3 1_555 1_555
F3 C6 1_555 1_555
F4 C7 1_555 1_555
F5 C8 1_555 1_555
C1 C2 1_555 1_555
C2 C3A 1_555 1_555
C3 C1 1_555 1_555
C4 C1 1_555 1_555
C5 C4 1_555 1_555
C6 C5 1_555 1_555
C7 C6 1_555 1_555
C8 C7 1_555 1_555
C9 C4 1_555 1_555
I3 C11 1_555 1_555
I4 C15 1_555 1_555
I5 C23 1_555 1_555
I6 C27 1_555 1_555
F6 C12 1_555 1_555
F7 C13 1_555 1_555
F8 C14 1_555 1_555
F9 C17 1_555 1_555
F10 C18 1_555 1_555
F11 C20 1_555 1_555
F12 C21 1_555 1_555
F13 C24 1_555 1_555
F14 C25 1_555 1_555
F15 C26 1_555 1_555
C10 C11 1_555 1_555
C11 C12 1_555 1_555
C12 C13 1_555 1_555
C13 C14 1_555 1_555
C14 C15 1_555 1_555
C15 C10 1_555 1_555
C16 C10 1_555 1_555
C17 C16 1_555 1_555
C18 C17 1_555 1_555
C19 C18 1_555 1_555
C20 C19 1_555 1_555
C21 C16 1_555 1_555
C22 C19 1_555 1_555
C23 C22 1_555 1_555
C24 C23 1_555 1_555
C25 C24 1_555 1_555
C26 C25 1_555 1_555
C27 C22 1_555 1_555
N1 C28 1_555 1_555
N2 C29 1_555 1_555
N3 C30 1_555 1_555
C28 C29 1_555 1_555
C29 C30 1_555 1_555
C30 C28 1_555 1_555
C31 N1 1_555 1_555
C32 N1 1_555 1_555
C33 N2 1_555 1_555
C34 N2 1_555 1_555
C35 N3 1_555 1_555
C36 N3 1_555 1_555
H1 C31 1_555 1_555
H2 C31 1_555 1_555
H3 C31 1_555 1_555
H4 C32 1_555 1_555
H5 C32 1_555 1_555
H6 C32 1_555 1_555
H7 C33 1_555 1_555
H8 C33 1_555 1_555
H9 C33 1_555 1_555
H10 C34 1_555 1_555
H11 C34 1_555 1_555
H12 C34 1_555 1_555
H13 C35 1_555 1_555
H14 C35 1_555 1_555
H15 C35 1_555 1_555
H16 C36 1_555 1_555
H17 C36 1_555 1_555
H18 C36 1_555 1_555
N4 C37 1_555 1_555
N5 C38 1_555 1_555
N6 C39 1_555 1_555
C37 C38 1_555 1_555
C38 C39 1_555 1_555
C39 C37 1_555 1_555
C40 N4 1_555 1_555
C41 N4 1_555 1_555
C42 N5 1_555 1_555
C43 N5 1_555 1_555
C44 N6 1_555 1_555
C45 N6 1_555 1_555
H19 C40 1_555 1_555
H20 C40 1_555 1_555
H21 C40 1_555 1_555
H22 C41 1_555 1_555
H23 C41 1_555 1_555
H24 C41 1_555 1_555
H25 C42 1_555 1_555
H26 C42 1_555 1_555
H27 C42 1_555 1_555
H28 C43 1_555 1_555
H29 C43 1_555 1_555
H30 C43 1_555 1_555
H31 C44 1_555 1_555
H32 C44 1_555 1_555
H33 C44 1_555 1_555
H34 C45 1_555 1_555
H35 C45 1_555 1_555
H36 C45 1_555 1_555
N7 C46 1_555 1_555
N8 C47 1_555 1_555
C46 C47 1_555 1_555
C47 C47A 1_555 1_555
C48 N7 1_555 1_555
C49 N8 1_555 1_555
C50 N8 1_555 1_555
H37 C48 1_555 1_555
H38 C48 1_555 1_555
H39 C48 1_555 1_555
H40 C49 1_555 1_555
H41 C49 1_555 1_555
H42 C49 1_555 1_555
H43 C50 1_555 1_555
H44 C50 1_555 1_555
H45 C50 1_555 1_555
I1A C5A 1_555 1_555
I2A C9A 1_555 1_555
F1A C2A 1_555 1_555
F2A C3A 1_555 1_555
F3A C6A 1_555 1_555
F4A C7A 1_555 1_555
F5A C8A 1_555 1_555
C1A C2A 1_555 1_555
C2A C3 1_555 1_555
C3A C1A 1_555 1_555
C4A C1A 1_555 1_555
C5A C4A 1_555 1_555
C6A C5A 1_555 1_555
C7A C6A 1_555 1_555
C8A C7A 1_555 1_555
C9A C4A 1_555 1_555
N8A C47A 1_555 1_555
C47A C46 1_555 1_555
C48A N7 1_555 1_555
C49A N8A 1_555 1_555
C50A N8A 1_555 1_555
H37A C48A 1_555 1_555
H38A C48A 1_555 1_555
H39A C48A 1_555 1_555
H40A C49A 1_555 1_555
H41A C49A 1_555 1_555
H42A C49A 1_555 1_555
H43A C50A 1_555 1_555
H44A C50A 1_555 1_555
H45A C50A 1_555 1_555
C8 C9 1_555 1_555
C20 C21 1_555 1_555
C26 C27 1_555 1_555
C8A C9A 1_555 1_555

#END
