
#######################################################################
#
#                 Cambridge Crystallographic Data Centre
#                                CCDC 
#
#######################################################################
#
# If this CIF has been generated from an entry in the Cambridge 
# Structural Database, then it will include bibliographic, chemical, 
# crystal, experimental, refinement or atomic coordinate data resulting 
# from the CCDC's data processing and validation procedures.
#
#######################################################################

data_SESLUY
_chemical_formula_moiety         'C16 H14 Cl1 N1 O1'
_chemical_name_systematic        
1-(3-Chloro-10,11-dihydrodibenzo(b,f)azepin-5-yl)ethanone
_symmetry_cell_setting           orthorhombic
_symmetry_space_group_name_H-M   'P 21 21 21'
_symmetry_Int_Tables_number      19
_space_group_name_Hall           'P 2ac 2ab'
loop_
_symmetry_equiv_pos_site_id
_symmetry_equiv_pos_as_xyz
1 x,y,z
2 1/2-x,-y,1/2+z
3 -x,1/2+y,1/2-z
4 1/2+x,1/2-y,-z
_cell_length_a                   7.1885(7)
_cell_length_b                   9.1504(9)
_cell_length_c                   20.251(2)
_cell_angle_alpha                90
_cell_angle_beta                 90
_cell_angle_gamma                90
_cell_volume                     1332.06
_exptl_crystal_colour            colorless
_exptl_crystal_description       block
_chemical_melting_point          '397-398 K'
_cell_formula_units_Z            4
_exptl_crystal_recrystallization_method 'ethyl acetate/toluene'
loop_
_atom_site_label
_atom_site_type_symbol
_atom_site_fract_x
_atom_site_fract_y
_atom_site_fract_z
Cl1 Cl 0.19973(17) 0.57825(12) 1.17161(4)
O1 O 0.4371(4) 0.3169(3) 0.97070(12)
N1 N 0.1870(4) 0.4356(3) 0.92857(12)
C1 C 0.2025(5) 0.5542(3) 0.97462(14)
C2 C 0.1954(5) 0.5181(4) 1.04134(16)
H1 H 0.1842 0.4210 1.0543
C3 C 0.2050(5) 0.6263(4) 1.08777(15)
C4 C 0.2142(5) 0.7710(4) 1.07002(18)
H2 H 0.2181 0.8440 1.1019
C5 C 0.2175(5) 0.8049(4) 1.00431(17)
H3 H 0.2211 0.9029 0.9921
C6 C 0.2158(5) 0.6993(3) 0.95468(15)
C7 C 0.2266(5) 0.7537(4) 0.88402(16)
H4 H 0.3318 0.8197 0.8808
H5 H 0.1155 0.8106 0.8752
C8 C 0.2455(5) 0.6403(4) 0.82969(16)
H6 H 0.2612 0.6890 0.7875
H7 H 0.3549 0.5808 0.8377
C9 C 0.0770(5) 0.5446(4) 0.82722(16)
C10 C -0.0585(5) 0.5563(4) 0.77877(16)
H8 H -0.0413 0.6216 0.7441
C11 C -0.2173(6) 0.4734(4) 0.78097(17)
H9 H -0.3054 0.4812 0.7475
C12 C -0.2460(5) 0.3790(4) 0.83264(18)
H10 H -0.3544 0.3236 0.8343
C13 C -0.1150(5) 0.3658(4) 0.88230(17)
H11 H -0.1352 0.3029 0.9177
C14 C 0.0450(5) 0.4466(4) 0.87853(15)
C15 C 0.3087(5) 0.3203(4) 0.93209(16)
C16 C 0.2753(7) 0.1976(4) 0.8838(2)
H12 H 0.3780 0.1306 0.8852
H13 H 0.2637 0.2369 0.8400
H14 H 0.1628 0.1471 0.8953
loop_
_geom_bond_atom_site_label_1
_geom_bond_atom_site_label_2
_geom_bond_site_symmetry_1
_geom_bond_site_symmetry_2
Cl1 C3 1_555 1_555
O1 C15 1_555 1_555
N1 C1 1_555 1_555
C1 C2 1_555 1_555
C2 H1 1_555 1_555
C3 C2 1_555 1_555
C4 C3 1_555 1_555
H2 C4 1_555 1_555
C5 C4 1_555 1_555
H3 C5 1_555 1_555
C6 C1 1_555 1_555
C7 C6 1_555 1_555
H4 C7 1_555 1_555
H5 C7 1_555 1_555
C8 C7 1_555 1_555
H6 C8 1_555 1_555
H7 C8 1_555 1_555
C9 C8 1_555 1_555
C10 C9 1_555 1_555
H8 C10 1_555 1_555
C11 C10 1_555 1_555
H9 C11 1_555 1_555
C12 C11 1_555 1_555
H10 C12 1_555 1_555
C13 C12 1_555 1_555
H11 C13 1_555 1_555
C14 N1 1_555 1_555
C15 N1 1_555 1_555
C16 C15 1_555 1_555
H12 C16 1_555 1_555
H13 C16 1_555 1_555
H14 C16 1_555 1_555
C5 C6 1_555 1_555
C9 C14 1_555 1_555
C13 C14 1_555 1_555

#END
