
#######################################################################
#
#                 Cambridge Crystallographic Data Centre
#                                CCDC 
#
#######################################################################
#
# If this CIF has been generated from an entry in the Cambridge 
# Structural Database, then it will include bibliographic, chemical, 
# crystal, experimental, refinement or atomic coordinate data resulting 
# from the CCDC's data processing and validation procedures.
#
#######################################################################

data_SESQUF
_chemical_formula_moiety         'C16 H13 N3 O1'
_chemical_name_systematic        
2-methyl-3-phenyl-5-[(pyridin-4-yl)methylidene]-3,5-dihydro-4H-imidazol-4-one
_symmetry_cell_setting           monoclinic
_symmetry_space_group_name_H-M   'P 21/n'
_symmetry_Int_Tables_number      14
_space_group_name_Hall           '-P 2yn'
loop_
_symmetry_equiv_pos_site_id
_symmetry_equiv_pos_as_xyz
1 x,y,z
2 1/2-x,1/2+y,1/2-z
3 -x,-y,-z
4 1/2+x,1/2-y,1/2+z
_cell_length_a                   7.0210(2)
_cell_length_b                   18.6313(7)
_cell_length_c                   10.2723(4)
_cell_angle_alpha                90
_cell_angle_beta                 96.7837(13)
_cell_angle_gamma                90
_cell_volume                     1334.32
_exptl_crystal_colour            yellow
_exptl_crystal_description       parallelepiped
_cell_formula_units_Z            4
loop_
_atom_site_label
_atom_site_type_symbol
_atom_site_fract_x
_atom_site_fract_y
_atom_site_fract_z
O1 O 0.2055(3) 0.20735(8) 1.15729(15)
N1 N 0.2637(2) 0.10038(8) 0.88078(16)
N2 N 0.2438(2) 0.21717(9) 0.93659(16)
N3 N 0.2605(3) -0.17620(10) 1.0489(2)
C1 C 0.2395(3) 0.10401(10) 1.01389(19)
C2 C 0.2255(3) 0.18086(11) 1.05211(19)
C3 C 0.2662(3) 0.16605(10) 0.84056(19)
C4 C 0.2285(3) 0.05071(10) 1.09974(19)
H1 H 0.2100 0.0648 1.1842
C5 C 0.2416(3) -0.02654(10) 1.07950(19)
C6 C 0.2724(3) -0.05728(11) 0.9609(2)
H2 H 0.2871 -0.0286 0.8887
C7 C 0.2808(3) -0.13109(11) 0.9514(2)
H3 H 0.3022 -0.1506 0.8711
C8 C 0.2318(4) -0.14629(12) 1.1629(3)
H4 H 0.2178 -0.1765 1.2333
C9 C 0.2217(3) -0.07318(12) 1.1825(2)
H5 H 0.2017 -0.0552 1.2643
C10 C 0.2418(3) 0.29369(10) 0.92326(18)
C11 C 0.0704(4) 0.32991(12) 0.9228(2)
H6 H -0.0429 0.3050 0.9293
C12 C 0.0703(5) 0.40403(13) 0.9127(3)
H7 H -0.0441 0.4292 0.9134
C13 C 0.2366(5) 0.44073(13) 0.9016(3)
H8 H 0.2347 0.4905 0.8941
C14 C 0.4060(4) 0.40408(13) 0.9016(3)
H9 H 0.5186 0.4292 0.8942
C15 C 0.4112(4) 0.32982(12) 0.9127(2)
H10 H 0.5261 0.3050 0.9129
C16 C 0.2843(4) 0.18802(13) 0.7042(2)
H11 H 0.2827 0.2394 0.6984
H12 H 0.4029 0.1702 0.6790
H13 H 0.1791 0.1687 0.6466
loop_
_geom_bond_atom_site_label_1
_geom_bond_atom_site_label_2
_geom_bond_site_symmetry_1
_geom_bond_site_symmetry_2
O1 C2 1_555 1_555
N1 C1 1_555 1_555
N2 C2 1_555 1_555
N3 C7 1_555 1_555
C1 C2 1_555 1_555
C3 N1 1_555 1_555
C4 C1 1_555 1_555
H1 C4 1_555 1_555
C5 C4 1_555 1_555
C6 C5 1_555 1_555
H2 C6 1_555 1_555
C7 C6 1_555 1_555
H3 C7 1_555 1_555
C8 N3 1_555 1_555
H4 C8 1_555 1_555
C9 C5 1_555 1_555
H5 C9 1_555 1_555
C10 N2 1_555 1_555
C11 C10 1_555 1_555
H6 C11 1_555 1_555
C12 C11 1_555 1_555
H7 C12 1_555 1_555
C13 C12 1_555 1_555
H8 C13 1_555 1_555
C14 C13 1_555 1_555
H9 C14 1_555 1_555
C15 C10 1_555 1_555
H10 C15 1_555 1_555
C16 C3 1_555 1_555
H11 C16 1_555 1_555
H12 C16 1_555 1_555
H13 C16 1_555 1_555
N2 C3 1_555 1_555
C8 C9 1_555 1_555
C14 C15 1_555 1_555

#END
