
#######################################################################
#
#                 Cambridge Crystallographic Data Centre
#                                CCDC 
#
#######################################################################
#
# If this CIF has been generated from an entry in the Cambridge 
# Structural Database, then it will include bibliographic, chemical, 
# crystal, experimental, refinement or atomic coordinate data resulting 
# from the CCDC's data processing and validation procedures.
#
#######################################################################

data_SETBUR
_chemical_formula_moiety         'C30 H20'
_chemical_name_systematic        
5-(diphenylpropadienylidene)-5H-dibenzo[a,d][7]annulene
_symmetry_cell_setting           monoclinic
_symmetry_space_group_name_H-M   'P 21/n'
_symmetry_Int_Tables_number      14
_space_group_name_Hall           '-P 2yn'
loop_
_symmetry_equiv_pos_site_id
_symmetry_equiv_pos_as_xyz
1 x,y,z
2 1/2-x,1/2+y,1/2-z
3 -x,-y,-z
4 1/2+x,1/2-y,1/2+z
_cell_length_a                   14.7030(17)
_cell_length_b                   8.1421(10)
_cell_length_c                   17.264(2)
_cell_angle_alpha                90
_cell_angle_beta                 101.638(2)
_cell_angle_gamma                90
_cell_volume                     2024.24
_exptl_crystal_colour            yellow
_exptl_crystal_description       'irregular block'
_cell_formula_units_Z            4
loop_
_atom_site_label
_atom_site_type_symbol
_atom_site_fract_x
_atom_site_fract_y
_atom_site_fract_z
C1 C 0.63482(9) 0.71854(16) 0.37897(8)
C2 C 0.57678(9) 0.69587(16) 0.29900(8)
C3 C 0.59377(9) 0.77710(16) 0.23131(8)
C4 C 0.66872(9) 0.89497(16) 0.23157(8)
H1 H 0.657207 0.975229 0.190827
C5 C 0.75134(9) 0.90619(17) 0.28099(8)
H2 H 0.789869 0.993619 0.270428
C6 C 0.79069(9) 0.80336(16) 0.34875(8)
C7 C 0.73775(9) 0.71392(16) 0.39382(8)
C8 C 0.49950(9) 0.59214(16) 0.29139(8)
H3 H 0.487418 0.537933 0.336991
C9 C 0.44032(9) 0.56646(17) 0.21938(8)
H4 H 0.388573 0.494951 0.215758
C10 C 0.45685(9) 0.64569(17) 0.15233(8)
H5 H 0.416754 0.628611 0.102494
C11 C 0.53248(9) 0.74987(17) 0.15897(8)
H6 H 0.543189 0.804650 0.113050
C12 C 0.88788(9) 0.79956(18) 0.37148(8)
H7 H 0.924086 0.861993 0.342366
C13 C 0.93217(10) 0.70721(19) 0.43520(9)
H8 H 0.998050 0.706086 0.449390
C14 C 0.87998(10) 0.61628(18) 0.47825(8)
H9 H 0.909933 0.551202 0.521630
C15 C 0.78416(9) 0.62065(17) 0.45784(8)
H10 H 0.748908 0.558800 0.488007
C16 C 0.59275(9) 0.72617(17) 0.44110(8)
C17 C 0.55323(9) 0.74456(17) 0.49820(8)
C18 C 0.51060(9) 0.77550(16) 0.55867(8)
C19 C 0.56804(9) 0.79902(16) 0.63892(8)
C20 C 0.65709(9) 0.73093(17) 0.65837(8)
H11 H 0.678654 0.663664 0.620861
C21 C 0.71438(10) 0.75953(18) 0.73105(9)
H12 H 0.774795 0.712766 0.742900
C22 C 0.68367(10) 0.85650(18) 0.78668(8)
H13 H 0.722733 0.875950 0.836778
C23 C 0.59592(10) 0.92452(18) 0.76870(8)
H14 H 0.574618 0.990461 0.806818
C24 C 0.53856(9) 0.89762(17) 0.69562(8)
H15 H 0.478691 0.946524 0.683887
C25 C 0.40829(9) 0.80110(16) 0.54121(8)
C26 C 0.35293(9) 0.76561(17) 0.59591(8)
H16 H 0.380094 0.718030 0.645424
C27 C 0.25854(9) 0.79935(18) 0.57847(8)
H17 H 0.221617 0.774645 0.616221
C28 C 0.21747(10) 0.86868(18) 0.50661(9)
H18 H 0.153096 0.894147 0.495536
C29 C 0.27143(10) 0.90049(18) 0.45101(8)
H19 H 0.243714 0.945834 0.401119
C30 C 0.36541(9) 0.86633(17) 0.46808(8)
H20 H 0.401558 0.887592 0.429369
loop_
_geom_bond_atom_site_label_1
_geom_bond_atom_site_label_2
_geom_bond_site_symmetry_1
_geom_bond_site_symmetry_2
C1 C2 1_555 1_555
C2 C3 1_555 1_555
C3 C4 1_555 1_555
C4 H1 1_555 1_555
C5 C4 1_555 1_555
H2 C5 1_555 1_555
C6 C5 1_555 1_555
C7 C1 1_555 1_555
C8 C2 1_555 1_555
H3 C8 1_555 1_555
C9 C8 1_555 1_555
H4 C9 1_555 1_555
C10 C9 1_555 1_555
H5 C10 1_555 1_555
C11 C3 1_555 1_555
H6 C11 1_555 1_555
C12 C6 1_555 1_555
H7 C12 1_555 1_555
C13 C12 1_555 1_555
H8 C13 1_555 1_555
C14 C13 1_555 1_555
H9 C14 1_555 1_555
C15 C7 1_555 1_555
H10 C15 1_555 1_555
C16 C1 1_555 1_555
C17 C16 1_555 1_555
C18 C17 1_555 1_555
C19 C18 1_555 1_555
C20 C19 1_555 1_555
H11 C20 1_555 1_555
C21 C20 1_555 1_555
H12 C21 1_555 1_555
C22 C21 1_555 1_555
H13 C22 1_555 1_555
C23 C22 1_555 1_555
H14 C23 1_555 1_555
C24 C19 1_555 1_555
H15 C24 1_555 1_555
C25 C18 1_555 1_555
C26 C25 1_555 1_555
H16 C26 1_555 1_555
C27 C26 1_555 1_555
H17 C27 1_555 1_555
C28 C27 1_555 1_555
H18 C28 1_555 1_555
C29 C28 1_555 1_555
H19 C29 1_555 1_555
C30 C25 1_555 1_555
H20 C30 1_555 1_555
C6 C7 1_555 1_555
C10 C11 1_555 1_555
C14 C15 1_555 1_555
C23 C24 1_555 1_555
C29 C30 1_555 1_555

#END
