
#######################################################################
#
#                 Cambridge Crystallographic Data Centre
#                                CCDC 
#
#######################################################################
#
# If this CIF has been generated from an entry in the Cambridge 
# Structural Database, then it will include bibliographic, chemical, 
# crystal, experimental, refinement or atomic coordinate data resulting 
# from the CCDC's data processing and validation procedures.
#
#######################################################################

data_SETFOP
_chemical_formula_moiety         'C7 H3 N2 O6 1-,C6 H6 N3 1+'
_chemical_name_systematic        '1H-benzotriazol-3-ium 3,5-dinitrobenzoate'
_symmetry_cell_setting           monoclinic
_symmetry_space_group_name_H-M   'P 21/n'
_symmetry_Int_Tables_number      14
_space_group_name_Hall           '-P 2yn'
loop_
_symmetry_equiv_pos_site_id
_symmetry_equiv_pos_as_xyz
1 x,y,z
2 1/2-x,1/2+y,1/2-z
3 -x,-y,-z
4 1/2+x,1/2-y,1/2+z
_cell_length_a                   8.9777(3)
_cell_length_b                   6.54570(17)
_cell_length_c                   24.8887(8)
_cell_angle_alpha                90
_cell_angle_beta                 93.077(3)
_cell_angle_gamma                90
_cell_volume                     1460.48
_exptl_crystal_colour            yellow
_exptl_crystal_description       block
_cell_formula_units_Z            4
loop_
_atom_site_label
_atom_site_type_symbol
_atom_site_fract_x
_atom_site_fract_y
_atom_site_fract_z
O1 O 0.59895(16) 1.08558(19) 0.06774(6)
C1 C 0.80710(18) 0.6130(2) 0.07107(7)
H1 H 0.8505 0.6211 0.0380
O2 O 0.73558(17) 0.9372(2) 0.00596(6)
N1 N 0.93439(18) 0.2863(2) 0.08697(7)
C2 C 0.71310(18) 0.7668(2) 0.08785(7)
C3 C 0.83391(18) 0.4492(2) 0.10458(7)
C4 C 0.77232(19) 0.4280(3) 0.15351(7)
H2 H 0.7911 0.3139 0.1751
C5 C 0.6762(2) 0.9478(3) 0.05286(8)
C6 C 0.6811(2) 0.5846(3) 0.16907(7)
O3 O 0.94767(18) 0.1341(2) 0.11515(7)
N2 N 0.6127(2) 0.5693(4) 0.22152(7)
O4 O 0.9975(2) 0.3120(3) 0.04615(7)
C7 C 0.65086(19) 0.7538(3) 0.13745(7)
H3 H 0.5897 0.8575 0.1492
O5 O 0.5359(2) 0.7099(3) 0.23508(7)
O6 O 0.6364(3) 0.4165(4) 0.24815(8)
N3 N 0.58584(17) 0.5582(2) 0.93823(6)
H4 H 0.5318 0.6615 0.9460
N4 N 0.69090(18) 0.2678(2) 0.94461(6)
H5 H 0.7185 0.1495 0.9564
N5 N 0.60272(19) 0.3913(2) 0.96848(6)
C8 C 0.73314(18) 0.3542(3) 0.89794(7)
C9 C 0.66493(19) 0.5439(3) 0.89371(7)
C10 C 0.8264(2) 0.2853(4) 0.85841(8)
H6 H 0.8729 0.1585 0.8608
C11 C 0.6854(2) 0.6747(3) 0.85032(9)
H7 H 0.6397 0.8020 0.8475
C12 C 0.8454(2) 0.4134(4) 0.81621(9)
H8 H 0.9062 0.3723 0.7891
C13 C 0.7766(3) 0.6042(4) 0.81228(10)
H9 H 0.7934 0.6863 0.7827
loop_
_geom_bond_atom_site_label_1
_geom_bond_atom_site_label_2
_geom_bond_site_symmetry_1
_geom_bond_site_symmetry_2
O1 C5 1_555 1_555
C1 H1 1_555 1_555
O2 C5 1_555 1_555
N1 C3 1_555 1_555
C2 C1 1_555 1_555
C3 C1 1_555 1_555
C4 C3 1_555 1_555
H2 C4 1_555 1_555
C5 C2 1_555 1_555
C6 C4 1_555 1_555
O3 N1 1_555 1_555
N2 C6 1_555 1_555
O4 N1 1_555 1_555
C7 C2 1_555 1_555
H3 C7 1_555 1_555
O5 N2 1_555 1_555
O6 N2 1_555 1_555
N3 H4 1_555 1_555
N4 H5 1_555 1_555
N5 N3 1_555 1_555
C8 N4 1_555 1_555
C9 N3 1_555 1_555
C10 C8 1_555 1_555
H6 C10 1_555 1_555
C11 C9 1_555 1_555
H7 C11 1_555 1_555
C12 C10 1_555 1_555
H8 C12 1_555 1_555
C13 C11 1_555 1_555
H9 C13 1_555 1_555
C6 C7 1_555 1_555
N4 N5 1_555 1_555
C8 C9 1_555 1_555
C12 C13 1_555 1_555

#END
