
#######################################################################
#
#                 Cambridge Crystallographic Data Centre
#                                CCDC 
#
#######################################################################
#
# If this CIF has been generated from an entry in the Cambridge 
# Structural Database, then it will include bibliographic, chemical, 
# crystal, experimental, refinement or atomic coordinate data resulting 
# from the CCDC's data processing and validation procedures.
#
#######################################################################

data_SETYEW
_chemical_formula_moiety         'C31 H47 Br1 O9'
_chemical_name_systematic        
Spiro(1-bromo-4-l-menthyloxy-5-oxo-6-oxabicyclo(3.1.0)hexane-2,2',3'-(16''-methoxyacetyl-4'-l-menthyloxybutyrolactone))
_symmetry_cell_setting           orthorhombic
_symmetry_space_group_name_H-M   'P 21 21 21'
_symmetry_Int_Tables_number      19
_space_group_name_Hall           'P 2ac 2ab'
loop_
_symmetry_equiv_pos_site_id
_symmetry_equiv_pos_as_xyz
1 x,y,z
2 1/2-x,-y,1/2+z
3 -x,1/2+y,1/2-z
4 1/2+x,1/2-y,-z
_cell_length_a                   9.6564(7)
_cell_length_b                   14.8994(11)
_cell_length_c                   23.6771(17)
_cell_angle_alpha                90
_cell_angle_beta                 90
_cell_angle_gamma                90
_cell_volume                     3406.53
_exptl_crystal_colour            colorless
_exptl_crystal_description       block
_cell_formula_units_Z            4
loop_
_atom_site_label
_atom_site_type_symbol
_atom_site_fract_x
_atom_site_fract_y
_atom_site_fract_z
Br1 Br 0.86633(3) 0.405320(18) 0.833676(12)
O1 O 1.15285(19) 0.34009(13) 0.90076(8)
O2 O 1.06645(15) 0.32293(10) 0.98742(7)
O3 O 0.84090(14) 0.35326(9) 1.01608(6)
O4 O 0.59628(18) 0.29624(13) 0.87417(7)
O5 O 0.70699(16) 0.16468(11) 0.86963(6)
O6 O 0.84416(16) 0.10565(11) 0.79754(6)
O7 O 0.96606(16) 0.13583(9) 0.97478(6)
O8 O 0.9107(3) -0.03700(13) 0.95343(8)
O9 O 0.9243(2) -0.07072(10) 1.04383(8)
C1 C 1.0643(3) 0.31170(15) 0.93069(10)
C2 C 0.9392(2) 0.25771(13) 0.91499(9)
C3 C 0.8898(2) 0.21730(12) 0.96983(8)
H1 H 0.7893 0.2082 0.9709
C4 C 0.9397(2) 0.28673(14) 1.01220(9)
H2 H 0.9578 0.2594 1.0491
C5 C 0.8469(2) 0.29108(14) 0.86783(9)
C6 C 0.7015(3) 0.25531(17) 0.87051(9)
C7 C 0.8443(2) 0.13197(15) 0.85343(9)
H3 H 0.8747 0.0831 0.8782
C8 C 0.9379(2) 0.21218(15) 0.85863(9)
H4 H 1.0184 0.2176 0.8337
C9 C 0.9321(3) 0.08002(13) 1.02112(9)
H5 H 0.8449 0.0991 1.0376
H6 H 1.0033 0.0844 1.0499
C10 C 0.9207(3) -0.01422(16) 1.00095(11)
C11 C 0.9094(5) -0.16554(19) 1.03026(18)
H7 H 0.8174 -0.1767 1.0167
H8 H 0.9259 -0.2008 1.0635
H9 H 0.9753 -0.1817 1.0016
C12 C 0.8683(2) 0.42013(13) 1.05962(9)
H10 H 0.9682 0.4229 1.0668
C13 C 0.8192(3) 0.51043(15) 1.03768(11)
H11 H 0.7202 0.5043 1.0294
C14 C 0.8327(4) 0.58039(17) 1.08489(14)
H12 H 0.9300 0.5902 1.0929
H13 H 0.7938 0.6368 1.0720
C15 C 0.7593(4) 0.55166(19) 1.13906(13)
H14 H 0.7741 0.5967 1.1680
H15 H 0.6605 0.5475 1.1321
C16 C 0.8122(3) 0.46198(18) 1.15988(12)
H16 H 0.9113 0.4679 1.1680
C17 C 0.7943(3) 0.39291(16) 1.11331(10)
H17 H 0.8302 0.3356 1.1261
H18 H 0.6964 0.3854 1.1054
C18 C 0.8910(3) 0.53682(19) 0.98198(13)
H19 H 0.8902 0.4835 0.9578
C19 C 1.0429(4) 0.5643(3) 0.98919(19)
H20 H 1.0857 0.5694 0.9527
H21 H 1.0905 0.5197 1.0110
H22 H 1.0476 0.6210 1.0083
C20 C 0.8097(5) 0.6100(2) 0.95080(18)
H23 H 0.8056 0.6630 0.9738
H24 H 0.7175 0.5891 0.9433
H25 H 0.8551 0.6237 0.9158
C21 C 0.7384(4) 0.4328(2) 1.21417(12)
H26 H 0.7659 0.4713 1.2447
H27 H 0.7631 0.3719 1.2229
H28 H 0.6400 0.4368 1.2089
C22 C 0.7530(3) 0.03105(17) 0.78350(9)
H29 H 0.6583 0.0469 0.7946
C23 C 0.7574(3) 0.0200(2) 0.71995(10)
H30 H 0.8515 0.0005 0.7104
C24 C 0.6600(4) -0.0587(2) 0.70515(13)
H31 H 0.5660 -0.0424 0.7152
H32 H 0.6626 -0.0687 0.6647
C25 C 0.6973(4) -0.1443(2) 0.73461(14)
H33 H 0.7876 -0.1642 0.7217
H34 H 0.6304 -0.1903 0.7247
C26 C 0.7003(4) -0.1331(2) 0.79863(13)
H35 H 0.6061 -0.1188 0.8112
C27 C 0.7936(3) -0.05370(19) 0.81372(12)
H36 H 0.7892 -0.0435 0.8541
H37 H 0.8886 -0.0685 0.8042
C28 C 0.7284(4) 0.1042(3) 0.68498(13)
H38 H 0.7055 0.0821 0.6471
C29 C 0.8519(5) 0.1650(3) 0.67675(15)
H39 H 0.8317 0.2081 0.6478
H40 H 0.9308 0.1299 0.6658
H41 H 0.8717 0.1958 0.7115
C30 C 0.6021(5) 0.1558(3) 0.70407(19)
H42 H 0.6189 0.1810 0.7407
H43 H 0.5240 0.1161 0.7059
H44 H 0.5831 0.2032 0.6777
C31 C 0.7471(5) -0.2173(2) 0.8296(2)
H45 H 0.6837 -0.2654 0.8218
H46 H 0.7489 -0.2059 0.8695
H47 H 0.8381 -0.2338 0.8170
loop_
_geom_bond_atom_site_label_1
_geom_bond_atom_site_label_2
_geom_bond_site_symmetry_1
_geom_bond_site_symmetry_2
Br1 C5 1_555 1_555
O1 C1 1_555 1_555
O2 C1 1_555 1_555
O3 C4 1_555 1_555
O4 C6 1_555 1_555
O5 C6 1_555 1_555
O6 C7 1_555 1_555
O7 C3 1_555 1_555
O8 C10 1_555 1_555
O9 C10 1_555 1_555
C1 C2 1_555 1_555
C2 C3 1_555 1_555
C3 H1 1_555 1_555
C4 O2 1_555 1_555
H2 C4 1_555 1_555
C5 C2 1_555 1_555
C6 C5 1_555 1_555
C7 O5 1_555 1_555
H3 C7 1_555 1_555
C8 C2 1_555 1_555
H4 C8 1_555 1_555
C9 O7 1_555 1_555
H5 C9 1_555 1_555
H6 C9 1_555 1_555
C10 C9 1_555 1_555
C11 O9 1_555 1_555
H7 C11 1_555 1_555
H8 C11 1_555 1_555
H9 C11 1_555 1_555
C12 O3 1_555 1_555
H10 C12 1_555 1_555
C13 C12 1_555 1_555
H11 C13 1_555 1_555
C14 C13 1_555 1_555
H12 C14 1_555 1_555
H13 C14 1_555 1_555
C15 C14 1_555 1_555
H14 C15 1_555 1_555
H15 C15 1_555 1_555
C16 C15 1_555 1_555
H16 C16 1_555 1_555
C17 C12 1_555 1_555
H17 C17 1_555 1_555
H18 C17 1_555 1_555
C18 C13 1_555 1_555
H19 C18 1_555 1_555
C19 C18 1_555 1_555
H20 C19 1_555 1_555
H21 C19 1_555 1_555
H22 C19 1_555 1_555
C20 C18 1_555 1_555
H23 C20 1_555 1_555
H24 C20 1_555 1_555
H25 C20 1_555 1_555
C21 C16 1_555 1_555
H26 C21 1_555 1_555
H27 C21 1_555 1_555
H28 C21 1_555 1_555
C22 O6 1_555 1_555
H29 C22 1_555 1_555
C23 C22 1_555 1_555
H30 C23 1_555 1_555
C24 C23 1_555 1_555
H31 C24 1_555 1_555
H32 C24 1_555 1_555
C25 C24 1_555 1_555
H33 C25 1_555 1_555
H34 C25 1_555 1_555
C26 C25 1_555 1_555
H35 C26 1_555 1_555
C27 C22 1_555 1_555
H36 C27 1_555 1_555
H37 C27 1_555 1_555
C28 C23 1_555 1_555
H38 C28 1_555 1_555
C29 C28 1_555 1_555
H39 C29 1_555 1_555
H40 C29 1_555 1_555
H41 C29 1_555 1_555
C30 C28 1_555 1_555
H42 C30 1_555 1_555
H43 C30 1_555 1_555
H44 C30 1_555 1_555
C31 C26 1_555 1_555
H45 C31 1_555 1_555
H46 C31 1_555 1_555
H47 C31 1_555 1_555
C3 C4 1_555 1_555
C5 C8 1_555 1_555
C7 C8 1_555 1_555
C16 C17 1_555 1_555
C26 C27 1_555 1_555

#END
