
#######################################################################
#
#                 Cambridge Crystallographic Data Centre
#                                CCDC 
#
#######################################################################
#
# If this CIF has been generated from an entry in the Cambridge 
# Structural Database, then it will include bibliographic, chemical, 
# crystal, experimental, refinement or atomic coordinate data resulting 
# from the CCDC's data processing and validation procedures.
#
#######################################################################

data_SEVJIP
_chemical_formula_moiety         'C21 H24 Br1 O4 P1'
_chemical_name_systematic        
'diethyl ((4-bromophenyl)(1-oxo-1,2,3,4-tetrahydronaphthalen-2-yl)methyl)phosphonate'
_symmetry_cell_setting           orthorhombic
_symmetry_space_group_name_H-M   'P 21 21 21'
_symmetry_Int_Tables_number      19
_space_group_name_Hall           'P 2ac 2ab'
loop_
_symmetry_equiv_pos_site_id
_symmetry_equiv_pos_as_xyz
1 x,y,z
2 1/2-x,-y,1/2+z
3 1/2+x,1/2-y,-z
4 -x,1/2+y,1/2-z
_cell_length_a                   5.93916(15)
_cell_length_b                   15.8811(5)
_cell_length_c                   22.4230(10)
_cell_angle_alpha                90
_cell_angle_beta                 90
_cell_angle_gamma                90
_cell_volume                     2114.95
_exptl_crystal_colour            colorless
_exptl_crystal_description       prism
_cell_formula_units_Z            4
loop_
_atom_site_label
_atom_site_type_symbol
_atom_site_fract_x
_atom_site_fract_y
_atom_site_fract_z
Br1 Br 0.1099(2) 0.55449(7) 0.08683(5)
C1 C 0.4749(12) 0.7938(4) 0.3875(3)
H1 H 0.6066 0.8075 0.3673
C2 C 0.3426(14) 0.8560(4) 0.4101(4)
H2 H 0.3840 0.9120 0.4050
C3 C 0.1496(15) 0.8367(5) 0.4400(4)
H3 H 0.0607 0.8798 0.4553
C4 C 0.0843(12) 0.7537(4) 0.4478(3)
H4 H -0.0485 0.7413 0.4679
C5 C 0.2175(9) 0.6889(4) 0.4256(2)
C6 C 0.4135(9) 0.7091(3) 0.3948(2)
C7 C 0.5577(8) 0.6427(4) 0.3683(3)
C8 C 0.4878(9) 0.5512(4) 0.3764(3)
H5 H 0.5541 0.5326 0.4142
C9 C 0.2335(9) 0.5433(4) 0.3836(3)
H6 H 0.1591 0.5608 0.3472
H7 H 0.1940 0.4850 0.3912
C10 C 0.1557(10) 0.5979(4) 0.4351(3)
H8 H -0.0064 0.5931 0.4392
H9 H 0.2240 0.5779 0.4717
C11 C 0.5941(9) 0.4958(3) 0.3272(3)
H10 H 0.7469 0.5177 0.3215
C12 C 0.4797(9) 0.5043(4) 0.2672(3)
C13 C 0.5707(10) 0.5575(4) 0.2248(3)
H11 H 0.7063 0.5846 0.2327
C14 C 0.4638(13) 0.5712(5) 0.1708(3)
H12 H 0.5265 0.6072 0.1427
C15 C 0.2651(13) 0.5310(4) 0.1594(4)
C16 C 0.1720(12) 0.4752(4) 0.1992(4)
H13 H 0.0399 0.4466 0.1900
C17 C 0.2784(10) 0.4626(4) 0.2531(3)
H14 H 0.2154 0.4257 0.2806
C18 C 0.733(3) 0.2761(9) 0.2683(8)
H15 H 0.6734 0.2894 0.2291
H16 H 0.6224 0.2428 0.2896
C19 C 0.946(3) 0.2289(11) 0.2627(9)
H17 H 0.9184 0.1760 0.2435
H18 H 1.0085 0.2192 0.3016
H19 H 1.0513 0.2611 0.2393
C20 C 0.876(2) 0.3284(8) 0.4367(6)
H20 H 1.0285 0.3152 0.4247
H21 H 0.7808 0.2801 0.4285
C21 C 0.868(4) 0.3502(16) 0.5023(7)
H22 H 0.9516 0.4010 0.5092
H23 H 0.9326 0.3051 0.5250
H24 H 0.7142 0.3584 0.5143
O1 O 0.7301(7) 0.6612(3) 0.3417(2)
O2 O 0.4295(10) 0.3397(3) 0.3652(3)
O3 O 0.7817(10) 0.3520(3) 0.3005(4)
O4 O 0.7954(9) 0.4008(3) 0.4051(3)
P1 P 0.6285(3) 0.38818(10) 0.35129(10)
C22? C 0.832(9) 0.266(2) 0.3055(17)
H25? H 0.7061 0.2340 0.3214
H26? H 0.9644 0.2561 0.3299
C23? C 0.875(9) 0.246(3) 0.2399(18)
H27? H 0.8225 0.2913 0.2156
H28? H 0.7971 0.1950 0.2292
H29? H 1.0340 0.2380 0.2336
C24? C 0.752(6) 0.361(2) 0.4637(18)
H30? H 0.6391 0.3169 0.4609
H31? H 0.7061 0.4020 0.4934
C25? C 0.988(8) 0.326(4) 0.476(3)
H32? H 0.9913 0.2816 0.4499
H33? H 1.0890 0.3042 0.5065
H34? H 1.0342 0.3811 0.4706
loop_
_geom_bond_atom_site_label_1
_geom_bond_atom_site_label_2
_geom_bond_site_symmetry_1
_geom_bond_site_symmetry_2
Br1 C15 1_555 1_555
C1 H1 1_555 1_555
C2 C1 1_555 1_555
H2 C2 1_555 1_555
C3 C2 1_555 1_555
H3 C3 1_555 1_555
C4 C3 1_555 1_555
H4 C4 1_555 1_555
C5 C4 1_555 1_555
C6 C1 1_555 1_555
C7 C6 1_555 1_555
C8 C7 1_555 1_555
H5 C8 1_555 1_555
C9 C8 1_555 1_555
H6 C9 1_555 1_555
H7 C9 1_555 1_555
C10 C5 1_555 1_555
H8 C10 1_555 1_555
H9 C10 1_555 1_555
C11 C8 1_555 1_555
H10 C11 1_555 1_555
C12 C11 1_555 1_555
C13 C12 1_555 1_555
H11 C13 1_555 1_555
C14 C13 1_555 1_555
H12 C14 1_555 1_555
C15 C14 1_555 1_555
C16 C15 1_555 1_555
H13 C16 1_555 1_555
C17 C12 1_555 1_555
H14 C17 1_555 1_555
C18 H15 1_555 1_555
H16 C18 1_555 1_555
C19 C18 1_555 1_555
H17 C19 1_555 1_555
H18 C19 1_555 1_555
H19 C19 1_555 1_555
C20 H20 1_555 1_555
H21 C20 1_555 1_555
C21 C20 1_555 1_555
H22 C21 1_555 1_555
H23 C21 1_555 1_555
H24 C21 1_555 1_555
O1 C7 1_555 1_555
O2 P1 1_555 1_555
O3 C18 1_555 1_555
O4 C20 1_555 1_555
P1 C11 1_555 1_555
C5 C6 1_555 1_555
C9 C10 1_555 1_555
C16 C17 1_555 1_555
O3 P1 1_555 1_555
O4 P1 1_555 1_555

#END
