
#######################################################################
#
#                 Cambridge Crystallographic Data Centre
#                                CCDC 
#
#######################################################################
#
# If this CIF has been generated from an entry in the Cambridge 
# Structural Database, then it will include bibliographic, chemical, 
# crystal, experimental, refinement or atomic coordinate data resulting 
# from the CCDC's data processing and validation procedures.
#
#######################################################################

data_SEWFOR
_chemical_formula_moiety         'C18 H36 B1 Br1 N2 O2'
_chemical_name_systematic        
1,1'-((Bromoboranediyl)bis(oxy))bis(2,2,6,6-tetramethylpiperidine)
_symmetry_cell_setting           monoclinic
_symmetry_space_group_name_H-M   'P 21/c'
_symmetry_Int_Tables_number      14
_space_group_name_Hall           '-P 2ybc'
loop_
_symmetry_equiv_pos_site_id
_symmetry_equiv_pos_as_xyz
1 x,y,z
2 -x,1/2+y,1/2-z
3 -x,-y,-z
4 x,1/2-y,1/2+z
_cell_length_a                   13.7852(11)
_cell_length_b                   9.7314(7)
_cell_length_c                   15.6938(13)
_cell_angle_alpha                90
_cell_angle_beta                 93.310(2)
_cell_angle_gamma                90
_cell_volume                     2101.8
_exptl_crystal_colour            colorless
_exptl_crystal_description       needle
_cell_formula_units_Z            4
loop_
_atom_site_label
_atom_site_type_symbol
_atom_site_fract_x
_atom_site_fract_y
_atom_site_fract_z
Br1 Br 0.58015(3) -0.13954(4) 0.94788(4)
O1 O 0.74063(15) -0.1876(2) 0.85630(15)
O2 O 0.71407(15) 0.0520(2) 0.87454(14)
N1 N 0.65366(19) 0.1595(2) 0.91180(18)
C1 C 0.6193(3) 0.4447(3) 0.9402(3)
H1 H 0.5802 0.5184 0.9649
H2 H 0.6730 0.4879 0.9107
C2 C 0.6597(3) 0.3509(4) 1.0099(3)
H3 H 0.6053 0.3141 1.0415
H4 H 0.7019 0.4051 1.0505
C3 C 0.7187(2) 0.2299(3) 0.9768(2)
B1 B 0.6899(3) -0.0803(4) 0.8860(3)
N2 N 0.8260(2) -0.1516(3) 0.80935(19)
C4 C 0.9107(2) -0.2096(4) 0.8595(3)
C5 C 0.9996(3) -0.1813(4) 0.8086(4)
H5 H 1.0123 -0.0812 0.8086
H6 H 1.0568 -0.2270 0.8371
C6 C 0.9878(5) -0.2306(5) 0.7179(4)
H7 H 0.9832 -0.3321 0.7170
H8 H 1.0453 -0.2035 0.6869
C7 C 0.9045(3) -0.3629(4) 0.8821(3)
H9 H 0.8411 -0.3825 0.9045
H10 H 0.9561 -0.3858 0.9254
H11 H 0.9126 -0.4183 0.8308
C8 C 0.8167(3) 0.2793(4) 0.9466(3)
H12 H 0.8476 0.2047 0.9162
H13 H 0.8588 0.3068 0.9961
H14 H 0.8062 0.3581 0.9082
C9 C 0.5567(3) 0.3613(4) 0.8779(3)
H15 H 0.5312 0.4222 0.8313
H16 H 0.5005 0.3252 0.9074
C10 C 0.6103(3) 0.2400(4) 0.8387(2)
C11 C 0.5351(4) 0.1467(5) 0.7929(3)
H17 H 0.5683 0.0709 0.7655
H18 H 0.4973 0.1996 0.7496
H19 H 0.4916 0.1095 0.8344
C12 C 0.6816(4) 0.2916(5) 0.7738(3)
H20 H 0.7199 0.3680 0.7987
H21 H 0.6451 0.3229 0.7220
H22 H 0.7253 0.2166 0.7594
C13 C 0.7378(3) 0.1281(5) 1.0495(3)
H23 H 0.6760 0.0900 1.0664
H24 H 0.7705 0.1753 1.0983
H25 H 0.7793 0.0536 1.0306
C14 C 0.8045(4) -0.1994(4) 0.7201(3)
C15 C 0.8974(6) -0.1695(5) 0.6744(3)
H26 H 0.8898 -0.2059 0.6155
H27 H 0.9059 -0.0687 0.6705
C16 C 0.7206(5) -0.1112(5) 0.6833(3)
H28 H 0.6621 -0.1307 0.7138
H29 H 0.7084 -0.1324 0.6226
H30 H 0.7375 -0.0138 0.6899
C17 C 0.9203(3) -0.1279(5) 0.9422(3)
H31 H 0.9196 -0.0294 0.9291
H32 H 0.9816 -0.1516 0.9734
H33 H 0.8659 -0.1499 0.9773
C18 C 0.7737(4) -0.3512(4) 0.7103(3)
H34 H 0.8311 -0.4103 0.7188
H35 H 0.7436 -0.3662 0.6530
H36 H 0.7270 -0.3736 0.7530
loop_
_geom_bond_atom_site_label_1
_geom_bond_atom_site_label_2
_geom_bond_site_symmetry_1
_geom_bond_site_symmetry_2
Br1 B1 1_555 1_555
O1 B1 1_555 1_555
O2 N1 1_555 1_555
N1 C3 1_555 1_555
C1 H1 1_555 1_555
H2 C1 1_555 1_555
C2 C1 1_555 1_555
H3 C2 1_555 1_555
H4 C2 1_555 1_555
C3 C2 1_555 1_555
B1 O2 1_555 1_555
N2 O1 1_555 1_555
C4 N2 1_555 1_555
C5 C4 1_555 1_555
H5 C5 1_555 1_555
H6 C5 1_555 1_555
C6 C5 1_555 1_555
H7 C6 1_555 1_555
H8 C6 1_555 1_555
C7 C4 1_555 1_555
H9 C7 1_555 1_555
H10 C7 1_555 1_555
H11 C7 1_555 1_555
C8 C3 1_555 1_555
H12 C8 1_555 1_555
H13 C8 1_555 1_555
H14 C8 1_555 1_555
C9 C1 1_555 1_555
H15 C9 1_555 1_555
H16 C9 1_555 1_555
C10 N1 1_555 1_555
C11 C10 1_555 1_555
H17 C11 1_555 1_555
H18 C11 1_555 1_555
H19 C11 1_555 1_555
C12 C10 1_555 1_555
H20 C12 1_555 1_555
H21 C12 1_555 1_555
H22 C12 1_555 1_555
C13 C3 1_555 1_555
H23 C13 1_555 1_555
H24 C13 1_555 1_555
H25 C13 1_555 1_555
C14 N2 1_555 1_555
C15 C6 1_555 1_555
H26 C15 1_555 1_555
H27 C15 1_555 1_555
C16 C14 1_555 1_555
H28 C16 1_555 1_555
H29 C16 1_555 1_555
H30 C16 1_555 1_555
C17 C4 1_555 1_555
H31 C17 1_555 1_555
H32 C17 1_555 1_555
H33 C17 1_555 1_555
C18 C14 1_555 1_555
H34 C18 1_555 1_555
H35 C18 1_555 1_555
H36 C18 1_555 1_555
C9 C10 1_555 1_555
C14 C15 1_555 1_555

#END
