
#######################################################################
#
#                 Cambridge Crystallographic Data Centre
#                                CCDC 
#
#######################################################################
#
# If this CIF has been generated from an entry in the Cambridge 
# Structural Database, then it will include bibliographic, chemical, 
# crystal, experimental, refinement or atomic coordinate data resulting 
# from the CCDC's data processing and validation procedures.
#
#######################################################################

data_SEWRIW
_chemical_formula_moiety         'C18 H20 N2 O6'
_chemical_name_systematic        N,N'-bis(2-Hydroxy-3-methoxybenzyl)oxalamide
_symmetry_cell_setting           monoclinic
_symmetry_space_group_name_H-M   'P 21/c'
_symmetry_Int_Tables_number      14
_space_group_name_Hall           '-P 2ybc'
loop_
_symmetry_equiv_pos_site_id
_symmetry_equiv_pos_as_xyz
1 x,y,z
2 -x,1/2+y,1/2-z
3 -x,-y,-z
4 x,1/2-y,1/2+z
_cell_length_a                   10.6209(13)
_cell_length_b                   5.2855(6)
_cell_length_c                   15.4268(19)
_cell_angle_alpha                90
_cell_angle_beta                 106.689(2)
_cell_angle_gamma                90
_cell_volume                     829.532
_exptl_crystal_colour            light-brown
_exptl_crystal_description       block
_chemical_melting_point          219deg.C
_cell_formula_units_Z            2
_exptl_crystal_recrystallization_method chloroform
loop_
_atom_site_label
_atom_site_type_symbol
_atom_site_fract_x
_atom_site_fract_y
_atom_site_fract_z
C1 C 0.95976(16) 0.5614(3) 0.52878(10)
C2 C 0.90573(18) 0.5181(3) 0.67180(12)
H1 H 0.8636 0.6802 0.6537
H2 H 0.9737 0.5426 0.7285
C3 C 0.80510(16) 0.3344(3) 0.68688(11)
C4 C 0.78123(16) 0.3310(3) 0.77068(11)
C5 C 0.69338(16) 0.1573(3) 0.78954(11)
C6 C 0.62666(18) -0.0081(4) 0.72333(13)
H3 H 0.5675 -0.1234 0.7351
C7 C 0.64835(19) -0.0014(4) 0.63883(13)
H4 H 0.6021 -0.1108 0.5936
C8 C 0.73737(18) 0.1648(4) 0.62115(12)
H5 H 0.7524 0.1638 0.5647
C9 C 0.6067(2) -0.0220(4) 0.90277(14)
H6 H 0.5168 -0.0111 0.8664
H7 H 0.6111 0.0005 0.9653
H8 H 0.6416 -0.1849 0.8946
N1 N 0.96644(15) 0.4350(3) 0.60373(9)
H9 H 1.0094 0.2949 0.6127
O1 O 0.89725(13) 0.7569(3) 0.50461(8)
O2 O 0.84766(13) 0.4990(2) 0.83472(8)
H10 H 0.8314 0.4703 0.8826
O3 O 0.68235(13) 0.1717(3) 0.87584(8)
C1B C 1.04024(16) 0.4386(3) 0.47122(10)
C2B C 1.09427(18) 0.4819(3) 0.32820(12)
H1B H 1.1364 0.3198 0.3463
H2B H 1.0263 0.4574 0.2715
C3B C 1.19490(16) 0.6656(3) 0.31312(11)
C4B C 1.21877(16) 0.6690(3) 0.22932(11)
C5B C 1.30662(16) 0.8427(3) 0.21046(11)
C6B C 1.37334(18) 1.0081(4) 0.27667(13)
H3B H 1.4325 1.1234 0.2649
C7B C 1.35165(19) 1.0014(4) 0.36117(13)
H4B H 1.3979 1.1108 0.4064
C8B C 1.26263(18) 0.8352(4) 0.37885(12)
H5B H 1.2476 0.8362 0.4353
C9B C 1.3933(2) 1.0220(4) 0.09723(14)
H6B H 1.4832 1.0111 0.1336
H7B H 1.3889 0.9995 0.0347
H8B H 1.3584 1.1849 0.1054
N1B N 1.03356(15) 0.5650(3) 0.39627(9)
H9B H 0.9906 0.7051 0.3873
O1B O 1.10275(13) 0.2431(3) 0.49539(8)
O2B O 1.15234(13) 0.5010(2) 0.16528(8)
H10B H 1.1686 0.5297 0.1174
O3B O 1.31765(13) 0.8283(3) 0.12416(8)
loop_
_geom_bond_atom_site_label_1
_geom_bond_atom_site_label_2
_geom_bond_site_symmetry_1
_geom_bond_site_symmetry_2
C1 N1 1_555 1_555
C2 H1 1_555 1_555
H2 C2 1_555 1_555
C3 C2 1_555 1_555
C4 C3 1_555 1_555
C5 C4 1_555 1_555
C6 C5 1_555 1_555
H3 C6 1_555 1_555
C7 C6 1_555 1_555
H4 C7 1_555 1_555
C8 C3 1_555 1_555
H5 C8 1_555 1_555
C9 H6 1_555 1_555
H7 C9 1_555 1_555
H8 C9 1_555 1_555
N1 C2 1_555 1_555
H9 N1 1_555 1_555
O1 C1 1_555 1_555
O2 C4 1_555 1_555
H10 O2 1_555 1_555
O3 C5 1_555 1_555
C1B C1 1_555 1_555
C2B H1B 1_555 1_555
H2B C2B 1_555 1_555
C3B C2B 1_555 1_555
C4B C3B 1_555 1_555
C5B C4B 1_555 1_555
C6B C5B 1_555 1_555
H3B C6B 1_555 1_555
C7B C6B 1_555 1_555
H4B C7B 1_555 1_555
C8B C3B 1_555 1_555
H5B C8B 1_555 1_555
C9B H6B 1_555 1_555
H7B C9B 1_555 1_555
H8B C9B 1_555 1_555
N1B C1B 1_555 1_555
H9B N1B 1_555 1_555
O1B C1B 1_555 1_555
O2B C4B 1_555 1_555
H10B O2B 1_555 1_555
O3B C5B 1_555 1_555
C7 C8 1_555 1_555
C9 O3 1_555 1_555
C2B N1B 1_555 1_555
C7B C8B 1_555 1_555
C9B O3B 1_555 1_555

#END
