
#######################################################################
#
#                 Cambridge Crystallographic Data Centre
#                                CCDC 
#
#######################################################################
#
# If this CIF has been generated from an entry in the Cambridge 
# Structural Database, then it will include bibliographic, chemical, 
# crystal, experimental, refinement or atomic coordinate data resulting 
# from the CCDC's data processing and validation procedures.
#
#######################################################################

data_SEYCAB
_chemical_formula_moiety         'C19 H27 N1 O3 S1'
_chemical_name_systematic        
'(R)-(+)-3-azabicyclo[3.3.1]non-9\a-yl 2-cyclopentyl-2-hydroxy-2-thien-2-ylacetate'
_chemical_properties_biological  'potential selective Ma antagonist'
_symmetry_cell_setting           orthorhombic
_symmetry_space_group_name_H-M   'P 21 21 21'
_symmetry_Int_Tables_number      19
_space_group_name_Hall           'P 2ac 2ab'
loop_
_symmetry_equiv_pos_site_id
_symmetry_equiv_pos_as_xyz
1 x,y,z
2 1/2-x,-y,1/2+z
3 -x,1/2+y,1/2-z
4 1/2+x,1/2-y,-z
_cell_length_a                   14.937(3)
_cell_length_b                   8.1673(16)
_cell_length_c                   15.423(3)
_cell_angle_alpha                90
_cell_angle_beta                 90
_cell_angle_gamma                90
_cell_volume                     1881.53
_exptl_crystal_colour            colorless
_exptl_crystal_description       Block
_chemical_melting_point          '132-133 deg.C'
_cell_formula_units_Z            4
loop_
_atom_site_label
_atom_site_type_symbol
_atom_site_fract_x
_atom_site_fract_y
_atom_site_fract_z
N1 N 0.75550(17) -0.0929(3) -0.29709(14)
H1 H 0.7730 -0.1144 -0.3490
O1 O 0.62666(13) 0.3112(2) 0.12535(10)
H2 H 0.5928 0.3644 0.1563
O2 O 0.71776(13) 0.1110(3) 0.01787(11)
O3 O 0.61470(11) 0.1340(2) -0.08703(10)
C1 C 0.50283(17) 0.1494(3) 0.07442(18)
C2 C 0.58031(16) 0.2600(3) 0.05003(14)
C3 C 0.54864(17) 0.4137(3) 0.00083(16)
H3 H 0.5127 0.3807 -0.0494
C4 C 0.4926(2) 0.5277(4) 0.0600(2)
H4 H 0.4400 0.5673 0.0296
H5 H 0.4736 0.4703 0.1118
C5 C 0.5548(4) 0.6691(5) 0.0829(4)
H6 H 0.5213 0.7708 0.0853
H7 H 0.5819 0.6505 0.1392
C6 C 0.6208(5) 0.6786(6) 0.0193(4)
H8 H 0.6781 0.7024 0.0462
H9 H 0.6069 0.7670 -0.0204
C7 C 0.6270(2) 0.5213(4) -0.0296(2)
H10 H 0.6836 0.4676 -0.0177
H11 H 0.6228 0.5414 -0.0914
C8 C 0.64643(16) 0.1604(3) -0.00660(14)
C9 C 0.67265(16) 0.0373(3) -0.14394(14)
H12 H 0.7057 -0.0422 -0.1087
C10 C 0.73848(17) 0.1419(3) -0.19235(16)
H13 H 0.7744 0.2024 -0.1499
C11 C 0.6904(3) 0.2663(4) -0.2505(2)
H14 H 0.6605 0.3460 -0.2140
H15 H 0.7349 0.3243 -0.2846
C12 C 0.6220(3) 0.1913(6) -0.3116(2)
H16 H 0.5846 0.2774 -0.3354
H17 H 0.6530 0.1390 -0.3595
C13 C 0.5633(2) 0.0661(6) -0.2664(2)
H18 H 0.5307 0.0047 -0.3100
H19 H 0.5197 0.1237 -0.2312
C14 C 0.61436(19) -0.0550(4) -0.20844(19)
H20 H 0.5708 -0.1209 -0.1762
C15 C 0.6781(2) -0.1713(4) -0.2571(2)
H21 H 0.6993 -0.2536 -0.2167
H22 H 0.6444 -0.2272 -0.3019
C16 C 0.8005(2) 0.0251(4) -0.24139(18)
H23 H 0.8411 0.0896 -0.2767
H24 H 0.8364 -0.0344 -0.1995
S1 S 0.4314(3) 0.0654(9) 0.0032(4)
C17 C 0.3780(8) -0.0338(17) 0.0806(7)
H25 H 0.3373 -0.1165 0.0679
C18 C 0.3969(10) 0.0123(19) 0.1679(9)
H26 H 0.3645 -0.0133 0.2175
C19 C 0.4779(13) 0.108(3) 0.1615(7)
H27 H 0.5110 0.1393 0.2097
S2? S 0.4796(3) 0.1088(7) 0.1775(3)
C20? C 0.4023(11) -0.021(2) 0.1510(12)
H28? H 0.3834 -0.1021 0.1890
C21? C 0.3651(13) -0.005(3) 0.0673(14)
H29? H 0.3085 -0.0355 0.0483
C22? C 0.4372(14) 0.072(3) 0.0176(12)
H30? H 0.4406 0.0725 -0.0426
loop_
_geom_bond_atom_site_label_1
_geom_bond_atom_site_label_2
_geom_bond_site_symmetry_1
_geom_bond_site_symmetry_2
N1 H1 1_555 1_555
O1 H2 1_555 1_555
O2 C8 1_555 1_555
O3 C8 1_555 1_555
C1 C2 1_555 1_555
C2 O1 1_555 1_555
C3 C2 1_555 1_555
H3 C3 1_555 1_555
C4 C3 1_555 1_555
H4 C4 1_555 1_555
H5 C4 1_555 1_555
C5 C4 1_555 1_555
H6 C5 1_555 1_555
H7 C5 1_555 1_555
C6 C5 1_555 1_555
H8 C6 1_555 1_555
H9 C6 1_555 1_555
C7 C3 1_555 1_555
H10 C7 1_555 1_555
H11 C7 1_555 1_555
C8 C2 1_555 1_555
C9 O3 1_555 1_555
H12 C9 1_555 1_555
C10 C9 1_555 1_555
H13 C10 1_555 1_555
C11 C10 1_555 1_555
H14 C11 1_555 1_555
H15 C11 1_555 1_555
C12 C11 1_555 1_555
H16 C12 1_555 1_555
H17 C12 1_555 1_555
C13 C12 1_555 1_555
H18 C13 1_555 1_555
H19 C13 1_555 1_555
C14 C9 1_555 1_555
H20 C14 1_555 1_555
C15 N1 1_555 1_555
H21 C15 1_555 1_555
H22 C15 1_555 1_555
C16 N1 1_555 1_555
H23 C16 1_555 1_555
H24 C16 1_555 1_555
S1 C1 1_555 1_555
C17 S1 1_555 1_555
H25 C17 1_555 1_555
C18 C17 1_555 1_555
H26 C18 1_555 1_555
C19 C1 1_555 1_555
H27 C19 1_555 1_555
C6 C7 1_555 1_555
C10 C16 1_555 1_555
C13 C14 1_555 1_555
C14 C15 1_555 1_555
C18 C19 1_555 1_555

#END
