
#######################################################################
#
#                 Cambridge Crystallographic Data Centre
#                                CCDC 
#
#######################################################################
#
# If this CIF has been generated from an entry in the Cambridge 
# Structural Database, then it will include bibliographic, chemical, 
# crystal, experimental, refinement or atomic coordinate data resulting 
# from the CCDC's data processing and validation procedures.
#
#######################################################################

data_SEYCAA
_chemical_compound_source        'Lepechinia hastata'
_chemical_formula_moiety         'C20 H26 O4'
_chemical_name_systematic        Carnosol
_symmetry_cell_setting           orthorhombic
_symmetry_space_group_name_H-M   'P 21 21 2'
_symmetry_Int_Tables_number      18
_space_group_name_Hall           'P 2 2ab'
loop_
_symmetry_equiv_pos_site_id
_symmetry_equiv_pos_as_xyz
1 x,y,z
2 1/2+x,1/2-y,-z
3 1/2-x,1/2+y,-z
4 -x,-y,z
_cell_length_a                   15.762(1)
_cell_length_b                   13.755(1)
_cell_length_c                   7.7747(7)
_cell_angle_alpha                90
_cell_angle_beta                 90
_cell_angle_gamma                90
_cell_volume                     1685.6
_exptl_crystal_colour            colorless
_cell_formula_units_Z            4
loop_
_atom_site_label
_atom_site_type_symbol
_atom_site_fract_x
_atom_site_fract_y
_atom_site_fract_z
O1 O 0.19372(7) 0.85129(8) -0.2396(2)
O2 O 0.15311(8) 0.84543(8) 0.0325(2)
O3 O 0.56209(7) 0.82913(8) 0.0074(2)
O4 O 0.43554(7) 0.91920(8) 0.155(2)
C1 C 0.2673(1) 0.9957(1) 0.1413(2)
C2 C 0.1922(1) 1.0619(1) 0.1827(2)
C3 C 0.1883(1) 1.1468(1) 0.0567(2)
C4 C 0.1774(1) 1.1134(1) -0.1304(2)
C5 C 0.2511(1) 1.0440(1) -0.1767(2)
C6 C 0.2441(1) 1.0015(1) -0.3605(2)
C7 C 0.2594(1) 0.8930(1) -0.3527(2)
C8 C 0.3441(1) 0.8736(1) -0.2721(2)
C9 C 0.3492(1) 0.9079(1) -0.1032(2)
C10 C 0.2670(1) 0.9586(1) -0.0439(2)
C11 C 0.4243(1) 0.8909(1) -0.0150(2)
C12 C 0.4917(1) 0.8415(1) -0.0963(2)
C13 C 0.4870(1) 0.8114(1) -0.2667(2)
C14 C 0.4106(1) 0.8278(1) -0.3536(2)
C15 C 0.5600(1) 0.7618(1) -0.3577(2)
C16 C 0.5410(1) 0.6535(1) -0.3852(3)
C17 C 0.5800(1) 0.8121(1) -0.5296(2)
C18 C 0.1837(1) 1.2027(1) -0.2488(2)
C19 C 0.0889(1) 1.0684(1) -0.1527(2)
C20 C 0.1993(1) 0.8813(1) -0.0752(2)
H1 H 0.268(1) 0.938(1) 0.221(3)
H2 H 0.321(1) 1.032(1) 0.157(2)
H3 H 0.139(1) 1.025(1) 0.179(3)
H4 H 0.199(1) 1.089(1) 0.300(2)
H5 H 0.142(1) 1.190(1) 0.085(2)
H6 H 0.240(1) 1.184(1) 0.066(2)
H7 H 0.302(1) 1.080(1) -0.169(2)
H8 H 0.188(1) 1.015(1) -0.410(2)
H9 H 0.287(1) 1.030(1) -0.446(2)
H10 H 0.253(1) 0.858(1) -0.462(2)
H11 H 0.402(1) 0.805(1) -0.465(2)
H12 H 0.611(1) 0.764(1) -0.290(2)
H13 H 0.589(1) 0.623(1) -0.442(3)
H14 H 0.490(1) 0.644(1) -0.458(3)
H15 H 0.531(1) 0.619(1) -0.284(3)
H16 H 0.584(1) 0.881(2) -0.517(3)
H17 H 0.636(1) 0.787(1) -0.580(3)
H18 H 0.535(1) 0.792(1) -0.613(3)
H19 H 0.236(1) 1.235(1) -0.231(2)
H20 H 0.139(1) 1.248(1) -0.220(2)
H21 H 0.177(1) 1.183(2) -0.371(3)
H22 H 0.048(1) 1.114(1) -0.120(3)
H23 H 0.080(1) 1.012(1) -0.082(3)
H24 H 0.078(1) 1.048(1) -0.276(3)
H25 H 0.584(1) 0.778(1) -0.006(3)
H26 H 0.484(1) 0.906(2) 0.166(3)
loop_
_geom_bond_atom_site_label_1
_geom_bond_atom_site_label_2
_geom_bond_site_symmetry_1
_geom_bond_site_symmetry_2
O1 C7 1_555 1_555
O2 C20 1_555 1_555
O3 C12 1_555 1_555
O4 C11 1_555 1_555
C1 C2 1_555 1_555
C2 C3 1_555 1_555
C3 C4 1_555 1_555
C4 C5 1_555 1_555
C5 C6 1_555 1_555
C6 C7 1_555 1_555
C7 C8 1_555 1_555
C8 C9 1_555 1_555
C9 C10 1_555 1_555
C10 C1 1_555 1_555
C11 C9 1_555 1_555
C12 C11 1_555 1_555
C13 C12 1_555 1_555
C14 C8 1_555 1_555
C15 C13 1_555 1_555
C16 C15 1_555 1_555
C17 C15 1_555 1_555
C18 C4 1_555 1_555
C19 C4 1_555 1_555
C20 O1 1_555 1_555
H1 C1 1_555 1_555
H2 C1 1_555 1_555
H3 C2 1_555 1_555
H4 C2 1_555 1_555
H5 C3 1_555 1_555
H6 C3 1_555 1_555
H7 C5 1_555 1_555
H8 C6 1_555 1_555
H9 C6 1_555 1_555
H10 C7 1_555 1_555
H11 C14 1_555 1_555
H12 C15 1_555 1_555
H13 C16 1_555 1_555
H14 C16 1_555 1_555
H15 C16 1_555 1_555
H16 C17 1_555 1_555
H17 C17 1_555 1_555
H18 C17 1_555 1_555
H19 C18 1_555 1_555
H20 C18 1_555 1_555
H21 C18 1_555 1_555
H22 C19 1_555 1_555
H23 C19 1_555 1_555
H24 C19 1_555 1_555
H25 O3 1_555 1_555
H26 O4 1_555 1_555
C5 C10 1_555 1_555
C10 C20 1_555 1_555
C13 C14 1_555 1_555

#END
