
#######################################################################
#
#                 Cambridge Crystallographic Data Centre
#                                CCDC 
#
#######################################################################
#
# If this CIF has been generated from an entry in the Cambridge 
# Structural Database, then it will include bibliographic, chemical, 
# crystal, experimental, refinement or atomic coordinate data resulting 
# from the CCDC's data processing and validation procedures.
#
#######################################################################

data_SEYDAE
_chemical_formula_moiety         'C37 H26 N1 O1 P1 S1'
_chemical_name_systematic        
(4-(diphenylphosphino)phenyl)(4-(10H-phenothiazin-10-yl)phenyl)methanone
_symmetry_cell_setting           triclinic
_symmetry_space_group_name_H-M   'P -1'
_symmetry_Int_Tables_number      2
_space_group_name_Hall           '-P 1'
loop_
_symmetry_equiv_pos_site_id
_symmetry_equiv_pos_as_xyz
1 x,y,z
2 -x,-y,-z
_cell_length_a                   10.2912(5)
_cell_length_b                   12.6951(8)
_cell_length_c                   13.4141(5)
_cell_angle_alpha                97.249(4)
_cell_angle_beta                 110.796(4)
_cell_angle_gamma                112.321(5)
_cell_volume                     1444.9
_exptl_crystal_colour            colorless
_exptl_crystal_description       block
_cell_formula_units_Z            2
_exptl_crystal_recrystallization_method 
'Re-crystallisation from solvent: Dichloromethane/Hexane'
_exptl_crystal_preparation       ', Luminescent'
loop_
_atom_site_label
_atom_site_type_symbol
_atom_site_fract_x
_atom_site_fract_y
_atom_site_fract_z
P1 P 0.44256(7) -0.06771(5) 0.83966(5)
S1 S 0.64009(9) 0.82860(7) 0.48890(6)
O1 O 1.09553(19) 0.43610(16) 0.93486(16)
N1 N 0.7866(2) 0.68977(15) 0.61060(14)
C1 C 0.8297(2) 0.61373(17) 0.67253(17)
C2 C 0.7293(2) 0.54608(18) 0.71123(18)
H1 H 0.6348 0.5481 0.6954
C3 C 0.9103(2) 0.47218(17) 0.79889(17)
C4 C 0.7694(2) 0.47487(18) 0.77382(18)
H2 H 0.7010 0.4285 0.7992
C5 C 0.8364(2) 0.28143(17) 0.85865(17)
C6 C 0.7369(2) 0.65497(19) 0.49356(18)
C7 C 0.6059(3) 0.06092(18) 0.84107(17)
C8 C 0.8543(3) 0.23762(19) 0.95031(17)
H3 H 0.9438 0.2811 1.0176
C9 C 0.7399(3) 0.13014(19) 0.94176(17)
H4 H 0.7523 0.1032 1.0042
C10 C 0.7052(3) 0.21201(19) 0.75815(18)
H5 H 0.6927 0.2393 0.6959
C11 C 1.0112(2) 0.54154(19) 0.76035(19)
H6 H 1.1069 0.5412 0.7778
C12 C 0.8505(2) 0.81134(18) 0.67188(17)
C13 C 0.9586(3) 0.39892(19) 0.86975(18)
C14 C 0.5925(3) 0.10279(19) 0.74885(18)
H7 H 0.5068 0.0569 0.6801
C15 C 0.9708(3) 0.61136(19) 0.69617(19)
H8 H 1.0379 0.6563 0.6692
C16 C 0.5272(3) -0.16673(18) 0.88439(18)
C17 C 0.3201(3) -0.1406(2) 0.68896(19)
C18 C 0.7958(3) 0.8865(2) 0.62324(19)
C19 C 0.9669(3) 0.8601(2) 0.78053(19)
H9 H 1.0061 0.8123 0.8147
C20 C 0.7385(3) 0.5554(2) 0.4383(2)
H10 H 0.7703 0.5081 0.4785
C21 C 0.6803(3) 0.7200(2) 0.42888(19)
C22 C 0.6546(3) -0.1690(2) 0.8732(2)
H11 H 0.7027 -0.1190 0.8385
C23 C 0.7107(3) -0.2455(2) 0.9136(2)
H12 H 0.7970 -0.2459 0.9062
C24 C 0.2027(3) -0.1081(2) 0.6384(2)
H13 H 0.1908 -0.0522 0.6814
C25 C 0.4569(3) -0.2441(2) 0.9353(2)
H14 H 0.3707 -0.2440 0.9430
C26 C 0.8586(4) 1.0051(2) 0.6822(2)
H15 H 0.8227 1.0542 0.6479
C27 C 0.3355(3) -0.2233(2) 0.6227(2)
H16 H 0.4137 -0.2454 0.6543
C28 C 0.6448(3) 0.6933(2) 0.3163(2)
H17 H 0.6165 0.7417 0.2758
C29 C 0.6934(3) 0.5256(2) 0.3243(2)
H18 H 0.6919 0.4572 0.2885
C30 C 1.0262(3) 0.9780(2) 0.8393(2)
H19 H 1.1030 1.0081 0.9128
C31 C 0.6416(4) -0.3208(2) 0.9644(2)
H20 H 0.6815 -0.3712 0.9919
C32 C 0.5130(4) -0.3215(3) 0.9746(2)
H21 H 0.4640 -0.3735 1.0076
C33 C 0.9727(4) 1.0516(2) 0.7901(2)
H22 H 1.0133 1.1313 0.8295
C34 C 0.6508(3) 0.5959(3) 0.2633(2)
H23 H 0.6264 0.5783 0.1876
C35 C 0.1048(3) -0.1578(3) 0.5259(3)
H24 H 0.0282 -0.1345 0.4931
C36 C 0.1197(4) -0.2421(3) 0.4616(3)
H25 H 0.0515 -0.2773 0.3859
C37 C 0.2351(4) -0.2737(3) 0.5093(2)
H26 H 0.2465 -0.3293 0.4654
loop_
_geom_bond_atom_site_label_1
_geom_bond_atom_site_label_2
_geom_bond_site_symmetry_1
_geom_bond_site_symmetry_2
P1 C7 1_555 1_555
S1 C18 1_555 1_555
O1 C13 1_555 1_555
N1 C1 1_555 1_555
C1 C2 1_555 1_555
C2 H1 1_555 1_555
C3 C4 1_555 1_555
C4 C2 1_555 1_555
H2 C4 1_555 1_555
C5 C8 1_555 1_555
C6 N1 1_555 1_555
C7 C9 1_555 1_555
C8 H3 1_555 1_555
C9 C8 1_555 1_555
H4 C9 1_555 1_555
C10 C5 1_555 1_555
H5 C10 1_555 1_555
C11 C3 1_555 1_555
H6 C11 1_555 1_555
C12 N1 1_555 1_555
C13 C3 1_555 1_555
C14 C7 1_555 1_555
H7 C14 1_555 1_555
C15 C1 1_555 1_555
H8 C15 1_555 1_555
C16 P1 1_555 1_555
C17 P1 1_555 1_555
C18 C12 1_555 1_555
C19 C12 1_555 1_555
H9 C19 1_555 1_555
C20 C6 1_555 1_555
H10 C20 1_555 1_555
C21 S1 1_555 1_555
C22 C16 1_555 1_555
H11 C22 1_555 1_555
C23 C22 1_555 1_555
H12 C23 1_555 1_555
C24 C17 1_555 1_555
H13 C24 1_555 1_555
C25 C16 1_555 1_555
H14 C25 1_555 1_555
C26 C18 1_555 1_555
H15 C26 1_555 1_555
C27 C17 1_555 1_555
H16 C27 1_555 1_555
C28 C21 1_555 1_555
H17 C28 1_555 1_555
C29 C20 1_555 1_555
H18 C29 1_555 1_555
C30 C19 1_555 1_555
H19 C30 1_555 1_555
C31 C23 1_555 1_555
H20 C31 1_555 1_555
C32 C25 1_555 1_555
H21 C32 1_555 1_555
C33 C26 1_555 1_555
H22 C33 1_555 1_555
C34 C28 1_555 1_555
H23 C34 1_555 1_555
C35 C24 1_555 1_555
H24 C35 1_555 1_555
C36 C35 1_555 1_555
H25 C36 1_555 1_555
C37 C27 1_555 1_555
H26 C37 1_555 1_555
C5 C13 1_555 1_555
C6 C21 1_555 1_555
C10 C14 1_555 1_555
C11 C15 1_555 1_555
C29 C34 1_555 1_555
C30 C33 1_555 1_555
C31 C32 1_555 1_555
C36 C37 1_555 1_555

#END
