
#######################################################################
#
#                 Cambridge Crystallographic Data Centre
#                                CCDC 
#
#######################################################################
#
# If this CIF has been generated from an entry in the Cambridge 
# Structural Database, then it will include bibliographic, chemical, 
# crystal, experimental, refinement or atomic coordinate data resulting 
# from the CCDC's data processing and validation procedures.
#
#######################################################################

data_SEYNUI
_chemical_formula_moiety         'C18 H19 N3 O2'
_chemical_name_systematic        
N-[2-(1H-indol-3-yl)ethyl]-N'-(2-methoxyphenyl)urea
_symmetry_cell_setting           monoclinic
_symmetry_space_group_name_H-M   'P 21/c'
_symmetry_Int_Tables_number      14
_space_group_name_Hall           '-P 2ybc'
loop_
_symmetry_equiv_pos_site_id
_symmetry_equiv_pos_as_xyz
1 x,y,z
2 -x,1/2+y,1/2-z
3 -x,-y,-z
4 x,1/2-y,1/2+z
_cell_length_a                   16.2774(15)
_cell_length_b                   11.1082(10)
_cell_length_c                   9.0819(9)
_cell_angle_alpha                90
_cell_angle_beta                 103.089(9)
_cell_angle_gamma                90
_cell_volume                     1599.46
_exptl_crystal_colour            colorless
_exptl_crystal_description       block
_cell_formula_units_Z            4
loop_
_atom_site_label
_atom_site_type_symbol
_atom_site_fract_x
_atom_site_fract_y
_atom_site_fract_z
O1 O 0.22339(19) 0.2977(3) 0.4940(4)
O2 O 0.1464(2) 0.4825(3) 0.0058(4)
N1 N 0.5056(3) -0.0173(4) 0.8250(5)
H1 H 0.5039 -0.0732 0.8898
N2 N 0.2720(2) 0.1891(3) 0.3199(4)
H2 H 0.2693 0.1755 0.2257
N3 N 0.1800(2) 0.3440(3) 0.2418(4)
H3 H 0.1819 0.3199 0.1526
C1 C 0.5737(3) 0.0538(5) 0.8216(6)
C2 C 0.6549(4) 0.0531(6) 0.9142(6)
H4 H 0.6699 -0.0006 0.9943
C3 C 0.7112(4) 0.1340(6) 0.8824(7)
H5 H 0.7653 0.1366 0.9436
C4 C 0.6898(3) 0.2134(5) 0.7602(8)
H6 H 0.7296 0.2675 0.7408
C5 C 0.6091(3) 0.2116(4) 0.6677(6)
H7 H 0.5949 0.2628 0.5848
C6 C 0.5507(3) 0.1329(4) 0.7005(5)
C7 C 0.4639(3) 0.1075(4) 0.6279(5)
C8 C 0.4395(3) 0.0158(5) 0.7062(6)
H8 H 0.3865 -0.0198 0.6839
C9 C 0.4120(3) 0.1727(4) 0.4951(6)
H9 H 0.4427 0.1749 0.4152
H10 H 0.4040 0.2551 0.5243
C10 C 0.3274(3) 0.1166(4) 0.4347(5)
H11 H 0.3353 0.0387 0.3918
H12 H 0.3001 0.1033 0.5178
C11 C 0.2248(3) 0.2778(4) 0.3611(5)
C12 C 0.1316(3) 0.4468(4) 0.2510(6)
C13 C 0.1135(3) 0.5210(5) 0.1239(6)
C14 C 0.0645(3) 0.6237(5) 0.1191(7)
H13 H 0.0521 0.6715 0.0328
C15 C 0.0344(3) 0.6533(5) 0.2450(8)
H14 H 0.0012 0.7218 0.2427
C16 C 0.0523(3) 0.5850(5) 0.3716(7)
H15 H 0.0327 0.6079 0.4561
C17 C 0.1004(3) 0.4795(5) 0.3754(6)
H16 H 0.1114 0.4315 0.4616
C18 C 0.1346(3) 0.5559(5) -0.1258(6)
H17 H 0.1645 0.5217 -0.1954
H18 H 0.1557 0.6354 -0.0979
H19 H 0.0756 0.5603 -0.1728
loop_
_geom_bond_atom_site_label_1
_geom_bond_atom_site_label_2
_geom_bond_site_symmetry_1
_geom_bond_site_symmetry_2
O1 C11 1_555 1_555
O2 C13 1_555 1_555
N1 H1 1_555 1_555
N2 H2 1_555 1_555
N3 H3 1_555 1_555
C1 N1 1_555 1_555
C2 C1 1_555 1_555
H4 C2 1_555 1_555
C3 C2 1_555 1_555
H5 C3 1_555 1_555
C4 C3 1_555 1_555
H6 C4 1_555 1_555
C5 C4 1_555 1_555
H7 C5 1_555 1_555
C6 C1 1_555 1_555
C7 C6 1_555 1_555
C8 N1 1_555 1_555
H8 C8 1_555 1_555
C9 C7 1_555 1_555
H9 C9 1_555 1_555
H10 C9 1_555 1_555
C10 N2 1_555 1_555
H11 C10 1_555 1_555
H12 C10 1_555 1_555
C11 N2 1_555 1_555
C12 N3 1_555 1_555
C13 C12 1_555 1_555
C14 C13 1_555 1_555
H13 C14 1_555 1_555
C15 C14 1_555 1_555
H14 C15 1_555 1_555
C16 C15 1_555 1_555
H15 C16 1_555 1_555
C17 C12 1_555 1_555
H16 C17 1_555 1_555
C18 O2 1_555 1_555
H17 C18 1_555 1_555
H18 C18 1_555 1_555
H19 C18 1_555 1_555
N3 C11 1_555 1_555
C5 C6 1_555 1_555
C7 C8 1_555 1_555
C9 C10 1_555 1_555
C16 C17 1_555 1_555

#END
