
#######################################################################
#
#                 Cambridge Crystallographic Data Centre
#                                CCDC 
#
#######################################################################
#
# If this CIF has been generated from an entry in the Cambridge 
# Structural Database, then it will include bibliographic, chemical, 
# crystal, experimental, refinement or atomic coordinate data resulting 
# from the CCDC's data processing and validation procedures.
#
#######################################################################

data_SEZKIU
_chemical_formula_moiety         'C114 H108 O18,5(C2 H3 N1),3(C1 H1 Cl3)'
_chemical_name_systematic        
'2,3:14,15:26,27-tris(1,16-bis(1,4-phenylene)-1,4,7,10,13,16-hexaoxahexadecane)heptacyclo[32.2.2.2^4,7^.2^10,13^.2^16,19^.2^22,25^.2^28,31^]octatetraconta-1(36),2,4,6,10,12,14,16,18,22,24,26,28,30,34,37,39,41,43,45,47-henicosaene-8,20,32-triyne acetonitrile chloroform solvate'
_symmetry_cell_setting           triclinic
_symmetry_space_group_name_H-M   'P -1'
_symmetry_Int_Tables_number      2
_space_group_name_Hall           '-P 1'
loop_
_symmetry_equiv_pos_site_id
_symmetry_equiv_pos_as_xyz
1 x,y,z
2 -x,-y,-z
_cell_length_a                   14.8602(13)
_cell_length_b                   19.5839(17)
_cell_length_c                   22.2821(18)
_cell_angle_alpha                102.480(2)
_cell_angle_beta                 91.023(2)
_cell_angle_gamma                97.659(3)
_cell_volume                     6267.55
_exptl_crystal_colour            colorless
_exptl_crystal_description       block
_cell_formula_units_Z            2
_chemical_properties_physical    Efflorescent
_exptl_crystal_preparation       Luminescent
loop_
_atom_site_label
_atom_site_type_symbol
_atom_site_fract_x
_atom_site_fract_y
_atom_site_fract_z
C1 C -0.0014(8) 0.0763(5) 0.3547(3)
C2 C -0.0533(9) 0.0120(5) 0.3469(3)
H1 H -0.0598 -0.0095 0.3813
C3 C -0.0984(9) -0.0249(5) 0.2898(4)
H2 H -0.1388 -0.0676 0.2864
C4 C -0.0800(8) 0.0053(5) 0.2389(3)
C5 C -0.0279(8) 0.0707(5) 0.2458(3)
H3 H -0.0177 0.0911 0.2111
C6 C 0.0105(7) 0.1076(5) 0.3049(3)
H4 H 0.0442 0.1534 0.3099
C7 C -0.1793(9) -0.0860(5) 0.1688(4)
H5 H -0.2399 -0.0732 0.1803
H6 H -0.1632 -0.1195 0.1934
C8 C -0.1808(7) -0.1191(5) 0.1015(4)
H7 H -0.2368 -0.1534 0.0894
H8 H -0.1801 -0.0824 0.0771
C9 C -0.1026(7) -0.1892(5) 0.0274(3)
H9 H -0.0945 -0.1550 0.0005
H10 H -0.1599 -0.2217 0.0143
C10 C -0.0208(7) -0.2310(5) 0.0244(4)
H11 H -0.0114 -0.2537 -0.0188
H12 H 0.0352 -0.1989 0.0415
C11 C 0.0308(6) -0.3234(5) 0.0629(4)
H13 H 0.0884 -0.2915 0.0763
H14 H 0.0385 -0.3527 0.0217
C12 C 0.0105(7) -0.3698(5) 0.1070(4)
H15 H -0.0526 -0.3944 0.0993
H16 H 0.0522 -0.4059 0.1017
C13 C 0.0006(8) -0.3696(5) 0.2123(4)
H17 H 0.0395 -0.4075 0.2075
H18 H -0.0637 -0.3920 0.2058
C14 C 0.0155(9) -0.3243(6) 0.2753(5)
H19 H -0.0197 -0.2843 0.2789
H20 H -0.0063 -0.3521 0.3056
C15 C 0.1270(9) -0.2671(5) 0.3529(4)
H21 H 0.1166 -0.3039 0.3772
H22 H 0.0862 -0.2314 0.3671
C16 C 0.2238(8) -0.2330(5) 0.3619(4)
H23 H 0.2407 -0.2197 0.4065
H24 H 0.2633 -0.2675 0.3422
C17 C 0.2049(7) -0.1129(4) 0.3664(3)
C18 C 0.1982(7) -0.0630(5) 0.3312(3)
H25 H 0.2184 -0.0711 0.2903
C19 C 0.1630(8) -0.0024(5) 0.3546(3)
H26 H 0.1549 0.0292 0.3288
C20 C 0.1379(7) 0.0146(5) 0.4180(3)
C21 C 0.1525(7) -0.0346(5) 0.4526(3)
H27 H 0.1408 -0.0246 0.4952
C22 C 0.1835(7) -0.0979(4) 0.4267(3)
H28 H 0.1898 -0.1312 0.4513
C23 C 0.1040(8) 0.0800(5) 0.4452(3)
C24 C 0.0458(8) 0.1102(5) 0.4148(3)
C25 C 0.0188(9) 0.1817(5) 0.4439(3)
C26 C -0.0686(8) 0.1917(5) 0.4469(3)
H29 H -0.1144 0.1544 0.4275
C27 C -0.0936(8) 0.2554(5) 0.4776(4)
H30 H -0.1562 0.2605 0.4805
C28 C -0.0288(8) 0.3112(5) 0.5039(3)
C29 C 0.0639(8) 0.3037(4) 0.4983(3)
H31 H 0.1097 0.3422 0.5149
C30 C 0.0874(9) 0.2402(5) 0.4686(4)
H32 H 0.1497 0.2348 0.4643
C31 C 0.1366(8) 0.1132(5) 0.5107(3)
C32 C 0.0738(7) 0.1267(4) 0.5557(3)
H33 H 0.0106 0.1152 0.5450
C33 C 0.1029(7) 0.1567(4) 0.6157(3)
H34 H 0.0595 0.1671 0.6460
C34 C 0.1953(7) 0.1721(5) 0.6326(3)
C35 C 0.2593(8) 0.1591(5) 0.5869(4)
H35 H 0.3225 0.1713 0.5973
C36 C 0.2289(9) 0.1281(5) 0.5266(4)
H36 H 0.2716 0.1171 0.4960
C37 C 0.2273(7) 0.2041(5) 0.6951(4)
C38 C 0.2516(6) 0.2284(5) 0.7481(4)
C39 C 0.2879(6) 0.2582(4) 0.8093(3)
C40 C 0.2296(6) 0.2805(4) 0.8567(3)
H37 H 0.1659 0.2764 0.8484
C41 C 0.2679(5) 0.3087(4) 0.9160(3)
H38 H 0.2287 0.3230 0.9481
C42 C 0.3597(5) 0.3167(4) 0.9299(3)
C43 C 0.4151(6) 0.2917(4) 0.8812(3)
H39 H 0.4786 0.2943 0.8894
C44 C 0.3793(6) 0.2638(4) 0.8222(3)
H40 H 0.4184 0.2483 0.7903
C45 C 0.4018(5) 0.3505(4) 0.9910(3)
C46 C 0.3791(5) 0.4115(4) 1.0249(3)
C47 C 0.4755(5) 0.3151(4) 1.0114(3)
C48 C 0.5643(5) 0.3487(4) 1.0202(3)
H41 H 0.5768 0.3966 1.0170
C49 C 0.6362(5) 0.3141(4) 1.0337(3)
H42 H 0.6971 0.3373 1.0376
C50 C 0.6168(5) 0.2453(4) 1.0413(3)
C51 C 0.5293(6) 0.2114(4) 1.0332(4)
H43 H 0.5166 0.1643 1.0384
C52 C 0.4595(6) 0.2449(4) 1.0177(4)
H44 H 0.3995 0.2201 1.0111
C53 C 0.7745(6) 0.2361(5) 1.0606(4)
H45 H 0.7824 0.2876 1.0785
H46 H 0.7977 0.2286 1.0186
C54 C 0.8252(6) 0.1995(5) 1.0997(4)
H47 H 0.8101 0.1477 1.0852
H48 H 0.8915 0.2125 1.0971
C55 C 0.8482(7) 0.1916(5) 1.2020(5)
H49 H 0.9144 0.2023 1.1977
H50 H 0.8312 0.1397 1.1935
C56 C 0.8230(7) 0.2250(7) 1.2666(5)
H51 H 0.7562 0.2174 1.2694
H52 H 0.8502 0.2024 1.2968
C57 C 0.8394(8) 0.3340(8) 1.3427(5)
H53 H 0.7736 0.3296 1.3500
H54 H 0.8700 0.3135 1.3730
C58 C 0.8765(9) 0.4079(7) 1.3496(5)
H55 H 0.8851 0.4308 1.3939
H56 H 0.9365 0.4116 1.3312
C59 C 0.8560(7) 0.5136(7) 1.3236(5)
H57 H 0.9154 0.5146 1.3041
H58 H 0.8667 0.5391 1.3672
C60 C 0.7968(8) 0.5492(8) 1.2927(6)
H59 H 0.7794 0.5220 1.2507
H60 H 0.8254 0.5976 1.2905
O1 O 0.7159(8) 0.5526(8) 1.3308(7)
C61 C 0.6573(10) 0.6044(8) 1.3325(6)
H61 H 0.6933 0.6518 1.3377
H62 H 0.6170 0.6049 1.3674
C62 C 0.6018(12) 0.5858(9) 1.2726(7)
H63 H 0.5730 0.6273 1.2681
H64 H 0.6431 0.5760 1.2384
O2 O 0.5311(5) 0.5254(3) 1.2667(3)
C63 C 0.4927(6) 0.5029(5) 1.2085(3)
C64 C 0.4850(5) 0.5456(4) 1.1665(3)
H65 H 0.5053 0.5949 1.1778
C65 C 0.4473(5) 0.5146(4) 1.1079(3)
H66 H 0.4431 0.5436 1.0791
C66 C 0.4154(5) 0.4430(4) 1.0897(3)
C67 C 0.4184(6) 0.4023(5) 1.1335(3)
H67 H 0.3929 0.3539 1.1235
C68 C 0.4585(6) 0.4318(5) 1.1921(3)
H68 H 0.4623 0.4029 1.2210
C69 C 0.3174(5) 0.4533(4) 0.9993(3)
C70 C 0.2448(5) 0.4779(4) 1.0325(3)
H69 H 0.2386 0.4725 1.0736
C71 C 0.1823(5) 0.5096(4) 1.0062(3)
H70 H 0.1317 0.5237 1.0288
C72 C 0.1915(5) 0.5216(4) 0.9470(3)
C73 C 0.2670(5) 0.5016(4) 0.9154(3)
H71 H 0.2767 0.5117 0.8760
C74 C 0.3275(5) 0.4675(4) 0.9405(3)
H72 H 0.3776 0.4530 0.9176
C75 C 0.1270(5) 0.5546(4) 0.9205(3)
C76 C 0.0700(5) 0.5808(4) 0.8959(3)
C77 C 0.0034(5) 0.6104(4) 0.8663(3)
C78 C -0.0811(5) 0.6152(4) 0.8903(3)
H73 H -0.0948 0.5994 0.9270
C79 C -0.1453(5) 0.6427(4) 0.8613(3)
H74 H -0.2020 0.6474 0.8797
C80 C -0.1309(5) 0.6637(4) 0.8066(3)
C81 C -0.0427(5) 0.6608(4) 0.7845(3)
H75 H -0.0282 0.6773 0.7482
C82 C 0.0230(5) 0.6348(4) 0.8140(3)
H76 H 0.0819 0.6337 0.7982
C83 C -0.1992(5) 0.6914(4) 0.7742(3)
C84 C -0.2155(5) 0.6693(3) 0.7117(3)
C85 C -0.2466(5) 0.7471(4) 0.8118(3)
C86 C -0.2002(6) 0.7984(4) 0.8587(3)
H77 H -0.1381 0.7967 0.8683
C87 C -0.2433(6) 0.8528(4) 0.8923(3)
H78 H -0.2102 0.8886 0.9235
C88 C -0.3334(6) 0.8542(4) 0.8797(3)
C89 C -0.3823(6) 0.8004(4) 0.8362(3)
H79 H -0.4460 0.7993 0.8300
C90 C -0.3396(5) 0.7490(4) 0.8022(3)
H80 H -0.3736 0.7135 0.7711
O3 O -0.3804(4) 0.9066(3) 0.9095(3)
C91 C -0.3239(6) 0.9692(4) 0.9443(5)
H81 H -0.2888 0.9929 0.9153
H82 H -0.2799 0.9548 0.9714
C92 C -0.3762(13) 1.0206(9) 0.9827(5)
H83 H -0.4152 0.9991 1.0111
H84 H -0.3365 1.0631 1.0059
O4 O -0.4262(6) 1.0347(4) 0.9344(4)
C93 C -0.3973(7) 1.0634(7) 0.8886(4)
H85 H -0.3887 1.0246 0.8535
H86 H -0.3366 1.0910 0.9016
C94 C -0.4544(8) 1.1106(4) 0.8656(5)
H87 H -0.5031 1.1248 0.8934
H88 H -0.4184 1.1525 0.8554
O5 O -0.4872(7) 1.0554(6) 0.8116(4)
C95 C -0.5521(7) 1.0695(5) 0.7781(4)
H89 H -0.5796 1.1087 0.8033
H90 H -0.5996 1.0276 0.7689
C96 C -0.5283(10) 1.0889(6) 0.7189(4)
H91 H -0.5842 1.0974 0.6986
H92 H -0.4859 1.1337 0.7279
O6 O -0.4873(7) 1.0369(6) 0.6768(4)
C97 C -0.4474(12) 1.0553(7) 0.6228(6)
H93 H -0.3955 1.0934 0.6358
H94 H -0.4930 1.0737 0.6000
C98 C -0.4140(7) 0.9920(6) 0.5798(5)
H95 H -0.3839 1.0075 0.5447
H96 H -0.3694 0.9724 0.6023
O7 O -0.4890(8) 0.9404(5) 0.5582(5)
C99 C -0.4752(11) 0.8795(6) 0.5119(6)
H97 H -0.4223 0.8933 0.4886
H98 H -0.5290 0.8674 0.4828
C100 C -0.4592(9) 0.8118(7) 0.5329(7)
H99 H -0.5108 0.7959 0.5564
H100 H -0.4527 0.7734 0.4969
O8 O -0.3791(6) 0.8294(5) 0.5702(4)
C101 C -0.3464(9) 0.7845(7) 0.6018(5)
C102 C -0.2808(11) 0.8167(6) 0.6431(5)
H101 H -0.2618 0.8658 0.6475
C103 C -0.2395(7) 0.7809(4) 0.6797(4)
H102 H -0.1930 0.8057 0.7092
C104 C -0.2645(6) 0.7089(4) 0.6743(3)
C105 C -0.3326(6) 0.6743(6) 0.6307(4)
H103 H -0.3509 0.6248 0.6249
C106 C -0.3747(8) 0.7143(8) 0.5947(5)
H104 H -0.4229 0.6918 0.5656
C107 C -0.1800(5) 0.6063(4) 0.6757(3)
C108 C -0.1875(5) 0.5426(4) 0.6945(3)
H105 H -0.2154 0.5390 0.7320
C109 C -0.1550(6) 0.4848(4) 0.6597(4)
H106 H -0.1610 0.4417 0.6733
C110 C -0.1130(6) 0.4888(4) 0.6041(3)
C111 C -0.1055(5) 0.5521(4) 0.5857(3)
H107 H -0.0766 0.5559 0.5487
C112 C -0.1391(5) 0.6105(4) 0.6201(3)
H108 H -0.1344 0.6532 0.6060
C113 C -0.0807(7) 0.4290(4) 0.5682(3)
C114 C -0.0547(7) 0.3770(4) 0.5382(4)
O9 O -0.1134(6) -0.0246(3) 0.1801(2)
O10 O -0.1042(4) -0.1536(3) 0.0902(2)
O11 O -0.0407(4) -0.2825(3) 0.0593(3)
O12 O 0.0217(5) -0.3280(3) 0.1673(3)
O13 O 0.1075(6) -0.2985(3) 0.2880(3)
O14 O 0.2397(5) -0.1722(3) 0.3370(2)
O15 O 0.6816(4) 0.2076(3) 1.0582(3)
O16 O 0.8000(4) 0.2205(3) 1.1607(3)
O17 O 0.8540(4) 0.2964(4) 1.2803(3)
O18 O 0.8184(5) 0.4424(4) 1.3212(3)
C118 C -0.6574(11) 0.9010(8) 0.6273(5)
H116 H -0.6086 0.9394 0.6221
Cl4 Cl -0.6113(6) 0.8453(5) 0.6664(4)
Cl5 Cl -0.7418(5) 0.9380(4) 0.6693(5)
Cl6 Cl -0.6953(5) 0.8489(6) 0.5548(4)
C119 C 0.2714(7) 0.6710(5) 0.1888(4)
H117 H 0.2205 0.6988 0.2017
Cl7 Cl 0.2945(2) 0.67403(16) 0.11155(11)
Cl8 Cl 0.3681(2) 0.70965(19) 0.23622(12)
Cl9 Cl 0.2380(2) 0.58330(16) 0.19386(13)
N1 N 0.1906(11) 0.8390(8) 0.1371(8)
C120 C 0.1266(14) 0.8397(8) 0.1709(9)
C121 C 0.0566(13) 0.8457(7) 0.2002(5)
H118 H 0.0030 0.8286 0.1721
H119 H 0.0560 0.8955 0.2199
H120 H 0.0558 0.8178 0.2319
C122 C 0.6679(9) 0.3485(8) 0.2066(6)
H121 H 0.7241 0.3289 0.1954
H122 H 0.6826 0.3960 0.2328
H123 H 0.6340 0.3510 0.1691
C123 C 0.6124(10) 0.3032(8) 0.2399(7)
N2 N 0.5693(9) 0.2646(8) 0.2641(7)
C124 C 0.5994(8) 0.0956(6) 0.1574(6)
H124 H 0.5986 0.0953 0.2013
H125 H 0.5370 0.0855 0.1396
H126 H 0.6272 0.1421 0.1523
C125 C 0.6493(7) 0.0446(6) 0.1278(4)
N3 N 0.6880(9) 0.0036(8) 0.1036(7)
C126 C 0.0630(8) -0.0197(5) 0.0908(5)
H127 H 0.0873 -0.0443 0.0528
H128 H 0.0176 -0.0525 0.1056
H129 H 0.1126 -0.0018 0.1222
C127 C 0.0209(7) 0.0388(6) 0.0788(4)
N4 N -0.0112(7) 0.0853(5) 0.0683(4)
C128 C 0.3904(10) 0.0684(6) 0.2510(5)
H130 H 0.4274 0.0443 0.2194
H131 H 0.4012 0.0543 0.2898
H132 H 0.4070 0.1196 0.2569
C129 C 0.2993(10) 0.0500(5) 0.2324(4)
N5 N 0.2276(8) 0.0353(5) 0.2167(4)
C130 C 0.6680(9) 0.4753(7) 0.4289(7)
H133 H 0.7058 0.4825 0.3936
Cl10 Cl 0.5567(7) 0.4434(9) 0.4002(5)
Cl11 Cl 0.6660(9) 0.5584(6) 0.4782(4)
Cl12 Cl 0.7242(7) 0.4271(6) 0.4713(3)
H109? H 0.8232 0.5997 1.3016
H110? H 0.8032 0.5313 1.2481
O19? O 0.7033(8) 0.5473(11) 1.3000(10)
C115? C 0.5738(10) 0.5973(7) 1.2875(11)
H111? H 0.5720 0.6127 1.3328
H112? H 0.5430 0.6294 1.2680
C116? C 0.6704(9) 0.5970(9) 1.2682(8)
H113? H 0.6726 0.5808 1.2230
H114? H 0.7063 0.6445 1.2813
C117? C -0.6803(10) 0.9226(7) 0.6320(7)
H115? H -0.7334 0.9117 0.6570
Cl1? Cl -0.5954(9) 0.9717(7) 0.6821(5)
Cl2? Cl -0.6434(18) 0.8421(7) 0.5990(9)
Cl3? Cl -0.7136(11) 0.9760(9) 0.5843(7)
C131? C 0.6333(15) 0.4829(12) 0.4258(13)
H134? H 0.6593 0.4942 0.3874
Cl13? Cl 0.5914(17) 0.3935(10) 0.4051(11)
Cl14? Cl 0.7254(13) 0.5031(14) 0.4791(9)
Cl15? Cl 0.5503(18) 0.5382(15) 0.4435(13)
loop_
_geom_bond_atom_site_label_1
_geom_bond_atom_site_label_2
_geom_bond_site_symmetry_1
_geom_bond_site_symmetry_2
C1 C2 1_555 1_555
C2 H1 1_555 1_555
C3 C2 1_555 1_555
H2 C3 1_555 1_555
C4 C3 1_555 1_555
C5 C4 1_555 1_555
H3 C5 1_555 1_555
C6 C1 1_555 1_555
H4 C6 1_555 1_555
C7 H5 1_555 1_555
H6 C7 1_555 1_555
C8 C7 1_555 1_555
H7 C8 1_555 1_555
H8 C8 1_555 1_555
C9 H9 1_555 1_555
H10 C9 1_555 1_555
C10 C9 1_555 1_555
H11 C10 1_555 1_555
H12 C10 1_555 1_555
C11 H13 1_555 1_555
H14 C11 1_555 1_555
C12 C11 1_555 1_555
H15 C12 1_555 1_555
H16 C12 1_555 1_555
C13 H17 1_555 1_555
H18 C13 1_555 1_555
C14 C13 1_555 1_555
H19 C14 1_555 1_555
H20 C14 1_555 1_555
C15 H21 1_555 1_555
H22 C15 1_555 1_555
C16 C15 1_555 1_555
H23 C16 1_555 1_555
H24 C16 1_555 1_555
C17 C18 1_555 1_555
C18 H25 1_555 1_555
C19 C18 1_555 1_555
H26 C19 1_555 1_555
C20 C19 1_555 1_555
C21 C20 1_555 1_555
H27 C21 1_555 1_555
C22 C17 1_555 1_555
H28 C22 1_555 1_555
C23 C20 1_555 1_555
C24 C1 1_555 1_555
C25 C24 1_555 1_555
C26 C25 1_555 1_555
H29 C26 1_555 1_555
C27 C26 1_555 1_555
H30 C27 1_555 1_555
C28 C27 1_555 1_555
C29 C28 1_555 1_555
H31 C29 1_555 1_555
C30 C25 1_555 1_555
H32 C30 1_555 1_555
C31 C23 1_555 1_555
C32 C31 1_555 1_555
H33 C32 1_555 1_555
C33 C32 1_555 1_555
H34 C33 1_555 1_555
C34 C33 1_555 1_555
C35 C34 1_555 1_555
H35 C35 1_555 1_555
C36 C31 1_555 1_555
H36 C36 1_555 1_555
C37 C34 1_555 1_555
C38 C37 1_555 1_555
C39 C38 1_555 1_555
C40 C39 1_555 1_555
H37 C40 1_555 1_555
C41 C40 1_555 1_555
H38 C41 1_555 1_555
C42 C41 1_555 1_555
C43 C42 1_555 1_555
H39 C43 1_555 1_555
C44 C39 1_555 1_555
H40 C44 1_555 1_555
C45 C42 1_555 1_555
C46 C45 1_555 1_555
C47 C45 1_555 1_555
C48 C47 1_555 1_555
H41 C48 1_555 1_555
C49 C48 1_555 1_555
H42 C49 1_555 1_555
C50 C49 1_555 1_555
C51 C50 1_555 1_555
H43 C51 1_555 1_555
C52 C47 1_555 1_555
H44 C52 1_555 1_555
C53 H45 1_555 1_555
H46 C53 1_555 1_555
C54 C53 1_555 1_555
H47 C54 1_555 1_555
H48 C54 1_555 1_555
C55 H49 1_555 1_555
H50 C55 1_555 1_555
C56 C55 1_555 1_555
H51 C56 1_555 1_555
H52 C56 1_555 1_555
C57 H53 1_555 1_555
H54 C57 1_555 1_555
C58 C57 1_555 1_555
H55 C58 1_555 1_555
H56 C58 1_555 1_555
C59 H57 1_555 1_555
H58 C59 1_555 1_555
C60 C59 1_555 1_555
H59 C60 1_555 1_555
H60 C60 1_555 1_555
O1 C60 1_555 1_555
C61 O1 1_555 1_555
H61 C61 1_555 1_555
H62 C61 1_555 1_555
C62 C61 1_555 1_555
H63 C62 1_555 1_555
H64 C62 1_555 1_555
O2 C62 1_555 1_555
C63 O2 1_555 1_555
C64 C63 1_555 1_555
H65 C64 1_555 1_555
C65 C64 1_555 1_555
H66 C65 1_555 1_555
C66 C46 1_555 1_555
C67 C66 1_555 1_555
H67 C67 1_555 1_555
C68 C63 1_555 1_555
H68 C68 1_555 1_555
C69 C46 1_555 1_555
C70 C69 1_555 1_555
H69 C70 1_555 1_555
C71 C70 1_555 1_555
H70 C71 1_555 1_555
C72 C71 1_555 1_555
C73 C72 1_555 1_555
H71 C73 1_555 1_555
C74 C69 1_555 1_555
H72 C74 1_555 1_555
C75 C72 1_555 1_555
C76 C75 1_555 1_555
C77 C76 1_555 1_555
C78 C77 1_555 1_555
H73 C78 1_555 1_555
C79 C78 1_555 1_555
H74 C79 1_555 1_555
C80 C79 1_555 1_555
C81 C80 1_555 1_555
H75 C81 1_555 1_555
C82 C77 1_555 1_555
H76 C82 1_555 1_555
C83 C80 1_555 1_555
C84 C83 1_555 1_555
C85 C83 1_555 1_555
C86 C85 1_555 1_555
H77 C86 1_555 1_555
C87 C86 1_555 1_555
H78 C87 1_555 1_555
C88 C87 1_555 1_555
C89 C88 1_555 1_555
H79 C89 1_555 1_555
C90 C85 1_555 1_555
H80 C90 1_555 1_555
O3 C88 1_555 1_555
C91 O3 1_555 1_555
H81 C91 1_555 1_555
H82 C91 1_555 1_555
C92 C91 1_555 1_555
H83 C92 1_555 1_555
H84 C92 1_555 1_555
O4 C92 1_555 1_555
C93 O4 1_555 1_555
H85 C93 1_555 1_555
H86 C93 1_555 1_555
C94 C93 1_555 1_555
H87 C94 1_555 1_555
H88 C94 1_555 1_555
O5 C94 1_555 1_555
C95 O5 1_555 1_555
H89 C95 1_555 1_555
H90 C95 1_555 1_555
C96 C95 1_555 1_555
H91 C96 1_555 1_555
H92 C96 1_555 1_555
O6 C96 1_555 1_555
C97 O6 1_555 1_555
H93 C97 1_555 1_555
H94 C97 1_555 1_555
C98 C97 1_555 1_555
H95 C98 1_555 1_555
H96 C98 1_555 1_555
O7 C98 1_555 1_555
C99 O7 1_555 1_555
H97 C99 1_555 1_555
H98 C99 1_555 1_555
C100 C99 1_555 1_555
H99 C100 1_555 1_555
H100 C100 1_555 1_555
O8 C100 1_555 1_555
C101 O8 1_555 1_555
C102 C101 1_555 1_555
H101 C102 1_555 1_555
C103 C102 1_555 1_555
H102 C103 1_555 1_555
C104 C84 1_555 1_555
C105 C104 1_555 1_555
H103 C105 1_555 1_555
C106 C101 1_555 1_555
H104 C106 1_555 1_555
C107 C84 1_555 1_555
C108 C107 1_555 1_555
H105 C108 1_555 1_555
C109 C108 1_555 1_555
H106 C109 1_555 1_555
C110 C109 1_555 1_555
C111 C110 1_555 1_555
H107 C111 1_555 1_555
C112 C107 1_555 1_555
H108 C112 1_555 1_555
C113 C110 1_555 1_555
C114 C28 1_555 1_555
O9 C4 1_555 1_555
O10 C8 1_555 1_555
O11 C10 1_555 1_555
O12 C12 1_555 1_555
O13 C14 1_555 1_555
O14 C16 1_555 1_555
O15 C50 1_555 1_555
O16 C54 1_555 1_555
O17 C56 1_555 1_555
O18 C58 1_555 1_555
C118 H116 1_555 1_555
Cl4 C118 1_555 1_555
Cl5 C118 1_555 1_555
Cl6 C118 1_555 1_555
C119 H117 1_555 1_555
Cl7 C119 1_555 1_555
Cl8 C119 1_555 1_555
Cl9 C119 1_555 1_555
N1 C120 1_555 1_555
C120 C121 1_555 1_555
C121 H118 1_555 1_555
H119 C121 1_555 1_555
H120 C121 1_555 1_555
C122 H121 1_555 1_555
H122 C122 1_555 1_555
H123 C122 1_555 1_555
C123 C122 1_555 1_555
N2 C123 1_555 1_555
C124 H124 1_555 1_555
H125 C124 1_555 1_555
H126 C124 1_555 1_555
C125 C124 1_555 1_555
N3 C125 1_555 1_555
C126 H127 1_555 1_555
H128 C126 1_555 1_555
H129 C126 1_555 1_555
C127 C126 1_555 1_555
N4 C127 1_555 1_555
C128 H130 1_555 1_555
H131 C128 1_555 1_555
H132 C128 1_555 1_555
C129 C128 1_555 1_555
N5 C129 1_555 1_555
C130 H133 1_555 1_555
Cl10 C130 1_555 1_555
Cl11 C130 1_555 1_555
Cl12 C130 1_555 1_555
C5 C6 1_555 1_555
C7 O9 1_555 1_555
C9 O10 1_555 1_555
C11 O11 1_555 1_555
C13 O12 1_555 1_555
C15 O13 1_555 1_555
C17 O14 1_555 1_555
C21 C22 1_555 1_555
C23 C24 1_555 1_555
C29 C30 1_555 1_555
C35 C36 1_555 1_555
C43 C44 1_555 1_555
C51 C52 1_555 1_555
C53 O15 1_555 1_555
C55 O16 1_555 1_555
C57 O17 1_555 1_555
C59 O18 1_555 1_555
C65 C66 1_555 1_555
C67 C68 1_555 1_555
C73 C74 1_555 1_555
C81 C82 1_555 1_555
C89 C90 1_555 1_555
C103 C104 1_555 1_555
C105 C106 1_555 1_555
C111 C112 1_555 1_555
C113 C114 1_555 1_555

#END
