
#######################################################################
#
#                 Cambridge Crystallographic Data Centre
#                                CCDC 
#
#######################################################################
#
# If this CIF has been generated from an entry in the Cambridge 
# Structural Database, then it will include bibliographic, chemical, 
# crystal, experimental, refinement or atomic coordinate data resulting 
# from the CCDC's data processing and validation procedures.
#
#######################################################################

data_SEZRIY
_chemical_formula_moiety         'C22 H25 N1'
_chemical_name_systematic        
(S)-(3a\a,4a\b,7a\b,7b\a)-4-(Biphenyl-4-yl)-octahydro-1H,5H-dicylopenta(b,d)pyrrole
_symmetry_cell_setting           triclinic
_symmetry_space_group_name_H-M   'P 1'
_symmetry_Int_Tables_number      1
_space_group_name_Hall           'P 1'
loop_
_symmetry_equiv_pos_site_id
_symmetry_equiv_pos_as_xyz
1 x,y,z
_cell_length_a                   8.521(2)
_cell_length_b                   8.656(2)
_cell_length_c                   12.002(3)
_cell_angle_alpha                104.51(2)
_cell_angle_beta                 90.18(2)
_cell_angle_gamma                92.58(2)
_cell_volume                     856.041
_chemical_melting_point          373-374K
_cell_formula_units_Z            2
loop_
_atom_site_label
_atom_site_type_symbol
_atom_site_fract_x
_atom_site_fract_y
_atom_site_fract_z
N1 N -0.0668 0.6982 0.8468
C1 C -0.1899(5) 0.5707(6) 0.8212(4)
C2 C -0.3399(6) 0.6093(7) 0.8923(5)
C3 C -0.4597(7) 0.6323(11) 0.8103(5)
C4 C -0.4196(6) 0.5579(9) 0.6960(5)
C5 C -0.2390(6) 0.5546(7) 0.6944(4)
C6 C -0.1527(6) 0.6953(6) 0.6582(2)
C7 C -0.0729(6) 0.6444(7) 0.5403(4)
C8 C 0.0727(6) 0.5629(7) 0.5666(4)
C9 C 0.1310(6) 0.6652(7) 0.6848(4)
C10 C -0.0153(5) 0.7488(6) 0.7449(4)
C11 C 0.0290(5) 0.7244(6) 0.9437(4)
C12 C 0.1632(5) 0.8281(6) 0.9575(4)
C13 C 0.2633(5) 0.8468(6) 1.0524(4)
C14 C 0.2358(5) 0.7646(5) 1.1373(4)
C15 C 0.0985(5) 0.6679(6) 1.1257(4)
C16 C -0.0036(5) 0.6466(6) 1.0325(4)
C17 C 0.3512(5) 0.7735(5) 1.2316(4)
C18 C 0.5127(6) 0.7882(6) 1.2132(4)
C19 C 0.6217(6) 0.7975(6) 1.3012(5)
C20 C 0.5722(7) 0.7909(6) 1.4099(5)
C21 C 0.4147(6) 0.7761(6) 1.4300(4)
C22 C 0.3042(6) 0.7660(6) 1.3427(4)
H1 H -0.1520(44) 0.4611(48) 0.8266(30)
H2 H -0.3137(58) 0.7099(64) 0.9620(45)
H3 H -0.3675(70) 0.5338(75) 0.9264(49)
H4 H -0.4664 0.7447 0.8173
H5 H -0.5594 0.5888 0.8280
H6 H -0.4652 0.4510 0.6758
H7 H -0.4563 0.6154 0.6429
H8 H -0.2063(43) 0.4514(48) 0.6480(32)
H9 H -0.2259(54) 0.7900(54) 0.6623(36)
H10 H -0.0479(51) 0.7418(55) 0.5107(37)
H11 H -0.1369(48) 0.5835(50) 0.4813(36)
H12 H 0.1523(47) 0.5630(45) 0.5075(34)
H13 H 0.0396(43) 0.4542(50) 0.5750(30)
H14 H 0.2030(52) 0.7511(54) 0.6771(36)
H15 H 0.1798(61) 0.5862(65) 0.7260(45)
H16 H 0.0097(49) 0.8670(55) 0.7660(35)
H17 H 0.1857(40) 0.8917(44) 0.8996(31)
H18 H 0.3587(43) 0.9194(42) 1.0572(29)
H19 H 0.0708(39) 0.6103(42) 1.1835(29)
H20 H -0.1012(48) 0.5873(45) 1.0297(30)
H21 H 0.5501(42) 0.7968(42) 1.1368(32)
H22 H 0.7297(52) 0.8095(48) 1.2881(33)
H23 H 0.6428(48) 0.7996(47) 1.4753(36)
H24 H 0.3814(44) 0.7662(46) 1.5101(35)
H25 H 0.1954(56) 0.7676(50) 1.3599(36)
N2 N 0.5554(4) 0.2361(5) 1.0548(3)
C23 C 0.6764(5) 0.1239(6) 1.0601(4)
C24 C 0.8273(6) 0.1439(7) 0.9927(4)
C25 C 0.9546(6) 0.2188(7) 1.0834(5)
C26 C 0.9078(5) 0.1574(7) 1.1871(5)
C27 C 0.7284(5) 0.1614(6) 1.1879(4)
C28 C 0.6653(6) 0.3285(6) 1.2432(4)
C29 C 0.5955(6) 0.3442(7) 1.3618(4)
C30 C 0.4324(6) 0.2600(7) 1.3363(4)
C31 C 0.3765(6) 0.3071(7) 1.2288(4)
C32 C 0.5258(5) 0.3460(6) 1.1659(4)
C33 C 0.4609(5) 0.2215(6) 0.9594(4)
C34 C 0.3333(5) 0.3200(6) 0.9610(4)
C35 C 0.2330(6) 0.2969(6) 0.8671(4)
C36 C 0.2539(5) 0.1797(6) 0.7653(4)
C37 C 0.3858(6) 0.0875(6) 0.7616(4)
C38 C 0.4862(6) 0.1066(6) 0.8559(4)
C39 C 0.1397(5) 0.1510(6) 0.6677(4)
C40 C -0.0218(6) 0.1556(6) 0.6877(5)
C41 C -0.1294(6) 0.1262(6) 0.5973(5)
C42 C -0.0781(6) 0.0926(6) 0.4848(5)
C43 C 0.0803(6) 0.0862(6) 0.4635(4)
C44 C 0.1886(6) 0.1158(6) 0.5536(4)
H26 H 0.6348(41) 0.0113(46) 1.0303(30)
H27 H 0.8523(46) 0.0394(52) 0.9535(34)
H28 H 0.8138(55) 0.2054(53) 0.9355(42)
H29 H 1.0777(50) 0.1790(50) 1.0500(35)
H30 H 0.9406(54) 0.3287(63) 1.1067(40)
H31 H 0.9398(44) 0.0454(50) 1.1764(32)
H32 H 0.9520(53) 0.2156(54) 1.2618(40)
H33 H 0.6779(45) 0.0794(46) 1.2276(32)
H34 H 0.7529(46) 0.4147(48) 1.2453(33)
H35 H 0.6698(52) 0.2934(53) 1.4098(38)
H36 H 0.5890(57) 0.4662(65) 1.4068(44)
H37 H 0.4332(65) 0.1284(73) 1.3228(47)
H38 H 0.3668(49) 0.2954(48) 1.4016(37)
H39 H 0.2997(60) 0.2280(57) 1.1761(41)
H40 H 0.3179(51) 0.4080(56) 1.2508(37)
H41 H 0.5240(44) 0.4482(48) 1.1532(31)
H42 H 0.3170(40) 0.3996(42) 1.0245(30)
H43 H 0.1474(50) 0.3699(50) 0.8670(33)
H44 H 0.4038(41) 0.0014(45) 0.6908(31)
H45 H 0.5771(48) 0.0441(51) 0.8507(32)
H46 H -0.0589(45) 0.1706(44) 0.7636(34)
H47 H -0.2476(57) 0.1216(54) 0.6201(38)
H48 H -0.1546(47) 0.0665(47) 0.4257(36)
H49 H 0.1274(46) 0.0767(47) 0.3886(36)
H50 H 0.2975(54) 0.1155(50) 0.5374(35)
loop_
_geom_bond_atom_site_label_1
_geom_bond_atom_site_label_2
_geom_bond_site_symmetry_1
_geom_bond_site_symmetry_2
N1 C1 1_555 1_555
C1 C2 1_555 1_555
C2 C3 1_555 1_555
C3 C4 1_555 1_555
C4 C5 1_555 1_555
C5 C1 1_555 1_555
C6 C5 1_555 1_555
C7 C6 1_555 1_555
C8 C7 1_555 1_555
C9 C8 1_555 1_555
C10 N1 1_555 1_555
C11 N1 1_555 1_555
C12 C11 1_555 1_555
C13 C12 1_555 1_555
C14 C13 1_555 1_555
C15 C14 1_555 1_555
C16 C11 1_555 1_555
C17 C14 1_555 1_555
C18 C17 1_555 1_555
C19 C18 1_555 1_555
C20 C19 1_555 1_555
C21 C20 1_555 1_555
C22 C17 1_555 1_555
N2 C23 1_555 1_555
C23 C24 1_555 1_555
C24 C25 1_555 1_555
C25 C26 1_555 1_555
C26 C27 1_555 1_555
C27 C23 1_555 1_555
C28 C27 1_555 1_555
C29 C28 1_555 1_555
C30 C29 1_555 1_555
C31 C30 1_555 1_555
C32 N2 1_555 1_555
C33 N2 1_555 1_555
C34 C33 1_555 1_555
C35 C34 1_555 1_555
C36 C35 1_555 1_555
C37 C36 1_555 1_555
C38 C33 1_555 1_555
C39 C36 1_555 1_555
C40 C39 1_555 1_555
C41 C40 1_555 1_555
C42 C41 1_555 1_555
C43 C42 1_555 1_555
C44 C39 1_555 1_555
H1 C1 1_555 1_555
H2 C2 1_555 1_555
H3 C2 1_555 1_555
H4 C3 1_555 1_555
H5 C3 1_555 1_555
H6 C4 1_555 1_555
H7 C4 1_555 1_555
H8 C5 1_555 1_555
H9 C6 1_555 1_555
H10 C7 1_555 1_555
H11 C7 1_555 1_555
H12 C8 1_555 1_555
H13 C8 1_555 1_555
H14 C9 1_555 1_555
H15 C9 1_555 1_555
H16 C10 1_555 1_555
H17 C12 1_555 1_555
H18 C13 1_555 1_555
H19 C15 1_555 1_555
H20 C16 1_555 1_555
H21 C18 1_555 1_555
H22 C19 1_555 1_555
H23 C20 1_555 1_555
H24 C21 1_555 1_555
H25 C22 1_555 1_555
H26 C23 1_555 1_555
H27 C24 1_555 1_555
H28 C24 1_555 1_555
H29 C25 1_555 1_555
H30 C25 1_555 1_555
H31 C26 1_555 1_555
H32 C26 1_555 1_555
H33 C27 1_555 1_555
H34 C28 1_555 1_555
H35 C29 1_555 1_555
H36 C29 1_555 1_555
H37 C30 1_555 1_555
H38 C30 1_555 1_555
H39 C31 1_555 1_555
H40 C31 1_555 1_555
H41 C32 1_555 1_555
H42 C34 1_555 1_555
H43 C35 1_555 1_555
H44 C37 1_555 1_555
H45 C38 1_555 1_555
H46 C40 1_555 1_555
H47 C41 1_555 1_555
H48 C42 1_555 1_555
H49 C43 1_555 1_555
H50 C44 1_555 1_555
C6 C10 1_555 1_555
C9 C10 1_555 1_555
C15 C16 1_555 1_555
C21 C22 1_555 1_555
C28 C32 1_555 1_555
C31 C32 1_555 1_555
C37 C38 1_555 1_555
C43 C44 1_555 1_555

#END
