
#######################################################################
#
#                 Cambridge Crystallographic Data Centre
#                                CCDC 
#
#######################################################################
#
# If this CIF has been generated from an entry in the Cambridge 
# Structural Database, then it will include bibliographic, chemical, 
# crystal, experimental, refinement or atomic coordinate data resulting 
# from the CCDC's data processing and validation procedures.
#
#######################################################################

data_SEZTEZ
_chemical_formula_moiety         'C24 H18 Br1 N1 O2 S1'
_chemical_name_systematic        
(R)-1-((4-bromophenyl)sulfonyl)-2-phenyl-2,3-dihydro-1H-benzo[g]indole
_symmetry_cell_setting           monoclinic
_symmetry_space_group_name_H-M   'P 21'
_symmetry_Int_Tables_number      4
_space_group_name_Hall           'P 2yb'
loop_
_symmetry_equiv_pos_site_id
_symmetry_equiv_pos_as_xyz
1 x,y,z
2 -x,1/2+y,-z
_cell_length_a                   11.2737(10)
_cell_length_b                   8.0033(8)
_cell_length_c                   11.9357(10)
_cell_angle_alpha                90
_cell_angle_beta                 108.605(9)
_cell_angle_gamma                90
_cell_volume                     1020.64
_exptl_crystal_colour            colorless
_exptl_crystal_description       block
_cell_formula_units_Z            2
loop_
_atom_site_label
_atom_site_type_symbol
_atom_site_fract_x
_atom_site_fract_y
_atom_site_fract_z
Br1 Br -0.49918(6) -0.06759(13) -0.15593(6)
S1 S -0.86848(14) -0.6671(2) -0.39326(11)
O1 O -0.7998(4) -0.8201(6) -0.3666(3)
O2 O -0.9358(4) -0.6272(6) -0.5137(3)
N1 N -0.9743(4) -0.6699(7) -0.3230(3)
C1 C -0.9251(5) -0.6687(9) -0.1945(4)
C2 C -0.8687(5) -0.8019(8) -0.1214(4)
C3 C -0.8556(5) -0.9661(9) -0.1596(5)
H1 H -0.8862 -0.9914 -0.2397
C4 C -0.7991(5) -1.0872(11) -0.0812(5)
H2 H -0.7946 -1.1950 -0.1086
C5 C -0.7478(6) -1.0544(13) 0.0393(5)
H3 H -0.7062 -1.1379 0.0913
C6 C -0.7594(6) -0.8986(11) 0.0797(5)
H4 H -0.7253 -0.8769 0.1602
C7 C -0.8219(5) -0.7675(10) 0.0032(5)
C8 C -0.8425(5) -0.6110(10) 0.0457(5)
H5 H -0.8112 -0.5899 0.1265
C9 C -0.9077(5) -0.4872(9) -0.0288(5)
H6 H -0.9244 -0.3858 0.0012
C10 C -0.9490(5) -0.5180(8) -0.1525(4)
C11 C -1.0221(5) -0.4045(8) -0.2510(4)
H7 H -0.9691 -0.3201 -0.2690
H8 H -1.0909 -0.3507 -0.2329
C12 C -1.0694(5) -0.5335(9) -0.3530(4)
H9 H -1.0720 -0.4817 -0.4282
C13 C -1.1981(5) -0.6002(9) -0.3614(4)
C14 C -1.2183(6) -0.7631(11) -0.3329(5)
H10 H -1.1523 -0.8386 -0.3100
C15 C -1.3372(7) -0.8122(11) -0.3387(5)
H11 H -1.3497 -0.9214 -0.3182
C16 C -1.4369(6) -0.7074(13) -0.3732(6)
H12 H -1.5163 -0.7438 -0.3769
C17 C -1.4172(6) -0.5447(14) -0.4030(5)
H13 H -1.4841 -0.4705 -0.4270
C18 C -1.2997(5) -0.4926(10) -0.3971(4)
H14 H -1.2877 -0.3832 -0.4173
C19 C -0.7644(5) -0.5025(8) -0.3317(4)
C20 C -0.6646(5) -0.5320(10) -0.2274(4)
H15 H -0.6516 -0.6377 -0.1934
C21 C -0.5862(6) -0.4014(10) -0.1765(5)
H16 H -0.5203 -0.4172 -0.1068
C22 C -0.6068(5) -0.2488(10) -0.2297(5)
C23 C -0.7020(5) -0.2163(9) -0.3322(5)
H17 H -0.7136 -0.1105 -0.3662
C24 C -0.7801(6) -0.3482(9) -0.3825(5)
H18 H -0.8449 -0.3311 -0.4528
loop_
_geom_bond_atom_site_label_1
_geom_bond_atom_site_label_2
_geom_bond_site_symmetry_1
_geom_bond_site_symmetry_2
Br1 C22 1_555 1_555
S1 O1 1_555 1_555
O2 S1 1_555 1_555
N1 S1 1_555 1_555
C1 N1 1_555 1_555
C2 C1 1_555 1_555
C3 C2 1_555 1_555
H1 C3 1_555 1_555
C4 C3 1_555 1_555
H2 C4 1_555 1_555
C5 C4 1_555 1_555
H3 C5 1_555 1_555
C6 C5 1_555 1_555
H4 C6 1_555 1_555
C7 C2 1_555 1_555
C8 C7 1_555 1_555
H5 C8 1_555 1_555
C9 C8 1_555 1_555
H6 C9 1_555 1_555
C10 C1 1_555 1_555
C11 C10 1_555 1_555
H7 C11 1_555 1_555
H8 C11 1_555 1_555
C12 N1 1_555 1_555
H9 C12 1_555 1_555
C13 C12 1_555 1_555
C14 C13 1_555 1_555
H10 C14 1_555 1_555
C15 C14 1_555 1_555
H11 C15 1_555 1_555
C16 C15 1_555 1_555
H12 C16 1_555 1_555
C17 C16 1_555 1_555
H13 C17 1_555 1_555
C18 C13 1_555 1_555
H14 C18 1_555 1_555
C19 S1 1_555 1_555
C20 C19 1_555 1_555
H15 C20 1_555 1_555
C21 C20 1_555 1_555
H16 C21 1_555 1_555
C22 C21 1_555 1_555
C23 C22 1_555 1_555
H17 C23 1_555 1_555
C24 C19 1_555 1_555
H18 C24 1_555 1_555
C6 C7 1_555 1_555
C9 C10 1_555 1_555
C11 C12 1_555 1_555
C17 C18 1_555 1_555
C23 C24 1_555 1_555

#END
