
#######################################################################
#
#                 Cambridge Crystallographic Data Centre
#                                CCDC 
#
#######################################################################
#
# If this CIF has been generated from an entry in the Cambridge 
# Structural Database, then it will include bibliographic, chemical, 
# crystal, experimental, refinement or atomic coordinate data resulting 
# from the CCDC's data processing and validation procedures.
#
#######################################################################

data_SEZWOM
_chemical_formula_moiety         'C35 H30 O10,2(C10 H8 N2)'
_chemical_name_systematic        
"4,9,14,19,24,26,28,30,32,34-decahydroxypillar[5]arene bis(4,4'-bipyridine) unknown solvate"
_symmetry_cell_setting           triclinic
_symmetry_space_group_name_H-M   'P -1'
_symmetry_Int_Tables_number      2
_space_group_name_Hall           '-P 1'
loop_
_symmetry_equiv_pos_site_id
_symmetry_equiv_pos_as_xyz
1 x,y,z
2 -x,-y,-z
_cell_length_a                   15.3667(9)
_cell_length_b                   15.6328(9)
_cell_length_c                   15.7002(9)
_cell_angle_alpha                67.7639(17)
_cell_angle_beta                 67.4261(19)
_cell_angle_gamma                73.0486(18)
_cell_volume                     3176.05
_exptl_crystal_colour            colorless
_exptl_crystal_description       block
_cell_formula_units_Z            2
loop_
_atom_site_label
_atom_site_type_symbol
_atom_site_fract_x
_atom_site_fract_y
_atom_site_fract_z
O1 O -0.06466(16) 0.34147(13) -0.33088(14)
H1 H -0.094342 0.305735 -0.331190
O2 O 0.11452(13) 0.18057(12) -0.04796(13)
H2 H 0.091499 0.207524 -0.006404
O3 O 0.03786(12) 0.27303(12) 0.08137(12)
H3 H 0.031070 0.251626 0.139518
O4 O -0.23341(12) 0.59189(11) 0.01938(12)
H4 H -0.224023 0.619854 -0.038469
O5 O -0.41031(13) 0.56053(12) 0.10992(14)
H5 H -0.355021 0.569978 0.083148
O6 O -0.42670(14) 0.19450(13) 0.34352(15)
H6 H -0.389004 0.176747 0.374655
O7 O -0.48389(18) 0.07915(15) 0.28740(16)
H7 H -0.470109 0.111030 0.310011
O8 O -0.48377(16) 0.26559(14) -0.08992(14)
H8 H -0.512830 0.319577 -0.096208
O9 O -0.25551(13) -0.03137(13) 0.02393(14)
H9 H -0.207091 -0.069471 0.030373
O10 O -0.17168(13) 0.23003(13) -0.33811(13)
H10 H -0.221159 0.262126 -0.349096
C1 C 0.00517(17) 0.20084(17) -0.22626(18)
C2 C -0.02137(19) 0.29756(18) -0.25926(18)
C3 C -0.00271(18) 0.35507(18) -0.22225(17)
H11 H -0.021212 0.419602 -0.245325
C4 C 0.04303(17) 0.31964(16) -0.15131(17)
C5 C 0.06782(17) 0.22269(17) -0.11736(18)
C6 C 0.04955(17) 0.16508(17) -0.15424(18)
H12 H 0.067264 0.100507 -0.130517
C7 C 0.06205(18) 0.38626(17) -0.11372(17)
H13 H 0.118859 0.358364 -0.093384
H14 H 0.074559 0.443945 -0.165784
C8 C -0.02047(17) 0.40908(16) -0.02980(17)
C9 C -0.03131(17) 0.35112(16) 0.06470(18)
C10 C -0.10907(18) 0.37130(16) 0.14035(18)
H15 H -0.115583 0.330541 0.202728
C11 C -0.17741(17) 0.45097(16) 0.12507(17)
C12 C -0.16530(18) 0.51106(16) 0.03121(18)
C13 C -0.08955(18) 0.49012(16) -0.04434(18)
H16 H -0.083860 0.530631 -0.106717
C14 C -0.26438(18) 0.46770(17) 0.20883(17)
H17 H -0.247100 0.441933 0.268043
H18 H -0.286265 0.534631 0.198036
C15 C -0.34429(17) 0.42269(17) 0.21980(17)
C16 C -0.41061(18) 0.46894(17) 0.16893(17)
C17 C -0.47994(18) 0.42363(18) 0.17740(18)
H19 H -0.523418 0.455747 0.143073
C18 C -0.48673(18) 0.33163(17) 0.23559(18)
C19 C -0.42065(18) 0.28582(17) 0.28578(18)
C20 C -0.35062(18) 0.33014(17) 0.27751(17)
H20 H -0.306725 0.297453 0.311229
C21 C -0.56033(18) 0.28216(19) 0.23964(19)
H21 H -0.582234 0.240426 0.304642
H22 H -0.614998 0.328567 0.226261
C22 C -0.52288(18) 0.22618(18) 0.16904(19)
C23 C -0.4873(2) 0.13042(19) 0.1948(2)
C24 C -0.45420(19) 0.08108(18) 0.1283(2)
H23 H -0.432854 0.016756 0.148079
C25 C -0.45218(17) 0.12591(18) 0.0320(2)
C26 C -0.48573(18) 0.22241(18) 0.0050(2)
C27 C -0.52033(18) 0.27113(18) 0.0725(2)
H24 H -0.542384 0.335338 0.053014
C28 C -0.41110(18) 0.07376(18) -0.0430(2)
H25 H -0.413070 0.007467 -0.010702
H26 H -0.450195 0.096484 -0.085720
C29 C -0.30884(18) 0.08670(17) -0.10243(19)
C30 C -0.23392(19) 0.03467(17) -0.0653(2)
C31 C -0.14121(18) 0.05065(17) -0.11770(19)
H27 H -0.092158 0.016186 -0.091261
C32 C -0.11933(18) 0.11647(17) -0.20842(18)
C33 C -0.19365(18) 0.16611(17) -0.24734(18)
C34 C -0.28746(19) 0.15154(17) -0.19446(19)
H28 H -0.336498 0.185641 -0.221041
C35 C -0.01779(18) 0.13485(18) -0.26163(19)
H29 H 0.026398 0.075930 -0.252016
H30 H -0.009500 0.161955 -0.330387
N1 N -0.22401(16) 0.72801(16) -0.14439(17)
N2 N -0.32132(19) 1.11733(17) -0.53305(19)
C36 C -0.2570(2) 0.8128(2) -0.1340(2)
H31 H -0.268987 0.818902 -0.073627
C37 C -0.2747(2) 0.89294(19) -0.20714(19)
H32 H -0.297740 0.950920 -0.195830
C38 C -0.25772(18) 0.88536(18) -0.2972(2)
C39 C -0.2226(2) 0.79617(19) -0.3089(2)
H33 H -0.209454 0.787485 -0.368313
C40 C -0.2077(2) 0.7211(2) -0.2308(2)
H34 H -0.184801 0.662004 -0.239406
C41 C -0.2768(2) 0.96731(19) -0.37892(19)
C42 C -0.3509(2) 1.04142(19) -0.3635(2)
H35 H -0.387190 1.042494 -0.300840
C43 C -0.3702(2) 1.1132(2) -0.4415(2)
H36 H -0.420462 1.161839 -0.429422
C44 C -0.2478(2) 1.0482(2) -0.5479(2)
H37 H -0.210698 1.050691 -0.611306
C45 C -0.2240(2) 0.9730(2) -0.4739(2)
H38 H -0.172286 0.926162 -0.488155
N3 N -0.00757(16) -0.17263(15) -0.27245(15)
C46 C -0.0446(2) -0.08338(18) -0.28044(19)
H39 H -0.073125 -0.066030 -0.224018
C47 C -0.0438(2) -0.01479(18) -0.36664(18)
H40 H -0.071933 0.046665 -0.367118
C48 C -0.00148(17) -0.03620(16) -0.45249(17)
C49 C 0.0374(2) -0.1300(2) -0.4444(2)
H41 H 0.066596 -0.149420 -0.499579
C50 C 0.0326(2) -0.1943(2) -0.3544(2)
H42 H 0.059222 -0.256641 -0.351126
N3A N 0.00757(16) 0.17263(15) -0.72755(15)
C46A C 0.0446(2) 0.08338(18) -0.71956(19)
H39A H 0.073125 0.066030 -0.775982
C47A C 0.0438(2) 0.01479(18) -0.63336(18)
H40A H 0.071933 -0.046665 -0.632882
C48A C 0.00148(17) 0.03620(16) -0.54751(17)
C49A C -0.0374(2) 0.1300(2) -0.5556(2)
H41A H -0.066596 0.149420 -0.500421
C50A C -0.0326(2) 0.1943(2) -0.6456(2)
H42A H -0.059222 0.256641 -0.648874
N4 N -0.32194(18) 0.34445(19) -0.39641(19)
C51 C -0.3279(2) 0.3478(2) -0.4771(2)
H43 H -0.282260 0.307077 -0.509424
C52 C -0.3960(2) 0.4063(2) -0.5201(2)
H44 H -0.395665 0.402927 -0.578086
C53 C -0.4623(2) 0.4678(2) -0.4784(2)
C54 C -0.4383(5) 0.4880(6) -0.4086(5)
H45 H -0.468306 0.542242 -0.390591
C55 C -0.3696(6) 0.4249(6) -0.3693(5)
H46 H -0.354766 0.436612 -0.323079
N4A N -0.67806(18) 0.65555(19) -0.60359(19)
C51A C -0.6721(2) 0.6522(2) -0.5229(2)
H43A H -0.717740 0.692923 -0.490576
C52A C -0.6040(2) 0.5937(2) -0.4799(2)
H44A H -0.604335 0.597073 -0.421914
C53A C -0.5377(2) 0.5322(2) -0.5216(2)
C54A C -0.5617(5) 0.5120(6) -0.5914(5)
H45A H -0.531694 0.457758 -0.609409
C55A C -0.6304(6) 0.5751(6) -0.6307(5)
H46A H -0.645234 0.563388 -0.676921
C56? C -0.4820(7) 0.4332(8) -0.3751(6)
H47? H -0.541166 0.451935 -0.333991
C57? C -0.4117(7) 0.3723(9) -0.3390(6)
H48? H -0.425050 0.348300 -0.272200
loop_
_geom_bond_atom_site_label_1
_geom_bond_atom_site_label_2
_geom_bond_site_symmetry_1
_geom_bond_site_symmetry_2
O1 H1 1_555 1_555
O2 H2 1_555 1_555
O3 H3 1_555 1_555
O4 H4 1_555 1_555
O5 H5 1_555 1_555
O6 H6 1_555 1_555
O7 H7 1_555 1_555
O8 H8 1_555 1_555
O9 H9 1_555 1_555
O10 H10 1_555 1_555
C1 C2 1_555 1_555
C2 O1 1_555 1_555
C3 C2 1_555 1_555
H11 C3 1_555 1_555
C4 C3 1_555 1_555
C5 O2 1_555 1_555
C6 C1 1_555 1_555
H12 C6 1_555 1_555
C7 C4 1_555 1_555
H13 C7 1_555 1_555
H14 C7 1_555 1_555
C8 C7 1_555 1_555
C9 O3 1_555 1_555
C10 C9 1_555 1_555
H15 C10 1_555 1_555
C11 C10 1_555 1_555
C12 O4 1_555 1_555
C13 C8 1_555 1_555
H16 C13 1_555 1_555
C14 C11 1_555 1_555
H17 C14 1_555 1_555
H18 C14 1_555 1_555
C15 C14 1_555 1_555
C16 O5 1_555 1_555
C17 C16 1_555 1_555
H19 C17 1_555 1_555
C18 C17 1_555 1_555
C19 O6 1_555 1_555
C20 C15 1_555 1_555
H20 C20 1_555 1_555
C21 C18 1_555 1_555
H21 C21 1_555 1_555
H22 C21 1_555 1_555
C22 C21 1_555 1_555
C23 O7 1_555 1_555
C24 C23 1_555 1_555
H23 C24 1_555 1_555
C25 C24 1_555 1_555
C26 O8 1_555 1_555
C27 C22 1_555 1_555
H24 C27 1_555 1_555
C28 C25 1_555 1_555
H25 C28 1_555 1_555
H26 C28 1_555 1_555
C29 C28 1_555 1_555
C30 O9 1_555 1_555
C31 C30 1_555 1_555
H27 C31 1_555 1_555
C32 C31 1_555 1_555
C33 O10 1_555 1_555
C34 C29 1_555 1_555
H28 C34 1_555 1_555
C35 C1 1_555 1_555
H29 C35 1_555 1_555
H30 C35 1_555 1_555
N1 C36 1_555 1_555
N2 C43 1_555 1_555
C36 H31 1_555 1_555
C37 C36 1_555 1_555
H32 C37 1_555 1_555
C38 C37 1_555 1_555
C39 C38 1_555 1_555
H33 C39 1_555 1_555
C40 N1 1_555 1_555
H34 C40 1_555 1_555
C41 C38 1_555 1_555
C42 C41 1_555 1_555
H35 C42 1_555 1_555
C43 C42 1_555 1_555
H36 C43 1_555 1_555
C44 N2 1_555 1_555
H37 C44 1_555 1_555
C45 C41 1_555 1_555
H38 C45 1_555 1_555
N3 C46 1_555 1_555
C46 H39 1_555 1_555
C47 C46 1_555 1_555
H40 C47 1_555 1_555
C48 C47 1_555 1_555
C49 C48 1_555 1_555
H41 C49 1_555 1_555
C50 N3 1_555 1_555
H42 C50 1_555 1_555
N4 C51 1_555 1_555
C51 H43 1_555 1_555
C52 C51 1_555 1_555
H44 C52 1_555 1_555
C53 C52 1_555 1_555
C54 C53 1_555 1_555
H45 C54 1_555 1_555
C55 N4 1_555 1_555
H46 C55 1_555 1_555
N3A C46A 1_555 1_555
C46A H39A 1_555 1_555
C47A C46A 1_555 1_555
H40A C47A 1_555 1_555
C48A C48 1_555 1_555
C49A C48A 1_555 1_555
H41A C49A 1_555 1_555
C50A N3A 1_555 1_555
H42A C50A 1_555 1_555
N4A C51A 1_555 1_555
C51A H43A 1_555 1_555
C52A C51A 1_555 1_555
H44A C52A 1_555 1_555
C53A C53 1_555 1_555
C54A C53A 1_555 1_555
H45A C54A 1_555 1_555
C55A N4A 1_555 1_555
H46A C55A 1_555 1_555
C4 C5 1_555 1_555
C5 C6 1_555 1_555
C8 C9 1_555 1_555
C11 C12 1_555 1_555
C12 C13 1_555 1_555
C15 C16 1_555 1_555
C18 C19 1_555 1_555
C19 C20 1_555 1_555
C22 C23 1_555 1_555
C25 C26 1_555 1_555
C26 C27 1_555 1_555
C29 C30 1_555 1_555
C32 C33 1_555 1_555
C32 C35 1_555 1_555
C33 C34 1_555 1_555
C39 C40 1_555 1_555
C44 C45 1_555 1_555
C49 C50 1_555 1_555
C54 C55 1_555 1_555
C47A C48A 1_555 1_555
C49A C50A 1_555 1_555
C52A C53A 1_555 1_555
C54A C55A 1_555 1_555

#END
