
#######################################################################
#
#                 Cambridge Crystallographic Data Centre
#                                CCDC 
#
#######################################################################
#
# If this CIF has been generated from an entry in the Cambridge 
# Structural Database, then it will include bibliographic, chemical, 
# crystal, experimental, refinement or atomic coordinate data resulting 
# from the CCDC's data processing and validation procedures.
#
#######################################################################

data_SEZXAY
_chemical_formula_moiety         'C30 H30 N2 O1,C4 H10 O1'
_chemical_name_systematic        
'3-(6-(((2,6-Diisopropylphenyl)imino)methyl)pyridin-2-yl)biphenyl-2-ol diethyl ether solvate'
_symmetry_cell_setting           triclinic
_symmetry_space_group_name_H-M   'P -1'
_symmetry_Int_Tables_number      2
_space_group_name_Hall           '-P 1'
loop_
_symmetry_equiv_pos_site_id
_symmetry_equiv_pos_as_xyz
1 x,y,z
2 -x,-y,-z
_cell_length_a                   8.9542(16)
_cell_length_b                   12.028(2)
_cell_length_c                   14.082(3)
_cell_angle_alpha                89.451(3)
_cell_angle_beta                 85.613(4)
_cell_angle_gamma                81.432(4)
_cell_volume                     1495.32
_exptl_crystal_colour            yellow
_exptl_crystal_description       block
_cell_formula_units_Z            2
loop_
_atom_site_label
_atom_site_type_symbol
_atom_site_fract_x
_atom_site_fract_y
_atom_site_fract_z
O1 O 0.2939(2) 0.29147(14) 0.77823(12)
H1 H 0.2343 0.3524 0.7784
N1 N 0.1449(2) 0.47546(17) 0.84173(14)
N2 N -0.1296(2) 0.64953(17) 0.71652(14)
C1 C 0.5436(3) 0.1319(2) 0.6956(2)
H2 H 0.5331 0.2088 0.6776
C2 C 0.5831(3) 0.0491(3) 0.6260(2)
H3 H 0.5975 0.0699 0.5611
C3 C 0.6015(3) -0.0627(3) 0.6508(2)
H4 H 0.6304 -0.1192 0.6035
C4 C 0.5774(3) -0.0917(3) 0.7451(2)
H5 H 0.5890 -0.1687 0.7630
C5 C 0.5363(3) -0.0088(2) 0.8140(2)
H6 H 0.5195 -0.0299 0.8787
C6 C 0.5193(3) 0.1042(2) 0.7902(2)
C7 C 0.4819(3) 0.1911(2) 0.86644(18)
C8 C 0.5583(3) 0.1809(2) 0.94885(19)
H7 H 0.6346 0.1181 0.9558
C9 C 0.5267(3) 0.2594(2) 1.0208(2)
H8 H 0.5809 0.2503 1.0765
C10 C 0.4172(3) 0.3505(2) 1.01227(19)
H9 H 0.3961 0.4042 1.0624
C11 C 0.3352(3) 0.3662(2) 0.93061(17)
C12 C 0.3689(3) 0.2843(2) 0.85807(18)
C13 C 0.2198(3) 0.4671(2) 0.92212(17)
C14 C 0.1910(3) 0.5535(2) 0.98928(18)
H10 H 0.2442 0.5482 1.0454
C15 C 0.0864(3) 0.6459(2) 0.97470(19)
H11 H 0.0661 0.7045 1.0208
C16 C 0.0098(3) 0.6537(2) 0.89193(18)
H12 H -0.0635 0.7171 0.8805
C17 C 0.0431(3) 0.5671(2) 0.82727(17)
C18 C -0.0284(3) 0.5702(2) 0.73715(17)
H13 H 0.0022 0.5107 0.6927
C19 C -0.1936(3) 0.6480(2) 0.62674(17)
C20 C -0.1175(3) 0.6816(2) 0.54307(18)
C21 C -0.1900(3) 0.6810(2) 0.45948(19)
H14 H -0.1411 0.7038 0.4019
C22 C -0.3298(3) 0.6486(2) 0.45762(19)
H15 H -0.3745 0.6458 0.3988
C23 C -0.4057(3) 0.6200(2) 0.54099(19)
H16 H -0.5041 0.5999 0.5393
C24 C -0.3404(3) 0.6201(2) 0.62768(18)
C25 C -0.4221(3) 0.5898(2) 0.71993(18)
H17 H -0.3838 0.6314 0.7719
C26 C -0.5938(3) 0.6269(3) 0.7227(2)
H18 H -0.6147 0.7059 0.7037
H19 H -0.6389 0.6180 0.7875
H20 H -0.6377 0.5803 0.6787
C27 C -0.3842(3) 0.4646(2) 0.7417(2)
H21 H -0.4204 0.4208 0.6922
H22 H -0.4336 0.4484 0.8037
H23 H -0.2742 0.4442 0.7430
C28 C 0.0325(3) 0.7259(2) 0.54459(19)
H24 H 0.0681 0.7155 0.6101
C29 C 0.1525(3) 0.6636(3) 0.4747(2)
H25 H 0.1686 0.5835 0.4910
H26 H 0.2476 0.6942 0.4778
H27 H 0.1191 0.6728 0.4100
C30 C 0.0106(4) 0.8518(3) 0.5214(3)
H28 H -0.0271 0.8636 0.4580
H29 H 0.1076 0.8800 0.5225
H30 H -0.0628 0.8923 0.5689
loop_
_geom_bond_atom_site_label_1
_geom_bond_atom_site_label_2
_geom_bond_site_symmetry_1
_geom_bond_site_symmetry_2
O1 H1 1_555 1_555
N1 C13 1_555 1_555
N2 C18 1_555 1_555
C1 H2 1_555 1_555
C2 C1 1_555 1_555
H3 C2 1_555 1_555
C3 C2 1_555 1_555
H4 C3 1_555 1_555
C4 C3 1_555 1_555
H5 C4 1_555 1_555
C5 C4 1_555 1_555
H6 C5 1_555 1_555
C6 C1 1_555 1_555
C7 C6 1_555 1_555
C8 C7 1_555 1_555
H7 C8 1_555 1_555
C9 C8 1_555 1_555
H8 C9 1_555 1_555
C10 C9 1_555 1_555
H9 C10 1_555 1_555
C11 C10 1_555 1_555
C12 O1 1_555 1_555
C13 C11 1_555 1_555
C14 C13 1_555 1_555
H10 C14 1_555 1_555
C15 C14 1_555 1_555
H11 C15 1_555 1_555
C16 C15 1_555 1_555
H12 C16 1_555 1_555
C17 N1 1_555 1_555
C18 C17 1_555 1_555
H13 C18 1_555 1_555
C19 N2 1_555 1_555
C20 C19 1_555 1_555
C21 C20 1_555 1_555
H14 C21 1_555 1_555
C22 C21 1_555 1_555
H15 C22 1_555 1_555
C23 C22 1_555 1_555
H16 C23 1_555 1_555
C24 C19 1_555 1_555
C25 C24 1_555 1_555
H17 C25 1_555 1_555
C26 C25 1_555 1_555
H18 C26 1_555 1_555
H19 C26 1_555 1_555
H20 C26 1_555 1_555
C27 C25 1_555 1_555
H21 C27 1_555 1_555
H22 C27 1_555 1_555
H23 C27 1_555 1_555
C28 C20 1_555 1_555
H24 C28 1_555 1_555
C29 C28 1_555 1_555
H25 C29 1_555 1_555
H26 C29 1_555 1_555
H27 C29 1_555 1_555
C30 C28 1_555 1_555
H28 C30 1_555 1_555
H29 C30 1_555 1_555
H30 C30 1_555 1_555
C5 C6 1_555 1_555
C7 C12 1_555 1_555
C11 C12 1_555 1_555
C16 C17 1_555 1_555
C23 C24 1_555 1_555

#END
