
#######################################################################
#
#                 Cambridge Crystallographic Data Centre
#                                CCDC 
#
#######################################################################
#
# If this CIF has been generated from an entry in the Cambridge 
# Structural Database, then it will include bibliographic, chemical, 
# crystal, experimental, refinement or atomic coordinate data resulting 
# from the CCDC's data processing and validation procedures.
#
#######################################################################

data_SIBDEM
_chemical_formula_moiety         'C14 H15 N5 O2 S1'
_chemical_name_systematic        
5,7-Dimethyl-N-p-tolyl-1,2,4-triazolo(1,5-a)pyrimidine-2-sulfonamide
_symmetry_cell_setting           monoclinic
_symmetry_space_group_name_H-M   'P 21/n'
_symmetry_Int_Tables_number      14
_space_group_name_Hall           '-P 2yn'
loop_
_symmetry_equiv_pos_site_id
_symmetry_equiv_pos_as_xyz
1 x,y,z
2 1/2-x,1/2+y,1/2-z
3 -x,-y,-z
4 1/2+x,1/2-y,1/2+z
_cell_length_a                   12.096
_cell_length_b                   9.890(2)
_cell_length_c                   13.796(3)
_cell_angle_alpha                90
_cell_angle_beta                 114.08(3)
_cell_angle_gamma                90
_cell_volume                     1506.78
_cell_formula_units_Z            4
loop_
_atom_site_label
_atom_site_type_symbol
_atom_site_fract_x
_atom_site_fract_y
_atom_site_fract_z
S1 S 0.5363(1) 0.0258(1) 0.2032(1)
O1 O 0.6196(2) -0.0729(2) 0.1986(3)
O2 O 0.5299(3) 0.0585(2) 0.3000(2)
N1 N 0.4068(3) -0.0196(3) 0.1180(3)
N2 N 0.5742(2) 0.2955(3) 0.1993(2)
N3 N 0.6088(2) 0.3775(3) 0.1370(2)
N4 N 0.6033(3) 0.1742(3) 0.0707(3)
N5 N 0.6636(3) 0.3581(3) -0.0093(3)
C1 C 0.5731(3) 0.1769(3) 0.1536(3)
C2 C 0.6272(3) 0.3047(3) 0.0610(3)
C3 C 0.6235(3) 0.5153(3) 0.1450(3)
C4 C 0.6599(3) 0.5700(3) 0.0733(3)
C5 C 0.6818(3) 0.4914(3) -0.0021(3)
C6 C 0.7221(4) 0.5528(4) -0.0767(4)
C7 C 0.5997(4) 0.5867(3) 0.2288(3)
C8 C 0.2966(3) 0.0526(3) 0.0966(3)
C9 C 0.2245(4) 0.0870(4) -0.0071(3)
C10 C 0.1142(4) 0.1467(4) -0.0316(4)
C11 C 0.0747(4) 0.1783(4) 0.0472(4)
C12 C 0.1490(4) 0.1475(5) 0.1487(5)
C13 C 0.2587(4) 0.0828(5) 0.1750(4)
C14 C -0.0444(6) 0.2476(5) 0.0201(5)
loop_
_geom_bond_atom_site_label_1
_geom_bond_atom_site_label_2
_geom_bond_site_symmetry_1
_geom_bond_site_symmetry_2
S1 O1 1_555 1_555
O2 S1 1_555 1_555
N1 S1 1_555 1_555
N2 N3 1_555 1_555
N3 C2 1_555 1_555
N4 C1 1_555 1_555
N5 C2 1_555 1_555
C1 S1 1_555 1_555
C2 N4 1_555 1_555
C3 N3 1_555 1_555
C4 C3 1_555 1_555
C5 N5 1_555 1_555
C6 C5 1_555 1_555
C7 C3 1_555 1_555
C8 N1 1_555 1_555
C9 C8 1_555 1_555
C10 C9 1_555 1_555
C11 C10 1_555 1_555
C12 C11 1_555 1_555
C13 C8 1_555 1_555
C14 C11 1_555 1_555
N2 C1 1_555 1_555
C4 C5 1_555 1_555
C12 C13 1_555 1_555

#END
