
#######################################################################
#
#                 Cambridge Crystallographic Data Centre
#                                CCDC 
#
#######################################################################
#
# If this CIF has been generated from an entry in the Cambridge 
# Structural Database, then it will include bibliographic, chemical, 
# crystal, experimental, refinement or atomic coordinate data resulting 
# from the CCDC's data processing and validation procedures.
#
#######################################################################

data_SIBGIT
_chemical_formula_moiety         'C16 H18 B1 N1 O2'
_chemical_name_systematic        
Tetrahydro-2-biphenyl-4H-1,3,6,2-dioxazaboracine
_symmetry_cell_setting           triclinic
_symmetry_space_group_name_H-M   'P -1'
_symmetry_Int_Tables_number      2
_space_group_name_Hall           '-P 1'
loop_
_symmetry_equiv_pos_site_id
_symmetry_equiv_pos_as_xyz
1 x,y,z
2 -x,-y,-z
_cell_length_a                   9.650(3)
_cell_length_b                   11.412(5)
_cell_length_c                   13.578(5)
_cell_angle_alpha                93.15(3)
_cell_angle_beta                 97.27(3)
_cell_angle_gamma                78.19(3)
_cell_volume                     1451.22
_exptl_crystal_colour            colorless
_cell_formula_units_Z            4
loop_
_atom_site_label
_atom_site_type_symbol
_atom_site_fract_x
_atom_site_fract_y
_atom_site_fract_z
O1 O 0.4775(2) 0.2598(2) 0.82451(17)
O2 O 0.4742(2) 0.0510(2) 0.77575(17)
N1 N 0.2750(3) 0.1729(2) 0.8457(2)
C1 C 0.3169(4) 0.2462(4) 0.9341(3)
C2 C 0.4689(4) 0.2536(4) 0.9270(3)
C3 C 0.2838(4) 0.0461(3) 0.8641(3)
C4 C 0.4311(5) -0.0147(3) 0.8459(3)
C5 C 0.3348(3) 0.2185(3) 0.6610(2)
C6 C 0.2828(3) 0.1466(3) 0.5835(2)
C7 C 0.2228(4) 0.1973(4) 0.4925(3)
C8 C 0.2123(5) 0.3171(4) 0.4766(3)
C9 C 0.2615(5) 0.3885(4) 0.5504(4)
C10 C 0.3213(4) 0.3398(4) 0.6413(3)
C11 C 0.2839(4) 0.0159(3) 0.5918(2)
C12 C 0.4054(4) -0.0716(4) 0.5840(3)
C13 C 0.4024(5) -0.1917(4) 0.5863(3)
C14 C 0.2778(6) -0.2271(4) 0.5986(3)
C15 C 0.1573(5) -0.1432(4) 0.6066(4)
C16 C 0.1602(4) -0.0228(4) 0.6026(3)
B1 B 0.3984(4) 0.1743(3) 0.7714(3)
O3 O 0.0161(2) 0.7001(2) 0.21963(18)
O4 O 0.0560(3) 0.8999(2) 0.1992(2)
N2 N 0.2520(3) 0.7457(3) 0.2637(2)
C17 C 0.2268(4) 0.6540(4) 0.3293(3)
C18 C 0.0649(4) 0.6727(4) 0.3207(3)
C19 C 0.2571(4) 0.8646(4) 0.3143(3)
C20 C 0.1727(4) 0.9519(4) 0.2401(3)
C21 C 0.1366(3) 0.7369(3) 0.0684(2)
C22 C 0.2006(3) 0.6224(3) 0.0342(2)
C23 C 0.2285(4) 0.6043(3) -0.0648(3)
C24 C 0.1895(4) 0.6965(4) -0.1312(3)
C25 C 0.1235(4) 0.8074(4) -0.0993(3)
C26 C 0.0990(4) 0.8258(3) -0.0013(3)
C27 C 0.2412(3) 0.5161(3) 0.0994(2)
C28 C 0.3836(3) 0.4691(3) 0.1322(3)
C29 C 0.4203(4) 0.3685(3) 0.1895(3)
C30 C 0.3171(4) 0.3114(3) 0.2135(3)
C31 C 0.1768(4) 0.3561(3) 0.1808(3)
C32 C 0.1387(4) 0.4575(3) 0.1244(3)
B2 B 0.1059(4) 0.7714(4) 0.1820(3)
loop_
_geom_bond_atom_site_label_1
_geom_bond_atom_site_label_2
_geom_bond_site_symmetry_1
_geom_bond_site_symmetry_2
O1 C2 1_555 1_555
O2 C4 1_555 1_555
N1 C1 1_555 1_555
C1 C2 1_555 1_555
C3 N1 1_555 1_555
C4 C3 1_555 1_555
C5 C6 1_555 1_555
C6 C7 1_555 1_555
C7 C8 1_555 1_555
C8 C9 1_555 1_555
C9 C10 1_555 1_555
C10 C5 1_555 1_555
C11 C6 1_555 1_555
C12 C11 1_555 1_555
C13 C12 1_555 1_555
C14 C13 1_555 1_555
C15 C14 1_555 1_555
C16 C11 1_555 1_555
B1 O1 1_555 1_555
O3 C18 1_555 1_555
O4 C20 1_555 1_555
N2 C17 1_555 1_555
C17 C18 1_555 1_555
C19 N2 1_555 1_555
C20 C19 1_555 1_555
C21 C22 1_555 1_555
C22 C23 1_555 1_555
C23 C24 1_555 1_555
C24 C25 1_555 1_555
C25 C26 1_555 1_555
C26 C21 1_555 1_555
C27 C22 1_555 1_555
C28 C27 1_555 1_555
C29 C28 1_555 1_555
C30 C29 1_555 1_555
C31 C30 1_555 1_555
C32 C27 1_555 1_555
B2 O3 1_555 1_555
O2 B1 1_555 1_555
N1 B1 1_555 1_555
C5 B1 1_555 1_555
C15 C16 1_555 1_555
O4 B2 1_555 1_555
N2 B2 1_555 1_555
C21 B2 1_555 1_555
C31 C32 1_555 1_555

#END
