
#######################################################################
#
#                 Cambridge Crystallographic Data Centre
#                                CCDC 
#
#######################################################################
#
# If this CIF has been generated from an entry in the Cambridge 
# Structural Database, then it will include bibliographic, chemical, 
# crystal, experimental, refinement or atomic coordinate data resulting 
# from the CCDC's data processing and validation procedures.
#
#######################################################################

data_SIBKOG
_chemical_formula_moiety         'C52 H62 O4 Si2 Sr1'
_chemical_name_systematic        
tetrakis(tetrahydrofuran)-bis(triphenylsilyl)-strontium
_symmetry_cell_setting           monoclinic
_symmetry_space_group_name_H-M   'P 21/c'
_symmetry_Int_Tables_number      14
_space_group_name_Hall           '-P 2ybc'
loop_
_symmetry_equiv_pos_site_id
_symmetry_equiv_pos_as_xyz
1 x,y,z
2 -x,1/2+y,1/2-z
3 -x,-y,-z
4 x,1/2-y,1/2+z
_cell_length_a                   10.1280(12)
_cell_length_b                   11.9524(14)
_cell_length_c                   20.2705(18)
_cell_angle_alpha                90
_cell_angle_beta                 105.659(5)
_cell_angle_gamma                90
_cell_volume                     2362.75
_exptl_crystal_colour            yellow
_exptl_crystal_description       block
_cell_formula_units_Z            2
_chemical_properties_physical    
Air-sensitive,Moisture-sensitive,Oxygen-sensitive
_exptl_crystal_recrystallization_method 
'Re-crystallisation from solvent: THF and n-pentane'
loop_
_atom_site_label
_atom_site_type_symbol
_atom_site_fract_x
_atom_site_fract_y
_atom_site_fract_z
Sr1 Sr 1.0000 0.0000 1.0000
Si1 Si 0.82182(6) 0.16053(5) 0.87704(3)
O1 O 1.1301(2) 0.17385(15) 1.04909(9)
O2 O 1.17104(17) -0.04062(15) 0.92970(8)
C1 C 0.6998(2) 0.1037(2) 0.79499(12)
C2 C 0.6664(2) 0.1591(2) 0.73205(12)
H1 H 0.7093 0.2285 0.7281
C3 C 0.5720(3) 0.1154(2) 0.67498(13)
H2 H 0.5506 0.1551 0.6328
C4 C 0.5087(3) 0.0135(2) 0.67940(15)
H3 H 0.4442 -0.0164 0.6404
C5 C 0.5400(3) -0.0441(2) 0.74075(15)
H4 H 0.4971 -0.1137 0.7441
C6 C 0.6351(3) 0.0008(2) 0.79771(13)
H5 H 0.6565 -0.0397 0.8396
C7 C 0.6998(2) 0.24509(18) 0.91534(11)
C8 C 0.5565(2) 0.23856(19) 0.89170(11)
H6 H 0.5165 0.1972 0.8512
C9 C 0.4710(2) 0.2906(2) 0.92562(12)
H7 H 0.3744 0.2833 0.9087
C10 C 0.5261(2) 0.3528(2) 0.98384(13)
H8 H 0.4678 0.3891 1.0068
C11 C 0.6674(3) 0.3622(2) 1.00865(12)
H9 H 0.7063 0.4056 1.0484
C12 C 0.7517(2) 0.3079(2) 0.97519(12)
H10 H 0.8482 0.3134 0.9935
C13 C 0.9273(2) 0.27058(19) 0.84475(11)
C14 C 1.0182(2) 0.2341(2) 0.80807(12)
H11 H 1.0146 0.1582 0.7938
C15 C 1.1135(2) 0.3050(2) 0.79171(13)
H12 H 1.1741 0.2767 0.7672
C16 C 1.1206(2) 0.4159(2) 0.81074(13)
H13 H 1.1862 0.4643 0.8000
C17 C 1.0311(3) 0.4552(2) 0.84549(15)
H14 H 1.0342 0.5317 0.8585
C18 C 0.9355(3) 0.3838(2) 0.86191(14)
H15 H 0.8740 0.4134 0.8855
C19 C 1.1943(3) 0.2559(2) 1.01507(14)
H16 H 1.1416 0.2651 0.9666
H17 H 1.2893 0.2334 1.0168
C20 C 1.1934(3) 0.3627(2) 1.05495(15)
H18 H 1.1064 0.4043 1.0373
H19 H 1.2712 0.4118 1.0534
C21 C 1.2076(3) 0.3187(2) 1.12763(15)
H20 H 1.3035 0.2975 1.1506
H21 H 1.1759 0.3746 1.1560
C22 C 1.1168(3) 0.2196(3) 1.11409(15)
H22 H 1.1460 0.1639 1.1513
H23 H 1.0206 0.2414 1.1102
C23 C 1.1412(3) -0.0617(2) 0.85669(13)
H24 H 1.0556 -0.0234 0.8317
H25 H 1.1313 -0.1429 0.8470
C24 C 1.2632(3) -0.0148(3) 0.83627(15)
H26 H 1.2568 0.0675 0.8307
H27 H 1.2727 -0.0492 0.7934
C25 C 1.3801(3) -0.0481(3) 0.89724(14)
H28 H 1.4074 -0.1269 0.8936
H29 H 1.4608 0.0008 0.9016
C26 C 1.3192(2) -0.0324(2) 0.95691(13)
H30 H 1.3532 -0.0910 0.9919
H31 H 1.3448 0.0417 0.9784
Si1B Si 1.17818(6) -0.16053(5) 1.12296(3)
O1B O 0.8699(2) -0.17385(15) 0.95091(9)
O2B O 0.82896(17) 0.04062(15) 1.07030(8)
C1B C 1.3002(2) -0.1037(2) 1.20501(12)
C2B C 1.3336(2) -0.1591(2) 1.26795(12)
H1B H 1.2907 -0.2285 1.2719
C3B C 1.4280(3) -0.1154(2) 1.32502(13)
H2B H 1.4494 -0.1551 1.3672
C4B C 1.4913(3) -0.0135(2) 1.32060(15)
H3B H 1.5558 0.0164 1.3596
C5B C 1.4600(3) 0.0441(2) 1.25925(15)
H4B H 1.5029 0.1137 1.2559
C6B C 1.3649(3) -0.0008(2) 1.20229(13)
H5B H 1.3435 0.0397 1.1604
C7B C 1.3002(2) -0.24509(18) 1.08466(11)
C8B C 1.4435(2) -0.23856(19) 1.10830(11)
H6B H 1.4835 -0.1972 1.1488
C9B C 1.5290(2) -0.2906(2) 1.07438(12)
H7B H 1.6256 -0.2833 1.0913
C10B C 1.4739(2) -0.3528(2) 1.01616(13)
H8B H 1.5322 -0.3891 0.9932
C11B C 1.3326(3) -0.3622(2) 0.99135(12)
H9B H 1.2937 -0.4056 0.9516
C12B C 1.2483(2) -0.3079(2) 1.02481(12)
H10B H 1.1518 -0.3134 1.0065
C13B C 1.0727(2) -0.27058(19) 1.15525(11)
C14B C 0.9818(2) -0.2341(2) 1.19193(12)
H11B H 0.9854 -0.1582 1.2062
C15B C 0.8865(2) -0.3050(2) 1.20829(13)
H12B H 0.8259 -0.2767 1.2328
C16B C 0.8794(2) -0.4159(2) 1.18926(13)
H13B H 0.8138 -0.4643 1.2000
C17B C 0.9689(3) -0.4552(2) 1.15451(15)
H14B H 0.9658 -0.5317 1.1415
C18B C 1.0645(3) -0.3838(2) 1.13809(14)
H15B H 1.1260 -0.4134 1.1145
C19B C 0.8057(3) -0.2559(2) 0.98493(14)
H16B H 0.8584 -0.2651 1.0334
H17B H 0.7107 -0.2334 0.9832
C20B C 0.8066(3) -0.3627(2) 0.94505(15)
H18B H 0.8936 -0.4043 0.9627
H19B H 0.7288 -0.4118 0.9466
C21B C 0.7924(3) -0.3187(2) 0.87237(15)
H20B H 0.6965 -0.2975 0.8494
H21B H 0.8241 -0.3746 0.8440
C22B C 0.8832(3) -0.2196(3) 0.88591(15)
H22B H 0.8540 -0.1639 0.8487
H23B H 0.9794 -0.2414 0.8898
C23B C 0.8588(3) 0.0617(2) 1.14331(13)
H24B H 0.9444 0.0234 1.1683
H25B H 0.8687 0.1429 1.1530
C24B C 0.7368(3) 0.0148(3) 1.16373(15)
H26B H 0.7432 -0.0675 1.1693
H27B H 0.7273 0.0492 1.2066
C25B C 0.6199(3) 0.0481(3) 1.10276(14)
H28B H 0.5926 0.1269 1.1064
H29B H 0.5392 -0.0008 1.0984
C26B C 0.6808(2) 0.0324(2) 1.04309(13)
H30B H 0.6468 0.0910 1.0081
H31B H 0.6552 -0.0417 1.0216
loop_
_geom_bond_atom_site_label_1
_geom_bond_atom_site_label_2
_geom_bond_site_symmetry_1
_geom_bond_site_symmetry_2
Sr1 Si1 1_555 1_555
Si1 C1 1_555 1_555
O1 Sr1 1_555 1_555
O2 Sr1 1_555 1_555
C1 C2 1_555 1_555
C2 H1 1_555 1_555
C3 C2 1_555 1_555
H2 C3 1_555 1_555
C4 C3 1_555 1_555
H3 C4 1_555 1_555
C5 C4 1_555 1_555
H4 C5 1_555 1_555
C6 C1 1_555 1_555
H5 C6 1_555 1_555
C7 Si1 1_555 1_555
C8 C7 1_555 1_555
H6 C8 1_555 1_555
C9 C8 1_555 1_555
H7 C9 1_555 1_555
C10 C9 1_555 1_555
H8 C10 1_555 1_555
C11 C10 1_555 1_555
H9 C11 1_555 1_555
C12 C7 1_555 1_555
H10 C12 1_555 1_555
C13 Si1 1_555 1_555
C14 C13 1_555 1_555
H11 C14 1_555 1_555
C15 C14 1_555 1_555
H12 C15 1_555 1_555
C16 C15 1_555 1_555
H13 C16 1_555 1_555
C17 C16 1_555 1_555
H14 C17 1_555 1_555
C18 C13 1_555 1_555
H15 C18 1_555 1_555
C19 O1 1_555 1_555
H16 C19 1_555 1_555
H17 C19 1_555 1_555
C20 C19 1_555 1_555
H18 C20 1_555 1_555
H19 C20 1_555 1_555
C21 C20 1_555 1_555
H20 C21 1_555 1_555
H21 C21 1_555 1_555
C22 O1 1_555 1_555
H22 C22 1_555 1_555
H23 C22 1_555 1_555
C23 O2 1_555 1_555
H24 C23 1_555 1_555
H25 C23 1_555 1_555
C24 C23 1_555 1_555
H26 C24 1_555 1_555
H27 C24 1_555 1_555
C25 C24 1_555 1_555
H28 C25 1_555 1_555
H29 C25 1_555 1_555
C26 O2 1_555 1_555
H30 C26 1_555 1_555
H31 C26 1_555 1_555
Si1B Sr1 1_555 1_555
O1B Sr1 1_555 1_555
O2B Sr1 1_555 1_555
C1B Si1B 1_555 1_555
C2B C1B 1_555 1_555
H1B C2B 1_555 1_555
C3B C2B 1_555 1_555
H2B C3B 1_555 1_555
C4B C3B 1_555 1_555
H3B C4B 1_555 1_555
C5B C4B 1_555 1_555
H4B C5B 1_555 1_555
C6B C1B 1_555 1_555
H5B C6B 1_555 1_555
C7B Si1B 1_555 1_555
C8B C7B 1_555 1_555
H6B C8B 1_555 1_555
C9B C8B 1_555 1_555
H7B C9B 1_555 1_555
C10B C9B 1_555 1_555
H8B C10B 1_555 1_555
C11B C10B 1_555 1_555
H9B C11B 1_555 1_555
C12B C7B 1_555 1_555
H10B C12B 1_555 1_555
C13B Si1B 1_555 1_555
C14B C13B 1_555 1_555
H11B C14B 1_555 1_555
C15B C14B 1_555 1_555
H12B C15B 1_555 1_555
C16B C15B 1_555 1_555
H13B C16B 1_555 1_555
C17B C16B 1_555 1_555
H14B C17B 1_555 1_555
C18B C13B 1_555 1_555
H15B C18B 1_555 1_555
C19B O1B 1_555 1_555
H16B C19B 1_555 1_555
H17B C19B 1_555 1_555
C20B C19B 1_555 1_555
H18B C20B 1_555 1_555
H19B C20B 1_555 1_555
C21B C20B 1_555 1_555
H20B C21B 1_555 1_555
H21B C21B 1_555 1_555
C22B O1B 1_555 1_555
H22B C22B 1_555 1_555
H23B C22B 1_555 1_555
C23B O2B 1_555 1_555
H24B C23B 1_555 1_555
H25B C23B 1_555 1_555
C24B C23B 1_555 1_555
H26B C24B 1_555 1_555
H27B C24B 1_555 1_555
C25B C24B 1_555 1_555
H28B C25B 1_555 1_555
H29B C25B 1_555 1_555
C26B O2B 1_555 1_555
H30B C26B 1_555 1_555
H31B C26B 1_555 1_555
C5 C6 1_555 1_555
C11 C12 1_555 1_555
C17 C18 1_555 1_555
C21 C22 1_555 1_555
C25 C26 1_555 1_555
C5B C6B 1_555 1_555
C11B C12B 1_555 1_555
C17B C18B 1_555 1_555
C21B C22B 1_555 1_555
C25B C26B 1_555 1_555

#END
