
#######################################################################
#
#                 Cambridge Crystallographic Data Centre
#                                CCDC 
#
#######################################################################
#
# If this CIF has been generated from an entry in the Cambridge 
# Structural Database, then it will include bibliographic, chemical, 
# crystal, experimental, refinement or atomic coordinate data resulting 
# from the CCDC's data processing and validation procedures.
#
#######################################################################

data_SIBLAT
_chemical_formula_moiety         'C33 H77 N12 Sr3 1+,C18 H15 Si1 1-,0.5(C6 H6)'
_chemical_name_systematic        
'bis(\m-hydrido)-tris(\m-1,4,7-trimethyl-1,4,7,10-tetra-azacyclododecane)-tri-strontium triphenylsilanide benzene solvate'
_symmetry_cell_setting           triclinic
_symmetry_space_group_name_H-M   'P -1'
_symmetry_Int_Tables_number      2
_space_group_name_Hall           '-P 1'
loop_
_symmetry_equiv_pos_site_id
_symmetry_equiv_pos_as_xyz
1 x,y,z
2 -x,-y,-z
_cell_length_a                   9.8237(3)
_cell_length_b                   16.7214(5)
_cell_length_c                   19.1764(6)
_cell_angle_alpha                86.7277(8)
_cell_angle_beta                 86.3258(9)
_cell_angle_gamma                77.2861(9)
_cell_volume                     3063.49
_exptl_crystal_colour            orange
_exptl_crystal_description       plate
_cell_formula_units_Z            2
_chemical_properties_physical    
Air-sensitive,Moisture-sensitive,Oxygen-sensitive
_exptl_crystal_recrystallization_method benzene
loop_
_atom_site_label
_atom_site_type_symbol
_atom_site_fract_x
_atom_site_fract_y
_atom_site_fract_z
Si1 Si 0.86518(6) 0.13851(3) 0.78215(3)
C34 C 0.9285(2) 0.16775(14) 0.86834(11)
C35 C 0.9390(3) 0.11044(17) 0.92545(13)
H78 H 0.9084 0.0610 0.9209
C36 C 0.9920(4) 0.1232(2) 0.98784(14)
H79 H 0.9975 0.0827 1.0250
C37 C 1.0367(3) 0.1941(3) 0.99653(15)
H80 H 1.0728 0.2031 1.0395
C38 C 1.0285(3) 0.2528(2) 0.94141(15)
H81 H 1.0597 0.3020 0.9465
C39 C 0.9745(2) 0.23920(17) 0.87885(12)
H82 H 0.9687 0.2800 0.8420
C40 C 0.9021(2) 0.22787(12) 0.72167(10)
C41 C 1.0428(2) 0.23091(17) 0.70577(13)
H83 H 1.1137 0.1884 0.7244
C42 C 1.0818(3) 0.2933(2) 0.66415(15)
H84 H 1.1780 0.2939 0.6559
C43 C 0.9809(3) 0.35525(17) 0.63429(13)
H85 H 1.0071 0.3983 0.6057
C44 C 0.8420(2) 0.35286(13) 0.64698(11)
H86 H 0.7719 0.3939 0.6261
C45 C 0.8037(2) 0.29055(12) 0.69031(10)
H87 H 0.7072 0.2908 0.6988
C46 C 0.66542(19) 0.16807(11) 0.79858(10)
C47 C 0.5943(2) 0.18942(11) 0.86321(10)
H88 H 0.6469 0.1949 0.9019
C48 C 0.4491(2) 0.20288(11) 0.87235(11)
H89 H 0.4051 0.2166 0.9170
C49 C 0.3684(2) 0.19648(12) 0.81719(11)
H90 H 0.2695 0.2062 0.8234
C50 C 0.4352(2) 0.17540(12) 0.75221(11)
H91 H 0.3816 0.1708 0.7137
C51 C 0.5800(2) 0.16109(11) 0.74380(10)
H92 H 0.6233 0.1460 0.6993
Sr1 Sr 0.51786(2) 0.19264(2) 0.20034(2)
H1 H 0.673(2) 0.2636(8) 0.2580(6)
H2 H 0.400(3) 0.3033(9) 0.2751(7)
Sr2 Sr 0.54613(2) 0.25553(2) 0.37331(2)
Sr3 Sr 0.53526(2) 0.40144(2) 0.22701(2)
N1 N 0.52071(18) 0.11974(9) 0.32475(8)
N2 N 0.74121(16) 0.06855(10) 0.20996(9)
N3 N 0.51595(17) 0.07550(10) 0.11015(8)
N4 N 0.29104(17) 0.12596(11) 0.22278(9)
N5 N 0.56864(17) 0.40905(9) 0.36000(8)
N6 N 0.34010(18) 0.35307(10) 0.45163(9)
N7 N 0.5583(2) 0.21468(11) 0.51214(9)
N8 N 0.79065(18) 0.27028(11) 0.42324(10)
N9 N 0.5117(2) 0.32258(10) 0.11659(9)
N10 N 0.3003(2) 0.47490(13) 0.15978(10)
N11 N 0.5449(2) 0.55381(11) 0.17711(10)
N12 N 0.7564(2) 0.40467(14) 0.13263(11)
C1 C 0.6228(3) 0.04239(14) 0.32617(12)
H3 H 0.5829 0.0000 0.3059
H4 H 0.6425 0.0249 0.3754
C2 C 0.7574(3) 0.04785(14) 0.28631(12)
H5 H 0.7971 0.0902 0.3068
H6 H 0.8247 -0.0054 0.2920
C3 C 0.7241(2) -0.00245(12) 0.17290(12)
H7 H 0.6650 -0.0331 0.2027
H8 H 0.8168 -0.0395 0.1648
C4 C 0.6586(2) 0.02128(13) 0.10375(11)
H9 H 0.7198 0.0499 0.0734
H10 H 0.6526 -0.0292 0.0806
C5 C 0.4129(2) 0.02588(13) 0.13327(11)
H11 H 0.4538 -0.0157 0.1693
H12 H 0.3935 -0.0037 0.0930
C6 C 0.2763(2) 0.07628(14) 0.16306(12)
H13 H 0.2306 0.1136 0.1254
H14 H 0.2140 0.0388 0.1785
C7 C 0.3121(3) 0.07134(17) 0.28711(12)
H15 H 0.3698 0.0173 0.2744
H16 H 0.2202 0.0627 0.3063
C8 C 0.3831(3) 0.10574(16) 0.34387(12)
H17 H 0.3222 0.1584 0.3580
H18 H 0.3899 0.0672 0.3853
C9 C 0.8664(2) 0.09661(15) 0.18287(16)
H19 H 0.9496 0.0535 0.1918
H20 H 0.8723 0.1462 0.2063
H21 H 0.8612 0.1088 0.1324
C10 C 0.4827(3) 0.12058(13) 0.04400(11)
H22 H 0.4796 0.0819 0.0079
H23 H 0.5546 0.1517 0.0302
H24 H 0.3916 0.1585 0.0494
C11 C 0.1668(2) 0.19235(18) 0.23097(18)
H25 H 0.1541 0.2259 0.1873
H26 H 0.1786 0.2266 0.2690
H27 H 0.0845 0.1689 0.2421
C12 C 0.7124(3) 0.41104(16) 0.37072(14)
H28 H 0.7163 0.4685 0.3785
H29 H 0.7682 0.3952 0.3269
C13 C 0.7830(3) 0.35747(16) 0.43020(15)
H30 H 0.8789 0.3664 0.4325
H31 H 0.7311 0.3746 0.4748
C14 C 0.8041(3) 0.2253(2) 0.49385(13)
H32 H 0.8358 0.1658 0.4863
H33 H 0.8781 0.2425 0.5181
C15 C 0.6754(3) 0.23747(18) 0.54108(13)
H34 H 0.6971 0.2048 0.5852
H35 H 0.6483 0.2960 0.5527
C16 C 0.4225(3) 0.25518(16) 0.54938(13)
H36 H 0.3511 0.2232 0.5424
H37 H 0.4363 0.2536 0.6002
C17 C 0.3692(3) 0.34161(18) 0.52491(12)
H38 H 0.2824 0.3642 0.5529
H39 H 0.4388 0.3739 0.5342
C18 C 0.3382(3) 0.43768(15) 0.42312(15)
H40 H 0.2813 0.4769 0.4560
H41 H 0.2912 0.4456 0.3783
C19 C 0.4787(3) 0.45813(14) 0.41082(14)
H42 H 0.4659 0.5166 0.3951
H43 H 0.5253 0.4511 0.4557
C20 C 0.9088(2) 0.23045(17) 0.37815(13)
H44 H 0.9008 0.2562 0.3309
H45 H 0.9085 0.1720 0.3762
H46 H 0.9962 0.2364 0.3970
C21 C 0.5653(3) 0.12676(15) 0.51993(13)
H47 H 0.6508 0.0972 0.4957
H48 H 0.4838 0.1141 0.4997
H49 H 0.5659 0.1098 0.5697
C22 C 0.2025(3) 0.33727(19) 0.43986(17)
H50 H 0.2004 0.2806 0.4551
H51 H 0.1850 0.3456 0.3900
H52 H 0.1303 0.3751 0.4667
C23 C 0.4126(4) 0.36368(19) 0.07096(17)
H53 H 0.3897 0.3242 0.0394
H54 H 0.4511 0.4052 0.0419
C24 C 0.2812(4) 0.4055(2) 0.11177(19)
H55 H 0.2456 0.3633 0.1414
H56 H 0.2093 0.4295 0.0782
C25 C 0.3271(4) 0.5429(2) 0.11634(19)
H57 H 0.2384 0.5750 0.0981
H58 H 0.3906 0.5224 0.0760
C26 C 0.3932(4) 0.5976(2) 0.1579(2)
H59 H 0.3351 0.6123 0.2013
H60 H 0.3962 0.6489 0.1300
C27 C 0.6398(5) 0.5598(2) 0.1195(2)
H61 H 0.6600 0.6154 0.1163
H62 H 0.5971 0.5516 0.0759
C28 C 0.7753(4) 0.4962(2) 0.1269(2)
H63 H 0.8200 0.5070 0.1692
H64 H 0.8394 0.5027 0.0860
C29 C 0.7237(4) 0.3816(2) 0.06807(18)
H65 H 0.8098 0.3681 0.0373
H66 H 0.6582 0.4278 0.0453
C30 C 0.6566(4) 0.3066(2) 0.07772(17)
H67 H 0.7202 0.2624 0.1038
H68 H 0.6479 0.2864 0.0310
C31 C 0.1755(3) 0.48751(19) 0.20665(15)
H69 H 0.0939 0.5135 0.1803
H70 H 0.1859 0.5231 0.2439
H71 H 0.1627 0.4345 0.2272
C32 C 0.5642(3) 0.59531(13) 0.23954(12)
H72 H 0.5579 0.6538 0.2277
H73 H 0.6562 0.5710 0.2573
H74 H 0.4913 0.5890 0.2755
C33 C 0.8881(2) 0.36066(16) 0.15948(15)
H75 H 0.9632 0.3607 0.1233
H76 H 0.8823 0.3040 0.1726
H77 H 0.9078 0.3876 0.2006
O1? O 0.3077(3) 0.31927(19) 0.28193(17)
H93? H 0.2196 0.3345 0.2885
C52? C 0.3485(6) 0.3526(4) 0.1012(3)
H94? H 0.3324 0.3309 0.0562
H95? H 0.2929 0.3286 0.1383
C53? C 0.2949(7) 0.4458(4) 0.0978(3)
H96? H 0.3530 0.4712 0.0629
H97? H 0.1974 0.4595 0.0830
C54? C 0.3079(7) 0.5718(4) 0.1519(4)
H98? H 0.2390 0.6004 0.1182
H99? H 0.2815 0.5970 0.1977
C55? C 0.4505(8) 0.5844(4) 0.1273(4)
H100? H 0.4806 0.5562 0.0831
H101? H 0.4468 0.6437 0.1181
C56? C 0.7033(9) 0.5435(4) 0.1395(4)
H102? H 0.7096 0.5951 0.1128
H103? H 0.7718 0.5350 0.1764
C57? C 0.7432(8) 0.4728(4) 0.0904(4)
H104? H 0.6695 0.4751 0.0570
H105? H 0.8323 0.4744 0.0638
C58? C 0.7348(7) 0.3295(4) 0.0800(3)
H106? H 0.7954 0.3309 0.0369
H107? H 0.7664 0.2755 0.1045
C59? C 0.5849(7) 0.3371(4) 0.0596(3)
H108? H 0.5472 0.3929 0.0396
H109? H 0.5814 0.2969 0.0241
C60? C 0.9420(7) 0.9687(4) 0.4684(4)
H110? H 0.8931 0.9407 0.4403
C61? C 0.9058(5) 0.9780(3) 0.5402(3)
H111? H 0.8368 0.9515 0.5619
C62? C 0.9682(6) 1.0244(4) 0.5793(3)
H112? H 0.9389 1.0314 0.6272
C63? C 1.0711(8) 1.0605(5) 0.5511(4)
H113? H 1.1134 1.0932 0.5782
C64? C 1.1125(7) 1.0480(4) 0.4811(4)
H114? H 1.1856 1.0723 0.4611
C65? C 1.0537(7) 1.0028(4) 0.4397(4)
H115? H 1.0872 0.9942 0.3926
loop_
_geom_bond_atom_site_label_1
_geom_bond_atom_site_label_2
_geom_bond_site_symmetry_1
_geom_bond_site_symmetry_2
Sr1 H1 1_555 1_555
H1 Sr2 1_555 1_555
H2 Sr1 1_555 1_555
Sr2 H2 1_555 1_555
Sr3 H1 1_555 1_555
N1 Sr1 1_555 1_555
N2 Sr1 1_555 1_555
N3 Sr1 1_555 1_555
N4 Sr1 1_555 1_555
N5 Sr2 1_555 1_555
N6 Sr2 1_555 1_555
N7 Sr2 1_555 1_555
N8 Sr2 1_555 1_555
N9 Sr1 1_555 1_555
N10 Sr3 1_555 1_555
N11 Sr3 1_555 1_555
N12 Sr3 1_555 1_555
C1 N1 1_555 1_555
H3 C1 1_555 1_555
H4 C1 1_555 1_555
C2 N2 1_555 1_555
H5 C2 1_555 1_555
H6 C2 1_555 1_555
C3 N2 1_555 1_555
H7 C3 1_555 1_555
H8 C3 1_555 1_555
C4 N3 1_555 1_555
H9 C4 1_555 1_555
H10 C4 1_555 1_555
C5 N3 1_555 1_555
H11 C5 1_555 1_555
H12 C5 1_555 1_555
C6 N4 1_555 1_555
H13 C6 1_555 1_555
H14 C6 1_555 1_555
C7 N4 1_555 1_555
H15 C7 1_555 1_555
H16 C7 1_555 1_555
C8 N1 1_555 1_555
H17 C8 1_555 1_555
H18 C8 1_555 1_555
C9 N2 1_555 1_555
H19 C9 1_555 1_555
H20 C9 1_555 1_555
H21 C9 1_555 1_555
C10 N3 1_555 1_555
H22 C10 1_555 1_555
H23 C10 1_555 1_555
H24 C10 1_555 1_555
C11 N4 1_555 1_555
H25 C11 1_555 1_555
H26 C11 1_555 1_555
H27 C11 1_555 1_555
C12 N5 1_555 1_555
H28 C12 1_555 1_555
H29 C12 1_555 1_555
C13 N8 1_555 1_555
H30 C13 1_555 1_555
H31 C13 1_555 1_555
C14 N8 1_555 1_555
H32 C14 1_555 1_555
H33 C14 1_555 1_555
C15 N7 1_555 1_555
H34 C15 1_555 1_555
H35 C15 1_555 1_555
C16 N7 1_555 1_555
H36 C16 1_555 1_555
H37 C16 1_555 1_555
C17 N6 1_555 1_555
H38 C17 1_555 1_555
H39 C17 1_555 1_555
C18 N6 1_555 1_555
H40 C18 1_555 1_555
H41 C18 1_555 1_555
C19 N5 1_555 1_555
H42 C19 1_555 1_555
H43 C19 1_555 1_555
C20 N8 1_555 1_555
H44 C20 1_555 1_555
H45 C20 1_555 1_555
H46 C20 1_555 1_555
C21 N7 1_555 1_555
H47 C21 1_555 1_555
H48 C21 1_555 1_555
H49 C21 1_555 1_555
C22 N6 1_555 1_555
H50 C22 1_555 1_555
H51 C22 1_555 1_555
H52 C22 1_555 1_555
C23 N9 1_555 1_555
H53 C23 1_555 1_555
H54 C23 1_555 1_555
C24 N10 1_555 1_555
H55 C24 1_555 1_555
H56 C24 1_555 1_555
C25 N10 1_555 1_555
H57 C25 1_555 1_555
H58 C25 1_555 1_555
C26 N11 1_555 1_555
H59 C26 1_555 1_555
H60 C26 1_555 1_555
C27 N11 1_555 1_555
H61 C27 1_555 1_555
H62 C27 1_555 1_555
C28 N12 1_555 1_555
H63 C28 1_555 1_555
H64 C28 1_555 1_555
C29 N12 1_555 1_555
H65 C29 1_555 1_555
H66 C29 1_555 1_555
C30 N9 1_555 1_555
H67 C30 1_555 1_555
H68 C30 1_555 1_555
C31 N10 1_555 1_555
H69 C31 1_555 1_555
H70 C31 1_555 1_555
H71 C31 1_555 1_555
C32 N11 1_555 1_555
H72 C32 1_555 1_555
H73 C32 1_555 1_555
H74 C32 1_555 1_555
C33 N12 1_555 1_555
H75 C33 1_555 1_555
H76 C33 1_555 1_555
H77 C33 1_555 1_555
Si1 C34 1_555 1_555
C34 C35 1_555 1_555
C35 H78 1_555 1_555
C36 C35 1_555 1_555
H79 C36 1_555 1_555
C37 C36 1_555 1_555
H80 C37 1_555 1_555
C38 C37 1_555 1_555
H81 C38 1_555 1_555
C39 C34 1_555 1_555
H82 C39 1_555 1_555
C40 Si1 1_555 1_555
C41 C40 1_555 1_555
H83 C41 1_555 1_555
C42 C41 1_555 1_555
H84 C42 1_555 1_555
C43 C42 1_555 1_555
H85 C43 1_555 1_555
C44 C43 1_555 1_555
H86 C44 1_555 1_555
C45 C40 1_555 1_555
H87 C45 1_555 1_555
C46 Si1 1_555 1_555
C47 C46 1_555 1_555
H88 C47 1_555 1_555
C48 C47 1_555 1_555
H89 C48 1_555 1_555
C49 C48 1_555 1_555
H90 C49 1_555 1_555
C50 C49 1_555 1_555
H91 C50 1_555 1_555
C51 C46 1_555 1_555
H92 C51 1_555 1_555
H2 Sr3 1_555 1_555
Sr2 N1 1_555 1_555
Sr3 N5 1_555 1_555
Sr3 N9 1_555 1_555
C1 C2 1_555 1_555
C3 C4 1_555 1_555
C5 C6 1_555 1_555
C7 C8 1_555 1_555
C12 C13 1_555 1_555
C14 C15 1_555 1_555
C16 C17 1_555 1_555
C18 C19 1_555 1_555
C23 C24 1_555 1_555
C25 C26 1_555 1_555
C27 C28 1_555 1_555
C29 C30 1_555 1_555
C38 C39 1_555 1_555
C44 C45 1_555 1_555
C50 C51 1_555 1_555

#END
