
#######################################################################
#
#                 Cambridge Crystallographic Data Centre
#                                CCDC 
#
#######################################################################
#
# If this CIF has been generated from an entry in the Cambridge 
# Structural Database, then it will include bibliographic, chemical, 
# crystal, experimental, refinement or atomic coordinate data resulting 
# from the CCDC's data processing and validation procedures.
#
#######################################################################

data_SIBSOO
_chemical_formula_moiety         'C38 H36 B1 F10 N1 O1'
_chemical_name_systematic        
(hex-1-en-3-yn-2-olato)[bis(pentafluorophenyl)][5-phenyl-2-(2,2,6,6-tetramethylpiperidin-1-ium-1-yl)penta-1,4-dien-1-yl]boron
_symmetry_cell_setting           monoclinic
_symmetry_space_group_name_H-M   'P 21/n'
_symmetry_Int_Tables_number      14
_space_group_name_Hall           '-P 2yn'
loop_
_symmetry_equiv_pos_site_id
_symmetry_equiv_pos_as_xyz
1 x,y,z
2 1/2-x,1/2+y,1/2-z
3 -x,-y,-z
4 1/2+x,1/2-y,1/2+z
_cell_length_a                   13.9590(3)
_cell_length_b                   14.6616(3)
_cell_length_c                   17.3506(4)
_cell_angle_alpha                90
_cell_angle_beta                 102.2550(10)
_cell_angle_gamma                90
_cell_volume                     3470.08
_exptl_crystal_colour            colorless
_exptl_crystal_description       plate
_cell_formula_units_Z            4
loop_
_atom_site_label
_atom_site_type_symbol
_atom_site_fract_x
_atom_site_fract_y
_atom_site_fract_z
N1 N 0.46636(10) 0.32760(9) 0.74836(8)
H1 H 0.4175(15) 0.3728(14) 0.7473(11)
O1 O 0.30329(8) 0.42979(7) 0.72171(6)
B1 B 0.25126(13) 0.36980(12) 0.65534(10)
C1 C 0.41353(12) 0.26271(11) 0.68688(9)
C2 C 0.32352(12) 0.28491(11) 0.64900(9)
H2 H 0.2955 0.2418 0.6098
C3 C 0.46424(12) 0.17486(11) 0.67233(10)
H3 H 0.5361 0.1846 0.6849
H4 H 0.449 0.127 0.7082
C4 C 0.43371(12) 0.14230(11) 0.58886(10)
H5 H 0.4404 0.1831 0.5478
C5 C 0.39779(12) 0.05966(11) 0.56907(10)
H6 H 0.3899 0.0212 0.6113
C6 C 0.29552(12) 0.52154(11) 0.73591(10)
C7 C 0.30707(13) 0.58366(12) 0.67482(11)
C8 C 0.31553(14) 0.63736(12) 0.62480(11)
C9 C 0.28694(13) 0.55149(13) 0.80642(11)
H7 H 0.2861 0.5094 0.8479
H8 H 0.2816 0.615 0.8154
C10 C 0.32329(16) 0.69998(14) 0.56050(12)
H9 H 0.3359 0.7624 0.582
H10 H 0.2602 0.7008 0.5216
C11 C 0.4037(2) 0.67336(16) 0.51973(15)
H11 H 0.4657 0.6688 0.5586
H12 H 0.4097 0.7196 0.4802
H13 H 0.3882 0.6142 0.4937
C12 C 0.48470(12) 0.29190(12) 0.83504(9)
C13 C 0.50816(14) 0.37680(12) 0.88768(10)
H14 H 0.4484 0.4149 0.8812
H15 H 0.5257 0.3571 0.9435
C14 C 0.59159(14) 0.43513(14) 0.86974(11)
H16 H 0.6017 0.4891 0.9048
H17 H 0.6531 0.3993 0.8797
C15 C 0.56677(13) 0.46605(12) 0.78381(11)
H18 H 0.6215 0.5037 0.7733
H19 H 0.5076 0.5051 0.7756
C16 C 0.54827(12) 0.38770(12) 0.72437(10)
C17 C 0.56643(14) 0.22110(13) 0.85606(10)
H20 H 0.5639 0.1929 0.9068
H21 H 0.6301 0.2509 0.8598
H22 H 0.5577 0.1741 0.815
C18 C 0.38823(13) 0.25059(12) 0.84575(10)
H23 H 0.3755 0.1941 0.8151
H24 H 0.3348 0.2939 0.8273
H25 H 0.3923 0.2372 0.9017
C19 C 0.64256(14) 0.33746(14) 0.72114(12)
H26 H 0.6286 0.2887 0.6817
H27 H 0.6702 0.311 0.7729
H28 H 0.6897 0.3803 0.7067
C20 C 0.50465(13) 0.42716(13) 0.64278(10)
H29 H 0.5501 0.472 0.6286
H30 H 0.442 0.4569 0.6437
H31 H 0.4939 0.3779 0.6037
C21 C 0.36882(12) 0.02079(11) 0.48937(10)
C22 C 0.32257(13) -0.06380(12) 0.47983(11)
H32 H 0.3104 -0.0947 0.5249
C23 C 0.29381(14) -0.10399(13) 0.40648(11)
H33 H 0.2618 -0.1615 0.4015
C24 C 0.31161(13) -0.06043(14) 0.34051(11)
H34 H 0.2923 -0.088 0.29
C25 C 0.35778(13) 0.02368(14) 0.34816(10)
H35 H 0.3701 0.0538 0.3028
C26 C 0.38623(13) 0.06427(13) 0.42207(10)
H36 H 0.4178 0.122 0.4267
C27 C 0.14999(11) 0.32385(10) 0.67569(9)
C28 C 0.11535(12) 0.33398(11) 0.74432(9)
F1 F 0.16382(8) 0.38610(7) 0.80455(6)
C29 C 0.03107(13) 0.29323(12) 0.75755(10)
F2 F 0.00163(8) 0.30682(8) 0.82571(6)
C30 C -0.02365(12) 0.23826(12) 0.70083(10)
F3 F -0.10664(8) 0.19908(8) 0.71292(7)
C31 C 0.00681(12) 0.22485(12) 0.63149(10)
F4 F -0.04632(8) 0.17237(8) 0.57461(6)
C32 C 0.09165(12) 0.26708(11) 0.62093(9)
F5 F 0.11699(7) 0.25032(7) 0.55090(5)
C33 C 0.21829(12) 0.42493(11) 0.57051(9)
C34 C 0.25710(12) 0.41205(11) 0.50369(10)
F6 F 0.32745(7) 0.34896(7) 0.50253(5)
C35 C 0.22832(13) 0.46125(12) 0.43475(10)
F7 F 0.26892(8) 0.44473(8) 0.37204(6)
C36 C 0.15745(13) 0.52734(12) 0.42943(10)
F8 F 0.12977(9) 0.57652(8) 0.36304(6)
C37 C 0.11578(12) 0.54271(11) 0.49343(10)
F9 F 0.04755(8) 0.60851(7) 0.48985(6)
C38 C 0.14559(12) 0.49115(11) 0.56075(9)
F10 F 0.10089(7) 0.50981(6) 0.62110(5)
loop_
_geom_bond_atom_site_label_1
_geom_bond_atom_site_label_2
_geom_bond_site_symmetry_1
_geom_bond_site_symmetry_2
N1 H1 1_555 1_555
O1 B1 1_555 1_555
B1 C2 1_555 1_555
C1 N1 1_555 1_555
C2 C1 1_555 1_555
H2 C2 1_555 1_555
C3 C1 1_555 1_555
H3 C3 1_555 1_555
H4 C3 1_555 1_555
C4 C3 1_555 1_555
H5 C4 1_555 1_555
C5 C4 1_555 1_555
H6 C5 1_555 1_555
C6 O1 1_555 1_555
C7 C6 1_555 1_555
C8 C7 1_555 1_555
C9 C6 1_555 1_555
H7 C9 1_555 1_555
H8 C9 1_555 1_555
C10 C8 1_555 1_555
H9 C10 1_555 1_555
H10 C10 1_555 1_555
C11 C10 1_555 1_555
H11 C11 1_555 1_555
H12 C11 1_555 1_555
H13 C11 1_555 1_555
C12 N1 1_555 1_555
C13 C12 1_555 1_555
H14 C13 1_555 1_555
H15 C13 1_555 1_555
C14 C13 1_555 1_555
H16 C14 1_555 1_555
H17 C14 1_555 1_555
C15 C14 1_555 1_555
H18 C15 1_555 1_555
H19 C15 1_555 1_555
C16 N1 1_555 1_555
C17 C12 1_555 1_555
H20 C17 1_555 1_555
H21 C17 1_555 1_555
H22 C17 1_555 1_555
C18 C12 1_555 1_555
H23 C18 1_555 1_555
H24 C18 1_555 1_555
H25 C18 1_555 1_555
C19 C16 1_555 1_555
H26 C19 1_555 1_555
H27 C19 1_555 1_555
H28 C19 1_555 1_555
C20 C16 1_555 1_555
H29 C20 1_555 1_555
H30 C20 1_555 1_555
H31 C20 1_555 1_555
C21 C5 1_555 1_555
C22 C21 1_555 1_555
H32 C22 1_555 1_555
C23 C22 1_555 1_555
H33 C23 1_555 1_555
C24 C23 1_555 1_555
H34 C24 1_555 1_555
C25 C24 1_555 1_555
H35 C25 1_555 1_555
C26 C21 1_555 1_555
H36 C26 1_555 1_555
C27 B1 1_555 1_555
C28 C27 1_555 1_555
F1 C28 1_555 1_555
C29 C28 1_555 1_555
F2 C29 1_555 1_555
C30 C29 1_555 1_555
F3 C30 1_555 1_555
C31 C30 1_555 1_555
F4 C31 1_555 1_555
C32 C27 1_555 1_555
F5 C32 1_555 1_555
C33 B1 1_555 1_555
C34 C33 1_555 1_555
F6 C34 1_555 1_555
C35 C34 1_555 1_555
F7 C35 1_555 1_555
C36 C35 1_555 1_555
F8 C36 1_555 1_555
C37 C36 1_555 1_555
F9 C37 1_555 1_555
C38 C33 1_555 1_555
F10 C38 1_555 1_555
C15 C16 1_555 1_555
C25 C26 1_555 1_555
C31 C32 1_555 1_555
C37 C38 1_555 1_555

#END
