
#######################################################################
#
#                 Cambridge Crystallographic Data Centre
#                                CCDC 
#
#######################################################################
#
# If this CIF has been generated from an entry in the Cambridge 
# Structural Database, then it will include bibliographic, chemical, 
# crystal, experimental, refinement or atomic coordinate data resulting 
# from the CCDC's data processing and validation procedures.
#
#######################################################################

data_SIBXEJ
_chemical_formula_moiety         'C14 H12 O3 S1'
_chemical_name_systematic        'methyl 4-(phenylsulfinyl)benzoate'
_symmetry_cell_setting           monoclinic
_symmetry_space_group_name_H-M   'P 21'
_symmetry_Int_Tables_number      4
_space_group_name_Hall           'P 2yb'
loop_
_symmetry_equiv_pos_site_id
_symmetry_equiv_pos_as_xyz
1 x,y,z
2 -x,1/2+y,-z
_cell_length_a                   5.8553(2)
_cell_length_b                   9.1236(4)
_cell_length_c                   11.7207(5)
_cell_angle_alpha                90
_cell_angle_beta                 98.3710(10)
_cell_angle_gamma                90
_cell_volume                     619.466
_exptl_crystal_colour            colorless
_exptl_crystal_description       block
_cell_formula_units_Z            2
loop_
_atom_site_label
_atom_site_type_symbol
_atom_site_fract_x
_atom_site_fract_y
_atom_site_fract_z
S1 S 0.86600(9) 0.61238(7) 0.03682(5)
O1 O 0.6172(3) 0.6284(2) 0.04713(15)
O2 O 1.4559(3) 0.1466(2) 0.41152(14)
O3 O 1.1361(3) 0.1586(3) 0.49331(16)
C1 C 0.8865(4) 0.4993(3) -0.08664(19)
C2 C 0.7113(4) 0.4022(3) -0.1262(2)
H1 H 0.5852 0.3912 -0.0870
C3 C 0.7263(6) 0.3225(4) -0.2238(3)
H2 H 0.6084 0.2579 -0.2517
C4 C 0.9125(6) 0.3371(4) -0.2806(2)
H3 H 0.9213 0.2817 -0.3465
C5 C 1.0869(6) 0.4328(5) -0.2411(3)
H4 H 1.2137 0.4416 -0.2801
C6 C 1.0752(5) 0.5169(3) -0.1430(2)
H5 H 1.1917 0.5830 -0.1163
C7 C 0.9826(4) 0.4817(3) 0.14551(19)
C8 C 1.1964(4) 0.4190(3) 0.1457(2)
H6 H 1.2819 0.4401 0.0868
C9 C 1.2839(4) 0.3249(3) 0.23351(19)
H7 H 1.4281 0.2822 0.2336
C10 C 1.1556(4) 0.2938(3) 0.32238(18)
C11 C 0.9428(4) 0.3584(3) 0.3216(2)
H8 H 0.8569 0.3377 0.3805
C12 C 0.8553(4) 0.4536(3) 0.2342(2)
H9 H 0.7128 0.4984 0.2349
C13 C 1.2430(4) 0.1940(3) 0.4176(2)
C14 C 1.5547(5) 0.0443(4) 0.4989(3)
H10 H 1.7077 0.0183 0.4859
H11 H 1.4606 -0.0422 0.4955
H12 H 1.5616 0.0887 0.5736
loop_
_geom_bond_atom_site_label_1
_geom_bond_atom_site_label_2
_geom_bond_site_symmetry_1
_geom_bond_site_symmetry_2
S1 O1 1_555 1_555
O2 C13 1_555 1_555
O3 C13 1_555 1_555
C1 S1 1_555 1_555
C2 C1 1_555 1_555
H1 C2 1_555 1_555
C3 C2 1_555 1_555
H2 C3 1_555 1_555
C4 C3 1_555 1_555
H3 C4 1_555 1_555
C5 C4 1_555 1_555
H4 C5 1_555 1_555
C6 C1 1_555 1_555
H5 C6 1_555 1_555
C7 S1 1_555 1_555
C8 C7 1_555 1_555
H6 C8 1_555 1_555
C9 C8 1_555 1_555
H7 C9 1_555 1_555
C10 C9 1_555 1_555
C11 C10 1_555 1_555
H8 C11 1_555 1_555
C12 C7 1_555 1_555
H9 C12 1_555 1_555
C13 C10 1_555 1_555
C14 O2 1_555 1_555
H10 C14 1_555 1_555
H11 C14 1_555 1_555
H12 C14 1_555 1_555
C5 C6 1_555 1_555
C11 C12 1_555 1_555

#END
