
#######################################################################
#
#                 Cambridge Crystallographic Data Centre
#                                CCDC 
#
#######################################################################
#
# If this CIF has been generated from an entry in the Cambridge 
# Structural Database, then it will include bibliographic, chemical, 
# crystal, experimental, refinement or atomic coordinate data resulting 
# from the CCDC's data processing and validation procedures.
#
#######################################################################

data_SICBAJ
_chemical_formula_moiety         'C32 H28 N2'
_chemical_name_systematic        
N,N'-Tetracyclo[6.6.2.0^2,7^.0^9,14^]hexadeca-2,4,6,9,11,13-hexaene-15,16-diylidenebis(2,6-dimethylaniline)
_symmetry_cell_setting           triclinic
_symmetry_space_group_name_H-M   'P -1'
_symmetry_Int_Tables_number      2
_space_group_name_Hall           '-P 1'
loop_
_symmetry_equiv_pos_site_id
_symmetry_equiv_pos_as_xyz
1 x,y,z
2 -x,-y,-z
_cell_length_a                   9.5840(9)
_cell_length_b                   11.3082(11)
_cell_length_c                   12.4037(12)
_cell_angle_alpha                91.1350(10)
_cell_angle_beta                 94.7680(10)
_cell_angle_gamma                110.5760(10)
_cell_volume                     1252.44
_exptl_crystal_colour            yellow
_exptl_crystal_description       block
_cell_formula_units_Z            2
loop_
_atom_site_label
_atom_site_type_symbol
_atom_site_fract_x
_atom_site_fract_y
_atom_site_fract_z
C1 C 0.2550(2) 0.41473(16) -0.06472(13)
H1 H 0.2127 0.4643 -0.1050
C2 C 0.3322(2) 0.34928(19) -0.11380(16)
H2 H 0.3422 0.3551 -0.1876
C3 C 0.3943(2) 0.27543(19) -0.05446(17)
H3 H 0.4455 0.2316 -0.0887
C4 C 0.38156(19) 0.26571(16) 0.05522(15)
H4 H 0.4237 0.2157 0.0950
C5 C 0.30539(16) 0.33122(13) 0.10506(12)
C6 C 0.24182(16) 0.40551(14) 0.04483(12)
C7 C 0.16214(16) 0.47074(13) 0.11215(12)
H5 H 0.1200 0.5242 0.0693
C8 C 0.27133(16) 0.54394(13) 0.20633(12)
C9 C 0.33678(16) 0.47043(14) 0.26614(12)
C10 C 0.28211(15) 0.33322(13) 0.22433(12)
H6 H 0.3302 0.2829 0.2660
C11 C 0.30641(19) 0.67013(15) 0.23767(14)
H7 H 0.2621 0.7194 0.1990
C12 C 0.4079(2) 0.72214(17) 0.32690(15)
H8 H 0.4323 0.8070 0.3479
C13 C 0.4732(2) 0.64954(18) 0.38497(14)
H9 H 0.5416 0.6858 0.4447
C14 C 0.43785(17) 0.52321(16) 0.35524(12)
H10 H 0.4817 0.4742 0.3949
C15 C 0.04302(16) 0.36621(13) 0.16412(11)
C16 C 0.11220(15) 0.28556(13) 0.22925(11)
C17 C -0.21029(16) 0.26778(15) 0.20093(12)
C18 C -0.2531(2) 0.3029(2) 0.29743(14)
C19 C -0.3799(3) 0.2164(3) 0.3385(2)
H11 H -0.4118 0.2375 0.4025
C20 C -0.4565(3) 0.1024(3) 0.2860(3)
H12 H -0.5389 0.0459 0.3151
C21 C -0.4136(2) 0.0704(2) 0.1915(2)
H13 H -0.4674 -0.0080 0.1567
C22 C -0.29096(18) 0.15242(16) 0.14564(15)
C23 C 0.09986(15) 0.11989(14) 0.34240(13)
C24 C 0.14774(17) 0.15642(15) 0.45101(14)
C25 C 0.2014(2) 0.0778(2) 0.51338(17)
H14 H 0.2342 0.1003 0.5861
C26 C 0.2067(2) -0.0320(2) 0.4691(2)
H15 H 0.2445 -0.0828 0.5116
C27 C 0.1567(2) -0.06771(19) 0.3627(2)
H16 H 0.1600 -0.1432 0.3340
C28 C 0.10118(19) 0.00673(16) 0.29666(15)
C29 C -0.1660(3) 0.4277(3) 0.35424(18)
H17 H -0.0637 0.4343 0.3702
H18 H -0.2082 0.4350 0.4205
H19 H -0.1700 0.4943 0.3086
C30 C -0.2441(3) 0.1185(2) 0.04076(17)
H20 H -0.2504 0.1780 -0.0118
H21 H -0.3090 0.0350 0.0152
H22 H -0.1429 0.1206 0.0517
C31 C 0.1363(2) 0.27442(18) 0.49975(16)
H23 H 0.2042 0.3468 0.4687
H24 H 0.1615 0.2790 0.5766
H25 H 0.0358 0.2731 0.4851
C32 C 0.0421(3) -0.0327(2) 0.18096(19)
H26 H -0.0591 -0.0349 0.1697
H27 H 0.0445 -0.1152 0.1645
H28 H 0.1031 0.0268 0.1345
N1 N -0.09241(13) 0.35876(11) 0.15206(9)
N2 N 0.03286(13) 0.19320(11) 0.27886(10)
loop_
_geom_bond_atom_site_label_1
_geom_bond_atom_site_label_2
_geom_bond_site_symmetry_1
_geom_bond_site_symmetry_2
C1 H1 1_555 1_555
C2 C1 1_555 1_555
H2 C2 1_555 1_555
C3 C2 1_555 1_555
H3 C3 1_555 1_555
C4 C3 1_555 1_555
H4 C4 1_555 1_555
C5 C4 1_555 1_555
C6 C1 1_555 1_555
C7 C6 1_555 1_555
H5 C7 1_555 1_555
C8 C7 1_555 1_555
C9 C8 1_555 1_555
C10 C5 1_555 1_555
H6 C10 1_555 1_555
C11 C8 1_555 1_555
H7 C11 1_555 1_555
C12 C11 1_555 1_555
H8 C12 1_555 1_555
C13 C12 1_555 1_555
H9 C13 1_555 1_555
C14 C9 1_555 1_555
H10 C14 1_555 1_555
C15 C7 1_555 1_555
C16 C10 1_555 1_555
C17 C18 1_555 1_555
C18 C19 1_555 1_555
C19 H11 1_555 1_555
C20 C19 1_555 1_555
H12 C20 1_555 1_555
C21 C20 1_555 1_555
H13 C21 1_555 1_555
C22 C17 1_555 1_555
C23 C24 1_555 1_555
C24 C25 1_555 1_555
C25 H14 1_555 1_555
C26 C25 1_555 1_555
H15 C26 1_555 1_555
C27 C26 1_555 1_555
H16 C27 1_555 1_555
C28 C23 1_555 1_555
C29 C18 1_555 1_555
H17 C29 1_555 1_555
H18 C29 1_555 1_555
H19 C29 1_555 1_555
C30 C22 1_555 1_555
H20 C30 1_555 1_555
H21 C30 1_555 1_555
H22 C30 1_555 1_555
C31 C24 1_555 1_555
H23 C31 1_555 1_555
H24 C31 1_555 1_555
H25 C31 1_555 1_555
C32 C28 1_555 1_555
H26 C32 1_555 1_555
H27 C32 1_555 1_555
H28 C32 1_555 1_555
N1 C15 1_555 1_555
N2 C16 1_555 1_555
C5 C6 1_555 1_555
C9 C10 1_555 1_555
C13 C14 1_555 1_555
C15 C16 1_555 1_555
C17 N1 1_555 1_555
C21 C22 1_555 1_555
C23 N2 1_555 1_555
C27 C28 1_555 1_555

#END
