
#######################################################################
#
#                 Cambridge Crystallographic Data Centre
#                                CCDC 
#
#######################################################################
#
# If this CIF has been generated from an entry in the Cambridge 
# Structural Database, then it will include bibliographic, chemical, 
# crystal, experimental, refinement or atomic coordinate data resulting 
# from the CCDC's data processing and validation procedures.
#
#######################################################################

data_SICFAN
_chemical_formula_moiety         'C5 H7 N3 O2'
_chemical_name_systematic        '3-(1H-1,2,4-Triazol-1-yl)propanoic acid'
_symmetry_cell_setting           monoclinic
_symmetry_space_group_name_H-M   'P 21/c'
_symmetry_Int_Tables_number      14
_space_group_name_Hall           '-P 2ybc'
loop_
_symmetry_equiv_pos_site_id
_symmetry_equiv_pos_as_xyz
1 x,y,z
2 -x,1/2+y,1/2-z
3 -x,-y,-z
4 x,1/2-y,1/2+z
_cell_length_a                   5.5377(5)
_cell_length_b                   13.779(3)
_cell_length_c                   9.5312(14)
_cell_angle_alpha                90
_cell_angle_beta                 114.831(10)
_cell_angle_gamma                90
_cell_volume                     660.033
_exptl_crystal_colour            colorless
_exptl_crystal_description       block
_cell_formula_units_Z            4
loop_
_atom_site_label
_atom_site_type_symbol
_atom_site_fract_x
_atom_site_fract_y
_atom_site_fract_z
C1 C 0.3045(3) 0.54830(12) 0.30297(19)
H1 H 0.3350 0.5106 0.2311
C2 C 0.1167(3) 0.60748(11) 0.43236(18)
H2 H -0.0051 0.6221 0.4730
C3 C 0.4792(3) 0.72172(11) 0.59439(17)
H3 H 0.6450 0.6964 0.6719
H4 H 0.3641 0.7368 0.6450
C4 C 0.5349(3) 0.81334(11) 0.52672(18)
H5 H 0.6398 0.8568 0.6102
H6 H 0.6398 0.7973 0.4701
C5 C 0.2870(3) 0.86487(11) 0.42055(17)
N1 N 0.3531(2) 0.64789(9) 0.47678(14)
N2 N 0.4792(3) 0.61052(10) 0.39388(16)
N3 N 0.0772(2) 0.54337(9) 0.32200(15)
O1 O 0.3344(2) 0.93155(8) 0.33746(14)
H7 H 0.1980 0.9626 0.2893
O2 O 0.0695(2) 0.84762(10) 0.41283(17)
loop_
_geom_bond_atom_site_label_1
_geom_bond_atom_site_label_2
_geom_bond_site_symmetry_1
_geom_bond_site_symmetry_2
C1 H1 1_555 1_555
C2 H2 1_555 1_555
C3 H3 1_555 1_555
H4 C3 1_555 1_555
C4 C3 1_555 1_555
H5 C4 1_555 1_555
H6 C4 1_555 1_555
C5 C4 1_555 1_555
N1 C2 1_555 1_555
N2 C1 1_555 1_555
N3 C1 1_555 1_555
O1 C5 1_555 1_555
H7 O1 1_555 1_555
O2 C5 1_555 1_555
C2 N3 1_555 1_555
C3 N1 1_555 1_555
N1 N2 1_555 1_555

#END
