
#######################################################################
#
#                 Cambridge Crystallographic Data Centre
#                                CCDC 
#
#######################################################################
#
# If this CIF has been generated from an entry in the Cambridge 
# Structural Database, then it will include bibliographic, chemical, 
# crystal, experimental, refinement or atomic coordinate data resulting 
# from the CCDC's data processing and validation procedures.
#
#######################################################################

data_SICPUQ
_chemical_formula_moiety         'C23 H15 Cl1 N4,0.5(C3 H7 N1 O1),0.5(H2 O1)'
_chemical_name_systematic        
'3-Amino-1-(3-chlorophenyl)-2,2,4-tricyano-1,2,9,10-tetrahydrophenanthrene dimethylformamide solvate hemihydrate'
_symmetry_cell_setting           orthorhombic
_symmetry_space_group_name_H-M   'P c c n'
_symmetry_Int_Tables_number      56
_space_group_name_Hall           '-P 2ab 2ac'
loop_
_symmetry_equiv_pos_site_id
_symmetry_equiv_pos_as_xyz
1 x,y,z
2 1/2-x,1/2-y,z
3 -x,1/2+y,1/2-z
4 1/2+x,-y,1/2-z
5 -x,-y,-z
6 1/2+x,1/2+y,-z
7 x,1/2-y,1/2+z
8 1/2-x,y,1/2+z
_cell_length_a                   10.0884(14)
_cell_length_b                   18.574(3)
_cell_length_c                   25.167(4)
_cell_angle_alpha                90
_cell_angle_beta                 90
_cell_angle_gamma                90
_cell_volume                     4715.84
_exptl_crystal_colour            'pale yellow'
_exptl_crystal_description       block
_chemical_melting_point          '422-423 K'
_cell_formula_units_Z            8
loop_
_atom_site_label
_atom_site_type_symbol
_atom_site_fract_x
_atom_site_fract_y
_atom_site_fract_z
N5 N 0.7500 0.7500 0.4702(6)
O1 O 0.9704(16) 0.7086(9) 0.4707(7)
C25 C 0.7500 0.7500 0.4123(6)
H19 H 0.7468 0.7013 0.3996
C26 C 0.832(3) 0.6996(18) 0.5017(14)
H21 H 0.8361 0.6484 0.4965
O1A O 0.5296(16) 0.7914(9) 0.4707(7)
H19A H 0.7532 0.7987 0.3996
C26A C 0.668(3) 0.8004(18) 0.5017(14)
H21A H 0.6639 0.8516 0.4965
Cl1 Cl 0.15056(13) 1.11768(12) 0.39091(7)
N1 N 0.8241(3) 1.10914(18) 0.44894(13)
H1 H 0.8698 1.0904 0.4742
H2 H 0.7914 1.1516 0.4525
N2 N 0.8936(4) 1.1489(2) 0.28600(17)
N3 N 0.5885(4) 1.2202(2) 0.39076(18)
N4 N 0.9727(4) 0.9332(2) 0.46481(15)
C1 C 0.8040(4) 1.0723(2) 0.40399(15)
C2 C 0.7247(3) 1.1082(2) 0.35951(15)
C3 C 0.6281(4) 1.0521(2) 0.33288(15)
H3 H 0.5931 1.0748 0.3007
C4 C 0.7082(4) 0.9883(2) 0.31520(15)
C5 C 0.8166(4) 0.9690(2) 0.34193(15)
C6 C 0.8498(4) 1.0048(2) 0.39282(15)
C7 C 0.8205(4) 1.1317(2) 0.31853(18)
C8 C 0.6488(4) 1.1716(2) 0.37780(17)
C9 C 0.9188(4) 0.9656(2) 0.43252(16)
C10 C 0.5091(4) 1.0355(2) 0.36842(16)
C11 C 0.3967(4) 1.0763(2) 0.36411(18)
H4 H 0.3914 1.1123 0.3385
C12 C 0.2913(4) 1.0640(3) 0.3978(2)
C13 C 0.2949(6) 1.0109(4) 0.4353(2)
H5 H 0.2222 1.0025 0.4571
C14 C 0.4047(6) 0.9712(4) 0.4400(3)
H6 H 0.4082 0.9358 0.4661
C15 C 0.5149(5) 0.9812(3) 0.4067(2)
H7 H 0.5898 0.9524 0.4101
C16 C 0.6682(5) 0.9497(2) 0.26549(19)
H8 H 0.7090 0.9728 0.2350
H9 H 0.5728 0.9524 0.2612
C17 C 0.7103(5) 0.8718(2) 0.2676(2)
H10 H 0.6565 0.8465 0.2935
H11 H 0.6954 0.8497 0.2332
C18 C 0.8543(5) 0.8646(2) 0.28237(17)
C19 C 0.9074(4) 0.9134(2) 0.31954(16)
C20 C 1.0410(4) 0.9102(2) 0.33205(17)
H12 H 1.0766 0.9430 0.3560
C21 C 1.1218(5) 0.8587(3) 0.3091(2)
H13 H 1.2117 0.8576 0.3173
C22 C 1.0703(6) 0.8095(3) 0.2746(2)
H14 H 1.1247 0.7741 0.2603
C23 C 0.9384(6) 0.8119(2) 0.26090(19)
H15 H 0.9046 0.7783 0.2371
C24? C 0.6258(15) 0.7656(13) 0.4968(8)
H16? H 0.6178 0.7582 0.5344
H17? H 0.6740 0.7759 0.3996
H18? H 0.8293 0.7728 0.3996
H20? H 0.8026 0.7097 0.5372
H22? H 0.9186 0.7200 0.4965
O2? O 0.737(4) 0.245(2) 0.4988(3)
loop_
_geom_bond_atom_site_label_1
_geom_bond_atom_site_label_2
_geom_bond_site_symmetry_1
_geom_bond_site_symmetry_2
Cl1 C12 1_555 1_555
N1 H1 1_555 1_555
H2 N1 1_555 1_555
N2 C7 1_555 1_555
N3 C8 1_555 1_555
N4 C9 1_555 1_555
C1 N1 1_555 1_555
C2 C1 1_555 1_555
C3 C2 1_555 1_555
H3 C3 1_555 1_555
C4 C3 1_555 1_555
C5 C4 1_555 1_555
C6 C1 1_555 1_555
C7 C2 1_555 1_555
C8 C2 1_555 1_555
C9 C6 1_555 1_555
C10 C3 1_555 1_555
C11 C10 1_555 1_555
H4 C11 1_555 1_555
C12 C11 1_555 1_555
C13 C12 1_555 1_555
H5 C13 1_555 1_555
C14 C13 1_555 1_555
H6 C14 1_555 1_555
C15 C10 1_555 1_555
H7 C15 1_555 1_555
C16 C4 1_555 1_555
H8 C16 1_555 1_555
H9 C16 1_555 1_555
C17 C16 1_555 1_555
H10 C17 1_555 1_555
H11 C17 1_555 1_555
C18 C17 1_555 1_555
C19 C5 1_555 1_555
C20 C19 1_555 1_555
H12 C20 1_555 1_555
C21 C20 1_555 1_555
H13 C21 1_555 1_555
C22 C21 1_555 1_555
H14 C22 1_555 1_555
C23 C18 1_555 1_555
H15 C23 1_555 1_555
N5 C25 1_555 1_555
O1 C26 1_555 1_555
C25 H19 1_555 1_555
C26 N5 1_555 1_555
H21 C26 1_555 1_555
O1A C26A 1_555 1_555
H19A C25 1_555 1_555
C26A N5 1_555 1_555
H21A C26A 1_555 1_555
C5 C6 1_555 1_555
C14 C15 1_555 1_555
C18 C19 1_555 1_555
C22 C23 1_555 1_555

#END
