
#######################################################################
#
#                 Cambridge Crystallographic Data Centre
#                                CCDC 
#
#######################################################################
#
# If this CIF has been generated from an entry in the Cambridge 
# Structural Database, then it will include bibliographic, chemical, 
# crystal, experimental, refinement or atomic coordinate data resulting 
# from the CCDC's data processing and validation procedures.
#
#######################################################################

data_SICTAC
_chemical_formula_moiety         'C27 H20 N1 P1'
_chemical_name_systematic        
2-[8-(diphenylphosphino)naphthalen-1-yl]pyridine
_symmetry_cell_setting           monoclinic
_symmetry_space_group_name_H-M   'P 21/n'
_symmetry_Int_Tables_number      14
_space_group_name_Hall           '-P 2yn'
loop_
_symmetry_equiv_pos_site_id
_symmetry_equiv_pos_as_xyz
1 x,y,z
2 1/2-x,1/2+y,1/2-z
3 -x,-y,-z
4 1/2+x,1/2-y,1/2+z
_cell_length_a                   8.1199(12)
_cell_length_b                   15.444(2)
_cell_length_c                   16.161(2)
_cell_angle_alpha                90
_cell_angle_beta                 93.990(2)
_cell_angle_gamma                90
_cell_volume                     2021.74
_exptl_crystal_colour            colourless
_exptl_crystal_description       block
_cell_formula_units_Z            4
loop_
_atom_site_label
_atom_site_type_symbol
_atom_site_fract_x
_atom_site_fract_y
_atom_site_fract_z
C1 C 0.34466(19) 0.52662(10) 0.30647(9)
C2 C 0.21351(18) 0.58863(9) 0.29707(9)
C3 C 0.17138(18) 0.64011(9) 0.22436(9)
C4 C 0.03834(19) 0.69575(11) 0.22473(10)
H1 H 0.0114 0.7288 0.1776
C5 C -0.0578(2) 0.70462(12) 0.29286(11)
H2 H -0.1475 0.7422 0.2904
C6 C -0.0187(2) 0.65810(12) 0.36208(11)
H3 H -0.0815 0.6646 0.4077
C7 C 0.1150(2) 0.59997(11) 0.36672(9)
C8 C 0.1527(3) 0.55310(13) 0.44063(11)
H4 H 0.0897 0.5621 0.4858
C9 C 0.2775(3) 0.49573(14) 0.44729(11)
H5 H 0.3001 0.4654 0.4965
C10 C 0.3728(2) 0.48208(12) 0.37986(11)
H6 H 0.4579 0.4417 0.3847
C11 C 0.45929(18) 0.50487(10) 0.24095(9)
C12 C 0.6045(2) 0.55067(11) 0.23645(11)
H7 H 0.6300 0.5963 0.2726
C13 C 0.7103(2) 0.52783(14) 0.17791(13)
H8 H 0.8088 0.5577 0.1737
C14 C 0.6693(3) 0.46054(15) 0.12569(14)
H9 H 0.7372 0.4449 0.0841
C15 C 0.5257(3) 0.41662(12) 0.13604(12)
H10 H 0.5004 0.3697 0.1014
C16 C 0.13277(18) 0.67403(10) 0.05073(9)
C17 C 0.0110(2) 0.61537(12) 0.02383(11)
H11 H 0.0071 0.5616 0.0496
C18 C -0.1038(2) 0.63470(14) -0.03987(13)
H12 H -0.1845 0.5944 -0.0566
C19 C -0.0991(3) 0.71343(17) -0.07877(12)
H13 H -0.1765 0.7267 -0.1221
C20 C 0.0204(3) 0.77282(15) -0.05347(12)
H14 H 0.0236 0.8263 -0.0798
C21 C 0.1363(2) 0.75345(12) 0.01114(11)
H15 H 0.2166 0.7940 0.0279
C22 C 0.42570(18) 0.72908(10) 0.14421(9)
C23 C 0.5659(2) 0.72912(12) 0.09928(10)
H16 H 0.5852 0.6829 0.0643
C24 C 0.6769(2) 0.79713(13) 0.10604(12)
H17 H 0.7694 0.7967 0.0751
C25 C 0.6513(2) 0.86471(13) 0.15786(13)
H18 H 0.7273 0.9098 0.1630
C26 C 0.5130(2) 0.86643(12) 0.20270(12)
H19 H 0.4953 0.9128 0.2377
C27 C 0.4008(2) 0.79911(11) 0.19552(10)
H20 H 0.3072 0.8008 0.2255
N1 N 0.41962(19) 0.43680(9) 0.19271(9)
P1 P 0.28819(5) 0.63536(2) 0.13011(2)
loop_
_geom_bond_atom_site_label_1
_geom_bond_atom_site_label_2
_geom_bond_site_symmetry_1
_geom_bond_site_symmetry_2
C1 C2 1_555 1_555
C2 C3 1_555 1_555
C3 C4 1_555 1_555
C4 H1 1_555 1_555
C5 C4 1_555 1_555
H2 C5 1_555 1_555
C6 C5 1_555 1_555
H3 C6 1_555 1_555
C7 C2 1_555 1_555
C8 C7 1_555 1_555
H4 C8 1_555 1_555
C9 C8 1_555 1_555
H5 C9 1_555 1_555
C10 C1 1_555 1_555
H6 C10 1_555 1_555
C11 C1 1_555 1_555
C12 C11 1_555 1_555
H7 C12 1_555 1_555
C13 C12 1_555 1_555
H8 C13 1_555 1_555
C14 C13 1_555 1_555
H9 C14 1_555 1_555
C15 C14 1_555 1_555
H10 C15 1_555 1_555
C16 C17 1_555 1_555
C17 H11 1_555 1_555
C18 C17 1_555 1_555
H12 C18 1_555 1_555
C19 C18 1_555 1_555
H13 C19 1_555 1_555
C20 C19 1_555 1_555
H14 C20 1_555 1_555
C21 C16 1_555 1_555
H15 C21 1_555 1_555
C22 C23 1_555 1_555
C23 H16 1_555 1_555
C24 C23 1_555 1_555
H17 C24 1_555 1_555
C25 C24 1_555 1_555
H18 C25 1_555 1_555
C26 C25 1_555 1_555
H19 C26 1_555 1_555
C27 C22 1_555 1_555
H20 C27 1_555 1_555
N1 C11 1_555 1_555
P1 C3 1_555 1_555
C6 C7 1_555 1_555
C9 C10 1_555 1_555
C15 N1 1_555 1_555
C16 P1 1_555 1_555
C20 C21 1_555 1_555
C22 P1 1_555 1_555
C26 C27 1_555 1_555

#END
