
#######################################################################
#
#                 Cambridge Crystallographic Data Centre
#                                CCDC 
#
#######################################################################
#
# If this CIF has been generated from an entry in the Cambridge 
# Structural Database, then it will include bibliographic, chemical, 
# crystal, experimental, refinement or atomic coordinate data resulting 
# from the CCDC's data processing and validation procedures.
#
#######################################################################

data_SIDJAR
_chemical_formula_moiety         'C15 H13 N1 O1 S1 Se1'
_chemical_name_systematic        
2-(2-[(phenylsulfanyl)selanyl]phenyl)-4,5-dihydro-1,3-oxazole
_symmetry_cell_setting           orthorhombic
_symmetry_space_group_name_H-M   'P b c n'
_symmetry_Int_Tables_number      60
_space_group_name_Hall           '-P 2n 2ab'
loop_
_symmetry_equiv_pos_site_id
_symmetry_equiv_pos_as_xyz
1 x,y,z
2 1/2-x,1/2-y,1/2+z
3 -x,y,1/2-z
4 1/2+x,1/2-y,-z
5 -x,-y,-z
6 1/2+x,1/2+y,1/2-z
7 x,-y,1/2+z
8 1/2-x,1/2+y,z
_cell_length_a                   22.2144(13)
_cell_length_b                   8.0255(4)
_cell_length_c                   15.4496(9)
_cell_angle_alpha                90
_cell_angle_beta                 90
_cell_angle_gamma                90
_cell_volume                     2754.38
_exptl_crystal_colour            'pale yellow'
_exptl_crystal_description       plate
_chemical_melting_point          '115-117 deg.C'
_cell_formula_units_Z            8
_exptl_crystal_recrystallization_method dichloromethane/hexane
loop_
_atom_site_label
_atom_site_type_symbol
_atom_site_fract_x
_atom_site_fract_y
_atom_site_fract_z
Se1 Se 0.391992(10) 0.19070(2) 0.076554(14)
S1 S 0.29838(2) 0.19418(7) 0.02749(4)
O1 O 0.56756(7) 0.40808(19) 0.16021(11)
N1 N 0.50320(9) 0.1952(2) 0.13595(13)
C1 C 0.41164(10) 0.4265(3) 0.07866(14)
C2 C 0.37075(10) 0.5469(3) 0.05094(14)
H1 H 0.3316 0.5147 0.0326
C3 C 0.38723(11) 0.7146(3) 0.05015(16)
H2 H 0.3594 0.7958 0.0301
C4 C 0.44359(11) 0.7640(3) 0.07819(15)
H3 H 0.4546 0.8783 0.0770
C5 C 0.48382(10) 0.6450(3) 0.10803(15)
H4 H 0.5222 0.6787 0.1286
C6 C 0.46846(10) 0.4758(2) 0.10812(14)
C7 C 0.51267(10) 0.3519(3) 0.13563(14)
C8 C 0.60372(10) 0.2604(3) 0.17835(16)
H5 H 0.6187 0.2615 0.2387
H6 H 0.6385 0.2529 0.1384
C9 C 0.55979(10) 0.1151(3) 0.16381(16)
H7 H 0.5751 0.0388 0.1185
H8 H 0.5537 0.0514 0.2180
C10 C 0.30777(9) 0.1680(2) -0.08635(15)
C11 C 0.27176(11) 0.0513(3) -0.12795(17)
H9 H 0.2448 -0.0159 -0.0954
C12 C 0.27521(12) 0.0332(3) -0.21700(17)
H10 H 0.2501 -0.0455 -0.2454
C13 C 0.31502(11) 0.1290(3) -0.26496(16)
H11 H 0.3175 0.1155 -0.3259
C14 C 0.35130(10) 0.2450(3) -0.22324(16)
H12 H 0.3788 0.3105 -0.2559
C15 C 0.34766(10) 0.2657(3) -0.13417(15)
H13 H 0.3722 0.3460 -0.1060
loop_
_geom_bond_atom_site_label_1
_geom_bond_atom_site_label_2
_geom_bond_site_symmetry_1
_geom_bond_site_symmetry_2
Se1 S1 1_555 1_555
S1 C10 1_555 1_555
O1 C7 1_555 1_555
N1 C7 1_555 1_555
C1 Se1 1_555 1_555
C2 C1 1_555 1_555
H1 C2 1_555 1_555
C3 C2 1_555 1_555
H2 C3 1_555 1_555
C4 C3 1_555 1_555
H3 C4 1_555 1_555
C5 C4 1_555 1_555
H4 C5 1_555 1_555
C6 C1 1_555 1_555
C7 C6 1_555 1_555
C8 O1 1_555 1_555
H5 C8 1_555 1_555
H6 C8 1_555 1_555
C9 N1 1_555 1_555
H7 C9 1_555 1_555
H8 C9 1_555 1_555
C10 C11 1_555 1_555
C11 H9 1_555 1_555
C12 C11 1_555 1_555
H10 C12 1_555 1_555
C13 C12 1_555 1_555
H11 C13 1_555 1_555
C14 C13 1_555 1_555
H12 C14 1_555 1_555
C15 C10 1_555 1_555
H13 C15 1_555 1_555
C5 C6 1_555 1_555
C8 C9 1_555 1_555
C14 C15 1_555 1_555

#END
