
#######################################################################
#
#                 Cambridge Crystallographic Data Centre
#                                CCDC 
#
#######################################################################
#
# If this CIF has been generated from an entry in the Cambridge 
# Structural Database, then it will include bibliographic, chemical, 
# crystal, experimental, refinement or atomic coordinate data resulting 
# from the CCDC's data processing and validation procedures.
#
#######################################################################

data_SIFCIU
_chemical_name_common            
2,6-(2',5',8'-trithianonano-1',9'-diyl)-1,3,5,7-tetraoxadecalin
_chemical_formula_moiety         'C12 H20 O4 S3'
_chemical_name_systematic        
tetrahydro-2,6-(methanothioethanothioethanothiomethano)[1,3]dioxino[5,4-d][1,3]dioxine
_symmetry_cell_setting           monoclinic
_symmetry_space_group_name_H-M   'P 21/n'
_symmetry_Int_Tables_number      14
_space_group_name_Hall           '-P 2yn'
loop_
_symmetry_equiv_pos_site_id
_symmetry_equiv_pos_as_xyz
1 x,y,z
2 1/2-x,1/2+y,1/2-z
3 -x,-y,-z
4 1/2+x,1/2-y,1/2+z
_cell_length_a                   9.225(2)
_cell_length_b                   13.148(4)
_cell_length_c                   12.828(5)
_cell_angle_alpha                90
_cell_angle_beta                 105.46(2)
_cell_angle_gamma                90
_cell_volume                     1499.61
_exptl_crystal_colour            yellowish
_exptl_crystal_description       prisms
_chemical_melting_point          '169-170 deg.C'
_cell_formula_units_Z            4
loop_
_atom_site_label
_atom_site_type_symbol
_atom_site_fract_x
_atom_site_fract_y
_atom_site_fract_z
O1 O -0.0023(6) 0.7241(4) 0.3929(4)
C1 C 0.0283(10) 0.6924(6) 0.5008(6)
H1 H 0.0497 0.7513 0.5493
O2 O 0.1499(6) 0.6233(4) 0.5270(4)
C2 C 0.2841(10) 0.6634(6) 0.5067(7)
H2 H 0.3599 0.6104 0.5184
H3 H 0.3226 0.7180 0.5573
O3 O 0.2290(6) 0.6161(4) 0.3210(4)
C3 C 0.1883(8) 0.6462(6) 0.2130(6)
H4 H 0.2716 0.6848 0.1985
O4 O 0.0589(6) 0.7073(4) 0.1872(4)
C4 C 0.0794(9) 0.7984(6) 0.2503(7)
H5 H -0.0134 0.8372 0.2332
H6 H 0.1567 0.8399 0.2329
C5 C 0.1244(9) 0.7730(5) 0.3684(6)
H7 H 0.1495 0.8355 0.4110
C6 C 0.2561(8) 0.7023(6) 0.3950(6)
H8 H 0.3455 0.7390 0.3880
C7 C -0.1052(10) 0.6347(6) 0.5168(6)
H9 H -0.0861 0.6179 0.5929
H10 H -0.1137 0.5712 0.4771
S1 S -0.2834(3) 0.7008(2) 0.4748(2)
C8 C -0.3399(10) 0.6762(7) 0.3261(8)
H11 H -0.4208 0.7220 0.2914
H12 H -0.2553 0.6894 0.2966
C9 C -0.3904(9) 0.5693(6) 0.3030(8)
H13 H -0.4811 0.5588 0.3263
H14 H -0.3136 0.5242 0.3450
S2 S -0.4283(2) 0.53555(17) 0.16019(19)
C10 C -0.2598(11) 0.4671(7) 0.1581(9)
H15 H -0.2322 0.4234 0.2213
H16 H -0.2818 0.4236 0.0947
C11 C -0.1345(10) 0.5296(7) 0.1567(9)
H17 H -0.1189 0.5784 0.2154
H18 H -0.1570 0.5674 0.0893
S3 S 0.0382(2) 0.45714(16) 0.17019(17)
C12 C 0.1590(8) 0.5540(6) 0.1404(6)
H19 H 0.2551 0.5230 0.1425
H20 H 0.1155 0.5771 0.0668
loop_
_geom_bond_atom_site_label_1
_geom_bond_atom_site_label_2
_geom_bond_site_symmetry_1
_geom_bond_site_symmetry_2
O1 C1 1_555 1_555
C1 H1 1_555 1_555
O2 C1 1_555 1_555
C2 O2 1_555 1_555
H2 C2 1_555 1_555
H3 C2 1_555 1_555
O3 C3 1_555 1_555
C3 H4 1_555 1_555
O4 C3 1_555 1_555
C4 O4 1_555 1_555
H5 C4 1_555 1_555
H6 C4 1_555 1_555
C5 O1 1_555 1_555
H7 C5 1_555 1_555
C6 C2 1_555 1_555
H8 C6 1_555 1_555
C7 C1 1_555 1_555
H9 C7 1_555 1_555
H10 C7 1_555 1_555
S1 C7 1_555 1_555
C8 S1 1_555 1_555
H11 C8 1_555 1_555
H12 C8 1_555 1_555
C9 C8 1_555 1_555
H13 C9 1_555 1_555
H14 C9 1_555 1_555
S2 C9 1_555 1_555
C10 S2 1_555 1_555
H15 C10 1_555 1_555
H16 C10 1_555 1_555
C11 C10 1_555 1_555
H17 C11 1_555 1_555
H18 C11 1_555 1_555
S3 C11 1_555 1_555
C12 C3 1_555 1_555
H19 C12 1_555 1_555
H20 C12 1_555 1_555
O3 C6 1_555 1_555
C4 C5 1_555 1_555
C5 C6 1_555 1_555
S3 C12 1_555 1_555

#END
