
#######################################################################
#
#                 Cambridge Crystallographic Data Centre
#                                CCDC 
#
#######################################################################
#
# If this CIF has been generated from an entry in the Cambridge 
# Structural Database, then it will include bibliographic, chemical, 
# crystal, experimental, refinement or atomic coordinate data resulting 
# from the CCDC's data processing and validation procedures.
#
#######################################################################

data_SIFGOE
_chemical_name_common            
'2-(2-(4-Hydroxy-3-methoxyphenyl)vinyl)-1-methylquinolinium 4-methoxybenzenesulfonate'
_chemical_formula_moiety         'C19 H18 N1 O2 1+,C7 H7 O4 S1 1-'
_chemical_name_systematic        
'2-((E)-2-(4-Hydroxy-3-methoxyphenyl)ethenyl)-1-methylquinolinium 4-methoxybenzenesulfonate'
_symmetry_cell_setting           monoclinic
_symmetry_space_group_name_H-M   'P c'
_symmetry_Int_Tables_number      7
_space_group_name_Hall           'P -2yc'
loop_
_symmetry_equiv_pos_site_id
_symmetry_equiv_pos_as_xyz
1 x,y,z
2 x,-y,1/2+z
_cell_length_a                   10.9895(1)
_cell_length_b                   7.1363(1)
_cell_length_c                   15.6341(2)
_cell_angle_alpha                90
_cell_angle_beta                 110.300(1)
_cell_angle_gamma                90
_cell_volume                     1149.94
_exptl_crystal_colour            brown
_exptl_crystal_description       Plate
_chemical_melting_point          '530-532 K'
_cell_formula_units_Z            2
_exptl_crystal_recrystallization_method methanol
loop_
_atom_site_label
_atom_site_type_symbol
_atom_site_fract_x
_atom_site_fract_y
_atom_site_fract_z
S1 S 0.42759(5) 0.49599(7) 0.94335(4)
O1 O 0.48347(17) 0.6688(2) 0.92771(10)
O2 O 0.50786(18) 0.3999(3) 1.02476(10)
O3 O 0.29727(15) 0.5163(3) 0.94274(11)
O4 O 0.3638(2) -0.0262(3) 0.63757(14)
C1 C 0.41725(16) 0.3452(3) 0.85060(12)
C2 C 0.43737(19) 0.1547(3) 0.86423(15)
H1 H 0.4631 0.1066 0.9231
C3 C 0.4199(2) 0.0361(3) 0.79216(19)
H2 H 0.4347 -0.0917 0.8023
C4 C 0.3803(2) 0.1060(3) 0.70429(16)
C5 C 0.3622(2) 0.2961(3) 0.68857(14)
H3 H 0.3378 0.3435 0.6296
C6 C 0.38125(18) 0.4163(3) 0.76284(12)
H4 H 0.3697 0.5446 0.7532
C7 C 0.3092(3) 0.0305(5) 0.5454(2)
H5 H 0.2974 -0.0770 0.5065
H6 H 0.3663 0.1179 0.5318
H7 H 0.2268 0.0892 0.5354
O5 O 0.74861(17) 0.2801(2) 0.10457(9)
H8 H 0.672(3) 0.334(4) 0.0800(19)
O6 O 0.98877(14) 0.1998(2) 0.20172(9)
N1 N 0.79623(14) 0.2354(2) 0.68299(9)
C8 C 0.83875(17) 0.2385(2) 0.77837(11)
C9 C 0.7541(2) 0.2005(3) 0.82593(12)
H9 H 0.6673 0.1732 0.7945
C10 C 0.8015(2) 0.2042(3) 0.91930(13)
H10 H 0.7454 0.1782 0.9507
C11 C 0.9294(2) 0.2452(3) 0.96838(12)
H11 H 0.9584 0.2462 1.0318
C12 C 1.0137(2) 0.2845(3) 0.92358(12)
H12 H 1.0998 0.3133 0.9565
C13 C 0.96933(18) 0.2812(3) 0.82684(11)
C14 C 1.05193(19) 0.3224(3) 0.77796(13)
H13 H 1.1389 0.3492 0.8092
C15 C 1.00549(18) 0.3234(3) 0.68556(12)
H14 H 1.0606 0.3542 0.6540
C16 C 0.87536(18) 0.2787(2) 0.63666(11)
C17 C 0.82359(19) 0.2858(3) 0.53708(12)
H15 H 0.7354 0.3080 0.5083
C18 C 0.89684(19) 0.2619(2) 0.48557(12)
H16 H 0.9846 0.2386 0.5160
C19 C 0.85299(18) 0.2686(3) 0.38606(11)
C20 C 0.94350(19) 0.2324(3) 0.34344(12)
H17 H 1.0291 0.2059 0.3787
C21 C 0.90693(18) 0.2355(3) 0.24973(12)
C22 C 0.77896(19) 0.2765(3) 0.19674(11)
C23 C 0.68884(18) 0.3114(3) 0.23854(12)
H18 H 0.6033 0.3380 0.2033
C24 C 0.72571(18) 0.3069(3) 0.33260(11)
H19 H 0.6645 0.3298 0.3601
C25 C 0.66071(18) 0.1799(3) 0.63382(13)
H20 H 0.6522 0.1371 0.5738
H21 H 0.6047 0.2856 0.6292
H22 H 0.6369 0.0808 0.6665
C26 C 1.1215(2) 0.1713(4) 0.25231(16)
H23 H 1.1686 0.1559 0.2113
H24 H 1.1314 0.0609 0.2892
H25 H 1.1549 0.2778 0.2909
loop_
_geom_bond_atom_site_label_1
_geom_bond_atom_site_label_2
_geom_bond_site_symmetry_1
_geom_bond_site_symmetry_2
S1 O1 1_555 1_555
O2 S1 1_555 1_555
O3 S1 1_555 1_555
O4 C4 1_555 1_555
C1 S1 1_555 1_555
C2 C1 1_555 1_555
H1 C2 1_555 1_555
C3 C2 1_555 1_555
H2 C3 1_555 1_555
C4 C3 1_555 1_555
C5 C4 1_555 1_555
H3 C5 1_555 1_555
C6 C1 1_555 1_555
H4 C6 1_555 1_555
C7 O4 1_555 1_555
H5 C7 1_555 1_555
H6 C7 1_555 1_555
H7 C7 1_555 1_555
O5 H8 1_555 1_555
O6 C21 1_555 1_555
N1 C8 1_555 1_555
C8 C9 1_555 1_555
C9 H9 1_555 1_555
C10 C9 1_555 1_555
H10 C10 1_555 1_555
C11 C10 1_555 1_555
H11 C11 1_555 1_555
C12 C11 1_555 1_555
H12 C12 1_555 1_555
C13 C8 1_555 1_555
C14 C13 1_555 1_555
H13 C14 1_555 1_555
C15 C14 1_555 1_555
H14 C15 1_555 1_555
C16 N1 1_555 1_555
C17 C16 1_555 1_555
H15 C17 1_555 1_555
C18 C17 1_555 1_555
H16 C18 1_555 1_555
C19 C18 1_555 1_555
C20 C19 1_555 1_555
H17 C20 1_555 1_555
C21 C20 1_555 1_555
C22 O5 1_555 1_555
C23 C22 1_555 1_555
H18 C23 1_555 1_555
C24 C19 1_555 1_555
H19 C24 1_555 1_555
C25 N1 1_555 1_555
H20 C25 1_555 1_555
H21 C25 1_555 1_555
H22 C25 1_555 1_555
C26 O6 1_555 1_555
H23 C26 1_555 1_555
H24 C26 1_555 1_555
H25 C26 1_555 1_555
C5 C6 1_555 1_555
C12 C13 1_555 1_555
C15 C16 1_555 1_555
C21 C22 1_555 1_555
C23 C24 1_555 1_555

#END
