
#######################################################################
#
#                 Cambridge Crystallographic Data Centre
#                                CCDC 
#
#######################################################################
#
# If this CIF has been generated from an entry in the Cambridge 
# Structural Database, then it will include bibliographic, chemical, 
# crystal, experimental, refinement or atomic coordinate data resulting 
# from the CCDC's data processing and validation procedures.
#
#######################################################################

data_SIFRAB
_chemical_compound_source        'stems and leaves of Tubocapsicum anomalum'
_chemical_name_common            'Tubocapsenolide A'
_chemical_formula_moiety         'C28 H36 O6'
_chemical_name_systematic        
4\b,16\a-Dihydroxy-5\b,6\b-epoxy-1-oxowitha-2,13,24-trienolide
_chemical_properties_biological  
'low level cytotoxic activity against hepatocellular carcinoma Hep G2 and Hep 3B, breast carcinoma MCF-7 and MDA-MB-231, lung carcinoma A-549 and against the embryonic lung cell line MRC-5'
_symmetry_cell_setting           monoclinic
_symmetry_space_group_name_H-M   'P 21'
_symmetry_Int_Tables_number      4
_space_group_name_Hall           'P 2yb'
loop_
_symmetry_equiv_pos_site_id
_symmetry_equiv_pos_as_xyz
1 x,y,z
2 -x,1/2+y,-z
_cell_length_a                   7.5150(15)
_cell_length_b                   20.187(4)
_cell_length_c                   8.1396(16)
_cell_angle_alpha                90
_cell_angle_beta                 95.64(3)
_cell_angle_gamma                90
_cell_volume                     1228.84
_exptl_crystal_colour            colorless
_exptl_crystal_description       plate
_chemical_melting_point          '223-225 deg.C'
_cell_formula_units_Z            2
loop_
_atom_site_label
_atom_site_type_symbol
_atom_site_fract_x
_atom_site_fract_y
_atom_site_fract_z
O1 O 0.8756(3) 0.50514(11) -0.2251(3)
O2 O 0.6417(3) 0.52838(9) -0.0948(2)
O3 O 0.6678(3) 0.58743(12) 0.3217(3)
H1 H 0.722(6) 0.604(2) 0.396(5)
O4 O 0.3955(3) 0.23636(11) 0.5046(2)
O5 O 0.1533(3) 0.13222(11) 0.3561(3)
H2 H 0.141(6) 0.097(2) 0.313(5)
O6 O -0.1598(3) 0.27383(11) 0.1696(3)
C1 C -0.0022(4) 0.25952(13) 0.1822(4)
C2 C 0.0737(4) 0.22223(14) 0.0503(4)
H3 H 0.0323 0.2297 -0.0596
C3 C 0.2011(4) 0.17795(14) 0.0887(4)
H4 H 0.2453 0.1524 0.0066
C4 C 0.2738(4) 0.16932(13) 0.2672(4)
H5 H 0.3903 0.1472 0.2737
C5 C 0.2932(4) 0.23684(14) 0.3459(3)
C6 C 0.4744(4) 0.26499(14) 0.3662(4)
H6 H 0.5674 0.2383 0.3215
C7 C 0.5069(4) 0.33786(15) 0.3719(4)
H7 H 0.5470 0.3518 0.2676
H8 H 0.6020 0.3473 0.4580
C8 C 0.3413(3) 0.37820(13) 0.4044(3)
H9 H 0.3194 0.3731 0.5204
C9 C 0.1765(3) 0.35404(12) 0.2941(3)
H10 H 0.2104 0.3541 0.1809
C10 C 0.1249(3) 0.28038(13) 0.3325(3)
C11 C 0.0259(4) 0.40508(14) 0.2981(4)
H11 H -0.0829 0.3876 0.2398
H12 H 0.0033 0.4133 0.4116
C12 C 0.0762(4) 0.46995(14) 0.2180(4)
H13 H 0.0664 0.4646 0.0990
H14 H -0.0063 0.5045 0.2439
C13 C 0.2645(3) 0.49009(13) 0.2787(3)
C14 C 0.3748(4) 0.45050(14) 0.3699(3)
C15 C 0.5479(4) 0.48414(16) 0.4293(4)
H15 H 0.6470 0.4656 0.3767
H16 H 0.5730 0.4802 0.5481
C16 C 0.5143(4) 0.55648(16) 0.3780(4)
H17 H 0.4820 0.5810 0.4747
C17 C 0.3482(4) 0.55686(14) 0.2451(4)
C18 C 0.2263(5) 0.61579(16) 0.2788(5)
H18 H 0.1171 0.6130 0.2073
H19 H 0.2862 0.6565 0.2584
H20 H 0.1997 0.6145 0.3917
C19 C 0.0297(4) 0.27448(15) 0.4897(4)
H21 H 0.0041 0.2287 0.5095
H22 H -0.0799 0.2992 0.4766
H23 H 0.1054 0.2918 0.5815
C20 C 0.4078(4) 0.56328(14) 0.0674(4)
H24 H 0.4921 0.6005 0.0737
C21 C 0.2627(4) 0.58219(17) -0.0689(4)
H25 H 0.3112 0.5811 -0.1736
H26 H 0.2201 0.6260 -0.0488
H27 H 0.1654 0.5513 -0.0699
C22 C 0.5171(4) 0.50329(13) 0.0187(3)
H28 H 0.5875 0.4870 0.1183
C23 C 0.4179(4) 0.44500(14) -0.0642(4)
H29 H 0.3391 0.4257 0.0103
H30 H 0.3455 0.4599 -0.1624
C24 C 0.5498(4) 0.39388(14) -0.1103(3)
C25 C 0.7129(4) 0.41244(14) -0.1421(3)
C26 C 0.7515(4) 0.48424(14) -0.1541(3)
C27 C 0.8582(5) 0.36775(18) -0.1894(4)
H31 H 0.8199 0.3225 -0.1841
H32 H 0.9637 0.3742 -0.1146
H33 H 0.8841 0.3779 -0.2998
C28 C 0.4850(5) 0.32298(15) -0.1211(4)
H34 H 0.5284 0.3019 -0.2150
H35 H 0.3567 0.3223 -0.1325
H36 H 0.5289 0.2997 -0.0225
loop_
_geom_bond_atom_site_label_1
_geom_bond_atom_site_label_2
_geom_bond_site_symmetry_1
_geom_bond_site_symmetry_2
O1 C26 1_555 1_555
O2 C22 1_555 1_555
O3 H1 1_555 1_555
O4 C5 1_555 1_555
O5 H2 1_555 1_555
O6 C1 1_555 1_555
C1 C2 1_555 1_555
C2 H3 1_555 1_555
C3 C2 1_555 1_555
H4 C3 1_555 1_555
C4 O5 1_555 1_555
H5 C4 1_555 1_555
C5 C4 1_555 1_555
C6 O4 1_555 1_555
H6 C6 1_555 1_555
C7 C6 1_555 1_555
H7 C7 1_555 1_555
H8 C7 1_555 1_555
C8 C7 1_555 1_555
H9 C8 1_555 1_555
C9 C8 1_555 1_555
H10 C9 1_555 1_555
C10 C1 1_555 1_555
C11 C9 1_555 1_555
H11 C11 1_555 1_555
H12 C11 1_555 1_555
C12 C11 1_555 1_555
H13 C12 1_555 1_555
H14 C12 1_555 1_555
C13 C12 1_555 1_555
C14 C8 1_555 1_555
C15 C14 1_555 1_555
H15 C15 1_555 1_555
H16 C15 1_555 1_555
C16 O3 1_555 1_555
H17 C16 1_555 1_555
C17 C13 1_555 1_555
C18 C17 1_555 1_555
H18 C18 1_555 1_555
H19 C18 1_555 1_555
H20 C18 1_555 1_555
C19 C10 1_555 1_555
H21 C19 1_555 1_555
H22 C19 1_555 1_555
H23 C19 1_555 1_555
C20 C17 1_555 1_555
H24 C20 1_555 1_555
C21 C20 1_555 1_555
H25 C21 1_555 1_555
H26 C21 1_555 1_555
H27 C21 1_555 1_555
C22 C20 1_555 1_555
H28 C22 1_555 1_555
C23 C22 1_555 1_555
H29 C23 1_555 1_555
H30 C23 1_555 1_555
C24 C23 1_555 1_555
C25 C24 1_555 1_555
C26 O2 1_555 1_555
C27 C25 1_555 1_555
H31 C27 1_555 1_555
H32 C27 1_555 1_555
H33 C27 1_555 1_555
C28 C24 1_555 1_555
H34 C28 1_555 1_555
H35 C28 1_555 1_555
H36 C28 1_555 1_555
C3 C4 1_555 1_555
C5 C6 1_555 1_555
C5 C10 1_555 1_555
C9 C10 1_555 1_555
C13 C14 1_555 1_555
C15 C16 1_555 1_555
C16 C17 1_555 1_555
C25 C26 1_555 1_555

#END
