
#######################################################################
#
#                 Cambridge Crystallographic Data Centre
#                                CCDC 
#
#######################################################################
#
# If this CIF has been generated from an entry in the Cambridge 
# Structural Database, then it will include bibliographic, chemical, 
# crystal, experimental, refinement or atomic coordinate data resulting 
# from the CCDC's data processing and validation procedures.
#
#######################################################################

data_SIFSUY
_chemical_formula_moiety         'C52 H32 N4'
_chemical_name_systematic        
2,3-bis[4'-(9H-carbazol-9-yl)[1,1'-biphenyl]-4-yl]but-2-enedinitrile
_symmetry_cell_setting           monoclinic
_symmetry_space_group_name_H-M   'P 21/n'
_symmetry_Int_Tables_number      14
_space_group_name_Hall           '-P 2yn'
loop_
_symmetry_equiv_pos_site_id
_symmetry_equiv_pos_as_xyz
1 x,y,z
2 1/2-x,1/2+y,1/2-z
3 -x,-y,-z
4 1/2+x,1/2-y,1/2+z
_cell_length_a                   12.3344(3)
_cell_length_b                   10.2681(2)
_cell_length_c                   15.0669(3)
_cell_angle_alpha                90
_cell_angle_beta                 107.574(8)
_cell_angle_gamma                90
_cell_volume                     1819.17
_exptl_crystal_colour            yellow
_exptl_crystal_description       platelet
_cell_formula_units_Z            2
_exptl_crystal_preparation       Luminescent
loop_
_atom_site_label
_atom_site_type_symbol
_atom_site_fract_x
_atom_site_fract_y
_atom_site_fract_z
N1 N -0.10292(17) 0.1288(2) -0.18419(14)
N2 N 0.84761(15) 0.27258(19) 0.19320(12)
C1 C 0.02319(18) 0.0379(2) -0.02666(15)
C2 C -0.04859(18) 0.0842(2) -0.11526(16)
C3 C 0.14336(18) 0.0812(2) 0.00061(15)
C4 C 0.19412(19) 0.1347(2) 0.08857(15)
C5 C 0.30673(18) 0.1707(2) 0.11525(15)
C6 C 0.37415(18) 0.1502(2) 0.05702(15)
C7 C 0.32142(19) 0.1018(2) -0.03248(16)
C8 C 0.20744(19) 0.0697(2) -0.06078(16)
C9 C 0.49773(18) 0.1792(2) 0.09080(15)
C10 C 0.55626(18) 0.1761(2) 0.18587(16)
C11 C 0.66974(19) 0.2090(2) 0.22044(16)
C12 C 0.73025(18) 0.2417(2) 0.15930(15)
C13 C 0.67456(18) 0.2419(2) 0.06407(15)
C14 C 0.55992(18) 0.2128(2) 0.03034(15)
C15 C 0.93212(19) 0.1959(2) 0.25409(15)
C16 C 0.9209(2) 0.0828(2) 0.30124(15)
C17 C 1.0203(2) 0.0245(2) 0.35518(16)
C18 C 1.1275(2) 0.0752(3) 0.36176(16)
C19 C 1.13710(19) 0.1871(2) 0.31536(15)
C20 C 1.03951(19) 0.2494(2) 0.26043(15)
C21 C 1.01949(18) 0.3639(2) 0.20109(15)
C22 C 1.09175(19) 0.4549(2) 0.17926(15)
C23 C 1.0441(2) 0.5545(2) 0.11943(17)
C24 C 0.9245(2) 0.5667(2) 0.08147(15)
C25 C 0.8535(2) 0.4776(2) 0.10178(15)
C26 C 0.90121(18) 0.3749(2) 0.16080(15)
H1 H 0.15054 0.14632 0.1303
H2 H 0.33919 0.21017 0.17435
H3 H 0.36478 0.09092 -0.07445
H4 H 0.17259 0.03956 -0.12244
H5 H 0.51663 0.15049 0.22817
H6 H 0.70635 0.20929 0.28569
H7 H 0.71569 0.26234 0.02178
H8 H 0.52285 0.21567 -0.03482
H9 H 0.84834 0.04703 0.29667
H10 H 1.01534 -0.05241 0.38878
H11 H 1.19398 0.03189 0.39853
H12 H 1.21003 0.22223 0.3206
H13 H 1.17193 0.44805 0.20524
H14 H 1.09219 0.61638 0.10316
H15 H 0.8935 0.6377 0.04144
H16 H 0.77333 0.48551 0.07623
N1B N 0.10292(17) -0.1288(2) 0.18419(14)
N2B N -0.84761(15) -0.27258(19) -0.19320(12)
C1B C -0.02319(18) -0.0379(2) 0.02666(15)
C2B C 0.04859(18) -0.0842(2) 0.11526(16)
C3B C -0.14336(18) -0.0812(2) -0.00061(15)
C4B C -0.19412(19) -0.1347(2) -0.08857(15)
C5B C -0.30673(18) -0.1707(2) -0.11525(15)
C6B C -0.37415(18) -0.1502(2) -0.05702(15)
C7B C -0.32142(19) -0.1018(2) 0.03248(16)
C8B C -0.20744(19) -0.0697(2) 0.06078(16)
C9B C -0.49773(18) -0.1792(2) -0.09080(15)
C10B C -0.55626(18) -0.1761(2) -0.18587(16)
C11B C -0.66974(19) -0.2090(2) -0.22044(16)
C12B C -0.73025(18) -0.2417(2) -0.15930(15)
C13B C -0.67456(18) -0.2419(2) -0.06407(15)
C14B C -0.55992(18) -0.2128(2) -0.03034(15)
C15B C -0.93212(19) -0.1959(2) -0.25409(15)
C16B C -0.9209(2) -0.0828(2) -0.30124(15)
C17B C -1.0203(2) -0.0245(2) -0.35518(16)
C18B C -1.1275(2) -0.0752(3) -0.36176(16)
C19B C -1.13710(19) -0.1871(2) -0.31536(15)
C20B C -1.03951(19) -0.2494(2) -0.26043(15)
C21B C -1.01949(18) -0.3639(2) -0.20109(15)
C22B C -1.09175(19) -0.4549(2) -0.17926(15)
C23B C -1.0441(2) -0.5545(2) -0.11943(17)
C24B C -0.9245(2) -0.5667(2) -0.08147(15)
C25B C -0.8535(2) -0.4776(2) -0.10178(15)
C26B C -0.90121(18) -0.3749(2) -0.16080(15)
H1B H -0.15054 -0.14632 -0.1303
H2B H -0.33919 -0.21017 -0.17435
H3B H -0.36478 -0.09092 0.07445
H4B H -0.17259 -0.03956 0.12244
H5B H -0.51663 -0.15049 -0.22817
H6B H -0.70635 -0.20929 -0.28569
H7B H -0.71569 -0.26234 -0.02178
H8B H -0.52285 -0.21567 0.03482
H9B H -0.84834 -0.04703 -0.29667
H10B H -1.01534 0.05241 -0.38878
H11B H -1.19398 -0.03189 -0.39853
H12B H -1.21003 -0.22223 -0.3206
H13B H -1.17193 -0.44805 -0.20524
H14B H -1.09219 -0.61638 -0.10316
H15B H -0.8935 -0.6377 -0.04144
H16B H -0.77333 -0.48551 -0.07623
loop_
_geom_bond_atom_site_label_1
_geom_bond_atom_site_label_2
_geom_bond_site_symmetry_1
_geom_bond_site_symmetry_2
N1 C2 1_555 1_555
N2 C12 1_555 1_555
C1 C2 1_555 1_555
C3 C1 1_555 1_555
C4 C3 1_555 1_555
C5 C4 1_555 1_555
C6 C5 1_555 1_555
C7 C6 1_555 1_555
C8 C3 1_555 1_555
C9 C6 1_555 1_555
C10 C9 1_555 1_555
C11 C10 1_555 1_555
C12 C11 1_555 1_555
C13 C12 1_555 1_555
C14 C9 1_555 1_555
C15 N2 1_555 1_555
C16 C15 1_555 1_555
C17 C16 1_555 1_555
C18 C17 1_555 1_555
C19 C18 1_555 1_555
C20 C15 1_555 1_555
C21 C20 1_555 1_555
C22 C21 1_555 1_555
C23 C22 1_555 1_555
C24 C23 1_555 1_555
C25 C24 1_555 1_555
C26 N2 1_555 1_555
H1 C4 1_555 1_555
H2 C5 1_555 1_555
H3 C7 1_555 1_555
H4 C8 1_555 1_555
H5 C10 1_555 1_555
H6 C11 1_555 1_555
H7 C13 1_555 1_555
H8 C14 1_555 1_555
H9 C16 1_555 1_555
H10 C17 1_555 1_555
H11 C18 1_555 1_555
H12 C19 1_555 1_555
H13 C22 1_555 1_555
H14 C23 1_555 1_555
H15 C24 1_555 1_555
H16 C25 1_555 1_555
N1B C2B 1_555 1_555
N2B C12B 1_555 1_555
C1B C1 1_555 1_555
C2B C1B 1_555 1_555
C3B C1B 1_555 1_555
C4B C3B 1_555 1_555
C5B C4B 1_555 1_555
C6B C5B 1_555 1_555
C7B C6B 1_555 1_555
C8B C3B 1_555 1_555
C9B C6B 1_555 1_555
C10B C9B 1_555 1_555
C11B C10B 1_555 1_555
C12B C11B 1_555 1_555
C13B C12B 1_555 1_555
C14B C9B 1_555 1_555
C15B N2B 1_555 1_555
C16B C15B 1_555 1_555
C17B C16B 1_555 1_555
C18B C17B 1_555 1_555
C19B C18B 1_555 1_555
C20B C15B 1_555 1_555
C21B C20B 1_555 1_555
C22B C21B 1_555 1_555
C23B C22B 1_555 1_555
C24B C23B 1_555 1_555
C25B C24B 1_555 1_555
C26B N2B 1_555 1_555
H1B C4B 1_555 1_555
H2B C5B 1_555 1_555
H3B C7B 1_555 1_555
H4B C8B 1_555 1_555
H5B C10B 1_555 1_555
H6B C11B 1_555 1_555
H7B C13B 1_555 1_555
H8B C14B 1_555 1_555
H9B C16B 1_555 1_555
H10B C17B 1_555 1_555
H11B C18B 1_555 1_555
H12B C19B 1_555 1_555
H13B C22B 1_555 1_555
H14B C23B 1_555 1_555
H15B C24B 1_555 1_555
H16B C25B 1_555 1_555
C7 C8 1_555 1_555
C13 C14 1_555 1_555
C19 C20 1_555 1_555
C21 C26 1_555 1_555
C25 C26 1_555 1_555
C7B C8B 1_555 1_555
C13B C14B 1_555 1_555
C19B C20B 1_555 1_555
C21B C26B 1_555 1_555
C25B C26B 1_555 1_555

#END
