
#######################################################################
#
#                 Cambridge Crystallographic Data Centre
#                                CCDC 
#
#######################################################################
#
# If this CIF has been generated from an entry in the Cambridge 
# Structural Database, then it will include bibliographic, chemical, 
# crystal, experimental, refinement or atomic coordinate data resulting 
# from the CCDC's data processing and validation procedures.
#
#######################################################################

data_SIFXOX
_chemical_formula_moiety         'C66 H84 N24 O12,C16 H36 N1 1+,Br1 1-'
_chemical_name_systematic        
'tetra-n-butylammonium 5,7,13,15,21,23,29,31,37,39,45,47-dodecakis(prop-2-en-1-yl)-1,3,5,7,9,11,13,15,17,19,21,23,25,27,29,31,33,35,37,39,41,43,45,47-tetracosaazatridecacyclo[41.5.1.1^3,9^.1^11,17^.1^19,25^.1^27,33^.1^35,41^.0^4,8^.0^12,16^.0^20,24^.0^28,32^.0^36,40^.0^44,48^]tetrapentacontane-6,14,22,30,38,46,49,50,51,52,53,54-dodecone bromide unknown solvate'
_symmetry_cell_setting           monoclinic
_symmetry_space_group_name_H-M   'C 2/c'
_symmetry_Int_Tables_number      15
_space_group_name_Hall           '-C 2yn'
loop_
_symmetry_equiv_pos_site_id
_symmetry_equiv_pos_as_xyz
1 x,y,z
2 -x,y,1/2-z
3 1/2+x,1/2+y,z
4 1/2-x,1/2+y,1/2-z
5 -x,-y,-z
6 x,-y,1/2+z
7 1/2-x,1/2-y,-z
8 1/2+x,1/2-y,1/2+z
_cell_length_a                   27.8505(18)
_cell_length_b                   14.3308(12)
_cell_length_c                   25.1994(11)
_cell_angle_alpha                90
_cell_angle_beta                 96.272(4)
_cell_angle_gamma                90
_cell_volume                     9997.38
_exptl_crystal_colour            colorless
_exptl_crystal_description       irregular
_cell_formula_units_Z            4
loop_
_atom_site_label
_atom_site_type_symbol
_atom_site_fract_x
_atom_site_fract_y
_atom_site_fract_z
Br1 Br 0.7500 0.2500 0.5000
O1 O 0.66948(10) 0.33157(19) 0.30330(10)
O2 O 0.55593(10) 0.0089(2) 0.38583(10)
O3 O 0.57717(11) 0.3856(2) 0.48952(11)
O4 O 0.71073(10) 0.6915(2) 0.43003(10)
O5 O 0.72744(11) 0.4995(2) 0.64796(11)
O6 O 0.61339(10) 0.1527(2) 0.69290(11)
N1 N 0.67582(11) 0.1837(2) 0.33959(11)
N2 N 0.63172(11) 0.2892(2) 0.37699(12)
N3 N 0.58338(11) 0.1590(2) 0.40376(13)
N4 N 0.63444(12) 0.0543(2) 0.37849(12)
N5 N 0.63594(12) 0.4237(2) 0.43507(13)
N6 N 0.65013(12) 0.4509(2) 0.52156(12)
N7 N 0.69560(12) 0.5868(2) 0.49547(12)
N8 N 0.69589(12) 0.5361(2) 0.41222(12)
N9 N 0.67492(12) 0.3883(2) 0.60926(12)
N10 N 0.73866(11) 0.3417(2) 0.66248(12)
N11 N 0.68986(12) 0.2100(2) 0.68549(12)
N12 N 0.63039(12) 0.2447(2) 0.62156(12)
C1 C 0.66014(14) 0.2742(3) 0.33655(15)
C2 C 0.66342(14) 0.1370(3) 0.38823(14)
H1 H 0.6926 0.1252 0.4141
C3 C 0.62877(13) 0.2078(3) 0.41026(15)
H2 H 0.6389 0.2225 0.4486
C4 C 0.58840(16) 0.0678(3) 0.38924(14)
C5 C 0.53843(15) 0.1949(3) 0.42044(16)
H3 H 0.5462 0.2373 0.4512
H4 H 0.5196 0.1420 0.4327
C6 C 0.50741(16) 0.2469(3) 0.37713(19)
H5 H 0.4792 0.2766 0.3869
C7 C 0.51625(17) 0.2547(3) 0.32651(18)
H6 H 0.5441 0.2261 0.3150
H7 H 0.4947 0.2888 0.3019
C8 C 0.65416(16) -0.0391(3) 0.37256(16)
H8 H 0.6833 -0.0339 0.3535
H9 H 0.6301 -0.0766 0.3500
C9 C 0.66743(17) -0.0903(3) 0.42365(19)
H10 H 0.6794 -0.1520 0.4211
C10 C 0.6640(2) -0.0578(4) 0.4716(2)
H11 H 0.6522 0.0036 0.4761
H12 H 0.6733 -0.0956 0.5020
C11 C 0.61192(15) 0.3795(3) 0.38746(15)
H13 H 0.5772 0.3724 0.3916
H14 H 0.6147 0.4206 0.3564
C12 C 0.61674(16) 0.4165(3) 0.48313(16)
C13 C 0.68679(15) 0.4527(3) 0.44146(14)
H15 H 0.7092 0.4006 0.4346
C14 C 0.69326(15) 0.4858(3) 0.50044(15)
H16 H 0.7234 0.4599 0.5203
C15 C 0.70160(14) 0.6130(3) 0.44470(16)
C16 C 0.70551(15) 0.6501(3) 0.54043(16)
H17 H 0.7297 0.6968 0.5317
H18 H 0.7197 0.6143 0.5719
C17 C 0.6612(2) 0.7003(3) 0.55461(18)
H19 H 0.6659 0.7420 0.5840
C18 C 0.6169(2) 0.6933(4) 0.5312(2)
H20 H 0.6100 0.6527 0.5015
H21 H 0.5917 0.7288 0.5439
C19 C 0.70816(16) 0.5383(3) 0.35784(16)
H22 H 0.6984 0.5995 0.3420
H23 H 0.6891 0.4898 0.3370
C20 C 0.7606(2) 0.5229(3) 0.3520(2)
H24 H 0.7702 0.5329 0.3175
C21 C 0.79351(19) 0.4980(4) 0.3881(2)
H25 H 0.7859 0.4870 0.4234
H26 H 0.8257 0.4904 0.3797
C22 C 0.64311(15) 0.4512(3) 0.57765(15)
H27 H 0.6483 0.5152 0.5918
H28 H 0.6092 0.4337 0.5814
C23 C 0.71521(15) 0.4180(3) 0.64062(15)
C24 C 0.67331(14) 0.2865(3) 0.60429(15)
H29 H 0.6785 0.2660 0.5674
C25 C 0.71491(14) 0.2552(3) 0.64531(14)
H30 H 0.7373 0.2114 0.6294
C26 C 0.64204(15) 0.1979(3) 0.66945(16)
C27 C 0.71323(15) 0.1604(3) 0.73213(14)
H31 H 0.7464 0.1431 0.7254
H32 H 0.6952 0.1021 0.7372
C28 C 0.71557(16) 0.2178(3) 0.78297(16)
H33 H 0.6878 0.2522 0.7899
C29 C 0.75358(18) 0.2222(3) 0.81734(16)
H34 H 0.7818 0.1884 0.8113
H35 H 0.7532 0.2592 0.8486
C30 C 0.58781(15) 0.2203(3) 0.58619(16)
H36 H 0.5801 0.2724 0.5609
H37 H 0.5603 0.2134 0.6077
C31 C 0.59243(18) 0.1318(4) 0.55468(17)
H38 H 0.6200 0.1257 0.5358
C32 C 0.5617(2) 0.0632(4) 0.5514(2)
H39 H 0.5337 0.0667 0.5698
H40 H 0.5672 0.0097 0.5307
C33 C 0.78619(15) 0.3477(3) 0.69165(15)
H41 H 0.7870 0.3092 0.7244
H42 H 0.7926 0.4132 0.7027
O1F O 0.83052(10) 0.16843(19) 0.69670(10)
O2F O 0.94407(10) 0.4911(2) 0.61417(10)
O3F O 0.92283(11) 0.1144(2) 0.51048(11)
O4F O 0.78927(10) -0.1915(2) 0.56997(10)
O5F O 0.77256(11) 0.0005(2) 0.35204(11)
O6F O 0.88661(10) 0.3473(2) 0.30710(11)
N1F N 0.82418(11) 0.3163(2) 0.66041(11)
N2F N 0.86828(11) 0.2108(2) 0.62301(12)
N3F N 0.91662(11) 0.3410(2) 0.59624(13)
N4F N 0.86556(12) 0.4457(2) 0.62151(12)
N5F N 0.86406(12) 0.0763(2) 0.56493(13)
N6F N 0.84987(12) 0.0491(2) 0.47844(12)
N7F N 0.80440(12) -0.0868(2) 0.50453(12)
N8F N 0.80411(12) -0.0361(2) 0.58778(12)
N9F N 0.82508(12) 0.1117(2) 0.39074(12)
N10F N 0.76134(11) 0.1583(2) 0.33752(12)
N11F N 0.81014(12) 0.2900(2) 0.31451(12)
N12F N 0.86961(12) 0.2553(2) 0.37844(12)
C1F C 0.83986(14) 0.2258(3) 0.66345(15)
C2F C 0.83658(14) 0.3630(3) 0.61177(14)
H1F H 0.8074 0.3748 0.5859
C3F C 0.87123(13) 0.2922(3) 0.58974(15)
H2F H 0.8611 0.2775 0.5514
C4F C 0.91160(16) 0.4322(3) 0.61076(14)
C5F C 0.96157(15) 0.3051(3) 0.57956(16)
H3F H 0.9538 0.2627 0.5488
H4F H 0.9804 0.3580 0.5673
C6F C 0.99259(16) 0.2531(3) 0.62287(19)
H5F H 1.0208 0.2234 0.6131
C7F C 0.98375(17) 0.2453(3) 0.67349(18)
H6F H 0.9559 0.2739 0.6850
H7F H 1.0053 0.2112 0.6981
C8F C 0.84584(16) 0.5391(3) 0.62744(16)
H8F H 0.8167 0.5339 0.6465
H9F H 0.8699 0.5766 0.6500
C9F C 0.83257(17) 0.5903(3) 0.57635(19)
H10F H 0.8206 0.6520 0.5789
C10F C 0.8360(2) 0.5578(4) 0.5284(2)
H11F H 0.8478 0.4964 0.5239
H12F H 0.8267 0.5956 0.4980
C11F C 0.88808(15) 0.1205(3) 0.61254(15)
H13F H 0.9228 0.1276 0.6084
H14F H 0.8853 0.0794 0.6436
C12F C 0.88326(16) 0.0835(3) 0.51687(16)
C13F C 0.81321(15) 0.0473(3) 0.55854(14)
H15F H 0.7908 0.0994 0.5654
C14F C 0.80674(15) 0.0142(3) 0.49956(15)
H16F H 0.7766 0.0401 0.4797
C15F C 0.79840(14) -0.1130(3) 0.55530(16)
C16F C 0.79449(15) -0.1501(3) 0.45957(16)
H17F H 0.7703 -0.1968 0.4683
H18F H 0.7803 -0.1143 0.4281
C17F C 0.8388(2) -0.2003(3) 0.44539(18)
H19F H 0.8341 -0.2420 0.4160
C18F C 0.8831(2) -0.1933(4) 0.4688(2)
H20F H 0.8900 -0.1527 0.4985
H21F H 0.9083 -0.2288 0.4561
C19F C 0.79184(16) -0.0383(3) 0.64216(16)
H22F H 0.8016 -0.0995 0.6580
H23F H 0.8109 0.0102 0.6630
C20F C 0.7394(2) -0.0229(3) 0.6480(2)
H24F H 0.7298 -0.0329 0.6825
C21F C 0.70649(19) 0.0020(4) 0.6119(2)
H25F H 0.7141 0.0130 0.5766
H26F H 0.6743 0.0096 0.6203
C22F C 0.85689(15) 0.0488(3) 0.42235(15)
H27F H 0.8517 -0.0152 0.4082
H28F H 0.8908 0.0663 0.4186
C23F C 0.78479(15) 0.0820(3) 0.35938(15)
C24F C 0.82669(14) 0.2135(3) 0.39571(15)
H29F H 0.8215 0.2340 0.4326
C25F C 0.78509(14) 0.2448(3) 0.35469(14)
H30F H 0.7627 0.2886 0.3706
C26F C 0.85796(15) 0.3021(3) 0.33055(16)
C27F C 0.78677(15) 0.3396(3) 0.26787(14)
H31F H 0.7536 0.3569 0.2746
H32F H 0.8048 0.3979 0.2628
C28F C 0.78443(16) 0.2822(3) 0.21703(16)
H33F H 0.8122 0.2478 0.2101
C29F C 0.74642(18) 0.2778(3) 0.18266(16)
H34F H 0.7182 0.3116 0.1887
H35F H 0.7468 0.2408 0.1514
C30F C 0.91219(15) 0.2797(3) 0.41381(16)
H36F H 0.9199 0.2276 0.4391
H37F H 0.9397 0.2866 0.3923
C31F C 0.90757(18) 0.3682(4) 0.44532(17)
H38F H 0.8800 0.3743 0.4642
C32F C 0.9383(2) 0.4368(4) 0.4486(2)
H39F H 0.9663 0.4333 0.4302
H40F H 0.9328 0.4903 0.4693
C33F C 0.71381(15) 0.1523(3) 0.30835(15)
H41F H 0.7130 0.1908 0.2756
H42F H 0.7074 0.0868 0.2973
N13 N 0.5000 0.0936(3) 0.7500
C34 C 0.54595(14) 0.0335(3) 0.75473(16)
H43 H 0.5741 0.0761 0.7575
H44 H 0.5474 -0.0016 0.7887
C35 C 0.55190(15) -0.0352(3) 0.71074(18)
H45 H 0.5260 -0.0828 0.7096
H46 H 0.5489 -0.0023 0.6760
C36 C 0.59970(16) -0.0815(3) 0.71965(19)
H47 H 0.6017 -0.1143 0.7544
H48 H 0.6249 -0.0324 0.7227
C37 C 0.61176(18) -0.1499(4) 0.6785(2)
H49 H 0.5929 -0.2070 0.6814
H50 H 0.6463 -0.1647 0.6841
H51 H 0.6040 -0.1228 0.6429
C38 C 0.50193(15) 0.1534(3) 0.80019(15)
H52 H 0.4703 0.1848 0.8007
H53 H 0.5064 0.1117 0.8317
C39 C 0.54124(16) 0.2272(3) 0.80617(17)
H54 H 0.5729 0.1973 0.8033
H55 H 0.5354 0.2730 0.7768
C40 C 0.5429(2) 0.2765(4) 0.8581(2)
H56 H 0.5482 0.2297 0.8871
H57 H 0.5110 0.3055 0.8606
C41 C 0.5811(2) 0.3510(5) 0.8676(2)
H58 H 0.6131 0.3228 0.8671
H59 H 0.5789 0.3802 0.9024
H60 H 0.5761 0.3983 0.8395
C34A C 0.45405(14) 0.0335(3) 0.74527(16)
H43A H 0.4259 0.0761 0.7425
H44A H 0.4526 -0.0016 0.7113
C35A C 0.44810(15) -0.0352(3) 0.78926(18)
H45A H 0.4740 -0.0828 0.7904
H46A H 0.4511 -0.0023 0.8240
C36A C 0.40030(16) -0.0815(3) 0.78035(19)
H47A H 0.3983 -0.1143 0.7456
H48A H 0.3751 -0.0324 0.7773
C37A C 0.38824(18) -0.1499(4) 0.8215(2)
H49A H 0.4071 -0.2070 0.8186
H50A H 0.3537 -0.1647 0.8159
H51A H 0.3960 -0.1228 0.8571
C38A C 0.49807(15) 0.1534(3) 0.69981(15)
H52A H 0.5297 0.1848 0.6993
H53A H 0.4936 0.1117 0.6683
C39A C 0.45876(16) 0.2272(3) 0.69383(17)
H54A H 0.4271 0.1973 0.6967
H55A H 0.4646 0.2730 0.7232
C40A C 0.4571(2) 0.2765(4) 0.6419(2)
H56A H 0.4518 0.2297 0.6129
H57A H 0.4890 0.3055 0.6394
C41A C 0.4189(2) 0.3510(5) 0.6324(2)
H58A H 0.3869 0.3228 0.6329
H59A H 0.4211 0.3802 0.5976
H60A H 0.4239 0.3983 0.6605
loop_
_geom_bond_atom_site_label_1
_geom_bond_atom_site_label_2
_geom_bond_site_symmetry_1
_geom_bond_site_symmetry_2
O1 C1 1_555 1_555
O2 C4 1_555 1_555
O3 C12 1_555 1_555
O4 C15 1_555 1_555
O5 C23 1_555 1_555
O6 C26 1_555 1_555
N1 C1 1_555 1_555
N2 C1 1_555 1_555
N3 C3 1_555 1_555
N4 C2 1_555 1_555
N5 C11 1_555 1_555
N6 C12 1_555 1_555
N7 C14 1_555 1_555
N8 C13 1_555 1_555
N9 C22 1_555 1_555
N10 C23 1_555 1_555
N11 C25 1_555 1_555
N12 C24 1_555 1_555
C2 N1 1_555 1_555
H1 C2 1_555 1_555
C3 N2 1_555 1_555
H2 C3 1_555 1_555
C4 N3 1_555 1_555
C5 N3 1_555 1_555
H3 C5 1_555 1_555
H4 C5 1_555 1_555
C6 C5 1_555 1_555
H5 C6 1_555 1_555
C7 C6 1_555 1_555
H6 C7 1_555 1_555
H7 C7 1_555 1_555
C8 N4 1_555 1_555
H8 C8 1_555 1_555
H9 C8 1_555 1_555
C9 C8 1_555 1_555
H10 C9 1_555 1_555
C10 C9 1_555 1_555
H11 C10 1_555 1_555
H12 C10 1_555 1_555
C11 N2 1_555 1_555
H13 C11 1_555 1_555
H14 C11 1_555 1_555
C12 N5 1_555 1_555
C13 N5 1_555 1_555
H15 C13 1_555 1_555
C14 N6 1_555 1_555
H16 C14 1_555 1_555
C15 N7 1_555 1_555
C16 N7 1_555 1_555
H17 C16 1_555 1_555
H18 C16 1_555 1_555
C17 C16 1_555 1_555
H19 C17 1_555 1_555
C18 C17 1_555 1_555
H20 C18 1_555 1_555
H21 C18 1_555 1_555
C19 N8 1_555 1_555
H22 C19 1_555 1_555
H23 C19 1_555 1_555
C20 C19 1_555 1_555
H24 C20 1_555 1_555
C21 C20 1_555 1_555
H25 C21 1_555 1_555
H26 C21 1_555 1_555
C22 N6 1_555 1_555
H27 C22 1_555 1_555
H28 C22 1_555 1_555
C23 N9 1_555 1_555
C24 N9 1_555 1_555
H29 C24 1_555 1_555
C25 N10 1_555 1_555
H30 C25 1_555 1_555
C26 N11 1_555 1_555
C27 N11 1_555 1_555
H31 C27 1_555 1_555
H32 C27 1_555 1_555
C28 C27 1_555 1_555
H33 C28 1_555 1_555
C29 C28 1_555 1_555
H34 C29 1_555 1_555
H35 C29 1_555 1_555
C30 N12 1_555 1_555
H36 C30 1_555 1_555
H37 C30 1_555 1_555
C31 C30 1_555 1_555
H38 C31 1_555 1_555
C32 C31 1_555 1_555
H39 C32 1_555 1_555
H40 C32 1_555 1_555
C33 N10 1_555 1_555
H41 C33 1_555 1_555
H42 C33 1_555 1_555
N13 C34 1_555 1_555
C34 H43 1_555 1_555
H44 C34 1_555 1_555
C35 C34 1_555 1_555
H45 C35 1_555 1_555
H46 C35 1_555 1_555
C36 C35 1_555 1_555
H47 C36 1_555 1_555
H48 C36 1_555 1_555
C37 C36 1_555 1_555
H49 C37 1_555 1_555
H50 C37 1_555 1_555
H51 C37 1_555 1_555
C38 N13 1_555 1_555
H52 C38 1_555 1_555
H53 C38 1_555 1_555
C39 C38 1_555 1_555
H54 C39 1_555 1_555
H55 C39 1_555 1_555
C40 C39 1_555 1_555
H56 C40 1_555 1_555
H57 C40 1_555 1_555
C41 C40 1_555 1_555
H58 C41 1_555 1_555
H59 C41 1_555 1_555
H60 C41 1_555 1_555
O1F C1F 1_555 1_555
O2F C4F 1_555 1_555
O3F C12F 1_555 1_555
O4F C15F 1_555 1_555
O5F C23F 1_555 1_555
O6F C26F 1_555 1_555
N1F C33 1_555 1_555
N2F C1F 1_555 1_555
N3F C3F 1_555 1_555
N4F C2F 1_555 1_555
N5F C11F 1_555 1_555
N6F C12F 1_555 1_555
N7F C14F 1_555 1_555
N8F C13F 1_555 1_555
N9F C22F 1_555 1_555
N10F C23F 1_555 1_555
N11F C25F 1_555 1_555
N12F C24F 1_555 1_555
C1F N1F 1_555 1_555
C2F N1F 1_555 1_555
H1F C2F 1_555 1_555
C3F N2F 1_555 1_555
H2F C3F 1_555 1_555
C4F N3F 1_555 1_555
C5F N3F 1_555 1_555
H3F C5F 1_555 1_555
H4F C5F 1_555 1_555
C6F C5F 1_555 1_555
H5F C6F 1_555 1_555
C7F C6F 1_555 1_555
H6F C7F 1_555 1_555
H7F C7F 1_555 1_555
C8F N4F 1_555 1_555
H8F C8F 1_555 1_555
H9F C8F 1_555 1_555
C9F C8F 1_555 1_555
H10F C9F 1_555 1_555
C10F C9F 1_555 1_555
H11F C10F 1_555 1_555
H12F C10F 1_555 1_555
C11F N2F 1_555 1_555
H13F C11F 1_555 1_555
H14F C11F 1_555 1_555
C12F N5F 1_555 1_555
C13F N5F 1_555 1_555
H15F C13F 1_555 1_555
C14F N6F 1_555 1_555
H16F C14F 1_555 1_555
C15F N7F 1_555 1_555
C16F N7F 1_555 1_555
H17F C16F 1_555 1_555
H18F C16F 1_555 1_555
C17F C16F 1_555 1_555
H19F C17F 1_555 1_555
C18F C17F 1_555 1_555
H20F C18F 1_555 1_555
H21F C18F 1_555 1_555
C19F N8F 1_555 1_555
H22F C19F 1_555 1_555
H23F C19F 1_555 1_555
C20F C19F 1_555 1_555
H24F C20F 1_555 1_555
C21F C20F 1_555 1_555
H25F C21F 1_555 1_555
H26F C21F 1_555 1_555
C22F N6F 1_555 1_555
H27F C22F 1_555 1_555
H28F C22F 1_555 1_555
C23F N9F 1_555 1_555
C24F N9F 1_555 1_555
H29F C24F 1_555 1_555
C25F N10F 1_555 1_555
H30F C25F 1_555 1_555
C26F N11F 1_555 1_555
C27F N11F 1_555 1_555
H31F C27F 1_555 1_555
H32F C27F 1_555 1_555
C28F C27F 1_555 1_555
H33F C28F 1_555 1_555
C29F C28F 1_555 1_555
H34F C29F 1_555 1_555
H35F C29F 1_555 1_555
C30F N12F 1_555 1_555
H36F C30F 1_555 1_555
H37F C30F 1_555 1_555
C31F C30F 1_555 1_555
H38F C31F 1_555 1_555
C32F C31F 1_555 1_555
H39F C32F 1_555 1_555
H40F C32F 1_555 1_555
C33F N1 1_555 1_555
H41F C33F 1_555 1_555
H42F C33F 1_555 1_555
C34A N13 1_555 1_555
H43A C34A 1_555 1_555
H44A C34A 1_555 1_555
C35A C34A 1_555 1_555
H45A C35A 1_555 1_555
H46A C35A 1_555 1_555
C36A C35A 1_555 1_555
H47A C36A 1_555 1_555
H48A C36A 1_555 1_555
C37A C36A 1_555 1_555
H49A C37A 1_555 1_555
H50A C37A 1_555 1_555
H51A C37A 1_555 1_555
C38A N13 1_555 1_555
H52A C38A 1_555 1_555
H53A C38A 1_555 1_555
C39A C38A 1_555 1_555
H54A C39A 1_555 1_555
H55A C39A 1_555 1_555
C40A C39A 1_555 1_555
H56A C40A 1_555 1_555
H57A C40A 1_555 1_555
C41A C40A 1_555 1_555
H58A C41A 1_555 1_555
H59A C41A 1_555 1_555
H60A C41A 1_555 1_555
N4 C4 1_555 1_555
N8 C15 1_555 1_555
N12 C26 1_555 1_555
C2 C3 1_555 1_555
C13 C14 1_555 1_555
C24 C25 1_555 1_555
N4F C4F 1_555 1_555
N8F C15F 1_555 1_555
N10F C33F 1_555 1_555
N12F C26F 1_555 1_555
C2F C3F 1_555 1_555
C13F C14F 1_555 1_555
C24F C25F 1_555 1_555

#END
