
#######################################################################
#
#                 Cambridge Crystallographic Data Centre
#                                CCDC 
#
#######################################################################
#
# If this CIF has been generated from an entry in the Cambridge 
# Structural Database, then it will include bibliographic, chemical, 
# crystal, experimental, refinement or atomic coordinate data resulting 
# from the CCDC's data processing and validation procedures.
#
#######################################################################

data_SIGBAL
_chemical_formula_moiety         'C5 H8 N2 O5'
_chemical_name_systematic        "2,2'-Ureylenediacetic acid"
_symmetry_cell_setting           monoclinic
_symmetry_space_group_name_H-M   'C 2/c'
_symmetry_Int_Tables_number      15
_space_group_name_Hall           '-C 2yn'
loop_
_symmetry_equiv_pos_site_id
_symmetry_equiv_pos_as_xyz
1 x,y,z
2 1/2+x,1/2+y,z
3 -x,y,1/2-z
4 1/2-x,1/2+y,1/2-z
5 -x,-y,-z
6 1/2-x,1/2-y,-z
7 x,-y,1/2+z
8 1/2+x,1/2-y,1/2+z
_cell_length_a                   9.175(3)
_cell_length_b                   4.569(2)
_cell_length_c                   17.462(3)
_cell_angle_alpha                90
_cell_angle_beta                 93.1(2)
_cell_angle_gamma                90
_cell_volume                     730.946
_exptl_crystal_colour            colorless
_chemical_melting_point          202-204deg.C
_cell_formula_units_Z            4
loop_
_atom_site_label
_atom_site_type_symbol
_atom_site_fract_x
_atom_site_fract_y
_atom_site_fract_z
O1 O 0.5000 0.4921(4) 0.7500
O2 O 0.5207(2) 0.2380(4) 0.5709(1)
O3 O 0.3379(2) 0.5462(4) 0.5456(1)
N1 N 0.4032(2) 0.0659(3) 0.7053(1)
C1 C 0.5000 0.2203(6) 0.7500
C2 C 0.3135(2) 0.2135(5) 0.6471(1)
C3 C 0.3991(2) 0.3400(4) 0.5838(1)
H1 H 0.2444 0.0634 0.6264
H2 H 0.2538 0.3745 0.6696
H3 H 0.4175 -0.1387 0.7047
H4 H 0.4061 0.6266 0.5013
N1B N 0.5968(2) 0.0659(3) 0.7947(1)
C2B C 0.6865(2) 0.2135(5) 0.8529(1)
H3B H 0.5825 -0.1387 0.7953
C3B C 0.6009(2) 0.3400(4) 0.9162(1)
H1B H 0.7556 0.0634 0.8736
H2B H 0.7462 0.3745 0.8304
O2B O 0.4793(2) 0.2380(4) 0.9291(1)
O3B O 0.6621(2) 0.5462(4) 0.9544(1)
H4B H 0.5939 0.6266 0.9987
loop_
_geom_bond_atom_site_label_1
_geom_bond_atom_site_label_2
_geom_bond_site_symmetry_1
_geom_bond_site_symmetry_2
O1 C1 1_555 1_555
O2 C3 1_555 1_555
O3 C3 1_555 1_555
N1 C1 1_555 1_555
C1 N1B 1_555 1_555
C2 N1 1_555 1_555
C3 C2 1_555 1_555
H1 C2 1_555 1_555
H2 C2 1_555 1_555
H3 N1 1_555 1_555
H4 O3 1_555 1_555
N1B C2B 1_555 1_555
C2B C3B 1_555 1_555
H3B N1B 1_555 1_555
C3B O2B 1_555 1_555
H1B C2B 1_555 1_555
H2B C2B 1_555 1_555
O3B C3B 1_555 1_555
H4B O3B 1_555 1_555

#END
