
#######################################################################
#
#                 Cambridge Crystallographic Data Centre
#                                CCDC 
#
#######################################################################
#
# If this CIF has been generated from an entry in the Cambridge 
# Structural Database, then it will include bibliographic, chemical, 
# crystal, experimental, refinement or atomic coordinate data resulting 
# from the CCDC's data processing and validation procedures.
#
#######################################################################

data_SIGBUG
_chemical_formula_moiety         'C19 H24 N2 O2,0.5(H2 O1)'
_chemical_name_systematic        '(+)-Praziquantel hemihydrate'
_symmetry_cell_setting           monoclinic
_symmetry_space_group_name_H-M   'C 2'
_symmetry_Int_Tables_number      5
_space_group_name_Hall           'C 2y'
loop_
_symmetry_equiv_pos_site_id
_symmetry_equiv_pos_as_xyz
1 x,y,z
2 -x,y,-z
3 1/2+x,1/2+y,z
4 1/2-x,1/2+y,-z
_cell_length_a                   27.013(5)
_cell_length_b                   6.0157(12)
_cell_length_c                   11.346(2)
_cell_angle_alpha                90
_cell_angle_beta                 112.47(3)
_cell_angle_gamma                90
_cell_volume                     1703.77
_exptl_crystal_colour            colorless
_exptl_crystal_description       parallelepiped
_cell_formula_units_Z            4
loop_
_atom_site_label
_atom_site_type_symbol
_atom_site_fract_x
_atom_site_fract_y
_atom_site_fract_z
C1 C -0.06596(8) 0.1029(4) 0.04597(18)
H1 H -0.0377 0.0080 0.0415
H2 H -0.0865 0.0178 0.0842
C2 C -0.10246(9) 0.1728(4) -0.08856(17)
H3 H -0.0813 0.2456 -0.1298
H4 H -0.1188 0.0419 -0.1380
C3 C -0.14570(8) 0.3290(4) -0.08547(17)
H5 H -0.1691 0.2512 -0.0523
H6 H -0.1671 0.3774 -0.1715
C4 C -0.12181(8) 0.5299(4) -0.00301(17)
H7 H -0.1504 0.6230 0.0011
H8 H -0.1015 0.6163 -0.0413
C5 C -0.08498(7) 0.4616(3) 0.13232(15)
H9 H -0.0687 0.5931 0.1812
H10 H -0.1060 0.3892 0.1741
C6 C -0.04112(6) 0.3035(3) 0.12960(14)
H11 H -0.0185 0.3825 0.0933
C7 C -0.00656(7) 0.2309(3) 0.26394(15)
C8 C 0.05145(7) 0.5697(3) 0.29885(16)
H12 H 0.0360 0.6928 0.3284
H13 H 0.0376 0.5766 0.2065
C9 C 0.11124(7) 0.5998(3) 0.34904(15)
C10 C 0.06673(7) 0.3001(3) 0.46684(15)
H14 H 0.0518 0.1696 0.4912
H15 H 0.0677 0.4201 0.5248
C11 C 0.12279(6) 0.2508(3) 0.47425(14)
H16 H 0.1212 0.1246 0.4182
C12 C 0.20085(7) 0.4639(4) 0.47002(18)
H17 H 0.2097 0.5925 0.4303
H18 H 0.2150 0.3327 0.4443
C13 C 0.22567(8) 0.4879(4) 0.61391(18)
H19 H 0.2644 0.4821 0.6426
H20 H 0.2159 0.6308 0.6383
C14 C 0.20659(7) 0.3046(3) 0.67675(15)
C15 C 0.15959(7) 0.1899(3) 0.61012(15)
C16 C 0.14542(8) 0.0109(4) 0.66758(19)
H21 H 0.1146 -0.0697 0.6223
C17 C 0.17656(9) -0.0491(5) 0.7914(2)
H22 H 0.1664 -0.1682 0.8295
C18 C 0.22262(9) 0.0677(5) 0.85842(19)
H23 H 0.2435 0.0286 0.9420
C19 C 0.23745(9) 0.2420(5) 0.80132(17)
H24 H 0.2687 0.3197 0.8467
O1 O -0.01654(6) 0.0558(2) 0.30668(12)
O2 O 0.12897(6) 0.7640(2) 0.31497(12)
N1 N 0.03377(6) 0.3633(3) 0.33632(13)
N2 N 0.14291(5) 0.4450(2) 0.42872(13)
O3 O 0.0000 -0.2465(6) 0.5000
H25 H -0.0040(18) -0.177(9) 0.445(5)
H25A H 0.0040(18) -0.177(9) 0.555(5)
loop_
_geom_bond_atom_site_label_1
_geom_bond_atom_site_label_2
_geom_bond_site_symmetry_1
_geom_bond_site_symmetry_2
C1 H1 1_555 1_555
H2 C1 1_555 1_555
C2 C1 1_555 1_555
H3 C2 1_555 1_555
H4 C2 1_555 1_555
C3 C2 1_555 1_555
H5 C3 1_555 1_555
H6 C3 1_555 1_555
C4 C3 1_555 1_555
H7 C4 1_555 1_555
H8 C4 1_555 1_555
C5 C4 1_555 1_555
H9 C5 1_555 1_555
H10 C5 1_555 1_555
C6 C1 1_555 1_555
H11 C6 1_555 1_555
C7 C6 1_555 1_555
C8 H12 1_555 1_555
H13 C8 1_555 1_555
C9 C8 1_555 1_555
C10 H14 1_555 1_555
H15 C10 1_555 1_555
C11 C10 1_555 1_555
H16 C11 1_555 1_555
C12 H17 1_555 1_555
H18 C12 1_555 1_555
C13 C12 1_555 1_555
H19 C13 1_555 1_555
H20 C13 1_555 1_555
C14 C13 1_555 1_555
C15 C11 1_555 1_555
C16 C15 1_555 1_555
H21 C16 1_555 1_555
C17 C16 1_555 1_555
H22 C17 1_555 1_555
C18 C17 1_555 1_555
H23 C18 1_555 1_555
C19 C14 1_555 1_555
H24 C19 1_555 1_555
O1 C7 1_555 1_555
O2 C9 1_555 1_555
N1 C7 1_555 1_555
N2 C9 1_555 1_555
O3 H25 1_555 1_555
H25A O3 1_555 1_555
C5 C6 1_555 1_555
C8 N1 1_555 1_555
C10 N1 1_555 1_555
C11 N2 1_555 1_555
C12 N2 1_555 1_555
C14 C15 1_555 1_555
C18 C19 1_555 1_555

#END
