
#######################################################################
#
#                 Cambridge Crystallographic Data Centre
#                                CCDC 
#
#######################################################################
#
# If this CIF has been generated from an entry in the Cambridge 
# Structural Database, then it will include bibliographic, chemical, 
# crystal, experimental, refinement or atomic coordinate data resulting 
# from the CCDC's data processing and validation procedures.
#
#######################################################################

data_SIGVUB
_chemical_formula_moiety         'C40 H38 B1 P1'
_chemical_name_systematic        
2,2-Dimesityl-1,1-diphenyl-1,2-dihydronaphtho[1,8-cd][1,2]phosphaborol-1-ium-2-ide
_symmetry_cell_setting           monoclinic
_symmetry_space_group_name_H-M   'P 21/n'
_symmetry_Int_Tables_number      14
_space_group_name_Hall           '-P 2yn'
loop_
_symmetry_equiv_pos_site_id
_symmetry_equiv_pos_as_xyz
1 x,y,z
2 1/2-x,1/2+y,1/2-z
3 -x,-y,-z
4 1/2+x,1/2-y,1/2+z
_cell_length_a                   10.0715(2)
_cell_length_b                   27.7173(4)
_cell_length_c                   11.3586(2)
_cell_angle_alpha                90
_cell_angle_beta                 95.0840(10)
_cell_angle_gamma                90
_cell_volume                     3158.33
_exptl_crystal_colour            colorless
_exptl_crystal_description       block
_cell_formula_units_Z            4
loop_
_atom_site_label
_atom_site_type_symbol
_atom_site_fract_x
_atom_site_fract_y
_atom_site_fract_z
P1 P 0.20859(4) 0.109711(13) 0.35453(3)
B1 B 0.15489(17) 0.15632(6) 0.20535(14)
C1 C 0.00366(14) 0.16450(5) 0.24033(12)
C2 C -0.07951(16) 0.20021(6) 0.19242(13)
H1 H -0.0458 0.2230 0.1400
C3 C -0.21336(17) 0.20400(6) 0.21894(14)
H2 H -0.2675 0.2294 0.1852
C4 C -0.26603(16) 0.17168(6) 0.29242(14)
H3 H -0.3574 0.1738 0.3065
C5 C -0.18537(15) 0.13508(6) 0.34769(13)
C6 C -0.04900(14) 0.13341(5) 0.32423(12)
C7 C 0.03759(14) 0.09963(5) 0.38550(12)
C8 C -0.01139(16) 0.06548(6) 0.45831(13)
H4 H 0.0465 0.0422 0.4967
C9 C -0.14805(17) 0.06542(6) 0.47534(15)
H5 H -0.1827 0.0411 0.5230
C10 C -0.23144(16) 0.09976(6) 0.42440(15)
H6 H -0.3223 0.1000 0.4407
C11 C 0.30493(14) 0.12854(5) 0.49068(13)
C12 C 0.27175(16) 0.11476(6) 0.60243(13)
H7 H 0.1972 0.0943 0.6098
C13 C 0.34720(18) 0.13081(6) 0.70276(14)
H8 H 0.3232 0.1217 0.7787
C14 C 0.45703(18) 0.15997(6) 0.69330(16)
H9 H 0.5081 0.1709 0.7625
C15 C 0.49257(17) 0.17322(6) 0.58329(16)
H10 H 0.5693 0.1926 0.5766
C16 C 0.41591(16) 0.15812(6) 0.48228(15)
H11 H 0.4392 0.1680 0.4067
C17 C 0.27301(15) 0.04973(5) 0.32772(12)
C18 C 0.40161(16) 0.03647(6) 0.36937(14)
H12 H 0.4564 0.0585 0.4158
C19 C 0.45063(19) -0.00880(7) 0.34349(16)
H13 H 0.5390 -0.0175 0.3718
C20 C 0.3722(2) -0.04093(7) 0.27745(16)
H14 H 0.4062 -0.0718 0.2595
C21 C 0.2436(2) -0.02830(6) 0.23715(15)
H15 H 0.1889 -0.0508 0.1922
C22 C 0.19377(17) 0.01670(6) 0.26152(13)
H16 H 0.1052 0.0251 0.2330
C23 C 0.23049(14) 0.20813(5) 0.20127(12)
C24 C 0.24634(15) 0.23878(5) 0.30122(13)
C25 C 0.32363(17) 0.28050(6) 0.30050(15)
H17 H 0.3366 0.2992 0.3706
C26 C 0.38214(17) 0.29558(6) 0.20088(16)
C27 C 0.35252(17) 0.26919(6) 0.09850(15)
H18 H 0.3846 0.2803 0.0272
C28 C 0.27738(16) 0.22690(6) 0.09587(13)
C29 C 0.2432(2) 0.20511(7) -0.02519(14)
H19 H 0.2480 0.2301 -0.0857
H20 H 0.1528 0.1918 -0.0297
H21 H 0.3067 0.1793 -0.0386
C30 C 0.4698(2) 0.33973(8) 0.2027(2)
H22 H 0.4614 0.3549 0.1245
H23 H 0.5627 0.3303 0.2232
H24 H 0.4421 0.3626 0.2616
C31 C 0.17351(17) 0.23213(6) 0.41141(14)
H25 H 0.2334 0.2402 0.4814
H26 H 0.1447 0.1985 0.4167
H27 H 0.0954 0.2534 0.4074
C32 C 0.18067(15) 0.11547(5) 0.10441(12)
C33 C 0.07880(17) 0.09109(6) 0.03417(13)
C34 C 0.11051(19) 0.05518(6) -0.04525(14)
H28 H 0.0398 0.0394 -0.0909
C35 C 0.2398(2) 0.04158(6) -0.06033(15)
C36 C 0.34011(18) 0.06539(6) 0.00741(14)
H29 H 0.4302 0.0570 -0.0011
C37 C 0.31354(16) 0.10131(6) 0.08773(13)
C38 C 0.43458(16) 0.12409(6) 0.15384(14)
H30 H 0.5109 0.1022 0.1526
H31 H 0.4163 0.1302 0.2358
H32 H 0.4550 0.1546 0.1159
C39 C 0.2706(3) 0.00277(8) -0.1472(2)
H33 H 0.1891 -0.0056 -0.1967
H34 H 0.3046 -0.0259 -0.1040
H35 H 0.3379 0.0146 -0.1973
C40 C -0.06872(18) 0.10168(8) 0.03626(17)
H36 H -0.1200 0.0800 -0.0186
H37 H -0.0864 0.1352 0.0124
H38 H -0.0951 0.0967 0.1164
loop_
_geom_bond_atom_site_label_1
_geom_bond_atom_site_label_2
_geom_bond_site_symmetry_1
_geom_bond_site_symmetry_2
P1 B1 1_555 1_555
B1 C1 1_555 1_555
C1 C2 1_555 1_555
C2 H1 1_555 1_555
C3 C2 1_555 1_555
H2 C3 1_555 1_555
C4 C3 1_555 1_555
H3 C4 1_555 1_555
C5 C4 1_555 1_555
C6 C1 1_555 1_555
C7 P1 1_555 1_555
C8 C7 1_555 1_555
H4 C8 1_555 1_555
C9 C8 1_555 1_555
H5 C9 1_555 1_555
C10 C5 1_555 1_555
H6 C10 1_555 1_555
C11 P1 1_555 1_555
C12 C11 1_555 1_555
H7 C12 1_555 1_555
C13 C12 1_555 1_555
H8 C13 1_555 1_555
C14 C13 1_555 1_555
H9 C14 1_555 1_555
C15 C14 1_555 1_555
H10 C15 1_555 1_555
C16 C11 1_555 1_555
H11 C16 1_555 1_555
C17 P1 1_555 1_555
C18 C17 1_555 1_555
H12 C18 1_555 1_555
C19 C18 1_555 1_555
H13 C19 1_555 1_555
C20 C19 1_555 1_555
H14 C20 1_555 1_555
C21 C20 1_555 1_555
H15 C21 1_555 1_555
C22 C17 1_555 1_555
H16 C22 1_555 1_555
C23 B1 1_555 1_555
C24 C23 1_555 1_555
C25 C24 1_555 1_555
H17 C25 1_555 1_555
C26 C25 1_555 1_555
C27 C26 1_555 1_555
H18 C27 1_555 1_555
C28 C23 1_555 1_555
C29 C28 1_555 1_555
H19 C29 1_555 1_555
H20 C29 1_555 1_555
H21 C29 1_555 1_555
C30 C26 1_555 1_555
H22 C30 1_555 1_555
H23 C30 1_555 1_555
H24 C30 1_555 1_555
C31 C24 1_555 1_555
H25 C31 1_555 1_555
H26 C31 1_555 1_555
H27 C31 1_555 1_555
C32 B1 1_555 1_555
C33 C32 1_555 1_555
C34 C33 1_555 1_555
H28 C34 1_555 1_555
C35 C34 1_555 1_555
C36 C35 1_555 1_555
H29 C36 1_555 1_555
C37 C32 1_555 1_555
C38 C37 1_555 1_555
H30 C38 1_555 1_555
H31 C38 1_555 1_555
H32 C38 1_555 1_555
C39 C35 1_555 1_555
H33 C39 1_555 1_555
H34 C39 1_555 1_555
H35 C39 1_555 1_555
C40 C33 1_555 1_555
H36 C40 1_555 1_555
H37 C40 1_555 1_555
H38 C40 1_555 1_555
C5 C6 1_555 1_555
C6 C7 1_555 1_555
C9 C10 1_555 1_555
C15 C16 1_555 1_555
C21 C22 1_555 1_555
C27 C28 1_555 1_555
C36 C37 1_555 1_555

#END
