
#######################################################################
#
#                 Cambridge Crystallographic Data Centre
#                                CCDC 
#
#######################################################################
#
# If this CIF has been generated from an entry in the Cambridge 
# Structural Database, then it will include bibliographic, chemical, 
# crystal, experimental, refinement or atomic coordinate data resulting 
# from the CCDC's data processing and validation procedures.
#
#######################################################################

data_SIHBOA
_chemical_formula_moiety         'C9 H11 N2 O2 P1 S2,C9 H11 N2 O2 P1 S2'
_chemical_name_systematic        
3-Methyl-2-phenoxy-1-thia-3,4-diaza-2-phosphorinan-5-one-2-thioxide
_symmetry_cell_setting           monoclinic
_symmetry_space_group_name_H-M   'P 21/a'
_symmetry_Int_Tables_number      14
_space_group_name_Hall           '-P 2yab'
loop_
_symmetry_equiv_pos_site_id
_symmetry_equiv_pos_as_xyz
1 x,y,z
2 1/2-x,1/2+y,-z
3 -x,-y,-z
4 1/2+x,1/2-y,z
_cell_length_a                   14.029(3)
_cell_length_b                   8.041(2)
_cell_length_c                   23.353(6)
_cell_angle_alpha                90
_cell_angle_beta                 107.01(2)
_cell_angle_gamma                90
_cell_volume                     2519.14
_exptl_crystal_colour            colorless
_cell_formula_units_Z            4
loop_
_atom_site_label
_atom_site_type_symbol
_atom_site_fract_x
_atom_site_fract_y
_atom_site_fract_z
P1 P 0.7125(3) 0.3614(5) 0.4230(2)
S1 S 0.8677(3) 0.3719(6) 0.4435(2)
S2 S 0.6582(3) 0.3242(6) 0.4882(2)
N1 N 0.6797(7) 0.217(1) 0.3696(4)
N2 N 0.7241(7) 0.230(2) 0.3236(4)
C1 C 0.825(1) 0.217(2) 0.3345(7)
C2 C 0.885(1) 0.190(2) 0.3999(6)
C3 C 0.633(1) 0.049(2) 0.3749(7)
O1 O 0.8635(7) 0.233(2) 0.2949(4)
O2 O 0.6886(6) 0.534(1) 0.3881(4)
C4 C 0.5909(9) 0.599(2) 0.3669(6)
C5 C 0.548(1) 0.584(2) 0.3060(6)
C6 C 0.452(1) 0.658(2) 0.2824(7)
C7 C 0.403(1) 0.737(2) 0.3200(8)
C8 C 0.451(1) 0.746(2) 0.3833(8)
C9 C 0.547(1) 0.673(2) 0.4070(6)
P2 P 0.7989(3) 0.1649(5) 0.0867(2)
S3 S 0.9299(2) 0.1374(5) 0.0628(2)
S4 S 0.6817(3) 0.2190(6) 0.0232(2)
N3 N 0.8263(7) 0.302(1) 0.1411(5)
N4 N 0.9061(8) 0.268(2) 0.1872(5)
C10 C 0.994(1) 0.262(2) 0.1771(6)
C11 C 1.0016(9) 0.301(2) 0.1123(6)
C12 C 0.789(1) 0.472(2) 0.1392(9)
O3 O 1.0791(7) 0.220(2) 0.2162(5)
O4 O 0.7989(6) -0.011(1) 0.1183(4)
C13 C 0.7143(8) -0.079(2) 0.1301(5)
C14 C 0.6505(9) -0.173(2) 0.0830(6)
C15 C 0.572(1) -0.249(2) 0.0974(6)
C16 C 0.556(1) -0.238(2) 0.1528(8)
C17 C 0.622(1) -0.138(2) 0.1988(6)
C18 C 0.703(1) -0.061(2) 0.1865(6)
loop_
_geom_bond_atom_site_label_1
_geom_bond_atom_site_label_2
_geom_bond_site_symmetry_1
_geom_bond_site_symmetry_2
P1 S1 1_555 1_555
S1 C2 1_555 1_555
S2 P1 1_555 1_555
N1 P1 1_555 1_555
N2 N1 1_555 1_555
C1 N2 1_555 1_555
C2 C1 1_555 1_555
C3 N1 1_555 1_555
O1 C1 1_555 1_555
O2 P1 1_555 1_555
C4 O2 1_555 1_555
C5 C4 1_555 1_555
C6 C5 1_555 1_555
C7 C6 1_555 1_555
C8 C7 1_555 1_555
C9 C4 1_555 1_555
P2 S3 1_555 1_555
S3 C11 1_555 1_555
S4 P2 1_555 1_555
N3 P2 1_555 1_555
N4 N3 1_555 1_555
C10 N4 1_555 1_555
C11 C10 1_555 1_555
C12 N3 1_555 1_555
O3 C10 1_555 1_555
O4 P2 1_555 1_555
C13 O4 1_555 1_555
C14 C13 1_555 1_555
C15 C14 1_555 1_555
C16 C15 1_555 1_555
C17 C16 1_555 1_555
C18 C13 1_555 1_555
C8 C9 1_555 1_555
C17 C18 1_555 1_555

#END
