
#######################################################################
#
#                 Cambridge Crystallographic Data Centre
#                                CCDC 
#
#######################################################################
#
# If this CIF has been generated from an entry in the Cambridge 
# Structural Database, then it will include bibliographic, chemical, 
# crystal, experimental, refinement or atomic coordinate data resulting 
# from the CCDC's data processing and validation procedures.
#
#######################################################################

data_SIHVEL
_chemical_formula_moiety         'C26 H27 P2 1+,C1 F3 O3 S1 1-'
_chemical_name_systematic        
'Triphenyl(2,3,4,5-tetramethyl-1H-phosphol-1-yl)phosphonium trifluoromethylsulfonate'
_symmetry_cell_setting           monoclinic
_symmetry_space_group_name_H-M   'P 2/c'
_symmetry_Int_Tables_number      13
_space_group_name_Hall           '-P 2yc'
loop_
_symmetry_equiv_pos_site_id
_symmetry_equiv_pos_as_xyz
1 x,y,z
2 -x,y,1/2-z
3 -x,-y,-z
4 x,-y,1/2+z
_cell_length_a                   18.5049(11)
_cell_length_b                   9.4777(6)
_cell_length_c                   15.2127(10)
_cell_angle_alpha                90
_cell_angle_beta                 94.780(1)
_cell_angle_gamma                90
_cell_volume                     2658.78
_exptl_crystal_colour            yellow
_exptl_crystal_description       block
_cell_formula_units_Z            4
loop_
_atom_site_label
_atom_site_type_symbol
_atom_site_fract_x
_atom_site_fract_y
_atom_site_fract_z
C27 C 0.5000 0.0715(12) 0.2500
S1 S 0.5000 0.2573(2) 0.2500
F1 F 0.4412(6) 0.0253(19) 0.2742(8)
F2 F 0.4908(7) 0.0230(16) 0.3265(7)
O4 O 0.4486(7) 0.2659(19) 0.3103(8)
O5 O 0.4245(5) 0.2826(12) 0.2160(9)
O6 O 0.4832(7) 0.3171(12) 0.1683(6)
F6 F 0.4492(4) 0.0115(9) 0.1981(5)
F1A F 0.5588(6) 0.0253(19) 0.2258(8)
F2A F 0.5092(7) 0.0230(16) 0.1735(7)
O4A O 0.5514(7) 0.2659(19) 0.1897(8)
O5A O 0.5755(5) 0.2826(12) 0.2840(9)
O6A O 0.5168(7) 0.3171(12) 0.3317(6)
F6A F 0.5508(4) 0.0115(9) 0.3019(5)
S2 S 0.0379(3) 0.9738(5) 0.5250(3)
C28 C -0.0379(3) 1.0262(5) 0.4750(3)
O1 O 0.0422(6) 0.9707(9) 0.6098(5)
F3 F 0.0422(6) 0.9707(9) 0.6098(5)
O2 O 0.0880(5) 1.0938(11) 0.5063(7)
F4 F 0.0880(5) 1.0938(11) 0.5063(7)
O3 O 0.0668(4) 0.8581(7) 0.4842(5)
F5 F 0.0668(4) 0.8581(7) 0.4842(5)
O1B O -0.0422(6) 1.0293(9) 0.3902(5)
O2B O -0.0880(5) 0.9062(11) 0.4937(7)
O3B O -0.0668(4) 1.1419(7) 0.5158(5)
P1 P 0.29388(8) 0.54202(15) 0.33770(9)
P2 P 0.24063(7) 0.66321(14) 0.22716(10)
C1 C 0.2393(3) 0.6124(7) 0.4198(4)
C2 C 0.2774(4) 0.7113(7) 0.4669(4)
C3 C 0.3481(4) 0.7430(7) 0.4368(4)
C4 C 0.3653(3) 0.6693(6) 0.3649(4)
C5 C 0.1652(4) 0.5512(8) 0.4367(4)
H1 H 0.1391 0.6183 0.4715
H2 H 0.1719 0.4622 0.4692
H3 H 0.1371 0.5338 0.3802
C6 C 0.2518(5) 0.7867(10) 0.5461(5)
H4 H 0.2494 0.8884 0.5345
H5 H 0.2859 0.7686 0.5977
H6 H 0.2036 0.7521 0.5576
C7 C 0.3977(4) 0.8498(7) 0.4843(6)
H7 H 0.4171 0.8110 0.5412
H8 H 0.3704 0.9362 0.4942
H9 H 0.4379 0.8717 0.4484
C8 C 0.4345(3) 0.6718(7) 0.3218(5)
H10 H 0.4258 0.7109 0.2622
H11 H 0.4534 0.5756 0.3184
H12 H 0.4699 0.7307 0.3565
C9 C 0.1638(4) 0.8796(8) 0.2963(6)
H13 H 0.1264 0.8121 0.3007
C10 C 0.2255(3) 0.8431(6) 0.2575(4)
C11 C 0.2799(3) 0.9414(6) 0.2511(4)
H14 H 0.3231 0.9166 0.2251
C12 C 0.2706(4) 1.0787(7) 0.2835(4)
H15 H 0.3073 1.1478 0.2791
C13 C 0.2095(5) 1.1115(8) 0.3209(5)
H16 H 0.2035 1.2046 0.3422
C14 C 0.1562(5) 1.0148(8) 0.3289(7)
H17 H 0.1139 1.0398 0.3567
C15 C 0.2973(3) 0.6582(5) 0.1372(3)
C16 C 0.3490(3) 0.5536(6) 0.1320(4)
H18 H 0.3543 0.4830 0.1763
C17 C 0.3930(3) 0.5510(7) 0.0629(4)
H19 H 0.4283 0.4788 0.0600
C18 C 0.3857(4) 0.6527(7) -0.0017(4)
H20 H 0.4162 0.6515 -0.0489
C19 C 0.3344(5) 0.7553(7) 0.0024(4)
H21 H 0.3303 0.8259 -0.0420
C20 C 0.2883(4) 0.7592(7) 0.0694(4)
H22 H 0.2514 0.8288 0.0697
C21 C 0.1559(3) 0.5792(7) 0.1929(4)
C22 C 0.1483(3) 0.4360(7) 0.2068(4)
H23 H 0.1866 0.3841 0.2369
C23 C 0.0842(4) 0.3682(8) 0.1767(5)
H24 H 0.0780 0.2710 0.1892
C24 C 0.0308(5) 0.4396(12) 0.1298(6)
H25 H -0.0119 0.3919 0.1071
C25 C 0.0387(4) 0.5807(12) 0.1153(7)
H26 H 0.0004 0.6308 0.0835
C26 C 0.1002(4) 0.6520(9) 0.1452(6)
H27 H 0.1048 0.7499 0.1336
loop_
_geom_bond_atom_site_label_1
_geom_bond_atom_site_label_2
_geom_bond_site_symmetry_1
_geom_bond_site_symmetry_2
P1 P2 1_555 1_555
P2 C10 1_555 1_555
C1 P1 1_555 1_555
C2 C1 1_555 1_555
C3 C2 1_555 1_555
C4 P1 1_555 1_555
C5 C1 1_555 1_555
H1 C5 1_555 1_555
H2 C5 1_555 1_555
H3 C5 1_555 1_555
C6 C2 1_555 1_555
H4 C6 1_555 1_555
H5 C6 1_555 1_555
H6 C6 1_555 1_555
C7 C3 1_555 1_555
H7 C7 1_555 1_555
H8 C7 1_555 1_555
H9 C7 1_555 1_555
C8 C4 1_555 1_555
H10 C8 1_555 1_555
H11 C8 1_555 1_555
H12 C8 1_555 1_555
C9 H13 1_555 1_555
C10 C9 1_555 1_555
C11 C10 1_555 1_555
H14 C11 1_555 1_555
C12 C11 1_555 1_555
H15 C12 1_555 1_555
C13 C12 1_555 1_555
H16 C13 1_555 1_555
C14 C9 1_555 1_555
H17 C14 1_555 1_555
C15 P2 1_555 1_555
C16 C15 1_555 1_555
H18 C16 1_555 1_555
C17 C16 1_555 1_555
H19 C17 1_555 1_555
C18 C17 1_555 1_555
H20 C18 1_555 1_555
C19 C18 1_555 1_555
H21 C19 1_555 1_555
C20 C15 1_555 1_555
H22 C20 1_555 1_555
C21 P2 1_555 1_555
C22 C21 1_555 1_555
H23 C22 1_555 1_555
C23 C22 1_555 1_555
H24 C23 1_555 1_555
C24 C23 1_555 1_555
H25 C24 1_555 1_555
C25 C24 1_555 1_555
H26 C25 1_555 1_555
C26 C21 1_555 1_555
H27 C26 1_555 1_555
C27 S1 1_555 1_555
S1 O4 1_555 1_555
F1 C27 1_555 1_555
F2 C27 1_555 1_555
S2 C28 1_555 1_555
C28 O1B 1_555 1_555
O1 S2 1_555 1_555
F3 S2 1_555 1_555
O2 S2 1_555 1_555
F4 S2 1_555 1_555
O3 S2 1_555 1_555
F5 S2 1_555 1_555
O4 O5 1_555 1_555
O5 S1 1_555 1_555
O6 S1 1_555 1_555
F6 C27 1_555 1_555
F1A C27 1_555 1_555
F2A C27 1_555 1_555
O2B C28 1_555 1_555
O3B C28 1_555 1_555
O4A S1 1_555 1_555
O5A S1 1_555 1_555
O6A S1 1_555 1_555
F6A C27 1_555 1_555
C3 C4 1_555 1_555
C13 C14 1_555 1_555
C19 C20 1_555 1_555
C25 C26 1_555 1_555
F1 F2 1_555 1_555
F1 F6 1_555 1_555
F2 F6A 1_555 1_555
O4 O6A 1_555 1_555
O5 O6 1_555 1_555
O6 O4A 1_555 1_555
F6 F2A 1_555 1_555
F1A F2A 1_555 1_555
F1A F6A 1_555 1_555
O4A O5A 1_555 1_555
O5A O6A 1_555 1_555

#END
