
#######################################################################
#
#                 Cambridge Crystallographic Data Centre
#                                CCDC 
#
#######################################################################
#
# If this CIF has been generated from an entry in the Cambridge 
# Structural Database, then it will include bibliographic, chemical, 
# crystal, experimental, refinement or atomic coordinate data resulting 
# from the CCDC's data processing and validation procedures.
#
#######################################################################

data_SIHWUE
_chemical_formula_moiety         'C15 H15 N1'
_chemical_name_systematic        9-propyl-9H-carbazole
_symmetry_cell_setting           monoclinic
_symmetry_space_group_name_H-M   'P 21/c'
_symmetry_Int_Tables_number      14
_space_group_name_Hall           '-P 2ybc'
loop_
_symmetry_equiv_pos_site_id
_symmetry_equiv_pos_as_xyz
1 x,y,z
2 -x,1/2+y,1/2-z
3 -x,-y,-z
4 x,1/2-y,1/2+z
_cell_length_a                   5.455(4)
_cell_length_b                   12.3116(19)
_cell_length_c                   17.4777(13)
_cell_angle_alpha                90
_cell_angle_beta                 97.756(14)
_cell_angle_gamma                90
_cell_volume                     1163.06
_exptl_crystal_colour            colorless
_exptl_crystal_description       block
_cell_formula_units_Z            4
loop_
_atom_site_label
_atom_site_type_symbol
_atom_site_fract_x
_atom_site_fract_y
_atom_site_fract_z
N1 N 0.4494(2) 0.87934(10) 0.18959(7)
C1 C 0.2556(3) 0.80904(12) 0.16605(9)
C2 C 0.1686(3) 0.77157(14) 0.09274(9)
H1 H 0.2405 0.7938 0.0501
C3 C -0.0258(4) 0.70102(16) 0.08503(11)
H2 H -0.0863 0.6747 0.0362
C4 C -0.1355(3) 0.66755(15) 0.14809(13)
H3 H -0.2679 0.6193 0.1410
C5 C -0.0503(3) 0.70503(13) 0.22111(10)
H4 H -0.1246 0.6826 0.2633
C6 C 0.1479(3) 0.77660(12) 0.23089(9)
C7 C 0.2853(3) 0.82907(12) 0.29671(8)
C8 C 0.4709(3) 0.89055(12) 0.26891(9)
C9 C 0.6445(3) 0.94840(13) 0.31816(10)
H5 H 0.7675 0.9888 0.2993
C10 C 0.6278(3) 0.94369(15) 0.39575(10)
H6 H 0.7435 0.9809 0.4300
C11 C 0.4439(4) 0.88528(15) 0.42445(10)
H7 H 0.4369 0.8843 0.4773
C12 C 0.2716(3) 0.82868(14) 0.37555(9)
H8 H 0.1467 0.7904 0.3950
C13 C 0.6044(3) 0.93414(14) 0.14009(9)
H9 H 0.5912 0.8963 0.0910
H10 H 0.7754 0.9299 0.1638
C14 C 0.5370(3) 1.05172(15) 0.12537(11)
H11 H 0.5572 1.0899 0.1744
H12 H 0.6522 1.0832 0.0939
C15 C 0.2795(4) 1.07047(17) 0.08608(11)
H13 H 0.2512 1.1471 0.0794
H14 H 0.1633 1.0409 0.1171
H15 H 0.2590 1.0355 0.0365
loop_
_geom_bond_atom_site_label_1
_geom_bond_atom_site_label_2
_geom_bond_site_symmetry_1
_geom_bond_site_symmetry_2
N1 C1 1_555 1_555
C1 C2 1_555 1_555
C2 H1 1_555 1_555
C3 C2 1_555 1_555
H2 C3 1_555 1_555
C4 C3 1_555 1_555
H3 C4 1_555 1_555
C5 C4 1_555 1_555
H4 C5 1_555 1_555
C6 C1 1_555 1_555
C7 C6 1_555 1_555
C8 N1 1_555 1_555
C9 C8 1_555 1_555
H5 C9 1_555 1_555
C10 C9 1_555 1_555
H6 C10 1_555 1_555
C11 C10 1_555 1_555
H7 C11 1_555 1_555
C12 C7 1_555 1_555
H8 C12 1_555 1_555
C13 N1 1_555 1_555
H9 C13 1_555 1_555
H10 C13 1_555 1_555
C14 C13 1_555 1_555
H11 C14 1_555 1_555
H12 C14 1_555 1_555
C15 C14 1_555 1_555
H13 C15 1_555 1_555
H14 C15 1_555 1_555
H15 C15 1_555 1_555
C5 C6 1_555 1_555
C7 C8 1_555 1_555
C11 C12 1_555 1_555

#END
