
#######################################################################
#
#                 Cambridge Crystallographic Data Centre
#                                CCDC 
#
#######################################################################
#
# If this CIF has been generated from an entry in the Cambridge 
# Structural Database, then it will include bibliographic, chemical, 
# crystal, experimental, refinement or atomic coordinate data resulting 
# from the CCDC's data processing and validation procedures.
#
#######################################################################

data_SIJPIL
_chemical_formula_moiety         'C22 H19 Cl2 N1 O3 S1'
_chemical_name_systematic        
3-chloro-3-(4-chlorophenyl)-1-phenyl-2-(tosylamino)propan-1-one
_symmetry_cell_setting           monoclinic
_symmetry_space_group_name_H-M   'C 2/c'
_symmetry_Int_Tables_number      15
_space_group_name_Hall           '-C 2yn'
loop_
_symmetry_equiv_pos_site_id
_symmetry_equiv_pos_as_xyz
1 x,y,z
2 1/2+x,1/2+y,z
3 -x,y,1/2-z
4 1/2-x,1/2+y,1/2-z
5 -x,-y,-z
6 1/2-x,1/2-y,-z
7 x,-y,1/2+z
8 1/2+x,1/2-y,1/2+z
_cell_length_a                   19.603(3)
_cell_length_b                   10.4638(14)
_cell_length_c                   20.380(3)
_cell_angle_alpha                90
_cell_angle_beta                 92.116(3)
_cell_angle_gamma                90
_cell_volume                     4177.53
_exptl_crystal_colour            white
_exptl_crystal_description       prism
_chemical_melting_point          '421 K'
_cell_formula_units_Z            8
_exptl_crystal_recrystallization_method 'ether/ethyl acetate'
loop_
_atom_site_label
_atom_site_type_symbol
_atom_site_fract_x
_atom_site_fract_y
_atom_site_fract_z
Cl1 Cl 0.41023(2) 0.51934(4) 0.45717(2)
Cl2 Cl 0.41908(3) 0.38249(7) 0.79084(2)
S1 S 0.15485(2) 0.47441(4) 0.54236(2)
O1 O 0.16631(6) 0.34424(11) 0.52346(6)
O2 O 0.13125(6) 0.50452(13) 0.60605(6)
O3 O 0.25702(7) 0.68418(11) 0.41819(6)
N1 N 0.22777(7) 0.54714(15) 0.53716(7)
H1 H 0.2273(11) 0.622(2) 0.5468(10)
C1 C 0.27897(8) 0.50980(15) 0.49050(8)
H2 H 0.2809 0.4145 0.4872
C2 C 0.09664(8) 0.54331(16) 0.48448(8)
C3 C 0.08931(9) 0.49237(17) 0.42167(8)
H3 H 0.1140 0.4181 0.4101
C4 C 0.04541(9) 0.55135(19) 0.37615(9)
H4 H 0.0401 0.5166 0.3332
C5 C 0.00903(8) 0.66032(17) 0.39208(9)
C6 C 0.01640(9) 0.70792(17) 0.45581(9)
H5 H -0.0088 0.7813 0.4678
C7 C 0.05981(8) 0.65029(17) 0.50197(9)
H6 H 0.0643 0.6837 0.5453
C8 C -0.03713(10) 0.7266(2) 0.34205(10)
H7 H -0.0134 0.8007 0.3243
H8 H -0.0787 0.7551 0.3630
H9 H -0.0493 0.6671 0.3064
C9 C 0.34806(8) 0.56158(16) 0.51674(8)
H10 H 0.3450 0.6569 0.5184
C10 C 0.36873(8) 0.51453(17) 0.58437(8)
C11 C 0.36386(9) 0.59756(19) 0.63692(9)
H11 H 0.3497 0.6833 0.6293
C12 C 0.37938(9) 0.5571(2) 0.70059(9)
H12 H 0.3757 0.6143 0.7365
C13 C 0.40017(9) 0.4334(2) 0.71093(8)
C14 C 0.40644(10) 0.3490(2) 0.65931(9)
H13 H 0.4217 0.2640 0.6672
C15 C 0.39024(9) 0.38954(18) 0.59582(9)
H14 H 0.3938 0.3319 0.5601
C16 C 0.26196(8) 0.56788(16) 0.42233(8)
C17 C 0.24837(8) 0.48436(16) 0.36484(8)
C18 C 0.26575(9) 0.35520(17) 0.36479(8)
H15 H 0.2882 0.3181 0.4023
C19 C 0.25031(11) 0.28118(19) 0.31011(9)
H16 H 0.2626 0.1934 0.3101
C20 C 0.21722(10) 0.3336(2) 0.25555(9)
H17 H 0.2069 0.2819 0.2182
C21 C 0.19909(10) 0.46149(19) 0.25532(8)
H18 H 0.1758 0.4974 0.2180
C22 C 0.21492(9) 0.53660(17) 0.30929(8)
H19 H 0.2030 0.6246 0.3088
loop_
_geom_bond_atom_site_label_1
_geom_bond_atom_site_label_2
_geom_bond_site_symmetry_1
_geom_bond_site_symmetry_2
Cl1 C9 1_555 1_555
Cl2 C13 1_555 1_555
S1 O1 1_555 1_555
O2 S1 1_555 1_555
O3 C16 1_555 1_555
N1 S1 1_555 1_555
H1 N1 1_555 1_555
C1 N1 1_555 1_555
H2 C1 1_555 1_555
C2 S1 1_555 1_555
C3 C2 1_555 1_555
H3 C3 1_555 1_555
C4 C3 1_555 1_555
H4 C4 1_555 1_555
C5 C4 1_555 1_555
C6 C5 1_555 1_555
H5 C6 1_555 1_555
C7 C2 1_555 1_555
H6 C7 1_555 1_555
C8 C5 1_555 1_555
H7 C8 1_555 1_555
H8 C8 1_555 1_555
H9 C8 1_555 1_555
C9 C1 1_555 1_555
H10 C9 1_555 1_555
C10 C9 1_555 1_555
C11 C10 1_555 1_555
H11 C11 1_555 1_555
C12 C11 1_555 1_555
H12 C12 1_555 1_555
C13 C12 1_555 1_555
C14 C13 1_555 1_555
H13 C14 1_555 1_555
C15 C10 1_555 1_555
H14 C15 1_555 1_555
C16 C1 1_555 1_555
C17 C16 1_555 1_555
C18 C17 1_555 1_555
H15 C18 1_555 1_555
C19 C18 1_555 1_555
H16 C19 1_555 1_555
C20 C19 1_555 1_555
H17 C20 1_555 1_555
C21 C20 1_555 1_555
H18 C21 1_555 1_555
C22 C17 1_555 1_555
H19 C22 1_555 1_555
C6 C7 1_555 1_555
C14 C15 1_555 1_555
C21 C22 1_555 1_555

#END
