
#######################################################################
#
#                 Cambridge Crystallographic Data Centre
#                                CCDC 
#
#######################################################################
#
# If this CIF has been generated from an entry in the Cambridge 
# Structural Database, then it will include bibliographic, chemical, 
# crystal, experimental, refinement or atomic coordinate data resulting 
# from the CCDC's data processing and validation procedures.
#
#######################################################################

data_SIJWOX10
_chemical_formula_moiety         'C21 H37 B1 N2'
_chemical_name_systematic        
9-(3,5-Di-t-butyl-4-ethylpyrazolyl)-9-borabicyclo(3.3.1)nonane
_symmetry_cell_setting           monoclinic
_symmetry_space_group_name_H-M   'P 21/n'
_symmetry_Int_Tables_number      14
_space_group_name_Hall           '-P 2yn'
loop_
_symmetry_equiv_pos_site_id
_symmetry_equiv_pos_as_xyz
1 x,y,z
2 1/2-x,1/2+y,1/2-z
3 -x,-y,-z
4 1/2+x,1/2-y,1/2+z
_cell_length_a                   9.698(2)
_cell_length_b                   23.753(4)
_cell_length_c                   9.869(2)
_cell_angle_alpha                90
_cell_angle_beta                 118.55(2)
_cell_angle_gamma                90
_cell_volume                     1996.95
_exptl_crystal_colour            colorless
_chemical_melting_point          82-83deg.C
_cell_formula_units_Z            4
loop_
_atom_site_label
_atom_site_type_symbol
_atom_site_fract_x
_atom_site_fract_y
_atom_site_fract_z
B1 B 0.25326(30) 0.60529(10) 0.72938(31)
N1 N 0.18327(21) 0.64958(7) 0.78060(22)
N2 N 0.22565(21) 0.70231(7) 0.75214(23)
C1 C 0.14427(25) 0.73898(8) 0.78460(27)
C2 C 0.05119(24) 0.71202(8) 0.84271(25)
C3 C 0.07915(24) 0.65505(8) 0.83902(26)
C4 C 0.42312(26) 0.61363(9) 0.75093(29)
H1 H 0.47187(26) 0.64500(9) 0.81853(29)
C5 C 0.40909(28) 0.62641(10) 0.59094(31)
H2 H 0.51144(28) 0.62319(10) 0.59896(31)
H3 H 0.37571(28) 0.66479(10) 0.56488(31)
C6 C 0.29529(30) 0.58848(11) 0.45839(32)
H4 H 0.34748(30) 0.55375(11) 0.46160(32)
H5 H 0.26877(30) 0.60658(11) 0.36201(32)
C7 C 0.14391(27) 0.57565(10) 0.46491(30)
H6 H 0.08553(27) 0.54790(10) 0.38781(30)
H7 H 0.08112(27) 0.60919(10) 0.43968(30)
C8 C 0.17066(26) 0.55325(9) 0.62499(29)
H8 H 0.07130(26) 0.54703(9) 0.62179(29)
C9 C 0.26947(30) 0.49883(9) 0.67714(32)
H9 H 0.22986(30) 0.47316(9) 0.59160(32)
H10 H 0.25420(30) 0.48168(9) 0.75707(32)
C10 C 0.44649(31) 0.50582(10) 0.73691(34)
H11 H 0.46627(31) 0.50544(10) 0.65044(34)
H12 H 0.49998(31) 0.47407(10) 0.80074(34)
C11 C 0.51461(27) 0.55902(10) 0.82859(30)
H13 H 0.51942(27) 0.55516(10) 0.92759(30)
H14 H 0.62028(27) 0.56297(10) 0.84568(30)
C12 C 0.16693(27) 0.80140(9) 0.76305(28)
C13 C 0.25619(30) 0.83019(9) 0.92040(30)
H15 H 0.19796(30) 0.82801(9) 0.97618(30)
H16 H 0.27007(30) 0.86895(9) 0.90211(30)
H17 H 0.35699(30) 0.81282(9) 0.97977(30)
C14 C 0.00832(30) 0.83025(9) 0.66538(31)
H18 H -0.05124(30) 0.83177(9) 0.71991(31)
H19 H -0.05046(30) 0.81031(9) 0.57006(31)
H20 H 0.02920(30) 0.86782(9) 0.64419(31)
C15 C 0.26349(33) 0.80780(9) 0.67857(33)
H21 H 0.36476(33) 0.79065(9) 0.73698(33)
H22 H 0.27595(33) 0.84761(9) 0.67158(33)
H23 H 0.21189(33) 0.79188(9) 0.57681(33)
C16 C 0.02299(25) 0.60349(8) 0.89240(27)
C17 C -0.02499(28) 0.61914(9) 1.01549(29)
H24 H -0.11829(28) 0.64179(9) 0.97027(29)
H25 H 0.05796(28) 0.63952(9) 1.09839(29)
H26 H -0.04524(28) 0.58490(9) 1.05464(29)
C18 C 0.15773(26) 0.56087(9) 0.96874(30)
H27 H 0.19122(26) 0.54731(9) 0.89750(30)
H28 H 0.12421(26) 0.52971(9) 1.00778(30)
H29 H 0.24345(26) 0.57977(9) 1.05278(30)
C19 C -0.11980(26) 0.57657(9) 0.75661(28)
H30 H -0.09631(26) 0.56731(9) 0.67516(28)
H31 H -0.20793(26) 0.60173(9) 0.71805(28)
H32 H -0.14459(26) 0.54281(9) 0.79397(28)
C20 C -0.05222(27) 0.74219(9) 0.89608(28)
H33 H -0.04252(27) 0.72591(9) 0.98928(28)
H34 H -0.01522(27) 0.78035(9) 0.91545(28)
C21 C -0.22728(27) 0.74098(10) 0.77901(30)
H35 H -0.28256(27) 0.76246(10) 0.82023(30)
H36 H -0.26397(27) 0.70277(10) 0.76310(30)
H37 H -0.24571(27) 0.75698(10) 0.68246(30)
loop_
_geom_bond_atom_site_label_1
_geom_bond_atom_site_label_2
_geom_bond_site_symmetry_1
_geom_bond_site_symmetry_2
B1 N1 1_555 1_555
N1 N2 1_555 1_555
N2 C1 1_555 1_555
C1 C2 1_555 1_555
C2 C3 1_555 1_555
C3 N1 1_555 1_555
C4 B1 1_555 1_555
H1 C4 1_555 1_555
C5 C4 1_555 1_555
H2 C5 1_555 1_555
H3 C5 1_555 1_555
C6 C5 1_555 1_555
H4 C6 1_555 1_555
H5 C6 1_555 1_555
C7 C6 1_555 1_555
H6 C7 1_555 1_555
H7 C7 1_555 1_555
C8 B1 1_555 1_555
H8 C8 1_555 1_555
C9 C8 1_555 1_555
H9 C9 1_555 1_555
H10 C9 1_555 1_555
C10 C9 1_555 1_555
H11 C10 1_555 1_555
H12 C10 1_555 1_555
C11 C4 1_555 1_555
H13 C11 1_555 1_555
H14 C11 1_555 1_555
C12 C1 1_555 1_555
C13 C12 1_555 1_555
H15 C13 1_555 1_555
H16 C13 1_555 1_555
H17 C13 1_555 1_555
C14 C12 1_555 1_555
H18 C14 1_555 1_555
H19 C14 1_555 1_555
H20 C14 1_555 1_555
C15 C12 1_555 1_555
H21 C15 1_555 1_555
H22 C15 1_555 1_555
H23 C15 1_555 1_555
C16 C3 1_555 1_555
C17 C16 1_555 1_555
H24 C17 1_555 1_555
H25 C17 1_555 1_555
H26 C17 1_555 1_555
C18 C16 1_555 1_555
H27 C18 1_555 1_555
H28 C18 1_555 1_555
H29 C18 1_555 1_555
C19 C16 1_555 1_555
H30 C19 1_555 1_555
H31 C19 1_555 1_555
H32 C19 1_555 1_555
C20 C2 1_555 1_555
H33 C20 1_555 1_555
H34 C20 1_555 1_555
C21 C20 1_555 1_555
H35 C21 1_555 1_555
H36 C21 1_555 1_555
H37 C21 1_555 1_555
C7 C8 1_555 1_555
C10 C11 1_555 1_555

#END
