
#######################################################################
#
#                 Cambridge Crystallographic Data Centre
#                                CCDC 
#
#######################################################################
#
# If this CIF has been generated from an entry in the Cambridge 
# Structural Database, then it will include bibliographic, chemical, 
# crystal, experimental, refinement or atomic coordinate data resulting 
# from the CCDC's data processing and validation procedures.
#
#######################################################################

data_SIJZET
_chemical_formula_moiety         'C21 H20 F3 N1 O5 S1'
_chemical_name_systematic        
'methyl 1-benzyl-4-[(4-methylphenyl)sulfonyl]-5-oxo-3-(trifluoromethyl)prolinate'
_symmetry_cell_setting           triclinic
_symmetry_space_group_name_H-M   'P -1'
_symmetry_Int_Tables_number      2
_space_group_name_Hall           '-P 1'
loop_
_symmetry_equiv_pos_site_id
_symmetry_equiv_pos_as_xyz
1 x,y,z
2 -x,-y,-z
_cell_length_a                   9.0920(17)
_cell_length_b                   12.176(2)
_cell_length_c                   21.634(4)
_cell_angle_alpha                75.353(4)
_cell_angle_beta                 80.565(4)
_cell_angle_gamma                69.436(3)
_cell_volume                     2162.02
_exptl_crystal_colour            colorless
_cell_formula_units_Z            4
loop_
_atom_site_label
_atom_site_type_symbol
_atom_site_fract_x
_atom_site_fract_y
_atom_site_fract_z
S1 S 0.63240(16) 0.79649(12) 0.45153(7)
O1 O 0.7248(4) 0.9775(3) 0.51452(14)
O2 O 0.9574(5) 0.9082(4) 0.27202(19)
O3 O 1.0878(4) 0.9281(4) 0.34456(19)
O4 O 0.5572(5) 0.7692(3) 0.4079(2)
O5 O 0.5739(4) 0.7839(3) 0.51827(18)
N1 N 0.8178(5) 1.0381(3) 0.41191(17)
F1 F 0.4841(4) 1.1791(3) 0.33685(16)
F2 F 0.5784(4) 1.1027(3) 0.25338(14)
F3 F 0.4129(4) 1.0396(3) 0.32188(17)
C1 C 0.7279(6) 0.9876(4) 0.4564(2)
C2 C 0.6221(6) 0.9513(4) 0.4237(2)
H1 H 0.5130 1.0016 0.4319
C3 C 0.6708(5) 0.9841(4) 0.3513(2)
H2 H 0.7054 0.9117 0.3336
C4 C 0.8097(6) 1.0285(4) 0.3468(2)
H3 H 0.7841 1.1093 0.3195
C5 C 0.9594(6) 0.9485(5) 0.3168(3)
C6 C 1.2350(7) 0.8557(7) 0.3177(4)
H4 H 1.2235 0.7832 0.3125
H5 H 1.3158 0.8360 0.3460
H6 H 1.2637 0.8997 0.2768
C7 C 0.5358(7) 1.0749(5) 0.3170(2)
C8 C 0.9149(6) 1.0999(5) 0.4281(2)
H7 H 1.0250 1.0510 0.4246
H8 H 0.8865 1.1089 0.4722
C9 C 0.8944(6) 1.2216(4) 0.3850(2)
C10 C 0.7466(7) 1.3061(5) 0.3770(2)
H9 H 0.6573 1.2876 0.3974
C11 C 0.7323(9) 1.4190(6) 0.3384(3)
H10 H 0.6333 1.4769 0.3341
C12 C 0.8616(11) 1.4453(6) 0.3068(3)
H11 H 0.8496 1.5202 0.2799
C13 C 1.0101(9) 1.3632(7) 0.3140(3)
H12 H 1.0981 1.3832 0.2933
C14 C 1.0276(7) 1.2487(5) 0.3531(3)
H13 H 1.1271 1.1916 0.3576
C15 C 0.8319(6) 0.7147(4) 0.4460(2)
C16 C 0.9017(7) 0.6664(5) 0.3923(3)
H14 H 0.8414 0.6756 0.3593
C17 C 1.0620(8) 0.6044(6) 0.3885(3)
H15 H 1.1073 0.5706 0.3531
C18 C 1.1557(8) 0.5911(5) 0.4346(4)
C19 C 1.0822(7) 0.6367(6) 0.4890(3)
H16 H 1.1420 0.6248 0.5226
C20 C 0.9236(7) 0.6986(5) 0.4941(3)
H17 H 0.8781 0.7299 0.5303
C21 C 1.3268(8) 0.5260(7) 0.4290(5)
H18 H 1.3531 0.4903 0.3922
H19 H 1.3546 0.4644 0.4669
H20 H 1.3838 0.5811 0.4244
S2 S 0.61495(16) 0.25893(12) 0.04713(6)
O6 O 0.7297(4) 0.4917(3) -0.01448(15)
O7 O 0.8718(4) 0.2133(3) 0.22272(17)
O8 O 1.0305(4) 0.2990(3) 0.15273(17)
O9 O 0.5845(5) 0.3006(4) -0.01925(18)
O10 O 0.5214(4) 0.1954(4) 0.09144(19)
N2 N 0.7866(5) 0.4657(3) 0.08849(17)
F4 F 0.3391(4) 0.4016(3) 0.18018(16)
F5 F 0.4235(4) 0.5520(3) 0.16128(16)
F6 F 0.4811(4) 0.4147(3) 0.24590(14)
C22 C 0.7080(6) 0.4544(4) 0.0444(2)
C23 C 0.5945(6) 0.3892(4) 0.0761(2)
H21 H 0.4883 0.4453 0.0681
C24 C 0.6106(5) 0.3657(4) 0.1487(2)
H22 H 0.6344 0.2795 0.1667
C25 C 0.7519(5) 0.4018(4) 0.1532(2)
H23 H 0.7205 0.4580 0.1820
C26 C 0.8920(6) 0.2933(5) 0.1795(2)
C27 C 1.1681(6) 0.2045(6) 0.1766(3)
H24 H 1.1804 0.2099 0.2188
H25 H 1.2592 0.2120 0.1486
H26 H 1.1568 0.1283 0.1782
C28 C 0.4651(7) 0.4321(5) 0.1836(2)
C29 C 0.8862(6) 0.5423(4) 0.0732(2)
H27 H 0.8729 0.5885 0.0297
H28 H 0.9957 0.4921 0.0754
C30 C 0.8475(6) 0.6274(4) 0.1184(2)
C31 C 0.6949(7) 0.7013(5) 0.1276(3)
H29 H 0.6143 0.6970 0.1078
C32 C 0.6636(8) 0.7825(6) 0.1668(3)
H30 H 0.5609 0.8329 0.1732
C33 C 0.7797(11) 0.7895(6) 0.1960(3)
H31 H 0.7563 0.8449 0.2219
C34 C 0.9327(10) 0.7150(6) 0.1875(3)
H32 H 1.0125 0.7195 0.2078
C35 C 0.9662(8) 0.6331(5) 0.1482(2)
H33 H 1.0688 0.5823 0.1421
C36 C 0.8158(6) 0.1718(5) 0.0524(2)
C37 C 0.9221(7) 0.1956(5) 0.0031(3)
H34 H 0.8892 0.2549 -0.0332
C38 C 1.0790(7) 0.1302(5) 0.0081(3)
H35 H 1.1522 0.1477 -0.0249
C39 C 1.1316(7) 0.0398(5) 0.0601(3)
C40 C 1.0205(8) 0.0171(5) 0.1083(3)
H36 H 1.0527 -0.0432 0.1443
C41 C 0.8633(7) 0.0810(5) 0.1046(2)
H37 H 0.7896 0.0629 0.1373
C42 C 1.3070(7) -0.0273(7) 0.0638(4)
H38 H 1.3430 -0.0774 0.0328
H39 H 1.3256 -0.0761 0.1060
H40 H 1.3633 0.0293 0.0548
loop_
_geom_bond_atom_site_label_1
_geom_bond_atom_site_label_2
_geom_bond_site_symmetry_1
_geom_bond_site_symmetry_2
S1 O4 1_555 1_555
O1 C1 1_555 1_555
O2 C5 1_555 1_555
O3 C5 1_555 1_555
O5 S1 1_555 1_555
N1 C1 1_555 1_555
F1 C7 1_555 1_555
F2 C7 1_555 1_555
F3 C7 1_555 1_555
C1 C2 1_555 1_555
C2 S1 1_555 1_555
H1 C2 1_555 1_555
C3 C2 1_555 1_555
H2 C3 1_555 1_555
C4 N1 1_555 1_555
H3 C4 1_555 1_555
C5 C4 1_555 1_555
C6 O3 1_555 1_555
H4 C6 1_555 1_555
H5 C6 1_555 1_555
H6 C6 1_555 1_555
C7 C3 1_555 1_555
C8 N1 1_555 1_555
H7 C8 1_555 1_555
H8 C8 1_555 1_555
C9 C8 1_555 1_555
C10 C9 1_555 1_555
H9 C10 1_555 1_555
C11 C10 1_555 1_555
H10 C11 1_555 1_555
C12 C11 1_555 1_555
H11 C12 1_555 1_555
C13 C12 1_555 1_555
H12 C13 1_555 1_555
C14 C9 1_555 1_555
H13 C14 1_555 1_555
C15 S1 1_555 1_555
C16 C15 1_555 1_555
H14 C16 1_555 1_555
C17 C16 1_555 1_555
H15 C17 1_555 1_555
C18 C17 1_555 1_555
C19 C18 1_555 1_555
H16 C19 1_555 1_555
C20 C15 1_555 1_555
H17 C20 1_555 1_555
C21 C18 1_555 1_555
H18 C21 1_555 1_555
H19 C21 1_555 1_555
H20 C21 1_555 1_555
S2 O9 1_555 1_555
O6 C22 1_555 1_555
O7 C26 1_555 1_555
O8 C26 1_555 1_555
O10 S2 1_555 1_555
N2 C22 1_555 1_555
F4 C28 1_555 1_555
F5 C28 1_555 1_555
F6 C28 1_555 1_555
C22 C23 1_555 1_555
C23 S2 1_555 1_555
H21 C23 1_555 1_555
C24 C23 1_555 1_555
H22 C24 1_555 1_555
C25 N2 1_555 1_555
H23 C25 1_555 1_555
C26 C25 1_555 1_555
C27 O8 1_555 1_555
H24 C27 1_555 1_555
H25 C27 1_555 1_555
H26 C27 1_555 1_555
C28 C24 1_555 1_555
C29 N2 1_555 1_555
H27 C29 1_555 1_555
H28 C29 1_555 1_555
C30 C29 1_555 1_555
C31 C30 1_555 1_555
H29 C31 1_555 1_555
C32 C31 1_555 1_555
H30 C32 1_555 1_555
C33 C32 1_555 1_555
H31 C33 1_555 1_555
C34 C33 1_555 1_555
H32 C34 1_555 1_555
C35 C30 1_555 1_555
H33 C35 1_555 1_555
C36 S2 1_555 1_555
C37 C36 1_555 1_555
H34 C37 1_555 1_555
C38 C37 1_555 1_555
H35 C38 1_555 1_555
C39 C38 1_555 1_555
C40 C39 1_555 1_555
H36 C40 1_555 1_555
C41 C36 1_555 1_555
H37 C41 1_555 1_555
C42 C39 1_555 1_555
H38 C42 1_555 1_555
H39 C42 1_555 1_555
H40 C42 1_555 1_555
C3 C4 1_555 1_555
C13 C14 1_555 1_555
C19 C20 1_555 1_555
C24 C25 1_555 1_555
C34 C35 1_555 1_555
C40 C41 1_555 1_555

#END
