
#######################################################################
#
#                 Cambridge Crystallographic Data Centre
#                                CCDC 
#
#######################################################################
#
# If this CIF has been generated from an entry in the Cambridge 
# Structural Database, then it will include bibliographic, chemical, 
# crystal, experimental, refinement or atomic coordinate data resulting 
# from the CCDC's data processing and validation procedures.
#
#######################################################################

data_SIKDOI
_chemical_formula_moiety         'C14 H9 Cl1 N4 O5 S1'
_chemical_name_systematic        
'N-[(2-chloro-4-nitrophenyl)carbamothioyl]-4-nitrobenzamide unknown solvate'
_symmetry_cell_setting           monoclinic
_symmetry_space_group_name_H-M   'P 21/c'
_symmetry_Int_Tables_number      14
_space_group_name_Hall           '-P 2ybc'
loop_
_symmetry_equiv_pos_site_id
_symmetry_equiv_pos_as_xyz
1 x,y,z
2 -x,1/2+y,1/2-z
3 -x,-y,-z
4 x,1/2-y,1/2+z
_cell_length_a                   4.21958(13)
_cell_length_b                   17.6573(5)
_cell_length_c                   26.0423(8)
_cell_angle_alpha                90
_cell_angle_beta                 93.512(3)
_cell_angle_gamma                90
_cell_volume                     1936.67
_exptl_crystal_colour            yellow
_exptl_crystal_description       needle
_cell_formula_units_Z            4
loop_
_atom_site_label
_atom_site_type_symbol
_atom_site_fract_x
_atom_site_fract_y
_atom_site_fract_z
Cl1 Cl -0.0308(3) 0.45069(6) 0.63561(4)
S1 S 0.6797(3) 0.69642(6) 0.71480(5)
O1 O 0.4703(8) 0.44577(16) 0.73751(11)
O2 O -0.3997(8) 0.5935(2) 0.46803(13)
O3 O -0.1124(9) 0.69329(19) 0.46290(13)
O4 O 1.3681(9) 0.3146(2) 0.95185(13)
O5 O 1.1560(13) 0.4030(2) 0.99410(14)
N1 N 0.6811(8) 0.56306(17) 0.75761(12)
H1 H 0.8009 0.5868 0.7813
N2 N 0.3876(8) 0.56839(17) 0.68080(12)
H2 H 0.3474 0.5214 0.6897
N3 N -0.1927(8) 0.6366(2) 0.48560(13)
N4 N 1.2021(10) 0.3702(2) 0.95439(14)
C1 C 0.6243(10) 0.4872(2) 0.76693(14)
C2 C 0.5733(9) 0.6066(2) 0.71558(14)
C3 C 0.2456(9) 0.5899(2) 0.63258(15)
C4 C 0.0428(9) 0.5371(2) 0.60686(15)
C5 C -0.1041(9) 0.5518(2) 0.55914(15)
H3 H -0.2442 0.5161 0.5426
C6 C -0.0408(9) 0.6199(2) 0.53641(15)
C7 C 0.1581(10) 0.6732(2) 0.55982(16)
H4 H 0.1966 0.7198 0.5431
C8 C 0.3012(10) 0.6581(2) 0.60800(16)
H5 H 0.4383 0.6946 0.6244
C9 C 0.7732(10) 0.4577(2) 0.81741(14)
C10 C 0.7510(11) 0.4976(2) 0.86263(15)
H6 H 0.6432 0.5449 0.8626
C11 C 0.8871(11) 0.4682(2) 0.90789(16)
H7 H 0.8741 0.4947 0.9394
C12 C 1.0419(10) 0.3997(2) 0.90648(15)
C13 C 1.0579(11) 0.3579(2) 0.86206(16)
H8 H 1.1620 0.3102 0.8624
C14 C 0.9189(11) 0.3872(2) 0.81724(16)
H9 H 0.9226 0.3591 0.7861
loop_
_geom_bond_atom_site_label_1
_geom_bond_atom_site_label_2
_geom_bond_site_symmetry_1
_geom_bond_site_symmetry_2
Cl1 C4 1_555 1_555
S1 C2 1_555 1_555
O1 C1 1_555 1_555
O2 N3 1_555 1_555
O3 N3 1_555 1_555
O4 N4 1_555 1_555
O5 N4 1_555 1_555
N1 H1 1_555 1_555
N2 H2 1_555 1_555
N3 C6 1_555 1_555
N4 C12 1_555 1_555
C1 N1 1_555 1_555
C2 N1 1_555 1_555
C3 N2 1_555 1_555
C4 C3 1_555 1_555
C5 C4 1_555 1_555
H3 C5 1_555 1_555
C6 C5 1_555 1_555
C7 C6 1_555 1_555
H4 C7 1_555 1_555
C8 C3 1_555 1_555
H5 C8 1_555 1_555
C9 C1 1_555 1_555
C10 C9 1_555 1_555
H6 C10 1_555 1_555
C11 C10 1_555 1_555
H7 C11 1_555 1_555
C12 C11 1_555 1_555
C13 C12 1_555 1_555
H8 C13 1_555 1_555
C14 C9 1_555 1_555
H9 C14 1_555 1_555
N2 C2 1_555 1_555
C7 C8 1_555 1_555
C13 C14 1_555 1_555

#END
