
#######################################################################
#
#                 Cambridge Crystallographic Data Centre
#                                CCDC 
#
#######################################################################
#
# If this CIF has been generated from an entry in the Cambridge 
# Structural Database, then it will include bibliographic, chemical, 
# crystal, experimental, refinement or atomic coordinate data resulting 
# from the CCDC's data processing and validation procedures.
#
#######################################################################

data_SIKJEE
_chemical_formula_moiety         'C31 H25 Br1 N2 O4'
_chemical_name_systematic        
"methyl 2-bromo-11-methoxy-6-(4-methylphenyl)-6,8,9,14-tetrahydro[1]benzopyrano[4',3':2,3]indolizino[8,7-b]indole-15-carboxylate"
_symmetry_cell_setting           monoclinic
_symmetry_space_group_name_H-M   'P 21/c'
_symmetry_Int_Tables_number      14
_space_group_name_Hall           '-P 2ybc'
loop_
_symmetry_equiv_pos_site_id
_symmetry_equiv_pos_as_xyz
1 x,y,z
2 -x,1/2+y,1/2-z
3 -x,-y,-z
4 x,1/2-y,1/2+z
_cell_length_a                   15.3274(14)
_cell_length_b                   10.9875(10)
_cell_length_c                   15.7022(14)
_cell_angle_alpha                90
_cell_angle_beta                 106.769(3)
_cell_angle_gamma                90
_cell_volume                     2531.95
_exptl_crystal_colour            colorless
_exptl_crystal_description       block
_cell_formula_units_Z            4
loop_
_atom_site_label
_atom_site_type_symbol
_atom_site_fract_x
_atom_site_fract_y
_atom_site_fract_z
Br1 Br 0.05868(2) 1.22736(3) 0.27808(2)
C1 C 0.68980(15) 1.0417(2) 0.72372(14)
C2 C 0.77127(16) 1.1074(2) 0.74371(16)
H1 H 0.7769 1.1776 0.7126
C3 C 0.84265(17) 1.0636(2) 0.81158(16)
H2 H 0.8978 1.1053 0.8267
C4 C 0.83471(17) 0.9589(3) 0.85816(15)
C5 C 0.9086(2) 0.8333(3) 0.98178(19)
H3 H 0.8638 0.8514 1.0119
H4 H 0.9671 0.8230 1.0247
H5 H 0.8920 0.7596 0.9481
C6 C 0.75549(16) 0.8921(2) 0.83847(16)
H6 H 0.7512 0.8215 0.8698
C7 C 0.68063(15) 0.9346(2) 0.76878(15)
C8 C 0.58993(16) 0.8907(2) 0.72902(15)
C9 C 0.54857(15) 0.9725(2) 0.66382(14)
C10 C 0.53719(17) 0.7853(2) 0.74913(17)
H7 H 0.5105 0.8077 0.7959
H8 H 0.5780 0.7171 0.7700
C11 C 0.46263(18) 0.7481(2) 0.66702(18)
H9 H 0.4893 0.7034 0.6274
H10 H 0.4205 0.6942 0.6842
C12 C 0.45468(15) 0.9612(2) 0.61110(14)
C13 C 0.39005(14) 1.0368(2) 0.55489(14)
C14 C 0.40972(15) 1.1611(2) 0.53467(14)
C15 C 0.35037(19) 1.3560(2) 0.4900(2)
H11 H 0.3954 1.3960 0.5370
H12 H 0.2940 1.4001 0.4773
H13 H 0.3707 1.3533 0.4376
C16 C 0.32643(17) 0.6683(2) 0.43945(17)
H14 H 0.3809 0.7054 0.4703
C17 C 0.32253(18) 0.6002(2) 0.36434(18)
H15 H 0.3746 0.5931 0.3456
C18 C 0.24390(19) 0.5428(2) 0.31669(16)
C19 C 0.2408(2) 0.4681(3) 0.23526(19)
H16 H 0.3006 0.4644 0.2274
H17 H 0.1994 0.5051 0.1839
H18 H 0.2203 0.3873 0.2426
C20 C 0.16795(17) 0.5553(2) 0.34767(17)
H19 H 0.1138 0.5170 0.3173
C21 C 0.17107(16) 0.6234(2) 0.42246(17)
H20 H 0.1192 0.6299 0.4416
C22 C 0.25030(16) 0.6820(2) 0.46926(15)
C23 C 0.25364(16) 0.7588(2) 0.55064(17)
H21 H 0.2674 0.7054 0.6028
C24 C 0.32412(15) 0.8575(2) 0.56723(15)
C25 C 0.30656(15) 0.9685(2) 0.52720(14)
C26 C 0.21350(14) 0.9921(2) 0.47027(14)
C27 C 0.18631(15) 1.0841(2) 0.40746(14)
H22 H 0.2295 1.1361 0.3961
C28 C 0.09536(16) 1.0986(2) 0.36182(15)
C29 C 0.02981(17) 1.0227(3) 0.37608(18)
H23 H -0.0314 1.0353 0.3464
C30 C 0.05621(17) 0.9279(3) 0.43497(19)
H24 H 0.0127 0.8744 0.4439
C31 C 0.14618(16) 0.9115(2) 0.48067(16)
N1 N 0.60811(12) 1.06385(17) 0.66030(12)
H25 H 0.5965 1.1249 0.6245
N2 N 0.41262(12) 0.85311(17) 0.61964(12)
O1 O 0.91286(12) 0.9293(2) 0.92420(12)
O2 O 0.48389(11) 1.19977(15) 0.53535(12)
O3 O 0.33681(11) 1.23382(14) 0.51699(12)
O4 O 0.16710(11) 0.81683(16) 0.54155(11)
loop_
_geom_bond_atom_site_label_1
_geom_bond_atom_site_label_2
_geom_bond_site_symmetry_1
_geom_bond_site_symmetry_2
Br1 C28 1_555 1_555
C1 C2 1_555 1_555
C2 H1 1_555 1_555
C3 C2 1_555 1_555
H2 C3 1_555 1_555
C4 C3 1_555 1_555
C5 H3 1_555 1_555
H4 C5 1_555 1_555
H5 C5 1_555 1_555
C6 C4 1_555 1_555
H6 C6 1_555 1_555
C7 C1 1_555 1_555
C8 C7 1_555 1_555
C9 C8 1_555 1_555
C10 C8 1_555 1_555
H7 C10 1_555 1_555
H8 C10 1_555 1_555
C11 C10 1_555 1_555
H9 C11 1_555 1_555
H10 C11 1_555 1_555
C12 C9 1_555 1_555
C13 C12 1_555 1_555
C14 C13 1_555 1_555
C15 H11 1_555 1_555
H12 C15 1_555 1_555
H13 C15 1_555 1_555
C16 H14 1_555 1_555
C17 C16 1_555 1_555
H15 C17 1_555 1_555
C18 C17 1_555 1_555
C19 C18 1_555 1_555
H16 C19 1_555 1_555
H17 C19 1_555 1_555
H18 C19 1_555 1_555
C20 C18 1_555 1_555
H19 C20 1_555 1_555
C21 C20 1_555 1_555
H20 C21 1_555 1_555
C22 C16 1_555 1_555
C23 C22 1_555 1_555
H21 C23 1_555 1_555
C24 C23 1_555 1_555
C25 C13 1_555 1_555
C26 C25 1_555 1_555
C27 C26 1_555 1_555
H22 C27 1_555 1_555
C28 C27 1_555 1_555
C29 C28 1_555 1_555
H23 C29 1_555 1_555
C30 C29 1_555 1_555
H24 C30 1_555 1_555
C31 C26 1_555 1_555
N1 C1 1_555 1_555
H25 N1 1_555 1_555
N2 C11 1_555 1_555
O1 C4 1_555 1_555
O2 C14 1_555 1_555
O3 C14 1_555 1_555
O4 C23 1_555 1_555
C5 O1 1_555 1_555
C6 C7 1_555 1_555
C9 N1 1_555 1_555
C12 N2 1_555 1_555
C15 O3 1_555 1_555
C21 C22 1_555 1_555
C24 C25 1_555 1_555
C24 N2 1_555 1_555
C30 C31 1_555 1_555
C31 O4 1_555 1_555

#END
