
#######################################################################
#
#                 Cambridge Crystallographic Data Centre
#                                CCDC 
#
#######################################################################
#
# If this CIF has been generated from an entry in the Cambridge 
# Structural Database, then it will include bibliographic, chemical, 
# crystal, experimental, refinement or atomic coordinate data resulting 
# from the CCDC's data processing and validation procedures.
#
#######################################################################

data_SIKMIK
_chemical_formula_moiety         'C17 H15 Cl1 F1 N3 O3'
_chemical_name_systematic        
2-((4-((3-Chloro-4-fluorophenyl)amino)-7-methoxyquinazolin-6-yl)oxy)ethanol
_symmetry_cell_setting           monoclinic
_symmetry_space_group_name_H-M   'P 21/c'
_symmetry_Int_Tables_number      14
_space_group_name_Hall           '-P 2ybc'
loop_
_symmetry_equiv_pos_site_id
_symmetry_equiv_pos_as_xyz
1 x,y,z
2 -x,1/2+y,1/2-z
3 -x,-y,-z
4 x,1/2-y,1/2+z
_cell_length_a                   12.081(3)
_cell_length_b                   17.722(4)
_cell_length_c                   7.824(2)
_cell_angle_alpha                90
_cell_angle_beta                 101.984(4)
_cell_angle_gamma                90
_cell_volume                     1638.61
_exptl_crystal_colour            colorless
_exptl_crystal_description       'small grain'
_cell_formula_units_Z            4
loop_
_atom_site_label
_atom_site_type_symbol
_atom_site_fract_x
_atom_site_fract_y
_atom_site_fract_z
Cl1 Cl 1.00855(10) 0.60796(8) 0.15669(15)
F1 F 1.0837(2) 0.70808(13) 0.4557(4)
O1 O 0.4085(2) 0.26296(13) 0.7386(3)
O2 O 0.59403(19) 0.23375(12) 0.6408(3)
O3 O 0.7178(2) 0.09486(13) 0.7524(3)
H1 H 0.6504 0.0807 0.7427
N1 N 0.7725(2) 0.49565(16) 0.5633(4)
H2 H 0.7828 0.4501 0.5248
N2 N 0.6602(3) 0.57413(16) 0.6924(4)
N3 N 0.4883(2) 0.52963(15) 0.7651(4)
C1 C 0.8504(3) 0.55154(19) 0.5382(5)
C2 C 0.8856(3) 0.5526(2) 0.3802(5)
H3 H 0.8555 0.5175 0.2908
C3 C 0.9653(3) 0.6055(2) 0.3539(5)
C4 C 1.0069(3) 0.6561(2) 0.4824(6)
C5 C 0.9735(3) 0.6559(2) 0.6389(6)
H4 H 1.0040 0.6915 0.7269
C6 C 0.8949(3) 0.6033(2) 0.6677(5)
H5 H 0.8712 0.6026 0.7762
C7 C 0.6823(3) 0.5053(2) 0.6417(4)
C8 C 0.5634(3) 0.5816(2) 0.7501(5)
H6 H 0.5470 0.6311 0.7846
C9 C 0.5154(3) 0.45736(18) 0.7249(4)
C10 C 0.4430(3) 0.39762(19) 0.7479(4)
H7 H 0.3745 0.4081 0.7850
C11 C 0.4703(3) 0.32450(18) 0.7172(4)
C12 C 0.5723(3) 0.30869(19) 0.6595(4)
C13 C 0.6418(3) 0.36621(19) 0.6321(4)
H8 H 0.7090 0.3554 0.5918
C14 C 0.6141(3) 0.44185(19) 0.6633(4)
C15 C 0.3054(3) 0.2743(2) 0.7976(6)
H9 H 0.2720 0.2253 0.8154
H10 H 0.2524 0.3032 0.7098
H11 H 0.3212 0.3023 0.9081
C16 C 0.7034(3) 0.21632(19) 0.6061(5)
H12 H 0.7634 0.2360 0.7015
H13 H 0.7120 0.2403 0.4953
C17 C 0.7141(3) 0.1318(2) 0.5930(5)
H14 H 0.6490 0.1123 0.5057
H15 H 0.7839 0.1199 0.5508
loop_
_geom_bond_atom_site_label_1
_geom_bond_atom_site_label_2
_geom_bond_site_symmetry_1
_geom_bond_site_symmetry_2
Cl1 C3 1_555 1_555
F1 C4 1_555 1_555
O1 C11 1_555 1_555
O2 C12 1_555 1_555
O3 H1 1_555 1_555
N1 H2 1_555 1_555
N2 C7 1_555 1_555
N3 C8 1_555 1_555
C1 N1 1_555 1_555
C2 C1 1_555 1_555
H3 C2 1_555 1_555
C3 C2 1_555 1_555
C4 C3 1_555 1_555
C5 C4 1_555 1_555
H4 C5 1_555 1_555
C6 C1 1_555 1_555
H5 C6 1_555 1_555
C7 N1 1_555 1_555
C8 N2 1_555 1_555
H6 C8 1_555 1_555
C9 N3 1_555 1_555
C10 C9 1_555 1_555
H7 C10 1_555 1_555
C11 C10 1_555 1_555
C12 C11 1_555 1_555
C13 C12 1_555 1_555
H8 C13 1_555 1_555
C14 C7 1_555 1_555
C15 O1 1_555 1_555
H9 C15 1_555 1_555
H10 C15 1_555 1_555
H11 C15 1_555 1_555
C16 O2 1_555 1_555
H12 C16 1_555 1_555
H13 C16 1_555 1_555
C17 O3 1_555 1_555
H14 C17 1_555 1_555
H15 C17 1_555 1_555
C5 C6 1_555 1_555
C9 C14 1_555 1_555
C13 C14 1_555 1_555
C16 C17 1_555 1_555

#END
