
#######################################################################
#
#                 Cambridge Crystallographic Data Centre
#                                CCDC 
#
#######################################################################
#
# If this CIF has been generated from an entry in the Cambridge 
# Structural Database, then it will include bibliographic, chemical, 
# crystal, experimental, refinement or atomic coordinate data resulting 
# from the CCDC's data processing and validation procedures.
#
#######################################################################

data_SIKMEG
_chemical_name_common            'PDB Chemical Component code: MSQ'
_chemical_formula_moiety         'C17 H17 N3 O2 S1,C2 H6 O1'
_chemical_name_systematic        
'6,7-Dimethoxy-N-(3-(methylsulfanyl)phenyl)quinazolin-4-amine ethanol solvate'
_symmetry_cell_setting           orthorhombic
_symmetry_space_group_name_H-M   'P c a 21'
_symmetry_Int_Tables_number      29
_space_group_name_Hall           'P 2c -2ac'
loop_
_symmetry_equiv_pos_site_id
_symmetry_equiv_pos_as_xyz
1 x,y,z
2 -x,-y,1/2+z
3 1/2+x,-y,z
4 1/2-x,y,1/2+z
_cell_length_a                   27.4642(12)
_cell_length_b                   8.6879(19)
_cell_length_c                   15.816(3)
_cell_angle_alpha                90
_cell_angle_beta                 90
_cell_angle_gamma                90
_cell_volume                     3773.8
_exptl_crystal_colour            colorless
_exptl_crystal_description       block
_cell_formula_units_Z            8
loop_
_atom_site_label
_atom_site_type_symbol
_atom_site_fract_x
_atom_site_fract_y
_atom_site_fract_z
S1 S -0.24612(3) 0.61077(10) 0.42623(6)
O1 O 0.04196(7) 0.7065(2) 0.81280(13)
O2 O 0.06063(7) 0.9926(2) 0.80746(12)
N1 N -0.10035(9) 1.1118(3) 0.70581(17)
N2 N -0.15453(8) 0.9061(3) 0.66934(17)
N3 N -0.13537(7) 0.6514(2) 0.69385(16)
H1 H -0.1160 0.5848 0.7188
C1 C 0.03385(11) 0.5438(3) 0.8168(2)
H2 H 0.0628 0.4931 0.8398
H3 H 0.0273 0.5044 0.7598
H4 H 0.0059 0.5226 0.8534
C2 C 0.00452(10) 0.7951(3) 0.78416(18)
C3 C 0.01483(10) 0.9559(3) 0.78219(17)
C4 C 0.07490(11) 1.1510(3) 0.8016(2)
H5 H 0.1094 1.1610 0.8168
H6 H 0.0551 1.2128 0.8405
H7 H 0.0700 1.1875 0.7436
C5 C -0.01986(10) 1.0575(3) 0.75720(17)
H8 H -0.0129 1.1646 0.7575
C6 C -0.06616(10) 1.0053(3) 0.73075(18)
C7 C -0.14132(11) 1.0549(3) 0.6773(2)
H9 H -0.1649 1.1283 0.6599
C8 C -0.12226(10) 0.8027(3) 0.69683(18)
C9 C -0.07569(10) 0.8463(3) 0.72935(18)
C10 C -0.03968(9) 0.7430(3) 0.75747(17)
H10 H -0.0463 0.6356 0.7578
C11 C -0.17801(10) 0.5922(3) 0.65357(19)
C12 C -0.18919(10) 0.6316(3) 0.5712(2)
H11 H -0.1696 0.7042 0.5417
C13 C -0.22900(10) 0.5651(3) 0.53173(19)
C14 C -0.25791(11) 0.4613(4) 0.5762(2)
H12 H -0.2854 0.4158 0.5497
C15 C -0.24666(11) 0.4247(4) 0.6586(2)
H13 H -0.2666 0.3543 0.6888
C16 C -0.20669(10) 0.4893(3) 0.6977(2)
H14 H -0.1990 0.4632 0.7545
C17 C -0.18959(13) 0.6004(5) 0.3707(2)
H15 H -0.1953 0.6165 0.3102
H16 H -0.1749 0.4989 0.3795
H17 H -0.1675 0.6802 0.3919
S2 S -0.19493(16) 0.1434(5) 1.42806(16)
C18 C -0.2466(2) 0.0572(7) 1.4751(4)
H18 H -0.2761 0.0928 1.4462
H19 H -0.2481 0.0861 1.5349
H20 H -0.2441 -0.0550 1.4702
O3 O 0.06216(7) 0.1823(2) 1.01021(13)
O4 O 0.08177(6) 0.4687(2) 1.00919(13)
N4 N -0.07689(9) 0.5988(3) 1.11637(17)
N5 N -0.13124(8) 0.3972(3) 1.15962(16)
N6 N -0.11371(8) 0.1406(2) 1.13971(15)
H21 H -0.0963 0.0710 1.1129
C19 C 0.05317(11) 0.0193(3) 1.0076(2)
H22 H 0.0828 -0.0342 0.9892
H23 H 0.0267 -0.0022 0.9677
H24 H 0.0439 -0.0168 1.0640
C20 C 0.02518(10) 0.2734(3) 1.03745(17)
C21 C 0.03613(10) 0.4337(3) 1.03613(18)
C22 C 0.09640(11) 0.6283(3) 1.0147(2)
H25 H 0.1307 0.6380 0.9982
H26 H 0.0923 0.6646 1.0729
H27 H 0.0762 0.6904 0.9767
C23 C 0.00219(10) 0.5395(3) 1.06151(18)
H28 H 0.0095 0.6463 1.0594
C24 C -0.04378(10) 0.4890(3) 1.09086(18)
C25 C -0.11787(10) 0.5450(3) 1.1484(2)
H29 H -0.1409 0.6201 1.1657
C26 C -0.10013(10) 0.2892(3) 1.13130(17)
C27 C -0.05452(10) 0.3303(3) 1.09407(17)
C28 C -0.01920(9) 0.2236(3) 1.06596(17)
H30 H -0.0263 0.1166 1.0668
C29 C -0.15378(9) 0.0876(3) 1.18832(19)
C30 C -0.16095(10) 0.1423(3) 1.2695(2)
H31 H -0.1401 0.2197 1.2918
C31 C -0.19891(11) 0.0834(3) 1.3188(2)
C32 C -0.23032(11) -0.0250(4) 1.2853(2)
H32 H -0.2572 -0.0612 1.3173
C33 C -0.22218(11) -0.0800(4) 1.2049(2)
H33 H -0.2431 -0.1567 1.1824
C34 C -0.18410(10) -0.0253(4) 1.1565(2)
H34 H -0.1787 -0.0653 1.1014
O5 O -0.07191(7) 0.8887(2) 1.04851(14)
H38 H -0.0728 0.8067 1.0766
C36 C -0.13150(13) 0.8159(5) 0.9409(2)
H39 H -0.1341 0.7886 0.8810
H40 H -0.1529 0.9035 0.9531
H41 H -0.1412 0.7277 0.9757
C37 C -0.07983(13) 0.8586(4) 0.9609(2)
H42 H -0.0581 0.7738 0.9429
H43 H -0.0709 0.9514 0.9280
O6 O 0.08923(7) 0.6022(2) 1.28281(14)
H44 H 0.0936 0.6711 1.2463
C38 C 0.13767(12) 0.7018(5) 1.3993(2)
H45 H 0.1349 0.7335 1.4586
H46 H 0.1458 0.7914 1.3644
H47 H 0.1633 0.6241 1.3939
C39 C 0.09085(13) 0.6361(4) 1.3708(2)
H48 H 0.0845 0.5404 1.4029
H49 H 0.0645 0.7097 1.3843
S3? S -0.2202(3) 0.1829(4) 1.4088(3)
C35? C -0.2158(7) 0.0259(15) 1.4816(9)
H35? H -0.2367 -0.0586 1.4625
H36? H -0.2262 0.0600 1.5378
H37? H -0.1820 -0.0098 1.4843
loop_
_geom_bond_atom_site_label_1
_geom_bond_atom_site_label_2
_geom_bond_site_symmetry_1
_geom_bond_site_symmetry_2
S1 C13 1_555 1_555
O1 C1 1_555 1_555
O2 C3 1_555 1_555
N1 C6 1_555 1_555
N2 C7 1_555 1_555
N3 H1 1_555 1_555
C1 H2 1_555 1_555
H3 C1 1_555 1_555
H4 C1 1_555 1_555
C2 O1 1_555 1_555
C3 C2 1_555 1_555
C4 O2 1_555 1_555
H5 C4 1_555 1_555
H6 C4 1_555 1_555
H7 C4 1_555 1_555
C5 C3 1_555 1_555
H8 C5 1_555 1_555
C6 C5 1_555 1_555
C7 N1 1_555 1_555
H9 C7 1_555 1_555
C8 N2 1_555 1_555
C9 C6 1_555 1_555
C10 C2 1_555 1_555
H10 C10 1_555 1_555
C11 N3 1_555 1_555
C12 C11 1_555 1_555
H11 C12 1_555 1_555
C13 C12 1_555 1_555
C14 C13 1_555 1_555
H12 C14 1_555 1_555
C15 C14 1_555 1_555
H13 C15 1_555 1_555
C16 C11 1_555 1_555
H14 C16 1_555 1_555
C17 S1 1_555 1_555
H15 C17 1_555 1_555
H16 C17 1_555 1_555
H17 C17 1_555 1_555
S2 C18 1_555 1_555
C18 H18 1_555 1_555
H19 C18 1_555 1_555
H20 C18 1_555 1_555
O3 C19 1_555 1_555
O4 C21 1_555 1_555
N4 C24 1_555 1_555
N5 C25 1_555 1_555
N6 H21 1_555 1_555
C19 H22 1_555 1_555
H23 C19 1_555 1_555
H24 C19 1_555 1_555
C20 O3 1_555 1_555
C21 C20 1_555 1_555
C22 O4 1_555 1_555
H25 C22 1_555 1_555
H26 C22 1_555 1_555
H27 C22 1_555 1_555
C23 C21 1_555 1_555
H28 C23 1_555 1_555
C24 C23 1_555 1_555
C25 N4 1_555 1_555
H29 C25 1_555 1_555
C26 N5 1_555 1_555
C27 C24 1_555 1_555
C28 C20 1_555 1_555
H30 C28 1_555 1_555
C29 N6 1_555 1_555
C30 C29 1_555 1_555
H31 C30 1_555 1_555
C31 S2 1_555 1_555
C32 C31 1_555 1_555
H32 C32 1_555 1_555
C33 C32 1_555 1_555
H33 C33 1_555 1_555
C34 C29 1_555 1_555
H34 C34 1_555 1_555
O5 H38 1_555 1_555
C36 H39 1_555 1_555
H40 C36 1_555 1_555
H41 C36 1_555 1_555
C37 O5 1_555 1_555
H42 C37 1_555 1_555
H43 C37 1_555 1_555
O6 H44 1_555 1_555
C38 H45 1_555 1_555
H46 C38 1_555 1_555
H47 C38 1_555 1_555
C39 O6 1_555 1_555
H48 C39 1_555 1_555
H49 C39 1_555 1_555
N3 C8 1_555 1_555
C8 C9 1_555 1_555
C9 C10 1_555 1_555
C15 C16 1_555 1_555
N6 C26 1_555 1_555
C26 C27 1_555 1_555
C27 C28 1_555 1_555
C30 C31 1_555 1_555
C33 C34 1_555 1_555
C36 C37 1_555 1_555
C38 C39 1_555 1_555

#END
