
#######################################################################
#
#                 Cambridge Crystallographic Data Centre
#                                CCDC 
#
#######################################################################
#
# If this CIF has been generated from an entry in the Cambridge 
# Structural Database, then it will include bibliographic, chemical, 
# crystal, experimental, refinement or atomic coordinate data resulting 
# from the CCDC's data processing and validation procedures.
#
#######################################################################

data_SIKWIT
_chemical_name_common            HS-TDA-HS
_chemical_formula_moiety         'C22 H30 N2 S1 Se2'
_chemical_name_systematic        
2,5-bis(4-n-hexylselenophen-2-yl)-1,3,4-thiadiazole
_symmetry_cell_setting           orthorhombic
_symmetry_space_group_name_H-M   'P b c n'
_symmetry_Int_Tables_number      60
_space_group_name_Hall           '-P 2n 2ab'
loop_
_symmetry_equiv_pos_site_id
_symmetry_equiv_pos_as_xyz
1 x,y,z
2 1/2-x,1/2-y,1/2+z
3 -x,y,1/2-z
4 1/2+x,1/2-y,-z
5 -x,-y,-z
6 1/2+x,1/2+y,1/2-z
7 x,-y,1/2+z
8 1/2-x,1/2+y,z
_cell_length_a                   38.796(3)
_cell_length_b                   12.1462(5)
_cell_length_c                   9.6432(6)
_cell_angle_alpha                90
_cell_angle_beta                 90
_cell_angle_gamma                90
_cell_volume                     4544.11
_exptl_crystal_colour            yellow
_exptl_crystal_description       Block
_chemical_melting_point          '60-61 deg.C'
_cell_formula_units_Z            8
loop_
_atom_site_label
_atom_site_type_symbol
_atom_site_fract_x
_atom_site_fract_y
_atom_site_fract_z
C1 C 0.31912(19) 0.5762(6) 0.3820(7)
C2 C 0.3442(2) 0.5610(7) 0.4903(7)
C3 C 0.3579(2) 0.4657(7) 0.5409(7)
H1 H 0.3511 0.3954 0.5076
C4 C 0.3833(2) 0.4789(7) 0.6483(8)
C5 C 0.3885(2) 0.5857(6) 0.6836(7)
H2 H 0.4043 0.6078 0.7535
C6 C 0.4016(2) 0.3812(6) 0.7113(8)
H3 H 0.4109 0.3348 0.6358
H4 H 0.3846 0.3366 0.7634
C7 C 0.4309(2) 0.4126(7) 0.8083(8)
H5 H 0.4212 0.4549 0.8870
H6 H 0.4469 0.4616 0.7578
C8 C 0.45120(19) 0.3147(6) 0.8658(8)
H7 H 0.4355 0.2672 0.9203
H8 H 0.4602 0.2705 0.7876
C9 C 0.4808(2) 0.3502(7) 0.9567(8)
H9 H 0.4714 0.3931 1.0352
H10 H 0.4958 0.4002 0.9022
C10 C 0.5032(2) 0.2588(7) 1.0151(9)
H11 H 0.5114 0.2123 0.9377
H12 H 0.4889 0.2120 1.0764
C11 C 0.5343(2) 0.3004(8) 1.0974(9)
H13 H 0.5483 0.3485 1.0384
H14 H 0.5482 0.2375 1.1279
H15 H 0.5264 0.3418 1.1786
C12 C 0.2743(2) 0.5728(6) 0.2117(7)
C13 C 0.2471(2) 0.5522(6) 0.1136(7)
C14 C 0.23115(19) 0.4572(6) 0.0772(7)
H16 H 0.2366 0.3884 0.1185
C15 C 0.2053(2) 0.4686(7) -0.0287(8)
C16 C 0.2021(2) 0.5735(6) -0.0754(8)
H17 H 0.1867 0.5937 -0.1475
C17 C 0.1825(2) 0.3754(7) -0.0782(8)
H18 H 0.1965 0.3074 -0.0855
H19 H 0.1736 0.3932 -0.1717
C18 C 0.1524(3) 0.3548(7) 0.0186(10)
H20 H 0.1371 0.2996 -0.0252
H21 H 0.1614 0.3218 0.1051
C19 C 0.1307(2) 0.4540(7) 0.0572(9)
H22 H 0.1454 0.5061 0.1096
H23 H 0.1235 0.4914 -0.0293
C20 C 0.0997(2) 0.4314(7) 0.1402(11)
H24 H 0.1067 0.3899 0.2240
H25 H 0.0843 0.3830 0.0854
C21 C 0.0792(3) 0.5310(8) 0.1857(11)
H26 H 0.0938 0.5765 0.2474
H27 H 0.0736 0.5758 0.1030
C22 C 0.0462(3) 0.5038(8) 0.2607(13)
H28 H 0.0313 0.4597 0.2001
H29 H 0.0343 0.5722 0.2858
H30 H 0.0515 0.4620 0.3450
N1 N 0.31256(18) 0.6743(5) 0.3302(6)
N2 N 0.28737(18) 0.6728(5) 0.2311(6)
S1 S 0.29413(5) 0.47303(16) 0.31156(19)
Se1 Se 0.36198(2) 0.68485(7) 0.58280(8)
Se2 Se 0.23030(2) 0.67360(6) 0.01317(8)
loop_
_geom_bond_atom_site_label_1
_geom_bond_atom_site_label_2
_geom_bond_site_symmetry_1
_geom_bond_site_symmetry_2
C1 C2 1_555 1_555
C2 C3 1_555 1_555
C3 H1 1_555 1_555
C4 C3 1_555 1_555
C5 C4 1_555 1_555
H2 C5 1_555 1_555
C6 C4 1_555 1_555
H3 C6 1_555 1_555
H4 C6 1_555 1_555
C7 C6 1_555 1_555
H5 C7 1_555 1_555
H6 C7 1_555 1_555
C8 C7 1_555 1_555
H7 C8 1_555 1_555
H8 C8 1_555 1_555
C9 C8 1_555 1_555
H9 C9 1_555 1_555
H10 C9 1_555 1_555
C10 C9 1_555 1_555
H11 C10 1_555 1_555
H12 C10 1_555 1_555
C11 C10 1_555 1_555
H13 C11 1_555 1_555
H14 C11 1_555 1_555
H15 C11 1_555 1_555
C12 C13 1_555 1_555
C13 C14 1_555 1_555
C14 H16 1_555 1_555
C15 C14 1_555 1_555
C16 C15 1_555 1_555
H17 C16 1_555 1_555
C17 C15 1_555 1_555
H18 C17 1_555 1_555
H19 C17 1_555 1_555
C18 C17 1_555 1_555
H20 C18 1_555 1_555
H21 C18 1_555 1_555
C19 C18 1_555 1_555
H22 C19 1_555 1_555
H23 C19 1_555 1_555
C20 C19 1_555 1_555
H24 C20 1_555 1_555
H25 C20 1_555 1_555
C21 C20 1_555 1_555
H26 C21 1_555 1_555
H27 C21 1_555 1_555
C22 C21 1_555 1_555
H28 C22 1_555 1_555
H29 C22 1_555 1_555
H30 C22 1_555 1_555
N1 C1 1_555 1_555
N2 C12 1_555 1_555
S1 C1 1_555 1_555
Se1 C2 1_555 1_555
Se2 C13 1_555 1_555
C5 Se1 1_555 1_555
C12 S1 1_555 1_555
C16 Se2 1_555 1_555
N1 N2 1_555 1_555

#END
