
#######################################################################
#
#                 Cambridge Crystallographic Data Centre
#                                CCDC 
#
#######################################################################
#
# If this CIF has been generated from an entry in the Cambridge 
# Structural Database, then it will include bibliographic, chemical, 
# crystal, experimental, refinement or atomic coordinate data resulting 
# from the CCDC's data processing and validation procedures.
#
#######################################################################

data_SIKXEP
_chemical_compound_source        'Axinella sp'
_chemical_formula_moiety         'C11 H9 Br1 N4 O3,C1 H4 O1'
_chemical_name_systematic        'Axinohydantoin methanol solvate'
_symmetry_cell_setting           monoclinic
_symmetry_space_group_name_H-M   'C 2/c'
_symmetry_Int_Tables_number      15
_space_group_name_Hall           '-C 2yn'
loop_
_symmetry_equiv_pos_site_id
_symmetry_equiv_pos_as_xyz
1 x,y,z
2 1/2+x,1/2+y,z
3 -x,y,1/2-z
4 1/2-x,1/2+y,1/2-z
5 -x,-y,-z
6 1/2-x,1/2-y,-z
7 x,-y,1/2+z
8 1/2+x,1/2-y,1/2+z
_cell_length_a                   19.558(2)
_cell_length_b                   7.505(1)
_cell_length_c                   19.092(3)
_cell_angle_alpha                90
_cell_angle_beta                 103.78(1)
_cell_angle_gamma                90
_cell_volume                     2721.72
_exptl_crystal_colour            yellow
_chemical_melting_point          'above 350deg.C'
_cell_formula_units_Z            8
loop_
_atom_site_label
_atom_site_type_symbol
_atom_site_fract_x
_atom_site_fract_y
_atom_site_fract_z
Br1 Br 0.56111(6) 0.0097(2) 0.18172(7)
O1 O 0.7915(4) -0.210(1) 0.0865(4)
O2 O 0.7371(3) -0.194(1) 0.4049(4)
O3 O 0.9511(3) -0.093(1) 0.5586(3)
N1 N 0.6929(4) -0.069(1) 0.1562(4)
N2 N 0.8760(4) -0.055(1) 0.1624(5)
N3 N 0.8375(4) -0.161(1) 0.4951(4)
N4 N 0.9106(4) -0.056(1) 0.4357(4)
C1 C 0.6581(5) -0.024(2) 0.2056(5)
C2 C 0.7046(4) 0.000(2) 0.2706(5)
C3 C 0.7725(4) -0.036(1) 0.2599(5)
C4 C 0.7630(5) -0.073(1) 0.1875(5)
C5 C 0.8108(5) -0.120(2) 0.1407(6)
C6 C 0.8961(5) 0.083(2) 0.2145(5)
C7 C 0.9053(4) 0.024(2) 0.2915(5)
C8 C 0.8393(4) -0.031(1) 0.3144(5)
C9 C 0.8468(5) -0.069(1) 0.3839(5)
C10 C 0.7982(5) -0.147(1) 0.4248(5)
C11 C 0.9045(5) -0.104(2) 0.5026(5)
H1 H 0.675 -0.096 0.107
H2 H 0.694 0.034 0.314
H3 H 0.813 -0.208 0.528
H4 H 0.956 -0.007 0.438
H5 H 0.939 0.135 0.210
H6 H 0.926 0.117 0.322
H7 H 0.860 0.169 0.205
H8 H 0.936 -0.075 0.299
H9 H 0.912 -0.106 0.143
O4 O 0.6407(4) -0.152(2) 0.0121(5)
C12 C 0.5809(8) -0.093(2) -0.0359(8)
H10 H 0.587 0.029 -0.049
H11 H 0.576 -0.159 -0.082
H12 H 0.543 -0.108 -0.018
H13 H 0.678 -0.118 -0.010
loop_
_geom_bond_atom_site_label_1
_geom_bond_atom_site_label_2
_geom_bond_site_symmetry_1
_geom_bond_site_symmetry_2
Br1 C1 1_555 1_555
O1 C5 1_555 1_555
O2 C10 1_555 1_555
O3 C11 1_555 1_555
N1 C1 1_555 1_555
N2 C5 1_555 1_555
N3 C10 1_555 1_555
N4 C9 1_555 1_555
C1 C2 1_555 1_555
C2 C3 1_555 1_555
C3 C4 1_555 1_555
C4 N1 1_555 1_555
C5 C4 1_555 1_555
C6 N2 1_555 1_555
C7 C6 1_555 1_555
C8 C3 1_555 1_555
C9 C8 1_555 1_555
C10 C9 1_555 1_555
C11 N3 1_555 1_555
H1 N1 1_555 1_555
H2 C2 1_555 1_555
H3 N3 1_555 1_555
H4 N4 1_555 1_555
H5 C6 1_555 1_555
H6 C7 1_555 1_555
H7 C6 1_555 1_555
H8 C7 1_555 1_555
H9 N2 1_555 1_555
O4 C12 1_555 1_555
C12 H10 1_555 1_555
H11 C12 1_555 1_555
H12 C12 1_555 1_555
H13 O4 1_555 1_555
N4 C11 1_555 1_555
C7 C8 1_555 1_555

#END
