
#######################################################################
#
#                 Cambridge Crystallographic Data Centre
#                                CCDC 
#
#######################################################################
#
# If this CIF has been generated from an entry in the Cambridge 
# Structural Database, then it will include bibliographic, chemical, 
# crystal, experimental, refinement or atomic coordinate data resulting 
# from the CCDC's data processing and validation procedures.
#
#######################################################################

data_SILFAX
_chemical_formula_moiety         'C11 H11 F1 N2 O2,H2 O1'
_chemical_name_systematic        
'2-azaniumyl-3-(5-fluoro-1H-indol-3-yl)propanoate monohydrate'
_symmetry_cell_setting           monoclinic
_symmetry_space_group_name_H-M   'P 21'
_symmetry_Int_Tables_number      4
_space_group_name_Hall           'P 2yb'
loop_
_symmetry_equiv_pos_site_id
_symmetry_equiv_pos_as_xyz
1 x,y,z
2 -x,1/2+y,-z
_cell_length_a                   6.2680(2)
_cell_length_b                   5.4718(2)
_cell_length_c                   15.7972(6)
_cell_angle_alpha                90
_cell_angle_beta                 92.294(2)
_cell_angle_gamma                90
_cell_volume                     541.366
_exptl_crystal_colour            colorless
_exptl_crystal_description       plate
_cell_formula_units_Z            2
loop_
_atom_site_label
_atom_site_type_symbol
_atom_site_fract_x
_atom_site_fract_y
_atom_site_fract_z
F1 F 0.9448(2) 0.6199(3) 0.38353(9)
O1 O 0.4984(3) 0.7627(3) 0.14208(10)
O2 O 0.6092(2) 0.4456(3) 0.06632(10)
N1 N 0.2823(3) -0.0225(4) 0.36168(12)
N2 N 0.2548(3) 0.1795(4) 0.08796(12)
C1 C 0.4750(3) 0.5569(4) 0.10854(12)
C2 C 0.1583(3) 0.0838(4) 0.29858(13)
C3 C 0.2531(3) 0.4382(4) 0.11621(12)
C4 C 0.2531(3) 0.2926(4) 0.27032(12)
C5 C 0.1581(3) 0.4604(4) 0.20414(12)
C6 C 0.6150(3) 0.4930(4) 0.32200(12)
C7 C 0.4505(3) 0.3176(4) 0.31969(12)
C8 C 0.7810(3) 0.4533(4) 0.37982(12)
C9 C 0.7966(3) 0.2552(5) 0.43521(13)
C10 C 0.6347(4) 0.0822(4) 0.43426(13)
C11 C 0.4627(3) 0.1171(4) 0.37613(13)
H1 H 0.252(5) -0.179(7) 0.3864(19)
H2 H 0.012(4) 0.015(6) 0.2804(17)
H3 H 0.613(4) 0.625(6) 0.2865(17)
H4 H 0.918(5) 0.237(6) 0.4674(18)
H5 H 0.634(5) -0.059(6) 0.4706(18)
H6 H 0.334(4) 0.084(6) 0.1191(16)
H7 H 0.296(5) 0.161(6) 0.037(2)
H8 H 0.127(6) 0.128(7) 0.089(2)
H9 H 0.005(5) 0.430(7) 0.1992(18)
H10 H 0.184(4) 0.632(6) 0.2205(16)
H11 H 0.160(5) 0.534(7) 0.075(2)
O3 O 0.8384(2) 1.0218(4) 0.08746(12)
H12 H 0.753(7) 0.925(11) 0.115(3)
H13 H 0.768(6) 1.155(8) 0.078(2)
loop_
_geom_bond_atom_site_label_1
_geom_bond_atom_site_label_2
_geom_bond_site_symmetry_1
_geom_bond_site_symmetry_2
F1 C8 1_555 1_555
O1 C1 1_555 1_555
O2 C1 1_555 1_555
N1 C2 1_555 1_555
N2 C3 1_555 1_555
C1 C3 1_555 1_555
C2 C4 1_555 1_555
C3 C5 1_555 1_555
C4 C5 1_555 1_555
C5 H9 1_555 1_555
C6 C7 1_555 1_555
C7 C4 1_555 1_555
C8 C6 1_555 1_555
C9 C8 1_555 1_555
C10 C9 1_555 1_555
C11 N1 1_555 1_555
H1 N1 1_555 1_555
H2 C2 1_555 1_555
H3 C6 1_555 1_555
H4 C9 1_555 1_555
H5 C10 1_555 1_555
H6 N2 1_555 1_555
H7 N2 1_555 1_555
H8 N2 1_555 1_555
H10 C5 1_555 1_555
H11 C3 1_555 1_555
O3 H12 1_555 1_555
H13 O3 1_555 1_555
C7 C11 1_555 1_555
C10 C11 1_555 1_555

#END
