
#######################################################################
#
#                 Cambridge Crystallographic Data Centre
#                                CCDC 
#
#######################################################################
#
# If this CIF has been generated from an entry in the Cambridge 
# Structural Database, then it will include bibliographic, chemical, 
# crystal, experimental, refinement or atomic coordinate data resulting 
# from the CCDC's data processing and validation procedures.
#
#######################################################################

data_SILVAK
_chemical_formula_moiety         'C13 H10 N4 O5,C4 H8 O1'
_chemical_name_systematic        
'1,3-bis(m-Nitrophenyl)urea 2-butanone clathrate'
_symmetry_cell_setting           orthorhombic
_symmetry_space_group_name_H-M   'P n n a'
_symmetry_Int_Tables_number      52
_space_group_name_Hall           '-P 2a 2bc'
loop_
_symmetry_equiv_pos_site_id
_symmetry_equiv_pos_as_xyz
1 x,y,z
2 -x,1/2+y,1/2+z
3 1/2+x,1/2-y,1/2+z
4 1/2-x,-y,z
5 -x,-y,-z
6 x,1/2-y,1/2-z
7 1/2-x,1/2+y,1/2-z
8 1/2+x,y,-z
_cell_length_a                   16.20(2)
_cell_length_b                   13.44(1)
_cell_length_c                   14.41(9)
_cell_angle_alpha                90
_cell_angle_beta                 90
_cell_angle_gamma                90
_cell_volume                     3137.46
_exptl_crystal_colour            yellow
_chemical_melting_point          256-258deg.C
_cell_formula_units_Z            8
loop_
_atom_site_label
_atom_site_type_symbol
_atom_site_fract_x
_atom_site_fract_y
_atom_site_fract_z
C14 C 0.9796(6) 0.1031(6) 0.2536(9)
C15 C 0.9540(7) 0.172(2) 0.265(1)
O1 O 0.1717(2) 0.1171(3) 0.1896(2)
O2 O -0.0260(3) 0.1345(5) -0.1595(3)
O3 O -0.0285(2) 0.1172(4) -0.0124(3)
O4 O 0.0849(3) 0.1352(4) 0.4781(3)
O5 O 0.1482(3) 0.1157(4) 0.6059(3)
N1 N 0.2729(2) 0.1212(4) 0.0805(3)
N2 N 0.3069(2) 0.1253(4) 0.2335(3)
N3 N 0.0088(3) 0.1255(5) -0.0854(4)
N4 N 0.1479(3) 0.1258(4) 0.5222(3)
C1 C 0.2246(3) 0.1229(4) -0.0003(3)
C2 C 0.2661(3) 0.1296(5) -0.0843(3)
C3 C 0.2245(3) 0.1327(5) -0.1668(3)
C4 C 0.1391(3) 0.1310(5) -0.1681(4)
C5 C 0.0995(3) 0.1249(5) -0.0852(4)
C6 C 0.1398(3) 0.1195(4) 0.0001(3)
C7 C 0.2447(3) 0.1227(4) 0.1700(3)
C8 C 0.3005(3) 0.1251(4) 0.3305(3)
C9 C 0.2251(3) 0.1271(4) 0.3780(3)
C10 C 0.2271(3) 0.1266(4) 0.4736(3)
C11 C 0.2985(3) 0.1267(5) 0.5236(3)
C12 C 0.3717(3) 0.1260(5) 0.4768(4)
C13 C 0.3730(3) 0.1254(5) 0.3812(3)
H1 H 0.324(3) 0.127(3) 0.073(3)
H2 H 0.357(3) 0.107(4) 0.207(3)
H3 H 0.3248 0.1348 -0.0837
H4 H 0.2539 0.1342 -0.2229
H5 H 0.1090 0.1374 -0.2239
H6 H 0.1086 0.1142 0.0553
H7 H 0.1739 0.1308 0.3467
H8 H 0.2971 0.1222 0.5905
H9 H 0.4213 0.1253 0.5116
H10 H 0.4250 0.1263 0.3512
C16? C 1.0025(8) 0.225(2) 0.272(2)
C17? C 0.8790(5) 0.228(1) 0.2831(8)
loop_
_geom_bond_atom_site_label_1
_geom_bond_atom_site_label_2
_geom_bond_site_symmetry_1
_geom_bond_site_symmetry_2
O1 C7 1_555 1_555
O2 N3 1_555 1_555
O3 N3 1_555 1_555
O4 N4 1_555 1_555
O5 N4 1_555 1_555
N1 C1 1_555 1_555
N2 C7 1_555 1_555
N3 C5 1_555 1_555
N4 C10 1_555 1_555
C1 C2 1_555 1_555
C2 C3 1_555 1_555
C3 C4 1_555 1_555
C4 C5 1_555 1_555
C5 C6 1_555 1_555
C6 C1 1_555 1_555
C7 N1 1_555 1_555
C8 N2 1_555 1_555
C9 C8 1_555 1_555
C10 C9 1_555 1_555
C11 C10 1_555 1_555
C12 C11 1_555 1_555
C13 C8 1_555 1_555
H1 N1 1_555 1_555
H2 N2 1_555 1_555
H3 C2 1_555 1_555
H4 C3 1_555 1_555
H5 C4 1_555 1_555
H6 C6 1_555 1_555
H7 C9 1_555 1_555
H8 C11 1_555 1_555
H9 C12 1_555 1_555
H10 C13 1_555 1_555
C14 C15 1_555 1_555
C12 C13 1_555 1_555

#END
