
#######################################################################
#
#                 Cambridge Crystallographic Data Centre
#                                CCDC 
#
#######################################################################
#
# If this CIF has been generated from an entry in the Cambridge 
# Structural Database, then it will include bibliographic, chemical, 
# crystal, experimental, refinement or atomic coordinate data resulting 
# from the CCDC's data processing and validation procedures.
#
#######################################################################

data_SILVUG
_chemical_formula_moiety         'C34 H24 N2'
_chemical_name_systematic        
"N,N'-Acenaphthylene-1,2-diylidenebis(2-methylnaphthalen-1-amine) unknown solvate"
_symmetry_cell_setting           tetragonal
_symmetry_space_group_name_H-M   'I 41/a c d'
_symmetry_Int_Tables_number      142
_space_group_name_Hall           '-I 4bd 2c'
loop_
_symmetry_equiv_pos_site_id
_symmetry_equiv_pos_as_xyz
1 x,y,z
2 1/2-x,-y,1/2+z
3 1/4-y,3/4+x,1/4+z
4 1/4+y,1/4-x,3/4+z
5 1/2-x,y,-z
6 x,-y,1/2-z
7 1/4+y,3/4+x,3/4-z
8 1/4-y,1/4-x,1/4-z
9 1/2+x,1/2+y,1/2+z
10 -x,1/2-y,z
11 3/4-y,1/4+x,3/4+z
12 3/4+y,3/4-x,1/4+z
13 -x,1/2+y,1/2-z
14 1/2+x,1/2-y,-z
15 3/4+y,1/4+x,1/4-z
16 3/4-y,3/4-x,3/4-z
17 -x,-y,-z
18 1/2+x,y,1/2-z
19 3/4+y,1/4-x,3/4-z
20 3/4-y,3/4+x,1/4-z
21 1/2+x,-y,z
22 -x,y,1/2+z
23 3/4-y,1/4-x,1/4+z
24 3/4+y,3/4+x,3/4+z
25 1/2-x,1/2-y,1/2-z
26 x,1/2+y,-z
27 1/4+y,3/4-x,1/4-z
28 1/4-y,1/4+x,3/4-z
29 x,1/2-y,1/2+z
30 1/2-x,1/2+y,z
31 1/4-y,3/4-x,3/4+z
32 1/4+y,1/4+x,1/4+z
_cell_length_a                   21.644(9)
_cell_length_b                   21.644(9)
_cell_length_c                   24.538(12)
_cell_angle_alpha                90
_cell_angle_beta                 90
_cell_angle_gamma                90
_cell_volume                     11495.1
_exptl_crystal_colour            red
_exptl_crystal_description       block
_cell_formula_units_Z            16
loop_
_atom_site_label
_atom_site_type_symbol
_atom_site_fract_x
_atom_site_fract_y
_atom_site_fract_z
C1 C 0.8983(3) 0.9762(3) 0.0869(4)
C2 C 0.9088(4) 0.9739(4) 0.0302(4)
C3 C 0.9571(5) 0.9333(5) 0.0134(6)
H1 H 0.9655 0.9299 -0.0237
C4 C 0.9898(5) 0.9010(5) 0.0470(7)
H2 H 1.0205 0.8755 0.0330
C5 C 0.9810(4) 0.9027(4) 0.1038(6)
C6 C 1.0163(4) 0.8685(5) 0.1437(7)
H3 H 1.0481 0.8433 0.1314
C7 C 1.0058(6) 0.8710(6) 0.1968(7)
H4 H 1.0292 0.8481 0.2214
C8 C 0.9582(6) 0.9096(5) 0.2140(5)
H5 H 0.9498 0.9122 0.2511
C9 C 0.9249(4) 0.9423(4) 0.1805(5)
H6 H 0.8941 0.9677 0.1946
C10 C 0.9338(3) 0.9404(4) 0.1242(5)
C11 C 0.7982(3) 1.0029(3) 0.1132(3)
C12 C 0.7646(3) 0.9448(3) 0.1023(3)
C13 C 0.7771(4) 0.8894(4) 0.0811(3)
H7 H 0.8165 0.8813 0.0676
C14 C 0.7332(4) 0.8445(4) 0.0788(4)
H8 H 0.7428 0.8069 0.0624
C15 C 0.7039(3) 0.9539(3) 0.1250
C16 C 0.6594(3) 0.9094(3) 0.1250
C17 C 0.6030(4) 0.9250(5) 0.1499(4)
H9 H 0.5714 0.8960 0.1520
C18 C 0.8716(4) 1.0094(6) -0.0067(4)
H10 H 0.8313 0.9913 -0.0092
H11 H 0.8906 1.0096 -0.0420
H12 H 0.8682 1.0510 0.0065
N1 N 0.8546(3) 1.0175(3) 0.1079(3)
C1N C 0.7262(3) 1.1483(3) 0.1631(4)
C2N C 0.7239(4) 1.1588(4) 0.2198(4)
C3N C 0.6833(5) 1.2071(5) 0.2366(6)
H1N H 0.6799 1.2155 0.2737
C4N C 0.6510(5) 1.2398(5) 0.2030(7)
H2N H 0.6255 1.2705 0.2170
C5N C 0.6527(4) 1.2310(4) 0.1462(6)
C6N C 0.6185(5) 1.2663(4) 0.1063(7)
H3N H 0.5933 1.2981 0.1186
C7N C 0.6210(6) 1.2558(6) 0.0532(7)
H4N H 0.5981 1.2792 0.0286
C8N C 0.6596(5) 1.2082(6) 0.0360(5)
H5N H 0.6622 1.1998 -0.0011
C9N C 0.6923(4) 1.1749(4) 0.0695(5)
H6N H 0.7177 1.1441 0.0554
C10N C 0.6904(4) 1.1838(3) 0.1258(5)
C11N C 0.7529(3) 1.0482(3) 0.1368(3)
C12N C 0.6948(3) 1.0146(3) 0.1477(3)
C13N C 0.6394(4) 1.0271(4) 0.1689(3)
H7N H 0.6313 1.0665 0.1824
C14N C 0.5945(4) 0.9832(4) 0.1712(4)
H8N H 0.5569 0.9928 0.1876
C17N C 0.6750(5) 0.8530(4) 0.1001(4)
H9N H 0.6460 0.8214 0.0980
C18N C 0.7594(6) 1.1216(4) 0.2567(4)
H10N H 0.7413 1.0813 0.2592
H11N H 0.7596 1.1406 0.2920
H12N H 0.8010 1.1182 0.2435
N1N N 0.7675(3) 1.1046(3) 0.1421(3)
loop_
_geom_bond_atom_site_label_1
_geom_bond_atom_site_label_2
_geom_bond_site_symmetry_1
_geom_bond_site_symmetry_2
C1 C2 1_555 1_555
C2 C3 1_555 1_555
C3 H1 1_555 1_555
C4 C3 1_555 1_555
H2 C4 1_555 1_555
C5 C4 1_555 1_555
C6 C5 1_555 1_555
H3 C6 1_555 1_555
C7 C6 1_555 1_555
H4 C7 1_555 1_555
C8 C7 1_555 1_555
H5 C8 1_555 1_555
C9 C8 1_555 1_555
H6 C9 1_555 1_555
C10 C1 1_555 1_555
C11 C12 1_555 1_555
C12 C13 1_555 1_555
C13 H7 1_555 1_555
C14 C13 1_555 1_555
H8 C14 1_555 1_555
C15 C12 1_555 1_555
C16 C15 1_555 1_555
C17 C16 1_555 1_555
H9 C17 1_555 1_555
C18 C2 1_555 1_555
H10 C18 1_555 1_555
H11 C18 1_555 1_555
H12 C18 1_555 1_555
N1 C1 1_555 1_555
C1N C2N 1_555 1_555
C2N C3N 1_555 1_555
C3N H1N 1_555 1_555
C4N C3N 1_555 1_555
H2N C4N 1_555 1_555
C5N C4N 1_555 1_555
C6N C5N 1_555 1_555
H3N C6N 1_555 1_555
C7N C6N 1_555 1_555
H4N C7N 1_555 1_555
C8N C7N 1_555 1_555
H5N C8N 1_555 1_555
C9N C8N 1_555 1_555
H6N C9N 1_555 1_555
C10N C1N 1_555 1_555
C11N C11 1_555 1_555
C12N C15 1_555 1_555
C13N C12N 1_555 1_555
H7N C13N 1_555 1_555
C14N C17 1_555 1_555
H8N C14N 1_555 1_555
C17N C14 1_555 1_555
H9N C17N 1_555 1_555
C18N C2N 1_555 1_555
H10N C18N 1_555 1_555
H11N C18N 1_555 1_555
H12N C18N 1_555 1_555
N1N C1N 1_555 1_555
C5 C10 1_555 1_555
C9 C10 1_555 1_555
C11 N1 1_555 1_555
C16 C17N 1_555 1_555
C5N C10N 1_555 1_555
C9N C10N 1_555 1_555
C11N C12N 1_555 1_555
C11N N1N 1_555 1_555
C13N C14N 1_555 1_555

#END
