
#######################################################################
#
#                 Cambridge Crystallographic Data Centre
#                                CCDC 
#
#######################################################################
#
# If this CIF has been generated from an entry in the Cambridge 
# Structural Database, then it will include bibliographic, chemical, 
# crystal, experimental, refinement or atomic coordinate data resulting 
# from the CCDC's data processing and validation procedures.
#
#######################################################################

data_SIMCAT
_chemical_formula_moiety         'C14 H13 N3 O3 S1'
_chemical_name_systematic        
'(Benzoyl)(2-(cyanoimino)-1,3-thiazolidin-2-yl)methyl acetate'
_symmetry_cell_setting           monoclinic
_symmetry_space_group_name_H-M   'P 21/n'
_symmetry_Int_Tables_number      14
_space_group_name_Hall           '-P 2yn'
loop_
_symmetry_equiv_pos_site_id
_symmetry_equiv_pos_as_xyz
1 x,y,z
2 1/2-x,1/2+y,1/2-z
3 -x,-y,-z
4 1/2+x,1/2-y,1/2+z
_cell_length_a                   8.4679(19)
_cell_length_b                   8.713(2)
_cell_length_c                   20.147(5)
_cell_angle_alpha                90
_cell_angle_beta                 91.565(4)
_cell_angle_gamma                90
_cell_volume                     1485.91
_exptl_crystal_colour            colorless
_cell_formula_units_Z            4
_exptl_crystal_recrystallization_method 'ethyl acetate'
loop_
_atom_site_label
_atom_site_type_symbol
_atom_site_fract_x
_atom_site_fract_y
_atom_site_fract_z
S1 S 0.48762(9) 0.77682(9) 0.05323(4)
O1 O 0.0277(2) 1.0382(2) 0.23069(9)
O2 O 0.0994(4) 1.2840(3) 0.05419(12)
N1 N 0.2699(2) 0.9246(2) 0.11271(9)
N2 N 0.2269(3) 0.9170(3) -0.00064(10)
N3 N 0.3142(4) 0.8453(4) -0.11270(13)
C1 C -0.0593(3) 0.7490(3) 0.10658(12)
H1 H -0.0287 0.8022 0.0690
C2 C -0.1267(3) 0.6056(3) 0.10017(14)
H2 H -0.1413 0.5623 0.0583
C3 C -0.1727(3) 0.5259(3) 0.15584(15)
H3 H -0.2163 0.4283 0.1515
C4 C -0.1537(3) 0.5914(3) 0.21766(14)
H4 H -0.1869 0.5388 0.2550
C5 C -0.0863(3) 0.7335(3) 0.22468(12)
H5 H -0.0732 0.7765 0.2667
C6 C -0.0370(3) 0.8143(3) 0.16918(11)
C7 C 0.0381(3) 0.9666(3) 0.17954(11)
C8 C 0.1404(3) 1.0279(3) 0.12343(12)
H6 H 0.0763 1.0392 0.0825
O3 O 0.2034(2) 1.1730(2) 0.14353(9)
C9 C 0.1813(3) 1.2918(3) 0.10238(14)
C10 C 0.2675(4) 1.4304(3) 0.12631(18)
H7 H 0.2424 1.5155 0.0976
H8 H 0.3791 1.4114 0.1262
H9 H 0.2367 1.4541 0.1707
C11 C 0.3752(3) 0.8805(4) 0.16776(13)
H10 H 0.3194 0.8153 0.1983
H11 H 0.4108 0.9713 0.1917
C12 C 0.5133(3) 0.7969(4) 0.14161(14)
H12 H 0.5217 0.6964 0.1621
H13 H 0.6096 0.8532 0.1520
C13 C 0.3130(3) 0.8817(3) 0.05162(12)
C14 C 0.2788(4) 0.8745(3) -0.05949(15)
loop_
_geom_bond_atom_site_label_1
_geom_bond_atom_site_label_2
_geom_bond_site_symmetry_1
_geom_bond_site_symmetry_2
S1 C12 1_555 1_555
O1 C7 1_555 1_555
O2 C9 1_555 1_555
N1 C8 1_555 1_555
N2 C13 1_555 1_555
N3 C14 1_555 1_555
C1 H1 1_555 1_555
C2 C1 1_555 1_555
H2 C2 1_555 1_555
C3 C2 1_555 1_555
H3 C3 1_555 1_555
C4 C3 1_555 1_555
H4 C4 1_555 1_555
C5 C4 1_555 1_555
H5 C5 1_555 1_555
C6 C1 1_555 1_555
C7 C6 1_555 1_555
C8 C7 1_555 1_555
H6 C8 1_555 1_555
O3 C8 1_555 1_555
C9 O3 1_555 1_555
C10 C9 1_555 1_555
H7 C10 1_555 1_555
H8 C10 1_555 1_555
H9 C10 1_555 1_555
C11 N1 1_555 1_555
H10 C11 1_555 1_555
H11 C11 1_555 1_555
C12 C11 1_555 1_555
H12 C12 1_555 1_555
H13 C12 1_555 1_555
C13 S1 1_555 1_555
C14 N2 1_555 1_555
N1 C13 1_555 1_555
C5 C6 1_555 1_555

#END
