
#######################################################################
#
#                 Cambridge Crystallographic Data Centre
#                                CCDC 
#
#######################################################################
#
# If this CIF has been generated from an entry in the Cambridge 
# Structural Database, then it will include bibliographic, chemical, 
# crystal, experimental, refinement or atomic coordinate data resulting 
# from the CCDC's data processing and validation procedures.
#
#######################################################################

data_SIMGON
_chemical_formula_moiety         'C15 H18 Br2 O1'
_chemical_name_systematic        
4,4-dibromo-5-(4-methylphenyl)octahydrocyclopenta[b]pyran
_symmetry_cell_setting           monoclinic
_symmetry_space_group_name_H-M   'P 21/c'
_symmetry_Int_Tables_number      14
_space_group_name_Hall           '-P 2ybc'
loop_
_symmetry_equiv_pos_site_id
_symmetry_equiv_pos_as_xyz
1 x,y,z
2 -x,1/2+y,1/2-z
3 -x,-y,-z
4 x,1/2-y,1/2+z
_cell_length_a                   8.150(5)
_cell_length_b                   26.779(5)
_cell_length_c                   7.481(5)
_cell_angle_alpha                90
_cell_angle_beta                 116.990(5)
_cell_angle_gamma                90
_cell_volume                     1454.89
_exptl_crystal_colour            colorless
_exptl_crystal_description       block
_cell_formula_units_Z            4
loop_
_atom_site_label
_atom_site_type_symbol
_atom_site_fract_x
_atom_site_fract_y
_atom_site_fract_z
Br1 Br 0.04874(8) 0.19813(3) 0.27466(11)
Br2 Br 0.19101(10) 0.09374(3) 0.23164(12)
O1 O 0.4383(6) 0.18668(15) 0.8182(5)
C1 C 0.5987(7) 0.13730(18) 0.5848(7)
H1 H 0.5898 0.1169 0.6888
C2 C 0.6406(7) 0.10313(18) 0.4506(7)
C3 C 0.4257(6) 0.17110(16) 0.4895(6)
H2 H 0.4261 0.1886 0.3746
C4 C 0.6852(8) 0.0869(2) 0.1585(8)
H3 H 0.6814 0.0986 0.0396
C5 C 0.4614(7) 0.20942(18) 0.6565(7)
H4 H 0.3847 0.2393 0.6049
C6 C 0.6407(7) 0.1187(2) 0.2745(8)
H5 H 0.6099 0.1516 0.2332
C7 C 0.2382(6) 0.14702(17) 0.4227(7)
C8 C 0.7351(8) 0.0383(2) 0.2150(9)
C9 C 0.6919(9) 0.0544(2) 0.5078(9)
H6 H 0.6933 0.0425 0.6254
C10 C 0.2051(8) 0.1292(2) 0.5946(9)
H7 H 0.0761 0.1207 0.5450
H8 H 0.2771 0.0993 0.6519
C11 C 0.7412(10) 0.0227(2) 0.3952(10)
H9 H 0.7792 -0.0096 0.4404
C12 C 0.6649(8) 0.2212(2) 0.7370(9)
H10 H 0.6817 0.2510 0.6733
H11 H 0.7206 0.2268 0.8807
C13 C 0.7845(11) 0.0032(3) 0.0890(12)
H12 H 0.8154 -0.0290 0.1526
H13 H 0.6815 -0.0001 -0.0415
H14 H 0.8882 0.0163 0.0757
C14 C 0.7519(7) 0.1766(2) 0.6895(9)
H15 H 0.8490 0.1629 0.8118
H16 H 0.8048 0.1864 0.6018
C15 C 0.2566(9) 0.1686(2) 0.7549(10)
H17 H 0.1706 0.1962 0.7038
H18 H 0.2468 0.1546 0.8693
loop_
_geom_bond_atom_site_label_1
_geom_bond_atom_site_label_2
_geom_bond_site_symmetry_1
_geom_bond_site_symmetry_2
Br1 C7 1_555 1_555
Br2 C7 1_555 1_555
O1 C5 1_555 1_555
C1 H1 1_555 1_555
C2 C1 1_555 1_555
C3 C1 1_555 1_555
H2 C3 1_555 1_555
C4 H3 1_555 1_555
C5 C3 1_555 1_555
H4 C5 1_555 1_555
C6 C2 1_555 1_555
H5 C6 1_555 1_555
C7 C3 1_555 1_555
C8 C4 1_555 1_555
C9 C2 1_555 1_555
H6 C9 1_555 1_555
C10 C7 1_555 1_555
H7 C10 1_555 1_555
H8 C10 1_555 1_555
C11 C8 1_555 1_555
H9 C11 1_555 1_555
C12 C5 1_555 1_555
H10 C12 1_555 1_555
H11 C12 1_555 1_555
C13 C8 1_555 1_555
H12 C13 1_555 1_555
H13 C13 1_555 1_555
H14 C13 1_555 1_555
C14 C1 1_555 1_555
H15 C14 1_555 1_555
H16 C14 1_555 1_555
C15 O1 1_555 1_555
H17 C15 1_555 1_555
H18 C15 1_555 1_555
C4 C6 1_555 1_555
C9 C11 1_555 1_555
C10 C15 1_555 1_555
C12 C14 1_555 1_555

#END
