
#######################################################################
#
#                 Cambridge Crystallographic Data Centre
#                                CCDC 
#
#######################################################################
#
# If this CIF has been generated from an entry in the Cambridge 
# Structural Database, then it will include bibliographic, chemical, 
# crystal, experimental, refinement or atomic coordinate data resulting 
# from the CCDC's data processing and validation procedures.
#
#######################################################################

data_SIMHIH
_chemical_formula_moiety         'C36 H29 N1 O1 P1 1+,B1 F4 1-,0.5(C1 H2 Cl2)'
_chemical_name_systematic        
'(3-(3-Oxo-1-phenylbut-1-en-2-yl)indolizin-2-yl)(triphenyl)phosphonium tetrafluoroborate dichloromethane solvate'
_symmetry_cell_setting           monoclinic
_symmetry_space_group_name_H-M   'P 21/c'
_symmetry_Int_Tables_number      14
_space_group_name_Hall           '-P 2ybc'
loop_
_symmetry_equiv_pos_site_id
_symmetry_equiv_pos_as_xyz
1 x,y,z
2 -x,1/2+y,1/2-z
3 -x,-y,-z
4 x,1/2-y,1/2+z
_cell_length_a                   22.8041(13)
_cell_length_b                   14.1895(6)
_cell_length_c                   19.9794(9)
_cell_angle_alpha                90
_cell_angle_beta                 93.628(5)
_cell_angle_gamma                90
_cell_volume                     6451.95
_exptl_crystal_colour            yellow
_exptl_crystal_description       block
_cell_formula_units_Z            8
loop_
_atom_site_label
_atom_site_type_symbol
_atom_site_fract_x
_atom_site_fract_y
_atom_site_fract_z
P1 P 0.12432(5) 0.35529(8) 0.30618(6)
N1 N -0.04352(17) 0.3329(3) 0.24816(18)
O1 O 0.01343(19) 0.5439(2) 0.20809(17)
C1 C 0.1567(2) 0.3863(3) 0.2292(2)
C2 C 0.0471(2) 0.3440(3) 0.2924(2)
C3 C 0.0125(2) 0.3548(3) 0.2330(2)
C4 C 0.1548(2) 0.2439(3) 0.3337(2)
C5 C 0.1712(2) 0.3135(3) 0.1868(2)
H1 H 0.1681 0.2513 0.2006
C6 C 0.0107(2) 0.3173(3) 0.3437(2)
H2 H 0.0228 0.3063 0.3884
C7 C 0.1635(2) 0.4799(3) 0.2093(2)
H3 H 0.1556 0.5289 0.2383
C8 C 0.1370(2) 0.4433(3) 0.3699(2)
C9 C 0.1073(2) 0.5291(3) 0.3618(3)
H4 H 0.0823 0.5391 0.3239
C10 C 0.0320(2) 0.3379(4) 0.1129(3)
H5 H 0.0362 0.3709 0.0732
C11 C 0.1733(2) 0.4280(3) 0.4273(2)
H6 H 0.1931 0.3711 0.4334
C12 C 0.1192(3) 0.1649(3) 0.3375(3)
H7 H 0.0791 0.1688 0.3263
C13 C 0.0364(2) 0.2345(3) 0.1061(2)
C14 C 0.0200(2) 0.4975(3) 0.1580(2)
C15 C 0.0337(2) 0.1688(3) 0.1582(2)
H8 H 0.0270 0.1892 0.2013
C16 C 0.1512(3) 0.5827(4) 0.4664(3)
H9 H 0.1563 0.6295 0.4988
C17 C 0.0232(2) 0.3917(4) 0.1650(2)
C18 C -0.1010(2) 0.2851(4) 0.3407(3)
H10 H -0.1034 0.2692 0.3856
C19 C -0.0455(2) 0.3104(3) 0.3163(2)
C20 C 0.0514(3) 0.1052(4) 0.0301(3)
H11 H 0.0570 0.0840 -0.0131
C21 C 0.0495(2) 0.0420(4) 0.0816(2)
H12 H 0.0539 -0.0221 0.0735
C22 C 0.2148(2) 0.2366(4) 0.3493(2)
H13 H 0.2386 0.2892 0.3454
C23 C 0.0410(2) 0.0735(4) 0.1458(3)
H14 H 0.0402 0.0305 0.1809
C24 C -0.0941(2) 0.3321(4) 0.2058(3)
H15 H -0.0924 0.3476 0.1607
C25 C 0.1903(2) 0.3335(4) 0.1236(3)
H16 H 0.1999 0.2849 0.0950
C26 C 0.0450(3) 0.2002(4) 0.0422(3)
H17 H 0.0465 0.2424 0.0068
C27 C 0.1950(2) 0.4261(4) 0.1038(3)
H18 H 0.2070 0.4399 0.0613
C28 C 0.1797(2) 0.4981(4) 0.4755(3)
H19 H 0.2036 0.4877 0.5143
C29 C 0.1148(3) 0.5990(4) 0.4094(3)
H20 H 0.0957 0.6565 0.4033
C30 C 0.1820(2) 0.4988(4) 0.1466(3)
H21 H 0.1858 0.5610 0.1328
C31 C 0.2043(3) 0.0734(4) 0.3751(3)
H22 H 0.2208 0.0163 0.3894
C32 C 0.2394(3) 0.1525(4) 0.3704(3)
H23 H 0.2796 0.1487 0.3814
C33 C 0.1448(3) 0.0795(4) 0.3587(3)
H24 H 0.1214 0.0262 0.3616
C34 C 0.0225(3) 0.5449(4) 0.0915(3)
H25 H 0.0199 0.6119 0.0973
H26 H -0.0096 0.5236 0.0621
H27 H 0.0590 0.5297 0.0725
C35 C -0.1492(3) 0.2842(5) 0.2995(3)
H28 H -0.1851 0.2675 0.3157
C36 C -0.1458(3) 0.3088(5) 0.2306(3)
H29 H -0.1798 0.3088 0.2024
P2 P 0.39762(6) 0.64780(9) 0.16633(6)
N2 N 0.54642(17) 0.6961(3) 0.27273(18)
C37 C 0.3982(2) 0.8339(4) 0.1208(3)
H30 H 0.4314 0.8424 0.1497
C38 C 0.4686(2) 0.6757(3) 0.2017(2)
C39 C 0.4013(2) 0.5449(3) 0.1137(2)
C40 C 0.3480(2) 0.6231(3) 0.2303(2)
O2 O 0.4956(2) 0.4818(3) 0.3063(2)
C41 C 0.4394(2) 0.8541(4) 0.3195(2)
H31 H 0.4649 0.8342 0.2878
C42 C 0.4889(2) 0.6665(3) 0.2692(2)
C43 C 0.3701(2) 0.7464(3) 0.1174(2)
C44 C 0.5151(2) 0.7111(3) 0.1655(2)
H32 H 0.5135 0.7235 0.1197
C45 C 0.3424(2) 0.5315(4) 0.2550(2)
H33 H 0.3620 0.4819 0.2358
C46 C 0.4625(2) 0.6326(4) 0.3302(2)
C47 C 0.5631(2) 0.7241(3) 0.2098(2)
C48 C 0.3497(2) 0.4966(4) 0.0930(2)
H34 H 0.3135 0.5167 0.1065
C49 C 0.5855(2) 0.7009(4) 0.3292(2)
H35 H 0.5739 0.6809 0.3706
C50 C 0.3536(3) 0.4183(4) 0.0522(3)
H36 H 0.3196 0.3861 0.0378
C51 C 0.3080(3) 0.5150(4) 0.3073(3)
H37 H 0.3045 0.4540 0.3236
C52 C 0.6580(2) 0.7636(4) 0.2604(3)
H38 H 0.6960 0.7862 0.2571
C53 C 0.6397(2) 0.7345(4) 0.3234(3)
H39 H 0.6656 0.7387 0.3611
C54 C 0.4550(2) 0.5141(3) 0.0937(2)
H40 H 0.4891 0.5466 0.1074
C55 C 0.6211(2) 0.7591(4) 0.2046(3)
H41 H 0.6335 0.7787 0.1634
C56 C 0.4582(3) 0.4349(4) 0.0531(3)
H42 H 0.4944 0.4140 0.0399
C57 C 0.4196(2) 0.7899(4) 0.3671(3)
C58 C 0.4340(2) 0.6893(4) 0.3712(2)
H43 H 0.4212 0.6593 0.4090
C59 C 0.3195(2) 0.7355(4) 0.0756(2)
H44 H 0.2999 0.6780 0.0739
C60 C 0.4210(3) 0.9464(4) 0.3203(3)
H45 H 0.4341 0.9883 0.2888
C61 C 0.4715(2) 0.5303(4) 0.3455(3)
C62 C 0.3179(2) 0.6964(4) 0.2582(2)
H46 H 0.3205 0.7571 0.2412
C63 C 0.2786(2) 0.5876(5) 0.3361(3)
H47 H 0.2554 0.5754 0.3717
C64 C 0.4072(3) 0.3876(4) 0.0327(3)
H48 H 0.4091 0.3346 0.0055
C65 C 0.2834(2) 0.6783(5) 0.3122(3)
H49 H 0.2637 0.7274 0.3320
C66 C 0.4504(3) 0.4884(4) 0.4088(3)
H50 H 0.4597 0.4224 0.4105
H51 H 0.4086 0.4963 0.4093
H52 H 0.4693 0.5195 0.4470
C67 C 0.2983(3) 0.8101(4) 0.0366(3)
H53 H 0.2644 0.8025 0.0088
C68 C 0.3766(3) 0.9077(4) 0.0815(3)
H54 H 0.3954 0.9659 0.0838
C69 C 0.3644(3) 0.9163(5) 0.4143(4)
H55 H 0.3394 0.9371 0.4462
C70 C 0.3268(3) 0.8949(4) 0.0385(3)
H56 H 0.3129 0.9441 0.0111
C71 C 0.3825(3) 0.8239(5) 0.4142(3)
H57 H 0.3696 0.7830 0.4466
C72 C 0.3833(3) 0.9779(4) 0.3669(3)
H58 H 0.3709 1.0403 0.3664
F1 F 0.2217(2) 0.9156(3) 0.4983(2)
F2 F 0.1669(2) 0.8029(3) 0.53623(17)
F3 F 0.1871(2) 0.8062(3) 0.42761(17)
F4 F 0.1262(2) 0.9146(4) 0.4661(2)
B1 B 0.1701(4) 0.8565(5) 0.4805(3)
F5 F 0.31049(16) 0.4122(2) 0.44370(16)
F6 F 0.37839(19) 0.3684(3) 0.52530(18)
F7 F 0.3438(3) 0.2673(3) 0.4488(2)
B2 B 0.3299(3) 0.3416(5) 0.4874(3)
F8 F 0.2865(2) 0.3133(4) 0.5256(2)
Cl1 Cl 0.18808(13) 1.05412(19) 0.16539(14)
Cl2 Cl 0.28563(15) 0.9611(2) 0.23212(14)
C73 C 0.2563(5) 1.0458(10) 0.1682(6)
H59 H 0.2734 1.1074 0.1779
H60 H 0.2683 1.0263 0.1246
loop_
_geom_bond_atom_site_label_1
_geom_bond_atom_site_label_2
_geom_bond_site_symmetry_1
_geom_bond_site_symmetry_2
P1 C1 1_555 1_555
N1 C3 1_555 1_555
O1 C14 1_555 1_555
C1 C5 1_555 1_555
C2 P1 1_555 1_555
C3 C2 1_555 1_555
C4 P1 1_555 1_555
C5 H1 1_555 1_555
C6 C2 1_555 1_555
H2 C6 1_555 1_555
C7 C1 1_555 1_555
H3 C7 1_555 1_555
C8 P1 1_555 1_555
C9 C8 1_555 1_555
H4 C9 1_555 1_555
C10 H5 1_555 1_555
C11 C8 1_555 1_555
H6 C11 1_555 1_555
C12 C4 1_555 1_555
H7 C12 1_555 1_555
C13 C10 1_555 1_555
C14 C17 1_555 1_555
C15 C13 1_555 1_555
H8 C15 1_555 1_555
C16 H9 1_555 1_555
C17 C3 1_555 1_555
C18 H10 1_555 1_555
C19 N1 1_555 1_555
C20 H11 1_555 1_555
C21 C20 1_555 1_555
H12 C21 1_555 1_555
C22 C4 1_555 1_555
H13 C22 1_555 1_555
C23 C15 1_555 1_555
H14 C23 1_555 1_555
C24 N1 1_555 1_555
H15 C24 1_555 1_555
C25 C5 1_555 1_555
H16 C25 1_555 1_555
C26 C13 1_555 1_555
H17 C26 1_555 1_555
C27 C25 1_555 1_555
H18 C27 1_555 1_555
C28 C11 1_555 1_555
H19 C28 1_555 1_555
C29 C9 1_555 1_555
H20 C29 1_555 1_555
C30 C7 1_555 1_555
H21 C30 1_555 1_555
C31 H22 1_555 1_555
C32 C22 1_555 1_555
H23 C32 1_555 1_555
C33 C12 1_555 1_555
H24 C33 1_555 1_555
C34 C14 1_555 1_555
H25 C34 1_555 1_555
H26 C34 1_555 1_555
H27 C34 1_555 1_555
C35 C18 1_555 1_555
H28 C35 1_555 1_555
C36 C24 1_555 1_555
H29 C36 1_555 1_555
P2 C38 1_555 1_555
N2 C42 1_555 1_555
C37 H30 1_555 1_555
C38 C42 1_555 1_555
C39 P2 1_555 1_555
C40 P2 1_555 1_555
O2 C61 1_555 1_555
C41 H31 1_555 1_555
C42 C46 1_555 1_555
C43 P2 1_555 1_555
C44 C38 1_555 1_555
H32 C44 1_555 1_555
C45 C40 1_555 1_555
H33 C45 1_555 1_555
C46 C58 1_555 1_555
C47 N2 1_555 1_555
C48 C39 1_555 1_555
H34 C48 1_555 1_555
C49 N2 1_555 1_555
H35 C49 1_555 1_555
C50 C48 1_555 1_555
H36 C50 1_555 1_555
C51 C45 1_555 1_555
H37 C51 1_555 1_555
C52 H38 1_555 1_555
C53 C49 1_555 1_555
H39 C53 1_555 1_555
C54 C39 1_555 1_555
H40 C54 1_555 1_555
C55 C47 1_555 1_555
H41 C55 1_555 1_555
C56 C54 1_555 1_555
H42 C56 1_555 1_555
C57 C41 1_555 1_555
C58 C57 1_555 1_555
H43 C58 1_555 1_555
C59 C43 1_555 1_555
H44 C59 1_555 1_555
C60 C41 1_555 1_555
H45 C60 1_555 1_555
C61 C46 1_555 1_555
C62 C40 1_555 1_555
H46 C62 1_555 1_555
C63 C51 1_555 1_555
H47 C63 1_555 1_555
C64 C50 1_555 1_555
H48 C64 1_555 1_555
C65 C62 1_555 1_555
H49 C65 1_555 1_555
C66 C61 1_555 1_555
H50 C66 1_555 1_555
H51 C66 1_555 1_555
H52 C66 1_555 1_555
C67 C59 1_555 1_555
H53 C67 1_555 1_555
C68 C37 1_555 1_555
H54 C68 1_555 1_555
C69 H55 1_555 1_555
C70 C67 1_555 1_555
H56 C70 1_555 1_555
C71 C57 1_555 1_555
H57 C71 1_555 1_555
C72 C60 1_555 1_555
H58 C72 1_555 1_555
F1 B1 1_555 1_555
F2 B1 1_555 1_555
F3 B1 1_555 1_555
F4 B1 1_555 1_555
F5 B2 1_555 1_555
F6 B2 1_555 1_555
F7 B2 1_555 1_555
B2 F8 1_555 1_555
Cl1 C73 1_555 1_555
Cl2 C73 1_555 1_555
C73 H59 1_555 1_555
H60 C73 1_555 1_555
C6 C19 1_555 1_555
C10 C17 1_555 1_555
C16 C28 1_555 1_555
C16 C29 1_555 1_555
C18 C19 1_555 1_555
C20 C26 1_555 1_555
C21 C23 1_555 1_555
C27 C30 1_555 1_555
C31 C32 1_555 1_555
C31 C33 1_555 1_555
C35 C36 1_555 1_555
C37 C43 1_555 1_555
C44 C47 1_555 1_555
C52 C53 1_555 1_555
C52 C55 1_555 1_555
C56 C64 1_555 1_555
C63 C65 1_555 1_555
C68 C70 1_555 1_555
C69 C71 1_555 1_555
C69 C72 1_555 1_555

#END
