
#######################################################################
#
#                 Cambridge Crystallographic Data Centre
#                                CCDC 
#
#######################################################################
#
# If this CIF has been generated from an entry in the Cambridge 
# Structural Database, then it will include bibliographic, chemical, 
# crystal, experimental, refinement or atomic coordinate data resulting 
# from the CCDC's data processing and validation procedures.
#
#######################################################################

data_SIMLEF10
_chemical_formula_moiety         'C46 H60 N4 O10,C1 H4 O1,H2 O1'
_chemical_name_systematic        
'Methyl-4-(acetyloxy)-3a-ethyl-octahydro-9-(octahydro-3-(2-hydroxy-2-hydroxymethylbutyl)-1-(methoxycarbonyl)indolizino(1,2-b)indol-7a-yl)-5-hydroxy-8-methoxy-6-methyl-1H-indolizino(8,1-c,d)carbazole-5-carboxylate monohydrate methanol solvate'
_symmetry_cell_setting           monoclinic
_symmetry_space_group_name_H-M   'P 21'
_symmetry_Int_Tables_number      4
_space_group_name_Hall           'P 2yb'
loop_
_symmetry_equiv_pos_site_id
_symmetry_equiv_pos_as_xyz
1 x,y,z
2 -x,1/2+y,-z
_cell_length_a                   8.2878(8)
_cell_length_b                   31.018(4)
_cell_length_c                   9.2267(7)
_cell_angle_alpha                90
_cell_angle_beta                 105.211(7)
_cell_angle_gamma                90
_cell_volume                     2288.82
_exptl_crystal_colour            colorless
_cell_formula_units_Z            2
loop_
_atom_site_label
_atom_site_type_symbol
_atom_site_fract_x
_atom_site_fract_y
_atom_site_fract_z
N1 N 0.0931(4) -0.07455(10) 0.4832(3)
C1 C 0.1031(5) -0.09005(12) 0.6368(4)
C2 C 0.2386(5) -0.12571(12) 0.6887(4)
O1 O 0.2070(3) -0.14802(9) 0.8138(3)
C3 C 0.4095(5) -0.10476(13) 0.7270(5)
O2 O 0.5327(3) -0.13915(9) 0.7470(3)
C4 C 0.4468(5) -0.07522(13) 0.8673(4)
C5 C 0.5302(5) -0.09905(13) 1.0106(5)
C6 C 0.4707(6) -0.10103(14) 1.1301(5)
C7 C 0.3026(6) -0.0842(2) 1.1321(5)
N2 N 0.2020(4) -0.08005(10) 0.9770(3)
C8 C 0.0313(6) -0.06251(15) 0.9581(5)
C9 C -0.0076(6) -0.03836(14) 0.8077(5)
C10 C 0.1395(5) -0.04874(13) 0.7402(4)
C11 C 0.1641(5) -0.01459(12) 0.6323(4)
C12 C 0.2028(5) 0.02862(13) 0.6599(5)
C13 C 0.2070(5) 0.05737(12) 0.5453(4)
C14 C 0.1595(5) 0.04058(13) 0.3969(4)
C15 C 0.1179(5) -0.00263(13) 0.3673(5)
C16 C 0.1233(5) -0.03047(12) 0.4872(4)
C17 C 0.2828(5) -0.05428(14) 0.8823(4)
C18 C 0.5692(6) -0.04006(15) 0.8426(5)
C19 C 0.6429(7) -0.0109(2) 0.9774(6)
C20 C 0.6433(5) -0.1387(2) 0.6616(5)
O3 O 0.6641(4) -0.10842(12) 0.5880(4)
C21 C 0.2190(5) -0.16108(13) 0.5692(5)
O4 O 0.1373(4) -0.19317(10) 0.5677(3)
C22 C 0.2971(8) -0.1858(2) 0.3549(6)
O5 O 0.3036(4) -0.15260(6) 0.4683(3)
C23 C 0.0836(9) 0.0560(2) 0.1328(5)
O6 O 0.1522(4) 0.07005(9) 0.2833(3)
C24 C 0.7325(7) -0.1808(2) 0.6729(8)
C25 C -0.0392(5) -0.09268(13) 0.3598(5)
C26 C -0.0795(5) 0.12126(14) 0.4539(5)
C27 C -0.2005(6) 0.16018(14) 0.4219(5)
C28 C -0.1367(6) 0.19931(14) 0.3504(5)
C29 C 0.0454(6) 0.20888(14) 0.4352(6)
N3 N 0.1424(5) 0.16949(11) 0.4495(4)
C30 C 0.3234(6) 0.17298(15) 0.4931(6)
C31 C 0.3748(6) 0.12581(15) 0.5035(5)
C32 C 0.2505(5) 0.10483(13) 0.5831(4)
C33 C 0.3205(5) 0.11184(13) 0.7516(5)
C34 C 0.4654(6) 0.09525(14) 0.8459(5)
C35 C 0.5014(7) 0.10478(15) 0.9986(6)
C36 C 0.3970(6) 0.1316(2) 1.0517(5)
C37 C 0.2538(6) 0.1494(2) 0.9582(5)
C38 C 0.2185(5) 0.13911(14) 0.8058(5)
N4 N 0.0832(5) 0.15448(13) 0.6920(4)
C39 C 0.0943(5) 0.13719(13) 0.5447(4)
C40 C -0.1561(7) 0.19323(15) 0.1818(5)
C41 C -0.1933(5) 0.23401(13) 0.0870(5)
O7 O -0.0697(4) 0.26723(9) 0.1467(3)
C42 C -0.3664(6) 0.25176(15) 0.0829(5)
O8 O -0.4058(4) 0.29047(10) -0.0009(4)
C43 C -0.1752(7) 0.2264(2) -0.0721(5)
C44 C -0.2812(9) 0.1902(2) -0.1589(7)
C45 C -0.1589(5) 0.08607(14) 0.5232(6)
O9 O -0.1620(4) 0.08385(12) 0.6525(4)
C46 C -0.3314(8) 0.0241(2) 0.4685(9)
O10 O -0.2396(4) 0.05818(11) 0.4179(4)
H1 H 0.0855 0.0793 0.0648
H2 H -0.0297 0.0467 0.1209
H3 H 0.1486 0.0324 0.1115
H4 H 0.7246 -0.1960 0.7614
H5 H 0.6837 -0.1978 0.5853
H6 H 0.8478 -0.1759 0.6763
H7 H -0.2575 0.0025 0.5243
H8 H -0.3957 0.0369 0.5298
H9 H -0.4082 0.0113 0.3829
H13 H -0.005(5) -0.1021(12) 0.645(4)
H14 H 0.191(6) -0.126(2) 0.879(5)
H15 H 0.422(4) -0.0867(11) 0.646(4)
H16 H 0.645(6) -0.1131(14) 1.024(5)
H17 H 0.536(5) -0.1134(13) 1.216(5)
H18 H 0.311(5) -0.0563(14) 1.185(4)
H19 H 0.233(5) -0.1020(14) 1.185(5)
H20 H -0.046(5) -0.0855(14) 0.964(4)
H21 H 0.032(4) -0.0429(12) 1.040(4)
H22 H -0.115(5) -0.0453(13) 0.731(5)
H23 H -0.020(5) -0.0067(14) 0.815(4)
H24 H 0.229(5) 0.0389(14) 0.760(5)
H25 H 0.087(5) -0.0137(13) 0.275(5)
H26 H 0.302(4) -0.0238(12) 0.926(4)
H27 H 0.515(5) -0.0230(13) 0.755(4)
H28 H 0.662(5) -0.0560(14) 0.813(4)
H29 H 0.549(6) 0.0057(14) 1.013(5)
H30 H 0.707(6) 0.010(2) 0.949(5)
H31 H 0.724(6) -0.0305(15) 1.067(5)
H32 H 0.323(5) -0.2125(14) 0.407(5)
H33 H 0.172(8) -0.183(2) 0.284(6)
H34 H 0.385(8) -0.178(2) 0.302(6)
H35 H -0.024(6) -0.086(2) 0.262(6)
H36 H -0.148(5) -0.0867(14) 0.375(5)
H37 H -0.036(5) -0.1224(14) 0.368(5)
H38 H -0.071(4) 0.1126(11) 0.360(4)
H39 H -0.312(5) 0.1495(11) 0.361(4)
H40 H -0.222(5) 0.1712(14) 0.524(5)
H41 H -0.202(5) 0.2229(13) 0.362(4)
H42 H 0.049(5) 0.2194(12) 0.531(5)
H43 H 0.088(5) 0.2285(14) 0.375(4)
H44 H 0.364(5) 0.1870(12) 0.417(4)
H45 H 0.370(5) 0.1894(14) 0.595(5)
H46 H 0.361(6) 0.112(2) 0.400(6)
H47 H 0.482(5) 0.1228(12) 0.563(4)
H48 H 0.545(5) 0.0741(14) 0.816(5)
H49 H 0.594(5) 0.0933(13) 1.073(5)
H50 H 0.427(5) 0.138(2) 1.163(5)
H51 H 0.177(6) 0.1699(14) 0.997(5)
H52 H -0.014(7) 0.149(2) 0.714(6)
H53 H -0.238(5) 0.1729(14) 0.145(4)
H54 H -0.055(5) 0.1798(11) 0.162(4)
H55 H -0.104(8) 0.281(2) 0.223(7)
H56 H -0.351(7) 0.313(2) 0.057(6)
H57 H -0.380(5) 0.2575(12) 0.185(4)
H58 H -0.458(6) 0.2309(14) 0.037(5)
H59 H -0.049(7) 0.218(2) -0.070(5)
H60 H -0.203(5) 0.2529(15) -0.118(5)
H61 H -0.232(7) 0.159(2) -0.113(6)
H62 H -0.279(7) 0.193(2) -0.267(6)
H63 H -0.404(9) 0.192(2) -0.169(7)
O11 O 0.2745(5) 0.30992(13) -0.1484(5)
C47 C 0.2329(9) 0.2757(2) -0.2477(8)
H10 H 0.1427 0.2840 -0.3317
H11 H 0.3293 0.2677 -0.2810
H12 H 0.2015 0.2512 -0.1976
H64 H 0.385(10) 0.307(3) -0.072(9)
O12 O 0.0101(6) 0.33684(13) -0.0378(5)
H65 H -0.003(13) 0.314(4) 0.051(13)
H66 H 0.087(8) 0.329(2) -0.067(7)
loop_
_geom_bond_atom_site_label_1
_geom_bond_atom_site_label_2
_geom_bond_site_symmetry_1
_geom_bond_site_symmetry_2
N1 C1 1_555 1_555
C1 C2 1_555 1_555
C2 O1 1_555 1_555
O1 H14 1_555 1_555
C3 C2 1_555 1_555
O2 C3 1_555 1_555
C4 C3 1_555 1_555
C5 C4 1_555 1_555
C6 C5 1_555 1_555
C7 C6 1_555 1_555
N2 C7 1_555 1_555
C8 N2 1_555 1_555
C9 C8 1_555 1_555
C10 C1 1_555 1_555
C11 C10 1_555 1_555
C12 C11 1_555 1_555
C13 C12 1_555 1_555
C14 C13 1_555 1_555
C15 C14 1_555 1_555
C16 N1 1_555 1_555
C17 C4 1_555 1_555
C18 C4 1_555 1_555
C19 C18 1_555 1_555
C20 O2 1_555 1_555
O3 C20 1_555 1_555
C21 C2 1_555 1_555
O4 C21 1_555 1_555
C22 O5 1_555 1_555
O5 C21 1_555 1_555
C23 O6 1_555 1_555
O6 C14 1_555 1_555
C24 C20 1_555 1_555
C25 N1 1_555 1_555
C26 C27 1_555 1_555
C27 C28 1_555 1_555
C28 C29 1_555 1_555
C29 N3 1_555 1_555
N3 C30 1_555 1_555
C30 C31 1_555 1_555
C31 C32 1_555 1_555
C32 C13 1_555 1_555
C33 C32 1_555 1_555
C34 C33 1_555 1_555
C35 C34 1_555 1_555
C36 C35 1_555 1_555
C37 C36 1_555 1_555
C38 C33 1_555 1_555
N4 C38 1_555 1_555
C39 C26 1_555 1_555
C40 C28 1_555 1_555
C41 C40 1_555 1_555
O7 C41 1_555 1_555
C42 C41 1_555 1_555
O8 C42 1_555 1_555
C43 C41 1_555 1_555
C44 C43 1_555 1_555
C45 C26 1_555 1_555
O9 C45 1_555 1_555
C46 O10 1_555 1_555
O10 C45 1_555 1_555
O11 C47 1_555 1_555
C47 H10 1_555 1_555
O12 H65 1_555 1_555
H1 C23 1_555 1_555
H2 C23 1_555 1_555
H3 C23 1_555 1_555
H4 C24 1_555 1_555
H5 C24 1_555 1_555
H6 C24 1_555 1_555
H7 C46 1_555 1_555
H8 C46 1_555 1_555
H9 C46 1_555 1_555
H11 C47 1_555 1_555
H12 C47 1_555 1_555
H13 C1 1_555 1_555
H15 C3 1_555 1_555
H16 C5 1_555 1_555
H17 C6 1_555 1_555
H18 C7 1_555 1_555
H19 C7 1_555 1_555
H20 C8 1_555 1_555
H21 C8 1_555 1_555
H22 C9 1_555 1_555
H23 C9 1_555 1_555
H24 C12 1_555 1_555
H25 C15 1_555 1_555
H26 C17 1_555 1_555
H27 C18 1_555 1_555
H28 C18 1_555 1_555
H29 C19 1_555 1_555
H30 C19 1_555 1_555
H31 C19 1_555 1_555
H32 C22 1_555 1_555
H33 C22 1_555 1_555
H34 C22 1_555 1_555
H35 C25 1_555 1_555
H36 C25 1_555 1_555
H37 C25 1_555 1_555
H38 C26 1_555 1_555
H39 C27 1_555 1_555
H40 C27 1_555 1_555
H41 C28 1_555 1_555
H42 C29 1_555 1_555
H43 C29 1_555 1_555
H44 C30 1_555 1_555
H45 C30 1_555 1_555
H46 C31 1_555 1_555
H47 C31 1_555 1_555
H48 C34 1_555 1_555
H49 C35 1_555 1_555
H50 C36 1_555 1_555
H51 C37 1_555 1_555
H52 N4 1_555 1_555
H53 C40 1_555 1_555
H54 C40 1_555 1_555
H55 O7 1_555 1_555
H56 O8 1_555 1_555
H57 C42 1_555 1_555
H58 C42 1_555 1_555
H59 C43 1_555 1_555
H60 C43 1_555 1_555
H61 C44 1_555 1_555
H62 C44 1_555 1_555
H63 C44 1_555 1_555
H64 O11 1_555 1_555
H66 O12 1_555 1_555
N2 C17 1_555 1_555
C9 C10 1_555 1_555
C10 C17 1_555 1_555
C11 C16 1_555 1_555
C15 C16 1_555 1_555
N3 C39 1_555 1_555
C32 C39 1_555 1_555
C37 C38 1_555 1_555
N4 C39 1_555 1_555

#END
