
#######################################################################
#
#                 Cambridge Crystallographic Data Centre
#                                CCDC 
#
#######################################################################
#
# If this CIF has been generated from an entry in the Cambridge 
# Structural Database, then it will include bibliographic, chemical, 
# crystal, experimental, refinement or atomic coordinate data resulting 
# from the CCDC's data processing and validation procedures.
#
#######################################################################

data_SIMMAE
_chemical_formula_moiety         'C40 H42 O3 Si4'
_chemical_name_systematic        
3,3,5,5-Tetramethyl-1,1,1,7,7,7-hexaphenyltetrasiloxane
_symmetry_cell_setting           triclinic
_symmetry_space_group_name_H-M   'P -1'
_symmetry_Int_Tables_number      2
_space_group_name_Hall           '-P 1'
loop_
_symmetry_equiv_pos_site_id
_symmetry_equiv_pos_as_xyz
1 x,y,z
2 -x,-y,-z
_cell_length_a                   8.920(3)
_cell_length_b                   9.541(3)
_cell_length_c                   13.285(5)
_cell_angle_alpha                86.017(6)
_cell_angle_beta                 75.923(6)
_cell_angle_gamma                62.423(5)
_cell_volume                     970.858
_exptl_crystal_colour            colorless
_exptl_crystal_description       slab
_cell_formula_units_Z            1
loop_
_atom_site_label
_atom_site_type_symbol
_atom_site_fract_x
_atom_site_fract_y
_atom_site_fract_z
Si1 Si 0.56486(12) 0.74138(10) 0.25126(7)
Si2 Si 0.43235(18) 0.68200(14) 0.48669(8)
O1 O 0.4754(3) 0.7036(3) 0.36435(17)
O2 O 0.4257(7) 0.5241(6) 0.5115(5)
C1 C 0.1855(12) 0.8267(19) 0.5267(10)
H1 H 0.1239 0.7936 0.4918
H2 H 0.1664 0.9316 0.5075
H3 H 0.1441 0.8268 0.6005
C2 C 0.558(3) 0.741(4) 0.550(2)
H4 H 0.4911 0.7862 0.6180
H5 H 0.5841 0.8178 0.5091
H6 H 0.6647 0.6497 0.5543
C3 C 0.6329(4) 0.5723(3) 0.1592(2)
C4 C 0.5629(5) 0.4679(4) 0.1798(3)
H7 H 0.4809 0.4814 0.2418
C5 C 0.6115(6) 0.3442(5) 0.1106(4)
H8 H 0.5619 0.2760 0.1260
C6 C 0.7322(6) 0.3224(5) 0.0199(4)
H9 H 0.7670 0.2378 -0.0261
C7 C 0.8026(5) 0.4245(5) -0.0040(3)
H10 H 0.8831 0.4111 -0.0668
C8 C 0.7536(5) 0.5471(4) 0.0653(3)
H11 H 0.8030 0.6153 0.0487
C9 C 0.3999(4) 0.9300(4) 0.2117(2)
C10 C 0.3649(5) 0.9512(4) 0.1141(3)
H12 H 0.4291 0.8689 0.0637
C11 C 0.2365(6) 1.0923(5) 0.0903(3)
H13 H 0.2142 1.1031 0.0246
C12 C 0.1428(5) 1.2151(5) 0.1623(4)
H14 H 0.0560 1.3095 0.1462
C13 C 0.1771(6) 1.1989(4) 0.2590(3)
H15 H 0.1152 1.2835 0.3079
C14 C 0.3021(5) 1.0584(4) 0.2838(3)
H16 H 0.3221 1.0485 0.3500
C15 C 0.7571(4) 0.7651(4) 0.2596(3)
C16 C 0.7817(5) 0.8944(5) 0.2239(3)
H17 H 0.6989 0.9740 0.1938
C17 C 0.9269(6) 0.9091(6) 0.2319(4)
H18 H 0.9403 0.9973 0.2073
C18 C 1.0499(6) 0.7920(7) 0.2764(4)
H19 H 1.1462 0.8017 0.2829
C19 C 1.0312(6) 0.6627(7) 0.3107(4)
H20 H 1.1156 0.5833 0.3400
C20 C 0.8878(5) 0.6481(5) 0.3026(3)
H21 H 0.8776 0.5581 0.3264
Si1A Si 0.43514(12) 0.25862(10) 0.74874(7)
Si2A Si 0.56765(18) 0.31800(14) 0.51331(8)
O1A O 0.5246(3) 0.2964(3) 0.63565(17)
O2A O 0.5743(7) 0.4759(6) 0.4885(5)
C1A C 0.8145(12) 0.1733(19) 0.4733(10)
H1A H 0.8761 0.2064 0.5082
H2A H 0.8336 0.0684 0.4925
H3A H 0.8559 0.1732 0.3995
C2A C 0.442(3) 0.259(4) 0.450(2)
H4A H 0.5089 0.2138 0.3820
H5A H 0.4159 0.1822 0.4909
H6A H 0.3353 0.3503 0.4457
C3A C 0.3671(4) 0.4277(3) 0.8408(2)
C4A C 0.4371(5) 0.5321(4) 0.8202(3)
H7A H 0.5191 0.5186 0.7582
C5A C 0.3885(6) 0.6558(5) 0.8894(4)
H8A H 0.4381 0.7240 0.8740
C6A C 0.2678(6) 0.6776(5) 0.9801(4)
H9A H 0.2330 0.7622 1.0261
C7A C 0.1974(5) 0.5755(5) 1.0040(3)
H10A H 0.1169 0.5889 1.0668
C8A C 0.2464(5) 0.4529(4) 0.9347(3)
H11A H 0.1970 0.3847 0.9513
C9A C 0.6001(4) 0.0700(4) 0.7883(2)
C10A C 0.6351(5) 0.0488(4) 0.8859(3)
H12A H 0.5709 0.1311 0.9363
C11A C 0.7635(6) -0.0923(5) 0.9097(3)
H13A H 0.7858 -0.1031 0.9754
C12A C 0.8572(5) -0.2151(5) 0.8377(4)
H14A H 0.9440 -0.3095 0.8538
C13A C 0.8229(6) -0.1989(4) 0.7410(3)
H15A H 0.8848 -0.2835 0.6921
C14A C 0.6979(5) -0.0584(4) 0.7162(3)
H16A H 0.6779 -0.0485 0.6500
C15A C 0.2429(4) 0.2349(4) 0.7404(3)
C16A C 0.2183(5) 0.1056(5) 0.7761(3)
H17A H 0.3011 0.0260 0.8062
C17A C 0.0731(6) 0.0909(6) 0.7681(4)
H18A H 0.0597 0.0027 0.7927
C18A C -0.0499(6) 0.2080(7) 0.7236(4)
H19A H -0.1462 0.1983 0.7171
C19A C -0.0312(6) 0.3373(7) 0.6893(4)
H20A H -0.1156 0.4167 0.6600
C20A C 0.1122(5) 0.3519(5) 0.6974(3)
H21A H 0.1224 0.4419 0.6736
C21? C 0.2263(15) 0.7167(19) 0.5564(9)
H22? H 0.1926 0.6479 0.5290
H23? H 0.1447 0.8249 0.5508
H24? H 0.2272 0.6964 0.6281
C22? C 0.525(4) 0.774(5) 0.554(3)
H25? H 0.4599 0.8874 0.5537
H26? H 0.6441 0.7412 0.5191
H27? H 0.5176 0.7424 0.6245
loop_
_geom_bond_atom_site_label_1
_geom_bond_atom_site_label_2
_geom_bond_site_symmetry_1
_geom_bond_site_symmetry_2
Si1 O1 1_555 1_555
Si2 O1 1_555 1_555
O2 Si2 1_555 1_555
C1 Si2 1_555 1_555
H1 C1 1_555 1_555
H2 C1 1_555 1_555
H3 C1 1_555 1_555
C2 Si2 1_555 1_555
H4 C2 1_555 1_555
H5 C2 1_555 1_555
H6 C2 1_555 1_555
C3 Si1 1_555 1_555
C4 C3 1_555 1_555
H7 C4 1_555 1_555
C5 C4 1_555 1_555
H8 C5 1_555 1_555
C6 C5 1_555 1_555
H9 C6 1_555 1_555
C7 C6 1_555 1_555
H10 C7 1_555 1_555
C8 C3 1_555 1_555
H11 C8 1_555 1_555
C9 Si1 1_555 1_555
C10 C9 1_555 1_555
H12 C10 1_555 1_555
C11 C10 1_555 1_555
H13 C11 1_555 1_555
C12 C11 1_555 1_555
H14 C12 1_555 1_555
C13 C12 1_555 1_555
H15 C13 1_555 1_555
C14 C9 1_555 1_555
H16 C14 1_555 1_555
C15 Si1 1_555 1_555
C16 C15 1_555 1_555
H17 C16 1_555 1_555
C17 C16 1_555 1_555
H18 C17 1_555 1_555
C18 C17 1_555 1_555
H19 C18 1_555 1_555
C19 C18 1_555 1_555
H20 C19 1_555 1_555
C20 C15 1_555 1_555
H21 C20 1_555 1_555
Si1A O1A 1_555 1_555
Si2A O2 1_555 1_555
O1A Si2A 1_555 1_555
O2A Si2 1_555 1_555
C1A Si2A 1_555 1_555
H1A C1A 1_555 1_555
H2A C1A 1_555 1_555
H3A C1A 1_555 1_555
C2A Si2A 1_555 1_555
H4A C2A 1_555 1_555
H5A C2A 1_555 1_555
H6A C2A 1_555 1_555
C3A Si1A 1_555 1_555
C4A C3A 1_555 1_555
H7A C4A 1_555 1_555
C5A C4A 1_555 1_555
H8A C5A 1_555 1_555
C6A C5A 1_555 1_555
H9A C6A 1_555 1_555
C7A C6A 1_555 1_555
H10A C7A 1_555 1_555
C8A C3A 1_555 1_555
H11A C8A 1_555 1_555
C9A Si1A 1_555 1_555
C10A C9A 1_555 1_555
H12A C10A 1_555 1_555
C11A C10A 1_555 1_555
H13A C11A 1_555 1_555
C12A C11A 1_555 1_555
H14A C12A 1_555 1_555
C13A C12A 1_555 1_555
H15A C13A 1_555 1_555
C14A C9A 1_555 1_555
H16A C14A 1_555 1_555
C15A Si1A 1_555 1_555
C16A C15A 1_555 1_555
H17A C16A 1_555 1_555
C17A C16A 1_555 1_555
H18A C17A 1_555 1_555
C18A C17A 1_555 1_555
H19A C18A 1_555 1_555
C19A C18A 1_555 1_555
H20A C19A 1_555 1_555
C20A C15A 1_555 1_555
H21A C20A 1_555 1_555
O2 O2A 1_555 1_555
C7 C8 1_555 1_555
C13 C14 1_555 1_555
C19 C20 1_555 1_555
Si2A O2A 1_555 1_555
C7A C8A 1_555 1_555
C13A C14A 1_555 1_555
C19A C20A 1_555 1_555

#END
