
#######################################################################
#
#                 Cambridge Crystallographic Data Centre
#                                CCDC 
#
#######################################################################
#
# If this CIF has been generated from an entry in the Cambridge 
# Structural Database, then it will include bibliographic, chemical, 
# crystal, experimental, refinement or atomic coordinate data resulting 
# from the CCDC's data processing and validation procedures.
#
#######################################################################

data_SIMMOT
_chemical_formula_moiety         'C46 H59 N5 O5,H2 O1'
_chemical_name_systematic        
'methyl 3-(benzoylamino)-7,12-bis((phenylcarbamoyl)amino)cholan-24-oate unknown solvate monohydrate'
_symmetry_cell_setting           hexagonal
_symmetry_space_group_name_H-M   'P 61'
_symmetry_Int_Tables_number      169
_space_group_name_Hall           'P 61'
loop_
_symmetry_equiv_pos_site_id
_symmetry_equiv_pos_as_xyz
1 x,y,z
2 -y,x-y,1/3+z
3 -x+y,-x,2/3+z
4 -x,-y,1/2+z
5 y,-x+y,5/6+z
6 x-y,x,1/6+z
_cell_length_a                   28.3778(6)
_cell_length_b                   28.3778(6)
_cell_length_c                   11.6370(3)
_cell_angle_alpha                90
_cell_angle_beta                 90
_cell_angle_gamma                120
_cell_volume                     8115.76
_exptl_crystal_colour            colorless
_exptl_crystal_description       Needle
_cell_formula_units_Z            6
loop_
_atom_site_label
_atom_site_type_symbol
_atom_site_fract_x
_atom_site_fract_y
_atom_site_fract_z
C1 C 0.5520(3) 0.1334(3) 0.5046(5)
H1 H 0.5302 0.0993 0.5482
H2 H 0.5699 0.1634 0.5611
C2 C 0.5964(3) 0.1291(2) 0.4372(6)
H3 H 0.6197 0.1227 0.4909
H4 H 0.5794 0.0982 0.3827
C3 C 0.6306(3) 0.1820(2) 0.3719(5)
H5 H 0.6471 0.2115 0.4310
C4 C 0.5958(2) 0.1958(2) 0.2947(5)
H6 H 0.6190 0.2318 0.2591
H7 H 0.5800 0.1685 0.2323
C5 C 0.5502(3) 0.1966(2) 0.3610(5)
H8 H 0.5678 0.2270 0.4178
C6 C 0.5137(2) 0.2097(2) 0.2831(5)
H9 H 0.4919 0.2199 0.3325
H10 H 0.5374 0.2415 0.2347
C7 C 0.4749(2) 0.1626(2) 0.2044(5)
H11 H 0.4480 0.1722 0.1733
C8 C 0.4423(2) 0.1088(2) 0.2710(4)
H12 H 0.4174 0.1134 0.3248
C9 C 0.5137(3) 0.1436(2) 0.4315(4)
C10 C 0.4803(2) 0.0967(2) 0.3446(4)
H13 H 0.5070 0.0951 0.2909
C11 C 0.4487(2) 0.0403(2) 0.4037(5)
H14 H 0.4246 0.0416 0.4634
H15 H 0.4750 0.0324 0.4425
C12 C 0.4139(2) -0.0067(2) 0.3190(4)
H16 H 0.3924 -0.0408 0.3645
C13 C 0.3737(2) 0.0054(2) 0.2540(4)
C14 C 0.4068(2) 0.0607(2) 0.1921(5)
H17 H 0.4320 0.0569 0.1379
C15 C 0.3645(2) 0.0648(2) 0.1189(5)
H18 H 0.3816 0.0884 0.0511
H19 H 0.3450 0.0793 0.1640
C16 C 0.3259(3) 0.0055(2) 0.0825(5)
H20 H 0.2877 -0.0049 0.0991
H21 H 0.3294 0.0011 -0.0010
C17 C 0.3418(2) -0.0308(2) 0.1508(5)
H22 H 0.3680 -0.0360 0.1028
C18 C 0.4773(3) 0.1527(3) 0.5143(5)
H23 H 0.4552 0.1195 0.5590
H24 H 0.4533 0.1616 0.4705
H25 H 0.4999 0.1827 0.5664
C19 C 0.3335(2) 0.0063(2) 0.3432(5)
H26 H 0.3199 -0.0257 0.3932
H27 H 0.3029 0.0058 0.3030
H28 H 0.3524 0.0394 0.3898
C20 C 0.2922(2) -0.0885(2) 0.1767(5)
H29 H 0.2669 -0.0840 0.2294
C21 C 0.3101(3) -0.1248(2) 0.2358(6)
H30 H 0.2788 -0.1616 0.2433
H31 H 0.3244 -0.1102 0.3123
H32 H 0.3385 -0.1259 0.1900
C22 C 0.2616(3) -0.1147(3) 0.0652(6)
H33 H 0.2545 -0.0883 0.0237
H34 H 0.2847 -0.1231 0.0156
C23 C 0.2081(3) -0.1662(3) 0.0865(8)
H35 H 0.1904 -0.1810 0.0115
H36 H 0.2157 -0.1934 0.1220
C24 C 0.1700(5) -0.1598(6) 0.1598(11)
C25 C 0.6723(3) 0.1495(2) 0.2256(6)
C26 C 0.5240(2) 0.1945(2) 0.0234(4)
C27 C 0.4774(2) -0.0392(2) 0.2768(4)
C28 C 0.7222(3) 0.1518(2) 0.1858(6)
C29 C 0.7668(3) 0.1665(3) 0.2574(7)
H37 H 0.7664 0.1784 0.3334
C30 C 0.8110(4) 0.1640(3) 0.2201(9)
H38 H 0.8412 0.1750 0.2702
C31 C 0.8128(4) 0.1463(4) 0.1137(11)
H39 H 0.8424 0.1421 0.0887
C32 C 0.7651(5) 0.1333(5) 0.0365(11)
H40 H 0.7657 0.1243 -0.0419
C33 C 0.7243(4) 0.1347(4) 0.0767(9)
H41 H 0.6934 0.1231 0.0286
C34 C 0.5836(2) 0.2217(2) -0.1510(4)
C35 C 0.5737(3) 0.2613(2) -0.1942(5)
H42 H 0.5465 0.2672 -0.1609
C36 C 0.6046(3) 0.2927(3) -0.2887(6)
H43 H 0.5994 0.3213 -0.3163
C37 C 0.6412(3) 0.2830(3) -0.3403(5)
H44 H 0.6606 0.3037 -0.4055
C38 C 0.6507(2) 0.2429(3) -0.2986(5)
H45 H 0.6769 0.2364 -0.3346
C39 C 0.6220(2) 0.2124(3) -0.2046(5)
H46 H 0.6286 0.1848 -0.1763
C40 C 0.5629(3) -0.0411(2) 0.2404(5)
C41 C 0.6171(2) -0.0056(2) 0.2064(6)
H47 H 0.6264 0.0285 0.1727
C42 C 0.6557(3) -0.0191(3) 0.2209(7)
H48 H 0.6919 0.0055 0.1970
C43 C 0.6433(3) -0.0692(3) 0.2709(7)
H49 H 0.6705 -0.0792 0.2792
C44 C 0.5912(3) -0.1030(3) 0.3074(6)
H50 H 0.5826 -0.1361 0.3449
C45 C 0.5505(3) -0.0900(3) 0.2907(5)
H51 H 0.5142 -0.1148 0.3139
C46 C 0.1094(7) -0.2001(10) 0.3211(18)
H52 H 0.1229 -0.1635 0.3525
H53 H 0.1038 -0.2254 0.3838
H54 H 0.0747 -0.2119 0.2815
N1 N 0.6757(2) 0.18248(19) 0.3112(5)
H55 H 0.7087 0.2071 0.3332
N2 N 0.50287(18) 0.15547(16) 0.1049(4)
H56 H 0.5058 0.1261 0.0987
N3 N 0.55566(19) 0.18750(16) -0.0559(4)
H57 H 0.5591 0.1586 -0.0470
N4 N 0.45014(18) -0.01467(17) 0.2399(4)
H58 H 0.4539 -0.0033 0.1683
N5 N 0.52403(19) -0.02533(17) 0.2193(4)
H59 H 0.5309 -0.0033 0.1604
O1 O 0.1588(5) -0.1238(7) 0.1491(19)
O2 O 0.1483(5) -0.1993(4) 0.2413(8)
O3 O 0.62753(19) 0.11522(16) 0.1831(5)
O4 O 0.51529(16) 0.23309(14) 0.0209(3)
O5 O 0.46032(17) -0.07323(14) 0.3568(3)
O6 O 0.53224(16) 0.06946(14) 0.0825(3)
loop_
_geom_bond_atom_site_label_1
_geom_bond_atom_site_label_2
_geom_bond_site_symmetry_1
_geom_bond_site_symmetry_2
C1 H1 1_555 1_555
H2 C1 1_555 1_555
C2 C1 1_555 1_555
H3 C2 1_555 1_555
H4 C2 1_555 1_555
C3 C2 1_555 1_555
H5 C3 1_555 1_555
C4 C3 1_555 1_555
H6 C4 1_555 1_555
H7 C4 1_555 1_555
C5 C4 1_555 1_555
H8 C5 1_555 1_555
C6 C5 1_555 1_555
H9 C6 1_555 1_555
H10 C6 1_555 1_555
C7 C6 1_555 1_555
H11 C7 1_555 1_555
C8 C7 1_555 1_555
H12 C8 1_555 1_555
C9 C1 1_555 1_555
C10 C8 1_555 1_555
H13 C10 1_555 1_555
C11 C10 1_555 1_555
H14 C11 1_555 1_555
H15 C11 1_555 1_555
C12 C11 1_555 1_555
H16 C12 1_555 1_555
C13 C12 1_555 1_555
C14 C8 1_555 1_555
H17 C14 1_555 1_555
C15 C14 1_555 1_555
H18 C15 1_555 1_555
H19 C15 1_555 1_555
C16 C15 1_555 1_555
H20 C16 1_555 1_555
H21 C16 1_555 1_555
C17 C13 1_555 1_555
H22 C17 1_555 1_555
C18 C9 1_555 1_555
H23 C18 1_555 1_555
H24 C18 1_555 1_555
H25 C18 1_555 1_555
C19 C13 1_555 1_555
H26 C19 1_555 1_555
H27 C19 1_555 1_555
H28 C19 1_555 1_555
C20 C17 1_555 1_555
H29 C20 1_555 1_555
C21 C20 1_555 1_555
H30 C21 1_555 1_555
H31 C21 1_555 1_555
H32 C21 1_555 1_555
C22 C20 1_555 1_555
H33 C22 1_555 1_555
H34 C22 1_555 1_555
C23 C22 1_555 1_555
H35 C23 1_555 1_555
H36 C23 1_555 1_555
C24 C23 1_555 1_555
C25 C28 1_555 1_555
C26 N2 1_555 1_555
C27 N4 1_555 1_555
C28 C29 1_555 1_555
C29 H37 1_555 1_555
C30 C29 1_555 1_555
H38 C30 1_555 1_555
C31 C30 1_555 1_555
H39 C31 1_555 1_555
C32 C31 1_555 1_555
H40 C32 1_555 1_555
C33 C28 1_555 1_555
H41 C33 1_555 1_555
C34 C35 1_555 1_555
C35 H42 1_555 1_555
C36 C35 1_555 1_555
H43 C36 1_555 1_555
C37 C36 1_555 1_555
H44 C37 1_555 1_555
C38 C37 1_555 1_555
H45 C38 1_555 1_555
C39 C34 1_555 1_555
H46 C39 1_555 1_555
C40 C41 1_555 1_555
C41 H47 1_555 1_555
C42 C41 1_555 1_555
H48 C42 1_555 1_555
C43 C42 1_555 1_555
H49 C43 1_555 1_555
C44 C43 1_555 1_555
H50 C44 1_555 1_555
C45 C40 1_555 1_555
H51 C45 1_555 1_555
C46 H52 1_555 1_555
H53 C46 1_555 1_555
H54 C46 1_555 1_555
N1 C3 1_555 1_555
H55 N1 1_555 1_555
N2 C7 1_555 1_555
H56 N2 1_555 1_555
N3 C26 1_555 1_555
H57 N3 1_555 1_555
N4 C12 1_555 1_555
H58 N4 1_555 1_555
N5 C27 1_555 1_555
H59 N5 1_555 1_555
O1 C24 1_555 1_555
O2 C24 1_555 1_555
O3 C25 1_555 1_555
O4 C26 1_555 1_555
O5 C27 1_555 1_555
C5 C9 1_555 1_555
C9 C10 1_555 1_555
C13 C14 1_555 1_555
C16 C17 1_555 1_555
C25 N1 1_555 1_555
C32 C33 1_555 1_555
C34 N3 1_555 1_555
C38 C39 1_555 1_555
C40 N5 1_555 1_555
C44 C45 1_555 1_555
C46 O2 1_555 1_555

#END
