
#######################################################################
#
#                 Cambridge Crystallographic Data Centre
#                                CCDC 
#
#######################################################################
#
# If this CIF has been generated from an entry in the Cambridge 
# Structural Database, then it will include bibliographic, chemical, 
# crystal, experimental, refinement or atomic coordinate data resulting 
# from the CCDC's data processing and validation procedures.
#
#######################################################################

data_SIMNUA
_chemical_formula_moiety         'C47 H62 N6 O5 S1,H2 O1'
_chemical_name_systematic        
'methyl 3-(((4-(methylsulfanyl)phenyl)carbamoyl)amino)-7,12-bis((phenylcarbamoyl)amino)cholan-24-oate unknown solvate monohydrate'
_symmetry_cell_setting           hexagonal
_symmetry_space_group_name_H-M   'P 61'
_symmetry_Int_Tables_number      169
_space_group_name_Hall           'P 61'
loop_
_symmetry_equiv_pos_site_id
_symmetry_equiv_pos_as_xyz
1 x,y,z
2 -y,x-y,1/3+z
3 -x+y,-x,2/3+z
4 -x,-y,1/2+z
5 y,-x+y,5/6+z
6 x-y,x,1/6+z
_cell_length_a                   28.772(4)
_cell_length_b                   28.772(4)
_cell_length_c                   11.482(2)
_cell_angle_alpha                90
_cell_angle_beta                 90
_cell_angle_gamma                120
_cell_volume                     8231.68
_exptl_crystal_colour            colorless
_exptl_crystal_description       needle
_cell_formula_units_Z            6
_exptl_crystal_recrystallization_method 'methyl acetate/water (99:1)'
loop_
_atom_site_label
_atom_site_type_symbol
_atom_site_fract_x
_atom_site_fract_y
_atom_site_fract_z
C1 C 0.1299(3) 0.5407(3) 0.3715(6)
H1 H 0.1574 0.5544 0.3093
H2 H 0.0945 0.5184 0.3340
C2 C 0.1303(3) 0.5884(3) 0.4315(6)
C3 C 0.1848(3) 0.6227(3) 0.4917(6)
H3 H 0.2129 0.6335 0.4299
C4 C 0.1949(3) 0.5888(3) 0.5799(6)
H4 H 0.2304 0.6112 0.6167
H5 H 0.1673 0.5765 0.6419
C5 C 0.1930(3) 0.5403(3) 0.5219(6)
H6 H 0.2228 0.5548 0.4634
C6 C 0.2054(3) 0.5078(3) 0.6086(6)
H7 H 0.2144 0.4838 0.5645
H8 H 0.2375 0.5328 0.6540
C7 C 0.1603(3) 0.4739(3) 0.6931(6)
H9 H 0.1690 0.4480 0.7311
C8 C 0.1066(3) 0.4409(3) 0.6255(5)
H10 H 0.1104 0.4141 0.5770
C9 C 0.1406(3) 0.5049(3) 0.4532(6)
C10 C 0.0946(3) 0.4744(3) 0.5430(6)
H11 H 0.0930 0.5024 0.5916
C11 C 0.0398(3) 0.4419(3) 0.4864(6)
H12 H 0.0405 0.4153 0.4326
H13 H 0.0321 0.4662 0.4397
C12 C -0.0060(3) 0.4118(3) 0.5768(6)
H14 H -0.0402 0.3893 0.5334
C13 C 0.0052(3) 0.3747(3) 0.6524(5)
C14 C 0.0602(3) 0.4089(3) 0.7105(6)
H15 H 0.0573 0.4358 0.7603
C15 C 0.0643(3) 0.3695(3) 0.7939(6)
H16 H 0.0759 0.3468 0.7523
H17 H 0.0898 0.3887 0.8580
C16 C 0.0071(3) 0.3358(3) 0.8399(6)
H18 H 0.0051 0.3448 0.9223
H19 H -0.0047 0.2971 0.8347
C17 C -0.0290(3) 0.3493(3) 0.7622(6)
H20 H -0.0323 0.3783 0.8030
C18 C 0.1480(3) 0.4656(3) 0.3751(6)
H21 H 0.1161 0.4455 0.3263
H22 H 0.1530 0.4405 0.4240
H23 H 0.1796 0.4857 0.3253
C19 C 0.0040(3) 0.3309(3) 0.5740(6)
H24 H 0.0339 0.3472 0.5187
H25 H -0.0300 0.3130 0.5312
H26 H 0.0073 0.3046 0.6221
C20 C -0.0862(3) 0.3008(3) 0.7513(7)
H27 H -0.0830 0.2707 0.7161
C21 C -0.1219(3) 0.3117(3) 0.6716(7)
H28 H -0.1220 0.3440 0.6979
H29 H -0.1586 0.2810 0.6737
H30 H -0.1082 0.3170 0.5917
C22 C -0.1094(3) 0.2831(3) 0.8750(7)
H31 H -0.0857 0.2737 0.9192
H32 H -0.1087 0.3140 0.9148
C23 C -0.1665(3) 0.2357(3) 0.8798(7)
H33 H -0.1774 0.2268 0.9622
H34 H -0.1910 0.2460 0.8426
C24 C -0.1716(3) 0.1884(4) 0.8213(8)
C25 C -0.1484(6) 0.1205(5) 0.8257(12)
H35 H -0.1818 0.1010 0.7810
H36 H -0.1477 0.0972 0.8871
H37 H -0.1176 0.1315 0.7737
C26 C 0.1635(3) 0.6759(3) 0.6306(6)
C27 C 0.1921(3) 0.5275(3) 0.8682(6)
C28 C -0.0371(3) 0.4762(3) 0.6015(6)
C29 C 0.1618(3) 0.7437(3) 0.7622(6)
C30 C 0.1113(3) 0.7373(3) 0.7384(7)
H38 H 0.0916 0.7182 0.6715
C31 C 0.0911(4) 0.7596(3) 0.8147(8)
H39 H 0.0568 0.7555 0.7998
C32 C 0.1192(4) 0.7878(3) 0.9130(8)
C33 C 0.1682(4) 0.7935(3) 0.9359(7)
H40 H 0.1877 0.8127 1.0030
C34 C 0.1898(3) 0.7711(3) 0.8611(6)
H41 H 0.2237 0.7747 0.8778
C35 C 0.2209(3) 0.5933(3) 1.0329(6)
C36 C 0.2074(3) 0.6273(3) 1.0896(6)
H42 H 0.1777 0.6302 1.0633
C37 C 0.2372(3) 0.6572(3) 1.1847(7)
H43 H 0.2275 0.6806 1.2224
C38 C 0.2800(3) 0.6538(3) 1.2252(6)
H44 H 0.2996 0.6738 1.2914
C39 C 0.2943(3) 0.6208(3) 1.1679(7)
H45 H 0.3246 0.6189 1.1941
C40 C 0.2653(3) 0.5901(3) 1.0721(7)
H46 H 0.2755 0.5673 1.0340
C41 C -0.0443(3) 0.5579(3) 0.6373(6)
C42 C -0.0934(3) 0.5420(3) 0.5878(6)
H47 H -0.1137 0.5066 0.5576
C43 C -0.1138(3) 0.5761(3) 0.5811(6)
H48 H -0.1481 0.5642 0.5472
C44 C -0.0846(3) 0.6274(3) 0.6235(6)
H49 H -0.0986 0.6511 0.6190
C45 C -0.0351(3) 0.6445(3) 0.6724(7)
H50 H -0.0147 0.6800 0.7016
C46 C -0.0149(3) 0.6097(3) 0.6790(6)
H51 H 0.0194 0.6217 0.7125
N1 N 0.1920(2) 0.6715(2) 0.5427(5)
H52 H 0.2178 0.7017 0.5134
N2 N 0.1869(2) 0.7254(3) 0.6808(5)
H53 H 0.2204 0.7481 0.6615
N3 N 0.1549(2) 0.5059(2) 0.7843(5)
H54 H 0.1273 0.5112 0.7843
N4 N 0.1895(2) 0.5651(2) 0.9358(5)
H55 H 0.1647 0.5729 0.9158
N5 N -0.0123(2) 0.4509(2) 0.6474(5)
H56 H 0.0001 0.4579 0.7192
N6 N -0.0222(2) 0.5248(2) 0.6527(5)
H57 H 0.0049 0.5366 0.7017
O1 O -0.1977(2) 0.1681(3) 0.7330(6)
O2 O -0.1457(3) 0.1674(3) 0.8776(6)
O3 O 0.1197(2) 0.6389(2) 0.6656(5)
O4 O 0.22577(19) 0.5134(2) 0.8846(4)
O5 O -0.07231(19) 0.4557(2) 0.5246(4)
S1 S 0.09230(11) 0.81704(10) 1.0077(2)
C47 C 0.1514(9) 0.8855(6) 1.0153(19)
H58 H 0.1826 0.8836 1.0428
H59 H 0.1439 0.9074 1.0694
H60 H 0.1589 0.9019 0.9377
O6 O 0.07735(19) 0.5480(2) 0.7885(4)
C48? C 0.0248(11) 0.7983(10) 0.944(2)
H61? H 0.0298 0.8163 0.8693
H62? H 0.0057 0.8095 0.9979
H63? H 0.0039 0.7594 0.9333
loop_
_geom_bond_atom_site_label_1
_geom_bond_atom_site_label_2
_geom_bond_site_symmetry_1
_geom_bond_site_symmetry_2
C1 H1 1_555 1_555
H2 C1 1_555 1_555
C2 C1 1_555 1_555
C3 C2 1_555 1_555
H3 C3 1_555 1_555
C4 C3 1_555 1_555
H4 C4 1_555 1_555
H5 C4 1_555 1_555
C5 C4 1_555 1_555
H6 C5 1_555 1_555
C6 C5 1_555 1_555
H7 C6 1_555 1_555
H8 C6 1_555 1_555
C7 C6 1_555 1_555
H9 C7 1_555 1_555
C8 C7 1_555 1_555
H10 C8 1_555 1_555
C9 C1 1_555 1_555
C10 C8 1_555 1_555
H11 C10 1_555 1_555
C11 C10 1_555 1_555
H12 C11 1_555 1_555
H13 C11 1_555 1_555
C12 C11 1_555 1_555
H14 C12 1_555 1_555
C13 C12 1_555 1_555
C14 C8 1_555 1_555
H15 C14 1_555 1_555
C15 C14 1_555 1_555
H16 C15 1_555 1_555
H17 C15 1_555 1_555
C16 C15 1_555 1_555
H18 C16 1_555 1_555
H19 C16 1_555 1_555
C17 C13 1_555 1_555
H20 C17 1_555 1_555
C18 C9 1_555 1_555
H21 C18 1_555 1_555
H22 C18 1_555 1_555
H23 C18 1_555 1_555
C19 C13 1_555 1_555
H24 C19 1_555 1_555
H25 C19 1_555 1_555
H26 C19 1_555 1_555
C20 C17 1_555 1_555
H27 C20 1_555 1_555
C21 C20 1_555 1_555
H28 C21 1_555 1_555
H29 C21 1_555 1_555
H30 C21 1_555 1_555
C22 C20 1_555 1_555
H31 C22 1_555 1_555
H32 C22 1_555 1_555
C23 C22 1_555 1_555
H33 C23 1_555 1_555
H34 C23 1_555 1_555
C24 C23 1_555 1_555
C25 H35 1_555 1_555
H36 C25 1_555 1_555
H37 C25 1_555 1_555
C26 N1 1_555 1_555
C27 N3 1_555 1_555
C28 N5 1_555 1_555
C29 C30 1_555 1_555
C30 H38 1_555 1_555
C31 C30 1_555 1_555
H39 C31 1_555 1_555
C32 C31 1_555 1_555
C33 C32 1_555 1_555
H40 C33 1_555 1_555
C34 C29 1_555 1_555
H41 C34 1_555 1_555
C35 C36 1_555 1_555
C36 H42 1_555 1_555
C37 C36 1_555 1_555
H43 C37 1_555 1_555
C38 C37 1_555 1_555
H44 C38 1_555 1_555
C39 C38 1_555 1_555
H45 C39 1_555 1_555
C40 C35 1_555 1_555
H46 C40 1_555 1_555
C41 C42 1_555 1_555
C42 H47 1_555 1_555
C43 C42 1_555 1_555
H48 C43 1_555 1_555
C44 C43 1_555 1_555
H49 C44 1_555 1_555
C45 C44 1_555 1_555
H50 C45 1_555 1_555
C46 C41 1_555 1_555
H51 C46 1_555 1_555
N1 C3 1_555 1_555
H52 N1 1_555 1_555
N2 C26 1_555 1_555
H53 N2 1_555 1_555
N3 C7 1_555 1_555
H54 N3 1_555 1_555
N4 C27 1_555 1_555
H55 N4 1_555 1_555
N5 C12 1_555 1_555
H56 N5 1_555 1_555
N6 C28 1_555 1_555
H57 N6 1_555 1_555
O1 C24 1_555 1_555
O2 C24 1_555 1_555
O3 C26 1_555 1_555
O4 C27 1_555 1_555
O5 C28 1_555 1_555
S1 C32 1_555 1_555
C47 S1 1_555 1_555
H58 C47 1_555 1_555
H59 C47 1_555 1_555
H60 C47 1_555 1_555
C5 C9 1_555 1_555
C9 C10 1_555 1_555
C13 C14 1_555 1_555
C16 C17 1_555 1_555
C25 O2 1_555 1_555
C29 N2 1_555 1_555
C33 C34 1_555 1_555
C35 N4 1_555 1_555
C39 C40 1_555 1_555
C41 N6 1_555 1_555
C45 C46 1_555 1_555

#END
