
#######################################################################
#
#                 Cambridge Crystallographic Data Centre
#                                CCDC 
#
#######################################################################
#
# If this CIF has been generated from an entry in the Cambridge 
# Structural Database, then it will include bibliographic, chemical, 
# crystal, experimental, refinement or atomic coordinate data resulting 
# from the CCDC's data processing and validation procedures.
#
#######################################################################

data_SIMPUA
_chemical_formula_moiety         'C17 H22 O4'
_chemical_name_systematic        
(3-Hydroxymethyl-1-(2-(3-methoxyphenyl)ethyl)-7-oxabicyclo(2.2.1)hept-5-en-2-yl)methanol
_symmetry_cell_setting           orthorhombic
_symmetry_space_group_name_H-M   'P c a 21'
_symmetry_Int_Tables_number      29
_space_group_name_Hall           'P 2c -2ac'
loop_
_symmetry_equiv_pos_site_id
_symmetry_equiv_pos_as_xyz
1 x,y,z
2 -x,-y,1/2+z
3 1/2+x,-y,z
4 1/2-x,y,1/2+z
_cell_length_a                   11.8025(4)
_cell_length_b                   14.9842(4)
_cell_length_c                   8.7569(3)
_cell_angle_alpha                90
_cell_angle_beta                 90
_cell_angle_gamma                90
_cell_volume                     1548.67
_exptl_crystal_colour            colorless
_exptl_crystal_description       block
_cell_formula_units_Z            4
_exptl_crystal_recrystallization_method 'ethyl acetate'
loop_
_atom_site_label
_atom_site_type_symbol
_atom_site_fract_x
_atom_site_fract_y
_atom_site_fract_z
O1 O 1.09490(11) 0.61849(8) 0.76469(15)
C1 C 1.06391(15) 0.44022(12) 0.5973(2)
H1 H 1.0072 0.4506 0.6755
H2 H 1.0262 0.4142 0.5095
C2 C 0.93740(19) 0.87373(13) 0.8725(3)
C3 C 1.02937(13) 0.60627(11) 0.5159(2)
H3 H 1.0448 0.6306 0.4141
C4 C 0.90595(14) 0.57645(12) 0.5238(2)
H4 H 0.8970 0.5218 0.4658
H5 H 0.8865 0.5637 0.6292
C5 C 0.97705(16) 0.74553(13) 0.6911(3)
H6 H 0.9098 0.7149 0.7271
H7 H 0.9555 0.7822 0.6046
C6 C 1.06362(15) 0.67730(11) 0.6400(2)
C7 C 1.25209(18) 0.64819(12) 0.6179(3)
H8 H 1.3298 0.6493 0.6004
C8 C 1.18359(14) 0.57231(12) 0.6848(2)
H9 H 1.2271 0.5301 0.7471
C9 C 0.9513(2) 0.96320(13) 0.8366(3)
H10 H 1.0123 0.9811 0.7767
C10 C 1.17892(15) 0.71219(13) 0.5895(3)
H11 H 1.1945 0.7678 0.5471
C11 C 1.11664(13) 0.52951(11) 0.5509(2)
H12 H 1.1669 0.5209 0.4631
O2 O 0.8824(2) 1.11539(11) 0.8606(3)
C12 C 1.0225(2) 0.80543(15) 0.8182(4)
H13 H 1.0449 0.7685 0.9039
H14 H 1.0895 0.8362 0.7815
C13 C 0.8749(2) 1.02585(14) 0.8895(3)
C14 C 0.7847(2) 1.00053(18) 0.9786(4)
H15 H 0.7338 1.0429 1.0148
C15 C 0.8458(2) 0.84890(16) 0.9595(4)
H16 H 0.8343 0.7890 0.9824
C16 C 0.7704(3) 0.91245(18) 1.0134(4)
H17 H 0.7096 0.8949 1.0738
C17 C 0.9686(4) 1.1454(2) 0.7638(5)
H18 H 1.0408 1.1281 0.8046
H19 H 0.9652 1.2092 0.7559
H20 H 0.9590 1.1195 0.6644
O3 O 1.14629(12) 0.37876(8) 0.65379(16)
H21 H 1.1970 0.3728 0.5906
O4 O 0.82975(11) 0.64249(10) 0.46535(16)
H22 H 0.8367 0.6457 0.3723
loop_
_geom_bond_atom_site_label_1
_geom_bond_atom_site_label_2
_geom_bond_site_symmetry_1
_geom_bond_site_symmetry_2
O1 C6 1_555 1_555
C1 H1 1_555 1_555
H2 C1 1_555 1_555
C2 C9 1_555 1_555
C3 H3 1_555 1_555
C4 C3 1_555 1_555
H4 C4 1_555 1_555
H5 C4 1_555 1_555
C5 H6 1_555 1_555
H7 C5 1_555 1_555
C6 C3 1_555 1_555
C7 H8 1_555 1_555
C8 O1 1_555 1_555
H9 C8 1_555 1_555
C9 H10 1_555 1_555
C10 C6 1_555 1_555
H11 C10 1_555 1_555
C11 C1 1_555 1_555
H12 C11 1_555 1_555
O2 C13 1_555 1_555
C12 C2 1_555 1_555
H13 C12 1_555 1_555
H14 C12 1_555 1_555
C13 C9 1_555 1_555
C14 C13 1_555 1_555
H15 C14 1_555 1_555
C15 C2 1_555 1_555
H16 C15 1_555 1_555
C16 C14 1_555 1_555
H17 C16 1_555 1_555
C17 O2 1_555 1_555
H18 C17 1_555 1_555
H19 C17 1_555 1_555
H20 C17 1_555 1_555
O3 C1 1_555 1_555
H21 O3 1_555 1_555
O4 C4 1_555 1_555
H22 O4 1_555 1_555
C3 C11 1_555 1_555
C5 C6 1_555 1_555
C5 C12 1_555 1_555
C7 C8 1_555 1_555
C7 C10 1_555 1_555
C8 C11 1_555 1_555
C15 C16 1_555 1_555

#END
