
#######################################################################
#
#                 Cambridge Crystallographic Data Centre
#                                CCDC 
#
#######################################################################
#
# If this CIF has been generated from an entry in the Cambridge 
# Structural Database, then it will include bibliographic, chemical, 
# crystal, experimental, refinement or atomic coordinate data resulting 
# from the CCDC's data processing and validation procedures.
#
#######################################################################

data_SIMQIR
_chemical_formula_moiety         'C52 H64 N6 O5,C3 H6 O2,H2 O1'
_chemical_name_systematic        
'benzyl 3,7,12-tris((phenylcarbamoyl)amino)cholan-24-oate methyl acetate solvate monohydrate'
_symmetry_cell_setting           hexagonal
_symmetry_space_group_name_H-M   'P 61'
_symmetry_Int_Tables_number      169
_space_group_name_Hall           'P 61'
loop_
_symmetry_equiv_pos_site_id
_symmetry_equiv_pos_as_xyz
1 x,y,z
2 -y,x-y,1/3+z
3 -x+y,-x,2/3+z
4 -x,-y,1/2+z
5 y,-x+y,5/6+z
6 x-y,x,1/6+z
_cell_length_a                   28.9611(6)
_cell_length_b                   28.9611(6)
_cell_length_c                   11.4464(3)
_cell_angle_alpha                90
_cell_angle_beta                 90
_cell_angle_gamma                120
_cell_volume                     8314.38
_exptl_crystal_colour            colorless
_exptl_crystal_description       needle
_cell_formula_units_Z            6
loop_
_atom_site_label
_atom_site_type_symbol
_atom_site_fract_x
_atom_site_fract_y
_atom_site_fract_z
C1 C 0.54126(16) 0.41115(17) 0.1617(4)
H1 H 0.5551 0.3976 0.0992
H2 H 0.5191 0.4241 0.1240
C2 C 0.58816(16) 0.45791(16) 0.2213(4)
H3 H 0.5751 0.4736 0.2805
H4 H 0.6095 0.4858 0.1630
C3 C 0.62273(16) 0.43852(17) 0.2800(4)
H5 H 0.6329 0.4212 0.2174
C4 C 0.58993(16) 0.39496(16) 0.3692(4)
H6 H 0.5775 0.4099 0.4315
H7 H 0.6127 0.3824 0.4058
C5 C 0.54146(15) 0.34755(16) 0.3111(4)
H8 H 0.5559 0.3328 0.2517
C6 C 0.50874(16) 0.30239(16) 0.3974(4)
H9 H 0.5335 0.2953 0.4433
H10 H 0.4852 0.2697 0.3523
C7 C 0.47407(15) 0.31302(15) 0.4829(4)
H11 H 0.4488 0.2785 0.5214
C8 C 0.44080(15) 0.33252(15) 0.4166(3)
H12 H 0.4145 0.3022 0.3673
C9 C 0.50545(15) 0.36430(16) 0.2440(3)
C10 C 0.47506(15) 0.37967(15) 0.3338(3)
H13 H 0.5026 0.4091 0.3830
C11 C 0.44107(16) 0.40096(16) 0.2766(3)
H14 H 0.4646 0.4329 0.2295
H15 H 0.4150 0.3735 0.2230
C12 C 0.41097(15) 0.41569(15) 0.3663(4)
H16 H 0.3881 0.4268 0.3231
C13 C 0.37469(15) 0.36705(16) 0.4429(3)
C14 C 0.40914(16) 0.34694(15) 0.5016(3)
H17 H 0.4358 0.3768 0.5513
C15 C 0.37065(16) 0.30363(16) 0.5846(4)
H18 H 0.3900 0.2982 0.6494
H19 H 0.3491 0.2694 0.5429
C16 C 0.33533(17) 0.32561(18) 0.6303(4)
H20 H 0.3433 0.3359 0.7135
H21 H 0.2972 0.2982 0.6232
C17 C 0.34819(15) 0.37564(16) 0.5536(4)
H22 H 0.3765 0.4076 0.5954
C18 C 0.33050(16) 0.32404(16) 0.3648(4)
H23 H 0.3456 0.3069 0.3167
H24 H 0.3158 0.3408 0.3140
H25 H 0.3021 0.2972 0.4141
C19 C 0.46654(17) 0.31792(17) 0.1654(4)
H26 H 0.4448 0.3288 0.1204
H27 H 0.4433 0.2870 0.2140
H28 H 0.4868 0.3084 0.1116
C20 C 0.30012(16) 0.38385(16) 0.5403(4)
H29 H 0.2707 0.3512 0.5026
C21 C 0.31175(17) 0.43150(17) 0.4636(4)
H30 H 0.2812 0.4373 0.4655
H31 H 0.3180 0.4245 0.3831
H32 H 0.3435 0.4633 0.4929
C22 C 0.28146(17) 0.38847(17) 0.6627(4)
H33 H 0.3120 0.4177 0.7046
H34 H 0.2712 0.3550 0.7056
C23 C 0.23459(18) 0.39901(18) 0.6679(4)
H35 H 0.2243 0.3986 0.7505
H36 H 0.2463 0.4350 0.6364
C24 C 0.18618(18) 0.35866(19) 0.6000(4)
C25 C 0.1235(2) 0.2460(2) 0.4810(6)
C26 C 0.0944(3) 0.2426(3) 0.3813(7)
H37 H 0.0714 0.2572 0.3822
C27 C 0.0984(3) 0.2186(4) 0.2823(8)
H38 H 0.0780 0.2162 0.2153
C28 C 0.1317(5) 0.1978(4) 0.2792(11)
H39 H 0.1343 0.1812 0.2099
C29 C 0.1628(4) 0.2011(3) 0.3806(11)
H40 H 0.1854 0.1861 0.3804
C30 C 0.1582(3) 0.2269(3) 0.4788(7)
H41 H 0.1796 0.2313 0.5455
C31 C 0.67668(15) 0.51411(16) 0.4169(4)
C32 C 0.52786(15) 0.33507(15) 0.6595(3)
C33 C 0.47445(15) 0.51086(15) 0.3919(3)
C34 C 0.74331(15) 0.58130(16) 0.5492(4)
C35 C 0.73346(17) 0.62347(18) 0.5405(4)
H42 H 0.7142 0.6256 0.4756
C36 C 0.75178(18) 0.66254(19) 0.6268(4)
H43 H 0.7443 0.6909 0.6212
C37 C 0.78089(18) 0.66044(19) 0.7213(4)
H44 H 0.7936 0.6873 0.7797
C38 C 0.79126(19) 0.6183(2) 0.7291(4)
H45 H 0.8113 0.6167 0.7931
C39 C 0.77266(18) 0.57922(19) 0.6448(4)
H46 H 0.7797 0.5506 0.6513
C40 C 0.59350(15) 0.37239(16) 0.8234(4)
C41 C 0.59031(19) 0.32541(18) 0.8634(4)
H47 H 0.5679 0.2926 0.8249
C42 C 0.6203(2) 0.32689(19) 0.9603(4)
H48 H 0.6172 0.2947 0.9890
C43 C 0.65443(18) 0.3746(2) 1.0152(4)
H49 H 0.6754 0.3754 1.0799
C44 C 0.65763(17) 0.42102(18) 0.9746(4)
H50 H 0.6808 0.4539 1.0120
C45 C 0.62765(16) 0.42013(17) 0.8805(4)
H51 H 0.6302 0.4524 0.8541
C46 C 0.55599(16) 0.59902(16) 0.4279(3)
C47 C 0.53951(18) 0.63196(16) 0.3760(4)
H52 H 0.5046 0.6171 0.3443
C48 C 0.57435(18) 0.68652(17) 0.3710(4)
H53 H 0.5631 0.7088 0.3350
C49 C 0.62485(18) 0.70903(17) 0.4171(4)
H54 H 0.6480 0.7465 0.4139
C50 C 0.64167(18) 0.67656(18) 0.4683(4)
H55 H 0.6765 0.6920 0.5005
C51 C 0.60786(17) 0.62147(17) 0.4729(4)
H56 H 0.6199 0.5993 0.5063
C52 C 0.1161(2) 0.2697(2) 0.5934(6)
H57 H 0.0933 0.2854 0.5768
H58 H 0.0970 0.2406 0.6507
N1 N 0.67251(13) 0.48099(14) 0.3283(3)
H59 H 0.6982(15) 0.4738(19) 0.309(5)
N2 N 0.72742(14) 0.54238(15) 0.4612(3)
H60 H 0.7503(16) 0.533(2) 0.439(5)
N3 N 0.50621(13) 0.35070(13) 0.5745(3)
H61 H 0.5169(18) 0.3854(9) 0.571(5)
N4 N 0.56601(14) 0.37597(13) 0.7255(3)
H62 H 0.5750(19) 0.4095(10) 0.715(5)
N5 N 0.44972(14) 0.46106(13) 0.4372(3)
H63 H 0.4744(16) 0.4618(19) 0.483(4)
N6 N 0.52295(14) 0.54397(14) 0.4425(3)
H64 H 0.5358(19) 0.5289(18) 0.488(4)
O1 O 0.16743(14) 0.36815(15) 0.5167(3)
O2 O 0.16529(14) 0.31006(15) 0.6456(4)
O3 O 0.63973(11) 0.51940(12) 0.4535(3)
O4 O 0.51421(11) 0.28775(11) 0.6758(3)
O5 O 0.45441(12) 0.52523(12) 0.3147(3)
O6 O 0.54796(12) 0.46949(12) 0.5783(3)
H65 H 0.551(2) 0.478(2) 0.648(2)
H66 H 0.5764(13) 0.4804(19) 0.543(4)
O7 O 0.2226(3) 0.1858(3) 0.6676(6)
O8 O 0.2555(4) 0.1840(4) 0.8338(11)
C53 C 0.2107(4) 0.2315(4) 0.8349(10)
H67 H 0.2227 0.2333 0.9157
H68 H 0.1717 0.2148 0.8334
H69 H 0.2267 0.2675 0.8024
C54 C 0.2268(6) 0.1997(6) 0.7653(12)
C55 C 0.2816(5) 0.1581(4) 0.7746(10)
H70 H 0.3007 0.1489 0.8322
H71 H 0.3068 0.1824 0.7164
H72 H 0.2545 0.1255 0.7358
O9? O 0.2441(6) 0.2030(6) 0.8504(16)
H73? H 0.2077 0.2458 0.9103
H74? H 0.1750 0.2057 0.8063
H75? H 0.2284 0.2606 0.7785
C56? C 0.2477(9) 0.1831(7) 0.7532(14)
H76? H 0.2901 0.1602 0.8580
H77? H 0.3146 0.1771 0.7295
H78? H 0.2620 0.1206 0.7504
loop_
_geom_bond_atom_site_label_1
_geom_bond_atom_site_label_2
_geom_bond_site_symmetry_1
_geom_bond_site_symmetry_2
C1 H1 1_555 1_555
H2 C1 1_555 1_555
C2 C1 1_555 1_555
H3 C2 1_555 1_555
H4 C2 1_555 1_555
C3 C2 1_555 1_555
H5 C3 1_555 1_555
C4 C3 1_555 1_555
H6 C4 1_555 1_555
H7 C4 1_555 1_555
C5 C4 1_555 1_555
H8 C5 1_555 1_555
C6 C5 1_555 1_555
H9 C6 1_555 1_555
H10 C6 1_555 1_555
C7 C6 1_555 1_555
H11 C7 1_555 1_555
C8 C7 1_555 1_555
H12 C8 1_555 1_555
C9 C1 1_555 1_555
C10 C8 1_555 1_555
H13 C10 1_555 1_555
C11 C10 1_555 1_555
H14 C11 1_555 1_555
H15 C11 1_555 1_555
C12 C11 1_555 1_555
H16 C12 1_555 1_555
C13 C12 1_555 1_555
C14 C8 1_555 1_555
H17 C14 1_555 1_555
C15 C14 1_555 1_555
H18 C15 1_555 1_555
H19 C15 1_555 1_555
C16 C15 1_555 1_555
H20 C16 1_555 1_555
H21 C16 1_555 1_555
C17 C13 1_555 1_555
H22 C17 1_555 1_555
C18 C13 1_555 1_555
H23 C18 1_555 1_555
H24 C18 1_555 1_555
H25 C18 1_555 1_555
C19 C9 1_555 1_555
H26 C19 1_555 1_555
H27 C19 1_555 1_555
H28 C19 1_555 1_555
C20 C17 1_555 1_555
H29 C20 1_555 1_555
C21 C20 1_555 1_555
H30 C21 1_555 1_555
H31 C21 1_555 1_555
H32 C21 1_555 1_555
C22 C20 1_555 1_555
H33 C22 1_555 1_555
H34 C22 1_555 1_555
C23 C22 1_555 1_555
H35 C23 1_555 1_555
H36 C23 1_555 1_555
C24 C23 1_555 1_555
C25 C26 1_555 1_555
C26 H37 1_555 1_555
C27 C26 1_555 1_555
H38 C27 1_555 1_555
C28 C27 1_555 1_555
H39 C28 1_555 1_555
C29 C28 1_555 1_555
H40 C29 1_555 1_555
C30 C25 1_555 1_555
H41 C30 1_555 1_555
C31 N1 1_555 1_555
C32 N3 1_555 1_555
C33 N5 1_555 1_555
C34 C35 1_555 1_555
C35 H42 1_555 1_555
C36 C35 1_555 1_555
H43 C36 1_555 1_555
C37 C36 1_555 1_555
H44 C37 1_555 1_555
C38 C37 1_555 1_555
H45 C38 1_555 1_555
C39 C34 1_555 1_555
H46 C39 1_555 1_555
C40 C41 1_555 1_555
C41 H47 1_555 1_555
C42 C41 1_555 1_555
H48 C42 1_555 1_555
C43 C42 1_555 1_555
H49 C43 1_555 1_555
C44 C43 1_555 1_555
H50 C44 1_555 1_555
C45 C40 1_555 1_555
H51 C45 1_555 1_555
C46 C47 1_555 1_555
C47 H52 1_555 1_555
C48 C47 1_555 1_555
H53 C48 1_555 1_555
C49 C48 1_555 1_555
H54 C49 1_555 1_555
C50 C49 1_555 1_555
H55 C50 1_555 1_555
C51 C46 1_555 1_555
H56 C51 1_555 1_555
C52 C25 1_555 1_555
H57 C52 1_555 1_555
H58 C52 1_555 1_555
N1 C3 1_555 1_555
H59 N1 1_555 1_555
N2 C31 1_555 1_555
H60 N2 1_555 1_555
N3 C7 1_555 1_555
H61 N3 1_555 1_555
N4 C32 1_555 1_555
H62 N4 1_555 1_555
N5 C12 1_555 1_555
H63 N5 1_555 1_555
N6 C33 1_555 1_555
H64 N6 1_555 1_555
O1 C24 1_555 1_555
O2 C24 1_555 1_555
O3 C31 1_555 1_555
O4 C32 1_555 1_555
O5 C33 1_555 1_555
O6 H65 1_555 1_555
H66 O6 1_555 1_555
O7 C54 1_555 1_555
O8 C54 1_555 1_555
C53 H67 1_555 1_555
H68 C53 1_555 1_555
H69 C53 1_555 1_555
C54 C53 1_555 1_555
C55 O8 1_555 1_555
H70 C55 1_555 1_555
H71 C55 1_555 1_555
H72 C55 1_555 1_555
C5 C9 1_555 1_555
C9 C10 1_555 1_555
C13 C14 1_555 1_555
C16 C17 1_555 1_555
C29 C30 1_555 1_555
C34 N2 1_555 1_555
C38 C39 1_555 1_555
C40 N4 1_555 1_555
C44 C45 1_555 1_555
C46 N6 1_555 1_555
C50 C51 1_555 1_555
C52 O2 1_555 1_555

#END
