
#######################################################################
#
#                 Cambridge Crystallographic Data Centre
#                                CCDC 
#
#######################################################################
#
# If this CIF has been generated from an entry in the Cambridge 
# Structural Database, then it will include bibliographic, chemical, 
# crystal, experimental, refinement or atomic coordinate data resulting 
# from the CCDC's data processing and validation procedures.
#
#######################################################################

data_SIMSEP
_chemical_formula_moiety         'C30 H31 Br1 N2 O3'
_chemical_name_systematic        
"methyl 4-([1,1'-biphenyl]-4-yl)-6-(4-bromophenyl)-6-(diethylcarbamoyl)-3-azabicyclo[3.1.0]hexane-2-carboxylate"
_symmetry_cell_setting           monoclinic
_symmetry_space_group_name_H-M   'P 21'
_symmetry_Int_Tables_number      4
_space_group_name_Hall           'P 2yb'
loop_
_symmetry_equiv_pos_site_id
_symmetry_equiv_pos_as_xyz
1 x,y,z
2 -x,1/2+y,-z
_cell_length_a                   13.248(2)
_cell_length_b                   7.6262(12)
_cell_length_c                   27.213(4)
_cell_angle_alpha                90
_cell_angle_beta                 97.298(3)
_cell_angle_gamma                90
_cell_volume                     2727.11
_exptl_crystal_colour            colorless
_exptl_crystal_description       block
_cell_formula_units_Z            4
loop_
_atom_site_label
_atom_site_type_symbol
_atom_site_fract_x
_atom_site_fract_y
_atom_site_fract_z
Br1 Br 0.82172(9) 0.7831(2) 0.52626(3)
O1 O 1.0789(4) 0.5035(9) 0.3107(2)
O2 O 0.9277(5) 0.8124(11) 0.1550(2)
O3 O 0.8680(6) 0.9661(10) 0.2136(3)
N1 N 0.9948(5) 0.2678(11) 0.3315(2)
N2 N 0.9229(5) 0.5100(9) 0.2127(2)
H1 H 0.9595 0.4647 0.1921
C1 C 0.8477(8) 0.7036(12) 0.4625(3)
C2 C 0.7667(6) 0.6981(12) 0.4254(3)
H2 H 0.7021 0.7332 0.4312
C3 C 0.7843(6) 0.6393(11) 0.3798(3)
H3 H 0.7297 0.6306 0.3548
C4 C 0.8801(6) 0.5923(11) 0.3692(3)
C5 C 0.9030(5) 0.5418(10) 0.3179(3)
C6 C 0.9985(6) 0.4314(12) 0.3188(3)
C7 C 0.9023(7) 0.1715(13) 0.3424(3)
H4 H 0.8428 0.2429 0.3321
H5 H 0.8960 0.0643 0.3231
C8 C 0.9040(8) 0.1266(17) 0.3955(4)
H6 H 0.8415 0.0692 0.4004
H7 H 0.9113 0.2318 0.4150
H8 H 0.9602 0.0496 0.4056
C9 C 1.0883(7) 0.1617(14) 0.3356(4)
H9 H 1.0825 0.0684 0.3593
H10 H 1.1451 0.2351 0.3487
C10 C 1.1119(9) 0.0818(19) 0.2885(5)
H11 H 1.1130 0.1717 0.2638
H12 H 1.0607 -0.0032 0.2773
H13 H 1.1771 0.0256 0.2939
C11 C 0.8795(5) 0.6835(11) 0.2791(3)
H14 H 0.8503 0.7942 0.2889
C12 C 0.9402(6) 0.6841(11) 0.2347(3)
H15 H 1.0127 0.6972 0.2467
C13 C 0.8358(6) 0.4221(11) 0.2300(3)
H16 H 0.8543 0.3009 0.2391
C14 C 0.8147(6) 0.5231(11) 0.2763(3)
H17 H 0.7447 0.5316 0.2842
C15 C 0.7415(6) 0.4223(11) 0.1900(3)
C16 C 0.6960(6) 0.2638(12) 0.1766(3)
H18 H 0.7197 0.1610 0.1925
C17 C 0.6132(6) 0.2592(14) 0.1387(3)
H19 H 0.5819 0.1522 0.1304
C18 C 0.5775(6) 0.4050(12) 0.1139(3)
C19 C 0.6255(6) 0.5606(13) 0.1284(3)
H20 H 0.6036 0.6630 0.1118
C20 C 0.7050(6) 0.5709(13) 0.1667(4)
H21 H 0.7332 0.6792 0.1764
C21 C 0.4932(6) 0.3958(12) 0.0722(3)
C22 C 0.4068(6) 0.3023(16) 0.0776(3)
H22 H 0.4017 0.2412 0.1067
C23 C 0.3260(7) 0.300(2) 0.0386(4)
H23 H 0.2684 0.2343 0.0427
C24 C 0.3277(9) 0.3843(18) -0.0031(5)
H24 H 0.2740 0.3752 -0.0285
C25 C 0.4124(9) 0.489(2) -0.0084(4)
H25 H 0.4144 0.5542 -0.0371
C26 C 0.4943(8) 0.4955(17) 0.0299(3)
H26 H 0.5497 0.5675 0.0267
C27 C 0.9061(6) 0.8389(12) 0.2000(3)
C28 C 0.8982(8) 0.9544(16) 0.1193(4)
H27 H 0.9273 0.9331 0.0894
H28 H 0.9225 1.0645 0.1333
H29 H 0.8254 0.9583 0.1121
C29 C 0.9594(7) 0.6026(14) 0.4079(3)
H30 H 1.0248 0.5706 0.4025
C30 C 0.9424(7) 0.6598(14) 0.4545(3)
H31 H 0.9961 0.6678 0.4800
Br2 Br 0.31672(9) 0.7793(2) 0.52297(3)
O4 O 0.5867(4) 0.4627(9) 0.3169(2)
O5 O 0.3979(5) 0.6676(11) 0.1491(2)
O6 O 0.3936(8) 0.8869(11) 0.2017(3)
N3 N 0.4997(6) 0.2248(10) 0.3360(3)
N4 N 0.4337(5) 0.4222(10) 0.2204(3)
H32 H 0.4761 0.3603 0.2063
C31 C 0.3464(7) 0.6931(12) 0.4604(3)
C32 C 0.2676(6) 0.6912(12) 0.4217(3)
H33 H 0.2031 0.7320 0.4259
C33 C 0.2881(6) 0.6264(12) 0.3764(3)
H34 H 0.2354 0.6209 0.3503
C34 C 0.3852(5) 0.5689(10) 0.3684(3)
C35 C 0.4098(5) 0.5033(10) 0.3193(2)
C36 C 0.5044(6) 0.3914(11) 0.3234(3)
C37 C 0.4074(6) 0.1347(13) 0.3480(4)
H35 H 0.4004 0.0240 0.3304
H36 H 0.3484 0.2058 0.3366
C38 C 0.4093(9) 0.1006(16) 0.4020(4)
H37 H 0.3487 0.0390 0.4076
H38 H 0.4127 0.2101 0.4196
H39 H 0.4678 0.0309 0.4136
C39 C 0.5924(7) 0.1203(15) 0.3397(4)
H40 H 0.5894 0.0311 0.3649
H41 H 0.6501 0.1955 0.3505
C40 C 0.6095(10) 0.035(2) 0.2930(5)
H42 H 0.6327 0.1198 0.2711
H43 H 0.5469 -0.0164 0.2778
H44 H 0.6599 -0.0556 0.2998
C41 C 0.3870(6) 0.6327(12) 0.2770(3)
H45 H 0.3586 0.7481 0.2833
C42 C 0.4476(6) 0.6075(12) 0.2324(3)
H46 H 0.5198 0.6285 0.2436
C43 C 0.3398(5) 0.3546(11) 0.2352(3)
H47 H 0.3510 0.2341 0.2472
C44 C 0.3224(5) 0.4722(10) 0.2784(3)
H48 H 0.2527 0.4862 0.2862
C45 C 0.2495(6) 0.3574(11) 0.1938(3)
C46 C 0.1937(6) 0.5048(12) 0.1824(3)
H49 H 0.2084 0.6070 0.2005
C47 C 0.1149(6) 0.5025(12) 0.1437(3)
H50 H 0.0786 0.6052 0.1358
C48 C 0.0884(6) 0.3524(11) 0.1164(3)
C49 C 0.1465(6) 0.2025(12) 0.1287(3)
H51 H 0.1318 0.0993 0.1110
C50 C 0.2267(6) 0.2066(12) 0.1673(3)
H52 H 0.2650 0.1059 0.1752
C51 C 0.0012(6) 0.3506(11) 0.0752(3)
C52 C -0.0875(7) 0.4304(13) 0.0822(3)
H53 H -0.0926 0.4878 0.1119
C53 C -0.1701(7) 0.4279(16) 0.0459(3)
H54 H -0.2287 0.4891 0.0509
C54 C -0.1681(8) 0.3392(15) 0.0034(4)
H55 H -0.2252 0.3341 -0.0203
C55 C -0.0798(9) 0.2569(19) -0.0041(3)
H56 H -0.0764 0.1990 -0.0339
C56 C 0.0062(7) 0.2571(14) 0.0320(3)
H57 H 0.0648 0.1962 0.0270
C57 C 0.4120(7) 0.7392(17) 0.1932(3)
C58 C 0.3636(10) 0.786(2) 0.1090(4)
H58 H 0.3781 0.7363 0.0783
H59 H 0.3983 0.8962 0.1144
H60 H 0.2916 0.8042 0.1078
C59 C 0.4605(6) 0.5772(13) 0.4092(3)
H61 H 0.5262 0.5415 0.4056
C60 C 0.4401(7) 0.6365(14) 0.4546(3)
H62 H 0.4912 0.6374 0.4814
loop_
_geom_bond_atom_site_label_1
_geom_bond_atom_site_label_2
_geom_bond_site_symmetry_1
_geom_bond_site_symmetry_2
Br1 C1 1_555 1_555
O1 C6 1_555 1_555
O2 C27 1_555 1_555
O3 C27 1_555 1_555
N1 C6 1_555 1_555
N2 H1 1_555 1_555
C1 C2 1_555 1_555
C2 H2 1_555 1_555
C3 C2 1_555 1_555
H3 C3 1_555 1_555
C4 C3 1_555 1_555
C5 C4 1_555 1_555
C6 C5 1_555 1_555
C7 N1 1_555 1_555
H4 C7 1_555 1_555
H5 C7 1_555 1_555
C8 C7 1_555 1_555
H6 C8 1_555 1_555
H7 C8 1_555 1_555
H8 C8 1_555 1_555
C9 N1 1_555 1_555
H9 C9 1_555 1_555
H10 C9 1_555 1_555
C10 C9 1_555 1_555
H11 C10 1_555 1_555
H12 C10 1_555 1_555
H13 C10 1_555 1_555
C11 C5 1_555 1_555
H14 C11 1_555 1_555
C12 N2 1_555 1_555
H15 C12 1_555 1_555
C13 N2 1_555 1_555
H16 C13 1_555 1_555
C14 C5 1_555 1_555
H17 C14 1_555 1_555
C15 C13 1_555 1_555
C16 C15 1_555 1_555
H18 C16 1_555 1_555
C17 C16 1_555 1_555
H19 C17 1_555 1_555
C18 C17 1_555 1_555
C19 C18 1_555 1_555
H20 C19 1_555 1_555
C20 C15 1_555 1_555
H21 C20 1_555 1_555
C21 C18 1_555 1_555
C22 C21 1_555 1_555
H22 C22 1_555 1_555
C23 C22 1_555 1_555
H23 C23 1_555 1_555
C24 C23 1_555 1_555
H24 C24 1_555 1_555
C25 C24 1_555 1_555
H25 C25 1_555 1_555
C26 C21 1_555 1_555
H26 C26 1_555 1_555
C27 C12 1_555 1_555
C28 O2 1_555 1_555
H27 C28 1_555 1_555
H28 C28 1_555 1_555
H29 C28 1_555 1_555
C29 C4 1_555 1_555
H30 C29 1_555 1_555
C30 C1 1_555 1_555
H31 C30 1_555 1_555
Br2 C31 1_555 1_555
O4 C36 1_555 1_555
O5 C57 1_555 1_555
O6 C57 1_555 1_555
N3 C36 1_555 1_555
N4 H32 1_555 1_555
C31 C32 1_555 1_555
C32 H33 1_555 1_555
C33 C32 1_555 1_555
H34 C33 1_555 1_555
C34 C33 1_555 1_555
C35 C34 1_555 1_555
C36 C35 1_555 1_555
C37 N3 1_555 1_555
H35 C37 1_555 1_555
H36 C37 1_555 1_555
C38 C37 1_555 1_555
H37 C38 1_555 1_555
H38 C38 1_555 1_555
H39 C38 1_555 1_555
C39 N3 1_555 1_555
H40 C39 1_555 1_555
H41 C39 1_555 1_555
C40 C39 1_555 1_555
H42 C40 1_555 1_555
H43 C40 1_555 1_555
H44 C40 1_555 1_555
C41 C35 1_555 1_555
H45 C41 1_555 1_555
C42 N4 1_555 1_555
H46 C42 1_555 1_555
C43 N4 1_555 1_555
H47 C43 1_555 1_555
C44 C35 1_555 1_555
H48 C44 1_555 1_555
C45 C43 1_555 1_555
C46 C45 1_555 1_555
H49 C46 1_555 1_555
C47 C46 1_555 1_555
H50 C47 1_555 1_555
C48 C47 1_555 1_555
C49 C48 1_555 1_555
H51 C49 1_555 1_555
C50 C45 1_555 1_555
H52 C50 1_555 1_555
C51 C48 1_555 1_555
C52 C51 1_555 1_555
H53 C52 1_555 1_555
C53 C52 1_555 1_555
H54 C53 1_555 1_555
C54 C53 1_555 1_555
H55 C54 1_555 1_555
C55 C54 1_555 1_555
H56 C55 1_555 1_555
C56 C51 1_555 1_555
H57 C56 1_555 1_555
C57 C42 1_555 1_555
C58 O5 1_555 1_555
H58 C58 1_555 1_555
H59 C58 1_555 1_555
H60 C58 1_555 1_555
C59 C34 1_555 1_555
H61 C59 1_555 1_555
C60 C31 1_555 1_555
H62 C60 1_555 1_555
C11 C12 1_555 1_555
C11 C14 1_555 1_555
C13 C14 1_555 1_555
C19 C20 1_555 1_555
C25 C26 1_555 1_555
C29 C30 1_555 1_555
C41 C42 1_555 1_555
C41 C44 1_555 1_555
C43 C44 1_555 1_555
C49 C50 1_555 1_555
C55 C56 1_555 1_555
C59 C60 1_555 1_555

#END
