
#######################################################################
#
#                 Cambridge Crystallographic Data Centre
#                                CCDC 
#
#######################################################################
#
# If this CIF has been generated from an entry in the Cambridge 
# Structural Database, then it will include bibliographic, chemical, 
# crystal, experimental, refinement or atomic coordinate data resulting 
# from the CCDC's data processing and validation procedures.
#
#######################################################################

data_SIMYUJ
_chemical_formula_moiety         'C33 H26 N4'
_chemical_name_systematic        
5-(4'-Methylbiphenyl-2-yl)-2-triphenylmethyl-2H-tetrazole
_symmetry_cell_setting           monoclinic
_symmetry_space_group_name_H-M   'P 21/c'
_symmetry_Int_Tables_number      14
_space_group_name_Hall           '-P 2ybc'
loop_
_symmetry_equiv_pos_site_id
_symmetry_equiv_pos_as_xyz
1 x,y,z
2 -x,1/2+y,1/2-z
3 -x,-y,-z
4 x,1/2-y,1/2+z
_cell_length_a                   12.529(3)
_cell_length_b                   12.710(3)
_cell_length_c                   17.707(7)
_cell_angle_alpha                90
_cell_angle_beta                 113.58(2)
_cell_angle_gamma                90
_cell_volume                     2584.29
_exptl_crystal_colour            colorless
_exptl_crystal_description       block
_cell_formula_units_Z            4
_exptl_crystal_recrystallization_method 'ethyl acetate'
loop_
_atom_site_label
_atom_site_type_symbol
_atom_site_fract_x
_atom_site_fract_y
_atom_site_fract_z
N1 N -0.14908(13) -0.37059(12) -0.19321(9)
N2 N -0.23004(12) -0.32303(11) -0.25762(8)
N3 N -0.24932(14) -0.22479(12) -0.24201(10)
N4 N -0.17693(15) -0.20571(13) -0.16526(9)
C1 C -0.11690(15) -0.29541(14) -0.13699(10)
C2 C -0.03109(15) -0.31302(14) -0.05191(11)
C3 C -0.06098(18) -0.28582(17) 0.01298(12)
H1 H -0.1294 -0.2487 0.0027
C4 C 0.0102(2) -0.31350(18) 0.09289(12)
H2 H -0.0094 -0.2940 0.1364
C5 C 0.1101(2) -0.37015(18) 0.10759(12)
H3 H 0.1558 -0.3928 0.1607
C6 C 0.14280(18) -0.39344(16) 0.04398(12)
H4 H 0.2117 -0.4301 0.0551
C7 C 0.07479(16) -0.36322(14) -0.03679(11)
C8 C 0.11918(15) -0.37666(14) -0.10199(11)
C9 C 0.12820(16) -0.28925(15) -0.14663(11)
H5 H 0.1028 -0.2240 -0.1367
C10 C 0.17390(17) -0.29793(17) -0.20499(12)
H6 H 0.1801 -0.2381 -0.2332
C11 C 0.21097(16) -0.39364(18) -0.22289(12)
C12 C 0.20315(18) -0.48008(17) -0.17856(13)
H7 H 0.2282 -0.5452 -0.1891
C13 C 0.15893(17) -0.47219(15) -0.11889(13)
H8 H 0.1557 -0.5318 -0.0895
C14 C 0.2569(2) -0.4027(2) -0.28951(15)
H9 H 0.1971 -0.3826 -0.3415
H10 H 0.2799 -0.4741 -0.2926
H11 H 0.3229 -0.3571 -0.2768
C15 C -0.39586(15) -0.30452(14) -0.39002(10)
C16 C -0.51412(17) -0.31788(16) -0.41246(12)
H12 H -0.5408 -0.3732 -0.3903
C17 C -0.5932(2) -0.2493(2) -0.46775(15)
H13 H -0.6726 -0.2594 -0.4827
C18 C -0.5559(2) -0.1677(2) -0.50024(15)
H14 H -0.6095 -0.1219 -0.5371
C19 C -0.4384(2) -0.15294(17) -0.47857(14)
H15 H -0.4127 -0.0969 -0.5007
C20 C -0.35856(18) -0.22107(15) -0.42406(12)
H16 H -0.2794 -0.2110 -0.4101
C21 C -0.36339(14) -0.47084(14) -0.30304(11)
C22 C -0.38884(18) -0.56707(16) -0.34185(13)
H17 H -0.3672 -0.5810 -0.3853
C23 C -0.4464(2) -0.6433(2) -0.31673(18)
H18 H -0.4638 -0.7076 -0.3440
C24 C -0.4779(2) -0.6253(2) -0.25255(18)
H19 H -0.5163 -0.6771 -0.2359
C25 C -0.4523(2) -0.5303(2) -0.21283(16)
H20 H -0.4730 -0.5177 -0.1687
C26 C -0.39603(18) -0.45281(18) -0.23792(13)
H21 H -0.3800 -0.3882 -0.2110
C27 C -0.23312(15) -0.42746(13) -0.37810(11)
C28 C -0.11894(16) -0.46003(16) -0.33885(13)
H22 H -0.0799 -0.4502 -0.2823
C29 C -0.06194(18) -0.50713(17) -0.38280(16)
H23 H 0.0153 -0.5278 -0.3554
C30 C -0.1168(2) -0.52379(18) -0.46542(16)
H24 H -0.0782 -0.5564 -0.4943
C31 C -0.2307(2) -0.4914(2) -0.50548(15)
H25 H -0.2691 -0.5017 -0.5620
C32 C -0.28783(19) -0.44413(18) -0.46285(12)
H26 H -0.3647 -0.4228 -0.4910
C33 C -0.30591(14) -0.38266(13) -0.33318(10)
loop_
_geom_bond_atom_site_label_1
_geom_bond_atom_site_label_2
_geom_bond_site_symmetry_1
_geom_bond_site_symmetry_2
N1 N2 1_555 1_555
N2 N3 1_555 1_555
N3 N4 1_555 1_555
N4 C1 1_555 1_555
C1 N1 1_555 1_555
C2 C1 1_555 1_555
C3 C2 1_555 1_555
H1 C3 1_555 1_555
C4 C3 1_555 1_555
H2 C4 1_555 1_555
C5 C4 1_555 1_555
H3 C5 1_555 1_555
C6 C5 1_555 1_555
H4 C6 1_555 1_555
C7 C2 1_555 1_555
C8 C7 1_555 1_555
C9 C8 1_555 1_555
H5 C9 1_555 1_555
C10 C9 1_555 1_555
H6 C10 1_555 1_555
C11 C10 1_555 1_555
C12 C11 1_555 1_555
H7 C12 1_555 1_555
C13 C8 1_555 1_555
H8 C13 1_555 1_555
C14 C11 1_555 1_555
H9 C14 1_555 1_555
H10 C14 1_555 1_555
H11 C14 1_555 1_555
C15 C16 1_555 1_555
C16 H12 1_555 1_555
C17 C16 1_555 1_555
H13 C17 1_555 1_555
C18 C17 1_555 1_555
H14 C18 1_555 1_555
C19 C18 1_555 1_555
H15 C19 1_555 1_555
C20 C15 1_555 1_555
H16 C20 1_555 1_555
C21 C22 1_555 1_555
C22 H17 1_555 1_555
C23 C22 1_555 1_555
H18 C23 1_555 1_555
C24 C23 1_555 1_555
H19 C24 1_555 1_555
C25 C24 1_555 1_555
H20 C25 1_555 1_555
C26 C21 1_555 1_555
H21 C26 1_555 1_555
C27 C28 1_555 1_555
C28 H22 1_555 1_555
C29 C28 1_555 1_555
H23 C29 1_555 1_555
C30 C29 1_555 1_555
H24 C30 1_555 1_555
C31 C30 1_555 1_555
H25 C31 1_555 1_555
C32 C27 1_555 1_555
H26 C32 1_555 1_555
C33 N2 1_555 1_555
C6 C7 1_555 1_555
C12 C13 1_555 1_555
C15 C33 1_555 1_555
C19 C20 1_555 1_555
C21 C33 1_555 1_555
C25 C26 1_555 1_555
C27 C33 1_555 1_555
C31 C32 1_555 1_555

#END
