
#######################################################################
#
#                 Cambridge Crystallographic Data Centre
#                                CCDC 
#
#######################################################################
#
# If this CIF has been generated from an entry in the Cambridge 
# Structural Database, then it will include bibliographic, chemical, 
# crystal, experimental, refinement or atomic coordinate data resulting 
# from the CCDC's data processing and validation procedures.
#
#######################################################################

data_SINGUT
_chemical_formula_moiety         'C33 H36 Si1'
_chemical_name_systematic        
7,8-Dihydronaphtho[2',1':5,6]pentaleno[1,2-a]naphthalen-7-yl(triisopropyl)silane
_symmetry_cell_setting           monoclinic
_symmetry_space_group_name_H-M   'P 21/c'
_symmetry_Int_Tables_number      14
_space_group_name_Hall           '-P 2ybc'
loop_
_symmetry_equiv_pos_site_id
_symmetry_equiv_pos_as_xyz
1 x,y,z
2 -x,1/2+y,1/2-z
3 -x,-y,-z
4 x,1/2-y,1/2+z
_cell_length_a                   8.8447(4)
_cell_length_b                   18.3363(9)
_cell_length_c                   17.4324(6)
_cell_angle_alpha                90
_cell_angle_beta                 114.902(2)
_cell_angle_gamma                90
_cell_volume                     2564.33
_exptl_crystal_colour            'orangish yellow'
_exptl_crystal_description       prism
_cell_formula_units_Z            4
loop_
_atom_site_label
_atom_site_type_symbol
_atom_site_fract_x
_atom_site_fract_y
_atom_site_fract_z
Si1 Si -0.12244(5) 0.46771(2) 0.24192(3)
C1 C 0.0239(2) 0.55634(10) 0.39306(11)
H1 H 0.1304 0.5590 0.3884
H2 H 0.0225 0.5127 0.4252
H3 H 0.0104 0.5998 0.4223
C2 C -0.1196(2) 0.55230(9) 0.30420(10)
H4 H -0.2241 0.5504 0.3130
C3 C 0.04141(19) 0.47108(9) 0.19568(10)
H5 H 0.0447 0.4228 0.1697
C4 C 0.01701(19) 0.52994(9) 0.13270(10)
C5 C 0.14842(19) 0.57711(8) 0.15896(9)
C6 C 0.1271(2) 0.62801(9) 0.08976(10)
C7 C 0.2332(2) 0.67775(9) 0.07331(10)
C8 C 0.4063(2) 0.68307(9) 0.12303(11)
H6 H 0.4573 0.6521 0.1708
C9 C 0.5028(2) 0.73211(10) 0.10384(12)
H7 H 0.6189 0.7352 0.1388
C10 C 0.4306(3) 0.77770(10) 0.03263(13)
H8 H 0.4967 0.8132 0.0212
C11 C -0.0503(3) 0.31380(10) 0.27647(14)
H9 H -0.0142 0.2758 0.3201
H10 H 0.0331 0.3193 0.2536
H11 H -0.1575 0.3000 0.2309
C12 C -0.0695(2) 0.38629(9) 0.31534(11)
H12 H 0.0428 0.3970 0.3615
C13 C -0.1139(2) 0.55006(9) 0.04765(10)
H13 H -0.2196 0.5639 0.0505
H14 H -0.1353 0.5098 0.0065
C14 C -0.0340(2) 0.61451(10) 0.02566(11)
C15 C 0.1631(2) 0.72083(9) -0.00275(11)
C16 C -0.0043(3) 0.70925(10) -0.06071(11)
H15 H -0.0518 0.7395 -0.1093
C17 C -0.0998(2) 0.65563(10) -0.04872(11)
H16 H -0.2094 0.6465 -0.0904
C18 C 0.2656(3) 0.77086(10) -0.01988(12)
H17 H 0.2188 0.8005 -0.0691
C19 C 0.26618(19) 0.55636(9) 0.24482(10)
C20 C 0.40729(19) 0.59200(9) 0.30907(10)
C21 C 0.4430(2) 0.66786(10) 0.30783(11)
H18 H 0.3691 0.6977 0.2633
C22 C 0.5818(2) 0.69801(10) 0.36976(12)
H19 H 0.6045 0.7484 0.3672
C23 C 0.6924(2) 0.65519(11) 0.43765(11)
H20 H 0.7915 0.6760 0.4791
C24 C 0.6552(2) 0.58391(11) 0.44290(11)
H21 H 0.7282 0.5557 0.4895
C25 C 0.5107(2) 0.55038(10) 0.38092(10)
C26 C 0.4658(2) 0.47806(9) 0.38979(11)
H22 H 0.5397 0.4492 0.4354
C27 C 0.3171(2) 0.44846(9) 0.33382(10)
H23 H 0.2848 0.4011 0.3433
C28 C 0.21289(19) 0.48902(9) 0.26223(10)
C29 C -0.1294(2) 0.62338(9) 0.25604(12)
H24 H -0.1566 0.6638 0.2848
H25 H -0.2161 0.6190 0.1982
H26 H -0.0217 0.6327 0.2544
C30 C -0.3347(2) 0.46418(10) 0.14926(11)
H27 H -0.3504 0.5130 0.1213
C31 C -0.4790(2) 0.45616(13) 0.17556(13)
H28 H -0.5841 0.4686 0.1277
H29 H -0.4611 0.4890 0.2229
H30 H -0.4840 0.4057 0.1929
C32 C -0.3526(2) 0.40852(12) 0.08081(12)
H31 H -0.3485 0.3591 0.1031
H32 H -0.2614 0.4148 0.0635
H33 H -0.4595 0.4158 0.0319
C33 C -0.1868(3) 0.37718(12) 0.35944(14)
H34 H -0.2944 0.3581 0.3189
H35 H -0.2035 0.4246 0.3807
H36 H -0.1372 0.3430 0.4068
loop_
_geom_bond_atom_site_label_1
_geom_bond_atom_site_label_2
_geom_bond_site_symmetry_1
_geom_bond_site_symmetry_2
Si1 C2 1_555 1_555
C1 H1 1_555 1_555
H2 C1 1_555 1_555
H3 C1 1_555 1_555
C2 C1 1_555 1_555
H4 C2 1_555 1_555
C3 Si1 1_555 1_555
H5 C3 1_555 1_555
C4 C3 1_555 1_555
C5 C4 1_555 1_555
C6 C5 1_555 1_555
C7 C6 1_555 1_555
C8 C7 1_555 1_555
H6 C8 1_555 1_555
C9 C8 1_555 1_555
H7 C9 1_555 1_555
C10 C9 1_555 1_555
H8 C10 1_555 1_555
C11 H9 1_555 1_555
H10 C11 1_555 1_555
H11 C11 1_555 1_555
C12 Si1 1_555 1_555
H12 C12 1_555 1_555
C13 C4 1_555 1_555
H13 C13 1_555 1_555
H14 C13 1_555 1_555
C14 C6 1_555 1_555
C15 C7 1_555 1_555
C16 C15 1_555 1_555
H15 C16 1_555 1_555
C17 C14 1_555 1_555
H16 C17 1_555 1_555
C18 C10 1_555 1_555
H17 C18 1_555 1_555
C19 C5 1_555 1_555
C20 C19 1_555 1_555
C21 C20 1_555 1_555
H18 C21 1_555 1_555
C22 C21 1_555 1_555
H19 C22 1_555 1_555
C23 C22 1_555 1_555
H20 C23 1_555 1_555
C24 C23 1_555 1_555
H21 C24 1_555 1_555
C25 C20 1_555 1_555
C26 C25 1_555 1_555
H22 C26 1_555 1_555
C27 C26 1_555 1_555
H23 C27 1_555 1_555
C28 C3 1_555 1_555
C29 C2 1_555 1_555
H24 C29 1_555 1_555
H25 C29 1_555 1_555
H26 C29 1_555 1_555
C30 Si1 1_555 1_555
H27 C30 1_555 1_555
C31 C30 1_555 1_555
H28 C31 1_555 1_555
H29 C31 1_555 1_555
H30 C31 1_555 1_555
C32 C30 1_555 1_555
H31 C32 1_555 1_555
H32 C32 1_555 1_555
H33 C32 1_555 1_555
C33 C12 1_555 1_555
H34 C33 1_555 1_555
H35 C33 1_555 1_555
H36 C33 1_555 1_555
C11 C12 1_555 1_555
C13 C14 1_555 1_555
C15 C18 1_555 1_555
C16 C17 1_555 1_555
C19 C28 1_555 1_555
C24 C25 1_555 1_555
C27 C28 1_555 1_555

#END
