
#######################################################################
#
#                 Cambridge Crystallographic Data Centre
#                                CCDC 
#
#######################################################################
#
# If this CIF has been generated from an entry in the Cambridge 
# Structural Database, then it will include bibliographic, chemical, 
# crystal, experimental, refinement or atomic coordinate data resulting 
# from the CCDC's data processing and validation procedures.
#
#######################################################################

data_SINJAD
_chemical_formula_moiety         'C20 H15 N7 O1'
_chemical_name_systematic        
1-phenyl-5-[(1-phenyl-1H-1,2,3-triazol-4-yl)methyl]-1,5-dihydro-4H-pyrazolo[3,4-d]pyrimidin-4-one
_symmetry_cell_setting           monoclinic
_symmetry_space_group_name_H-M   'P 21/c'
_symmetry_Int_Tables_number      14
_space_group_name_Hall           '-P 2ybc'
loop_
_symmetry_equiv_pos_site_id
_symmetry_equiv_pos_as_xyz
1 x,y,z
2 -x,1/2+y,1/2-z
3 -x,-y,-z
4 x,1/2-y,1/2+z
_cell_length_a                   18.000(4)
_cell_length_b                   13.519(3)
_cell_length_c                   7.2202(15)
_cell_angle_alpha                90
_cell_angle_beta                 98.373(15)
_cell_angle_gamma                90
_cell_volume                     1738.25
_exptl_crystal_colour            colorless
_exptl_crystal_description       needle
_cell_formula_units_Z            4
loop_
_atom_site_label
_atom_site_type_symbol
_atom_site_fract_x
_atom_site_fract_y
_atom_site_fract_z
O1 O 0.3112(2) 0.7716(3) -0.0061(5)
N1 N 0.5467(2) 0.7193(3) 0.3119(5)
N2 N 0.1775(3) 0.4856(4) -0.0247(7)
N3 N 0.1228(3) 0.4927(4) 0.0789(8)
N4 N 0.4772(2) 0.5732(3) 0.2011(6)
N5 N 0.5366(2) 0.8209(3) 0.3089(6)
N6 N 0.3574(2) 0.6141(3) 0.0314(5)
N7 N 0.1359(2) 0.5748(4) 0.1830(7)
C1 C 0.4845(3) 0.6731(4) 0.2236(6)
C2 C 0.4330(3) 0.7447(4) 0.1627(6)
C3 C 0.6192(3) 0.6809(4) 0.3866(6)
C4 C 0.3626(3) 0.7176(4) 0.0580(7)
C5 C 0.4686(3) 0.8348(4) 0.2171(7)
H1 H 0.4469 0.8966 0.1915
C6 C 0.4129(3) 0.5508(4) 0.1020(7)
H2 H 0.4041 0.4840 0.0769
C7 C 0.6252(3) 0.5875(4) 0.4648(7)
H3 H 0.5822 0.5506 0.4740
C8 C 0.2250(3) 0.5631(4) 0.0131(7)
C9 C 0.1991(3) 0.6196(4) 0.1459(8)
H4 H 0.2206 0.6772 0.2000
C10 C 0.6822(3) 0.7377(4) 0.3755(7)
H5 H 0.6778 0.8007 0.3232
C11 C 0.2909(3) 0.5753(4) -0.0874(7)
H6 H 0.3031 0.5118 -0.1374
H7 H 0.2775 0.6199 -0.1922
C12 C 0.0863(3) 0.6016(4) 0.3143(8)
C13 C 0.6951(4) 0.5493(5) 0.5290(8)
H8 H 0.6999 0.4857 0.5783
C14 C 0.1152(4) 0.6321(5) 0.4901(9)
H9 H 0.1669 0.6363 0.5253
C15 C 0.0103(3) 0.5942(5) 0.2591(9)
H10 H -0.0089 0.5725 0.1395
C16 C 0.7520(3) 0.6991(6) 0.4437(9)
H11 H 0.7950 0.7365 0.4380
C17 C 0.7581(4) 0.6063(5) 0.5195(8)
H12 H 0.8054 0.5813 0.5653
C18 C 0.0669(4) 0.6567(5) 0.6160(9)
H13 H 0.0858 0.6775 0.7365
C19 C -0.0092(4) 0.6500(5) 0.5607(13)
H14 H -0.0419 0.6665 0.6446
C20 C -0.0372(4) 0.6199(5) 0.3863(12)
H15 H -0.0889 0.6164 0.3510
loop_
_geom_bond_atom_site_label_1
_geom_bond_atom_site_label_2
_geom_bond_site_symmetry_1
_geom_bond_site_symmetry_2
O1 C4 1_555 1_555
N1 N5 1_555 1_555
N2 N3 1_555 1_555
N3 N7 1_555 1_555
N4 C1 1_555 1_555
N5 C5 1_555 1_555
N6 C4 1_555 1_555
N7 C9 1_555 1_555
C1 N1 1_555 1_555
C2 C1 1_555 1_555
C3 N1 1_555 1_555
C4 C2 1_555 1_555
C5 C2 1_555 1_555
H1 C5 1_555 1_555
C6 N4 1_555 1_555
H2 C6 1_555 1_555
C7 C3 1_555 1_555
H3 C7 1_555 1_555
C8 N2 1_555 1_555
C9 C8 1_555 1_555
H4 C9 1_555 1_555
C10 C3 1_555 1_555
H5 C10 1_555 1_555
C11 N6 1_555 1_555
H6 C11 1_555 1_555
H7 C11 1_555 1_555
C12 N7 1_555 1_555
C13 C7 1_555 1_555
H8 C13 1_555 1_555
C14 C12 1_555 1_555
H9 C14 1_555 1_555
C15 C12 1_555 1_555
H10 C15 1_555 1_555
C16 C10 1_555 1_555
H11 C16 1_555 1_555
C17 C13 1_555 1_555
H12 C17 1_555 1_555
C18 C14 1_555 1_555
H13 C18 1_555 1_555
C19 C18 1_555 1_555
H14 C19 1_555 1_555
C20 C15 1_555 1_555
H15 C20 1_555 1_555
N6 C6 1_555 1_555
C8 C11 1_555 1_555
C16 C17 1_555 1_555
C19 C20 1_555 1_555

#END
