
#######################################################################
#
#                 Cambridge Crystallographic Data Centre
#                                CCDC 
#
#######################################################################
#
# If this CIF has been generated from an entry in the Cambridge 
# Structural Database, then it will include bibliographic, chemical, 
# crystal, experimental, refinement or atomic coordinate data resulting 
# from the CCDC's data processing and validation procedures.
#
#######################################################################

data_SINQUC
_chemical_formula_moiety         'C15 H19 F1 N2 O1 S1'
_chemical_name_systematic        
(S)-2-((S)-1-(2-Fluorophenyl)ethylamino)-5-methyl-5-isopropylthiazol-4(5H)-one
_chemical_properties_biological  
'inhibition of 11beta-hydroxysteroid dehydrogenase type 1 activity'
_symmetry_cell_setting           orthorhombic
_symmetry_space_group_name_H-M   'P 21 21 21'
_symmetry_Int_Tables_number      19
_space_group_name_Hall           'P 2ac 2ab'
loop_
_symmetry_equiv_pos_site_id
_symmetry_equiv_pos_as_xyz
1 x,y,z
2 1/2-x,-y,1/2+z
3 1/2+x,1/2-y,-z
4 -x,1/2+y,1/2-z
_cell_length_a                   10.493(2)
_cell_length_b                   13.779(3)
_cell_length_c                   21.317(4)
_cell_angle_alpha                90
_cell_angle_beta                 90
_cell_angle_gamma                90
_cell_volume                     3082.08
_cell_formula_units_Z            8
loop_
_atom_site_label
_atom_site_type_symbol
_atom_site_fract_x
_atom_site_fract_y
_atom_site_fract_z
S1 S 0.7145(1) 0.7980(1) 0.1472(1)
F1 F 0.6844(2) 0.4120(1) 0.3356(1)
O1 O 0.9118(2) 0.6027(2) 0.0621(1)
N1 N 0.8078(3) 0.6196(2) 0.1563(1)
N2 N 0.7007(3) 0.6774(2) 0.2440(1)
C1 C 0.8061(3) 0.7553(2) 0.0805(2)
C2 C 0.8473(3) 0.6511(3) 0.0987(2)
C3 C 0.7445(3) 0.6875(2) 0.1865(2)
C4 C 0.7231(4) 0.7480(3) 0.0215(2)
C5 C 0.9275(4) 0.8169(2) 0.0695(2)
C6 C 1.0176(4) 0.8145(3) 0.1255(2)
C7 C 0.8933(4) 0.9241(2) 0.0534(2)
C8 C 0.7287(3) 0.5906(2) 0.2817(2)
C9 C 0.8647(3) 0.5948(3) 0.3067(2)
C10 C 0.6338(3) 0.5779(2) 0.3342(2)
C11 C 0.6175(4) 0.4869(3) 0.3609(2)
C12 C 0.5413(4) 0.4686(3) 0.4112(2)
C13 C 0.4727(4) 0.5437(3) 0.4371(2)
C14 C 0.4838(4) 0.6365(3) 0.4115(2)
C15 C 0.5634(3) 0.6517(3) 0.3611(2)
H1 H 0.6534 0.7238 0.2603
H2 H 0.7747 0.7237 -0.0135
H3 H 0.6895 0.8123 0.0109
H4 H 0.6522 0.7033 0.0293
H5 H 0.9737 0.7888 0.0327
H6 H 1.0921 0.8551 0.1167
H7 H 1.0451 0.7476 0.1331
H8 H 0.9734 0.8393 0.1627
H9 H 0.8515 0.9544 0.0895
H10 H 0.8355 0.9254 0.0172
H11 H 0.9713 0.9599 0.0432
H12 H 0.7220 0.5328 0.2535
H13 H 0.9245 0.5997 0.2715
H14 H 0.8829 0.5357 0.3307
H15 H 0.8743 0.6515 0.3340
H16 H 0.5356 0.4050 0.4282
H17 H 0.4184 0.5325 0.4721
H18 H 0.4367 0.6890 0.4288
H19 H 0.5701 0.7153 0.3441
S2 S 0.2028(1) 0.5524(1) 0.1196(1)
F2 F -0.0650(2) 0.1557(1) 0.0813(1)
O2 O 0.3887(2) 0.3628(2) 0.2154(1)
N3 N 0.1896(3) 0.3778(2) 0.1723(1)
N4 N 0.0082(3) 0.4303(2) 0.1189(1)
C16 C 0.1250(3) 0.4422(2) 0.1391(2)
C17 C -0.1409(3) 0.2228(2) 0.0517(2)
C18 C -0.0689(3) 0.3426(2) 0.1337(2)
C19 C -0.2051(4) 0.1945(3) -0.0005(2)
C20 C 0.3091(4) 0.4098(2) 0.1866(2)
C21 C -0.1454(3) 0.3150(2) 0.0776(2)
C22 C 0.3583(4) 0.5798(2) 0.2245(2)
C23 C -0.2265(3) 0.3794(3) 0.0470(2)
C24 C 0.4621(3) 0.5128(2) 0.1254(2)
C25 C -0.1508(3) 0.3614(3) 0.1913(2)
C26 C 0.3760(3) 0.6883(2) 0.2069(2)
C27 C 0.2486(3) 0.5699(3) 0.2715(2)
C28 C 0.3407(3) 0.5161(2) 0.1664(2)
C29 C -0.2942(4) 0.3537(3) -0.0055(2)
C30 C -0.2833(4) 0.2602(3) -0.0302(2)
H20 H -0.0261 0.4760 0.0955
H21 H -0.0092 0.2881 0.1435
H22 H -0.1963 0.1304 -0.0163
H23 H 0.4379 0.5580 0.2461
H24 H -0.2353 0.4434 0.0631
H25 H 0.5352 0.4947 0.1515
H26 H 0.4771 0.5769 0.1069
H27 H 0.4510 0.4648 0.0919
H28 H -0.0961 0.3798 0.2266
H29 H -0.1982 0.3024 0.2020
H30 H -0.2109 0.4141 0.1824
H31 H 0.4475 0.6948 0.1777
H32 H 0.3936 0.7260 0.2449
H33 H 0.2980 0.7126 0.1871
H34 H 0.1694 0.5925 0.2520
H35 H 0.2669 0.6092 0.3087
H36 H 0.2394 0.5017 0.2837
H37 H -0.3487 0.3996 -0.0251
H38 H -0.3291 0.2423 -0.0668
loop_
_geom_bond_atom_site_label_1
_geom_bond_atom_site_label_2
_geom_bond_site_symmetry_1
_geom_bond_site_symmetry_2
S1 C1 1_555 1_555
F1 C11 1_555 1_555
O1 C2 1_555 1_555
N1 C2 1_555 1_555
N2 C3 1_555 1_555
C1 C2 1_555 1_555
C3 S1 1_555 1_555
C4 C1 1_555 1_555
C5 C1 1_555 1_555
C6 C5 1_555 1_555
C7 C5 1_555 1_555
C8 N2 1_555 1_555
C9 C8 1_555 1_555
C10 C8 1_555 1_555
C11 C10 1_555 1_555
C12 C11 1_555 1_555
C13 C12 1_555 1_555
C14 C13 1_555 1_555
C15 C10 1_555 1_555
H1 N2 1_555 1_555
H2 C4 1_555 1_555
H3 C4 1_555 1_555
H4 C4 1_555 1_555
H5 C5 1_555 1_555
H6 C6 1_555 1_555
H7 C6 1_555 1_555
H8 C6 1_555 1_555
H9 C7 1_555 1_555
H10 C7 1_555 1_555
H11 C7 1_555 1_555
H12 C8 1_555 1_555
H13 C9 1_555 1_555
H14 C9 1_555 1_555
H15 C9 1_555 1_555
H16 C12 1_555 1_555
H17 C13 1_555 1_555
H18 C14 1_555 1_555
H19 C15 1_555 1_555
S2 C16 1_555 1_555
F2 C17 1_555 1_555
O2 C20 1_555 1_555
N3 C16 1_555 1_555
N4 C16 1_555 1_555
C17 C19 1_555 1_555
C18 N4 1_555 1_555
C19 C30 1_555 1_555
C20 N3 1_555 1_555
C21 C17 1_555 1_555
C22 C26 1_555 1_555
C23 C21 1_555 1_555
C24 C28 1_555 1_555
C25 C18 1_555 1_555
C26 H31 1_555 1_555
C27 C22 1_555 1_555
C28 S2 1_555 1_555
C29 C23 1_555 1_555
C30 C29 1_555 1_555
H20 N4 1_555 1_555
H21 C18 1_555 1_555
H22 C19 1_555 1_555
H23 C22 1_555 1_555
H24 C23 1_555 1_555
H25 C24 1_555 1_555
H26 C24 1_555 1_555
H27 C24 1_555 1_555
H28 C25 1_555 1_555
H29 C25 1_555 1_555
H30 C25 1_555 1_555
H32 C26 1_555 1_555
H33 C26 1_555 1_555
H34 C27 1_555 1_555
H35 C27 1_555 1_555
H36 C27 1_555 1_555
H37 C29 1_555 1_555
H38 C30 1_555 1_555
N1 C3 1_555 1_555
C14 C15 1_555 1_555
C18 C21 1_555 1_555
C20 C28 1_555 1_555
C22 C28 1_555 1_555

#END
