
#######################################################################
#
#                 Cambridge Crystallographic Data Centre
#                                CCDC 
#
#######################################################################
#
# If this CIF has been generated from an entry in the Cambridge 
# Structural Database, then it will include bibliographic, chemical, 
# crystal, experimental, refinement or atomic coordinate data resulting 
# from the CCDC's data processing and validation procedures.
#
#######################################################################

data_SINQOW
_chemical_name_common            'PDB Chemical Component code: A21'
_chemical_formula_moiety         'C13 H12 F4 N2 O1 S1'
_chemical_name_systematic        
(S)-2-((S)-1-(2-Fluorophenyl)ethylamino)-5-methyl-5-(trifluoromethyl)thiazol-4(5H)-one
_chemical_properties_biological  
'inhibition of 11beta-hydroxysteroid dehydrogenase type 1 activity'
_symmetry_cell_setting           orthorhombic
_symmetry_space_group_name_H-M   'P 21 21 21'
_symmetry_Int_Tables_number      19
_space_group_name_Hall           'P 2ac 2ab'
loop_
_symmetry_equiv_pos_site_id
_symmetry_equiv_pos_as_xyz
1 x,y,z
2 1/2-x,-y,1/2+z
3 -x,1/2+y,1/2-z
4 1/2+x,1/2-y,-z
_cell_length_a                   6.6812(10)
_cell_length_b                   18.978(3)
_cell_length_c                   23.069(3)
_cell_angle_alpha                90
_cell_angle_beta                 90
_cell_angle_gamma                90
_cell_volume                     2925.05
_exptl_crystal_colour            colorless
_exptl_crystal_description       needle
_cell_formula_units_Z            8
loop_
_atom_site_label
_atom_site_type_symbol
_atom_site_fract_x
_atom_site_fract_y
_atom_site_fract_z
S1 S 0.65181(13) 0.89280(5) 0.17721(3)
F1 F 0.6937(3) 0.70728(12) 0.11306(11)
F2 F 0.2884(3) 0.93482(12) 0.24286(10)
F3 F 0.3241(3) 1.00479(13) 0.17014(9)
F4 F 0.3576(3) 1.04380(11) 0.25642(9)
O1 O 0.7446(4) 1.08879(13) 0.20802(9)
N1 N 0.8242(4) 1.00835(13) 0.13796(10)
N2 N 0.8729(4) 0.90885(14) 0.08208(11)
H1 H 0.964(5) 0.9347(19) 0.0639(15)
C1 C 0.6167(5) 0.97150(17) 0.22018(12)
C2 C 0.7346(5) 1.02988(18) 0.18783(13)
C3 C 0.7958(4) 0.94083(17) 0.12724(12)
C4 C 0.3971(5) 0.9888(2) 0.22214(16)
C5 C 0.7019(8) 0.9627(3) 0.28130(16)
H2 H 0.611(4) 0.9294(15) 0.3031(12)
H3 H 0.692(5) 1.0063(19) 0.2976(14)
H4 H 0.844(5) 0.9508(18) 0.2743(13)
C6 C 0.8420(6) 0.83441(17) 0.06736(14)
H5 H 0.709(4) 0.8272(14) 0.0726(11)
C7 C 0.8926(8) 0.8230(2) 0.00389(16)
H6 H 0.866(4) 0.7717(17) -0.0049(12)
H7 H 0.803(6) 0.848(2) -0.0191(15)
H8 H 1.037(5) 0.8399(17) -0.0040(13)
C8 C 0.9611(5) 0.78646(17) 0.10660(13)
C9 C 0.8850(5) 0.72462(19) 0.12804(16)
C10 C 0.9885(8) 0.6790(2) 0.16429(19)
H9 H 0.921(5) 0.6414(18) 0.1789(13)
C11 C 1.1799(7) 0.6969(2) 0.17850(18)
H10 H 1.246(6) 0.668(2) 0.2040(16)
C12 C 1.2630(7) 0.7568(2) 0.15777(18)
H11 H 1.395(5) 0.7646(19) 0.1698(16)
C13 C 1.1560(6) 0.80078(19) 0.12224(15)
H12 H 1.219(4) 0.8403(15) 0.1051(11)
S2 S 1.36486(11) 1.11769(4) -0.00235(3)
F5 F 1.2944(3) 1.29741(10) 0.04774(8)
F6 F 1.1829(3) 1.03407(12) -0.10176(8)
F7 F 1.4517(4) 0.97909(11) -0.12508(8)
F8 F 1.4459(4) 1.09169(11) -0.12631(8)
O2 O 1.3848(3) 0.91570(12) -0.00736(10)
N3 N 1.1906(4) 1.00074(13) 0.03488(10)
N4 N 1.0616(4) 1.10491(15) 0.07151(10)
H13 H 0.984(4) 1.0755(15) 0.0927(11)
C14 C 1.4497(4) 1.03610(16) -0.03442(13)
C15 C 1.3390(5) 0.97671(17) -0.00081(13)
C16 C 1.1870(4) 1.07006(17) 0.03863(12)
C17 C 1.3827(6) 1.03480(19) -0.09707(14)
C18 C 1.6770(6) 1.0270(3) -0.0303(2)
H14 H 1.708(5) 0.9827(13) -0.0472(14)
H15 H 1.740(5) 1.0610(15) -0.0534(13)
H16 H 1.716(6) 1.028(2) 0.0092(10)
C19 C 1.0471(5) 1.18205(17) 0.07485(13)
H17 H 1.076(4) 1.2017(13) 0.0335(11)
C20 C 0.8369(6) 1.2023(2) 0.09281(17)
H18 H 0.824(4) 1.2574(17) 0.0941(11)
H19 H 0.813(4) 1.1864(14) 0.1325(12)
H20 H 0.744(5) 1.1879(18) 0.0661(14)
C21 C 1.2003(4) 1.21251(16) 0.11653(12)
C22 C 1.3162(5) 1.26951(17) 0.10204(13)
C23 C 1.4518(5) 1.30058(19) 0.13833(16)
H21 H 1.531(4) 1.3374(15) 0.1240(11)
C24 C 1.4744(6) 1.2727(2) 0.19245(18)
H22 H 1.565(5) 1.2896(17) 0.2160(13)
C25 C 1.3626(6) 1.2159(2) 0.20960(16)
H23 H 1.378(5) 1.1959(18) 0.2482(14)
C26 C 1.2252(5) 1.18603(19) 0.17201(14)
H24 H 1.139(5) 1.1471(17) 0.1830(12)
loop_
_geom_bond_atom_site_label_1
_geom_bond_atom_site_label_2
_geom_bond_site_symmetry_1
_geom_bond_site_symmetry_2
S1 C1 1_555 1_555
F1 C9 1_555 1_555
F2 C4 1_555 1_555
F3 C4 1_555 1_555
F4 C4 1_555 1_555
O1 C2 1_555 1_555
N1 C2 1_555 1_555
N2 H1 1_555 1_555
C1 C2 1_555 1_555
C3 S1 1_555 1_555
C4 C1 1_555 1_555
C5 C1 1_555 1_555
H2 C5 1_555 1_555
H3 C5 1_555 1_555
H4 C5 1_555 1_555
C6 N2 1_555 1_555
H5 C6 1_555 1_555
C7 C6 1_555 1_555
H6 C7 1_555 1_555
H7 C7 1_555 1_555
H8 C7 1_555 1_555
C8 C6 1_555 1_555
C9 C8 1_555 1_555
C10 C9 1_555 1_555
H9 C10 1_555 1_555
C11 C10 1_555 1_555
H10 C11 1_555 1_555
C12 C11 1_555 1_555
H11 C12 1_555 1_555
C13 C8 1_555 1_555
H12 C13 1_555 1_555
S2 C14 1_555 1_555
F5 C22 1_555 1_555
F6 C17 1_555 1_555
F7 C17 1_555 1_555
F8 C17 1_555 1_555
O2 C15 1_555 1_555
N3 C15 1_555 1_555
N4 H13 1_555 1_555
C14 C15 1_555 1_555
C16 S2 1_555 1_555
C17 C14 1_555 1_555
C18 C14 1_555 1_555
H14 C18 1_555 1_555
H15 C18 1_555 1_555
H16 C18 1_555 1_555
C19 N4 1_555 1_555
H17 C19 1_555 1_555
C20 C19 1_555 1_555
H18 C20 1_555 1_555
H19 C20 1_555 1_555
H20 C20 1_555 1_555
C21 C19 1_555 1_555
C22 C21 1_555 1_555
C23 C22 1_555 1_555
H21 C23 1_555 1_555
C24 C23 1_555 1_555
H22 C24 1_555 1_555
C25 C24 1_555 1_555
H23 C25 1_555 1_555
C26 C21 1_555 1_555
H24 C26 1_555 1_555
N1 C3 1_555 1_555
N2 C3 1_555 1_555
C12 C13 1_555 1_555
N3 C16 1_555 1_555
N4 C16 1_555 1_555
C25 C26 1_555 1_555

#END
