
#######################################################################
#
#                 Cambridge Crystallographic Data Centre
#                                CCDC 
#
#######################################################################
#
# If this CIF has been generated from an entry in the Cambridge 
# Structural Database, then it will include bibliographic, chemical, 
# crystal, experimental, refinement or atomic coordinate data resulting 
# from the CCDC's data processing and validation procedures.
#
#######################################################################

data_SIQBEC
_chemical_formula_moiety         'C38 H26 N2 S3,C1 H1 Cl3'
_chemical_name_systematic        
'2,8-bis(1-methyl-10H-phenothiazin-10-yl)dibenzo[b,d]thiophene chloroform solvate solvate'
_symmetry_cell_setting           triclinic
_symmetry_space_group_name_H-M   'P -1'
_symmetry_Int_Tables_number      2
_space_group_name_Hall           '-P 1'
loop_
_symmetry_equiv_pos_site_id
_symmetry_equiv_pos_as_xyz
1 x,y,z
2 -x,-y,-z
_cell_length_a                   11.0581(4)
_cell_length_b                   15.5487(6)
_cell_length_c                   20.2305(8)
_cell_angle_alpha                93.7823(19)
_cell_angle_beta                 97.0827(19)
_cell_angle_gamma                93.6859(17)
_cell_volume                     3435.13
_exptl_crystal_colour            colorless
_exptl_crystal_description       block
_cell_formula_units_Z            4
_exptl_crystal_recrystallization_method chloroform/hexane
_exptl_crystal_preparation       Luminescent
loop_
_atom_site_label
_atom_site_type_symbol
_atom_site_fract_x
_atom_site_fract_y
_atom_site_fract_z
S1 S 0.7124(2) 0.24000(14) 0.08306(12)
S2 S 0.9249(2) 0.58629(13) 0.35375(11)
S3 S 0.0616(2) 0.35218(15) 0.11490(14)
N1 N 0.7909(6) 0.4161(4) 0.3568(4)
N2 N 0.2749(6) 0.4452(4) 0.0698(4)
C1 C 0.7469(8) 0.2867(5) 0.1651(4)
C2 C 0.8476(8) 0.2750(5) 0.2107(5)
H1 H 0.907163 0.237412 0.198846
C3 C 0.8612(7) 0.3177(5) 0.2728(4)
H2 H 0.930207 0.309232 0.303915
C4 C 0.7741(8) 0.3742(5) 0.2912(5)
C5 C 0.6746(8) 0.3857(5) 0.2461(5)
H3 H 0.615471 0.423513 0.258113
C6 C 0.6591(7) 0.3424(5) 0.1826(5)
C7 C 0.5615(8) 0.3474(5) 0.1279(5)
C8 C 0.4613(7) 0.3961(5) 0.1272(4)
H4 H 0.451025 0.431682 0.165792
C9 C 0.3759(8) 0.3937(5) 0.0712(5)
C10 C 0.3931(8) 0.3391(5) 0.0147(4)
H5 H 0.334185 0.335622 -0.023970
C11 C 0.4918(8) 0.2919(5) 0.0147(5)
H6 H 0.502262 0.256346 -0.023939
C12 C 0.5766(8) 0.2956(5) 0.0703(5)
C13 C 0.9088(8) 0.4222(5) 0.3938(4)
C14 C 0.9838(8) 0.4986(5) 0.3950(4)
C15 C 1.1010(8) 0.5052(5) 0.4287(4)
H7 H 1.151668 0.557199 0.429945
C16 C 1.1433(9) 0.4349(6) 0.4605(4)
H8 H 1.225360 0.437061 0.481336
C17 C 1.0661(10) 0.3609(6) 0.4620(5)
H9 H 1.095739 0.313999 0.485367
C18 C 0.9476(9) 0.3541(6) 0.4303(5)
C19 C 0.7202(8) 0.4870(5) 0.3700(4)
C20 C 0.7718(7) 0.5707(5) 0.3692(4)
C21 C 0.7027(8) 0.6407(5) 0.3815(4)
H10 H 0.737880 0.698193 0.381979
C22 C 0.5830(9) 0.6258(6) 0.3928(5)
H11 H 0.534371 0.673330 0.398390
C23 C 0.5335(9) 0.5438(7) 0.3963(5)
H12 H 0.451732 0.535026 0.405625
C24 C 0.6009(8) 0.4733(6) 0.3863(5)
H13 H 0.566992 0.416511 0.390332
C25 C 0.1733(9) 0.4268(5) 0.0191(5)
C26 C 0.0686(8) 0.3821(5) 0.0338(5)
C27 C -0.0293(10) 0.3648(6) -0.0164(6)
H14 H -0.103224 0.336498 -0.006962
C28 C -0.0184(12) 0.3892(8) -0.0805(7)
H15 H -0.084450 0.374942 -0.114993
C29 C 0.0834(12) 0.4326(8) -0.0949(6)
H16 H 0.090303 0.448343 -0.138927
C30 C 0.1747(10) 0.4530(6) -0.0450(6)
C31 C 0.2438(7) 0.4805(5) 0.1324(4)
C32 C 0.1476(8) 0.4414(5) 0.1595(4)
C33 C 0.1198(8) 0.4739(6) 0.2207(5)
H17 H 0.054164 0.447110 0.239926
C34 C 0.1867(8) 0.5449(6) 0.2539(5)
H18 H 0.168596 0.565699 0.296504
C35 C 0.2784(8) 0.5855(6) 0.2264(5)
H19 H 0.322907 0.634947 0.249663
C36 C 0.3081(7) 0.5553(5) 0.1642(5)
H20 H 0.370181 0.584929 0.144112
C37 C 0.8556(11) 0.2740(7) 0.4294(6)
H21 H 0.772160 0.292612 0.425381
H22 H 0.872584 0.245388 0.470866
H23 H 0.864059 0.233639 0.391203
C38 C 0.2861(13) 0.5081(8) -0.0580(7)
H24 H 0.299967 0.558332 -0.025472
H25 H 0.272391 0.527638 -0.103241
H26 H 0.357790 0.473972 -0.053958
S4 S 0.1998(2) 0.74505(14) 0.38461(11)
S5 S 0.8698(2) 0.87165(15) 0.36871(15)
S6 S 0.0497(2) 1.08366(16) 0.15449(14)
N3 N 0.6692(6) 0.9633(4) 0.4200(3)
N4 N 0.1530(6) 0.9142(4) 0.1271(3)
C41 C 0.3428(8) 0.8053(5) 0.4028(4)
C42 C 0.4246(7) 0.8061(5) 0.4602(4)
H35 H 0.407865 0.771338 0.495378
C43 C 0.5311(8) 0.8586(5) 0.4651(4)
H36 H 0.587851 0.860505 0.504601
C44 C 0.5579(7) 0.9097(5) 0.4128(4)
C45 C 0.4762(7) 0.9072(5) 0.3562(4)
H37 H 0.493635 0.941044 0.320614
C46 C 0.3665(7) 0.8547(5) 0.3502(4)
C47 C 0.2699(7) 0.8459(5) 0.2949(4)
C48 C 0.2633(7) 0.8888(5) 0.2356(4)
H38 H 0.327774 0.929083 0.228423
C49 C 0.1623(8) 0.8720(5) 0.1880(4)
C50 C 0.0675(7) 0.8115(5) 0.1997(4)
H39 H -0.001363 0.799153 0.166668
C51 C 0.0729(8) 0.7710(5) 0.2570(5)
H40 H 0.007751 0.731009 0.263763
C52 C 0.1722(8) 0.7871(5) 0.3059(4)
C53 C 0.7084(7) 0.9970(5) 0.3607(4)
C54 C 0.7995(7) 0.9568(5) 0.3313(4)
C55 C 0.8370(8) 0.9868(6) 0.2735(5)
H41 H 0.900654 0.960931 0.253627
C56 C 0.7809(9) 1.0543(6) 0.2454(5)
H42 H 0.804031 1.073061 0.204683
C57 C 0.6931(8) 1.0953(6) 0.2742(5)
H43 H 0.656548 1.142270 0.253910
C58 C 0.6569(8) 1.0681(6) 0.3337(5)
C59 C 0.7619(9) 0.9495(6) 0.4697(5)
C60 C 0.8595(9) 0.9070(6) 0.4551(5)
C61 C 0.9589(10) 0.8904(7) 0.5034(6)
H44 H 1.028428 0.862234 0.492595
C62 C 0.9431(9) 0.9205(6) 0.5698(6)
H45 H 1.001420 0.907869 0.605747
C63 C 0.8455(10) 0.9677(6) 0.5837(6)
H46 H 0.844222 0.988962 0.628698
C64 C 0.7545(9) 0.9853(6) 0.5393(5)
H47 H 0.689489 1.018121 0.550670
C65 C 0.2408(8) 0.9883(6) 0.1268(4)
C66 C 0.1966(7) 1.0770(5) 0.1464(4)
C67 C 0.2838(10) 1.1404(6) 0.1451(5)
H48 H 0.262667 1.198089 0.152934
C68 C 0.4026(9) 1.1283(7) 0.1332(5)
H49 H 0.460076 1.177135 0.137725
C69 C 0.4403(9) 1.0494(7) 0.1152(5)
H50 H 0.521442 1.043355 0.105710
C70 C 0.3546(9) 0.9761(6) 0.1112(5)
C71 C 0.0345(8) 0.9240(6) 0.0925(4)
C72 C -0.0228(9) 0.9988(6) 0.1017(4)
C73 C -0.1434(9) 1.0068(7) 0.0674(5)
H51 H -0.184522 1.058227 0.071768
C74 C -0.1951(10) 0.9351(7) 0.0280(5)
H52 H -0.276037 0.937197 0.006447
C75 C -0.1369(11) 0.8601(7) 0.0178(5)
H53 H -0.177984 0.812785 -0.009960
C76 C -0.0213(9) 0.8542(7) 0.0474(5)
H54 H 0.021773 0.804691 0.038240
C77 C 0.5562(9) 1.1154(6) 0.3611(5)
H55 H 0.476691 1.086371 0.342828
H56 H 0.560240 1.175135 0.348367
H57 H 0.566496 1.115312 0.409931
C78 C 0.3903(8) 0.8905(6) 0.0891(5)
H58 H 0.402878 0.855483 0.127567
H59 H 0.466218 0.897037 0.068968
H60 H 0.325474 0.861864 0.056035
Cl1 Cl 0.3616(3) 0.3210(2) 0.27649(15)
Cl2 Cl 0.1562(3) 0.2159(2) 0.30339(16)
Cl3 Cl 0.3400(3) 0.2771(3) 0.41110(15)
C79 C 0.2577(9) 0.3009(7) 0.3333(5)
H61 H 0.212145 0.353534 0.340621
Cl7 Cl 0.5155(12) 0.7554(7) 0.2183(10)
Cl8 Cl 0.6533(12) 0.6150(6) 0.1954(4)
Cl9 Cl 0.7291(17) 0.7825(11) 0.1536(9)
C81 C 0.6664(16) 0.7267(11) 0.2149(9)
H63 H 0.716780 0.740923 0.259268
H27? H 0.894279 0.304446 0.433325
H28? H 0.244157 0.487229 -0.054186
C39? C 0.585(3) 0.3833(13) 0.4141(16)
H29? H 0.536905 0.343111 0.379796
H30? H 0.541720 0.388292 0.453569
H31? H 0.665044 0.361719 0.426360
C40? C 0.395(3) 0.6118(19) 0.1275(16)
H32? H 0.469774 0.582103 0.124134
H33? H 0.415553 0.667924 0.152710
H34? H 0.355654 0.620641 0.082559
Cl4? Cl 0.5748(13) 0.7795(7) 0.2504(5)
Cl5? Cl 0.7304(17) 0.6548(10) 0.2063(4)
Cl6? Cl 0.717(2) 0.8134(14) 0.1434(11)
C80? C 0.707(2) 0.7616(14) 0.2167(12)
H62? H 0.776246 0.788133 0.250044
loop_
_geom_bond_atom_site_label_1
_geom_bond_atom_site_label_2
_geom_bond_site_symmetry_1
_geom_bond_site_symmetry_2
S1 C1 1_555 1_555
S2 C14 1_555 1_555
S3 C26 1_555 1_555
N1 C4 1_555 1_555
N2 C9 1_555 1_555
C1 C2 1_555 1_555
C2 H1 1_555 1_555
C3 C2 1_555 1_555
H2 C3 1_555 1_555
C4 C3 1_555 1_555
C5 C4 1_555 1_555
H3 C5 1_555 1_555
C6 C1 1_555 1_555
C7 C6 1_555 1_555
C8 C7 1_555 1_555
H4 C8 1_555 1_555
C9 C8 1_555 1_555
C10 C9 1_555 1_555
H5 C10 1_555 1_555
C11 C10 1_555 1_555
H6 C11 1_555 1_555
C12 S1 1_555 1_555
C13 N1 1_555 1_555
C14 C13 1_555 1_555
C15 C14 1_555 1_555
H7 C15 1_555 1_555
C16 C15 1_555 1_555
H8 C16 1_555 1_555
C17 C16 1_555 1_555
H9 C17 1_555 1_555
C18 C13 1_555 1_555
C19 N1 1_555 1_555
C20 S2 1_555 1_555
C21 C20 1_555 1_555
H10 C21 1_555 1_555
C22 C21 1_555 1_555
H11 C22 1_555 1_555
C23 C22 1_555 1_555
H12 C23 1_555 1_555
C24 C19 1_555 1_555
H13 C24 1_555 1_555
C25 N2 1_555 1_555
C26 C25 1_555 1_555
C27 C26 1_555 1_555
H14 C27 1_555 1_555
C28 C27 1_555 1_555
H15 C28 1_555 1_555
C29 C28 1_555 1_555
H16 C29 1_555 1_555
C30 C25 1_555 1_555
C31 N2 1_555 1_555
C32 S3 1_555 1_555
C33 C32 1_555 1_555
H17 C33 1_555 1_555
C34 C33 1_555 1_555
H18 C34 1_555 1_555
C35 C34 1_555 1_555
H19 C35 1_555 1_555
C36 C31 1_555 1_555
H20 C36 1_555 1_555
C37 C18 1_555 1_555
H21 C37 1_555 1_555
H22 C37 1_555 1_555
H23 C37 1_555 1_555
C38 C30 1_555 1_555
H24 C38 1_555 1_555
H25 C38 1_555 1_555
H26 C38 1_555 1_555
S4 C41 1_555 1_555
S5 C54 1_555 1_555
S6 C66 1_555 1_555
N3 C44 1_555 1_555
N4 C49 1_555 1_555
C41 C42 1_555 1_555
C42 H35 1_555 1_555
C43 C42 1_555 1_555
H36 C43 1_555 1_555
C44 C43 1_555 1_555
C45 C44 1_555 1_555
H37 C45 1_555 1_555
C46 C41 1_555 1_555
C47 C46 1_555 1_555
C48 C47 1_555 1_555
H38 C48 1_555 1_555
C49 C48 1_555 1_555
C50 C49 1_555 1_555
H39 C50 1_555 1_555
C51 C50 1_555 1_555
H40 C51 1_555 1_555
C52 S4 1_555 1_555
C53 N3 1_555 1_555
C54 C53 1_555 1_555
C55 C54 1_555 1_555
H41 C55 1_555 1_555
C56 C55 1_555 1_555
H42 C56 1_555 1_555
C57 C56 1_555 1_555
H43 C57 1_555 1_555
C58 C53 1_555 1_555
C59 N3 1_555 1_555
C60 S5 1_555 1_555
C61 C60 1_555 1_555
H44 C61 1_555 1_555
C62 C61 1_555 1_555
H45 C62 1_555 1_555
C63 C62 1_555 1_555
H46 C63 1_555 1_555
C64 C59 1_555 1_555
H47 C64 1_555 1_555
C65 N4 1_555 1_555
C66 C65 1_555 1_555
C67 C66 1_555 1_555
H48 C67 1_555 1_555
C68 C67 1_555 1_555
H49 C68 1_555 1_555
C69 C68 1_555 1_555
H50 C69 1_555 1_555
C70 C65 1_555 1_555
C71 N4 1_555 1_555
C72 S6 1_555 1_555
C73 C72 1_555 1_555
H51 C73 1_555 1_555
C74 C73 1_555 1_555
H52 C74 1_555 1_555
C75 C74 1_555 1_555
H53 C75 1_555 1_555
C76 C71 1_555 1_555
H54 C76 1_555 1_555
C77 C58 1_555 1_555
H55 C77 1_555 1_555
H56 C77 1_555 1_555
H57 C77 1_555 1_555
C78 C70 1_555 1_555
H58 C78 1_555 1_555
H59 C78 1_555 1_555
H60 C78 1_555 1_555
Cl1 C79 1_555 1_555
Cl2 C79 1_555 1_555
Cl3 C79 1_555 1_555
C79 H61 1_555 1_555
Cl7 C81 1_555 1_555
Cl8 C81 1_555 1_555
Cl9 C81 1_555 1_555
C81 H63 1_555 1_555
C5 C6 1_555 1_555
C7 C12 1_555 1_555
C11 C12 1_555 1_555
C17 C18 1_555 1_555
C19 C20 1_555 1_555
C23 C24 1_555 1_555
C29 C30 1_555 1_555
C31 C32 1_555 1_555
C35 C36 1_555 1_555
C45 C46 1_555 1_555
C47 C52 1_555 1_555
C51 C52 1_555 1_555
C57 C58 1_555 1_555
C59 C60 1_555 1_555
C63 C64 1_555 1_555
C69 C70 1_555 1_555
C71 C72 1_555 1_555
C75 C76 1_555 1_555

#END
