
#######################################################################
#
#                 Cambridge Crystallographic Data Centre
#                                CCDC 
#
#######################################################################
#
# If this CIF has been generated from an entry in the Cambridge 
# Structural Database, then it will include bibliographic, chemical, 
# crystal, experimental, refinement or atomic coordinate data resulting 
# from the CCDC's data processing and validation procedures.
#
#######################################################################

data_SIQBAY
_chemical_formula_moiety         'C36 H22 N2 S3,0.5(C1 D1 Cl3)'
_chemical_name_systematic        
'2,8-bis(phenothiazin-10-yl)dibenzo[b,d]thiophene deuterochloroform solvate'
_symmetry_cell_setting           triclinic
_symmetry_space_group_name_H-M   'P -1'
_symmetry_Int_Tables_number      2
_space_group_name_Hall           '-P 1'
loop_
_symmetry_equiv_pos_site_id
_symmetry_equiv_pos_as_xyz
1 x,y,z
2 -x,-y,-z
_cell_length_a                   8.6239(3)
_cell_length_b                   13.7187(5)
_cell_length_c                   14.3075(6)
_cell_angle_alpha                66.090(2)
_cell_angle_beta                 74.501(3)
_cell_angle_gamma                73.864(3)
_cell_volume                     1463.27
_exptl_crystal_colour            yellow
_exptl_crystal_description       tablet
_cell_formula_units_Z            2
_exptl_crystal_recrystallization_method deuterochloroform
_exptl_crystal_preparation       Luminescent
loop_
_atom_site_label
_atom_site_type_symbol
_atom_site_fract_x
_atom_site_fract_y
_atom_site_fract_z
Cl1 Cl 0.6411(4) 0.6661(3) 0.8839(2)
Cl2 Cl 0.3323(9) 0.6056(7) 0.9939(6)
Cl3 Cl 0.6217(10) 0.4418(6) 0.9703(6)
C1 C 0.5451(15) 0.5656(10) 0.9794(16)
D1 D 0.575195 0.560952 1.042701
S1 S 0.83234(13) 0.62991(8) 0.36810(8)
S2 S 0.96012(17) 0.89077(12) 0.81330(10)
S3 S 0.35514(15) 0.18095(9) 0.94707(9)
N1 N 0.9290(4) 0.8451(3) 0.6290(3)
N2 N 0.5492(4) 0.3419(3) 0.7810(3)
C3 C 0.8641(5) 0.7035(3) 0.4338(3)
C4 C 0.9186(5) 0.8025(3) 0.3885(3)
H1 H 0.943057 0.836387 0.315176
C5 C 0.9358(5) 0.8495(3) 0.4529(3)
H2 H 0.969698 0.917552 0.423227
C6 C 0.9044(5) 0.7991(3) 0.5613(3)
C7 C 0.8509(5) 0.7016(3) 0.6053(3)
H3 H 0.829895 0.666961 0.678700
C8 C 0.8277(5) 0.6543(3) 0.5418(3)
C9 C 0.7648(5) 0.5555(3) 0.5722(3)
C10 C 0.6991(5) 0.4909(3) 0.6714(3)
H4 H 0.698717 0.506090 0.730637
C11 C 0.6344(5) 0.4042(3) 0.6822(3)
C12 C 0.6430(5) 0.3779(3) 0.5965(3)
H5 H 0.603573 0.315859 0.605869
C13 C 0.7083(5) 0.4409(3) 0.4977(3)
H6 H 0.714726 0.422572 0.439329
C14 C 0.7642(5) 0.5316(3) 0.4861(3)
C15 C 1.0915(5) 0.8310(3) 0.6426(3)
C16 C 1.1224(6) 0.8518(4) 0.7228(4)
C17 C 1.2805(6) 0.8333(4) 0.7377(4)
H7 H 1.300360 0.850966 0.790681
C18 C 1.4109(6) 0.7895(4) 0.6769(5)
H8 H 1.519276 0.774212 0.689743
C19 C 1.3829(6) 0.7685(4) 0.5994(4)
H9 H 1.472531 0.738376 0.557530
C20 C 1.2254(6) 0.7903(3) 0.5793(4)
H10 H 1.208556 0.777471 0.522628
C21 C 0.8009(5) 0.9243(3) 0.6567(3)
C22 C 0.8063(6) 0.9560(3) 0.7372(3)
C23 C 0.6822(6) 1.0360(4) 0.7622(4)
H11 H 0.690447 1.060862 0.813400
C24 C 0.5469(6) 1.0797(4) 0.7132(4)
H12 H 0.460892 1.132557 0.732193
C25 C 0.5384(6) 1.0458(4) 0.6370(4)
H13 H 0.444945 1.074164 0.604113
C26 C 0.6665(6) 0.9697(4) 0.6075(4)
H14 H 0.660971 0.948927 0.552846
C27 C 0.6412(6) 0.2596(3) 0.8539(3)
C28 C 0.5609(6) 0.1828(3) 0.9402(3)
C29 C 0.6474(6) 0.1044(4) 1.0148(3)
H15 H 0.591903 0.055602 1.074429
C30 C 0.8131(7) 0.0964(4) 1.0037(4)
H16 H 0.872194 0.040954 1.054582
C31 C 0.8947(6) 0.1693(4) 0.9181(4)
H17 H 1.009574 0.163274 0.910168
C32 C 0.8086(6) 0.2506(3) 0.8445(3)
H18 H 0.864566 0.301043 0.786857
C33 C 0.3839(5) 0.3884(3) 0.8137(3)
C34 C 0.2823(5) 0.3223(3) 0.8929(3)
C35 C 0.1221(6) 0.3654(4) 0.9277(4)
H19 H 0.055874 0.320103 0.983524
C36 C 0.0589(6) 0.4742(4) 0.8811(4)
H20 H -0.052011 0.503394 0.903048
C37 C 0.1574(6) 0.5403(4) 0.8028(3)
H21 H 0.114902 0.615445 0.771041
C38 C 0.3189(5) 0.4969(4) 0.7702(3)
H22 H 0.386097 0.543372 0.716475
C2? C 0.5128(15) 0.5758(10) 0.9200(16)
D2? D 0.482754 0.580689 0.856618
loop_
_geom_bond_atom_site_label_1
_geom_bond_atom_site_label_2
_geom_bond_site_symmetry_1
_geom_bond_site_symmetry_2
Cl1 C1 1_555 1_555
Cl2 C1 1_555 1_555
Cl3 C1 1_555 1_555
C1 D1 1_555 1_555
S1 C3 1_555 1_555
S2 C16 1_555 1_555
S3 C28 1_555 1_555
N1 C6 1_555 1_555
N2 C11 1_555 1_555
C3 C4 1_555 1_555
C4 H1 1_555 1_555
C5 C4 1_555 1_555
H2 C5 1_555 1_555
C6 C5 1_555 1_555
C7 C6 1_555 1_555
H3 C7 1_555 1_555
C8 C3 1_555 1_555
C9 C8 1_555 1_555
C10 C9 1_555 1_555
H4 C10 1_555 1_555
C11 C10 1_555 1_555
C12 C11 1_555 1_555
H5 C12 1_555 1_555
C13 C12 1_555 1_555
H6 C13 1_555 1_555
C14 S1 1_555 1_555
C15 N1 1_555 1_555
C16 C15 1_555 1_555
C17 C16 1_555 1_555
H7 C17 1_555 1_555
C18 C17 1_555 1_555
H8 C18 1_555 1_555
C19 C18 1_555 1_555
H9 C19 1_555 1_555
C20 C15 1_555 1_555
H10 C20 1_555 1_555
C21 N1 1_555 1_555
C22 S2 1_555 1_555
C23 C22 1_555 1_555
H11 C23 1_555 1_555
C24 C23 1_555 1_555
H12 C24 1_555 1_555
C25 C24 1_555 1_555
H13 C25 1_555 1_555
C26 C21 1_555 1_555
H14 C26 1_555 1_555
C27 N2 1_555 1_555
C28 C27 1_555 1_555
C29 C28 1_555 1_555
H15 C29 1_555 1_555
C30 C29 1_555 1_555
H16 C30 1_555 1_555
C31 C30 1_555 1_555
H17 C31 1_555 1_555
C32 C27 1_555 1_555
H18 C32 1_555 1_555
C33 N2 1_555 1_555
C34 S3 1_555 1_555
C35 C34 1_555 1_555
H19 C35 1_555 1_555
C36 C35 1_555 1_555
H20 C36 1_555 1_555
C37 C36 1_555 1_555
H21 C37 1_555 1_555
C38 C33 1_555 1_555
H22 C38 1_555 1_555
C7 C8 1_555 1_555
C9 C14 1_555 1_555
C13 C14 1_555 1_555
C19 C20 1_555 1_555
C21 C22 1_555 1_555
C25 C26 1_555 1_555
C31 C32 1_555 1_555
C33 C34 1_555 1_555
C37 C38 1_555 1_555

#END
