
#######################################################################
#
#                 Cambridge Crystallographic Data Centre
#                                CCDC 
#
#######################################################################
#
# If this CIF has been generated from an entry in the Cambridge 
# Structural Database, then it will include bibliographic, chemical, 
# crystal, experimental, refinement or atomic coordinate data resulting 
# from the CCDC's data processing and validation procedures.
#
#######################################################################

data_SIQCIG
_chemical_formula_moiety         'C13 H13 N1 O3'
_chemical_name_systematic        
9-ethyl-9,10-dihydro-2H,8H-chromeno[8,7-e][1,3]oxazin-2-one
_symmetry_cell_setting           orthorhombic
_symmetry_space_group_name_H-M   'P b c a'
_symmetry_Int_Tables_number      61
_space_group_name_Hall           '-P 2ac 2ab'
loop_
_symmetry_equiv_pos_site_id
_symmetry_equiv_pos_as_xyz
1 x,y,z
2 1/2-x,-y,1/2+z
3 -x,1/2+y,1/2-z
4 1/2+x,1/2-y,-z
5 -x,-y,-z
6 1/2+x,y,1/2-z
7 x,1/2-y,1/2+z
8 1/2-x,1/2+y,z
_cell_length_a                   8.9250(18)
_cell_length_b                   12.605(3)
_cell_length_c                   20.552(4)
_cell_angle_alpha                90
_cell_angle_beta                 90
_cell_angle_gamma                90
_cell_volume                     2312.09
_cell_formula_units_Z            8
loop_
_atom_site_label
_atom_site_type_symbol
_atom_site_fract_x
_atom_site_fract_y
_atom_site_fract_z
N1 N 0.3758(2) 0.05754(16) 0.31276(12)
O1 O 0.2664(2) -0.11595(14) 0.32899(11)
C1 C 0.3373(5) 0.1834(3) 0.22160(16)
H1 H 0.2940 0.1890 0.1790
H2 H 0.4426 0.1983 0.2192
H3 H 0.2900 0.2335 0.2502
O2 O 0.03006(18) 0.17645(13) 0.43139(8)
C2 C 0.3140(4) 0.0727(2) 0.24733(16)
H4 H 0.2075 0.0575 0.2483
H5 H 0.3608 0.0225 0.2179
O3 O -0.0711(2) 0.31746(15) 0.47673(10)
C3 C 0.2826(3) 0.10451(19) 0.36437(13)
H6 H 0.2474 0.1737 0.3505
H7 H 0.3425 0.1141 0.4033
C4 C 0.1498(3) 0.03473(18) 0.37985(12)
C5 C 0.1476(3) -0.07065(19) 0.36021(13)
C6 C 0.4019(3) -0.0503(2) 0.32812(18)
H8 H 0.4493 -0.0542 0.3705
H9 H 0.4713 -0.0796 0.2965
C7 C 0.0247(3) 0.07188(18) 0.41248(11)
C8 C -0.1004(3) 0.00963(19) 0.42527(13)
C9 C -0.0980(3) -0.0949(2) 0.40298(14)
H10 H -0.1808 -0.1382 0.4101
C10 C 0.0235(3) -0.1350(2) 0.37094(15)
H11 H 0.0232 -0.2049 0.3564
C11 C -0.0872(3) 0.2248(2) 0.46392(13)
C12 C -0.2149(3) 0.1589(2) 0.47775(15)
H12 H -0.2956 0.1880 0.5001
C13 C -0.2214(3) 0.0575(3) 0.45956(14)
H13 H -0.3060 0.0175 0.4694
loop_
_geom_bond_atom_site_label_1
_geom_bond_atom_site_label_2
_geom_bond_site_symmetry_1
_geom_bond_site_symmetry_2
N1 C2 1_555 1_555
O1 C5 1_555 1_555
C1 H1 1_555 1_555
H2 C1 1_555 1_555
H3 C1 1_555 1_555
O2 C7 1_555 1_555
C2 C1 1_555 1_555
H4 C2 1_555 1_555
H5 C2 1_555 1_555
O3 C11 1_555 1_555
C3 N1 1_555 1_555
H6 C3 1_555 1_555
H7 C3 1_555 1_555
C4 C3 1_555 1_555
C5 C4 1_555 1_555
C6 N1 1_555 1_555
H8 C6 1_555 1_555
H9 C6 1_555 1_555
C7 C4 1_555 1_555
C8 C7 1_555 1_555
C9 C8 1_555 1_555
H10 C9 1_555 1_555
C10 C5 1_555 1_555
H11 C10 1_555 1_555
C11 O2 1_555 1_555
C12 C11 1_555 1_555
H12 C12 1_555 1_555
C13 C8 1_555 1_555
H13 C13 1_555 1_555
O1 C6 1_555 1_555
C9 C10 1_555 1_555
C12 C13 1_555 1_555

#END
