
#######################################################################
#
#                 Cambridge Crystallographic Data Centre
#                                CCDC 
#
#######################################################################
#
# If this CIF has been generated from an entry in the Cambridge 
# Structural Database, then it will include bibliographic, chemical, 
# crystal, experimental, refinement or atomic coordinate data resulting 
# from the CCDC's data processing and validation procedures.
#
#######################################################################

data_SIQXEX
_chemical_formula_moiety         'C17 H14 N4'
_chemical_name_systematic        
1-Methyl-2-(4-phenyl-2H-1,2,3-triazol-2-yl)-1H-indole
_symmetry_cell_setting           orthorhombic
_symmetry_space_group_name_H-M   'P n a 21'
_symmetry_Int_Tables_number      33
_space_group_name_Hall           'P 2c -2n'
loop_
_symmetry_equiv_pos_site_id
_symmetry_equiv_pos_as_xyz
1 x,y,z
2 -x,-y,1/2+z
3 1/2+x,1/2-y,z
4 1/2-x,1/2+y,1/2+z
_cell_length_a                   7.411(2)
_cell_length_b                   6.553(2)
_cell_length_c                   28.707(9)
_cell_angle_alpha                90
_cell_angle_beta                 90
_cell_angle_gamma                90
_cell_volume                     1394.13
_exptl_crystal_colour            colorless
_cell_formula_units_Z            4
loop_
_atom_site_label
_atom_site_type_symbol
_atom_site_fract_x
_atom_site_fract_y
_atom_site_fract_z
N1 N 0.2959(2) 0.5271(3) 0.48207(7)
N2 N 0.3356(2) 0.6634(3) 0.44861(6)
N3 N 0.3347(3) 0.8593(3) 0.46187(7)
N4 N 0.4352(2) 0.4346(3) 0.38675(6)
C1 C 0.2667(3) 0.6710(4) 0.60617(8)
H1 H 0.3314 0.7957 0.6038
C2 C 0.2162(3) 0.5985(4) 0.64959(9)
H2 H 0.2474 0.6731 0.6768
C3 C 0.1203(4) 0.4173(4) 0.65360(9)
H3 H 0.0842 0.3694 0.6834
C4 C 0.0772(3) 0.3060(4) 0.61375(9)
H4 H 0.0124 0.1815 0.6164
C5 C 0.1290(3) 0.3770(3) 0.57005(8)
H5 H 0.1006 0.3000 0.5430
C6 C 0.2228(3) 0.5619(3) 0.56587(8)
C7 C 0.2715(3) 0.6449(3) 0.51989(8)
C8 C 0.2946(3) 0.8493(4) 0.50671(8)
H6 H 0.2831 0.9633 0.5269
C9 C 0.3533(3) 0.6127(3) 0.40102(7)
C10 C 0.2954(3) 0.7275(3) 0.36429(8)
H7 H 0.2359 0.8558 0.3656
C11 C 0.3431(3) 0.6145(3) 0.32335(8)
C12 C 0.4285(3) 0.4330(3) 0.33853(7)
C13 C 0.4904(3) 0.2838(3) 0.30721(9)
H8 H 0.5477 0.1626 0.3178
C14 C 0.4641(3) 0.3215(4) 0.26050(8)
H9 H 0.5054 0.2244 0.2384
C15 C 0.3777(4) 0.5003(4) 0.24452(9)
H10 H 0.3608 0.5202 0.2120
C16 C 0.3172(3) 0.6468(4) 0.27540(8)
H11 H 0.2594 0.7670 0.2645
C17 C 0.5309(3) 0.2842(3) 0.41497(8)
H12 H 0.5752 0.1741 0.3949
H13 H 0.4486 0.2277 0.4384
H14 H 0.6332 0.3499 0.4306
H15? H 0.5295 0.3271 0.4477
H16? H 0.6560 0.2734 0.4042
H17? H 0.4715 0.1513 0.4120
loop_
_geom_bond_atom_site_label_1
_geom_bond_atom_site_label_2
_geom_bond_site_symmetry_1
_geom_bond_site_symmetry_2
N1 N2 1_555 1_555
N2 N3 1_555 1_555
N3 C8 1_555 1_555
N4 C9 1_555 1_555
C1 H1 1_555 1_555
C2 C1 1_555 1_555
H2 C2 1_555 1_555
C3 C2 1_555 1_555
H3 C3 1_555 1_555
C4 C3 1_555 1_555
H4 C4 1_555 1_555
C5 C4 1_555 1_555
H5 C5 1_555 1_555
C6 C1 1_555 1_555
C7 N1 1_555 1_555
C8 C7 1_555 1_555
H6 C8 1_555 1_555
C9 N2 1_555 1_555
C10 C9 1_555 1_555
H7 C10 1_555 1_555
C11 C10 1_555 1_555
C12 N4 1_555 1_555
C13 C12 1_555 1_555
H8 C13 1_555 1_555
C14 C13 1_555 1_555
H9 C14 1_555 1_555
C15 C14 1_555 1_555
H10 C15 1_555 1_555
C16 C11 1_555 1_555
H11 C16 1_555 1_555
C17 N4 1_555 1_555
H12 C17 1_555 1_555
H13 C17 1_555 1_555
H14 C17 1_555 1_555
C5 C6 1_555 1_555
C6 C7 1_555 1_555
C11 C12 1_555 1_555
C15 C16 1_555 1_555

#END
