
#######################################################################
#
#                 Cambridge Crystallographic Data Centre
#                                CCDC 
#
#######################################################################
#
# If this CIF has been generated from an entry in the Cambridge 
# Structural Database, then it will include bibliographic, chemical, 
# crystal, experimental, refinement or atomic coordinate data resulting 
# from the CCDC's data processing and validation procedures.
#
#######################################################################

data_SIRBUT
_chemical_formula_moiety         'C63 H76 N6 O1 Si2'
_chemical_name_systematic        
(\m-N,N'-bis(2,6-dimethylphenyl)ethene-1,2-diamino)-(\m-9,9-dimethyl-9H-xanthene-4,5-diyl)-bis(N,N'-di-t-butylbenzenecarboximidamido)-di-silicon
_symmetry_cell_setting           triclinic
_symmetry_space_group_name_H-M   'P -1'
_symmetry_Int_Tables_number      2
_space_group_name_Hall           '-P 1'
loop_
_symmetry_equiv_pos_site_id
_symmetry_equiv_pos_as_xyz
1 x,y,z
2 -x,-y,-z
_cell_length_a                   11.3993(4)
_cell_length_b                   12.6636(5)
_cell_length_c                   21.9289(7)
_cell_angle_alpha                80.018(3)
_cell_angle_beta                 83.900(3)
_cell_angle_gamma                63.968(4)
_cell_volume                     2799.73
_exptl_crystal_colour            orange
_exptl_crystal_description       rod
_cell_formula_units_Z            2
loop_
_atom_site_label
_atom_site_type_symbol
_atom_site_fract_x
_atom_site_fract_y
_atom_site_fract_z
Si1 Si 0.23465(4) 0.09882(4) 0.29720(2)
Si2 Si 0.42740(5) -0.17411(5) 0.20651(2)
O1 O 0.34317(12) -0.15427(11) 0.33997(6)
N1 N 0.22678(14) 0.20621(13) 0.35795(8)
N2 N 0.40664(14) 0.03202(13) 0.28741(7)
N3 N 0.11551(15) 0.25377(14) 0.27594(8)
N4 N 0.43130(17) -0.27856(15) 0.14226(8)
C1 C 0.22441(17) -0.10474(17) 0.37092(9)
N5 N 0.57280(16) -0.21403(15) 0.15401(8)
N6 N 0.26075(15) -0.07294(14) 0.19665(8)
C2 C 0.15634(17) 0.01712(17) 0.35503(9)
C3 C 0.51335(17) 0.05697(16) 0.29551(9)
C4 C 0.39091(18) -0.27098(16) 0.33161(9)
C5 C 0.27518(18) 0.01421(17) 0.22591(9)
C6 C 0.45541(19) -0.29779(17) 0.27477(9)
C7 C 0.6790(2) -0.17339(19) 0.14580(10)
C8 C 0.40322(18) -0.02820(17) 0.23709(9)
C9 C 0.5425(2) -0.27830(18) 0.12027(9)
C10 C 0.0611(2) -0.12215(19) 0.44156(10)
H1 H 0.0277 -0.1677 0.4709
C11 C 0.71010(18) 0.00816(19) 0.34827(11)
H2 H 0.7738 -0.0425 0.3777
C12 C 0.52405(18) 0.15758(17) 0.26173(10)
C13 C 0.27189(18) 0.20192(17) 0.42009(9)
C14 C 0.18618(19) -0.17709(18) 0.41541(9)
C15 C 0.03274(18) 0.06820(18) 0.38416(9)
H3 H -0.0188 0.1514 0.3758
C16 C 0.60711(19) -0.13432(17) 0.37036(10)
H4 H 0.5166 -0.1246 0.3761
H5 H 0.6465 -0.1548 0.4109
H6 H 0.6570 -0.1980 0.3453
C17 C 0.13638(17) 0.29464(16) 0.32500(9)
C18 C 0.07077(18) 0.42015(17) 0.33724(10)
C19 C 0.60903(17) -0.02007(16) 0.33789(9)
C20 C 0.4264(2) 0.23856(19) 0.21439(11)
H7 H 0.3499 0.2954 0.2350
H8 H 0.3994 0.1916 0.1928
H9 H 0.4659 0.2816 0.1844
C21 C 0.02303(18) 0.31939(17) 0.22465(10)
C22 C 0.4372(2) -0.47051(18) 0.37135(10)
H10 H 0.4275 -0.5292 0.4021
C23 C 0.1553(2) -0.03354(18) 0.15669(10)
C24 C 0.0261(2) -0.0870(2) 0.24800(11)
H11 H 0.0046 -0.0254 0.2743
H12 H 0.1093 -0.1540 0.2604
H13 H -0.0431 -0.1142 0.2527
C25 C 0.3274(2) 0.07209(18) 0.44963(10)
H14 H 0.2568 0.0468 0.4582
H15 H 0.3683 0.0632 0.4885
H16 H 0.3929 0.0229 0.4212
C26 C -0.01544(19) -0.00150(19) 0.42525(10)
H17 H -0.1017 0.0339 0.4424
C27 C 0.0379(2) -0.03683(19) 0.18139(10)
C28 C 0.5230(2) -0.41945(19) 0.27101(10)
H18 H 0.5750 -0.4444 0.2348
C29 C 0.5162(2) -0.50429(19) 0.31873(11)
H19 H 0.5658 -0.5862 0.3155
C30 C 0.1350(2) 0.49240(18) 0.32020(10)
H20 H 0.2198 0.4616 0.3010
C31 C 0.62819(19) 0.18113(19) 0.27224(11)
H21 H 0.6372 0.2478 0.2488
C32 C 0.37232(19) -0.35135(17) 0.37917(9)
C33 C 0.2614(2) -0.3443(2) 0.17475(12)
H22 H 0.3057 -0.3874 0.2134
H23 H 0.2110 -0.3833 0.1632
H24 H 0.2023 -0.2624 0.1806
C34 C 0.2891(2) -0.30265(18) 0.43633(10)
C35 C 0.7253(2) -0.4503(2) 0.07802(11)
H25 H 0.7403 -0.4917 0.1190
C36 C 0.7262(2) -0.1869(2) 0.21057(10)
H26 H 0.6527 -0.1400 0.2366
H27 H 0.7943 -0.1587 0.2078
H28 H 0.7617 -0.2707 0.2289
C37 C 0.6213(2) -0.0432(2) 0.11612(11)
H29 H 0.5879 -0.0361 0.0755
H30 H 0.6892 -0.0144 0.1111
H31 H 0.5497 0.0044 0.1428
C38 C 0.3627(2) -0.3439(2) 0.12341(11)
C39 C 0.71859(19) 0.1087(2) 0.31638(12)
H32 H 0.7863 0.1281 0.3247
C40 C 0.0758(2) 0.6092(2) 0.33105(13)
H33 H 0.1195 0.6588 0.3188
C41 C 0.1621(2) 0.2742(2) 0.46307(11)
H34 H 0.1387 0.3589 0.4505
H35 H 0.1915 0.2509 0.5058
H36 H 0.0856 0.2590 0.4606
C42 C 0.6027(2) -0.2773(2) 0.00726(10)
H37 H 0.5335 -0.2001 -0.0008
C43 C 0.1627(2) 0.0183(2) 0.09500(11)
C44 C 0.6238(2) -0.33674(19) 0.06739(10)
C45 C -0.0528(2) 0.4659(2) 0.36649(12)
H38 H -0.0974 0.4171 0.3786
C46 C -0.0703(2) 0.0122(2) 0.14397(13)
H39 H -0.1502 0.0108 0.1605
C47 C 0.0527(3) 0.0652(2) 0.05926(12)
H40 H 0.0573 0.0996 0.0175
C48 C 0.2292(2) -0.3845(2) 0.47069(11)
H41 H 0.1806 -0.3522 0.5079
H42 H 0.2989 -0.4638 0.4827
H43 H 0.1697 -0.3900 0.4435
C49 C 0.3791(2) 0.2459(2) 0.41283(11)
H44 H 0.4520 0.1967 0.3873
H45 H 0.4102 0.2405 0.4537
H46 H 0.3436 0.3287 0.3928
C50 C -0.0636(3) 0.0626(3) 0.08342(14)
H47 H -0.1381 0.0954 0.0585
C51 C 0.2937(3) -0.2804(2) 0.06292(12)
H48 H 0.2332 -0.1983 0.0678
H49 H 0.2448 -0.3215 0.0522
H50 H 0.3586 -0.2804 0.0298
C52 C 0.6834(3) -0.3316(3) -0.04120(12)
H51 H 0.6691 -0.2909 -0.0824
C53 C 0.7976(2) -0.2445(2) 0.10661(11)
H52 H 0.8325 -0.3288 0.1240
H53 H 0.8648 -0.2161 0.1067
H54 H 0.7716 -0.2344 0.0640
C54 C 0.3790(2) -0.2925(2) 0.48083(10)
H55 H 0.4177 -0.2400 0.4596
H56 H 0.4485 -0.3714 0.4937
H57 H 0.3276 -0.2597 0.5174
C55 C 0.2868(2) 0.0250(2) 0.06888(11)
H58 H 0.2715 0.0727 0.0277
H59 H 0.3547 -0.0552 0.0655
H60 H 0.3153 0.0620 0.0964
C56 C 0.4538(3) -0.4736(2) 0.11568(13)
H61 H 0.5082 -0.4755 0.0778
H62 H 0.4014 -0.5165 0.1129
H63 H 0.5098 -0.5113 0.1515
C57 C -0.1096(3) 0.5817(2) 0.37774(14)
H64 H -0.1931 0.6122 0.3982
C58 C 0.8048(3) -0.5034(2) 0.02932(13)
H65 H 0.8735 -0.5810 0.0369
C59 C -0.0466(3) 0.6540(2) 0.35967(14)
H66 H -0.0874 0.7344 0.3669
C60 C 0.7838(3) -0.4434(3) -0.03013(13)
H67 H 0.8387 -0.4794 -0.0635
C61 C 0.0270(5) 0.4397(4) 0.1980(2)
H68 H -0.0163 0.4963 0.2275
H69 H -0.0182 0.4709 0.1587
H70 H 0.1181 0.4277 0.1908
C62 C 0.0630(5) 0.2510(4) 0.1689(2)
H71 H 0.1537 0.2346 0.1560
H72 H 0.0056 0.2988 0.1345
H73 H 0.0553 0.1759 0.1805
C63 C -0.1121(4) 0.3367(6) 0.2459(2)
H74 H -0.1117 0.2597 0.2628
H75 H -0.1702 0.3733 0.2109
H76 H -0.1430 0.3886 0.2782
C64? C -0.0588(6) 0.2486(6) 0.2248(3)
H77? H -0.1195 0.2848 0.1907
H78? H -0.1083 0.2501 0.2642
H79? H -0.0004 0.1663 0.2195
C65? C 0.1011(6) 0.3159(7) 0.1677(3)
H80? H 0.1507 0.3622 0.1684
H81? H 0.0436 0.3497 0.1323
H82? H 0.1617 0.2334 0.1638
C66? C -0.0753(7) 0.4486(6) 0.2331(3)
H83? H -0.0272 0.4938 0.2389
H84? H -0.1326 0.4471 0.2696
H85? H -0.1280 0.4863 0.1963
loop_
_geom_bond_atom_site_label_1
_geom_bond_atom_site_label_2
_geom_bond_site_symmetry_1
_geom_bond_site_symmetry_2
Si1 N1 1_555 1_555
Si2 N4 1_555 1_555
O1 C1 1_555 1_555
N1 C13 1_555 1_555
N2 Si1 1_555 1_555
N3 Si1 1_555 1_555
N4 C9 1_555 1_555
C1 C2 1_555 1_555
N5 Si2 1_555 1_555
N6 Si2 1_555 1_555
C2 Si1 1_555 1_555
C3 N2 1_555 1_555
C4 O1 1_555 1_555
C5 Si1 1_555 1_555
C6 Si2 1_555 1_555
C7 N5 1_555 1_555
C8 Si2 1_555 1_555
C9 N5 1_555 1_555
C10 H1 1_555 1_555
C11 H2 1_555 1_555
C12 C3 1_555 1_555
C13 C25 1_555 1_555
C14 C1 1_555 1_555
C15 C2 1_555 1_555
H3 C15 1_555 1_555
C16 H4 1_555 1_555
H5 C16 1_555 1_555
H6 C16 1_555 1_555
C17 N1 1_555 1_555
C18 C17 1_555 1_555
C19 C3 1_555 1_555
C20 C12 1_555 1_555
H7 C20 1_555 1_555
H8 C20 1_555 1_555
H9 C20 1_555 1_555
C21 N3 1_555 1_555
C22 H10 1_555 1_555
C23 N6 1_555 1_555
C24 H11 1_555 1_555
H12 C24 1_555 1_555
H13 C24 1_555 1_555
C25 H14 1_555 1_555
H15 C25 1_555 1_555
H16 C25 1_555 1_555
C26 C10 1_555 1_555
H17 C26 1_555 1_555
C27 C23 1_555 1_555
C28 C6 1_555 1_555
H18 C28 1_555 1_555
C29 C22 1_555 1_555
H19 C29 1_555 1_555
C30 C18 1_555 1_555
H20 C30 1_555 1_555
C31 C12 1_555 1_555
H21 C31 1_555 1_555
C32 C4 1_555 1_555
C33 H22 1_555 1_555
H23 C33 1_555 1_555
H24 C33 1_555 1_555
C34 C14 1_555 1_555
C35 H25 1_555 1_555
C36 C7 1_555 1_555
H26 C36 1_555 1_555
H27 C36 1_555 1_555
H28 C36 1_555 1_555
C37 C7 1_555 1_555
H29 C37 1_555 1_555
H30 C37 1_555 1_555
H31 C37 1_555 1_555
C38 N4 1_555 1_555
C39 C11 1_555 1_555
H32 C39 1_555 1_555
C40 C30 1_555 1_555
H33 C40 1_555 1_555
C41 C13 1_555 1_555
H34 C41 1_555 1_555
H35 C41 1_555 1_555
H36 C41 1_555 1_555
C42 H37 1_555 1_555
C43 C23 1_555 1_555
C44 C9 1_555 1_555
C45 C18 1_555 1_555
H38 C45 1_555 1_555
C46 C27 1_555 1_555
H39 C46 1_555 1_555
C47 C43 1_555 1_555
H40 C47 1_555 1_555
C48 C34 1_555 1_555
H41 C48 1_555 1_555
H42 C48 1_555 1_555
H43 C48 1_555 1_555
C49 C13 1_555 1_555
H44 C49 1_555 1_555
H45 C49 1_555 1_555
H46 C49 1_555 1_555
C50 C46 1_555 1_555
H47 C50 1_555 1_555
C51 C38 1_555 1_555
H48 C51 1_555 1_555
H49 C51 1_555 1_555
H50 C51 1_555 1_555
C52 C42 1_555 1_555
H51 C52 1_555 1_555
C53 C7 1_555 1_555
H52 C53 1_555 1_555
H53 C53 1_555 1_555
H54 C53 1_555 1_555
C54 C34 1_555 1_555
H55 C54 1_555 1_555
H56 C54 1_555 1_555
H57 C54 1_555 1_555
C55 C43 1_555 1_555
H58 C55 1_555 1_555
H59 C55 1_555 1_555
H60 C55 1_555 1_555
C56 C38 1_555 1_555
H61 C56 1_555 1_555
H62 C56 1_555 1_555
H63 C56 1_555 1_555
C57 C45 1_555 1_555
H64 C57 1_555 1_555
C58 C35 1_555 1_555
H65 C58 1_555 1_555
C59 C40 1_555 1_555
H66 C59 1_555 1_555
C60 C52 1_555 1_555
H67 C60 1_555 1_555
C61 C21 1_555 1_555
H68 C61 1_555 1_555
H69 C61 1_555 1_555
H70 C61 1_555 1_555
C62 C21 1_555 1_555
H71 C62 1_555 1_555
H72 C62 1_555 1_555
H73 C62 1_555 1_555
C63 C21 1_555 1_555
H74 C63 1_555 1_555
H75 C63 1_555 1_555
H76 C63 1_555 1_555
N2 C8 1_555 1_555
N3 C17 1_555 1_555
N6 C5 1_555 1_555
C4 C6 1_555 1_555
C5 C8 1_555 1_555
C10 C14 1_555 1_555
C11 C19 1_555 1_555
C15 C26 1_555 1_555
C16 C19 1_555 1_555
C22 C32 1_555 1_555
C24 C27 1_555 1_555
C28 C29 1_555 1_555
C31 C39 1_555 1_555
C32 C34 1_555 1_555
C33 C38 1_555 1_555
C35 C44 1_555 1_555
C42 C44 1_555 1_555
C47 C50 1_555 1_555
C57 C59 1_555 1_555
C58 C60 1_555 1_555

#END
