
#######################################################################
#
#                 Cambridge Crystallographic Data Centre
#                                CCDC 
#
#######################################################################
#
# If this CIF has been generated from an entry in the Cambridge 
# Structural Database, then it will include bibliographic, chemical, 
# crystal, experimental, refinement or atomic coordinate data resulting 
# from the CCDC's data processing and validation procedures.
#
#######################################################################

data_SIRGEI
_chemical_formula_moiety         'C52 H36 N2,C1 H2 Cl2'
_chemical_name_systematic        
"9-[2'-(1,2-diphenylethenyl)[1,1'-biphenyl]-4-yl]-14-phenyl-9,14-dihydrodibenzo[a,c]phenazine dichloromethane solvate"
_symmetry_cell_setting           triclinic
_symmetry_space_group_name_H-M   'P -1'
_symmetry_Int_Tables_number      2
_space_group_name_Hall           '-P 1'
loop_
_symmetry_equiv_pos_site_id
_symmetry_equiv_pos_as_xyz
1 x,y,z
2 -x,-y,-z
_cell_length_a                   9.4773(9)
_cell_length_b                   13.6425(13)
_cell_length_c                   17.4442(17)
_cell_angle_alpha                69.381(3)
_cell_angle_beta                 75.821(3)
_cell_angle_gamma                87.618(3)
_cell_volume                     2044.16
_exptl_crystal_colour            colorless
_exptl_crystal_description       prismatic
_cell_formula_units_Z            2
loop_
_atom_site_label
_atom_site_type_symbol
_atom_site_fract_x
_atom_site_fract_y
_atom_site_fract_z
Cl1 Cl 0.01276(10) 0.61544(9) 0.20674(9)
Cl2 Cl 0.10837(16) 0.51141(10) 0.08742(9)
C1 C 0.1124(5) 0.5202(3) 0.1838(3)
H1 H 0.0771 0.4536 0.2282
H2 H 0.2127 0.5325 0.1834
N1 N 0.48046(18) 1.00352(13) 0.22547(10)
N2 N 0.53697(17) 0.81817(12) 0.20355(10)
C2 C 0.3941(2) 0.85917(15) 0.09444(12)
C3 C 0.4338(2) 0.76677(17) 0.07831(14)
H3 H 0.4977 0.7231 0.1059
C4 C 0.3787(3) 0.74058(19) 0.02210(15)
H4 H 0.4060 0.6795 0.0113
C5 C 0.2824(3) 0.8047(2) -0.01879(16)
H5 H 0.2431 0.7854 -0.0556
C6 C 0.2450(3) 0.8958(2) -0.00539(13)
H6 H 0.1814 0.9384 -0.0341
C7 C 0.3001(2) 0.92711(16) 0.05081(12)
C8 C 0.2679(2) 1.02650(16) 0.06362(12)
C9 C 0.1794(2) 1.09969(19) 0.02006(14)
H7 H 0.1367 1.0835 -0.0169
C10 C 0.1550(3) 1.1940(2) 0.03104(16)
H8 H 0.0964 1.2412 0.0015
C11 C 0.2172(3) 1.2195(2) 0.08585(16)
H9 H 0.2008 1.2840 0.0927
C12 C 0.3027(2) 1.15060(17) 0.12998(14)
H10 H 0.3438 1.1684 0.1669
C13 C 0.3292(2) 1.05312(16) 0.12015(12)
C14 C 0.4166(2) 0.97864(15) 0.16749(12)
C15 C 0.4452(2) 0.88610(15) 0.15597(11)
C16 C 0.6272(2) 0.96935(16) 0.22103(12)
C17 C 0.7405(3) 1.02983(18) 0.22192(14)
H11 H 0.7226 1.0937 0.2296
C18 C 0.8809(3) 0.9944(2) 0.21124(15)
H12 H 0.9566 1.0341 0.2130
C19 C 0.9091(2) 0.9016(2) 0.19808(14)
H13 H 1.0036 0.8789 0.1907
C20 C 0.7971(2) 0.84168(17) 0.19576(13)
H14 H 0.8166 0.7794 0.1855
C21 C 0.6561(2) 0.87470(15) 0.20876(12)
C22 C 0.3874(2) 0.99340(15) 0.30632(13)
C23 C 0.2445(3) 0.9556(2) 0.32891(15)
H15 H 0.2086 0.9357 0.2912
C24 C 0.1541(3) 0.9469(2) 0.40641(17)
H16 H 0.0580 0.9220 0.4198
C25 C 0.2026(3) 0.9740(2) 0.46292(17)
H17 H 0.1412 0.9675 0.5152
C26 C 0.3421(4) 1.0107(3) 0.44234(18)
H18 H 0.3765 1.0290 0.4813
C27 C 0.4366(3) 1.0219(2) 0.36368(16)
H19 H 0.5319 1.0483 0.3505
C28 C 0.4767(2) 0.72400(14) 0.27024(12)
C29 C 0.5576(2) 0.66553(15) 0.32592(12)
H20 H 0.6492 0.6913 0.3224
C30 C 0.5033(2) 0.56995(15) 0.38611(12)
H21 H 0.5600 0.5319 0.4221
C31 C 0.36630(19) 0.52856(14) 0.39466(12)
C32 C 0.2831(2) 0.59019(16) 0.34250(13)
H22 H 0.1891 0.5664 0.3486
C33 C 0.3360(2) 0.68625(16) 0.28147(13)
H23 H 0.2771 0.7260 0.2476
C34 C 0.31221(19) 0.42255(14) 0.45639(11)
C35 C 0.1773(2) 0.40933(17) 0.51398(12)
H24 H 0.1209 0.4671 0.5121
C36 C 0.1254(2) 0.31256(19) 0.57380(13)
H25 H 0.0343 0.3055 0.6111
C37 C 0.2079(2) 0.22739(18) 0.57803(13)
H26 H 0.1736 0.1621 0.6184
C38 C 0.3423(2) 0.23843(16) 0.52242(13)
H27 H 0.3984 0.1801 0.5263
C39 C 0.39670(19) 0.33477(15) 0.46029(12)
C40 C 0.5412(2) 0.33959(15) 0.40026(12)
C41 C 0.6559(2) 0.30272(17) 0.43212(14)
H28 H 0.6406 0.2867 0.4900
C42 C 0.8026(2) 0.28400(16) 0.38836(14)
C43 C 0.9209(2) 0.2949(2) 0.41838(15)
H29 H 0.9077 0.3199 0.4627
C44 C 1.0581(3) 0.2694(2) 0.38394(17)
H30 H 1.1364 0.2778 0.4048
C45 C 1.0789(2) 0.2319(2) 0.31904(18)
H31 H 1.1710 0.2133 0.2964
C46 C 0.9638(3) 0.2218(2) 0.28764(19)
H32 H 0.9782 0.1973 0.2429
C47 C 0.8265(2) 0.2476(2) 0.32173(17)
H33 H 0.7491 0.2404 0.2997
C48 C 0.5486(2) 0.38065(16) 0.30799(13)
C49 C 0.6514(2) 0.45820(19) 0.25092(14)
H34 H 0.7169 0.4862 0.2706
C50 C 0.6581(3) 0.4944(2) 0.16577(17)
H35 H 0.7279 0.5463 0.1286
C51 C 0.5628(4) 0.4545(3) 0.13531(18)
H36 H 0.5676 0.4788 0.0777
C52 C 0.4603(3) 0.3783(3) 0.19068(18)
H37 H 0.3952 0.3507 0.1705
C53 C 0.4527(2) 0.3420(2) 0.27628(15)
H38 H 0.3818 0.2907 0.3131
loop_
_geom_bond_atom_site_label_1
_geom_bond_atom_site_label_2
_geom_bond_site_symmetry_1
_geom_bond_site_symmetry_2
Cl1 C1 1_555 1_555
Cl2 C1 1_555 1_555
C1 H1 1_555 1_555
H2 C1 1_555 1_555
N1 C14 1_555 1_555
N2 C15 1_555 1_555
C2 C3 1_555 1_555
C3 H3 1_555 1_555
C4 C3 1_555 1_555
H4 C4 1_555 1_555
C5 C4 1_555 1_555
H5 C5 1_555 1_555
C6 C5 1_555 1_555
H6 C6 1_555 1_555
C7 C2 1_555 1_555
C8 C7 1_555 1_555
C9 C8 1_555 1_555
H7 C9 1_555 1_555
C10 C9 1_555 1_555
H8 C10 1_555 1_555
C11 C10 1_555 1_555
H9 C11 1_555 1_555
C12 C11 1_555 1_555
H10 C12 1_555 1_555
C13 C8 1_555 1_555
C14 C13 1_555 1_555
C15 C2 1_555 1_555
C16 N1 1_555 1_555
C17 C16 1_555 1_555
H11 C17 1_555 1_555
C18 C17 1_555 1_555
H12 C18 1_555 1_555
C19 C18 1_555 1_555
H13 C19 1_555 1_555
C20 C19 1_555 1_555
H14 C20 1_555 1_555
C21 N2 1_555 1_555
C22 N1 1_555 1_555
C23 C22 1_555 1_555
H15 C23 1_555 1_555
C24 C23 1_555 1_555
H16 C24 1_555 1_555
C25 C24 1_555 1_555
H17 C25 1_555 1_555
C26 C25 1_555 1_555
H18 C26 1_555 1_555
C27 C22 1_555 1_555
H19 C27 1_555 1_555
C28 N2 1_555 1_555
C29 C28 1_555 1_555
H20 C29 1_555 1_555
C30 C29 1_555 1_555
H21 C30 1_555 1_555
C31 C30 1_555 1_555
C32 C31 1_555 1_555
H22 C32 1_555 1_555
C33 C28 1_555 1_555
H23 C33 1_555 1_555
C34 C31 1_555 1_555
C35 C34 1_555 1_555
H24 C35 1_555 1_555
C36 C35 1_555 1_555
H25 C36 1_555 1_555
C37 C36 1_555 1_555
H26 C37 1_555 1_555
C38 C37 1_555 1_555
H27 C38 1_555 1_555
C39 C34 1_555 1_555
C40 C39 1_555 1_555
C41 C40 1_555 1_555
H28 C41 1_555 1_555
C42 C41 1_555 1_555
C43 C42 1_555 1_555
H29 C43 1_555 1_555
C44 C43 1_555 1_555
H30 C44 1_555 1_555
C45 C44 1_555 1_555
H31 C45 1_555 1_555
C46 C45 1_555 1_555
H32 C46 1_555 1_555
C47 C42 1_555 1_555
H33 C47 1_555 1_555
C48 C40 1_555 1_555
C49 C48 1_555 1_555
H34 C49 1_555 1_555
C50 C49 1_555 1_555
H35 C50 1_555 1_555
C51 C50 1_555 1_555
H36 C51 1_555 1_555
C52 C51 1_555 1_555
H37 C52 1_555 1_555
C53 C48 1_555 1_555
H38 C53 1_555 1_555
C6 C7 1_555 1_555
C12 C13 1_555 1_555
C14 C15 1_555 1_555
C16 C21 1_555 1_555
C20 C21 1_555 1_555
C26 C27 1_555 1_555
C32 C33 1_555 1_555
C38 C39 1_555 1_555
C46 C47 1_555 1_555
C52 C53 1_555 1_555

#END
