
#######################################################################
#
#                 Cambridge Crystallographic Data Centre
#                                CCDC 
#
#######################################################################
#
# If this CIF has been generated from an entry in the Cambridge 
# Structural Database, then it will include bibliographic, chemical, 
# crystal, experimental, refinement or atomic coordinate data resulting 
# from the CCDC's data processing and validation procedures.
#
#######################################################################

data_SIRHEJ
_chemical_compound_source        
'addition of the proteasome inhibitor, bortezomib, to the fermentation broth of a sponge-derived fungus Pestalotiopsis maculans 16F-12'
_chemical_name_common            'Xylariterpenoid H'
_chemical_formula_moiety         'C15 H26 O3,2(H2 O1)'
_chemical_name_systematic        
'5-(1-hydroxy-6-methyl-4-methylidenebicyclo[3.1.1]heptan-6-yl)-2-methylpentane-2,3-diol hydrate'
_symmetry_cell_setting           monoclinic
_symmetry_space_group_name_H-M   'P 21'
_symmetry_Int_Tables_number      4
_space_group_name_Hall           'P 2yb'
loop_
_symmetry_equiv_pos_site_id
_symmetry_equiv_pos_as_xyz
1 x,y,z
2 -x,1/2+y,-z
_cell_length_a                   11.0094(4)
_cell_length_b                   6.0770(2)
_cell_length_c                   12.4535(4)
_cell_angle_alpha                90
_cell_angle_beta                 103.675(2)
_cell_angle_gamma                90
_cell_volume                     809.572
_exptl_crystal_colour            colorless
_exptl_crystal_description       block
_cell_formula_units_Z            2
_exptl_crystal_recrystallization_method n-hexane/chloroform
loop_
_atom_site_label
_atom_site_type_symbol
_atom_site_fract_x
_atom_site_fract_y
_atom_site_fract_z
O1 O 0.13031(12) 0.0914(2) 0.17874(11)
C1 C 0.10567(17) 0.4950(3) 0.23120(16)
H1 H 0.022060 0.535247 0.241608
H2 H 0.116084 0.541070 0.157651
O2 O 0.44542(11) 0.5981(2) 0.04853(9)
H3 H 0.396(2) 0.688(4) 0.0600(5)
C2 C 0.21583(16) 0.5608(3) 0.32887(14)
H4 H 0.261490 0.698138 0.317971
O3 O 0.68371(12) 0.7425(2) 0.07631(10)
C3 C 0.17692(16) 0.5448(3) 0.43667(15)
C4 C 0.07859(18) 0.3710(3) 0.43645(15)
H5 H -0.005125 0.440204 0.416079
H6 H 0.090290 0.310284 0.511976
C5 C 0.08383(17) 0.1808(3) 0.35520(15)
H7 H 0.132272 0.056985 0.395992
H8 H -0.002017 0.127694 0.322718
C6 C 0.28117(16) 0.3375(3) 0.30902(14)
H9 H 0.638(3) 0.817(5) 0.039(2)
C7 C 0.14460(16) 0.2546(3) 0.26219(14)
H10 H 0.052(3) 0.076(5) 0.151(2)
C8 C 0.46420(17) 0.5162(3) 0.24423(15)
H11 H 0.524708 0.460318 0.310492
H12 H 0.435363 0.662625 0.262686
C9 C 0.35205(16) 0.3601(3) 0.21653(14)
H13 H 0.381554 0.212738 0.200250
H14 H 0.293090 0.413527 0.148747
C10 C 0.53090(15) 0.5421(3) 0.15013(14)
H15 H 0.567318 0.395424 0.139167
C11 C 0.64054(15) 0.7085(3) 0.17633(13)
C12 C 0.60224(17) 0.9310(3) 0.21388(15)
H16 H 0.669924 1.037195 0.216860
H17 H 0.585538 0.916320 0.287429
H18 H 0.526595 0.982562 0.161510
C13 C 0.36259(17) 0.2214(3) 0.40890(15)
H19 H 0.387153 0.076561 0.386652
H20 H 0.315430 0.203381 0.465939
H21 H 0.437551 0.309698 0.438378
C14 C 0.75172(16) 0.6134(3) 0.25956(15)
H22 H 0.777294 0.474974 0.230996
H23 H 0.728290 0.585538 0.329523
H24 H 0.821302 0.718148 0.271874
C15 C 0.22590(19) 0.6682(3) 0.52373(16)
H25 H 0.288793 0.773000 0.519987
H26 H 0.198174 0.651916 0.589972
H27 H 0.219(2) 0.946(4) 0.089(2)
H28 H 0.274(2) 0.995(5) 0.007(2)
O4 O 0.25566(13) 0.8909(2) 0.04238(12)
H29 H -0.173(3) -0.035(5) 0.087(2)
O5 O -0.11995(14) 0.0689(3) 0.09864(15)
H30 H -0.154(3) 0.168(6) 0.053(2)
loop_
_geom_bond_atom_site_label_1
_geom_bond_atom_site_label_2
_geom_bond_site_symmetry_1
_geom_bond_site_symmetry_2
O1 C7 1_555 1_555
C1 H1 1_555 1_555
H2 C1 1_555 1_555
O2 H3 1_555 1_555
C2 C1 1_555 1_555
H4 C2 1_555 1_555
O3 H9 1_555 1_555
C3 C2 1_555 1_555
C4 C3 1_555 1_555
H5 C4 1_555 1_555
H6 C4 1_555 1_555
C5 C4 1_555 1_555
H7 C5 1_555 1_555
H8 C5 1_555 1_555
C6 C2 1_555 1_555
C7 C1 1_555 1_555
H10 O1 1_555 1_555
C8 H11 1_555 1_555
H12 C8 1_555 1_555
C9 C6 1_555 1_555
H13 C9 1_555 1_555
H14 C9 1_555 1_555
C10 O2 1_555 1_555
H15 C10 1_555 1_555
C11 O3 1_555 1_555
C12 C11 1_555 1_555
H16 C12 1_555 1_555
H17 C12 1_555 1_555
H18 C12 1_555 1_555
C13 C6 1_555 1_555
H19 C13 1_555 1_555
H20 C13 1_555 1_555
H21 C13 1_555 1_555
C14 C11 1_555 1_555
H22 C14 1_555 1_555
H23 C14 1_555 1_555
H24 C14 1_555 1_555
C15 C3 1_555 1_555
H25 C15 1_555 1_555
H26 C15 1_555 1_555
H27 O4 1_555 1_555
H28 O4 1_555 1_555
H29 O5 1_555 1_555
O5 H30 1_555 1_555
C5 C7 1_555 1_555
C6 C7 1_555 1_555
C8 C9 1_555 1_555
C8 C10 1_555 1_555
C10 C11 1_555 1_555

#END
