
#######################################################################
#
#                 Cambridge Crystallographic Data Centre
#                                CCDC 
#
#######################################################################
#
# If this CIF has been generated from an entry in the Cambridge 
# Structural Database, then it will include bibliographic, chemical, 
# crystal, experimental, refinement or atomic coordinate data resulting 
# from the CCDC's data processing and validation procedures.
#
#######################################################################

data_SISLEN
_chemical_formula_moiety         'C46 H32 Br2 O2'
_chemical_name_systematic        
1,10-bis(4-bromophenyl)-3,4,7,8-tetraphenyldeca-2,4,6,8-tetraene-1,10-dione
_symmetry_cell_setting           monoclinic
_symmetry_space_group_name_H-M   'P 21/c'
_symmetry_Int_Tables_number      14
_space_group_name_Hall           '-P 2ybc'
loop_
_symmetry_equiv_pos_site_id
_symmetry_equiv_pos_as_xyz
1 x,y,z
2 -x,1/2+y,1/2-z
3 -x,-y,-z
4 x,1/2-y,1/2+z
_cell_length_a                   9.630(8)
_cell_length_b                   22.542(18)
_cell_length_c                   8.563(7)
_cell_angle_alpha                90
_cell_angle_beta                 92.402(11)
_cell_angle_gamma                90
_cell_volume                     1857.22
_exptl_crystal_colour            green
_exptl_crystal_description       block
_cell_formula_units_Z            2
loop_
_atom_site_label
_atom_site_type_symbol
_atom_site_fract_x
_atom_site_fract_y
_atom_site_fract_z
Br1 Br 0.11898(10) 0.31631(4) 0.40070(12)
C1 C 0.1604(4) 0.4822(2) 0.9690(6)
O1 O 0.1540(4) 0.46139(17) 1.1009(4)
C2 C 0.1885(4) 0.5453(2) 0.9451(5)
H1 H 0.1312 0.5657 0.8733
C3 C 0.2908(4) 0.57564(18) 1.0194(4)
C4 C 0.3926(4) 0.54578(19) 1.1291(4)
C5 C 0.4911(4) 0.50809(19) 1.0827(4)
C6 C 0.1423(4) 0.4433(2) 0.8297(6)
C7 C 0.1425(6) 0.3825(3) 0.8514(8)
H2 H 0.1478 0.3666 0.9517
C8 C 0.1347(7) 0.3453(3) 0.7210(11)
H3 H 0.1359 0.3043 0.7341
C9 C 0.1252(6) 0.3691(3) 0.5737(9)
C10 C 0.1248(5) 0.4273(3) 0.5507(7)
H4 H 0.1189 0.4428 0.4500
C11 C 0.1334(5) 0.4644(2) 0.6794(6)
H5 H 0.1332 0.5052 0.6635
C12 C 0.3169(5) 0.6390(2) 0.9869(4)
C13 C 0.2112(7) 0.6766(2) 0.9329(6)
H6 H 0.1198 0.6632 0.9271
C14 C 0.2419(9) 0.7341(3) 0.8877(8)
H7 H 0.1713 0.7590 0.8499
C15 C 0.3732(10) 0.7536(3) 0.8987(8)
H8 H 0.3927 0.7921 0.8671
C16 C 0.4781(8) 0.7188(3) 0.9546(7)
H9 H 0.5685 0.7332 0.9624
C17 C 0.4491(6) 0.6614(2) 1.0000(6)
H10 H 0.5208 0.6375 1.0402
C18 C 0.3872(4) 0.56538(18) 1.2928(4)
C19 C 0.2647(5) 0.58298(19) 1.3550(5)
H11 H 0.1828 0.5810 1.2935
C20 C 0.2600(6) 0.6037(2) 1.5070(5)
H12 H 0.1759 0.6153 1.5470
C21 C 0.3789(7) 0.6069(2) 1.5971(6)
H13 H 0.3767 0.6215 1.6986
C22 C 0.5003(6) 0.5890(3) 1.5397(6)
H14 H 0.5812 0.5900 1.6028
C23 C 0.5047(5) 0.5692(2) 1.3880(5)
H15 H 0.5897 0.5582 1.3491
Br1B Br 0.88102(10) 0.68369(4) 1.59930(12)
C1B C 0.8396(4) 0.5178(2) 1.0310(6)
O1B O 0.8460(4) 0.53861(17) 0.8991(4)
C2B C 0.8115(4) 0.4547(2) 1.0549(5)
H1B H 0.8688 0.4343 1.1267
C3B C 0.7092(4) 0.42436(18) 0.9806(4)
C4B C 0.6074(4) 0.45422(19) 0.8709(4)
C5B C 0.5089(4) 0.49191(19) 0.9173(4)
C6B C 0.8577(4) 0.5567(2) 1.1703(6)
C7B C 0.8575(6) 0.6175(3) 1.1486(8)
H2B H 0.8522 0.6334 1.0483
C8B C 0.8653(7) 0.6547(3) 1.2790(11)
H3B H 0.8641 0.6957 1.2659
C9B C 0.8748(6) 0.6309(3) 1.4263(9)
C10B C 0.8752(5) 0.5727(3) 1.4493(7)
H4B H 0.8811 0.5572 1.5500
C11B C 0.8666(5) 0.5356(2) 1.3206(6)
H5B H 0.8668 0.4948 1.3365
C12B C 0.6831(5) 0.3610(2) 1.0131(4)
C13B C 0.7888(7) 0.3234(2) 1.0671(6)
H6B H 0.8802 0.3368 1.0729
C14B C 0.7581(9) 0.2659(3) 1.1123(8)
H7B H 0.8287 0.2410 1.1501
C15B C 0.6268(10) 0.2464(3) 1.1013(8)
H8B H 0.6073 0.2079 1.1329
C16B C 0.5219(8) 0.2812(3) 1.0454(7)
H9B H 0.4315 0.2668 1.0376
C17B C 0.5509(6) 0.3386(2) 1.0000(6)
H10B H 0.4792 0.3625 0.9598
C18B C 0.6128(4) 0.43462(18) 0.7072(4)
C19B C 0.7353(5) 0.41702(19) 0.6450(5)
H11B H 0.8172 0.4190 0.7065
C20B C 0.7400(6) 0.3963(2) 0.4930(5)
H12B H 0.8241 0.3847 0.4530
C21B C 0.6211(7) 0.3931(2) 0.4029(6)
H13B H 0.6233 0.3785 0.3014
C22B C 0.4997(6) 0.4110(3) 0.4603(6)
H14B H 0.4188 0.4100 0.3972
C23B C 0.4953(5) 0.4308(2) 0.6120(5)
H15B H 0.4103 0.4418 0.6509
loop_
_geom_bond_atom_site_label_1
_geom_bond_atom_site_label_2
_geom_bond_site_symmetry_1
_geom_bond_site_symmetry_2
Br1 C9 1_555 1_555
C1 O1 1_555 1_555
C2 C1 1_555 1_555
H1 C2 1_555 1_555
C3 C2 1_555 1_555
C4 C3 1_555 1_555
C5 C4 1_555 1_555
C6 C1 1_555 1_555
C7 C6 1_555 1_555
H2 C7 1_555 1_555
C8 C7 1_555 1_555
H3 C8 1_555 1_555
C9 C8 1_555 1_555
C10 C9 1_555 1_555
H4 C10 1_555 1_555
C11 C6 1_555 1_555
H5 C11 1_555 1_555
C12 C3 1_555 1_555
C13 C12 1_555 1_555
H6 C13 1_555 1_555
C14 C13 1_555 1_555
H7 C14 1_555 1_555
C15 C14 1_555 1_555
H8 C15 1_555 1_555
C16 C15 1_555 1_555
H9 C16 1_555 1_555
C17 C12 1_555 1_555
H10 C17 1_555 1_555
C18 C4 1_555 1_555
C19 C18 1_555 1_555
H11 C19 1_555 1_555
C20 C19 1_555 1_555
H12 C20 1_555 1_555
C21 C20 1_555 1_555
H13 C21 1_555 1_555
C22 C21 1_555 1_555
H14 C22 1_555 1_555
C23 C18 1_555 1_555
H15 C23 1_555 1_555
Br1B C9B 1_555 1_555
C1B O1B 1_555 1_555
C2B C1B 1_555 1_555
H1B C2B 1_555 1_555
C3B C2B 1_555 1_555
C4B C3B 1_555 1_555
C5B C5 1_555 1_555
C6B C1B 1_555 1_555
C7B C6B 1_555 1_555
H2B C7B 1_555 1_555
C8B C7B 1_555 1_555
H3B C8B 1_555 1_555
C9B C8B 1_555 1_555
C10B C9B 1_555 1_555
H4B C10B 1_555 1_555
C11B C6B 1_555 1_555
H5B C11B 1_555 1_555
C12B C3B 1_555 1_555
C13B C12B 1_555 1_555
H6B C13B 1_555 1_555
C14B C13B 1_555 1_555
H7B C14B 1_555 1_555
C15B C14B 1_555 1_555
H8B C15B 1_555 1_555
C16B C15B 1_555 1_555
H9B C16B 1_555 1_555
C17B C12B 1_555 1_555
H10B C17B 1_555 1_555
C18B C4B 1_555 1_555
C19B C18B 1_555 1_555
H11B C19B 1_555 1_555
C20B C19B 1_555 1_555
H12B C20B 1_555 1_555
C21B C20B 1_555 1_555
H13B C21B 1_555 1_555
C22B C21B 1_555 1_555
H14B C22B 1_555 1_555
C23B C18B 1_555 1_555
H15B C23B 1_555 1_555
C10 C11 1_555 1_555
C16 C17 1_555 1_555
C22 C23 1_555 1_555
C4B C5B 1_555 1_555
C10B C11B 1_555 1_555
C16B C17B 1_555 1_555
C22B C23B 1_555 1_555

#END
