
#######################################################################
#
#                 Cambridge Crystallographic Data Centre
#                                CCDC 
#
#######################################################################
#
# If this CIF has been generated from an entry in the Cambridge 
# Structural Database, then it will include bibliographic, chemical, 
# crystal, experimental, refinement or atomic coordinate data resulting 
# from the CCDC's data processing and validation procedures.
#
#######################################################################

data_SISQIX
_chemical_formula_moiety         'C44 H18 Cl4 N12 O12'
_chemical_name_systematic        
'1,4-phenylene bis[5,17-dichloro-2,8,14,20-tetraoxa-4,6,16,18,26,28-hexaazapentacyclo[19.3.1.1^3,7^.1^9,13^.1^15,19^]octacosa-1(25),3(28),4,6,9(27),10,12,15(26),16,18,21,23-dodecaene-11-carboxylate] unknown solvate'
_symmetry_cell_setting           monoclinic
_symmetry_space_group_name_H-M   'C 2/c'
_symmetry_Int_Tables_number      15
_space_group_name_Hall           '-C 2yn'
loop_
_symmetry_equiv_pos_site_id
_symmetry_equiv_pos_as_xyz
1 x,y,z
2 -x,y,1/2-z
3 1/2+x,1/2+y,z
4 1/2-x,1/2+y,1/2-z
5 -x,-y,-z
6 x,-y,1/2+z
7 1/2-x,1/2-y,-z
8 1/2+x,1/2-y,1/2+z
_cell_length_a                   28.286(6)
_cell_length_b                   13.537(3)
_cell_length_c                   16.108(3)
_cell_angle_alpha                90
_cell_angle_beta                 116.85(3)
_cell_angle_gamma                90
_cell_volume                     5502.93
_exptl_crystal_colour            colorless
_exptl_crystal_description       block
_cell_formula_units_Z            4
loop_
_atom_site_label
_atom_site_type_symbol
_atom_site_fract_x
_atom_site_fract_y
_atom_site_fract_z
Cl1 Cl 0.80170(9) 0.83968(14) 0.32886(13)
Cl2 Cl 0.43327(16) 1.2315(4) 0.3002(3)
O1 O 0.64268(19) 0.7433(4) 0.3458(3)
O2 O 0.4928(2) 0.8997(6) 0.3526(5)
O3 O 0.60513(18) 1.1387(3) 0.5423(3)
O4 O 0.75620(14) 0.9569(3) 0.5650(2)
O5 O 0.67182(15) 0.9471(3) 0.8457(2)
O6 O 0.73255(16) 0.8452(3) 0.8358(2)
N1 N 0.7174(2) 0.7886(4) 0.3403(3)
N2 N 0.77524(19) 0.9008(4) 0.4532(3)
N3 N 0.6973(2) 0.8500(3) 0.4589(3)
N4 N 0.5533(2) 1.0118(5) 0.4519(4)
N5 N 0.4673(4) 1.0525(8) 0.3336(6)
N6 N 0.5252(3) 1.1786(6) 0.4302(5)
C1 C 0.7604(3) 0.8426(5) 0.3792(4)
C2 C 0.6873(3) 0.7956(5) 0.3828(4)
C3 C 0.7408(2) 0.8991(4) 0.4898(3)
C4 C 0.6052(3) 0.7515(7) 0.3774(5)
C5 C 0.5979(3) 0.6732(8) 0.4223(6)
H1 H 0.6196 0.6164 0.4325
C6 C 0.5591(4) 0.6729(10) 0.4543(9)
H2 H 0.5577 0.6214 0.4932
C7 C 0.5251(4) 0.7457(10) 0.4291(8)
H3 H 0.4958 0.7440 0.4428
C8 C 0.5321(4) 0.8230(8) 0.3833(7)
C9 C 0.5728(3) 0.8311(6) 0.3552(5)
H4 H 0.5770 0.8873 0.3237
C10 C 0.5064(4) 0.9924(8) 0.3784(7)
C11 C 0.4814(5) 1.1398(10) 0.3598(9)
C12 C 0.5602(3) 1.1054(7) 0.4684(5)
C13 C 0.6450(2) 1.0662(4) 0.5877(4)
C14 C 0.6791(2) 1.0443(4) 0.5501(4)
H5 H 0.6758 1.0744 0.4944
C15 C 0.7178(2) 0.9770(4) 0.5979(3)
C16 C 0.7251(2) 0.9335(4) 0.6795(3)
H6 H 0.7528 0.8870 0.7098
C17 C 0.6913(2) 0.9589(4) 0.7168(3)
C18 C 0.6514(2) 1.0278(4) 0.6722(3)
H7 H 0.6290 1.0481 0.6987
C19 C 0.6965(2) 0.9182(4) 0.8051(3)
C20 C 0.7415(2) 0.7990(5) 0.9219(4)
C21 C 0.7815(2) 0.8293(5) 1.0004(4)
H8 H 0.8026 0.8838 1.0004
C22 C 0.7923(3) 0.7794(5) 1.0842(4)
H9 H 0.8210 0.7981 1.1418
Cl1F Cl 0.69830(9) 0.66032(14) 1.67114(13)
Cl2F Cl 1.06673(16) 0.2685(4) 1.6998(3)
O1F O 0.85732(19) 0.7567(4) 1.6542(3)
O2F O 1.0072(2) 0.6003(6) 1.6474(5)
O3F O 0.89487(18) 0.3613(3) 1.4577(3)
O4F O 0.74380(14) 0.5431(3) 1.4350(2)
O5F O 0.82818(15) 0.5529(3) 1.1543(2)
O6F O 0.76745(16) 0.6548(3) 1.1642(2)
N1F N 0.7826(2) 0.7114(4) 1.6597(3)
N2F N 0.72476(19) 0.5992(4) 1.5468(3)
N3F N 0.8027(2) 0.6500(3) 1.5411(3)
N4F N 0.9467(2) 0.4882(5) 1.5481(4)
N5F N 1.0327(4) 0.4475(8) 1.6664(6)
N6F N 0.9748(3) 0.3214(6) 1.5698(5)
C1F C 0.7396(3) 0.6574(5) 1.6208(4)
C2F C 0.8127(3) 0.7044(5) 1.6172(4)
C3F C 0.7592(2) 0.6009(4) 1.5102(3)
C4F C 0.8948(3) 0.7485(7) 1.6226(5)
C5F C 0.9021(3) 0.8268(8) 1.5777(6)
H1F H 0.8804 0.8836 1.5675
C6F C 0.9409(4) 0.8271(10) 1.5457(9)
H2F H 0.9423 0.8786 1.5068
C7F C 0.9749(4) 0.7543(10) 1.5709(8)
H3F H 1.0042 0.7560 1.5572
C8F C 0.9679(4) 0.6770(8) 1.6167(7)
C9F C 0.9272(3) 0.6689(6) 1.6448(5)
H4F H 0.9230 0.6127 1.6763
C10F C 0.9936(4) 0.5076(8) 1.6216(7)
C11F C 1.0186(5) 0.3602(10) 1.6402(9)
C12F C 0.9398(3) 0.3946(7) 1.5316(5)
C13F C 0.8550(2) 0.4338(4) 1.4123(4)
C14F C 0.8209(2) 0.4557(4) 1.4499(4)
H5F H 0.8242 0.4256 1.5056
C15F C 0.7822(2) 0.5230(4) 1.4021(3)
C16F C 0.7749(2) 0.5665(4) 1.3205(3)
H6F H 0.7472 0.6130 1.2902
C17F C 0.8087(2) 0.5411(4) 1.2832(3)
C18F C 0.8486(2) 0.4722(4) 1.3278(3)
H7F H 0.8710 0.4519 1.3013
C19F C 0.8035(2) 0.5818(4) 1.1949(3)
C20F C 0.7585(2) 0.7010(5) 1.0781(4)
C21F C 0.7185(2) 0.6707(5) 0.9996(4)
H8F H 0.6974 0.6162 0.9996
C22F C 0.7077(3) 0.7206(5) 0.9158(4)
H9F H 0.6790 0.7019 0.8582
loop_
_geom_bond_atom_site_label_1
_geom_bond_atom_site_label_2
_geom_bond_site_symmetry_1
_geom_bond_site_symmetry_2
Cl1 C1 1_555 1_555
Cl2 C11 1_555 1_555
O1 C2 1_555 1_555
O2 C8 1_555 1_555
O3 C12 1_555 1_555
O4 C3 1_555 1_555
O5 C19 1_555 1_555
O6 C19 1_555 1_555
N1 C1 1_555 1_555
N2 C1 1_555 1_555
N3 C2 1_555 1_555
N4 C10 1_555 1_555
N5 C10 1_555 1_555
N6 C11 1_555 1_555
C2 N1 1_555 1_555
C3 N2 1_555 1_555
C4 O1 1_555 1_555
C5 C4 1_555 1_555
H1 C5 1_555 1_555
C6 C5 1_555 1_555
H2 C6 1_555 1_555
C7 C6 1_555 1_555
H3 C7 1_555 1_555
C8 C7 1_555 1_555
C9 C4 1_555 1_555
H4 C9 1_555 1_555
C10 O2 1_555 1_555
C11 N5 1_555 1_555
C12 N4 1_555 1_555
C13 O3 1_555 1_555
C14 C13 1_555 1_555
H5 C14 1_555 1_555
C15 O4 1_555 1_555
C16 C15 1_555 1_555
H6 C16 1_555 1_555
C17 C16 1_555 1_555
C18 C13 1_555 1_555
H7 C18 1_555 1_555
C19 C17 1_555 1_555
C20 O6 1_555 1_555
C21 C20 1_555 1_555
H8 C21 1_555 1_555
C22 C21 1_555 1_555
H9 C22 1_555 1_555
Cl1F C1F 1_555 1_555
Cl2F C11F 1_555 1_555
O1F C2F 1_555 1_555
O2F C8F 1_555 1_555
O3F C12F 1_555 1_555
O4F C3F 1_555 1_555
O5F C19F 1_555 1_555
O6F C19F 1_555 1_555
N1F C1F 1_555 1_555
N2F C1F 1_555 1_555
N3F C2F 1_555 1_555
N4F C10F 1_555 1_555
N5F C10F 1_555 1_555
N6F C11F 1_555 1_555
C2F N1F 1_555 1_555
C3F N2F 1_555 1_555
C4F O1F 1_555 1_555
C5F C4F 1_555 1_555
H1F C5F 1_555 1_555
C6F C5F 1_555 1_555
H2F C6F 1_555 1_555
C7F C6F 1_555 1_555
H3F C7F 1_555 1_555
C8F C7F 1_555 1_555
C9F C4F 1_555 1_555
H4F C9F 1_555 1_555
C10F O2F 1_555 1_555
C11F N5F 1_555 1_555
C12F N4F 1_555 1_555
C13F O3F 1_555 1_555
C14F C13F 1_555 1_555
H5F C14F 1_555 1_555
C15F O4F 1_555 1_555
C16F C15F 1_555 1_555
H6F C16F 1_555 1_555
C17F C16F 1_555 1_555
C18F C13F 1_555 1_555
H7F C18F 1_555 1_555
C19F C17F 1_555 1_555
C20F C22 1_555 1_555
C21F C20F 1_555 1_555
H8F C21F 1_555 1_555
C22F C20 1_555 1_555
H9F C22F 1_555 1_555
N3 C3 1_555 1_555
N6 C12 1_555 1_555
C8 C9 1_555 1_555
C14 C15 1_555 1_555
C17 C18 1_555 1_555
O6F C20F 1_555 1_555
N3F C3F 1_555 1_555
N6F C12F 1_555 1_555
C8F C9F 1_555 1_555
C14F C15F 1_555 1_555
C17F C18F 1_555 1_555
C21F C22F 1_555 1_555

#END
