
#######################################################################
#
#                 Cambridge Crystallographic Data Centre
#                                CCDC 
#
#######################################################################
#
# If this CIF has been generated from an entry in the Cambridge 
# Structural Database, then it will include bibliographic, chemical, 
# crystal, experimental, refinement or atomic coordinate data resulting 
# from the CCDC's data processing and validation procedures.
#
#######################################################################

data_SISZOK
_chemical_name_common            'PDB Chemical Component code: GA4'
_chemical_formula_moiety         'C19 H24 O5,H2 O1'
_chemical_name_systematic        'Gibberellin A4 monohydrate'
_symmetry_cell_setting           monoclinic
_symmetry_space_group_name_H-M   'P 21'
_symmetry_Int_Tables_number      4
_space_group_name_Hall           'P 2yb'
loop_
_symmetry_equiv_pos_site_id
_symmetry_equiv_pos_as_xyz
1 x,y,z
2 -x,1/2+y,-z
_cell_length_a                   9.6466(13)
_cell_length_b                   18.968(3)
_cell_length_c                   9.4910(12)
_cell_angle_alpha                90
_cell_angle_beta                 89.989(3)
_cell_angle_gamma                90
_cell_volume                     1736.63
_exptl_crystal_colour            colorless
_exptl_crystal_description       prism
_cell_formula_units_Z            4
loop_
_atom_site_label
_atom_site_type_symbol
_atom_site_fract_x
_atom_site_fract_y
_atom_site_fract_z
O1 O 0.4911(5) 0.4162(3) 0.4548(5)
O2 O 0.3349(6) 0.3352(3) 0.3931(6)
O3 O 0.2111(6) 0.5532(3) 0.2383(7)
H1 H 0.2615 0.5851 0.2043
O4 O 0.1765(6) 0.4775(3) 0.8495(6)
H2 H 0.1107 0.4964 0.8936
O5 O 0.1604(6) 0.5757(3) 0.7208(6)
C1 C 0.4931(8) 0.4951(4) 0.4695(8)
C2 C 0.3418(7) 0.5094(4) 0.5070(7)
H3 H 0.3155 0.5599 0.4920
C3 C 0.2695(8) 0.4602(4) 0.4041(8)
C4 C 0.3615(8) 0.3961(4) 0.4122(8)
C5 C 0.2899(9) 0.4894(5) 0.2509(8)
H4 H 0.2502 0.4542 0.1837
C6 C 0.4416(9) 0.4998(5) 0.2134(9)
H5 H 0.4797 0.4541 0.1813
H6 H 0.4472 0.5331 0.1332
C7 C 0.5301(9) 0.5267(5) 0.3279(8)
H7 H 0.5206 0.5786 0.3332
H8 H 0.6282 0.5158 0.3062
C8 C 0.5786(8) 0.5146(5) 0.5987(8)
H9 H 0.6024 0.5658 0.5910
C9 C 0.7138(8) 0.4740(5) 0.6141(9)
H10 H 0.7798 0.4897 0.5406
H11 H 0.6960 0.4231 0.5999
C10 C 0.7792(9) 0.4857(6) 0.7620(10)
H12 H 0.8449 0.4469 0.7823
H13 H 0.8319 0.5305 0.7619
C11 C 0.6678(8) 0.4884(4) 0.8784(9)
H14 H 0.7037 0.4674 0.9678
C12 C 0.6146(8) 0.5632(4) 0.9034(8)
C13 C 0.4837(8) 0.5720(4) 0.8192(8)
H15 H 0.4881 0.6150 0.7603
H16 H 0.4019 0.5751 0.8819
C14 C 0.4764(8) 0.5059(4) 0.7271(8)
C15 C 0.5351(8) 0.4502(5) 0.8300(8)
H17 H 0.4712 0.4413 0.9097
H18 H 0.5563 0.4053 0.7817
C16 C 0.3326(7) 0.4877(4) 0.6617(7)
H19 H 0.3225 0.4353 0.6643
C17 C 0.1175(8) 0.4436(5) 0.4304(9)
H20 H 0.0794 0.4185 0.3488
H21 H 0.0662 0.4876 0.4448
H22 H 0.1090 0.4139 0.5145
C18 C 0.6703(11) 0.6092(6) 0.9877(12)
H23 H 0.6275 0.6538 1.0009
H24 H 0.7537 0.5982 1.0362
C19 C 0.2140(8) 0.5185(4) 0.7452(8)
O6 O 0.0054(6) 0.5236(3) 0.0452(6)
H25 H -0.060(5) 0.500(3) 0.074(7)
H26 H 0.073(7) 0.501(4) 0.017(15)
O7 O 0.9843(5) 0.3447(3) 1.1202(6)
O8 O 0.8233(6) 0.4220(3) 1.1879(6)
O9 O 0.7109(6) 0.2016(3) 1.3376(6)
H27 H 0.7274 0.1835 1.4166
O10 O 0.6679(6) 0.2784(3) 0.7237(6)
H28 H 0.6143 0.2548 0.6722
O11 O 0.6654(6) 0.1799(3) 0.8549(6)
C20 C 0.9918(8) 0.2658(4) 1.0997(8)
C21 C 0.8411(8) 0.2487(4) 1.0648(7)
H29 H 0.8199 0.1974 1.0771
C22 C 0.7644(8) 0.2944(4) 1.1708(8)
C23 C 0.8545(8) 0.3612(4) 1.1630(8)
C24 C 0.7910(10) 0.2646(4) 1.3216(9)
H30 H 0.7535 0.2998 1.3900
C25 C 0.9411(10) 0.2544(6) 1.3561(9)
H31 H 0.9761 0.2990 1.3973
H32 H 0.9475 0.2179 1.4302
C26 C 1.0352(10) 0.2341(5) 1.2404(9)
H33 H 1.0366 0.1821 1.2321
H34 H 1.1303 0.2500 1.2633
C27 C 1.0758(8) 0.2501(4) 0.9691(8)
H35 H 1.1051 0.1996 0.9753
C28 C 1.2069(8) 0.2936(5) 0.9501(9)
H36 H 1.1839 0.3442 0.9612
H37 H 1.2740 0.2809 1.0248
C29 C 1.2738(8) 0.2823(5) 0.8075(9)
H38 H 1.3313 0.2391 0.8104
H39 H 1.3356 0.3226 0.7862
C30 C 1.1624(8) 0.2751(5) 0.6870(8)
H40 H 1.1956 0.2951 0.5956
C31 C 1.1162(8) 0.1991(4) 0.6727(8)
C32 C 0.9801(8) 0.1890(4) 0.7541(8)
H41 H 0.9000 0.1853 0.6893
H42 H 0.9837 0.1465 0.8145
C33 C 0.9726(7) 0.2559(4) 0.8422(8)
C34 C 1.0251(8) 0.3109(4) 0.7386(8)
H43 H 1.0436 0.3566 0.7856
H44 H 0.9592 0.3182 0.6601
C35 C 0.8283(7) 0.2725(4) 0.9086(7)
H45 H 0.8138 0.3247 0.9067
C36 C 0.6119(9) 0.3093(5) 1.1440(10)
H46 H 0.6011 0.3314 1.0514
H47 H 0.5765 0.3411 1.2171
H48 H 0.5598 0.2649 1.1464
C37 C 1.1780(10) 0.1493(5) 0.6011(11)
H49 H 1.2610 0.1592 0.5510
H50 H 1.1399 0.1031 0.5992
C38 C 0.7126(7) 0.2382(4) 0.8290(8)
O12 O 0.5048(6) 0.2267(4) 0.5279(6)
H51 H 0.569(6) 0.213(5) 0.477(7)
H52 H 0.441(8) 0.246(7) 0.485(8)
loop_
_geom_bond_atom_site_label_1
_geom_bond_atom_site_label_2
_geom_bond_site_symmetry_1
_geom_bond_site_symmetry_2
O1 C1 1_555 1_555
O2 C4 1_555 1_555
O3 H1 1_555 1_555
O4 H2 1_555 1_555
O5 C19 1_555 1_555
C1 C2 1_555 1_555
C2 H3 1_555 1_555
C3 C2 1_555 1_555
C4 O1 1_555 1_555
C5 O3 1_555 1_555
H4 C5 1_555 1_555
C6 C5 1_555 1_555
H5 C6 1_555 1_555
H6 C6 1_555 1_555
C7 C1 1_555 1_555
H7 C7 1_555 1_555
H8 C7 1_555 1_555
C8 C1 1_555 1_555
H9 C8 1_555 1_555
C9 C8 1_555 1_555
H10 C9 1_555 1_555
H11 C9 1_555 1_555
C10 C9 1_555 1_555
H12 C10 1_555 1_555
H13 C10 1_555 1_555
C11 C10 1_555 1_555
H14 C11 1_555 1_555
C12 C11 1_555 1_555
C13 C12 1_555 1_555
H15 C13 1_555 1_555
H16 C13 1_555 1_555
C14 C8 1_555 1_555
C15 C11 1_555 1_555
H17 C15 1_555 1_555
H18 C15 1_555 1_555
C16 C2 1_555 1_555
H19 C16 1_555 1_555
C17 C3 1_555 1_555
H20 C17 1_555 1_555
H21 C17 1_555 1_555
H22 C17 1_555 1_555
C18 C12 1_555 1_555
H23 C18 1_555 1_555
H24 C18 1_555 1_555
C19 O4 1_555 1_555
O6 H25 1_555 1_555
H26 O6 1_555 1_555
O7 C20 1_555 1_555
O8 C23 1_555 1_555
O9 H27 1_555 1_555
O10 H28 1_555 1_555
O11 C38 1_555 1_555
C20 C21 1_555 1_555
C21 H29 1_555 1_555
C22 C21 1_555 1_555
C23 O7 1_555 1_555
C24 O9 1_555 1_555
H30 C24 1_555 1_555
C25 C24 1_555 1_555
H31 C25 1_555 1_555
H32 C25 1_555 1_555
C26 C20 1_555 1_555
H33 C26 1_555 1_555
H34 C26 1_555 1_555
C27 C20 1_555 1_555
H35 C27 1_555 1_555
C28 C27 1_555 1_555
H36 C28 1_555 1_555
H37 C28 1_555 1_555
C29 C28 1_555 1_555
H38 C29 1_555 1_555
H39 C29 1_555 1_555
C30 C29 1_555 1_555
H40 C30 1_555 1_555
C31 C30 1_555 1_555
C32 C31 1_555 1_555
H41 C32 1_555 1_555
H42 C32 1_555 1_555
C33 C27 1_555 1_555
C34 C30 1_555 1_555
H43 C34 1_555 1_555
H44 C34 1_555 1_555
C35 C21 1_555 1_555
H45 C35 1_555 1_555
C36 C22 1_555 1_555
H46 C36 1_555 1_555
H47 C36 1_555 1_555
H48 C36 1_555 1_555
C37 C31 1_555 1_555
H49 C37 1_555 1_555
H50 C37 1_555 1_555
C38 O10 1_555 1_555
O12 H51 1_555 1_555
H52 O12 1_555 1_555
C3 C4 1_555 1_555
C3 C5 1_555 1_555
C6 C7 1_555 1_555
C13 C14 1_555 1_555
C14 C15 1_555 1_555
C14 C16 1_555 1_555
C16 C19 1_555 1_555
C22 C23 1_555 1_555
C22 C24 1_555 1_555
C25 C26 1_555 1_555
C32 C33 1_555 1_555
C33 C34 1_555 1_555
C33 C35 1_555 1_555
C35 C38 1_555 1_555

#END
