
#######################################################################
#
#                 Cambridge Crystallographic Data Centre
#                                CCDC 
#
#######################################################################
#
# If this CIF has been generated from an entry in the Cambridge 
# Structural Database, then it will include bibliographic, chemical, 
# crystal, experimental, refinement or atomic coordinate data resulting 
# from the CCDC's data processing and validation procedures.
#
#######################################################################

data_SITBUT
_chemical_formula_moiety         'C14 H10 Cl2 N2'
_chemical_name_systematic        1,2-bis(2-Chlorobenzylidene)hydrazine
_symmetry_cell_setting           monoclinic
_symmetry_space_group_name_H-M   'P 21/c'
_symmetry_Int_Tables_number      14
_space_group_name_Hall           '-P 2ybc'
loop_
_symmetry_equiv_pos_site_id
_symmetry_equiv_pos_as_xyz
1 x,y,z
2 -x,1/2+y,1/2-z
3 -x,-y,-z
4 x,1/2-y,1/2+z
_cell_length_a                   3.9449(17)
_cell_length_b                   13.548(6)
_cell_length_c                   11.993(5)
_cell_angle_alpha                90
_cell_angle_beta                 93.931(6)
_cell_angle_gamma                90
_cell_volume                     639.464
_exptl_crystal_colour            colorless
_exptl_crystal_description       block
_cell_formula_units_Z            2
_exptl_crystal_recrystallization_method 'dichloromethane/abs. ethanol'
loop_
_atom_site_label
_atom_site_type_symbol
_atom_site_fract_x
_atom_site_fract_y
_atom_site_fract_z
Cl1 Cl 0.47589(13) 0.61367(3) 0.83542(4)
C1 C 0.0082(4) 0.75417(13) 0.57454(14)
H1 H -0.0887 0.7395 0.5036
C2 C 0.1598(4) 0.57711(12) 0.59883(13)
H2 H 0.3006 0.5310 0.6361
C3 C 0.1555(4) 0.67868(12) 0.64024(13)
C4 C 0.2921(4) 0.80006(13) 0.78504(14)
H3 H 0.3884 0.8156 0.8558
C5 C 0.2958(4) 0.70373(12) 0.74636(13)
C6 C 0.1449(5) 0.87235(13) 0.71780(17)
H4 H 0.1408 0.9370 0.7436
C7 C 0.0033(5) 0.85042(13) 0.61264(16)
H5 H -0.0950 0.9000 0.5676
N1 N -0.0248(4) 0.55045(9) 0.51295(11)
Cl1B Cl -0.47589(13) 0.38633(3) 0.16458(4)
C1B C -0.0082(4) 0.24583(13) 0.42546(14)
H1B H 0.0887 0.2605 0.4964
C2B C -0.1598(4) 0.42289(12) 0.40117(13)
H2B H -0.3006 0.4690 0.3639
C3B C -0.1555(4) 0.32132(12) 0.35976(13)
C4B C -0.2921(4) 0.19994(13) 0.21496(14)
H3B H -0.3884 0.1844 0.1442
C5B C -0.2958(4) 0.29627(12) 0.25364(13)
C6B C -0.1449(5) 0.12765(13) 0.28220(17)
H4B H -0.1408 0.0630 0.2564
C7B C -0.0033(5) 0.14958(13) 0.38736(16)
H5B H 0.0950 0.1000 0.4324
N1B N 0.0248(4) 0.44955(9) 0.48705(11)
loop_
_geom_bond_atom_site_label_1
_geom_bond_atom_site_label_2
_geom_bond_site_symmetry_1
_geom_bond_site_symmetry_2
Cl1 C5 1_555 1_555
C1 H1 1_555 1_555
C2 H2 1_555 1_555
C3 C1 1_555 1_555
C4 H3 1_555 1_555
C5 C3 1_555 1_555
C6 C4 1_555 1_555
H4 C6 1_555 1_555
C7 C1 1_555 1_555
H5 C7 1_555 1_555
N1 C2 1_555 1_555
Cl1B C5B 1_555 1_555
C1B H1B 1_555 1_555
C2B H2B 1_555 1_555
C3B C1B 1_555 1_555
C4B H3B 1_555 1_555
C5B C3B 1_555 1_555
C6B C4B 1_555 1_555
H4B C6B 1_555 1_555
C7B C1B 1_555 1_555
H5B C7B 1_555 1_555
N1B N1 1_555 1_555
C2 C3 1_555 1_555
C4 C5 1_555 1_555
C6 C7 1_555 1_555
C2B C3B 1_555 1_555
C2B N1B 1_555 1_555
C4B C5B 1_555 1_555
C6B C7B 1_555 1_555

#END
