
#######################################################################
#
#                 Cambridge Crystallographic Data Centre
#                                CCDC 
#
#######################################################################
#
# If this CIF has been generated from an entry in the Cambridge 
# Structural Database, then it will include bibliographic, chemical, 
# crystal, experimental, refinement or atomic coordinate data resulting 
# from the CCDC's data processing and validation procedures.
#
#######################################################################

data_SITBUV
_chemical_formula_moiety         'C39 H36 F1 N1 O6'
_chemical_name_systematic        
'(E)-diethyl 2,3-dibenzyl-3-(5-fluoro-2-(3-oxo-3-p-tolylprop-1-enyl)phenyl)-2,3-dihydroisoxazole-4,5-dicarboxylate'
_symmetry_cell_setting           monoclinic
_symmetry_space_group_name_H-M   'C 2/c'
_symmetry_Int_Tables_number      15
_space_group_name_Hall           '-C 2yn'
loop_
_symmetry_equiv_pos_site_id
_symmetry_equiv_pos_as_xyz
1 x,y,z
2 -x,y,1/2-z
3 1/2+x,1/2+y,z
4 1/2-x,1/2+y,1/2-z
5 -x,-y,-z
6 x,-y,1/2+z
7 1/2-x,1/2-y,-z
8 1/2+x,1/2-y,1/2+z
_cell_length_a                   25.32(2)
_cell_length_b                   18.240(16)
_cell_length_c                   18.22(3)
_cell_angle_alpha                90
_cell_angle_beta                 127.581(10)
_cell_angle_gamma                90
_cell_volume                     6668.56
_exptl_crystal_colour            colorless
_cell_formula_units_Z            8
loop_
_atom_site_label
_atom_site_type_symbol
_atom_site_fract_x
_atom_site_fract_y
_atom_site_fract_z
F1 F 0.62056(6) 0.79896(7) 0.09810(9)
O1 O 0.94736(9) 0.87752(8) 0.10233(16)
N1 N 0.80493(6) 0.99845(6) 0.10610(9)
C1 C 0.73377(8) 0.88735(8) 0.06673(11)
O2 O 0.58659(7) 0.97033(8) -0.12047(11)
C2 C 0.68014(9) 0.87509(9) 0.06837(12)
H1 H 0.6490 0.9120 0.0501
O3 O 0.58597(7) 1.06963(8) -0.04917(11)
C3 C 0.67325(10) 0.80854(10) 0.09693(13)
O4 O 0.71443(8) 1.19505(8) 0.09838(11)
C4 C 0.71772(11) 0.75208(10) 0.12491(14)
H2 H 0.7119 0.7073 0.1436
O5 O 0.66711(7) 1.18712(7) -0.05198(10)
C5 C 0.77118(10) 0.76395(9) 0.12431(12)
H3 H 0.8017 0.7263 0.1431
O6 O 0.78919(5) 1.07775(5) 0.08744(8)
C6 C 0.78116(9) 0.83085(8) 0.09640(11)
C7 C 0.84190(9) 0.84130(9) 0.10336(11)
H4 H 0.8534 0.8897 0.1034
C8 C 0.88219(9) 0.79102(9) 0.10949(12)
H5 H 0.8741 0.7416 0.1113
C9 C 0.94041(10) 0.81334(10) 0.11343(14)
C10 C 0.98968(9) 0.75805(9) 0.12904(12)
C11 C 0.98943(9) 0.68564(10) 0.15102(13)
H6 H 0.9558 0.6689 0.1533
C12 C 1.03863(10) 0.63769(11) 0.16962(14)
H7 H 1.0381 0.5897 0.1865
C13 C 1.08834(9) 0.65874(11) 0.16394(13)
C14 C 1.08762(10) 0.73077(12) 0.13915(15)
H8 H 1.1197 0.7464 0.1330
C15 C 1.04030(10) 0.77961(11) 0.12344(15)
H9 H 1.0419 0.8280 0.1088
C16 C 1.14152(12) 0.60573(14) 0.18354(17)
H10 H 1.1713 0.6303 0.1755
H11 H 1.1209 0.5651 0.1415
H12 H 1.1661 0.5882 0.2460
C17 C 0.73971(8) 0.96112(8) 0.03082(11)
C18 C 0.68887(8) 1.02077(8) 0.00698(11)
C19 C 0.72245(8) 1.08387(8) 0.03917(11)
C20 C 0.82248(9) 0.99030(9) 0.19948(11)
H13 H 0.8313 0.9391 0.2176
H14 H 0.7852 1.0059 0.1980
C21 C 0.88286(8) 1.03518(9) 0.26936(11)
C22 C 0.94471(10) 1.01682(11) 0.29409(15)
H15 H 0.9489 0.9766 0.2666
C23 C 1.00065(11) 1.05760(14) 0.35939(18)
H16 H 1.0420 1.0453 0.3748
C24 C 0.99472(12) 1.11595(13) 0.40096(16)
H17 H 1.0323 1.1429 0.4457
C25 C 0.93403(12) 1.13494(12) 0.37729(16)
H18 H 0.9303 1.1751 0.4054
C26 C 0.87798(10) 1.09478(11) 0.31172(14)
H19 H 0.8367 1.1079 0.2960
C27 C 0.73624(9) 0.94528(9) -0.05598(12)
H20 H 0.7659 0.9046 -0.0415
H21 H 0.6913 0.9293 -0.1056
C28 C 0.75381(9) 1.00741(9) -0.09198(11)
C29 C 0.81690(11) 1.01150(11) -0.06921(14)
H22 H 0.8489 0.9767 -0.0298
C30 C 0.83270(13) 1.06736(14) -0.10502(16)
H23 H 0.8749 1.0693 -0.0903
C31 C 0.78598(15) 1.11946(13) -0.16193(17)
H24 H 0.7966 1.1568 -0.1856
C32 C 0.72364(14) 1.11666(12) -0.18403(16)
H25 H 0.6923 1.1526 -0.2217
C33 C 0.70740(11) 1.06042(10) -0.15024(13)
H26 H 0.6647 1.0581 -0.1668
C34 C 0.61612(9) 1.01594(10) -0.06079(14)
C35 C 0.51401(12) 1.07713(18) -0.1196(2)
H27 H 0.5035 1.0756 -0.1805
H28 H 0.4919 1.0360 -0.1150
C36 C 0.4906(2) 1.1398(4) -0.1108(5)
H29 H 0.4433 1.1426 -0.1587
H30 H 0.5119 1.1807 -0.1160
H31 H 0.4996 1.1409 -0.0514
C37 C 0.70046(9) 1.16175(9) 0.03206(14)
C38 C 0.64312(13) 1.26274(11) -0.06573(19)
H32 H 0.6148 1.2677 -0.0469
H33 H 0.6804 1.2962 -0.0290
C39 C 0.60553(14) 1.27958(15) -0.1641(2)
H34 H 0.5885 1.3286 -0.1755
H35 H 0.5691 1.2457 -0.1997
H36 H 0.6343 1.2754 -0.1816
H37? H 0.5036 1.1255 -0.1472
H38? H 0.4981 1.0411 -0.1681
C40? C 0.4823(4) 1.0665(7) -0.0778(7)
H39? H 0.4349 1.0708 -0.1239
H40? H 0.4976 1.1029 -0.0307
H41? H 0.4929 1.0186 -0.0504
loop_
_geom_bond_atom_site_label_1
_geom_bond_atom_site_label_2
_geom_bond_site_symmetry_1
_geom_bond_site_symmetry_2
F1 C3 1_555 1_555
O1 C9 1_555 1_555
N1 O6 1_555 1_555
C1 C2 1_555 1_555
O2 C34 1_555 1_555
C2 H1 1_555 1_555
O3 C34 1_555 1_555
C3 C2 1_555 1_555
O4 C37 1_555 1_555
C4 C3 1_555 1_555
H2 C4 1_555 1_555
O5 C37 1_555 1_555
C5 C4 1_555 1_555
H3 C5 1_555 1_555
O6 C19 1_555 1_555
C6 C1 1_555 1_555
C7 C6 1_555 1_555
H4 C7 1_555 1_555
C8 C7 1_555 1_555
H5 C8 1_555 1_555
C9 C8 1_555 1_555
C10 C9 1_555 1_555
C11 C10 1_555 1_555
H6 C11 1_555 1_555
C12 C11 1_555 1_555
H7 C12 1_555 1_555
C13 C12 1_555 1_555
C14 C13 1_555 1_555
H8 C14 1_555 1_555
C15 C10 1_555 1_555
H9 C15 1_555 1_555
C16 C13 1_555 1_555
H10 C16 1_555 1_555
H11 C16 1_555 1_555
H12 C16 1_555 1_555
C17 N1 1_555 1_555
C18 C17 1_555 1_555
C19 C18 1_555 1_555
C20 N1 1_555 1_555
H13 C20 1_555 1_555
H14 C20 1_555 1_555
C21 C20 1_555 1_555
C22 C21 1_555 1_555
H15 C22 1_555 1_555
C23 C22 1_555 1_555
H16 C23 1_555 1_555
C24 C23 1_555 1_555
H17 C24 1_555 1_555
C25 C24 1_555 1_555
H18 C25 1_555 1_555
C26 C21 1_555 1_555
H19 C26 1_555 1_555
C27 C17 1_555 1_555
H20 C27 1_555 1_555
H21 C27 1_555 1_555
C28 C27 1_555 1_555
C29 C28 1_555 1_555
H22 C29 1_555 1_555
C30 C29 1_555 1_555
H23 C30 1_555 1_555
C31 C30 1_555 1_555
H24 C31 1_555 1_555
C32 C31 1_555 1_555
H25 C32 1_555 1_555
C33 C28 1_555 1_555
H26 C33 1_555 1_555
C34 C18 1_555 1_555
C35 O3 1_555 1_555
H27 C35 1_555 1_555
H28 C35 1_555 1_555
C36 C35 1_555 1_555
H29 C36 1_555 1_555
H30 C36 1_555 1_555
H31 C36 1_555 1_555
C37 C19 1_555 1_555
C38 O5 1_555 1_555
H32 C38 1_555 1_555
H33 C38 1_555 1_555
C39 C38 1_555 1_555
H34 C39 1_555 1_555
H35 C39 1_555 1_555
H36 C39 1_555 1_555
C1 C17 1_555 1_555
C5 C6 1_555 1_555
C14 C15 1_555 1_555
C25 C26 1_555 1_555
C32 C33 1_555 1_555

#END
