
#######################################################################
#
#                 Cambridge Crystallographic Data Centre
#                                CCDC 
#
#######################################################################
#
# If this CIF has been generated from an entry in the Cambridge 
# Structural Database, then it will include bibliographic, chemical, 
# crystal, experimental, refinement or atomic coordinate data resulting 
# from the CCDC's data processing and validation procedures.
#
#######################################################################

data_SITMAK
_chemical_formula_moiety         'C13 H11 Br1 N2 O1'
_chemical_name_systematic        
4-Bromo-2-((3-methylpyridin-2-ylimino)methyl)phenol
_chemical_properties_biological  
'moderate antimicrobial activity against Escherichia coli, Pseudomonas aeruginosa and Staphylococcus aureus'
_symmetry_cell_setting           monoclinic
_symmetry_space_group_name_H-M   'P 21/n'
_symmetry_Int_Tables_number      14
_space_group_name_Hall           '-P 2yn'
loop_
_symmetry_equiv_pos_site_id
_symmetry_equiv_pos_as_xyz
1 x,y,z
2 1/2-x,1/2+y,1/2-z
3 -x,-y,-z
4 1/2+x,1/2-y,1/2+z
_cell_length_a                   4.4870(9)
_cell_length_b                   19.953(4)
_cell_length_c                   13.860(3)
_cell_angle_alpha                90
_cell_angle_beta                 93.13(3)
_cell_angle_gamma                90
_cell_volume                     1239.02
_exptl_crystal_colour            orange
_exptl_crystal_description       block
_cell_formula_units_Z            4
_exptl_crystal_recrystallization_method ethanol
loop_
_atom_site_label
_atom_site_type_symbol
_atom_site_fract_x
_atom_site_fract_y
_atom_site_fract_z
Br1 Br 0.36517(15) 0.22501(4) 0.96900(5)
O1 O 0.7469(9) 0.3920(2) 0.6358(2)
H1 H 0.8686 0.4206 0.6541
N1 N 1.0816(9) 0.4610(2) 0.7585(3)
N2 N 1.3776(9) 0.5227(2) 0.8739(3)
C1 C 0.7708(10) 0.3711(2) 0.8065(3)
C2 C 0.6610(11) 0.3568(2) 0.7122(3)
C3 C 0.4582(12) 0.3048(3) 0.6965(4)
H2 H 0.3803 0.2960 0.6342
C4 C 0.3727(12) 0.2666(3) 0.7715(4)
H3 H 0.2391 0.2314 0.7601
C5 C 0.4830(12) 0.2796(3) 0.8641(4)
C6 C 0.6765(11) 0.3315(3) 0.8822(4)
H4 H 0.7459 0.3406 0.9453
C7 C 0.9782(11) 0.4255(3) 0.8260(4)
H5 H 1.0386 0.4350 0.8898
C8 C 1.2890(10) 0.5142(3) 0.7815(4)
C9 C 1.3847(12) 0.5516(3) 0.7041(4)
C10 C 1.5840(12) 0.6035(3) 0.7291(5)
H6 H 1.6536 0.6310 0.6810
C11 C 1.6789(13) 0.6144(3) 0.8250(6)
H7 H 1.8110 0.6487 0.8424
C12 C 1.5707(13) 0.5726(3) 0.8923(5)
H8 H 1.6366 0.5793 0.9563
C13 C 1.2768(13) 0.5384(3) 0.6019(4)
H9 H 1.3776 0.5677 0.5595
H10 H 1.0656 0.5463 0.5949
H11 H 1.3178 0.4927 0.5856
loop_
_geom_bond_atom_site_label_1
_geom_bond_atom_site_label_2
_geom_bond_site_symmetry_1
_geom_bond_site_symmetry_2
Br1 C5 1_555 1_555
O1 H1 1_555 1_555
N1 C7 1_555 1_555
N2 C8 1_555 1_555
C1 C2 1_555 1_555
C2 O1 1_555 1_555
C3 C2 1_555 1_555
H2 C3 1_555 1_555
C4 C3 1_555 1_555
H3 C4 1_555 1_555
C5 C4 1_555 1_555
C6 C1 1_555 1_555
H4 C6 1_555 1_555
C7 C1 1_555 1_555
H5 C7 1_555 1_555
C8 N1 1_555 1_555
C9 C8 1_555 1_555
C10 C9 1_555 1_555
H6 C10 1_555 1_555
C11 C10 1_555 1_555
H7 C11 1_555 1_555
C12 N2 1_555 1_555
H8 C12 1_555 1_555
C13 C9 1_555 1_555
H9 C13 1_555 1_555
H10 C13 1_555 1_555
H11 C13 1_555 1_555
C5 C6 1_555 1_555
C11 C12 1_555 1_555

#END
