
#######################################################################
#
#                 Cambridge Crystallographic Data Centre
#                                CCDC 
#
#######################################################################
#
# If this CIF has been generated from an entry in the Cambridge 
# Structural Database, then it will include bibliographic, chemical, 
# crystal, experimental, refinement or atomic coordinate data resulting 
# from the CCDC's data processing and validation procedures.
#
#######################################################################

data_SITMUE
_chemical_formula_moiety         'C22 H23 N1 O5'
_chemical_name_systematic        
5-Hydroxy-3-(4-hydroxyphenyl)-7-(2-(piperidin-1-yl)ethoxy)-4H-chromen-4-one
_symmetry_cell_setting           orthorhombic
_symmetry_space_group_name_H-M   'P b c a'
_symmetry_Int_Tables_number      61
_space_group_name_Hall           '-P 2ac 2ab'
loop_
_symmetry_equiv_pos_site_id
_symmetry_equiv_pos_as_xyz
1 x,y,z
2 1/2-x,-y,1/2+z
3 -x,1/2+y,1/2-z
4 1/2+x,1/2-y,-z
5 -x,-y,-z
6 1/2+x,y,1/2-z
7 x,1/2-y,1/2+z
8 1/2-x,1/2+y,z
_cell_length_a                   16.238(3)
_cell_length_b                   10.308(2)
_cell_length_c                   22.987(5)
_cell_angle_alpha                90
_cell_angle_beta                 90
_cell_angle_gamma                90
_cell_volume                     3847.59
_exptl_crystal_colour            colorless
_exptl_crystal_description       Block
_chemical_melting_point          218-220deg.C
_cell_formula_units_Z            8
_exptl_crystal_recrystallization_method methanol
loop_
_atom_site_label
_atom_site_type_symbol
_atom_site_fract_x
_atom_site_fract_y
_atom_site_fract_z
O1 O 0.0778(2) 0.5599(4) 0.35054(15)
O2 O 0.1538(2) 0.3210(4) 0.51419(17)
H1 H 0.1339 0.2734 0.5391
O3 O 0.0421(2) 0.1929(4) 0.56944(18)
O4 O -0.1285(2) 0.3312(4) 0.45584(15)
O5 O -0.2216(2) -0.1331(3) 0.71314(15)
H2 H -0.2590 -0.0982 0.7313
N1 N 0.1257(3) 0.6041(4) 0.23044(17)
C1 C 0.1926(4) 0.4847(7) 0.1245(3)
H3 H 0.1488 0.4947 0.0961
H4 H 0.2381 0.4397 0.1060
C2 C 0.1621(4) 0.4075(6) 0.1757(3)
H5 H 0.1406 0.3253 0.1620
H6 H 0.2082 0.3891 0.2013
C3 C 0.0962(4) 0.4762(6) 0.2099(3)
H7 H 0.0479 0.4879 0.1857
H8 H 0.0805 0.4235 0.2431
C4 C 0.1522(4) 0.6823(5) 0.1799(2)
H9 H 0.1714 0.7662 0.1934
H10 H 0.1055 0.6967 0.1545
C5 C 0.2207(4) 0.6166(6) 0.1457(2)
H11 H 0.2357 0.6702 0.1127
H12 H 0.2689 0.6067 0.1702
C6 C 0.0613(4) 0.6767(6) 0.2612(2)
H13 H 0.0203 0.7041 0.2330
H14 H 0.0858 0.7544 0.2776
C7 C 0.0183(3) 0.6044(6) 0.3090(2)
H15 H -0.0212 0.6609 0.3280
H16 H -0.0112 0.5309 0.2929
C8 C 0.0516(3) 0.4821(5) 0.3944(2)
C9 C 0.1131(3) 0.4413(5) 0.4324(2)
H17 H 0.1670 0.4694 0.4272
C10 C 0.0940(3) 0.3600(5) 0.4774(2)
C11 C 0.0116(3) 0.3179(5) 0.4870(2)
C12 C -0.0101(3) 0.2328(5) 0.5336(2)
C13 C -0.0968(3) 0.1989(5) 0.5387(2)
C14 C -0.1490(3) 0.2503(6) 0.5003(2)
H18 H -0.2044 0.2290 0.5042
C15 C -0.0468(3) 0.3652(5) 0.4488(2)
C16 C -0.0302(3) 0.4455(5) 0.4028(2)
H19 H -0.0718 0.4745 0.3783
C17 C -0.1279(3) 0.1134(5) 0.5859(2)
C18 C -0.0975(4) -0.0119(6) 0.5941(3)
H20 H -0.0556 -0.0424 0.5702
C19 C -0.1290(4) -0.0917(6) 0.6375(3)
H21 H -0.1072 -0.1743 0.6429
C20 C -0.1922(3) -0.0491(6) 0.6722(2)
C21 C -0.2227(3) 0.0748(5) 0.6658(2)
H22 H -0.2646 0.1049 0.6899
C22 C -0.1898(3) 0.1538(5) 0.6228(2)
H23 H -0.2103 0.2376 0.6187
loop_
_geom_bond_atom_site_label_1
_geom_bond_atom_site_label_2
_geom_bond_site_symmetry_1
_geom_bond_site_symmetry_2
O1 C7 1_555 1_555
O2 H1 1_555 1_555
O3 C12 1_555 1_555
O4 C14 1_555 1_555
O5 H2 1_555 1_555
N1 C3 1_555 1_555
C1 H3 1_555 1_555
H4 C1 1_555 1_555
C2 C1 1_555 1_555
H5 C2 1_555 1_555
H6 C2 1_555 1_555
C3 C2 1_555 1_555
H7 C3 1_555 1_555
H8 C3 1_555 1_555
C4 N1 1_555 1_555
H9 C4 1_555 1_555
H10 C4 1_555 1_555
C5 C1 1_555 1_555
H11 C5 1_555 1_555
H12 C5 1_555 1_555
C6 N1 1_555 1_555
H13 C6 1_555 1_555
H14 C6 1_555 1_555
C7 C6 1_555 1_555
H15 C7 1_555 1_555
H16 C7 1_555 1_555
C8 O1 1_555 1_555
C9 C8 1_555 1_555
H17 C9 1_555 1_555
C10 O2 1_555 1_555
C11 C10 1_555 1_555
C12 C11 1_555 1_555
C13 C12 1_555 1_555
C14 C13 1_555 1_555
H18 C14 1_555 1_555
C15 O4 1_555 1_555
C16 C8 1_555 1_555
H19 C16 1_555 1_555
C17 C13 1_555 1_555
C18 C17 1_555 1_555
H20 C18 1_555 1_555
C19 C18 1_555 1_555
H21 C19 1_555 1_555
C20 O5 1_555 1_555
C21 C20 1_555 1_555
H22 C21 1_555 1_555
C22 C17 1_555 1_555
H23 C22 1_555 1_555
C4 C5 1_555 1_555
C9 C10 1_555 1_555
C11 C15 1_555 1_555
C15 C16 1_555 1_555
C19 C20 1_555 1_555
C21 C22 1_555 1_555

#END
