
#######################################################################
#
#                 Cambridge Crystallographic Data Centre
#                                CCDC 
#
#######################################################################
#
# If this CIF has been generated from an entry in the Cambridge 
# Structural Database, then it will include bibliographic, chemical, 
# crystal, experimental, refinement or atomic coordinate data resulting 
# from the CCDC's data processing and validation procedures.
#
#######################################################################

data_SITRIY
_chemical_formula_moiety         'C9 H10 N6 O1 S1,2(H2 O1)'
_chemical_name_systematic        
'4-Amino-5-(2-(2-hydroxybenzylidene)hydrazino)-2,4-dihydro-3H-1,2,4-triazole-3-thione dihydrate'
_symmetry_cell_setting           monoclinic
_symmetry_space_group_name_H-M   'P 21/c'
_symmetry_Int_Tables_number      14
_space_group_name_Hall           '-P 2ybc'
loop_
_symmetry_equiv_pos_site_id
_symmetry_equiv_pos_as_xyz
1 x,y,z
2 -x,1/2+y,1/2-z
3 -x,-y,-z
4 x,1/2-y,1/2+z
_cell_length_a                   8.4632(11)
_cell_length_b                   24.4630(18)
_cell_length_c                   6.6345(7)
_cell_angle_alpha                90
_cell_angle_beta                 112.601(13)
_cell_angle_gamma                90
_cell_volume                     1268.09
_exptl_crystal_colour            colorless
_exptl_crystal_description       irregular
_cell_formula_units_Z            4
loop_
_atom_site_label
_atom_site_type_symbol
_atom_site_fract_x
_atom_site_fract_y
_atom_site_fract_z
S1 S 0.2886(2) 0.47556(6) 0.1611(3)
O1 O -0.0204(6) 0.78165(19) 0.1037(9)
H1 H 0.0403 0.7547 0.1170
N1 N 0.5443(7) 0.5804(2) 0.2842(11)
H2 H 0.5864 0.5591 0.3975
H3 H 0.5697 0.5667 0.1792
N2 N 0.3672(7) 0.5845(2) 0.2181(9)
N3 N 0.1018(7) 0.5689(2) 0.1105(10)
H4 H 0.0052 0.5523 0.0719
N4 N 0.1164(7) 0.6257(2) 0.1230(9)
N5 N 0.3664(7) 0.6813(2) 0.2361(9)
H5 H 0.4764 0.6828 0.2869
N6 N 0.2670(6) 0.72787(19) 0.1969(8)
C1 C 0.2477(8) 0.5432(3) 0.1625(12)
C2 C 0.2814(8) 0.6329(2) 0.1902(11)
C3 C 0.3454(8) 0.7741(3) 0.2166(10)
H6 H 0.4631 0.7745 0.2536
C4 C 0.2531(8) 0.8253(2) 0.1822(10)
C5 C 0.0753(9) 0.8279(3) 0.1254(11)
C6 C -0.0080(9) 0.8777(3) 0.0888(12)
H7 H -0.1262 0.8792 0.0463
C7 C 0.0860(10) 0.9250(3) 0.1158(12)
H8 H 0.0297 0.9585 0.0930
C8 C 0.2599(10) 0.9242(3) 0.1753(12)
H9 H 0.3210 0.9567 0.1948
C9 C 0.3437(9) 0.8744(3) 0.2062(11)
H10 H 0.4614 0.8735 0.2433
O2 O 0.6809(6) 0.7140(2) 0.2144(9)
H11 H 0.712(8) 0.698(3) 0.126(8)
H12 H 0.765(6) 0.713(3) 0.330(6)
O3 O 0.7791(6) 0.6714(2) 0.8965(10)
H13 H 0.870(5) 0.655(2) 0.954(12)
H14 H 0.801(8) 0.6991(19) 0.842(12)
loop_
_geom_bond_atom_site_label_1
_geom_bond_atom_site_label_2
_geom_bond_site_symmetry_1
_geom_bond_site_symmetry_2
S1 C1 1_555 1_555
O1 H1 1_555 1_555
N1 H2 1_555 1_555
H3 N1 1_555 1_555
N2 N1 1_555 1_555
N3 H4 1_555 1_555
N4 N3 1_555 1_555
N5 H5 1_555 1_555
N6 N5 1_555 1_555
C1 N2 1_555 1_555
C2 N2 1_555 1_555
C3 N6 1_555 1_555
H6 C3 1_555 1_555
C4 C3 1_555 1_555
C5 O1 1_555 1_555
C6 C5 1_555 1_555
H7 C6 1_555 1_555
C7 C6 1_555 1_555
H8 C7 1_555 1_555
C8 C7 1_555 1_555
H9 C8 1_555 1_555
C9 C4 1_555 1_555
H10 C9 1_555 1_555
O2 H11 1_555 1_555
H12 O2 1_555 1_555
O3 H13 1_555 1_555
H14 O3 1_555 1_555
N3 C1 1_555 1_555
N4 C2 1_555 1_555
N5 C2 1_555 1_555
C4 C5 1_555 1_555
C8 C9 1_555 1_555

#END
