
#######################################################################
#
#                 Cambridge Crystallographic Data Centre
#                                CCDC 
#
#######################################################################
#
# If this CIF has been generated from an entry in the Cambridge 
# Structural Database, then it will include bibliographic, chemical, 
# crystal, experimental, refinement or atomic coordinate data resulting 
# from the CCDC's data processing and validation procedures.
#
#######################################################################

data_SITRUJ
_chemical_formula_moiety         'C12 H23 N1 O2 S1'
_chemical_name_systematic        
N-(6,6-Dimethylbicyclo(3.1.0)hexan-2-yl)-2-methylpropane-2-sulfonamide
_symmetry_cell_setting           orthorhombic
_symmetry_space_group_name_H-M   'P n a 21'
_symmetry_Int_Tables_number      33
_space_group_name_Hall           'P 2c -2n'
loop_
_symmetry_equiv_pos_site_id
_symmetry_equiv_pos_as_xyz
1 x,y,z
2 1/2-x,1/2+y,1/2+z
3 1/2+x,1/2-y,z
4 -x,-y,1/2+z
_cell_length_a                   22.0101(6)
_cell_length_b                   6.2216(2)
_cell_length_c                   9.5931(3)
_cell_angle_alpha                90
_cell_angle_beta                 90
_cell_angle_gamma                90
_cell_volume                     1313.66
_exptl_crystal_colour            colorless
_exptl_crystal_description       prism
_chemical_melting_point          '373 K'
_cell_formula_units_Z            4
_exptl_crystal_recrystallization_method 'petroleum ether/diethyl ether'
loop_
_atom_site_label
_atom_site_type_symbol
_atom_site_fract_x
_atom_site_fract_y
_atom_site_fract_z
N1 N 0.47143(7) 0.5504(3) 0.66412(17)
C1 C 0.42379(9) 0.6427(3) 0.57409(18)
C2 C 0.40613(9) 0.8733(3) 0.6188(3)
C3 C 0.34776(10) 0.8530(3) 0.7077(2)
C4 C 0.31985(10) 0.6374(4) 0.6715(2)
C5 C 0.30783(9) 0.5814(4) 0.5213(2)
C6 C 0.36660(8) 0.5096(3) 0.5893(2)
C7 C 0.26258(10) 0.3995(4) 0.5003(3)
C8 C 0.30573(10) 0.7505(4) 0.4074(2)
S1 S 0.534401(18) 0.45251(6) 0.60895(8)
O1 O 0.52450(7) 0.3737(2) 0.46907(14)
O2 O 0.55546(7) 0.3045(2) 0.71364(15)
C9 C 0.58999(8) 0.6671(3) 0.5983(2)
C10 C 0.64919(10) 0.5621(4) 0.5488(3)
C11 C 0.59780(10) 0.7646(3) 0.7430(2)
C12 C 0.56806(11) 0.8354(3) 0.4937(2)
H1 H 0.4702(10) 0.576(4) 0.748(3)
H2 H 0.4402 0.6442 0.4769
H3 H 0.4395 0.9390 0.6752
H4 H 0.3982 0.9642 0.5348
H5 H 0.3580 0.8587 0.8092
H6 H 0.3189 0.9718 0.6846
H7 H 0.2947(12) 0.580(4) 0.730(3)
H8 H 0.3721(9) 0.356(3) 0.600(3)
H9 H 0.2663 0.2942 0.5786
H10 H 0.2712 0.3254 0.4100
H11 H 0.2204 0.4592 0.4985
H12 H 0.2734 0.7124 0.3385
H13 H 0.3460 0.7568 0.3592
H14 H 0.2964 0.8938 0.4496
H15 H 0.6816 0.6740 0.5411
H16 H 0.6620 0.4499 0.6174
H17 H 0.6425 0.4940 0.4557
H18 H 0.6284 0.8834 0.7389
H19 H 0.6122 0.6513 0.8092
H20 H 0.5580 0.8231 0.7759
H21 H 0.5986 0.9541 0.4875
H22 H 0.5631 0.7670 0.4000
H23 H 0.5282 0.8950 0.5252
loop_
_geom_bond_atom_site_label_1
_geom_bond_atom_site_label_2
_geom_bond_site_symmetry_1
_geom_bond_site_symmetry_2
N1 C1 1_555 1_555
C1 C2 1_555 1_555
C2 C3 1_555 1_555
C3 C4 1_555 1_555
C4 C5 1_555 1_555
C5 C6 1_555 1_555
C6 C1 1_555 1_555
C7 C5 1_555 1_555
C8 C5 1_555 1_555
S1 N1 1_555 1_555
O1 S1 1_555 1_555
O2 S1 1_555 1_555
C9 S1 1_555 1_555
C10 C9 1_555 1_555
C11 C9 1_555 1_555
C12 C9 1_555 1_555
H1 N1 1_555 1_555
H2 C1 1_555 1_555
H3 C2 1_555 1_555
H4 C2 1_555 1_555
H5 C3 1_555 1_555
H6 C3 1_555 1_555
H7 C4 1_555 1_555
H8 C6 1_555 1_555
H9 C7 1_555 1_555
H10 C7 1_555 1_555
H11 C7 1_555 1_555
H12 C8 1_555 1_555
H13 C8 1_555 1_555
H14 C8 1_555 1_555
H15 C10 1_555 1_555
H16 C10 1_555 1_555
H17 C10 1_555 1_555
H18 C11 1_555 1_555
H19 C11 1_555 1_555
H20 C11 1_555 1_555
H21 C12 1_555 1_555
H22 C12 1_555 1_555
H23 C12 1_555 1_555
C4 C6 1_555 1_555

#END
