
#######################################################################
#
#                 Cambridge Crystallographic Data Centre
#                                CCDC 
#
#######################################################################
#
# If this CIF has been generated from an entry in the Cambridge 
# Structural Database, then it will include bibliographic, chemical, 
# crystal, experimental, refinement or atomic coordinate data resulting 
# from the CCDC's data processing and validation procedures.
#
#######################################################################

data_SITSAQ
_chemical_formula_moiety         'C6 H13 N1 O2 S1'
_chemical_name_systematic        1-(t-Butylsulfonyl)aziridine
_symmetry_cell_setting           monoclinic
_symmetry_space_group_name_H-M   'P 21/n'
_symmetry_Int_Tables_number      14
_space_group_name_Hall           '-P 2yn'
loop_
_symmetry_equiv_pos_site_id
_symmetry_equiv_pos_as_xyz
1 x,y,z
2 1/2-x,1/2+y,1/2-z
3 -x,-y,-z
4 1/2+x,1/2-y,1/2+z
_cell_length_a                   6.2355(2)
_cell_length_b                   12.8291(6)
_cell_length_c                   10.4457(4)
_cell_angle_alpha                90
_cell_angle_beta                 95.364(3)
_cell_angle_gamma                90
_cell_volume                     831.953
_exptl_crystal_colour            colorless
_cell_formula_units_Z            4
_exptl_crystal_recrystallization_method dichloromethane
loop_
_atom_site_label
_atom_site_type_symbol
_atom_site_fract_x
_atom_site_fract_y
_atom_site_fract_z
N1 N 0.3429(2) 0.66353(11) 0.65736(14)
C1 C 0.2867(3) 0.60406(16) 0.77128(19)
C2 C 0.2593(4) 0.55535(16) 0.6443(2)
S1 S 0.60225(7) 0.67808(3) 0.63727(4)
O1 O 0.7353(2) 0.60972(11) 0.72032(15)
O2 O 0.6199(2) 0.67023(12) 0.50119(14)
C3 C 0.6476(3) 0.81135(13) 0.68784(17)
C4 C 0.8830(3) 0.83432(15) 0.6670(2)
C5 C 0.6083(3) 0.82227(17) 0.82878(18)
C6 C 0.4974(3) 0.88213(15) 0.60365(19)
H1 H 0.410(4) 0.5814(19) 0.824(2)
H2 H 0.164(4) 0.6319(18) 0.808(2)
H3 H 0.357(4) 0.5030(19) 0.625(2)
H4 H 0.119(5) 0.552(2) 0.601(3)
H5 H 0.9188 0.9077 0.6934
H6 H 0.9792 0.7852 0.7199
H7 H 0.9047 0.8250 0.5740
H8 H 0.6335 0.8962 0.8566
H9 H 0.7092 0.7755 0.8821
H10 H 0.4563 0.8023 0.8403
H11 H 0.5215 0.9562 0.6311
H12 H 0.3445 0.8623 0.6128
H13 H 0.5276 0.8743 0.5118
loop_
_geom_bond_atom_site_label_1
_geom_bond_atom_site_label_2
_geom_bond_site_symmetry_1
_geom_bond_site_symmetry_2
N1 C1 1_555 1_555
C1 C2 1_555 1_555
C2 N1 1_555 1_555
S1 N1 1_555 1_555
O1 S1 1_555 1_555
O2 S1 1_555 1_555
C3 S1 1_555 1_555
C4 C3 1_555 1_555
C5 C3 1_555 1_555
C6 C3 1_555 1_555
H1 C1 1_555 1_555
H2 C1 1_555 1_555
H3 C2 1_555 1_555
H4 C2 1_555 1_555
H5 C4 1_555 1_555
H6 C4 1_555 1_555
H7 C4 1_555 1_555
H8 C5 1_555 1_555
H9 C5 1_555 1_555
H10 C5 1_555 1_555
H11 C6 1_555 1_555
H12 C6 1_555 1_555
H13 C6 1_555 1_555

#END
