
#######################################################################
#
#                 Cambridge Crystallographic Data Centre
#                                CCDC 
#
#######################################################################
#
# If this CIF has been generated from an entry in the Cambridge 
# Structural Database, then it will include bibliographic, chemical, 
# crystal, experimental, refinement or atomic coordinate data resulting 
# from the CCDC's data processing and validation procedures.
#
#######################################################################

data_SIVDEI
_chemical_formula_moiety         'C37 H26 F2 N2,C1 H1 Cl3'
_chemical_name_systematic        
"4,4'-(2,7-bis(4-fluorophenyl)-9H-fluorene-9,9-diyl)dianiline chloroform solvate"
_symmetry_cell_setting           triclinic
_symmetry_space_group_name_H-M   'P -1'
_symmetry_Int_Tables_number      2
_space_group_name_Hall           '-P 1'
loop_
_symmetry_equiv_pos_site_id
_symmetry_equiv_pos_as_xyz
1 x,y,z
2 -x,-y,-z
_cell_length_a                   9.3685(4)
_cell_length_b                   12.2751(6)
_cell_length_c                   14.8984(7)
_cell_angle_alpha                79.5560(10)
_cell_angle_beta                 74.4570(10)
_cell_angle_gamma                80.6210(10)
_cell_volume                     1611.43
_exptl_crystal_colour            colorless
_exptl_crystal_description       block
_cell_formula_units_Z            2
loop_
_atom_site_label
_atom_site_type_symbol
_atom_site_fract_x
_atom_site_fract_y
_atom_site_fract_z
C1 C 1.1835(2) 0.92229(19) 0.73324(16)
C2 C 1.1496(3) 0.8514(2) 0.68092(17)
H1 H 1.2272 0.8157 0.6365
C3 C 1.0039(3) 0.8327(2) 0.69330(17)
H2 H 0.9829 0.7842 0.6567
C4 C 0.8869(2) 0.88269(18) 0.75765(15)
C5 C 0.9229(3) 0.95120(19) 0.81138(16)
H3 H 0.8457 0.9850 0.8572
C6 C 1.0680(3) 0.97102(19) 0.79945(16)
H4 H 1.0893 1.0184 0.8368
C7 C 0.7271(2) 0.85792(18) 0.77172(15)
C8 C 0.6972(2) 0.84122(18) 0.67887(16)
C9 C 0.7263(3) 0.9244(2) 0.60036(16)
H5 H 0.7714 0.9865 0.6049
C10 C 0.6921(3) 0.9192(2) 0.51729(17)
H6 H 0.7122 0.9779 0.4662
C11 C 0.6277(3) 0.8283(2) 0.50699(18)
C12 C 0.6005(3) 0.7443(2) 0.58385(19)
H7 H 0.5581 0.6811 0.5788
C13 C 0.6344(3) 0.7511(2) 0.66765(17)
H8 H 0.6140 0.6926 0.7188
C14 C 0.6931(2) 0.75796(19) 0.84932(15)
C15 C 0.7699(3) 0.65150(19) 0.85640(16)
H9 H 0.8549 0.6318 0.8082
C16 C 0.7210(3) 0.57305(19) 0.93546(16)
C17 C 0.7957(3) 0.4568(2) 0.94420(17)
C18 C 0.8322(3) 0.3969(2) 0.86856(17)
H10 H 0.8155 0.4329 0.8096
C19 C 0.8926(3) 0.2853(2) 0.87759(18)
H11 H 0.9156 0.2444 0.8261
C20 C 0.9180(3) 0.2359(2) 0.96362(19)
C21 C 0.8856(3) 0.2919(2) 1.0400(2)
H12 H 0.9051 0.2558 1.0983
C22 C 0.8237(3) 0.4024(2) 1.02960(19)
H13 H 0.7998 0.4422 1.0818
C23 C 0.5969(3) 0.6043(2) 1.00614(17)
H14 H 0.5655 0.5517 1.0605
C24 C 0.5190(3) 0.70983(19) 0.99880(16)
H15 H 0.4335 0.7295 1.0467
C25 C 0.5682(2) 0.78674(19) 0.91983(16)
C26 C 0.5128(2) 0.90383(19) 0.89640(15)
C27 C 0.3895(3) 0.9695(2) 0.94226(16)
H16 H 0.3231 0.9380 0.9975
C28 C 0.3639(3) 1.0815(2) 0.90695(17)
H17 H 0.2799 1.1267 0.9386
C29 C 0.4605(2) 1.12907(19) 0.82503(16)
C30 C 0.4302(3) 1.24904(19) 0.78788(16)
C31 C 0.2845(3) 1.3008(2) 0.79717(19)
H18 H 0.2042 1.2583 0.8275
C32 C 0.2532(3) 1.4120(2) 0.7637(2)
H19 H 0.1530 1.4460 0.7705
C33 C 0.3701(3) 1.4723(2) 0.7202(2)
C34 C 0.5163(3) 1.4252(2) 0.7086(2)
H20 H 0.5956 1.4686 0.6779
C35 C 0.5457(3) 1.3134(2) 0.7424(2)
H21 H 0.6462 1.2799 0.7346
C36 C 0.5833(2) 1.06164(19) 0.77884(16)
H22 H 0.6499 1.0928 0.7235
C37 C 0.6080(2) 0.94931(18) 0.81361(15)
F1 F 0.9765(2) 0.12675(13) 0.97287(12)
F2 F 0.3394(2) 1.58187(15) 0.68732(19)
N1 N 1.3284(2) 0.9495(2) 0.71646(16)
H23 H 1.345(4) 0.970(3) 0.765(2)
H24 H 1.399(4) 0.898(3) 0.687(2)
N2 N 0.5930(4) 0.8237(3) 0.4235(2)
H25 H 0.613(5) 0.875(4) 0.382(4)
H26 H 0.568(5) 0.766(4) 0.415(3)
C38 C 0.0100(4) 0.7145(3) 0.4506(2)
H27 H -0.0793 0.7322 0.5025
Cl1 Cl 0.16369(11) 0.66800(9) 0.49913(7)
Cl2 Cl 0.03776(10) 0.83456(7) 0.36781(7)
Cl3 Cl -0.0255(2) 0.61011(11) 0.39779(10)
loop_
_geom_bond_atom_site_label_1
_geom_bond_atom_site_label_2
_geom_bond_site_symmetry_1
_geom_bond_site_symmetry_2
C1 C2 1_555 1_555
C2 H1 1_555 1_555
C3 C2 1_555 1_555
H2 C3 1_555 1_555
C4 C3 1_555 1_555
C5 C4 1_555 1_555
H3 C5 1_555 1_555
C6 C1 1_555 1_555
H4 C6 1_555 1_555
C7 C4 1_555 1_555
C8 C7 1_555 1_555
C9 C8 1_555 1_555
H5 C9 1_555 1_555
C10 C9 1_555 1_555
H6 C10 1_555 1_555
C11 C10 1_555 1_555
C12 C11 1_555 1_555
H7 C12 1_555 1_555
C13 C8 1_555 1_555
H8 C13 1_555 1_555
C14 C7 1_555 1_555
C15 C14 1_555 1_555
H9 C15 1_555 1_555
C16 C15 1_555 1_555
C17 C16 1_555 1_555
C18 C17 1_555 1_555
H10 C18 1_555 1_555
C19 C18 1_555 1_555
H11 C19 1_555 1_555
C20 C19 1_555 1_555
C21 C20 1_555 1_555
H12 C21 1_555 1_555
C22 C17 1_555 1_555
H13 C22 1_555 1_555
C23 C16 1_555 1_555
H14 C23 1_555 1_555
C24 C23 1_555 1_555
H15 C24 1_555 1_555
C25 C14 1_555 1_555
C26 C25 1_555 1_555
C27 C26 1_555 1_555
H16 C27 1_555 1_555
C28 C27 1_555 1_555
H17 C28 1_555 1_555
C29 C28 1_555 1_555
C30 C29 1_555 1_555
C31 C30 1_555 1_555
H18 C31 1_555 1_555
C32 C31 1_555 1_555
H19 C32 1_555 1_555
C33 C32 1_555 1_555
C34 C33 1_555 1_555
H20 C34 1_555 1_555
C35 C30 1_555 1_555
H21 C35 1_555 1_555
C36 C29 1_555 1_555
H22 C36 1_555 1_555
C37 C7 1_555 1_555
F1 C20 1_555 1_555
F2 C33 1_555 1_555
N1 C1 1_555 1_555
H23 N1 1_555 1_555
H24 N1 1_555 1_555
N2 C11 1_555 1_555
H25 N2 1_555 1_555
H26 N2 1_555 1_555
C38 H27 1_555 1_555
Cl1 C38 1_555 1_555
Cl2 C38 1_555 1_555
Cl3 C38 1_555 1_555
C5 C6 1_555 1_555
C12 C13 1_555 1_555
C21 C22 1_555 1_555
C24 C25 1_555 1_555
C26 C37 1_555 1_555
C34 C35 1_555 1_555
C36 C37 1_555 1_555

#END
