
#######################################################################
#
#                 Cambridge Crystallographic Data Centre
#                                CCDC 
#
#######################################################################
#
# If this CIF has been generated from an entry in the Cambridge 
# Structural Database, then it will include bibliographic, chemical, 
# crystal, experimental, refinement or atomic coordinate data resulting 
# from the CCDC's data processing and validation procedures.
#
#######################################################################

data_SIVJUE
_chemical_formula_moiety         'C13 H16 O3'
_chemical_name_systematic        
'Methyl 2-(2-hydroxy-5-methylphenyl)pent-2-enoate'
_symmetry_cell_setting           orthorhombic
_symmetry_space_group_name_H-M   'P b c 21'
_symmetry_Int_Tables_number      29
_space_group_name_Hall           'P 2c -2b'
loop_
_symmetry_equiv_pos_site_id
_symmetry_equiv_pos_as_xyz
1 x,y,z
2 -x,-y,1/2+z
3 -x,1/2+y,z
4 x,1/2-y,1/2+z
_cell_length_a                   7.3148(5)
_cell_length_b                   20.5236(14)
_cell_length_c                   16.0736(10)
_cell_angle_alpha                90
_cell_angle_beta                 90
_cell_angle_gamma                90
_cell_volume                     2413.07
_cell_formula_units_Z            8
loop_
_atom_site_label
_atom_site_type_symbol
_atom_site_fract_x
_atom_site_fract_y
_atom_site_fract_z
C1 C 0.6344(7) 0.2489(3) 0.3713(4)
C2 C 0.5961(8) 0.2476(3) 0.4573(4)
H1 H 0.6228 0.2854 0.4892
C3 C 0.5209(8) 0.1938(3) 0.4979(5)
C4 C 0.4901(8) 0.1397(3) 0.4466(4)
H2 H 0.4438 0.1013 0.4721
C5 C 0.5208(8) 0.1378(3) 0.3642(4)
H3 H 0.4916 0.1000 0.3327
C6 C 0.5967(7) 0.1926(3) 0.3259(4)
C7 C 0.4893(10) 0.1941(4) 0.5881(5)
H4 H 0.5966 0.1763 0.6166
H5 H 0.3819 0.1674 0.6010
H6 H 0.4682 0.2389 0.6069
C8 C 0.7088(8) 0.3073(3) 0.3305(4)
C9 C 0.8856(9) 0.3009(3) 0.2859(4)
C10 C 1.1569(12) 0.2394(5) 0.2732(9)
H7 H 1.1449 0.2476 0.2134
H8 H 1.1939 0.1941 0.2823
H9 H 1.2495 0.2687 0.2965
C11 C 0.6331(12) 0.3667(3) 0.3348(7)
H10 H 0.6995 0.4005 0.3081
C12 C 0.4637(18) 0.3866(4) 0.3748(12)
H11 H 0.3724 0.3520 0.3641
H12 H 0.4862 0.3871 0.4356
C13 C 0.387(2) 0.4427(5) 0.3551(12)
H13 H 0.4814 0.4732 0.3362
H14 H 0.3252 0.4607 0.4040
H15 H 0.2979 0.4359 0.3105
O1 O 0.6344(6) 0.19501(19) 0.2424(3)
H16 H 0.6433 0.1569 0.2236
O2 O 0.9417(10) 0.3367(2) 0.2321(4)
O3 O 0.9854(5) 0.2510(2) 0.3131(3)
C14 C 0.8702(7) 0.5064(2) 0.5257(4)
C15 C 0.8959(8) 0.5067(3) 0.4404(4)
H17 H 0.8630 0.4693 0.4090
C16 C 0.9683(9) 0.5602(3) 0.3999(4)
C17 C 1.0082(7) 0.6154(3) 0.4443(4)
H18 H 1.0506 0.6531 0.4161
C18 C 0.9874(8) 0.6165(3) 0.5300(4)
H19 H 1.0235 0.6538 0.5610
C19 C 0.9127(7) 0.5624(2) 0.5705(4)
C20 C 0.9900(12) 0.5600(5) 0.3037(5)
H20 H 0.8733 0.5483 0.2778
H21 H 1.0835 0.5281 0.2877
H22 H 1.0271 0.6035 0.2848
C21 C 0.7960(8) 0.4484(2) 0.5709(4)
C22 C 0.8758(11) 0.3905(3) 0.5777(6)
H23 H 0.8082 0.3575 0.6053
C23 C 1.0635(18) 0.3718(4) 0.5459(11)
H24 H 1.0874 0.3982 0.4956
H25 H 1.1534 0.3856 0.5884
C24 C 1.0993(19) 0.3127(5) 0.5276(14)
H26 H 1.0529 0.2840 0.5715
H27 H 1.2319 0.3071 0.5224
H28 H 1.0406 0.3015 0.4746
C25 C 0.6157(8) 0.4556(3) 0.6137(4)
C26 C 0.3482(9) 0.5203(4) 0.6248(7)
H29 H 0.2713 0.4813 0.6209
H30 H 0.2886 0.5565 0.5958
H31 H 0.3656 0.5318 0.6835
O4 O 0.8877(7) 0.5606(2) 0.6550(3)
H32 H 0.9475 0.5909 0.6773
O5 O 0.5496(7) 0.4185(2) 0.6638(4)
O6 O 0.5213(6) 0.5077(2) 0.5875(3)
loop_
_geom_bond_atom_site_label_1
_geom_bond_atom_site_label_2
_geom_bond_site_symmetry_1
_geom_bond_site_symmetry_2
C1 C2 1_555 1_555
C2 H1 1_555 1_555
C3 C2 1_555 1_555
C4 C3 1_555 1_555
H2 C4 1_555 1_555
C5 C4 1_555 1_555
H3 C5 1_555 1_555
C6 C1 1_555 1_555
C7 C3 1_555 1_555
H4 C7 1_555 1_555
H5 C7 1_555 1_555
H6 C7 1_555 1_555
C8 C1 1_555 1_555
C9 C8 1_555 1_555
C10 H7 1_555 1_555
H8 C10 1_555 1_555
H9 C10 1_555 1_555
C11 C8 1_555 1_555
H10 C11 1_555 1_555
C12 C11 1_555 1_555
H11 C12 1_555 1_555
H12 C12 1_555 1_555
C13 C12 1_555 1_555
H13 C13 1_555 1_555
H14 C13 1_555 1_555
H15 C13 1_555 1_555
O1 C6 1_555 1_555
H16 O1 1_555 1_555
O2 C9 1_555 1_555
O3 C9 1_555 1_555
C14 C15 1_555 1_555
C15 H17 1_555 1_555
C16 C15 1_555 1_555
C17 C16 1_555 1_555
H18 C17 1_555 1_555
C18 C17 1_555 1_555
H19 C18 1_555 1_555
C19 C14 1_555 1_555
C20 C16 1_555 1_555
H20 C20 1_555 1_555
H21 C20 1_555 1_555
H22 C20 1_555 1_555
C21 C14 1_555 1_555
C22 C21 1_555 1_555
H23 C22 1_555 1_555
C23 C22 1_555 1_555
H24 C23 1_555 1_555
H25 C23 1_555 1_555
C24 C23 1_555 1_555
H26 C24 1_555 1_555
H27 C24 1_555 1_555
H28 C24 1_555 1_555
C25 C21 1_555 1_555
C26 H29 1_555 1_555
H30 C26 1_555 1_555
H31 C26 1_555 1_555
O4 C19 1_555 1_555
H32 O4 1_555 1_555
O5 C25 1_555 1_555
O6 C25 1_555 1_555
C5 C6 1_555 1_555
C10 O3 1_555 1_555
C18 C19 1_555 1_555
C26 O6 1_555 1_555

#END
