
#######################################################################
#
#                 Cambridge Crystallographic Data Centre
#                                CCDC 
#
#######################################################################
#
# If this CIF has been generated from an entry in the Cambridge 
# Structural Database, then it will include bibliographic, chemical, 
# crystal, experimental, refinement or atomic coordinate data resulting 
# from the CCDC's data processing and validation procedures.
#
#######################################################################

data_SIWBAB
_chemical_formula_moiety         'C16 H24 N1 O1 1+,Cl1 1-'
_chemical_name_systematic        
'(4aS,10bS)-trans-1,2,3,4,4a,5,6,10b-Octahydro-10-hydroxy-4-n-propylbenzo(f)quinoline hydrochloride'
_chemical_properties_biological  'pharmacological activity'
_symmetry_cell_setting           monoclinic
_symmetry_space_group_name_H-M   'P 21'
_symmetry_Int_Tables_number      4
_space_group_name_Hall           'P 2yb'
loop_
_symmetry_equiv_pos_site_id
_symmetry_equiv_pos_as_xyz
1 x,y,z
2 -x,1/2+y,-z
_cell_length_a                   8.2581(3)
_cell_length_b                   8.9326(4)
_cell_length_c                   10.3246(4)
_cell_angle_alpha                90
_cell_angle_beta                 93.476(4)
_cell_angle_gamma                90
_cell_volume                     760.206
_cell_formula_units_Z            2
loop_
_atom_site_label
_atom_site_type_symbol
_atom_site_fract_x
_atom_site_fract_y
_atom_site_fract_z
Cl1 Cl -0.1371(2) 0.4939(7) 0.1522(2)
C1 C 0.4141(7) 0.1893(5) 0.0868(5)
C2 C 0.5319(8) 0.2069(8) -0.0200(5)
C3 C 0.6880(7) 0.1225(8) 0.0100(5)
N1 N 0.7625(6) 0.1625(6) 0.1413(4)
C4 C 0.6446(6) 0.1325(7) 0.2440(5)
C5 C 0.7150(7) 0.1484(8) 0.3835(5)
C6 C 0.5910(7) 0.0832(8) 0.4695(6)
C7 C 0.4252(7) 0.1511(7) 0.4451(5)
C8 C 0.3133(7) 0.1393(8) 0.5402(6)
C9 C 0.1666(7) 0.2126(8) 0.5255(6)
C10 C 0.1324(7) 0.3034(8) 0.4187(6)
C11 C 0.2418(7) 0.3132(7) 0.3227(5)
C12 C 0.3866(6) 0.2330(6) 0.3302(5)
C13 C 0.4980(6) 0.2353(6) 0.2188(5)
O1 O 0.2151(5) 0.4097(6) 0.2196(4)
C14 C 0.9275(8) 0.0932(7) 0.1646(7)
C15 C 0.9293(8) -0.0766(8) 0.1763(7)
C16 C 1.0965(8) -0.1267(9) 0.2244(8)
H1 H 0.3100 0.2600 0.0657
H2 H 0.3757 0.0740 0.0913
H3 H 0.5594 0.3243 -0.0306
H4 H 0.4755 0.1649 -0.1097
H5 H 0.7720 0.1499 -0.0624
H6 H 0.6632 0.0038 0.0072
H7 H 0.7857 0.2814 0.1467
H8 H 0.6104 0.0160 0.2358
H9 H 0.7358 0.2650 0.4067
H10 H 0.8274 0.0876 0.3963
H11 H 0.6310 0.1027 0.5696
H12 H 0.5826 -0.0358 0.4518
H13 H 0.3415 0.0725 0.6257
H14 H 0.0784 0.1990 0.5974
H15 H 0.0210 0.3664 0.4102
H16 H 0.5356 0.3508 0.2136
H17 H 0.1004 0.4666 0.2121
H18 H 0.9990 0.1238 0.0845
H19 H 0.9822 0.1392 0.2535
H20 H 0.8986 -0.1260 0.0825
H21 H 0.8424 -0.1114 0.2441
H22 H 1.0958 -0.2472 0.2335
H23 H 1.1237 -0.0770 0.3186
H24 H 1.1872 -0.0938 0.1592
loop_
_geom_bond_atom_site_label_1
_geom_bond_atom_site_label_2
_geom_bond_site_symmetry_1
_geom_bond_site_symmetry_2
C1 C2 1_555 1_555
C2 C3 1_555 1_555
C3 N1 1_555 1_555
N1 C4 1_555 1_555
C4 C5 1_555 1_555
C5 C6 1_555 1_555
C6 C7 1_555 1_555
C7 C8 1_555 1_555
C8 C9 1_555 1_555
C9 C10 1_555 1_555
C10 C11 1_555 1_555
C11 C12 1_555 1_555
C12 C7 1_555 1_555
C13 C1 1_555 1_555
O1 C11 1_555 1_555
C14 N1 1_555 1_555
C15 C14 1_555 1_555
C16 C15 1_555 1_555
H1 C1 1_555 1_555
H2 C1 1_555 1_555
H3 C2 1_555 1_555
H4 C2 1_555 1_555
H5 C3 1_555 1_555
H6 C3 1_555 1_555
H7 N1 1_555 1_555
H8 C4 1_555 1_555
H9 C5 1_555 1_555
H10 C5 1_555 1_555
H11 C6 1_555 1_555
H12 C6 1_555 1_555
H13 C8 1_555 1_555
H14 C9 1_555 1_555
H15 C10 1_555 1_555
H16 C13 1_555 1_555
H17 O1 1_555 1_555
H18 C14 1_555 1_555
H19 C14 1_555 1_555
H20 C15 1_555 1_555
H21 C15 1_555 1_555
H22 C16 1_555 1_555
H23 C16 1_555 1_555
H24 C16 1_555 1_555
C4 C13 1_555 1_555
C12 C13 1_555 1_555

#END
