
#######################################################################
#
#                 Cambridge Crystallographic Data Centre
#                                CCDC 
#
#######################################################################
#
# If this CIF has been generated from an entry in the Cambridge 
# Structural Database, then it will include bibliographic, chemical, 
# crystal, experimental, refinement or atomic coordinate data resulting 
# from the CCDC's data processing and validation procedures.
#
#######################################################################

data_SIWPUM
_chemical_formula_moiety         'C15 H14 N7 O4 1+,Cl1 1-'
_chemical_name_systematic        
'1-(amino{2-[(2-nitrophenyl)methylidene]hydrazinyl}methylidene)-2-[(2-nitrophenyl)methylidene]hydrazinium chloride'
_symmetry_cell_setting           monoclinic
_symmetry_space_group_name_H-M   'C 2/c'
_symmetry_Int_Tables_number      15
_space_group_name_Hall           '-C 2yn'
loop_
_symmetry_equiv_pos_site_id
_symmetry_equiv_pos_as_xyz
1 x,y,z
2 -x,y,1/2-z
3 1/2+x,1/2+y,z
4 1/2-x,1/2+y,1/2-z
5 -x,-y,-z
6 x,-y,1/2+z
7 1/2-x,1/2-y,-z
8 1/2+x,1/2-y,1/2+z
_cell_length_a                   31.45(2)
_cell_length_b                   7.159(6)
_cell_length_c                   15.495(11)
_cell_angle_alpha                90
_cell_angle_beta                 93.366(10)
_cell_angle_gamma                90
_cell_volume                     3482.69
_exptl_crystal_colour            yellow
_exptl_crystal_description       block
_cell_formula_units_Z            8
loop_
_atom_site_label
_atom_site_type_symbol
_atom_site_fract_x
_atom_site_fract_y
_atom_site_fract_z
O1 O 1.20474(17) 0.0091(15) 0.4534(4)
O2 O 1.15593(14) 0.1302(10) 0.3820(3)
O3 O 0.87804(17) 0.6328(9) 0.0882(3)
O4 O 0.81835(19) 0.5672(12) 0.0313(3)
N1 N 1.03921(11) 0.2027(6) 0.4445(2)
N2 N 1.01560(11) 0.2219(6) 0.3665(2)
N3 N 0.96366(18) 0.3449(8) 0.4520(3)
H1 H 0.982(2) 0.316(10) 0.496(5)
N4 N 0.95323(11) 0.3248(7) 0.3047(3)
N5 N 0.91403(11) 0.3994(6) 0.3123(2)
N6 N 1.16991(14) 0.0698(8) 0.4475(3)
N7 N 0.84157(18) 0.5904(8) 0.0933(3)
C1 C 1.14545(14) 0.0634(7) 0.5254(3)
C2 C 1.16854(15) 0.0288(8) 0.6018(4)
H2 H 1.1977 0.0075 0.6021
C3 C 1.14824(17) 0.0262(8) 0.6769(4)
H3 H 1.1633 -0.0001 0.7289
C4 C 1.10567(17) 0.0625(9) 0.6753(3)
H4 H 1.0919 0.0652 0.7269
C5 C 1.08309(15) 0.0947(8) 0.5995(3)
H5 H 1.0540 0.1159 0.6005
C6 C 1.10180(13) 0.0972(7) 0.5197(3)
C7 C 1.07520(14) 0.1257(7) 0.4412(3)
H6 H 1.0847 0.0872 0.3883
C8 C 0.97821(13) 0.2947(7) 0.3767(3)
C9 C 0.89125(13) 0.4276(8) 0.2422(3)
H7 H 0.9022 0.4031 0.1889
C10 C 0.84802(13) 0.4986(7) 0.2470(3)
C11 C 0.82378(14) 0.5708(8) 0.1779(3)
C12 C 0.78262(15) 0.6338(9) 0.1848(4)
H8 H 0.7674 0.6823 0.1366
C13 C 0.76458(16) 0.6245(9) 0.2616(4)
H9 H 0.7368 0.6656 0.2666
C14 C 0.78781(15) 0.5534(8) 0.3331(4)
H10 H 0.7758 0.5487 0.3864
C15 C 0.82816(14) 0.4904(8) 0.3250(3)
H11 H 0.8430 0.4401 0.3732
H12 H 0.936(2) 0.375(9) 0.458(4)
H13 H 0.9581(14) 0.257(7) 0.264(3)
H14 H 1.0169(9) 0.123(5) 0.3305(17)
Cl1 Cl 0.0163(2) 0.7259(8) 0.3146(5)
loop_
_geom_bond_atom_site_label_1
_geom_bond_atom_site_label_2
_geom_bond_site_symmetry_1
_geom_bond_site_symmetry_2
O1 N6 1_555 1_555
O2 N6 1_555 1_555
O3 N7 1_555 1_555
O4 N7 1_555 1_555
N1 N2 1_555 1_555
N2 C8 1_555 1_555
N3 H1 1_555 1_555
N4 N5 1_555 1_555
N5 C9 1_555 1_555
N6 C1 1_555 1_555
N7 C11 1_555 1_555
C1 C2 1_555 1_555
C2 H2 1_555 1_555
C3 C2 1_555 1_555
H3 C3 1_555 1_555
C4 C3 1_555 1_555
H4 C4 1_555 1_555
C5 C4 1_555 1_555
H5 C5 1_555 1_555
C6 C1 1_555 1_555
C7 N1 1_555 1_555
H6 C7 1_555 1_555
C8 N3 1_555 1_555
C9 H7 1_555 1_555
C10 C9 1_555 1_555
C11 C10 1_555 1_555
C12 C11 1_555 1_555
H8 C12 1_555 1_555
C13 C12 1_555 1_555
H9 C13 1_555 1_555
C14 C13 1_555 1_555
H10 C14 1_555 1_555
C15 C10 1_555 1_555
H11 C15 1_555 1_555
H12 N3 1_555 1_555
H13 N4 1_555 1_555
H14 N2 1_555 1_555
N4 C8 1_555 1_555
C5 C6 1_555 1_555
C6 C7 1_555 1_555
C14 C15 1_555 1_555

#END
