
#######################################################################
#
#                 Cambridge Crystallographic Data Centre
#                                CCDC 
#
#######################################################################
#
# If this CIF has been generated from an entry in the Cambridge 
# Structural Database, then it will include bibliographic, chemical, 
# crystal, experimental, refinement or atomic coordinate data resulting 
# from the CCDC's data processing and validation procedures.
#
#######################################################################

data_SIWPIZ
_chemical_formula_moiety         'C25 H19 N3'
_chemical_name_systematic        
2,3'-Diphenylspiro[cyclopent-2-ene-1,4'-[1,2,3]triazolo[1,5-a]indole]
_symmetry_cell_setting           monoclinic
_symmetry_space_group_name_H-M   'P 21/c'
_symmetry_Int_Tables_number      14
_space_group_name_Hall           '-P 2ybc'
loop_
_symmetry_equiv_pos_site_id
_symmetry_equiv_pos_as_xyz
1 x,y,z
2 -x,1/2+y,1/2-z
3 -x,-y,-z
4 x,1/2-y,1/2+z
_cell_length_a                   12.3137(6)
_cell_length_b                   7.1112(2)
_cell_length_c                   21.8246(10)
_cell_angle_alpha                90
_cell_angle_beta                 99.101(4)
_cell_angle_gamma                90
_cell_volume                     1887.02
_exptl_crystal_colour            colorless
_exptl_crystal_description       parallelepiped
_cell_formula_units_Z            4
loop_
_atom_site_label
_atom_site_type_symbol
_atom_site_fract_x
_atom_site_fract_y
_atom_site_fract_z
N1 N 0.10837(11) 0.98548(18) 0.12383(6)
N2 N 0.03816(13) 0.8399(2) 0.11686(7)
N3 N 0.04847(13) 0.7646(2) 0.06288(7)
C1 C 0.13540(14) 1.1235(2) 0.17053(8)
C2 C 0.09686(16) 1.1483(3) 0.22574(9)
H1 H 0.0447 1.0681 0.2381
C3 C 0.13955(19) 1.2989(3) 0.26203(9)
H2 H 0.1160 1.3209 0.2998
C4 C 0.21641(19) 1.4163(3) 0.24279(10)
H3 H 0.2434 1.5172 0.2677
C5 C 0.25462(17) 1.3874(3) 0.18695(9)
H4 H 0.3068 1.4675 0.1746
C6 C 0.21388(14) 1.2382(2) 0.15025(8)
C7 C 0.23926(13) 1.1748(2) 0.08693(7)
C8 C 0.16394(12) 1.0060(2) 0.07550(7)
C9 C 0.12478(13) 0.8624(2) 0.03556(7)
C10 C 0.21544(14) 1.3327(2) 0.03716(8)
H5 H 0.1847 1.2799 -0.0028
H6 H 0.1639 1.4236 0.0491
C11 C 0.32659(15) 1.4253(2) 0.03412(9)
H7 H 0.3341 1.4568 -0.0082
H8 H 0.3362 1.5383 0.0593
C12 C 0.40674(14) 1.2767(2) 0.05957(8)
H9 H 0.4810 1.2816 0.0562
C13 C 0.36230(13) 1.1365(2) 0.08751(7)
C14 C 0.42101(13) 0.9715(2) 0.11768(7)
C15 C 0.50254(15) 0.8839(2) 0.09095(9)
H10 H 0.5172 0.9261 0.0527
C16 C 0.56236(18) 0.7359(3) 0.11958(10)
H11 H 0.6170 0.6801 0.1008
C17 C 0.54176(18) 0.6705(3) 0.17561(10)
H12 H 0.5827 0.5714 0.1951
C18 C 0.46061(17) 0.7519(3) 0.20281(9)
H13 H 0.4463 0.7075 0.2408
C19 C 0.39983(15) 0.8998(2) 0.17404(8)
H14 H 0.3439 0.9523 0.1926
C20 C 0.15023(13) 0.8036(2) -0.02495(7)
C21 C 0.23833(15) 0.8792(2) -0.04976(8)
H15 H 0.2813 0.9728 -0.0282
C22 C 0.26229(16) 0.8165(3) -0.10593(8)
H16 H 0.3212 0.8683 -0.1220
C23 C 0.19956(17) 0.6779(3) -0.13849(9)
H17 H 0.2161 0.6358 -0.1763
C24 C 0.11228(16) 0.6021(3) -0.11461(9)
H18 H 0.0696 0.5086 -0.1364
C25 C 0.08794(14) 0.6643(2) -0.05863(8)
H19 H 0.0287 0.6122 -0.0430
loop_
_geom_bond_atom_site_label_1
_geom_bond_atom_site_label_2
_geom_bond_site_symmetry_1
_geom_bond_site_symmetry_2
N1 N2 1_555 1_555
N2 N3 1_555 1_555
N3 C9 1_555 1_555
C1 N1 1_555 1_555
C2 C1 1_555 1_555
H1 C2 1_555 1_555
C3 C2 1_555 1_555
H2 C3 1_555 1_555
C4 C3 1_555 1_555
H3 C4 1_555 1_555
C5 C4 1_555 1_555
H4 C5 1_555 1_555
C6 C1 1_555 1_555
C7 C6 1_555 1_555
C8 N1 1_555 1_555
C9 C8 1_555 1_555
C10 C7 1_555 1_555
H5 C10 1_555 1_555
H6 C10 1_555 1_555
C11 C10 1_555 1_555
H7 C11 1_555 1_555
H8 C11 1_555 1_555
C12 C11 1_555 1_555
H9 C12 1_555 1_555
C13 C7 1_555 1_555
C14 C13 1_555 1_555
C15 C14 1_555 1_555
H10 C15 1_555 1_555
C16 C15 1_555 1_555
H11 C16 1_555 1_555
C17 C16 1_555 1_555
H12 C17 1_555 1_555
C18 C17 1_555 1_555
H13 C18 1_555 1_555
C19 C14 1_555 1_555
H14 C19 1_555 1_555
C20 C9 1_555 1_555
C21 C20 1_555 1_555
H15 C21 1_555 1_555
C22 C21 1_555 1_555
H16 C22 1_555 1_555
C23 C22 1_555 1_555
H17 C23 1_555 1_555
C24 C23 1_555 1_555
H18 C24 1_555 1_555
C25 C20 1_555 1_555
H19 C25 1_555 1_555
C5 C6 1_555 1_555
C7 C8 1_555 1_555
C12 C13 1_555 1_555
C18 C19 1_555 1_555
C24 C25 1_555 1_555

#END
