
#######################################################################
#
#                 Cambridge Crystallographic Data Centre
#                                CCDC 
#
#######################################################################
#
# If this CIF has been generated from an entry in the Cambridge 
# Structural Database, then it will include bibliographic, chemical, 
# crystal, experimental, refinement or atomic coordinate data resulting 
# from the CCDC's data processing and validation procedures.
#
#######################################################################

data_SIXJEQ
_chemical_formula_moiety         'C22 H19 N3'
_chemical_name_systematic        
4-(Cyclohex-1-en-1-yl(phenyl)methylene)-4H-[1,2,3]triazolo[1,5-a]indole
_symmetry_cell_setting           monoclinic
_symmetry_space_group_name_H-M   'P 21/n'
_symmetry_Int_Tables_number      14
_space_group_name_Hall           '-P 2yn'
loop_
_symmetry_equiv_pos_site_id
_symmetry_equiv_pos_as_xyz
1 x,y,z
2 1/2-x,1/2+y,1/2-z
3 -x,-y,-z
4 1/2+x,1/2-y,1/2+z
_cell_length_a                   10.9572(17)
_cell_length_b                   8.8901(15)
_cell_length_c                   17.469(4)
_cell_angle_alpha                90
_cell_angle_beta                 93.905(17)
_cell_angle_gamma                90
_cell_volume                     1697.72
_exptl_crystal_colour            yellow
_exptl_crystal_description       parallelepiped
_cell_formula_units_Z            4
loop_
_atom_site_label
_atom_site_type_symbol
_atom_site_fract_x
_atom_site_fract_y
_atom_site_fract_z
N1 N 0.4010(2) 0.2970(3) 0.02241(16)
N2 N 0.4855(2) 0.2304(3) 0.0712(2)
N3 N 0.5056(2) 0.3266(4) 0.12869(19)
C1 C 0.3405(3) 0.2546(3) -0.0481(2)
C2 C 0.3506(3) 0.1251(4) -0.0893(2)
H1 H 0.4050 0.0494 -0.0731
C3 C 0.2763(3) 0.1117(4) -0.1563(2)
H2 H 0.2808 0.0254 -0.1861
C4 C 0.1957(3) 0.2244(4) -0.1795(2)
H3 H 0.1458 0.2123 -0.2243
C5 C 0.1879(3) 0.3551(4) -0.13743(19)
H4 H 0.1330 0.4300 -0.1539
C6 C 0.2623(2) 0.3746(3) -0.07017(18)
C7 C 0.2735(2) 0.4934(3) -0.00969(17)
C8 C 0.3651(2) 0.4312(3) 0.04761(17)
C9 C 0.4345(3) 0.4504(4) 0.11580(19)
H5 H 0.4329 0.5342 0.1476
C10 C 0.2128(2) 0.6232(3) -0.00055(17)
C11 C 0.1255(2) 0.6944(3) -0.05836(19)
C12 C 0.1542(3) 0.7187(4) -0.13066(19)
H6 H 0.2305 0.6877 -0.1449
C13 C 0.0695(3) 0.7929(4) -0.1894(2)
H7 H 0.0316 0.7166 -0.2228
H8 H 0.1163 0.8589 -0.2205
C14 C -0.0282(3) 0.8822(4) -0.1545(2)
H9 H 0.0068 0.9750 -0.1338
H10 H -0.0910 0.9082 -0.1942
C15 C -0.0853(3) 0.7979(4) -0.0922(2)
H11 H -0.1452 0.8618 -0.0699
H12 H -0.1278 0.7106 -0.1141
C16 C 0.0073(3) 0.7473(4) -0.0301(2)
H13 H 0.0239 0.8302 0.0052
H14 H -0.0279 0.6663 -0.0016
C17 C 0.2328(2) 0.7053(3) 0.07405(18)
C18 C 0.1691(3) 0.6640(4) 0.13653(19)
H15 H 0.1146 0.5837 0.1322
C19 C 0.1854(3) 0.7407(4) 0.2052(2)
H16 H 0.1413 0.7128 0.2466
C20 C 0.2664(3) 0.8577(4) 0.2121(2)
H17 H 0.2782 0.9083 0.2586
C21 C 0.3306(3) 0.9010(4) 0.1510(2)
H18 H 0.3861 0.9801 0.1561
C22 C 0.3118(3) 0.8258(4) 0.0817(2)
H19 H 0.3531 0.8570 0.0397
loop_
_geom_bond_atom_site_label_1
_geom_bond_atom_site_label_2
_geom_bond_site_symmetry_1
_geom_bond_site_symmetry_2
N1 N2 1_555 1_555
N2 N3 1_555 1_555
N3 C9 1_555 1_555
C1 N1 1_555 1_555
C2 C1 1_555 1_555
H1 C2 1_555 1_555
C3 C2 1_555 1_555
H2 C3 1_555 1_555
C4 C3 1_555 1_555
H3 C4 1_555 1_555
C5 C4 1_555 1_555
H4 C5 1_555 1_555
C6 C1 1_555 1_555
C7 C6 1_555 1_555
C8 N1 1_555 1_555
C9 C8 1_555 1_555
H5 C9 1_555 1_555
C10 C7 1_555 1_555
C11 C10 1_555 1_555
C12 C11 1_555 1_555
H6 C12 1_555 1_555
C13 C12 1_555 1_555
H7 C13 1_555 1_555
H8 C13 1_555 1_555
C14 C13 1_555 1_555
H9 C14 1_555 1_555
H10 C14 1_555 1_555
C15 C14 1_555 1_555
H11 C15 1_555 1_555
H12 C15 1_555 1_555
C16 C11 1_555 1_555
H13 C16 1_555 1_555
H14 C16 1_555 1_555
C17 C10 1_555 1_555
C18 C17 1_555 1_555
H15 C18 1_555 1_555
C19 C18 1_555 1_555
H16 C19 1_555 1_555
C20 C19 1_555 1_555
H17 C20 1_555 1_555
C21 C20 1_555 1_555
H18 C21 1_555 1_555
C22 C17 1_555 1_555
H19 C22 1_555 1_555
C5 C6 1_555 1_555
C7 C8 1_555 1_555
C15 C16 1_555 1_555
C21 C22 1_555 1_555

#END
