
#######################################################################
#
#                 Cambridge Crystallographic Data Centre
#                                CCDC 
#
#######################################################################
#
# If this CIF has been generated from an entry in the Cambridge 
# Structural Database, then it will include bibliographic, chemical, 
# crystal, experimental, refinement or atomic coordinate data resulting 
# from the CCDC's data processing and validation procedures.
#
#######################################################################

data_SIXKUI
_chemical_formula_moiety         'C18 H14 O3'
_chemical_name_systematic        
7-methoxy-2H,2'H-spiro[1-benzofuran-3,1'-naphthalen]-2'-one
_symmetry_cell_setting           monoclinic
_symmetry_space_group_name_H-M   'P 21/c'
_symmetry_Int_Tables_number      14
_space_group_name_Hall           '-P 2ybc'
loop_
_symmetry_equiv_pos_site_id
_symmetry_equiv_pos_as_xyz
1 x,y,z
2 -x,1/2+y,1/2-z
3 -x,-y,-z
4 x,1/2-y,1/2+z
_cell_length_a                   8.5468(13)
_cell_length_b                   11.7660(19)
_cell_length_c                   13.785(2)
_cell_angle_alpha                90
_cell_angle_beta                 97.828(3)
_cell_angle_gamma                90
_cell_volume                     1373.32
_exptl_crystal_colour            colorless
_exptl_crystal_description       block
_cell_formula_units_Z            4
loop_
_atom_site_label
_atom_site_type_symbol
_atom_site_fract_x
_atom_site_fract_y
_atom_site_fract_z
O1 O 0.22694(17) 0.96186(12) 0.19075(10)
O2 O 0.48890(19) 0.90591(14) 0.10279(12)
C1 C 0.2805(2) 0.81596(16) 0.30122(15)
O3 O -0.06468(18) 0.75956(13) 0.24126(11)
C2 C 0.3226(2) 0.87246(17) 0.22208(15)
C3 C 0.1773(2) 0.92045(17) 0.43547(16)
C4 C 0.1351(2) 0.87352(17) 0.33248(14)
C5 C 0.0037(3) 0.78335(18) 0.32280(17)
C6 C 0.3682(3) 0.72406(18) 0.34158(16)
H1 H 0.339503 0.685269 0.395226
C7 C 0.4552(3) 0.84187(18) 0.18036(16)
C8 C 0.1031(3) 0.96557(19) 0.25163(16)
H2 H 0.001943 0.951675 0.212319
H3 H 0.099892 1.040099 0.281376
C9 C 0.5423(3) 0.75049(19) 0.22062(16)
H4 H 0.631627 0.727789 0.194016
C10 C 0.1292(2) 0.86284(17) 0.51500(15)
C11 C 0.4988(3) 0.69203(19) 0.30003(17)
H5 H 0.558757 0.630289 0.325547
C12 C 0.0291(3) 0.76316(19) 0.49808(18)
H6 H 0.004353 0.723317 0.552240
C13 C 0.2710(3) 0.9960(2) 0.6256(2)
H7 H 0.301691 1.021526 0.689136
C14 C 0.2734(3) 1.0146(2) 0.45293(18)
H8 H 0.307679 1.052811 0.400661
C15 C 0.1779(3) 0.9022(2) 0.60920(17)
H9 H 0.146323 0.863800 0.662185
C16 C -0.0290(3) 0.72572(19) 0.40977(18)
H10 H -0.092123 0.661019 0.403987
C17 C 0.3194(3) 1.0526(2) 0.5480(2)
H11 H 0.383139 1.116614 0.558952
C18 C 0.6345(3) 0.8846(2) 0.06623(18)
H12 H 0.720312 0.891512 0.118590
H13 H 0.647774 0.938711 0.015897
H14 H 0.633280 0.809134 0.039605
loop_
_geom_bond_atom_site_label_1
_geom_bond_atom_site_label_2
_geom_bond_site_symmetry_1
_geom_bond_site_symmetry_2
O1 C2 1_555 1_555
O2 C7 1_555 1_555
C1 C2 1_555 1_555
O3 C5 1_555 1_555
C2 C7 1_555 1_555
C3 C4 1_555 1_555
C4 C1 1_555 1_555
C5 C4 1_555 1_555
C6 C1 1_555 1_555
H1 C6 1_555 1_555
C7 C9 1_555 1_555
C8 O1 1_555 1_555
H2 C8 1_555 1_555
H3 C8 1_555 1_555
C9 H4 1_555 1_555
C10 C3 1_555 1_555
C11 C6 1_555 1_555
H5 C11 1_555 1_555
C12 C10 1_555 1_555
H6 C12 1_555 1_555
C13 H7 1_555 1_555
C14 C3 1_555 1_555
H8 C14 1_555 1_555
C15 C10 1_555 1_555
H9 C15 1_555 1_555
C16 C5 1_555 1_555
H10 C16 1_555 1_555
C17 C13 1_555 1_555
H11 C17 1_555 1_555
C18 O2 1_555 1_555
H12 C18 1_555 1_555
H13 C18 1_555 1_555
H14 C18 1_555 1_555
C4 C8 1_555 1_555
C9 C11 1_555 1_555
C12 C16 1_555 1_555
C13 C15 1_555 1_555
C14 C17 1_555 1_555

#END
