
#######################################################################
#
#                 Cambridge Crystallographic Data Centre
#                                CCDC 
#
#######################################################################
#
# If this CIF has been generated from an entry in the Cambridge 
# Structural Database, then it will include bibliographic, chemical, 
# crystal, experimental, refinement or atomic coordinate data resulting 
# from the CCDC's data processing and validation procedures.
#
#######################################################################

data_SIXKAO
_chemical_formula_moiety         '2(C3 N3 O3 3-),3(Ba1 2+)'
_chemical_name_systematic        'tri-barium(ii) bis(cyanurate)'
_symmetry_cell_setting           rhombohedral
_symmetry_space_group_name_H-M   'R -3'
_symmetry_Int_Tables_number      148
_space_group_name_Hall           '-R 3'
loop_
_symmetry_equiv_pos_site_id
_symmetry_equiv_pos_as_xyz
1 x,y,z
2 -y,x-y,z
3 -x+y,-x,z
4 2/3+x,1/3+y,1/3+z
5 2/3-y,1/3+x-y,1/3+z
6 2/3-x+y,1/3-x,1/3+z
7 1/3+x,2/3+y,2/3+z
8 1/3-y,2/3+x-y,2/3+z
9 1/3-x+y,2/3-x,2/3+z
10 -x,-y,-z
11 y,-x+y,-z
12 x-y,x,-z
13 1/3-x,2/3-y,2/3-z
14 1/3+y,2/3-x+y,2/3-z
15 1/3+x-y,2/3+x,2/3-z
16 2/3-x,1/3-y,1/3-z
17 2/3+y,1/3-x+y,1/3-z
18 2/3+x-y,1/3+x,1/3-z
_cell_length_a                   7.0934(2)
_cell_length_b                   7.0934(2)
_cell_length_c                   20.1130(9)
_cell_angle_alpha                90
_cell_angle_beta                 90
_cell_angle_gamma                120
_cell_volume                     876.428
_exptl_crystal_description       plate
_cell_formula_units_Z            3
loop_
_atom_site_label
_atom_site_type_symbol
_atom_site_fract_x
_atom_site_fract_y
_atom_site_fract_z
Ba1 Ba 0.0000 0.0000 0.0000
Ba2 Ba 0.0000 0.0000 0.20168(4)
C1 C 0.1581(16) 0.4722(14) 0.0892(4)
O1 O 0.0060(13) 0.2680(12) 0.0929(4)
N1 N 0.3575(16) 0.4869(13) 0.0894(4)
C1A C 0.5278(14) 0.6859(21) 0.0892(4)
O1A O 0.7320(12) 0.7380(18) 0.0929(4)
N1A N 0.5131(13) 0.8706(21) 0.0894(4)
C1B C 0.3141(21) 0.8419(16) 0.0892(4)
O1B O 0.2620(18) 0.9940(13) 0.0929(4)
N1B N 0.1294(21) 0.6425(16) 0.0894(4)
loop_
_geom_bond_atom_site_label_1
_geom_bond_atom_site_label_2
_geom_bond_site_symmetry_1
_geom_bond_site_symmetry_2
C1 O1 1_555 1_555
N1 C1 1_555 1_555
C1A N1 1_555 1_555
O1A C1A 1_555 1_555
N1A C1A 1_555 1_555
C1B N1A 1_555 1_555
O1B C1B 1_555 1_555
N1B C1 1_555 1_555
C1B N1B 1_555 1_555

#END
