
#######################################################################
#
#                 Cambridge Crystallographic Data Centre
#                                CCDC 
#
#######################################################################
#
# If this CIF has been generated from an entry in the Cambridge 
# Structural Database, then it will include bibliographic, chemical, 
# crystal, experimental, refinement or atomic coordinate data resulting 
# from the CCDC's data processing and validation procedures.
#
#######################################################################

data_SIXKOB
_chemical_formula_moiety         'C23 H17 N3'
_chemical_name_systematic        
4-(Diphenylmethylene)-6-methyl-4H-[1,2,3]triazolo[1,5-a]indole
_symmetry_cell_setting           triclinic
_symmetry_space_group_name_H-M   'P -1'
_symmetry_Int_Tables_number      2
_space_group_name_Hall           '-P 1'
loop_
_symmetry_equiv_pos_site_id
_symmetry_equiv_pos_as_xyz
1 x,y,z
2 -x,-y,-z
_cell_length_a                   9.3071(4)
_cell_length_b                   9.7692(5)
_cell_length_c                   9.8809(5)
_cell_angle_alpha                86.267(3)
_cell_angle_beta                 77.552(3)
_cell_angle_gamma                78.188(2)
_cell_volume                     858.497
_exptl_crystal_colour            colorless
_exptl_crystal_description       prism
_cell_formula_units_Z            2
loop_
_atom_site_label
_atom_site_type_symbol
_atom_site_fract_x
_atom_site_fract_y
_atom_site_fract_z
C1 C 0.34084(18) -0.38019(16) 0.47402(19)
H1 H 0.3342 -0.4183 0.5656
C2 C 0.31748(16) -0.24017(16) 0.43918(17)
C3 C 0.28087(17) -0.09241(16) 0.48289(17)
C4 C 0.23777(16) -0.04660(16) 0.61382(17)
C5 C 0.22548(17) -0.14229(16) 0.73656(17)
C6 C 0.34153(19) -0.25256(16) 0.75558(18)
H2 H 0.4339 -0.2661 0.6898
C7 C 0.3232(2) -0.34242(17) 0.86948(19)
H3 H 0.4028 -0.4175 0.8810
C8 C 0.1900(2) -0.32360(18) 0.96646(19)
H4 H 0.1774 -0.3862 1.0438
C9 C 0.0750(2) -0.21307(18) 0.95036(19)
H5 H -0.0165 -0.1992 1.0173
C10 C 0.09295(18) -0.12268(17) 0.83697(18)
H6 H 0.0140 -0.0463 0.8274
C11 C 0.19523(17) 0.10594(16) 0.64403(16)
C12 C 0.29162(18) 0.16925(17) 0.69619(18)
H7 H 0.3838 0.1152 0.7123
C13 C 0.2553(2) 0.31002(18) 0.7250(2)
H8 H 0.3229 0.3524 0.7596
C14 C 0.1215(2) 0.38888(18) 0.7037(2)
H9 H 0.0961 0.4856 0.7244
C15 C 0.0240(2) 0.32723(18) 0.6522(2)
H10 H -0.0683 0.3818 0.6368
C16 C 0.06017(18) 0.18680(18) 0.6232(2)
H11 H -0.0078 0.1449 0.5886
C17 C 0.29057(16) -0.01099(16) 0.34896(17)
C18 C 0.27430(17) 0.13146(16) 0.31486(18)
H12 H 0.2560 0.1980 0.3856
C19 C 0.28495(18) 0.17579(17) 0.17741(18)
C20 C 0.2625(2) 0.32938(18) 0.1399(2)
H13 H 0.3359 0.3447 0.0625
H14 H 0.2591 0.3900 0.2172
H15 H 0.1694 0.3638 0.1243
C21 C 0.31371(18) 0.07846(17) 0.07356(18)
H16 H 0.3196 0.1105 -0.0200
C22 C 0.33415(18) -0.06448(17) 0.10288(18)
H17 H 0.3552 -0.1312 0.0319
C23 C 0.32230(16) -0.10364(16) 0.23952(17)
N1 N 0.37499(16) -0.45526(14) 0.35672(16)
N2 N 0.37445(15) -0.36883(13) 0.24734(16)
N3 N 0.33933(14) -0.24020(13) 0.29948(14)
loop_
_geom_bond_atom_site_label_1
_geom_bond_atom_site_label_2
_geom_bond_site_symmetry_1
_geom_bond_site_symmetry_2
C1 H1 1_555 1_555
C2 C1 1_555 1_555
C3 C2 1_555 1_555
C4 C3 1_555 1_555
C5 C4 1_555 1_555
C6 C5 1_555 1_555
H2 C6 1_555 1_555
C7 C6 1_555 1_555
H3 C7 1_555 1_555
C8 C7 1_555 1_555
H4 C8 1_555 1_555
C9 C8 1_555 1_555
H5 C9 1_555 1_555
C10 C5 1_555 1_555
H6 C10 1_555 1_555
C11 C4 1_555 1_555
C12 C11 1_555 1_555
H7 C12 1_555 1_555
C13 C12 1_555 1_555
H8 C13 1_555 1_555
C14 C13 1_555 1_555
H9 C14 1_555 1_555
C15 C14 1_555 1_555
H10 C15 1_555 1_555
C16 C11 1_555 1_555
H11 C16 1_555 1_555
C17 C3 1_555 1_555
C18 C17 1_555 1_555
H12 C18 1_555 1_555
C19 C18 1_555 1_555
C20 C19 1_555 1_555
H13 C20 1_555 1_555
H14 C20 1_555 1_555
H15 C20 1_555 1_555
C21 C19 1_555 1_555
H16 C21 1_555 1_555
C22 C21 1_555 1_555
H17 C22 1_555 1_555
C23 C17 1_555 1_555
N1 C1 1_555 1_555
N2 N1 1_555 1_555
N3 C2 1_555 1_555
C9 C10 1_555 1_555
C15 C16 1_555 1_555
C22 C23 1_555 1_555
C23 N3 1_555 1_555
N2 N3 1_555 1_555

#END
