
#######################################################################
#
#                 Cambridge Crystallographic Data Centre
#                                CCDC 
#
#######################################################################
#
# If this CIF has been generated from an entry in the Cambridge 
# Structural Database, then it will include bibliographic, chemical, 
# crystal, experimental, refinement or atomic coordinate data resulting 
# from the CCDC's data processing and validation procedures.
#
#######################################################################

data_SIXPIA
_chemical_formula_moiety         'C30 H29 N1 O3 S1'
_chemical_name_systematic        
2-(4-(Diphenylethenylidene)-3-methyl-1-((4-methylphenyl)sulfonyl)pyrrolidin-3-yl)cyclobut-1-en-1-ol
_symmetry_cell_setting           orthorhombic
_symmetry_space_group_name_H-M   'P 21 21 21'
_symmetry_Int_Tables_number      19
_space_group_name_Hall           'P 2ac 2ab'
loop_
_symmetry_equiv_pos_site_id
_symmetry_equiv_pos_as_xyz
1 x,y,z
2 1/2-x,-y,1/2+z
3 -x,1/2+y,1/2-z
4 1/2+x,1/2-y,-z
_cell_length_a                   8.7740(10)
_cell_length_b                   10.2367(12)
_cell_length_c                   28.488(3)
_cell_angle_alpha                90
_cell_angle_beta                 90
_cell_angle_gamma                90
_cell_volume                     2558.7
_exptl_crystal_colour            green
_exptl_crystal_description       prismatic
_cell_formula_units_Z            4
loop_
_atom_site_label
_atom_site_type_symbol
_atom_site_fract_x
_atom_site_fract_y
_atom_site_fract_z
S1 S 0.01518(12) -0.03469(9) 0.84250(3)
N1 N 0.1349(4) 0.0655(3) 0.86721(9)
O1 O 0.1717(5) 0.2325(5) 0.98709(15)
H1 H 0.1006 0.2174 0.9692
O2 O -0.1319(3) 0.0169(3) 0.85073(10)
O3 O 0.0532(4) -0.1621(3) 0.85855(9)
C1 C 0.3716(5) 0.1515(4) 0.89163(14)
C2 C 0.2998(5) 0.0382(4) 0.86274(14)
H2 H 0.3322 0.0411 0.8302
H3 H 0.3257 -0.0462 0.8760
C3 C 0.1094(5) 0.2065(4) 0.86358(15)
H4 H 0.0251 0.2341 0.8833
H5 H 0.0892 0.2322 0.8314
C4 C 0.2585(5) 0.2624(4) 0.88081(12)
C5 C 0.2920(5) 0.3868(4) 0.88497(13)
C6 C 0.3379(4) 0.5061(3) 0.89192(13)
C7 C 0.3255(5) 0.5624(4) 0.94085(13)
C8 C 0.4006(6) 0.5026(4) 0.97630(14)
H6 H 0.4564 0.4272 0.9703
C9 C 0.3952(7) 0.5523(6) 1.02156(17)
H7 H 0.4490 0.5114 1.0456
C10 C 0.3118(7) 0.6601(6) 1.03069(18)
H8 H 0.3092 0.6943 1.0609
C11 C 0.2302(7) 0.7202(5) 0.9950(2)
H9 H 0.1696 0.7925 1.0015
C12 C 0.2391(6) 0.6720(4) 0.94988(16)
H10 H 0.1871 0.7134 0.9256
C13 C 0.4079(5) 0.5842(4) 0.85340(14)
C14 C 0.4945(5) 0.6956(4) 0.86369(19)
H11 H 0.5045 0.7243 0.8945
C15 C 0.5650(6) 0.7621(5) 0.8275(3)
H12 H 0.6217 0.8368 0.8340
C16 C 0.5517(8) 0.7184(7) 0.7819(3)
H13 H 0.6029 0.7617 0.7579
C17 C 0.4647(7) 0.6130(6) 0.7718(2)
H14 H 0.4523 0.5860 0.7409
C18 C 0.3947(6) 0.5462(5) 0.80769(16)
H15 H 0.3366 0.4728 0.8006
C19 C 0.3669(6) 0.1195(4) 0.94125(15)
C20 C 0.2838(7) 0.1502(5) 0.97859(17)
C21 C 0.3419(16) 0.0714(19) 1.0170(5)
H16 H 0.2727 0.0049 1.0285
H17 H 0.3891 0.1202 1.0423
C22 C 0.4567(19) 0.0243(17) 0.9762(4)
H18 H 0.5621 0.0488 0.9814
H19 H 0.4478 -0.0676 0.9683
C23 C 0.0507(4) -0.0283(3) 0.78179(11)
C24 C -0.0274(5) 0.0586(4) 0.75409(13)
H20 H -0.1019 0.1120 0.7671
C25 C 0.0050(6) 0.0660(5) 0.70730(15)
H21 H -0.0500 0.1241 0.6888
C26 C 0.1150(5) -0.0087(4) 0.68681(13)
C27 C 0.1951(5) -0.0946(5) 0.71501(15)
H22 H 0.2712 -0.1461 0.7018
C28 C 0.1639(5) -0.1053(4) 0.76251(14)
H23 H 0.2183 -0.1634 0.7812
C29 C 0.1500(6) 0.0020(5) 0.63480(14)
H24 H 0.2367 0.0578 0.6303
H25 H 0.0636 0.0382 0.6187
H26 H 0.1718 -0.0832 0.6224
C30 C 0.5385(5) 0.1815(5) 0.87603(18)
H27 H 0.5800 0.2492 0.8955
H28 H 0.5388 0.2097 0.8439
H29 H 0.5993 0.1040 0.8791
C31? C 0.399(2) 0.065(2) 1.0101(6)
H30? H 0.4645 0.1168 1.0305
H31? H 0.3519 -0.0062 1.0269
C32? C 0.474(3) 0.026(3) 0.9623(5)
H32? H 0.5807 0.0502 0.9593
H33? H 0.4575 -0.0643 0.9532
loop_
_geom_bond_atom_site_label_1
_geom_bond_atom_site_label_2
_geom_bond_site_symmetry_1
_geom_bond_site_symmetry_2
S1 N1 1_555 1_555
N1 C2 1_555 1_555
O1 H1 1_555 1_555
O2 S1 1_555 1_555
O3 S1 1_555 1_555
C1 C2 1_555 1_555
C2 H2 1_555 1_555
H3 C2 1_555 1_555
C3 N1 1_555 1_555
H4 C3 1_555 1_555
H5 C3 1_555 1_555
C4 C1 1_555 1_555
C5 C4 1_555 1_555
C6 C5 1_555 1_555
C7 C6 1_555 1_555
C8 C7 1_555 1_555
H6 C8 1_555 1_555
C9 C8 1_555 1_555
H7 C9 1_555 1_555
C10 C9 1_555 1_555
H8 C10 1_555 1_555
C11 C10 1_555 1_555
H9 C11 1_555 1_555
C12 C7 1_555 1_555
H10 C12 1_555 1_555
C13 C6 1_555 1_555
C14 C13 1_555 1_555
H11 C14 1_555 1_555
C15 C14 1_555 1_555
H12 C15 1_555 1_555
C16 C15 1_555 1_555
H13 C16 1_555 1_555
C17 C16 1_555 1_555
H14 C17 1_555 1_555
C18 C13 1_555 1_555
H15 C18 1_555 1_555
C19 C1 1_555 1_555
C20 O1 1_555 1_555
C21 C20 1_555 1_555
H16 C21 1_555 1_555
H17 C21 1_555 1_555
C22 C19 1_555 1_555
H18 C22 1_555 1_555
H19 C22 1_555 1_555
C23 S1 1_555 1_555
C24 C23 1_555 1_555
H20 C24 1_555 1_555
C25 C24 1_555 1_555
H21 C25 1_555 1_555
C26 C25 1_555 1_555
C27 C26 1_555 1_555
H22 C27 1_555 1_555
C28 C23 1_555 1_555
H23 C28 1_555 1_555
C29 C26 1_555 1_555
H24 C29 1_555 1_555
H25 C29 1_555 1_555
H26 C29 1_555 1_555
C30 C1 1_555 1_555
H27 C30 1_555 1_555
H28 C30 1_555 1_555
H29 C30 1_555 1_555
C3 C4 1_555 1_555
C11 C12 1_555 1_555
C17 C18 1_555 1_555
C19 C20 1_555 1_555
C21 C22 1_555 1_555
C27 C28 1_555 1_555

#END
