
#######################################################################
#
#                 Cambridge Crystallographic Data Centre
#                                CCDC 
#
#######################################################################
#
# If this CIF has been generated from an entry in the Cambridge 
# Structural Database, then it will include bibliographic, chemical, 
# crystal, experimental, refinement or atomic coordinate data resulting 
# from the CCDC's data processing and validation procedures.
#
#######################################################################

data_SIXWEC
_chemical_formula_moiety         'C23 H29 N1 O2'
_chemical_name_systematic        
((1R,3S)-2,2-Dimethyl-3-((morpholin-4-yl)methyl)cyclopropyl)diphenylmethanol
_symmetry_cell_setting           triclinic
_symmetry_space_group_name_H-M   'P 1'
_symmetry_Int_Tables_number      1
_space_group_name_Hall           'P 1'
loop_
_symmetry_equiv_pos_site_id
_symmetry_equiv_pos_as_xyz
1 x,y,z
_cell_length_a                   6.2009(12)
_cell_length_b                   8.7144(17)
_cell_length_c                   9.6164(19)
_cell_angle_alpha                92.38(3)
_cell_angle_beta                 98.64(3)
_cell_angle_gamma                104.91(3)
_cell_volume                     494.697
_exptl_crystal_colour            colorless
_exptl_crystal_description       block
_chemical_melting_point          '156-157 deg.C'
_cell_formula_units_Z            1
loop_
_atom_site_label
_atom_site_type_symbol
_atom_site_fract_x
_atom_site_fract_y
_atom_site_fract_z
O1 O 0.5052(6) -0.2947(4) 0.0094(3)
O2 O 0.5994(3) 0.0750(3) 0.4159(2)
H1 H 0.575(6) -0.038(5) 0.348(4)
N1 N 0.6402(5) -0.2077(3) 0.3000(3)
C1 C 0.7237(6) -0.2348(4) 0.4460(4)
H2 H 0.7471 -0.3406 0.4467
H3 H 0.6080 -0.2319 0.5029
C2 C 0.9392(5) -0.1165(4) 0.5126(3)
H4 H 1.0741 -0.1543 0.5088
C3 C 0.9857(5) 0.0646(3) 0.5167(3)
H5 H 1.1461 0.1156 0.5163
C4 C 0.8342(5) 0.1621(4) 0.4442(3)
C5 C 0.9037(5) 0.2120(3) 0.3019(3)
C6 C 1.0911(6) 0.1905(4) 0.2507(3)
H6 H 1.1909 0.1459 0.3067
C7 C 1.1350(6) 0.2328(5) 0.1196(4)
H7 H 1.2624 0.2163 0.0879
C8 C 0.9897(7) 0.2997(5) 0.0353(4)
H8 H 1.0141 0.3243 -0.0552
C9 C 0.8063(7) 0.3299(5) 0.0877(4)
H9 H 0.7129 0.3814 0.0342
C10 C 0.7618(7) 0.2842(4) 0.2181(4)
H10 H 0.6355 0.3018 0.2505
C11 C 0.8590(5) 0.3087(4) 0.5431(3)
C12 C 1.0678(6) 0.4201(4) 0.5786(4)
H11 H 1.1886 0.4095 0.5358
C13 C 1.0968(7) 0.5458(4) 0.6766(4)
H12 H 1.2373 0.6197 0.7003
C14 C 0.9182(7) 0.5628(4) 0.7397(4)
H13 H 0.9397 0.6467 0.8077
C15 C 0.7119(7) 0.4583(5) 0.7037(4)
H14 H 0.5911 0.4730 0.7445
C16 C 0.6793(6) 0.3295(4) 0.6064(3)
H15 H 0.5377 0.2569 0.5833
C17 C 0.9522(5) -0.0163(3) 0.6489(3)
C18 C 0.7398(6) -0.0316(4) 0.7133(4)
H16 H 0.7744 0.0382 0.7982
H17 H 0.6833 -0.1396 0.7351
H18 H 0.6270 -0.0031 0.6474
C19 C 1.1637(6) 0.0081(5) 0.7570(4)
H19 H 1.1535 0.0728 0.8377
H20 H 1.2931 0.0603 0.7166
H21 H 1.1792 -0.0934 0.7855
C20 C 0.4200(7) -0.3189(5) 0.2449(4)
H22 H 0.3104 -0.3076 0.3040
H23 H 0.4325 -0.4276 0.2453
C21 C 0.3437(8) -0.2836(5) 0.0975(5)
H24 H 0.1994 -0.3584 0.0594
H25 H 0.3224 -0.1771 0.0987
C22 C 0.8029(7) -0.2211(5) 0.2081(4)
H26 H 0.8254 -0.3273 0.2078
H27 H 0.9474 -0.1449 0.2427
C23 C 0.7160(8) -0.1897(6) 0.0627(4)
H28 H 0.7029 -0.0812 0.0630
H29 H 0.8232 -0.2001 0.0015
loop_
_geom_bond_atom_site_label_1
_geom_bond_atom_site_label_2
_geom_bond_site_symmetry_1
_geom_bond_site_symmetry_2
O1 C21 1_555 1_555
O2 H1 1_555 1_555
N1 C1 1_555 1_555
C1 H2 1_555 1_555
H3 C1 1_555 1_555
C2 C1 1_555 1_555
H4 C2 1_555 1_555
C3 C2 1_555 1_555
H5 C3 1_555 1_555
C4 O2 1_555 1_555
C5 C4 1_555 1_555
C6 C5 1_555 1_555
H6 C6 1_555 1_555
C7 C6 1_555 1_555
H7 C7 1_555 1_555
C8 C7 1_555 1_555
H8 C8 1_555 1_555
C9 C8 1_555 1_555
H9 C9 1_555 1_555
C10 C5 1_555 1_555
H10 C10 1_555 1_555
C11 C4 1_555 1_555
C12 C11 1_555 1_555
H11 C12 1_555 1_555
C13 C12 1_555 1_555
H12 C13 1_555 1_555
C14 C13 1_555 1_555
H13 C14 1_555 1_555
C15 C14 1_555 1_555
H14 C15 1_555 1_555
C16 C11 1_555 1_555
H15 C16 1_555 1_555
C17 C2 1_555 1_555
C18 C17 1_555 1_555
H16 C18 1_555 1_555
H17 C18 1_555 1_555
H18 C18 1_555 1_555
C19 C17 1_555 1_555
H19 C19 1_555 1_555
H20 C19 1_555 1_555
H21 C19 1_555 1_555
C20 N1 1_555 1_555
H22 C20 1_555 1_555
H23 C20 1_555 1_555
C21 C20 1_555 1_555
H24 C21 1_555 1_555
H25 C21 1_555 1_555
C22 N1 1_555 1_555
H26 C22 1_555 1_555
H27 C22 1_555 1_555
C23 O1 1_555 1_555
H28 C23 1_555 1_555
H29 C23 1_555 1_555
C3 C4 1_555 1_555
C3 C17 1_555 1_555
C9 C10 1_555 1_555
C15 C16 1_555 1_555
C22 C23 1_555 1_555

#END
