
#######################################################################
#
#                 Cambridge Crystallographic Data Centre
#                                CCDC 
#
#######################################################################
#
# If this CIF has been generated from an entry in the Cambridge 
# Structural Database, then it will include bibliographic, chemical, 
# crystal, experimental, refinement or atomic coordinate data resulting 
# from the CCDC's data processing and validation procedures.
#
#######################################################################

data_SIXXUT
_chemical_formula_moiety         'C6 H6 N4 S4'
_chemical_name_systematic        
2,2'-(1,2-Ethanediyl-dithio)-bis(1,3,4-thiadiazole)
_symmetry_cell_setting           monoclinic
_symmetry_space_group_name_H-M   'P 21/n'
_symmetry_Int_Tables_number      14
_space_group_name_Hall           '-P 2yn'
loop_
_symmetry_equiv_pos_site_id
_symmetry_equiv_pos_as_xyz
1 x,y,z
2 1/2-x,1/2+y,1/2-z
3 -x,-y,-z
4 1/2+x,1/2-y,1/2+z
_cell_length_a                   5.4665(7)
_cell_length_b                   12.7031(17)
_cell_length_c                   7.5767(10)
_cell_angle_alpha                90
_cell_angle_beta                 93.277(2)
_cell_angle_gamma                90
_cell_volume                     525.277
_chemical_melting_point          '155.8-156.9 deg.C'
_cell_formula_units_Z            2
loop_
_atom_site_label
_atom_site_type_symbol
_atom_site_fract_x
_atom_site_fract_y
_atom_site_fract_z
S1 S 0.20977(14) 0.15392(7) 1.00499(10)
S2 S 0.27196(16) -0.01368(7) 0.73132(11)
N1 N 0.5732(5) 0.1516(2) 0.8077(3)
N2 N 0.6077(5) 0.2386(2) 0.9172(4)
C1 C 0.3742(5) 0.1007(2) 0.8391(3)
C2 C 0.4354(6) 0.2482(2) 1.0250(4)
H1 H 0.4330 0.3022 1.1077
C3 C 0.5199(6) -0.0341(2) 0.5807(4)
H2 H 0.6760 -0.0168 0.6411
H3 H 0.5243 -0.1075 0.5458
S1B S 0.79023(14) -0.15392(7) -0.00499(10)
S2B S 0.72804(16) 0.01368(7) 0.26868(11)
N1B N 0.4268(5) -0.1516(2) 0.1923(3)
N2B N 0.3923(5) -0.2386(2) 0.0828(4)
C1B C 0.6258(5) -0.1007(2) 0.1609(3)
C2B C 0.5646(6) -0.2482(2) -0.0250(4)
H1B H 0.5670 -0.3022 -0.1077
C3B C 0.4801(6) 0.0341(2) 0.4193(4)
H2B H 0.3240 0.0168 0.3589
H3B H 0.4757 0.1075 0.4542
loop_
_geom_bond_atom_site_label_1
_geom_bond_atom_site_label_2
_geom_bond_site_symmetry_1
_geom_bond_site_symmetry_2
S1 C1 1_555 1_555
S2 C1 1_555 1_555
N1 N2 1_555 1_555
N2 C2 1_555 1_555
C1 N1 1_555 1_555
C2 S1 1_555 1_555
H1 C2 1_555 1_555
C3 S2 1_555 1_555
H2 C3 1_555 1_555
H3 C3 1_555 1_555
S1B C1B 1_555 1_555
S2B C1B 1_555 1_555
N1B N2B 1_555 1_555
N2B C2B 1_555 1_555
C1B N1B 1_555 1_555
C2B S1B 1_555 1_555
H1B C2B 1_555 1_555
C3B C3 1_555 1_555
H2B C3B 1_555 1_555
H3B C3B 1_555 1_555
S2B C3B 1_555 1_555

#END
