
#######################################################################
#
#                 Cambridge Crystallographic Data Centre
#                                CCDC 
#
#######################################################################
#
# If this CIF has been generated from an entry in the Cambridge 
# Structural Database, then it will include bibliographic, chemical, 
# crystal, experimental, refinement or atomic coordinate data resulting 
# from the CCDC's data processing and validation procedures.
#
#######################################################################

data_SIXYAA
_chemical_formula_moiety         'C7 H8 N4 S4'
_chemical_name_systematic        
2,2'-(1,3-Propanediyl-dithio)-bis(1,3,4-thiadiazole)
_symmetry_cell_setting           triclinic
_symmetry_space_group_name_H-M   'P -1'
_symmetry_Int_Tables_number      2
_space_group_name_Hall           '-P 1'
loop_
_symmetry_equiv_pos_site_id
_symmetry_equiv_pos_as_xyz
1 x,y,z
2 -x,-y,-z
_cell_length_a                   8.0232(9)
_cell_length_b                   8.0801(9)
_cell_length_c                   10.1752(17)
_cell_angle_alpha                102.289(2)
_cell_angle_beta                 95.824(2)
_cell_angle_gamma                115.649(2)
_cell_volume                     566.807
_exptl_crystal_description       'thin needle'
_chemical_melting_point          '72.3-73.5 deg.C'
_cell_formula_units_Z            2
loop_
_atom_site_label
_atom_site_type_symbol
_atom_site_fract_x
_atom_site_fract_y
_atom_site_fract_z
S1 S -0.49900(6) 0.16215(7) 0.65758(5)
S2 S -0.11746(6) 0.28566(8) 0.58503(5)
S3 S 0.45884(5) 0.65277(6) 0.63227(4)
S4 S 0.71833(6) 0.68923(8) 0.89385(5)
N1 N -0.3600(2) 0.1463(2) 0.88849(16)
N2 N -0.2103(2) 0.2057(2) 0.82234(15)
N3 N 0.8307(2) 0.7827(2) 0.68287(16)
N4 N 0.9911(2) 0.8209(3) 0.7754(2)
C1 C -0.5154(3) 0.1197(3) 0.81506(19)
H1 H -0.6281 0.0804 0.8455
C2 C -0.2622(2) 0.2210(2) 0.70156(16)
C3 C 0.0890(2) 0.2728(3) 0.66142(19)
H2 H 0.0467 0.1559 0.6890
H3 H 0.1610 0.2641 0.5915
C4 C 0.2203(2) 0.4408(2) 0.78572(17)
H4 H 0.1491 0.4479 0.8564
H5 H 0.3207 0.4158 0.8224
C5 C 0.3096(2) 0.6339(2) 0.75659(17)
H6 H 0.3849 0.7317 0.8426
H7 H 0.2091 0.6610 0.7234
C6 C 0.6785(2) 0.7148(2) 0.73114(15)
C7 C 0.9533(3) 0.7805(3) 0.8875(2)
H8 H 1.0462 0.7992 0.9599
loop_
_geom_bond_atom_site_label_1
_geom_bond_atom_site_label_2
_geom_bond_site_symmetry_1
_geom_bond_site_symmetry_2
S1 C1 1_555 1_555
S2 C2 1_555 1_555
S3 C5 1_555 1_555
S4 C6 1_555 1_555
N1 N2 1_555 1_555
N2 C2 1_555 1_555
N3 N4 1_555 1_555
N4 C7 1_555 1_555
C1 N1 1_555 1_555
H1 C1 1_555 1_555
C2 S1 1_555 1_555
C3 S2 1_555 1_555
H2 C3 1_555 1_555
H3 C3 1_555 1_555
C4 C3 1_555 1_555
H4 C4 1_555 1_555
H5 C4 1_555 1_555
C5 C4 1_555 1_555
H6 C5 1_555 1_555
H7 C5 1_555 1_555
C6 S3 1_555 1_555
C7 S4 1_555 1_555
H8 C7 1_555 1_555
N3 C6 1_555 1_555

#END
