
#######################################################################
#
#                 Cambridge Crystallographic Data Centre
#                                CCDC 
#
#######################################################################
#
# If this CIF has been generated from an entry in the Cambridge 
# Structural Database, then it will include bibliographic, chemical, 
# crystal, experimental, refinement or atomic coordinate data resulting 
# from the CCDC's data processing and validation procedures.
#
#######################################################################

data_SIYDEL
_chemical_formula_moiety         'C42 H48 Li2 N2 O6'
_chemical_name_systematic        
bis(\m~2~-3-((4-Methoxyphenyl)imino)-1-phenylbut-1-en-1-oxy)-bis(tetrahydrofuran)-di-lithium
_symmetry_cell_setting           monoclinic
_symmetry_space_group_name_H-M   'P 21/c'
_symmetry_Int_Tables_number      14
_space_group_name_Hall           '-P 2ybc'
loop_
_symmetry_equiv_pos_site_id
_symmetry_equiv_pos_as_xyz
1 x,y,z
2 -x,1/2+y,1/2-z
3 -x,-y,-z
4 x,1/2-y,1/2+z
_cell_length_a                   11.6613(9)
_cell_length_b                   8.4971(8)
_cell_length_c                   19.2270(11)
_cell_angle_alpha                90
_cell_angle_beta                 91.384(6)
_cell_angle_gamma                90
_cell_volume                     1904.59
_exptl_crystal_colour            colorless
_exptl_crystal_description       prism
_cell_formula_units_Z            2
loop_
_atom_site_label
_atom_site_type_symbol
_atom_site_fract_x
_atom_site_fract_y
_atom_site_fract_z
O1 O 0.09428(9) 0.54326(15) 0.04346(5)
O2 O -0.51974(10) 0.23861(17) 0.18750(7)
O3 O 0.05305(10) 0.18887(16) 0.02725(7)
N1 N -0.07393(11) 0.43744(18) 0.13768(7)
C1 C 0.14486(13) 0.5910(2) 0.09964(8)
C2 C 0.25651(13) 0.6751(2) 0.09104(8)
C3 C 0.31694(14) 0.6527(2) 0.03066(9)
H1 H 0.2875 0.5858 -0.0036
C4 C 0.41999(15) 0.7278(3) 0.02054(10)
H2 H 0.4600 0.7098 -0.0200
C5 C 0.46381(16) 0.8295(3) 0.07030(10)
H3 H 0.5327 0.8814 0.0632
C6 C 0.40516(15) 0.8534(2) 0.13021(10)
H4 H 0.4347 0.9216 0.1640
C7 C 0.30271(14) 0.7775(2) 0.14095(9)
H5 H 0.2639 0.7947 0.1820
C8 C 0.10346(15) 0.5682(2) 0.16532(9)
H6 H 0.1517 0.5975 0.2023
C9 C -0.00538(15) 0.5044(2) 0.18298(8)
C10 C -0.0343(2) 0.5185(3) 0.25909(10)
H7 H -0.0605 0.6233 0.2684
H8 H 0.0328 0.4965 0.2873
H9 H -0.0936 0.4445 0.2698
C11 C -0.18675(13) 0.3922(2) 0.15532(8)
C12 C -0.21897(14) 0.2360(2) 0.14902(8)
H10 H -0.1647 0.1614 0.1368
C13 C -0.32944(14) 0.1891(2) 0.16051(9)
H11 H -0.3487 0.0831 0.1571
C14 C -0.41240(13) 0.2983(2) 0.17714(8)
C15 C -0.38286(15) 0.4544(2) 0.18213(10)
H12 H -0.4380 0.5293 0.1927
C16 C -0.27063(16) 0.4998(2) 0.17140(10)
H13 H -0.2513 0.6057 0.1751
C17 C -0.60966(16) 0.3467(3) 0.19794(13)
H14 H -0.5943 0.4054 0.2398
H15 H -0.6806 0.2906 0.2020
H16 H -0.6152 0.4175 0.1591
C18 C 0.14896(18) 0.1638(3) 0.07402(12)
H17 H 0.1456 0.0595 0.0943
H18 H 0.1492 0.2409 0.1112
C19 C 0.2535(2) 0.1807(4) 0.03177(14)
H19 H 0.3035 0.0925 0.0391
H20 H 0.2927 0.2770 0.0433
C20 C 0.2158(7) 0.1048(8) -0.0310(5)
H21 H 0.2206 -0.0087 -0.0263
H22 H 0.2621 0.1373 -0.0697
C21 C 0.08968(18) 0.1577(3) -0.04231(11)
H23 H 0.0855 0.2505 -0.0705
H24 H 0.0458 0.0737 -0.0629
Li1 Li -0.0250(2) 0.3906(3) 0.04158(14)
O1B O -0.09428(9) 0.45674(15) -0.04346(5)
O2B O 0.51974(10) 0.76139(17) -0.18750(7)
O3B O -0.05305(10) 0.81113(16) -0.02725(7)
N1B N 0.07393(11) 0.56256(18) -0.13768(7)
C1B C -0.14486(13) 0.4090(2) -0.09964(8)
C2B C -0.25651(13) 0.3249(2) -0.09104(8)
C3B C -0.31694(14) 0.3473(2) -0.03066(9)
H1B H -0.2875 0.4142 0.0036
C4B C -0.41999(15) 0.2722(3) -0.02054(10)
H2B H -0.4600 0.2902 0.0200
C5B C -0.46381(16) 0.1705(3) -0.07030(10)
H3B H -0.5327 0.1186 -0.0632
C6B C -0.40516(15) 0.1466(2) -0.13021(10)
H4B H -0.4347 0.0784 -0.1640
C7B C -0.30271(14) 0.2225(2) -0.14095(9)
H5B H -0.2639 0.2053 -0.1820
C8B C -0.10346(15) 0.4318(2) -0.16532(9)
H6B H -0.1517 0.4025 -0.2023
C9B C 0.00538(15) 0.4956(2) -0.18298(8)
C10B C 0.0343(2) 0.4815(3) -0.25909(10)
H7B H 0.0605 0.3767 -0.2684
H8B H -0.0328 0.5035 -0.2873
H9B H 0.0936 0.5555 -0.2698
C11B C 0.18675(13) 0.6078(2) -0.15532(8)
C12B C 0.21897(14) 0.7640(2) -0.14902(8)
H10B H 0.1647 0.8386 -0.1368
C13B C 0.32944(14) 0.8109(2) -0.16051(9)
H11B H 0.3487 0.9169 -0.1571
C14B C 0.41240(13) 0.7017(2) -0.17714(8)
C15B C 0.38286(15) 0.5456(2) -0.18213(10)
H12B H 0.4380 0.4707 -0.1927
C16B C 0.27063(16) 0.5002(2) -0.17140(10)
H13B H 0.2513 0.3943 -0.1751
C17B C 0.60966(16) 0.6533(3) -0.19794(13)
H14B H 0.5943 0.5946 -0.2398
H15B H 0.6806 0.7094 -0.2020
H16B H 0.6152 0.5825 -0.1591
C18B C -0.14896(18) 0.8362(3) -0.07402(12)
H17B H -0.1456 0.9405 -0.0943
H18B H -0.1492 0.7591 -0.1112
C19B C -0.2535(2) 0.8193(4) -0.03177(14)
H19B H -0.3035 0.9075 -0.0391
H20B H -0.2927 0.7230 -0.0433
C20B C -0.2158(7) 0.8952(8) 0.0310(5)
H21B H -0.2206 1.0087 0.0263
H22B H -0.2621 0.8627 0.0697
C21B C -0.08968(18) 0.8423(3) 0.04231(11)
H23B H -0.0855 0.7495 0.0705
H24B H -0.0458 0.9263 0.0629
Li1B Li 0.0250(2) 0.6094(3) -0.04158(14)
H25? H 0.3136 0.1095 0.0478
H26? H 0.2826 0.2876 0.0335
C22? C 0.2112(7) 0.1824(9) -0.0436(4)
H27? H 0.2478 0.0994 -0.0697
H28? H 0.2284 0.2827 -0.0651
H29? H 0.0720 0.0498 -0.0552
H30? H 0.0503 0.2275 -0.0749
loop_
_geom_bond_atom_site_label_1
_geom_bond_atom_site_label_2
_geom_bond_site_symmetry_1
_geom_bond_site_symmetry_2
O1 C1 1_555 1_555
O2 C14 1_555 1_555
O3 C18 1_555 1_555
N1 C9 1_555 1_555
C1 C2 1_555 1_555
C2 C3 1_555 1_555
C3 H1 1_555 1_555
C4 C3 1_555 1_555
H2 C4 1_555 1_555
C5 C4 1_555 1_555
H3 C5 1_555 1_555
C6 C5 1_555 1_555
H4 C6 1_555 1_555
C7 C2 1_555 1_555
H5 C7 1_555 1_555
C8 C1 1_555 1_555
H6 C8 1_555 1_555
C9 C8 1_555 1_555
C10 C9 1_555 1_555
H7 C10 1_555 1_555
H8 C10 1_555 1_555
H9 C10 1_555 1_555
C11 N1 1_555 1_555
C12 C11 1_555 1_555
H10 C12 1_555 1_555
C13 C12 1_555 1_555
H11 C13 1_555 1_555
C14 C13 1_555 1_555
C15 C14 1_555 1_555
H12 C15 1_555 1_555
C16 C11 1_555 1_555
H13 C16 1_555 1_555
C17 O2 1_555 1_555
H14 C17 1_555 1_555
H15 C17 1_555 1_555
H16 C17 1_555 1_555
C18 H17 1_555 1_555
H18 C18 1_555 1_555
C19 C18 1_555 1_555
H19 C19 1_555 1_555
H20 C19 1_555 1_555
C20 C19 1_555 1_555
H21 C20 1_555 1_555
H22 C20 1_555 1_555
C21 O3 1_555 1_555
H23 C21 1_555 1_555
H24 C21 1_555 1_555
Li1 O1 1_555 1_555
O1B Li1 1_555 1_555
O2B C14B 1_555 1_555
O3B C18B 1_555 1_555
N1B C9B 1_555 1_555
C1B O1B 1_555 1_555
C2B C1B 1_555 1_555
C3B C2B 1_555 1_555
H1B C3B 1_555 1_555
C4B C3B 1_555 1_555
H2B C4B 1_555 1_555
C5B C4B 1_555 1_555
H3B C5B 1_555 1_555
C6B C5B 1_555 1_555
H4B C6B 1_555 1_555
C7B C2B 1_555 1_555
H5B C7B 1_555 1_555
C8B C1B 1_555 1_555
H6B C8B 1_555 1_555
C9B C8B 1_555 1_555
C10B C9B 1_555 1_555
H7B C10B 1_555 1_555
H8B C10B 1_555 1_555
H9B C10B 1_555 1_555
C11B N1B 1_555 1_555
C12B C11B 1_555 1_555
H10B C12B 1_555 1_555
C13B C12B 1_555 1_555
H11B C13B 1_555 1_555
C14B C13B 1_555 1_555
C15B C14B 1_555 1_555
H12B C15B 1_555 1_555
C16B C11B 1_555 1_555
H13B C16B 1_555 1_555
C17B O2B 1_555 1_555
H14B C17B 1_555 1_555
H15B C17B 1_555 1_555
H16B C17B 1_555 1_555
C18B H17B 1_555 1_555
H18B C18B 1_555 1_555
C19B C18B 1_555 1_555
H19B C19B 1_555 1_555
H20B C19B 1_555 1_555
C20B C19B 1_555 1_555
H21B C20B 1_555 1_555
H22B C20B 1_555 1_555
C21B O3B 1_555 1_555
H23B C21B 1_555 1_555
H24B C21B 1_555 1_555
Li1B O1 1_555 1_555
O3 Li1 1_555 1_555
N1 Li1 1_555 1_555
C6 C7 1_555 1_555
C15 C16 1_555 1_555
C20 C21 1_555 1_555
O1B Li1B 1_555 1_555
O3B Li1B 1_555 1_555
N1B Li1B 1_555 1_555
C6B C7B 1_555 1_555
C15B C16B 1_555 1_555
C20B C21B 1_555 1_555

#END
