
#######################################################################
#
#                 Cambridge Crystallographic Data Centre
#                                CCDC 
#
#######################################################################
#
# If this CIF has been generated from an entry in the Cambridge 
# Structural Database, then it will include bibliographic, chemical, 
# crystal, experimental, refinement or atomic coordinate data resulting 
# from the CCDC's data processing and validation procedures.
#
#######################################################################

data_SIYQUO
_chemical_formula_moiety         'C12 H10 Br1 N1 O2'
_chemical_name_systematic        2-bromo-3-(ethylamino)-1,4-naphthoquinone
_symmetry_cell_setting           orthorhombic
_symmetry_space_group_name_H-M   'P c a 21'
_symmetry_Int_Tables_number      29
_space_group_name_Hall           'P 2c -2ac'
loop_
_symmetry_equiv_pos_site_id
_symmetry_equiv_pos_as_xyz
1 x,y,z
2 -x,-y,1/2+z
3 1/2+x,-y,z
4 1/2-x,y,1/2+z
_cell_length_a                   14.846(1)
_cell_length_b                   4.5979(4)
_cell_length_c                   16.643(2)
_cell_angle_alpha                90
_cell_angle_beta                 90
_cell_angle_gamma                90
_cell_volume                     1136.06
_exptl_crystal_colour            red
_exptl_crystal_description       needle
_chemical_melting_point          '385-386 K'
_cell_formula_units_Z            4
loop_
_atom_site_label
_atom_site_type_symbol
_atom_site_fract_x
_atom_site_fract_y
_atom_site_fract_z
Br1 Br -0.00240(3) 1.26668(9) 0.47686(13)
O1 O -0.11460(17) 0.9027(8) 0.5794(2)
O2 O 0.21937(18) 0.8643(8) 0.6957(2)
N1 N 0.1963(2) 1.1793(7) 0.5690(2)
H1 H 0.2427 1.1534 0.5991
C1 C -0.0373(2) 0.8870(9) 0.6055(3)
C2 C 0.0350(2) 1.0500(9) 0.5679(2)
C3 C 0.1222(2) 1.0430(8) 0.5950(2)
C4 C 0.1429(2) 0.8607(10) 0.6693(3)
C5 C 0.0904(4) 0.5016(12) 0.7696(3)
H2 H 0.1483 0.4901 0.7906
C6 C 0.0201(6) 0.3367(18) 0.8024(5)
H3 H 0.0312 0.2157 0.8461
C7 C -0.0646(5) 0.3523(16) 0.7707(5)
H4 H -0.1101 0.2384 0.7926
C8 C -0.0837(3) 0.5286(13) 0.7084(3)
H5 H -0.1420 0.5374 0.6883
C9 C -0.0160(3) 0.6978(11) 0.6741(4)
C10 C 0.0716(3) 0.6826(10) 0.7051(3)
C11 C 0.2130(3) 1.3619(11) 0.4998(4)
H6 H 0.2647 1.4855 0.5103
H7 H 0.1613 1.4862 0.4905
C12 C 0.2306(4) 1.1808(18) 0.4262(4)
H8 H 0.2825 1.0605 0.4351
H9 H 0.2413 1.3062 0.3811
H10 H 0.1792 1.0602 0.4155
loop_
_geom_bond_atom_site_label_1
_geom_bond_atom_site_label_2
_geom_bond_site_symmetry_1
_geom_bond_site_symmetry_2
Br1 C2 1_555 1_555
O1 C1 1_555 1_555
O2 C4 1_555 1_555
N1 H1 1_555 1_555
C1 C2 1_555 1_555
C2 C3 1_555 1_555
C3 N1 1_555 1_555
C4 C3 1_555 1_555
C5 H2 1_555 1_555
C6 C5 1_555 1_555
H3 C6 1_555 1_555
C7 C6 1_555 1_555
H4 C7 1_555 1_555
C8 C7 1_555 1_555
H5 C8 1_555 1_555
C9 C1 1_555 1_555
C10 C4 1_555 1_555
C11 N1 1_555 1_555
H6 C11 1_555 1_555
H7 C11 1_555 1_555
C12 C11 1_555 1_555
H8 C12 1_555 1_555
H9 C12 1_555 1_555
H10 C12 1_555 1_555
C5 C10 1_555 1_555
C8 C9 1_555 1_555
C9 C10 1_555 1_555

#END
