
#######################################################################
#
#                 Cambridge Crystallographic Data Centre
#                                CCDC 
#
#######################################################################
#
# If this CIF has been generated from an entry in the Cambridge 
# Structural Database, then it will include bibliographic, chemical, 
# crystal, experimental, refinement or atomic coordinate data resulting 
# from the CCDC's data processing and validation procedures.
#
#######################################################################

data_SIYYOP
_chemical_formula_moiety         'C19 H16 O2 S2'
_chemical_name_systematic        3-Phenyl-1,5-bis(2-thienyl)pentane-1,5-dione
_symmetry_cell_setting           orthorhombic
_symmetry_space_group_name_H-M   'P n a 21'
_symmetry_Int_Tables_number      33
_space_group_name_Hall           'P 2c -2n'
loop_
_symmetry_equiv_pos_site_id
_symmetry_equiv_pos_as_xyz
1 x,y,z
2 -x,-y,1/2+z
3 1/2+x,1/2-y,z
4 1/2-x,1/2+y,1/2+z
_cell_length_a                   27.912(3)
_cell_length_b                   5.8607(8)
_cell_length_c                   20.841(2)
_cell_angle_alpha                90
_cell_angle_beta                 90
_cell_angle_gamma                90
_cell_volume                     3409.25
_exptl_crystal_colour            yellow
_exptl_crystal_description       block
_cell_formula_units_Z            8
_exptl_crystal_recrystallization_method ethanol
loop_
_atom_site_label
_atom_site_type_symbol
_atom_site_fract_x
_atom_site_fract_y
_atom_site_fract_z
O1 O 0.4895(3) 0.4760(15) -0.0653(3)
O2 O 0.5431(3) 0.5207(16) 0.1105(5)
S1 S 0.49589(12) 0.5733(5) -0.20432(17)
S2 S 0.62799(13) 0.6688(7) 0.18264(19)
C1 C 0.4854(4) 0.772(2) -0.2610(6)
H1 H 0.4894 0.7482 -0.3048
C2 C 0.4704(4) 0.969(2) -0.2348(6)
H2 H 0.4640 1.1001 -0.2585
C3 C 0.4655(4) 0.957(2) -0.1689(6)
H3 H 0.4550 1.0777 -0.1436
C4 C 0.4779(3) 0.747(2) -0.1452(6)
C5 C 0.4773(4) 0.676(2) -0.0809(6)
C6 C 0.4575(4) 0.8254(19) -0.0275(5)
H4 H 0.4648 0.9830 -0.0378
H5 H 0.4229 0.8103 -0.0276
C7 C 0.4748(4) 0.7802(17) 0.0391(5)
H6 H 0.4733 0.6147 0.0455
C8 C 0.5276(3) 0.8490(17) 0.0456(5)
H7 H 0.5434 0.8245 0.0047
H8 H 0.5293 1.0107 0.0552
C9 C 0.5549(4) 0.718(2) 0.0976(6)
C10 C 0.5955(4) 0.820(2) 0.1275(5)
C11 C 0.6126(4) 1.045(2) 0.1228(6)
H9 H 0.5995 1.1584 0.0970
C12 C 0.6526(5) 1.072(2) 0.1631(7)
H10 H 0.6699 1.2077 0.1654
C13 C 0.6638(4) 0.890(2) 0.1975(6)
H11 H 0.6890 0.8860 0.2268
C14 C 0.4456(3) 0.8857(19) 0.0911(6)
C15 C 0.4379(4) 0.782(2) 0.1486(7)
H12 H 0.4512 0.6389 0.1559
C16 C 0.4109(4) 0.883(3) 0.1972(7)
H13 H 0.4060 0.8063 0.2356
C17 C 0.3914(5) 1.096(3) 0.1884(7)
H14 H 0.3740 1.1666 0.2210
C18 C 0.3979(4) 1.200(2) 0.1324(8)
H15 H 0.3832 1.3399 0.1258
C19 C 0.4253(4) 1.1110(19) 0.0834(6)
H16 H 0.4307 1.1945 0.0462
O3 O 0.2607(3) 1.1103(14) 0.1107(3)
O4 O 0.2020(3) 0.8734(18) -0.0734(4)
S3 S 0.25330(11) 1.0432(5) 0.24992(17)
S4 S 0.11681(15) 0.6173(10) -0.1171(2)
C20 C 0.2648(4) 0.857(3) 0.3085(5)
H17 H 0.2570 0.8801 0.3514
C21 C 0.2870(4) 0.667(2) 0.2862(7)
H18 H 0.2972 0.5507 0.3135
C22 C 0.2936(3) 0.6553(17) 0.2214(4)
H19 H 0.3067 0.5334 0.1988
C23 C 0.2767(3) 0.8648(17) 0.1944(5)
C24 C 0.2767(3) 0.925(2) 0.1271(6)
C25 C 0.2983(4) 0.7695(18) 0.0785(5)
H20 H 0.3320 0.8066 0.0746
H21 H 0.2961 0.6145 0.0946
C26 C 0.2767(3) 0.7758(17) 0.0135(5)
H22 H 0.2717 0.9366 0.0024
C27 C 0.2264(4) 0.6603(19) 0.0151(5)
H23 H 0.2310 0.4973 0.0203
H24 H 0.2095 0.7148 0.0527
C28 C 0.1956(5) 0.698(3) -0.0415(7)
C29 C 0.1564(5) 0.554(4) -0.0595(8)
C30 C 0.1481(6) 0.341(4) -0.0319(8)
H25 H 0.1666 0.2724 0.0000
C31 C 0.1071(6) 0.247(3) -0.0608(8)
H26 H 0.0953 0.1058 -0.0480
C32 C 0.0852(6) 0.368(3) -0.1074(9)
H27 H 0.0581 0.3241 -0.1302
C33 C 0.3080(3) 0.6706(19) -0.0394(5)
C34 C 0.3164(4) 0.7746(18) -0.0964(6)
H28 H 0.3017 0.9139 -0.1048
C35 C 0.3456(5) 0.683(3) -0.1420(6)
H29 H 0.3525 0.7628 -0.1793
C36 C 0.3646(4) 0.470(3) -0.1320(7)
H30 H 0.3828 0.4010 -0.1638
C37 C 0.3570(4) 0.364(2) -0.0771(7)
H31 H 0.3719 0.2247 -0.0703
C38 C 0.3279(4) 0.4499(18) -0.0293(5)
H32 H 0.3216 0.3671 0.0078
loop_
_geom_bond_atom_site_label_1
_geom_bond_atom_site_label_2
_geom_bond_site_symmetry_1
_geom_bond_site_symmetry_2
O1 C5 1_555 1_555
O2 C9 1_555 1_555
O3 C24 1_555 1_555
O4 C28 1_555 1_555
S1 C1 1_555 1_555
S2 C10 1_555 1_555
S3 C20 1_555 1_555
S4 C29 1_555 1_555
C1 H1 1_555 1_555
C2 C1 1_555 1_555
H2 C2 1_555 1_555
C3 C2 1_555 1_555
H3 C3 1_555 1_555
C4 S1 1_555 1_555
C5 C4 1_555 1_555
C6 C5 1_555 1_555
H4 C6 1_555 1_555
H5 C6 1_555 1_555
C7 C6 1_555 1_555
H6 C7 1_555 1_555
C8 C7 1_555 1_555
H7 C8 1_555 1_555
H8 C8 1_555 1_555
C9 C8 1_555 1_555
C10 C9 1_555 1_555
C11 C10 1_555 1_555
H9 C11 1_555 1_555
C12 C11 1_555 1_555
H10 C12 1_555 1_555
C13 S2 1_555 1_555
H11 C13 1_555 1_555
C14 C7 1_555 1_555
C15 C14 1_555 1_555
H12 C15 1_555 1_555
C16 C15 1_555 1_555
H13 C16 1_555 1_555
C17 C16 1_555 1_555
H14 C17 1_555 1_555
C18 C17 1_555 1_555
H15 C18 1_555 1_555
C19 C14 1_555 1_555
H16 C19 1_555 1_555
C20 H17 1_555 1_555
C21 C20 1_555 1_555
H18 C21 1_555 1_555
C22 C21 1_555 1_555
H19 C22 1_555 1_555
C23 S3 1_555 1_555
C24 C23 1_555 1_555
C25 C24 1_555 1_555
H20 C25 1_555 1_555
H21 C25 1_555 1_555
C26 C25 1_555 1_555
H22 C26 1_555 1_555
C27 C26 1_555 1_555
H23 C27 1_555 1_555
H24 C27 1_555 1_555
C28 C27 1_555 1_555
C29 C28 1_555 1_555
C30 C29 1_555 1_555
H25 C30 1_555 1_555
C31 C30 1_555 1_555
H26 C31 1_555 1_555
C32 S4 1_555 1_555
H27 C32 1_555 1_555
C33 C26 1_555 1_555
C34 C33 1_555 1_555
H28 C34 1_555 1_555
C35 C34 1_555 1_555
H29 C35 1_555 1_555
C36 C35 1_555 1_555
H30 C36 1_555 1_555
C37 C36 1_555 1_555
H31 C37 1_555 1_555
C38 C33 1_555 1_555
H32 C38 1_555 1_555
C3 C4 1_555 1_555
C12 C13 1_555 1_555
C18 C19 1_555 1_555
C22 C23 1_555 1_555
C31 C32 1_555 1_555
C37 C38 1_555 1_555

#END
