
#######################################################################
#
#                 Cambridge Crystallographic Data Centre
#                                CCDC 
#
#######################################################################
#
# If this CIF has been generated from an entry in the Cambridge 
# Structural Database, then it will include bibliographic, chemical, 
# crystal, experimental, refinement or atomic coordinate data resulting 
# from the CCDC's data processing and validation procedures.
#
#######################################################################

data_SIZBIP
_chemical_formula_moiety         'C21 H24 Cl2 N2 O1'
_chemical_name_systematic        
1-(3,6-dichloro-9H-carbazol-9-yl)-3-(4-methylpiperidin-1-yl)propan-2-ol
_symmetry_cell_setting           monoclinic
_symmetry_space_group_name_H-M   'P 21/c'
_symmetry_Int_Tables_number      14
_space_group_name_Hall           '-P 2ybc'
loop_
_symmetry_equiv_pos_site_id
_symmetry_equiv_pos_as_xyz
1 x,y,z
2 -x,1/2+y,1/2-z
3 -x,-y,-z
4 x,1/2-y,1/2+z
_cell_length_a                   14.9914(18)
_cell_length_b                   14.0605(17)
_cell_length_c                   9.5566(12)
_cell_angle_alpha                90
_cell_angle_beta                 106.976(2)
_cell_angle_gamma                90
_cell_volume                     1926.63
_exptl_crystal_colour            colorless
_exptl_crystal_description       block
_cell_formula_units_Z            4
loop_
_atom_site_label
_atom_site_type_symbol
_atom_site_fract_x
_atom_site_fract_y
_atom_site_fract_z
C1 C 0.99987(15) -0.08719(14) 0.7459(3)
H1 H 1.0153 -0.1201 0.8378
H2 H 1.0549 -0.0805 0.7146
H3 H 0.9537 -0.1227 0.6741
C2 C 0.96156(12) 0.01044(13) 0.7634(2)
H4 H 1.0107 0.0461 0.8341
C3 C 0.93366(13) 0.06635(14) 0.6208(2)
H5 H 0.9881 0.0759 0.5873
H6 H 0.8886 0.0298 0.5469
C4 C 0.89176(13) 0.16242(14) 0.6389(2)
H7 H 0.9376 0.2001 0.7099
H8 H 0.8754 0.1961 0.5463
C5 C 0.83465(14) 0.10317(15) 0.8299(2)
H9 H 0.7796 0.0963 0.8627
H10 H 0.8792 0.1420 0.9009
C6 C 0.87696(13) 0.00535(14) 0.8224(2)
H11 H 0.8300 -0.0357 0.7596
H12 H 0.8958 -0.0225 0.9194
C7 C 0.76324(13) 0.24283(13) 0.6919(2)
H13 H 0.7671 0.2819 0.6102
H14 H 0.7948 0.2760 0.7817
C8 C 0.66141(13) 0.22728(13) 0.6840(2)
H15 H 0.6586 0.1897 0.7690
C9 C 0.60863(13) 0.31892(13) 0.6822(2)
H16 H 0.5450 0.3032 0.6786
H17 H 0.6363 0.3519 0.7737
C10 C 0.53788(11) 0.38500(12) 0.42864(18)
C11 C 0.46386(11) 0.32196(12) 0.37441(19)
H18 H 0.4554 0.2697 0.4287
C12 C 0.40367(11) 0.34013(12) 0.23705(19)
H19 H 0.3531 0.3001 0.1983
C13 C 0.41843(11) 0.41847(12) 0.15576(18)
C14 C 0.49172(11) 0.48084(12) 0.20622(18)
H20 H 0.5003 0.5321 0.1500
C15 C 0.55266(11) 0.46365(11) 0.34559(18)
C16 C 0.63365(11) 0.51274(12) 0.43563(18)
C17 C 0.66309(11) 0.46214(12) 0.56930(19)
C18 C 0.73914(12) 0.49251(13) 0.6836(2)
H21 H 0.7579 0.4593 0.7715
C19 C 0.78577(12) 0.57362(13) 0.6621(2)
H22 H 0.8361 0.5960 0.7369
C20 C 0.75780(12) 0.62215(13) 0.5287(2)
C21 C 0.68220(11) 0.59382(12) 0.4145(2)
H23 H 0.6643 0.6274 0.3269
Cl1 Cl 0.33784(3) 0.43822(3) -0.01520(5)
Cl2 Cl 0.82243(3) 0.72105(3) 0.50530(7)
N1 N 0.80914(10) 0.15110(11) 0.68748(18)
N2 N 0.60575(10) 0.38416(10) 0.56287(15)
O1 O 0.61744(10) 0.17500(10) 0.55434(15)
H24 H 0.6500 0.1292 0.5482
loop_
_geom_bond_atom_site_label_1
_geom_bond_atom_site_label_2
_geom_bond_site_symmetry_1
_geom_bond_site_symmetry_2
C1 H1 1_555 1_555
H2 C1 1_555 1_555
H3 C1 1_555 1_555
C2 C1 1_555 1_555
H4 C2 1_555 1_555
C3 C2 1_555 1_555
H5 C3 1_555 1_555
H6 C3 1_555 1_555
C4 C3 1_555 1_555
H7 C4 1_555 1_555
H8 C4 1_555 1_555
C5 H9 1_555 1_555
H10 C5 1_555 1_555
C6 C2 1_555 1_555
H11 C6 1_555 1_555
H12 C6 1_555 1_555
C7 H13 1_555 1_555
H14 C7 1_555 1_555
C8 C7 1_555 1_555
H15 C8 1_555 1_555
C9 C8 1_555 1_555
H16 C9 1_555 1_555
H17 C9 1_555 1_555
C10 C11 1_555 1_555
C11 H18 1_555 1_555
C12 C11 1_555 1_555
H19 C12 1_555 1_555
C13 C12 1_555 1_555
C14 C13 1_555 1_555
H20 C14 1_555 1_555
C15 C10 1_555 1_555
C16 C15 1_555 1_555
C17 C16 1_555 1_555
C18 C17 1_555 1_555
H21 C18 1_555 1_555
C19 C18 1_555 1_555
H22 C19 1_555 1_555
C20 C19 1_555 1_555
C21 C16 1_555 1_555
H23 C21 1_555 1_555
Cl1 C13 1_555 1_555
Cl2 C20 1_555 1_555
N1 C4 1_555 1_555
N2 C9 1_555 1_555
O1 C8 1_555 1_555
H24 O1 1_555 1_555
C5 C6 1_555 1_555
C5 N1 1_555 1_555
C7 N1 1_555 1_555
C10 N2 1_555 1_555
C14 C15 1_555 1_555
C17 N2 1_555 1_555
C20 C21 1_555 1_555

#END
