
#######################################################################
#
#                 Cambridge Crystallographic Data Centre
#                                CCDC 
#
#######################################################################
#
# If this CIF has been generated from an entry in the Cambridge 
# Structural Database, then it will include bibliographic, chemical, 
# crystal, experimental, refinement or atomic coordinate data resulting 
# from the CCDC's data processing and validation procedures.
#
#######################################################################

data_SIZCIQ
_chemical_formula_moiety         'C18 H11 N1 O2'
_chemical_name_systematic        
2-[(quinolin-2-yl)methylidene]-1-benzofuran-3(2H)-one
_symmetry_cell_setting           monoclinic
_symmetry_space_group_name_H-M   'P 21/c'
_symmetry_Int_Tables_number      14
_space_group_name_Hall           '-P 2ybc'
loop_
_symmetry_equiv_pos_site_id
_symmetry_equiv_pos_as_xyz
1 x,y,z
2 -x,1/2+y,1/2-z
3 -x,-y,-z
4 x,1/2-y,1/2+z
_cell_length_a                   20.0319(11)
_cell_length_b                   5.2142(3)
_cell_length_c                   12.3896(7)
_cell_angle_alpha                90
_cell_angle_beta                 92.388(3)
_cell_angle_gamma                90
_cell_volume                     1292.97
_exptl_crystal_colour            colorless
_cell_formula_units_Z            4
loop_
_atom_site_label
_atom_site_type_symbol
_atom_site_fract_x
_atom_site_fract_y
_atom_site_fract_z
O1 O 0.31041(5) 0.36891(18) 0.76668(8)
O2 O 0.35871(5) 0.2658(2) 1.03964(8)
N1 N 0.18177(6) -0.2756(2) 0.82996(9)
C1 C 0.42726(7) 0.9004(3) 0.74370(12)
H1 H 0.4414 1.0266 0.6943
C2 C 0.37846(7) 0.7271(3) 0.71010(12)
H2 H 0.3592 0.7290 0.6387
C3 C 0.35932(6) 0.5517(3) 0.78580(11)
C4 C 0.30381(7) 0.2352(3) 0.86215(11)
C5 C 0.26246(7) 0.0378(3) 0.87328(11)
H3 H 0.2608 -0.0300 0.9443
C6 C 0.21934(7) -0.0892(3) 0.79184(11)
C7 C 0.21969(7) -0.0259(3) 0.68018(11)
H4 H 0.2476 0.1075 0.6557
C8 C 0.17947(7) -0.1591(3) 0.60903(11)
H5 H 0.1791 -0.1190 0.5342
C9 C 0.13833(7) -0.3563(3) 0.64619(12)
C10 C 0.09480(7) -0.5036(3) 0.57788(12)
H6 H 0.0918 -0.4685 0.5026
C11 C 0.05722(7) -0.6954(3) 0.61912(13)
H7 H 0.0282 -0.7929 0.5724
C12 C 0.45639(7) 0.8957(3) 0.84810(12)
H8 H 0.4904 1.0157 0.8679
C13 C 0.43614(7) 0.7182(3) 0.92272(12)
H9 H 0.4557 0.7145 0.9939
C14 C 0.38623(7) 0.5446(3) 0.89073(11)
C15 C 0.35165(7) 0.3409(3) 0.94651(11)
C16 C 0.14143(7) -0.4099(3) 0.75869(12)
C17 C 0.06110(7) -0.7496(3) 0.73028(14)
H10 H 0.0350 -0.8845 0.7581
C18 C 0.10216(7) -0.6097(3) 0.79892(12)
H11 H 0.1042 -0.6475 0.8740
loop_
_geom_bond_atom_site_label_1
_geom_bond_atom_site_label_2
_geom_bond_site_symmetry_1
_geom_bond_site_symmetry_2
O1 C3 1_555 1_555
O2 C15 1_555 1_555
N1 C6 1_555 1_555
C1 H1 1_555 1_555
C2 C1 1_555 1_555
H2 C2 1_555 1_555
C3 C2 1_555 1_555
C4 O1 1_555 1_555
C5 C4 1_555 1_555
H3 C5 1_555 1_555
C6 C5 1_555 1_555
C7 C6 1_555 1_555
H4 C7 1_555 1_555
C8 C7 1_555 1_555
H5 C8 1_555 1_555
C9 C8 1_555 1_555
C10 C9 1_555 1_555
H6 C10 1_555 1_555
C11 C10 1_555 1_555
H7 C11 1_555 1_555
C12 C1 1_555 1_555
H8 C12 1_555 1_555
C13 C12 1_555 1_555
H9 C13 1_555 1_555
C14 C3 1_555 1_555
C15 C4 1_555 1_555
C16 N1 1_555 1_555
C17 C11 1_555 1_555
H10 C17 1_555 1_555
C18 C16 1_555 1_555
H11 C18 1_555 1_555
C9 C16 1_555 1_555
C13 C14 1_555 1_555
C14 C15 1_555 1_555
C17 C18 1_555 1_555

#END
