
#######################################################################
#
#                 Cambridge Crystallographic Data Centre
#                                CCDC 
#
#######################################################################
#
# If this CIF has been generated from an entry in the Cambridge 
# Structural Database, then it will include bibliographic, chemical, 
# crystal, experimental, refinement or atomic coordinate data resulting 
# from the CCDC's data processing and validation procedures.
#
#######################################################################

data_SIZDEN
_chemical_formula_moiety         'C25 H18 Br1 N1 O4 S1'
_chemical_name_systematic        
2-[(6-bromopyridin-2-yl)methyl]-2-[(4-methylphenyl)sulfonyl]naphtho[1,2-b]furan-3(2H)-one
_symmetry_cell_setting           orthorhombic
_symmetry_space_group_name_H-M   'P c a 21'
_symmetry_Int_Tables_number      29
_space_group_name_Hall           'P 2c -2ac'
loop_
_symmetry_equiv_pos_site_id
_symmetry_equiv_pos_as_xyz
1 x,y,z
2 -x,-y,1/2+z
3 1/2-x,y,1/2+z
4 1/2+x,-y,z
_cell_length_a                   15.8917(6)
_cell_length_b                   12.4954(4)
_cell_length_c                   10.8866(3)
_cell_angle_alpha                90
_cell_angle_beta                 90
_cell_angle_gamma                90
_cell_volume                     2161.79
_exptl_crystal_colour            colorless
_cell_formula_units_Z            4
loop_
_atom_site_label
_atom_site_type_symbol
_atom_site_fract_x
_atom_site_fract_y
_atom_site_fract_z
Br1 Br 0.11865(2) 0.59366(2) 0.75003(4)
S1 S -0.02016(4) 0.12191(5) 1.02387(6)
O1 O 0.09117(12) 0.19460(15) 0.86807(18)
O2 O -0.04900(12) 0.15000(16) 1.14511(19)
O3 O -0.07931(12) 0.09573(14) 0.92886(19)
O4 O -0.07652(12) 0.36384(16) 0.95810(19)
N1 N 0.11845(14) 0.43559(19) 0.9256(2)
C1 C 0.1580(2) 0.1629(2) 0.4124(3)
H1 H 0.1807 0.1488 0.3333
C2 C 0.19212(19) 0.1104(2) 0.5163(3)
H2 H 0.2372 0.0611 0.5066
C3 C 0.16054(18) 0.1302(2) 0.6298(3)
H3 H 0.1829 0.0939 0.6992
C4 C 0.09431(19) 0.2050(2) 0.6451(3)
C5 C 0.05959(15) 0.23377(18) 0.7591(3)
C6 C 0.04028(17) 0.2369(2) 0.9652(3)
C7 C 0.05443(16) 0.0185(2) 1.0350(3)
C8 C 0.07687(18) -0.0386(2) 0.9302(3)
H4 H 0.0515 -0.0228 0.8534
C9 C 0.13660(18) -0.1187(2) 0.9394(3)
H5 H 0.1518 -0.1585 0.8684
C10 C 0.17471(18) -0.1416(2) 1.0514(3)
C11 C 0.2400(2) -0.2284(2) 1.0618(4)
H6 H 0.2792 -0.2110 1.1283
H7 H 0.2710 -0.2340 0.9842
H8 H 0.2123 -0.2968 1.0794
C12 C 0.0933(2) 0.2330(3) 0.4242(3)
H9 H 0.0705 0.2661 0.3531
C13 C 0.05913(18) 0.2576(2) 0.5410(3)
C14 C -0.00709(19) 0.3336(2) 0.5562(3)
H10 H -0.0292 0.3685 0.4857
C15 C -0.03948(18) 0.3575(2) 0.6686(3)
H11 H -0.0836 0.4084 0.6771
C16 C -0.00578(15) 0.3048(2) 0.7725(2)
C17 C -0.02385(17) 0.3138(2) 0.9028(3)
C18 C 0.09328(17) 0.2878(2) 1.0649(3)
H12 H 0.1268 0.2319 1.1066
H13 H 0.0559 0.3213 1.1267
C19 C 0.15196(17) 0.3721(2) 1.0125(3)
C20 C 0.16823(17) 0.5062(2) 0.8738(3)
C21 C 0.25218(18) 0.5211(2) 0.9024(3)
H14 H 0.2854 0.5731 0.8611
C22 C 0.28558(19) 0.4574(2) 0.9930(3)
H15 H 0.3428 0.4652 1.0166
C23 C 0.23456(19) 0.3813(2) 1.0498(3)
H16 H 0.2563 0.3368 1.1131
C24 C 0.09081(18) -0.0040(2) 1.1482(3)
H17 H 0.0750 0.0351 1.2194
C25 C 0.15053(19) -0.0846(2) 1.1553(3)
H18 H 0.1753 -0.1012 1.2324
loop_
_geom_bond_atom_site_label_1
_geom_bond_atom_site_label_2
_geom_bond_site_symmetry_1
_geom_bond_site_symmetry_2
Br1 C20 1_555 1_555
S1 O2 1_555 1_555
O1 C5 1_555 1_555
O3 S1 1_555 1_555
O4 C17 1_555 1_555
N1 C19 1_555 1_555
C1 H1 1_555 1_555
C2 C1 1_555 1_555
H2 C2 1_555 1_555
C3 C2 1_555 1_555
H3 C3 1_555 1_555
C4 C3 1_555 1_555
C5 C4 1_555 1_555
C6 S1 1_555 1_555
C7 S1 1_555 1_555
C8 C7 1_555 1_555
H4 C8 1_555 1_555
C9 C8 1_555 1_555
H5 C9 1_555 1_555
C10 C9 1_555 1_555
C11 C10 1_555 1_555
H6 C11 1_555 1_555
H7 C11 1_555 1_555
H8 C11 1_555 1_555
C12 C1 1_555 1_555
H9 C12 1_555 1_555
C13 C4 1_555 1_555
C14 C13 1_555 1_555
H10 C14 1_555 1_555
C15 C14 1_555 1_555
H11 C15 1_555 1_555
C16 C5 1_555 1_555
C17 C6 1_555 1_555
C18 C6 1_555 1_555
H12 C18 1_555 1_555
H13 C18 1_555 1_555
C19 C18 1_555 1_555
C20 N1 1_555 1_555
C21 C20 1_555 1_555
H14 C21 1_555 1_555
C22 C21 1_555 1_555
H15 C22 1_555 1_555
C23 C19 1_555 1_555
H16 C23 1_555 1_555
C24 C7 1_555 1_555
H17 C24 1_555 1_555
C25 C10 1_555 1_555
H18 C25 1_555 1_555
O1 C6 1_555 1_555
C12 C13 1_555 1_555
C15 C16 1_555 1_555
C16 C17 1_555 1_555
C22 C23 1_555 1_555
C24 C25 1_555 1_555

#END
