
#######################################################################
#
#                 Cambridge Crystallographic Data Centre
#                                CCDC 
#
#######################################################################
#
# If this CIF has been generated from an entry in the Cambridge 
# Structural Database, then it will include bibliographic, chemical, 
# crystal, experimental, refinement or atomic coordinate data resulting 
# from the CCDC's data processing and validation procedures.
#
#######################################################################

data_SIZFUE
_chemical_formula_moiety         'C25 H20 Br1 N1 O2'
_chemical_name_systematic        
"ethyl 3-(4-bromophenyl)-2'-phenylspiro[cyclopropane-1,3'-indole]-2-carboxylate"
_symmetry_cell_setting           monoclinic
_symmetry_space_group_name_H-M   'P 21/c'
_symmetry_Int_Tables_number      14
_space_group_name_Hall           '-P 2ybc'
loop_
_symmetry_equiv_pos_site_id
_symmetry_equiv_pos_as_xyz
1 x,y,z
2 -x,1/2+y,1/2-z
3 -x,-y,-z
4 x,1/2-y,1/2+z
_cell_length_a                   14.912(5)
_cell_length_b                   26.075(10)
_cell_length_c                   10.568(4)
_cell_angle_alpha                90
_cell_angle_beta                 99.297(7)
_cell_angle_gamma                90
_cell_volume                     4055.18
_exptl_crystal_colour            colorless
_exptl_crystal_description       prism
_cell_formula_units_Z            8
loop_
_atom_site_label
_atom_site_type_symbol
_atom_site_fract_x
_atom_site_fract_y
_atom_site_fract_z
Br1 Br 0.66169(6) 0.42801(3) -0.15323(8)
N1 N 0.6579(4) 0.5502(2) 0.6423(6)
O1 O 0.5270(4) 0.6743(2) 0.3054(6)
O2 O 0.6582(4) 0.6954(2) 0.4275(6)
C1 C 0.5907(5) 0.5690(3) 0.2882(7)
H1 H 0.5244 0.5754 0.2867
C2 C 0.6464(5) 0.5679(3) 0.4231(7)
C3 C 0.6493(5) 0.6138(3) 0.3324(7)
H2 H 0.7060 0.6168 0.2938
C4 C 0.7309(5) 0.5372(3) 0.4642(8)
C5 C 0.7986(5) 0.5195(3) 0.4008(8)
H3 H 0.7955 0.5243 0.3111
C6 C 0.8717(5) 0.4943(3) 0.4734(8)
H4 H 0.9199 0.4822 0.4327
C7 C 0.8754(6) 0.4867(3) 0.6023(9)
H5 H 0.9252 0.4683 0.6483
C8 C 0.8083(5) 0.5052(3) 0.6681(8)
H6 H 0.8129 0.5014 0.7583
C9 C 0.7353(5) 0.5291(3) 0.5964(8)
C10 C 0.6069(5) 0.5714(3) 0.5430(7)
C11 C 0.5204(5) 0.5966(3) 0.5615(7)
C12 C 0.5196(5) 0.6357(3) 0.6488(8)
H7 H 0.5753 0.6464 0.6987
C13 C 0.4399(6) 0.6598(3) 0.6657(8)
H8 H 0.4409 0.6881 0.7226
C14 C 0.3578(6) 0.6418(3) 0.5978(8)
H9 H 0.3023 0.6571 0.6113
C15 C 0.3567(5) 0.6022(3) 0.5114(8)
H10 H 0.3008 0.5904 0.4646
C16 C 0.4373(5) 0.5798(3) 0.4936(7)
H11 H 0.4365 0.5524 0.4341
C17 C 0.6106(5) 0.5336(3) 0.1842(8)
C18 C 0.6165(5) 0.5544(3) 0.0643(7)
H12 H 0.6114 0.5904 0.0515
C19 C 0.6300(6) 0.5222(3) -0.0384(8)
H13 H 0.6318 0.5358 -0.1213
C20 C 0.6402(5) 0.4718(3) -0.0155(7)
C21 C 0.6333(5) 0.4495(3) 0.1007(8)
H14 H 0.6386 0.4135 0.1134
C22 C 0.6177(5) 0.4831(3) 0.2005(8)
H15 H 0.6122 0.4690 0.2818
C23 C 0.6033(6) 0.6642(3) 0.3532(8)
C24 C 0.6207(8) 0.7454(4) 0.4448(10)
H16 H 0.6341 0.7685 0.3758
H17 H 0.5538 0.7425 0.4374
C25 C 0.6571(6) 0.7673(3) 0.5675(9)
H18 H 0.6486 0.7433 0.6358
H19 H 0.6253 0.7995 0.5791
H20 H 0.7220 0.7742 0.5711
Br2 Br 0.40625(6) 0.80172(3) 0.51640(8)
N2 N -0.1283(4) 0.6523(3) 0.2492(6)
O3 O 0.0464(4) 0.6395(2) -0.0834(5)
O4 O 0.0872(4) 0.5649(2) 0.0144(5)
C26 C 0.0937(5) 0.6943(3) 0.1597(7)
H21 H 0.0711 0.7133 0.0786
C27 C 0.0206(5) 0.6646(3) 0.2138(7)
C28 C 0.0935(5) 0.6379(3) 0.1455(8)
H22 H 0.1426 0.6198 0.2043
C29 C 0.0234(5) 0.6543(3) 0.3531(7)
C30 C 0.0923(6) 0.6510(3) 0.4587(8)
H23 H 0.1542 0.6550 0.4492
C31 C 0.0684(6) 0.6420(3) 0.5772(8)
H24 H 0.1149 0.6398 0.6499
C32 C -0.0215(6) 0.6358(3) 0.5939(8)
H25 H -0.0359 0.6301 0.6771
C33 C -0.0901(6) 0.6379(3) 0.4889(8)
H26 H -0.1517 0.6326 0.4985
C34 C -0.0673(5) 0.6479(3) 0.3691(8)
C35 C -0.0791(5) 0.6633(3) 0.1634(8)
C36 C -0.1235(5) 0.6700(3) 0.0279(7)
C37 C -0.1056(5) 0.7117(3) -0.0464(8)
H27 H -0.0654 0.7381 -0.0106
C38 C -0.1469(6) 0.7144(3) -0.1722(9)
H28 H -0.1354 0.7432 -0.2222
C39 C -0.2044(6) 0.6765(3) -0.2279(9)
H29 H -0.2312 0.6787 -0.3156
C40 C -0.2225(6) 0.6347(3) -0.1530(9)
H30 H -0.2613 0.6080 -0.1904
C41 C -0.1844(5) 0.6320(3) -0.0247(8)
H31 H -0.1996 0.6046 0.0271
C42 C 0.1683(5) 0.7210(3) 0.2469(7)
C43 C 0.1524(5) 0.7645(3) 0.3158(7)
H32 H 0.0923 0.7776 0.3082
C44 C 0.2219(5) 0.7892(3) 0.3952(8)
H33 H 0.2101 0.8188 0.4425
C45 C 0.3098(5) 0.7696(3) 0.4039(8)
C46 C 0.3278(5) 0.7272(3) 0.3339(8)
H34 H 0.3881 0.7146 0.3395
C47 C 0.2576(5) 0.7038(3) 0.2564(7)
H35 H 0.2700 0.6748 0.2075
C48 C 0.0715(5) 0.6150(3) 0.0128(8)
C49 C 0.0727(6) 0.5398(3) -0.1115(8)
H36 H 0.0072 0.5392 -0.1473
H37 H 0.1052 0.5587 -0.1716
C50 C 0.1074(6) 0.4882(3) -0.0938(9)
H38 H 0.1733 0.4893 -0.0651
H39 H 0.0944 0.4695 -0.1752
H40 H 0.0782 0.4707 -0.0291
loop_
_geom_bond_atom_site_label_1
_geom_bond_atom_site_label_2
_geom_bond_site_symmetry_1
_geom_bond_site_symmetry_2
Br1 C20 1_555 1_555
N1 C9 1_555 1_555
O1 C23 1_555 1_555
O2 C23 1_555 1_555
C1 H1 1_555 1_555
C2 C1 1_555 1_555
C3 C1 1_555 1_555
H2 C3 1_555 1_555
C4 C2 1_555 1_555
C5 C4 1_555 1_555
H3 C5 1_555 1_555
C6 C5 1_555 1_555
H4 C6 1_555 1_555
C7 C6 1_555 1_555
H5 C7 1_555 1_555
C8 C7 1_555 1_555
H6 C8 1_555 1_555
C9 C4 1_555 1_555
C10 N1 1_555 1_555
C11 C10 1_555 1_555
C12 C11 1_555 1_555
H7 C12 1_555 1_555
C13 C12 1_555 1_555
H8 C13 1_555 1_555
C14 C13 1_555 1_555
H9 C14 1_555 1_555
C15 C14 1_555 1_555
H10 C15 1_555 1_555
C16 C11 1_555 1_555
H11 C16 1_555 1_555
C17 C1 1_555 1_555
C18 C17 1_555 1_555
H12 C18 1_555 1_555
C19 C18 1_555 1_555
H13 C19 1_555 1_555
C20 C19 1_555 1_555
C21 C20 1_555 1_555
H14 C21 1_555 1_555
C22 C17 1_555 1_555
H15 C22 1_555 1_555
C23 C3 1_555 1_555
C24 O2 1_555 1_555
H16 C24 1_555 1_555
H17 C24 1_555 1_555
C25 C24 1_555 1_555
H18 C25 1_555 1_555
H19 C25 1_555 1_555
H20 C25 1_555 1_555
Br2 C45 1_555 1_555
N2 C34 1_555 1_555
O3 C48 1_555 1_555
O4 C48 1_555 1_555
C26 H21 1_555 1_555
C27 C26 1_555 1_555
C28 C26 1_555 1_555
H22 C28 1_555 1_555
C29 C27 1_555 1_555
C30 C29 1_555 1_555
H23 C30 1_555 1_555
C31 C30 1_555 1_555
H24 C31 1_555 1_555
C32 C31 1_555 1_555
H25 C32 1_555 1_555
C33 C32 1_555 1_555
H26 C33 1_555 1_555
C34 C29 1_555 1_555
C35 N2 1_555 1_555
C36 C35 1_555 1_555
C37 C36 1_555 1_555
H27 C37 1_555 1_555
C38 C37 1_555 1_555
H28 C38 1_555 1_555
C39 C38 1_555 1_555
H29 C39 1_555 1_555
C40 C39 1_555 1_555
H30 C40 1_555 1_555
C41 C36 1_555 1_555
H31 C41 1_555 1_555
C42 C26 1_555 1_555
C43 C42 1_555 1_555
H32 C43 1_555 1_555
C44 C43 1_555 1_555
H33 C44 1_555 1_555
C45 C44 1_555 1_555
C46 C45 1_555 1_555
H34 C46 1_555 1_555
C47 C42 1_555 1_555
H35 C47 1_555 1_555
C48 C28 1_555 1_555
C49 O4 1_555 1_555
H36 C49 1_555 1_555
H37 C49 1_555 1_555
C50 C49 1_555 1_555
H38 C50 1_555 1_555
H39 C50 1_555 1_555
H40 C50 1_555 1_555
C2 C3 1_555 1_555
C2 C10 1_555 1_555
C8 C9 1_555 1_555
C15 C16 1_555 1_555
C21 C22 1_555 1_555
C27 C28 1_555 1_555
C27 C35 1_555 1_555
C33 C34 1_555 1_555
C40 C41 1_555 1_555
C46 C47 1_555 1_555

#END
