
#######################################################################
#
#                 Cambridge Crystallographic Data Centre
#                                CCDC 
#
#######################################################################
#
# If this CIF has been generated from an entry in the Cambridge 
# Structural Database, then it will include bibliographic, chemical, 
# crystal, experimental, refinement or atomic coordinate data resulting 
# from the CCDC's data processing and validation procedures.
#
#######################################################################

data_SIZHIV
_chemical_formula_moiety         'C13 H10 I1 N1 O1 S1'
_chemical_name_systematic        
9-iodo-5-methyl-5\l^6^-dibenzo[c,e][1,2]thiazin-5-one
_symmetry_cell_setting           monoclinic
_symmetry_space_group_name_H-M   'P 21/c'
_symmetry_Int_Tables_number      14
_space_group_name_Hall           '-P 2ybc'
loop_
_symmetry_equiv_pos_site_id
_symmetry_equiv_pos_as_xyz
1 x,y,z
2 -x,1/2+y,1/2-z
3 -x,-y,-z
4 x,1/2-y,1/2+z
_cell_length_a                   5.07560(10)
_cell_length_b                   16.2147(3)
_cell_length_c                   15.4288(2)
_cell_angle_alpha                90
_cell_angle_beta                 96.518(2)
_cell_angle_gamma                90
_cell_volume                     1261.57
_exptl_crystal_colour            yellow
_exptl_crystal_description       block
_cell_formula_units_Z            4
loop_
_atom_site_label
_atom_site_type_symbol
_atom_site_fract_x
_atom_site_fract_y
_atom_site_fract_z
I1 I 0.14157(8) 0.47957(2) 0.32797(2)
S1 S 0.9280(2) 0.14044(7) 0.51720(6)
O1 O 0.7552(6) 0.0693(2) 0.5115(2)
N1 N 0.8291(8) 0.2206(3) 0.5554(2)
C1 C 1.0127(8) 0.1629(3) 0.4130(3)
C2 C 1.1969(9) 0.1131(3) 0.3765(3)
H1 H 1.285494 0.071181 0.409027
C3 C 1.2446(10) 0.1275(3) 0.2915(3)
H2 H 1.369785 0.096299 0.266430
C4 C 1.1026(10) 0.1893(3) 0.2436(3)
H3 H 1.130414 0.197773 0.185740
C5 C 0.9226(10) 0.2380(3) 0.2802(3)
H4 H 0.831599 0.278803 0.246559
C6 C 0.8734(8) 0.2273(3) 0.3674(2)
C7 C 0.6897(8) 0.2808(3) 0.4092(3)
C8 C 0.5316(9) 0.3391(3) 0.3616(3)
H5 H 0.534531 0.342538 0.301580
C9 C 0.3699(10) 0.3921(3) 0.4024(3)
C10 C 0.3657(11) 0.3885(3) 0.4920(3)
H6 H 0.259717 0.424627 0.519505
C11 C 0.5193(11) 0.3311(3) 0.5398(3)
H7 H 0.516727 0.328972 0.599946
C12 C 0.6785(9) 0.2762(3) 0.5001(3)
C13 C 1.2162(10) 0.1157(4) 0.5860(3)
H8 H 1.174562 0.111165 0.644994
H9 H 1.346116 0.158234 0.582604
H10 H 1.285574 0.064118 0.568128
loop_
_geom_bond_atom_site_label_1
_geom_bond_atom_site_label_2
_geom_bond_site_symmetry_1
_geom_bond_site_symmetry_2
I1 C9 1_555 1_555
S1 O1 1_555 1_555
N1 S1 1_555 1_555
C1 S1 1_555 1_555
C2 C1 1_555 1_555
H1 C2 1_555 1_555
C3 C2 1_555 1_555
H2 C3 1_555 1_555
C4 C3 1_555 1_555
H3 C4 1_555 1_555
C5 C4 1_555 1_555
H4 C5 1_555 1_555
C6 C1 1_555 1_555
C7 C6 1_555 1_555
C8 C7 1_555 1_555
H5 C8 1_555 1_555
C9 C8 1_555 1_555
C10 C9 1_555 1_555
H6 C10 1_555 1_555
C11 C10 1_555 1_555
H7 C11 1_555 1_555
C12 N1 1_555 1_555
C13 S1 1_555 1_555
H8 C13 1_555 1_555
H9 C13 1_555 1_555
H10 C13 1_555 1_555
C5 C6 1_555 1_555
C7 C12 1_555 1_555
C11 C12 1_555 1_555

#END
