
#######################################################################
#
#                 Cambridge Crystallographic Data Centre
#                                CCDC 
#
#######################################################################
#
# If this CIF has been generated from an entry in the Cambridge 
# Structural Database, then it will include bibliographic, chemical, 
# crystal, experimental, refinement or atomic coordinate data resulting 
# from the CCDC's data processing and validation procedures.
#
#######################################################################

data_SIZLEV
_chemical_formula_moiety         'C20 H19 N1 O3'
_chemical_name_systematic        
7-methyl-9b-phenyl-3-isopropyl[1,3]oxazolo[2,3-a]isoindole-2,5(3H,9bH)-dione
_symmetry_cell_setting           monoclinic
_symmetry_space_group_name_H-M   'C 2/c'
_symmetry_Int_Tables_number      15
_space_group_name_Hall           '-C 2yn'
loop_
_symmetry_equiv_pos_site_id
_symmetry_equiv_pos_as_xyz
1 x,y,z
2 -x,y,1/2-z
3 1/2+x,1/2+y,z
4 1/2-x,1/2+y,1/2-z
5 -x,-y,-z
6 x,-y,1/2+z
7 1/2-x,1/2-y,-z
8 1/2+x,1/2-y,1/2+z
_cell_length_a                   13.33980(10)
_cell_length_b                   9.98410(10)
_cell_length_c                   25.3045(2)
_cell_angle_alpha                90
_cell_angle_beta                 96.5550(10)
_cell_angle_gamma                90
_cell_volume                     3348.17
_exptl_crystal_description       block
_cell_formula_units_Z            8
loop_
_atom_site_label
_atom_site_type_symbol
_atom_site_fract_x
_atom_site_fract_y
_atom_site_fract_z
O1 O 2.62003(7) 2.69821(10) 2.59773(4)
O2 O 2.53403(7) 2.34619(11) 2.51745(4)
N1 N 2.60158(7) 2.47094(11) 2.58972(4)
O3 O 2.46328(10) 2.75628(13) 2.61086(6)
C1 C 2.69501(9) 2.46227(13) 2.51884(5)
C2 C 2.73774(10) 2.56192(13) 2.55193(5)
C3 C 2.74204(9) 2.56374(14) 2.65282(5)
C4 C 2.60123(9) 2.41554(12) 2.53910(5)
C5 C 2.67840(10) 2.57596(13) 2.59907(5)
C6 C 2.73756(10) 2.42237(14) 2.47376(5)
H1 H 2.7081 2.3549 2.4519
C7 C 2.82527(10) 2.48564(15) 2.46203(5)
C8 C 2.73837(11) 2.65822(17) 2.69250(6)
H2 H 2.6971 2.7330 2.6866
C9 C 2.86717(10) 2.58671(15) 2.49559(6)
H3 H 2.9254 2.6295 2.4874
C10 C 2.82491(10) 2.62551(15) 2.54079(5)
H4 H 2.8544 2.6924 2.5630
C11 C 2.50830(10) 2.51904(15) 2.60773(5)
H5 H 2.4513 2.4933 2.5818
C12 C 2.48937(11) 2.46814(16) 2.66329(5)
H6 H 2.5401 2.5082 2.6897
C13 C 2.52283(11) 2.66946(16) 2.60574(6)
C14 C 2.80514(12) 2.45451(17) 2.66220(6)
H7 H 2.8088 2.3908 2.6357
C15 C 2.79642(12) 2.6413(2) 2.74118(6)
H8 H 2.7932 2.7047 2.7679
C16 C 2.87521(12) 2.44572(19) 2.41402(6)
H9 H 2.8336 2.3817 2.3934
H10 H 2.9398 2.4065 2.4253
H11 H 2.8840 2.5235 2.3927
C17 C 2.85791(13) 2.5331(2) 2.75031(6)
H12 H 2.8964 2.5225 2.7831
C18 C 2.50075(15) 2.3176(2) 2.66625(7)
H13 H 2.5678 2.2932 2.6596
H14 H 2.4526 2.2767 2.6400
H15 H 2.4891 2.2872 2.7010
C19 C 2.86275(14) 2.4394(2) 2.71069(7)
H16 H 2.9051 2.3656 2.7167
C20 C 2.38563(16) 2.5108(3) 2.67617(9)
H17 H 2.3350 2.4742 2.6502
H18 H 2.3812 2.6068 2.6756
H19 H 2.3751 2.4785 2.7108
loop_
_geom_bond_atom_site_label_1
_geom_bond_atom_site_label_2
_geom_bond_site_symmetry_1
_geom_bond_site_symmetry_2
O1 C5 1_555 1_555
O2 C4 1_555 1_555
N1 C4 1_555 1_555
O3 C13 1_555 1_555
C1 C2 1_555 1_555
C2 C5 1_555 1_555
C3 C5 1_555 1_555
C4 C1 1_555 1_555
C5 N1 1_555 1_555
C6 C1 1_555 1_555
H1 C6 1_555 1_555
C7 C6 1_555 1_555
C8 C3 1_555 1_555
H2 C8 1_555 1_555
C9 C7 1_555 1_555
H3 C9 1_555 1_555
C10 C2 1_555 1_555
H4 C10 1_555 1_555
C11 N1 1_555 1_555
H5 C11 1_555 1_555
C12 C11 1_555 1_555
H6 C12 1_555 1_555
C13 O1 1_555 1_555
C14 C3 1_555 1_555
H7 C14 1_555 1_555
C15 C8 1_555 1_555
H8 C15 1_555 1_555
C16 C7 1_555 1_555
H9 C16 1_555 1_555
H10 C16 1_555 1_555
H11 C16 1_555 1_555
C17 C15 1_555 1_555
H12 C17 1_555 1_555
C18 C12 1_555 1_555
H13 C18 1_555 1_555
H14 C18 1_555 1_555
H15 C18 1_555 1_555
C19 C14 1_555 1_555
H16 C19 1_555 1_555
C20 C12 1_555 1_555
H17 C20 1_555 1_555
H18 C20 1_555 1_555
H19 C20 1_555 1_555
C9 C10 1_555 1_555
C11 C13 1_555 1_555
C17 C19 1_555 1_555

#END
