
#######################################################################
#
#                 Cambridge Crystallographic Data Centre
#                                CCDC 
#
#######################################################################
#
# If this CIF has been generated from an entry in the Cambridge 
# Structural Database, then it will include bibliographic, chemical, 
# crystal, experimental, refinement or atomic coordinate data resulting 
# from the CCDC's data processing and validation procedures.
#
#######################################################################

data_SIZQUN
_chemical_name_common            
7,8:22,23-Dibenzo-2,2,17,17-tetracarboxethylester-(3.0)(2,2')(1,1')(3.0)(5',2'')(4',1'')-1,1':4',1''-terphenylophane
_chemical_formula_moiety         'C44 H42 O8'
_chemical_name_systematic        
6,7,8,16,17,18-Hexahydro-7,7,17,17-tetrakis(ethoxycarbonyl)-dinaphtho(1,2-a;1,2-a'')dicyclohepta(3,4-a;3',4'-d)benzene
_symmetry_cell_setting           monoclinic
_symmetry_space_group_name_H-M   'P 21/c'
_symmetry_Int_Tables_number      14
_space_group_name_Hall           '-P 2ybc'
loop_
_symmetry_equiv_pos_site_id
_symmetry_equiv_pos_as_xyz
1 x,y,z
2 x,1/2-y,1/2+z
3 -x,-y,-z
4 -x,1/2+y,1/2-z
_cell_length_a                   12.949(1)
_cell_length_b                   11.516(1)
_cell_length_c                   12.228(1)
_cell_angle_alpha                90
_cell_angle_beta                 92.61(1)
_cell_angle_gamma                90
_cell_volume                     1821.56
_exptl_crystal_colour            colorless
_exptl_crystal_description       blocks
_chemical_melting_point          '248 deg.C'
_cell_formula_units_Z            2
_exptl_crystal_recrystallization_method DMSO
loop_
_atom_site_label
_atom_site_type_symbol
_atom_site_fract_x
_atom_site_fract_y
_atom_site_fract_z
C1 C 0.5891(2) 0.0366(2) 0.4538(2)
H1 H 0.6502(2) 0.0622(2) 0.4211(2)
C2 C 0.5284(2) 0.1178(2) 0.5055(2)
C3 C 0.5637(2) -0.0813(2) 0.4482(2)
C4 C 0.6314(2) -0.1665(2) 0.3933(2)
C5 C 0.7413(2) -0.1687(2) 0.4167(2)
C6 C 0.7927(2) -0.0979(2) 0.4964(2)
H2 H 0.7534(2) -0.0470(2) 0.5394(2)
C7 C 0.8982(2) -0.1010(3) 0.5130(3)
H3 H 0.9309(2) -0.0517(3) 0.5664(3)
C8 C 0.9585(2) -0.1766(3) 0.4514(3)
H4 H 1.0316(2) -0.1767(3) 0.4618(3)
C9 C 0.9118(2) -0.2488(3) 0.3776(3)
H5 H 0.9527(2) -0.3013(3) 0.3381(3)
C10 C 0.8027(2) -0.2481(2) 0.3578(2)
C11 C 0.7540(2) -0.3250(2) 0.2818(2)
H6 H 0.7947(2) -0.3786(2) 0.2433(2)
C12 C 0.6499(2) -0.3237(2) 0.2630(2)
H7 H 0.6187(2) -0.3771(2) 0.2125(2)
C13 C 0.5874(2) -0.2436(2) 0.3177(2)
C14 C 0.4738(2) -0.2385(2) 0.2864(2)
H8 H 0.4555(2) -0.1571(2) 0.2679(2)
H9 H 0.4609(2) -0.2854(2) 0.2193(2)
C15 C 0.4012(2) -0.2813(2) 0.3738(2)
C16 C 0.5623(2) 0.2432(2) 0.5108(2)
H10 H 0.5038(2) 0.2931(2) 0.4851(2)
H11 H 0.6192(2) 0.2548(2) 0.4605(2)
C17 C 0.3950(2) -0.4146(2) 0.3733(2)
O1 O 0.4596(2) -0.4784(2) 0.3422(2)
O2 O 0.3085(2) -0.4486(2) 0.4155(2)
C18 C 0.2838(3) -0.5720(3) 0.4158(4)
H12 H 0.3231(3) -0.6133(3) 0.3602(4)
H13 H 0.3018(3) -0.6062(3) 0.4885(4)
C19 C 0.1702(3) -0.5823(3) 0.3899(3)
H14 H 0.1503(3) -0.6644(3) 0.3892(3)
H15 H 0.1323(3) -0.5410(3) 0.4455(3)
H16 H 0.1535(3) -0.5481(3) 0.3178(3)
C20 C 0.2919(2) -0.2375(2) 0.3444(2)
O3 O 0.23752(15) -0.1842(2) 0.4039(2)
O4 O 0.2641(2) -0.2697(2) 0.2417(2)
C21 C 0.1586(3) -0.2487(4) 0.2023(3)
H17 H 0.1352(3) -0.3131(4) 0.1535(3)
H18 H 0.1130(3) -0.2463(4) 0.2650(3)
C22 C 0.1511(3) -0.1393(4) 0.1427(5)
H19 H 0.0793(3) -0.1265(4) 0.1167(5)
H20 H 0.1734(3) -0.0756(4) 0.1914(5)
H21 H 0.1956(3) -0.1422(4) 0.0800(5)
C3B C 0.4363(2) 0.0813(2) 0.5518(2)
C1B C 0.4109(2) -0.0366(2) 0.5462(2)
H1B H 0.3498(2) -0.0622(2) 0.5789(2)
C2B C 0.4716(2) -0.1178(2) 0.4945(2)
C16B C 0.4377(2) -0.2432(2) 0.4892(2)
H10B H 0.4962(2) -0.2931(2) 0.5149(2)
H11B H 0.3808(2) -0.2548(2) 0.5395(2)
C4B C 0.3686(2) 0.1665(2) 0.6067(2)
C5B C 0.2587(2) 0.1687(2) 0.5833(2)
C6B C 0.2073(2) 0.0979(2) 0.5036(2)
H2B H 0.2466(2) 0.0470(2) 0.4606(2)
C7B C 0.1018(2) 0.1010(3) 0.4870(3)
H3B H 0.0691(2) 0.0517(3) 0.4336(3)
C8B C 0.0415(2) 0.1766(3) 0.5486(3)
H4B H -0.0316(2) 0.1767(3) 0.5382(3)
C9B C 0.0882(2) 0.2488(3) 0.6224(3)
H5B H 0.0473(2) 0.3013(3) 0.6619(3)
C10B C 0.1973(2) 0.2481(2) 0.6422(2)
C11B C 0.2460(2) 0.3250(2) 0.7182(2)
H6B H 0.2053(2) 0.3786(2) 0.7567(2)
C12B C 0.3501(2) 0.3237(2) 0.7370(2)
H7B H 0.3813(2) 0.3771(2) 0.7875(2)
C13B C 0.4126(2) 0.2436(2) 0.6823(2)
C14B C 0.5262(2) 0.2385(2) 0.7136(2)
H8B H 0.5445(2) 0.1571(2) 0.7321(2)
H9B H 0.5391(2) 0.2854(2) 0.7807(2)
C15B C 0.5988(2) 0.2813(2) 0.6262(2)
C17B C 0.6050(2) 0.4146(2) 0.6267(2)
O1B O 0.5404(2) 0.4784(2) 0.6578(2)
O2B O 0.6915(2) 0.4486(2) 0.5845(2)
C18B C 0.7162(3) 0.5720(3) 0.5842(4)
H12B H 0.6769(3) 0.6133(3) 0.6398(4)
H13B H 0.6982(3) 0.6062(3) 0.5115(4)
C19B C 0.8298(3) 0.5823(3) 0.6101(3)
H14B H 0.8497(3) 0.6644(3) 0.6108(3)
H15B H 0.8677(3) 0.5410(3) 0.5545(3)
H16B H 0.8465(3) 0.5481(3) 0.6822(3)
C20B C 0.7081(2) 0.2375(2) 0.6556(2)
O3B O 0.76248(15) 0.1842(2) 0.5961(2)
O4B O 0.7359(2) 0.2697(2) 0.7583(2)
C21B C 0.8414(3) 0.2487(4) 0.7977(3)
H17B H 0.8648(3) 0.3131(4) 0.8465(3)
H18B H 0.8870(3) 0.2463(4) 0.7350(3)
C22B C 0.8489(3) 0.1393(4) 0.8573(5)
H19B H 0.9207(3) 0.1265(4) 0.8833(5)
H20B H 0.8266(3) 0.0756(4) 0.8086(5)
H21B H 0.8044(3) 0.1422(4) 0.9200(5)
loop_
_geom_bond_atom_site_label_1
_geom_bond_atom_site_label_2
_geom_bond_site_symmetry_1
_geom_bond_site_symmetry_2
C1 H1 1_555 1_555
C2 C1 1_555 1_555
C3 C1 1_555 1_555
C4 C3 1_555 1_555
C5 C4 1_555 1_555
C6 C5 1_555 1_555
H2 C6 1_555 1_555
C7 C6 1_555 1_555
H3 C7 1_555 1_555
C8 C7 1_555 1_555
H4 C8 1_555 1_555
C9 C8 1_555 1_555
H5 C9 1_555 1_555
C10 C5 1_555 1_555
C11 C10 1_555 1_555
H6 C11 1_555 1_555
C12 C11 1_555 1_555
H7 C12 1_555 1_555
C13 C4 1_555 1_555
C14 C13 1_555 1_555
H8 C14 1_555 1_555
H9 C14 1_555 1_555
C15 C14 1_555 1_555
C16 C2 1_555 1_555
H10 C16 1_555 1_555
H11 C16 1_555 1_555
C17 C15 1_555 1_555
O1 C17 1_555 1_555
O2 C17 1_555 1_555
C18 O2 1_555 1_555
H12 C18 1_555 1_555
H13 C18 1_555 1_555
C19 C18 1_555 1_555
H14 C19 1_555 1_555
H15 C19 1_555 1_555
H16 C19 1_555 1_555
C20 C15 1_555 1_555
O3 C20 1_555 1_555
O4 C20 1_555 1_555
C21 O4 1_555 1_555
H17 C21 1_555 1_555
H18 C21 1_555 1_555
C22 C21 1_555 1_555
H19 C22 1_555 1_555
H20 C22 1_555 1_555
H21 C22 1_555 1_555
C3B C2 1_555 1_555
C1B C3B 1_555 1_555
H1B C1B 1_555 1_555
C2B C3 1_555 1_555
C16B C15 1_555 1_555
H10B C16B 1_555 1_555
H11B C16B 1_555 1_555
C4B C3B 1_555 1_555
C5B C4B 1_555 1_555
C6B C5B 1_555 1_555
H2B C6B 1_555 1_555
C7B C6B 1_555 1_555
H3B C7B 1_555 1_555
C8B C7B 1_555 1_555
H4B C8B 1_555 1_555
C9B C8B 1_555 1_555
H5B C9B 1_555 1_555
C10B C5B 1_555 1_555
C11B C10B 1_555 1_555
H6B C11B 1_555 1_555
C12B C11B 1_555 1_555
H7B C12B 1_555 1_555
C13B C4B 1_555 1_555
C14B C13B 1_555 1_555
H8B C14B 1_555 1_555
H9B C14B 1_555 1_555
C15B C16 1_555 1_555
C17B C15B 1_555 1_555
O1B C17B 1_555 1_555
O2B C17B 1_555 1_555
C18B O2B 1_555 1_555
H12B C18B 1_555 1_555
H13B C18B 1_555 1_555
C19B C18B 1_555 1_555
H14B C19B 1_555 1_555
H15B C19B 1_555 1_555
H16B C19B 1_555 1_555
C20B C15B 1_555 1_555
O3B C20B 1_555 1_555
O4B C20B 1_555 1_555
C21B O4B 1_555 1_555
H17B C21B 1_555 1_555
H18B C21B 1_555 1_555
C22B C21B 1_555 1_555
H19B C22B 1_555 1_555
H20B C22B 1_555 1_555
H21B C22B 1_555 1_555
C9 C10 1_555 1_555
C12 C13 1_555 1_555
C1B C2B 1_555 1_555
C2B C16B 1_555 1_555
C9B C10B 1_555 1_555
C12B C13B 1_555 1_555
C14B C15B 1_555 1_555

#END
