
#######################################################################
#
#                 Cambridge Crystallographic Data Centre
#                                CCDC 
#
#######################################################################
#
# If this CIF has been generated from an entry in the Cambridge 
# Structural Database, then it will include bibliographic, chemical, 
# crystal, experimental, refinement or atomic coordinate data resulting 
# from the CCDC's data processing and validation procedures.
#
#######################################################################

data_SIZRID
_chemical_formula_moiety         'C19 H16 O1'
_chemical_name_systematic        (E)-3-Benzyl-5-benzylidenecyclopent-2-enone
_symmetry_cell_setting           monoclinic
_symmetry_space_group_name_H-M   'P 21/c'
_symmetry_Int_Tables_number      14
_space_group_name_Hall           '-P 2ybc'
loop_
_symmetry_equiv_pos_site_id
_symmetry_equiv_pos_as_xyz
1 x,y,z
2 -x,1/2+y,1/2-z
3 -x,-y,-z
4 x,1/2-y,1/2+z
_cell_length_a                   11.6112(5)
_cell_length_b                   6.3622(3)
_cell_length_c                   19.4174(6)
_cell_angle_alpha                90
_cell_angle_beta                 91.098(2)
_cell_angle_gamma                90
_cell_volume                     1434.15
_exptl_crystal_colour            yellow
_exptl_crystal_description       plate
_cell_formula_units_Z            4
loop_
_atom_site_label
_atom_site_type_symbol
_atom_site_fract_x
_atom_site_fract_y
_atom_site_fract_z
O1 O 0.33038(10) 0.00807(15) -0.02987(6)
C1 C 0.33034(12) 0.1827(2) -0.00311(7)
C2 C 0.24613(11) 0.35381(19) -0.01848(6)
C3 C 0.16591(12) 0.3312(2) -0.06836(7)
H1 H 0.1693(11) 0.194(2) -0.0915(7)
C4 C 0.07895(11) 0.4771(2) -0.09486(6)
C5 C 0.01368(14) 0.4163(3) -0.15270(8)
H2 H 0.0257 0.2849 -0.1722
C6 C -0.06823(17) 0.5484(4) -0.18119(10)
H3 H -0.1107 0.5058 -0.2198
C7 C -0.08738(16) 0.7422(4) -0.15297(11)
H4 H -0.1425 0.8311 -0.1726
C8 C -0.02512(14) 0.8053(3) -0.09565(9)
H5 H -0.0385 0.9366 -0.0764
C9 C 0.05749(12) 0.6737(2) -0.06660(8)
H6 H 0.0991 0.7173 -0.0278
C10 C 0.27773(11) 0.53557(19) 0.02726(6)
H7 H 0.2172 0.5646 0.0597
H8 H 0.2921 0.6611 0.0004
C11 C 0.38578(11) 0.4626(2) 0.06404(6)
C12 C 0.45065(11) 0.6054(2) 0.11209(7)
H9 H 0.4599 0.7411 0.0901
H10 H 0.5269 0.5477 0.1207
C13 C 0.39169(10) 0.6364(2) 0.18026(6)
C14 C 0.33684(13) 0.8220(2) 0.19604(7)
H11 H 0.3327 0.9291 0.1635
C15 C 0.28792(14) 0.8505(3) 0.25983(8)
H12 H 0.2512 0.9766 0.2698
C16 C 0.29317(13) 0.6948(3) 0.30821(7)
H13 H 0.2607 0.7148 0.3511
C17 C 0.34670(13) 0.5087(3) 0.29298(7)
H14 H 0.3503 0.4019 0.3257
C18 C 0.39512(12) 0.4793(2) 0.22952(7)
H15 H 0.4306 0.3521 0.2196
C19 C 0.41282(12) 0.2656(2) 0.04726(7)
H16 H 0.4797(13) 0.189(2) 0.0638(7)
loop_
_geom_bond_atom_site_label_1
_geom_bond_atom_site_label_2
_geom_bond_site_symmetry_1
_geom_bond_site_symmetry_2
O1 C1 1_555 1_555
C1 C2 1_555 1_555
C2 C3 1_555 1_555
C3 H1 1_555 1_555
C4 C3 1_555 1_555
C5 C4 1_555 1_555
H2 C5 1_555 1_555
C6 C5 1_555 1_555
H3 C6 1_555 1_555
C7 C6 1_555 1_555
H4 C7 1_555 1_555
C8 C7 1_555 1_555
H5 C8 1_555 1_555
C9 C4 1_555 1_555
H6 C9 1_555 1_555
C10 C2 1_555 1_555
H7 C10 1_555 1_555
H8 C10 1_555 1_555
C11 C10 1_555 1_555
C12 C11 1_555 1_555
H9 C12 1_555 1_555
H10 C12 1_555 1_555
C13 C12 1_555 1_555
C14 C13 1_555 1_555
H11 C14 1_555 1_555
C15 C14 1_555 1_555
H12 C15 1_555 1_555
C16 C15 1_555 1_555
H13 C16 1_555 1_555
C17 C16 1_555 1_555
H14 C17 1_555 1_555
C18 C13 1_555 1_555
H15 C18 1_555 1_555
C19 C1 1_555 1_555
H16 C19 1_555 1_555
C8 C9 1_555 1_555
C11 C19 1_555 1_555
C17 C18 1_555 1_555

#END
