
#######################################################################
#
#                 Cambridge Crystallographic Data Centre
#                                CCDC 
#
#######################################################################
#
# If this CIF has been generated from an entry in the Cambridge 
# Structural Database, then it will include bibliographic, chemical, 
# crystal, experimental, refinement or atomic coordinate data resulting 
# from the CCDC's data processing and validation procedures.
#
#######################################################################

data_SIZVII
_chemical_formula_moiety         'C11 H10 Br1 N1 O3'
_chemical_name_systematic        
'5-bromo-1,3-dimethyl-2-oxo-2,3-dihydro-1H-indol-3-yl formate'
_symmetry_cell_setting           orthorhombic
_symmetry_space_group_name_H-M   'P b c a'
_symmetry_Int_Tables_number      61
_space_group_name_Hall           '-P 2ac 2ab'
loop_
_symmetry_equiv_pos_site_id
_symmetry_equiv_pos_as_xyz
1 x,y,z
2 1/2-x,-y,1/2+z
3 -x,1/2+y,1/2-z
4 1/2+x,1/2-y,-z
5 -x,-y,-z
6 1/2+x,y,1/2-z
7 x,1/2-y,1/2+z
8 1/2-x,1/2+y,z
_cell_length_a                   12.936(3)
_cell_length_b                   12.022(2)
_cell_length_c                   14.578(3)
_cell_angle_alpha                90
_cell_angle_beta                 90
_cell_angle_gamma                90
_cell_volume                     2267.12
_cell_formula_units_Z            8
loop_
_atom_site_label
_atom_site_type_symbol
_atom_site_fract_x
_atom_site_fract_y
_atom_site_fract_z
Br1 Br 1.09248(3) 0.76340(3) 1.01120(3)
C1 C 0.88350(18) 0.5826(2) 0.85789(18)
C2 C 0.96603(17) 0.6499(2) 0.8817(2)
H1 H 1.0098 0.6798 0.8374
C3 C 0.98071(19) 0.6710(2) 0.9741(2)
C4 C 0.9175(2) 0.6270(2) 1.0407(2)
H2 H 0.9299 0.6431 1.1021
C5 C 0.8353(2) 0.5587(2) 1.01671(19)
H3 H 0.7921 0.5279 1.0610
C6 C 0.82011(18) 0.53823(19) 0.92514(18)
C7 C 0.75007(18) 0.4749(2) 0.7914(2)
C8 C 0.85018(19) 0.5386(2) 0.76677(19)
C9 C 0.6618(2) 0.4155(3) 0.9337(2)
H4 H 0.6140 0.4692 0.9578
H5 H 0.6913 0.3736 0.9833
H6 H 0.6261 0.3660 0.8929
C10 C 0.9272(2) 0.4589(3) 0.7239(2)
H7 H 0.8984 0.4281 0.6688
H8 H 0.9422 0.3999 0.7664
H9 H 0.9898 0.4981 0.7096
C11 C 0.7516(2) 0.6903(2) 0.7105(2)
H10 H 0.7403 0.7450 0.6665
N1 N 0.74330(15) 0.47229(17) 0.88428(17)
O1 O 0.69218(17) 0.43045(17) 0.73732(14)
O2 O 0.83165(14) 0.62307(16) 0.69757(13)
O3 O 0.69279(18) 0.68697(18) 0.77336(18)
loop_
_geom_bond_atom_site_label_1
_geom_bond_atom_site_label_2
_geom_bond_site_symmetry_1
_geom_bond_site_symmetry_2
Br1 C3 1_555 1_555
C1 C2 1_555 1_555
C2 H1 1_555 1_555
C3 C2 1_555 1_555
C4 C3 1_555 1_555
H2 C4 1_555 1_555
C5 C4 1_555 1_555
H3 C5 1_555 1_555
C6 C1 1_555 1_555
C7 C8 1_555 1_555
C8 C1 1_555 1_555
C9 H4 1_555 1_555
H5 C9 1_555 1_555
H6 C9 1_555 1_555
C10 C8 1_555 1_555
H7 C10 1_555 1_555
H8 C10 1_555 1_555
H9 C10 1_555 1_555
C11 H10 1_555 1_555
N1 C6 1_555 1_555
O1 C7 1_555 1_555
O2 C8 1_555 1_555
O3 C11 1_555 1_555
C5 C6 1_555 1_555
C7 N1 1_555 1_555
C9 N1 1_555 1_555
C11 O2 1_555 1_555

#END
