
#######################################################################
#
#                 Cambridge Crystallographic Data Centre
#                                CCDC 
#
#######################################################################
#
# If this CIF has been generated from an entry in the Cambridge 
# Structural Database, then it will include bibliographic, chemical, 
# crystal, experimental, refinement or atomic coordinate data resulting 
# from the CCDC's data processing and validation procedures.
#
#######################################################################

data_SIZVEF
_chemical_formula_moiety         'C21 H16 N2 O2'
_chemical_name_systematic        
N-(2'-cyanobiphenyl-4-yl)-4-hydroxy-N-methylbenzamide
_symmetry_cell_setting           orthorhombic
_symmetry_space_group_name_H-M   'P b c a'
_symmetry_Int_Tables_number      61
_space_group_name_Hall           '-P 2ac 2ab'
loop_
_symmetry_equiv_pos_site_id
_symmetry_equiv_pos_as_xyz
1 x,y,z
2 1/2-x,-y,1/2+z
3 -x,1/2+y,1/2-z
4 1/2+x,1/2-y,-z
5 -x,-y,-z
6 1/2+x,y,1/2-z
7 x,1/2-y,1/2+z
8 1/2-x,1/2+y,z
_cell_length_a                   10.1299(13)
_cell_length_b                   12.7221(16)
_cell_length_c                   26.298(3)
_cell_angle_alpha                90
_cell_angle_beta                 90
_cell_angle_gamma                90
_cell_volume                     3389.12
_exptl_crystal_colour            colorless
_exptl_crystal_description       block
_cell_formula_units_Z            8
loop_
_atom_site_label
_atom_site_type_symbol
_atom_site_fract_x
_atom_site_fract_y
_atom_site_fract_z
O1 O 0.43256(11) 0.53508(8) 0.55559(5)
O2 O 0.32277(11) 0.05050(8) 0.52871(5)
H1 H 0.245290 0.044035 0.537174
N1 N 0.63373(11) 0.47968(9) 0.58014(5)
N2 N 0.7509(3) 0.3274(2) 0.80995(8)
C1 C 0.70710(13) 0.40949(10) 0.61183(5)
C2 C 0.64490(14) 0.35936(12) 0.65198(6)
H2 H 0.555325 0.370225 0.657678
C3 C 0.71547(15) 0.29325(13) 0.68361(6)
H3 H 0.671938 0.258691 0.709881
C4 C 0.84980(15) 0.27737(11) 0.67701(6)
C5 C 0.91224(15) 0.32987(12) 0.63719(6)
H4 H 1.002482 0.321016 0.632301
C6 C 0.84199(14) 0.39509(12) 0.60473(6)
H5 H 0.885061 0.429209 0.578223
C7 C 0.92245(17) 0.20162(13) 0.70975(7)
C8 C 0.8982(2) 0.19411(16) 0.76246(8)
C9 C 0.9609(3) 0.1167(2) 0.79161(12)
H6 H 0.942145 0.110982 0.826122
C10 C 1.0499(3) 0.0491(2) 0.76952(17)
H7 H 1.091346 -0.002329 0.788918
C11 C 1.0771(3) 0.05826(17) 0.71876(15)
H8 H 1.139084 0.013676 0.704060
C12 C 1.0141(2) 0.13282(15) 0.68870(11)
H9 H 1.033368 0.136723 0.654178
C13 C 0.8149(3) 0.2679(2) 0.78800(8)
C14 C 0.68700(16) 0.58587(12) 0.57251(7)
H10 H 0.756630 0.583478 0.547776
H11 H 0.721114 0.612060 0.604126
H12 H 0.618079 0.631493 0.560651
C15 C 0.50683(13) 0.46086(10) 0.56576(5)
C16 C 0.46180(13) 0.35032(10) 0.55942(5)
C17 C 0.33210(13) 0.32439(11) 0.57124(5)
H13 H 0.276848 0.375061 0.585274
C18 C 0.28409(14) 0.22429(11) 0.56243(6)
H14 H 0.198165 0.207178 0.571734
C19 C 0.36446(14) 0.14924(11) 0.53964(5)
C20 C 0.49344(14) 0.17530(11) 0.52652(6)
H15 H 0.547105 0.125859 0.510671
C21 C 0.54190(13) 0.27430(11) 0.53699(5)
H16 H 0.628985 0.290490 0.528980
loop_
_geom_bond_atom_site_label_1
_geom_bond_atom_site_label_2
_geom_bond_site_symmetry_1
_geom_bond_site_symmetry_2
O1 C15 1_555 1_555
O2 H1 1_555 1_555
N1 C1 1_555 1_555
N2 C13 1_555 1_555
C1 C2 1_555 1_555
C2 H2 1_555 1_555
C3 C2 1_555 1_555
H3 C3 1_555 1_555
C4 C3 1_555 1_555
C5 C4 1_555 1_555
H4 C5 1_555 1_555
C6 C1 1_555 1_555
H5 C6 1_555 1_555
C7 C4 1_555 1_555
C8 C7 1_555 1_555
C9 C8 1_555 1_555
H6 C9 1_555 1_555
C10 C9 1_555 1_555
H7 C10 1_555 1_555
C11 C10 1_555 1_555
H8 C11 1_555 1_555
C12 C7 1_555 1_555
H9 C12 1_555 1_555
C13 C8 1_555 1_555
C14 N1 1_555 1_555
H10 C14 1_555 1_555
H11 C14 1_555 1_555
H12 C14 1_555 1_555
C15 N1 1_555 1_555
C16 C15 1_555 1_555
C17 C16 1_555 1_555
H13 C17 1_555 1_555
C18 C17 1_555 1_555
H14 C18 1_555 1_555
C19 O2 1_555 1_555
C20 C19 1_555 1_555
H15 C20 1_555 1_555
C21 C16 1_555 1_555
H16 C21 1_555 1_555
C5 C6 1_555 1_555
C11 C12 1_555 1_555
C18 C19 1_555 1_555
C20 C21 1_555 1_555

#END
