
#######################################################################
#
#                 Cambridge Crystallographic Data Centre
#                                CCDC 
#
#######################################################################
#
# If this CIF has been generated from an entry in the Cambridge 
# Structural Database, then it will include bibliographic, chemical, 
# crystal, experimental, refinement or atomic coordinate data resulting 
# from the CCDC's data processing and validation procedures.
#
#######################################################################

data_SIZWED
_chemical_formula_moiety         'C22 H25 N5 O4'
_chemical_name_systematic        
4a-(2-(3-Indolyl)ethyl)-1,3,6,8-tetramethyl-4a,4b,8a,8b-tetrahydrocyclobuta(1,2-d:4,3-d')dipyrimidine-2,4,5,7(1H,3H,6H,8H)-tetrone
_symmetry_cell_setting           triclinic
_symmetry_space_group_name_H-M   'P -1'
_symmetry_Int_Tables_number      2
_space_group_name_Hall           '-P 1'
loop_
_symmetry_equiv_pos_site_id
_symmetry_equiv_pos_as_xyz
1 x,y,z
2 -x,-y,-z
_cell_length_a                   8.116(4)
_cell_length_b                   15.888(6)
_cell_length_c                   16.226(7)
_cell_angle_alpha                87.05(3)
_cell_angle_beta                 86.28(3)
_cell_angle_gamma                87.79(3)
_cell_volume                     2083.82
_exptl_crystal_colour            colorless
_cell_formula_units_Z            4
loop_
_atom_site_label
_atom_site_type_symbol
_atom_site_fract_x
_atom_site_fract_y
_atom_site_fract_z
N1 N 0.6735(6) 0.0850(3) -0.0738(3)
C1 C 0.5830(8) 0.1136(4) -0.0078(4)
N2 N 0.4750(5) 0.1839(3) -0.0231(3)
C2 C 0.4350(7) 0.2171(3) -0.0993(3)
C3 C 0.5353(7) 0.1842(3) -0.1743(3)
C4 C 0.6858(7) 0.1295(3) -0.1521(3)
N3 N 0.8241(7) 0.2505(4) -0.0910(3)
C5 C 0.7607(10) 0.3261(6) -0.0689(4)
N4 N 0.6555(7) 0.3695(3) -0.1230(3)
C6 C 0.6101(8) 0.3416(4) -0.1971(4)
C7 C 0.6574(7) 0.2525(3) -0.2123(3)
C8 C 0.7973(7) 0.2087(3) -0.1649(3)
C9 C 0.4150(7) 0.1532(3) -0.2342(3)
C10 C 0.3204(7) 0.0755(3) -0.2013(3)
C11 C -0.0216(8) -0.1526(4) -0.2018(3)
C12 C 0.0933(7) -0.0917(3) -0.1944(3)
C13 C 0.0792(7) -0.0155(3) -0.2418(3)
C14 C -0.0513(8) -0.0046(3) -0.2952(3)
C15 C -0.1680(7) -0.0650(4) -0.3014(3)
C16 C -0.1504(8) -0.1384(4) -0.2544(4)
C17 C 0.1025(8) 0.1091(3) -0.3088(3)
C18 C 0.1750(7) 0.0587(3) -0.2502(3)
N5 N -0.0344(6) 0.0733(3) -0.3348(3)
O1 O 0.5905(5) 0.0820(3) 0.0616(2)
O2 O 0.7876(7) 0.3574(3) -0.0046(3)
O3 O 0.3272(5) 0.2724(2) -0.1057(2)
O4 O 0.5259(5) 0.3840(3) -0.2447(3)
C19 C 0.7806(8) 0.0092(4) -0.0622(4)
C20 C 0.9503(8) 0.2113(4) -0.0388(4)
C21 C 0.3940(8) 0.2217(4) 0.0499(3)
C22 C 0.5856(9) 0.4510(4) -0.0979(4)
H1 H 0.7140 0.0908 -0.1947
H2 H 0.6779 0.2456 -0.2705
H3 H 0.8967 0.1987 -0.1990
H4 H 0.4758 0.1400 -0.2849
H5 H 0.3368 0.1982 -0.2466
H6 H 0.2821 0.0832 -0.1449
H7 H 0.3947 0.0270 -0.2020
H8 H -0.1023 0.0970 -0.3718
H9 H 0.1423 0.1629 -0.3292
H10 H 0.1810 -0.1014 -0.1577
H11 H -0.0127 -0.2052 -0.1703
H12 H -0.2290 -0.1815 -0.2577
H13 H -0.2574 -0.0558 -0.3372
H14 H 0.7605 -0.0148 -0.0071
H15 H 0.7571 -0.0312 -0.1014
H16 H 0.8942 0.0241 -0.0704
H17 H 0.9585 0.2441 0.0088
H18 H 0.9197 0.1551 -0.0213
H19 H 1.0550 0.2093 -0.0699
H20 H 0.3239 0.2686 0.0329
H21 H 0.3287 0.1804 0.0809
H22 H 0.4762 0.2408 0.0838
H23 H 0.5161 0.4745 -0.1395
H24 H 0.5215 0.4435 -0.0464
H25 H 0.6734 0.4884 -0.0914
N6 N -0.3673(6) 0.4078(3) 0.4190(3)
C23 C -0.4977(9) 0.3683(4) 0.4558(3)
N7 N -0.4602(6) 0.2957(3) 0.5069(3)
C24 C -0.3075(7) 0.2695(3) 0.5314(3)
C25 C -0.1583(6) 0.3113(3) 0.4883(3)
C26 C -0.2033(7) 0.3709(3) 0.4147(3)
N8 N -0.2943(6) 0.2529(3) 0.3286(3)
C27 C -0.3366(9) 0.1740(5) 0.3564(4)
N9 N -0.2363(7) 0.1305(3) 0.4129(3)
C28 C -0.0939(9) 0.1606(4) 0.4414(3)
C29 C -0.0674(7) 0.2513(3) 0.4235(3)
C30 C -0.1558(7) 0.2978(3) 0.3536(3)
C31 C -0.0492(6) 0.3411(3) 0.5535(3)
C32 C -0.1330(6) 0.4093(3) 0.6085(3)
C33 C -0.1634(8) 0.6175(3) 0.8005(4)
C34 C -0.1681(7) 0.5631(3) 0.7371(3)
C35 C -0.0677(7) 0.4897(3) 0.7391(3)
C36 C 0.0353(7) 0.4738(4) 0.8052(3)
C37 C 0.0413(8) 0.5301(4) 0.8683(3)
C38 C -0.0599(8) 0.6003(4) 0.8655(4)
C39 C 0.0704(7) 0.3675(3) 0.7210(3)
C40 C -0.0430(7) 0.4207(3) 0.6854(3)
N10 N 0.1176(6) 0.3982(3) 0.7934(3)
O5 O -0.2909(4) 0.2138(2) 0.5848(2)
O6 O -0.0053(6) 0.1162(2) 0.4856(2)
O7 O -0.6405(5) 0.3917(3) 0.4493(2)
O8 O -0.4590(6) 0.1408(3) 0.3341(3)
C41 C -0.3961(7) 0.4855(3) 0.3686(3)
C42 C -0.3814(8) 0.2916(4) 0.2604(3)
C43 C -0.6019(7) 0.2492(4) 0.5427(4)
C44 C -0.2891(9) 0.0466(4) 0.4425(4)
H26 H -0.1244 0.4145 0.4065
H27 H 0.0486 0.2618 0.4181
H28 H -0.0818 0.3153 0.3079
H29 H 0.0495 0.3633 0.5261
H30 H -0.0170 0.2934 0.5883
H31 H -0.2442 0.3938 0.6243
H32 H -0.1381 0.4620 0.5769
H33 H 0.1901 0.3728 0.8272
H34 H -0.2389 0.5755 0.6925
H35 H -0.2323 0.6680 0.8000
H36 H -0.0604 0.6390 0.9091
H37 H 0.1144 0.5195 0.9122
H38 H -0.5097 0.5041 0.3766
H39 H -0.3264 0.5284 0.3847
H40 H -0.3711 0.4750 0.3113
H41 H -0.4706 0.2569 0.2489
H42 H -0.4248 0.3463 0.2749
H43 H -0.3066 0.2972 0.2123
H44 H -0.5636 0.2016 0.5760
H45 H -0.6718 0.2855 0.5764
H46 H -0.6632 0.2299 0.4991
H47 H -0.2126 0.0224 0.4806
H48 H -0.3973 0.0512 0.4699
H49 H -0.2920 0.0112 0.3965
loop_
_geom_bond_atom_site_label_1
_geom_bond_atom_site_label_2
_geom_bond_site_symmetry_1
_geom_bond_site_symmetry_2
N1 C1 1_555 1_555
C1 N2 1_555 1_555
N2 C2 1_555 1_555
C2 C3 1_555 1_555
C3 C4 1_555 1_555
C4 N1 1_555 1_555
N3 C5 1_555 1_555
C5 N4 1_555 1_555
N4 C6 1_555 1_555
C6 C7 1_555 1_555
C7 C3 1_555 1_555
C8 C4 1_555 1_555
C9 C3 1_555 1_555
C10 C9 1_555 1_555
C11 C12 1_555 1_555
C12 C13 1_555 1_555
C13 C14 1_555 1_555
C14 C15 1_555 1_555
C15 C16 1_555 1_555
C16 C11 1_555 1_555
C17 C18 1_555 1_555
C18 C10 1_555 1_555
N5 C14 1_555 1_555
O1 C1 1_555 1_555
O2 C5 1_555 1_555
O3 C2 1_555 1_555
O4 C6 1_555 1_555
C19 N1 1_555 1_555
C20 N3 1_555 1_555
C21 N2 1_555 1_555
C22 N4 1_555 1_555
N6 C23 1_555 1_555
C23 N7 1_555 1_555
N7 C24 1_555 1_555
C24 C25 1_555 1_555
C25 C26 1_555 1_555
C26 N6 1_555 1_555
N8 C27 1_555 1_555
C27 N9 1_555 1_555
N9 C28 1_555 1_555
C28 C29 1_555 1_555
C29 C25 1_555 1_555
C30 C26 1_555 1_555
C31 C25 1_555 1_555
C32 C31 1_555 1_555
C33 C34 1_555 1_555
C34 C35 1_555 1_555
C35 C36 1_555 1_555
C36 C37 1_555 1_555
C37 C38 1_555 1_555
C38 C33 1_555 1_555
C39 C40 1_555 1_555
C40 C32 1_555 1_555
N10 C36 1_555 1_555
O5 C24 1_555 1_555
O6 C28 1_555 1_555
O7 C23 1_555 1_555
O8 C27 1_555 1_555
C41 N6 1_555 1_555
C42 N8 1_555 1_555
C43 N7 1_555 1_555
C44 N9 1_555 1_555
H1 C4 1_555 1_555
H2 C7 1_555 1_555
H3 C8 1_555 1_555
H4 C9 1_555 1_555
H5 C9 1_555 1_555
H6 C10 1_555 1_555
H7 C10 1_555 1_555
H8 N5 1_555 1_555
H9 C17 1_555 1_555
H10 C12 1_555 1_555
H11 C11 1_555 1_555
H12 C16 1_555 1_555
H13 C15 1_555 1_555
H14 C19 1_555 1_555
H15 C19 1_555 1_555
H16 C19 1_555 1_555
H17 C20 1_555 1_555
H18 C20 1_555 1_555
H19 C20 1_555 1_555
H20 C21 1_555 1_555
H21 C21 1_555 1_555
H22 C21 1_555 1_555
H23 C22 1_555 1_555
H24 C22 1_555 1_555
H25 C22 1_555 1_555
H26 C26 1_555 1_555
H27 C29 1_555 1_555
H28 C30 1_555 1_555
H29 C31 1_555 1_555
H30 C31 1_555 1_555
H31 C32 1_555 1_555
H32 C32 1_555 1_555
H33 N10 1_555 1_555
H34 C34 1_555 1_555
H35 C33 1_555 1_555
H36 C38 1_555 1_555
H37 C37 1_555 1_555
H38 C41 1_555 1_555
H39 C41 1_555 1_555
H40 C41 1_555 1_555
H41 C42 1_555 1_555
H42 C42 1_555 1_555
H43 C42 1_555 1_555
H44 C43 1_555 1_555
H45 C43 1_555 1_555
H46 C43 1_555 1_555
H47 C44 1_555 1_555
H48 C44 1_555 1_555
H49 C44 1_555 1_555
N3 C8 1_555 1_555
C7 C8 1_555 1_555
C13 C18 1_555 1_555
C17 N5 1_555 1_555
N8 C30 1_555 1_555
C29 C30 1_555 1_555
C35 C40 1_555 1_555
C39 N10 1_555 1_555

#END
