
#######################################################################
#
#                 Cambridge Crystallographic Data Centre
#                                CCDC 
#
#######################################################################
#
# If this CIF has been generated from an entry in the Cambridge 
# Structural Database, then it will include bibliographic, chemical, 
# crystal, experimental, refinement or atomic coordinate data resulting 
# from the CCDC's data processing and validation procedures.
#
#######################################################################

data_SOBFIY
_chemical_formula_moiety         'C21 H22 N1 O2 1+,Cl1 1-'
_chemical_name_systematic        
'(-)-6-Methoxy-4-(6-methoxynaphthalen-2-yl)-1,2,3,4-tetrahydroisoquinolinium chloride'
_symmetry_cell_setting           monoclinic
_symmetry_space_group_name_H-M   'P 21'
_symmetry_Int_Tables_number      4
_space_group_name_Hall           'P 2yb'
loop_
_symmetry_equiv_pos_site_id
_symmetry_equiv_pos_as_xyz
1 x,y,z
2 -x,1/2+y,-z
_cell_length_a                   7.8360(9)
_cell_length_b                   5.8710(11)
_cell_length_c                   20.2720(18)
_cell_angle_alpha                90
_cell_angle_beta                 100.044(8)
_cell_angle_gamma                90
_cell_volume                     918.323
_cell_formula_units_Z            2
loop_
_atom_site_label
_atom_site_type_symbol
_atom_site_fract_x
_atom_site_fract_y
_atom_site_fract_z
Cl1 Cl 0.1052(2) 0.2470 0.96415(7)
O1 O -0.3294(4) 0.7331(9) 0.4355(2)
O3 O 0.522(1) 0.131(2) 0.7407(5)
N1 N 0.1651(5) 0.743(1) 0.9300(2)
C1 C -0.2611(5) 0.694(1) 0.5010(2)
C2 C -0.3255(6) 0.497(1) 0.5285(3)
C3 C -0.2715(6) 0.438(1) 0.5934(2)
C4 C -0.1481(5) 0.573(1) 0.6356(2)
C5 C -0.0825(6) 0.768(1) 0.6077(2)
C6 C -0.1400(6) 0.828(1) 0.5405(2)
C7 C -0.0877(6) 0.515(1) 0.7033(2)
C8 C 0.0351(7) 0.641(1) 0.7425(2)
C9 C 0.103(1) 0.833(1) 0.7145(3)
C10 C 0.0467(8) 0.898(1) 0.6496(3)
C11 C 0.1046(7) 0.578(1) 0.8155(2)
C12 C 0.0666(7) 0.771(1) 0.8609(2)
C13 C 0.3531(7) 0.759(1) 0.9312(2)
C14 C -0.2831(7) 0.940(1) 0.4072(3)
C16 C 0.663(3) -0.032(3) 0.758(1)
H1 H 0.1311 0.8599 0.9575
H2 H 0.1388 0.5988 0.9467
H3 H -0.4083 0.4042 0.5008
H4 H -0.3170 0.3055 0.6109
H5 H -0.0957 0.9601 0.5222
H6 H -0.1340 0.3850 0.7218
H7 H 0.1915 0.9197 0.7416
H8 H 0.0938 1.0295 0.6325
H9 H 0.0422 0.4473 0.8259
H10 H -0.0541 0.7720 0.8623
H11 H 0.0981 0.9111 0.8429
H12 H 0.4150 0.7167 0.9741
H13 H 0.3847 0.9094 0.9210
H14 H -0.2369 1.0421 0.4421
H15 H -0.3827 1.0051 0.3807
H16 H -0.1983 0.9099 0.3801
C17 C 0.3909(8) 0.592(1) 0.8777(3)
C18 C 0.2715(6) 0.520(1) 0.8224(3)
C19 C 0.3209(7) 0.363(1) 0.7775(2)
C20 C 0.4897(8) 0.278(1) 0.7880(3)
C21 C 0.6092(7) 0.350(1) 0.8434(3)
C22 C 0.5597(7) 0.507(1) 0.8882(3)
H17 H 0.240(1) 0.314(2) 0.7398(3)
H18 H 0.7242(8) 0.292(2) 0.8505(4)
H19 H 0.6411(9) 0.556(2) 0.9259(4)
O2? O 0.647(2) 0.129(3) 0.7713(6)
C15? C 0.550(3) -0.017(6) 0.7296(8)
C23? C 0.4335(8) 0.602(1) 0.8887(3)
C24? C 0.3260(6) 0.506(1) 0.8336(3)
C25? C 0.3926(7) 0.347(1) 0.7937(3)
C26? C 0.5666(8) 0.284(1) 0.8089(3)
C27? C 0.6742(7) 0.380(1) 0.8640(3)
C28? C 0.6076(8) 0.539(1) 0.9039(3)
H20? H 0.319(1) 0.281(2) 0.7562(3)
H21? H 0.7927(7) 0.3337(2) 0.8743(5)
H22? H 0.681(1) 0.604(2) 0.9414(4)
loop_
_geom_bond_atom_site_label_1
_geom_bond_atom_site_label_2
_geom_bond_site_symmetry_1
_geom_bond_site_symmetry_2
O1 C1 1_555 1_555
O3 C16 1_555 1_555
N1 C12 1_555 1_555
C1 C2 1_555 1_555
C2 C3 1_555 1_555
C3 C4 1_555 1_555
C4 C5 1_555 1_555
C5 C6 1_555 1_555
C6 C1 1_555 1_555
C7 C4 1_555 1_555
C8 C7 1_555 1_555
C9 C8 1_555 1_555
C10 C5 1_555 1_555
C11 C8 1_555 1_555
C12 C11 1_555 1_555
C13 N1 1_555 1_555
C14 O1 1_555 1_555
H1 N1 1_555 1_555
H2 N1 1_555 1_555
H3 C2 1_555 1_555
H4 C3 1_555 1_555
H5 C6 1_555 1_555
H6 C7 1_555 1_555
H7 C9 1_555 1_555
H8 C10 1_555 1_555
H9 C11 1_555 1_555
H10 C12 1_555 1_555
H11 C12 1_555 1_555
H12 C13 1_555 1_555
H13 C13 1_555 1_555
H14 C14 1_555 1_555
H15 C14 1_555 1_555
H16 C14 1_555 1_555
C17 C13 1_555 1_555
C18 C11 1_555 1_555
C19 C18 1_555 1_555
C20 O3 1_555 1_555
C21 C20 1_555 1_555
C22 C17 1_555 1_555
H17 C19 1_555 1_555
H18 C21 1_555 1_555
H19 C22 1_555 1_555
C9 C10 1_555 1_555
C17 C18 1_555 1_555
C19 C20 1_555 1_555
C21 C22 1_555 1_555

#END
