
#######################################################################
#
#                 Cambridge Crystallographic Data Centre
#                                CCDC 
#
#######################################################################
#
# If this CIF has been generated from an entry in the Cambridge 
# Structural Database, then it will include bibliographic, chemical, 
# crystal, experimental, refinement or atomic coordinate data resulting 
# from the CCDC's data processing and validation procedures.
#
#######################################################################

data_SOBXOZ
_chemical_formula_moiety         'C15 H12 F3 I1 N2 O1,C14 H13 N1 O1'
_chemical_name_systematic        
'1-(4-propoxyphenyl)-2-(2,3,6-trifluoro-4-iodophenyl)diazene 4-[2-(4-methoxyphenyl)ethenyl]pyridine'
_symmetry_cell_setting           monoclinic
_symmetry_space_group_name_H-M   'P 21'
_symmetry_Int_Tables_number      4
_space_group_name_Hall           'P 2yb'
loop_
_symmetry_equiv_pos_site_id
_symmetry_equiv_pos_as_xyz
1 x,y,z
2 -x,1/2+y,-z
_cell_length_a                   10.8609(5)
_cell_length_b                   7.1392(3)
_cell_length_c                   33.7700(14)
_cell_angle_alpha                90
_cell_angle_beta                 92.586(2)
_cell_angle_gamma                90
_cell_volume                     2615.8
_exptl_crystal_colour            'pale orange'
_exptl_crystal_description       plate
_cell_formula_units_Z            4
loop_
_atom_site_label
_atom_site_type_symbol
_atom_site_fract_x
_atom_site_fract_y
_atom_site_fract_z
I1 I 0.21460(3) 0.27795(10) 0.69890(2)
O1 O 0.1308(4) 0.2822(15) 1.06759(11)
N1 N 0.2052(5) 0.3223(9) 0.88633(16)
N2 N 0.1122(5) 0.2589(14) 0.90305(15)
C1 C 0.2058(6) 0.2921(18) 0.76088(16)
C2 C 0.1963(6) 0.3095(13) 0.84436(18)
C3 C 0.1220(5) 0.2722(19) 0.94488(15)
C4 C 0.1222(5) 0.2680(19) 1.02732(16)
C5 C 0.0315(8) 0.2049(13) 1.0899(2)
H1 H 0.046698 0.070347 1.095292
H2 H -0.047803 0.217046 1.074507
C6 C 0.0260(10) 0.3099(17) 1.1281(3)
H3 H -0.046890 0.268816 1.142336
H4 H 0.017420 0.445542 1.122517
C7 C 0.1423(9) 0.275(4) 1.1538(3)
H5 H 0.214608 0.310377 1.139137
H6 H 0.147346 0.142519 1.160953
H7 H 0.139771 0.351221 1.177965
F1 F 0.4223(4) 0.3073(16) 0.76884(12)
F2 F 0.4126(4) 0.3227(9) 0.84679(12)
F3 F -0.0211(4) 0.3034(19) 0.83537(12)
C8 C 0.3116(6) 0.3062(15) 0.78469(19)
C9 C 0.3070(6) 0.3132(12) 0.8252(2)
C10 C 0.2194(6) 0.3526(10) 0.9669(2)
H8 H 0.286227 0.407214 0.953870
C11 C 0.2188(6) 0.3529(10) 1.0079(2)
H9 H 0.284229 0.411103 1.022936
C12 C 0.0922(5) 0.288(2) 0.77871(17)
H10 H 0.017621 0.277346 0.763043
C13 C 0.0901(6) 0.300(2) 0.81938(18)
C14 C 0.0252(6) 0.1898(10) 0.9645(2)
H11 H -0.041822 0.135938 0.949465
C15 C 0.0251(6) 0.1852(11) 1.0054(2)
H12 H -0.040361 0.126299 1.018383
I2 I 0.43075(3) 0.78000(11) 0.66320(2)
O2 O 0.3453(4) 0.7895(14) 1.03174(11)
N3 N 0.3510(5) 0.8163(10) 0.84804(17)
N4 N 0.4358(5) 0.7621(16) 0.87119(15)
C18 C 0.4057(6) 0.793(2) 0.72424(17)
C19 C 0.3780(6) 0.8060(14) 0.80729(18)
C20 C 0.4093(5) 0.7722(18) 0.91182(16)
C21 C 0.3744(5) 0.7784(19) 0.99314(14)
C22 C 0.4276(7) 0.7052(10) 1.06139(19)
H20 H 0.497406 0.790272 1.068171
H21 H 0.460970 0.585859 1.051443
C23 C 0.3523(8) 0.6698(12) 1.0977(2)
H22 H 0.284408 0.582365 1.090297
H23 H 0.405700 0.608248 1.118364
C24 C 0.2982(8) 0.8457(13) 1.1149(2)
H24 H 0.364560 0.922669 1.126979
H25 H 0.240387 0.811353 1.135194
H26 H 0.254562 0.916850 1.093835
F4 F 0.6215(4) 0.807(2) 0.73736(14)
F5 F 0.5955(4) 0.8268(16) 0.81427(14)
F6 F 0.1650(3) 0.7907(16) 0.79412(11)
C25 C 0.5067(7) 0.805(2) 0.7507(2)
C26 C 0.4935(7) 0.808(2) 0.7911(2)
C27 C 0.4983(6) 0.7015(10) 0.9386(2)
H27 H 0.572100 0.650375 0.929018
C28 C 0.4813(6) 0.7042(10) 0.9790(2)
H28 H 0.542939 0.655035 0.996997
C29 C 0.2886(5) 0.787(2) 0.73930(17)
H29 H 0.217347 0.775336 0.722115
C30 C 0.2786(6) 0.7981(18) 0.77972(18)
C31 C 0.3027(6) 0.8549(10) 0.9262(2)
H30 H 0.242465 0.908093 0.908334
C32 C 0.2861(6) 0.8584(10) 0.9664(2)
H31 H 0.214371 0.915220 0.976145
O3 O 0.0003(4) 0.2677(14) 0.29895(12)
N5 N 0.1963(5) 0.2516(11) 0.61458(15)
C33 C 0.1304(7) 0.2478(12) 0.5332(2)
C34 C 0.0834(7) 0.265(2) 0.4915(2)
H32 H 0.001379 0.307983 0.486578
C35 C 0.1507(9) 0.2231(12) 0.4604(3)
H33 H 0.232114 0.177473 0.465346
C36 C 0.1051(8) 0.2441(11) 0.4190(2)
C37 C 0.0402(6) 0.2530(13) 0.33757(18)
C38 C 0.0829(8) 0.2091(15) 0.2694(2)
H34 H 0.040548 0.214893 0.243164
H35 H 0.109791 0.080203 0.274829
H36 H 0.154891 0.292006 0.269931
C39 C 0.2695(7) 0.1721(11) 0.5884(2)
H37 H 0.344852 0.117389 0.597961
C40 C 0.2398(8) 0.1663(11) 0.5478(2)
H38 H 0.293699 0.107211 0.530324
C41 C 0.1860(8) 0.1829(12) 0.3907(2)
H39 H 0.265041 0.137932 0.399344
C42 C 0.1553(7) 0.1854(12) 0.3506(2)
H40 H 0.211965 0.141370 0.332145
C43 C 0.0907(7) 0.3266(10) 0.6005(2)
H41 H 0.037778 0.384247 0.618492
C44 C 0.0554(7) 0.3237(10) 0.5607(2)
H42 H -0.022091 0.375005 0.552266
C45 C -0.0088(7) 0.3161(10) 0.4050(2)
H43 H -0.064887 0.362383 0.423457
C46 C -0.0412(7) 0.3213(9) 0.3648(2)
H44 H -0.118684 0.371239 0.355936
O4 O 0.2056(5) 0.7217(8) 0.25921(15)
N6 N 0.4295(6) 0.7411(8) 0.57370(18)
C49 C 0.3534(6) 0.7345(8) 0.4926(2)
C50 C 0.3086(7) 0.7233(10) 0.4511(2)
H47 H 0.225897 0.683239 0.446249
C51 C 0.3730(6) 0.7642(17) 0.41918(19)
H48 H 0.454584 0.808974 0.424142
C52 C 0.3307(6) 0.7470(12) 0.3775(2)
C53 C 0.2540(7) 0.7318(10) 0.2971(2)
C54 C 0.2842(7) 0.766(3) 0.2281(2)
H49 H 0.234853 0.780569 0.203258
H50 H 0.343893 0.664196 0.225167
H51 H 0.328190 0.882650 0.234290
C55 C 0.5019(6) 0.8092(12) 0.5456(2)
H52 H 0.579772 0.860306 0.553712
C56 C 0.4680(6) 0.8084(12) 0.5055(2)
H53 H 0.522264 0.857751 0.486877
C57 C 0.4078(6) 0.7983(18) 0.3478(2)
H54 H 0.488754 0.840448 0.355032
C58 C 0.3717(6) 0.790(2) 0.30828(19)
H55 H 0.427511 0.825230 0.288712
C59 C 0.3203(7) 0.6724(10) 0.5611(2)
H56 H 0.267448 0.624311 0.580382
C60 C 0.2795(7) 0.6672(11) 0.5218(2)
H57 H 0.200492 0.617259 0.514779
C61 C 0.2111(7) 0.6839(11) 0.3658(2)
H58 H 0.156068 0.646234 0.385326
C62 C 0.1735(7) 0.6765(11) 0.3263(2)
H59 H 0.092896 0.633737 0.318809
H13? H 0.015510 0.072957 1.082282
H14? H -0.045170 0.277918 1.085025
C16? C 0.076(2) 0.218(2) 1.1341(5)
H15? H 0.020314 0.142116 1.150156
H16? H 0.159527 0.163869 1.137270
C17? C 0.078(2) 0.417(3) 1.1495(7)
H17? H 0.137929 0.490098 1.135127
H18? H 0.102451 0.415950 1.177856
H19? H -0.003774 0.472414 1.145680
C47? C 0.162(4) 0.202(5) 0.4880(11)
H45? H 0.228644 0.127782 0.479619
C48? C 0.077(3) 0.288(9) 0.4647(9)
H46? H 0.010974 0.361718 0.473453
loop_
_geom_bond_atom_site_label_1
_geom_bond_atom_site_label_2
_geom_bond_site_symmetry_1
_geom_bond_site_symmetry_2
I1 C1 1_555 1_555
O1 C4 1_555 1_555
N1 N2 1_555 1_555
N2 C3 1_555 1_555
C1 C8 1_555 1_555
C2 N1 1_555 1_555
C3 C10 1_555 1_555
C4 C11 1_555 1_555
C5 O1 1_555 1_555
H1 C5 1_555 1_555
H2 C5 1_555 1_555
C6 C5 1_555 1_555
H3 C6 1_555 1_555
H4 C6 1_555 1_555
C7 C6 1_555 1_555
H5 C7 1_555 1_555
H6 C7 1_555 1_555
H7 C7 1_555 1_555
F1 C8 1_555 1_555
F2 C9 1_555 1_555
F3 C13 1_555 1_555
C8 C9 1_555 1_555
C9 C2 1_555 1_555
C10 H8 1_555 1_555
C11 C10 1_555 1_555
H9 C11 1_555 1_555
C12 C1 1_555 1_555
H10 C12 1_555 1_555
C13 C2 1_555 1_555
C14 C3 1_555 1_555
H11 C14 1_555 1_555
C15 C4 1_555 1_555
H12 C15 1_555 1_555
I2 C18 1_555 1_555
O2 C21 1_555 1_555
N3 N4 1_555 1_555
N4 C20 1_555 1_555
C18 C25 1_555 1_555
C19 N3 1_555 1_555
C20 C27 1_555 1_555
C21 C28 1_555 1_555
C22 O2 1_555 1_555
H20 C22 1_555 1_555
H21 C22 1_555 1_555
C23 C22 1_555 1_555
H22 C23 1_555 1_555
H23 C23 1_555 1_555
C24 C23 1_555 1_555
H24 C24 1_555 1_555
H25 C24 1_555 1_555
H26 C24 1_555 1_555
F4 C25 1_555 1_555
F5 C26 1_555 1_555
F6 C30 1_555 1_555
C25 C26 1_555 1_555
C26 C19 1_555 1_555
C27 H27 1_555 1_555
C28 C27 1_555 1_555
H28 C28 1_555 1_555
C29 C18 1_555 1_555
H29 C29 1_555 1_555
C30 C19 1_555 1_555
C31 C20 1_555 1_555
H30 C31 1_555 1_555
C32 C21 1_555 1_555
H31 C32 1_555 1_555
O3 C37 1_555 1_555
N5 C39 1_555 1_555
C33 C34 1_555 1_555
C34 H32 1_555 1_555
C35 C34 1_555 1_555
H33 C35 1_555 1_555
C36 C35 1_555 1_555
C37 C42 1_555 1_555
C38 O3 1_555 1_555
H34 C38 1_555 1_555
H35 C38 1_555 1_555
H36 C38 1_555 1_555
C39 H37 1_555 1_555
C40 C33 1_555 1_555
H38 C40 1_555 1_555
C41 C36 1_555 1_555
H39 C41 1_555 1_555
C42 C41 1_555 1_555
H40 C42 1_555 1_555
C43 N5 1_555 1_555
H41 C43 1_555 1_555
C44 C33 1_555 1_555
H42 C44 1_555 1_555
C45 C36 1_555 1_555
H43 C45 1_555 1_555
C46 C37 1_555 1_555
H44 C46 1_555 1_555
O4 C53 1_555 1_555
N6 C55 1_555 1_555
C49 C50 1_555 1_555
C50 H47 1_555 1_555
C51 C50 1_555 1_555
H48 C51 1_555 1_555
C52 C51 1_555 1_555
C53 C58 1_555 1_555
C54 O4 1_555 1_555
H49 C54 1_555 1_555
H50 C54 1_555 1_555
H51 C54 1_555 1_555
C55 H52 1_555 1_555
C56 C49 1_555 1_555
H53 C56 1_555 1_555
C57 C52 1_555 1_555
H54 C57 1_555 1_555
C58 C57 1_555 1_555
H55 C58 1_555 1_555
C59 N6 1_555 1_555
H56 C59 1_555 1_555
C60 C49 1_555 1_555
H57 C60 1_555 1_555
C61 C52 1_555 1_555
H58 C61 1_555 1_555
C62 C53 1_555 1_555
H59 C62 1_555 1_555
C12 C13 1_555 1_555
C14 C15 1_555 1_555
C29 C30 1_555 1_555
C31 C32 1_555 1_555
C39 C40 1_555 1_555
C43 C44 1_555 1_555
C45 C46 1_555 1_555
C55 C56 1_555 1_555
C59 C60 1_555 1_555
C61 C62 1_555 1_555

#END
