
#######################################################################
#
#                 Cambridge Crystallographic Data Centre
#                                CCDC 
#
#######################################################################
#
# If this CIF has been generated from an entry in the Cambridge 
# Structural Database, then it will include bibliographic, chemical, 
# crystal, experimental, refinement or atomic coordinate data resulting 
# from the CCDC's data processing and validation procedures.
#
#######################################################################

data_SOBXIT
_chemical_formula_moiety         'C15 H11 F4 I1 N2 O1,C14 H13 N1 O1'
_chemical_name_systematic        
'1-(4-propoxyphenyl)-2-(2,3,5,6-tetrafluoro-4-iodophenyl)diazene 4-[2-(4-methoxyphenyl)ethenyl]pyridine'
_symmetry_cell_setting           triclinic
_symmetry_space_group_name_H-M   'P -1'
_symmetry_Int_Tables_number      2
_space_group_name_Hall           '-P 1'
loop_
_symmetry_equiv_pos_site_id
_symmetry_equiv_pos_as_xyz
1 x,y,z
2 -x,-y,-z
_cell_length_a                   6.1954(2)
_cell_length_b                   19.6656(7)
_cell_length_c                   22.1676(8)
_cell_angle_alpha                99.849(2)
_cell_angle_beta                 93.8885(19)
_cell_angle_gamma                91.8717(19)
_cell_volume                     2652.19
_exptl_crystal_colour            orange
_exptl_crystal_description       tablet
_cell_formula_units_Z            4
loop_
_atom_site_label
_atom_site_type_symbol
_atom_site_fract_x
_atom_site_fract_y
_atom_site_fract_z
I1 I 0.78060(7) 0.82148(2) 0.57773(2)
O1 O 2.1724(9) 1.1054(3) 0.9881(2)
N1 N 1.5225(11) 0.9602(3) 0.7771(3)
N2 N 1.4792(10) 0.9803(3) 0.8321(3)
C1 C 1.0209(13) 0.8661(4) 0.6464(3)
C2 C 1.3435(13) 0.9289(4) 0.7379(3)
C3 C 1.6617(12) 1.0119(4) 0.8701(3)
C4 C 1.9970(12) 1.0754(4) 0.9525(3)
C5 C 2.1504(12) 1.1309(4) 1.0521(3)
H1 H 2.092382 1.093597 1.072124
H2 H 2.049477 1.169143 1.056724
C6 C 2.3709(13) 1.1561(4) 1.0812(3)
H3 H 2.43301 1.190113 1.058231
H4 H 2.46745 1.116770 1.078818
C7 C 2.3597(14) 1.1897(4) 1.1483(3)
H5 H 2.50631 1.203568 1.166695
H6 H 2.29377 1.156591 1.170789
H7 H 2.27200 1.230518 1.150540
F1 F 1.2122(8) 0.9156(2) 0.57402(18)
F2 F 1.5167(8) 0.9714(2) 0.65915(19)
F3 F 0.8515(9) 0.8213(3) 0.7236(2)
F4 F 1.1509(9) 0.8788(3) 0.8097(2)
C8 C 1.1928(13) 0.9051(4) 0.6317(3)
C9 C 1.3536(13) 0.9344(4) 0.6760(3)
C10 C 1.8668(13) 1.0219(4) 0.8500(3)
H8 H 1.891941 1.006727 0.808096
C11 C 2.0328(13) 1.0535(4) 0.8903(3)
H9 H 2.17182 1.060674 0.876214
C12 C 1.0125(13) 0.8593(4) 0.7069(3)
C13 C 1.1695(13) 0.8900(4) 0.7519(3)
C14 C 1.6254(12) 1.0344(4) 0.9320(3)
H10 H 1.484853 1.028765 0.945683
C15 C 1.7925(13) 1.0648(4) 0.9733(3)
H11 H 1.768699 1.078358 1.015420
I2 I 0.25869(7) 0.34003(2) 0.04968(2)
O2 O 1.3557(10) 0.5971(3) 0.5367(2)
N3 N 0.8587(11) 0.4544(3) 0.2921(3)
N4 N 0.7846(12) 0.4962(4) 0.3338(3)
C16 C 0.4553(12) 0.3807(4) 0.1298(3)
C17 C 0.7078(13) 0.4321(4) 0.2407(3)
C18 C 0.9393(12) 0.5190(4) 0.3842(3)
C19 C 1.2076(13) 0.5735(4) 0.4877(4)
C20 C 1.2866(14) 0.6479(4) 0.5852(3)
H12 H 1.153475 0.630779 0.601105
H13 H 1.255413 0.691194 0.569836
C21 C 1.4684(15) 0.6606(5) 0.6353(4)
H14 H 1.602571 0.675168 0.618201
H15 H 1.495329 0.617225 0.650974
C22 C 1.4128(17) 0.7166(5) 0.6882(4)
H16 H 1.401435 0.760810 0.673721
H17 H 1.526903 0.720967 0.721680
H18 H 1.274351 0.703877 0.703153
F5 F 0.7274(8) 0.3014(3) 0.1043(2)
F6 F 0.9668(8) 0.3494(3) 0.2076(2)
F7 F 0.1967(7) 0.4621(2) 0.1618(2)
F8 F 0.4280(8) 0.5115(2) 0.2645(2)
C23 C 0.6532(12) 0.3537(4) 0.1435(4)
C24 C 0.7761(12) 0.3787(4) 0.1973(4)
C25 C 1.1509(14) 0.4980(4) 0.3902(3)
H19 H 1.203569 0.465157 0.358624
C26 C 1.2847(13) 0.5246(4) 0.4418(4)
H20 H 1.428479 0.509754 0.446082
C27 C 0.3876(12) 0.4341(4) 0.1730(3)
C28 C 0.5080(12) 0.4591(4) 0.2272(3)
C29 C 0.8640(14) 0.5673(4) 0.4316(4)
H21 H 0.718925 0.581184 0.428201
C30 C 0.9981(14) 0.5948(4) 0.4831(4)
H22 H 0.946576 0.627798 0.514746
O3 O -1.0513(9) 0.0638(3) -0.4504(2)
N5 N -0.0014(12) 0.2722(4) -0.0514(3)
C31 C -0.2360(16) 0.2057(4) -0.1584(4)
C32 C -0.3529(15) 0.1767(4) -0.2185(4)
H23 H -0.278780 0.177928 -0.254497
C33 C -0.5570(16) 0.1487(5) -0.2258(4)
H24 H -0.625647 0.142479 -0.189930
C34 C -0.6798(16) 0.1271(4) -0.2855(4)
C35 C -0.9375(12) 0.0827(4) -0.3945(3)
C36 C -1.2459(12) 0.0231(4) -0.4524(3)
H25 H -1.295421 0.004943 -0.495198
H26 H -1.357190 0.051661 -0.432850
H27 H -1.219468 -0.015385 -0.430408
C37 C 0.0756(15) 0.2677(4) -0.1069(4)
H28 H 0.214290 0.288660 -0.109460
C38 C -0.0344(17) 0.2346(5) -0.1605(4)
H29 H 0.029745 0.231956 -0.198474
C39 C -0.6113(14) 0.1408(4) -0.3423(4)
H30 H -0.476609 0.164876 -0.343433
C40 C -0.7407(13) 0.1189(4) -0.3960(4)
H31 H -0.695647 0.128578 -0.433876
C41 C -0.1960(14) 0.2430(4) -0.0490(4)
H32 H -0.253786 0.245429 -0.010101
C42 C -0.3187(14) 0.2091(4) -0.1007(5)
H33 H -0.456926 0.188442 -0.097086
C43 C -0.8757(16) 0.0927(4) -0.2853(4)
H34 H -0.922961 0.083978 -0.247376
C44 C -1.0080(14) 0.0701(4) -0.3389(3)
H35 H -1.143482 0.046563 -0.337568
O4 O -0.5220(9) 0.5362(3) 0.0701(3)
N6 N 0.4730(12) 0.7642(4) 0.4762(3)
C47 C 0.2312(13) 0.6981(4) 0.3685(3)
C48 C 0.1116(13) 0.6614(4) 0.3124(3)
H38 H 0.178903 0.623394 0.289881
C49 C -0.0844(13) 0.6765(4) 0.2901(4)
H39 H -0.153262 0.714270 0.312362
C50 C -0.2006(12) 0.6386(4) 0.2334(3)
C51 C -0.4275(13) 0.5728(4) 0.1237(3)
C52 C -0.7179(14) 0.5601(5) 0.0449(4)
H40 H -0.764244 0.530029 0.005897
H41 H -0.693207 0.607468 0.037933
H42 H -0.830839 0.559015 0.073707
C53 C 0.5516(13) 0.7132(4) 0.4371(4)
H43 H 0.694214 0.699676 0.446441
C54 C 0.4397(13) 0.6787(4) 0.3842(4)
H44 H 0.503720 0.642245 0.358631
C55 C -0.1124(12) 0.5838(4) 0.1949(4)
H45 H 0.027179 0.569082 0.205843
C56 C -0.2245(12) 0.5510(4) 0.1414(4)
H46 H -0.163324 0.513301 0.116604
C57 C 0.2752(14) 0.7837(4) 0.4608(4)
H47 H 0.216990 0.820712 0.487225
C58 C 0.1493(14) 0.7530(4) 0.4082(4)
H48 H 0.009715 0.769041 0.399227
C59 C -0.4040(12) 0.6598(4) 0.2152(4)
H49 H -0.466121 0.697145 0.240162
C60 C -0.5187(13) 0.6268(4) 0.1604(4)
H50 H -0.657579 0.641533 0.148782
C45? C -0.465(9) 0.166(3) -0.193(3)
H36? H -0.578508 0.147683 -0.172552
C46? C -0.463(9) 0.164(3) -0.253(3)
H37? H -0.349557 0.182540 -0.272666
loop_
_geom_bond_atom_site_label_1
_geom_bond_atom_site_label_2
_geom_bond_site_symmetry_1
_geom_bond_site_symmetry_2
I1 C1 1_555 1_555
O1 C4 1_555 1_555
N1 N2 1_555 1_555
N2 C3 1_555 1_555
C1 C8 1_555 1_555
C2 N1 1_555 1_555
C3 C10 1_555 1_555
C4 C11 1_555 1_555
C5 O1 1_555 1_555
H1 C5 1_555 1_555
H2 C5 1_555 1_555
C6 C5 1_555 1_555
H3 C6 1_555 1_555
H4 C6 1_555 1_555
C7 C6 1_555 1_555
H5 C7 1_555 1_555
H6 C7 1_555 1_555
H7 C7 1_555 1_555
F1 C8 1_555 1_555
F2 C9 1_555 1_555
F3 C12 1_555 1_555
F4 C13 1_555 1_555
C8 C9 1_555 1_555
C9 C2 1_555 1_555
C10 H8 1_555 1_555
C11 C10 1_555 1_555
H9 C11 1_555 1_555
C12 C1 1_555 1_555
C13 C2 1_555 1_555
C14 C3 1_555 1_555
H10 C14 1_555 1_555
C15 C4 1_555 1_555
H11 C15 1_555 1_555
I2 C16 1_555 1_555
O2 C19 1_555 1_555
N3 N4 1_555 1_555
N4 C18 1_555 1_555
C16 C23 1_555 1_555
C17 N3 1_555 1_555
C18 C25 1_555 1_555
C19 C26 1_555 1_555
C20 O2 1_555 1_555
H12 C20 1_555 1_555
H13 C20 1_555 1_555
C21 C20 1_555 1_555
H14 C21 1_555 1_555
H15 C21 1_555 1_555
C22 C21 1_555 1_555
H16 C22 1_555 1_555
H17 C22 1_555 1_555
H18 C22 1_555 1_555
F5 C23 1_555 1_555
F6 C24 1_555 1_555
F7 C27 1_555 1_555
F8 C28 1_555 1_555
C23 C24 1_555 1_555
C24 C17 1_555 1_555
C25 H19 1_555 1_555
C26 C25 1_555 1_555
H20 C26 1_555 1_555
C27 C16 1_555 1_555
C28 C17 1_555 1_555
C29 C18 1_555 1_555
H21 C29 1_555 1_555
C30 C19 1_555 1_555
H22 C30 1_555 1_555
O3 C35 1_555 1_555
N5 C37 1_555 1_555
C31 C32 1_555 1_555
C32 H23 1_555 1_555
C33 C32 1_555 1_555
H24 C33 1_555 1_555
C34 C33 1_555 1_555
C35 C40 1_555 1_555
C36 O3 1_555 1_555
H25 C36 1_555 1_555
H26 C36 1_555 1_555
H27 C36 1_555 1_555
C37 H28 1_555 1_555
C38 C31 1_555 1_555
H29 C38 1_555 1_555
C39 C34 1_555 1_555
H30 C39 1_555 1_555
C40 C39 1_555 1_555
H31 C40 1_555 1_555
C41 N5 1_555 1_555
H32 C41 1_555 1_555
C42 C31 1_555 1_555
H33 C42 1_555 1_555
C43 C34 1_555 1_555
H34 C43 1_555 1_555
C44 C35 1_555 1_555
H35 C44 1_555 1_555
O4 C51 1_555 1_555
N6 C53 1_555 1_555
C47 C48 1_555 1_555
C48 H38 1_555 1_555
C49 C48 1_555 1_555
H39 C49 1_555 1_555
C50 C49 1_555 1_555
C51 C56 1_555 1_555
C52 O4 1_555 1_555
H40 C52 1_555 1_555
H41 C52 1_555 1_555
H42 C52 1_555 1_555
C53 H43 1_555 1_555
C54 C47 1_555 1_555
H44 C54 1_555 1_555
C55 C50 1_555 1_555
H45 C55 1_555 1_555
C56 C55 1_555 1_555
H46 C56 1_555 1_555
C57 N6 1_555 1_555
H47 C57 1_555 1_555
C58 C47 1_555 1_555
H48 C58 1_555 1_555
C59 C50 1_555 1_555
H49 C59 1_555 1_555
C60 C51 1_555 1_555
H50 C60 1_555 1_555
C12 C13 1_555 1_555
C14 C15 1_555 1_555
C27 C28 1_555 1_555
C29 C30 1_555 1_555
C37 C38 1_555 1_555
C41 C42 1_555 1_555
C43 C44 1_555 1_555
C53 C54 1_555 1_555
C57 C58 1_555 1_555
C59 C60 1_555 1_555

#END
