
#######################################################################
#
#                 Cambridge Crystallographic Data Centre
#                                CCDC 
#
#######################################################################
#
# If this CIF has been generated from an entry in the Cambridge 
# Structural Database, then it will include bibliographic, chemical, 
# crystal, experimental, refinement or atomic coordinate data resulting 
# from the CCDC's data processing and validation procedures.
#
#######################################################################

data_SOBXUF
_chemical_formula_moiety         'C15 H12 F3 I1 N2 O1,C14 H13 N1 O1'
_chemical_name_systematic        
'1-(4-propoxyphenyl)-2-(2,3,5-trifluoro-4-iodophenyl)diazene 4-[2-(4-methoxyphenyl)ethenyl]pyridine'
_symmetry_cell_setting           monoclinic
_symmetry_space_group_name_H-M   'P 21'
_symmetry_Int_Tables_number      4
_space_group_name_Hall           'P 2yb'
loop_
_symmetry_equiv_pos_site_id
_symmetry_equiv_pos_as_xyz
1 x,y,z
2 -x,1/2+y,-z
_cell_length_a                   6.5527(4)
_cell_length_b                   8.3651(5)
_cell_length_c                   24.1757(16)
_cell_angle_alpha                90
_cell_angle_beta                 97.7796(17)
_cell_angle_gamma                90
_cell_volume                     1312.97
_exptl_crystal_colour            orange
_exptl_crystal_description       tablet
_cell_formula_units_Z            2
loop_
_atom_site_label
_atom_site_type_symbol
_atom_site_fract_x
_atom_site_fract_y
_atom_site_fract_z
I1 I 0.40795(3) 0.21391(6) 0.29347(2)
O1 O -1.0342(5) 0.4600(4) -0.08711(13)
N1 N -0.3188(6) 0.4327(4) 0.10967(16)
N2 N -0.4831(5) 0.3528(4) 0.10438(15)
C1 C 0.1603(6) 0.2820(6) 0.23375(18)
C2 C -0.1700(7) 0.3781(5) 0.15400(18)
C3 C -0.6242(6) 0.3937(5) 0.05660(18)
C4 C -0.9089(6) 0.4358(5) -0.03857(17)
C5 C -1.2326(7) 0.3832(5) -0.09421(19)
H1 H -1.316688 0.423813 -0.066150
H2 H -1.215905 0.266326 -0.089107
C6 C -1.3383(7) 0.4196(6) -0.15260(19)
H3 H -1.249014 0.385049 -0.180308
H4 H -1.360306 0.536291 -0.156766
C7 C -1.5456(8) 0.3331(6) -0.1638(2)
H5 H -1.612536 0.359281 -0.201427
H6 H -1.633808 0.367286 -0.136316
H7 H -1.523268 0.217433 -0.160759
F1 F 0.3188(4) 0.5308(4) 0.22028(13)
F2 F 0.0063(5) 0.6224(4) 0.14541(15)
F3 F -0.0141(4) 0.0402(3) 0.24279(11)
C8 C 0.1597(7) 0.4302(6) 0.2078(2)
C9 C -0.0014(7) 0.4778(5) 0.16883(19)
C10 C -0.5795(6) 0.4993(5) 0.01477(18)
H8 H -0.453594 0.557199 0.018967
C11 C -0.7206(7) 0.5179(5) -0.03246(18)
H9 H -0.689947 0.587350 -0.061311
C12 C -0.0098(6) 0.1856(5) 0.21863(16)
C13 C -0.1739(6) 0.2276(8) 0.17991(15)
H10 H -0.286986 0.156957 0.170836
C14 C -0.8121(7) 0.3152(5) 0.05113(19)
H11 H -0.842339 0.245698 0.080010
C15 C -0.9568(6) 0.3363(5) 0.00425(19)
H12 H -1.086490 0.283966 0.001311
O2 O 2.0394(5) 0.1583(4) 0.70777(15)
N3 N 0.7439(6) 0.1480(5) 0.38005(16)
C16 C 1.0858(10) 0.1555(8) 0.4638(3)
C17 C 1.2929(16) 0.1245(12) 0.4985(4)
H13 H 1.388827 0.052886 0.485673
C18 C 1.3380(12) 0.2001(15) 0.5476(4)
H14 H 1.243888 0.272958 0.560532
C19 C 1.5438(10) 0.1648(9) 0.5814(3)
C20 C 1.8826(7) 0.1530(6) 0.6649(2)
C21 C 2.2051(7) 0.0462(7) 0.7062(3)
H15 H 2.14941 -0.062670 0.702967
H16 H 2.30265 0.055398 0.740519
H17 H 2.27614 0.069383 0.673913
C22 C 0.7423(8) 0.2339(8) 0.4265(2)
H18 H 0.622295 0.293984 0.430704
C23 C 0.9073(12) 0.2399(8) 0.4689(2)
H19 H 0.897988 0.301670 0.501479
C24 C 1.5554(8) 0.2610(8) 0.6278(4)
H20 H 1.445349 0.332768 0.631189
C25 C 1.7207(8) 0.2572(6) 0.6697(3)
H21 H 1.723710 0.324774 0.701430
C26 C 0.9156(8) 0.0670(7) 0.3753(2)
H22 H 0.920924 0.005573 0.342510
C27 C 1.0857(8) 0.0674(8) 0.4155(3)
H23 H 1.203848 0.006712 0.409941
C28 C 1.7057(12) 0.0623(8) 0.5779(2)
H24 H 1.700541 -0.005620 0.546229
C29 C 1.8773(8) 0.0535(6) 0.6189(2)
H25 H 1.987005 -0.018352 0.615355
C30? C 1.2205(17) 0.1956(16) 0.5188(4)
H26? H 1.175884 0.263981 0.546207
C31? C 1.400(2) 0.1286(14) 0.5250(5)
H27? H 1.442857 0.061340 0.497084
loop_
_geom_bond_atom_site_label_1
_geom_bond_atom_site_label_2
_geom_bond_site_symmetry_1
_geom_bond_site_symmetry_2
I1 C1 1_555 1_555
O1 C4 1_555 1_555
N1 N2 1_555 1_555
N2 C3 1_555 1_555
C1 C8 1_555 1_555
C2 N1 1_555 1_555
C3 C10 1_555 1_555
C4 C11 1_555 1_555
C5 O1 1_555 1_555
H1 C5 1_555 1_555
H2 C5 1_555 1_555
C6 C5 1_555 1_555
H3 C6 1_555 1_555
H4 C6 1_555 1_555
C7 C6 1_555 1_555
H5 C7 1_555 1_555
H6 C7 1_555 1_555
H7 C7 1_555 1_555
F1 C8 1_555 1_555
F2 C9 1_555 1_555
F3 C12 1_555 1_555
C8 C9 1_555 1_555
C9 C2 1_555 1_555
C10 H8 1_555 1_555
C11 C10 1_555 1_555
H9 C11 1_555 1_555
C12 C1 1_555 1_555
C13 C2 1_555 1_555
H10 C13 1_555 1_555
C14 C3 1_555 1_555
H11 C14 1_555 1_555
C15 C4 1_555 1_555
H12 C15 1_555 1_555
O2 C20 1_555 1_555
N3 C22 1_555 1_555
C16 C17 1_555 1_555
C17 H13 1_555 1_555
C18 C17 1_555 1_555
H14 C18 1_555 1_555
C19 C18 1_555 1_555
C20 C25 1_555 1_555
C21 O2 1_555 1_555
H15 C21 1_555 1_555
H16 C21 1_555 1_555
H17 C21 1_555 1_555
C22 H18 1_555 1_555
C23 C16 1_555 1_555
H19 C23 1_555 1_555
C24 C19 1_555 1_555
H20 C24 1_555 1_555
C25 C24 1_555 1_555
H21 C25 1_555 1_555
C26 N3 1_555 1_555
H22 C26 1_555 1_555
C27 C16 1_555 1_555
H23 C27 1_555 1_555
C28 C19 1_555 1_555
H24 C28 1_555 1_555
C29 C20 1_555 1_555
H25 C29 1_555 1_555
C12 C13 1_555 1_555
C14 C15 1_555 1_555
C22 C23 1_555 1_555
C26 C27 1_555 1_555
C28 C29 1_555 1_555

#END
