
#######################################################################
#
#                 Cambridge Crystallographic Data Centre
#                                CCDC 
#
#######################################################################
#
# If this CIF has been generated from an entry in the Cambridge 
# Structural Database, then it will include bibliographic, chemical, 
# crystal, experimental, refinement or atomic coordinate data resulting 
# from the CCDC's data processing and validation procedures.
#
#######################################################################

data_SOCJEZ
_chemical_formula_moiety         'C18 H21 N1 O1 S1'
_chemical_name_systematic        
2-(Butyrylmethylene)-N-(cyclohex-1-enyl)-2,3-dihydro-1,3-benzothiazole
_symmetry_cell_setting           triclinic
_symmetry_space_group_name_H-M   'P -1'
_symmetry_Int_Tables_number      2
_space_group_name_Hall           '-P 1'
loop_
_symmetry_equiv_pos_site_id
_symmetry_equiv_pos_as_xyz
1 x,y,z
2 -x,-y,-z
_cell_length_a                   9.562(1)
_cell_length_b                   12.487(2)
_cell_length_c                   8.070(1)
_cell_angle_alpha                95.77(1)
_cell_angle_beta                 110.03(1)
_cell_angle_gamma                110.79(1)
_cell_volume                     818.83
_exptl_crystal_colour            yellow
_chemical_melting_point          107-109deg.C
_cell_formula_units_Z            2
loop_
_atom_site_label
_atom_site_type_symbol
_atom_site_fract_x
_atom_site_fract_y
_atom_site_fract_z
S1 S 0.4463(2) 0.4194(1) 0.2722(2)
O1 O 0.7565(5) 0.5454(3) 0.3550(5)
N1 N 0.3450(6) 0.2628(4) -0.0231(5)
C1 C 0.2062(8) 0.2363(5) 0.0151(7)
C2 C 0.0527(8) 0.1464(6) -0.0833(8)
C3 C -0.0677(8) 0.1383(6) -0.0228(9)
C4 C -0.0361(9) 0.2163(7) 0.1353(9)
C5 C 0.1191(9) 0.3051(6) 0.2345(8)
C6 C 0.2411(8) 0.3166(5) 0.1741(7)
C7 C 0.4861(8) 0.3569(5) 0.0979(7)
C8 C 0.3440(7) 0.1861(5) -0.1739(7)
C9 C 0.2956(7) 0.2051(5) -0.3389(7)
C10 C 0.2807(8) 0.1220(5) -0.5003(7)
C11 C 0.2978(10) 0.0138(6) -0.4555(8)
C12 C 0.3998(12) 0.0202(7) -0.2838(9)
C13 C 0.3937(8) 0.0915(5) -0.1247(7)
C14 C 0.6339(8) 0.3970(5) 0.0869(7)
C15 C 0.7700(8) 0.4961(5) 0.2223(7)
C16 C 0.9303(8) 0.5384(5) 0.2015(8)
C17 C 1.0717(8) 0.6346(6) 0.3636(9)
C18 C 1.2309(9) 0.6716(6) 0.3430(10)
H1 H 0.030(1) 0.084(1) -0.203(1)
H2 H -0.190(1) 0.070(1) -0.100(1)
H3 H -0.133(1) 0.208(1) 0.181(1)
H4 H 0.146(1) 0.365(1) 0.358(1)
H5 H 0.266(1) 0.280(1) -0.357(1)
H6 H 0.378(1) 0.167(1) -0.541(1)
H7 H 0.164(1) 0.098(1) -0.612(1)
H8 H 0.330(1) -0.025(1) -0.554(1)
H9 H 0.178(1) -0.045(1) -0.470(1)
H10 H 0.376(1) -0.069(1) -0.268(1)
H11 H 0.522(1) 0.063(1) -0.278(1)
H12 H 0.512(1) 0.130(1) -0.012(1)
H13 H 0.305(1) 0.032(1) -0.084(1)
H14 H 0.626(1) 0.347(1) -0.032(1)
H15 H 0.961(1) 0.464(1) 0.182(1)
H16 H 0.917(1) 0.574(1) 0.084(1)
H17 H 1.084(1) 0.600(1) 0.482(1)
H18 H 1.043(1) 0.710(1) 0.381(1)
H19 H 1.323(1) 0.740(1) 0.464(1)
H20 H 1.215(1) 0.709(1) 0.227(1)
H21 H 1.270(1) 0.602(1) 0.323(1)
loop_
_geom_bond_atom_site_label_1
_geom_bond_atom_site_label_2
_geom_bond_site_symmetry_1
_geom_bond_site_symmetry_2
S1 C6 1_555 1_555
O1 C15 1_555 1_555
N1 C1 1_555 1_555
C1 C2 1_555 1_555
C2 C3 1_555 1_555
C3 C4 1_555 1_555
C4 C5 1_555 1_555
C5 C6 1_555 1_555
C6 C1 1_555 1_555
C7 S1 1_555 1_555
C8 N1 1_555 1_555
C9 C8 1_555 1_555
C10 C9 1_555 1_555
C11 C10 1_555 1_555
C12 C11 1_555 1_555
C13 C8 1_555 1_555
C14 C7 1_555 1_555
C15 C14 1_555 1_555
C16 C15 1_555 1_555
C17 C16 1_555 1_555
C18 C17 1_555 1_555
H1 C2 1_555 1_555
H2 C3 1_555 1_555
H3 C4 1_555 1_555
H4 C5 1_555 1_555
H5 C9 1_555 1_555
H6 C10 1_555 1_555
H7 C10 1_555 1_555
H8 C11 1_555 1_555
H9 C11 1_555 1_555
H10 C12 1_555 1_555
H11 C12 1_555 1_555
H12 C13 1_555 1_555
H13 C13 1_555 1_555
H14 C14 1_555 1_555
H15 C16 1_555 1_555
H16 C16 1_555 1_555
H17 C17 1_555 1_555
H18 C17 1_555 1_555
H19 C18 1_555 1_555
H20 C18 1_555 1_555
H21 C18 1_555 1_555
N1 C7 1_555 1_555
C12 C13 1_555 1_555

#END
