
#######################################################################
#
#                 Cambridge Crystallographic Data Centre
#                                CCDC 
#
#######################################################################
#
# If this CIF has been generated from an entry in the Cambridge 
# Structural Database, then it will include bibliographic, chemical, 
# crystal, experimental, refinement or atomic coordinate data resulting 
# from the CCDC's data processing and validation procedures.
#
#######################################################################

data_SOCMUT
_chemical_formula_moiety         'C21 H26 F1 N2 O4 P1 S1'
_chemical_name_systematic        
'di-n-propyl ((2-fluorophenyl)((6-methoxy-1,3-benzothiazol-2-yl)amino)methyl)phosphonate'
_chemical_properties_biological  
'Anticancer activities against PC3, A431, A375 and Bcap37 cells'
_symmetry_cell_setting           triclinic
_symmetry_space_group_name_H-M   'P -1'
_symmetry_Int_Tables_number      2
_space_group_name_Hall           '-P 1'
loop_
_symmetry_equiv_pos_site_id
_symmetry_equiv_pos_as_xyz
1 x,y,z
2 -x,-y,-z
_cell_length_a                   9.601(3)
_cell_length_b                   10.547(4)
_cell_length_c                   11.894(4)
_cell_angle_alpha                97.902(6)
_cell_angle_beta                 105.520(5)
_cell_angle_gamma                91.851(5)
_cell_volume                     1146.46
_chemical_melting_point          '171-173 deg.C'
_cell_formula_units_Z            2
loop_
_atom_site_label
_atom_site_type_symbol
_atom_site_fract_x
_atom_site_fract_y
_atom_site_fract_z
P1 P 0.39998(15) 0.30008(12) 0.83934(11)
S1 S 0.21745(15) 0.75382(12) 0.85654(10)
F1 F 0.4321(3) 0.2907(3) 0.5444(2)
N1 N 0.1788(4) 0.6014(3) 0.6573(3)
N2 N 0.3470(4) 0.5373(3) 0.8184(3)
H1 H 0.3861 0.5523 0.8933
O1 O 0.4919(5) 0.3372(3) 0.9574(3)
O2 O 0.4416(4) 0.1833(3) 0.7672(3)
O3 O 0.2350(6) 0.2533(5) 0.8265(5)
O4 O -0.1629(4) 1.0150(3) 0.6149(3)
C1 C 0.3856(5) 0.4261(4) 0.7490(3)
H2 H 0.3042 0.4006 0.6784
C2 C 0.5188(5) 0.4502(4) 0.7091(4)
C3 C 0.5365(5) 0.3822(4) 0.6063(4)
C4 C 0.6514(7) 0.4024(5) 0.5630(5)
H3 H 0.6589 0.3537 0.4938
C5 C 0.7552(8) 0.4962(6) 0.6241(7)
H4 H 0.8341 0.5128 0.5956
C6 C 0.7451(7) 0.5663(6) 0.7269(7)
H5 H 0.8173 0.6295 0.7684
C7 C 0.6270(6) 0.5427(5) 0.7686(5)
H6 H 0.6207 0.5906 0.8386
C8 C 0.2508(4) 0.6173(4) 0.7673(3)
C9 C 0.0879(4) 0.7008(4) 0.6351(3)
C10 C 0.0935(5) 0.7933(4) 0.7331(4)
C11 C 0.0087(6) 0.8964(5) 0.7233(4)
H7 H 0.0133 0.9569 0.7892
C12 C -0.0825(5) 0.9087(4) 0.6154(4)
C13 C -0.0896(5) 0.8198(4) 0.5177(4)
H8 H -0.1517 0.8289 0.4449
C14 C -0.0044(5) 0.7170(4) 0.5282(4)
H9 H -0.0093 0.6574 0.4617
C15 C -0.2623(6) 1.0317(5) 0.5077(5)
H10 H -0.2113 1.0389 0.4494
H11 H -0.3111 1.1083 0.5196
H12 H -0.3321 0.9591 0.4813
C16 C 0.5815(10) 0.1253(9) 0.7947(10)
H13 H 0.6336 0.1512 0.8771
H14 H 0.6406 0.1520 0.7463
C17 C 0.5463(18) -0.0233(10) 0.7675(16)
H15 H 0.4467 -0.0434 0.7667
H16 H 0.5578 -0.0558 0.6904
C18 C 0.648(3) -0.0863(17) 0.862(2)
H17 H 0.6078 -0.1706 0.8621
H18 H 0.6615 -0.0354 0.9375
H19 H 0.7404 -0.0929 0.8445
C19 C 0.1250(16) 0.3338(16) 0.850(2)
H20 H 0.0890 0.3781 0.7828
H21 H 0.1694 0.3984 0.9176
C20 C -0.0019(17) 0.265(3) 0.874(3)
H22 H -0.0583 0.2123 0.8016
H23 H -0.0638 0.3279 0.8983
C21 C 0.050(2) 0.180(2) 0.9707(19)
H24 H -0.0314 0.1328 0.9803
H25 H 0.0988 0.2339 1.0439
H26 H 0.1164 0.1221 0.9483
C22? C 0.4725(17) 0.0677(10) 0.8236(13)
H27? H 0.3968 0.0006 0.7846
H28? H 0.4716 0.0870 0.9056
C23? C 0.6171(17) 0.0199(16) 0.818(2)
H29? H 0.6855 0.0362 0.8959
H30? H 0.6553 0.0643 0.7653
C24? C 0.595(3) -0.1268(18) 0.772(3)
H31? H 0.6543 -0.1483 0.7197
H32? H 0.4952 -0.1494 0.7308
H33? H 0.6228 -0.1732 0.8378
C25? C 0.1686(15) 0.252(3) 0.9178(14)
H34? H 0.2099 0.3245 0.9792
H35? H 0.1885 0.1743 0.9519
C26? C 0.0042(12) 0.2607(17) 0.8747(16)
H36? H -0.0269 0.2405 0.7892
H37? H -0.0440 0.1975 0.9063
C27? C -0.040(3) 0.392(2) 0.912(3)
H38? H -0.1436 0.3916 0.8886
H39? H 0.0004 0.4534 0.8748
H40? H -0.0045 0.4140 0.9961
loop_
_geom_bond_atom_site_label_1
_geom_bond_atom_site_label_2
_geom_bond_site_symmetry_1
_geom_bond_site_symmetry_2
P1 O1 1_555 1_555
S1 C8 1_555 1_555
F1 C3 1_555 1_555
N1 C8 1_555 1_555
N2 H1 1_555 1_555
O2 P1 1_555 1_555
O3 P1 1_555 1_555
O4 C12 1_555 1_555
C1 P1 1_555 1_555
H2 C1 1_555 1_555
C2 C1 1_555 1_555
C3 C2 1_555 1_555
C4 C3 1_555 1_555
H3 C4 1_555 1_555
C5 C4 1_555 1_555
H4 C5 1_555 1_555
C6 C5 1_555 1_555
H5 C6 1_555 1_555
C7 C2 1_555 1_555
H6 C7 1_555 1_555
C8 N2 1_555 1_555
C9 N1 1_555 1_555
C10 S1 1_555 1_555
C11 C10 1_555 1_555
H7 C11 1_555 1_555
C12 C11 1_555 1_555
C13 C12 1_555 1_555
H8 C13 1_555 1_555
C14 C9 1_555 1_555
H9 C14 1_555 1_555
C15 O4 1_555 1_555
H10 C15 1_555 1_555
H11 C15 1_555 1_555
H12 C15 1_555 1_555
C16 O2 1_555 1_555
H13 C16 1_555 1_555
H14 C16 1_555 1_555
C17 C16 1_555 1_555
H15 C17 1_555 1_555
H16 C17 1_555 1_555
C18 C17 1_555 1_555
H17 C18 1_555 1_555
H18 C18 1_555 1_555
H19 C18 1_555 1_555
C19 O3 1_555 1_555
H20 C19 1_555 1_555
H21 C19 1_555 1_555
C20 C19 1_555 1_555
H22 C20 1_555 1_555
H23 C20 1_555 1_555
C21 C20 1_555 1_555
H24 C21 1_555 1_555
H25 C21 1_555 1_555
H26 C21 1_555 1_555
N2 C1 1_555 1_555
C6 C7 1_555 1_555
C9 C10 1_555 1_555
C13 C14 1_555 1_555

#END
