
#######################################################################
#
#                 Cambridge Crystallographic Data Centre
#                                CCDC 
#
#######################################################################
#
# If this CIF has been generated from an entry in the Cambridge 
# Structural Database, then it will include bibliographic, chemical, 
# crystal, experimental, refinement or atomic coordinate data resulting 
# from the CCDC's data processing and validation procedures.
#
#######################################################################

data_SODZIW
_chemical_formula_moiety         'C20 H18 N4 O2'
_chemical_name_systematic        
2-(6-methoxypyridin-2-yl)-1-((6-methoxypyridin-2-yl)methyl)benzimidazole
_symmetry_cell_setting           monoclinic
_symmetry_space_group_name_H-M   'P 21/c'
_symmetry_Int_Tables_number      14
_space_group_name_Hall           '-P 2ybc'
loop_
_symmetry_equiv_pos_site_id
_symmetry_equiv_pos_as_xyz
1 x,y,z
2 -x,1/2+y,1/2-z
3 -x,-y,-z
4 x,1/2-y,1/2+z
_cell_length_a                   11.532(2)
_cell_length_b                   13.619(3)
_cell_length_c                   11.371(2)
_cell_angle_alpha                90
_cell_angle_beta                 95.74(3)
_cell_angle_gamma                90
_cell_volume                     1776.91
_exptl_crystal_colour            colorless
_exptl_crystal_description       block
_cell_formula_units_Z            4
loop_
_atom_site_label
_atom_site_type_symbol
_atom_site_fract_x
_atom_site_fract_y
_atom_site_fract_z
C1 C 0.85086(16) 0.05734(15) -0.04464(18)
H1 H 0.7874 0.0346 -0.0989
H2 H 0.9227 0.0497 -0.0796
H3 H 0.8394 0.1254 -0.0270
C2 C 0.75964(13) 0.00169(12) 0.12120(14)
C3 C 0.76406(15) -0.05695(12) 0.22118(15)
H4 H 0.8289 -0.0956 0.2441
C4 C 0.67000(15) -0.05590(12) 0.28459(15)
H5 H 0.6700 -0.0937 0.3527
C5 C 0.57432(13) 0.00166(12) 0.24744(13)
H6 H 0.5095 0.0033 0.2899
C6 C 0.57753(12) 0.05640(10) 0.14594(12)
C7 C 0.47538(11) 0.11704(11) 0.10399(10)
C8 C 0.30384(12) 0.17968(12) 0.09459(11)
C9 C 0.18979(13) 0.20492(13) 0.11055(13)
H7 H 0.1527 0.1780 0.1720
C10 C 0.13321(13) 0.27060(14) 0.03337(14)
H8 H 0.0565 0.2876 0.0422
C11 C 0.18846(13) 0.31214(13) -0.05769(13)
H9 H 0.1479 0.3570 -0.1078
C12 C 0.30117(12) 0.28897(11) -0.07594(12)
H10 H 0.3381 0.3171 -0.1367
C13 C 0.35700(11) 0.22103(11) 0.00163(11)
C14 C 0.55147(11) 0.20170(11) -0.07592(11)
H11 H 0.5096 0.2235 -0.1495
H12 H 0.5927 0.1420 -0.0923
C15 C 0.63932(11) 0.27909(11) -0.03398(12)
C16 C 0.63232(14) 0.33687(13) 0.06349(14)
H13 H 0.5708 0.3301 0.1099
C17 C 0.71953(17) 0.40606(14) 0.09139(17)
H14 H 0.7168 0.4465 0.1570
C18 C 0.80910(16) 0.41428(14) 0.02208(18)
H15 H 0.8688 0.4595 0.0395
C19 C 0.80766(12) 0.35276(12) -0.07524(15)
C20 C 0.89729(16) 0.29707(17) -0.24143(19)
H16 H 0.9125 0.2314 -0.2133
H17 H 0.9569 0.3167 -0.2898
H18 H 0.8228 0.2993 -0.2873
O1 O 0.85542(9) 0.00125(9) 0.06189(11)
O2 O 0.89700(9) 0.36227(9) -0.14313(12)
N1 N 0.66993(10) 0.05743(9) 0.08265(10)
N2 N 0.72628(10) 0.28699(9) -0.10395(10)
N3 N 0.37947(10) 0.11558(10) 0.15754(9)
N4 N 0.46744(9) 0.17927(9) 0.00760(9)
loop_
_geom_bond_atom_site_label_1
_geom_bond_atom_site_label_2
_geom_bond_site_symmetry_1
_geom_bond_site_symmetry_2
C1 H1 1_555 1_555
H2 C1 1_555 1_555
H3 C1 1_555 1_555
C2 C3 1_555 1_555
C3 H4 1_555 1_555
C4 C3 1_555 1_555
H5 C4 1_555 1_555
C5 C4 1_555 1_555
H6 C5 1_555 1_555
C6 C5 1_555 1_555
C7 C6 1_555 1_555
C8 C9 1_555 1_555
C9 H7 1_555 1_555
C10 C9 1_555 1_555
H8 C10 1_555 1_555
C11 C10 1_555 1_555
H9 C11 1_555 1_555
C12 C11 1_555 1_555
H10 C12 1_555 1_555
C13 C8 1_555 1_555
C14 H11 1_555 1_555
H12 C14 1_555 1_555
C15 C14 1_555 1_555
C16 C15 1_555 1_555
H13 C16 1_555 1_555
C17 C16 1_555 1_555
H14 C17 1_555 1_555
C18 C17 1_555 1_555
H15 C18 1_555 1_555
C19 C18 1_555 1_555
C20 H16 1_555 1_555
H17 C20 1_555 1_555
H18 C20 1_555 1_555
O1 C1 1_555 1_555
O2 C19 1_555 1_555
N1 C2 1_555 1_555
N2 C15 1_555 1_555
N3 C7 1_555 1_555
N4 C7 1_555 1_555
C2 O1 1_555 1_555
C6 N1 1_555 1_555
C8 N3 1_555 1_555
C12 C13 1_555 1_555
C13 N4 1_555 1_555
C14 N4 1_555 1_555
C19 N2 1_555 1_555
C20 O2 1_555 1_555

#END
