
#######################################################################
#
#                 Cambridge Crystallographic Data Centre
#                                CCDC 
#
#######################################################################
#
# If this CIF has been generated from an entry in the Cambridge 
# Structural Database, then it will include bibliographic, chemical, 
# crystal, experimental, refinement or atomic coordinate data resulting 
# from the CCDC's data processing and validation procedures.
#
#######################################################################

data_SOFLOQ
_chemical_formula_moiety         'C19 H21 N1 O7'
_chemical_name_systematic        
'diethyl 3-hydroxy-5-methyl-2-(2-oxo-2,3-dihydro-1H-indol-3-yl)-2,3-dihydrofuran-2,4-dicarboxylate'
_symmetry_cell_setting           triclinic
_symmetry_space_group_name_H-M   'P -1'
_symmetry_Int_Tables_number      2
_space_group_name_Hall           '-P 1'
loop_
_symmetry_equiv_pos_site_id
_symmetry_equiv_pos_as_xyz
1 x,y,z
2 -x,-y,-z
_cell_length_a                   9.5837(3)
_cell_length_b                   11.3154(4)
_cell_length_c                   19.3217(5)
_cell_angle_alpha                93.114(3)
_cell_angle_beta                 102.490(2)
_cell_angle_gamma                113.855(3)
_cell_volume                     1847.22
_cell_formula_units_Z            4
loop_
_atom_site_label
_atom_site_type_symbol
_atom_site_fract_x
_atom_site_fract_y
_atom_site_fract_z
C1 C 0.4819(2) 0.46688(17) 0.32112(9)
C2 C 0.6120(2) 0.51873(16) 0.39300(9)
H1 H 0.5731 0.462 0.429
C3 C 0.7433(2) 0.49367(16) 0.37440(9)
C4 C 0.8906(2) 0.51439(18) 0.41488(10)
H2 H 0.9257 0.5531 0.464
C5 C 0.9878(2) 0.4782(2) 0.38323(11)
H3 H 1.0891 0.4914 0.411
C6 C 0.9374(2) 0.42268(19) 0.31111(11)
H4 H 1.0052 0.399 0.29
C7 C 0.7891(2) 0.40150(18) 0.26961(10)
H5 H 0.7548 0.3647 0.2202
C8 C 0.6933(2) 0.43542(16) 0.30213(9)
C9 C 0.6591(2) 0.66163(17) 0.42430(9)
C10 C 0.5215(2) 0.68754(17) 0.44221(9)
H6 H 0.4904 0.7428 0.4091
C11 C 0.6001(2) 0.76190(17) 0.51745(9)
C12 C 0.7393(2) 0.75663(17) 0.54129(9)
C13 C 0.7364(2) 0.76052(17) 0.37738(9)
C14 C 0.7126(3) 0.7967(2) 0.25577(11)
H7 H 0.8224 0.8127 0.2565
H8 H 0.7093 0.882 0.2662
C15 C 0.6037(3) 0.7251(3) 0.18451(11)
H9 H 0.6076 0.6407 0.175
H10 H 0.6361 0.7771 0.1471
H11 H 0.4956 0.7104 0.1845
C16 C 0.5271(2) 0.82103(18) 0.55798(9)
C17 C 0.3164(3) 0.8842(2) 0.55020(11)
H12 H 0.3874 0.9742 0.5754
H13 H 0.2738 0.83 0.5858
C18 C 0.1843(2) 0.8855(2) 0.49292(12)
H14 H 0.2275 0.9354 0.4567
H15 H 0.1276 0.9264 0.5143
H16 H 0.1114 0.7955 0.4703
C19 C 0.8613(2) 0.80905(19) 0.61142(9)
H17 H 0.9248 0.9029 0.6138
H18 H 0.93 0.7635 0.6159
H19 H 0.8094 0.7952 0.6507
H20 H 0.489(3) 0.391(2) 0.2318(13)
H21 H 0.351(3) 0.531(3) 0.4013(14)
N1 N 0.53802(19) 0.41905(15) 0.27361(8)
O1 O 0.34998(15) 0.46506(14) 0.30976(7)
O2 O 0.84544(18) 0.86505(14) 0.39935(8)
O3 O 0.65898(16) 0.71433(13) 0.30887(6)
O4 O 0.38798(15) 0.57231(13) 0.44377(7)
O5 O 0.57062(17) 0.85929(15) 0.62244(7)
O6 O 0.40235(15) 0.82978(14) 0.51552(7)
O7 O 0.77715(14) 0.69270(12) 0.49203(6)
C20 C 0.1598(2) 1.02592(17) 0.17969(9)
C21 C 0.1763(2) 0.97621(16) 0.10689(9)
H22 H 0.1602 1.0344 0.0719
C22 C 0.3476(2) 1.00057(16) 0.12425(9)
C23 C 0.4387(2) 0.98056(18) 0.08302(10)
H23 H 0.3937 0.9439 0.0336
C24 C 0.5980(2) 1.0148(2) 0.11457(11)
H24 H 0.662 1.0016 0.0865
C25 C 0.6636(2) 1.0681(2) 0.18693(11)
H25 H 0.772 1.0904 0.2078
C26 C 0.5729(2) 1.08930(18) 0.22904(10)
H26 H 0.6174 1.1251 0.2785
C27 C 0.4167(2) 1.05669(17) 0.19676(9)
C28 C 0.0579(2) 0.83413(17) 0.07447(9)
C29 C -0.1192(2) 0.81098(18) 0.05740(9)
H27 H -0.175 0.7547 0.0899
C30 C -0.1786(2) 0.73978(17) -0.01866(9)
C31 C -0.0568(2) 0.74385(17) -0.04332(9)
C32 C 0.0793(2) 0.73270(18) 0.11996(10)
C33 C 0.1458(3) 0.6960(2) 0.24039(11)
H28 H 0.0447 0.6194 0.237
H29 H 0.2224 0.6639 0.2301
C34 C 0.2065(4) 0.7732(3) 0.31225(13)
H30 H 0.3067 0.8484 0.3151
H31 H 0.2238 0.7188 0.3479
H32 H 0.1298 0.8042 0.3219
C35 C -0.3436(2) 0.68484(19) -0.05872(10)
C36 C -0.6069(2) 0.6227(2) -0.04958(12)
H33 H -0.6455 0.5344 -0.0774
H34 H -0.6279 0.6808 -0.0828
C37 C -0.6889(3) 0.6161(2) 0.00844(13)
H35 H -0.664 0.5612 0.042
H36 H -0.8034 0.5784 -0.0127
H37 H -0.6533 0.7045 0.0342
C38 C -0.0472(3) 0.6931(2) -0.11404(10)
H38 H -0.0238 0.6168 -0.1096
H39 H 0.0369 0.7615 -0.1294
H40 H -0.1483 0.6677 -0.1497
H41 H 0.321(3) 1.103(2) 0.2711(13)
H42 H -0.107(3) 0.964(2) 0.1028(14)
N2 N 0.30383(19) 1.07297(15) 0.22655(8)
O8 O 0.03986(16) 1.02607(14) 0.19234(7)
O9 O 0.0552(2) 0.62486(14) 0.09619(8)
O10 O 0.12159(19) 0.78055(13) 0.18903(7)
O11 O -0.14066(16) 0.92756(13) 0.05779(7)
O12 O -0.39313(19) 0.65184(16) -0.12362(7)
O13 O -0.43848(16) 0.67398(14) -0.01561(7)
O14 O 0.08613(15) 0.80422(12) 0.00630(6)
loop_
_geom_bond_atom_site_label_1
_geom_bond_atom_site_label_2
_geom_bond_site_symmetry_1
_geom_bond_site_symmetry_2
C1 C2 1_555 1_555
C2 H1 1_555 1_555
C3 C2 1_555 1_555
C4 C3 1_555 1_555
H2 C4 1_555 1_555
C5 C4 1_555 1_555
H3 C5 1_555 1_555
C6 C5 1_555 1_555
H4 C6 1_555 1_555
C7 C6 1_555 1_555
H5 C7 1_555 1_555
C8 C3 1_555 1_555
C9 C2 1_555 1_555
C10 C9 1_555 1_555
H6 C10 1_555 1_555
C11 C10 1_555 1_555
C12 C11 1_555 1_555
C13 C9 1_555 1_555
C14 H7 1_555 1_555
H8 C14 1_555 1_555
C15 C14 1_555 1_555
H9 C15 1_555 1_555
H10 C15 1_555 1_555
H11 C15 1_555 1_555
C16 C11 1_555 1_555
C17 H12 1_555 1_555
H13 C17 1_555 1_555
C18 C17 1_555 1_555
H14 C18 1_555 1_555
H15 C18 1_555 1_555
H16 C18 1_555 1_555
C19 C12 1_555 1_555
H17 C19 1_555 1_555
H18 C19 1_555 1_555
H19 C19 1_555 1_555
H20 N1 1_555 1_555
H21 O4 1_555 1_555
N1 C1 1_555 1_555
O1 C1 1_555 1_555
O2 C13 1_555 1_555
O3 C13 1_555 1_555
O4 C10 1_555 1_555
O5 C16 1_555 1_555
O6 C16 1_555 1_555
O7 C9 1_555 1_555
C20 C21 1_555 1_555
C21 H22 1_555 1_555
C22 C21 1_555 1_555
C23 C22 1_555 1_555
H23 C23 1_555 1_555
C24 C23 1_555 1_555
H24 C24 1_555 1_555
C25 C24 1_555 1_555
H25 C25 1_555 1_555
C26 C25 1_555 1_555
H26 C26 1_555 1_555
C27 C22 1_555 1_555
C28 C21 1_555 1_555
C29 C28 1_555 1_555
H27 C29 1_555 1_555
C30 C29 1_555 1_555
C31 C30 1_555 1_555
C32 C28 1_555 1_555
C33 H28 1_555 1_555
H29 C33 1_555 1_555
C34 C33 1_555 1_555
H30 C34 1_555 1_555
H31 C34 1_555 1_555
H32 C34 1_555 1_555
C35 C30 1_555 1_555
C36 H33 1_555 1_555
H34 C36 1_555 1_555
C37 C36 1_555 1_555
H35 C37 1_555 1_555
H36 C37 1_555 1_555
H37 C37 1_555 1_555
C38 C31 1_555 1_555
H38 C38 1_555 1_555
H39 C38 1_555 1_555
H40 C38 1_555 1_555
H41 N2 1_555 1_555
H42 O11 1_555 1_555
N2 C20 1_555 1_555
O8 C20 1_555 1_555
O9 C32 1_555 1_555
O10 C32 1_555 1_555
O11 C29 1_555 1_555
O12 C35 1_555 1_555
O13 C35 1_555 1_555
O14 C28 1_555 1_555
C7 C8 1_555 1_555
C8 N1 1_555 1_555
C12 O7 1_555 1_555
C14 O3 1_555 1_555
C17 O6 1_555 1_555
C26 C27 1_555 1_555
C27 N2 1_555 1_555
C31 O14 1_555 1_555
C33 O10 1_555 1_555
C36 O13 1_555 1_555

#END
