
#######################################################################
#
#                 Cambridge Crystallographic Data Centre
#                                CCDC 
#
#######################################################################
#
# If this CIF has been generated from an entry in the Cambridge 
# Structural Database, then it will include bibliographic, chemical, 
# crystal, experimental, refinement or atomic coordinate data resulting 
# from the CCDC's data processing and validation procedures.
#
#######################################################################

data_SOFRAH
_chemical_formula_moiety         'C17 H18 O4'
_chemical_name_systematic        trans-3,4,5-trimethoxy-4'-hydroxystilbene
_symmetry_cell_setting           orthorhombic
_symmetry_space_group_name_H-M   'P 21 21 21'
_symmetry_Int_Tables_number      19
_space_group_name_Hall           'P 2ac 2ab'
loop_
_symmetry_equiv_pos_site_id
_symmetry_equiv_pos_as_xyz
1 x,y,z
2 1/2-x,-y,1/2+z
3 -x,1/2+y,1/2-z
4 1/2+x,1/2-y,-z
_cell_length_a                   5.3692(4)
_cell_length_b                   13.1524(11)
_cell_length_c                   22.0043(18)
_cell_angle_alpha                90
_cell_angle_beta                 90
_cell_angle_gamma                90
_cell_volume                     1553.9
_exptl_crystal_colour            colorless
_exptl_crystal_description       block
_cell_formula_units_Z            4
_exptl_crystal_recrystallization_method 'Anhydrous ethanol'
loop_
_atom_site_label
_atom_site_type_symbol
_atom_site_fract_x
_atom_site_fract_y
_atom_site_fract_z
O1 O 0.6581(5) 0.82186(16) 1.16978(9)
H1 H 0.7517 0.8082 1.1981
O2 O 0.8281(5) 0.17545(19) 0.86356(11)
O3 O 0.5388(4) 0.19580(15) 0.76678(9)
O4 O 0.2362(5) 0.35488(16) 0.75366(10)
C1 C 0.6756(6) 0.7484(2) 1.12646(13)
C2 C 0.8614(6) 0.6768(3) 1.12513(14)
H2 H 0.9840 0.6772 1.1550
C3 C 0.8682(6) 0.6041(2) 1.07985(14)
H3 H 0.9962 0.5565 1.0796
C4 C 0.6864(6) 0.6006(2) 1.03442(13)
C5 C 0.5025(6) 0.6742(2) 1.03626(14)
H4 H 0.3800 0.6747 1.0064
C6 C 0.4968(6) 0.7473(2) 1.08159(13)
H5 H 0.3712 0.7960 1.0817
C7 C 0.6964(6) 0.5207(2) 0.98813(13)
H6 H 0.8304 0.4761 0.9903
C8 C 0.5354(7) 0.5052(2) 0.94362(14)
H7 H 0.4055 0.5517 0.9405
C9 C 0.5388(7) 0.4227(2) 0.89858(13)
C10 C 0.6917(7) 0.3379(2) 0.90453(14)
H8 H 0.7965 0.3322 0.9380
C11 C 0.6890(7) 0.2620(2) 0.86114(14)
C12 C 0.5341(6) 0.2704(2) 0.81127(13)
C13 C 0.3798(6) 0.3543(2) 0.80488(14)
C14 C 0.3802(6) 0.4295(2) 0.84890(14)
H9 H 0.2736 0.4849 0.8452
C15 C 0.9856(11) 0.1619(4) 0.91425(19)
H10 H 1.0986 0.2183 0.9171
H11 H 1.0785 0.1000 0.9096
H12 H 0.8869 0.1582 0.9506
C16 C 0.3444(7) 0.1220(3) 0.77028(19)
H13 H 0.3636 0.0827 0.8067
H14 H 0.3529 0.0779 0.7356
H15 H 0.1860 0.1559 0.7709
C17 C 0.0657(7) 0.4360(3) 0.74610(18)
H16 H -0.0487 0.4369 0.7796
H17 H -0.0249 0.4268 0.7089
H18 H 0.1550 0.4992 0.7447
loop_
_geom_bond_atom_site_label_1
_geom_bond_atom_site_label_2
_geom_bond_site_symmetry_1
_geom_bond_site_symmetry_2
O1 H1 1_555 1_555
O2 C11 1_555 1_555
O3 C12 1_555 1_555
O4 C13 1_555 1_555
C1 O1 1_555 1_555
C2 C1 1_555 1_555
H2 C2 1_555 1_555
C3 C2 1_555 1_555
H3 C3 1_555 1_555
C4 C3 1_555 1_555
C5 C4 1_555 1_555
H4 C5 1_555 1_555
C6 C1 1_555 1_555
H5 C6 1_555 1_555
C7 C4 1_555 1_555
H6 C7 1_555 1_555
C8 C7 1_555 1_555
H7 C8 1_555 1_555
C9 C8 1_555 1_555
C10 C9 1_555 1_555
H8 C10 1_555 1_555
C11 C10 1_555 1_555
C12 C11 1_555 1_555
C13 C12 1_555 1_555
C14 C9 1_555 1_555
H9 C14 1_555 1_555
C15 O2 1_555 1_555
H10 C15 1_555 1_555
H11 C15 1_555 1_555
H12 C15 1_555 1_555
C16 O3 1_555 1_555
H13 C16 1_555 1_555
H14 C16 1_555 1_555
H15 C16 1_555 1_555
C17 O4 1_555 1_555
H16 C17 1_555 1_555
H17 C17 1_555 1_555
H18 C17 1_555 1_555
C5 C6 1_555 1_555
C13 C14 1_555 1_555

#END
