
#######################################################################
#
#                 Cambridge Crystallographic Data Centre
#                                CCDC 
#
#######################################################################
#
# If this CIF has been generated from an entry in the Cambridge 
# Structural Database, then it will include bibliographic, chemical, 
# crystal, experimental, refinement or atomic coordinate data resulting 
# from the CCDC's data processing and validation procedures.
#
#######################################################################

data_SOGTOX
_chemical_formula_moiety         'C33 H36 O6'
_chemical_name_systematic        
'cis,cis-1,3,5-Tribenzylcyclohexane-1,3,5-tricarboxylic acid trimethylester'
_symmetry_cell_setting           monoclinic
_symmetry_space_group_name_H-M   'P 21/n'
_symmetry_Int_Tables_number      14
_space_group_name_Hall           '-P 2yn'
loop_
_symmetry_equiv_pos_site_id
_symmetry_equiv_pos_as_xyz
1 x,y,z
2 1/2-x,1/2+y,1/2-z
3 -x,-y,-z
4 1/2+x,1/2-y,1/2+z
_cell_length_a                   11.732(4)
_cell_length_b                   19.401(4)
_cell_length_c                   13.046(3)
_cell_angle_alpha                90
_cell_angle_beta                 104.91(2)
_cell_angle_gamma                90
_cell_volume                     2869.46
_exptl_crystal_colour            colorless
_cell_formula_units_Z            4
loop_
_atom_site_label
_atom_site_type_symbol
_atom_site_fract_x
_atom_site_fract_y
_atom_site_fract_z
O1 O 0.3865(7) 0.9260(3) 0.4769(5)
O2 O 0.5539(8) 0.8708(3) 0.5481(5)
O3 O 0.1635(7) 0.8630(3) 0.3296(5)
O4 O 0.1375(6) 0.9475(3) 0.4389(4)
O5 O 0.4192(8) 0.7875(4) 0.3736(5)
O6 O 0.2556(7) 0.7293(3) 0.2956(5)
C1 C 0.3903(11) 0.8375(5) 0.6112(7)
C2 C 0.2670(10) 0.8584(5) 0.6074(6)
C3 C 0.1639(9) 0.8350(5) 0.5114(7)
C4 C 0.1820(10) 0.7585(5) 0.4863(7)
C5 C 0.3022(11) 0.7355(5) 0.4836(7)
C6 C 0.3986(10) 0.7608(5) 0.5817(6)
C7 C 0.4418(12) 0.8819(6) 0.5363(8)
C8 C 0.1568(10) 0.8813(5) 0.4164(7)
C9 C 0.3367(11) 0.7564(6) 0.3810(8)
C10 C 0.6104(9) 0.9028(5) 0.4770(7)
C11 C 0.1348(10) 0.9962(5) 0.3545(8)
C12 C 0.2754(10) 0.7471(6) 0.1948(7)
C13 C 0.4713(10) 0.8473(5) 0.7267(6)
C14 C 0.4787(11) 0.9204(6) 0.7698(7)
C15 C 0.4103(11) 0.9416(6) 0.8338(8)
C16 C 0.4175(16) 1.0085(8) 0.8727(10)
C17 C 0.4928(15) 1.0541(8) 0.8477(10)
C18 C 0.5627(13) 1.0349(7) 0.7844(10)
C19 C 0.5547(12) 0.9665(7) 0.7455(8)
C20 C 0.0479(10) 0.8438(6) 0.5435(7)
C21 C -0.0649(11) 0.8245(7) 0.4619(8)
C22 C -0.1165(13) 0.7618(8) 0.4667(10)
C23 C -0.2246(16) 0.7460(8) 0.3959(14)
C24 C -0.2771(17) 0.7907(13) 0.3161(13)
C25 C -0.2210(16) 0.8506(11) 0.3077(12)
C26 C -0.1192(12) 0.8688(7) 0.3813(9)
C27 C 0.3062(10) 0.6540(5) 0.4857(8)
C28 C 0.4192(12) 0.6232(5) 0.4800(9)
C29 C 0.5095(13) 0.6074(6) 0.5734(9)
C30 C 0.6123(14) 0.5799(6) 0.5712(10)
C31 C 0.6423(12) 0.5669(5) 0.4746(11)
C32 C 0.5504(16) 0.5816(6) 0.3821(11)
C33 C 0.4521(14) 0.6089(6) 0.3855(9)
H1 H 0.2498 0.8403 0.6703
H2 H 0.2657 0.9078 0.6095
H3 H 0.1301 0.7489 0.4179
H4 H 0.1589 0.7314 0.5392
H5 H 0.4739 0.7541 0.5668
H6 H 0.3942 0.7332 0.6416
H7 H 0.6924 0.8904 0.4961
H8 H 0.6030 0.9519 0.4805
H9 H 0.5747 0.8874 0.4060
H10 H 0.1213 1.0417 0.3777
H11 H 0.0727 0.9842 0.2934
H12 H 0.2091 0.9950 0.3365
H13 H 0.2155 0.7265 0.1389
H14 H 0.3515 0.7305 0.1917
H15 H 0.2727 0.7963 0.1866
H16 H 0.5497 0.8335 0.7262
H17 H 0.4425 0.8178 0.7735
H18 H 0.3556 0.9102 0.8524
H19 H 0.3694 1.0227 0.9183
H20 H 0.4968 1.1005 0.8741
H21 H 0.6167 1.0669 0.7661
H22 H 0.6041 0.9519 0.7013
H23 H 0.0414 0.8913 0.5616
H24 H 0.0528 0.8156 0.6050
H25 H -0.0785 0.7281 0.5182
H26 H -0.2634 0.7033 0.4029
H27 H -0.3515 0.7799 0.2677
H28 H -0.2539 0.8810 0.2495
H29 H -0.0838 0.9129 0.3759
H30 H 0.2452 0.6373 0.4270
H31 H 0.2909 0.6390 0.5509
H32 H 0.4950 0.6178 0.6408
H33 H 0.6673 0.5684 0.6372
H34 H 0.7182 0.5495 0.4725
H35 H 0.5631 0.5710 0.3139
H36 H 0.3973 0.6203 0.3194
loop_
_geom_bond_atom_site_label_1
_geom_bond_atom_site_label_2
_geom_bond_site_symmetry_1
_geom_bond_site_symmetry_2
O1 C7 1_555 1_555
O2 C7 1_555 1_555
O3 C8 1_555 1_555
O4 C8 1_555 1_555
O5 C9 1_555 1_555
O6 C9 1_555 1_555
C1 C2 1_555 1_555
C2 C3 1_555 1_555
C3 C4 1_555 1_555
C4 C5 1_555 1_555
C5 C6 1_555 1_555
C6 C1 1_555 1_555
C7 C1 1_555 1_555
C8 C3 1_555 1_555
C9 C5 1_555 1_555
C10 O2 1_555 1_555
C11 O4 1_555 1_555
C12 O6 1_555 1_555
C13 C1 1_555 1_555
C14 C13 1_555 1_555
C15 C14 1_555 1_555
C16 C15 1_555 1_555
C17 C16 1_555 1_555
C18 C17 1_555 1_555
C19 C14 1_555 1_555
C20 C3 1_555 1_555
C21 C20 1_555 1_555
C22 C21 1_555 1_555
C23 C22 1_555 1_555
C24 C23 1_555 1_555
C25 C24 1_555 1_555
C26 C21 1_555 1_555
C27 C5 1_555 1_555
C28 C27 1_555 1_555
C29 C28 1_555 1_555
C30 C29 1_555 1_555
C31 C30 1_555 1_555
C32 C31 1_555 1_555
C33 C28 1_555 1_555
H1 C2 1_555 1_555
H2 C2 1_555 1_555
H3 C4 1_555 1_555
H4 C4 1_555 1_555
H5 C6 1_555 1_555
H6 C6 1_555 1_555
H7 C10 1_555 1_555
H8 C10 1_555 1_555
H9 C10 1_555 1_555
H10 C11 1_555 1_555
H11 C11 1_555 1_555
H12 C11 1_555 1_555
H13 C12 1_555 1_555
H14 C12 1_555 1_555
H15 C12 1_555 1_555
H16 C13 1_555 1_555
H17 C13 1_555 1_555
H18 C15 1_555 1_555
H19 C16 1_555 1_555
H20 C17 1_555 1_555
H21 C18 1_555 1_555
H22 C19 1_555 1_555
H23 C20 1_555 1_555
H24 C20 1_555 1_555
H25 C22 1_555 1_555
H26 C23 1_555 1_555
H27 C24 1_555 1_555
H28 C25 1_555 1_555
H29 C26 1_555 1_555
H30 C27 1_555 1_555
H31 C27 1_555 1_555
H32 C29 1_555 1_555
H33 C30 1_555 1_555
H34 C31 1_555 1_555
H35 C32 1_555 1_555
H36 C33 1_555 1_555
C18 C19 1_555 1_555
C25 C26 1_555 1_555
C32 C33 1_555 1_555

#END
