
#######################################################################
#
#                 Cambridge Crystallographic Data Centre
#                                CCDC 
#
#######################################################################
#
# If this CIF has been generated from an entry in the Cambridge 
# Structural Database, then it will include bibliographic, chemical, 
# crystal, experimental, refinement or atomic coordinate data resulting 
# from the CCDC's data processing and validation procedures.
#
#######################################################################

data_SOJPUC
_chemical_name_common            'Fluorescein dihexanoate'
_chemical_formula_moiety         'C32 H32 O7'
_chemical_name_systematic        
"3-Oxo-spiro(isobenzofuran-1(3H),9'-(9H)xanthene)-3',6'-diyl dihexanoate"
_symmetry_cell_setting           orthorhombic
_symmetry_space_group_name_H-M   'P b c a'
_symmetry_Int_Tables_number      61
_space_group_name_Hall           '-P 2ac 2ab'
loop_
_symmetry_equiv_pos_site_id
_symmetry_equiv_pos_as_xyz
1 x,y,z
2 1/2-x,1/2+y,z
3 x,1/2-y,1/2+z
4 1/2-x,-y,1/2+z
5 -x,-y,-z
6 1/2+x,1/2-y,-z
7 -x,1/2+y,1/2-z
8 1/2+x,y,1/2-z
_cell_length_a                   21.864(3)
_cell_length_b                   19.222(3)
_cell_length_c                   13.117(3)
_cell_angle_alpha                90
_cell_angle_beta                 90
_cell_angle_gamma                90
_cell_volume                     5512.68
_exptl_crystal_colour            colorless
_chemical_melting_point          377-378K
_cell_formula_units_Z            8
loop_
_atom_site_label
_atom_site_type_symbol
_atom_site_fract_x
_atom_site_fract_y
_atom_site_fract_z
O1 O 0.1691(2) -0.1436(2) 0.4660(3)
C1 C 0.1574(2) -0.0916(3) 0.3947(4)
C2 C 0.1534(2) -0.0229(2) 0.4184(4)
C3 C 0.1667(2) 0.0037(2) 0.5252(4)
C4 C 0.1859(2) -0.0544(3) 0.5952(4)
C5 C 0.1856(2) -0.1230(3) 0.5633(4)
C6 C 0.1395(3) 0.0236(3) 0.3396(4)
C7 C 0.1316(3) 0.0000(3) 0.2412(4)
C8 C 0.1378(2) -0.0697(3) 0.2215(4)
C9 C 0.1502(2) -0.1175(3) 0.2962(4)
C10 C 0.2042(2) -0.0408(3) 0.6951(4)
C11 C 0.2217(2) -0.0934(3) 0.7603(2)
C12 C 0.2209(2) -0.1612(3) 0.7240(4)
C13 C 0.2031(3) -0.1777(3) 0.6271(4)
O2 O 0.1348(2) -0.0899(2) 0.1185(3)
O3 O 0.0609(3) -0.1614(4) 0.1415(4)
C14 C 0.0971(3) -0.1367(4) 0.0850(5)
C15 C 0.1033(3) -0.1532(4) -0.0234(4)
C16 C 0.0464(4) -0.1575(5) -0.0824(5)
C17 C 0.0517(3) -0.1682(4) -0.1943(5)
C18 C -0.0009(4) -0.1547(5) -0.2548(6)
C19 C 0.0034(4) -0.1672(4) -0.3632(6)
O4 O 0.2352(2) -0.2164(2) 0.7888(3)
O5 O 0.3344(2) -0.1920(2) 0.7812(4)
C20 C 0.2951(2) -0.2280(3) 0.8111(4)
C21 C 0.3003(3) -0.2922(3) 0.8761(5)
C22 C 0.3630(3) -0.3041(3) 0.9206(5)
C23 C 0.3631(3) -0.3653(4) 0.9943(6)
C24 C 0.3539(5) -0.4325(4) 0.9470(6)
C25 C 0.4057(7) -0.4566(5) 0.8888(9)
C26 C 0.1152(2) 0.0477(4) 0.5690(4)
C27 C 0.1358(2) 0.1142(3) 0.5860(4)
C28 C 0.2006(3) 0.1179(3) 0.5532(4)
O6 O 0.2344(2) 0.1659(2) 0.5533(4)
O7 O 0.2178(2) 0.0543(2) 0.5169(3)
C29 C 0.0564(2) 0.0283(3) 0.5943(4)
C30 C 0.0188(3) 0.0788(3) 0.6356(5)
C31 C 0.0400(3) 0.1462(3) 0.6525(5)
C32 C 0.0984(3) 0.1644(3) 0.6277(4)
H1 H 0.0546 -0.0156 0.5625
H2 H 0.1406 0.0820 0.3535
H3 H 0.2070 0.0175 0.7070
H4 H 0.1250 0.0332 0.1875
H5 H 0.2343 -0.0820 0.8320
H6 H -0.0292 0.0683 0.6464
H7 H 0.0000 0.1835 0.6875
H8 H 0.2070 -0.2324 0.5820
H9 H 0.1093 0.2167 0.6445
H10 H 0.1542 -0.1679 0.2910
H11 H 0.2656 -0.2988 0.9160
H12 H 0.2929 -0.3320 0.8320
H13 H 0.1386 -0.1152 -0.0625
H14 H 0.1250 -0.1992 -0.0429
H15 H 0.0136 -0.1816 -0.0429
H16 H 0.4042 -0.2988 0.8750
H17 H 0.3750 -0.2500 0.9570
H18 H 0.0273 -0.0996 -0.0625
H19 H 0.0629 -0.2174 -0.2065
H20 H 0.0866 -0.1420 -0.2219
H21 H 0.3325 -0.3588 1.0458
H22 H 0.4024 -0.3672 1.0294
H23 H -0.0292 -0.1660 -0.2285
H24 H 0.0000 -0.0996 -0.2500
H25 H 0.3177 -0.4308 0.9041
H26 H 0.3463 -0.4684 0.9973
H27 H -0.0345 -0.1579 -0.3991
H28 H 0.0354 -0.1448 -0.3958
H29 H 0.0097 -0.2185 -0.3738
H30 H 0.3935 -0.5001 0.8546
H31 H 0.4099 -0.4231 0.8324
H32 H 0.4384 -0.4607 0.9256
loop_
_geom_bond_atom_site_label_1
_geom_bond_atom_site_label_2
_geom_bond_site_symmetry_1
_geom_bond_site_symmetry_2
O1 C1 1_555 1_555
C1 C2 1_555 1_555
C2 C3 1_555 1_555
C3 C4 1_555 1_555
C4 C5 1_555 1_555
C5 O1 1_555 1_555
C6 C2 1_555 1_555
C7 C6 1_555 1_555
C8 C7 1_555 1_555
C9 C1 1_555 1_555
C10 C4 1_555 1_555
C11 C10 1_555 1_555
C12 C11 1_555 1_555
C13 C5 1_555 1_555
O2 C8 1_555 1_555
O3 C14 1_555 1_555
C14 O2 1_555 1_555
C15 C14 1_555 1_555
C16 C15 1_555 1_555
C17 C16 1_555 1_555
C18 C17 1_555 1_555
C19 C18 1_555 1_555
O4 C12 1_555 1_555
O5 C20 1_555 1_555
C20 O4 1_555 1_555
C21 C20 1_555 1_555
C22 C21 1_555 1_555
C23 C22 1_555 1_555
C24 C23 1_555 1_555
C25 C24 1_555 1_555
C26 C3 1_555 1_555
C27 C26 1_555 1_555
C28 C27 1_555 1_555
O6 C28 1_555 1_555
O7 C3 1_555 1_555
C29 C26 1_555 1_555
C30 C29 1_555 1_555
C31 C30 1_555 1_555
C32 C27 1_555 1_555
H1 C29 1_555 1_555
H2 C6 1_555 1_555
H3 C10 1_555 1_555
H4 C7 1_555 1_555
H5 C11 1_555 1_555
H6 C30 1_555 1_555
H7 C31 1_555 1_555
H8 C13 1_555 1_555
H9 C32 1_555 1_555
H10 C9 1_555 1_555
H11 C21 1_555 1_555
H12 C21 1_555 1_555
H13 C15 1_555 1_555
H14 C15 1_555 1_555
H15 C16 1_555 1_555
H16 C22 1_555 1_555
H17 C22 1_555 1_555
H18 C16 1_555 1_555
H19 C17 1_555 1_555
H20 C17 1_555 1_555
H21 C23 1_555 1_555
H22 C23 1_555 1_555
H23 C18 1_555 1_555
H24 C18 1_555 1_555
H25 C24 1_555 1_555
H26 C24 1_555 1_555
H27 C19 1_555 1_555
H28 C19 1_555 1_555
H29 C19 1_555 1_555
H30 C25 1_555 1_555
H31 C25 1_555 1_555
H32 C25 1_555 1_555
C8 C9 1_555 1_555
C12 C13 1_555 1_555
C28 O7 1_555 1_555
C31 C32 1_555 1_555

#END
