
#######################################################################
#
#                 Cambridge Crystallographic Data Centre
#                                CCDC 
#
#######################################################################
#
# If this CIF has been generated from an entry in the Cambridge 
# Structural Database, then it will include bibliographic, chemical, 
# crystal, experimental, refinement or atomic coordinate data resulting 
# from the CCDC's data processing and validation procedures.
#
#######################################################################

data_SOJVAP
_chemical_formula_moiety         
'C80 H86 Cs1 N4 O10 1+,F1 1-,2(C1 H1 Cl3),C1 H4 O1,H2 O1'
_chemical_name_systematic        
'(25,27-(1,2-Ethylbis(oxyethoxyethoxy))-26,28-((5,10,10,15,20,20-hexamethylporphyrin-5,15-diyl)bis(1,4-phenyleneoxyethoxy))calix(4)arene)-cesium fluoride chloroform methanol solvate monohydrate'
_symmetry_cell_setting           orthorhombic
_symmetry_space_group_name_H-M   'P b c a'
_symmetry_Int_Tables_number      61
_space_group_name_Hall           '-P 2ac 2ab'
loop_
_symmetry_equiv_pos_site_id
_symmetry_equiv_pos_as_xyz
1 x,y,z
2 1/2-x,-y,1/2+z
3 1/2+x,1/2-y,-z
4 -x,1/2+y,1/2-z
5 -x,-y,-z
6 1/2+x,y,1/2-z
7 1/2-x,1/2+y,z
8 x,1/2-y,1/2+z
_cell_length_a                   20.6700(5)
_cell_length_b                   27.1980(7)
_cell_length_c                   28.7260(9)
_cell_angle_alpha                90
_cell_angle_beta                 90
_cell_angle_gamma                90
_cell_volume                     16149.3
_cell_formula_units_Z            8
loop_
_atom_site_label
_atom_site_type_symbol
_atom_site_fract_x
_atom_site_fract_y
_atom_site_fract_z
Cs1 Cs 0.32393(6) 0.49311(5) 0.17092(5)
O1 O 0.4985(6) 0.3844(5) -0.0441(5)
O2 O 0.1591(6) 0.2709(6) 0.0379(5)
O3 O 0.1896(6) 0.3689(5) 0.0753(5)
O4 O 0.4258(5) 0.3795(5) 0.0494(4)
O5 O 0.2971(6) 0.5070(6) 0.0632(5)
O6 O 0.3035(12) 0.5936(11) 0.1179(9)
O7 O 0.3359(6) 0.3827(5) 0.1909(5)
O8 O 0.374(2) 0.534(2) 0.2673(18)
O9 O 0.3206(12) 0.4433(11) 0.2668(9)
N1 N 0.4442(7) 0.1656(6) -0.1281(6)
N2 N 0.3153(7) 0.1117(6) -0.0909(6)
N3 N 0.3533(7) 0.2410(6) -0.1877(6)
N4 N 0.2278(7) 0.1847(6) -0.1514(6)
C1 C 0.4728(11) 0.0407(9) -0.0711(9)
C2 C 0.4395(10) 0.1206(9) -0.0324(8)
C3 C 0.4603(9) 0.1169(9) -0.1203(8)
C4 C 0.5082(10) 0.1028(9) -0.1507(8)
C5 C 0.5197(10) 0.1442(8) -0.1804(8)
C6 C 0.4790(9) 0.1825(8) -0.1658(7)
C7 C 0.5215(10) 0.3013(8) -0.0686(8)
C8 C 0.5147(9) 0.2643(8) -0.1038(7)
C9 C 0.4785(8) 0.2731(7) -0.1437(7)
C10 C 0.4130(9) 0.2425(8) -0.2106(7)
C11 C 0.4578(9) 0.3553(8) -0.1155(7)
C12 C 0.3343(9) 0.2647(8) -0.2616(7)
C13 C 0.3054(9) 0.2546(8) -0.2190(7)
C14 C 0.2351(9) 0.2576(8) -0.2046(7)
C15 C 0.2310(10) 0.2936(9) -0.1611(8)
C16 C 0.2082(9) 0.2084(8) -0.1921(7)
C17 C 0.1605(9) 0.1800(8) -0.2115(8)
C18 C 0.1479(10) 0.1384(9) -0.1803(8)
C19 C 0.2102(10) 0.1984(9) 0.0127(8)
C20 C 0.2200(9) 0.1614(8) -0.0186(7)
C21 C 0.1356(9) 0.0802(8) -0.0928(7)
C22 C 0.1840(8) 0.1592(7) -0.0612(7)
C23 C 0.1662(9) 0.2354(8) 0.0034(7)
C24 C 0.1920(8) 0.1435(7) -0.1442(6)
C25 C 0.2548(9) 0.0885(8) -0.0881(7)
C26 C 0.2630(9) 0.0398(8) -0.0812(7)
C27 C 0.3631(9) 0.0756(8) -0.0829(7)
C28 C 0.3323(9) 0.0301(8) -0.0762(7)
C29 C 0.5322(10) 0.2443(9) -0.2171(8)
C30 C 0.5261(9) 0.3764(8) 0.0011(7)
C31 C 0.4916(9) 0.3460(8) -0.0750(7)
C32 C 0.1967(10) 0.2792(9) -0.2456(8)
C33 C 0.1307(10) 0.3136(9) 0.0244(8)
C34 C 0.4319(9) 0.0906(8) -0.0777(7)
C35 C 0.4750(9) 0.2349(8) -0.1828(7)
C36 C 0.4032(9) 0.2583(8) -0.2560(8)
C37 C 0.4509(9) 0.3187(8) -0.1498(8)
C38 C 0.1933(8) 0.1182(7) -0.0979(7)
C39 C 0.1393(9) 0.1961(8) -0.0688(7)
C40 C 0.1291(9) 0.2352(8) -0.0367(8)
C41 C 0.1583(10) 0.4880(9) 0.1303(9)
C42 C 0.1849(8) 0.4051(8) 0.1089(7)
C43 C 0.1254(11) 0.3496(9) 0.0662(8)
C44 C 0.1604(10) 0.4726(10) 0.1763(9)
C45 C 0.1796(10) 0.4272(9) 0.1904(8)
C46 C 0.2098(10) 0.3397(9) 0.1710(8)
C47 C 0.2750(11) 0.3214(10) 0.1495(9)
C48 C 0.294(2) 0.4763(18) 0.3070(16)
C49 C 0.348(2) 0.401(2) 0.2745(18)
C50 C 0.3910(9) 0.3265(8) 0.1399(7)
C51 C 0.4559(9) 0.3538(8) 0.1479(8)
C52 C 0.4807(9) 0.4432(8) 0.1562(8)
C53 C 0.4584(9) 0.4037(8) 0.1279(7)
C54 C 0.421(3) 0.568(3) 0.265(2)
O11 O 0.3675(13) 0.6074(11) 0.2007(10)
C55 C 0.3413(10) 0.4273(9) -0.0324(9)
C56 C 0.3474(8) 0.4581(7) 0.0048(7)
C57 C 0.4146(9) 0.4767(8) 0.0182(7)
C58 C 0.4399(9) 0.4636(8) 0.0656(7)
C59 C 0.4620(10) 0.5028(9) 0.0952(8)
C60 C 0.4844(9) 0.4900(8) 0.1400(8)
C61 C 0.4426(9) 0.4148(8) 0.0805(7)
C62 C 0.2879(11) 0.5571(10) 0.0457(9)
C63 C 0.257(2) 0.5882(16) 0.0884(15)
C64 C 0.2820(9) 0.4091(8) -0.0456(8)
C65 C 0.2318(9) 0.4540(8) 0.0175(7)
C66 C 0.2259(10) 0.4237(9) -0.0205(8)
C67 C 0.1700(10) 0.4689(9) 0.0443(8)
C68 C 0.323(3) 0.643(3) 0.136(3)
C69 C 0.4193(18) 0.6074(15) 0.2272(14)
C70 C 0.3440(14) 0.3646(13) 0.2376(12)
C71 C 0.3894(10) 0.2853(9) 0.1106(8)
C72 C 0.3310(10) 0.2611(9) 0.1013(8)
C73 C 0.2734(10) 0.2799(9) 0.1188(8)
C74 C 0.4808(10) 0.3490(8) 0.0356(8)
C75 C 0.1922(10) 0.3909(9) 0.1552(8)
C76 C 0.1720(10) 0.4534(8) 0.0947(8)
C77 C 0.3352(9) 0.3422(8) 0.1590(7)
C78 C 0.2932(10) 0.4718(8) 0.0269(8)
C80 C 0.367(3) 0.494(3) 0.310(2)
C83 C 0.3761(18) 0.6403(15) 0.1645(15)
F1 F 0.3344(5) 0.2104(4) -0.0978(4)
Cl1 Cl 0.0845(10) 0.5813(8) 0.2533(7)
Cl2 Cl 0.2170(8) 0.5958(7) 0.2263(6)
Cl3 Cl 0.1810(11) 0.5792(10) 0.3222(9)
C79 C 0.157(2) 0.613(2) 0.2606(19)
O10 O 0.4681(10) 0.2234(9) 0.0228(8)
O12 O 0.8565(7) 0.2547(6) 0.0153(6)
C82 C 0.8291(11) 0.2063(9) 0.0170(9)
Cl4? Cl 0.5364(8) 0.1985(7) 0.1463(6)
Cl5? Cl 0.4278(12) 0.1336(11) 0.1288(10)
Cl6? Cl 0.5536(10) 0.1134(9) 0.0865(8)
C81? C 0.516(4) 0.172(4) 0.123(3)
loop_
_geom_bond_atom_site_label_1
_geom_bond_atom_site_label_2
_geom_bond_site_symmetry_1
_geom_bond_site_symmetry_2
Cs1 O5 1_555 1_555
Cl1 C79 1_555 1_555
Cl2 C79 1_555 1_555
Cl3 C79 1_555 1_555
O1 C30 1_555 1_555
O2 C23 1_555 1_555
O3 C42 1_555 1_555
O4 C61 1_555 1_555
O5 C62 1_555 1_555
O6 Cs1 1_555 1_555
O7 Cs1 1_555 1_555
O8 Cs1 1_555 1_555
O9 Cs1 1_555 1_555
N1 C3 1_555 1_555
N2 C25 1_555 1_555
N3 C10 1_555 1_555
N4 C16 1_555 1_555
C1 C34 1_555 1_555
C2 C34 1_555 1_555
C3 C4 1_555 1_555
C4 C5 1_555 1_555
C5 C6 1_555 1_555
C6 N1 1_555 1_555
C7 C8 1_555 1_555
C8 C9 1_555 1_555
C9 C35 1_555 1_555
C10 C35 1_555 1_555
C11 C31 1_555 1_555
C12 C13 1_555 1_555
C13 N3 1_555 1_555
C14 C13 1_555 1_555
C15 C14 1_555 1_555
C16 C14 1_555 1_555
C17 C16 1_555 1_555
C18 C17 1_555 1_555
C19 C20 1_555 1_555
C20 C22 1_555 1_555
C21 C38 1_555 1_555
C22 C38 1_555 1_555
C23 C19 1_555 1_555
C24 N4 1_555 1_555
C25 C26 1_555 1_555
C26 C28 1_555 1_555
C27 N2 1_555 1_555
C28 C27 1_555 1_555
C29 C35 1_555 1_555
C30 C74 1_555 1_555
C31 O1 1_555 1_555
C32 C14 1_555 1_555
C33 O2 1_555 1_555
C34 C3 1_555 1_555
C35 C6 1_555 1_555
C36 C10 1_555 1_555
C37 C9 1_555 1_555
C38 C24 1_555 1_555
C39 C22 1_555 1_555
C40 C23 1_555 1_555
C41 C44 1_555 1_555
C42 C75 1_555 1_555
C43 O3 1_555 1_555
C44 C45 1_555 1_555
C45 C75 1_555 1_555
C46 C47 1_555 1_555
C47 C73 1_555 1_555
C48 O9 1_555 1_555
C49 O9 1_555 1_555
C50 C51 1_555 1_555
C51 C53 1_555 1_555
C52 C53 1_555 1_555
C53 C61 1_555 1_555
C54 O8 1_555 1_555
O11 Cs1 1_555 1_555
C55 C56 1_555 1_555
C56 C57 1_555 1_555
C57 C58 1_555 1_555
C58 C59 1_555 1_555
C59 C60 1_555 1_555
C60 C52 1_555 1_555
C61 C58 1_555 1_555
C62 C63 1_555 1_555
C63 O6 1_555 1_555
C64 C55 1_555 1_555
C65 C66 1_555 1_555
C66 C64 1_555 1_555
C67 C65 1_555 1_555
C68 O6 1_555 1_555
C69 C54 1_555 1_555
C70 O7 1_555 1_555
C71 C50 1_555 1_555
C72 C71 1_555 1_555
C73 C72 1_555 1_555
C74 O4 1_555 1_555
C75 C46 1_555 1_555
C76 C41 1_555 1_555
C77 O7 1_555 1_555
C78 O5 1_555 1_555
C80 O8 1_555 1_555
O12 C82 1_555 1_555
C83 O11 1_555 1_555
C7 C31 1_555 1_555
C11 C37 1_555 1_555
C12 C36 1_555 1_555
C18 C24 1_555 1_555
C25 C38 1_555 1_555
C27 C34 1_555 1_555
C33 C43 1_555 1_555
C39 C40 1_555 1_555
C42 C76 1_555 1_555
C47 C77 1_555 1_555
C48 C80 1_555 1_555
C49 C70 1_555 1_555
C50 C77 1_555 1_555
O11 C69 1_555 1_555
C56 C78 1_555 1_555
C65 C78 1_555 1_555
C67 C76 1_555 1_555
C68 C83 1_555 1_555

#END
