
#######################################################################
#
#                 Cambridge Crystallographic Data Centre
#                                CCDC 
#
#######################################################################
#
# If this CIF has been generated from an entry in the Cambridge 
# Structural Database, then it will include bibliographic, chemical, 
# crystal, experimental, refinement or atomic coordinate data resulting 
# from the CCDC's data processing and validation procedures.
#
#######################################################################

data_SOKBEB
_chemical_formula_moiety         'C24 H18 O2'
_chemical_name_systematic        
4-(2-acetylphenyl)-7-methyl-5H-dibenzo[a,c][7]annulen-5-one
_symmetry_cell_setting           monoclinic
_symmetry_space_group_name_H-M   'P 21/c'
_symmetry_Int_Tables_number      14
_space_group_name_Hall           '-P 2ybc'
loop_
_symmetry_equiv_pos_site_id
_symmetry_equiv_pos_as_xyz
1 x,y,z
2 -x,1/2+y,1/2-z
3 -x,-y,-z
4 x,1/2-y,1/2+z
_cell_length_a                   11.264(2)
_cell_length_b                   7.0576(14)
_cell_length_c                   22.435(5)
_cell_angle_alpha                90
_cell_angle_beta                 93.75(3)
_cell_angle_gamma                90
_cell_volume                     1779.69
_exptl_crystal_colour            colorless
_exptl_crystal_description       plane
_cell_formula_units_Z            4
_exptl_crystal_recrystallization_method 'Vapour Deposition'
loop_
_atom_site_label
_atom_site_type_symbol
_atom_site_fract_x
_atom_site_fract_y
_atom_site_fract_z
O1 O -0.17680(16) 0.1794(4) 0.08419(10)
O2 O 0.23483(15) 0.3142(3) 0.21351(7)
C1 C -0.00516(19) 0.0628(4) 0.13640(10)
C2 C -0.0651(2) -0.0603(4) 0.17269(12)
H1 H -0.1469 -0.0479 0.1748
C3 C -0.0058(2) -0.1993(5) 0.20532(12)
H2 H -0.0465 -0.2773 0.2304
C4 C 0.1139(2) -0.2224(5) 0.20066(12)
H3 H 0.1542 -0.3181 0.2221
C5 C 0.1749(2) -0.1054(4) 0.16448(11)
H4 H 0.2559 -0.1248 0.1612
C6 C 0.11808(19) 0.0417(4) 0.13268(10)
C7 C -0.0771(2) 0.2143(4) 0.10529(11)
C8 C -0.0327(3) 0.4115(6) 0.10393(16)
H5 H -0.0900 0.4897 0.0820
H6 H 0.0412 0.4144 0.0849
H7 H -0.0203 0.4584 0.1440
C9 C 0.18441(19) 0.1592(4) 0.09092(10)
C10 C 0.1625(2) 0.1317(4) 0.03015(11)
H8 H 0.1072 0.0410 0.0167
C11 C 0.2207(2) 0.2356(5) -0.01084(11)
H9 H 0.2066 0.2115 -0.0514
C12 C 0.2991(2) 0.3741(4) 0.00795(11)
H10 H 0.3351 0.4476 -0.0202
C13 C 0.32629(19) 0.4073(4) 0.06877(10)
C14 C 0.27075(18) 0.2944(4) 0.11041(10)
C15 C 0.3070(2) 0.3108(4) 0.17518(10)
C16 C 0.4348(2) 0.2951(4) 0.19126(10)
H11 H 0.4580 0.1997 0.2181
C17 C 0.5215(2) 0.4027(4) 0.17154(10)
C18 C 0.4961(2) 0.5672(4) 0.13158(11)
C19 C 0.40463(19) 0.5707(4) 0.08617(10)
C20 C 0.3846(2) 0.7370(4) 0.05338(12)
H12 H 0.3239 0.7399 0.0232
C21 C 0.4524(3) 0.8968(5) 0.06450(14)
H13 H 0.4355 1.0077 0.0432
C22 C 0.5457(3) 0.8914(5) 0.10748(15)
H14 H 0.5938 0.9973 0.1144
C23 C 0.5671(2) 0.7291(5) 0.13990(13)
H15 H 0.6309 0.7263 0.1684
C24 C 0.6477(2) 0.3656(6) 0.19361(13)
H16 H 0.6507 0.2558 0.2190
H17 H 0.6783 0.4732 0.2158
H18 H 0.6950 0.3438 0.1602
loop_
_geom_bond_atom_site_label_1
_geom_bond_atom_site_label_2
_geom_bond_site_symmetry_1
_geom_bond_site_symmetry_2
O1 C7 1_555 1_555
O2 C15 1_555 1_555
C1 C2 1_555 1_555
C2 H1 1_555 1_555
C3 C2 1_555 1_555
H2 C3 1_555 1_555
C4 C3 1_555 1_555
H3 C4 1_555 1_555
C5 C4 1_555 1_555
H4 C5 1_555 1_555
C6 C1 1_555 1_555
C7 C1 1_555 1_555
C8 C7 1_555 1_555
H5 C8 1_555 1_555
H6 C8 1_555 1_555
H7 C8 1_555 1_555
C9 C6 1_555 1_555
C10 C9 1_555 1_555
H8 C10 1_555 1_555
C11 C10 1_555 1_555
H9 C11 1_555 1_555
C12 C11 1_555 1_555
H10 C12 1_555 1_555
C13 C12 1_555 1_555
C14 C9 1_555 1_555
C15 C14 1_555 1_555
C16 C15 1_555 1_555
H11 C16 1_555 1_555
C17 C16 1_555 1_555
C18 C17 1_555 1_555
C19 C13 1_555 1_555
C20 C19 1_555 1_555
H12 C20 1_555 1_555
C21 C20 1_555 1_555
H13 C21 1_555 1_555
C22 C21 1_555 1_555
H14 C22 1_555 1_555
C23 C18 1_555 1_555
H15 C23 1_555 1_555
C24 C17 1_555 1_555
H16 C24 1_555 1_555
H17 C24 1_555 1_555
H18 C24 1_555 1_555
C5 C6 1_555 1_555
C13 C14 1_555 1_555
C18 C19 1_555 1_555
C22 C23 1_555 1_555

#END
