
#######################################################################
#
#                 Cambridge Crystallographic Data Centre
#                                CCDC 
#
#######################################################################
#
# If this CIF has been generated from an entry in the Cambridge 
# Structural Database, then it will include bibliographic, chemical, 
# crystal, experimental, refinement or atomic coordinate data resulting 
# from the CCDC's data processing and validation procedures.
#
#######################################################################

data_SOLGOR02
_chemical_formula_moiety         'C7 H11 N2 1+,C7 H6 N1 O2 1-,2(H2 O1)'
_chemical_name_systematic        
'4-(Dimethylamino)pyridinium 4-aminobenzoate dihydrate'
_symmetry_cell_setting           triclinic
_symmetry_space_group_name_H-M   'P -1'
_symmetry_Int_Tables_number      2
_space_group_name_Hall           '-P 1'
loop_
_symmetry_equiv_pos_site_id
_symmetry_equiv_pos_as_xyz
1 x,y,z
2 -x,-y,-z
_cell_length_a                   9.3421(11)
_cell_length_b                   9.8089(13)
_cell_length_c                   10.2114(15)
_cell_angle_alpha                65.7830(10)
_cell_angle_beta                 69.9840(10)
_cell_angle_gamma                89.222(2)
_cell_volume                     793.006
_exptl_crystal_colour            colorless
_exptl_crystal_description       block
_cell_formula_units_Z            2
loop_
_atom_site_label
_atom_site_type_symbol
_atom_site_fract_x
_atom_site_fract_y
_atom_site_fract_z
N1 N 0.2717(3) 1.2323(3) 0.5963(3)
H1 H 0.2766 1.3265 0.5382
N2 N 0.2513(3) 0.7817(3) 0.8640(3)
C1 C 0.3980(4) 1.1718(4) 0.5966(4)
H2 H 0.4926 1.2332 0.5341
C2 C 0.3961(4) 1.0254(3) 0.6832(4)
H3 H 0.4884 0.9875 0.6796
C3 C 0.2570(4) 0.9297(4) 0.7783(4)
C4 C 0.1264(4) 0.9963(4) 0.7767(4)
H4 H 0.0301 0.9377 0.8379
C5 C 0.1357(4) 1.1452(5) 0.6876(5)
H5 H 0.0457 1.1876 0.6900
C6 C 0.3890(5) 0.7127(4) 0.8693(5)
H6 H 0.4473 0.7160 0.7700
H7 H 0.3602 0.6095 0.9456
H8 H 0.4506 0.7671 0.8958
C7 C 0.1057(5) 0.6812(5) 0.9524(6)
H9 H 0.0441 0.7093 1.0316
H10 H 0.1245 0.5791 0.9990
H11 H 0.0521 0.6886 0.8851
N3 N 0.2458(3) 1.2266(3) 0.1179(3)
H12 H 0.2789 1.2638 0.0187
H13 H 0.2122 1.2836 0.1637
O1 O 0.3125(2) 0.5290(2) 0.4042(3)
O2 O 0.1783(3) 0.5521(2) 0.6165(3)
C8 C 0.2437(3) 0.6062(3) 0.4733(4)
C9 C 0.2425(3) 0.7680(3) 0.3797(3)
C10 C 0.2996(3) 0.8314(3) 0.2190(3)
H14 H 0.3382 0.7705 0.1691
C11 C 0.3002(3) 0.9819(3) 0.1324(3)
H15 H 0.3371 1.0204 0.0253
C12 C 0.2468(3) 1.0776(3) 0.2022(3)
C13 C 0.1921(3) 1.0146(3) 0.3628(3)
H16 H 0.1563 1.0758 0.4131
C14 C 0.1902(3) 0.8640(3) 0.4480(3)
H17 H 0.1524 0.8251 0.5552
O3 O 0.6330(3) 0.5996(3) 0.2149(2)
H18 H 0.5386 0.5764 0.2741
H19 H 0.6863 0.5532 0.2678
O4 O 0.1382(3) 0.4150(3) 0.2802(3)
H20 H 0.1868 0.4499 0.3193
H21 H 0.0444 0.4267 0.3132
loop_
_geom_bond_atom_site_label_1
_geom_bond_atom_site_label_2
_geom_bond_site_symmetry_1
_geom_bond_site_symmetry_2
N1 H1 1_555 1_555
N2 C3 1_555 1_555
C1 N1 1_555 1_555
H2 C1 1_555 1_555
C2 C1 1_555 1_555
H3 C2 1_555 1_555
C3 C2 1_555 1_555
C4 C3 1_555 1_555
H4 C4 1_555 1_555
C5 N1 1_555 1_555
H5 C5 1_555 1_555
C6 N2 1_555 1_555
H6 C6 1_555 1_555
H7 C6 1_555 1_555
H8 C6 1_555 1_555
C7 N2 1_555 1_555
H9 C7 1_555 1_555
H10 C7 1_555 1_555
H11 C7 1_555 1_555
N3 H12 1_555 1_555
H13 N3 1_555 1_555
O1 C8 1_555 1_555
O2 C8 1_555 1_555
C8 C9 1_555 1_555
C9 C10 1_555 1_555
C10 H14 1_555 1_555
C11 C10 1_555 1_555
H15 C11 1_555 1_555
C12 N3 1_555 1_555
C13 C12 1_555 1_555
H16 C13 1_555 1_555
C14 C9 1_555 1_555
H17 C14 1_555 1_555
O3 H18 1_555 1_555
H19 O3 1_555 1_555
O4 H20 1_555 1_555
H21 O4 1_555 1_555
C4 C5 1_555 1_555
C11 C12 1_555 1_555
C13 C14 1_555 1_555

#END
