
#######################################################################
#
#                 Cambridge Crystallographic Data Centre
#                                CCDC 
#
#######################################################################
#
# If this CIF has been generated from an entry in the Cambridge 
# Structural Database, then it will include bibliographic, chemical, 
# crystal, experimental, refinement or atomic coordinate data resulting 
# from the CCDC's data processing and validation procedures.
#
#######################################################################

data_SOLHOS
_chemical_formula_moiety         'C7 H11 N2 1+,C7 H4 N1 O4 1-'
_chemical_name_systematic        '4-(dimethylamino)pyridinium 4-nitrobenzoate'
_symmetry_cell_setting           monoclinic
_symmetry_space_group_name_H-M   'C c'
_symmetry_Int_Tables_number      9
_space_group_name_Hall           'C -2yc'
loop_
_symmetry_equiv_pos_site_id
_symmetry_equiv_pos_as_xyz
1 x,y,z
2 x,-y,1/2+z
3 1/2+x,1/2+y,z
4 1/2+x,1/2-y,1/2+z
_cell_length_a                   11.2644(19)
_cell_length_b                   11.2611(19)
_cell_length_c                   21.640(4)
_cell_angle_alpha                90
_cell_angle_beta                 91.271(6)
_cell_angle_gamma                90
_cell_volume                     2744.35
_cell_formula_units_Z            8
loop_
_atom_site_label
_atom_site_type_symbol
_atom_site_fract_x
_atom_site_fract_y
_atom_site_fract_z
O1 O -0.16213(17) 0.27427(18) 0.30161(8)
O2 O -0.13917(17) 0.3291(2) 0.39653(8)
O3 O 0.41233(17) 0.05774(19) 0.30560(8)
O4 O 0.43443(15) 0.11908(17) 0.40320(8)
N1 N -0.10156(18) 0.28359(19) 0.34932(9)
C1 C 0.0200(2) 0.2383(2) 0.34977(11)
C2 C 0.0904(2) 0.2568(2) 0.40195(10)
H1 H 0.0612 0.2982 0.4356
C3 C 0.2045(2) 0.2128(2) 0.40340(10)
H2 H 0.2526 0.2245 0.4384
C4 C 0.2490(2) 0.1508(2) 0.35281(10)
C5 C 0.1757(2) 0.1341(2) 0.30102(10)
H3 H 0.2048 0.0938 0.2670
C6 C 0.0612(2) 0.1760(2) 0.29908(10)
H4 H 0.0122 0.1629 0.2646
C7 C 0.3746(2) 0.1042(2) 0.35332(11)
O5 O 0.74474(16) -0.05850(16) 0.07318(7)
O6 O 0.82061(18) -0.03089(17) 0.16803(8)
O7 O 0.5403(2) 0.51655(18) 0.06675(9)
O8 O 0.60140(19) 0.54337(18) 0.16103(9)
C8 C 0.7662(2) 0.0045(2) 0.12061(11)
C9 C 0.7201(2) 0.1302(2) 0.11904(10)
C10 C 0.6598(2) 0.1739(2) 0.06711(10)
H5 H 0.6486 0.1251 0.0328
C11 C 0.6163(2) 0.2880(2) 0.06548(10)
H6 H 0.5759 0.3164 0.0306
C12 C 0.6338(2) 0.3598(2) 0.11686(11)
C13 C 0.6937(2) 0.3193(2) 0.16882(10)
H7 H 0.7052 0.3688 0.2028
C14 C 0.7361(2) 0.2047(2) 0.16983(10)
H8 H 0.7762 0.1767 0.2049
N2 N 0.5886(2) 0.4817(2) 0.11465(10)
N3 N 0.1514(2) 0.54860(19) 0.38207(9)
N4 N 0.48682(18) 0.4078(2) 0.36063(10)
C15 C 0.1885(2) 0.5123(2) 0.32574(11)
H9 H 0.1362 0.5184 0.2920
C16 C 0.2973(2) 0.4681(2) 0.31675(11)
H10 H 0.3193 0.4457 0.2773
C17 C 0.3789(2) 0.4552(2) 0.36713(10)
C18 C 0.3386(2) 0.4957(2) 0.42525(11)
H11 H 0.3888 0.4913 0.4599
C19 C 0.2279(2) 0.5407(2) 0.43057(11)
H12 H 0.2039 0.5671 0.4690
C20 C 0.5250(3) 0.3603(3) 0.30136(13)
H13 H 0.4797 0.2905 0.2913
H14 H 0.6078 0.3404 0.3042
H15 H 0.5125 0.4190 0.2697
C21 C 0.5663(3) 0.3909(3) 0.41369(13)
H16 H 0.5741 0.4642 0.4360
H17 H 0.6428 0.3662 0.3998
H18 H 0.5345 0.3311 0.4403
H19 H 0.072(3) 0.581(3) 0.3870(14)
N5 N 0.8236(2) 0.7272(2) 0.09078(9)
N6 N 0.9652(2) 0.3907(2) 0.10956(10)
C22 C 0.8291(2) 0.6543(2) 0.04188(11)
H20 H 0.8007 0.6814 0.0037
C23 C 0.8739(2) 0.5430(2) 0.04564(11)
H21 H 0.8763 0.4954 0.0106
C24 C 0.9177(2) 0.4991(2) 0.10363(10)
C25 C 0.9084(2) 0.5781(2) 0.15436(11)
H22 H 0.9339 0.5540 0.1936
C26 C 0.8631(2) 0.6877(3) 0.14617(11)
H23 H 0.8588 0.7380 0.1801
C27 C 0.9779(3) 0.3116(2) 0.05688(12)
H24 H 0.9015 0.2984 0.0375
H25 H 1.0104 0.2371 0.0707
H26 H 1.0301 0.3470 0.0277
C28 C 1.0135(2) 0.3499(3) 0.16852(12)
H27 H 1.0833 0.3950 0.1792
H28 H 1.0338 0.2674 0.1656
H29 H 0.9554 0.3605 0.1998
H30 H 0.789(3) 0.816(3) 0.0845(15)
loop_
_geom_bond_atom_site_label_1
_geom_bond_atom_site_label_2
_geom_bond_site_symmetry_1
_geom_bond_site_symmetry_2
O1 N1 1_555 1_555
O2 N1 1_555 1_555
O3 C7 1_555 1_555
O4 C7 1_555 1_555
N1 C1 1_555 1_555
C1 C2 1_555 1_555
C2 H1 1_555 1_555
C3 C2 1_555 1_555
H2 C3 1_555 1_555
C4 C3 1_555 1_555
C5 C4 1_555 1_555
H3 C5 1_555 1_555
C6 C1 1_555 1_555
H4 C6 1_555 1_555
C7 C4 1_555 1_555
O5 C8 1_555 1_555
O6 C8 1_555 1_555
O7 N2 1_555 1_555
O8 N2 1_555 1_555
C8 C9 1_555 1_555
C9 C10 1_555 1_555
C10 H5 1_555 1_555
C11 C10 1_555 1_555
H6 C11 1_555 1_555
C12 C11 1_555 1_555
C13 C12 1_555 1_555
H7 C13 1_555 1_555
C14 C9 1_555 1_555
H8 C14 1_555 1_555
N2 C12 1_555 1_555
N3 C15 1_555 1_555
N4 C17 1_555 1_555
C15 H9 1_555 1_555
C16 C15 1_555 1_555
H10 C16 1_555 1_555
C17 C16 1_555 1_555
C18 C17 1_555 1_555
H11 C18 1_555 1_555
C19 N3 1_555 1_555
H12 C19 1_555 1_555
C20 N4 1_555 1_555
H13 C20 1_555 1_555
H14 C20 1_555 1_555
H15 C20 1_555 1_555
C21 N4 1_555 1_555
H16 C21 1_555 1_555
H17 C21 1_555 1_555
H18 C21 1_555 1_555
H19 N3 1_555 1_555
N5 C22 1_555 1_555
N6 C24 1_555 1_555
C22 H20 1_555 1_555
C23 C22 1_555 1_555
H21 C23 1_555 1_555
C24 C23 1_555 1_555
C25 C24 1_555 1_555
H22 C25 1_555 1_555
C26 N5 1_555 1_555
H23 C26 1_555 1_555
C27 N6 1_555 1_555
H24 C27 1_555 1_555
H25 C27 1_555 1_555
H26 C27 1_555 1_555
C28 N6 1_555 1_555
H27 C28 1_555 1_555
H28 C28 1_555 1_555
H29 C28 1_555 1_555
H30 N5 1_555 1_555
C5 C6 1_555 1_555
C13 C14 1_555 1_555
C18 C19 1_555 1_555
C25 C26 1_555 1_555

#END
