
#######################################################################
#
#                 Cambridge Crystallographic Data Centre
#                                CCDC 
#
#######################################################################
#
# If this CIF has been generated from an entry in the Cambridge 
# Structural Database, then it will include bibliographic, chemical, 
# crystal, experimental, refinement or atomic coordinate data resulting 
# from the CCDC's data processing and validation procedures.
#
#######################################################################

data_SOLLUB
_chemical_formula_moiety         'C18 H17 Cl2 N1 O3'
_chemical_name_systematic        
N-(2-(2-(2,6-Dichloro-3,5-dimethoxyphenyl)ethenyl)phenyl)acetamide
_symmetry_cell_setting           triclinic
_symmetry_space_group_name_H-M   'P -1'
_symmetry_Int_Tables_number      2
_space_group_name_Hall           '-P 1'
loop_
_symmetry_equiv_pos_site_id
_symmetry_equiv_pos_as_xyz
1 x,y,z
2 -x,-y,-z
_cell_length_a                   7.5646(3)
_cell_length_b                   9.1485(3)
_cell_length_c                   12.2969(5)
_cell_angle_alpha                78.561(2)
_cell_angle_beta                 77.716(2)
_cell_angle_gamma                85.969(3)
_cell_volume                     814.652
_exptl_crystal_colour            colorless
_exptl_crystal_description       prism
_cell_formula_units_Z            2
loop_
_atom_site_label
_atom_site_type_symbol
_atom_site_fract_x
_atom_site_fract_y
_atom_site_fract_z
Cl1 Cl 0.21992(9) 0.40664(7) 0.21221(5)
Cl2 Cl 0.28411(9) 0.66314(7) 0.56854(5)
O1 O 0.3311(3) 0.68767(19) 0.08280(14)
O2 O 0.4014(2) 0.90427(18) 0.39962(15)
O3 O 0.1911(3) 0.2547(2) 0.96831(17)
N1 N 0.1666(3) 0.3365(2) 0.78526(18)
H1 H 0.1734 0.4173 0.7322
C1 C 0.2581(3) 0.5380(3) 0.3861(2)
C2 C 0.2725(3) 0.5540(3) 0.2691(2)
C3 C 0.3281(4) 0.6856(3) 0.1940(2)
C4 C 0.3763(4) 0.8042(3) 0.2354(2)
H2 H 0.4190 0.8928 0.1845
C5 C 0.3624(3) 0.7936(3) 0.3506(2)
C6 C 0.3045(3) 0.6611(3) 0.4245(2)
C7 C 0.3852(4) 0.8217(3) 0.0026(2)
H3 H 0.3723 0.8102 -0.0729
H4 H 0.5119 0.8405 0.0009
H5 H 0.3085 0.9060 0.0250
C8 C 0.4638(4) 1.0415(3) 0.3273(2)
H6 H 0.4852 1.1118 0.3735
H7 H 0.3721 1.0843 0.2836
H8 H 0.5768 1.0225 0.2753
C9 C 0.1833(3) 0.4005(3) 0.4615(2)
H9 H 0.0883 0.3559 0.4413
C10 C 0.2381(3) 0.3337(3) 0.5558(2)
H10 H 0.3401 0.3734 0.5723
C11 C 0.1548(3) 0.2039(3) 0.6366(2)
C12 C 0.1058(4) 0.0794(3) 0.6023(2)
H11 H 0.1223 0.0778 0.5238
C13 C 0.0330(4) -0.0426(3) 0.6812(2)
H12 H -0.0016 -0.1264 0.6565
C14 C 0.0106(4) -0.0427(3) 0.7955(2)
H13 H -0.0367 -0.1275 0.8492
C15 C 0.0568(4) 0.0805(3) 0.8323(2)
H14 H 0.0404 0.0803 0.9111
C16 C 0.1273(4) 0.2042(3) 0.7536(2)
C17 C 0.1954(4) 0.3555(3) 0.8874(2)
C18 C 0.2350(4) 0.5142(3) 0.8907(2)
H15 H 0.2924 0.5147 0.9549
H16 H 0.1216 0.5736 0.8993
H17 H 0.3165 0.5572 0.8201
loop_
_geom_bond_atom_site_label_1
_geom_bond_atom_site_label_2
_geom_bond_site_symmetry_1
_geom_bond_site_symmetry_2
Cl1 C2 1_555 1_555
Cl2 C6 1_555 1_555
O1 C3 1_555 1_555
O2 C5 1_555 1_555
O3 C17 1_555 1_555
N1 H1 1_555 1_555
C1 C2 1_555 1_555
C2 C3 1_555 1_555
C3 C4 1_555 1_555
C4 H2 1_555 1_555
C5 C4 1_555 1_555
C6 C1 1_555 1_555
C7 O1 1_555 1_555
H3 C7 1_555 1_555
H4 C7 1_555 1_555
H5 C7 1_555 1_555
C8 O2 1_555 1_555
H6 C8 1_555 1_555
H7 C8 1_555 1_555
H8 C8 1_555 1_555
C9 C1 1_555 1_555
H9 C9 1_555 1_555
C10 C9 1_555 1_555
H10 C10 1_555 1_555
C11 C10 1_555 1_555
C12 C11 1_555 1_555
H11 C12 1_555 1_555
C13 C12 1_555 1_555
H12 C13 1_555 1_555
C14 C13 1_555 1_555
H13 C14 1_555 1_555
C15 C14 1_555 1_555
H14 C15 1_555 1_555
C16 N1 1_555 1_555
C17 N1 1_555 1_555
C18 C17 1_555 1_555
H15 C18 1_555 1_555
H16 C18 1_555 1_555
H17 C18 1_555 1_555
C5 C6 1_555 1_555
C11 C16 1_555 1_555
C15 C16 1_555 1_555

#END
