
#######################################################################
#
#                 Cambridge Crystallographic Data Centre
#                                CCDC 
#
#######################################################################
#
# If this CIF has been generated from an entry in the Cambridge 
# Structural Database, then it will include bibliographic, chemical, 
# crystal, experimental, refinement or atomic coordinate data resulting 
# from the CCDC's data processing and validation procedures.
#
#######################################################################

data_SOMCUT
_chemical_formula_moiety         'C17 H18 O3'
_chemical_name_systematic        
3-(1-Phenylethoxy)-4-oxatricyclo(4.3.1.0^3,7^)dec-8-en-2-one
_symmetry_cell_setting           monoclinic
_symmetry_space_group_name_H-M   'P 21/c'
_symmetry_Int_Tables_number      14
_space_group_name_Hall           '-P 2ybc'
loop_
_symmetry_equiv_pos_site_id
_symmetry_equiv_pos_as_xyz
1 x,y,z
2 -x,1/2+y,1/2-z
3 -x,-y,-z
4 x,1/2-y,1/2+z
_cell_length_a                   9.949(2)
_cell_length_b                   13.025(2)
_cell_length_c                   10.771(2)
_cell_angle_alpha                90
_cell_angle_beta                 97.42(2)
_cell_angle_gamma                90
_cell_volume                     1384.08
_exptl_crystal_colour            colorless
_exptl_crystal_description       Chunk
_cell_formula_units_Z            4
loop_
_atom_site_label
_atom_site_type_symbol
_atom_site_fract_x
_atom_site_fract_y
_atom_site_fract_z
O1 O 0.17009(15) 0.39811(11) 0.00880(12)
O2 O 0.07145(12) 0.26021(9) 0.20546(12)
O3 O 0.30014(12) 0.26874(9) 0.18618(11)
C1 C 0.15892(17) 0.40892(14) 0.11803(16)
C2 C 0.1112(2) 0.50548(14) 0.17656(17)
C3 C 0.2355(2) 0.53897(14) 0.26180(19)
C4 C 0.27998(19) 0.47128(14) 0.34857(17)
C5 C 0.20116(17) 0.37344(13) 0.34723(15)
C6 C 0.19065(16) 0.32366(12) 0.21660(15)
C7 C 0.04797(18) 0.39120(15) 0.35024(17)
C8 C 0.0005(2) 0.47861(15) 0.2588(2)
C9 C -0.00571(19) 0.28722(16) 0.3049(2)
C10 C 0.34448(18) 0.18376(13) 0.26745(17)
C11 C 0.3668(2) 0.09555(16) 0.1813(2)
C12 C 0.47285(17) 0.21028(13) 0.35230(15)
C13 C 0.5194(2) 0.14354(17) 0.44846(19)
C14 C 0.6422(2) 0.1605(2) 0.5214(2)
C15 C 0.7188(2) 0.2455(2) 0.5022(2)
C16 C 0.6710(2) 0.31329(16) 0.4101(2)
C17 C 0.54983(19) 0.29569(15) 0.33479(19)
H1 H 0.0797 0.5556 0.1173
H2 H 0.2758 0.6040 0.2505
H3 H 0.3583 0.4795 0.4103
H4 H 0.2379 0.3248 0.4124
H5 H 0.0250 0.4049 0.4330
H6 H -0.0243 0.5414 0.3017
H7 H -0.0842 0.4567 0.2038
H8 H 0.0094 0.2333 0.3750
H9 H -0.1016 0.2884 0.2710
H10 H 0.2722 0.1664 0.3162
H11 H 0.4069 0.0377 0.2302
H12 H 0.4293 0.1159 0.1244
H13 H 0.2827 0.0736 0.1287
H14 H 0.4699 0.0834 0.4648
H15 H 0.6744 0.1128 0.5859
H16 H 0.8046 0.2572 0.5518
H17 H 0.7262 0.3706 0.4004
H18 H 0.5199 0.3403 0.2679
loop_
_geom_bond_atom_site_label_1
_geom_bond_atom_site_label_2
_geom_bond_site_symmetry_1
_geom_bond_site_symmetry_2
O1 C1 1_555 1_555
O2 C6 1_555 1_555
O3 C6 1_555 1_555
C1 C2 1_555 1_555
C2 C3 1_555 1_555
C3 C4 1_555 1_555
C4 C5 1_555 1_555
C5 C6 1_555 1_555
C6 C1 1_555 1_555
C7 C5 1_555 1_555
C8 C2 1_555 1_555
C9 O2 1_555 1_555
C10 O3 1_555 1_555
C11 C10 1_555 1_555
C12 C10 1_555 1_555
C13 C12 1_555 1_555
C14 C13 1_555 1_555
C15 C14 1_555 1_555
C16 C15 1_555 1_555
C17 C12 1_555 1_555
H1 C2 1_555 1_555
H2 C3 1_555 1_555
H3 C4 1_555 1_555
H4 C5 1_555 1_555
H5 C7 1_555 1_555
H6 C8 1_555 1_555
H7 C8 1_555 1_555
H8 C9 1_555 1_555
H9 C9 1_555 1_555
H10 C10 1_555 1_555
H11 C11 1_555 1_555
H12 C11 1_555 1_555
H13 C11 1_555 1_555
H14 C13 1_555 1_555
H15 C14 1_555 1_555
H16 C15 1_555 1_555
H17 C16 1_555 1_555
H18 C17 1_555 1_555
C7 C8 1_555 1_555
C7 C9 1_555 1_555
C16 C17 1_555 1_555

#END
