
#######################################################################
#
#                 Cambridge Crystallographic Data Centre
#                                CCDC 
#
#######################################################################
#
# If this CIF has been generated from an entry in the Cambridge 
# Structural Database, then it will include bibliographic, chemical, 
# crystal, experimental, refinement or atomic coordinate data resulting 
# from the CCDC's data processing and validation procedures.
#
#######################################################################

data_SOMJIO
_chemical_formula_moiety         '0.5(C12 H12 N2 2+),C9 H9 N1 O6 S1 1-,3(H2 O1)'
_chemical_name_systematic        
'hemikis(ethylene-1,2-bis(4-pyridinium)) 3-(sulfonylglycine)benzoic acid trihydrate'
_symmetry_cell_setting           monoclinic
_symmetry_space_group_name_H-M   'C 2/c'
_symmetry_Int_Tables_number      15
_space_group_name_Hall           '-C 2yn'
loop_
_symmetry_equiv_pos_site_id
_symmetry_equiv_pos_as_xyz
1 x,y,z
2 -x,y,1/2-z
3 1/2+x,1/2+y,z
4 1/2-x,1/2+y,1/2-z
5 -x,-y,-z
6 x,-y,1/2+z
7 1/2-x,1/2-y,-z
8 1/2+x,1/2-y,1/2+z
_cell_length_a                   16.576(2)
_cell_length_b                   6.8565(9)
_cell_length_c                   31.532(4)
_cell_angle_alpha                90
_cell_angle_beta                 96.260(2)
_cell_angle_gamma                90
_cell_volume                     3562.35
_exptl_crystal_colour            colorless
_exptl_crystal_description       block
_cell_formula_units_Z            8
loop_
_atom_site_label
_atom_site_type_symbol
_atom_site_fract_x
_atom_site_fract_y
_atom_site_fract_z
S1 S 0.24455(5) 0.73610(14) 0.08265(3)
N1 N 0.20065(17) 0.5267(5) 0.07984(9)
O1 O 0.12024(16) 0.3185(4) -0.02131(8)
O2 O 0.06436(13) 0.5152(4) 0.02307(7)
O3 O 0.22597(17) 0.8318(5) 0.04267(9)
O4 O 0.22231(16) 0.8257(4) 0.12065(8)
O5 O 0.46547(14) 0.6478(4) 0.21311(7)
O6 O 0.58769(15) 0.6337(4) 0.19058(8)
C1 C 0.1224(2) 0.4150(5) 0.01169(10)
C2 C 0.2002(2) 0.4057(6) 0.04168(11)
H1 H 0.2098 0.2713 0.0504
H2 H 0.2449 0.4456 0.0262
C3 C 0.3506(2) 0.6932(5) 0.09017(9)
C4 C 0.3943(2) 0.6660(5) 0.05549(10)
H3 H 0.3687 0.6725 0.0278
C5 C 0.4768(2) 0.6292(5) 0.06286(11)
H4 H 0.5066 0.6083 0.0399
C6 C 0.5154(2) 0.6232(5) 0.10409(10)
H5 H 0.5711 0.6016 0.1086
C7 C 0.47156(19) 0.6493(5) 0.13876(9)
C8 C 0.3891(2) 0.6833(5) 0.13165(10)
H6 H 0.3591 0.6997 0.1547
C9 C 0.5136(2) 0.6437(5) 0.18372(10)
H7 H 0.203(2) 0.473(5) 0.1029(7)
N2 N 0.44242(18) 0.1558(4) 0.10276(8)
H8 H 0.4268 0.1571 0.0758
C10 C 0.3868(2) 0.1657(5) 0.13034(11)
H9 H 0.3321 0.1740 0.1202
C11 C 0.4098(2) 0.1639(5) 0.17362(11)
H10 H 0.3709 0.1699 0.1927
C12 C 0.4916(2) 0.1529(5) 0.18858(10)
C13 C 0.5472(2) 0.1435(5) 0.15849(11)
H11 H 0.6024 0.1368 0.1675
C14 C 0.5209(2) 0.1440(5) 0.11581(11)
H12 H 0.5583 0.1361 0.0959
C15 C 0.5226(2) 0.1514(6) 0.23429(10)
H13 H 0.5786 0.1504 0.2412
N2A N 0.55758(18) 0.1558(4) 0.39724(8)
H8A H 0.5732 0.1571 0.4242
C10A C 0.6132(2) 0.1657(5) 0.36966(11)
H9A H 0.6679 0.1740 0.3798
C11A C 0.5902(2) 0.1639(5) 0.32638(11)
H10A H 0.6291 0.1699 0.3073
C12A C 0.5084(2) 0.1529(5) 0.31142(10)
C13A C 0.4528(2) 0.1435(5) 0.34151(11)
H11A H 0.3976 0.1368 0.3325
C14A C 0.4791(2) 0.1440(5) 0.38419(11)
H12A H 0.4417 0.1361 0.4041
C15A C 0.4774(2) 0.1514(6) 0.26571(10)
H13A H 0.4214 0.1504 0.2588
O7 O 0.21624(17) 0.3322(5) 0.15945(9)
H14 H 0.2418 0.4035 0.1774
H15 H 0.1811 0.2692 0.1712
O8 O 0.2490(5) 0.8762(12) 0.21255(18)
H16 H 0.2762 0.9684 0.2217
H17 H 0.2320 0.9013 0.1861
O9 O 0.3014(3) 0.5379(11) 0.2265(2)
H18 H 0.2916 0.4655 0.2495
H19 H 0.2932 0.6539 0.2326
H20? H 0.0000 0.5000 0.0000
H21? H 0.5000 0.7070 0.2500
loop_
_geom_bond_atom_site_label_1
_geom_bond_atom_site_label_2
_geom_bond_site_symmetry_1
_geom_bond_site_symmetry_2
S1 N1 1_555 1_555
N1 C2 1_555 1_555
O1 C1 1_555 1_555
O2 C1 1_555 1_555
O3 S1 1_555 1_555
O4 S1 1_555 1_555
O5 C9 1_555 1_555
O6 C9 1_555 1_555
C1 C2 1_555 1_555
C2 H1 1_555 1_555
H2 C2 1_555 1_555
C3 S1 1_555 1_555
C4 C3 1_555 1_555
H3 C4 1_555 1_555
C5 C4 1_555 1_555
H4 C5 1_555 1_555
C6 C5 1_555 1_555
H5 C6 1_555 1_555
C7 C6 1_555 1_555
C8 C3 1_555 1_555
H6 C8 1_555 1_555
C9 C7 1_555 1_555
H7 N1 1_555 1_555
N2 H8 1_555 1_555
C10 N2 1_555 1_555
H9 C10 1_555 1_555
C11 C10 1_555 1_555
H10 C11 1_555 1_555
C12 C11 1_555 1_555
C13 C12 1_555 1_555
H11 C13 1_555 1_555
C14 N2 1_555 1_555
H12 C14 1_555 1_555
C15 C12 1_555 1_555
H13 C15 1_555 1_555
O7 H14 1_555 1_555
H15 O7 1_555 1_555
O8 H16 1_555 1_555
H17 O8 1_555 1_555
O9 H18 1_555 1_555
H19 O9 1_555 1_555
N2A H8A 1_555 1_555
C10A N2A 1_555 1_555
H9A C10A 1_555 1_555
C11A C10A 1_555 1_555
H10A C11A 1_555 1_555
C12A C11A 1_555 1_555
C13A C12A 1_555 1_555
H11A C13A 1_555 1_555
C14A N2A 1_555 1_555
H12A C14A 1_555 1_555
C15A C15 1_555 1_555
H13A C15A 1_555 1_555
C7 C8 1_555 1_555
C13 C14 1_555 1_555
C12A C15A 1_555 1_555
C13A C14A 1_555 1_555

#END
