
#######################################################################
#
#                 Cambridge Crystallographic Data Centre
#                                CCDC 
#
#######################################################################
#
# If this CIF has been generated from an entry in the Cambridge 
# Structural Database, then it will include bibliographic, chemical, 
# crystal, experimental, refinement or atomic coordinate data resulting 
# from the CCDC's data processing and validation procedures.
#
#######################################################################

data_SOMLAJ
_chemical_formula_moiety         'C19 H11 F4 N1 O2'
_chemical_name_systematic        
'2-(2-(2,3,4,5-tetrafluorophenyl)vinyl)quinolin-8-yl acetate'
_symmetry_cell_setting           monoclinic
_symmetry_space_group_name_H-M   'P 21/n'
_symmetry_Int_Tables_number      14
_space_group_name_Hall           '-P 2yn'
loop_
_symmetry_equiv_pos_site_id
_symmetry_equiv_pos_as_xyz
1 x,y,z
2 1/2-x,1/2+y,1/2-z
3 -x,-y,-z
4 1/2+x,1/2-y,1/2+z
_cell_length_a                   8.3016(3)
_cell_length_b                   12.1040(4)
_cell_length_c                   16.4292(5)
_cell_angle_alpha                90
_cell_angle_beta                 98.436(3)
_cell_angle_gamma                90
_cell_volume                     1632.99
_exptl_crystal_colour            yellow
_exptl_crystal_description       block
_cell_formula_units_Z            4
loop_
_atom_site_label
_atom_site_type_symbol
_atom_site_fract_x
_atom_site_fract_y
_atom_site_fract_z
F1 F 0.0971(2) 0.63684(19) 0.60812(11)
F2 F -0.0756(3) 0.8211(2) 0.57377(15)
F3 F -0.1290(3) 0.9013(2) 0.41875(16)
F4 F -0.0084(3) 0.7934(2) 0.29708(13)
O1 O 0.4037(3) 0.2590(2) 0.70545(14)
O2 O 0.5842(3) 0.3976(2) 0.71824(15)
C1 C 0.3041(3) 0.4510(3) 0.44137(17)
H1 H 0.2975 0.4730 0.3867
C2 C 0.2306(3) 0.5133(2) 0.49097(17)
H2 H 0.2394 0.4905 0.5455
N1 N 0.40272(19) 0.32041(13) 0.54773(9)
C3 C 0.3930(2) 0.35199(14) 0.46581(9)
C4 C 0.4713(3) 0.28998(18) 0.41211(8)
H3 H 0.4648 0.3111 0.3573
C5 C 0.5593(2) 0.19640(17) 0.44032(13)
H4 H 0.6116 0.1549 0.4044
C6 C 0.5690(2) 0.16481(13) 0.52224(14)
C7 C 0.4907(2) 0.22682(14) 0.57594(9)
C8 C 0.6598(4) 0.0701(3) 0.5559(3)
H5 H 0.7144 0.0262 0.5224
C9 C 0.6656(5) 0.0449(4) 0.6372(4)
H6 H 0.7255 -0.0160 0.6589
C10 C 0.5835(5) 0.1086(3) 0.6882(3)
H7 H 0.5871 0.0899 0.7434
C11 C 0.4976(4) 0.1987(3) 0.6570(2)
C12 C 0.4523(5) 0.3633(3) 0.72524(19)
C13 C 0.3205(6) 0.4253(4) 0.7566(3)
H8 H 0.3657 0.4885 0.7870
H9 H 0.2681 0.3784 0.7918
H10 H 0.2422 0.4492 0.7111
C14 C 0.1360(2) 0.61542(14) 0.46908(11)
C15 C 0.0735(2) 0.67097(17) 0.53159(8)
C16 C -0.0163(2) 0.76721(17) 0.51414(12)
C17 C -0.0436(2) 0.80791(14) 0.43418(14)
C18 C 0.0190(3) 0.75236(17) 0.37168(10)
C19 C 0.1087(2) 0.65612(16) 0.38913(9)
H11 H 0.1506 0.6190 0.3473
loop_
_geom_bond_atom_site_label_1
_geom_bond_atom_site_label_2
_geom_bond_site_symmetry_1
_geom_bond_site_symmetry_2
F1 C15 1_555 1_555
F2 C16 1_555 1_555
F3 C17 1_555 1_555
F4 C18 1_555 1_555
O1 C11 1_555 1_555
O2 C12 1_555 1_555
C1 H1 1_555 1_555
C2 C1 1_555 1_555
H2 C2 1_555 1_555
N1 C3 1_555 1_555
C3 C1 1_555 1_555
C4 C3 1_555 1_555
H3 C4 1_555 1_555
C5 C4 1_555 1_555
H4 C5 1_555 1_555
C6 C5 1_555 1_555
C7 N1 1_555 1_555
C8 C6 1_555 1_555
H5 C8 1_555 1_555
C9 C8 1_555 1_555
H6 C9 1_555 1_555
C10 C9 1_555 1_555
H7 C10 1_555 1_555
C11 C7 1_555 1_555
C12 O1 1_555 1_555
C13 C12 1_555 1_555
H8 C13 1_555 1_555
H9 C13 1_555 1_555
H10 C13 1_555 1_555
C14 C2 1_555 1_555
C15 C14 1_555 1_555
C16 C15 1_555 1_555
C17 C16 1_555 1_555
C18 C17 1_555 1_555
C19 C14 1_555 1_555
H11 C19 1_555 1_555
C6 C7 1_555 1_555
C10 C11 1_555 1_555
C18 C19 1_555 1_555

#END
