
#######################################################################
#
#                 Cambridge Crystallographic Data Centre
#                                CCDC 
#
#######################################################################
#
# If this CIF has been generated from an entry in the Cambridge 
# Structural Database, then it will include bibliographic, chemical, 
# crystal, experimental, refinement or atomic coordinate data resulting 
# from the CCDC's data processing and validation procedures.
#
#######################################################################

data_SOMRAO
_chemical_formula_moiety         '2(C16 H36 N1 1+),C52 H52 B2 F2 2-,C1 H2 Cl2'
_chemical_name_systematic        
'bis(Tetra-n-butylammonium) pyrene-1,6-diyl-bis(dimesitylfluoroborate) dichloromethane solvate'
_symmetry_cell_setting           orthorhombic
_symmetry_space_group_name_H-M   'P b c a'
_symmetry_Int_Tables_number      61
_space_group_name_Hall           '-P 2ac 2ab'
loop_
_symmetry_equiv_pos_site_id
_symmetry_equiv_pos_as_xyz
1 x,y,z
2 1/2-x,-y,1/2+z
3 -x,1/2+y,1/2-z
4 1/2+x,1/2-y,-z
5 -x,-y,-z
6 1/2+x,y,1/2-z
7 x,1/2-y,1/2+z
8 1/2-x,1/2+y,z
_cell_length_a                   19.6359(16)
_cell_length_b                   19.7648(17)
_cell_length_c                   22.7120(19)
_cell_angle_alpha                90
_cell_angle_beta                 90
_cell_angle_gamma                90
_cell_volume                     8814.52
_exptl_crystal_colour            colorless
_exptl_crystal_description       block
_cell_formula_units_Z            4
_exptl_crystal_recrystallization_method dichloromethane
loop_
_atom_site_label
_atom_site_type_symbol
_atom_site_fract_x
_atom_site_fract_y
_atom_site_fract_z
N1 N 0.5840(2) 0.20278(16) 0.37598(15)
C27 C 0.5750(3) 0.2754(2) 0.3550(2)
H27 H 0.5286 0.2823 0.3389
H28 H 0.6086 0.2864 0.3239
C28 C 0.5552(12) 0.3282(10) 0.3960(7)
H29 H 0.5904 0.3314 0.4271
H30 H 0.5120 0.3146 0.4152
C29 C 0.5457(7) 0.3959(4) 0.3700(4)
H31 H 0.5098 0.3925 0.3395
H32 H 0.5885 0.4084 0.3496
C30 C 0.5271(7) 0.4527(7) 0.4108(6)
H33 H 0.5218 0.4946 0.3882
H34 H 0.5631 0.4586 0.4402
H35 H 0.4841 0.4420 0.4307
C31 C 0.4010(3) 0.1513(3) 0.4179(3)
H36 H 0.4138 0.1046 0.4290
H37 H 0.3977 0.1782 0.4545
C32 C 0.5248(2) 0.1779(2) 0.41115(18)
H38 H 0.5217 0.2051 0.4477
H39 H 0.5337 0.1305 0.4228
C33 C 0.4569(3) 0.1807(3) 0.3800(2)
H40 H 0.4598 0.1551 0.3427
H41 H 0.4458 0.2283 0.3704
C34 C 0.3348(4) 0.1496(4) 0.3902(3)
H42 H 0.3052 0.1181 0.4116
H43 H 0.3396 0.1346 0.3493
H44 H 0.3147 0.1950 0.3911
C35 C 0.5937(3) 0.1615(2) 0.31973(19)
H45 H 0.5538 0.1687 0.2938
H46 H 0.6344 0.1786 0.2987
C36 C 0.6022(3) 0.0860(3) 0.3305(2)
H47 H 0.5581 0.0666 0.3432
H48 H 0.6355 0.0789 0.3626
C37 C 0.6279(5) 0.0475(3) 0.2724(3)
H49 H 0.6678 0.0705 0.2548
H50 H 0.6399 -0.0001 0.2810
C38 C 0.5760(5) 0.0512(5) 0.2386(5)
H51 H 0.5863 0.0289 0.2010
H52 H 0.5648 0.0988 0.2314
H53 H 0.5372 0.0286 0.2573
C39 C 0.6450(4) 0.1989(4) 0.4168(3)
C41 C 0.7687(6) 0.2237(6) 0.4322(6)
C42 C 0.7593(10) 0.2556(10) 0.4770(9)
H56 H 0.8024 0.2604 0.4983
H57 H 0.7263 0.2318 0.5018
H58 H 0.7416 0.3005 0.4670
C44 C 0.7102(4) 0.2217(5) 0.3902(4)
H62 H 0.7036 0.2676 0.3735
H63 H 0.7218 0.1910 0.3572
H64 H 0.628(2) 0.2239(19) 0.457(2)
H65 H 0.652(2) 0.156(2) 0.4260(18)
F1 F 0.57540(10) 0.21759(8) 0.56181(7)
B1 B 0.5390(2) 0.18903(16) 0.61287(16)
C1 C 0.60068(16) 0.17073(15) 0.66106(13)
C2 C 0.61184(18) 0.10862(16) 0.68941(14)
C3 C 0.6658(2) 0.0999(2) 0.72888(16)
H1 H 0.6715 0.0566 0.7463
C4 C 0.7108(2) 0.1497(3) 0.7440(2)
C5 C 0.6999(2) 0.2110(3) 0.7164(2)
H2 H 0.7298 0.2473 0.7256
C6 C 0.6474(2) 0.22342(16) 0.67547(16)
C7 C 0.56866(19) 0.04580(15) 0.68071(16)
H3 H 0.5690 0.0188 0.7169
H4 H 0.5873 0.0189 0.6482
H5 H 0.5218 0.0591 0.6714
C8 C 0.6431(2) 0.29291(18) 0.64943(18)
H6 H 0.6774 0.3221 0.6678
H7 H 0.5976 0.3117 0.6565
H8 H 0.6515 0.2904 0.6069
C9 C 0.7700(2) 0.1389(3) 0.7865(2)
H9 H 0.7524 0.1233 0.8245
H10 H 0.7945 0.1816 0.7919
H11 H 0.8011 0.1048 0.7703
C10 C 0.48571(17) 0.24601(15) 0.64032(15)
C11 C 0.4660(2) 0.30452(18) 0.60942(18)
C12 C 0.4221(3) 0.35276(19) 0.6339(3)
H12 H 0.4111 0.3920 0.6117
C13 C 0.3948(3) 0.3451(2) 0.6883(3)
C14 C 0.4097(2) 0.2860(2) 0.71802(19)
H13 H 0.3887 0.2779 0.7550
C15 C 0.45512(19) 0.23758(17) 0.69539(16)
C16 C 0.4644(2) 0.1748(2) 0.73132(15)
H14 H 0.4486 0.1355 0.7088
H15 H 0.4379 0.1785 0.7678
H16 H 0.5127 0.1692 0.7410
C17 C 0.4889(3) 0.3197(2) 0.5459(2)
H17 H 0.4802 0.2801 0.5210
H18 H 0.5377 0.3301 0.5456
H19 H 0.4633 0.3585 0.5307
C18 C 0.3445(3) 0.3969(2) 0.7149(3)
H20 H 0.3565 0.4425 0.7016
H21 H 0.3469 0.3949 0.7580
H22 H 0.2981 0.3860 0.7021
C19 C 0.49498(17) 0.12588(13) 0.58378(11)
C20 C 0.42465(18) 0.12101(14) 0.59059(13)
H23 H 0.4028 0.1542 0.6142
C21 C 0.38466(16) 0.07177(14) 0.56579(13)
H24 H 0.3371 0.0709 0.5735
C22 C 0.41403(17) 0.02249(13) 0.52896(12)
C23 C 0.48494(15) 0.02459(12) 0.51878(11)
C24 C 0.52476(16) 0.07662(13) 0.54603(11)
C25 C 0.59594(17) 0.07563(14) 0.53498(13)
H25 H 0.6237 0.1090 0.5531
C26 C 0.6256(2) 0.02944(15) 0.49989(15)
H26 H 0.6662(15) 0.0249(14) 0.4940(12)
F1D F 0.42460(10) -0.21759(8) 0.43819(7)
B1D B 0.4610(2) -0.18903(16) 0.38713(16)
C1D C 0.39932(16) -0.17073(15) 0.33894(13)
C2D C 0.38816(18) -0.10862(16) 0.31059(14)
C3D C 0.3342(2) -0.0999(2) 0.27112(16)
H1D H 0.3285 -0.0566 0.2537
C4D C 0.2892(2) -0.1497(3) 0.2560(2)
C5D C 0.3001(2) -0.2110(3) 0.2836(2)
H2D H 0.2702 -0.2473 0.2744
C6D C 0.3526(2) -0.22342(16) 0.32453(16)
C7D C 0.43134(19) -0.04580(15) 0.31929(16)
H3D H 0.4310 -0.0188 0.2831
H4D H 0.4127 -0.0189 0.3518
H5D H 0.4782 -0.0591 0.3286
C8D C 0.3569(2) -0.29291(18) 0.35057(18)
H6D H 0.3226 -0.3221 0.3322
H7D H 0.4024 -0.3117 0.3435
H8D H 0.3485 -0.2904 0.3931
C9D C 0.2300(2) -0.1389(3) 0.2135(2)
H9D H 0.2476 -0.1233 0.1755
H10D H 0.2055 -0.1816 0.2081
H11D H 0.1989 -0.1048 0.2297
C10D C 0.51429(17) -0.24601(15) 0.35968(15)
C11D C 0.5340(2) -0.30452(18) 0.39058(18)
C12D C 0.5779(3) -0.35276(19) 0.3661(3)
H12D H 0.5889 -0.3920 0.3883
C13D C 0.6052(3) -0.3451(2) 0.3117(3)
C14D C 0.5903(2) -0.2860(2) 0.28198(19)
H13D H 0.6113 -0.2779 0.2450
C15D C 0.54488(19) -0.23758(17) 0.30461(16)
C16D C 0.5356(2) -0.1748(2) 0.26868(15)
H14D H 0.5514 -0.1355 0.2912
H15D H 0.5621 -0.1785 0.2322
H16D H 0.4873 -0.1692 0.2590
C17D C 0.5111(3) -0.3197(2) 0.4541(2)
H17D H 0.5198 -0.2801 0.4790
H18D H 0.4623 -0.3301 0.4544
H19D H 0.5367 -0.3585 0.4693
C18D C 0.6555(3) -0.3969(2) 0.2851(3)
H20D H 0.6435 -0.4425 0.2984
H21D H 0.6531 -0.3949 0.2420
H22D H 0.7019 -0.3860 0.2979
C19D C 0.50502(17) -0.12588(13) 0.41622(11)
C20D C 0.57535(18) -0.12101(14) 0.40941(13)
H23D H 0.5972 -0.1542 0.3858
C21D C 0.61534(16) -0.07177(14) 0.43421(13)
H24D H 0.6629 -0.0709 0.4265
C22D C 0.58597(17) -0.02249(13) 0.47104(12)
C23D C 0.51506(15) -0.02459(12) 0.48122(11)
C24D C 0.47524(16) -0.07662(13) 0.45397(11)
C25D C 0.40406(17) -0.07563(14) 0.46502(13)
H25D H 0.3763 -0.1090 0.4469
C26D C 0.3744(2) -0.02944(15) 0.50011(15)
H26D H 0.3338(15) -0.0249(14) 0.5060(12)
C40? C 0.726(5) 0.185(4) 0.398(4)
H54? H 0.7365 0.1367 0.4039
H55? H 0.7323 0.1965 0.3563
C43? C 0.7802(14) 0.1704(15) 0.4746(13)
H59? H 0.8096 0.1873 0.5062
H60? H 0.8022 0.1320 0.4552
H61? H 0.7365 0.1560 0.4913
C45? C 0.5879(19) 0.3255(17) 0.4164(10)
C46? C 0.5971(12) 0.3983(12) 0.3913(12)
C47? C 0.6041(13) 0.4433(12) 0.4371(11)
H66? H 0.5482 0.3234 0.4432
H67? H 0.6291 0.3110 0.4382
H68? H 0.6379 0.4000 0.3658
H69? H 0.5569 0.4107 0.3672
H70? H 0.6092 0.4892 0.4214
H71? H 0.6445 0.4315 0.4603
H72? H 0.5636 0.4413 0.4623
loop_
_geom_bond_atom_site_label_1
_geom_bond_atom_site_label_2
_geom_bond_site_symmetry_1
_geom_bond_site_symmetry_2
F1 B1 1_555 1_555
B1 C1 1_555 1_555
N1 C27 1_555 1_555
C1 C2 1_555 1_555
C2 C3 1_555 1_555
C3 H1 1_555 1_555
C4 C3 1_555 1_555
C5 C4 1_555 1_555
H2 C5 1_555 1_555
C6 C1 1_555 1_555
C7 C2 1_555 1_555
H3 C7 1_555 1_555
H4 C7 1_555 1_555
H5 C7 1_555 1_555
C8 C6 1_555 1_555
H6 C8 1_555 1_555
H7 C8 1_555 1_555
H8 C8 1_555 1_555
C9 C4 1_555 1_555
H9 C9 1_555 1_555
H10 C9 1_555 1_555
H11 C9 1_555 1_555
C10 B1 1_555 1_555
C11 C10 1_555 1_555
C12 C11 1_555 1_555
H12 C12 1_555 1_555
C13 C12 1_555 1_555
C14 C13 1_555 1_555
H13 C14 1_555 1_555
C15 C10 1_555 1_555
C16 C15 1_555 1_555
H14 C16 1_555 1_555
H15 C16 1_555 1_555
H16 C16 1_555 1_555
C17 C11 1_555 1_555
H17 C17 1_555 1_555
H18 C17 1_555 1_555
H19 C17 1_555 1_555
C18 C13 1_555 1_555
H20 C18 1_555 1_555
H21 C18 1_555 1_555
H22 C18 1_555 1_555
C19 B1 1_555 1_555
C20 C19 1_555 1_555
H23 C20 1_555 1_555
C21 C20 1_555 1_555
H24 C21 1_555 1_555
C22 C21 1_555 1_555
C23 C22 1_555 1_555
C24 C19 1_555 1_555
C25 C24 1_555 1_555
H25 C25 1_555 1_555
C26 C25 1_555 1_555
H26 C26 1_555 1_555
C27 H27 1_555 1_555
H28 C27 1_555 1_555
C28 C27 1_555 1_555
H29 C28 1_555 1_555
H30 C28 1_555 1_555
C29 C28 1_555 1_555
H31 C29 1_555 1_555
H32 C29 1_555 1_555
C30 C29 1_555 1_555
H33 C30 1_555 1_555
H34 C30 1_555 1_555
H35 C30 1_555 1_555
C31 H36 1_555 1_555
H37 C31 1_555 1_555
C32 N1 1_555 1_555
H38 C32 1_555 1_555
H39 C32 1_555 1_555
C33 C31 1_555 1_555
H40 C33 1_555 1_555
H41 C33 1_555 1_555
C34 C31 1_555 1_555
H42 C34 1_555 1_555
H43 C34 1_555 1_555
H44 C34 1_555 1_555
C35 N1 1_555 1_555
H45 C35 1_555 1_555
H46 C35 1_555 1_555
C36 C35 1_555 1_555
H47 C36 1_555 1_555
H48 C36 1_555 1_555
C37 C36 1_555 1_555
H49 C37 1_555 1_555
H50 C37 1_555 1_555
C38 C37 1_555 1_555
H51 C38 1_555 1_555
H52 C38 1_555 1_555
H53 C38 1_555 1_555
C39 N1 1_555 1_555
C41 C42 1_555 1_555
C42 H56 1_555 1_555
H57 C42 1_555 1_555
H58 C42 1_555 1_555
C44 C39 1_555 1_555
H62 C44 1_555 1_555
H63 C44 1_555 1_555
H64 C39 1_555 1_555
H65 C39 1_555 1_555
F1D B1D 1_555 1_555
B1D C1D 1_555 1_555
C1D C2D 1_555 1_555
C2D C3D 1_555 1_555
C3D H1D 1_555 1_555
C4D C3D 1_555 1_555
C5D C4D 1_555 1_555
H2D C5D 1_555 1_555
C6D C1D 1_555 1_555
C7D C2D 1_555 1_555
H3D C7D 1_555 1_555
H4D C7D 1_555 1_555
H5D C7D 1_555 1_555
C8D C6D 1_555 1_555
H6D C8D 1_555 1_555
H7D C8D 1_555 1_555
H8D C8D 1_555 1_555
C9D C4D 1_555 1_555
H9D C9D 1_555 1_555
H10D C9D 1_555 1_555
H11D C9D 1_555 1_555
C10D B1D 1_555 1_555
C11D C10D 1_555 1_555
C12D C11D 1_555 1_555
H12D C12D 1_555 1_555
C13D C12D 1_555 1_555
C14D C13D 1_555 1_555
H13D C14D 1_555 1_555
C15D C10D 1_555 1_555
C16D C15D 1_555 1_555
H14D C16D 1_555 1_555
H15D C16D 1_555 1_555
H16D C16D 1_555 1_555
C17D C11D 1_555 1_555
H17D C17D 1_555 1_555
H18D C17D 1_555 1_555
H19D C17D 1_555 1_555
C18D C13D 1_555 1_555
H20D C18D 1_555 1_555
H21D C18D 1_555 1_555
H22D C18D 1_555 1_555
C19D B1D 1_555 1_555
C20D C19D 1_555 1_555
H23D C20D 1_555 1_555
C21D C20D 1_555 1_555
H24D C21D 1_555 1_555
C22D C26 1_555 1_555
C23D C23 1_555 1_555
C24D C19D 1_555 1_555
C25D C24D 1_555 1_555
H25D C25D 1_555 1_555
C26D C22 1_555 1_555
H26D C26D 1_555 1_555
C5 C6 1_555 1_555
C14 C15 1_555 1_555
C23 C24 1_555 1_555
C32 C33 1_555 1_555
C41 C44 1_555 1_555
C5D C6D 1_555 1_555
C14D C15D 1_555 1_555
C21D C22D 1_555 1_555
C22D C23D 1_555 1_555
C23D C24D 1_555 1_555
C25D C26D 1_555 1_555

#END
