
#######################################################################
#
#                 Cambridge Crystallographic Data Centre
#                                CCDC 
#
#######################################################################
#
# If this CIF has been generated from an entry in the Cambridge 
# Structural Database, then it will include bibliographic, chemical, 
# crystal, experimental, refinement or atomic coordinate data resulting 
# from the CCDC's data processing and validation procedures.
#
#######################################################################

data_SOMZEB
_chemical_formula_moiety         'C17 H22 Br1 N1 O3'
_chemical_name_systematic        
'methyl 3-bromo-8-oxo-13-azatetracyclo[7.7.0.0^1,6^.0^2,13^]hexadec-2-ene-4-carboxylate'
_symmetry_cell_setting           orthorhombic
_symmetry_space_group_name_H-M   'P 21 21 21'
_symmetry_Int_Tables_number      19
_space_group_name_Hall           'P 2ac 2ab'
loop_
_symmetry_equiv_pos_site_id
_symmetry_equiv_pos_as_xyz
1 x,y,z
2 1/2-x,-y,1/2+z
3 1/2+x,1/2-y,-z
4 -x,1/2+y,1/2-z
_cell_length_a                   8.5945(3)
_cell_length_b                   14.8469(9)
_cell_length_c                   37.7065(17)
_cell_angle_alpha                90
_cell_angle_beta                 90
_cell_angle_gamma                90
_cell_volume                     4811.41
_cell_formula_units_Z            12
_exptl_crystal_recrystallization_method 'ethyl acetate'
loop_
_atom_site_label
_atom_site_type_symbol
_atom_site_fract_x
_atom_site_fract_y
_atom_site_fract_z
Br1 Br 0.45453(7) 0.45565(5) 0.65165(2)
C1 C -0.1715(8) 0.4825(5) 0.57711(18)
C2 C -0.1555(9) 0.5822(5) 0.5835(2)
H1 H -0.2476 0.6069 0.5959
H2 H -0.1396 0.6155 0.5610
C3 C -0.0109(7) 0.5856(4) 0.60689(16)
H3 H -0.0070 0.6432 0.6206
C4 C 0.1324(7) 0.5759(5) 0.58331(17)
H4 H 0.1404 0.6295 0.5678
H5 H 0.1187 0.5226 0.5678
C5 C 0.2839(8) 0.5656(4) 0.60407(17)
H6 H 0.3663 0.5430 0.5876
C6 C 0.2625(7) 0.4984(4) 0.63300(16)
C7 C 0.1287(6) 0.4671(4) 0.64514(15)
C8 C 0.1268(7) 0.3074(5) 0.65609(18)
H7 H 0.1329 0.2636 0.6759
H8 H 0.2236 0.3013 0.6421
C9 C -0.0096(8) 0.2808(5) 0.63246(17)
H9 H 0.0078 0.2187 0.6237
H10 H -0.1055 0.2803 0.6470
C10 C -0.0353(9) 0.3423(4) 0.60068(17)
H11 H -0.0990 0.3099 0.5829
H12 H 0.0667 0.3555 0.5897
C11 C -0.1154(7) 0.4313(4) 0.60951(16)
H13 H -0.2108 0.4153 0.6233
C12 C -0.0263(7) 0.5035(4) 0.63226(15)
C13 C -0.1220(7) 0.5301(5) 0.66513(16)
H14 H -0.0693 0.5803 0.6775
H15 H -0.2258 0.5516 0.6575
C14 C -0.1418(7) 0.4515(5) 0.69062(16)
H16 H -0.1979 0.4719 0.7121
H17 H -0.2043 0.4036 0.6792
C15 C 0.0156(8) 0.4145(5) 0.70094(16)
H18 H 0.0653 0.4572 0.7176
H19 H -0.0002 0.3570 0.7138
C16 C 0.3360(8) 0.6553(5) 0.61926(19)
C17 C 0.5081(11) 0.7759(6) 0.6121(3)
H20 H 0.4244 0.8200 0.6088
H21 H 0.5987 0.7938 0.5980
H22 H 0.5371 0.7735 0.6372
N1 N 0.1230(6) 0.3983(4) 0.67130(13)
O1 O -0.2173(6) 0.4473(4) 0.54985(13)
O2 O 0.2775(6) 0.6930(4) 0.64372(13)
O3 O 0.4553(6) 0.6882(3) 0.60078(14)
Br2 Br 0.54578(7) 0.36927(5) 0.26278(2)
C18 C 1.1510(7) 0.4041(5) 0.3469(2)
C19 C 1.1121(7) 0.3610(5) 0.31126(16)
H23 H 1.2131 0.3554 0.2983
C20 C 1.0491(9) 0.2658(4) 0.31503(16)
H24 H 0.9434 0.2690 0.3254
H25 H 1.1158 0.2325 0.3320
C21 C 1.0407(9) 0.2121(4) 0.28053(17)
H26 H 1.1371 0.2227 0.2668
H27 H 1.0360 0.1471 0.2863
C22 C 0.9019(8) 0.2363(4) 0.25770(17)
H28 H 0.9054 0.1982 0.2361
H29 H 0.8066 0.2196 0.2709
C23 C 0.8660(7) 0.3922(4) 0.27456(16)
C24 C 0.7265(7) 0.4157(4) 0.28590(16)
C25 C 0.6882(8) 0.4775(5) 0.31596(17)
H30 H 0.6015 0.4511 0.3303
C26 C 0.8333(8) 0.4880(5) 0.33937(18)
H31 H 0.8154 0.5377 0.3564
H32 H 0.8479 0.4320 0.3532
C27 C 0.9805(8) 0.5070(4) 0.31892(17)
H33 H 0.9741 0.5675 0.3073
C28 C 1.0145(7) 0.4324(4) 0.29054(17)
C29 C 1.1099(7) 0.4716(5) 0.26004(18)
H34 H 1.0525 0.5226 0.2493
H35 H 1.2096 0.4950 0.2694
C30 C 1.1429(8) 0.4014(5) 0.23163(17)
H36 H 1.1993 0.4297 0.2116
H37 H 1.2095 0.3532 0.2416
C31 C 0.9922(8) 0.3615(5) 0.21849(17)
H38 H 0.9373 0.4075 0.2042
H39 H 1.0167 0.3103 0.2026
C32 C 0.6393(8) 0.5693(5) 0.30193(18)
C33 C 0.4707(11) 0.6918(5) 0.3095(2)
H40 H 0.5566 0.7339 0.3136
H41 H 0.3801 0.7105 0.3235
H42 H 0.4436 0.6916 0.2843
C34 C 1.1195(9) 0.5033(5) 0.3438(2)
H43 H 1.2101 0.5354 0.3337
H44 H 1.0940 0.5298 0.3672
N2 N 0.8864(6) 0.3296(4) 0.24650(13)
O4 O 1.1941(6) 0.3644(3) 0.37291(13)
O5 O 0.6984(7) 0.6089(4) 0.27807(15)
O6 O 0.5178(6) 0.6021(3) 0.32018(12)
Br3 Br 0.98575(7) 0.53632(6) 0.45587(3)
C35 C 0.3252(8) 0.4309(5) 0.49684(19)
C36 C 0.3463(8) 0.3567(5) 0.47017(18)
H45 H 0.2629 0.3575 0.4521
H46 H 0.3488 0.2968 0.4817
C37 C 0.5040(7) 0.3807(4) 0.45409(15)
H47 H 0.5156 0.3525 0.4302
C38 C 0.6328(8) 0.3497(5) 0.47852(17)
H48 H 0.6335 0.2831 0.4791
H49 H 0.6102 0.3713 0.5028
C39 C 0.7959(7) 0.3832(5) 0.46754(17)
H50 H 0.8690 0.3760 0.4880
C40 C 0.7856(7) 0.4805(4) 0.45782(17)
C41 C 0.6604(7) 0.5275(4) 0.45130(15)
C42 C 0.4992(6) 0.4852(4) 0.45079(15)
C43 C 0.3968(7) 0.5164(5) 0.48261(16)
H51 H 0.3095 0.5522 0.4722
C44 C 0.4701(10) 0.5754(5) 0.51125(17)
H52 H 0.5657 0.5455 0.5199
H53 H 0.3969 0.5797 0.5315
C45 C 0.5120(9) 0.6708(5) 0.49915(19)
H54 H 0.4249 0.6951 0.4848
H55 H 0.5235 0.7097 0.5203
C46 C 0.6606(9) 0.6760(5) 0.47736(19)
H56 H 0.6779 0.7398 0.4709
H57 H 0.7483 0.6575 0.4928
C47 C 0.5774(8) 0.6538(5) 0.41446(18)
H58 H 0.6367 0.6396 0.3926
H59 H 0.5675 0.7201 0.4159
C48 C 0.4161(8) 0.6137(5) 0.41106(17)
H60 H 0.3724 0.6286 0.3875
H61 H 0.3471 0.6399 0.4294
C49 C 0.4225(8) 0.5123(5) 0.41551(16)
H62 H 0.4821 0.4858 0.3956
H63 H 0.3156 0.4877 0.4146
C50 C 0.8522(8) 0.3264(5) 0.43684(18)
C51 C 1.0035(9) 0.2007(5) 0.42131(18)
H64 H 0.9133 0.1659 0.4133
H65 H 1.0808 0.1599 0.4316
H66 H 1.0495 0.2326 0.4011
N3 N 0.6673(6) 0.6226(4) 0.44511(14)
O7 O 0.2629(7) 0.4229(4) 0.52574(15)
O8 O 0.8080(6) 0.3329(3) 0.40666(12)
O9 O 0.9542(6) 0.2656(3) 0.44792(11)
loop_
_geom_bond_atom_site_label_1
_geom_bond_atom_site_label_2
_geom_bond_site_symmetry_1
_geom_bond_site_symmetry_2
Br1 C6 1_555 1_555
C1 C2 1_555 1_555
C2 H1 1_555 1_555
H2 C2 1_555 1_555
C3 C2 1_555 1_555
H3 C3 1_555 1_555
C4 C3 1_555 1_555
H4 C4 1_555 1_555
H5 C4 1_555 1_555
C5 C4 1_555 1_555
H6 C5 1_555 1_555
C6 C5 1_555 1_555
C7 C6 1_555 1_555
C8 H7 1_555 1_555
H8 C8 1_555 1_555
C9 C8 1_555 1_555
H9 C9 1_555 1_555
H10 C9 1_555 1_555
C10 C9 1_555 1_555
H11 C10 1_555 1_555
H12 C10 1_555 1_555
C11 C1 1_555 1_555
H13 C11 1_555 1_555
C12 C3 1_555 1_555
C13 C12 1_555 1_555
H14 C13 1_555 1_555
H15 C13 1_555 1_555
C14 C13 1_555 1_555
H16 C14 1_555 1_555
H17 C14 1_555 1_555
C15 C14 1_555 1_555
H18 C15 1_555 1_555
H19 C15 1_555 1_555
C16 C5 1_555 1_555
C17 H20 1_555 1_555
H21 C17 1_555 1_555
H22 C17 1_555 1_555
N1 C7 1_555 1_555
O1 C1 1_555 1_555
O2 C16 1_555 1_555
O3 C16 1_555 1_555
Br2 C24 1_555 1_555
C18 C19 1_555 1_555
C19 H23 1_555 1_555
C20 C19 1_555 1_555
H24 C20 1_555 1_555
H25 C20 1_555 1_555
C21 C20 1_555 1_555
H26 C21 1_555 1_555
H27 C21 1_555 1_555
C22 C21 1_555 1_555
H28 C22 1_555 1_555
H29 C22 1_555 1_555
C23 C24 1_555 1_555
C24 C25 1_555 1_555
C25 H30 1_555 1_555
C26 C25 1_555 1_555
H31 C26 1_555 1_555
H32 C26 1_555 1_555
C27 C26 1_555 1_555
H33 C27 1_555 1_555
C28 C19 1_555 1_555
C29 C28 1_555 1_555
H34 C29 1_555 1_555
H35 C29 1_555 1_555
C30 C29 1_555 1_555
H36 C30 1_555 1_555
H37 C30 1_555 1_555
C31 C30 1_555 1_555
H38 C31 1_555 1_555
H39 C31 1_555 1_555
C32 C25 1_555 1_555
C33 H40 1_555 1_555
H41 C33 1_555 1_555
H42 C33 1_555 1_555
C34 C18 1_555 1_555
H43 C34 1_555 1_555
H44 C34 1_555 1_555
N2 C22 1_555 1_555
O4 C18 1_555 1_555
O5 C32 1_555 1_555
O6 C32 1_555 1_555
Br3 C40 1_555 1_555
C35 C36 1_555 1_555
C36 H45 1_555 1_555
H46 C36 1_555 1_555
C37 C36 1_555 1_555
H47 C37 1_555 1_555
C38 C37 1_555 1_555
H48 C38 1_555 1_555
H49 C38 1_555 1_555
C39 C38 1_555 1_555
H50 C39 1_555 1_555
C40 C39 1_555 1_555
C41 C40 1_555 1_555
C42 C37 1_555 1_555
C43 C35 1_555 1_555
H51 C43 1_555 1_555
C44 C43 1_555 1_555
H52 C44 1_555 1_555
H53 C44 1_555 1_555
C45 C44 1_555 1_555
H54 C45 1_555 1_555
H55 C45 1_555 1_555
C46 C45 1_555 1_555
H56 C46 1_555 1_555
H57 C46 1_555 1_555
C47 H58 1_555 1_555
H59 C47 1_555 1_555
C48 C47 1_555 1_555
H60 C48 1_555 1_555
H61 C48 1_555 1_555
C49 C42 1_555 1_555
H62 C49 1_555 1_555
H63 C49 1_555 1_555
C50 C39 1_555 1_555
C51 H64 1_555 1_555
H65 C51 1_555 1_555
H66 C51 1_555 1_555
N3 C41 1_555 1_555
O7 C35 1_555 1_555
O8 C50 1_555 1_555
O9 C50 1_555 1_555
C7 C12 1_555 1_555
C8 N1 1_555 1_555
C10 C11 1_555 1_555
C11 C12 1_555 1_555
C15 N1 1_555 1_555
C17 O3 1_555 1_555
C23 C28 1_555 1_555
C23 N2 1_555 1_555
C27 C28 1_555 1_555
C27 C34 1_555 1_555
C31 N2 1_555 1_555
C33 O6 1_555 1_555
C41 C42 1_555 1_555
C42 C43 1_555 1_555
C46 N3 1_555 1_555
C47 N3 1_555 1_555
C48 C49 1_555 1_555
C51 O9 1_555 1_555

#END
