
#######################################################################
#
#                 Cambridge Crystallographic Data Centre
#                                CCDC 
#
#######################################################################
#
# If this CIF has been generated from an entry in the Cambridge 
# Structural Database, then it will include bibliographic, chemical, 
# crystal, experimental, refinement or atomic coordinate data resulting 
# from the CCDC's data processing and validation procedures.
#
#######################################################################

data_SOMZIF
_chemical_formula_moiety         'C17 H23 N1 O4'
_chemical_name_systematic        
'methyl 9-oxo-3-oxa-14-azapentacyclo[8.7.0.0^1,7^.0^2,4^.0^2,14^]heptadecane-5-carboxylate'
_symmetry_cell_setting           orthorhombic
_symmetry_space_group_name_H-M   'P 21 21 21'
_symmetry_Int_Tables_number      19
_space_group_name_Hall           'P 2ac 2ab'
loop_
_symmetry_equiv_pos_site_id
_symmetry_equiv_pos_as_xyz
1 x,y,z
2 1/2-x,-y,1/2+z
3 1/2+x,1/2-y,-z
4 -x,1/2+y,1/2-z
_cell_length_a                   8.5789(4)
_cell_length_b                   11.6976(7)
_cell_length_c                   14.9130(9)
_cell_angle_alpha                90
_cell_angle_beta                 90
_cell_angle_gamma                90
_cell_volume                     1496.56
_cell_formula_units_Z            4
_exptl_crystal_recrystallization_method methanol
loop_
_atom_site_label
_atom_site_type_symbol
_atom_site_fract_x
_atom_site_fract_y
_atom_site_fract_z
C1 C 0.8133(4) 0.4927(3) 0.3300(2)
C2 C 0.8238(4) 0.6113(3) 0.2889(2)
H1 H 0.7588 0.6618 0.3280
C3 C 0.9880(4) 0.6614(3) 0.2918(2)
H2 H 1.0280 0.6551 0.3539
H3 H 0.9820 0.7437 0.2768
C4 C 1.1046(4) 0.6045(3) 0.2286(2)
H4 H 1.2114 0.6193 0.2509
H5 H 1.0875 0.5208 0.2299
C5 C 1.0934(4) 0.6455(3) 0.1319(2)
H6 H 1.1110 0.7292 0.1316
H7 H 1.1798 0.6102 0.0978
C6 C 0.8329(3) 0.5506(3) 0.1250(2)
C7 C 0.7713(3) 0.4587(3) 0.0665(2)
H8 H 0.8150 0.4575 0.0043
C8 C 0.6086(4) 0.4096(3) 0.0758(2)
H9 H 0.5546 0.4269 0.0179
C9 C 0.5102(3) 0.4663(3) 0.1487(2)
H10 H 0.4479 0.5280 0.1206
H11 H 0.4361 0.4089 0.1723
C10 C 0.5992(3) 0.5171(3) 0.2275(2)
H12 H 0.5225 0.5636 0.2625
C11 C 0.6722(4) 0.4318(3) 0.2938(2)
H13 H 0.5983 0.4131 0.3427
H14 H 0.7025 0.3603 0.2629
C12 C 0.7330(3) 0.5998(3) 0.1999(2)
C13 C 0.6642(4) 0.7132(3) 0.1656(2)
H15 H 0.5782 0.6957 0.1235
H16 H 0.6190 0.7550 0.2171
C14 C 0.7810(4) 0.7912(3) 0.1184(2)
H17 H 0.7252 0.8561 0.0903
H18 H 0.8555 0.8225 0.1627
C15 C 0.8692(4) 0.7245(3) 0.0468(2)
H19 H 0.7954 0.7010 -0.0008
H20 H 0.9485 0.7750 0.0192
C16 C 0.6138(3) 0.2810(3) 0.0823(2)
C17 C 0.6960(5) 0.1120(3) 0.0099(3)
H21 H 0.7498 0.0809 0.0625
H22 H 0.7506 0.0880 -0.0447
H23 H 0.5886 0.0834 0.0085
N1 N 0.9466(3) 0.6224(2) 0.08319(18)
O1 O 0.9031(3) 0.4540(2) 0.38544(15)
O2 O 0.8824(2) 0.43394(17) 0.13692(14)
O3 O 0.5511(4) 0.2246(2) 0.1376(2)
O4 O 0.6944(3) 0.2360(2) 0.01497(17)
loop_
_geom_bond_atom_site_label_1
_geom_bond_atom_site_label_2
_geom_bond_site_symmetry_1
_geom_bond_site_symmetry_2
C1 C2 1_555 1_555
C2 H1 1_555 1_555
C3 C2 1_555 1_555
H2 C3 1_555 1_555
H3 C3 1_555 1_555
C4 C3 1_555 1_555
H4 C4 1_555 1_555
H5 C4 1_555 1_555
C5 C4 1_555 1_555
H6 C5 1_555 1_555
H7 C5 1_555 1_555
C6 C7 1_555 1_555
C7 H8 1_555 1_555
C8 C7 1_555 1_555
H9 C8 1_555 1_555
C9 C8 1_555 1_555
H10 C9 1_555 1_555
H11 C9 1_555 1_555
C10 C9 1_555 1_555
H12 C10 1_555 1_555
C11 C1 1_555 1_555
H13 C11 1_555 1_555
H14 C11 1_555 1_555
C12 C2 1_555 1_555
C13 C12 1_555 1_555
H15 C13 1_555 1_555
H16 C13 1_555 1_555
C14 C13 1_555 1_555
H17 C14 1_555 1_555
H18 C14 1_555 1_555
C15 C14 1_555 1_555
H19 C15 1_555 1_555
H20 C15 1_555 1_555
C16 C8 1_555 1_555
C17 H21 1_555 1_555
H22 C17 1_555 1_555
H23 C17 1_555 1_555
N1 C5 1_555 1_555
O1 C1 1_555 1_555
O2 C6 1_555 1_555
O3 C16 1_555 1_555
O4 C16 1_555 1_555
C6 C12 1_555 1_555
C6 N1 1_555 1_555
C7 O2 1_555 1_555
C10 C11 1_555 1_555
C10 C12 1_555 1_555
C15 N1 1_555 1_555
C17 O4 1_555 1_555

#END
