
#######################################################################
#
#                 Cambridge Crystallographic Data Centre
#                                CCDC 
#
#######################################################################
#
# If this CIF has been generated from an entry in the Cambridge 
# Structural Database, then it will include bibliographic, chemical, 
# crystal, experimental, refinement or atomic coordinate data resulting 
# from the CCDC's data processing and validation procedures.
#
#######################################################################

data_SONCIH
_chemical_formula_moiety         'C20 H28 O6'
_chemical_name_systematic        
2-(2H-1,3-Benzodioxol-5-yl)-5-ethyl-3a,7a-dimethoxy-3-methyl-2,3,3a,4,5,6,7,7a-octahydro-1-benzofuran-6-ol
_symmetry_cell_setting           monoclinic
_symmetry_space_group_name_H-M   'P 21'
_symmetry_Int_Tables_number      4
_space_group_name_Hall           'P 2yb'
loop_
_symmetry_equiv_pos_site_id
_symmetry_equiv_pos_as_xyz
1 x,y,z
2 -x,1/2+y,-z
_cell_length_a                   21.198(1)
_cell_length_b                   6.515(4)
_cell_length_c                   7.038(2)
_cell_angle_alpha                90
_cell_angle_beta                 97.0(5)
_cell_angle_gamma                90
_cell_volume                     964.738
_cell_formula_units_Z            2
loop_
_atom_site_label
_atom_site_type_symbol
_atom_site_fract_x
_atom_site_fract_y
_atom_site_fract_z
C1 C 0.5680(3) 0.4091 0.9050(10)
O1 O 0.5582(2) 0.6005(6) 0.8007(7)
C2 C 0.4951(3) 0.6025(10) 0.7239(8)
C3 C 0.4694(3) 0.4123(10) 0.7484(8)
O2 O 0.5144(2) 0.2830(8) 0.8441(7)
C4 C 0.4619(3) 0.7589(10) 0.6313(8)
C5 C 0.3969(3) 0.7127(10) 0.5626(8)
C6 C 0.3712(3) 0.5213(9) 0.5828(7)
C7 C 0.4071(3) 0.3662(9) 0.6794(8)
C8 C 0.3041(3) 0.4825(9) 0.4944(7)
C9 C 0.2974(3) 0.3437(9) 0.3187(7)
C10 C 0.2327(3) 0.2396(9) 0.3250(7)
C11 C 0.2351(3) 0.2023(9) 0.5416(7)
O3 O 0.2689(2) 0.3753(7) 0.6304(5)
C12 C 0.1771(3) 0.3704(10) 0.2534(9)
C13 C 0.1307(3) 0.4319(10) 0.3482(9)
C14 C 0.1310(3) 0.3839(10) 0.5581(10)
C15 C 0.1711(3) 0.1962(10) 0.6161(8)
C16 C 0.0739(3) 0.5522(12) 0.2428(12)
C17 C 0.0163(5) 0.4127(14) 0.1994(13)
C18 C 0.3061(4) 0.4570(11) 0.1348(8)
O4 O 0.2709(2) 0.0212(7) 0.5850(5)
O5 O 0.2338(2) 0.0600(7) 0.2105(5)
O6 O 0.1524(3) 0.5603(9) 0.6758(80)
C19 C 0.1798(4) -0.0670(11) 0.2021(90)
C20 C 0.2766(4) -0.0498(10) 0.7758(80)
H1 H 0.571 0.433 1.039
H2 H 0.606 0.345 0.877
H3 H 0.480 0.889 0.613
H4 H 0.378 0.792 0.495
H5 H 0.391 0.248 0.703
H7 H 0.326 0.227 0.334
H8 H 0.181 0.357 0.184
H12 H 0.183 0.190 0.730
H13 H 0.151 0.089 0.559
H14 H 0.085 0.605 0.126
H15 H 0.063 0.663 0.321
H16 H 0.032 0.324 0.109
H17 H -0.012 0.508 0.133
H18 H -0.018 0.310 0.251
H19 H 0.342 0.460 0.124
H20 H 0.299 0.385 0.038
H21 H 0.296 0.568 0.133
H22 H 0.144 0.592 0.597
H23 H 0.144 -0.112 0.203
H24 H 0.200 -0.172 0.280
H25 H 0.180 -0.103 0.071
H26 H 0.297 -0.174 0.785
H27 H 0.294 0.036 0.823
H28 H 0.262 -0.128 0.904
H6? H 0.271 0.475 0.553
H9? H 0.185 0.485 0.343
H10? H 0.139 0.415 0.266
H11? H 0.137 0.426 0.453
loop_
_geom_bond_atom_site_label_1
_geom_bond_atom_site_label_2
_geom_bond_site_symmetry_1
_geom_bond_site_symmetry_2
C1 O1 1_555 1_555
O1 C2 1_555 1_555
C2 C3 1_555 1_555
C3 O2 1_555 1_555
O2 C1 1_555 1_555
C4 C2 1_555 1_555
C5 C4 1_555 1_555
C6 C5 1_555 1_555
C7 C3 1_555 1_555
C8 C6 1_555 1_555
C9 C8 1_555 1_555
C10 C9 1_555 1_555
C11 C10 1_555 1_555
O3 C8 1_555 1_555
C12 C10 1_555 1_555
C13 C12 1_555 1_555
C14 C13 1_555 1_555
C15 C11 1_555 1_555
C16 C13 1_555 1_555
C17 C16 1_555 1_555
C18 C9 1_555 1_555
O4 C11 1_555 1_555
O5 C10 1_555 1_555
O6 C14 1_555 1_555
C19 O5 1_555 1_555
C20 O4 1_555 1_555
H1 C1 1_555 1_555
H2 C1 1_555 1_555
H3 C4 1_555 1_555
H4 C5 1_555 1_555
H5 C7 1_555 1_555
H7 C9 1_555 1_555
H8 C12 1_555 1_555
H12 C15 1_555 1_555
H13 C15 1_555 1_555
H14 C16 1_555 1_555
H15 C16 1_555 1_555
H16 C17 1_555 1_555
H17 C17 1_555 1_555
H18 C17 1_555 1_555
H19 C18 1_555 1_555
H20 C18 1_555 1_555
H21 C18 1_555 1_555
H22 O6 1_555 1_555
H23 C19 1_555 1_555
H24 C19 1_555 1_555
H25 C19 1_555 1_555
H26 C20 1_555 1_555
H27 C20 1_555 1_555
H28 C20 1_555 1_555
C6 C7 1_555 1_555
C11 O3 1_555 1_555
C14 C15 1_555 1_555

#END
