
#######################################################################
#
#                 Cambridge Crystallographic Data Centre
#                                CCDC 
#
#######################################################################
#
# If this CIF has been generated from an entry in the Cambridge 
# Structural Database, then it will include bibliographic, chemical, 
# crystal, experimental, refinement or atomic coordinate data resulting 
# from the CCDC's data processing and validation procedures.
#
#######################################################################

data_SOPPEU
_chemical_formula_moiety         'C17 H15 N1 O4 S1'
_chemical_name_systematic        
4-Methylene-3-((4-methylphenyl)sulfonyl)-5-phenyl-1,3-oxazolidin-2-one
_symmetry_cell_setting           triclinic
_symmetry_space_group_name_H-M   'P -1'
_symmetry_Int_Tables_number      2
_space_group_name_Hall           '-P 1'
loop_
_symmetry_equiv_pos_site_id
_symmetry_equiv_pos_as_xyz
1 x,y,z
2 -x,-y,-z
_cell_length_a                   8.3583(11)
_cell_length_b                   10.4141(14)
_cell_length_c                   10.6720(14)
_cell_angle_alpha                64.939(3)
_cell_angle_beta                 87.311(3)
_cell_angle_gamma                69.540(3)
_cell_volume                     782.78
_exptl_crystal_colour            colorless
_exptl_crystal_description       prismatic
_cell_formula_units_Z            2
loop_
_atom_site_label
_atom_site_type_symbol
_atom_site_fract_x
_atom_site_fract_y
_atom_site_fract_z
S1 S 0.09169(7) 0.51344(8) 0.27452(8)
N1 N 0.1201(2) 0.4162(2) 0.1766(2)
O1 O 0.0394(3) 0.2165(3) 0.3286(3)
O2 O 0.1842(2) 0.2020(2) 0.1533(2)
O3 O 0.0699(2) 0.6644(2) 0.1776(2)
O4 O -0.0389(2) 0.4830(3) 0.3571(3)
C1 C 0.1072(3) 0.2713(3) 0.2317(3)
C2 C 0.2202(3) 0.4348(3) 0.0643(3)
C3 C 0.2602(4) 0.5530(3) -0.0159(3)
H1 H 0.2207 0.6406 -0.0017
H2 H 0.3280 0.5491 -0.0868
C4 C 0.2733(3) 0.2873(3) 0.0518(3)
H3 H 0.2320 0.3077 -0.0417
C5 C 0.4639(3) 0.1973(3) 0.0815(3)
C6 C 0.5537(3) 0.1601(3) 0.2057(3)
H4 H 0.4969 0.1931 0.2697
C7 C 0.7274(4) 0.0739(3) 0.2343(3)
H5 H 0.7879 0.0498 0.3171
C8 C 0.8106(4) 0.0239(3) 0.1407(4)
H6 H 0.9271 -0.0362 0.1613
C9 C 0.7244(4) 0.0613(4) 0.0184(4)
H7 H 0.7822 0.0281 -0.0452
C10 C 0.5494(4) 0.1493(3) -0.0123(3)
H8 H 0.4907 0.1754 -0.0966
C11 C 0.2913(3) 0.4260(3) 0.3758(3)
C12 C 0.3207(3) 0.2971(3) 0.4989(3)
H9 H 0.2322 0.2621 0.5334
C13 C 0.4840(4) 0.2210(3) 0.5699(3)
H10 H 0.5046 0.1344 0.6536
C14 C 0.6184(3) 0.2700(3) 0.5201(3)
C15 C 0.5838(3) 0.4001(3) 0.3982(3)
H11 H 0.6721 0.4356 0.3644
C16 C 0.4220(3) 0.4799(3) 0.3242(3)
H12 H 0.4011 0.5678 0.2416
C17 C 0.7960(4) 0.1845(3) 0.5981(3)
H13 H 0.8795 0.1907 0.5330
H14 H 0.8106 0.0797 0.6536
H15 H 0.8114 0.2283 0.6576
loop_
_geom_bond_atom_site_label_1
_geom_bond_atom_site_label_2
_geom_bond_site_symmetry_1
_geom_bond_site_symmetry_2
S1 N1 1_555 1_555
N1 C1 1_555 1_555
O1 C1 1_555 1_555
O2 C1 1_555 1_555
O3 S1 1_555 1_555
O4 S1 1_555 1_555
C2 N1 1_555 1_555
C3 C2 1_555 1_555
H1 C3 1_555 1_555
H2 C3 1_555 1_555
C4 O2 1_555 1_555
H3 C4 1_555 1_555
C5 C4 1_555 1_555
C6 C5 1_555 1_555
H4 C6 1_555 1_555
C7 C6 1_555 1_555
H5 C7 1_555 1_555
C8 C7 1_555 1_555
H6 C8 1_555 1_555
C9 C8 1_555 1_555
H7 C9 1_555 1_555
C10 C5 1_555 1_555
H8 C10 1_555 1_555
C11 S1 1_555 1_555
C12 C11 1_555 1_555
H9 C12 1_555 1_555
C13 C12 1_555 1_555
H10 C13 1_555 1_555
C14 C13 1_555 1_555
C15 C14 1_555 1_555
H11 C15 1_555 1_555
C16 C11 1_555 1_555
H12 C16 1_555 1_555
C17 C14 1_555 1_555
H13 C17 1_555 1_555
H14 C17 1_555 1_555
H15 C17 1_555 1_555
C2 C4 1_555 1_555
C9 C10 1_555 1_555
C15 C16 1_555 1_555

#END
