
#######################################################################
#
#                 Cambridge Crystallographic Data Centre
#                                CCDC 
#
#######################################################################
#
# If this CIF has been generated from an entry in the Cambridge 
# Structural Database, then it will include bibliographic, chemical, 
# crystal, experimental, refinement or atomic coordinate data resulting 
# from the CCDC's data processing and validation procedures.
#
#######################################################################

data_SOPVUQ
_chemical_formula_moiety         'C13 H11 F3 I1 N1 O2 S1'
_chemical_name_systematic        
1,1,1-trifluoro-N-(1-(3-iodo-2-naphthyl)ethyl)methanesulfonamide
_symmetry_cell_setting           monoclinic
_symmetry_space_group_name_H-M   'P 21'
_symmetry_Int_Tables_number      4
_space_group_name_Hall           'P 2yb'
loop_
_symmetry_equiv_pos_site_id
_symmetry_equiv_pos_as_xyz
1 x,y,z
2 -x,1/2+y,-z
_cell_length_a                   9.653(2)
_cell_length_b                   7.5500(16)
_cell_length_c                   10.651(2)
_cell_angle_alpha                90
_cell_angle_beta                 106.626(6)
_cell_angle_gamma                90
_cell_volume                     743.794
_exptl_crystal_colour            colorless
_exptl_crystal_description       Block
_cell_formula_units_Z            2
_exptl_crystal_recrystallization_method 'hexane/ ethyl acetate'
loop_
_atom_site_label
_atom_site_type_symbol
_atom_site_fract_x
_atom_site_fract_y
_atom_site_fract_z
I1 I 1.10464(3) 0.33747(5) 0.89409(2)
S1 S 0.71142(13) 0.80204(15) 0.58523(11)
F1 F 0.8265(5) 0.9710(4) 0.4262(4)
F2 F 0.8986(4) 0.7008(5) 0.4652(4)
F3 F 0.6867(4) 0.7554(4) 0.3367(3)
O1 O 0.8254(3) 0.8667(5) 0.6918(3)
O2 O 0.5755(3) 0.8919(4) 0.5390(3)
N1 N 0.6832(5) 0.6000(5) 0.6062(4)
H1 H 0.610(4) 0.557(6) 0.552(4)
C1 C 0.6348(5) 0.4354(6) 0.9748(5)
C2 C 0.5036(5) 0.4681(6) 1.0056(5)
H2 H 0.4230 0.5155 0.9408
C3 C 0.4922(6) 0.4320(7) 1.1278(5)
H3 H 0.4038 0.4549 1.1472
C4 C 0.6101(5) 0.3611(9) 1.2255(4)
H4 H 0.6006 0.3361 1.3100
C5 C 0.7376(5) 0.3284(11) 1.1991(4)
H5 H 0.8162 0.2801 1.2655
C6 C 0.7546(5) 0.3655(7) 1.0736(4)
C7 C 0.8859(4) 0.3395(11) 1.0432(4)
H6 H 0.9673 0.2955 1.1088
C8 C 0.8984(5) 0.3760(5) 0.9217(4)
C9 C 0.7790(5) 0.4437(6) 0.8201(5)
C10 C 0.6521(5) 0.4723(6) 0.8494(5)
H7 H 0.5722 0.5188 0.7833
C11 C 0.7963(5) 0.4759(6) 0.6832(5)
H8 H 0.8936 0.5293 0.6928
C12 C 0.7852(5) 0.3027(6) 0.6070(5)
H9 H 0.6883 0.2523 0.5928
H10 H 0.8576 0.2188 0.6571
H11 H 0.8025 0.3257 0.5222
C13 C 0.7860(6) 0.8073(7) 0.4441(5)
loop_
_geom_bond_atom_site_label_1
_geom_bond_atom_site_label_2
_geom_bond_site_symmetry_1
_geom_bond_site_symmetry_2
I1 C8 1_555 1_555
S1 O1 1_555 1_555
F1 C13 1_555 1_555
F2 C13 1_555 1_555
F3 C13 1_555 1_555
O2 S1 1_555 1_555
N1 S1 1_555 1_555
H1 N1 1_555 1_555
C1 C2 1_555 1_555
C2 H2 1_555 1_555
C3 C2 1_555 1_555
H3 C3 1_555 1_555
C4 C3 1_555 1_555
H4 C4 1_555 1_555
C5 C4 1_555 1_555
H5 C5 1_555 1_555
C6 C1 1_555 1_555
C7 C6 1_555 1_555
H6 C7 1_555 1_555
C8 C7 1_555 1_555
C9 C8 1_555 1_555
C10 C1 1_555 1_555
H7 C10 1_555 1_555
C11 N1 1_555 1_555
H8 C11 1_555 1_555
C12 C11 1_555 1_555
H9 C12 1_555 1_555
H10 C12 1_555 1_555
H11 C12 1_555 1_555
C13 S1 1_555 1_555
C5 C6 1_555 1_555
C9 C10 1_555 1_555
C9 C11 1_555 1_555

#END
