
#######################################################################
#
#                 Cambridge Crystallographic Data Centre
#                                CCDC 
#
#######################################################################
#
# If this CIF has been generated from an entry in the Cambridge 
# Structural Database, then it will include bibliographic, chemical, 
# crystal, experimental, refinement or atomic coordinate data resulting 
# from the CCDC's data processing and validation procedures.
#
#######################################################################

data_SOQKUF
_chemical_compound_source        
'vines and leaves of Momordica charantia L. (Cucurbitaceae)'
_chemical_name_common            'Kuguacin R dihydrate'
_chemical_formula_moiety         'C30 H48 O4,2(H2 O1)'
_chemical_name_systematic        
'8-(6-Hydroxy-6-methylhept-4-en-2-yl)-5,9,17,17-tetramethyl-18-oxapentacyclo(10.5.2.0^1,13^.0^4,12^.0^5,9^)nonadec-2-ene-16,19-diol dihydrate'
_chemical_properties_biological  'weak anti-HIV-1 activity'
_symmetry_cell_setting           orthorhombic
_symmetry_space_group_name_H-M   'P 21 21 2'
_symmetry_Int_Tables_number      18
_space_group_name_Hall           'P 2 2ab'
loop_
_symmetry_equiv_pos_site_id
_symmetry_equiv_pos_as_xyz
1 x,y,z
2 -x,-y,z
3 1/2+x,1/2-y,-z
4 1/2-x,1/2+y,-z
_cell_length_a                   19.768(3)
_cell_length_b                   19.986(3)
_cell_length_c                   7.7426(10)
_cell_angle_alpha                90
_cell_angle_beta                 90
_cell_angle_gamma                90
_cell_volume                     3058.97
_exptl_crystal_colour            colorless
_exptl_crystal_description       block
_cell_formula_units_Z            4
_exptl_crystal_recrystallization_method methanol
loop_
_atom_site_label
_atom_site_type_symbol
_atom_site_fract_x
_atom_site_fract_y
_atom_site_fract_z
C1 C 0.6363(3) -0.1185(4) 0.0732(10)
H1 H 0.6698 -0.1142 -0.0177
H2 H 0.5978 -0.0909 0.0424
C2 C 0.6136(5) -0.1917(4) 0.0857(13)
H3 H 0.5939 -0.2056 -0.0233
H4 H 0.6526 -0.2199 0.1084
C3 C 0.5622(4) -0.2003(4) 0.2289(11)
C4 C 0.5914(4) -0.1793(4) 0.4061(11)
C5 C 0.6204(3) -0.1079(3) 0.3959(9)
C6 C 0.6562(4) -0.0884(5) 0.5633(10)
C7 C 0.6984(4) -0.0363(4) 0.5657(9)
C8 C 0.7138(3) 0.0048(4) 0.4104(9)
H5 H 0.6992 0.0503 0.4399
C9 C 0.6698(3) -0.0158(3) 0.2549(9)
C10 C 0.6662(3) -0.0935(3) 0.2421(8)
H6 H 0.7110 -0.1131 0.2607
C11 C 0.6913(3) 0.0223(3) 0.0918(9)
H7 H 0.6723 0.0670 0.0979
H8 H 0.6710 0.0002 -0.0071
C12 C 0.7689(3) 0.0288(3) 0.0582(9)
H9 H 0.7880 -0.0150 0.0341
H10 H 0.7768 0.0572 -0.0413
C13 C 0.8029(3) 0.0589(3) 0.2171(8)
C14 C 0.7910(3) 0.0108(3) 0.3705(9)
C15 C 0.8339(4) 0.0452(5) 0.5126(11)
H11 H 0.8101 0.0831 0.5619
H12 H 0.8453 0.0140 0.6041
C16 C 0.8969(3) 0.0677(4) 0.4166(10)
H13 H 0.9351 0.0397 0.4480
H14 H 0.9076 0.1137 0.4464
C17 C 0.8827(3) 0.0619(3) 0.2198(9)
H15 H 0.8996 0.0183 0.1814
C18 C 0.8206(3) -0.0602(3) 0.3398(10)
H16 H 0.8040 -0.0776 0.2322
H17 H 0.8070 -0.0893 0.4322
H18 H 0.8691 -0.0577 0.3359
C19 C 0.5945(4) -0.0008(4) 0.2936(10)
H19 H 0.5721 0.0078 0.1829
C20 C 0.9192(3) 0.1161(3) 0.1127(10)
H20 H 0.9033 0.1602 0.1497
C21 C 0.9064(5) 0.1083(5) -0.0804(12)
H21 H 0.9346 0.1390 -0.1430
H22 H 0.8597 0.1179 -0.1048
H23 H 0.9166 0.0633 -0.1150
C22 C 0.9954(4) 0.1110(4) 0.1471(13)
H24 H 1.0031 0.1147 0.2705
H25 H 1.0109 0.0671 0.1112
C23 C 1.0372(4) 0.1634(4) 0.0559(13)
H26 H 1.0301 0.2079 0.0860
C24 C 1.0828(4) 0.1508(4) -0.0624(16)
H27 H 1.0885 0.1061 -0.0927
C25 C 1.1274(4) 0.2009(4) -0.1557(14)
C26 C 1.1108(9) 0.1989(8) -0.3461(17)
H28 H 1.0627 0.1961 -0.3609
H29 H 1.1319 0.1605 -0.3977
H30 H 1.1274 0.2388 -0.4007
C27 C 1.2007(4) 0.1843(5) -0.126(2)
H31 H 1.2284 0.2116 -0.1999
H32 H 1.2084 0.1380 -0.1525
H33 H 1.2122 0.1927 -0.0078
C28 C 0.6477(5) -0.2274(5) 0.4579(16)
H34 H 0.6563 -0.2234 0.5795
H35 H 0.6881 -0.2167 0.3950
H36 H 0.6343 -0.2725 0.4318
C29 C 0.5349(5) -0.1852(5) 0.5448(14)
H37 H 0.5511 -0.1678 0.6527
H38 H 0.5226 -0.2314 0.5590
H39 H 0.4960 -0.1601 0.5085
C30 C 0.7758(4) 0.1302(3) 0.2448(12)
H40 H 0.7852 0.1569 0.1445
H41 H 0.7974 0.1498 0.3437
H42 H 0.7278 0.1285 0.2634
O1 O 1.1171(3) 0.2675(3) -0.0947(11)
H47 H 1.0870 0.2853 -0.1510
O2 O 0.5013(3) -0.1673(3) 0.1868(8)
O3 O 0.5653(2) -0.0603(3) 0.3647(7)
O4 O 0.5838(4) 0.0509(4) 0.3919(13)
H48 H 0.6143 0.0540 0.4631
H43 H 0.165(4) 0.289(2) 0.288(10)
H45 H 0.1267(16) 0.323(3) 0.198(7)
O5 O 0.1689(16) 0.3301(13) 0.242(5)
H44? H 0.5000 1.0000 0.714(13)
H46? H 0.567(3) 0.980(3) 0.755(14)
O6? O 0.536(3) 1.012(3) 0.779(3)
loop_
_geom_bond_atom_site_label_1
_geom_bond_atom_site_label_2
_geom_bond_site_symmetry_1
_geom_bond_site_symmetry_2
C1 H1 1_555 1_555
H2 C1 1_555 1_555
C2 C1 1_555 1_555
H3 C2 1_555 1_555
H4 C2 1_555 1_555
C3 C2 1_555 1_555
C4 C3 1_555 1_555
C5 C4 1_555 1_555
C6 C5 1_555 1_555
C7 C6 1_555 1_555
C8 C7 1_555 1_555
H5 C8 1_555 1_555
C9 C8 1_555 1_555
C10 C1 1_555 1_555
H6 C10 1_555 1_555
C11 C9 1_555 1_555
H7 C11 1_555 1_555
H8 C11 1_555 1_555
C12 C11 1_555 1_555
H9 C12 1_555 1_555
H10 C12 1_555 1_555
C13 C12 1_555 1_555
C14 C8 1_555 1_555
C15 C14 1_555 1_555
H11 C15 1_555 1_555
H12 C15 1_555 1_555
C16 C15 1_555 1_555
H13 C16 1_555 1_555
H14 C16 1_555 1_555
C17 C13 1_555 1_555
H15 C17 1_555 1_555
C18 C14 1_555 1_555
H16 C18 1_555 1_555
H17 C18 1_555 1_555
H18 C18 1_555 1_555
C19 C9 1_555 1_555
H19 C19 1_555 1_555
C20 C17 1_555 1_555
H20 C20 1_555 1_555
C21 C20 1_555 1_555
H21 C21 1_555 1_555
H22 C21 1_555 1_555
H23 C21 1_555 1_555
C22 C20 1_555 1_555
H24 C22 1_555 1_555
H25 C22 1_555 1_555
C23 C22 1_555 1_555
H26 C23 1_555 1_555
C24 C23 1_555 1_555
H27 C24 1_555 1_555
C25 C24 1_555 1_555
C26 C25 1_555 1_555
H28 C26 1_555 1_555
H29 C26 1_555 1_555
H30 C26 1_555 1_555
C27 C25 1_555 1_555
H31 C27 1_555 1_555
H32 C27 1_555 1_555
H33 C27 1_555 1_555
C28 C4 1_555 1_555
H34 C28 1_555 1_555
H35 C28 1_555 1_555
H36 C28 1_555 1_555
C29 C4 1_555 1_555
H37 C29 1_555 1_555
H38 C29 1_555 1_555
H39 C29 1_555 1_555
C30 C13 1_555 1_555
H40 C30 1_555 1_555
H41 C30 1_555 1_555
H42 C30 1_555 1_555
H43 O5 1_555 1_555
H45 O5 1_555 1_555
O1 C25 1_555 1_555
H47 O1 1_555 1_555
O2 C3 1_555 1_555
O3 C5 1_555 1_555
O4 C19 1_555 1_555
H48 O4 1_555 1_555
C5 C10 1_555 1_555
C9 C10 1_555 1_555
C13 C14 1_555 1_555
C16 C17 1_555 1_555
C19 O3 1_555 1_555

#END
