
#######################################################################
#
#                 Cambridge Crystallographic Data Centre
#                                CCDC 
#
#######################################################################
#
# If this CIF has been generated from an entry in the Cambridge 
# Structural Database, then it will include bibliographic, chemical, 
# crystal, experimental, refinement or atomic coordinate data resulting 
# from the CCDC's data processing and validation procedures.
#
#######################################################################

data_SORMOD
_chemical_formula_moiety         'C18 H13 F3 O3'
_chemical_name_systematic        
'methyl 4-(2-benzoyl-3,3,3-trifluoroprop-1-en-1-yl)benzoate'
_symmetry_cell_setting           triclinic
_symmetry_space_group_name_H-M   'P -1'
_symmetry_Int_Tables_number      2
_space_group_name_Hall           '-P 1'
loop_
_symmetry_equiv_pos_site_id
_symmetry_equiv_pos_as_xyz
1 x,y,z
2 -x,-y,-z
_cell_length_a                   7.710(3)
_cell_length_b                   8.273(3)
_cell_length_c                   13.810(5)
_cell_angle_alpha                75.577(7)
_cell_angle_beta                 74.315(7)
_cell_angle_gamma                72.932(7)
_cell_volume                     796.811
_exptl_crystal_colour            colorless
_exptl_crystal_description       prismatic
_cell_formula_units_Z            2
loop_
_atom_site_label
_atom_site_type_symbol
_atom_site_fract_x
_atom_site_fract_y
_atom_site_fract_z
O1 O 0.2280(2) 0.38365(17) 0.63675(11)
O2 O 0.5865(2) 0.2371(2) 1.06639(13)
O3 O 0.42350(18) 0.04840(18) 1.16118(10)
C1 C 0.0099(3) 0.8163(2) 0.67837(15)
H1 H -0.0925 0.7947 0.7289
C2 C 0.0365(4) 0.9802(3) 0.64897(19)
H2 H -0.0472 1.0685 0.6801
C3 C 0.1852(4) 1.0136(3) 0.5743(2)
H3 H 0.2027 1.1247 0.5543
C4 C 0.3090(4) 0.8833(4) 0.52862(18)
H4 H 0.4097 0.9066 0.4773
C5 C 0.2853(3) 0.7178(3) 0.55819(15)
H5 H 0.3708 0.6297 0.5276
C6 C 0.1338(2) 0.6832(2) 0.63357(12)
C7 C 0.1098(3) 0.5052(2) 0.66551(12)
C8 C -0.0707(3) 0.4735(2) 0.73615(13)
C9 C -0.0911(3) 0.4041(2) 0.83523(13)
H6 H -0.2074 0.3845 0.8681
C10 C 0.0479(2) 0.3545(2) 0.89907(12)
C11 C 0.0336(2) 0.2192(2) 0.98173(13)
H7 H -0.0658 0.1686 0.9966
C12 C 0.1636(2) 0.1589(2) 1.04186(13)
H8 H 0.1533 0.0664 1.0957
C13 C 0.3100(2) 0.2360(2) 1.02217(12)
C14 C 0.3201(2) 0.3760(2) 0.94256(13)
H9 H 0.4151 0.4312 0.9303
C15 C 0.1917(3) 0.4341(2) 0.88165(13)
H10 H 0.2012 0.5275 0.8284
C16 C 0.4551(3) 0.1766(2) 1.08419(13)
C17 C 0.5586(3) -0.0200(3) 1.22582(18)
H11 H 0.6806 -0.0512 1.1841
H12 H 0.5299 -0.1198 1.2735
H13 H 0.5546 0.0658 1.2626
C18 C -0.2287(3) 0.5086(3) 0.68404(16)
F1 F -0.1671(5) 0.4450(6) 0.5979(3)
F2 F -0.3600(5) 0.4392(8) 0.7345(2)
F3 F -0.2922(5) 0.6729(3) 0.6502(4)
F4? F -0.2849(12) 0.3718(9) 0.6903(8)
F5? F -0.3886(8) 0.6017(10) 0.7354(6)
F6? F -0.2050(11) 0.5758(15) 0.5925(5)
loop_
_geom_bond_atom_site_label_1
_geom_bond_atom_site_label_2
_geom_bond_site_symmetry_1
_geom_bond_site_symmetry_2
O1 C7 1_555 1_555
O2 C16 1_555 1_555
O3 C16 1_555 1_555
C1 H1 1_555 1_555
C2 C1 1_555 1_555
H2 C2 1_555 1_555
C3 C2 1_555 1_555
H3 C3 1_555 1_555
C4 C3 1_555 1_555
H4 C4 1_555 1_555
C5 C4 1_555 1_555
H5 C5 1_555 1_555
C6 C1 1_555 1_555
C7 C6 1_555 1_555
C8 C7 1_555 1_555
C9 C8 1_555 1_555
H6 C9 1_555 1_555
C10 C9 1_555 1_555
C11 C10 1_555 1_555
H7 C11 1_555 1_555
C12 C11 1_555 1_555
H8 C12 1_555 1_555
C13 C12 1_555 1_555
C14 C13 1_555 1_555
H9 C14 1_555 1_555
C15 C10 1_555 1_555
H10 C15 1_555 1_555
C16 C13 1_555 1_555
C17 O3 1_555 1_555
H11 C17 1_555 1_555
H12 C17 1_555 1_555
H13 C17 1_555 1_555
C18 C8 1_555 1_555
F1 C18 1_555 1_555
F2 C18 1_555 1_555
F3 C18 1_555 1_555
C5 C6 1_555 1_555
C14 C15 1_555 1_555

#END
