
#######################################################################
#
#                 Cambridge Crystallographic Data Centre
#                                CCDC 
#
#######################################################################
#
# If this CIF has been generated from an entry in the Cambridge 
# Structural Database, then it will include bibliographic, chemical, 
# crystal, experimental, refinement or atomic coordinate data resulting 
# from the CCDC's data processing and validation procedures.
#
#######################################################################

data_SOSDAG
_chemical_formula_moiety         'C18 H24 F1 N1 O2 Si1'
_chemical_name_systematic        
1-(4-(Di-t-butyl(fluoro)silanyl)phenyl)pyrrole-2,5-dione
_symmetry_cell_setting           monoclinic
_symmetry_space_group_name_H-M   'C 2/c'
_symmetry_Int_Tables_number      15
_space_group_name_Hall           '-C 2yn'
loop_
_symmetry_equiv_pos_site_id
_symmetry_equiv_pos_as_xyz
1 x,y,z
2 -x,y,1/2-z
3 1/2+x,1/2+y,z
4 1/2-x,1/2+y,1/2-z
5 -x,-y,-z
6 x,-y,1/2+z
7 1/2-x,1/2-y,-z
8 1/2+x,1/2-y,1/2+z
_cell_length_a                   35.752(4)
_cell_length_b                   6.9474(10)
_cell_length_c                   14.9184(13)
_cell_angle_alpha                90
_cell_angle_beta                 91.663(8)
_cell_angle_gamma                90
_cell_volume                     3703.92
_exptl_crystal_colour            yellow
_chemical_melting_point          '125-126 deg.C'
_cell_formula_units_Z            8
_exptl_crystal_recrystallization_method n-hexane
loop_
_atom_site_label
_atom_site_type_symbol
_atom_site_fract_x
_atom_site_fract_y
_atom_site_fract_z
Si1 Si 0.099446(15) 0.26442(9) -0.03289(4)
F1 F 0.11165(3) 0.47889(18) -0.00324(9)
O1 O 0.23477(4) -0.4144(2) -0.06703(11)
O2 O 0.27815(4) 0.1267(3) -0.20283(12)
N1 N 0.24557(4) -0.1197(2) -0.13497(11)
C1 C 0.14338(5) 0.1445(3) -0.06760(13)
C2 C 0.17743(5) 0.2429(3) -0.05999(13)
H1 H 0.1776 0.3717 -0.0387
C3 C 0.21092(5) 0.1583(3) -0.08255(13)
H2 H 0.2337 0.2279 -0.0757
C4 C 0.21108(5) -0.0276(3) -0.11507(13)
C5 C 0.17788(5) -0.1289(3) -0.12612(14)
H3 H 0.1779 -0.2556 -0.1501
C6 C 0.14469(5) -0.0435(3) -0.10185(14)
H4 H 0.1221 -0.1145 -0.1086
C7 C 0.25439(6) -0.3086(3) -0.10869(15)
C8 C 0.29301(6) -0.3456(4) -0.13968(18)
H5 H 0.3065 -0.4629 -0.1326
C9 C 0.30529(7) -0.1895(4) -0.17821(18)
H6 H 0.3292 -0.1762 -0.2038
C10 C 0.27626(6) -0.0360(4) -0.17589(16)
C11 C 0.06630(6) 0.3025(4) -0.13118(15)
C12 C 0.08965(7) 0.3690(4) -0.21095(17)
H7 H 0.0729 0.4006 -0.2620
H8 H 0.1066 0.2654 -0.2280
H9 H 0.1042 0.4831 -0.1935
C13 C 0.03726(7) 0.4612(5) -0.11165(19)
H10 H 0.0221 0.4873 -0.1661
H11 H 0.0503 0.5790 -0.0926
H12 H 0.0210 0.4179 -0.0639
C14 C 0.04542(6) 0.1178(4) -0.15896(17)
H13 H 0.0308 0.1411 -0.2145
H14 H 0.0286 0.0797 -0.1113
H15 H 0.0635 0.0146 -0.1688
C15 C 0.08119(6) 0.1502(4) 0.07131(14)
C16 C 0.04547(6) 0.2511(4) 0.10261(15)
H16 H 0.0395 0.2051 0.1626
H17 H 0.0246 0.2218 0.0607
H18 H 0.0496 0.3905 0.1044
C17 C 0.11162(7) 0.1733(5) 0.14527(17)
H19 H 0.1025 0.1223 0.2018
H20 H 0.1178 0.3100 0.1526
H21 H 0.1341 0.1024 0.1286
C18 C 0.07248(8) -0.0660(4) 0.05934(18)
H22 H 0.0624 -0.1172 0.1149
H23 H 0.0955 -0.1351 0.0454
H24 H 0.0540 -0.0830 0.0102
loop_
_geom_bond_atom_site_label_1
_geom_bond_atom_site_label_2
_geom_bond_site_symmetry_1
_geom_bond_site_symmetry_2
Si1 F1 1_555 1_555
O1 C7 1_555 1_555
O2 C10 1_555 1_555
N1 C4 1_555 1_555
C1 Si1 1_555 1_555
C2 C1 1_555 1_555
H1 C2 1_555 1_555
C3 C2 1_555 1_555
H2 C3 1_555 1_555
C4 C3 1_555 1_555
C5 C4 1_555 1_555
H3 C5 1_555 1_555
C6 C1 1_555 1_555
H4 C6 1_555 1_555
C7 N1 1_555 1_555
C8 C7 1_555 1_555
H5 C8 1_555 1_555
C9 C8 1_555 1_555
H6 C9 1_555 1_555
C10 N1 1_555 1_555
C11 Si1 1_555 1_555
C12 C11 1_555 1_555
H7 C12 1_555 1_555
H8 C12 1_555 1_555
H9 C12 1_555 1_555
C13 C11 1_555 1_555
H10 C13 1_555 1_555
H11 C13 1_555 1_555
H12 C13 1_555 1_555
C14 C11 1_555 1_555
H13 C14 1_555 1_555
H14 C14 1_555 1_555
H15 C14 1_555 1_555
C15 Si1 1_555 1_555
C16 C15 1_555 1_555
H16 C16 1_555 1_555
H17 C16 1_555 1_555
H18 C16 1_555 1_555
C17 C15 1_555 1_555
H19 C17 1_555 1_555
H20 C17 1_555 1_555
H21 C17 1_555 1_555
C18 C15 1_555 1_555
H22 C18 1_555 1_555
H23 C18 1_555 1_555
H24 C18 1_555 1_555
C5 C6 1_555 1_555
C9 C10 1_555 1_555

#END
