
#######################################################################
#
#                 Cambridge Crystallographic Data Centre
#                                CCDC 
#
#######################################################################
#
# If this CIF has been generated from an entry in the Cambridge 
# Structural Database, then it will include bibliographic, chemical, 
# crystal, experimental, refinement or atomic coordinate data resulting 
# from the CCDC's data processing and validation procedures.
#
#######################################################################

data_SOSKUI
_chemical_formula_moiety         'C32 H26 N2 O2'
_chemical_name_systematic        
8-(4-methoxyphenyl)-6-(2-(4-methoxyphenyl)pyridin-3-yl)-10-methylpyrido[1,2-a]indole
_symmetry_cell_setting           monoclinic
_symmetry_space_group_name_H-M   'P 21/c'
_symmetry_Int_Tables_number      14
_space_group_name_Hall           '-P 2ybc'
loop_
_symmetry_equiv_pos_site_id
_symmetry_equiv_pos_as_xyz
1 x,y,z
2 -x,1/2+y,1/2-z
3 -x,-y,-z
4 x,1/2-y,1/2+z
_cell_length_a                   18.889(2)
_cell_length_b                   7.1199(8)
_cell_length_c                   18.6541(19)
_cell_angle_alpha                90
_cell_angle_beta                 104.646(11)
_cell_angle_gamma                90
_cell_volume                     2427.23
_exptl_crystal_colour            yellow
_exptl_crystal_description       block
_cell_formula_units_Z            4
loop_
_atom_site_label
_atom_site_type_symbol
_atom_site_fract_x
_atom_site_fract_y
_atom_site_fract_z
N1 N 0.28991(13) 0.1967(4) 0.29932(13)
O1 O 0.36381(12) 0.6085(3) 0.03989(12)
O2 O 0.03559(12) 1.0279(3) 0.43286(14)
C1 C 0.17817(14) 0.3427(4) 0.29650(14)
H1 H 0.1274 0.3444 0.2804
C2 C 0.16783(17) 0.6195(5) 0.37115(16)
C3 C 0.21429(17) 0.4799(5) 0.34581(17)
C4 C 0.04955(18) 0.7425(5) 0.37462(19)
H2 H -0.0011 0.7303 0.3620
C5 C 0.24143(16) 0.2112(5) 0.12137(16)
C6 C 0.32634(16) 0.4701(5) 0.06603(17)
C7 C 0.33051(17) 0.3452(5) 0.34215(17)
C8 C 0.33990(16) 0.0610(4) 0.28807(16)
C9 C 0.19197(16) 0.0756(5) 0.14445(17)
C10 C 0.23816(17) 0.4034(5) 0.13563(16)
H3 H 0.2070 0.4463 0.1635
C11 C 0.08166(17) 0.8968(5) 0.41536(17)
C12 C 0.28058(17) 0.5307(5) 0.10902(17)
H4 H 0.2785 0.6576 0.1200
C13 C 0.41052(16) 0.1326(5) 0.32150(16)
C14 C 0.17656(16) 0.0805(4) 0.21492(16)
C15 C 0.21441(16) 0.2151(4) 0.27340(16)
C16 C 0.09165(18) 0.6067(5) 0.35252(18)
H5 H 0.0689 0.5050 0.3247
C17 C 0.15670(18) 0.9110(5) 0.43535(18)
H6 H 0.1791 1.0126 0.4634
C18 C 0.28870(17) 0.4861(5) 0.36512(18)
H7 H 0.3124 0.5851 0.3940
C19 C 0.12628(17) -0.0458(5) 0.23106(18)
H8 H 0.1142 -0.0376 0.2763
C20 C 0.19870(17) 0.7740(5) 0.41367(18)
H9 H 0.2494 0.7851 0.4279
C21 C 0.33018(18) -0.1187(5) 0.25754(17)
H10 H 0.2836 -0.1668 0.2373
C22 C 0.28881(18) 0.1535(5) 0.07961(19)
H11 H 0.2921 0.0263 0.0697
C23 C 0.47215(17) 0.0209(5) 0.32158(17)
H12 H 0.5190 0.0650 0.3432
C24 C 0.33152(19) 0.2800(5) 0.0521(2)
H13 H 0.3632 0.2376 0.0246
C25 C 0.11037(17) -0.1933(5) 0.11339(19)
H14 H 0.0895 -0.2875 0.0802
C26 C 0.46218(18) -0.1533(5) 0.28939(18)
H15 H 0.5026 -0.2265 0.2882
N2 N 0.15807(17) -0.0636(5) 0.09401(18)
C27 C 0.09412(17) -0.1830(5) 0.18079(19)
H16 H 0.0615 -0.2680 0.1927
C28 C 0.40369(17) 0.3091(5) 0.35461(17)
C29 C 0.0694(2) 1.1857(5) 0.4751(2)
H17 H 0.0324 1.2680 0.4842
H18 H 0.0986 1.2520 0.4480
H19 H 0.1001 1.1433 0.5214
C30 C 0.46533(18) 0.4248(5) 0.3999(2)
H20 H 0.5112 0.3675 0.3993
H21 H 0.4610 0.4321 0.4500
H22 H 0.4632 0.5490 0.3794
C31 C 0.39168(19) -0.2223(5) 0.25829(19)
H23 H 0.3863 -0.3419 0.2375
C32 C 0.3996(2) 0.5535(6) -0.0153(2)
H24 H 0.4240 0.6602 -0.0297
H25 H 0.3642 0.5058 -0.0577
H26 H 0.4349 0.4575 0.0042
loop_
_geom_bond_atom_site_label_1
_geom_bond_atom_site_label_2
_geom_bond_site_symmetry_1
_geom_bond_site_symmetry_2
N1 C7 1_555 1_555
O1 C6 1_555 1_555
O2 C11 1_555 1_555
C1 H1 1_555 1_555
C2 C3 1_555 1_555
C3 C1 1_555 1_555
C4 H2 1_555 1_555
C5 C9 1_555 1_555
C6 C12 1_555 1_555
C7 C18 1_555 1_555
C8 N1 1_555 1_555
C9 C14 1_555 1_555
C10 C5 1_555 1_555
H3 C10 1_555 1_555
C11 C4 1_555 1_555
C12 C10 1_555 1_555
H4 C12 1_555 1_555
C13 C8 1_555 1_555
C14 C15 1_555 1_555
C15 N1 1_555 1_555
C16 C2 1_555 1_555
H5 C16 1_555 1_555
C17 C11 1_555 1_555
H6 C17 1_555 1_555
C18 C3 1_555 1_555
H7 C18 1_555 1_555
C19 C14 1_555 1_555
H8 C19 1_555 1_555
C20 C2 1_555 1_555
H9 C20 1_555 1_555
C21 C8 1_555 1_555
H10 C21 1_555 1_555
C22 C5 1_555 1_555
H11 C22 1_555 1_555
C23 C13 1_555 1_555
H12 C23 1_555 1_555
C24 C6 1_555 1_555
H13 C24 1_555 1_555
C25 H14 1_555 1_555
C26 C23 1_555 1_555
H15 C26 1_555 1_555
N2 C9 1_555 1_555
C27 C19 1_555 1_555
H16 C27 1_555 1_555
C28 C7 1_555 1_555
C29 O2 1_555 1_555
H17 C29 1_555 1_555
H18 C29 1_555 1_555
H19 C29 1_555 1_555
C30 C28 1_555 1_555
H20 C30 1_555 1_555
H21 C30 1_555 1_555
H22 C30 1_555 1_555
C31 C21 1_555 1_555
H23 C31 1_555 1_555
C32 O1 1_555 1_555
H24 C32 1_555 1_555
H25 C32 1_555 1_555
H26 C32 1_555 1_555
C1 C15 1_555 1_555
C4 C16 1_555 1_555
C13 C28 1_555 1_555
C17 C20 1_555 1_555
C22 C24 1_555 1_555
C25 N2 1_555 1_555
C25 C27 1_555 1_555
C26 C31 1_555 1_555

#END
