
#######################################################################
#
#                 Cambridge Crystallographic Data Centre
#                                CCDC 
#
#######################################################################
#
# If this CIF has been generated from an entry in the Cambridge 
# Structural Database, then it will include bibliographic, chemical, 
# crystal, experimental, refinement or atomic coordinate data resulting 
# from the CCDC's data processing and validation procedures.
#
#######################################################################

data_SOSLOD
_chemical_formula_moiety         'C32 H26 N2 O1'
_chemical_name_systematic        
8-(4-methoxyphenyl)-10-methyl-6-(5-methyl-2-phenylpyridin-3-yl)pyrido[1,2-a]indole
_symmetry_cell_setting           monoclinic
_symmetry_space_group_name_H-M   'P 21/c'
_symmetry_Int_Tables_number      14
_space_group_name_Hall           '-P 2ybc'
loop_
_symmetry_equiv_pos_site_id
_symmetry_equiv_pos_as_xyz
1 x,y,z
2 -x,1/2+y,1/2-z
3 -x,-y,-z
4 x,1/2-y,1/2+z
_cell_length_a                   9.9489(5)
_cell_length_b                   17.1959(6)
_cell_length_c                   14.4905(8)
_cell_angle_alpha                90
_cell_angle_beta                 109.121(6)
_cell_angle_gamma                90
_cell_volume                     2342.27
_exptl_crystal_colour            yellow
_exptl_crystal_description       block
_cell_formula_units_Z            4
loop_
_atom_site_label
_atom_site_type_symbol
_atom_site_fract_x
_atom_site_fract_y
_atom_site_fract_z
O1 O 0.4790(3) 0.64714(16) 0.2199(2)
N1 N 1.0402(3) 0.29890(14) 0.51912(19)
C1 C 1.0999(3) 0.35435(17) 0.4715(2)
N2 N 0.7917(4) 0.1823(2) 0.6930(3)
C2 C 1.2392(3) 0.33513(18) 0.4843(2)
C3 C 1.2693(4) 0.26591(18) 0.5419(2)
C4 C 1.3919(4) 0.22026(19) 0.5757(3)
H1 H 1.4742 0.2343 0.5626
C5 C 1.3890(4) 0.1533(2) 0.6293(3)
H2 H 1.4686 0.1213 0.6503
C6 C 1.2652(4) 0.1342(2) 0.6518(3)
H3 H 1.2660 0.0901 0.6890
C7 C 1.1442(4) 0.17818(19) 0.6208(3)
H4 H 1.0634 0.1647 0.6361
C8 C 1.1467(3) 0.24416(18) 0.5653(2)
C9 C 0.8982(4) 0.30404(18) 0.5093(2)
C10 C 0.8161(3) 0.35847(16) 0.4614(2)
H5 H 0.7202 0.3585 0.4556
C11 C 0.8712(3) 0.41739(18) 0.4182(2)
C12 C 1.0099(3) 0.41508(18) 0.4222(2)
H6 H 1.0455 0.4540 0.3920
C13 C 1.3428(4) 0.3781(2) 0.4477(3)
H7 H 1.2970 0.4228 0.4111
H8 H 1.3752 0.3445 0.4065
H9 H 1.4225 0.3946 0.5022
C14 C 0.7696(4) 0.47773(18) 0.3668(2)
C15 C 0.8140(4) 0.54345(18) 0.3268(2)
H10 H 0.9100 0.5494 0.3344
C16 C 0.7185(4) 0.59954(19) 0.2764(3)
H11 H 0.7508 0.6415 0.2489
C17 C 0.5767(4) 0.59403(19) 0.2663(3)
C18 C 0.5300(4) 0.5284(2) 0.3064(3)
H12 H 0.4343 0.5234 0.3000
C19 C 0.6251(4) 0.4720(2) 0.3549(3)
H13 H 0.5923 0.4291 0.3802
C20 C 0.8378(3) 0.24027(19) 0.5554(3)
C21 C 0.7912(4) 0.1744(2) 0.5022(3)
H14 H 0.7926 0.1718 0.4384
C22 C 0.7409(4) 0.1101(2) 0.5417(3)
C23 C 0.7456(4) 0.1162(2) 0.6384(3)
H15 H 0.7165 0.0740 0.6672
C24 C 0.8384(3) 0.2470(2) 0.6529(3)
C25 C 0.8882(4) 0.31691(19) 0.7131(3)
C26 C 0.9963(4) 0.3128(2) 0.8028(3)
H16 H 1.0406 0.2652 0.8235
C27 C 1.0400(5) 0.3772(2) 0.8622(3)
H17 H 1.1125 0.3722 0.9217
C28 C 0.9767(5) 0.4494(2) 0.8340(3)
H18 H 1.0060 0.4930 0.8734
C29 C 0.8682(4) 0.4540(2) 0.7448(3)
H19 H 0.8241 0.5017 0.7248
C30 C 0.8236(4) 0.3901(2) 0.6848(3)
H20 H 0.7506 0.3954 0.6255
C31 C 0.5240(5) 0.7120(2) 0.1763(3)
H21 H 0.4440 0.7451 0.1459
H22 H 0.5635 0.6940 0.1279
H23 H 0.5949 0.7407 0.2256
C32 C 0.6879(5) 0.0386(2) 0.4817(4)
H24 H 0.6589 0.0008 0.5202
H25 H 0.7625 0.0173 0.4610
H26 H 0.6082 0.0519 0.4255
loop_
_geom_bond_atom_site_label_1
_geom_bond_atom_site_label_2
_geom_bond_site_symmetry_1
_geom_bond_site_symmetry_2
O1 C17 1_555 1_555
N1 C1 1_555 1_555
C1 C2 1_555 1_555
N2 C23 1_555 1_555
C2 C3 1_555 1_555
C3 C4 1_555 1_555
C4 H1 1_555 1_555
C5 C4 1_555 1_555
H2 C5 1_555 1_555
C6 C5 1_555 1_555
H3 C6 1_555 1_555
C7 C6 1_555 1_555
H4 C7 1_555 1_555
C8 N1 1_555 1_555
C9 N1 1_555 1_555
C10 C9 1_555 1_555
H5 C10 1_555 1_555
C11 C10 1_555 1_555
C12 C1 1_555 1_555
H6 C12 1_555 1_555
C13 C2 1_555 1_555
H7 C13 1_555 1_555
H8 C13 1_555 1_555
H9 C13 1_555 1_555
C14 C11 1_555 1_555
C15 C14 1_555 1_555
H10 C15 1_555 1_555
C16 C15 1_555 1_555
H11 C16 1_555 1_555
C17 C16 1_555 1_555
C18 C17 1_555 1_555
H12 C18 1_555 1_555
C19 C14 1_555 1_555
H13 C19 1_555 1_555
C20 C9 1_555 1_555
C21 C20 1_555 1_555
H14 C21 1_555 1_555
C22 C21 1_555 1_555
C23 C22 1_555 1_555
H15 C23 1_555 1_555
C24 N2 1_555 1_555
C25 C24 1_555 1_555
C26 C25 1_555 1_555
H16 C26 1_555 1_555
C27 C26 1_555 1_555
H17 C27 1_555 1_555
C28 C27 1_555 1_555
H18 C28 1_555 1_555
C29 C28 1_555 1_555
H19 C29 1_555 1_555
C30 C25 1_555 1_555
H20 C30 1_555 1_555
C31 O1 1_555 1_555
H21 C31 1_555 1_555
H22 C31 1_555 1_555
H23 C31 1_555 1_555
C32 C22 1_555 1_555
H24 C32 1_555 1_555
H25 C32 1_555 1_555
H26 C32 1_555 1_555
C3 C8 1_555 1_555
C7 C8 1_555 1_555
C11 C12 1_555 1_555
C18 C19 1_555 1_555
C20 C24 1_555 1_555
C29 C30 1_555 1_555

#END
