
#######################################################################
#
#                 Cambridge Crystallographic Data Centre
#                                CCDC 
#
#######################################################################
#
# If this CIF has been generated from an entry in the Cambridge 
# Structural Database, then it will include bibliographic, chemical, 
# crystal, experimental, refinement or atomic coordinate data resulting 
# from the CCDC's data processing and validation procedures.
#
#######################################################################

data_SOSNEV
_chemical_formula_moiety         'C14 H18 F3 N1 O3 S1'
_chemical_name_systematic        
2-(methoxymethyl)-1-((4-methylphenyl)sulfonyl)-2-(trifluoromethyl)pyrrolidine
_symmetry_cell_setting           monoclinic
_symmetry_space_group_name_H-M   'P 21/c'
_symmetry_Int_Tables_number      14
_space_group_name_Hall           '-P 2ybc'
loop_
_symmetry_equiv_pos_site_id
_symmetry_equiv_pos_as_xyz
1 x,y,z
2 -x,1/2+y,1/2-z
3 -x,-y,-z
4 x,1/2-y,1/2+z
_cell_length_a                   7.58215(17)
_cell_length_b                   8.47167(17)
_cell_length_c                   23.1394(5)
_cell_angle_alpha                90
_cell_angle_beta                 93.360(2)
_cell_angle_gamma                90
_cell_volume                     1483.77
_exptl_crystal_colour            colorless
_exptl_crystal_description       rod
_cell_formula_units_Z            4
loop_
_atom_site_label
_atom_site_type_symbol
_atom_site_fract_x
_atom_site_fract_y
_atom_site_fract_z
C1 C 0.2847(3) 0.0161(2) 0.58488(7)
C2 C 0.2794(2) -0.05202(18) 0.64593(7)
C3 C 0.2304(2) -0.22765(19) 0.64377(8)
H1 H 0.1998 -0.2640 0.6826
H2 H 0.1267 -0.2444 0.6165
C4 C 0.3398(3) -0.4777(2) 0.62454(10)
H3 H 0.3098 -0.5119 0.6632
H4 H 0.4440 -0.5357 0.6131
H5 H 0.2401 -0.4990 0.5968
C5 C -0.1205(2) 0.21304(18) 0.63349(7)
C6 C -0.1090(2) 0.36145(19) 0.65937(7)
H6 H -0.0698 0.3717 0.6989
C7 C -0.1553(2) 0.49411(19) 0.62674(7)
H7 H -0.1465 0.5955 0.6442
C8 C -0.2147(2) 0.4813(2) 0.56867(7)
C9 C -0.2286(2) 0.3308(2) 0.54412(7)
H8 H -0.2709 0.3200 0.5049
C10 C -0.1818(2) 0.1968(2) 0.57596(7)
H9 H -0.1915 0.0952 0.5587
C11 C -0.2638(3) 0.6273(2) 0.53430(8)
H10 H -0.1587 0.6695 0.5170
H11 H -0.3114 0.7068 0.5599
H12 H -0.3533 0.6007 0.5036
F1 F 0.41711(15) -0.04228(13) 0.55611(4)
F2 F 0.3046(2) 0.17348(13) 0.58610(5)
F3 F 0.13656(15) -0.01238(15) 0.55210(4)
N1 N 0.15764(18) 0.03998(16) 0.68078(6)
O1 O 0.37668(16) -0.31391(14) 0.62538(6)
O2 O -0.11724(15) -0.09282(13) 0.64338(5)
O3 O -0.11304(17) 0.07172(14) 0.73223(5)
S1 S -0.05725(5) 0.04496(4) 0.674734(16)
C12 C 0.4584(2) -0.0248(2) 0.67915(8)
H13 H 0.4805 -0.1087 0.7085
H14 H 0.5548 -0.0274 0.6521
C13 C 0.2546(2) 0.1467(2) 0.72243(7)
H15 H 0.2382 0.1134 0.7628
H16 H 0.2129 0.2568 0.7174
C14 C 0.4533(4) 0.1317(4) 0.70786(15)
H17 H 0.4873 0.2171 0.6815
H18 H 0.5324 0.1344 0.7434
H19? H 0.5221 -0.1260 0.6853
H20? H 0.5329 0.0474 0.6574
H21? H 0.1871 0.1669 0.7570
H22? H 0.2845 0.2483 0.7043
C15? C 0.4164(5) 0.0480(5) 0.73674(18)
H23? H 0.3919 -0.0347 0.7654
H24? H 0.5156 0.1143 0.7524
loop_
_geom_bond_atom_site_label_1
_geom_bond_atom_site_label_2
_geom_bond_site_symmetry_1
_geom_bond_site_symmetry_2
C1 C2 1_555 1_555
C2 C3 1_555 1_555
C3 H1 1_555 1_555
H2 C3 1_555 1_555
C4 H3 1_555 1_555
H4 C4 1_555 1_555
H5 C4 1_555 1_555
C5 C6 1_555 1_555
C6 H6 1_555 1_555
C7 C6 1_555 1_555
H7 C7 1_555 1_555
C8 C7 1_555 1_555
C9 C8 1_555 1_555
H8 C9 1_555 1_555
C10 C5 1_555 1_555
H9 C10 1_555 1_555
C11 C8 1_555 1_555
H10 C11 1_555 1_555
H11 C11 1_555 1_555
H12 C11 1_555 1_555
F1 C1 1_555 1_555
F2 C1 1_555 1_555
F3 C1 1_555 1_555
N1 C2 1_555 1_555
O1 C3 1_555 1_555
O2 S1 1_555 1_555
O3 S1 1_555 1_555
S1 C5 1_555 1_555
C12 C2 1_555 1_555
H13 C12 1_555 1_555
H14 C12 1_555 1_555
C13 N1 1_555 1_555
H15 C13 1_555 1_555
H16 C13 1_555 1_555
C14 C12 1_555 1_555
H17 C14 1_555 1_555
H18 C14 1_555 1_555
C4 O1 1_555 1_555
C9 C10 1_555 1_555
N1 S1 1_555 1_555
C13 C14 1_555 1_555

#END
