
#######################################################################
#
#                 Cambridge Crystallographic Data Centre
#                                CCDC 
#
#######################################################################
#
# If this CIF has been generated from an entry in the Cambridge 
# Structural Database, then it will include bibliographic, chemical, 
# crystal, experimental, refinement or atomic coordinate data resulting 
# from the CCDC's data processing and validation procedures.
#
#######################################################################

data_SOTDUA
_chemical_formula_moiety         'C21 H19 N4 O4 1-,C6 H16 N1 1+'
_chemical_name_systematic        
'Triethylammonium 5-cyano-3-(3-(5-cyano-1-ethyl-4-methyl-2,6-dioxo-1,2,3,6-tetrahydropyridin-4-ylidene)prop-1-enyl)-1-ethyl-4-methyl-6-oxo-1,6-dihydropyridin-2-olate'
_symmetry_cell_setting           monoclinic
_symmetry_space_group_name_H-M   'P 21/n'
_symmetry_Int_Tables_number      14
_space_group_name_Hall           '-P 2yn'
loop_
_symmetry_equiv_pos_site_id
_symmetry_equiv_pos_as_xyz
1 x,y,z
2 1/2-x,1/2+y,1/2-z
3 -x,-y,-z
4 1/2+x,1/2-y,1/2+z
_cell_length_a                   17.131(4)
_cell_length_b                   8.476(3)
_cell_length_c                   19.035(4)
_cell_angle_alpha                90
_cell_angle_beta                 101.85(2)
_cell_angle_gamma                90
_cell_volume                     2705.02
_exptl_crystal_colour            black
_chemical_melting_point          259-260deg.C
_cell_formula_units_Z            4
loop_
_atom_site_label
_atom_site_type_symbol
_atom_site_fract_x
_atom_site_fract_y
_atom_site_fract_z
C1 C 1.192(2) 1.130(3) 0.765(1)
C2 C 1.232(1) 0.997(3) 0.806(1)
C3 C 1.2809(8) 1.103(2) 0.9300(8)
C4 C 1.2702(8) 1.112(2) 1.0013(7)
C5 C 1.3303(8) 1.205(2) 1.0462(7)
C6 C 1.2102(7) 1.042(2) 1.0259(6)
C7 C 1.2057(8) 1.057(2) 1.1020(7)
C8 C 1.1524(6) 0.954(1) 0.9759(6)
C9 C 1.1578(7) 0.944(2) 0.9029(7)
C10 C 1.0904(7) 0.876(2) 0.9999(6)
C11 C 1.0278(7) 0.783(1) 0.9618(6)
C12 C 0.9749(6) 0.717(1) 0.9994(6)
C13 C 0.9081(6) 0.616(1) 0.9735(6)
C14 C 0.8616(7) 0.561(1) 1.0204(6)
C15 C 0.8837(8) 0.591(2) 1.0996(7)
C16 C 0.7962(7) 0.469(2) 0.9941(6)
C17 C 0.7459(8) 0.407(2) 1.0374(7)
C18 C 0.7734(7) 0.421(1) 0.9211(6)
C19 C 0.8004(7) 0.439(2) 0.7983(7)
C20 C 0.8518(9) 0.310(2) 0.7812(7)
C21 C 0.8875(7) 0.580(1) 0.8994(6)
N1 N 1.2222(6) 1.019(1) 0.8800(6)
N2 N 1.3772(7) 1.278(2) 1.0846(7)
N3 N 0.7066(8) 0.361(2) 1.0752(7)
N4 N 0.8194(5) 0.481(1) 0.8755(5)
O1 O 1.3356(6) 1.162(1) 0.9054(6)
O2 O 1.1099(5) 0.877(1) 0.8539(5)
O3 O 0.9230(5) 0.622(1) 0.8519(4)
O4 O 0.7164(4) 0.334(1) 0.8954(5)
H1 H 1.1971 1.1205 0.7134
H2 H 1.2168 1.2309 0.7852
H3 H 1.1342 1.1290 0.7672
H4 H 1.2903 0.9972 0.8039
H5 H 1.2076 0.8954 0.7859
H6 H 1.2512 1.1232 1.1275
H7 H 1.2087 0.9502 1.1244
H8 H 1.1542 1.1086 1.1058
H9 H 1.0907 0.8898 1.0522
H10 H 1.0218 0.7648 0.9091
H11 H 0.9847 0.7430 1.0517
H12 H 0.8431 0.5420 1.1238
H13 H 0.9374 0.5451 1.1195
H14 H 0.8852 0.7078 1.1084
H15 H 0.8084 0.5345 0.7695
H16 H 0.7434 0.4051 0.7851
H17 H 0.8371 0.2852 0.7288
H18 H 0.9090 0.3431 0.7939
H19 H 0.8439 0.2137 0.8095
C22 C 0.503(2) 0.419(3) 0.815(1)
C23 C 0.550(1) 0.456(2) 0.759(1)
C24 C 0.548(1) 0.132(2) 0.829(1)
C25 C 0.472(1) 0.064(2) 0.797(1)
C26 C 0.512(2) 0.296(3) 0.923(2)
C27 C 0.543(2) 0.197(4) 0.976(2)
N5 N 0.5498(8) 0.297(2) 0.8626(9)
H20 H 0.6074 0.3258 0.8773
H21 H 0.4965 0.5162 0.8428
H22 H 0.4495 0.3772 0.7916
H23 H 0.5211 0.5379 0.7259
H24 H 0.6034 0.4974 0.7832
H25 H 0.5564 0.3584 0.7319
H26 H 0.5745 0.0575 0.8671
H27 H 0.5799 0.1374 0.7902
H28 H 0.4798 -0.0422 0.7770
H29 H 0.4386 0.0546 0.8341
H30 H 0.4440 0.1345 0.7572
H31 H 0.5151 0.4052 0.9429
H32 H 0.4545 0.2669 0.9048
H33 H 0.5119 0.2050 1.0150
H34 H 0.5997 0.2243 0.9951
H35 H 0.5391 0.0861 0.9569
loop_
_geom_bond_atom_site_label_1
_geom_bond_atom_site_label_2
_geom_bond_site_symmetry_1
_geom_bond_site_symmetry_2
C1 C2 1_555 1_555
C2 N1 1_555 1_555
C3 C4 1_555 1_555
C4 C5 1_555 1_555
C5 N2 1_555 1_555
C6 C4 1_555 1_555
C7 C6 1_555 1_555
C8 C6 1_555 1_555
C9 C8 1_555 1_555
C10 C8 1_555 1_555
C11 C10 1_555 1_555
C12 C11 1_555 1_555
C13 C12 1_555 1_555
C14 C13 1_555 1_555
C15 C14 1_555 1_555
C16 C14 1_555 1_555
C17 C16 1_555 1_555
C18 C16 1_555 1_555
C19 C20 1_555 1_555
C20 H17 1_555 1_555
C21 C13 1_555 1_555
C22 C23 1_555 1_555
C23 H23 1_555 1_555
C24 C25 1_555 1_555
C25 H28 1_555 1_555
C26 C27 1_555 1_555
C27 H33 1_555 1_555
N1 C3 1_555 1_555
N3 C17 1_555 1_555
N4 C18 1_555 1_555
N5 C22 1_555 1_555
O1 C3 1_555 1_555
O2 C9 1_555 1_555
O3 C21 1_555 1_555
O4 C18 1_555 1_555
H1 C1 1_555 1_555
H2 C1 1_555 1_555
H3 C1 1_555 1_555
H4 C2 1_555 1_555
H5 C2 1_555 1_555
H6 C7 1_555 1_555
H7 C7 1_555 1_555
H8 C7 1_555 1_555
H9 C10 1_555 1_555
H10 C11 1_555 1_555
H11 C12 1_555 1_555
H12 C15 1_555 1_555
H13 C15 1_555 1_555
H14 C15 1_555 1_555
H15 C19 1_555 1_555
H16 C19 1_555 1_555
H18 C20 1_555 1_555
H19 C20 1_555 1_555
H20 N5 1_555 1_555
H21 C22 1_555 1_555
H22 C22 1_555 1_555
H24 C23 1_555 1_555
H25 C23 1_555 1_555
H26 C24 1_555 1_555
H27 C24 1_555 1_555
H29 C25 1_555 1_555
H30 C25 1_555 1_555
H31 C26 1_555 1_555
H32 C26 1_555 1_555
H34 C27 1_555 1_555
H35 C27 1_555 1_555
C9 N1 1_555 1_555
C19 N4 1_555 1_555
C21 N4 1_555 1_555
C24 N5 1_555 1_555
C26 N5 1_555 1_555

#END
