
#######################################################################
#
#                 Cambridge Crystallographic Data Centre
#                                CCDC 
#
#######################################################################
#
# If this CIF has been generated from an entry in the Cambridge 
# Structural Database, then it will include bibliographic, chemical, 
# crystal, experimental, refinement or atomic coordinate data resulting 
# from the CCDC's data processing and validation procedures.
#
#######################################################################

data_SOVBAI
_chemical_formula_moiety         'C20 H20 N2 O3'
_chemical_name_systematic        
'Methyl 5-cyano-1-(4-methoxyphenyl)-5-phenylpyrrolidine-3-carboxylate'
_symmetry_cell_setting           monoclinic
_symmetry_space_group_name_H-M   'P 21/c'
_symmetry_Int_Tables_number      14
_space_group_name_Hall           '-P 2ybc'
loop_
_symmetry_equiv_pos_site_id
_symmetry_equiv_pos_as_xyz
1 x,y,z
2 -x,1/2+y,1/2-z
3 -x,-y,-z
4 x,1/2-y,1/2+z
_cell_length_a                   10.120(2)
_cell_length_b                   10.669(2)
_cell_length_c                   16.642(3)
_cell_angle_alpha                90
_cell_angle_beta                 106.45(3)
_cell_angle_gamma                90
_cell_volume                     1723.29
_exptl_crystal_colour            colorless
_exptl_crystal_description       block
_cell_formula_units_Z            4
loop_
_atom_site_label
_atom_site_type_symbol
_atom_site_fract_x
_atom_site_fract_y
_atom_site_fract_z
C1 C 0.08514(16) 0.22501(12) 0.33888(8)
H1 H 0.0118 0.2809 0.3143
C2 C 0.15392(19) 0.23456(14) 0.42338(9)
H2 H 0.1281 0.2974 0.4565
C3 C 0.25977(19) 0.15312(15) 0.45953(8)
H3 H 0.3075 0.1603 0.5174
C4 C 0.29633(16) 0.06114(15) 0.41168(9)
H4 H 0.3685 0.0043 0.4369
C5 C 0.22806(15) 0.05111(13) 0.32669(8)
H5 H 0.2535 -0.0125 0.2940
C6 C 0.12310(13) 0.13376(11) 0.28986(7)
C7 C 0.04229(13) 0.12669(11) 0.19750(7)
C8 C 0.10933(14) 0.04042(13) 0.14929(8)
C9 C -0.10532(13) 0.07930(12) 0.18608(7)
H6 H -0.1427 0.1121 0.2309
H7 H -0.1078 -0.0134 0.1871
C10 C -0.18800(13) 0.12977(12) 0.09984(7)
H8 H -0.1885 0.0664 0.0555
C11 C -0.33299(15) 0.15619(13) 0.10137(8)
C12 C -0.54272(16) 0.06312(17) 0.10255(12)
H9 H -0.5390 0.1009 0.1568
H10 H -0.5848 -0.0202 0.0988
H11 H -0.5979 0.1163 0.0574
C13 C -0.10884(14) 0.24640(13) 0.08674(8)
H12 H -0.0858 0.2412 0.0329
H13 H -0.1644 0.3228 0.0865
C14 C 0.12348(13) 0.33244(11) 0.15446(7)
C15 C 0.09048(13) 0.44867(12) 0.11548(7)
H14 H -0.0029 0.4672 0.0872
C16 C 0.19107(14) 0.53755(12) 0.11719(7)
H15 H 0.1662 0.6163 0.0905
C17 C 0.32812(14) 0.51175(12) 0.15780(7)
C18 C 0.36255(14) 0.39480(13) 0.19436(8)
H16 H 0.4564 0.3754 0.2209
C19 C 0.26251(14) 0.30657(12) 0.19261(7)
H17 H 0.2884 0.2270 0.2177
C20 C 0.40745(19) 0.70857(15) 0.12215(11)
H18 H 0.3679 0.6927 0.0621
H19 H 0.4930 0.7565 0.1311
H20 H 0.3417 0.7565 0.1433
N1 N 0.01643(11) 0.24904(10) 0.15687(6)
N2 N 0.15138(15) -0.02334(14) 0.10778(9)
O1 O 0.43580(11) 0.59334(10) 0.16522(7)
O2 O -0.37811(16) 0.25652(12) 0.11077(13)
O3 O -0.40516(11) 0.05191(10) 0.09454(7)
loop_
_geom_bond_atom_site_label_1
_geom_bond_atom_site_label_2
_geom_bond_site_symmetry_1
_geom_bond_site_symmetry_2
C1 H1 1_555 1_555
C2 C1 1_555 1_555
H2 C2 1_555 1_555
C3 C2 1_555 1_555
H3 C3 1_555 1_555
C4 C3 1_555 1_555
H4 C4 1_555 1_555
C5 C4 1_555 1_555
H5 C5 1_555 1_555
C6 C1 1_555 1_555
C7 C6 1_555 1_555
C8 C7 1_555 1_555
C9 C7 1_555 1_555
H6 C9 1_555 1_555
H7 C9 1_555 1_555
C10 C9 1_555 1_555
H8 C10 1_555 1_555
C11 C10 1_555 1_555
C12 H9 1_555 1_555
H10 C12 1_555 1_555
H11 C12 1_555 1_555
C13 C10 1_555 1_555
H12 C13 1_555 1_555
H13 C13 1_555 1_555
C14 C15 1_555 1_555
C15 H14 1_555 1_555
C16 C15 1_555 1_555
H15 C16 1_555 1_555
C17 C16 1_555 1_555
C18 C17 1_555 1_555
H16 C18 1_555 1_555
C19 C14 1_555 1_555
H17 C19 1_555 1_555
C20 H18 1_555 1_555
H19 C20 1_555 1_555
H20 C20 1_555 1_555
N1 C7 1_555 1_555
N2 C8 1_555 1_555
O1 C17 1_555 1_555
O2 C11 1_555 1_555
O3 C11 1_555 1_555
C5 C6 1_555 1_555
C12 O3 1_555 1_555
C13 N1 1_555 1_555
C14 N1 1_555 1_555
C18 C19 1_555 1_555
C20 O1 1_555 1_555

#END
