
#######################################################################
#
#                 Cambridge Crystallographic Data Centre
#                                CCDC 
#
#######################################################################
#
# If this CIF has been generated from an entry in the Cambridge 
# Structural Database, then it will include bibliographic, chemical, 
# crystal, experimental, refinement or atomic coordinate data resulting 
# from the CCDC's data processing and validation procedures.
#
#######################################################################

data_SOVCIR
_chemical_formula_moiety         'C6 H20 B10 Si1'
_chemical_name_systematic        
1,2-(2,2-dimethyl-2-sila-propan-1,3-diyl)-1,2-dicarba-closo-dodecaborane(10)
_symmetry_cell_setting           monoclinic
_symmetry_space_group_name_H-M   'C 2/c'
_symmetry_Int_Tables_number      15
_space_group_name_Hall           '-C 2yn'
loop_
_symmetry_equiv_pos_site_id
_symmetry_equiv_pos_as_xyz
1 x,y,z
2 -x,y,1/2-z
3 1/2+x,1/2+y,z
4 1/2-x,1/2+y,1/2-z
5 -x,-y,-z
6 x,-y,1/2+z
7 1/2-x,1/2-y,-z
8 1/2+x,1/2-y,1/2+z
_cell_length_a                   12.077(6)
_cell_length_b                   10.190(5)
_cell_length_c                   12.910(6)
_cell_angle_alpha                90
_cell_angle_beta                 115.676(9)
_cell_angle_gamma                90
_cell_volume                     1431.89
_exptl_crystal_colour            colorless
_exptl_crystal_description       block
_cell_formula_units_Z            4
_exptl_crystal_recrystallization_method dichloromethane
loop_
_atom_site_label
_atom_site_type_symbol
_atom_site_fract_x
_atom_site_fract_y
_atom_site_fract_z
Si1 Si 0.0000 0.95988(12) 0.2500
C1 C 0.0618(2) 1.2186(3) 0.2347(2)
C2 C 0.1041(3) 1.0830(3) 0.2251(4)
H1 H 0.1883 1.0706 0.2819
H2 H 0.1009 1.0702 0.1494
C3 C 0.0864(5) 0.8569(4) 0.3787(4)
H3 H 0.0312 0.7963 0.3891
H4 H 0.1234 0.9121 0.4453
H5 H 0.1494 0.8092 0.3683
B1 B 0.0552(4) 1.3488(4) 0.1499(4)
H6 H 0.0913 1.3474 0.0850
B2 B 0.0792(3) 1.2632(4) 0.3690(3)
H7 H 0.1308 1.2042 0.4465
B3 B 0.1545(3) 1.3495(4) 0.2987(4)
H8 H 0.2551 1.3491 0.3307
B4 B 0.0637(4) 1.4894(4) 0.2326(5)
H9 H 0.1045 1.5814 0.2208
B5 B 0.0809(4) 1.4349(4) 0.3710(4)
H10 H 0.1340 1.4906 0.4501
C1A C -0.0618(2) 1.2186(3) 0.2653(2)
C2A C -0.1041(3) 1.0830(3) 0.2749(4)
H1A H -0.1883 1.0706 0.2181
H2A H -0.1009 1.0702 0.3506
C3A C -0.0864(5) 0.8569(4) 0.1213(4)
H3A H -0.0312 0.7963 0.1109
H4A H -0.1234 0.9121 0.0547
H5A H -0.1494 0.8092 0.1317
B1A B -0.0552(4) 1.3488(4) 0.3501(4)
H6A H -0.0913 1.3474 0.4150
B2A B -0.0792(3) 1.2632(4) 0.1310(3)
H7A H -0.1308 1.2042 0.0535
B3A B -0.1545(3) 1.3495(4) 0.2013(4)
H8A H -0.2551 1.3491 0.1693
B4A B -0.0637(4) 1.4894(4) 0.2674(5)
H9A H -0.1045 1.5814 0.2792
B5A B -0.0809(4) 1.4349(4) 0.1290(4)
H10A H -0.1340 1.4906 0.0499
loop_
_geom_bond_atom_site_label_1
_geom_bond_atom_site_label_2
_geom_bond_site_symmetry_1
_geom_bond_site_symmetry_2
Si1 C2 1_555 1_555
C1 C2 1_555 1_555
C2 H1 1_555 1_555
H2 C2 1_555 1_555
C3 Si1 1_555 1_555
H3 C3 1_555 1_555
H4 C3 1_555 1_555
H5 C3 1_555 1_555
B1 C1 1_555 1_555
H6 B1 1_555 1_555
B2 C1 1_555 1_555
H7 B2 1_555 1_555
B3 C1 1_555 1_555
H8 B3 1_555 1_555
B4 B1 1_555 1_555
H9 B4 1_555 1_555
B5 B2 1_555 1_555
H10 B5 1_555 1_555
C1A C1 1_555 1_555
C2A Si1 1_555 1_555
H1A C2A 1_555 1_555
H2A C2A 1_555 1_555
C3A Si1 1_555 1_555
H3A C3A 1_555 1_555
H4A C3A 1_555 1_555
H5A C3A 1_555 1_555
B1A B2 1_555 1_555
H6A B1A 1_555 1_555
B2A C1 1_555 1_555
H7A B2A 1_555 1_555
B3A C1A 1_555 1_555
H8A B3A 1_555 1_555
B4A B4 1_555 1_555
H9A B4A 1_555 1_555
B5A B1 1_555 1_555
H10A B5A 1_555 1_555
B1 B3 1_555 1_555
B1 B2A 1_555 1_555
B2 B3 1_555 1_555
B2 C1A 1_555 1_555
B3 B4 1_555 1_555
B3 B5 1_555 1_555
B4 B5 1_555 1_555
B4 B5A 1_555 1_555
B5 B1A 1_555 1_555
B5 B4A 1_555 1_555
C1A C2A 1_555 1_555
C1A B1A 1_555 1_555
C1A B2A 1_555 1_555
B1A B3A 1_555 1_555
B1A B4A 1_555 1_555
B2A B3A 1_555 1_555
B2A B5A 1_555 1_555
B3A B4A 1_555 1_555
B3A B5A 1_555 1_555
B4A B5A 1_555 1_555

#END
