
#######################################################################
#
#                 Cambridge Crystallographic Data Centre
#                                CCDC 
#
#######################################################################
#
# If this CIF has been generated from an entry in the Cambridge 
# Structural Database, then it will include bibliographic, chemical, 
# crystal, experimental, refinement or atomic coordinate data resulting 
# from the CCDC's data processing and validation procedures.
#
#######################################################################

data_SOVDOY
_chemical_formula_moiety         'C37 H40 N2 O10'
_chemical_name_systematic        
"Diethyl 1,1''-diacetyl-6'-(3-t-butoxy-3-oxoprop-1-en-2-yl)-2,2''-dioxo-1,1'',2,2''-tetrahydrodispiro[indole-3,1'-cyclohexane-3',3''-indole]-2',4'-dicarboxylate"
_symmetry_cell_setting           triclinic
_symmetry_space_group_name_H-M   'P -1'
_symmetry_Int_Tables_number      2
_space_group_name_Hall           '-P 1'
loop_
_symmetry_equiv_pos_site_id
_symmetry_equiv_pos_as_xyz
1 x,y,z
2 -x,-y,-z
_cell_length_a                   10.530(2)
_cell_length_b                   13.602(3)
_cell_length_c                   13.650(3)
_cell_angle_alpha                65.69(3)
_cell_angle_beta                 80.28(3)
_cell_angle_gamma                81.84(3)
_cell_volume                     1750.43
_cell_formula_units_Z            2
loop_
_atom_site_label
_atom_site_type_symbol
_atom_site_fract_x
_atom_site_fract_y
_atom_site_fract_z
O1 O 0.40371(13) 0.72086(11) 0.29481(11)
O2 O 0.24192(13) 0.75203(10) 0.19290(10)
O3 O 0.38693(14) 0.17568(11) 0.56435(12)
O4 O 0.59906(12) 0.13029(10) 0.54403(9)
O5 O 0.57506(13) 0.19684(10) 0.29833(10)
O6 O 0.9407(10) 0.0357(10) 0.3344(11)
O7 O 0.77859(15) 0.37781(13) 0.12609(12)
O8 O 0.84215(13) 0.49458(12) 0.18169(11)
O9 O 0.66148(12) 0.56739(10) 0.38845(9)
O10 O 0.79546(18) 0.82882(15) 0.12208(14)
N1 N 0.78704(16) 0.16988(13) 0.33996(12)
N2 N 0.68756(14) 0.67872(12) 0.20494(11)
C1 C 0.43243(16) 0.49992(14) 0.34134(13)
H1 H 0.4436 0.5187 0.4012
C2 C 0.41178(17) 0.37943(14) 0.39292(13)
H2 H 0.3353 0.3670 0.4459
H3 H 0.3979 0.3560 0.3376
C3 C 0.52806(16) 0.31378(14) 0.44780(13)
H4 H 0.5479 0.3488 0.4928
C4 C 0.65110(17) 0.31625(14) 0.36527(13)
C5 C 0.63516(16) 0.41890(13) 0.25669(12)
H5 H 0.5811 0.3968 0.2187
C6 C 0.56215(16) 0.52610(14) 0.26151(12)
C7 C 0.55186(17) 0.60264(14) 0.14450(13)
C8 C 0.48545(19) 0.59448(16) 0.06938(14)
H6 H 0.4328 0.5382 0.0893
C9 C 0.4985(2) 0.67137(18) -0.03597(15)
H7 H 0.4520 0.6683 -0.0867
C10 C 0.5800(2) 0.75234(18) -0.06600(16)
H8 H 0.5903 0.8017 -0.1378
C11 C 0.6469(2) 0.76202(16) 0.00785(15)
H9 H 0.7013 0.8173 -0.0130
C12 C 0.63058(17) 0.68713(15) 0.11360(13)
C13 C 0.64375(17) 0.58851(14) 0.29632(14)
C14 C 0.7768(2) 0.74819(19) 0.20191(18)
C15 C 0.8487(2) 0.7155(2) 0.29677(17)
H10 H 0.9063 0.7695 0.2836
H11 H 0.8975 0.6474 0.3078
H12 H 0.7886 0.7085 0.3601
C16 C 0.76277(19) 0.43768(16) 0.18454(15)
C17 C 0.9143(7) 0.3785(8) 0.0705(7)
H13 H 0.9358 0.4520 0.0251
H14 H 0.9753 0.3453 0.1232
C18 C 0.9171(7) 0.3153(6) 0.0041(5)
H15 H 1.0021 0.3130 -0.0341
H16 H 0.8555 0.3489 -0.0470
H17 H 0.8955 0.2430 0.0503
C19 C 0.77902(17) 0.29980(16) 0.40915(14)
C20 C 0.8247(2) 0.35295(17) 0.46228(15)
H18 H 0.7733 0.4080 0.4769
C21 C 0.9481(2) 0.3227(2) 0.49328(18)
H19 H 0.9798 0.3588 0.5278
C22 C 1.0241(2) 0.2405(2) 0.4737(2)
H20 H 1.1069 0.2222 0.4943
C23 C 0.9788(2) 0.1843(2) 0.42374(19)
H21 H 1.0290 0.1270 0.4124
C24 C 0.8562(2) 0.21601(17) 0.39095(15)
C25 C 0.66197(19) 0.22127(15) 0.33048(13)
C26 C 0.8421(3) 0.0902(2) 0.3007(2)
C27 C 0.7644(2) 0.05604(19) 0.24052(19)
H22 H 0.8144 0.0018 0.2191
H23 H 0.7413 0.1174 0.1773
H24 H 0.6874 0.0268 0.2863
C28 C 0.4941(2) 0.20003(15) 0.52474(14)
C29 C 0.5780(2) 0.01865(15) 0.61509(16)
H25 H 0.5076 -0.0049 0.5946
H26 H 0.5558 0.0116 0.6895
C30 C 0.7010(2) -0.04907(17) 0.60428(18)
H27 H 0.6898 -0.1236 0.6505
H28 H 0.7698 -0.0253 0.6250
H29 H 0.7219 -0.0416 0.5305
C31 C 0.31636(18) 0.57135(15) 0.29249(14)
C32 C 0.2095(2) 0.53627(18) 0.28316(19)
H30 H 0.1972(19) 0.4609(9) 0.3078(14)
H31 H 0.1390(14) 0.5894(12) 0.2552(14)
C33 C 0.32569(19) 0.68923(16) 0.26042(15)
C34 C 0.2372(2) 0.87214(16) 0.15073(16)
C35 C 0.1950(3) 0.9080(2) 0.24271(19)
H32 H 0.2615 0.8856 0.2895
H33 H 0.1169 0.8758 0.2830
H34 H 0.1797 0.9854 0.2143
C36 C 0.1341(2) 0.90741(19) 0.0747(2)
H35 H 0.0528 0.8828 0.1155
H36 H 0.1579 0.8768 0.0216
H37 H 0.1264 0.9849 0.0392
C37 C 0.3662(2) 0.90977(19) 0.0882(2)
H38 H 0.4302 0.8875 0.1373
H39 H 0.3593 0.9872 0.0520
H40 H 0.3910 0.8785 0.0356
O11? O 0.9640(7) 0.0825(17) 0.2838(16)
C38? C 0.8771(8) 0.3984(9) 0.0292(6)
H41? H 0.9063 0.4705 0.0019
H42? H 0.8447 0.3884 -0.0282
C39? C 0.9835(8) 0.3113(7) 0.0778(8)
H43? H 1.0565 0.3172 0.0235
H44? H 0.9518 0.2411 0.1030
H45? H 1.0093 0.3207 0.1374
loop_
_geom_bond_atom_site_label_1
_geom_bond_atom_site_label_2
_geom_bond_site_symmetry_1
_geom_bond_site_symmetry_2
O1 C33 1_555 1_555
O2 C33 1_555 1_555
O3 C28 1_555 1_555
O4 C28 1_555 1_555
O5 C25 1_555 1_555
O6 C26 1_555 1_555
O7 C16 1_555 1_555
O8 C16 1_555 1_555
O9 C13 1_555 1_555
O10 C14 1_555 1_555
N1 C24 1_555 1_555
N2 C12 1_555 1_555
C1 H1 1_555 1_555
C2 C1 1_555 1_555
H2 C2 1_555 1_555
H3 C2 1_555 1_555
C3 C2 1_555 1_555
H4 C3 1_555 1_555
C4 C3 1_555 1_555
C5 C4 1_555 1_555
H5 C5 1_555 1_555
C6 C1 1_555 1_555
C7 C6 1_555 1_555
C8 C7 1_555 1_555
H6 C8 1_555 1_555
C9 C8 1_555 1_555
H7 C9 1_555 1_555
C10 C9 1_555 1_555
H8 C10 1_555 1_555
C11 C10 1_555 1_555
H9 C11 1_555 1_555
C12 C7 1_555 1_555
C13 N2 1_555 1_555
C14 N2 1_555 1_555
C15 C14 1_555 1_555
H10 C15 1_555 1_555
H11 C15 1_555 1_555
H12 C15 1_555 1_555
C16 C5 1_555 1_555
C17 O7 1_555 1_555
H13 C17 1_555 1_555
H14 C17 1_555 1_555
C18 C17 1_555 1_555
H15 C18 1_555 1_555
H16 C18 1_555 1_555
H17 C18 1_555 1_555
C19 C4 1_555 1_555
C20 C19 1_555 1_555
H18 C20 1_555 1_555
C21 C20 1_555 1_555
H19 C21 1_555 1_555
C22 C21 1_555 1_555
H20 C22 1_555 1_555
C23 C22 1_555 1_555
H21 C23 1_555 1_555
C24 C19 1_555 1_555
C25 N1 1_555 1_555
C26 N1 1_555 1_555
C27 C26 1_555 1_555
H22 C27 1_555 1_555
H23 C27 1_555 1_555
H24 C27 1_555 1_555
C28 C3 1_555 1_555
C29 O4 1_555 1_555
H25 C29 1_555 1_555
H26 C29 1_555 1_555
C30 C29 1_555 1_555
H27 C30 1_555 1_555
H28 C30 1_555 1_555
H29 C30 1_555 1_555
C31 C1 1_555 1_555
C32 C31 1_555 1_555
H30 C32 1_555 1_555
H31 C32 1_555 1_555
C33 C31 1_555 1_555
C34 O2 1_555 1_555
C35 C34 1_555 1_555
H32 C35 1_555 1_555
H33 C35 1_555 1_555
H34 C35 1_555 1_555
C36 C34 1_555 1_555
H35 C36 1_555 1_555
H36 C36 1_555 1_555
H37 C36 1_555 1_555
C37 C34 1_555 1_555
H38 C37 1_555 1_555
H39 C37 1_555 1_555
H40 C37 1_555 1_555
C4 C25 1_555 1_555
C5 C6 1_555 1_555
C6 C13 1_555 1_555
C11 C12 1_555 1_555
C23 C24 1_555 1_555

#END
