
#######################################################################
#
#                 Cambridge Crystallographic Data Centre
#                                CCDC 
#
#######################################################################
#
# If this CIF has been generated from an entry in the Cambridge 
# Structural Database, then it will include bibliographic, chemical, 
# crystal, experimental, refinement or atomic coordinate data resulting 
# from the CCDC's data processing and validation procedures.
#
#######################################################################

data_SOVKIZ
_chemical_formula_moiety         'C15 H12 O2'
_chemical_name_systematic        4-Phenylchroman-2-one
_symmetry_cell_setting           monoclinic
_symmetry_space_group_name_H-M   'P 21'
_symmetry_Int_Tables_number      4
_space_group_name_Hall           'P 2yb'
loop_
_symmetry_equiv_pos_site_id
_symmetry_equiv_pos_as_xyz
1 x,y,z
2 -x,1/2+y,-z
_cell_length_a                   5.7170(11)
_cell_length_b                   7.8120(16)
_cell_length_c                   12.901(3)
_cell_angle_alpha                90
_cell_angle_beta                 93.75(3)
_cell_angle_gamma                90
_cell_volume                     574.941
_chemical_melting_point          '79-80 deg.C'
_cell_formula_units_Z            2
loop_
_atom_site_label
_atom_site_type_symbol
_atom_site_fract_x
_atom_site_fract_y
_atom_site_fract_z
O1 O 0.4172(4) 0.3760(4) 0.1412(2)
C1 C 0.0577(6) 0.2442(5) 0.1953(3)
C2 C -0.0970(7) 0.1083(5) 0.1831(3)
H1 H -0.2294 0.1064 0.2213
O2 O 0.5187(6) 0.6362(5) 0.1879(2)
C3 C -0.0595(8) -0.0248(6) 0.1155(3)
H2 H -0.1643 -0.1158 0.1089
C4 C 0.1359(9) -0.0209(6) 0.0577(3)
H3 H 0.1621 -0.1101 0.0121
C5 C 0.2914(8) 0.1127(6) 0.0667(3)
H4 H 0.4228 0.1146 0.0278
C6 C 0.2498(7) 0.2442(5) 0.1345(3)
C7 C 0.3656(7) 0.5313(5) 0.1837(3)
C8 C 0.1219(7) 0.5527(5) 0.2179(3)
H5 H 0.0186 0.5841 0.1583
H6 H 0.1210 0.6460 0.2675
C9 C 0.0253(6) 0.3908(5) 0.2679(3)
H7 H -0.1437 0.4072 0.2724
C10 C 0.1318(6) 0.3652(5) 0.3770(3)
C11 C 0.0192(7) 0.4311(5) 0.4592(3)
H8 H -0.1229 0.4877 0.4466
C12 C 0.1119(8) 0.4151(6) 0.5594(3)
H9 H 0.0328 0.4606 0.6138
C13 C 0.3208(10) 0.3321(6) 0.5795(3)
H10 H 0.3835 0.3224 0.6476
C14 C 0.4387(7) 0.2631(6) 0.5000(3)
H11 H 0.5802 0.2062 0.5137
C15 C 0.3430(7) 0.2798(5) 0.3995(3)
H12 H 0.4216 0.2327 0.3454
loop_
_geom_bond_atom_site_label_1
_geom_bond_atom_site_label_2
_geom_bond_site_symmetry_1
_geom_bond_site_symmetry_2
O1 C6 1_555 1_555
C1 C2 1_555 1_555
C2 H1 1_555 1_555
O2 C7 1_555 1_555
C3 C2 1_555 1_555
H2 C3 1_555 1_555
C4 C3 1_555 1_555
H3 C4 1_555 1_555
C5 C4 1_555 1_555
H4 C5 1_555 1_555
C6 C1 1_555 1_555
C7 O1 1_555 1_555
C8 C7 1_555 1_555
H5 C8 1_555 1_555
H6 C8 1_555 1_555
C9 C1 1_555 1_555
H7 C9 1_555 1_555
C10 C9 1_555 1_555
C11 C10 1_555 1_555
H8 C11 1_555 1_555
C12 C11 1_555 1_555
H9 C12 1_555 1_555
C13 C12 1_555 1_555
H10 C13 1_555 1_555
C14 C13 1_555 1_555
H11 C14 1_555 1_555
C15 C10 1_555 1_555
H12 C15 1_555 1_555
C5 C6 1_555 1_555
C8 C9 1_555 1_555
C14 C15 1_555 1_555

#END
