
#######################################################################
#
#                 Cambridge Crystallographic Data Centre
#                                CCDC 
#
#######################################################################
#
# If this CIF has been generated from an entry in the Cambridge 
# Structural Database, then it will include bibliographic, chemical, 
# crystal, experimental, refinement or atomic coordinate data resulting 
# from the CCDC's data processing and validation procedures.
#
#######################################################################

data_SOVRAY
_chemical_formula_moiety         'C34 H31 Cl1 N2 O9 S1'
_chemical_name_systematic        
'dimethyl 4-(4-chlorophenyl)-2-(((4-methylphenyl)sulfonyl)amino)-5-((2-nitrobenzyl)oxy)-5-phenylhex-2-enedioate'
_symmetry_cell_setting           triclinic
_symmetry_space_group_name_H-M   'P -1'
_symmetry_Int_Tables_number      2
_space_group_name_Hall           '-P 1'
loop_
_symmetry_equiv_pos_site_id
_symmetry_equiv_pos_as_xyz
1 x,y,z
2 -x,-y,-z
_cell_length_a                   9.9316(4)
_cell_length_b                   13.5060(6)
_cell_length_c                   14.3545(6)
_cell_angle_alpha                106.4460(10)
_cell_angle_beta                 105.8130(10)
_cell_angle_gamma                103.4880(10)
_cell_volume                     1673.27
_exptl_crystal_colour            colorless
_exptl_crystal_description       block
_cell_formula_units_Z            2
loop_
_atom_site_label
_atom_site_type_symbol
_atom_site_fract_x
_atom_site_fract_y
_atom_site_fract_z
S1 S 0.56020(6) 0.77774(5) 0.08439(5)
Cl1 Cl 0.66956(9) 0.69306(7) -0.43232(6)
O1 O 0.0283(3) 1.20124(18) -0.32700(18)
O2 O -0.0417(2) 1.06077(16) -0.28785(15)
O3 O 0.00645(18) 0.59569(12) -0.33730(12)
O4 O 0.05499(17) 0.72234(11) -0.40571(11)
O5 O 0.11896(17) 0.48229(13) -0.08950(14)
O6 O 0.34057(17) 0.48067(13) -0.00404(14)
O7 O 0.71301(17) 0.78765(13) 0.12305(12)
O8 O 0.51983(19) 0.86544(12) 0.06233(12)
O9 O 0.22608(15) 0.87893(10) -0.23225(11)
N1 N 0.0346(3) 1.11311(19) -0.32294(17)
N2 N 0.48606(18) 0.66837(13) -0.02316(13)
H1 H 0.5422 0.6400 -0.0500
C1 C 0.1795(2) 0.98595(16) -0.33589(16)
C2 C 0.2750(3) 0.94917(19) -0.3802(2)
H2 H 0.3073 0.8945 -0.3644
C3 C 0.3238(3) 0.9910(2) -0.4469(2)
H3 H 0.3868 0.9636 -0.4759
C4 C 0.2804(4) 1.0720(2) -0.4707(2)
H4 H 0.3142 1.1002 -0.5154
C5 C 0.1875(3) 1.1115(2) -0.4288(2)
H5 H 0.1580 1.1673 -0.4443
C6 C 0.1367(3) 1.06841(18) -0.36303(17)
C7 C 0.0737(2) 0.80073(17) -0.14662(17)
C8 C -0.0705(3) 0.7384(2) -0.1685(2)
H6 H -0.1236 0.6810 -0.2324
C9 C -0.1365(3) 0.7617(3) -0.0943(3)
H7 H -0.2342 0.7201 -0.1094
C10 C -0.0589(4) 0.8450(3) 0.0003(3)
H8 H -0.1030 0.8590 0.0498
C11 C 0.0830(4) 0.9075(2) 0.0219(2)
H9 H 0.1354 0.9646 0.0862
C12 C 0.1489(3) 0.8867(2) -0.0505(2)
H10 H 0.2454 0.9307 -0.0352
C13 C 0.3892(2) 0.73273(17) -0.23341(17)
C14 C 0.5025(3) 0.82147(19) -0.22404(19)
H11 H 0.5210 0.8903 -0.1758
C15 C 0.5884(3) 0.8099(2) -0.2848(2)
H12 H 0.6636 0.8703 -0.2781
C16 C 0.5616(3) 0.7084(2) -0.3550(2)
C17 C 0.4516(3) 0.6181(2) -0.3654(2)
H13 H 0.4344 0.5493 -0.4132
C18 C 0.3675(3) 0.63147(18) -0.30394(19)
H14 H 0.2938 0.5704 -0.3101
C19 C 0.4781(2) 0.74733(19) 0.17124(18)
C20 C 0.3807(3) 0.7976(2) 0.1968(2)
H15 H 0.3594 0.8490 0.1689
C21 C 0.3147(3) 0.7719(3) 0.2637(2)
H16 H 0.2506 0.8075 0.2817
C22 C 0.3413(4) 0.6954(3) 0.3038(2)
C23 C 0.4406(4) 0.6465(3) 0.2791(2)
H17 H 0.4614 0.5953 0.3074
C24 C 0.5105(3) 0.6717(2) 0.2130(2)
H18 H 0.5777 0.6383 0.1973
C25 C -0.0255(3) 0.63861(19) -0.50852(18)
H19 H -0.0249 0.6710 -0.5600
H20 H -0.1262 0.6056 -0.5155
H21 H 0.0211 0.5837 -0.5184
C26 C 0.0638(2) 0.68871(17) -0.32651(17)
C27 C 0.1584(2) 0.78108(15) -0.22003(16)
C28 C 0.2939(2) 0.74983(16) -0.16751(16)
H22 H 0.3569 0.8131 -0.1033
C29 C 0.2441(2) 0.65565(16) -0.13444(16)
H23 H 0.1424 0.6180 -0.1608
C30 C 0.3285(2) 0.62033(15) -0.07216(16)
C31 C 0.2653(2) 0.52104(17) -0.05125(17)
C32 C 0.0513(3) 0.3847(2) -0.0720(3)
H24 H -0.0549 0.3626 -0.1029
H25 H 0.0801 0.4004 0.0015
H26 H 0.0840 0.3265 -0.1032
C33 C 0.1315(2) 0.93899(16) -0.26212(17)
H27 H 0.1395 0.9975 -0.2010
H28 H 0.0289 0.8908 -0.2960
C34 C 0.2654(4) 0.6631(4) 0.3748(3)
H29 H 0.1997 0.7040 0.3843
H30 H 0.3391 0.6789 0.4412
H31 H 0.2094 0.5862 0.3437
loop_
_geom_bond_atom_site_label_1
_geom_bond_atom_site_label_2
_geom_bond_site_symmetry_1
_geom_bond_site_symmetry_2
S1 O7 1_555 1_555
Cl1 C16 1_555 1_555
O1 N1 1_555 1_555
O2 N1 1_555 1_555
O3 C26 1_555 1_555
O4 C25 1_555 1_555
O5 C31 1_555 1_555
O6 C31 1_555 1_555
O8 S1 1_555 1_555
O9 C27 1_555 1_555
N1 C6 1_555 1_555
N2 S1 1_555 1_555
H1 N2 1_555 1_555
C1 C2 1_555 1_555
C2 H2 1_555 1_555
C3 C2 1_555 1_555
H3 C3 1_555 1_555
C4 C3 1_555 1_555
H4 C4 1_555 1_555
C5 C4 1_555 1_555
H5 C5 1_555 1_555
C6 C1 1_555 1_555
C7 C8 1_555 1_555
C8 H6 1_555 1_555
C9 C8 1_555 1_555
H7 C9 1_555 1_555
C10 C9 1_555 1_555
H8 C10 1_555 1_555
C11 C10 1_555 1_555
H9 C11 1_555 1_555
C12 C7 1_555 1_555
H10 C12 1_555 1_555
C13 C14 1_555 1_555
C14 H11 1_555 1_555
C15 C14 1_555 1_555
H12 C15 1_555 1_555
C16 C15 1_555 1_555
C17 C16 1_555 1_555
H13 C17 1_555 1_555
C18 C13 1_555 1_555
H14 C18 1_555 1_555
C19 S1 1_555 1_555
C20 C19 1_555 1_555
H15 C20 1_555 1_555
C21 C20 1_555 1_555
H16 C21 1_555 1_555
C22 C21 1_555 1_555
C23 C22 1_555 1_555
H17 C23 1_555 1_555
C24 C19 1_555 1_555
H18 C24 1_555 1_555
C25 H19 1_555 1_555
H20 C25 1_555 1_555
H21 C25 1_555 1_555
C26 O4 1_555 1_555
C27 C7 1_555 1_555
C28 C13 1_555 1_555
H22 C28 1_555 1_555
C29 C28 1_555 1_555
H23 C29 1_555 1_555
C30 N2 1_555 1_555
C31 C30 1_555 1_555
C32 O5 1_555 1_555
H24 C32 1_555 1_555
H25 C32 1_555 1_555
H26 C32 1_555 1_555
C33 O9 1_555 1_555
H27 C33 1_555 1_555
H28 C33 1_555 1_555
C34 C22 1_555 1_555
H29 C34 1_555 1_555
H30 C34 1_555 1_555
H31 C34 1_555 1_555
C1 C33 1_555 1_555
C5 C6 1_555 1_555
C11 C12 1_555 1_555
C17 C18 1_555 1_555
C23 C24 1_555 1_555
C26 C27 1_555 1_555
C27 C28 1_555 1_555
C29 C30 1_555 1_555

#END
