
#######################################################################
#
#                 Cambridge Crystallographic Data Centre
#                                CCDC 
#
#######################################################################
#
# If this CIF has been generated from an entry in the Cambridge 
# Structural Database, then it will include bibliographic, chemical, 
# crystal, experimental, refinement or atomic coordinate data resulting 
# from the CCDC's data processing and validation procedures.
#
#######################################################################

data_SOWDAL
_chemical_formula_moiety         'C42 H72 B30'
_chemical_name_systematic        
1,3,5-tris(2-(4-n-butylphenyl)-1,2-dicarba-closo-dodecaboran-1-yl)benzene
_symmetry_cell_setting           monoclinic
_symmetry_space_group_name_H-M   'C 2/c'
_symmetry_Int_Tables_number      15
_space_group_name_Hall           '-C 2yn'
loop_
_symmetry_equiv_pos_site_id
_symmetry_equiv_pos_as_xyz
1 x,y,z
2 -x,y,1/2-z
3 1/2+x,1/2+y,z
4 1/2-x,1/2+y,1/2-z
5 -x,-y,-z
6 x,-y,1/2+z
7 1/2-x,1/2-y,-z
8 1/2+x,1/2-y,1/2+z
_cell_length_a                   38.369(3)
_cell_length_b                   13.1851(9)
_cell_length_c                   22.1525(16)
_cell_angle_alpha                90
_cell_angle_beta                 95.243(4)
_cell_angle_gamma                90
_cell_volume                     11160
_exptl_crystal_colour            colorless
_exptl_crystal_description       cubic
_cell_formula_units_Z            8
loop_
_atom_site_label
_atom_site_type_symbol
_atom_site_fract_x
_atom_site_fract_y
_atom_site_fract_z
C1 C 0.14127(9) 0.5195(3) -0.00559(15)
C2 C 0.17256(9) 0.5556(3) 0.02324(16)
H1 H 0.1936 0.5380 0.0084
C3 C 0.17273(9) 0.6176(3) 0.07396(16)
C4 C 0.14121(10) 0.6439(3) 0.09570(16)
H2 H 0.1411 0.6834 0.1305
C5 C 0.10965(10) 0.6116(3) 0.06581(17)
C6 C 0.11001(10) 0.5495(3) 0.01598(16)
H3 H 0.0889 0.5272 -0.0036
C7 C 0.14177(9) 0.4497(3) -0.05931(16)
C8 C 0.12376(10) 0.4935(3) -0.12844(16)
C9 C 0.10651(11) 0.5955(3) -0.13158(17)
C10 C 0.12552(15) 0.6855(4) -0.1280(2)
H4 H 0.1498 0.6834 -0.1221
C11 C 0.1085(2) 0.7786(4) -0.1333(3)
H5 H 0.1217 0.8379 -0.1314
C12 C 0.0722(3) 0.7849(6) -0.1413(4)
C13 C 0.05406(19) 0.6963(6) -0.1434(3)
H6 H 0.0297 0.6988 -0.1474
C14 C 0.07025(13) 0.6025(4) -0.1397(2)
H7 H 0.0568 0.5437 -0.1427
C15 C 0.20619(10) 0.6584(3) 0.10637(16)
C16 C 0.23559(10) 0.5736(4) 0.13957(17)
C17 C 0.22812(10) 0.4630(4) 0.13126(17)
C18 C 0.24854(12) 0.4049(4) 0.0958(2)
H8 H 0.2664 0.4357 0.0768
C19 C 0.24279(13) 0.3034(4) 0.0883(2)
H9 H 0.2571 0.2667 0.0646
C20 C 0.21654(14) 0.2534(4) 0.1149(2)
C21 C 0.19580(14) 0.3119(4) 0.1505(2)
H10 H 0.1778 0.2809 0.1690
C22 C 0.20153(12) 0.4139(4) 0.1586(2)
H11 H 0.1875 0.4507 0.1827
C23 C 0.07575(11) 0.6467(4) 0.08825(19)
C24 C 0.05110(12) 0.5601(6) 0.1238(2)
C25 C 0.06269(15) 0.4537(6) 0.1306(2)
C26 C 0.08200(18) 0.4209(6) 0.1834(3)
H12 H 0.0885 0.4675 0.2138
C27 C 0.0916(2) 0.3203(7) 0.1913(3)
H13 H 0.1046 0.3006 0.2268
C28 C 0.0823(3) 0.2486(6) 0.1471(3)
C29 C 0.0626(3) 0.2836(8) 0.0951(3)
H14 H 0.0554 0.2369 0.0651
C30 C 0.0533(2) 0.3823(7) 0.0862(3)
H15 H 0.0407 0.4019 0.0503
C31 C 0.0523(4) 0.8868(8) -0.1543(7)
H16 H 0.0685 0.9369 -0.1675
H17 H 0.0341 0.8765 -0.1872
C32 C 0.0383(7) 0.9212(16) -0.1080(9)
H18 H 0.0270 0.8657 -0.0887
H19 H 0.0204 0.9700 -0.1215
C33 C 0.0604(5) 0.9641(14) -0.0683(8)
H20 H 0.0761 1.0036 -0.0910
H21 H 0.0744 0.9099 -0.0488
C34 C 0.0494(6) 1.0367(15) -0.0146(9)
H22 H 0.0374 1.0953 -0.0317
H23 H 0.0700 1.0577 0.0101
H24 H 0.0342 1.0003 0.0099
C35 C 0.21024(16) 0.1427(4) 0.1057(3)
H25 H 0.2019 0.1146 0.1423
H26 H 0.2323 0.1100 0.0997
C36 C 0.18425(15) 0.1181(4) 0.0530(3)
H27 H 0.1619 0.1477 0.0602
H28 H 0.1919 0.1494 0.0168
C37 C 0.1793(2) 0.0072(5) 0.0416(3)
H29 H 0.2014 -0.0213 0.0319
H30 H 0.1733 -0.0246 0.0788
C38 C 0.1525(3) -0.0191(7) -0.0069(4)
H31 H 0.1300 0.0026 0.0040
H32 H 0.1523 -0.0912 -0.0129
H33 H 0.1576 0.0140 -0.0437
C39 C 0.0912(4) 0.1376(8) 0.1548(4)
H34 H 0.0696 0.1014 0.1600
H35 H 0.0994 0.1139 0.1171
C40 C 0.1150(3) 0.1097(6) 0.2004(5)
H36 H 0.1075 0.1364 0.2379
H37 H 0.1370 0.1426 0.1940
C41 C 0.1224(4) -0.0055(7) 0.2098(4)
H38 H 0.1014 -0.0383 0.2215
H39 H 0.1279 -0.0349 0.1717
C42 C 0.1510(3) -0.0257(7) 0.2556(5)
H40 H 0.1707 0.0162 0.2483
H41 H 0.1576 -0.0958 0.2538
H42 H 0.1438 -0.0108 0.2949
B1 B 0.16892(12) 0.4850(4) -0.1144(2)
B2 B 0.14694(12) 0.4480(4) -0.1851(2)
B3 B 0.10610(13) 0.3935(4) -0.1703(2)
B4 B 0.10292(12) 0.3977(4) -0.0908(2)
B5 B 0.13605(13) 0.3214(4) -0.0548(2)
B6 B 0.11408(14) 0.2839(4) -0.1251(2)
B7 B 0.14172(13) 0.3140(4) -0.1835(2)
B8 B 0.18065(13) 0.3707(4) -0.1487(2)
B9 B 0.17708(13) 0.3747(4) -0.0693(2)
B10 B 0.16048(14) 0.2689(4) -0.1125(2)
H43 H 0.1845(11) 0.552(3) -0.1073(19)
H44 H 0.1480(12) 0.498(3) -0.225(2)
H45 H 0.0828(11) 0.414(3) -0.2034(19)
H46 H 0.0789(11) 0.421(3) -0.0728(17)
H47 H 0.1317(10) 0.287(3) -0.0106(19)
H48 H 0.0976(12) 0.220(3) -0.127(2)
H49 H 0.1414(11) 0.268(3) -0.225(2)
H50 H 0.2062(11) 0.365(3) -0.1647(19)
H51 H 0.1987(11) 0.379(3) -0.032(2)
H52 H 0.1735(11) 0.195(3) -0.1052(19)
B11 B 0.21036(12) 0.6462(4) 0.1850(2)
B12 B 0.25549(13) 0.6257(6) 0.2060(2)
B13 B 0.27695(14) 0.6221(5) 0.1371(2)
B14 B 0.24502(12) 0.6401(4) 0.0750(2)
B15 B 0.23764(14) 0.7478(5) 0.2119(2)
B16 B 0.27878(15) 0.7331(5) 0.1819(2)
B17 B 0.27240(14) 0.7409(5) 0.1014(2)
B18 B 0.22730(14) 0.7630(4) 0.0808(2)
B19 B 0.20604(14) 0.7665(4) 0.1495(2)
B20 B 0.24826(15) 0.8210(6) 0.1477(3)
H53 H 0.1889(10) 0.606(3) 0.2052(17)
H54 H 0.2632(13) 0.569(4) 0.240(2)
H55 H 0.2964(11) 0.566(3) 0.1321(18)
H56 H 0.2453(10) 0.596(3) 0.0346(19)
H57 H 0.2354(12) 0.779(3) 0.255(2)
H58 H 0.3028(13) 0.755(3) 0.208(2)
H59 H 0.2925(12) 0.773(3) 0.068(2)
H60 H 0.2173(11) 0.799(3) 0.038(2)
H61 H 0.1811(12) 0.805(3) 0.1527(19)
H62 H 0.2513(14) 0.903(4) 0.146(2)
B21 B 0.07468(14) 0.6515(6) 0.1661(2)
B22 B 0.03122(16) 0.6199(9) 0.1807(3)
B23 B 0.00775(16) 0.5916(10) 0.1103(4)
B24 B 0.03662(14) 0.6081(7) 0.0520(3)
B25 B 0.07290(17) 0.7634(6) 0.1208(3)
B26 B 0.04454(16) 0.7467(8) 0.1798(3)
B27 B 0.00283(18) 0.7102(10) 0.1443(4)
B28 B 0.00604(19) 0.7006(11) 0.0649(4)
B29 B 0.04919(18) 0.7337(7) 0.0499(3)
B30 B 0.0281(2) 0.7975(9) 0.1087(4)
H63 H 0.0979(11) 0.626(3) 0.1935(18)
H64 H 0.0268(17) 0.575(5) 0.226(3)
H65 H -0.0125(17) 0.532(5) 0.103(3)
H66 H 0.0375(11) 0.557(3) 0.016(2)
H67 H 0.0970(14) 0.806(4) 0.123(2)
H68 H 0.0474(14) 0.789(4) 0.218(3)
H69 H -0.0196(18) 0.737(5) 0.162(3)
H70 H -0.0139(16) 0.729(4) 0.033(3)
H71 H 0.0570(10) 0.761(3) 0.011(2)
H72 H 0.0199(18) 0.872(5) 0.104(3)
loop_
_geom_bond_atom_site_label_1
_geom_bond_atom_site_label_2
_geom_bond_site_symmetry_1
_geom_bond_site_symmetry_2
C1 C2 1_555 1_555
C2 H1 1_555 1_555
C3 C2 1_555 1_555
C4 C3 1_555 1_555
H2 C4 1_555 1_555
C5 C4 1_555 1_555
C6 C1 1_555 1_555
H3 C6 1_555 1_555
C7 C1 1_555 1_555
C8 C7 1_555 1_555
C9 C8 1_555 1_555
C10 C9 1_555 1_555
H4 C10 1_555 1_555
C11 C10 1_555 1_555
H5 C11 1_555 1_555
C12 C11 1_555 1_555
C13 C12 1_555 1_555
H6 C13 1_555 1_555
C14 C9 1_555 1_555
H7 C14 1_555 1_555
C15 C3 1_555 1_555
C16 C15 1_555 1_555
C17 C16 1_555 1_555
C18 C17 1_555 1_555
H8 C18 1_555 1_555
C19 C18 1_555 1_555
H9 C19 1_555 1_555
C20 C19 1_555 1_555
C21 C20 1_555 1_555
H10 C21 1_555 1_555
C22 C17 1_555 1_555
H11 C22 1_555 1_555
C23 C5 1_555 1_555
C24 C23 1_555 1_555
C25 C24 1_555 1_555
C26 C25 1_555 1_555
H12 C26 1_555 1_555
C27 C26 1_555 1_555
H13 C27 1_555 1_555
C28 C27 1_555 1_555
C29 C28 1_555 1_555
H14 C29 1_555 1_555
C30 C25 1_555 1_555
H15 C30 1_555 1_555
C31 C12 1_555 1_555
H16 C31 1_555 1_555
H17 C31 1_555 1_555
C32 C31 1_555 1_555
H18 C32 1_555 1_555
H19 C32 1_555 1_555
C33 C32 1_555 1_555
H20 C33 1_555 1_555
H21 C33 1_555 1_555
C34 C33 1_555 1_555
H22 C34 1_555 1_555
H23 C34 1_555 1_555
H24 C34 1_555 1_555
C35 C20 1_555 1_555
H25 C35 1_555 1_555
H26 C35 1_555 1_555
C36 C35 1_555 1_555
H27 C36 1_555 1_555
H28 C36 1_555 1_555
C37 C36 1_555 1_555
H29 C37 1_555 1_555
H30 C37 1_555 1_555
C38 C37 1_555 1_555
H31 C38 1_555 1_555
H32 C38 1_555 1_555
H33 C38 1_555 1_555
C39 C28 1_555 1_555
H34 C39 1_555 1_555
H35 C39 1_555 1_555
C40 C39 1_555 1_555
H36 C40 1_555 1_555
H37 C40 1_555 1_555
C41 C40 1_555 1_555
H38 C41 1_555 1_555
H39 C41 1_555 1_555
C42 C41 1_555 1_555
H40 C42 1_555 1_555
H41 C42 1_555 1_555
H42 C42 1_555 1_555
B1 C7 1_555 1_555
B2 C8 1_555 1_555
B3 C8 1_555 1_555
B4 C7 1_555 1_555
B5 C7 1_555 1_555
B6 B3 1_555 1_555
B7 B2 1_555 1_555
B8 B1 1_555 1_555
B9 C7 1_555 1_555
B10 B5 1_555 1_555
H43 B1 1_555 1_555
H44 B2 1_555 1_555
H45 B3 1_555 1_555
H46 B4 1_555 1_555
H47 B5 1_555 1_555
H48 B6 1_555 1_555
H49 B7 1_555 1_555
H50 B8 1_555 1_555
H51 B9 1_555 1_555
H52 B10 1_555 1_555
B11 C15 1_555 1_555
B12 C16 1_555 1_555
B13 C16 1_555 1_555
B14 C15 1_555 1_555
B15 B11 1_555 1_555
B16 B12 1_555 1_555
B17 B13 1_555 1_555
B18 C15 1_555 1_555
B19 C15 1_555 1_555
B20 B15 1_555 1_555
H53 B11 1_555 1_555
H54 B12 1_555 1_555
H55 B13 1_555 1_555
H56 B14 1_555 1_555
H57 B15 1_555 1_555
H58 B16 1_555 1_555
H59 B17 1_555 1_555
H60 B18 1_555 1_555
H61 B19 1_555 1_555
H62 B20 1_555 1_555
B21 C23 1_555 1_555
B22 C24 1_555 1_555
B23 C24 1_555 1_555
B24 C23 1_555 1_555
B25 C23 1_555 1_555
B26 B21 1_555 1_555
B27 B22 1_555 1_555
B28 B23 1_555 1_555
B29 C23 1_555 1_555
B30 B25 1_555 1_555
H63 B21 1_555 1_555
H64 B22 1_555 1_555
H65 B23 1_555 1_555
H66 B24 1_555 1_555
H67 B25 1_555 1_555
H68 B26 1_555 1_555
H69 B27 1_555 1_555
H70 B28 1_555 1_555
H71 B29 1_555 1_555
H72 B30 1_555 1_555
C5 C6 1_555 1_555
C8 B1 1_555 1_555
C8 B4 1_555 1_555
C13 C14 1_555 1_555
C16 B11 1_555 1_555
C16 B14 1_555 1_555
C21 C22 1_555 1_555
C24 B21 1_555 1_555
C24 B24 1_555 1_555
C29 C30 1_555 1_555
B1 B2 1_555 1_555
B1 B9 1_555 1_555
B2 B3 1_555 1_555
B2 B8 1_555 1_555
B3 B4 1_555 1_555
B3 B7 1_555 1_555
B4 B5 1_555 1_555
B4 B6 1_555 1_555
B5 B6 1_555 1_555
B5 B9 1_555 1_555
B6 B7 1_555 1_555
B6 B10 1_555 1_555
B7 B8 1_555 1_555
B7 B10 1_555 1_555
B8 B9 1_555 1_555
B8 B10 1_555 1_555
B9 B10 1_555 1_555
B11 B12 1_555 1_555
B11 B19 1_555 1_555
B12 B13 1_555 1_555
B12 B15 1_555 1_555
B13 B14 1_555 1_555
B13 B16 1_555 1_555
B14 B17 1_555 1_555
B14 B18 1_555 1_555
B15 B16 1_555 1_555
B15 B19 1_555 1_555
B16 B17 1_555 1_555
B16 B20 1_555 1_555
B17 B18 1_555 1_555
B17 B20 1_555 1_555
B18 B19 1_555 1_555
B18 B20 1_555 1_555
B19 B20 1_555 1_555
B21 B22 1_555 1_555
B21 B25 1_555 1_555
B22 B23 1_555 1_555
B22 B26 1_555 1_555
B23 B24 1_555 1_555
B23 B27 1_555 1_555
B24 B28 1_555 1_555
B24 B29 1_555 1_555
B25 B26 1_555 1_555
B25 B29 1_555 1_555
B26 B27 1_555 1_555
B26 B30 1_555 1_555
B27 B28 1_555 1_555
B27 B30 1_555 1_555
B28 B29 1_555 1_555
B28 B30 1_555 1_555
B29 B30 1_555 1_555

#END
