
#######################################################################
#
#                 Cambridge Crystallographic Data Centre
#                                CCDC 
#
#######################################################################
#
# If this CIF has been generated from an entry in the Cambridge 
# Structural Database, then it will include bibliographic, chemical, 
# crystal, experimental, refinement or atomic coordinate data resulting 
# from the CCDC's data processing and validation procedures.
#
#######################################################################

data_SOWHOD
_chemical_formula_moiety         'C14 H23 N1 O5'
_chemical_name_systematic        
'7-(t-butoxycarbonyl)-1-(methoxymethyl)-7-azabicyclo[2.2.1]heptane-2-carboxylic acid'
_symmetry_cell_setting           monoclinic
_symmetry_space_group_name_H-M   'P 21'
_symmetry_Int_Tables_number      4
_space_group_name_Hall           'P 2yb'
loop_
_symmetry_equiv_pos_site_id
_symmetry_equiv_pos_as_xyz
1 x,y,z
2 -x,1/2+y,-z
_cell_length_a                   7.321(6)
_cell_length_b                   11.808(9)
_cell_length_c                   9.419(8)
_cell_angle_alpha                90
_cell_angle_beta                 110.277(10)
_cell_angle_gamma                90
_cell_volume                     763.778
_exptl_crystal_colour            colorless
_exptl_crystal_description       plate
_cell_formula_units_Z            2
loop_
_atom_site_label
_atom_site_type_symbol
_atom_site_fract_x
_atom_site_fract_y
_atom_site_fract_z
C1 C 0.2673(2) 0.53659(13) 0.29217(18)
H1 H 0.3329 0.5508 0.2167
C2 C 0.4126(2) 0.47094(12) 0.42926(17)
C3 C 0.3148(2) 0.44845(14) 0.54739(18)
H2 H 0.2494 0.5175 0.5657
H3 H 0.4115 0.4228 0.6445
C4 C 0.1648(2) 0.35402(16) 0.4749(2)
H4 H 0.1975 0.2829 0.5341
H5 H 0.0311 0.3776 0.4650
C5 C 0.1865(2) 0.34089(14) 0.32125(19)
H6 H 0.1355 0.2677 0.2692
C6 C 0.1046(2) 0.44715(14) 0.22484(19)
H7 H -0.0194 0.4716 0.2354
H8 H 0.0829 0.4331 0.1166
C7 C 0.2016(3) 0.64873(14) 0.33393(19)
C8 C 0.6108(2) 0.52423(13) 0.49567(17)
H9 H 0.6634 0.5411 0.4143
H10 H 0.6011 0.5962 0.5465
C9 C 0.9126(2) 0.50148(16) 0.69322(19)
H11 H 0.8842 0.5555 0.7618
H12 H 0.9703 0.5417 0.6280
H13 H 1.0042 0.4442 0.7526
C10 C 0.4902(2) 0.33220(13) 0.25953(18)
C11 C 0.4659(2) 0.20104(14) 0.05145(18)
C12 C 0.6780(3) 0.1648(2) 0.1100(2)
H14 H 0.7001 0.1122 0.1947
H15 H 0.7611 0.2316 0.1443
H16 H 0.7098 0.1274 0.0286
C13 C 0.3349(3) 0.10027(18) -0.0050(2)
H17 H 0.1986 0.1248 -0.0387
H18 H 0.3584 0.0449 0.0769
H19 H 0.3624 0.0655 -0.0899
C14 C 0.4243(3) 0.29138(18) -0.0684(2)
H20 H 0.5118 0.3558 -0.0295
H21 H 0.2889 0.3165 -0.0955
H22 H 0.4451 0.2606 -0.1582
N1 N 0.40066(17) 0.35607(11) 0.36219(14)
O1 O 0.32762(19) 0.72997(11) 0.33584(15)
O2 O 0.0575(2) 0.66425(12) 0.3647(2)
O3 O 0.73723(15) 0.44789(9) 0.60227(13)
O4 O 0.62901(16) 0.38297(10) 0.24860(13)
O5 O 0.40669(16) 0.24085(9) 0.17772(12)
H23 H 0.299(3) 0.794(2) 0.362(3)
loop_
_geom_bond_atom_site_label_1
_geom_bond_atom_site_label_2
_geom_bond_site_symmetry_1
_geom_bond_site_symmetry_2
C1 H1 1_555 1_555
C2 C1 1_555 1_555
C3 C2 1_555 1_555
H2 C3 1_555 1_555
H3 C3 1_555 1_555
C4 C3 1_555 1_555
H4 C4 1_555 1_555
H5 C4 1_555 1_555
C5 C4 1_555 1_555
H6 C5 1_555 1_555
C6 C1 1_555 1_555
H7 C6 1_555 1_555
H8 C6 1_555 1_555
C7 C1 1_555 1_555
C8 C2 1_555 1_555
H9 C8 1_555 1_555
H10 C8 1_555 1_555
C9 H11 1_555 1_555
H12 C9 1_555 1_555
H13 C9 1_555 1_555
C10 N1 1_555 1_555
C11 C12 1_555 1_555
C12 H14 1_555 1_555
H15 C12 1_555 1_555
H16 C12 1_555 1_555
C13 C11 1_555 1_555
H17 C13 1_555 1_555
H18 C13 1_555 1_555
H19 C13 1_555 1_555
C14 C11 1_555 1_555
H20 C14 1_555 1_555
H21 C14 1_555 1_555
H22 C14 1_555 1_555
N1 C2 1_555 1_555
O1 C7 1_555 1_555
O2 C7 1_555 1_555
O3 C8 1_555 1_555
O4 C10 1_555 1_555
O5 C10 1_555 1_555
H23 O1 1_555 1_555
C5 C6 1_555 1_555
C5 N1 1_555 1_555
C9 O3 1_555 1_555
C11 O5 1_555 1_555

#END
