
#######################################################################
#
#                 Cambridge Crystallographic Data Centre
#                                CCDC 
#
#######################################################################
#
# If this CIF has been generated from an entry in the Cambridge 
# Structural Database, then it will include bibliographic, chemical, 
# crystal, experimental, refinement or atomic coordinate data resulting 
# from the CCDC's data processing and validation procedures.
#
#######################################################################

data_SOWJAR
_chemical_formula_moiety         'C24 H38 N2 O7'
_chemical_name_systematic        
'(R)-methyl 7-((7-(t-butoxycarbonyl)-1-(methoxymethyl)-7-azabicyclo[2.2.1]hept-2-yl)carbonyl)-1-(methoxymethyl)-7-azabicyclo[2.2.1]heptane-2-carboxylate'
_symmetry_cell_setting           orthorhombic
_symmetry_space_group_name_H-M   'P 21 21 2'
_symmetry_Int_Tables_number      18
_space_group_name_Hall           'P 2 2ab'
loop_
_symmetry_equiv_pos_site_id
_symmetry_equiv_pos_as_xyz
1 x,y,z
2 -x,-y,z
3 1/2-x,1/2+y,-z
4 1/2+x,1/2-y,-z
_cell_length_a                   11.046(5)
_cell_length_b                   16.939(7)
_cell_length_c                   13.237(6)
_cell_angle_alpha                90
_cell_angle_beta                 90
_cell_angle_gamma                90
_cell_volume                     2476.75
_exptl_crystal_colour            colorless
_exptl_crystal_description       prismatic
_cell_formula_units_Z            4
loop_
_atom_site_label
_atom_site_type_symbol
_atom_site_fract_x
_atom_site_fract_y
_atom_site_fract_z
C1 C 0.36778(14) 0.13285(9) 0.23255(11)
C2 C 0.49815(14) 0.12496(9) 0.27816(11)
H1 H 0.5058 0.0724 0.3120
C3 C 0.57981(15) 0.12616(10) 0.18299(12)
H2 H 0.6342 0.1726 0.1832
H3 H 0.6291 0.0775 0.1782
C4 C 0.48804(15) 0.13099(10) 0.09676(12)
H4 H 0.5187 0.1112 0.0304
C5 C 0.43379(18) 0.21521(11) 0.09315(14)
H5 H 0.3860 0.2235 0.0308
H6 H 0.4980 0.2559 0.0971
C6 C 0.35153(16) 0.21691(10) 0.18849(13)
H7 H 0.3788 0.2577 0.2370
H8 H 0.2660 0.2270 0.1702
C7 C 0.26710(14) 0.10666(9) 0.30191(12)
H9 H 0.2645 0.1411 0.3623
H10 H 0.1884 0.1108 0.2666
C8 C 0.18236(19) -0.01083(13) 0.36440(18)
H11 H 0.1555 0.0126 0.4282
H12 H 0.1989 -0.0671 0.3745
H13 H 0.1188 -0.0045 0.3133
C9 C 0.29129(14) 0.05805(9) 0.08116(12)
C10 C 0.24954(15) 0.00728(11) -0.08871(11)
C11 C 0.33554(17) -0.01371(12) -0.17447(12)
H14 H 0.3848 0.0325 -0.1917
H15 H 0.2887 -0.0301 -0.2337
H16 H 0.3885 -0.0570 -0.1532
C12 C 0.16511(19) 0.07393(13) -0.11941(15)
H17 H 0.1120 0.0872 -0.0626
H18 H 0.1160 0.0572 -0.1772
H19 H 0.2130 0.1204 -0.1382
C13 C 0.18160(18) -0.06624(12) -0.05305(14)
H20 H 0.2393 -0.1042 -0.0246
H21 H 0.1395 -0.0904 -0.1104
H22 H 0.1225 -0.0513 -0.0013
C14 C 0.52741(14) 0.18990(9) 0.35449(11)
C15 C 0.49904(14) 0.23540(9) 0.53567(10)
C16 C 0.38559(14) 0.21595(9) 0.60219(11)
H23 H 0.3153 0.2478 0.5776
C17 C 0.36174(15) 0.12781(10) 0.57937(12)
H24 H 0.3670 0.0954 0.6415
H25 H 0.2813 0.1201 0.5479
C18 C 0.46364(16) 0.10773(9) 0.50577(12)
H26 H 0.4480 0.0601 0.4632
C19 C 0.58482(17) 0.10584(10) 0.56351(14)
H27 H 0.6496 0.0816 0.5221
H28 H 0.5771 0.0763 0.6278
C20 C 0.61063(14) 0.19513(10) 0.58315(12)
H29 H 0.6163 0.2065 0.6564
H30 H 0.6863 0.2122 0.5496
C21 C 0.51136(16) 0.32185(9) 0.51081(12)
H31 H 0.5194 0.3532 0.5736
H32 H 0.5842 0.3308 0.4687
C22 C 0.4208(3) 0.40334(15) 0.38587(19)
H33 H 0.4392 0.4533 0.4198
H34 H 0.3465 0.4092 0.3460
H35 H 0.4880 0.3890 0.3411
C23 C 0.40618(15) 0.23361(10) 0.71307(12)
C24 C 0.4293(2) 0.33676(13) 0.83265(14)
H36 H 0.3672 0.3139 0.8767
H37 H 0.4256 0.3945 0.8365
H38 H 0.5095 0.3187 0.8545
N1 N 0.38562(12) 0.08457(8) 0.13945(9)
N2 N 0.47423(12) 0.18249(7) 0.44809(9)
O1 O 0.28780(10) 0.02703(7) 0.33173(9)
O2 O 0.18740(11) 0.05129(8) 0.10888(9)
O3 O 0.33376(10) 0.03575(7) -0.01016(8)
O4 O 0.58695(12) 0.24800(7) 0.33005(9)
O5 O 0.40473(13) 0.34506(8) 0.45690(11)
O6 O 0.42087(15) 0.18600(8) 0.77912(9)
O7 O 0.40810(14) 0.31171(7) 0.72918(9)
loop_
_geom_bond_atom_site_label_1
_geom_bond_atom_site_label_2
_geom_bond_site_symmetry_1
_geom_bond_site_symmetry_2
C1 C2 1_555 1_555
C2 H1 1_555 1_555
C3 C2 1_555 1_555
H2 C3 1_555 1_555
H3 C3 1_555 1_555
C4 C3 1_555 1_555
H4 C4 1_555 1_555
C5 C4 1_555 1_555
H5 C5 1_555 1_555
H6 C5 1_555 1_555
C6 C1 1_555 1_555
H7 C6 1_555 1_555
H8 C6 1_555 1_555
C7 C1 1_555 1_555
H9 C7 1_555 1_555
H10 C7 1_555 1_555
C8 H11 1_555 1_555
H12 C8 1_555 1_555
H13 C8 1_555 1_555
C9 N1 1_555 1_555
C10 C11 1_555 1_555
C11 H14 1_555 1_555
H15 C11 1_555 1_555
H16 C11 1_555 1_555
C12 C10 1_555 1_555
H17 C12 1_555 1_555
H18 C12 1_555 1_555
H19 C12 1_555 1_555
C13 C10 1_555 1_555
H20 C13 1_555 1_555
H21 C13 1_555 1_555
H22 C13 1_555 1_555
C14 C2 1_555 1_555
C15 C16 1_555 1_555
C16 H23 1_555 1_555
C17 C16 1_555 1_555
H24 C17 1_555 1_555
H25 C17 1_555 1_555
C18 C17 1_555 1_555
H26 C18 1_555 1_555
C19 C18 1_555 1_555
H27 C19 1_555 1_555
H28 C19 1_555 1_555
C20 C15 1_555 1_555
H29 C20 1_555 1_555
H30 C20 1_555 1_555
C21 C15 1_555 1_555
H31 C21 1_555 1_555
H32 C21 1_555 1_555
C22 H33 1_555 1_555
H34 C22 1_555 1_555
H35 C22 1_555 1_555
C23 C16 1_555 1_555
C24 H36 1_555 1_555
H37 C24 1_555 1_555
H38 C24 1_555 1_555
N1 C1 1_555 1_555
N2 C14 1_555 1_555
O1 C7 1_555 1_555
O2 C9 1_555 1_555
O3 C9 1_555 1_555
O4 C14 1_555 1_555
O5 C21 1_555 1_555
O6 C23 1_555 1_555
O7 C23 1_555 1_555
C4 N1 1_555 1_555
C5 C6 1_555 1_555
C8 O1 1_555 1_555
C10 O3 1_555 1_555
C15 N2 1_555 1_555
C18 N2 1_555 1_555
C19 C20 1_555 1_555
C22 O5 1_555 1_555
C24 O7 1_555 1_555

#END
