
#######################################################################
#
#                 Cambridge Crystallographic Data Centre
#                                CCDC 
#
#######################################################################
#
# If this CIF has been generated from an entry in the Cambridge 
# Structural Database, then it will include bibliographic, chemical, 
# crystal, experimental, refinement or atomic coordinate data resulting 
# from the CCDC's data processing and validation procedures.
#
#######################################################################

data_SOWLAS
_chemical_name_common            
"9-(2-Hydroperoxy-2-propanyl)-6,12-dihydroxy-3,3-dimethyl-8,9-dihydro-3H,7H-pyrano[2',3':7,8]chromeno[3,2-d][1]benzoxepin-7-one dimethylsulfoxide solvate"
_chemical_formula_moiety         'C25 H24 O8,C2 H6 O1 S1'
_chemical_name_systematic        
'Morusin hydroperoxide dimethylsulfoxide solvate'
_chemical_properties_biological  
'anti-HIV activity and cytotoxic activity against human oral tumour cell lines'
_symmetry_cell_setting           triclinic
_symmetry_space_group_name_H-M   'P -1'
_symmetry_Int_Tables_number      2
_space_group_name_Hall           '-P 1'
loop_
_symmetry_equiv_pos_site_id
_symmetry_equiv_pos_as_xyz
1 x,y,z
2 -x,-y,-z
_cell_length_a                   5.7691(11)
_cell_length_b                   10.533(2)
_cell_length_c                   22.464(4)
_cell_angle_alpha                96.839(4)
_cell_angle_beta                 95.885(4)
_cell_angle_gamma                104.248(5)
_cell_volume                     1301.26
_exptl_crystal_colour            yellow
_exptl_crystal_description       block
_cell_formula_units_Z            2
loop_
_atom_site_label
_atom_site_type_symbol
_atom_site_fract_x
_atom_site_fract_y
_atom_site_fract_z
S1 S -0.0700(4) 0.81447(19) 1.00547(8)
O9 O 0.0755(9) 0.7655(4) 0.9602(2)
C20 C 0.1080(16) 0.8328(8) 1.0761(3)
H22 H 0.2443 0.9083 1.0798
H23 H 0.1634 0.7547 1.0791
H24 H 0.0132 0.8453 1.1080
C21 C -0.2995(15) 0.6750(10) 1.0131(4)
H25 H -0.4149 0.6504 0.9770
H26 H -0.3785 0.6956 1.0472
H27 H -0.2303 0.6027 1.0193
O1 O 0.9276(6) 0.9439(3) 0.70166(16)
O2 O 1.1363(11) 0.6085(4) 0.6564(2)
O3 O 1.4327(10) 0.7336(5) 0.5902(2)
H1 H 1.3675 0.6725 0.6073
O4 O 1.4399(7) 1.1731(4) 0.57566(18)
O5 O 0.1994(8) 0.9484(4) 0.8858(2)
H2 H 0.1674 0.8922 0.9081
O6 O 0.7245(9) 0.6884(4) 0.83293(18)
O7 O 0.7535(12) 0.4741(5) 0.8828(3)
O8 O 0.9880(14) 0.5079(6) 0.8933(4)
H3 H 1.0355 0.5859 0.9089
C1 C 0.8362(10) 0.8336(5) 0.7262(2)
C2 C 0.8906(13) 0.7201(6) 0.7099(3)
C3 C 1.0719(13) 0.7132(6) 0.6700(3)
C4 C 1.3458(12) 0.8410(6) 0.6055(3)
C5 C 1.4301(11) 0.9528(6) 0.5828(3)
H4 H 1.5453 0.9568 0.5566
C6 C 1.3451(10) 1.0628(5) 0.5987(2)
C7 C 1.1721(9) 1.0609(5) 0.6386(2)
C8 C 1.0902(9) 0.9445(5) 0.6609(2)
C9 C 1.1663(10) 0.8307(5) 0.6449(2)
C10 C 1.1107(11) 1.1849(5) 0.6567(2)
H5 H 1.0206 1.1920 0.6883
C11 C 1.1818(11) 1.2852(6) 0.6285(3)
H6 H 1.1574 1.3664 0.6434
C12 C 1.3033(11) 1.2740(5) 0.5722(3)
C13 C 1.5031(14) 1.3994(7) 0.5694(4)
H7 H 1.5748 1.3877 0.5331
H8 H 1.6244 1.4149 0.6040
H9 H 1.4351 1.4739 0.5694
C14 C 1.1220(14) 1.2316(8) 0.5162(3)
H10 H 1.0022 1.1533 0.5208
H11 H 1.2018 1.2129 0.4821
H12 H 1.0458 1.3012 0.5100
C15 C 0.759(2) 0.5966(7) 0.7328(4)
H13 H 0.5893 0.5798 0.7168
H14 H 0.8145 0.5240 0.7140
C16 C 0.7674(14) 0.5870(6) 0.7914(3)
H15 H 0.9425 0.6043 0.8022
C17 C 0.6869(11) 0.4556(6) 0.8153(3)
C18 C 0.4215(13) 0.4185(8) 0.8166(4)
H16 H 0.3754 0.3359 0.8319
H17 H 0.3389 0.4096 0.7764
H18 H 0.3789 0.4862 0.8424
C19 C 0.7610(14) 0.3453(6) 0.7804(4)
H19 H 0.9324 0.3705 0.7800
H20 H 0.6798 0.3276 0.7396
H21 H 0.7182 0.2671 0.7992
C22 C 0.6720(9) 0.8582(5) 0.7691(2)
C23 C 0.5660(10) 0.9642(5) 0.7650(2)
H28 H 0.6027 1.0167 0.7350
C24 C 0.4100(10) 0.9930(5) 0.8038(3)
H29 H 0.3425 1.0636 0.7996
C25 C 0.3537(10) 0.9169(5) 0.8489(3)
C26 C 0.4582(10) 0.8132(5) 0.8546(2)
H30 H 0.4209 0.7619 0.8850
C27 C 0.6162(10) 0.7841(5) 0.8164(2)
loop_
_geom_bond_atom_site_label_1
_geom_bond_atom_site_label_2
_geom_bond_site_symmetry_1
_geom_bond_site_symmetry_2
S1 O9 1_555 1_555
O1 C1 1_555 1_555
O2 C3 1_555 1_555
O3 H1 1_555 1_555
O4 C6 1_555 1_555
O5 H2 1_555 1_555
O6 C16 1_555 1_555
O7 O8 1_555 1_555
O8 H3 1_555 1_555
C1 C2 1_555 1_555
C2 C3 1_555 1_555
C3 C9 1_555 1_555
C4 O3 1_555 1_555
C5 C4 1_555 1_555
H4 C5 1_555 1_555
C6 C5 1_555 1_555
C7 C6 1_555 1_555
C8 O1 1_555 1_555
C9 C4 1_555 1_555
C10 C7 1_555 1_555
H5 C10 1_555 1_555
C11 C10 1_555 1_555
H6 C11 1_555 1_555
C12 O4 1_555 1_555
C13 C12 1_555 1_555
H7 C13 1_555 1_555
H8 C13 1_555 1_555
H9 C13 1_555 1_555
C14 C12 1_555 1_555
H10 C14 1_555 1_555
H11 C14 1_555 1_555
H12 C14 1_555 1_555
C15 C2 1_555 1_555
H13 C15 1_555 1_555
H14 C15 1_555 1_555
C16 C15 1_555 1_555
H15 C16 1_555 1_555
C17 O7 1_555 1_555
C18 C17 1_555 1_555
H16 C18 1_555 1_555
H17 C18 1_555 1_555
H18 C18 1_555 1_555
C19 C17 1_555 1_555
H19 C19 1_555 1_555
H20 C19 1_555 1_555
H21 C19 1_555 1_555
C20 S1 1_555 1_555
H22 C20 1_555 1_555
H23 C20 1_555 1_555
H24 C20 1_555 1_555
C21 S1 1_555 1_555
H25 C21 1_555 1_555
H26 C21 1_555 1_555
H27 C21 1_555 1_555
C22 C1 1_555 1_555
C23 C22 1_555 1_555
H28 C23 1_555 1_555
C24 C23 1_555 1_555
H29 C24 1_555 1_555
C25 O5 1_555 1_555
C26 C25 1_555 1_555
H30 C26 1_555 1_555
C27 O6 1_555 1_555
C7 C8 1_555 1_555
C8 C9 1_555 1_555
C11 C12 1_555 1_555
C16 C17 1_555 1_555
C22 C27 1_555 1_555
C24 C25 1_555 1_555
C26 C27 1_555 1_555

#END
