
#######################################################################
#
#                 Cambridge Crystallographic Data Centre
#                                CCDC 
#
#######################################################################
#
# If this CIF has been generated from an entry in the Cambridge 
# Structural Database, then it will include bibliographic, chemical, 
# crystal, experimental, refinement or atomic coordinate data resulting 
# from the CCDC's data processing and validation procedures.
#
#######################################################################

data_SOWZAF
_chemical_formula_moiety         'C21 H29 N1 O7'
_chemical_name_systematic        
4-(5-(2,2,-Dimethyl-1,3-dioxolan-4-yl)-2,2-dimethyl-1,3-dioxolan-4-yl)-3-methoxy-1-(p-methoxyphenyl)-2-azetidinone
_symmetry_cell_setting           monoclinic
_symmetry_space_group_name_H-M   'P 21'
_symmetry_Int_Tables_number      4
_space_group_name_Hall           'P 2yb'
loop_
_symmetry_equiv_pos_site_id
_symmetry_equiv_pos_as_xyz
1 x,y,z
2 -x,1/2+y,-z
_cell_length_a                   14.024(1)
_cell_length_b                   10.288(1)
_cell_length_c                   15.912(2)
_cell_angle_alpha                90
_cell_angle_beta                 107.2(1)
_cell_angle_gamma                90
_cell_volume                     2193.1
_cell_formula_units_Z            4
loop_
_atom_site_label
_atom_site_type_symbol
_atom_site_fract_x
_atom_site_fract_y
_atom_site_fract_z
O1 O 0.3213(6) 0.7628(9) 0.1651(6)
O2 O 0.2578(5) 0.6237(10) 0.0493(6)
O3 O 0.0150(5) 0.7806(9) -0.0079(6)
O4 O -0.0396(6) 0.6435(10) -0.1254(5)
C1 C 0.1762(8) 0.6924 0.0658(8)
C2 C 0.1017(9) 0.7220(13) -0.0233(8)
C3 C 0.3408(8) 0.6502(14) 0.1217(8)
C4 C 0.2221(8) 0.8079(12) 0.1184(7)
C5 C 0.3591(12) 0.5439(18) 0.1865(11)
C6 C 0.0587(9) 0.6042(13) -0.0801(7)
C7 C 0.1308(10) 0.4529(17) 0.3521(10)
N1 N 0.1813(7) 0.7753(12) 0.2655(6)
C8 C 0.1339(8) 0.6557(13) 0.2740(7)
C9 C 0.0379(9) 0.4236(14) 0.2922(8)
C10 C -0.0077(8) 0.5155(15) 0.2257(8)
C11 C 0.0395(9) 0.6299(14) 0.2179(8)
C12 C -0.1121(9) 0.6310(12) -0.0046(8)
O5 O 0.2834(10) 0.8453(14) 0.3995(7)
C13 C 0.2463(10) 0.8552(15) 0.3213(8)
C14 C 0.3564(13) 1.1155(18) 0.2955(12)
O6 O 0.3105(7) 1.0228(10) 0.2357(7)
C15 C 0.1793(9) 0.5668(14) 0.3407(8)
C16 C 0.2273(10) 0.9579(13) 0.2531(9)
O7 O -0.0142(7) 0.3104(11) 0.2953(7)
C17 C 0.0420(12) 0.2034(17) 0.3378(10)
C18 C -0.1477(9) 0.8182(13) -0.1105(9)
C19 C 0.4320(12) 0.6781(18) 0.0885(13)
C20 C 0.1727(8) 0.8556(12) 0.1873(7)
C21 C -0.0723(8) 0.7166(12) -0.0631(7)
H1 H 0.2160 0.8360 0.0601
H2 H -0.1428 0.8602 -0.0688
H3 H 0.4004 0.5467 0.2567
H4 H 0.3380 1.2017 0.2568
H5 H 0.0032 0.6851 0.1753
H6 H 0.0872 0.1873 0.2964
H7 H 0.1835 1.0297 0.2563
H8 H 0.1634 0.3804 0.3850
H9 H 0.2383 0.5954 0.3918
H10 H -0.0743 0.4916 0.1817
H11 H 0.4321 1.0923 0.3336
H12 H 0.3369 1.1022 0.3534
H13 H -0.1990 0.7813 -0.1558
H14 H -0.1149 0.8736 -0.1367
H15 H -0.0753 0.5474 0.0122
H16 H -0.1663 0.6032 -0.0443
H17 H 0.0050 0.1190 0.3155
H18 H 0.0725 0.2183 0.4048
H19 H 0.3796 0.4667 0.1681
H20 H 0.3008 0.5083 0.1860
H21 H 0.4947 0.7089 0.1402
H22 H 0.1058 0.8902 0.1545
H23 H 0.1451 0.6476 0.0912
H24 H 0.1243 0.7746 -0.0489
H25 H 0.0937 0.5827 -0.1213
H26 H 0.0578 0.5203 -0.0413
H27 H 0.3975 0.7468 0.0380
H28 H 0.4468 0.5854 0.0668
H29 H -0.1229 0.6676 0.0557
C22 C -0.3711(9) 0.6856(16) 0.0049(8)
O8 O -0.4301(7) 0.6802(12) -0.0813(6)
C23 C -0.3339(10) 0.8101(15) 0.0361(9)
C24 C -0.2495(9) 0.7174(15) 0.1750(8)
C25 C -0.2830(9) 0.5935(13) 0.1447(7)
C26 C -0.2755(11) 0.8264(14) 0.1210(8)
C27 C -0.3438(8) 0.5771(15) 0.0573(9)
O9 O -0.4035(7) 0.6381(10) 0.3842(7)
C28 C -0.1627(9) 0.6584(13) 0.3411(8)
N2 N -0.1849(7) 0.7360(11) 0.2629(6)
C29 C -0.3828(8) 0.7736(17) 0.3950(8)
O10 O -0.2782(6) 0.7842(10) 0.3982(6)
C30 C -0.0692(8) 0.7522(14) 0.3784(8)
C31 C -0.1089(11) 0.8240(14) 0.2918(8)
C32 C -0.3913(12) 0.8132(20) 0.4824(12)
C33 C -0.4420(12) 0.8460(18) 0.3184(14)
O11 O -0.0614(6) 0.8075(11) 0.4584(5)
C34 C -0.3304(9) 0.5707(12) 0.3549(9)
C35 C -0.2385(9) 0.6545(13) 0.3950(8)
O12 O -0.2527(6) 0.3686(10) 0.3471(7)
O13 O -0.3864(8) 0.2317(14) 0.3232(9)
C36 C -0.2280(14) 0.1540(18) 0.4020(14)
C37 C -0.2825(10) 0.2375(17) 0.3307(10)
C38 C -0.2717(13) 0.1989(18) 0.2397(11)
C39 C -0.4651(12) 0.5553(20) -0.1155(10)
O14 O -0.0835(8) 0.9181(12) 0.2614(7)
C40 C 0.0179(11) 0.8960(16) 0.4845(9)
C41 C -0.3219(10) 0.4361(15) 0.3837(9)
C42 C -0.4180(12) 0.3468(17) 0.3426(13)
H30 H -0.4105 0.4893 -0.0975
H31 H -0.4167 0.9049 0.4608
H32 H -0.2429 0.8945 0.1527
H33 H -0.0172 0.6966 0.4112
H34 H -0.1375 0.5620 0.3418
H35 H -0.2946 0.4202 0.4535
H36 H -0.3510 0.8916 0.0015
H37 H -0.3699 0.4885 0.0316
H38 H -0.2166 0.2148 0.2359
H39 H -0.4356 0.3383 0.3867
H40 H -0.4469 0.3834 0.2777
H41 H -0.4947 0.5060 -0.0847
H42 H -0.4890 0.5625 -0.1711
H43 H -0.2969 0.1283 0.2105
H44 H -0.2623 0.5175 0.1874
H45 H -0.3272 0.8029 0.5327
H46 H -0.4301 0.7552 0.5035
H47 H -0.3172 0.2697 0.2011
H48 H -0.2034 0.6257 0.4599
H49 H -0.3429 0.5730 0.2871
H50 H -0.1576 0.1568 0.4160
H51 H -0.2464 0.0616 0.3956
H52 H -0.2402 0.1789 0.4608
H53 H -0.4259 0.9379 0.3237
H54 H -0.5088 0.8391 0.3106
H55 H -0.4309 0.8140 0.2639
H56 H 0.0276 0.9351 0.5410
H57 H 0.0092 0.9651 0.4414
H58 H 0.0793 0.8535 0.4888
loop_
_geom_bond_atom_site_label_1
_geom_bond_atom_site_label_2
_geom_bond_site_symmetry_1
_geom_bond_site_symmetry_2
O1 C3 1_555 1_555
O2 C1 1_555 1_555
O3 C2 1_555 1_555
O4 C6 1_555 1_555
C1 C2 1_555 1_555
C2 C6 1_555 1_555
C3 O2 1_555 1_555
C4 O1 1_555 1_555
C5 C3 1_555 1_555
C6 H25 1_555 1_555
C7 C9 1_555 1_555
N1 C8 1_555 1_555
C8 C11 1_555 1_555
C9 C10 1_555 1_555
C10 C11 1_555 1_555
C11 H5 1_555 1_555
C12 C21 1_555 1_555
O5 C13 1_555 1_555
C13 N1 1_555 1_555
C14 O6 1_555 1_555
O6 C16 1_555 1_555
C15 C7 1_555 1_555
C16 C13 1_555 1_555
O7 C9 1_555 1_555
C17 O7 1_555 1_555
C18 C21 1_555 1_555
C19 C3 1_555 1_555
C20 C4 1_555 1_555
C21 O3 1_555 1_555
C22 O8 1_555 1_555
O8 C39 1_555 1_555
C23 C22 1_555 1_555
C24 C25 1_555 1_555
C25 C27 1_555 1_555
C26 C23 1_555 1_555
C27 C22 1_555 1_555
O9 C29 1_555 1_555
C28 N2 1_555 1_555
N2 C24 1_555 1_555
C29 O10 1_555 1_555
O10 C35 1_555 1_555
C30 C28 1_555 1_555
C31 N2 1_555 1_555
C32 C29 1_555 1_555
C33 C29 1_555 1_555
O11 C30 1_555 1_555
C34 O9 1_555 1_555
C35 C28 1_555 1_555
O12 C37 1_555 1_555
O13 C37 1_555 1_555
C36 C37 1_555 1_555
C37 C38 1_555 1_555
C38 H38 1_555 1_555
C39 H30 1_555 1_555
O14 C31 1_555 1_555
C40 O11 1_555 1_555
C41 C34 1_555 1_555
C42 O13 1_555 1_555
H1 C4 1_555 1_555
H2 C18 1_555 1_555
H3 C5 1_555 1_555
H4 C14 1_555 1_555
H6 C17 1_555 1_555
H7 C16 1_555 1_555
H8 C7 1_555 1_555
H9 C15 1_555 1_555
H10 C10 1_555 1_555
H11 C14 1_555 1_555
H12 C14 1_555 1_555
H13 C18 1_555 1_555
H14 C18 1_555 1_555
H15 C12 1_555 1_555
H16 C12 1_555 1_555
H17 C17 1_555 1_555
H18 C17 1_555 1_555
H19 C5 1_555 1_555
H20 C5 1_555 1_555
H21 C19 1_555 1_555
H22 C20 1_555 1_555
H23 C1 1_555 1_555
H24 C2 1_555 1_555
H26 C6 1_555 1_555
H27 C19 1_555 1_555
H28 C19 1_555 1_555
H29 C12 1_555 1_555
H31 C32 1_555 1_555
H32 C26 1_555 1_555
H33 C30 1_555 1_555
H34 C28 1_555 1_555
H35 C41 1_555 1_555
H36 C23 1_555 1_555
H37 C27 1_555 1_555
H39 C42 1_555 1_555
H40 C42 1_555 1_555
H41 C39 1_555 1_555
H42 C39 1_555 1_555
H43 C38 1_555 1_555
H44 C25 1_555 1_555
H45 C32 1_555 1_555
H46 C32 1_555 1_555
H47 C38 1_555 1_555
H48 C35 1_555 1_555
H49 C34 1_555 1_555
H50 C36 1_555 1_555
H51 C36 1_555 1_555
H52 C36 1_555 1_555
H53 C33 1_555 1_555
H54 C33 1_555 1_555
H55 C33 1_555 1_555
H56 C40 1_555 1_555
H57 C40 1_555 1_555
H58 C40 1_555 1_555
O4 C21 1_555 1_555
C1 C4 1_555 1_555
N1 C20 1_555 1_555
C8 C15 1_555 1_555
C16 C20 1_555 1_555
C24 C26 1_555 1_555
C30 C31 1_555 1_555
C34 C35 1_555 1_555
O12 C41 1_555 1_555
C41 C42 1_555 1_555

#END
