
#######################################################################
#
#                 Cambridge Crystallographic Data Centre
#                                CCDC 
#
#######################################################################
#
# If this CIF has been generated from an entry in the Cambridge 
# Structural Database, then it will include bibliographic, chemical, 
# crystal, experimental, refinement or atomic coordinate data resulting 
# from the CCDC's data processing and validation procedures.
#
#######################################################################

data_SOXJEV
_chemical_name_common            N,N'-bis(6-methyl-2-pyridinyl)imidoformamide
_chemical_formula_moiety         'C13 H14 N4'
_chemical_name_systematic        N^1^,N^2^-bis(6-methyl-2-pyridyl)formamidine
_symmetry_cell_setting           monoclinic
_symmetry_space_group_name_H-M   'P 21/c'
_symmetry_Int_Tables_number      14
_space_group_name_Hall           '-P 2ybc'
loop_
_symmetry_equiv_pos_site_id
_symmetry_equiv_pos_as_xyz
1 x,y,z
2 -x,1/2+y,1/2-z
3 -x,-y,-z
4 x,1/2-y,1/2+z
_cell_length_a                   6.0364(4)
_cell_length_b                   19.6697(14)
_cell_length_c                   10.4040(7)
_cell_angle_alpha                90
_cell_angle_beta                 96.0810(10)
_cell_angle_gamma                90
_cell_volume                     1228.36
_exptl_crystal_colour            yellow
_exptl_crystal_description       block
_cell_formula_units_Z            4
_exptl_crystal_recrystallization_method dichloromethane
loop_
_atom_site_label
_atom_site_type_symbol
_atom_site_fract_x
_atom_site_fract_y
_atom_site_fract_z
N1 N 0.1831(2) 0.44487(7) 0.66067(13)
N2 N 0.2674(2) 0.49243(7) 0.86759(12)
N3 N 0.5357(2) 0.57705(7) 0.89283(13)
N4 N 0.4953(2) 0.67233(7) 0.76126(13)
C1 C 0.1286(4) 0.39836(12) 0.44484(19)
H1 H 0.1775 0.4392 0.4059
H2 H 0.0140 0.3772 0.3874
H3 H 0.2521 0.3677 0.4613
C2 C 0.0383(3) 0.41552(8) 0.56991(16)
C3 C -0.1794(3) 0.40215(10) 0.5912(2)
H4 H -0.2780 0.3832 0.5262
C4 C -0.2488(3) 0.41725(10) 0.7103(2)
H5 H -0.3947 0.4083 0.7263
C5 C -0.1007(3) 0.44564(9) 0.80515(18)
H6 H -0.1423 0.4549 0.8869
C6 C 0.1131(3) 0.46006(8) 0.77451(15)
C7 C 0.3682(3) 0.54351(8) 0.82345(15)
H7 H 0.3238 0.5581 0.7396
C8 C 0.6236(3) 0.63789(8) 0.85033(15)
C9 C 0.8327(3) 0.65966(10) 0.90180(19)
H8 H 0.9187 0.6341 0.9635
C10 C 0.9085(4) 0.72061(12) 0.8581(2)
H9 H 1.0476 0.7370 0.8908
C11 C 0.7783(4) 0.75724(10) 0.7662(2)
H10 H 0.8277 0.7986 0.7367
C12 C 0.5739(3) 0.73169(9) 0.71856(17)
C13 C 0.4238(4) 0.76673(12) 0.6146(2)
H11 H 0.2724 0.7640 0.6345
H12 H 0.4367 0.7450 0.5330
H13 H 0.4666 0.8136 0.6097
H14 H 0.602(3) 0.5592(11) 0.966(2)
loop_
_geom_bond_atom_site_label_1
_geom_bond_atom_site_label_2
_geom_bond_site_symmetry_1
_geom_bond_site_symmetry_2
N1 C2 1_555 1_555
N2 C6 1_555 1_555
N3 C7 1_555 1_555
N4 C8 1_555 1_555
C1 H1 1_555 1_555
H2 C1 1_555 1_555
H3 C1 1_555 1_555
C2 C1 1_555 1_555
C3 C2 1_555 1_555
H4 C3 1_555 1_555
C4 C3 1_555 1_555
H5 C4 1_555 1_555
C5 C4 1_555 1_555
H6 C5 1_555 1_555
C6 N1 1_555 1_555
C7 N2 1_555 1_555
H7 C7 1_555 1_555
C8 N3 1_555 1_555
C9 C8 1_555 1_555
H8 C9 1_555 1_555
C10 C9 1_555 1_555
H9 C10 1_555 1_555
C11 C10 1_555 1_555
H10 C11 1_555 1_555
C12 N4 1_555 1_555
C13 C12 1_555 1_555
H11 C13 1_555 1_555
H12 C13 1_555 1_555
H13 C13 1_555 1_555
H14 N3 1_555 1_555
C5 C6 1_555 1_555
C11 C12 1_555 1_555

#END
