
#######################################################################
#
#                 Cambridge Crystallographic Data Centre
#                                CCDC 
#
#######################################################################
#
# If this CIF has been generated from an entry in the Cambridge 
# Structural Database, then it will include bibliographic, chemical, 
# crystal, experimental, refinement or atomic coordinate data resulting 
# from the CCDC's data processing and validation procedures.
#
#######################################################################

data_SOYCAM
_chemical_formula_moiety         'C17 H10 N2 O3'
_chemical_name_systematic        1-benzoylchromeno[3,4-c]pyrazol-4(3H)-one
_symmetry_cell_setting           triclinic
_symmetry_space_group_name_H-M   'P -1'
_symmetry_Int_Tables_number      2
_space_group_name_Hall           '-P 1'
loop_
_symmetry_equiv_pos_site_id
_symmetry_equiv_pos_as_xyz
1 x,y,z
2 -x,-y,-z
_cell_length_a                   6.2005(15)
_cell_length_b                   10.074(2)
_cell_length_c                   10.757(3)
_cell_angle_alpha                90.731(4)
_cell_angle_beta                 90.664(4)
_cell_angle_gamma                96.434(4)
_cell_volume                     667.58
_exptl_crystal_description       plate
_cell_formula_units_Z            2
loop_
_atom_site_label
_atom_site_type_symbol
_atom_site_fract_x
_atom_site_fract_y
_atom_site_fract_z
C1 C 0.8033(4) 0.6081(2) 0.1399(2)
C2 C 0.6305(5) 0.6507(3) 0.0744(2)
H1 H 0.4907 0.6088 0.0853
C3 C 0.6663(6) 0.7559(3) -0.0077(3)
H2 H 0.5511 0.7827 -0.0536
C4 C 0.8717(6) 0.8206(3) -0.0211(3)
H3 H 0.8961 0.8899 -0.0773
C5 C 1.0414(6) 0.7826(3) 0.0488(3)
H4 H 1.1787 0.8298 0.0437
C6 C 1.0080(5) 0.6761(3) 0.1250(3)
H5 H 1.1252 0.6482 0.1683
C7 C 0.7769(4) 0.4876(2) 0.2194(2)
C8 C 0.5757(4) 0.4577(2) 0.2916(2)
C9 C 0.4717(4) 0.3356(2) 0.3371(2)
C10 C 0.2979(4) 0.3738(2) 0.4010(2)
C11 C 0.1353(4) 0.2852(2) 0.4614(2)
C12 C 0.3268(4) 0.1080(2) 0.3790(2)
C13 C 0.4948(4) 0.1940(2) 0.3278(2)
C14 C 0.6625(4) 0.1359(2) 0.2717(2)
H6 H 0.7788 0.1899 0.2387
C15 C 0.6582(5) -0.0014(3) 0.2643(3)
H7 H 0.7700 -0.0391 0.2251
C16 C 0.4886(5) -0.0831(3) 0.3149(3)
H8 H 0.4882 -0.1753 0.3105
C17 C 0.3206(5) -0.0290(3) 0.3716(3)
H9 H 0.2050 -0.0838 0.4043
N1 N 0.4674(3) 0.56040(18) 0.32718(18)
N2 N 0.3034(3) 0.50791(19) 0.39459(18)
H10 H 0.2116 0.5535 0.4300
O1 O 0.9216(3) 0.41558(19) 0.2264(2)
O2 O -0.0141(3) 0.31616(18) 0.52354(18)
O3 O 0.1559(3) 0.15437(16) 0.44361(17)
loop_
_geom_bond_atom_site_label_1
_geom_bond_atom_site_label_2
_geom_bond_site_symmetry_1
_geom_bond_site_symmetry_2
C1 C2 1_555 1_555
C2 H1 1_555 1_555
C3 C2 1_555 1_555
H2 C3 1_555 1_555
C4 C3 1_555 1_555
H3 C4 1_555 1_555
C5 C4 1_555 1_555
H4 C5 1_555 1_555
C6 C1 1_555 1_555
H5 C6 1_555 1_555
C7 C1 1_555 1_555
C8 C7 1_555 1_555
C9 C8 1_555 1_555
C10 C9 1_555 1_555
C11 C10 1_555 1_555
C12 C13 1_555 1_555
C13 C9 1_555 1_555
C14 C13 1_555 1_555
H6 C14 1_555 1_555
C15 C14 1_555 1_555
H7 C15 1_555 1_555
C16 C15 1_555 1_555
H8 C16 1_555 1_555
C17 C12 1_555 1_555
H9 C17 1_555 1_555
N1 C8 1_555 1_555
N2 C10 1_555 1_555
H10 N2 1_555 1_555
O1 C7 1_555 1_555
O2 C11 1_555 1_555
O3 C11 1_555 1_555
C5 C6 1_555 1_555
C12 O3 1_555 1_555
C16 C17 1_555 1_555
N1 N2 1_555 1_555

#END
