
#######################################################################
#
#                 Cambridge Crystallographic Data Centre
#                                CCDC 
#
#######################################################################
#
# If this CIF has been generated from an entry in the Cambridge 
# Structural Database, then it will include bibliographic, chemical, 
# crystal, experimental, refinement or atomic coordinate data resulting 
# from the CCDC's data processing and validation procedures.
#
#######################################################################

data_SOYGIY
_chemical_formula_moiety         'C18 H22 N2 O4 S2'
_chemical_name_systematic        
N,N'-(2,3-Dimethylbut-2-ene-1,4-diyl)dibenzenesulfonamide
_symmetry_cell_setting           orthorhombic
_symmetry_space_group_name_H-M   'P b c n'
_symmetry_Int_Tables_number      60
_space_group_name_Hall           '-P 2n 2ab'
loop_
_symmetry_equiv_pos_site_id
_symmetry_equiv_pos_as_xyz
1 x,y,z
2 1/2+x,1/2-y,-z
3 -x,y,1/2-z
4 1/2-x,1/2-y,1/2+z
5 -x,-y,-z
6 1/2-x,1/2+y,z
7 x,-y,1/2+z
8 1/2+x,1/2+y,1/2-z
_cell_length_a                   16.6308(9)
_cell_length_b                   7.6486(4)
_cell_length_c                   14.6405(8)
_cell_angle_alpha                90
_cell_angle_beta                 90
_cell_angle_gamma                90
_cell_volume                     1862.31
_exptl_crystal_colour            colorless
_exptl_crystal_description       prism
_chemical_melting_point          '448 K'
_cell_formula_units_Z            4
_exptl_crystal_recrystallization_method acetone
loop_
_atom_site_label
_atom_site_type_symbol
_atom_site_fract_x
_atom_site_fract_y
_atom_site_fract_z
S1 S 0.64740(2) 0.80407(4) 0.58571(2)
O1 O 0.72673(5) 0.85628(12) 0.61474(6)
O2 O 0.57913(5) 0.90848(12) 0.61145(6)
N1 N 0.63366(6) 0.60994(13) 0.62642(7)
H1 H 0.6726 0.5556 0.6526
C1 C 0.66246(8) 0.80017(16) 0.27674(8)
H2 H 0.6669 0.8032 0.2134
C2 C 0.60029(7) 0.88913(17) 0.31957(8)
H3 H 0.5632 0.9512 0.2848
C3 C 0.59320(7) 0.88587(16) 0.41452(7)
H4 H 0.5510 0.9433 0.4434
C4 C 0.65025(6) 0.79547(14) 0.46508(8)
C5 C 0.55371(7) 0.52586(16) 0.61849(8)
H5 H 0.5131 0.6072 0.6399
H6 H 0.5524 0.4245 0.6583
C6 C 0.53209(6) 0.46855(15) 0.52250(8)
C7 C 0.71264(7) 0.70414(15) 0.42280(8)
H7 H 0.7500 0.6427 0.4575
C8 C 0.71827(8) 0.70627(16) 0.32815(8)
H8 H 0.7593 0.6451 0.2991
C9 C 0.58940(8) 0.33310(17) 0.48553(10)
H9 H 0.5681 0.2851 0.4300
H10 H 0.5961 0.2414 0.5297
H11 H 0.6405 0.3866 0.4734
S1D S 0.35260(2) 0.19593(4) 0.41429(2)
O1D O 0.27327(5) 0.14372(12) 0.38526(6)
O2D O 0.42087(5) 0.09152(12) 0.38855(6)
N1D N 0.36634(6) 0.39006(13) 0.37358(7)
H1D H 0.3274 0.4444 0.3474
C1D C 0.33754(8) 0.19983(16) 0.72326(8)
H2D H 0.3331 0.1968 0.7866
C2D C 0.39971(7) 0.11087(17) 0.68043(8)
H3D H 0.4368 0.0488 0.7152
C3D C 0.40680(7) 0.11413(16) 0.58548(7)
H4D H 0.4490 0.0567 0.5566
C4D C 0.34975(6) 0.20453(14) 0.53492(8)
C5D C 0.44629(7) 0.47414(16) 0.38151(8)
H5D H 0.4869 0.3928 0.3601
H6D H 0.4476 0.5755 0.3417
C6D C 0.46791(6) 0.53145(15) 0.47750(8)
C7D C 0.28736(7) 0.29586(15) 0.57720(8)
H7D H 0.2500 0.3573 0.5425
C8D C 0.28173(8) 0.29373(16) 0.67185(8)
H8D H 0.2407 0.3549 0.7009
C9D C 0.41060(8) 0.66690(17) 0.51447(10)
H9D H 0.4319 0.7149 0.5700
H10D H 0.4039 0.7586 0.4703
H11D H 0.3595 0.6134 0.5266
loop_
_geom_bond_atom_site_label_1
_geom_bond_atom_site_label_2
_geom_bond_site_symmetry_1
_geom_bond_site_symmetry_2
S1 O1 1_555 1_555
O2 S1 1_555 1_555
N1 S1 1_555 1_555
H1 N1 1_555 1_555
C1 H2 1_555 1_555
C2 C1 1_555 1_555
H3 C2 1_555 1_555
C3 C2 1_555 1_555
H4 C3 1_555 1_555
C4 S1 1_555 1_555
C5 N1 1_555 1_555
H5 C5 1_555 1_555
H6 C5 1_555 1_555
C6 C5 1_555 1_555
C7 C4 1_555 1_555
H7 C7 1_555 1_555
C8 C1 1_555 1_555
H8 C8 1_555 1_555
C9 C6 1_555 1_555
H9 C9 1_555 1_555
H10 C9 1_555 1_555
H11 C9 1_555 1_555
S1D O1D 1_555 1_555
O2D S1D 1_555 1_555
N1D S1D 1_555 1_555
H1D N1D 1_555 1_555
C1D H2D 1_555 1_555
C2D C1D 1_555 1_555
H3D C2D 1_555 1_555
C3D C2D 1_555 1_555
H4D C3D 1_555 1_555
C4D S1D 1_555 1_555
C5D N1D 1_555 1_555
H5D C5D 1_555 1_555
H6D C5D 1_555 1_555
C6D C6 1_555 1_555
C7D C4D 1_555 1_555
H7D C7D 1_555 1_555
C8D C1D 1_555 1_555
H8D C8D 1_555 1_555
C9D C6D 1_555 1_555
H9D C9D 1_555 1_555
H10D C9D 1_555 1_555
H11D C9D 1_555 1_555
C3 C4 1_555 1_555
C7 C8 1_555 1_555
C3D C4D 1_555 1_555
C5D C6D 1_555 1_555
C7D C8D 1_555 1_555

#END
