
#######################################################################
#
#                 Cambridge Crystallographic Data Centre
#                                CCDC 
#
#######################################################################
#
# If this CIF has been generated from an entry in the Cambridge 
# Structural Database, then it will include bibliographic, chemical, 
# crystal, experimental, refinement or atomic coordinate data resulting 
# from the CCDC's data processing and validation procedures.
#
#######################################################################

data_SOYRUV
_chemical_formula_moiety         'C30 H31 N5 O2 S1'
_chemical_name_systematic        
3',6'-bis(Diethylamino)-2-(1,3,4-thiadiazol-2-yl)spiro[isoindole-1,9'-xanthen]-3(2H)-one
_symmetry_cell_setting           orthorhombic
_symmetry_space_group_name_H-M   'P 21 21 21'
_symmetry_Int_Tables_number      19
_space_group_name_Hall           'P 2ac 2ab'
loop_
_symmetry_equiv_pos_site_id
_symmetry_equiv_pos_as_xyz
1 x,y,z
2 1/2-x,-y,1/2+z
3 -x,1/2+y,1/2-z
4 1/2+x,1/2-y,-z
_cell_length_a                   12.365(4)
_cell_length_b                   12.580(4)
_cell_length_c                   35.145(10)
_cell_angle_alpha                90
_cell_angle_beta                 90
_cell_angle_gamma                90
_cell_volume                     5466.86
_chemical_melting_point          '254.8-255.3 deg.C'
_cell_formula_units_Z            8
loop_
_atom_site_label
_atom_site_type_symbol
_atom_site_fract_x
_atom_site_fract_y
_atom_site_fract_z
S1 S 0.4414(3) 0.5312(3) 0.42267(10)
O1 O 0.5375(7) 0.4020(6) 0.4756(2)
O2 O 0.1780(7) 0.6937(5) 0.5528(3)
N1 N 0.4206(9) 0.9734(8) 0.5761(5)
N2 N -0.1017(9) 0.4345(8) 0.5424(4)
N3 N 0.2937(8) 0.6280(7) 0.4608(3)
N4 N 0.2850(10) 0.6623(10) 0.4247(4)
N5 N 0.3992(6) 0.5103(6) 0.4985(2)
C1 C 0.3509(8) 0.5400(8) 0.5359(3)
C2 C 0.0477(9) 0.5671(8) 0.5469(3)
H1 H 0.0007 0.6220 0.5534
C3 C 0.0857(9) 0.3873(8) 0.5325(3)
H2 H 0.0647 0.3175 0.5279
C4 C 0.1955(8) 0.4125(8) 0.5317(3)
H3 H 0.2465 0.3592 0.5280
C5 C 0.1518(9) 0.5862(7) 0.5442(3)
C6 C 0.4671(12) 0.6981(9) 0.5484(3)
H4 H 0.5257 0.6529 0.5449
C7 C 0.4855(9) 0.4073(8) 0.5423(3)
C8 C 0.3733(11) 0.5643(10) 0.4659(3)
C9 C 0.4157(9) 0.4663(8) 0.5617(3)
C10 C 0.2271(8) 0.5123(8) 0.5364(3)
C11 C 0.2966(11) 0.8294(10) 0.5644(3)
H5 H 0.2376 0.8719 0.5705
C12 C 0.4834(8) 0.4361(8) 0.5029(4)
C13 C 0.0061(10) 0.4638(10) 0.5401(3)
C14 C 0.2822(10) 0.7234(8) 0.5538(3)
C15 C 0.5630(12) 0.3343(9) 0.5577(4)
H6 H 0.6153 0.2982 0.5438
C16 C 0.4866(10) 0.8025(8) 0.5567(4)
H7 H 0.5574 0.8274 0.5563
C17 C 0.5490(9) 0.3266(8) 0.5935(5)
H8 H 0.5917 0.2766 0.6059
C18 C 0.3686(8) 0.6587(7) 0.5451(3)
C19 C 0.3554(12) 0.6300(13) 0.4055(4)
H9 H 0.3653 0.6571 0.3812
C20 C 0.4770(11) 0.3840(10) 0.6165(3)
H10 H 0.4743 0.3730 0.6427
C21 C 0.4046(11) 0.8713(9) 0.5656(3)
C22 C 0.4097(9) 0.4581(9) 0.5990(4)
H11 H 0.3624 0.5001 0.6131
C23 C -0.1416(11) 0.3327(11) 0.5289(4)
H12 H -0.0934 0.3029 0.5099
H13 H -0.2132 0.3400 0.5179
C24 C 0.3360(15) 1.0312(13) 0.5951(5)
H14 H 0.2842 0.9816 0.6058
H15 H 0.3666 1.0725 0.6158
C25 C 0.5463(18) 1.0311(11) 0.5656(5)
H16 H 0.5880 0.9899 0.5475
H17 H 0.5402 1.1042 0.5572
C26 C -0.1448(11) 0.2637(11) 0.5640(3)
H18 H -0.0926 0.2891 0.5821
H19 H -0.1281 0.1917 0.5572
H20 H -0.2157 0.2666 0.5751
C27 C 0.5826(18) 1.0231(11) 0.5997(5)
H21 H 0.5397 0.9932 0.6186
H22 H 0.6518 1.0472 0.6055
C28 C 0.2833(14) 1.0991(12) 0.5696(4)
H23 H 0.3250 1.1629 0.5665
H24 H 0.2131 1.1169 0.5794
H25 H 0.2755 1.0643 0.5455
C29 C -0.2084(17) 0.551(2) 0.5310(5)
C30 C -0.1989(15) 0.5294(17) 0.5627(7)
H26 H -0.2621 0.4976 0.5745
H27 H -0.1673 0.5847 0.5785
S2 S 0.6827(4) 0.7502(4) 0.66255(10)
O3 O 0.5376(6) 0.5272(5) 0.79703(19)
O4 O 0.8229(7) 0.8647(7) 0.7085(3)
N6 N 0.2401(10) 0.7522(10) 0.7976(3)
N7 N 0.8125(8) 0.2767(9) 0.8228(3)
N8 N 0.7232(7) 0.7309(6) 0.7387(3)
N9 N 0.5721(9) 0.5921(9) 0.6735(4)
N10 N 0.6137(8) 0.6072(8) 0.7078(3)
C31 C 0.8311(8) 0.5561(8) 0.7901(3)
C32 C 0.6893(7) 0.6989(7) 0.7787(3)
C33 C 0.5734(8) 0.7140(8) 0.7850(3)
C34 C 0.7291(9) 0.5830(7) 0.7892(3)
C35 C 0.5068(9) 0.6291(9) 0.7939(3)
C36 C 0.6482(8) 0.5052(8) 0.7981(3)
C37 C 0.5242(8) 0.8118(8) 0.7798(3)
H28 H 0.5674 0.8678 0.7715
C38 C 0.8222(9) 0.8424(9) 0.7774(4)
C39 C 0.6809(10) 0.4075(8) 0.8074(3)
H29 H 0.6278 0.3563 0.8111
C40 C 0.7536(10) 0.7739(8) 0.8014(4)
C41 C 0.6769(10) 0.6916(10) 0.7058(3)
C42 C 0.8606(8) 0.4516(8) 0.8010(3)
H30 H 0.9335 0.4335 0.8007
C43 C 0.4186(11) 0.8322(9) 0.7858(3)
H31 H 0.3918 0.9012 0.7847
C44 C 0.8951(11) 0.9207(13) 0.8339(6)
H32 H 0.9441 0.9692 0.8441
C45 C 0.7877(12) 0.3761(9) 0.8121(4)
C46 C 0.7955(10) 0.8172(12) 0.7378(4)
C47 C 0.3516(10) 0.7472(10) 0.7937(3)
C48 C 0.3908(9) 0.6411(9) 0.7985(3)
H33 H 0.3455 0.5841 0.8040
C49 C 0.8407(13) 0.8620(11) 0.8583(5)
H34 H 0.8465 0.8715 0.8845
C50 C 0.8872(10) 0.9175(9) 0.7961(6)
H35 H 0.9258 0.9665 0.7817
C51 C 0.1875(10) 0.8671(9) 0.7963(4)
H36 H 0.2250 0.9092 0.7774
H37 H 0.1127 0.8605 0.7883
C52 C 0.6841(11) 0.1344(10) 0.8016(4)
H38 H 0.6329 0.1815 0.7899
H39 H 0.6478 0.0708 0.8097
H40 H 0.7396 0.1166 0.7837
C53 C 0.1581(14) 0.6576(19) 0.8008(7)
H41 H 0.0909 0.6750 0.7880
H42 H 0.1881 0.5940 0.7894
C54 C 0.1908(10) 0.9241(12) 0.8330(4)
H43 H 0.1782 0.8748 0.8534
H44 H 0.1360 0.9781 0.8333
H45 H 0.2606 0.9565 0.8361
C55 C 0.7354(11) 0.1897(10) 0.8366(5)
H46 H 0.6793 0.2206 0.8523
H47 H 0.7748 0.1380 0.8517
C56 C 0.7699(12) 0.7804(11) 0.8414(4)
H48 H 0.7351 0.7321 0.8573
C57 C 0.5995(12) 0.6484(13) 0.6465(4)
H49 H 0.5788 0.6379 0.6213
C58 C 0.1409(18) 0.6426(17) 0.8379(5)
H50 H 0.1999 0.6721 0.8521
H51 H 0.1356 0.5678 0.8430
H52 H 0.0748 0.6770 0.8452
C59 C 0.9425(17) 0.2466(15) 0.8415(6)
H53 H 0.9844 0.3076 0.8497
H54 H 0.9441 0.1893 0.8600
C60 C 0.958(2) 0.2177(18) 0.8064(6)
H55 H 0.9021 0.2241 0.7887
H56 H 1.0245 0.1907 0.7989
H57? H -0.2162 0.5680 0.5054
loop_
_geom_bond_atom_site_label_1
_geom_bond_atom_site_label_2
_geom_bond_site_symmetry_1
_geom_bond_site_symmetry_2
S1 C8 1_555 1_555
O1 C12 1_555 1_555
O2 C5 1_555 1_555
N1 C21 1_555 1_555
N2 C13 1_555 1_555
N3 N4 1_555 1_555
N4 C19 1_555 1_555
N5 C1 1_555 1_555
C1 C9 1_555 1_555
C2 H1 1_555 1_555
C3 H2 1_555 1_555
C4 C3 1_555 1_555
H3 C4 1_555 1_555
C5 C2 1_555 1_555
C6 H4 1_555 1_555
C7 C9 1_555 1_555
C8 N3 1_555 1_555
C9 C22 1_555 1_555
C10 C1 1_555 1_555
C11 H5 1_555 1_555
C12 N5 1_555 1_555
C13 C2 1_555 1_555
C14 O2 1_555 1_555
C15 C7 1_555 1_555
H6 C15 1_555 1_555
C16 C6 1_555 1_555
H7 C16 1_555 1_555
C17 C15 1_555 1_555
H8 C17 1_555 1_555
C18 C1 1_555 1_555
C19 S1 1_555 1_555
H9 C19 1_555 1_555
C20 C17 1_555 1_555
H10 C20 1_555 1_555
C21 C11 1_555 1_555
C22 C20 1_555 1_555
H11 C22 1_555 1_555
C23 N2 1_555 1_555
H12 C23 1_555 1_555
H13 C23 1_555 1_555
C24 N1 1_555 1_555
H14 C24 1_555 1_555
H15 C24 1_555 1_555
C25 N1 1_555 1_555
H16 C25 1_555 1_555
H17 C25 1_555 1_555
C26 C23 1_555 1_555
H18 C26 1_555 1_555
H19 C26 1_555 1_555
H20 C26 1_555 1_555
C27 C25 1_555 1_555
H21 C27 1_555 1_555
H22 C27 1_555 1_555
C28 C24 1_555 1_555
H23 C28 1_555 1_555
H24 C28 1_555 1_555
H25 C28 1_555 1_555
C29 C30 1_555 1_555
C30 N2 1_555 1_555
H26 C30 1_555 1_555
H27 C30 1_555 1_555
S2 C41 1_555 1_555
O3 C35 1_555 1_555
O4 C46 1_555 1_555
N6 C47 1_555 1_555
N7 C45 1_555 1_555
N8 C32 1_555 1_555
N9 N10 1_555 1_555
N10 C41 1_555 1_555
C31 C34 1_555 1_555
C32 C33 1_555 1_555
C33 C35 1_555 1_555
C34 C32 1_555 1_555
C35 C48 1_555 1_555
C36 O3 1_555 1_555
C37 C33 1_555 1_555
H28 C37 1_555 1_555
C38 C40 1_555 1_555
C39 C36 1_555 1_555
H29 C39 1_555 1_555
C40 C32 1_555 1_555
C41 N8 1_555 1_555
C42 C31 1_555 1_555
H30 C42 1_555 1_555
C43 C37 1_555 1_555
H31 C43 1_555 1_555
C44 H32 1_555 1_555
C45 C39 1_555 1_555
C46 N8 1_555 1_555
C47 C43 1_555 1_555
C48 C47 1_555 1_555
H33 C48 1_555 1_555
C49 C44 1_555 1_555
H34 C49 1_555 1_555
C50 C38 1_555 1_555
H35 C50 1_555 1_555
C51 N6 1_555 1_555
H36 C51 1_555 1_555
H37 C51 1_555 1_555
C52 H38 1_555 1_555
H39 C52 1_555 1_555
H40 C52 1_555 1_555
C53 N6 1_555 1_555
H41 C53 1_555 1_555
H42 C53 1_555 1_555
C54 C51 1_555 1_555
H43 C54 1_555 1_555
H44 C54 1_555 1_555
H45 C54 1_555 1_555
C55 N7 1_555 1_555
H46 C55 1_555 1_555
H47 C55 1_555 1_555
C56 C40 1_555 1_555
H48 C56 1_555 1_555
C57 S2 1_555 1_555
H49 C57 1_555 1_555
C58 C53 1_555 1_555
H50 C58 1_555 1_555
H51 C58 1_555 1_555
H52 C58 1_555 1_555
C59 N7 1_555 1_555
H53 C59 1_555 1_555
H54 C59 1_555 1_555
C60 C59 1_555 1_555
H55 C60 1_555 1_555
H56 C60 1_555 1_555
N5 C8 1_555 1_555
C3 C13 1_555 1_555
C4 C10 1_555 1_555
C5 C10 1_555 1_555
C6 C18 1_555 1_555
C7 C12 1_555 1_555
C11 C14 1_555 1_555
C14 C18 1_555 1_555
C16 C21 1_555 1_555
N9 C57 1_555 1_555
C34 C36 1_555 1_555
C38 C46 1_555 1_555
C42 C45 1_555 1_555
C44 C50 1_555 1_555
C49 C56 1_555 1_555
C52 C55 1_555 1_555

#END
