
#######################################################################
#
#                 Cambridge Crystallographic Data Centre
#                                CCDC 
#
#######################################################################
#
# If this CIF has been generated from an entry in the Cambridge 
# Structural Database, then it will include bibliographic, chemical, 
# crystal, experimental, refinement or atomic coordinate data resulting 
# from the CCDC's data processing and validation procedures.
#
#######################################################################

data_SOYXUZ10
_chemical_formula_moiety         'C12 H13 N1 O1 S2'
_chemical_name_systematic        
5,6-Dimethyl-3-(p-methoxyphenyl)-1,4,2-dithiazine
_symmetry_cell_setting           monoclinic
_symmetry_space_group_name_H-M   'P 21/c'
_symmetry_Int_Tables_number      14
_space_group_name_Hall           '-P 2ybc'
loop_
_symmetry_equiv_pos_site_id
_symmetry_equiv_pos_as_xyz
1 x,y,z
2 -x,1/2+y,1/2-z
3 -x,-y,-z
4 x,1/2-y,1/2+z
_cell_length_a                   14.226(2)
_cell_length_b                   10.896(2)
_cell_length_c                   8.142(2)
_cell_angle_alpha                90
_cell_angle_beta                 104.44(2)
_cell_angle_gamma                90
_cell_volume                     1222.19
_exptl_crystal_colour            yellow
_chemical_melting_point          56-58deg.C
_cell_formula_units_Z            4
loop_
_atom_site_label
_atom_site_type_symbol
_atom_site_fract_x
_atom_site_fract_y
_atom_site_fract_z
S1 S 0.8588(1) 0.5244(1) 0.2188(1)
N1 N 0.7402(1) 0.5262(2) 0.2283(3)
C1 C 0.6840(2) 0.6097(2) 0.1493(3)
S2 S 0.7233(1) 0.7260(1) 0.0272(1)
C2 C 0.8357(2) 0.7659(2) 0.1645(3)
C3 C 0.8962(2) 0.6779(2) 0.2417(3)
C4 C 0.8523(3) 0.9009(3) 0.1918(6)
C5 C 0.9934(2) 0.7000(4) 0.3630(5)
C6 C 0.5811(1) 0.6142(2) 0.1553(3)
C7 C 0.5457(2) 0.5287(2) 0.2532(3)
C8 C 0.4508(2) 0.5333(2) 0.2640(3)
C9 C 0.3885(2) 0.6225(2) 0.1765(3)
C10 C 0.4212(2) 0.7049(2) 0.0751(3)
C11 C 0.5173(2) 0.6998(2) 0.0659(3)
O1 O 0.2970(1) 0.6211(2) 0.1997(2)
C12 C 0.2309(2) 0.7113(3) 0.1137(5)
H1 H 0.9142(38) 0.9173(41) 0.2420(64)
H2 H 0.8368(29) 0.9416(41) 0.0967(56)
H3 H 0.8146(29) 0.9296(39) 0.2542(52)
H4 H 1.0188(28) 0.7737(36) 0.3568(49)
H5 H 0.9912(32) 0.6941(40) 0.4865(68)
H6 H 1.0365(37) 0.6484(48) 0.3654(63)
H7 H 0.5855(22) 0.4709(28) 0.3132(37)
H8 H 0.4281(21) 0.4781(28) 0.3317(37)
H9 H 0.3773(20) 0.7692(22) 0.0129(36)
H10 H 0.5419(18) 0.7618(22) 0.0037(32)
H11 H 0.1758(30) 0.7016(31) 0.1348(51)
H12 H 0.2533(26) 0.7957(32) 0.1435(44)
H13 H 0.2250(24) 0.7095(28) -0.0137(47)
loop_
_geom_bond_atom_site_label_1
_geom_bond_atom_site_label_2
_geom_bond_site_symmetry_1
_geom_bond_site_symmetry_2
S1 N1 1_555 1_555
N1 C1 1_555 1_555
C1 S2 1_555 1_555
S2 C2 1_555 1_555
C2 C3 1_555 1_555
C3 S1 1_555 1_555
C4 C2 1_555 1_555
C5 C3 1_555 1_555
C6 C1 1_555 1_555
C7 C6 1_555 1_555
C8 C7 1_555 1_555
C9 C8 1_555 1_555
C10 C9 1_555 1_555
C11 C6 1_555 1_555
O1 C9 1_555 1_555
C12 O1 1_555 1_555
H1 C4 1_555 1_555
H2 C4 1_555 1_555
H3 C4 1_555 1_555
H4 C5 1_555 1_555
H5 C5 1_555 1_555
H6 C5 1_555 1_555
H7 C7 1_555 1_555
H8 C8 1_555 1_555
H9 C10 1_555 1_555
H10 C11 1_555 1_555
H11 C12 1_555 1_555
H12 C12 1_555 1_555
H13 C12 1_555 1_555
C10 C11 1_555 1_555

#END
