
#######################################################################
#
#                 Cambridge Crystallographic Data Centre
#                                CCDC 
#
#######################################################################
#
# If this CIF has been generated from an entry in the Cambridge 
# Structural Database, then it will include bibliographic, chemical, 
# crystal, experimental, refinement or atomic coordinate data resulting 
# from the CCDC's data processing and validation procedures.
#
#######################################################################

data_SOZVIO
_chemical_formula_moiety         'C19 H15 F3 N2 O1 S1'
_chemical_name_systematic        
N-Ethyl-N-(4-phenyl-1,3-thiazol-2-yl)-4-(trifluoromethyl)benzamide
_symmetry_cell_setting           monoclinic
_symmetry_space_group_name_H-M   'C 2/c'
_symmetry_Int_Tables_number      15
_space_group_name_Hall           '-C 2yn'
loop_
_symmetry_equiv_pos_site_id
_symmetry_equiv_pos_as_xyz
1 x,y,z
2 -x,y,1/2-z
3 1/2+x,1/2+y,z
4 1/2-x,1/2+y,1/2-z
5 -x,-y,-z
6 x,-y,1/2+z
7 1/2-x,1/2-y,-z
8 1/2+x,1/2-y,1/2+z
_cell_length_a                   23.049(5)
_cell_length_b                   7.2946(15)
_cell_length_c                   20.980(4)
_cell_angle_alpha                90
_cell_angle_beta                 99.77(3)
_cell_angle_gamma                90
_cell_volume                     3476.28
_cell_formula_units_Z            8
loop_
_atom_site_label
_atom_site_type_symbol
_atom_site_fract_x
_atom_site_fract_y
_atom_site_fract_z
S1 S 0.16931(3) -0.00384(11) 0.12541(3)
N1 N 0.26008(8) 0.2109(3) 0.15017(8)
F1 F 0.03128(7) 0.9070(2) -0.18462(7)
C1 C 0.20701(10) 0.1982(3) 0.11551(10)
F2 F 0.08767(7) 1.0723(2) -0.11760(8)
C2 C 0.27302(10) 0.0544(3) 0.18706(11)
C3 C 0.33150(10) 0.0435(4) 0.22885(11)
C4 C 0.35045(10) -0.1167(4) 0.26209(11)
H1 H 0.3252 -0.2204 0.2588
C5 C 0.23007(9) -0.0726(4) 0.18065(10)
H2 H 0.2327 -0.1856 0.2035
C6 C 0.06472(10) 0.7814(4) -0.08175(11)
C7 C 0.12812(11) 0.3253(4) 0.03778(11)
C8 C 0.10651(10) 0.4866(4) -0.00391(11)
C9 C 0.09765(10) 0.6468(4) -0.10476(12)
H3 H 0.1063 0.6557 -0.1474
C10 C 0.36884(10) 0.1938(4) 0.23504(11)
H4 H 0.3561 0.3043 0.2130
F3 F -0.00054(7) 1.0310(3) -0.10634(7)
C11 C 0.05141(11) 0.7670(4) -0.01993(12)
H5 H 0.0281 0.8582 -0.0041
C12 C 0.40671(10) -0.1263(4) 0.30049(11)
H6 H 0.4197 -0.2362 0.3228
C13 C 0.04580(12) 0.9456(4) -0.12200(13)
C14 C 0.44286(11) 0.0256(4) 0.30539(12)
H7 H 0.4808 0.0196 0.3314
C15 C 0.42493(11) 0.1862(4) 0.27316(12)
H8 H 0.4502 0.2899 0.2768
C16 C 0.07228(12) 0.6194(4) 0.01845(12)
H9 H 0.0630 0.6091 0.0607
C17 C 0.11823(9) 0.4991(4) -0.06636(11)
H10 H 0.1404 0.4059 -0.0828
O1 O 0.09880(7) 0.1856(3) 0.03863(8)
N2 N 0.18360(8) 0.3417(3) 0.07570(9)
C18 C 0.21964(9) 0.5112(4) 0.07820(10)
H11 H 0.2393 0.5320 0.1233
H12 H 0.1933 0.6168 0.0652
C19 C 0.26615(9) 0.5040(4) 0.03465(11)
H13 H 0.2913 0.3964 0.0457
H14 H 0.2903 0.6153 0.0408
H15 H 0.2468 0.4958 -0.0106
loop_
_geom_bond_atom_site_label_1
_geom_bond_atom_site_label_2
_geom_bond_site_symmetry_1
_geom_bond_site_symmetry_2
S1 C1 1_555 1_555
N1 C1 1_555 1_555
F1 C13 1_555 1_555
C1 N2 1_555 1_555
F2 C13 1_555 1_555
C2 N1 1_555 1_555
C3 C2 1_555 1_555
C4 C3 1_555 1_555
H1 C4 1_555 1_555
C5 S1 1_555 1_555
H2 C5 1_555 1_555
C6 C9 1_555 1_555
C7 C8 1_555 1_555
C8 C16 1_555 1_555
C9 H3 1_555 1_555
C10 C3 1_555 1_555
H4 C10 1_555 1_555
F3 C13 1_555 1_555
C11 C6 1_555 1_555
H5 C11 1_555 1_555
C12 C4 1_555 1_555
H6 C12 1_555 1_555
C13 C6 1_555 1_555
C14 C12 1_555 1_555
H7 C14 1_555 1_555
C15 C10 1_555 1_555
H8 C15 1_555 1_555
C16 C11 1_555 1_555
H9 C16 1_555 1_555
C17 C8 1_555 1_555
H10 C17 1_555 1_555
O1 C7 1_555 1_555
N2 C7 1_555 1_555
C18 N2 1_555 1_555
H11 C18 1_555 1_555
H12 C18 1_555 1_555
C19 C18 1_555 1_555
H13 C19 1_555 1_555
H14 C19 1_555 1_555
H15 C19 1_555 1_555
C2 C5 1_555 1_555
C9 C17 1_555 1_555
C14 C15 1_555 1_555

#END
