
#######################################################################
#
#                 Cambridge Crystallographic Data Centre
#                                CCDC 
#
#######################################################################
#
# If this CIF has been generated from an entry in the Cambridge 
# Structural Database, then it will include bibliographic, chemical, 
# crystal, experimental, refinement or atomic coordinate data resulting 
# from the CCDC's data processing and validation procedures.
#
#######################################################################

data_STACHY11
_chemical_name_common            'Stachyose pentahydrate'
_chemical_formula_moiety         'C24 H42 O21,5(H2 O1)'
_chemical_name_systematic        
'O-\a-D-Galactopyranosyl-(1-6)-O-\a-D-galactopyranosyl-(1-6)-\a-D-glucopyranosyl-\b-D-fructofuranoside pentahydrate'
_symmetry_cell_setting           orthorhombic
_symmetry_space_group_name_H-M   'P 21 21 2'
_symmetry_Int_Tables_number      18
_space_group_name_Hall           'P 2 2ab'
loop_
_symmetry_equiv_pos_site_id
_symmetry_equiv_pos_as_xyz
1 x,y,z
2 -x,-y,z
3 1/2+x,1/2-y,-z
4 1/2-x,1/2+y,-z
_cell_length_a                   23.8760(3)
_cell_length_b                   12.71028(12)
_cell_length_c                   10.81279(11)
_cell_angle_alpha                90
_cell_angle_beta                 90
_cell_angle_gamma                90
_cell_volume                     3281.36
_cell_formula_units_Z            4
loop_
_atom_site_label
_atom_site_type_symbol
_atom_site_fract_x
_atom_site_fract_y
_atom_site_fract_z
C1 C -0.62660(13) -1.2905(2) -0.4380(3)
H1 H -0.6351 -1.2986 -0.5281
C2 C -0.67885(13) -1.3158(3) -0.3634(3)
H2 H -0.6804 -1.3920 -0.3449
H3 H -0.6785 -1.2767 -0.2842
C3 C -0.82299(14) -1.3075(3) -0.4624(3)
H4 H -0.8591 -1.3182 -0.4172
C4 C -0.57884(13) -1.3628(2) -0.4040(3)
H5 H -0.5886 -1.4363 -0.4290
C5 C -0.61392(16) -1.0791(3) -0.6458(3)
H6 H -0.6018 -1.0059 -0.6298
H7 H -0.6490 -1.0919 -0.5993
C6 C -0.56468(13) -1.1466(2) -0.4758(3)
H8 H -0.5570 -1.0722 -0.4510
C7 C -0.77617(14) -1.2904(3) -0.3700(3)
H9 H -0.7748 -1.3517 -0.3120
C8 C -0.83482(14) -1.1103(3) -0.4693(3)
H10 H -0.8334 -1.0479 -0.5256
C9 C -0.82811(14) -1.2115(3) -0.5465(3)
H11 H -0.7927 -1.2054 -0.5955
C10 C -0.57892(16) -1.0711(3) -0.9768(3)
H12 H -0.5426 -1.0511 -1.0163
C11 C -0.5957(2) -1.1813(3) -1.0191(4)
H13 H -0.5652 -1.2322 -0.9978
C12 C -0.51410(12) -1.2145(3) -0.4419(3)
H14 H -0.5094 -1.2102 -0.3501
C13 C -0.52614(13) -1.3285(3) -0.4732(3)
H15 H -0.5328 -1.3349 -0.5642
C14 C -0.78681(13) -1.1033(3) -0.3768(3)
H16 H -0.7507 -1.0980 -0.4234
C15 C -0.60366(19) -0.9086(3) -1.0782(3)
C16 C -0.62426(15) -1.0942(3) -0.7826(3)
H17 H -0.6537 -1.0429 -0.8089
C17 C -0.79038(16) -1.0120(3) -0.2861(3)
H18 H -0.8234 -1.0213 -0.2318
H19 H -0.7565 -1.0110 -0.2333
C18 C -0.6397(2) -0.7805(3) -0.9440(3)
H20 H -0.6505 -0.8297 -0.8759
C19 C -0.5837(2) -0.9346(3) -1.2085(3)
H21 H -0.5471 -0.9197 -1.2383
C20 C -0.64427(18) -1.2038(3) -0.8167(4)
H22 H -0.6168 -1.2568 -0.7852
C21 C -0.6497(3) -1.2152(4) -0.9569(4)
H23 H -0.6803 -1.1673 -0.9855
C22 C -0.5776(2) -0.7682(3) -0.9467(4)
H24 H -0.5681 -0.7031 -0.9942
C23 C -0.5475(2) -0.7644(3) -0.8226(4)
H25 H -0.5066 -0.7619 -0.8370
H26 H -0.5584 -0.6992 -0.7786
C24 C -0.6527(3) -0.8312(4) -1.0694(4)
H27 H -0.6480 -0.7766 -1.1352
O1 O -0.56012(12) -0.8523(2) -0.7467(2)
H28 H -0.5569 -0.9078 -0.7882
O2 O -0.55792(14) -0.8592(2) -1.0157(2)
O3 O -0.66802(18) -0.6833(2) -0.9289(3)
H29 H -0.6918 -0.6888 -0.8720
O4 O -0.7055(2) -0.8744(4) -1.0804(4)
H30 H -0.7213 -0.8500 -1.1436
O5 O -0.62571(13) -0.9830(2) -1.2794(2)
H31 H -0.6274 -1.0472 -1.2614
O6 O -0.62113(11) -1.0005(2) -1.0149(2)
O7 O -0.57310(11) -1.06806(19) -0.8460(2)
O8 O -0.60148(18) -1.1757(2) -1.1492(3)
H32 H -0.5864 -1.2286 -1.1817
O9 O -0.6646(3) -1.3195(3) -0.9892(4)
H33 H -0.6376 -1.3600 -0.9738
O10 O -0.69705(13) -1.2205(3) -0.7583(3)
H34 H -0.7228 -1.1999 -0.8054
O11 O -0.57138(10) -1.15102(18) -0.6051(2)
O12 O -0.61298(9) -1.18223(17) -0.4130(2)
O13 O -0.46356(9) -1.1762(2) -0.4961(2)
H35 H -0.4680 -1.1698 -0.5728
O14 O -0.48053(10) -1.3954(2) -0.4388(3)
H36 H -0.4529 -1.3832 -0.4848
O15 O -0.56931(10) -1.35996(19) -0.2736(2)
H37 H -0.5782 -1.4181 -0.2424
O16 O -0.72608(9) -1.28546(19) -0.4359(2)
O17 O -0.78532(9) -1.19650(18) -0.3007(2)
O18 O -0.80931(10) -1.4007(2) -0.5293(3)
H38 H -0.8382 -1.4239 -0.5643
O19 O -0.87321(11) -1.2256(2) -0.6307(3)
H39 H -0.9031 -1.2338 -0.5911
O20 O -0.88759(10) -1.1122(2) -0.4082(2)
H40 H -0.8933 -1.0540 -0.3737
O21 O -0.79496(12) -0.9142(2) -0.3511(3)
H41 H -0.7656 -0.9037 -0.3921
O22 O -0.5554(3) -1.4694(4) -0.7361(4)
O23 O -0.5753(7) -1.4633(8) -0.9826(9)
O24 O -0.7638(3) -0.8989(7) -0.9041(8)
O25 O -0.7804(3) -1.0879(8) -0.8646(8)
O26 O -0.6086(4) -1.5545(5) -0.2117(6)
O27? O -0.5446(7) -1.5568(10) -0.1835(11)
loop_
_geom_bond_atom_site_label_1
_geom_bond_atom_site_label_2
_geom_bond_site_symmetry_1
_geom_bond_site_symmetry_2
C1 H1 1_555 1_555
C2 C1 1_555 1_555
H2 C2 1_555 1_555
H3 C2 1_555 1_555
C3 H4 1_555 1_555
C4 C1 1_555 1_555
H5 C4 1_555 1_555
C5 H6 1_555 1_555
H7 C5 1_555 1_555
C6 H8 1_555 1_555
C7 C3 1_555 1_555
H9 C7 1_555 1_555
C8 H10 1_555 1_555
C9 C3 1_555 1_555
H11 C9 1_555 1_555
C10 H12 1_555 1_555
C11 C10 1_555 1_555
H13 C11 1_555 1_555
C12 C6 1_555 1_555
H14 C12 1_555 1_555
C13 C4 1_555 1_555
H15 C13 1_555 1_555
C14 C8 1_555 1_555
H16 C14 1_555 1_555
C15 C19 1_555 1_555
C16 C5 1_555 1_555
H17 C16 1_555 1_555
C17 C14 1_555 1_555
H18 C17 1_555 1_555
H19 C17 1_555 1_555
C18 H20 1_555 1_555
C19 H21 1_555 1_555
C20 C16 1_555 1_555
H22 C20 1_555 1_555
C21 C11 1_555 1_555
H23 C21 1_555 1_555
C22 C18 1_555 1_555
H24 C22 1_555 1_555
C23 C22 1_555 1_555
H25 C23 1_555 1_555
H26 C23 1_555 1_555
C24 C15 1_555 1_555
H27 C24 1_555 1_555
O1 C23 1_555 1_555
H28 O1 1_555 1_555
O2 C15 1_555 1_555
O3 C18 1_555 1_555
H29 O3 1_555 1_555
O4 C24 1_555 1_555
H30 O4 1_555 1_555
O5 C19 1_555 1_555
H31 O5 1_555 1_555
O6 C10 1_555 1_555
O7 C10 1_555 1_555
O8 C11 1_555 1_555
H32 O8 1_555 1_555
O9 C21 1_555 1_555
H33 O9 1_555 1_555
O10 C20 1_555 1_555
H34 O10 1_555 1_555
O11 C5 1_555 1_555
O12 C1 1_555 1_555
O13 C12 1_555 1_555
H35 O13 1_555 1_555
O14 C13 1_555 1_555
H36 O14 1_555 1_555
O15 C4 1_555 1_555
H37 O15 1_555 1_555
O16 C2 1_555 1_555
O17 C7 1_555 1_555
O18 C3 1_555 1_555
H38 O18 1_555 1_555
O19 C9 1_555 1_555
H39 O19 1_555 1_555
O20 C8 1_555 1_555
H40 O20 1_555 1_555
O21 C17 1_555 1_555
H41 O21 1_555 1_555
C6 O11 1_555 1_555
C6 O12 1_555 1_555
C7 O16 1_555 1_555
C8 C9 1_555 1_555
C12 C13 1_555 1_555
C14 O17 1_555 1_555
C15 O6 1_555 1_555
C16 O7 1_555 1_555
C18 C24 1_555 1_555
C20 C21 1_555 1_555
C22 O2 1_555 1_555

#END
