
#######################################################################
#
#                 Cambridge Crystallographic Data Centre
#                                CCDC 
#
#######################################################################
#
# If this CIF has been generated from an entry in the Cambridge 
# Structural Database, then it will include bibliographic, chemical, 
# crystal, experimental, refinement or atomic coordinate data resulting 
# from the CCDC's data processing and validation procedures.
#
#######################################################################

data_SUBBIC
_chemical_formula_moiety         'C16 H11 F3 N2 O2'
_chemical_name_systematic        
'Methyl 3-amino-2-cyano-5-(trifluoromethyl)biphenyl-4-carboxylate'
_symmetry_cell_setting           monoclinic
_symmetry_space_group_name_H-M   'P 21'
_symmetry_Int_Tables_number      4
_space_group_name_Hall           'P 2yb'
loop_
_symmetry_equiv_pos_site_id
_symmetry_equiv_pos_as_xyz
1 x,y,z
2 -x,1/2+y,-z
_cell_length_a                   7.180(6)
_cell_length_b                   8.902(7)
_cell_length_c                   11.330(9)
_cell_angle_alpha                90
_cell_angle_beta                 90.548(8)
_cell_angle_gamma                90
_cell_volume                     724.139
_cell_formula_units_Z            2
loop_
_atom_site_label
_atom_site_type_symbol
_atom_site_fract_x
_atom_site_fract_y
_atom_site_fract_z
C1 C 0.4267(3) -0.0162(3) 0.20964(19)
C2 C 0.6129(3) 0.0013(3) 0.1823(2)
H1 H 0.6925 0.0506 0.2346
C3 C 0.6803(4) -0.0546(4) 0.0773(2)
H2 H 0.8055 -0.0424 0.0594
C4 C 0.5654(4) -0.1273(4) -0.0002(2)
H3 H 0.6120 -0.1630 -0.0712
C5 C 0.3800(4) -0.1480(4) 0.0267(2)
H4 H 0.3022 -0.2003 -0.0249
C6 C 0.3109(3) -0.0907(3) 0.1304(2)
H5 H 0.1853 -0.1021 0.1475
C7 C 0.3548(3) 0.0385(2) 0.32372(19)
C8 C 0.1925(3) 0.1252(3) 0.32977(19)
C9 C 0.1197(3) 0.1753(3) 0.4373(2)
C10 C 0.2115(3) 0.1323(3) 0.5428(2)
C11 C 0.3791(3) 0.0521(3) 0.5355(2)
C12 C 0.4492(3) 0.0069(3) 0.4285(2)
H6 H 0.5612 -0.0454 0.4264
C13 C 0.0991(3) 0.1724(3) 0.2240(2)
C14 C 0.4934(4) 0.0131(3) 0.6436(2)
C15 C 0.1213(4) 0.1744(3) 0.6561(2)
C16 C 0.0394(5) 0.0921(4) 0.8463(2)
H7 H 0.1065 0.1740 0.8818
H8 H 0.0509 0.0046 0.8954
H9 H -0.0896 0.1186 0.8381
F1 F 0.4395(3) -0.11478(19) 0.69407(14)
F2 F 0.4884(2) 0.1191(2) 0.72625(14)
F3 F 0.6731(2) -0.0062(3) 0.61703(15)
N1 N -0.0379(3) 0.2602(3) 0.4386(2)
H10 H -0.0931 0.2833 0.3733
H11 H -0.0823 0.2908 0.5046
N2 N 0.0207(3) 0.2162(3) 0.1428(2)
O1 O 0.1160(3) 0.06023(19) 0.73057(14)
O2 O 0.0553(3) 0.2962(2) 0.67521(16)
loop_
_geom_bond_atom_site_label_1
_geom_bond_atom_site_label_2
_geom_bond_site_symmetry_1
_geom_bond_site_symmetry_2
C1 C2 1_555 1_555
C2 H1 1_555 1_555
C3 C2 1_555 1_555
H2 C3 1_555 1_555
C4 C3 1_555 1_555
H3 C4 1_555 1_555
C5 C4 1_555 1_555
H4 C5 1_555 1_555
C6 C1 1_555 1_555
H5 C6 1_555 1_555
C7 C1 1_555 1_555
C8 C7 1_555 1_555
C9 C8 1_555 1_555
C10 C9 1_555 1_555
C11 C10 1_555 1_555
C12 C7 1_555 1_555
H6 C12 1_555 1_555
C13 C8 1_555 1_555
C14 C11 1_555 1_555
C15 C10 1_555 1_555
C16 H7 1_555 1_555
H8 C16 1_555 1_555
H9 C16 1_555 1_555
F1 C14 1_555 1_555
F2 C14 1_555 1_555
F3 C14 1_555 1_555
N1 C9 1_555 1_555
H10 N1 1_555 1_555
H11 N1 1_555 1_555
N2 C13 1_555 1_555
O1 C15 1_555 1_555
O2 C15 1_555 1_555
C5 C6 1_555 1_555
C11 C12 1_555 1_555
C16 O1 1_555 1_555

#END
