
#######################################################################
#
#                 Cambridge Crystallographic Data Centre
#                                CCDC 
#
#######################################################################
#
# If this CIF has been generated from an entry in the Cambridge 
# Structural Database, then it will include bibliographic, chemical, 
# crystal, experimental, refinement or atomic coordinate data resulting 
# from the CCDC's data processing and validation procedures.
#
#######################################################################

data_SUBCUP
_chemical_formula_moiety         'C22 H15 F6 N1 O3'
_chemical_name_systematic        
'Methyl 1-(trifluoromethyl)-3-(4-(trifluoromethyl)phenyl)-3H,4aH-[1,3]oxazino[3,2-a]quinoline-2-carboxylate'
_symmetry_cell_setting           orthorhombic
_symmetry_space_group_name_H-M   'P b c n'
_symmetry_Int_Tables_number      60
_space_group_name_Hall           '-P 2n 2ab'
loop_
_symmetry_equiv_pos_site_id
_symmetry_equiv_pos_as_xyz
1 x,y,z
2 1/2-x,1/2-y,1/2+z
3 -x,y,1/2-z
4 1/2+x,1/2-y,-z
5 -x,-y,-z
6 1/2+x,1/2+y,1/2-z
7 x,-y,1/2+z
8 1/2-x,1/2+y,z
_cell_length_a                   23.48(2)
_cell_length_b                   10.574(11)
_cell_length_c                   16.470(16)
_cell_angle_alpha                90
_cell_angle_beta                 90
_cell_angle_gamma                90
_cell_volume                     4089.13
_cell_formula_units_Z            8
loop_
_atom_site_label
_atom_site_type_symbol
_atom_site_fract_x
_atom_site_fract_y
_atom_site_fract_z
C1 C 0.20069(15) -0.1200(3) 0.3352(2)
C2 C 0.24677(16) -0.0546(3) 0.3039(2)
H1 H 0.2516 -0.0478 0.2480
C3 C 0.28583(18) 0.0007(4) 0.3563(3)
H2 H 0.3171 0.0437 0.3354
C4 C 0.2785(2) -0.0079(5) 0.4394(3)
H3 H 0.3053 0.0277 0.4742
C5 C 0.2318(2) -0.0691(4) 0.4707(3)
H4 H 0.2268 -0.0733 0.5266
C6 C 0.19186(17) -0.1246(4) 0.4196(2)
C7 C 0.13914(19) -0.1775(4) 0.4508(2)
H5 H 0.1351 -0.1910 0.5063
C8 C 0.09683(19) -0.2068(4) 0.4016(2)
H6 H 0.0631 -0.2382 0.4233
C9 C 0.10184(15) -0.1907(4) 0.3122(2)
H7 H 0.0838 -0.2631 0.2855
C10 C 0.06921(14) -0.0674(3) 0.2006(2)
H8 H 0.0334 -0.1060 0.1828
C11 C 0.11815(14) -0.1345(3) 0.1577(2)
C12 C 0.16333(14) -0.1770(3) 0.1987(2)
C13 C 0.21342(16) -0.2476(4) 0.1616(2)
C14 C 0.10562(17) -0.1562(4) 0.0693(2)
C15 C 0.1419(2) -0.1848(5) -0.0635(2)
H9 H 0.1777 -0.1814 -0.0916
H10 H 0.1161 -0.1245 -0.0870
H11 H 0.1261 -0.2682 -0.0684
C16 C 0.06743(14) 0.0715(3) 0.1800(2)
C17 C 0.02609(15) 0.1203(4) 0.1292(2)
H12 H -0.0004 0.0660 0.1058
C18 C 0.02331(17) 0.2481(4) 0.1126(2)
H13 H -0.0046 0.2792 0.0778
C19 C 0.06210(17) 0.3294(4) 0.1477(3)
C20 C 0.10432(18) 0.2820(4) 0.1970(3)
H14 H 0.1310 0.3364 0.2198
C21 C 0.10723(16) 0.1539(4) 0.2127(2)
H15 H 0.1362 0.1225 0.2456
C22 C 0.0585(3) 0.4663(5) 0.1294(4)
F1 F 0.24629(9) -0.1750(2) 0.11425(12)
F2 F 0.24804(10) -0.2954(2) 0.21843(13)
F3 F 0.19602(11) -0.3449(2) 0.11655(16)
F4 F 0.0835(2) 0.5380(3) 0.1831(3)
F5 F 0.0835(2) 0.4985(4) 0.0621(3)
F6 F 0.00826(18) 0.5105(3) 0.1238(4)
N1 N 0.16065(12) -0.1822(3) 0.28487(16)
O1 O 0.07253(10) -0.0773(2) 0.28803(14)
O2 O 0.05805(12) -0.1713(3) 0.04496(17)
O3 O 0.15067(11) -0.1550(3) 0.02206(15)
loop_
_geom_bond_atom_site_label_1
_geom_bond_atom_site_label_2
_geom_bond_site_symmetry_1
_geom_bond_site_symmetry_2
C1 C2 1_555 1_555
C2 H1 1_555 1_555
C3 C2 1_555 1_555
H2 C3 1_555 1_555
C4 C3 1_555 1_555
H3 C4 1_555 1_555
C5 C4 1_555 1_555
H4 C5 1_555 1_555
C6 C1 1_555 1_555
C7 C6 1_555 1_555
H5 C7 1_555 1_555
C8 C7 1_555 1_555
H6 C8 1_555 1_555
C9 C8 1_555 1_555
H7 C9 1_555 1_555
C10 H8 1_555 1_555
C11 C10 1_555 1_555
C12 C11 1_555 1_555
C13 C12 1_555 1_555
C14 C11 1_555 1_555
C15 H9 1_555 1_555
H10 C15 1_555 1_555
H11 C15 1_555 1_555
C16 C10 1_555 1_555
C17 C16 1_555 1_555
H12 C17 1_555 1_555
C18 C17 1_555 1_555
H13 C18 1_555 1_555
C19 C18 1_555 1_555
C20 C19 1_555 1_555
H14 C20 1_555 1_555
C21 C16 1_555 1_555
H15 C21 1_555 1_555
C22 C19 1_555 1_555
F1 C13 1_555 1_555
F2 C13 1_555 1_555
F3 C13 1_555 1_555
F4 C22 1_555 1_555
F5 C22 1_555 1_555
F6 C22 1_555 1_555
N1 C1 1_555 1_555
O1 C9 1_555 1_555
O2 C14 1_555 1_555
O3 C14 1_555 1_555
C5 C6 1_555 1_555
C9 N1 1_555 1_555
C10 O1 1_555 1_555
C12 N1 1_555 1_555
C15 O3 1_555 1_555
C20 C21 1_555 1_555

#END
