
#######################################################################
#
#                 Cambridge Crystallographic Data Centre
#                                CCDC 
#
#######################################################################
#
# If this CIF has been generated from an entry in the Cambridge 
# Structural Database, then it will include bibliographic, chemical, 
# crystal, experimental, refinement or atomic coordinate data resulting 
# from the CCDC's data processing and validation procedures.
#
#######################################################################

data_SUBKIL
_chemical_formula_moiety         'C52 H60 N2 O4'
_chemical_name_systematic        
'diethyl 2,5-bis(9-octyl-9H-carbazol-3-yl)terephthalate'
_symmetry_cell_setting           monoclinic
_symmetry_space_group_name_H-M   'P 21/c'
_symmetry_Int_Tables_number      14
_space_group_name_Hall           '-P 2ybc'
loop_
_symmetry_equiv_pos_site_id
_symmetry_equiv_pos_as_xyz
1 x,y,z
2 -x,1/2+y,1/2-z
3 -x,-y,-z
4 x,1/2-y,1/2+z
_cell_length_a                   21.598(3)
_cell_length_b                   10.1507(6)
_cell_length_c                   22.926(3)
_cell_angle_alpha                90
_cell_angle_beta                 115.388(18)
_cell_angle_gamma                90
_cell_volume                     4540.77
_exptl_crystal_colour            colorless
_exptl_crystal_description       block
_cell_formula_units_Z            4
loop_
_atom_site_label
_atom_site_type_symbol
_atom_site_fract_x
_atom_site_fract_y
_atom_site_fract_z
C1 C 0.22908(17) 0.8727(3) 0.20861(18)
C2 C 0.21172(16) 0.8656(3) 0.26110(17)
C3 C 0.32031(19) 0.5517(3) 0.21763(18)
C4 C 0.28471(16) 0.6585(3) 0.23498(17)
C5 C 0.23018(16) 0.7539(3) 0.29805(17)
H1 H 0.2177 0.7458 0.3320
C6 C 0.0507(4) 1.1478(6) 0.0831(4)
H2 H 0.0338 1.2217 0.0545
H3 H 0.0466 1.1657 0.1224
H4 H 0.0244 1.0708 0.0629
C7 C 0.08716(17) 1.0510(3) 0.30646(16)
C8 C 0.41067(17) 0.4728(3) 0.19169(17)
C9 C 0.26575(17) 0.7704(3) 0.19716(17)
H5 H 0.2778 0.7779 0.1629
C10 C 0.17589(18) 0.9731(3) 0.27803(17)
C11 C 0.1189(3) 1.1264(5) 0.0968(3)
H6 H 0.1458 1.2038 0.1171
H7 H 0.1236 1.1087 0.0574
C12 C 0.37851(17) 0.5755(3) 0.20836(16)
H8 H 0.3963 0.6603 0.2133
C13 C 0.4437(4) 0.3682(6) 0.4088(4)
H9 H 0.4596 0.2918 0.4358
H10 H 0.4707 0.4432 0.4307
H11 H 0.4479 0.3537 0.3693
C14 C 0.3531(11) -0.4909(19) -0.0199(12)
H12 H 0.343(8) -0.506(15) -0.065(6)
H13 H 0.401(9) -0.52(2) 0.003(11)
C15 C 0.02851(18) 1.0595(4) 0.32063(17)
C16 C 0.1356(8) 2.0279(10) 0.5212(6)
H14 H 0.0887 2.0427 0.4900
H15 H 0.1395 2.0567 0.5630
C17 C 0.26687(17) 0.6518(3) 0.28694(18)
C18 C 0.11948(17) 0.9478(3) 0.28992(17)
H16 H 0.1030 0.8622 0.2869
C19 C 0.2079(2) 0.9819(3) 0.1602(2)
C20 C 0.20001(19) 1.1047(3) 0.28308(18)
H17 H 0.2373 1.1218 0.2740
C21 C 0.11318(19) 1.1800(3) 0.31185(18)
C22 C 0.1511(6) 1.8793(8) 0.5244(5)
H18 H 0.1989 1.8667 0.5538
H19 H 0.1240 1.8358 0.5433
C23 C 0.2876(2) 0.5410(3) 0.3351(2)
C24 C 0.47163(19) 0.4642(4) 0.18064(18)
C25 C 0.38369(19) 0.3445(3) 0.18449(16)
C26 C 0.1704(2) 1.2077(3) 0.30084(19)
H20 H 0.1880 1.2926 0.3053
C27 C 0.29538(19) 0.4206(3) 0.21092(19)
H21 H 0.2573 0.4037 0.2187
C28 C 0.5202(2) 0.5560(4) 0.1822(2)
H22 H 0.5160 0.6445 0.1904
C29 C 0.3250(2) 0.3177(3) 0.19338(19)
H23 H 0.3067 0.2332 0.1876
C30 C 0.4789(2) 0.3325(4) 0.16769(18)
C31 C 0.0204(2) 1.1908(4) 0.33264(18)
C32 C -0.0182(2) 0.9666(4) 0.3221(2)
H24 H -0.0137 0.8780 0.3143
C33 C -0.0323(2) 1.2342(5) 0.3468(2)
H25 H -0.0366 1.3225 0.3554
C34 C 0.5332(3) 0.2877(5) 0.1558(2)
H26 H 0.5370 0.1997 0.1465
C35 C 0.4128(2) 0.1190(4) 0.1569(2)
H27 H 0.4566 0.0743 0.1776
H28 H 0.3846 0.0888 0.1777
C36 C 0.5812(2) 0.3804(5) 0.1585(2)
H29 H 0.6187 0.3535 0.1516
C37 C -0.0716(2) 1.0100(5) 0.3357(2)
H30 H -0.1034 0.9493 0.3367
C38 C 0.5753(2) 0.5119(5) 0.1711(2)
H31 H 0.6085 0.5716 0.1722
C39 C 0.0839(2) 1.4067(4) 0.3391(2)
H32 H 0.1114 1.4367 0.3175
H33 H 0.0396 1.4494 0.3181
C40 C 0.3804(3) 0.0779(5) 0.0902(3)
H34 H 0.4070 0.1083 0.0677
H35 H 0.3348 0.1154 0.0690
C41 C -0.0786(2) 1.1401(6) 0.3476(2)
H36 H -0.1150 1.1659 0.3564
C42 C 0.1165(3) 1.4521(4) 0.4059(2)
H37 H 0.1619 1.4135 0.4271
H38 H 0.0899 1.4223 0.4283
C43 C 0.3746(3) 0.3915(5) 0.3948(3)
H39 H 0.3698 0.4058 0.4345
H40 H 0.3469 0.3160 0.3728
C44 C 0.1226(3) 1.6025(4) 0.4103(3)
H41 H 0.1559 1.6290 0.3945
H42 H 0.0788 1.6393 0.3811
C45 C 0.3618(4) -0.2903(7) 0.0304(4)
H43 H 0.4018 -0.3196 0.0681
H44 H 0.3221 -0.3157 0.0373
C46 C 0.3762(4) -0.0770(6) 0.0883(4)
H45 H 0.4191 -0.1107 0.1209
H46 H 0.3404 -0.1028 0.1008
C47 C 0.3598(7) -0.3579(8) -0.0171(6)
H47 H 0.4015 -0.3381 -0.0216
H48 H 0.3222 -0.3233 -0.0554
C48 C 0.3638(3) -0.1393(5) 0.0309(3)
H49 H 0.3988 -0.1119 0.0177
H50 H 0.3202 -0.1078 -0.0015
C49 C 0.1424(3) 1.6627(5) 0.4736(3)
H51 H 0.1886 1.6351 0.5023
H52 H 0.1118 1.6322 0.4918
C50 C 0.1397(4) 1.8178(6) 0.4694(3)
H53 H 0.1734 1.8475 0.4549
H54 H 0.0949 1.8438 0.4370
C51 C 0.3265(18) -0.5808(17) -0.0101(11)
H55 H 0.3389 -0.6587 -0.0264
H56 H 0.2777 -0.5692 -0.0314
H57 H 0.3408 -0.5898 0.0355
C52 C 0.1754(9) 2.0976(13) 0.5057(6)
H58 H 0.1624 2.1886 0.5034
H59 H 0.1719 2.0696 0.4644
H60 H 0.2218 2.0871 0.5376
N1 N 0.07345(17) 1.2649(3) 0.32839(15)
N2 N 0.42471(17) 0.2599(3) 0.16933(15)
O1 O 0.35210(15) 0.5078(3) 0.35382(14)
O2 O 0.24954(16) 0.4921(3) 0.35404(16)
O3 O 0.14290(15) 1.0129(3) 0.14065(15)
O4 O 0.24573(16) 1.0320(3) 0.14093(16)
C53? C 0.3949(18) -0.5660(17) -0.0085(11)
H61? H 0.4251 -0.5109 -0.0186
H62? H 0.3767 -0.6340 -0.0405
H63? H 0.4197 -0.6053 0.0332
loop_
_geom_bond_atom_site_label_1
_geom_bond_atom_site_label_2
_geom_bond_site_symmetry_1
_geom_bond_site_symmetry_2
C1 C2 1_555 1_555
C2 C5 1_555 1_555
C3 C4 1_555 1_555
C4 C9 1_555 1_555
C5 H1 1_555 1_555
C6 H2 1_555 1_555
H3 C6 1_555 1_555
H4 C6 1_555 1_555
C7 C15 1_555 1_555
C8 C12 1_555 1_555
C9 C1 1_555 1_555
H5 C9 1_555 1_555
C10 C2 1_555 1_555
C11 C6 1_555 1_555
H6 C11 1_555 1_555
H7 C11 1_555 1_555
C12 C3 1_555 1_555
H8 C12 1_555 1_555
C13 H9 1_555 1_555
H10 C13 1_555 1_555
H11 C13 1_555 1_555
C14 H12 1_555 1_555
H13 C14 1_555 1_555
C15 C31 1_555 1_555
C16 H14 1_555 1_555
H15 C16 1_555 1_555
C17 C4 1_555 1_555
C18 C7 1_555 1_555
H16 C18 1_555 1_555
C19 C1 1_555 1_555
C20 C10 1_555 1_555
H17 C20 1_555 1_555
C21 C7 1_555 1_555
C22 C16 1_555 1_555
H18 C22 1_555 1_555
H19 C22 1_555 1_555
C23 C17 1_555 1_555
C24 C8 1_555 1_555
C25 C8 1_555 1_555
C26 C20 1_555 1_555
H20 C26 1_555 1_555
C27 C3 1_555 1_555
H21 C27 1_555 1_555
C28 C24 1_555 1_555
H22 C28 1_555 1_555
C29 C25 1_555 1_555
H23 C29 1_555 1_555
C30 C24 1_555 1_555
C31 C33 1_555 1_555
C32 C15 1_555 1_555
H24 C32 1_555 1_555
C33 H25 1_555 1_555
C34 C30 1_555 1_555
H26 C34 1_555 1_555
C35 H27 1_555 1_555
H28 C35 1_555 1_555
C36 C34 1_555 1_555
H29 C36 1_555 1_555
C37 C32 1_555 1_555
H30 C37 1_555 1_555
C38 C28 1_555 1_555
H31 C38 1_555 1_555
C39 H32 1_555 1_555
H33 C39 1_555 1_555
C40 C35 1_555 1_555
H34 C40 1_555 1_555
H35 C40 1_555 1_555
C41 C33 1_555 1_555
H36 C41 1_555 1_555
C42 C39 1_555 1_555
H37 C42 1_555 1_555
H38 C42 1_555 1_555
C43 C13 1_555 1_555
H39 C43 1_555 1_555
H40 C43 1_555 1_555
C44 C42 1_555 1_555
H41 C44 1_555 1_555
H42 C44 1_555 1_555
C45 H43 1_555 1_555
H44 C45 1_555 1_555
C46 C40 1_555 1_555
H45 C46 1_555 1_555
H46 C46 1_555 1_555
C47 C14 1_555 1_555
H47 C47 1_555 1_555
H48 C47 1_555 1_555
C48 C45 1_555 1_555
H49 C48 1_555 1_555
H50 C48 1_555 1_555
C49 C44 1_555 1_555
H51 C49 1_555 1_555
H52 C49 1_555 1_555
C50 C22 1_555 1_555
H53 C50 1_555 1_555
H54 C50 1_555 1_555
C51 C14 1_555 1_555
H55 C51 1_555 1_555
H56 C51 1_555 1_555
H57 C51 1_555 1_555
C52 C16 1_555 1_555
H58 C52 1_555 1_555
H59 C52 1_555 1_555
H60 C52 1_555 1_555
N1 C21 1_555 1_555
N2 C25 1_555 1_555
O1 C23 1_555 1_555
O2 C23 1_555 1_555
O3 C11 1_555 1_555
O4 C19 1_555 1_555
C5 C17 1_555 1_555
C10 C18 1_555 1_555
C19 O3 1_555 1_555
C21 C26 1_555 1_555
C27 C29 1_555 1_555
C30 N2 1_555 1_555
C31 N1 1_555 1_555
C35 N2 1_555 1_555
C36 C38 1_555 1_555
C37 C41 1_555 1_555
C39 N1 1_555 1_555
C43 O1 1_555 1_555
C45 C47 1_555 1_555
C46 C48 1_555 1_555
C49 C50 1_555 1_555

#END
