
#######################################################################
#
#                 Cambridge Crystallographic Data Centre
#                                CCDC 
#
#######################################################################
#
# If this CIF has been generated from an entry in the Cambridge 
# Structural Database, then it will include bibliographic, chemical, 
# crystal, experimental, refinement or atomic coordinate data resulting 
# from the CCDC's data processing and validation procedures.
#
#######################################################################

data_SUBKOR
_chemical_formula_moiety         'C40 H36 N2 O4'
_chemical_name_systematic        
'diethyl 2,5-bis(9-ethyl-9H-carbazol-3-yl)terephthalate'
_symmetry_cell_setting           orthorhombic
_symmetry_space_group_name_H-M   'P b c a'
_symmetry_Int_Tables_number      61
_space_group_name_Hall           '-P 2ac 2ab'
loop_
_symmetry_equiv_pos_site_id
_symmetry_equiv_pos_as_xyz
1 x,y,z
2 1/2-x,-y,1/2+z
3 1/2+x,1/2-y,-z
4 -x,1/2+y,1/2-z
5 -x,-y,-z
6 1/2+x,y,1/2-z
7 1/2-x,1/2+y,z
8 x,1/2-y,1/2+z
_cell_length_a                   18.0254(6)
_cell_length_b                   9.4485(3)
_cell_length_c                   18.8799(9)
_cell_angle_alpha                90
_cell_angle_beta                 90
_cell_angle_gamma                90
_cell_volume                     3215.49
_exptl_crystal_colour            colorless
_exptl_crystal_description       block
_cell_formula_units_Z            4
_exptl_crystal_preparation       Luminescent
loop_
_atom_site_label
_atom_site_type_symbol
_atom_site_fract_x
_atom_site_fract_y
_atom_site_fract_z
O1 O 0.15381(6) 0.25573(13) 0.46031(7)
O2 O 0.19726(6) 0.45501(12) 0.50864(7)
C1 C 0.01211(8) 0.36575(15) 0.53206(8)
C2 C 0.05700(8) 0.56811(16) 0.46628(8)
H1 H 0.0963 0.6137 0.4439
N1 N 0.04960(8) -0.12269(13) 0.69816(8)
C3 C 0.14370(8) 0.36953(16) 0.48620(8)
C4 C 0.06923(7) 0.43664(15) 0.49686(8)
C5 C 0.08241(8) 0.21412(14) 0.61712(8)
H2 H 0.1180 0.2850 0.6213
C6 C 0.02305(8) 0.23104(15) 0.57126(8)
C7 C 0.08867(8) 0.09084(14) 0.65692(8)
C8 C 0.03408(9) -0.01574(15) 0.65033(8)
C9 C 0.13874(9) 0.04517(15) 0.71193(8)
C10 C -0.02948(8) 0.12193(16) 0.56518(9)
H3 H -0.0689 0.1334 0.5340
C11 C 0.11192(9) -0.08680(16) 0.73616(8)
C12 C -0.02466(9) -0.00144(16) 0.60383(10)
H4 H -0.0598 -0.0728 0.5988
C13 C 0.14619(11) -0.15844(18) 0.79126(9)
H5 H 0.1276 -0.2443 0.8076
C14 C 0.20168(10) 0.10218(18) 0.74287(10)
H6 H 0.2205 0.1885 0.7275
C15 C 0.00772(11) -0.25318(18) 0.70726(11)
H7 H -0.0416 -0.2404 0.6877
H8 H 0.0025 -0.2724 0.7575
C16 C 0.23595(12) 0.0289(2) 0.79691(11)
H9 H 0.2785 0.0661 0.8176
C17 C 0.27304(8) 0.4032(2) 0.50394(12)
H10 H 0.3069 0.4826 0.5005
H11 H 0.2786 0.3460 0.4616
C18 C 0.20802(12) -0.09945(19) 0.82091(10)
H12 H 0.2319 -0.1461 0.8578
C19 C 0.29167(11) 0.3169(2) 0.56739(12)
H13 H 0.2610 0.2339 0.5684
H14 H 0.2832 0.3718 0.6094
H15 H 0.3429 0.2893 0.5653
C20 C 0.04340(15) -0.3780(2) 0.67237(13)
H16 H 0.0472 -0.3611 0.6224
H17 H 0.0138 -0.4609 0.6806
H18 H 0.0921 -0.3920 0.6918
O1D O -0.15381(6) 0.74427(13) 0.53969(7)
O2D O -0.19726(6) 0.54499(12) 0.49136(7)
C1D C -0.01211(8) 0.63425(15) 0.46794(8)
C2D C -0.05700(8) 0.43189(16) 0.53372(8)
H1D H -0.0963 0.3863 0.5561
N1D N -0.04960(8) 1.12269(13) 0.30184(8)
C3D C -0.14370(8) 0.63047(16) 0.51380(8)
C4D C -0.06923(7) 0.56336(15) 0.50314(8)
C5D C -0.08241(8) 0.78588(14) 0.38288(8)
H2D H -0.1180 0.7150 0.3787
C6D C -0.02305(8) 0.76896(15) 0.42874(8)
C7D C -0.08867(8) 0.90916(14) 0.34308(8)
C8D C -0.03408(9) 1.01574(15) 0.34967(8)
C9D C -0.13874(9) 0.95483(15) 0.28807(8)
C10D C 0.02948(8) 0.87807(16) 0.43482(9)
H3D H 0.0689 0.8666 0.4660
C11D C -0.11192(9) 1.08680(16) 0.26384(8)
C12D C 0.02466(9) 1.00144(16) 0.39617(10)
H4D H 0.0598 1.0728 0.4012
C13D C -0.14619(11) 1.15844(18) 0.20874(9)
H5D H -0.1276 1.2443 0.1924
C14D C -0.20168(10) 0.89782(18) 0.25713(10)
H6D H -0.2205 0.8115 0.2725
C15D C -0.00772(11) 1.25318(18) 0.29274(11)
H7D H 0.0416 1.2404 0.3123
H8D H -0.0025 1.2724 0.2425
C16D C -0.23595(12) 0.9711(2) 0.20309(11)
H9D H -0.2785 0.9339 0.1824
C17D C -0.27304(8) 0.5968(2) 0.49606(12)
H10D H -0.3069 0.5174 0.4995
H11D H -0.2786 0.6540 0.5384
C18D C -0.20802(12) 1.09945(19) 0.17909(10)
H12D H -0.2319 1.1461 0.1422
C19D C -0.29167(11) 0.6831(2) 0.43261(12)
H13D H -0.2610 0.7661 0.4316
H14D H -0.2832 0.6282 0.3906
H15D H -0.3429 0.7107 0.4347
C20D C -0.04340(15) 1.3780(2) 0.32763(13)
H16D H -0.0472 1.3611 0.3776
H17D H -0.0138 1.4609 0.3194
H18D H -0.0921 1.3920 0.3082
loop_
_geom_bond_atom_site_label_1
_geom_bond_atom_site_label_2
_geom_bond_site_symmetry_1
_geom_bond_site_symmetry_2
O1 C3 1_555 1_555
O2 C3 1_555 1_555
C1 C4 1_555 1_555
C2 H1 1_555 1_555
N1 C8 1_555 1_555
C3 C4 1_555 1_555
C4 C2 1_555 1_555
C5 H2 1_555 1_555
C6 C1 1_555 1_555
C7 C5 1_555 1_555
C8 C7 1_555 1_555
C9 C7 1_555 1_555
C10 C6 1_555 1_555
H3 C10 1_555 1_555
C11 N1 1_555 1_555
C12 C8 1_555 1_555
H4 C12 1_555 1_555
C13 C11 1_555 1_555
H5 C13 1_555 1_555
C14 C9 1_555 1_555
H6 C14 1_555 1_555
C15 N1 1_555 1_555
H7 C15 1_555 1_555
H8 C15 1_555 1_555
C16 C14 1_555 1_555
H9 C16 1_555 1_555
C17 O2 1_555 1_555
H10 C17 1_555 1_555
H11 C17 1_555 1_555
C18 C13 1_555 1_555
H12 C18 1_555 1_555
C19 C17 1_555 1_555
H13 C19 1_555 1_555
H14 C19 1_555 1_555
H15 C19 1_555 1_555
C20 C15 1_555 1_555
H16 C20 1_555 1_555
H17 C20 1_555 1_555
H18 C20 1_555 1_555
O1D C3D 1_555 1_555
O2D C3D 1_555 1_555
C1D C2 1_555 1_555
C2D C1 1_555 1_555
H1D C2D 1_555 1_555
N1D C8D 1_555 1_555
C3D C4D 1_555 1_555
C4D C1D 1_555 1_555
C5D H2D 1_555 1_555
C6D C1D 1_555 1_555
C7D C5D 1_555 1_555
C8D C7D 1_555 1_555
C9D C7D 1_555 1_555
C10D C6D 1_555 1_555
H3D C10D 1_555 1_555
C11D N1D 1_555 1_555
C12D C8D 1_555 1_555
H4D C12D 1_555 1_555
C13D C11D 1_555 1_555
H5D C13D 1_555 1_555
C14D C9D 1_555 1_555
H6D C14D 1_555 1_555
C15D N1D 1_555 1_555
H7D C15D 1_555 1_555
H8D C15D 1_555 1_555
C16D C14D 1_555 1_555
H9D C16D 1_555 1_555
C17D O2D 1_555 1_555
H10D C17D 1_555 1_555
H11D C17D 1_555 1_555
C18D C13D 1_555 1_555
H12D C18D 1_555 1_555
C19D C17D 1_555 1_555
H13D C19D 1_555 1_555
H14D C19D 1_555 1_555
H15D C19D 1_555 1_555
C20D C15D 1_555 1_555
H16D C20D 1_555 1_555
H17D C20D 1_555 1_555
H18D C20D 1_555 1_555
C5 C6 1_555 1_555
C9 C11 1_555 1_555
C10 C12 1_555 1_555
C16 C18 1_555 1_555
C2D C4D 1_555 1_555
C5D C6D 1_555 1_555
C9D C11D 1_555 1_555
C10D C12D 1_555 1_555
C16D C18D 1_555 1_555

#END
