
#######################################################################
#
#                 Cambridge Crystallographic Data Centre
#                                CCDC 
#
#######################################################################
#
# If this CIF has been generated from an entry in the Cambridge 
# Structural Database, then it will include bibliographic, chemical, 
# crystal, experimental, refinement or atomic coordinate data resulting 
# from the CCDC's data processing and validation procedures.
#
#######################################################################

data_SUCHAZ
_chemical_formula_moiety         'C15 H15 N1 O4'
_chemical_name_systematic        
2-(Dimethylaminocarbonyl)-5-oxatricyclo(7.4.0.0^3,7^)trideca-1(9),10,12-trien-4,6-dione
_symmetry_cell_setting           triclinic
_symmetry_space_group_name_H-M   'P -1'
_symmetry_Int_Tables_number      2
_space_group_name_Hall           '-P 1'
loop_
_symmetry_equiv_pos_site_id
_symmetry_equiv_pos_as_xyz
1 x,y,z
2 -x,-y,-z
_cell_length_a                   7.7299(9)
_cell_length_b                   9.136(4)
_cell_length_c                   10.202(2)
_cell_angle_alpha                78.91(3)
_cell_angle_beta                 78.65(1)
_cell_angle_gamma                73.01(1)
_cell_volume                     668.527
_chemical_melting_point          133-135deg.C
_cell_formula_units_Z            2
loop_
_atom_site_label
_atom_site_type_symbol
_atom_site_fract_x
_atom_site_fract_y
_atom_site_fract_z
O1 O 0.9508(4) 0.3458(3) 1.0903(3)
O2 O 1.1987(4) 0.1484(4) 1.0514(3)
O3 O 0.6787(5) 0.5182(4) 1.0891(3)
O4 O 1.1678(4) -0.0619(3) 0.8046(3)
N1 N 1.4072(5) 0.0399(4) 0.7253(4)
C1 C 1.0544(6) 0.2232(5) 1.0210(4)
C2 C 0.9615(5) 0.2129(4) 0.9081(4)
C3 C 1.0952(5) 0.2142(4) 0.7739(4)
C4 C 0.9887(5) 0.2628(4) 0.6545(4)
C5 C 1.0328(6) 0.1859(5) 0.5424(4)
C6 C 0.9351(7) 0.2422(5) 0.4338(4)
C7 C 0.7925(6) 0.3748(5) 0.4388(4)
C8 C 0.7450(6) 0.4497(5) 0.5516(4)
C9 C 0.8410(5) 0.3959(4) 0.6599(4)
C10 C 0.7941(6) 0.4733(5) 0.7851(4)
C11 C 0.7902(5) 0.3496(5) 0.9124(4)
C12 C 0.7905(6) 0.4172(5) 1.0367(4)
C13 C 1.2286(5) 0.0528(5) 0.7705(4)
C14 C 1.5276(7) -0.1169(6) 0.7202(6)
C15 C 1.4931(7) 0.1674(6) 0.6960(7)
H1 H 0.9271 0.1137 0.9292
H2 H 1.1616 0.3020 0.7723
H3 H 1.1294 0.0781 0.5419
H4 H 0.9616 0.1846 0.3644
H5 H 0.7238 0.4155 0.3627
H6 H 0.6427 0.5412 0.5556
H7 H 0.8992 0.5289 0.7878
H8 H 0.6891 0.5513 0.7849
H9 H 0.6791 0.3095 0.9270
H10 H 1.5883 0.1443 0.7663
H11 H 1.5688 0.1621 0.5926
H12 H 1.5990 -0.1221 0.6188
H13 H 1.4585 -0.2132 0.7439
H14 H 1.6185 -0.1399 0.7924
H15 H 1.4068 0.2837 0.6980
loop_
_geom_bond_atom_site_label_1
_geom_bond_atom_site_label_2
_geom_bond_site_symmetry_1
_geom_bond_site_symmetry_2
O1 C1 1_555 1_555
O2 C1 1_555 1_555
O3 C12 1_555 1_555
O4 C13 1_555 1_555
N1 C13 1_555 1_555
C1 C2 1_555 1_555
C2 C3 1_555 1_555
C3 C4 1_555 1_555
C4 C5 1_555 1_555
C5 C6 1_555 1_555
C6 C7 1_555 1_555
C7 C8 1_555 1_555
C8 C9 1_555 1_555
C9 C4 1_555 1_555
C10 C9 1_555 1_555
C11 C2 1_555 1_555
C12 O1 1_555 1_555
C13 C3 1_555 1_555
C14 N1 1_555 1_555
C15 N1 1_555 1_555
H1 C2 1_555 1_555
H2 C3 1_555 1_555
H3 C5 1_555 1_555
H4 C6 1_555 1_555
H5 C7 1_555 1_555
H6 C8 1_555 1_555
H7 C10 1_555 1_555
H8 C10 1_555 1_555
H9 C11 1_555 1_555
H10 C15 1_555 1_555
H11 C15 1_555 1_555
H12 C14 1_555 1_555
H13 C14 1_555 1_555
H14 C14 1_555 1_555
H15 C15 1_555 1_555
C10 C11 1_555 1_555
C11 C12 1_555 1_555

#END
