
#######################################################################
#
#                 Cambridge Crystallographic Data Centre
#                                CCDC 
#
#######################################################################
#
# If this CIF has been generated from an entry in the Cambridge 
# Structural Database, then it will include bibliographic, chemical, 
# crystal, experimental, refinement or atomic coordinate data resulting 
# from the CCDC's data processing and validation procedures.
#
#######################################################################

data_SUFLAG07
_chemical_formula_moiety         'C22 H12 O2 S1'
_chemical_name_systematic        2-(Thioxanthen-9-ylidene)indane-1,3-dione
_symmetry_cell_setting           monoclinic
_symmetry_space_group_name_H-M   'P 21/n'
_symmetry_Int_Tables_number      14
_space_group_name_Hall           '-P 2yn'
loop_
_symmetry_equiv_pos_site_id
_symmetry_equiv_pos_as_xyz
1 x,y,z
2 1/2-x,1/2+y,1/2-z
3 -x,-y,-z
4 1/2+x,1/2-y,1/2+z
_cell_length_a                   9.656(3)
_cell_length_b                   8.247(2)
_cell_length_c                   21.156(6)
_cell_angle_alpha                90
_cell_angle_beta                 94.60(2)
_cell_angle_gamma                90
_cell_volume                     1679.29
_exptl_crystal_colour            red
_exptl_crystal_description       prism
_cell_formula_units_Z            4
loop_
_atom_site_label
_atom_site_type_symbol
_atom_site_fract_x
_atom_site_fract_y
_atom_site_fract_z
S1 S 0.7543(2) 0.7211(2) 0.23170(9)
O1 O 1.1830(4) 0.7140(5) 0.1249(2)
O2 O 0.8041(5) 0.8490(6) -0.02013(19)
C1 C 0.7488(7) 0.9029(7) 0.1233(3)
C2 C 0.8993(6) 0.8699(5) 0.1242(3)
C3 C 0.9666(5) 0.8217(6) 0.0731(2)
C4 C 0.9149(7) 0.8195(7) 0.2387(3)
C5 C 1.1063(7) 0.7406(7) 0.0777(3)
C6 C 1.0196(7) 0.7137(6) -0.0273(3)
C7 C 0.6794(8) 1.0035(8) 0.0786(3)
H1 H 0.7288 1.0545 0.0483
C8 C 0.9735(7) 0.8855(6) 0.1875(3)
C9 C 1.0943(8) 0.9746(8) 0.1961(3)
H2 H 1.1297 1.0260 0.1617
C10 C 0.6737(8) 0.8356(7) 0.1690(3)
C11 C 1.1313(7) 0.6795(7) 0.0141(3)
C12 C 1.0158(7) 0.6688(7) -0.0908(3)
H3 H 0.9400 0.6935 -0.1191
C13 C 0.9138(7) 0.8024(7) 0.0054(3)
C14 C 1.2452(7) 0.5939(7) -0.0053(3)
H4 H 1.3211 0.5683 0.0227
C15 C 0.5281(10) 0.8517(11) 0.1675(5)
H5 H 0.4771 0.7976 0.1964
C16 C 0.5383(10) 1.0288(10) 0.0787(4)
H6 H 0.4930 1.0991 0.0496
C17 C 1.1295(11) 0.5860(8) -0.1100(4)
H7 H 1.1309 0.5551 -0.1522
C18 C 1.1081(11) 0.9161(13) 0.3056(5)
H8 H 1.1554 0.9246 0.3455
C19 C 1.2392(9) 0.5491(9) -0.0682(4)
H9 H 1.3132 0.4914 -0.0827
C20 C 1.1618(8) 0.9875(10) 0.2549(5)
H10 H 1.2447 1.0451 0.2604
C21 C 0.9858(11) 0.8324(10) 0.2987(4)
H11 H 0.9500 0.7843 0.3336
C22 C 0.4658(10) 0.9492(13) 0.1224(5)
H12 H 0.3699 0.9628 0.1209
loop_
_geom_bond_atom_site_label_1
_geom_bond_atom_site_label_2
_geom_bond_site_symmetry_1
_geom_bond_site_symmetry_2
S1 C4 1_555 1_555
O1 C5 1_555 1_555
O2 C13 1_555 1_555
C1 C2 1_555 1_555
C2 C3 1_555 1_555
C3 C5 1_555 1_555
C4 C8 1_555 1_555
C5 C11 1_555 1_555
C6 C11 1_555 1_555
C7 C1 1_555 1_555
H1 C7 1_555 1_555
C8 C2 1_555 1_555
C9 C8 1_555 1_555
H2 C9 1_555 1_555
C10 S1 1_555 1_555
C11 C14 1_555 1_555
C12 C6 1_555 1_555
H3 C12 1_555 1_555
C13 C3 1_555 1_555
C14 H4 1_555 1_555
C15 C10 1_555 1_555
H5 C15 1_555 1_555
C16 C7 1_555 1_555
H6 C16 1_555 1_555
C17 C12 1_555 1_555
H7 C17 1_555 1_555
C18 H8 1_555 1_555
C19 C14 1_555 1_555
H9 C19 1_555 1_555
C20 C9 1_555 1_555
H10 C20 1_555 1_555
C21 C4 1_555 1_555
H11 C21 1_555 1_555
C22 C15 1_555 1_555
H12 C22 1_555 1_555
C1 C10 1_555 1_555
C6 C13 1_555 1_555
C16 C22 1_555 1_555
C17 C19 1_555 1_555
C18 C20 1_555 1_555
C18 C21 1_555 1_555

#END
