
#######################################################################
#
#                 Cambridge Crystallographic Data Centre
#                                CCDC 
#
#######################################################################
#
# If this CIF has been generated from an entry in the Cambridge 
# Structural Database, then it will include bibliographic, chemical, 
# crystal, experimental, refinement or atomic coordinate data resulting 
# from the CCDC's data processing and validation procedures.
#
#######################################################################

data_SUGNUF
_chemical_formula_moiety         'C23 H16 N2'
_chemical_name_systematic        
4-(2-(1H-indol-2-yl)-2-phenylvinyl)benzonitrile
_symmetry_cell_setting           monoclinic
_symmetry_space_group_name_H-M   'P 21/c'
_symmetry_Int_Tables_number      14
_space_group_name_Hall           '-P 2ybc'
loop_
_symmetry_equiv_pos_site_id
_symmetry_equiv_pos_as_xyz
1 x,y,z
2 -x,1/2+y,1/2-z
3 -x,-y,-z
4 x,1/2-y,1/2+z
_cell_length_a                   14.9264(6)
_cell_length_b                   8.5389(3)
_cell_length_c                   13.3223(6)
_cell_angle_alpha                90
_cell_angle_beta                 96.518(4)
_cell_angle_gamma                90
_cell_volume                     1687.02
_exptl_crystal_colour            'light green'
_exptl_crystal_description       plane
_cell_formula_units_Z            4
loop_
_atom_site_label
_atom_site_type_symbol
_atom_site_fract_x
_atom_site_fract_y
_atom_site_fract_z
N1 N 0.26349(10) 0.14627(16) 0.91155(11)
H1 H 0.3203 0.1566 0.9077
N2 N 0.56629(12) 0.6996(2) 1.13674(13)
C1 C 0.11358(12) 0.1769(2) 0.88275(14)
C2 C 0.03365(13) 0.2447(2) 0.83636(15)
H2 H -0.0222 0.2123 0.8532
C3 C 0.03996(14) 0.3601(2) 0.76543(15)
H3 H -0.0124 0.4058 0.7341
C4 C 0.12373(14) 0.4101(2) 0.73949(15)
H4 H 0.1257 0.4881 0.6910
C5 C 0.20309(13) 0.3466(2) 0.78403(14)
H5 H 0.2586 0.3803 0.7670
C6 C 0.19683(12) 0.22940(19) 0.85600(13)
C7 C 0.13320(13) 0.0580(2) 0.95707(14)
H6 H 0.0912 0.0006 0.9881
C8 C 0.22555(12) 0.04335(19) 0.97467(13)
C9 C 0.27906(12) -0.0577(2) 1.04733(13)
C10 C 0.23717(12) -0.21103(19) 1.06900(14)
C11 C 0.24024(13) -0.2641(2) 1.16834(15)
H7 H 0.2700 -0.2047 1.2204
C12 C 0.19958(14) -0.4041(2) 1.19068(16)
H8 H 0.2023 -0.4380 1.2573
C13 C 0.15524(14) -0.4926(2) 1.11422(17)
H9 H 0.1279 -0.5864 1.1292
C14 C 0.15124(15) -0.4423(2) 1.01496(17)
H10 H 0.1217 -0.5025 0.9633
C15 C 0.19145(14) -0.3019(2) 0.99279(15)
H11 H 0.1878 -0.2680 0.9261
C16 C 0.36125(13) -0.0197(2) 1.09497(14)
H12 H 0.3935 -0.1013 1.1282
C17 C 0.40605(12) 0.1342(2) 1.10088(13)
C18 C 0.49995(13) 0.1442(2) 1.10947(15)
H13 H 0.5339 0.0530 1.1087
C19 C 0.54346(13) 0.2876(2) 1.11919(15)
H14 H 0.6060 0.2925 1.1234
C20 C 0.49296(13) 0.4246(2) 1.12269(13)
C21 C 0.39912(13) 0.4163(2) 1.11633(14)
H15 H 0.3653 0.5073 1.1193
C22 C 0.35666(12) 0.2730(2) 1.10555(14)
H16 H 0.2941 0.2683 1.1013
C23 C 0.53500(13) 0.5761(2) 1.13113(14)
loop_
_geom_bond_atom_site_label_1
_geom_bond_atom_site_label_2
_geom_bond_site_symmetry_1
_geom_bond_site_symmetry_2
N1 H1 1_555 1_555
N2 C23 1_555 1_555
C1 C2 1_555 1_555
C2 H2 1_555 1_555
C3 C2 1_555 1_555
H3 C3 1_555 1_555
C4 C3 1_555 1_555
H4 C4 1_555 1_555
C5 C4 1_555 1_555
H5 C5 1_555 1_555
C6 N1 1_555 1_555
C7 C1 1_555 1_555
H6 C7 1_555 1_555
C8 N1 1_555 1_555
C9 C8 1_555 1_555
C10 C9 1_555 1_555
C11 C10 1_555 1_555
H7 C11 1_555 1_555
C12 C11 1_555 1_555
H8 C12 1_555 1_555
C13 C12 1_555 1_555
H9 C13 1_555 1_555
C14 C13 1_555 1_555
H10 C14 1_555 1_555
C15 C10 1_555 1_555
H11 C15 1_555 1_555
C16 C9 1_555 1_555
H12 C16 1_555 1_555
C17 C16 1_555 1_555
C18 C17 1_555 1_555
H13 C18 1_555 1_555
C19 C18 1_555 1_555
H14 C19 1_555 1_555
C20 C19 1_555 1_555
C21 C20 1_555 1_555
H15 C21 1_555 1_555
C22 C17 1_555 1_555
H16 C22 1_555 1_555
C23 C20 1_555 1_555
C1 C6 1_555 1_555
C5 C6 1_555 1_555
C7 C8 1_555 1_555
C14 C15 1_555 1_555
C21 C22 1_555 1_555

#END
