
#######################################################################
#
#                 Cambridge Crystallographic Data Centre
#                                CCDC 
#
#######################################################################
#
# If this CIF has been generated from an entry in the Cambridge 
# Structural Database, then it will include bibliographic, chemical, 
# crystal, experimental, refinement or atomic coordinate data resulting 
# from the CCDC's data processing and validation procedures.
#
#######################################################################

data_SUGQAM
_chemical_formula_moiety         'C30 H34 N4 O2'
_chemical_name_systematic        
4,4'-Diethyl-3,3'-dimethyl-2,2'-bipyrrole-5,5'-bis(benzylamide)
_symmetry_cell_setting           orthorhombic
_symmetry_space_group_name_H-M   'P b c a'
_symmetry_Int_Tables_number      61
_space_group_name_Hall           '-P 2ac 2ab'
loop_
_symmetry_equiv_pos_site_id
_symmetry_equiv_pos_as_xyz
1 x,y,z
2 1/2+x,y,1/2-z
3 x,1/2-y,1/2+z
4 1/2-x,1/2+y,z
5 -x,-y,-z
6 1/2-x,-y,1/2+z
7 -x,1/2+y,1/2-z
8 1/2+x,1/2-y,-z
_cell_length_a                   18.858(2)
_cell_length_b                   14.5820(10)
_cell_length_c                   19.2400(10)
_cell_angle_alpha                90
_cell_angle_beta                 90
_cell_angle_gamma                90
_cell_volume                     5290.76
_cell_formula_units_Z            8
loop_
_atom_site_label
_atom_site_type_symbol
_atom_site_fract_x
_atom_site_fract_y
_atom_site_fract_z
N1 N 0.2177(2) 0.2174(2) 0.4832(2)
H1 H 0.1730(20) 0.2340(25) 0.4917(19)
N2 N 0.1646(2) 0.3824(2) 0.4256(2)
H2 H 0.1332(20) 0.3614(27) 0.4529(20)
N3 N 0.07752(15) 0.5991(2) 0.4206(2)
H3 H 0.1132(19) 0.6367(26) 0.4310(19)
N4 N 0.0249(2) 0.7780(2) 0.4569(2)
H4 H 0.0694(20) 0.7707(26) 0.4472(19)
O1 O 0.32532(12) 0.2493(2) 0.44023(14)
O2 O -0.08117(12) 0.7144(2) 0.47767(14)
C1 C 0.2111(2) 0.1375(3) 0.5940(2)
C2 C 0.2290(3) 0.2056(4) 0.6392(3)
H5 H 0.2625(3) 0.2509(4) 0.6240(3)
C3 C 0.2005(5) 0.2103(6) 0.7047(4)
H6 H 0.2139(5) 0.2597(6) 0.7349(4)
C4 C 0.1556(6) 0.1477(7) 0.7247(4)
H7 H 0.1376(6) 0.1525(7) 0.7713(4)
C5 C 0.1351(4) 0.0779(5) 0.6838(5)
H8 H 0.1016(4) 0.0339(5) 0.7011(5)
C6 C 0.1639(3) 0.0733(4) 0.6159(3)
H9 H 0.1498(3) 0.0248(4) 0.5851(3)
C7 C 0.2408(3) 0.1362(3) 0.5220(2)
H10 H 0.2916(3) 0.1350(3) 0.5234(2)
H11 H 0.2243(3) 0.0821(3) 0.4986(2)
C8 C 0.2620(2) 0.2712(2) 0.4476(2)
C9 C 0.2340(2) 0.3554(2) 0.4169(2)
C10 C 0.2679(2) 0.4228(2) 0.3782(2)
C11 C 0.2177(2) 0.4920(2) 0.3642(2)
C12 C 0.1543(2) 0.4662(2) 0.3947(2)
C13 C 0.0847(2) 0.5101(2) 0.3998(2)
C14 C 0.0178(2) 0.4728(2) 0.3924(2)
C15 C -0.0316(2) 0.5406(2) 0.4114(2)
C16 C 0.0061(2) 0.6186(2) 0.4289(2)
C17 C -0.0194(2) 0.7063(3) 0.4557(2)
C18 C 0.0051(2) 0.8636(3) 0.4911(2)
H12 H -0.0434(2) 0.8769(3) 0.4798(2)
H13 H 0.0341(2) 0.9126(3) 0.4736(2)
C19 C 0.0136(2) 0.8595(3) 0.5693(2)
C20 C -0.0434(3) 0.8697(3) 0.6133(2)
H14 H -0.0893(3) 0.8809(3) 0.5934(2)
C21 C -0.0357(3) 0.8645(3) 0.6845(3)
H15 H -0.0765(3) 0.8713(3) 0.7140(3)
C22 C 0.0297(4) 0.8492(4) 0.7135(3)
H16 H 0.0348(4) 0.8466(4) 0.7631(3)
C23 C 0.0871(3) 0.8385(4) 0.6706(3)
H17 H 0.1330(3) 0.8279(4) 0.6906(3)
C24 C 0.0794(3) 0.8442(3) 0.5990(3)
H18 H 0.1196(3) 0.8358(3) 0.5692(3)
C25 C 0.3437(2) 0.4235(3) 0.3544(2)
H19 H 0.3733(2) 0.4096(3) 0.3935(2)
H20 H 0.3556(2) 0.4840(3) 0.3386(2)
C26 C 0.3608(3) 0.3552(3) 0.2967(2)
H21 H 0.4100(3) 0.3587(3) 0.2841(2)
H22 H 0.3500(3) 0.2944(3) 0.3125(2)
H23 H 0.3320(3) 0.3696(3) 0.2570(2)
C27 C 0.2297(2) 0.5770(3) 0.3211(2)
H24 H 0.1869(2) 0.6126(3) 0.3197(2)
H25 H 0.2669(2) 0.6127(3) 0.3417(2)
H26 H 0.2430(2) 0.5600(3) 0.2747(2)
C28 C 0.0001(2) 0.3776(3) 0.3683(2)
H27 H 0.0431(2) 0.3446(3) 0.3588(2)
H28 H -0.0261(2) 0.3465(3) 0.4040(2)
H29 H -0.0281(2) 0.3809(3) 0.3268(2)
C29 C -0.1109(2) 0.5261(3) 0.4104(2)
H30 H -0.1321(2) 0.5620(3) 0.4466(2)
H31 H -0.1207(2) 0.4626(3) 0.4196(2)
C30 C -0.1449(2) 0.5543(4) 0.3436(2)
H32 H -0.1952(2) 0.5442(4) 0.3447(2)
H33 H -0.1356(2) 0.6179(4) 0.3347(2)
H34 H -0.1241(2) 0.5177(4) 0.3075(2)
loop_
_geom_bond_atom_site_label_1
_geom_bond_atom_site_label_2
_geom_bond_site_symmetry_1
_geom_bond_site_symmetry_2
N1 H1 1_555 1_555
N2 H2 1_555 1_555
N3 H3 1_555 1_555
N4 H4 1_555 1_555
O1 C8 1_555 1_555
O2 C17 1_555 1_555
C1 C2 1_555 1_555
C2 H5 1_555 1_555
C3 C2 1_555 1_555
H6 C3 1_555 1_555
C4 C3 1_555 1_555
H7 C4 1_555 1_555
C5 C4 1_555 1_555
H8 C5 1_555 1_555
C6 C1 1_555 1_555
H9 C6 1_555 1_555
C7 N1 1_555 1_555
H10 C7 1_555 1_555
H11 C7 1_555 1_555
C8 N1 1_555 1_555
C9 N2 1_555 1_555
C10 C9 1_555 1_555
C11 C10 1_555 1_555
C12 N2 1_555 1_555
C13 N3 1_555 1_555
C14 C13 1_555 1_555
C15 C14 1_555 1_555
C16 N3 1_555 1_555
C17 N4 1_555 1_555
C18 N4 1_555 1_555
H12 C18 1_555 1_555
H13 C18 1_555 1_555
C19 C18 1_555 1_555
C20 C19 1_555 1_555
H14 C20 1_555 1_555
C21 C20 1_555 1_555
H15 C21 1_555 1_555
C22 C21 1_555 1_555
H16 C22 1_555 1_555
C23 C22 1_555 1_555
H17 C23 1_555 1_555
C24 C19 1_555 1_555
H18 C24 1_555 1_555
C25 C10 1_555 1_555
H19 C25 1_555 1_555
H20 C25 1_555 1_555
C26 C25 1_555 1_555
H21 C26 1_555 1_555
H22 C26 1_555 1_555
H23 C26 1_555 1_555
C27 C11 1_555 1_555
H24 C27 1_555 1_555
H25 C27 1_555 1_555
H26 C27 1_555 1_555
C28 C14 1_555 1_555
H27 C28 1_555 1_555
H28 C28 1_555 1_555
H29 C28 1_555 1_555
C29 C15 1_555 1_555
H30 C29 1_555 1_555
H31 C29 1_555 1_555
C30 C29 1_555 1_555
H32 C30 1_555 1_555
H33 C30 1_555 1_555
H34 C30 1_555 1_555
C1 C7 1_555 1_555
C5 C6 1_555 1_555
C8 C9 1_555 1_555
C11 C12 1_555 1_555
C12 C13 1_555 1_555
C15 C16 1_555 1_555
C16 C17 1_555 1_555
C23 C24 1_555 1_555

#END
