
#######################################################################
#
#                 Cambridge Crystallographic Data Centre
#                                CCDC 
#
#######################################################################
#
# If this CIF has been generated from an entry in the Cambridge 
# Structural Database, then it will include bibliographic, chemical, 
# crystal, experimental, refinement or atomic coordinate data resulting 
# from the CCDC's data processing and validation procedures.
#
#######################################################################

data_SUHZIG
_chemical_formula_moiety         'C22 H16 Cl1 N1 O2'
_chemical_name_systematic        
4-(4-Chlorophenyl)-2-methoxy-3-phenylisoquinolin-1(2H)-one
_symmetry_cell_setting           monoclinic
_symmetry_space_group_name_H-M   'C 2/c'
_symmetry_Int_Tables_number      15
_space_group_name_Hall           '-C 2yn'
loop_
_symmetry_equiv_pos_site_id
_symmetry_equiv_pos_as_xyz
1 x,y,z
2 -x,y,1/2-z
3 1/2+x,1/2+y,z
4 1/2-x,1/2+y,1/2-z
5 -x,-y,-z
6 x,-y,1/2+z
7 1/2-x,1/2-y,-z
8 1/2+x,1/2-y,1/2+z
_cell_length_a                   32.745(7)
_cell_length_b                   6.2347(12)
_cell_length_c                   17.488(4)
_cell_angle_alpha                90
_cell_angle_beta                 96.92(3)
_cell_angle_gamma                90
_cell_volume                     3544.26
_cell_formula_units_Z            8
loop_
_atom_site_label
_atom_site_type_symbol
_atom_site_fract_x
_atom_site_fract_y
_atom_site_fract_z
Cl1 Cl 0.007583(15) 0.96653(9) 0.37149(3)
O1 O 0.22050(4) -0.0281(2) 0.64607(8)
O2 O 0.17032(4) 0.2159(2) 0.71639(7)
N1 N 0.17087(5) 0.2291(2) 0.63714(9)
C1 C 0.19845(5) 0.0963(3) 0.60587(11)
C2 C 0.19734(5) 0.1225(3) 0.52267(11)
C3 C 0.22633(6) 0.0062(3) 0.48647(12)
H1 H 0.2461 -0.0803 0.5163
C4 C 0.22609(6) 0.0173(3) 0.40778(12)
H2 H 0.2457 -0.0608 0.3832
C5 C 0.19681(6) 0.1440(3) 0.36430(12)
H3 H 0.1962 0.1484 0.3099
C6 C 0.16862(6) 0.2636(3) 0.39942(11)
H4 H 0.1492 0.3506 0.3689
C7 C 0.16858(5) 0.2570(3) 0.47971(11)
C8 C 0.14001(5) 0.3803(3) 0.51935(10)
C9 C 0.14215(5) 0.3661(3) 0.59715(10)
C10 C 0.11558(6) 0.4868(3) 0.64580(11)
C11 C 0.12536(6) 0.6942(3) 0.66937(12)
H5 H 0.1487 0.7629 0.6528
C12 C 0.10140(7) 0.8025(4) 0.71694(13)
H6 H 0.1085 0.9440 0.7336
C13 C 0.06698(6) 0.7038(4) 0.74015(13)
H7 H 0.0503 0.7781 0.7722
C14 C 0.05705(7) 0.4962(4) 0.71634(14)
H8 H 0.0336 0.4279 0.7326
C15 C 0.08108(6) 0.3879(3) 0.66900(12)
H9 H 0.0740 0.2462 0.6524
C16 C 0.10781(6) 0.5209(3) 0.47710(11)
C17 C 0.11751(6) 0.7206(3) 0.44861(12)
H10 H 0.1455 0.7643 0.4524
C18 C 0.08705(6) 0.8570(3) 0.41484(12)
H11 H 0.0940 0.9931 0.3956
C19 C 0.04643(6) 0.7913(3) 0.40961(12)
C20 C 0.03610(6) 0.5901(3) 0.43425(12)
H12 H 0.0082 0.5441 0.4281
C21 C 0.06678(6) 0.4570(3) 0.46783(11)
H13 H 0.0598 0.3188 0.4850
C22 C 0.20349(6) 0.3432(3) 0.75495(12)
H14 H 0.2299 0.2797 0.7462
H15 H 0.2013 0.3465 0.8103
H16 H 0.2017 0.4896 0.7345
loop_
_geom_bond_atom_site_label_1
_geom_bond_atom_site_label_2
_geom_bond_site_symmetry_1
_geom_bond_site_symmetry_2
Cl1 C19 1_555 1_555
O1 C1 1_555 1_555
O2 N1 1_555 1_555
N1 C1 1_555 1_555
C1 C2 1_555 1_555
C2 C3 1_555 1_555
C3 H1 1_555 1_555
C4 C3 1_555 1_555
H2 C4 1_555 1_555
C5 C4 1_555 1_555
H3 C5 1_555 1_555
C6 C5 1_555 1_555
H4 C6 1_555 1_555
C7 C2 1_555 1_555
C8 C7 1_555 1_555
C9 N1 1_555 1_555
C10 C9 1_555 1_555
C11 C10 1_555 1_555
H5 C11 1_555 1_555
C12 C11 1_555 1_555
H6 C12 1_555 1_555
C13 C12 1_555 1_555
H7 C13 1_555 1_555
C14 C13 1_555 1_555
H8 C14 1_555 1_555
C15 C10 1_555 1_555
H9 C15 1_555 1_555
C16 C8 1_555 1_555
C17 C16 1_555 1_555
H10 C17 1_555 1_555
C18 C17 1_555 1_555
H11 C18 1_555 1_555
C19 C18 1_555 1_555
C20 C19 1_555 1_555
H12 C20 1_555 1_555
C21 C16 1_555 1_555
H13 C21 1_555 1_555
C22 O2 1_555 1_555
H14 C22 1_555 1_555
H15 C22 1_555 1_555
H16 C22 1_555 1_555
C6 C7 1_555 1_555
C8 C9 1_555 1_555
C14 C15 1_555 1_555
C20 C21 1_555 1_555

#END
