
#######################################################################
#
#                 Cambridge Crystallographic Data Centre
#                                CCDC 
#
#######################################################################
#
# If this CIF has been generated from an entry in the Cambridge 
# Structural Database, then it will include bibliographic, chemical, 
# crystal, experimental, refinement or atomic coordinate data resulting 
# from the CCDC's data processing and validation procedures.
#
#######################################################################

data_SUJHUC
_chemical_formula_moiety         'C23 H23 B1 Cl2 F2 N2 O4 S1'
_chemical_name_systematic        
'difluoro(methyl 3-(5-chloro-2-((5-chloro-3-(3-methoxy-3-oxopropyl)-4-methyl-2H-pyrrol-2-ylidene)(2-thienyl)methyl)-4-methyl-1H-pyrrol-3-yl)propanoatato)borate'
_symmetry_cell_setting           monoclinic
_symmetry_space_group_name_H-M   'P c'
_symmetry_Int_Tables_number      7
_space_group_name_Hall           'P -2yc'
loop_
_symmetry_equiv_pos_site_id
_symmetry_equiv_pos_as_xyz
1 x,y,z
2 x,-y,1/2+z
_cell_length_a                   11.9869(9)
_cell_length_b                   9.9485(7)
_cell_length_c                   20.9771(15)
_cell_angle_alpha                90
_cell_angle_beta                 104.362(5)
_cell_angle_gamma                90
_cell_volume                     2423.38
_exptl_crystal_colour            red
_exptl_crystal_description       lath
_cell_formula_units_Z            4
loop_
_atom_site_label
_atom_site_type_symbol
_atom_site_fract_x
_atom_site_fract_y
_atom_site_fract_z
Cl1 Cl 0.7562(2) 0.6806(2) 0.49987(13)
Cl2 Cl 0.2473(2) 0.6790(2) 0.40791(12)
F1 F 0.5037(4) 0.5338(4) 0.4399(2)
F2 F 0.4945(5) 0.7433(4) 0.4794(2)
O1 O 0.7549(7) 0.1148(7) 0.7916(3)
O2 O 0.8627(9) 0.2917(8) 0.8376(4)
O3 O 0.1956(6) 0.1238(6) 0.6950(4)
O4 O 0.0370(8) 0.2404(10) 0.6721(5)
N1 N 0.5960(6) 0.5743(6) 0.5535(3)
N2 N 0.3849(6) 0.5692(6) 0.5158(3)
C1 C 0.7043(9) 0.5997(7) 0.5587(4)
C2 C 0.7752(9) 0.5527(8) 0.6199(5)
C3 C 0.7023(7) 0.4965(7) 0.6539(4)
C4 C 0.5888(8) 0.5069(7) 0.6114(4)
C5 C 0.4782(7) 0.4730(6) 0.6197(4)
C6 C 0.3800(7) 0.5007(6) 0.5731(4)
C7 C 0.2585(9) 0.4800(7) 0.5714(4)
C8 C 0.1963(8) 0.5370(8) 0.5127(4)
C9 C 0.2760(8) 0.5929(8) 0.4814(4)
C10 C 0.9022(10) 0.5640(12) 0.6418(6)
H1 H 0.9237 0.6054 0.6855
H2 H 0.9303 0.6198 0.6105
H3 H 0.9366 0.4743 0.6437
C11 C 0.7399(7) 0.4383(8) 0.7190(4)
H4 H 0.6757 0.4436 0.7408
H5 H 0.8040 0.4932 0.7451
C12 C 0.7809(9) 0.2883(9) 0.7205(5)
H6 H 0.7192 0.2329 0.6925
H7 H 0.8496 0.2826 0.7024
C13 C 0.8100(10) 0.2343(8) 0.7898(5)
C14 C 0.7730(15) 0.0516(13) 0.8556(6)
H8 H 0.8543 0.0270 0.8716
H9 H 0.7253 -0.0294 0.8519
H10 H 0.7516 0.1144 0.8866
C15 C 0.2053(8) 0.4177(8) 0.6216(4)
H11 H 0.1362 0.4700 0.6239
H12 H 0.2607 0.4227 0.6652
C16 C 0.1709(8) 0.2716(8) 0.6065(4)
H13 H 0.1117 0.2664 0.5642
H14 H 0.2389 0.2195 0.6020
C17 C 0.1242(8) 0.2117(9) 0.6601(4)
C18 C 0.1675(11) 0.0718(12) 0.7527(5)
H15 H 0.1664 0.1454 0.7836
H16 H 0.2253 0.0052 0.7736
H17 H 0.0915 0.0291 0.7405
C19 C 0.0704(10) 0.5416(11) 0.4877(6)
H18 H 0.0388 0.4508 0.4880
H19 H 0.0510 0.5765 0.4426
H20 H 0.0376 0.6005 0.5157
C20 C 0.4726(7) 0.4020(5) 0.6815(3)
S1 S 0.4638(3) 0.4874(2) 0.75187(15)
C21 C 0.478(3) 0.2672(14) 0.6902(10)
H21 H 0.4852 0.2037 0.6576
C22 C 0.4726(9) 0.2322(7) 0.7595(4)
H22 H 0.4660 0.1448 0.7765
C23 C 0.4694(9) 0.3492(7) 0.7934(4)
H23 H 0.4712 0.3491 0.8389
B1 B 0.4924(9) 0.6099(8) 0.4937(5)
Cl3 Cl 0.1655(2) 1.2044(2) 1.14375(12)
Cl4 Cl 0.67785(19) 1.19879(18) 1.23759(10)
F3 F 0.4199(4) 1.0549(4) 1.2052(2)
F4 F 0.4273(5) 1.2663(4) 1.1659(2)
O5 O 0.1610(11) 0.6315(8) 0.8558(4)
O6 O 0.0416(9) 0.7969(10) 0.8146(5)
O7 O 0.7307(5) 0.6499(6) 0.9507(3)
O8 O 0.8920(7) 0.7611(8) 0.9790(5)
N3 N 0.3264(6) 1.0976(5) 1.0917(3)
N4 N 0.5407(6) 1.0934(5) 1.1312(3)
C25 C 0.2130(7) 1.1238(7) 1.0842(4)
C26 C 0.1444(8) 1.0732(9) 1.0256(5)
C27 C 0.2241(8) 1.0171(8) 0.9945(4)
C28 C 0.3363(6) 1.0318(7) 1.0350(4)
C29 C 0.4420(7) 0.9941(6) 1.0262(4)
C30 C 0.5483(7) 1.0237(6) 1.0736(4)
C31 C 0.6619(7) 1.0017(6) 1.0755(4)
C32 C 0.7284(8) 1.0600(7) 1.1338(4)
C33 C 0.6480(8) 1.1118(7) 1.1657(4)
C34 C 0.0171(8) 1.0878(10) 1.0019(6)
H25 H -0.0121 1.1398 1.0340
H26 H -0.0187 0.9986 0.9966
H27 H -0.0015 1.1347 0.9595
C35 C 0.1826(8) 0.9530(10) 0.9257(5)
H28 H 0.1176 1.0063 0.8994
H29 H 0.2459 0.9563 0.9031
C36 C 0.1447(9) 0.8096(8) 0.9285(4)
H30 H 0.0811 0.8061 0.9509
H31 H 0.2096 0.7561 0.9548
C37 C 0.1045(11) 0.7480(11) 0.8604(5)
C38 C 0.134(2) 0.5654(16) 0.7918(6)
H32 H 0.0558 0.5290 0.7824
H33 H 0.1889 0.4921 0.7922
H34 H 0.1397 0.6307 0.7578
C39 C 0.7170(7) 0.9372(7) 1.0262(4)
H35 H 0.7847 0.9913 1.0230
H36 H 0.6615 0.9383 0.9826
C40 C 0.7560(9) 0.7915(7) 1.0434(5)
H37 H 0.8167 0.7893 1.0851
H38 H 0.6901 0.7367 1.0491
C41 C 0.8023(7) 0.7350(7) 0.9876(4)
C42 C 0.7618(8) 0.5970(10) 0.8937(4)
H39 H 0.7915 0.6697 0.8710
H40 H 0.6939 0.5571 0.8639
H41 H 0.8214 0.5280 0.9074
C43 C 0.8582(7) 1.0615(9) 1.1594(4)
H42 H 0.8792 1.1138 1.2002
H43 H 0.8930 1.1024 1.1264
H44 H 0.8864 0.9691 1.1681
C44 C 0.4495(6) 0.9239(6) 0.9655(3)
S3 S 0.4511(4) 0.7522(3) 0.96389(14)
C45 C 0.459(3) 0.9775(16) 0.9076(8)
H45 H 0.4618 1.0711 0.8993
C46 C 0.4572(8) 0.7503(8) 0.8864(4)
H46 H 0.4603 0.6636 0.8679
C47 C 0.4634(8) 0.8707(8) 0.8587(4)
H47 H 0.4649 0.8748 0.8137
B2 B 0.4249(9) 1.1285(8) 1.1508(5)
S2? S 0.4710(17) 0.2317(9) 0.6826(6)
C24? C 0.473(4) 0.452(2) 0.7411(11)
H24? H 0.4746 0.5460 0.7496
S4? S 0.4627(16) 1.0090(9) 0.8954(5)
C48? C 0.448(5) 0.790(2) 0.9540(14)
H48? H 0.4412 0.7262 0.9864
loop_
_geom_bond_atom_site_label_1
_geom_bond_atom_site_label_2
_geom_bond_site_symmetry_1
_geom_bond_site_symmetry_2
Cl1 C1 1_555 1_555
Cl2 C9 1_555 1_555
F1 B1 1_555 1_555
F2 B1 1_555 1_555
O1 C13 1_555 1_555
O2 C13 1_555 1_555
O3 C17 1_555 1_555
O4 C17 1_555 1_555
N1 C1 1_555 1_555
N2 C6 1_555 1_555
C1 C2 1_555 1_555
C2 C3 1_555 1_555
C3 C4 1_555 1_555
C4 N1 1_555 1_555
C5 C4 1_555 1_555
C6 C5 1_555 1_555
C7 C6 1_555 1_555
C8 C7 1_555 1_555
C9 N2 1_555 1_555
C10 C2 1_555 1_555
H1 C10 1_555 1_555
H2 C10 1_555 1_555
H3 C10 1_555 1_555
C11 C3 1_555 1_555
H4 C11 1_555 1_555
H5 C11 1_555 1_555
C12 C11 1_555 1_555
H6 C12 1_555 1_555
H7 C12 1_555 1_555
C13 C12 1_555 1_555
C14 O1 1_555 1_555
H8 C14 1_555 1_555
H9 C14 1_555 1_555
H10 C14 1_555 1_555
C15 C7 1_555 1_555
H11 C15 1_555 1_555
H12 C15 1_555 1_555
C16 C15 1_555 1_555
H13 C16 1_555 1_555
H14 C16 1_555 1_555
C17 C16 1_555 1_555
C18 O3 1_555 1_555
H15 C18 1_555 1_555
H16 C18 1_555 1_555
H17 C18 1_555 1_555
C19 C8 1_555 1_555
H18 C19 1_555 1_555
H19 C19 1_555 1_555
H20 C19 1_555 1_555
C20 C5 1_555 1_555
S1 C20 1_555 1_555
C21 C20 1_555 1_555
H21 C21 1_555 1_555
C22 C21 1_555 1_555
H22 C22 1_555 1_555
C23 S1 1_555 1_555
H23 C23 1_555 1_555
B1 N1 1_555 1_555
Cl3 C25 1_555 1_555
Cl4 C33 1_555 1_555
F3 B2 1_555 1_555
F4 B2 1_555 1_555
O5 C37 1_555 1_555
O6 C37 1_555 1_555
O7 C41 1_555 1_555
O8 C41 1_555 1_555
N3 C25 1_555 1_555
N4 C30 1_555 1_555
C25 C26 1_555 1_555
C26 C27 1_555 1_555
C27 C28 1_555 1_555
C28 N3 1_555 1_555
C29 C28 1_555 1_555
C30 C29 1_555 1_555
C31 C30 1_555 1_555
C32 C31 1_555 1_555
C33 N4 1_555 1_555
C34 C26 1_555 1_555
H25 C34 1_555 1_555
H26 C34 1_555 1_555
H27 C34 1_555 1_555
C35 C27 1_555 1_555
H28 C35 1_555 1_555
H29 C35 1_555 1_555
C36 C35 1_555 1_555
H30 C36 1_555 1_555
H31 C36 1_555 1_555
C37 C36 1_555 1_555
C38 O5 1_555 1_555
H32 C38 1_555 1_555
H33 C38 1_555 1_555
H34 C38 1_555 1_555
C39 C31 1_555 1_555
H35 C39 1_555 1_555
H36 C39 1_555 1_555
C40 C39 1_555 1_555
H37 C40 1_555 1_555
H38 C40 1_555 1_555
C41 C40 1_555 1_555
C42 O7 1_555 1_555
H39 C42 1_555 1_555
H40 C42 1_555 1_555
H41 C42 1_555 1_555
C43 C32 1_555 1_555
H42 C43 1_555 1_555
H43 C43 1_555 1_555
H44 C43 1_555 1_555
C44 C29 1_555 1_555
S3 C44 1_555 1_555
C45 C44 1_555 1_555
H45 C45 1_555 1_555
C46 S3 1_555 1_555
H46 C46 1_555 1_555
C47 C45 1_555 1_555
H47 C47 1_555 1_555
B2 N3 1_555 1_555
N2 B1 1_555 1_555
C8 C9 1_555 1_555
C22 C23 1_555 1_555
N4 B2 1_555 1_555
C32 C33 1_555 1_555
C46 C47 1_555 1_555

#END
