
#######################################################################
#
#                 Cambridge Crystallographic Data Centre
#                                CCDC 
#
#######################################################################
#
# If this CIF has been generated from an entry in the Cambridge 
# Structural Database, then it will include bibliographic, chemical, 
# crystal, experimental, refinement or atomic coordinate data resulting 
# from the CCDC's data processing and validation procedures.
#
#######################################################################

data_SUJJUE
_chemical_formula_moiety         'C35 H43 B1 F2 N2 O4 Si2'
_chemical_name_systematic        
'difluoro(methyl 3-(2-((3-(3-methoxy-3-oxopropyl)-4-methyl-5-((trimethylsilyl)ethynyl)-2H-pyrrol-2-ylidene)(phenyl)methyl)-4-methyl-5-((trimethylsilyl)ethynyl)-1H-pyrrol-3-yl)propanoatato)borate'
_symmetry_cell_setting           triclinic
_symmetry_space_group_name_H-M   'P -1'
_symmetry_Int_Tables_number      2
_space_group_name_Hall           '-P 1'
loop_
_symmetry_equiv_pos_site_id
_symmetry_equiv_pos_as_xyz
1 x,y,z
2 -x,-y,-z
_cell_length_a                   10.824(2)
_cell_length_b                   12.553(3)
_cell_length_c                   14.516(2)
_cell_angle_alpha                106.924(13)
_cell_angle_beta                 109.773(12)
_cell_angle_gamma                94.332(12)
_cell_volume                     1742.19
_exptl_crystal_colour            'dark red'
_exptl_crystal_description       parallelepiped
_cell_formula_units_Z            2
loop_
_atom_site_label
_atom_site_type_symbol
_atom_site_fract_x
_atom_site_fract_y
_atom_site_fract_z
Si1 Si 0.11762(7) 0.80253(7) 0.94733(5)
Si2 Si 0.24939(8) 0.26215(7) 0.85047(6)
F1 F 0.09832(13) 0.49058(12) 0.66769(10)
F2 F 0.31924(13) 0.56692(12) 0.72579(10)
O1 O 0.46064(17) 0.89607(17) 0.36512(13)
O2 O 0.24210(18) 0.86042(16) 0.26565(14)
O3 O 0.53612(16) 0.18149(15) 0.22589(13)
O4 O 0.37265(17) 0.26130(16) 0.14574(13)
N1 N 0.16516(18) 0.61756(18) 0.58886(14)
N2 N 0.21763(19) 0.42474(17) 0.55530(14)
C1 C 0.1263(2) 0.7143(2) 0.62918(18)
C2 C 0.1204(2) 0.7848(2) 0.56777(18)
C3 C 0.1588(2) 0.7293(2) 0.48811(18)
C4 C 0.1869(2) 0.6233(2) 0.50087(18)
C5 C 0.2241(2) 0.5316(2) 0.44129(18)
C6 C 0.2349(2) 0.4311(2) 0.46586(18)
C7 C 0.2562(2) 0.3236(2) 0.41284(18)
C8 C 0.2523(2) 0.2540(2) 0.47106(19)
C9 C 0.2296(2) 0.3189(2) 0.55840(19)
C10 C 0.1056(2) 0.7413(2) 0.7246(2)
C11 C 0.0990(2) 0.7689(2) 0.8103(2)
C12 C -0.0394(3) 0.8359(3) 0.9622(2)
H1 H -0.0652 0.8967 0.9342
H2 H -0.0258 0.8607 1.0361
H3 H -0.1103 0.7681 0.9242
C13 C 0.2550(3) 0.9270(2) 1.0301(2)
H4 H 0.3403 0.9068 1.0290
H5 H 0.2584 0.9501 1.1016
H6 H 0.2387 0.9900 1.0032
C14 C 0.1653(3) 0.6782(2) 0.9848(2)
H7 H 0.0929 0.6120 0.9427
H8 H 0.1813 0.6943 1.0586
H9 H 0.2471 0.6625 0.9730
C15 C 0.0798(3) 0.8976(2) 0.5880(2)
H10 H 0.1577 0.9573 0.6094
H11 H 0.0446 0.9102 0.6434
H12 H 0.0105 0.8994 0.5245
C16 C 0.1691(2) 0.7767(2) 0.40690(19)
H13 H 0.1112 0.8338 0.4013
H14 H 0.1361 0.7149 0.3388
C17 C 0.3125(2) 0.8320(2) 0.43167(19)
H15 H 0.3399 0.9012 0.4938
H16 H 0.3725 0.7790 0.4490
C18 C 0.3300(3) 0.8634(2) 0.3445(2)
C19 C 0.4915(3) 0.9233(3) 0.2845(2)
H17 H 0.4478 0.8603 0.2186
H18 H 0.5886 0.9356 0.3030
H19 H 0.4591 0.9923 0.2771
C20 C 0.2543(2) 0.5375(2) 0.34951(18)
C21 C 0.1515(2) 0.5176(2) 0.25366(18)
H20 H 0.0608 0.5009 0.2460
C22 C 0.1825(3) 0.5222(2) 0.16992(19)
H21 H 0.1124 0.5095 0.1048
C23 C 0.3141(2) 0.5450(2) 0.1795(2)
H22 H 0.3341 0.5473 0.1212
C24 C 0.4161(3) 0.5645(2) 0.27412(19)
H23 H 0.5067 0.5799 0.2809
C25 C 0.3867(2) 0.5615(2) 0.35895(19)
H24 H 0.4572 0.5759 0.4242
C26 C 0.2760(2) 0.2829(2) 0.31133(18)
H25 H 0.2418 0.3330 0.2708
H26 H 0.2226 0.2054 0.2708
C27 C 0.4225(2) 0.2813(2) 0.32499(19)
H27 H 0.4767 0.3586 0.3660
H28 H 0.4568 0.2302 0.3643
C28 C 0.4380(2) 0.2420(2) 0.2225(2)
C29 C 0.5649(3) 0.1497(2) 0.1323(2)
H29 H 0.4834 0.1060 0.0728
H30 H 0.6341 0.1033 0.1397
H31 H 0.5966 0.2182 0.1210
C30 C 0.2685(3) 0.1326(2) 0.44765(19)
H32 H 0.3619 0.1286 0.4575
H33 H 0.2106 0.0889 0.3755
H34 H 0.2435 0.1011 0.4946
C31 C 0.2252(2) 0.2864(2) 0.6437(2)
C32 C 0.2283(3) 0.2617(2) 0.7188(2)
C33 C 0.1225(3) 0.3356(3) 0.8862(2)
H35 H 0.1271 0.4087 0.8747
H36 H 0.1396 0.3484 0.9597
H37 H 0.0333 0.2888 0.8432
C34 C 0.2316(3) 0.1168(3) 0.8546(2)
H38 H 0.1395 0.0761 0.8119
H39 H 0.2527 0.1197 0.9266
H40 H 0.2933 0.0772 0.8275
C35 C 0.4218(3) 0.3426(3) 0.9364(2)
H41 H 0.4869 0.3015 0.9159
H42 H 0.4365 0.3508 1.0087
H43 H 0.4326 0.4179 0.9297
B1 B 0.2000(3) 0.5247(3) 0.6393(2)
loop_
_geom_bond_atom_site_label_1
_geom_bond_atom_site_label_2
_geom_bond_site_symmetry_1
_geom_bond_site_symmetry_2
Si1 C11 1_555 1_555
Si2 C32 1_555 1_555
F1 B1 1_555 1_555
F2 B1 1_555 1_555
O1 C18 1_555 1_555
O2 C18 1_555 1_555
O3 C28 1_555 1_555
O4 C28 1_555 1_555
N1 C1 1_555 1_555
N2 C6 1_555 1_555
C1 C2 1_555 1_555
C2 C3 1_555 1_555
C3 C4 1_555 1_555
C4 N1 1_555 1_555
C5 C4 1_555 1_555
C6 C5 1_555 1_555
C7 C6 1_555 1_555
C8 C7 1_555 1_555
C9 N2 1_555 1_555
C10 C1 1_555 1_555
C11 C10 1_555 1_555
C12 Si1 1_555 1_555
H1 C12 1_555 1_555
H2 C12 1_555 1_555
H3 C12 1_555 1_555
C13 Si1 1_555 1_555
H4 C13 1_555 1_555
H5 C13 1_555 1_555
H6 C13 1_555 1_555
C14 Si1 1_555 1_555
H7 C14 1_555 1_555
H8 C14 1_555 1_555
H9 C14 1_555 1_555
C15 C2 1_555 1_555
H10 C15 1_555 1_555
H11 C15 1_555 1_555
H12 C15 1_555 1_555
C16 C3 1_555 1_555
H13 C16 1_555 1_555
H14 C16 1_555 1_555
C17 C16 1_555 1_555
H15 C17 1_555 1_555
H16 C17 1_555 1_555
C18 C17 1_555 1_555
C19 O1 1_555 1_555
H17 C19 1_555 1_555
H18 C19 1_555 1_555
H19 C19 1_555 1_555
C20 C5 1_555 1_555
C21 C20 1_555 1_555
H20 C21 1_555 1_555
C22 C21 1_555 1_555
H21 C22 1_555 1_555
C23 C22 1_555 1_555
H22 C23 1_555 1_555
C24 C23 1_555 1_555
H23 C24 1_555 1_555
C25 C20 1_555 1_555
H24 C25 1_555 1_555
C26 C7 1_555 1_555
H25 C26 1_555 1_555
H26 C26 1_555 1_555
C27 C26 1_555 1_555
H27 C27 1_555 1_555
H28 C27 1_555 1_555
C28 C27 1_555 1_555
C29 O3 1_555 1_555
H29 C29 1_555 1_555
H30 C29 1_555 1_555
H31 C29 1_555 1_555
C30 C8 1_555 1_555
H32 C30 1_555 1_555
H33 C30 1_555 1_555
H34 C30 1_555 1_555
C31 C9 1_555 1_555
C32 C31 1_555 1_555
C33 Si2 1_555 1_555
H35 C33 1_555 1_555
H36 C33 1_555 1_555
H37 C33 1_555 1_555
C34 Si2 1_555 1_555
H38 C34 1_555 1_555
H39 C34 1_555 1_555
H40 C34 1_555 1_555
C35 Si2 1_555 1_555
H41 C35 1_555 1_555
H42 C35 1_555 1_555
H43 C35 1_555 1_555
B1 N1 1_555 1_555
N2 B1 1_555 1_555
C8 C9 1_555 1_555
C24 C25 1_555 1_555

#END
