
#######################################################################
#
#                 Cambridge Crystallographic Data Centre
#                                CCDC 
#
#######################################################################
#
# If this CIF has been generated from an entry in the Cambridge 
# Structural Database, then it will include bibliographic, chemical, 
# crystal, experimental, refinement or atomic coordinate data resulting 
# from the CCDC's data processing and validation procedures.
#
#######################################################################

data_SUJKAL
_chemical_formula_moiety         'C32 H35 B1 F2 N2 O4 S2 Si1'
_chemical_name_systematic        
'difluoro(methyl 3-(2-(1-(3-(3-methoxy-3-oxopropyl)-4-methyl-5-(2-thienyl)-2H-pyrrol-2-ylidene)-3-(trimethylsilyl)prop-2-yn-1-yl)-4-methyl-5-(2-thienyl)-1H-pyrrol-3-yl)propanoatato)borate'
_symmetry_cell_setting           monoclinic
_symmetry_space_group_name_H-M   'P 21/c'
_symmetry_Int_Tables_number      14
_space_group_name_Hall           '-P 2ybc'
loop_
_symmetry_equiv_pos_site_id
_symmetry_equiv_pos_as_xyz
1 x,y,z
2 -x,1/2+y,1/2-z
3 -x,-y,-z
4 x,1/2-y,1/2+z
_cell_length_a                   23.8106(19)
_cell_length_b                   11.7399(9)
_cell_length_c                   11.2597(9)
_cell_angle_alpha                90
_cell_angle_beta                 101.193(4)
_cell_angle_gamma                90
_cell_volume                     3087.6
_exptl_crystal_colour            'dark bluish green'
_exptl_crystal_description       lath
_cell_formula_units_Z            4
loop_
_atom_site_label
_atom_site_type_symbol
_atom_site_fract_x
_atom_site_fract_y
_atom_site_fract_z
Si1 Si 0.430614(19) 0.44703(4) 0.25023(4)
S1 S 0.12089(3) 0.84057(6) 0.50909(5)
C1 C 0.0884(4) 0.8971(8) 0.2881(5)
H1 H 0.0848 0.9028 0.2028
S2 S 0.10759(2) 0.26406(5) 0.63879(4)
F1 F 0.09110(4) 0.54880(9) 0.29111(9)
F2 F 0.12565(4) 0.58936(8) 0.48975(9)
O1 O 0.35990(5) 0.60341(10) -0.04673(11)
O2 O 0.37119(6) 0.78399(11) 0.01199(14)
O3 O 0.33118(5) 0.08674(11) 0.12159(11)
O4 O 0.38529(5) 0.14298(11) 0.29645(11)
N1 N 0.18135(6) 0.64480(11) 0.34153(12)
N2 N 0.17177(6) 0.44020(12) 0.39880(12)
C2 C 0.17159(7) 0.75821(14) 0.31976(14)
C3 C 0.21401(7) 0.80293(14) 0.26185(14)
C4 C 0.25101(7) 0.71465(14) 0.24851(14)
C5 C 0.23041(7) 0.61575(14) 0.29842(14)
C6 C 0.25243(7) 0.50419(14) 0.31472(14)
C7 C 0.22382(7) 0.41788(14) 0.36504(14)
C8 C 0.23995(7) 0.30294(14) 0.39773(14)
C9 C 0.19751(7) 0.25768(14) 0.45101(14)
C10 C 0.15598(7) 0.34471(14) 0.45204(14)
C11 C 0.12615(7) 0.82469(14) 0.35790(14)
C12 C 0.05468(8) 0.96382(16) 0.35542(17)
H2 H 0.0262 1.0173 0.3213
C13 C 0.06961(8) 0.93899(16) 0.47417(17)
H3 H 0.0523 0.9748 0.5337
C14 C 0.22170(8) 0.92539(14) 0.23103(16)
H4 H 0.2575 0.9542 0.2797
H5 H 0.1895 0.9702 0.2483
H6 H 0.2231 0.9319 0.1449
C15 C 0.30254(7) 0.72688(14) 0.19086(14)
H7 H 0.3352 0.6862 0.2407
H8 H 0.3129 0.8085 0.1892
C16 C 0.29215(7) 0.67940(15) 0.06112(14)
H9 H 0.2833 0.5971 0.0623
H10 H 0.2590 0.7186 0.0110
C17 C 0.34464(8) 0.69716(15) 0.00696(15)
C18 C 0.41260(8) 0.61510(17) -0.09190(17)
H11 H 0.4070 0.6699 -0.1588
H12 H 0.4234 0.5410 -0.1208
H13 H 0.4431 0.6422 -0.0267
C19 C 0.30762(7) 0.48122(14) 0.28627(14)
C20 C 0.35536(7) 0.46436(14) 0.26922(14)
C21 C 0.42958(8) 0.36592(16) 0.10851(16)
H14 H 0.4157 0.2885 0.1178
H15 H 0.4684 0.3625 0.0915
H16 H 0.4041 0.4039 0.0413
C22 C 0.46084(7) 0.59298(15) 0.24698(16)
H17 H 0.4996 0.5882 0.2302
H18 H 0.4622 0.6298 0.3256
H19 H 0.4366 0.6378 0.1835
C23 C 0.47179(7) 0.36751(16) 0.38155(16)
H20 H 0.4524 0.2953 0.3909
H21 H 0.4742 0.4132 0.4552
H22 H 0.5105 0.3521 0.3678
C24 C 0.29199(7) 0.24033(14) 0.37762(15)
H23 H 0.2978 0.1723 0.4306
H24 H 0.3259 0.2901 0.4007
C25 C 0.28712(7) 0.20306(14) 0.24622(15)
H25 H 0.2536 0.1523 0.2233
H26 H 0.2809 0.2709 0.1930
C26 C 0.33986(7) 0.14192(14) 0.22751(15)
C27 C 0.38093(8) 0.03056(17) 0.09413(17)
H27 H 0.4112 0.0868 0.0925
H28 H 0.3709 -0.0066 0.0149
H29 H 0.3946 -0.0268 0.1563
C28 C 0.19289(8) 0.13657(15) 0.49150(16)
H30 H 0.2210 0.0894 0.4612
H31 H 0.1543 0.1078 0.4595
H32 H 0.2004 0.1336 0.5802
C29 C 0.10447(7) 0.33530(14) 0.50258(15)
C30 C 0.05006(7) 0.37464(16) 0.46027(17)
H33 H 0.0393 0.4160 0.3869
C31 C 0.01175(8) 0.34721(17) 0.53715(18)
H34 H -0.0276 0.3676 0.5206
C32 C 0.03695(8) 0.28893(17) 0.63663(18)
H35 H 0.0175 0.2646 0.6983
B1 B 0.13978(8) 0.55743(16) 0.38126(17)
S3? S 0.0848(5) 0.9134(10) 0.2569(7)
C33? C 0.1163(6) 0.8435(13) 0.4691(11)
H36? H 0.1355 0.8036 0.5386
loop_
_geom_bond_atom_site_label_1
_geom_bond_atom_site_label_2
_geom_bond_site_symmetry_1
_geom_bond_site_symmetry_2
Si1 C20 1_555 1_555
S1 C11 1_555 1_555
C1 H1 1_555 1_555
S2 C29 1_555 1_555
F1 B1 1_555 1_555
F2 B1 1_555 1_555
O1 C17 1_555 1_555
O2 C17 1_555 1_555
O3 C26 1_555 1_555
O4 C26 1_555 1_555
N1 C2 1_555 1_555
N2 C7 1_555 1_555
C2 C3 1_555 1_555
C3 C4 1_555 1_555
C4 C5 1_555 1_555
C5 N1 1_555 1_555
C6 C5 1_555 1_555
C7 C6 1_555 1_555
C8 C7 1_555 1_555
C9 C8 1_555 1_555
C10 N2 1_555 1_555
C11 C1 1_555 1_555
C12 C1 1_555 1_555
H2 C12 1_555 1_555
C13 S1 1_555 1_555
H3 C13 1_555 1_555
C14 C3 1_555 1_555
H4 C14 1_555 1_555
H5 C14 1_555 1_555
H6 C14 1_555 1_555
C15 C4 1_555 1_555
H7 C15 1_555 1_555
H8 C15 1_555 1_555
C16 C15 1_555 1_555
H9 C16 1_555 1_555
H10 C16 1_555 1_555
C17 C16 1_555 1_555
C18 O1 1_555 1_555
H11 C18 1_555 1_555
H12 C18 1_555 1_555
H13 C18 1_555 1_555
C19 C6 1_555 1_555
C20 C19 1_555 1_555
C21 Si1 1_555 1_555
H14 C21 1_555 1_555
H15 C21 1_555 1_555
H16 C21 1_555 1_555
C22 Si1 1_555 1_555
H17 C22 1_555 1_555
H18 C22 1_555 1_555
H19 C22 1_555 1_555
C23 Si1 1_555 1_555
H20 C23 1_555 1_555
H21 C23 1_555 1_555
H22 C23 1_555 1_555
C24 C8 1_555 1_555
H23 C24 1_555 1_555
H24 C24 1_555 1_555
C25 C24 1_555 1_555
H25 C25 1_555 1_555
H26 C25 1_555 1_555
C26 C25 1_555 1_555
C27 O3 1_555 1_555
H27 C27 1_555 1_555
H28 C27 1_555 1_555
H29 C27 1_555 1_555
C28 C9 1_555 1_555
H30 C28 1_555 1_555
H31 C28 1_555 1_555
H32 C28 1_555 1_555
C29 C10 1_555 1_555
C30 C29 1_555 1_555
H33 C30 1_555 1_555
C31 C30 1_555 1_555
H34 C31 1_555 1_555
C32 S2 1_555 1_555
H35 C32 1_555 1_555
B1 N1 1_555 1_555
N2 B1 1_555 1_555
C2 C11 1_555 1_555
C9 C10 1_555 1_555
C12 C13 1_555 1_555
C31 C32 1_555 1_555

#END
