
#######################################################################
#
#                 Cambridge Crystallographic Data Centre
#                                CCDC 
#
#######################################################################
#
# If this CIF has been generated from an entry in the Cambridge 
# Structural Database, then it will include bibliographic, chemical, 
# crystal, experimental, refinement or atomic coordinate data resulting 
# from the CCDC's data processing and validation procedures.
#
#######################################################################

data_SUJMEQ
_chemical_formula_moiety         'C56 H62 Si2'
_chemical_name_systematic        
((2,6-bis(2-Naphthyl)anthracene-9,10-diyl)diethyne-2,1-diyl)bis(tri-isopropylsilane)
_symmetry_cell_setting           triclinic
_symmetry_space_group_name_H-M   'P -1'
_symmetry_Int_Tables_number      2
_space_group_name_Hall           '-P 1'
loop_
_symmetry_equiv_pos_site_id
_symmetry_equiv_pos_as_xyz
1 x,y,z
2 -x,-y,-z
_cell_length_a                   8.1903(16)
_cell_length_b                   11.438(2)
_cell_length_c                   12.144(2)
_cell_angle_alpha                78.37(3)
_cell_angle_beta                 88.17(3)
_cell_angle_gamma                85.10(3)
_cell_volume                     1110.1
_exptl_crystal_colour            'pale yellow'
_exptl_crystal_description       needle
_cell_formula_units_Z            1
loop_
_atom_site_label
_atom_site_type_symbol
_atom_site_fract_x
_atom_site_fract_y
_atom_site_fract_z
Si1 Si 0.18960(7) 0.73317(5) 0.64225(5)
C1 C 0.3125(2) 0.87355(17) 0.99202(16)
H1 H 0.3370 0.8318 0.9326
C2 C 0.1565(2) 0.93658(17) 0.99528(16)
C3 C 0.1164(2) 0.99882(17) 1.08405(16)
C4 C 0.2391(2) 0.99470(17) 1.16616(17)
H2 H 0.2161 1.0352 1.2266
C5 C 0.3875(2) 0.93419(17) 1.15960(17)
H3 H 0.4661 0.9342 1.2155
C6 C 0.4301(2) 0.87030(17) 1.07150(16)
C7 C 0.7084(2) 0.79524(18) 1.14908(17)
H4 H 0.6816 0.8317 1.2117
C8 C 0.5927(2) 0.80380(17) 1.06652(17)
C9 C 0.6382(2) 0.74732(18) 0.97432(17)
H5 H 0.5613 0.7515 0.9164
C10 C 0.7876(3) 0.68773(18) 0.96648(18)
H6 H 0.8123 0.6510 0.9037
C11 C 1.0654(2) 0.62125(17) 1.04308(19)
H7 H 1.0947 0.5855 0.9803
C12 C 1.1768(3) 0.61612(18) 1.12599(19)
H8 H 1.2826 0.5763 1.1208
C13 C 1.1353(3) 0.6695(2) 1.21873(19)
H9 H 1.2132 0.6650 1.2760
C14 C 0.9840(3) 0.7277(2) 1.22754(18)
H10 H 0.9581 0.7640 1.2904
C15 C 0.8651(3) 0.73408(18) 1.14330(17)
C16 C 0.9072(2) 0.67933(17) 1.05031(17)
C17 C 0.0375(2) 0.93792(17) 0.91162(17)
C18 C 0.0766(2) 0.87290(17) 0.82401(16)
C19 C 0.1119(2) 0.81511(17) 0.75146(17)
C20 C 0.0126(3) 0.72378(19) 0.54891(17)
H11 H 0.0572 0.6860 0.4856
C21 C -0.1151(3) 0.6437(2) 0.6133(2)
H12 H -0.1542 0.6750 0.6797
H13 H -0.0649 0.5619 0.6370
H14 H -0.2077 0.6432 0.5643
C22 C -0.0678(3) 0.8480(2) 0.4980(2)
H15 H -0.1637 0.8394 0.4549
H16 H 0.0110 0.8936 0.4481
H17 H -0.1022 0.8905 0.5584
C23 C 0.3481(3) 0.82926(19) 0.56145(18)
H18 H 0.2869 0.9066 0.5264
C24 C 0.4767(3) 0.8620(2) 0.6371(2)
H19 H 0.5479 0.7903 0.6679
H20 H 0.4213 0.8938 0.6989
H21 H 0.5428 0.9227 0.5928
C25 C 0.4303(3) 0.7791(2) 0.4644(2)
H22 H 0.5032 0.8367 0.4227
H23 H 0.3463 0.7649 0.4140
H24 H 0.4942 0.7035 0.4941
C26 C 0.2644(3) 0.57659(18) 0.71470(18)
H25 H 0.1670 0.5410 0.7558
C27 C 0.3205(4) 0.4953(2) 0.6326(2)
H26 H 0.4228 0.5213 0.5951
H27 H 0.2359 0.5001 0.5762
H28 H 0.3388 0.4125 0.6739
C28 C 0.3947(3) 0.5708(2) 0.8044(2)
H29 H 0.4116 0.4887 0.8474
H30 H 0.3576 0.6246 0.8552
H31 H 0.4980 0.5956 0.7677
Si1A Si -0.18960(7) 1.26683(5) 1.35775(5)
C1A C -0.3125(2) 1.12645(17) 1.00798(16)
H1A H -0.3370 1.1682 1.0674
C2A C -0.1565(2) 1.06342(17) 1.00472(16)
C3A C -0.1164(2) 1.00118(17) 0.91595(16)
C4A C -0.2391(2) 1.00530(17) 0.83384(17)
H2A H -0.2161 0.9648 0.7734
C5A C -0.3875(2) 1.06581(17) 0.84040(17)
H3A H -0.4661 1.0658 0.7845
C6A C -0.4301(2) 1.12970(17) 0.92850(16)
C7A C -0.7084(2) 1.20476(18) 0.85092(17)
H4A H -0.6816 1.1683 0.7883
C8A C -0.5927(2) 1.19620(17) 0.93348(17)
C9A C -0.6382(2) 1.25268(18) 1.02568(17)
H5A H -0.5613 1.2485 1.0836
C10A C -0.7876(3) 1.31227(18) 1.03352(18)
H6A H -0.8123 1.3490 1.0963
C11A C -1.0654(2) 1.37875(17) 0.95692(19)
H7A H -1.0947 1.4145 1.0197
C12A C -1.1768(3) 1.38388(18) 0.87401(19)
H8A H -1.2826 1.4237 0.8792
C13A C -1.1353(3) 1.3305(2) 0.78127(19)
H9A H -1.2132 1.3350 0.7240
C14A C -0.9840(3) 1.2723(2) 0.77246(18)
H10A H -0.9581 1.2360 0.7096
C15A C -0.8651(3) 1.26592(18) 0.85670(17)
C16A C -0.9072(2) 1.32067(17) 0.94969(17)
C17A C -0.0375(2) 1.06208(17) 1.08838(17)
C18A C -0.0766(2) 1.12710(17) 1.17599(16)
C19A C -0.1119(2) 1.18489(17) 1.24854(17)
C20A C -0.0126(3) 1.27622(19) 1.45109(17)
H11A H -0.0572 1.3140 1.5144
C21A C 0.1151(3) 1.3563(2) 1.3867(2)
H12A H 0.1542 1.3250 1.3203
H13A H 0.0649 1.4381 1.3630
H14A H 0.2077 1.3568 1.4357
C22A C 0.0678(3) 1.1520(2) 1.5020(2)
H15A H 0.1637 1.1606 1.5451
H16A H -0.0110 1.1064 1.5519
H17A H 0.1022 1.1095 1.4416
C23A C -0.3481(3) 1.17074(19) 1.43855(18)
H18A H -0.2869 1.0934 1.4736
C24A C -0.4767(3) 1.1380(2) 1.3629(2)
H19A H -0.5479 1.2097 1.3321
H20A H -0.4213 1.1062 1.3011
H21A H -0.5428 1.0773 1.4072
C25A C -0.4303(3) 1.2209(2) 1.5356(2)
H22A H -0.5032 1.1633 1.5773
H23A H -0.3463 1.2351 1.5860
H24A H -0.4942 1.2965 1.5059
C26A C -0.2644(3) 1.42341(18) 1.28530(18)
H25A H -0.1670 1.4590 1.2442
C27A C -0.3205(4) 1.5047(2) 1.3674(2)
H26A H -0.4228 1.4787 1.4049
H27A H -0.2359 1.4999 1.4238
H28A H -0.3388 1.5875 1.3261
C28A C -0.3947(3) 1.4292(2) 1.1956(2)
H29A H -0.4116 1.5113 1.1526
H30A H -0.3576 1.3754 1.1448
H31A H -0.4980 1.4044 1.2323
loop_
_geom_bond_atom_site_label_1
_geom_bond_atom_site_label_2
_geom_bond_site_symmetry_1
_geom_bond_site_symmetry_2
Si1 C19 1_555 1_555
C1 H1 1_555 1_555
C2 C1 1_555 1_555
C3 C2 1_555 1_555
C4 C3 1_555 1_555
H2 C4 1_555 1_555
C5 C4 1_555 1_555
H3 C5 1_555 1_555
C6 C1 1_555 1_555
C7 H4 1_555 1_555
C8 C6 1_555 1_555
C9 C8 1_555 1_555
H5 C9 1_555 1_555
C10 C9 1_555 1_555
H6 C10 1_555 1_555
C11 H7 1_555 1_555
C12 C11 1_555 1_555
H8 C12 1_555 1_555
C13 C12 1_555 1_555
H9 C13 1_555 1_555
C14 C13 1_555 1_555
H10 C14 1_555 1_555
C15 C7 1_555 1_555
C16 C10 1_555 1_555
C17 C2 1_555 1_555
C18 C17 1_555 1_555
C19 C18 1_555 1_555
C20 Si1 1_555 1_555
H11 C20 1_555 1_555
C21 C20 1_555 1_555
H12 C21 1_555 1_555
H13 C21 1_555 1_555
H14 C21 1_555 1_555
C22 C20 1_555 1_555
H15 C22 1_555 1_555
H16 C22 1_555 1_555
H17 C22 1_555 1_555
C23 Si1 1_555 1_555
H18 C23 1_555 1_555
C24 C23 1_555 1_555
H19 C24 1_555 1_555
H20 C24 1_555 1_555
H21 C24 1_555 1_555
C25 C23 1_555 1_555
H22 C25 1_555 1_555
H23 C25 1_555 1_555
H24 C25 1_555 1_555
C26 Si1 1_555 1_555
H25 C26 1_555 1_555
C27 C26 1_555 1_555
H26 C27 1_555 1_555
H27 C27 1_555 1_555
H28 C27 1_555 1_555
C28 C26 1_555 1_555
H29 C28 1_555 1_555
H30 C28 1_555 1_555
H31 C28 1_555 1_555
Si1A C19A 1_555 1_555
C1A H1A 1_555 1_555
C2A C1A 1_555 1_555
C3A C17 1_555 1_555
C4A C3A 1_555 1_555
H2A C4A 1_555 1_555
C5A C4A 1_555 1_555
H3A C5A 1_555 1_555
C6A C1A 1_555 1_555
C7A H4A 1_555 1_555
C8A C6A 1_555 1_555
C9A C8A 1_555 1_555
H5A C9A 1_555 1_555
C10A C9A 1_555 1_555
H6A C10A 1_555 1_555
C11A H7A 1_555 1_555
C12A C11A 1_555 1_555
H8A C12A 1_555 1_555
C13A C12A 1_555 1_555
H9A C13A 1_555 1_555
C14A C13A 1_555 1_555
H10A C14A 1_555 1_555
C15A C7A 1_555 1_555
C16A C10A 1_555 1_555
C17A C3 1_555 1_555
C18A C17A 1_555 1_555
C19A C18A 1_555 1_555
C20A Si1A 1_555 1_555
H11A C20A 1_555 1_555
C21A C20A 1_555 1_555
H12A C21A 1_555 1_555
H13A C21A 1_555 1_555
H14A C21A 1_555 1_555
C22A C20A 1_555 1_555
H15A C22A 1_555 1_555
H16A C22A 1_555 1_555
H17A C22A 1_555 1_555
C23A Si1A 1_555 1_555
H18A C23A 1_555 1_555
C24A C23A 1_555 1_555
H19A C24A 1_555 1_555
H20A C24A 1_555 1_555
H21A C24A 1_555 1_555
C25A C23A 1_555 1_555
H22A C25A 1_555 1_555
H23A C25A 1_555 1_555
H24A C25A 1_555 1_555
C26A Si1A 1_555 1_555
H25A C26A 1_555 1_555
C27A C26A 1_555 1_555
H26A C27A 1_555 1_555
H27A C27A 1_555 1_555
H28A C27A 1_555 1_555
C28A C26A 1_555 1_555
H29A C28A 1_555 1_555
H30A C28A 1_555 1_555
H31A C28A 1_555 1_555
C5 C6 1_555 1_555
C7 C8 1_555 1_555
C11 C16 1_555 1_555
C14 C15 1_555 1_555
C15 C16 1_555 1_555
C2A C3A 1_555 1_555
C2A C17A 1_555 1_555
C5A C6A 1_555 1_555
C7A C8A 1_555 1_555
C11A C16A 1_555 1_555
C14A C15A 1_555 1_555
C15A C16A 1_555 1_555

#END
