
#######################################################################
#
#                 Cambridge Crystallographic Data Centre
#                                CCDC 
#
#######################################################################
#
# If this CIF has been generated from an entry in the Cambridge 
# Structural Database, then it will include bibliographic, chemical, 
# crystal, experimental, refinement or atomic coordinate data resulting 
# from the CCDC's data processing and validation procedures.
#
#######################################################################

data_SUJYEC
_chemical_formula_moiety         'C26 H25 N1 O2'
_chemical_name_systematic        
8-(2,3-Dimethoxyphenyl)-10,11,12,13-tetrahydro-9H-benzo[f]cyclohepta[c]quinoline
_symmetry_cell_setting           triclinic
_symmetry_space_group_name_H-M   'P -1'
_symmetry_Int_Tables_number      2
_space_group_name_Hall           '-P 1'
loop_
_symmetry_equiv_pos_site_id
_symmetry_equiv_pos_as_xyz
1 x,y,z
2 -x,-y,-z
_cell_length_a                   8.1490(16)
_cell_length_b                   9.2550(19)
_cell_length_c                   14.373(3)
_cell_angle_alpha                86.96(3)
_cell_angle_beta                 89.66(3)
_cell_angle_gamma                70.32(3)
_cell_volume                     1019.16
_exptl_crystal_colour            'pale yellow'
_exptl_crystal_description       block
_chemical_melting_point          '399-401 K'
_cell_formula_units_Z            2
loop_
_atom_site_label
_atom_site_type_symbol
_atom_site_fract_x
_atom_site_fract_y
_atom_site_fract_z
N1 N 0.5523(3) 0.5874(3) 0.32999(16)
O1 O 0.2886(3) 0.9864(2) 0.27467(13)
O2 O 0.2214(3) 1.2155(2) 0.39303(15)
C1 C 0.4348(5) 1.0199(4) 0.2375(2)
H1 H 0.4181 1.0433 0.1716
H2 H 0.5384 0.9325 0.2488
H3 H 0.4466 1.1066 0.2670
C2 C 0.1812(6) 1.3363(4) 0.4544(3)
H4 H 0.1552 1.4325 0.4191
H5 H 0.2792 1.3219 0.4950
H6 H 0.0819 1.3367 0.4908
C3 C 0.2619(4) 1.0685(3) 0.4318(2)
C4 C 0.2666(4) 1.0316(4) 0.5261(2)
H7 H 0.2410 1.1090 0.5682
C5 C 0.3091(5) 0.8799(4) 0.5585(2)
H8 H 0.3119 0.8559 0.6223
C6 C 0.3470(5) 0.7647(4) 0.4975(2)
H9 H 0.3750 0.6630 0.5199
C7 C 0.3439(4) 0.7992(3) 0.4019(2)
C8 C 0.3007(4) 0.9503(3) 0.36982(19)
C9 C 0.3856(4) 0.6737(3) 0.33492(19)
C10 C 0.2525(4) 0.6436(3) 0.28542(19)
C11 C 0.0639(4) 0.7347(4) 0.3037(2)
H10 H 0.0597 0.8056 0.3517
H11 H 0.0062 0.6644 0.3275
C12 C -0.0368(4) 0.8253(4) 0.2185(2)
H12 H -0.1341 0.9108 0.2390
H13 H 0.0388 0.8676 0.1823
C13 C -0.1059(4) 0.7314(4) 0.1562(2)
H14 H -0.1745 0.7993 0.1064
H15 H -0.1837 0.6916 0.1924
C14 C 0.0307(4) 0.5974(4) 0.1128(2)
H16 H 0.0997 0.6376 0.0703
H17 H -0.0280 0.5435 0.0766
C15 C 0.1534(4) 0.4824(4) 0.1832(2)
H18 H 0.0843 0.4636 0.2347
H19 H 0.2051 0.3860 0.1536
C16 C 0.2989(4) 0.5288(3) 0.22267(19)
C17 C 0.4763(4) 0.4535(3) 0.20435(19)
C18 C 0.5481(4) 0.3491(3) 0.1292(2)
C19 C 0.7272(4) 0.2551(3) 0.1330(2)
C20 C 0.8362(4) 0.2714(3) 0.2056(2)
H20 H 0.9509 0.2051 0.2106
C21 C 0.7770(4) 0.3799(4) 0.2666(2)
H21 H 0.8539 0.3926 0.3104
C22 C 0.5977(4) 0.4780(3) 0.26692(19)
C23 C 0.4540(4) 0.3447(4) 0.0488(2)
H22 H 0.3394 0.4106 0.0418
C24 C 0.5256(5) 0.2465(4) -0.0196(2)
H23 H 0.4589 0.2460 -0.0717
C25 C 0.6957(5) 0.1480(4) -0.0124(3)
H24 H 0.7417 0.0786 -0.0582
C26 C 0.7962(4) 0.1532(4) 0.0623(2)
H25 H 0.9117 0.0884 0.0664
loop_
_geom_bond_atom_site_label_1
_geom_bond_atom_site_label_2
_geom_bond_site_symmetry_1
_geom_bond_site_symmetry_2
N1 C9 1_555 1_555
O1 C1 1_555 1_555
O2 C2 1_555 1_555
C1 H1 1_555 1_555
H2 C1 1_555 1_555
H3 C1 1_555 1_555
C2 H4 1_555 1_555
H5 C2 1_555 1_555
H6 C2 1_555 1_555
C3 O2 1_555 1_555
C4 C3 1_555 1_555
H7 C4 1_555 1_555
C5 C4 1_555 1_555
H8 C5 1_555 1_555
C6 C5 1_555 1_555
H9 C6 1_555 1_555
C7 C6 1_555 1_555
C8 O1 1_555 1_555
C9 C7 1_555 1_555
C10 C9 1_555 1_555
C11 C10 1_555 1_555
H10 C11 1_555 1_555
H11 C11 1_555 1_555
C12 C11 1_555 1_555
H12 C12 1_555 1_555
H13 C12 1_555 1_555
C13 C12 1_555 1_555
H14 C13 1_555 1_555
H15 C13 1_555 1_555
C14 C13 1_555 1_555
H16 C14 1_555 1_555
H17 C14 1_555 1_555
C15 C14 1_555 1_555
H18 C15 1_555 1_555
H19 C15 1_555 1_555
C16 C10 1_555 1_555
C17 C16 1_555 1_555
C18 C17 1_555 1_555
C19 C18 1_555 1_555
C20 C19 1_555 1_555
H20 C20 1_555 1_555
C21 C20 1_555 1_555
H21 C21 1_555 1_555
C22 N1 1_555 1_555
C23 C18 1_555 1_555
H22 C23 1_555 1_555
C24 C23 1_555 1_555
H23 C24 1_555 1_555
C25 C24 1_555 1_555
H24 C25 1_555 1_555
C26 C19 1_555 1_555
H25 C26 1_555 1_555
C3 C8 1_555 1_555
C7 C8 1_555 1_555
C15 C16 1_555 1_555
C17 C22 1_555 1_555
C21 C22 1_555 1_555
C25 C26 1_555 1_555

#END
