
#######################################################################
#
#                 Cambridge Crystallographic Data Centre
#                                CCDC 
#
#######################################################################
#
# If this CIF has been generated from an entry in the Cambridge 
# Structural Database, then it will include bibliographic, chemical, 
# crystal, experimental, refinement or atomic coordinate data resulting 
# from the CCDC's data processing and validation procedures.
#
#######################################################################

data_SUKTOI
_chemical_formula_moiety         'C18 H19 Br1 N2 O3'
_chemical_name_systematic        
(S)-5-Bromo-3-(4-(dimethylamino)-2-methoxyphenyl)-3-hydroxy-1-methyl-1,3-dihydro-2H-indol-2-one
_symmetry_cell_setting           orthorhombic
_symmetry_space_group_name_H-M   'P 21 21 21'
_symmetry_Int_Tables_number      19
_space_group_name_Hall           'P 2ac 2ab'
loop_
_symmetry_equiv_pos_site_id
_symmetry_equiv_pos_as_xyz
1 x,y,z
2 1/2-x,-y,1/2+z
3 -x,1/2+y,1/2-z
4 1/2+x,1/2-y,-z
_cell_length_a                   7.9221(5)
_cell_length_b                   9.0507(6)
_cell_length_c                   23.7598(16)
_cell_angle_alpha                90
_cell_angle_beta                 90
_cell_angle_gamma                90
_cell_volume                     1703.59
_exptl_crystal_colour            colorless
_exptl_crystal_description       'cut block'
_cell_formula_units_Z            4
_exptl_crystal_recrystallization_method dichloromethane/hexanes
loop_
_atom_site_label
_atom_site_type_symbol
_atom_site_fract_x
_atom_site_fract_y
_atom_site_fract_z
Br1 Br 0.78773(3) -0.40402(2) 0.990105(8)
C1 C 0.9157(2) -0.22627(19) 0.90101(8)
H1 H 1.013(3) -0.214(3) 0.9207(10)
C2 C 0.9040(2) -0.1594(2) 0.84870(8)
C3 C 0.7750(3) -0.30621(19) 0.91916(7)
C4 C 0.6299(2) -0.3188(2) 0.88747(9)
H2 H 0.544(3) -0.368(3) 0.9018(11)
C5 C 0.6176(2) -0.2481(2) 0.83527(8)
H3 H 0.520(3) -0.257(3) 0.8147(10)
C6 C 0.7563(2) -0.16924(19) 0.81724(7)
N1 N 0.7755(2) -0.09002(18) 0.76661(6)
C7 C 0.9303(2) -0.0248(2) 0.76338(8)
O1 O 0.98010(18) 0.05412(15) 0.72518(6)
C8 C 1.0363(2) -0.07684(19) 0.81511(7)
O2 O 1.16530(16) -0.17348(16) 0.79534(6)
H4 H 1.129(3) -0.247(3) 0.7919(10)
C9 C 1.1191(2) 0.04945(19) 0.84636(7)
C10 C 1.0324(2) 0.1793(2) 0.85816(7)
O3 O 0.86909(16) 0.18411(15) 0.83953(6)
C11 C 1.1068(2) 0.2932(2) 0.88923(7)
H5 H 1.043(3) 0.380(3) 0.8970(10)
C12 C 1.2706(2) 0.27635(19) 0.91072(7)
N2 N 1.34750(19) 0.38670(18) 0.94346(7)
C13 C 1.3580(2) 0.1451(2) 0.89905(8)
H6 H 1.470(3) 0.134(2) 0.9113(10)
C14 C 1.2831(3) 0.0353(2) 0.86700(7)
H7 H 1.338(4) -0.044(3) 0.8578(12)
C15 C 0.6434(3) -0.0752(3) 0.72473(8)
H8 H 0.681(3) -0.011(3) 0.6957(11)
H9 H 0.543(4) -0.038(3) 0.7389(12)
H10 H 0.623(3) -0.162(3) 0.7087(10)
C16 C 0.7723(3) 0.3155(2) 0.84965(8)
H11 H 0.761(3) 0.334(3) 0.8907(10)
H12 H 0.669(3) 0.292(3) 0.8318(11)
H13 H 0.822(3) 0.398(3) 0.8315(10)
C17 C 1.2488(3) 0.5174(3) 0.95556(11)
H14 H 1.218(3) 0.563(3) 0.9214(10)
H15 H 1.321(3) 0.589(3) 0.9743(11)
H16 H 1.151(4) 0.499(3) 0.9800(12)
C18 C 1.4397(3) 0.3328(3) 0.99256(10)
H17 H 1.377(4) 0.283(4) 1.0154(14)
H18 H 1.475(3) 0.410(3) 1.0136(11)
H19 H 1.541(5) 0.278(4) 0.9813(14)
loop_
_geom_bond_atom_site_label_1
_geom_bond_atom_site_label_2
_geom_bond_site_symmetry_1
_geom_bond_site_symmetry_2
Br1 C3 1_555 1_555
C1 H1 1_555 1_555
C2 C1 1_555 1_555
C3 C1 1_555 1_555
C4 C3 1_555 1_555
H2 C4 1_555 1_555
C5 C4 1_555 1_555
H3 C5 1_555 1_555
C6 C2 1_555 1_555
N1 C6 1_555 1_555
C7 N1 1_555 1_555
O1 C7 1_555 1_555
C8 C2 1_555 1_555
O2 C8 1_555 1_555
H4 O2 1_555 1_555
C9 C8 1_555 1_555
C10 C9 1_555 1_555
O3 C10 1_555 1_555
C11 C10 1_555 1_555
H5 C11 1_555 1_555
C12 C11 1_555 1_555
N2 C12 1_555 1_555
C13 C12 1_555 1_555
H6 C13 1_555 1_555
C14 C9 1_555 1_555
H7 C14 1_555 1_555
C15 N1 1_555 1_555
H8 C15 1_555 1_555
H9 C15 1_555 1_555
H10 C15 1_555 1_555
C16 O3 1_555 1_555
H11 C16 1_555 1_555
H12 C16 1_555 1_555
H13 C16 1_555 1_555
C17 N2 1_555 1_555
H14 C17 1_555 1_555
H15 C17 1_555 1_555
H16 C17 1_555 1_555
C18 N2 1_555 1_555
H17 C18 1_555 1_555
H18 C18 1_555 1_555
H19 C18 1_555 1_555
C5 C6 1_555 1_555
C7 C8 1_555 1_555
C13 C14 1_555 1_555

#END
