
#######################################################################
#
#                 Cambridge Crystallographic Data Centre
#                                CCDC 
#
#######################################################################
#
# If this CIF has been generated from an entry in the Cambridge 
# Structural Database, then it will include bibliographic, chemical, 
# crystal, experimental, refinement or atomic coordinate data resulting 
# from the CCDC's data processing and validation procedures.
#
#######################################################################

data_SUKWUR
_chemical_formula_moiety         'C18 H18 Br1 F1 O4'
_chemical_name_systematic        
'Methyl 7-bromo-5-(4-fluorophenyl)-1-hydroxy-2-oxaspiro[5.5]undeca-3,7-diene-3-carboxylate'
_symmetry_cell_setting           monoclinic
_symmetry_space_group_name_H-M   'P 21/n'
_symmetry_Int_Tables_number      14
_space_group_name_Hall           '-P 2yn'
loop_
_symmetry_equiv_pos_site_id
_symmetry_equiv_pos_as_xyz
1 x,y,z
2 1/2-x,1/2+y,1/2-z
3 -x,-y,-z
4 1/2+x,1/2-y,1/2+z
_cell_length_a                   7.4024(7)
_cell_length_b                   25.390(2)
_cell_length_c                   9.0616(9)
_cell_angle_alpha                90
_cell_angle_beta                 95.936(3)
_cell_angle_gamma                90
_cell_volume                     1693.97
_exptl_crystal_colour            colorless
_exptl_crystal_description       block
_cell_formula_units_Z            4
loop_
_atom_site_label
_atom_site_type_symbol
_atom_site_fract_x
_atom_site_fract_y
_atom_site_fract_z
Br1 Br 0.64352(6) 0.10711(2) -0.01202(6)
F1 F -0.0598(3) 0.25881(11) 0.3594(3)
O1 O 1.0274(4) 0.07295(12) 0.7199(4)
O2 O 0.9328(4) 0.15620(12) 0.7350(3)
O3 O 0.7129(3) 0.00531(12) 0.2750(3)
O4 O 0.7927(3) 0.05681(11) 0.4762(3)
C1 C 0.5488(5) 0.08621(14) 0.2882(5)
C2 C 0.5891(5) 0.14473(14) 0.3326(4)
C3 C 0.7179(5) 0.14750(17) 0.4713(5)
C4 C 0.8062(5) 0.10643(17) 0.5335(5)
C5 C 0.7324(5) 0.05674(17) 0.3192(5)
C6 C 0.4831(5) 0.08039(17) 0.1254(5)
C7 C 0.3328(6) 0.05767(18) 0.0683(5)
C8 C 0.1954(5) 0.0369(2) 0.1624(5)
C9 C 0.2152(5) 0.06176(18) 0.3142(5)
C10 C 0.4122(5) 0.05931(16) 0.3814(5)
C11 C 0.4193(5) 0.17740(14) 0.3438(5)
C12 C 0.3255(5) 0.19813(16) 0.2158(5)
C13 C 0.1640(6) 0.22542(17) 0.2212(5)
C14 C 0.0998(5) 0.23208(18) 0.3543(6)
C15 C 0.1879(5) 0.21418(18) 0.4827(5)
C16 C 0.3487(5) 0.18581(16) 0.4777(5)
C17 C 0.9351(5) 0.10873(18) 0.6711(5)
C18 C 1.0609(6) 0.16427(19) 0.8631(5)
H1 H 0.6520 0.1603 0.2532
H2 H 0.7371 0.1802 0.5167
H3 H 0.8241 0.0739 0.2649
H4 H 0.3114 0.0544 -0.0342
H5 H 0.3719 0.1936 0.1252
H6 H 0.1012 0.2388 0.1352
H7 H 0.1421 0.2207 0.5728
H8 H 0.4089 0.1724 0.5649
H9 H 0.2109 -0.0009 0.1729
H10 H 0.0749 0.0444 0.1144
H11 H 0.1396 0.0430 0.3780
H12 H 0.1769 0.0983 0.3060
H13 H 0.4462 0.0226 0.3936
H14 H 0.4206 0.0763 0.4778
H15 H 1.0499 0.1996 0.8987
H16 H 1.1818 0.1588 0.8368
H17 H 1.0366 0.1398 0.9395
H18 H 0.8186 -0.0088 0.2930
loop_
_geom_bond_atom_site_label_1
_geom_bond_atom_site_label_2
_geom_bond_site_symmetry_1
_geom_bond_site_symmetry_2
Br1 C6 1_555 1_555
F1 C14 1_555 1_555
O1 C17 1_555 1_555
O2 C17 1_555 1_555
O3 C5 1_555 1_555
O4 C4 1_555 1_555
C1 C2 1_555 1_555
C2 C3 1_555 1_555
C3 C4 1_555 1_555
C4 C17 1_555 1_555
C5 O4 1_555 1_555
C6 C1 1_555 1_555
C7 C6 1_555 1_555
C8 C7 1_555 1_555
C9 C8 1_555 1_555
C10 C1 1_555 1_555
C11 C2 1_555 1_555
C12 C11 1_555 1_555
C13 C12 1_555 1_555
C14 C13 1_555 1_555
C15 C14 1_555 1_555
C16 C11 1_555 1_555
C18 O2 1_555 1_555
H1 C2 1_555 1_555
H2 C3 1_555 1_555
H3 C5 1_555 1_555
H4 C7 1_555 1_555
H5 C12 1_555 1_555
H6 C13 1_555 1_555
H7 C15 1_555 1_555
H8 C16 1_555 1_555
H9 C8 1_555 1_555
H10 C8 1_555 1_555
H11 C9 1_555 1_555
H12 C9 1_555 1_555
H13 C10 1_555 1_555
H14 C10 1_555 1_555
H15 C18 1_555 1_555
H16 C18 1_555 1_555
H17 C18 1_555 1_555
H18 O3 1_555 1_555
C1 C5 1_555 1_555
C9 C10 1_555 1_555
C15 C16 1_555 1_555

#END
