
#######################################################################
#
#                 Cambridge Crystallographic Data Centre
#                                CCDC 
#
#######################################################################
#
# If this CIF has been generated from an entry in the Cambridge 
# Structural Database, then it will include bibliographic, chemical, 
# crystal, experimental, refinement or atomic coordinate data resulting 
# from the CCDC's data processing and validation procedures.
#
#######################################################################

data_SULAMD12
_chemical_name_common            Sulfanilamide
_chemical_formula_moiety         'C6 H8 N2 O2 S1'
_chemical_name_systematic        4-aminobenzenesulfonamide
_symmetry_cell_setting           orthorhombic
_symmetry_space_group_name_H-M   'P b c a'
_symmetry_Int_Tables_number      61
_space_group_name_Hall           '-P 2ac 2ab'
loop_
_symmetry_equiv_pos_site_id
_symmetry_equiv_pos_as_xyz
1 x,y,z
2 1/2-x,-y,1/2+z
3 -x,1/2+y,1/2-z
4 1/2+x,1/2-y,-z
5 -x,-y,-z
6 1/2+x,y,1/2-z
7 x,1/2-y,1/2+z
8 1/2-x,1/2+y,z
_cell_length_a                   14.7840(10)
_cell_length_b                   5.670(3)
_cell_length_c                   18.492(4)
_cell_angle_alpha                90
_cell_angle_beta                 90
_cell_angle_gamma                90
_cell_volume                     1550.1
_exptl_crystal_colour            colorless
_exptl_crystal_description       block
_cell_formula_units_Z            8
loop_
_atom_site_label
_atom_site_type_symbol
_atom_site_fract_x
_atom_site_fract_y
_atom_site_fract_z
S1 S 0.89452(3) 0.24760(7) 0.43985(2)
O1 O 0.84121(9) 0.4565(2) 0.45463(8)
O2 O 0.98944(10) 0.25361(17) 0.45610(7)
N1 N 0.85320(12) 0.0357(3) 0.48820(10)
N2 N 0.86702(16) 0.0477(5) 0.12706(11)
C1 C 0.88121(11) 0.1815(3) 0.34790(9)
C2 C 0.92033(14) -0.0238(3) 0.31914(11)
C3 C 0.91582(14) -0.0664(4) 0.24665(12)
C4 C 0.87391(13) 0.0938(4) 0.19993(10)
C5 C 0.83425(13) 0.2965(4) 0.22925(12)
C6 C 0.83812(13) 0.3409(4) 0.30264(10)
H1 H 0.9459(12) -0.1288(35) 0.3499(11)
H2 H 0.8173(13) 0.4836(35) 0.3209(10)
H3 H 0.8037(14) 0.4134(36) 0.1950(11)
H4 H 0.9409(13) -0.1936(38) 0.2279(13)
H5 H 0.7932(16) -0.0028(35) 0.4760(13)
H6 H 0.9044(17) -0.0575(46) 0.1120(16)
H7 H 0.8448(21) 0.1758(56) 0.0979(20)
H8 H 0.8871(20) -0.0889(42) 0.4911(16)
loop_
_geom_bond_atom_site_label_1
_geom_bond_atom_site_label_2
_geom_bond_site_symmetry_1
_geom_bond_site_symmetry_2
S1 O1 1_555 1_555
O2 S1 1_555 1_555
N1 S1 1_555 1_555
N2 C4 1_555 1_555
C1 S1 1_555 1_555
C2 C1 1_555 1_555
C3 C2 1_555 1_555
C4 C3 1_555 1_555
C5 C4 1_555 1_555
C6 C1 1_555 1_555
H1 C2 1_555 1_555
H2 C6 1_555 1_555
H3 C5 1_555 1_555
H4 C3 1_555 1_555
H5 N1 1_555 1_555
H6 N2 1_555 1_555
H7 N2 1_555 1_555
H8 N1 1_555 1_555
C5 C6 1_555 1_555

#END
