
#######################################################################
#
#                 Cambridge Crystallographic Data Centre
#                                CCDC 
#
#######################################################################
#
# If this CIF has been generated from an entry in the Cambridge 
# Structural Database, then it will include bibliographic, chemical, 
# crystal, experimental, refinement or atomic coordinate data resulting 
# from the CCDC's data processing and validation procedures.
#
#######################################################################

data_SULCAF
_chemical_formula_moiety         'C29 H22 N2 O2'
_chemical_name_systematic        
3,4-bis(4-Methoxyphenyl)-2-phenylimidazo[5,1,2-cd]indolizine
_symmetry_cell_setting           triclinic
_symmetry_space_group_name_H-M   'P -1'
_symmetry_Int_Tables_number      2
_space_group_name_Hall           '-P 1'
loop_
_symmetry_equiv_pos_site_id
_symmetry_equiv_pos_as_xyz
1 x,y,z
2 -x,-y,-z
_cell_length_a                   9.5933(10)
_cell_length_b                   10.9297(12)
_cell_length_c                   11.8168(14)
_cell_angle_alpha                103.578(2)
_cell_angle_beta                 103.645(2)
_cell_angle_gamma                101.554(2)
_cell_volume                     1126.71
_exptl_crystal_colour            yellow
_exptl_crystal_description       block
_cell_formula_units_Z            2
loop_
_atom_site_label
_atom_site_type_symbol
_atom_site_fract_x
_atom_site_fract_y
_atom_site_fract_z
C1 C 0.8727(2) 0.95850(19) 1.29411(16)
C2 C 0.88956(18) 1.12585(17) 1.22260(15)
C3 C 0.80546(18) 1.01438(16) 1.12095(15)
C4 C 0.72773(18) 0.94879(17) 0.99340(14)
C5 C 0.68349(19) 0.81491(17) 0.97837(15)
C6 C 0.73265(19) 0.79290(17) 1.09472(16)
C7 C 0.7336(2) 0.69585(19) 1.15143(18)
H1 H 0.6883 0.6086 1.1072
C8 C 0.8043(2) 0.7319(2) 1.27686(18)
H2 H 0.8053 0.6657 1.3140
C9 C 0.8729(2) 0.8595(2) 1.34950(17)
H3 H 0.9178 0.8783 1.4327
C10 C 0.59446(19) 0.70996(17) 0.86499(15)
C11 C 0.6404(2) 0.60009(18) 0.82367(17)
H4 H 0.7305 0.5925 0.8682
C12 C 0.5566(2) 0.50108(18) 0.71830(17)
H5 H 0.5903 0.4284 0.6923
C13 C 0.4227(2) 0.51145(17) 0.65224(15)
C14 C 0.3733(2) 0.61946(17) 0.69334(16)
H6 H 0.2819 0.6257 0.6500
C15 C 0.4580(2) 0.71720(18) 0.79736(16)
H7 H 0.4238 0.7896 0.8232
C16 C 0.70282(18) 1.00792(16) 0.89203(14)
C17 C 0.7739(2) 0.98219(18) 0.80350(16)
H8 H 0.8380 0.9288 0.8095
C18 C 0.7525(2) 1.03341(18) 0.70666(16)
H9 H 0.8021 1.0149 0.6486
C19 C 0.6577(2) 1.11179(18) 0.69619(16)
C20 C 0.5849(2) 1.1380(2) 0.78285(18)
H10 H 0.5205 1.1910 0.7762
C21 C 0.6067(2) 1.08642(19) 0.87916(17)
H11 H 0.5562 1.1045 0.9366
C22 C 0.93799(19) 1.26249(17) 1.22535(16)
C23 C 0.9043(2) 1.3006(2) 1.12107(19)
H12 H 0.8506 1.2382 1.0469
C24 C 0.9490(3) 1.4300(2) 1.1253(2)
H13 H 0.9231 1.4543 1.0545
C25 C 1.0310(2) 1.5229(2) 1.2328(2)
H14 H 1.0628 1.6099 1.2352
C26 C 1.0657(3) 1.4866(2) 1.3364(2)
H15 H 1.1212 1.5495 1.4099
C27 C 1.0198(2) 1.3585(2) 1.33395(18)
H16 H 1.0438 1.3357 1.4058
C28 C 0.3751(3) 0.3094(2) 0.49654(18)
H17 H 0.4704 0.3358 0.4837
H18 H 0.3027 0.2579 0.4203
H19 H 0.3820 0.2583 0.5525
C29 C 0.6931(3) 1.1351(2) 0.50781(19)
H20 H 0.7996 1.1674 0.5398
H21 H 0.6576 1.1747 0.4463
H22 H 0.6660 1.0419 0.4727
N1 N 0.92794(16) 1.08987(15) 1.32675(13)
N2 N 0.80156(16) 0.91583(14) 1.17253(12)
O1 O 0.33095(15) 0.42254(12) 0.54573(11)
O2 O 0.62818(17) 1.16668(14) 0.60357(12)
loop_
_geom_bond_atom_site_label_1
_geom_bond_atom_site_label_2
_geom_bond_site_symmetry_1
_geom_bond_site_symmetry_2
C1 C9 1_555 1_555
C2 C3 1_555 1_555
C3 C4 1_555 1_555
C4 C5 1_555 1_555
C5 C6 1_555 1_555
C6 C7 1_555 1_555
C7 H1 1_555 1_555
C8 C7 1_555 1_555
H2 C8 1_555 1_555
C9 C8 1_555 1_555
H3 C9 1_555 1_555
C10 C5 1_555 1_555
C11 C10 1_555 1_555
H4 C11 1_555 1_555
C12 C11 1_555 1_555
H5 C12 1_555 1_555
C13 C12 1_555 1_555
C14 C13 1_555 1_555
H6 C14 1_555 1_555
C15 C10 1_555 1_555
H7 C15 1_555 1_555
C16 C4 1_555 1_555
C17 C16 1_555 1_555
H8 C17 1_555 1_555
C18 C17 1_555 1_555
H9 C18 1_555 1_555
C19 C18 1_555 1_555
C20 C19 1_555 1_555
H10 C20 1_555 1_555
C21 C16 1_555 1_555
H11 C21 1_555 1_555
C22 C2 1_555 1_555
C23 C22 1_555 1_555
H12 C23 1_555 1_555
C24 C23 1_555 1_555
H13 C24 1_555 1_555
C25 C24 1_555 1_555
H14 C25 1_555 1_555
C26 C25 1_555 1_555
H15 C26 1_555 1_555
C27 C22 1_555 1_555
H16 C27 1_555 1_555
C28 H17 1_555 1_555
H18 C28 1_555 1_555
H19 C28 1_555 1_555
C29 H20 1_555 1_555
H21 C29 1_555 1_555
H22 C29 1_555 1_555
N1 C1 1_555 1_555
N2 C1 1_555 1_555
O1 C13 1_555 1_555
O2 C19 1_555 1_555
C2 N1 1_555 1_555
C3 N2 1_555 1_555
C6 N2 1_555 1_555
C14 C15 1_555 1_555
C20 C21 1_555 1_555
C26 C27 1_555 1_555
C28 O1 1_555 1_555
C29 O2 1_555 1_555

#END
