
#######################################################################
#
#                 Cambridge Crystallographic Data Centre
#                                CCDC 
#
#######################################################################
#
# If this CIF has been generated from an entry in the Cambridge 
# Structural Database, then it will include bibliographic, chemical, 
# crystal, experimental, refinement or atomic coordinate data resulting 
# from the CCDC's data processing and validation procedures.
#
#######################################################################

data_SULDAZ
_chemical_name_common            Sulfadiazine
_chemical_formula_moiety         'C10 H10 N4 O2 S1'
_chemical_name_systematic        4-Amino-N-(2-pyrimidinyl)-benzenesulfonamide
_chemical_properties_biological  'Sulfadiazine is a sulfonamide antibiotic.'
_symmetry_cell_setting           monoclinic
_symmetry_space_group_name_H-M   'P 21/c'
_symmetry_Int_Tables_number      14
_space_group_name_Hall           '-P 2ybc'
loop_
_symmetry_equiv_pos_site_id
_symmetry_equiv_pos_as_xyz
1 x,y,z
2 -x,1/2+y,1/2-z
3 -x,-y,-z
4 x,1/2-y,1/2+z
_cell_length_a                   13.71(4)
_cell_length_b                   5.84(3)
_cell_length_c                   15.11(5)
_cell_angle_alpha                90
_cell_angle_beta                 115.0(3)
_cell_angle_gamma                90
_cell_volume                     1096.45
_cell_formula_units_Z            4
loop_
_atom_site_label
_atom_site_type_symbol
_atom_site_fract_x
_atom_site_fract_y
_atom_site_fract_z
C1 C 0.43700 0.26700 -0.43600
C2 C 0.12500 0.21700 -0.44800
C3 C 0.61000 0.39100 -0.35900
C4 C 0.46900 0.56700 -0.33500
C5 C 0.57600 0.55900 -0.31400
C6 C 0.18700 0.05700 -0.47300
C7 C 0.20500 -0.15300 -0.43100
C8 C 0.16400 -0.21700 -0.36400
C9 C 0.10500 -0.05400 -0.33700
C10 C 0.08900 0.15400 -0.37800
N1 N 0.36800 0.11100 -0.50200
N2 N 0.39500 0.41700 -0.39700
N3 N 0.53900 0.24600 -0.42100
N4 N 0.06600 -0.12000 -0.26700
O1 O 0.20400 0.36200 -0.58900
O2 O 0.20900 -0.03700 -0.63100
S1 S 0.23500 0.13270 -0.55810
loop_
_geom_bond_atom_site_label_1
_geom_bond_atom_site_label_2
_geom_bond_site_symmetry_1
_geom_bond_site_symmetry_2
C1 N1 1_555 1_555
C2 C6 1_555 1_555
C3 C5 1_555 1_555
C4 C5 1_555 1_555
C6 C7 1_555 1_555
C7 C8 1_555 1_555
C8 C9 1_555 1_555
C9 C10 1_555 1_555
C10 C2 1_555 1_555
N1 S1 1_555 1_555
N2 C1 1_555 1_555
N3 C1 1_555 1_555
N4 C9 1_555 1_555
O1 S1 1_555 1_555
O2 S1 1_555 1_555
S1 C6 1_555 1_555
C3 N3 1_555 1_555
C4 N2 1_555 1_555

#END
