
#######################################################################
#
#                 Cambridge Crystallographic Data Centre
#                                CCDC 
#
#######################################################################
#
# If this CIF has been generated from an entry in the Cambridge 
# Structural Database, then it will include bibliographic, chemical, 
# crystal, experimental, refinement or atomic coordinate data resulting 
# from the CCDC's data processing and validation procedures.
#
#######################################################################

data_SUMMIW
_chemical_formula_moiety         'C20 H40 O10'
_chemical_name_systematic        30-Crown-10
_symmetry_cell_setting           orthorhombic
_symmetry_space_group_name_H-M   'P b c a'
_symmetry_Int_Tables_number      61
_space_group_name_Hall           '-P 2ac 2ab'
loop_
_symmetry_equiv_pos_site_id
_symmetry_equiv_pos_as_xyz
1 x,y,z
2 1/2-x,1/2+y,z
3 x,1/2-y,1/2+z
4 1/2-x,-y,1/2+z
5 -x,-y,-z
6 1/2+x,1/2-y,-z
7 -x,1/2+y,1/2-z
8 1/2+x,y,1/2-z
_cell_length_a                   8.606(1)
_cell_length_b                   8.260(1)
_cell_length_c                   33.310(4)
_cell_angle_alpha                90
_cell_angle_beta                 90
_cell_angle_gamma                90
_cell_volume                     2367.86
_chemical_melting_point          46-48deg.C
_cell_formula_units_Z            4
loop_
_atom_site_label
_atom_site_type_symbol
_atom_site_fract_x
_atom_site_fract_y
_atom_site_fract_z
O1 O 0.7548(1) 0.1373(2) 0.3192(1)
C1 C 0.6772(2) 0.0696(3) 0.3531(1)
C2 C 0.7913(2) 0.0476(3) 0.3858(1)
O2 O 0.7092(1) -0.0058(2) 0.4199(1)
C3 C 0.8048(2) -0.0603(3) 0.4515(1)
C4 C 0.7024(2) -0.0962(3) 0.4860(1)
O3 O 0.7912(1) -0.1520(2) 0.5187(1)
C5 C 0.6968(2) -0.2082(3) 0.5505(1)
C6 C 0.7955(2) -0.2408(3) 0.5861(1)
O4 O 0.6971(1) -0.2938(2) 0.6172(1)
C7 C 0.7778(2) -0.3371(3) 0.6526(1)
C8 C 0.6634(2) -0.3761(2) 0.6847(1)
O5 O 0.5801(1) -0.2347(1) 0.6954(1)
C9 C 0.4497(2) -0.2665(3) 0.7204(1)
C10 C 0.6673(2) 0.1337(3) 0.2833(1)
H1 H 0.6325 -0.0332 0.3462
H2 H 0.5958 0.1406 0.3619
H3 H 0.8678 -0.0311 0.3781
H4 H 0.8422 0.1486 0.3913
H5 H 0.8788 0.0217 0.4588
H6 H 0.8595 -0.1564 0.4437
H7 H 0.6473 0.0004 0.4933
H8 H 0.6282 -0.1772 0.4783
H9 H 0.6457 -0.3064 0.5426
H10 H 0.6196 -0.1288 0.5572
H11 H 0.8708 -0.3228 0.5799
H12 H 0.8485 -0.1434 0.5938
H13 H 0.8410 -0.2485 0.6616
H14 H 0.8441 -0.4281 0.6473
H15 H 0.7139 -0.4209 0.7079
H16 H 0.5917 -0.4547 0.6744
H17 H 0.4829 -0.2782 0.7477
H18 H 0.4014 -0.3658 0.7121
H19 H 0.6115 0.0332 0.2821
H20 H 0.7368 0.1371 0.2608
C10D C 0.3327(2) -0.1337(3) 0.7167(1)
C9D C 0.5503(2) 0.2665(3) 0.2796(1)
O1D O 0.2452(1) -0.1373(2) 0.6808(1)
H19D H 0.3885 -0.0332 0.7179
H20D H 0.2632 -0.1371 0.7392
O5D O 0.4199(1) 0.2347(1) 0.3046(1)
H17D H 0.5171 0.2782 0.2523
H18D H 0.5986 0.3658 0.2879
C1D C 0.3228(2) -0.0696(3) 0.6469(1)
C8D C 0.3366(2) 0.3761(2) 0.3153(1)
C2D C 0.2087(2) -0.0476(3) 0.6142(1)
H1D H 0.3675 0.0332 0.6538
H2D H 0.4042 -0.1406 0.6381
C7D C 0.2222(2) 0.3371(3) 0.3474(1)
H15D H 0.2861 0.4209 0.2921
H16D H 0.4083 0.4547 0.3256
O2D O 0.2908(1) 0.0058(2) 0.5801(1)
H3D H 0.1322 0.0311 0.6219
H4D H 0.1578 -0.1486 0.6087
O4D O 0.3029(1) 0.2938(2) 0.3828(1)
H13D H 0.1590 0.2485 0.3384
H14D H 0.1559 0.4281 0.3527
C3D C 0.1952(2) 0.0603(3) 0.5485(1)
C6D C 0.2045(2) 0.2408(3) 0.4139(1)
C4D C 0.2976(2) 0.0962(3) 0.5140(1)
H5D H 0.1212 -0.0217 0.5412
H6D H 0.1405 0.1564 0.5563
C5D C 0.3032(2) 0.2082(3) 0.4495(1)
H11D H 0.1292 0.3228 0.4201
H12D H 0.1515 0.1434 0.4062
O3D O 0.2088(1) 0.1520(2) 0.4813(1)
H7D H 0.3527 -0.0004 0.5067
H8D H 0.3718 0.1772 0.5217
H9D H 0.3543 0.3064 0.4574
H10D H 0.3804 0.1288 0.4428
loop_
_geom_bond_atom_site_label_1
_geom_bond_atom_site_label_2
_geom_bond_site_symmetry_1
_geom_bond_site_symmetry_2
O1 C1 1_555 1_555
C1 C2 1_555 1_555
C2 O2 1_555 1_555
O2 C3 1_555 1_555
C3 C4 1_555 1_555
C4 O3 1_555 1_555
O3 C5 1_555 1_555
C5 C6 1_555 1_555
C6 O4 1_555 1_555
O4 C7 1_555 1_555
C7 C8 1_555 1_555
C8 O5 1_555 1_555
O5 C9 1_555 1_555
C9 H17 1_555 1_555
C10 O1 1_555 1_555
H1 C1 1_555 1_555
H2 C1 1_555 1_555
H3 C2 1_555 1_555
H4 C2 1_555 1_555
H5 C3 1_555 1_555
H6 C3 1_555 1_555
H7 C4 1_555 1_555
H8 C4 1_555 1_555
H9 C5 1_555 1_555
H10 C5 1_555 1_555
H11 C6 1_555 1_555
H12 C6 1_555 1_555
H13 C7 1_555 1_555
H14 C7 1_555 1_555
H15 C8 1_555 1_555
H16 C8 1_555 1_555
H18 C9 1_555 1_555
H19 C10 1_555 1_555
H20 C10 1_555 1_555
C10D C9 1_555 1_555
C9D C10 1_555 1_555
O1D C10D 1_555 1_555
H19D C10D 1_555 1_555
H20D C10D 1_555 1_555
O5D C9D 1_555 1_555
H17D C9D 1_555 1_555
H18D C9D 1_555 1_555
C1D O1D 1_555 1_555
C8D O5D 1_555 1_555
C2D C1D 1_555 1_555
H1D C1D 1_555 1_555
H2D C1D 1_555 1_555
C7D C8D 1_555 1_555
H15D C8D 1_555 1_555
H16D C8D 1_555 1_555
O2D C2D 1_555 1_555
H3D C2D 1_555 1_555
H4D C2D 1_555 1_555
O4D C7D 1_555 1_555
H13D C7D 1_555 1_555
H14D C7D 1_555 1_555
C3D O2D 1_555 1_555
C6D O4D 1_555 1_555
C4D C3D 1_555 1_555
H5D C3D 1_555 1_555
H6D C3D 1_555 1_555
C5D C6D 1_555 1_555
H11D C6D 1_555 1_555
H12D C6D 1_555 1_555
O3D C4D 1_555 1_555
H7D C4D 1_555 1_555
H8D C4D 1_555 1_555
H9D C5D 1_555 1_555
H10D C5D 1_555 1_555
C5D O3D 1_555 1_555

#END
