
#######################################################################
#
#                 Cambridge Crystallographic Data Centre
#                                CCDC 
#
#######################################################################
#
# If this CIF has been generated from an entry in the Cambridge 
# Structural Database, then it will include bibliographic, chemical, 
# crystal, experimental, refinement or atomic coordinate data resulting 
# from the CCDC's data processing and validation procedures.
#
#######################################################################

data_SUNCAG
_chemical_formula_moiety         'C12 H18 O2 S2'
_chemical_name_systematic        1,4-bis(2-(methylsulfanyl)ethoxy)benzene
_symmetry_cell_setting           triclinic
_symmetry_space_group_name_H-M   'P -1'
_symmetry_Int_Tables_number      2
_space_group_name_Hall           '-P 1'
loop_
_symmetry_equiv_pos_site_id
_symmetry_equiv_pos_as_xyz
1 x,y,z
2 -x,-y,-z
_cell_length_a                   6.1764(3)
_cell_length_b                   6.4503(3)
_cell_length_c                   9.1643(4)
_cell_angle_alpha                70.153(2)
_cell_angle_beta                 76.056(2)
_cell_angle_gamma                82.728(2)
_cell_volume                     332.895
_exptl_crystal_colour            colorless
_exptl_crystal_description       plate
_cell_formula_units_Z            1
loop_
_atom_site_label
_atom_site_type_symbol
_atom_site_fract_x
_atom_site_fract_y
_atom_site_fract_z
S1 S 1.36676(5) 1.08091(5) 0.19396(4)
O1 O 0.91654(14) 0.62528(14) 0.31341(11)
C1 C 1.2284(3) 1.2973(2) 0.05944(18)
H1 H 1.2476 1.2655 -0.0403
H2 H 1.2935 1.4383 0.0381
H3 H 1.0689 1.3061 0.1072
C2 C 1.2326(2) 0.8429(2) 0.20344(15)
H4 H 1.2193 0.8547 0.0954
H5 H 1.3264 0.7084 0.2429
C3 C 1.0027(2) 0.8217(2) 0.31128(15)
H6 H 1.0126 0.8116 0.4197
H7 H 0.9042 0.9516 0.2704
C4 C 0.70868(19) 0.56999(19) 0.40773(14)
C5 C 0.5845(2) 0.68734(19) 0.50525(14)
H8 H 0.6413 0.8150 0.5092
C6 C 0.6234(2) 0.3844(2) 0.40332(14)
H9 H 0.7083 0.3047 0.3367
S1A S -0.36676(5) -0.08091(5) 0.80604(4)
O1A O 0.08346(14) 0.37472(14) 0.68659(11)
C1A C -0.2284(3) -0.2973(2) 0.94056(18)
H1A H -0.2476 -0.2655 1.0403
H2A H -0.2935 -0.4383 0.9619
H3A H -0.0689 -0.3061 0.8928
C2A C -0.2326(2) 0.1571(2) 0.79656(15)
H4A H -0.2193 0.1453 0.9046
H5A H -0.3264 0.2916 0.7571
C3A C -0.0027(2) 0.1783(2) 0.68872(15)
H6A H -0.0126 0.1884 0.5803
H7A H 0.0958 0.0484 0.7296
C4A C 0.29132(19) 0.43001(19) 0.59227(14)
C5A C 0.4155(2) 0.31266(19) 0.49475(14)
H8A H 0.3587 0.1850 0.4908
C6A C 0.3766(2) 0.6156(2) 0.59668(14)
H9A H 0.2917 0.6953 0.6633
loop_
_geom_bond_atom_site_label_1
_geom_bond_atom_site_label_2
_geom_bond_site_symmetry_1
_geom_bond_site_symmetry_2
S1 C1 1_555 1_555
O1 C3 1_555 1_555
C1 H1 1_555 1_555
H2 C1 1_555 1_555
H3 C1 1_555 1_555
C2 S1 1_555 1_555
H4 C2 1_555 1_555
H5 C2 1_555 1_555
C3 C2 1_555 1_555
H6 C3 1_555 1_555
H7 C3 1_555 1_555
C4 O1 1_555 1_555
C5 C4 1_555 1_555
H8 C5 1_555 1_555
C6 C4 1_555 1_555
H9 C6 1_555 1_555
S1A C1A 1_555 1_555
O1A C3A 1_555 1_555
C1A H1A 1_555 1_555
H2A C1A 1_555 1_555
H3A C1A 1_555 1_555
C2A S1A 1_555 1_555
H4A C2A 1_555 1_555
H5A C2A 1_555 1_555
C3A C2A 1_555 1_555
H6A C3A 1_555 1_555
H7A C3A 1_555 1_555
C4A O1A 1_555 1_555
C5A C6 1_555 1_555
H8A C5A 1_555 1_555
C6A C5 1_555 1_555
H9A C6A 1_555 1_555
C4A C5A 1_555 1_555
C4A C6A 1_555 1_555

#END
