
#######################################################################
#
#                 Cambridge Crystallographic Data Centre
#                                CCDC 
#
#######################################################################
#
# If this CIF has been generated from an entry in the Cambridge 
# Structural Database, then it will include bibliographic, chemical, 
# crystal, experimental, refinement or atomic coordinate data resulting 
# from the CCDC's data processing and validation procedures.
#
#######################################################################

data_SUNDOW
_chemical_name_common            'Methylammonium ethyl xanthate'
_chemical_formula_moiety         'C3 H5 O1 S2 1-,C1 H6 N1 1+'
_chemical_name_systematic        'Methylammonium O-ethyl carbonodithioate'
_symmetry_cell_setting           orthorhombic
_symmetry_space_group_name_H-M   'P b c a'
_symmetry_Int_Tables_number      61
_space_group_name_Hall           '-P 2ac 2ab'
loop_
_symmetry_equiv_pos_site_id
_symmetry_equiv_pos_as_xyz
1 x,y,z
2 1/2-x,-y,1/2+z
3 1/2+x,1/2-y,-z
4 -x,1/2+y,1/2-z
5 -x,-y,-z
6 1/2+x,y,1/2-z
7 1/2-x,1/2+y,z
8 x,1/2-y,1/2+z
_cell_length_a                   9.5460(19)
_cell_length_b                   7.8860(16)
_cell_length_c                   20.902(4)
_cell_angle_alpha                90
_cell_angle_beta                 90
_cell_angle_gamma                90
_cell_volume                     1573.5
_exptl_crystal_colour            colorless
_exptl_crystal_description       plates
_cell_formula_units_Z            8
_chemical_properties_physical    Moisture-sensitive
_exptl_crystal_recrystallization_method Methanol
loop_
_atom_site_label
_atom_site_type_symbol
_atom_site_fract_x
_atom_site_fract_y
_atom_site_fract_z
S1 S 0.73715(4) 0.60072(5) 0.292352(18)
S2 S 0.47897(4) 0.49777(5) 0.36389(2)
O1 O 0.74214(12) 0.44673(15) 0.39985(5)
C1 C 0.68652(18) 0.3528(2) 0.45424(8)
H1 H 0.6391 0.2480 0.4397
H2 H 0.6184 0.4229 0.4782
C2 C 0.65431(18) 0.51002(19) 0.35565(7)
C3 C 0.8108(2) 0.3105(3) 0.49555(8)
H3 H 0.8564 0.4155 0.5095
H4 H 0.8774 0.2420 0.4710
H5 H 0.7794 0.2463 0.5331
N1 N 0.52749(14) 0.38696(19) 0.19885(7)
H6 H 0.4385 0.4254 0.2046
H7 H 0.5806 0.4148 0.2334
H8 H 0.5262 0.2722 0.1942
C4 C 0.5879(2) 0.4656(3) 0.14078(8)
H9 H 0.5343 0.4297 0.1032
H10 H 0.6857 0.4298 0.1361
H11 H 0.5838 0.5893 0.1447
loop_
_geom_bond_atom_site_label_1
_geom_bond_atom_site_label_2
_geom_bond_site_symmetry_1
_geom_bond_site_symmetry_2
S1 C2 1_555 1_555
S2 C2 1_555 1_555
O1 C1 1_555 1_555
C1 H1 1_555 1_555
H2 C1 1_555 1_555
C2 O1 1_555 1_555
C3 C1 1_555 1_555
H3 C3 1_555 1_555
H4 C3 1_555 1_555
H5 C3 1_555 1_555
N1 H6 1_555 1_555
H7 N1 1_555 1_555
H8 N1 1_555 1_555
C4 N1 1_555 1_555
H9 C4 1_555 1_555
H10 C4 1_555 1_555
H11 C4 1_555 1_555

#END
