
#######################################################################
#
#                 Cambridge Crystallographic Data Centre
#                                CCDC 
#
#######################################################################
#
# If this CIF has been generated from an entry in the Cambridge 
# Structural Database, then it will include bibliographic, chemical, 
# crystal, experimental, refinement or atomic coordinate data resulting 
# from the CCDC's data processing and validation procedures.
#
#######################################################################

data_SUNFAK
_chemical_name_common            'trimethylammonium ethyl xanthate'
_chemical_formula_moiety         'C3 H10 N1 1+,C3 H5 O1 S2 1-'
_chemical_name_systematic        'trimethylammonium O-ethyl carbonodithioate'
_symmetry_cell_setting           monoclinic
_symmetry_space_group_name_H-M   'P 21/n'
_symmetry_Int_Tables_number      14
_space_group_name_Hall           '-P 2yn'
loop_
_symmetry_equiv_pos_site_id
_symmetry_equiv_pos_as_xyz
1 x,y,z
2 1/2-x,1/2+y,1/2-z
3 -x,-y,-z
4 1/2+x,1/2-y,1/2+z
_cell_length_a                   5.5570(11)
_cell_length_b                   14.237(3)
_cell_length_c                   12.691(3)
_cell_angle_alpha                90
_cell_angle_beta                 99.73(3)
_cell_angle_gamma                90
_cell_volume                     989.605
_exptl_crystal_colour            yellow
_exptl_crystal_description       needles
_cell_formula_units_Z            4
_exptl_crystal_recrystallization_method Methanol
loop_
_atom_site_label
_atom_site_type_symbol
_atom_site_fract_x
_atom_site_fract_y
_atom_site_fract_z
S1 S 0.13331(6) 0.77623(2) 0.73730(3)
S2 S 0.09444(6) 0.96721(2) 0.63684(3)
O1 O -0.11799(18) 0.91004(7) 0.79747(7)
C1 C 0.0297(2) 0.88849(9) 0.72629(9)
C2 C -0.3773(3) 1.00635(11) 0.88250(12)
H1 H -0.4945 0.9545 0.8784
H2 H -0.4648 1.0663 0.8796
H3 H -0.2615 1.0022 0.9498
C3 C -0.2406(3) 1.00023(10) 0.78969(11)
H4 H -0.3553 1.0051 0.7212
H5 H -0.1201 1.0518 0.7933
N1 N 0.35613(19) 0.79483(8) 0.51448(8)
C4 C 0.5064(3) 0.70986(10) 0.54462(12)
H6 H 0.5627 0.6845 0.4813
H7 H 0.4080 0.6625 0.5739
H8 H 0.6477 0.7265 0.5986
C5 C 0.1362(2) 0.77196(9) 0.43425(11)
H9 H 0.0413 0.8293 0.4150
H10 H 0.0355 0.7262 0.4647
H11 H 0.1870 0.7454 0.3702
C6 C 0.5001(2) 0.87067(9) 0.47422(11)
H12 H 0.6418 0.8859 0.5287
H13 H 0.3978 0.9266 0.4585
H14 H 0.5559 0.8495 0.4089
H15 H 0.3105 0.8204 0.5707
loop_
_geom_bond_atom_site_label_1
_geom_bond_atom_site_label_2
_geom_bond_site_symmetry_1
_geom_bond_site_symmetry_2
S1 C1 1_555 1_555
S2 C1 1_555 1_555
O1 C1 1_555 1_555
C2 H1 1_555 1_555
H2 C2 1_555 1_555
H3 C2 1_555 1_555
C3 O1 1_555 1_555
H4 C3 1_555 1_555
H5 C3 1_555 1_555
N1 C4 1_555 1_555
C4 H6 1_555 1_555
H7 C4 1_555 1_555
H8 C4 1_555 1_555
C5 N1 1_555 1_555
H9 C5 1_555 1_555
H10 C5 1_555 1_555
H11 C5 1_555 1_555
C6 N1 1_555 1_555
H12 C6 1_555 1_555
H13 C6 1_555 1_555
H14 C6 1_555 1_555
H15 N1 1_555 1_555
C2 C3 1_555 1_555

#END
