
#######################################################################
#
#                 Cambridge Crystallographic Data Centre
#                                CCDC 
#
#######################################################################
#
# If this CIF has been generated from an entry in the Cambridge 
# Structural Database, then it will include bibliographic, chemical, 
# crystal, experimental, refinement or atomic coordinate data resulting 
# from the CCDC's data processing and validation procedures.
#
#######################################################################

data_SUNFEO01
_chemical_name_common            'tetramethylammonium ethylxanthate'
_chemical_formula_moiety         'C4 H12 N1 1+,C3 H5 O1 S2 1-'
_chemical_name_systematic        
'N,N,N,N-tetramethylaminium O-ethyl carbonodithioate'
_symmetry_cell_setting           orthorhombic
_symmetry_space_group_name_H-M   'P m n 21'
_symmetry_Int_Tables_number      31
_space_group_name_Hall           'P 2ac -2'
loop_
_symmetry_equiv_pos_site_id
_symmetry_equiv_pos_as_xyz
1 x,y,z
2 1/2-x,-y,1/2+z
3 -x,y,z
4 1/2+x,-y,1/2+z
_cell_length_a                   6.9768(3)
_cell_length_b                   15.7100(7)
_cell_length_c                   9.9524(4)
_cell_angle_alpha                90
_cell_angle_beta                 90
_cell_angle_gamma                90
_cell_volume                     1090.84
_exptl_crystal_colour            yellow
_exptl_crystal_description       block
_cell_formula_units_Z            4
_exptl_crystal_recrystallization_method Methanol
loop_
_atom_site_label
_atom_site_type_symbol
_atom_site_fract_x
_atom_site_fract_y
_atom_site_fract_z
S1 S 0.5000 0.7716(7) 0.1693(13)
S2 S 0.5000 0.5810(7) 0.1509(11)
C1 C 0.5000 0.6743(3) 0.2359(4)
C2 C 0.5000 0.7350(3) 0.4598(5)
C3 C 0.5000 0.6992(3) 0.5991(5)
O1 O 0.5000 0.6627(3) 0.3710(5)
H1 H 0.3739(10) 0.7734(5) 0.4396(8)
H2 H 0.3726(16) 0.6605(7) 0.6141(9)
H3 H 0.5000 0.7493(9) 0.6727(14)
H1B H 0.6261(10) 0.7734(5) 0.4396(8)
H2B H 0.6274(16) 0.6605(7) 0.6141(9)
S3 S 1.0000 0.8764(7) 0.4187(12)
S4 S 1.0000 0.8392(9) 0.7145(13)
C4 C 1.0000 0.6901(3) 0.3965(4)
C5 C 1.0000 0.8095(2) 0.5478(4)
C6 C 1.0000 0.5952(3) 0.4124(6)
O2 O 1.0000 0.7253(3) 0.5310(5)
H4 H 1.1259(10) 0.7131(5) 0.3428(7)
H5 H 1.0000 0.5654(9) 0.3153(13)
H6 H 1.1251(16) 0.5733(5) 0.4659(11)
H4B H 0.8741(10) 0.7131(5) 0.3428(7)
H6B H 0.8749(16) 0.5733(5) 0.4659(11)
N1 N 0.5000 1.01058(18) 0.5459(4)
C7 C 0.5000 0.9635(3) 0.4141(5)
C8 C 0.5000 0.9481(3) 0.6575(5)
C9 C 0.3259(5) 1.0650(2) 0.5540(4)
H7 H 0.3719(10) 0.9249(4) 0.4089(8)
H8 H 0.2004(12) 1.0236(6) 0.5492(13)
H9 H 0.3697(14) 0.9101(6) 0.6501(9)
H10 H 0.3242(14) 1.1072(6) 0.4693(10)
H11 H 0.3311(14) 1.1004(6) 0.6476(10)
H12 H 0.5000 0.9835(8) 0.7539(13)
H13 H 0.5000 1.0086(8) 0.3332(12)
C9B C 0.6741(5) 1.0650(2) 0.5540(4)
H7B H 0.6281(10) 0.9249(4) 0.4089(8)
H8B H 0.7996(12) 1.0236(6) 0.5492(13)
H9B H 0.6303(14) 0.9101(6) 0.6501(9)
H10B H 0.6758(14) 1.1072(6) 0.4693(10)
H11B H 0.6689(14) 1.1004(6) 0.6476(10)
N2 N 0.5000 0.38392(19) 0.4363(3)
C10 C 0.5000 0.3115(3) 0.5315(5)
C11 C 0.6734(5) 0.3793(2) 0.3500(3)
C12 C 0.5000 0.4658(3) 0.5108(5)
H14 H 0.7987(10) 0.3808(6) 0.4134(9)
H15 H 0.3723(10) 0.4675(5) 0.5733(8)
H16 H 0.5000 0.5174(6) 0.4366(13)
H17 H 0.6665(11) 0.3208(5) 0.2935(7)
H18 H 0.3707(12) 0.3151(5) 0.5939(8)
H19 H 0.6710(12) 0.4334(6) 0.2822(8)
H20 H 0.5000 0.2546(7) 0.4733(13)
C11B C 0.3266(5) 0.3793(2) 0.3500(3)
H14B H 0.2013(10) 0.3808(6) 0.4134(9)
H15B H 0.6277(10) 0.4675(5) 0.5733(8)
H17B H 0.3335(11) 0.3208(5) 0.2935(7)
H18B H 0.6293(12) 0.3151(5) 0.5939(8)
H19B H 0.3290(12) 0.4334(6) 0.2822(8)
loop_
_geom_bond_atom_site_label_1
_geom_bond_atom_site_label_2
_geom_bond_site_symmetry_1
_geom_bond_site_symmetry_2
S1 C1 1_555 1_555
S2 C1 1_555 1_555
C1 O1 1_555 1_555
C2 C3 1_555 1_555
C3 H2 1_555 1_555
O1 C2 1_555 1_555
H1 C2 1_555 1_555
H3 C3 1_555 1_555
S3 C5 1_555 1_555
S4 C5 1_555 1_555
C4 C6 1_555 1_555
C5 O2 1_555 1_555
C6 H5 1_555 1_555
O2 C4 1_555 1_555
H4 C4 1_555 1_555
H6 C6 1_555 1_555
N1 C7 1_555 1_555
C7 H7 1_555 1_555
C8 N1 1_555 1_555
C9 N1 1_555 1_555
H8 C9 1_555 1_555
H9 C8 1_555 1_555
H10 C9 1_555 1_555
H11 C9 1_555 1_555
H12 C8 1_555 1_555
H13 C7 1_555 1_555
N2 C10 1_555 1_555
C10 H18 1_555 1_555
C11 N2 1_555 1_555
C12 N2 1_555 1_555
H14 C11 1_555 1_555
H15 C12 1_555 1_555
H16 C12 1_555 1_555
H17 C11 1_555 1_555
H19 C11 1_555 1_555
H20 C10 1_555 1_555
H1B C2 1_555 1_555
H2B C3 1_555 1_555
H4B C4 1_555 1_555
H6B C6 1_555 1_555
C9B N1 1_555 1_555
H7B C7 1_555 1_555
H8B C9B 1_555 1_555
H9B C8 1_555 1_555
H10B C9B 1_555 1_555
H11B C9B 1_555 1_555
C11B N2 1_555 1_555
H14B C11B 1_555 1_555
H15B C12 1_555 1_555
H17B C11B 1_555 1_555
H18B C10 1_555 1_555
H19B C11B 1_555 1_555

#END
