
#######################################################################
#
#                 Cambridge Crystallographic Data Centre
#                                CCDC 
#
#######################################################################
#
# If this CIF has been generated from an entry in the Cambridge 
# Structural Database, then it will include bibliographic, chemical, 
# crystal, experimental, refinement or atomic coordinate data resulting 
# from the CCDC's data processing and validation procedures.
#
#######################################################################

data_SUNGEN
_chemical_formula_moiety         'C18 H28 N4 2+,2(B1 F4 1-)'
_chemical_name_systematic        
'4,9-Di-t-butyl-4,9-diazonia-5,10-diaza-hexacyclo(6.2.2.2^3,6^.0^2,7^.0^11,14^.0^12,13^)tetradeca-4,9-diene bis(tetrafluoroborate)'
_symmetry_cell_setting           monoclinic
_symmetry_space_group_name_H-M   'P 21/c'
_symmetry_Int_Tables_number      14
_space_group_name_Hall           '-P 2ybc'
loop_
_symmetry_equiv_pos_site_id
_symmetry_equiv_pos_as_xyz
1 x,y,z
2 -x,1/2+y,1/2-z
3 -x,-y,-z
4 x,1/2-y,1/2+z
_cell_length_a                   13.6902(8)
_cell_length_b                   13.7896(7)
_cell_length_c                   45.391(6)
_cell_angle_alpha                90
_cell_angle_beta                 95.730(8)
_cell_angle_gamma                90
_cell_volume                     8526.21
_exptl_crystal_colour            colorless
_cell_formula_units_Z            16
loop_
_atom_site_label
_atom_site_type_symbol
_atom_site_fract_x
_atom_site_fract_y
_atom_site_fract_z
N1 N 0.7180(2) 0.2475(2) -0.03641(6)
N2 N 0.6409(2) 0.2452(2) -0.02387(6)
N3 N 0.8338(2) 0.3531(2) 0.06561(6)
N4 N 0.9114(2) 0.3540(2) 0.05350(6)
C1 C 0.8024(2) 0.3028(2) -0.02303(7)
H1 H 0.8575(2) 0.2987(2) -0.03450(7)
C2 C 0.8294(2) 0.2695(2) 0.00928(7)
H2 H 0.8633(2) 0.2085(2) 0.01058(7)
C3 C 0.8947(2) 0.3548(2) 0.02109(7)
H3 H 0.9559(2) 0.3545(2) 0.01247(7)
C4 C 0.8308(2) 0.4427(2) 0.01038(7)
H4 H 0.8646(2) 0.5035(2) 0.00957(7)
C5 C 0.7698(2) 0.4080(2) -0.01879(7)
H5 H 0.7699(2) 0.4499(2) -0.03568(7)
C6 C 0.6483(2) 0.3026(2) 0.00333(7)
H6 H 0.5878(2) 0.2997(2) 0.01235(7)
C7 C 0.7357(2) 0.2683(2) 0.02523(7)
H7 H 0.7241(2) 0.2072(2) 0.03442(7)
C8 C 0.7394(2) 0.3541(3) 0.04726(7)
H8 H 0.6850(2) 0.3540(3) 0.05906(7)
C9 C 0.7371(2) 0.4426(3) 0.02651(7)
H9 H 0.7185(2) 0.5033(3) 0.03466(7)
C10 C 0.6763(2) 0.4078(3) -0.00261(7)
H10 H 0.6240(2) 0.4497(3) -0.01042(7)
C11 C 0.7231(3) 0.1961(3) -0.06593(7)
C12 C 0.6255(3) 0.1452(3) -0.07389(9)
H11 H 0.5729(3) 0.1935(3) -0.07672(9)
H12 H 0.6123(3) 0.1010(3) -0.05786(9)
H13 H 0.6283(3) 0.1082(3) -0.09223(9)
C13 C 0.8075(3) 0.1240(3) -0.06129(9)
H14 H 0.8691(3) 0.1591(3) -0.05621(9)
H15 H 0.8118(3) 0.0869(3) -0.07953(9)
H16 H 0.7958(3) 0.0796(3) -0.04515(9)
C14 C 0.7414(3) 0.2743(3) -0.08853(7)
H17 H 0.8046(3) 0.3057(3) -0.08281(7)
H18 H 0.6888(3) 0.3227(3) -0.08919(7)
H19 H 0.7423(3) 0.2446(3) -0.10812(7)
C15 C 0.8371(2) 0.3499(2) 0.09935(7)
C16 C 0.9436(2) 0.3492(3) 0.11208(7)
H20 H 0.9757(2) 0.2907(3) 0.10550(7)
H21 H 0.9472(2) 0.3498(3) 0.13375(7)
H22 H 0.9768(2) 0.4067(3) 0.10524(7)
C17 C 0.7827(3) 0.4398(3) 0.10885(7)
H23 H 0.7142(3) 0.4375(3) 0.10018(7)
H24 H 0.8143(3) 0.4982(3) 0.10197(7)
H25 H 0.7847(3) 0.4412(3) 0.13049(7)
C18 C 0.7840(3) 0.2565(3) 0.10666(7)
H26 H 0.7155(3) 0.2595(3) 0.09809(7)
H27 H 0.7862(3) 0.2493(3) 0.12820(7)
H28 H 0.8164(3) 0.2008(3) 0.09837(7)
N5 N 1.2938(2) 0.1760(2) -0.06689(6)
N6 N 1.3798(2) 0.1767(2) -0.05492(6)
N7 N 1.2431(2) 0.2615(2) 0.03699(6)
N8 N 1.1567(2) 0.2620(2) 0.02437(6)
C19 C 1.2124(2) 0.1698(3) -0.04831(7)
H29 H 1.1499(2) 0.1688(3) -0.05997(7)
C20 C 1.2197(2) 0.2510(3) -0.02520(7)
H30 H 1.1992(2) 0.3128(3) -0.03342(7)
C21 C 1.1493(2) 0.2104(3) -0.00380(7)
H31 H 1.0829(2) 0.2123(3) -0.01288(7)
C22 C 1.1851(2) 0.1048(3) 0.00060(7)
H32 H 1.1395(2) 0.0592(3) 0.00748(7)
C23 C 1.2275(2) 0.0781(3) -0.02907(7)
H33 H 1.2064(2) 0.0181(3) -0.03833(7)
C24 C 1.3846(2) 0.1719(3) -0.02252(7)
H34 H 1.4516(2) 0.1733(3) -0.01398(7)
C25 C 1.3240(2) 0.2530(3) -0.00908(7)
H35 H 1.3544(2) 0.3157(3) -0.00931(7)
C26 C 1.3206(2) 0.2127(2) 0.02254(7)
H36 H 1.3834(2) 0.2176(2) 0.03392(7)
C27 C 1.2900(2) 0.1067(3) 0.01658(7)
H37 H 1.3037(2) 0.0621(3) 0.03272(7)
C28 C 1.3321(2) 0.0805(3) -0.01304(7)
H38 H 1.3682(2) 0.0209(3) -0.01339(7)
C29 C 1.2754(2) 0.1753(3) -0.10060(7)
C30 C 1.3731(3) 0.1748(3) -0.11319(7)
H39 H 1.4087(3) 0.1152(3) -0.10719(7)
H40 H 1.4117(3) 0.2311(3) -0.10572(7)
H41 H 1.3626(3) 0.1778(3) -0.13484(7)
C31 C 1.2167(3) 0.2663(3) -0.10920(8)
H42 H 1.1538(3) 0.2640(3) -0.10063(8)
H43 H 1.2047(3) 0.2702(3) -0.13082(8)
H44 H 1.2538(3) 0.3235(3) -0.10170(8)
C32 C 1.2163(3) 0.0831(3) -0.10862(7)
H45 H 1.1535(3) 0.0862(3) -0.10006(7)
H46 H 1.2534(3) 0.0264(3) -0.10074(7)
H47 H 1.2043(3) 0.0777(3) -0.13021(7)
C33 C 1.2630(3) 0.3043(3) 0.06787(7)
C34 C 1.3476(3) 0.3764(3) 0.06706(8)
H48 H 1.4058(3) 0.3424(3) 0.06141(8)
H49 H 1.3625(3) 0.4055(3) 0.08670(8)
H50 H 1.3288(3) 0.4274(3) 0.05257(8)
C35 C 1.2927(3) 0.2185(3) 0.08809(7)
H51 H 1.3527(3) 0.1891(3) 0.08204(7)
H52 H 1.2399(3) 0.1703(3) 0.08661(7)
H53 H 1.3047(3) 0.2412(3) 0.10860(7)
C36 C 1.1704(3) 0.3520(3) 0.07648(8)
H54 H 1.1530(3) 0.4066(3) 0.06318(8)
H55 H 1.1815(3) 0.3755(3) 0.09691(8)
H56 H 1.1167(3) 0.3047(3) 0.07491(8)
N9 N 0.9211(2) 0.9847(2) 0.81866(6)
N10 N 0.9211(2) 1.0654(2) 0.80652(6)
N11 N 0.9887(2) 0.8971(2) 0.71656(6)
N12 N 0.9899(2) 0.8160(2) 0.72923(6)
C37 C 0.9090(2) 0.8971(2) 0.80020(7)
H57 H 0.9098(2) 0.8368(2) 0.81191(7)
C38 C 0.9877(2) 0.8955(2) 0.77845(7)
H58 H 1.0514(2) 0.8777(2) 0.78767(7)
C39 C 0.9417(3) 0.8180(2) 0.75631(7)
H59 H 0.9440(3) 0.7551(2) 0.76540(7)
C40 C 0.8353(2) 0.8545(3) 0.75052(7)
H60 H 0.7870(2) 0.8082(3) 0.74273(7)
C41 C 0.8135(3) 0.9069(2) 0.77948(7)
H61 H 0.7539(3) 0.8893(2) 0.78763(7)
C42 C 0.9095(3) 1.0598(2) 0.77420(7)
H62 H 0.9100(3) 1.1234(2) 0.76563(7)
C43 C 0.9880(3) 0.9940(2) 0.76238(7)
H63 H 1.0517(3) 1.0238(2) 0.76355(7)
C44 C 0.9422(2) 0.9796(2) 0.72997(7)
H64 H 0.9459(2) 1.0379(2) 0.71857(7)
C45 C 0.8358(3) 0.9532(3) 0.73441(7)
H65 H 0.7884(3) 0.9616(3) 0.71754(7)
C46 C 0.8140(3) 1.0056(3) 0.76339(7)
H66 H 0.7544(3) 1.0425(3) 0.76263(7)
C47 C 0.9367(3) 0.9783(3) 0.85232(7)
C48 C 0.9465(3) 1.0801(3) 0.86471(7)
H67 H 1.0044(3) 1.1113(3) 0.85784(7)
H68 H 0.9537(3) 1.0773(3) 0.88639(7)
H69 H 0.8877(3) 1.1176(3) 0.85793(7)
C49 C 0.8473(3) 0.9267(3) 0.86245(8)
H70 H 0.8430(3) 0.8611(3) 0.85410(8)
H71 H 0.7878(3) 0.9630(3) 0.85565(8)
H72 H 0.8538(3) 0.9228(3) 0.88412(8)
C50 C 1.0309(3) 0.9195(2) 0.85915(7)
H73 H 1.0215(3) 0.8543(2) 0.85078(7)
H74 H 1.0466(3) 0.9148(2) 0.88065(7)
H75 H 1.0850(3) 0.9517(2) 0.85041(7)
C51 C 1.0325(3) 0.9076(3) 0.68712(7)
C52 C 0.9453(3) 0.9305(3) 0.66434(7)
H76 H 0.9155(3) 0.9921(3) 0.66943(7)
H77 H 0.8964(3) 0.8785(3) 0.66441(7)
H78 H 0.9681(3) 0.9354(3) 0.64460(7)
C53 C 1.1035(3) 0.9918(3) 0.69048(9)
H79 H 1.0682(3) 1.0509(3) 0.69495(9)
H80 H 1.1339(3) 1.0007(3) 0.67200(9)
H81 H 1.1546(3) 0.9782(3) 0.70666(9)
C54 C 1.0807(3) 0.8133(3) 0.68018(9)
H82 H 1.0313(3) 0.7617(3) 0.67825(9)
H83 H 1.1314(3) 0.7972(3) 0.69621(9)
H84 H 1.1107(3) 0.8197(3) 0.66156(9)
N13 N 0.5071(2) 0.0559(2) 0.29061(6)
N14 N 0.4993(2) -0.0248(2) 0.27803(6)
N15 N 0.5589(2) 0.1407(2) 0.18687(6)
N16 N 0.5639(2) 0.2218(2) 0.19909(6)
C55 C 0.5530(2) 0.1365(2) 0.27633(7)
H85 H 0.5534(2) 0.1951(2) 0.28777(7)
C56 C 0.5017(3) 0.1518(2) 0.24466(7)
H86 H 0.4392(3) 0.1834(2) 0.24452(7)
C57 C 0.5802(3) 0.2147(2) 0.23135(7)
H87 H 0.5831(3) 0.2780(2) 0.24019(7)
C58 C 0.6746(3) 0.1575(2) 0.24055(7)
H88 H 0.7353(3) 0.1922(2) 0.24043(7)
C59 C 0.6563(2) 0.1055(2) 0.27011(7)
H89 H 0.7067(2) 0.1121(2) 0.28626(7)
C60 C 0.5422(3) -0.0248(2) 0.24978(7)
H90 H 0.5359(3) -0.0877(2) 0.24069(7)
C61 C 0.4959(3) 0.0542(2) 0.22840(7)
H91 H 0.4304(3) 0.0385(2) 0.22021(7)
C62 C 0.5700(2) 0.0527(2) 0.20518(7)
H92 H 0.5650(2) -0.0055(2) 0.19351(7)
C63 C 0.6688(2) 0.0596(2) 0.22448(7)
H93 H 0.7258(2) 0.0401(2) 0.21524(7)
C64 C 0.6503(3) 0.0071(3) 0.25388(7)
H94 H 0.6975(3) -0.0412(3) 0.26088(7)
C65 C 0.4724(3) 0.0683(3) 0.32146(7)
C66 C 0.4288(3) -0.0271(3) 0.33031(8)
H95 H 0.4795(3) -0.0775(3) 0.33135(8)
H96 H 0.3747(3) -0.0454(3) 0.31558(8)
H97 H 0.4040(3) -0.0200(3) 0.34973(8)
C67 C 0.3979(3) 0.1504(3) 0.31937(8)
H98 H 0.4295(3) 0.2103(3) 0.31361(8)
H99 H 0.3728(3) 0.1595(3) 0.33865(8)
H100 H 0.3435(3) 0.1342(3) 0.30451(8)
C68 C 0.5636(3) 0.0938(3) 0.34208(8)
H101 H 0.5905(3) 0.1556(3) 0.33595(8)
H102 H 0.6129(3) 0.0427(3) 0.34113(8)
H103 H 0.5461(3) 0.0994(3) 0.36242(8)
C69 C 0.5450(3) 0.1325(3) 0.15312(7)
C70 C 0.4520(3) 0.0751(3) 0.14545(8)
H104 H 0.4597(3) 0.0100(3) 0.15403(8)
H105 H 0.4389(3) 0.0701(3) 0.12389(8)
H106 H 0.3970(3) 0.1081(3) 0.15347(8)
C71 C 0.6354(3) 0.0798(3) 0.14447(7)
H107 H 0.6938(3) 0.1195(3) 0.14984(7)
H108 H 0.6285(3) 0.0682(3) 0.12306(7)
H109 H 0.6422(3) 0.0176(3) 0.15493(7)
C72 C 0.5375(3) 0.2343(3) 0.14039(7)
H110 H 0.5991(3) 0.2691(3) 0.14582(7)
H111 H 0.4833(3) 0.2687(3) 0.14836(7)
H112 H 0.5252(3) 0.2307(3) 0.11878(7)
B1 B 0.9912(3) 0.6035(3) 0.06334(8)
F1 F 0.89492(14) 0.57397(14) 0.06378(4)
F2 F 0.99525(15) 0.70345(15) 0.05929(5)
F3 F 1.0308(2) 0.5582(2) 0.03976(5)
F4 F 1.0457(2) 0.5788(2) 0.08930(5)
B2 B 0.7992(3) 0.8560(3) 0.19735(9)
F5 F 0.8210(2) 0.86350(15) 0.22787(4)
F6 F 0.7002(2) 0.8695(2) 0.18968(5)
F7 F 0.8265(2) 0.7658(2) 0.18790(5)
F8 F 0.8507(2) 0.9295(2) 0.18440(5)
B3 B 0.3380(3) 0.8567(3) 0.18644(9)
F9 F 0.30676(15) 0.95284(14) 0.18570(4)
F10 F 0.4398(2) 0.8540(2) 0.19050(5)
F11 F 0.3014(2) 0.8106(2) 0.21002(6)
F12 F 0.3049(2) 0.8117(2) 0.16081(6)
B4 B 0.8455(3) 1.2956(3) 0.19488(8)
F13 F 0.8014(2) 1.2093(2) 0.18534(4)
F14 F 0.9404(2) 1.3001(2) 0.18673(5)
F15 F 0.8516(2) 1.2987(2) 0.22538(4)
F16 F 0.7939(2) 1.3732(2) 0.18251(6)
B5 B 0.9864(3) 0.0739(3) 0.05202(8)
F17 F 0.96902(14) 0.08086(15) 0.02134(4)
F18 F 0.9741(2) -0.0211(2) 0.06086(5)
F19 F 0.9202(2) 0.1327(2) 0.06453(5)
F20 F 1.0821(2) 0.1020(2) 0.06082(5)
B6 B 0.5546(3) 0.1156(3) 0.05651(8)
F21 F 0.64617(15) 0.0786(2) 0.06531(4)
F22 F 0.5519(2) 0.21436(15) 0.06317(4)
F23 F 0.5359(2) 0.1067(2) 0.02591(4)
F24 F 0.4833(2) 0.0689(2) 0.07031(6)
B7 B 0.2925(3) 0.3086(3) 0.18753(9)
F25 F 0.3155(3) 0.4057(3) 0.18313(9)
F26 F 0.1971(2) 0.2983(3) 0.19349(8)
F27 F 0.3530(4) 0.2844(4) 0.21352(13)
F28 F 0.3120(5) 0.2507(6) 0.1667(2)
B8 B 0.5385(3) 0.5618(3) 0.06489(10)
F33 F 0.4507(3) 0.6071(3) 0.06185(7)
F34 F 0.6162(2) 0.6178(2) 0.05849(7)
F35 F 0.5358(3) 0.4790(3) 0.04806(11)
F36 F 0.5577(3) 0.5395(4) 0.09457(8)
F29? F 0.3408(7) 0.3915(6) 0.1895(2)
F30? F 0.2144(6) 0.3096(6) 0.2038(2)
F31? F 0.3537(5) 0.2330(5) 0.1950(2)
F32? F 0.2584(7) 0.2896(7) 0.1578(2)
F37? F 0.4469(9) 0.5890(11) 0.0703(3)
F38? F 0.5420(13) 0.5976(12) 0.0341(3)
F39? F 0.5527(7) 0.4690(6) 0.0644(2)
F40? F 0.6086(16) 0.6108(17) 0.0814(6)
loop_
_geom_bond_atom_site_label_1
_geom_bond_atom_site_label_2
_geom_bond_site_symmetry_1
_geom_bond_site_symmetry_2
N1 N2 1_555 1_555
N2 C6 1_555 1_555
N3 N4 1_555 1_555
N4 C3 1_555 1_555
C1 N1 1_555 1_555
H1 C1 1_555 1_555
C2 C1 1_555 1_555
H2 C2 1_555 1_555
C3 C2 1_555 1_555
H3 C3 1_555 1_555
C4 C3 1_555 1_555
H4 C4 1_555 1_555
C5 C1 1_555 1_555
H5 C5 1_555 1_555
C6 H6 1_555 1_555
C7 C2 1_555 1_555
H7 C7 1_555 1_555
C8 N3 1_555 1_555
H8 C8 1_555 1_555
C9 C4 1_555 1_555
H9 C9 1_555 1_555
C10 C5 1_555 1_555
H10 C10 1_555 1_555
C11 N1 1_555 1_555
C12 C11 1_555 1_555
H11 C12 1_555 1_555
H12 C12 1_555 1_555
H13 C12 1_555 1_555
C13 C11 1_555 1_555
H14 C13 1_555 1_555
H15 C13 1_555 1_555
H16 C13 1_555 1_555
C14 C11 1_555 1_555
H17 C14 1_555 1_555
H18 C14 1_555 1_555
H19 C14 1_555 1_555
C15 N3 1_555 1_555
C16 C15 1_555 1_555
H20 C16 1_555 1_555
H21 C16 1_555 1_555
H22 C16 1_555 1_555
C17 C15 1_555 1_555
H23 C17 1_555 1_555
H24 C17 1_555 1_555
H25 C17 1_555 1_555
C18 C15 1_555 1_555
H26 C18 1_555 1_555
H27 C18 1_555 1_555
H28 C18 1_555 1_555
N5 N6 1_555 1_555
N6 C24 1_555 1_555
N7 N8 1_555 1_555
N8 C21 1_555 1_555
C19 N5 1_555 1_555
H29 C19 1_555 1_555
C20 C19 1_555 1_555
H30 C20 1_555 1_555
C21 C20 1_555 1_555
H31 C21 1_555 1_555
C22 C21 1_555 1_555
H32 C22 1_555 1_555
C23 C19 1_555 1_555
H33 C23 1_555 1_555
C24 H34 1_555 1_555
C25 C20 1_555 1_555
H35 C25 1_555 1_555
C26 N7 1_555 1_555
H36 C26 1_555 1_555
C27 C22 1_555 1_555
H37 C27 1_555 1_555
C28 C23 1_555 1_555
H38 C28 1_555 1_555
C29 N5 1_555 1_555
C30 C29 1_555 1_555
H39 C30 1_555 1_555
H40 C30 1_555 1_555
H41 C30 1_555 1_555
C31 C29 1_555 1_555
H42 C31 1_555 1_555
H43 C31 1_555 1_555
H44 C31 1_555 1_555
C32 C29 1_555 1_555
H45 C32 1_555 1_555
H46 C32 1_555 1_555
H47 C32 1_555 1_555
C33 N7 1_555 1_555
C34 C33 1_555 1_555
H48 C34 1_555 1_555
H49 C34 1_555 1_555
H50 C34 1_555 1_555
C35 C33 1_555 1_555
H51 C35 1_555 1_555
H52 C35 1_555 1_555
H53 C35 1_555 1_555
C36 C33 1_555 1_555
H54 C36 1_555 1_555
H55 C36 1_555 1_555
H56 C36 1_555 1_555
N9 N10 1_555 1_555
N10 C42 1_555 1_555
N11 N12 1_555 1_555
N12 C39 1_555 1_555
C37 N9 1_555 1_555
H57 C37 1_555 1_555
C38 C37 1_555 1_555
H58 C38 1_555 1_555
C39 C38 1_555 1_555
H59 C39 1_555 1_555
C40 C39 1_555 1_555
H60 C40 1_555 1_555
C41 C37 1_555 1_555
H61 C41 1_555 1_555
C42 H62 1_555 1_555
C43 C38 1_555 1_555
H63 C43 1_555 1_555
C44 N11 1_555 1_555
H64 C44 1_555 1_555
C45 C40 1_555 1_555
H65 C45 1_555 1_555
C46 C41 1_555 1_555
H66 C46 1_555 1_555
C47 N9 1_555 1_555
C48 C47 1_555 1_555
H67 C48 1_555 1_555
H68 C48 1_555 1_555
H69 C48 1_555 1_555
C49 C47 1_555 1_555
H70 C49 1_555 1_555
H71 C49 1_555 1_555
H72 C49 1_555 1_555
C50 C47 1_555 1_555
H73 C50 1_555 1_555
H74 C50 1_555 1_555
H75 C50 1_555 1_555
C51 N11 1_555 1_555
C52 C51 1_555 1_555
H76 C52 1_555 1_555
H77 C52 1_555 1_555
H78 C52 1_555 1_555
C53 C51 1_555 1_555
H79 C53 1_555 1_555
H80 C53 1_555 1_555
H81 C53 1_555 1_555
C54 C51 1_555 1_555
H82 C54 1_555 1_555
H83 C54 1_555 1_555
H84 C54 1_555 1_555
N13 N14 1_555 1_555
N14 C60 1_555 1_555
N15 N16 1_555 1_555
N16 C57 1_555 1_555
C55 N13 1_555 1_555
H85 C55 1_555 1_555
C56 C55 1_555 1_555
H86 C56 1_555 1_555
C57 C56 1_555 1_555
H87 C57 1_555 1_555
C58 C57 1_555 1_555
H88 C58 1_555 1_555
C59 C55 1_555 1_555
H89 C59 1_555 1_555
C60 H90 1_555 1_555
C61 C56 1_555 1_555
H91 C61 1_555 1_555
C62 N15 1_555 1_555
H92 C62 1_555 1_555
C63 C58 1_555 1_555
H93 C63 1_555 1_555
C64 C59 1_555 1_555
H94 C64 1_555 1_555
C65 N13 1_555 1_555
C66 C65 1_555 1_555
H95 C66 1_555 1_555
H96 C66 1_555 1_555
H97 C66 1_555 1_555
C67 C65 1_555 1_555
H98 C67 1_555 1_555
H99 C67 1_555 1_555
H100 C67 1_555 1_555
C68 C65 1_555 1_555
H101 C68 1_555 1_555
H102 C68 1_555 1_555
H103 C68 1_555 1_555
C69 N15 1_555 1_555
C70 C69 1_555 1_555
H104 C70 1_555 1_555
H105 C70 1_555 1_555
H106 C70 1_555 1_555
C71 C69 1_555 1_555
H107 C71 1_555 1_555
H108 C71 1_555 1_555
H109 C71 1_555 1_555
C72 C69 1_555 1_555
H110 C72 1_555 1_555
H111 C72 1_555 1_555
H112 C72 1_555 1_555
B1 F1 1_555 1_555
F2 B1 1_555 1_555
F3 B1 1_555 1_555
F4 B1 1_555 1_555
B2 F5 1_555 1_555
F6 B2 1_555 1_555
F7 B2 1_555 1_555
F8 B2 1_555 1_555
B3 F9 1_555 1_555
F10 B3 1_555 1_555
F11 B3 1_555 1_555
F12 B3 1_555 1_555
B4 F13 1_555 1_555
F14 B4 1_555 1_555
F15 B4 1_555 1_555
F16 B4 1_555 1_555
B5 F17 1_555 1_555
F18 B5 1_555 1_555
F19 B5 1_555 1_555
F20 B5 1_555 1_555
B6 F21 1_555 1_555
F22 B6 1_555 1_555
F23 B6 1_555 1_555
F24 B6 1_555 1_555
B7 F25 1_555 1_555
F26 B7 1_555 1_555
F27 B7 1_555 1_555
F28 B7 1_555 1_555
B8 F33 1_555 1_555
F34 B8 1_555 1_555
F35 B8 1_555 1_555
F36 B8 1_555 1_555
C4 C5 1_555 1_555
C6 C7 1_555 1_555
C6 C10 1_555 1_555
C7 C8 1_555 1_555
C8 C9 1_555 1_555
C9 C10 1_555 1_555
C22 C23 1_555 1_555
C24 C25 1_555 1_555
C24 C28 1_555 1_555
C25 C26 1_555 1_555
C26 C27 1_555 1_555
C27 C28 1_555 1_555
C40 C41 1_555 1_555
C42 C43 1_555 1_555
C42 C46 1_555 1_555
C43 C44 1_555 1_555
C44 C45 1_555 1_555
C45 C46 1_555 1_555
C58 C59 1_555 1_555
C60 C61 1_555 1_555
C60 C64 1_555 1_555
C61 C62 1_555 1_555
C62 C63 1_555 1_555
C63 C64 1_555 1_555

#END
