
#######################################################################
#
#                 Cambridge Crystallographic Data Centre
#                                CCDC 
#
#######################################################################
#
# If this CIF has been generated from an entry in the Cambridge 
# Structural Database, then it will include bibliographic, chemical, 
# crystal, experimental, refinement or atomic coordinate data resulting 
# from the CCDC's data processing and validation procedures.
#
#######################################################################

data_SUNSEA
_chemical_formula_moiety         'C42 H31 N4 O1 P1'
_chemical_name_systematic        
"N,N'-Dimethyl-P-phenyl-N'',N'''-bis(1-pyrenylmethylene)phosphonic dihydrazide"
_symmetry_cell_setting           monoclinic
_symmetry_space_group_name_H-M   'P 21/n'
_symmetry_Int_Tables_number      14
_space_group_name_Hall           '-P 2yn'
loop_
_symmetry_equiv_pos_site_id
_symmetry_equiv_pos_as_xyz
1 x,y,z
2 1/2-x,1/2+y,1/2-z
3 -x,-y,-z
4 1/2+x,1/2-y,1/2+z
_cell_length_a                   10.0285(7)
_cell_length_b                   11.8695(9)
_cell_length_c                   26.634(2)
_cell_angle_alpha                90
_cell_angle_beta                 99.117(1)
_cell_angle_gamma                90
_cell_volume                     3130.28
_exptl_crystal_colour            yellow
_chemical_melting_point          '185 deg.C'
_cell_formula_units_Z            4
_exptl_crystal_recrystallization_method dichloromethane/n-hexane
_exptl_crystal_preparation       fluorescent
loop_
_atom_site_label
_atom_site_type_symbol
_atom_site_fract_x
_atom_site_fract_y
_atom_site_fract_z
C1 C 1.0267(3) 0.4113(2) 0.15416(10)
C2 C 0.8294(2) 0.5185(2) 0.08436(8)
C3 C 1.2095(3) 0.7219(3) 0.25841(10)
C4 C 1.2102(2) 0.8096(2) 0.16244(9)
C5 C 0.8532(2) 0.6670(2) 0.22432(8)
C6 C 0.7754(3) 0.6314(2) 0.26018(9)
C7 C 0.6582(3) 0.6892(2) 0.26590(10)
C8 C 0.6176(3) 0.7806(2) 0.23588(10)
C9 C 0.6945(3) 0.8173(2) 0.20027(10)
C10 C 0.8121(2) 0.7611(2) 0.19461(9)
C11 C 1.2301(2) 0.8661(2) 0.11549(8)
C12 C 1.3411(2) 0.9390(2) 0.12043(9)
C13 C 1.3766(2) 0.9975(2) 0.07997(9)
C14 C 1.3345(2) 1.0461(2) -0.01158(9)
C15 C 1.2613(2) 1.0363(2) -0.05785(10)
C16 C 1.0644(2) 0.9553(2) -0.11414(9)
C17 C 0.9498(3) 0.8872(2) -0.12106(9)
C18 C 0.9134(2) 0.8274(2) -0.08095(9)
C19 C 0.9554(2) 0.7761(2) 0.01063(9)
C20 C 1.0289(2) 0.7850(2) 0.05758(9)
C21 C 1.3010(2) 0.98621(19) 0.03144(8)
C22 C 1.1437(2) 0.9653(2) -0.06643(8)
C23 C 0.9906(2) 0.83462(19) -0.03237(8)
C24 C 1.1486(2) 0.85388(19) 0.06678(8)
C25 C 1.1856(2) 0.91426(19) 0.02506(8)
C26 C 1.1070(2) 0.90456(18) -0.02466(8)
C27 C 0.7173(2) 0.56962(19) 0.04951(8)
C28 C 0.6276(2) 0.6412(2) 0.06966(9)
C29 C 0.5220(2) 0.6925(2) 0.03896(9)
C30 C 0.3909(2) 0.7289(2) -0.04664(9)
C31 C 0.3701(2) 0.7109(2) -0.09713(9)
C32 C 0.4325(2) 0.6124(2) -0.17232(9)
C33 C 0.5159(3) 0.5388(2) -0.19309(9)
C34 C 0.6232(3) 0.4873(2) -0.16293(9)
C35 C 0.7598(2) 0.4561(2) -0.07757(9)
C36 C 0.7830(2) 0.4750(2) -0.02725(8)
C37 C 0.4995(2) 0.67553(19) -0.01370(8)
C38 C 0.4556(2) 0.6358(2) -0.12011(9)
C39 C 0.6502(2) 0.5081(2) -0.11054(8)
C40 C 0.6975(2) 0.54872(18) -0.00312(8)
C41 C 0.5876(2) 0.60256(19) -0.03507(8)
C42 C 0.5650(2) 0.58301(19) -0.08858(8)
N1 N 0.96487(19) 0.51872(16) 0.16314(7)
N2 N 0.86661(18) 0.56686(17) 0.12738(7)
N3 N 1.12575(18) 0.67894(17) 0.21259(7)
N4 N 1.12472(18) 0.73000(17) 0.16572(7)
P1 P 1.00103(6) 0.58760(5) 0.21786(2)
O1 O 1.04589(17) 0.51197(15) 0.26092(6)
H1 H 0.873(2) 0.4513(19) 0.0745(8)
H2 H 1.276(2) 0.835(2) 0.1938(9)
H3 H 0.808(3) 0.566(2) 0.2817(10)
H4 H 0.607(3) 0.662(2) 0.2906(10)
H5 H 0.534(3) 0.821(2) 0.2394(10)
H6 H 0.663(3) 0.881(3) 0.1786(11)
H7 H 0.863(3) 0.789(2) 0.1684(10)
H8 H 1.390(2) 0.952(2) 0.1534(9)
H9 H 1.452(2) 1.049(2) 0.0842(8)
H10 H 1.416(3) 1.097(2) -0.0057(10)
H11 H 1.288(2) 1.080(2) -0.0869(9)
H12 H 1.085(3) 1.002(2) -0.1443(10)
H13 H 0.893(2) 0.888(2) -0.1543(9)
H14 H 0.828(3) 0.779(2) -0.0850(9)
H15 H 0.879(2) 0.729(2) 0.0060(9)
H16 H 1.007(2) 0.742(2) 0.0851(9)
H17 H 0.640(2) 0.6496(19) 0.1068(8)
H18 H 0.459(2) 0.742(2) 0.0546(8)
H19 H 0.335(2) 0.775(2) -0.0294(8)
H20 H 0.295(2) 0.748(2) -0.1200(9)
H21 H 0.352(3) 0.653(2) -0.1953(9)
H22 H 0.499(3) 0.523(2) -0.2320(10)
H23 H 0.687(2) 0.433(2) -0.1789(9)
H24 H 0.815(3) 0.405(2) -0.0921(9)
H25 H 0.864(2) 0.4364(17) -0.0044(7)
H26 H 1.092(2) 0.394(2) 0.1840(9)
H27 H 0.956(3) 0.350(2) 0.1490(9)
H28 H 1.074(2) 0.414(2) 0.1248(9)
H29 H 1.304(3) 0.711(2) 0.2552(10)
H30 H 1.191(3) 0.678(3) 0.2876(11)
H31 H 1.187(3) 0.800(3) 0.2630(11)
loop_
_geom_bond_atom_site_label_1
_geom_bond_atom_site_label_2
_geom_bond_site_symmetry_1
_geom_bond_site_symmetry_2
C1 N1 1_555 1_555
C2 C27 1_555 1_555
C3 N3 1_555 1_555
C4 C11 1_555 1_555
C5 C6 1_555 1_555
C6 C7 1_555 1_555
C7 C8 1_555 1_555
C8 C9 1_555 1_555
C9 C10 1_555 1_555
C10 C5 1_555 1_555
C11 C12 1_555 1_555
C12 C13 1_555 1_555
C13 C21 1_555 1_555
C14 C15 1_555 1_555
C15 C22 1_555 1_555
C16 C17 1_555 1_555
C17 C18 1_555 1_555
C18 C23 1_555 1_555
C19 C20 1_555 1_555
C20 C24 1_555 1_555
C21 C14 1_555 1_555
C22 C16 1_555 1_555
C23 C19 1_555 1_555
C24 C11 1_555 1_555
C25 C21 1_555 1_555
C26 C22 1_555 1_555
C27 C28 1_555 1_555
C28 C29 1_555 1_555
C29 C37 1_555 1_555
C30 C31 1_555 1_555
C31 C38 1_555 1_555
C32 C33 1_555 1_555
C33 C34 1_555 1_555
C34 C39 1_555 1_555
C35 C36 1_555 1_555
C36 C40 1_555 1_555
C37 C30 1_555 1_555
C38 C32 1_555 1_555
C39 C35 1_555 1_555
C40 C27 1_555 1_555
C41 C37 1_555 1_555
C42 C38 1_555 1_555
N1 N2 1_555 1_555
N2 C2 1_555 1_555
N3 N4 1_555 1_555
N4 C4 1_555 1_555
P1 C5 1_555 1_555
O1 P1 1_555 1_555
H1 C2 1_555 1_555
H2 C4 1_555 1_555
H3 C6 1_555 1_555
H4 C7 1_555 1_555
H5 C8 1_555 1_555
H6 C9 1_555 1_555
H7 C10 1_555 1_555
H8 C12 1_555 1_555
H9 C13 1_555 1_555
H10 C14 1_555 1_555
H11 C15 1_555 1_555
H12 C16 1_555 1_555
H13 C17 1_555 1_555
H14 C18 1_555 1_555
H15 C19 1_555 1_555
H16 C20 1_555 1_555
H17 C28 1_555 1_555
H18 C29 1_555 1_555
H19 C30 1_555 1_555
H20 C31 1_555 1_555
H21 C32 1_555 1_555
H22 C33 1_555 1_555
H23 C34 1_555 1_555
H24 C35 1_555 1_555
H25 C36 1_555 1_555
H26 C1 1_555 1_555
H27 C1 1_555 1_555
H28 C1 1_555 1_555
H29 C3 1_555 1_555
H30 C3 1_555 1_555
H31 C3 1_555 1_555
C23 C26 1_555 1_555
C24 C25 1_555 1_555
C25 C26 1_555 1_555
C39 C42 1_555 1_555
C40 C41 1_555 1_555
C41 C42 1_555 1_555
N1 P1 1_555 1_555
N3 P1 1_555 1_555

#END
