
#######################################################################
#
#                 Cambridge Crystallographic Data Centre
#                                CCDC 
#
#######################################################################
#
# If this CIF has been generated from an entry in the Cambridge 
# Structural Database, then it will include bibliographic, chemical, 
# crystal, experimental, refinement or atomic coordinate data resulting 
# from the CCDC's data processing and validation procedures.
#
#######################################################################

data_SUNXIK
_chemical_formula_moiety         'C22 H23 N1 O2 S1'
_chemical_name_systematic        
3-methyl-1-(2-naphthylsulfonyl)-4-phenylpiperidine
_symmetry_cell_setting           orthorhombic
_symmetry_space_group_name_H-M   'P 21 21 21'
_symmetry_Int_Tables_number      19
_space_group_name_Hall           'P 2ac 2ab'
loop_
_symmetry_equiv_pos_site_id
_symmetry_equiv_pos_as_xyz
1 x,y,z
2 1/2-x,-y,1/2+z
3 -x,1/2+y,1/2-z
4 1/2+x,1/2-y,-z
_cell_length_a                   7.4509(4)
_cell_length_b                   13.8684(7)
_cell_length_c                   18.1247(9)
_cell_angle_alpha                90
_cell_angle_beta                 90
_cell_angle_gamma                90
_cell_volume                     1872.86
_exptl_crystal_colour            colorless
_exptl_crystal_description       block
_cell_formula_units_Z            4
loop_
_atom_site_label
_atom_site_type_symbol
_atom_site_fract_x
_atom_site_fract_y
_atom_site_fract_z
S1 S 1.08723(3) 0.55053(2) 0.63939(2)
O1 O 1.17063(11) 0.56119(6) 0.71050(5)
O2 O 1.18874(12) 0.57208(6) 0.57408(5)
N1 N 0.91170(12) 0.62144(6) 0.63873(5)
C1 C 0.57913(13) 0.72789(6) 0.63732(6)
H1 H 0.4914 0.6734 0.6401
C2 C 0.69931(14) 0.72287(7) 0.70620(6)
H2 H 0.7884 0.7767 0.7036
C3 C 0.80200(14) 0.62722(7) 0.70613(6)
H3 H 0.8801 0.6233 0.7502
H4 H 0.7164 0.5727 0.7077
C4 C 0.80267(17) 0.62095(8) 0.57065(6)
H5 H 0.7214 0.5645 0.5706
H6 H 0.8819 0.6165 0.5269
C5 C 0.69338(17) 0.71372(8) 0.56751(6)
H7 H 0.6137 0.7120 0.5238
H8 H 0.7757 0.7693 0.5618
C6 C 0.59250(19) 0.73353(10) 0.77746(7)
H9 H 0.5008 0.6830 0.7799
H10 H 0.5345 0.7969 0.7785
H11 H 0.6736 0.7275 0.8198
C7 C 0.47343(13) 0.82086(6) 0.63208(6)
C8 C 0.28790(14) 0.81908(7) 0.62217(6)
H12 H 0.2269 0.7590 0.6206
C9 C 0.19097(14) 0.90418(8) 0.61450(6)
H13 H 0.0648 0.9016 0.6073
C10 C 0.27707(14) 0.99271(8) 0.61735(6)
H14 H 0.2106 1.0508 0.6125
C11 C 0.46199(15) 0.99543(7) 0.62746(7)
H15 H 0.5223 1.0557 0.6293
C12 C 0.55902(13) 0.91046(7) 0.63486(7)
H16 H 0.6853 0.9133 0.6419
C13 C 1.01135(13) 0.43039(6) 0.63148(6)
C14 C 1.01668(13) 0.38678(7) 0.56354(6)
H17 H 1.0525 0.4225 0.5213
C15 C 0.96871(13) 0.28847(7) 0.55643(6)
C16 C 0.98374(14) 0.23949(8) 0.48796(6)
H18 H 1.0227 0.2735 0.4454
C17 C 0.94229(14) 0.14331(7) 0.48287(7)
H19 H 0.9535 0.1109 0.4369
C18 C 0.88289(14) 0.09238(7) 0.54587(6)
H20 H 0.8533 0.0260 0.5418
C19 C 0.86739(14) 0.13763(7) 0.61288(6)
H21 H 0.8279 0.1023 0.6547
C20 C 0.91006(13) 0.23720(7) 0.62008(5)
C21 C 0.89840(14) 0.28613(7) 0.68855(6)
H22 H 0.8545 0.2529 0.7307
C22 C 0.94966(14) 0.38094(7) 0.69492(6)
H23 H 0.9438 0.4128 0.7412
loop_
_geom_bond_atom_site_label_1
_geom_bond_atom_site_label_2
_geom_bond_site_symmetry_1
_geom_bond_site_symmetry_2
S1 O1 1_555 1_555
O2 S1 1_555 1_555
N1 S1 1_555 1_555
C1 H1 1_555 1_555
C2 C1 1_555 1_555
H2 C2 1_555 1_555
C3 N1 1_555 1_555
H3 C3 1_555 1_555
H4 C3 1_555 1_555
C4 N1 1_555 1_555
H5 C4 1_555 1_555
H6 C4 1_555 1_555
C5 C1 1_555 1_555
H7 C5 1_555 1_555
H8 C5 1_555 1_555
C6 C2 1_555 1_555
H9 C6 1_555 1_555
H10 C6 1_555 1_555
H11 C6 1_555 1_555
C7 C1 1_555 1_555
C8 C7 1_555 1_555
H12 C8 1_555 1_555
C9 C8 1_555 1_555
H13 C9 1_555 1_555
C10 C9 1_555 1_555
H14 C10 1_555 1_555
C11 C10 1_555 1_555
H15 C11 1_555 1_555
C12 C7 1_555 1_555
H16 C12 1_555 1_555
C13 S1 1_555 1_555
C14 C13 1_555 1_555
H17 C14 1_555 1_555
C15 C14 1_555 1_555
C16 C15 1_555 1_555
H18 C16 1_555 1_555
C17 C16 1_555 1_555
H19 C17 1_555 1_555
C18 C17 1_555 1_555
H20 C18 1_555 1_555
C19 C18 1_555 1_555
H21 C19 1_555 1_555
C20 C15 1_555 1_555
C21 C20 1_555 1_555
H22 C21 1_555 1_555
C22 C13 1_555 1_555
H23 C22 1_555 1_555
C2 C3 1_555 1_555
C4 C5 1_555 1_555
C11 C12 1_555 1_555
C19 C20 1_555 1_555
C21 C22 1_555 1_555

#END
