
#######################################################################
#
#                 Cambridge Crystallographic Data Centre
#                                CCDC 
#
#######################################################################
#
# If this CIF has been generated from an entry in the Cambridge 
# Structural Database, then it will include bibliographic, chemical, 
# crystal, experimental, refinement or atomic coordinate data resulting 
# from the CCDC's data processing and validation procedures.
#
#######################################################################

data_SUPSON
_chemical_name_common            
'C-propyl-5,11,17,23-tetrakis((propylammonio)methyl)calix(4)resorcinarene bis(1,1,2,2,3,3,4,4-octafluoro-1,4-diiodobutane) tetrabromide 1,4-dioxane solvate'
_chemical_formula_moiety         
'C56 H88 N4 O8 4+,2(C4 F8 I2),3(C4 H8 O2),4(Br1 1-)'
_chemical_name_systematic        
'4,6,10,12,16,18,22,24-octahydroxy-2,8,14,20-tetrapropyl-5,11,17,23-tetrakis((propylammonio)methyl)calix(4)arene bis(1,1,2,2,3,3,4,4-octafluoro-1,4-diiodobutane) tetrabromide 1,4-dioxane solvate'
_symmetry_cell_setting           orthorhombic
_symmetry_space_group_name_H-M   'C c c a'
_symmetry_Int_Tables_number      68
_space_group_name_Hall           '-C 2a 2ac'
loop_
_symmetry_equiv_pos_site_id
_symmetry_equiv_pos_as_xyz
1 x,y,z
2 -x,1/2-y,z
3 x,1/2-y,1/2-z
4 -x,y,1/2-z
5 1/2+x,1/2+y,z
6 1/2-x,-y,z
7 1/2+x,-y,1/2-z
8 1/2-x,1/2+y,1/2-z
9 -x,-y,-z
10 x,1/2+y,-z
11 -x,1/2+y,1/2+z
12 x,-y,1/2+z
13 1/2-x,1/2-y,-z
14 1/2+x,y,-z
15 1/2-x,y,1/2+z
16 1/2+x,1/2-y,1/2+z
_cell_length_a                   24.2579(12)
_cell_length_b                   25.5595(12)
_cell_length_c                   30.1104(11)
_cell_angle_alpha                90
_cell_angle_beta                 90
_cell_angle_gamma                90
_cell_volume                     18669
_exptl_crystal_colour            colorless
_exptl_crystal_description       block
_cell_formula_units_Z            8
loop_
_atom_site_label
_atom_site_type_symbol
_atom_site_fract_x
_atom_site_fract_y
_atom_site_fract_z
Br1 Br 0.66878(6) 0.16955(6) 0.02454(5)
Br2 Br 0.90970(6) 0.07471(6) 0.02420(5)
C1 C 0.6306(9) 0.2418(9) 0.2249(4)
F1 F 0.6225(13) 0.2862(11) 0.1967(10)
I1 I 0.6622(4) 0.1993(7) 0.1316(5)
F2 F 0.6846(15) 0.1678(15) 0.2219(12)
C2 C 0.6721(14) 0.2123(15) 0.1956(13)
F3 F 0.5859(10) 0.2051(9) 0.2165(10)
F4 F 0.7227(14) 0.2375(13) 0.2079(12)
C1B C 0.6306(9) 0.2582(9) 0.2751(4)
F1B F 0.6225(13) 0.2138(11) 0.3033(10)
I1B I 0.6622(4) 0.3007(7) 0.3684(5)
F2B F 0.6846(15) 0.3322(15) 0.2781(12)
C2B C 0.6721(14) 0.2877(15) 0.3044(13)
F3B F 0.5859(10) 0.2949(9) 0.2835(10)
F4B F 0.7227(14) 0.2625(13) 0.2921(12)
O1 O 0.6409(4) 0.1608(3) -0.0783(3)
H1 H 0.6443 0.1600 -0.0512
O2 O 0.9195(4) 0.1085(4) -0.0802(3)
H2 H 0.9198 0.1106 -0.0531
O3 O 0.7450(4) 0.1928(3) -0.0742(3)
H3 H 0.7127 0.1846 -0.0782
N1 N 0.8147(4) 0.1620(4) 0.0051(3)
H4 H 0.7754 0.1622 -0.0009
H5 H 0.8256 0.1261 0.0105
N2 N 0.5935(4) 0.0604(4) 0.0059(3)
H6 H 0.5940 0.0230 0.0004
H7 H 0.6313 0.0721 0.0089
C3 C 0.5916(5) 0.0257(6) -0.0918(4)
C4 C 0.6555(6) 0.0478(6) -0.1493(4)
H8 H 0.6759 0.0386 -0.1743
O4 O 0.5552(4) -0.0058(4) -0.0721(3)
H9 H 0.5665 -0.0360 -0.0729
C5 C 0.6340(6) 0.1107(6) -0.0941(4)
C6 C 0.8253(7) 0.1929(6) 0.0454(4)
H10 H 0.8066 0.2264 0.0430
H11 H 0.8645 0.1996 0.0479
C7 C 0.7799(6) 0.1553(5) -0.0945(4)
C8 C 0.7046(6) 0.1349(5) -0.1518(4)
H12 H 0.6929 0.1701 -0.1430
C9 C 0.8664(5) 0.1143(5) -0.0955(4)
C10 C 0.8906(6) 0.0434(5) -0.1511(4)
H13 H 0.9278 0.0536 -0.1417
C11 C 0.8516(6) 0.0843(5) -0.1315(4)
C12 C 0.5675(5) 0.0875(6) -0.0330(4)
H14 H 0.5297 0.0759 -0.0364
H15 H 0.5672 0.1250 -0.0280
C13 C 0.8309(6) 0.1496(5) -0.0759(4)
C14 C 0.8054(7) 0.1647(7) 0.0862(4)
H16 H 0.8231 0.1307 0.0882
H17 H 0.7659 0.1593 0.0845
C15 C 0.5967(6) 0.0557(6) 0.0879(4)
H18 H 0.6296 0.0772 0.0897
H19 H 0.6081 0.0195 0.0854
C16 C 0.5989(5) 0.0755(5) -0.0739(4)
C17 C 0.5639(6) 0.0708(6) 0.0477(5)
H20 H 0.5295 0.0514 0.0477
H21 H 0.5550 0.1077 0.0493
C18 C 0.6621(6) 0.0980(6) -0.1316(4)
C19 C 0.7995(6) 0.0911(6) -0.1482(4)
H22 H 0.7885 0.0704 -0.1720
C20 C 0.6197(6) 0.0109(6) -0.1311(4)
C21 C 0.8448(5) 0.1819(5) -0.0354(4)
H23 H 0.8347 0.2181 -0.0407
H24 H 0.8842 0.1806 -0.0301
C22 C 0.7619(5) 0.1276(5) -0.1311(4)
C23 C 0.8921(7) 0.0417(6) -0.2032(4)
H25 H 0.9194 0.0163 -0.2126
H26 H 0.8565 0.0300 -0.2141
C24 C 0.8194(9) 0.1971(7) 0.1270(6)
H27 H 0.8131 0.1766 0.1533
H28 H 0.7964 0.2277 0.1278
H29 H 0.8574 0.2075 0.1258
C25 C 0.9053(9) 0.0933(8) -0.2237(6)
H30 H 0.8745 0.1167 -0.2188
H31 H 0.9092 0.0885 -0.2555
C26 C 0.5606(8) 0.0634(9) 0.1315(4)
H32 H 0.5824 0.0551 0.1572
H33 H 0.5292 0.0405 0.1304
H34 H 0.5483 0.0990 0.1333
C27 C 0.9588(10) 0.1200(10) -0.2057(8)
H35 H 0.9518 0.1340 -0.1766
H36 H 0.9694 0.1478 -0.2253
H37 H 0.9879 0.0947 -0.2040
C28 C 0.6544(9) 0.1518(8) -0.2248(6)
H38 H 0.6260 0.1263 -0.2180
H39 H 0.6589 0.1529 -0.2568
C29 C 0.6366(11) 0.2059(8) -0.2079(9)
H40 H 0.6080 0.2195 -0.2267
H41 H 0.6676 0.2292 -0.2083
H42 H 0.6230 0.2028 -0.1781
C30 C 0.7068(7) 0.1357(7) -0.2040(5)
H43 H 0.7356 0.1595 -0.2134
H44 H 0.7164 0.1010 -0.2146
O1E O 0.8591(4) -0.1608(3) -0.0783(3)
H1E H 0.8557 -0.1600 -0.0512
O2E O 0.5805(4) -0.1085(4) -0.0802(3)
H2E H 0.5802 -0.1106 -0.0531
O3E O 0.7550(4) -0.1928(3) -0.0742(3)
H3E H 0.7873 -0.1846 -0.0782
N1E N 0.6853(4) -0.1620(4) 0.0051(3)
H4E H 0.7246 -0.1622 -0.0009
H5E H 0.6744 -0.1261 0.0105
N2E N 0.9065(4) -0.0604(4) 0.0059(3)
H6E H 0.9060 -0.0230 0.0004
H7E H 0.8687 -0.0721 0.0089
C3E C 0.9084(5) -0.0257(6) -0.0918(4)
C4E C 0.8445(6) -0.0478(6) -0.1493(4)
H8E H 0.8241 -0.0386 -0.1743
O4E O 0.9448(4) 0.0058(4) -0.0721(3)
H9E H 0.9335 0.0360 -0.0729
C5E C 0.8660(6) -0.1107(6) -0.0941(4)
C6E C 0.6747(7) -0.1929(6) 0.0454(4)
H10E H 0.6934 -0.2264 0.0430
H11E H 0.6355 -0.1996 0.0479
C7E C 0.7201(6) -0.1553(5) -0.0945(4)
C8E C 0.7954(6) -0.1349(5) -0.1518(4)
H12E H 0.8071 -0.1701 -0.1430
C9E C 0.6336(5) -0.1143(5) -0.0955(4)
C10E C 0.6094(6) -0.0434(5) -0.1511(4)
H13E H 0.5722 -0.0536 -0.1417
C11E C 0.6484(6) -0.0843(5) -0.1315(4)
C12E C 0.9325(5) -0.0875(6) -0.0330(4)
H14E H 0.9703 -0.0759 -0.0364
H15E H 0.9328 -0.1250 -0.0280
C13E C 0.6691(6) -0.1496(5) -0.0759(4)
C14E C 0.6946(7) -0.1647(7) 0.0862(4)
H16E H 0.6769 -0.1307 0.0882
H17E H 0.7341 -0.1593 0.0845
C15E C 0.9033(6) -0.0557(6) 0.0879(4)
H18E H 0.8704 -0.0772 0.0897
H19E H 0.8919 -0.0195 0.0854
C16E C 0.9011(5) -0.0755(5) -0.0739(4)
C17E C 0.9361(6) -0.0708(6) 0.0477(5)
H20E H 0.9705 -0.0514 0.0477
H21E H 0.9450 -0.1077 0.0493
C18E C 0.8379(6) -0.0980(6) -0.1316(4)
C19E C 0.7005(6) -0.0911(6) -0.1482(4)
H22E H 0.7115 -0.0704 -0.1720
C20E C 0.8803(6) -0.0109(6) -0.1311(4)
C21E C 0.6552(5) -0.1819(5) -0.0354(4)
H23E H 0.6653 -0.2181 -0.0407
H24E H 0.6158 -0.1806 -0.0301
C22E C 0.7381(5) -0.1276(5) -0.1311(4)
C23E C 0.6079(7) -0.0417(6) -0.2032(4)
H25E H 0.5806 -0.0163 -0.2126
H26E H 0.6435 -0.0300 -0.2141
C24E C 0.6806(9) -0.1971(7) 0.1270(6)
H27E H 0.6869 -0.1766 0.1533
H28E H 0.7036 -0.2277 0.1278
H29E H 0.6426 -0.2075 0.1258
C25E C 0.5947(9) -0.0933(8) -0.2237(6)
H30E H 0.6255 -0.1167 -0.2188
H31E H 0.5908 -0.0885 -0.2555
C26E C 0.9394(8) -0.0634(9) 0.1315(4)
H32E H 0.9176 -0.0551 0.1572
H33E H 0.9708 -0.0405 0.1304
H34E H 0.9517 -0.0990 0.1333
C27E C 0.5412(10) -0.1200(10) -0.2057(8)
H35E H 0.5482 -0.1340 -0.1766
H36E H 0.5306 -0.1478 -0.2253
H37E H 0.5121 -0.0947 -0.2040
C28E C 0.8456(9) -0.1518(8) -0.2248(6)
H38E H 0.8740 -0.1263 -0.2180
H39E H 0.8411 -0.1529 -0.2568
C29E C 0.8634(11) -0.2059(8) -0.2079(9)
H40E H 0.8920 -0.2195 -0.2267
H41E H 0.8324 -0.2292 -0.2083
H42E H 0.8770 -0.2028 -0.1781
C30E C 0.7932(7) -0.1357(7) -0.2040(5)
H43E H 0.7644 -0.1595 -0.2134
H44E H 0.7836 -0.1010 -0.2146
C31 C 0.7015(17) -0.009(3) 0.1652(13)
H45 H 0.6837 -0.0392 0.1514
H46 H 0.6776 0.0204 0.1605
O5 O 0.7500 0.0000 0.2347(19)
C32 C 0.7022(14) -0.020(2) 0.2135(10)
H47 H 0.6699 -0.0037 0.2268
H48 H 0.7001 -0.0571 0.2184
O6 O 0.7500 0.0000 0.141(2)
C31E C 0.7985(17) 0.009(3) 0.1652(13)
H45E H 0.8163 0.0392 0.1514
H46E H 0.8224 -0.0204 0.1605
C32E C 0.7978(14) 0.020(2) 0.2135(10)
H47E H 0.8301 0.0037 0.2268
H48E H 0.7999 0.0571 0.2184
O7 O 0.7191(5) 0.0456(4) -0.0028(4)
C33 C 0.7435(8) 0.0254(6) -0.0412(4)
H49 H 0.7186 0.0317 -0.0659
H50 H 0.7769 0.0452 -0.0470
C34 C 0.7462(8) 0.0267(6) 0.0358(4)
H51 H 0.7819 0.0436 0.0383
H52 H 0.7248 0.0363 0.0618
O7E O 0.7809(5) -0.0456(4) -0.0028(4)
C33E C 0.7565(8) -0.0254(6) -0.0412(4)
H49E H 0.7814 -0.0317 -0.0659
H50E H 0.7231 -0.0452 -0.0470
C34E C 0.7538(8) -0.0267(6) 0.0358(4)
H51E H 0.7181 -0.0436 0.0383
H52E H 0.7752 -0.0363 0.0618
O8 O 0.4861(6) 0.1981(6) 0.0245(6)
C35 C 0.5037(12) 0.2217(7) 0.0647(7)
H53 H 0.5423 0.2137 0.0695
H54 H 0.4829 0.2068 0.0892
C36 C 0.5127(11) 0.2238(6) -0.0111(8)
H55 H 0.5060 0.2058 -0.0390
H56 H 0.5521 0.2259 -0.0062
O8A O 0.5139(6) 0.3019(6) 0.0245(6)
C35A C 0.4963(12) 0.2783(7) 0.0647(7)
H53A H 0.4577 0.2863 0.0695
H54A H 0.5171 0.2932 0.0892
C36A C 0.4873(11) 0.2762(6) -0.0111(8)
H55A H 0.4940 0.2942 -0.0390
H56A H 0.4479 0.2741 -0.0062
C37? C 0.738(2) -0.0270(10) 0.2205(15)
H57? H 0.7584 -0.0473 0.2425
H58? H 0.7004 -0.0248 0.2306
O9? O 0.7013(16) 0.0337(15) 0.1888(13)
C38? C 0.730(3) 0.023(2) 0.1497(16)
H59? H 0.7513 0.0539 0.1418
H60? H 0.7037 0.0171 0.1262
C39? C 0.728(2) -0.0205(19) 0.1459(19)
H61? H 0.6924 -0.0046 0.1502
H62? H 0.7282 -0.0387 0.1176
O10? O 0.7388(16) -0.0558(15) 0.1800(13)
C40? C 0.7374(12) 0.0265(7) 0.2243(14)
H63? H 0.7176 0.0317 0.2520
H64? H 0.7665 0.0526 0.2227
F5? F 0.958(3) 0.204(3) 0.184(4)
I2? I 0.9639(8) 0.1258(5) 0.1273(6)
C41? C 0.9894(11) 0.1048(9) 0.2217(10)
F6? F 0.9522(14) 0.0621(12) 0.2214(12)
I3? I 0.95035(15) 0.09380(18) 0.13046(9)
F7? F 0.9103(15) 0.0594(14) 0.2220(12)
F8? F 0.9879(12) 0.0199(11) 0.2085(10)
C42? C 0.956(2) 0.063(3) 0.1920(12)
F9? F 1.0337(13) 0.0708(13) 0.2059(11)
C43? C 0.9855(12) 0.1591(9) 0.2010(9)
F10? F 1.0375(13) 0.1637(15) 0.1803(12)
F11? F 0.9477(11) 0.1458(11) 0.2215(10)
F12? F 1.0387(13) 0.1186(18) 0.1993(13)
I4? I 0.6224(5) 0.2204(6) 0.1263(4)
I5? I 0.6441(4) 0.2049(7) 0.1303(4)
F13? F 0.6774(19) 0.208(2) 0.222(2)
C44? C 0.5754(9) 0.2384(8) 0.1993(9)
F14? F 0.5337 0.2014 0.1902
F15? F 0.5785 0.2854 0.1736
F16? F 0.6686 0.2794 0.2052
loop_
_geom_bond_atom_site_label_1
_geom_bond_atom_site_label_2
_geom_bond_site_symmetry_1
_geom_bond_site_symmetry_2
C1 F1 1_555 1_555
I1 C2 1_555 1_555
F2 C2 1_555 1_555
C2 C1 1_555 1_555
F3 C1 1_555 1_555
F4 C2 1_555 1_555
O1 H1 1_555 1_555
O2 H2 1_555 1_555
O3 H3 1_555 1_555
N1 H4 1_555 1_555
H5 N1 1_555 1_555
N2 H6 1_555 1_555
H7 N2 1_555 1_555
C3 O4 1_555 1_555
C4 H8 1_555 1_555
O4 H9 1_555 1_555
C5 O1 1_555 1_555
C6 N1 1_555 1_555
H10 C6 1_555 1_555
H11 C6 1_555 1_555
C7 O3 1_555 1_555
C8 H12 1_555 1_555
C9 O2 1_555 1_555
C10 H13 1_555 1_555
C11 C9 1_555 1_555
C12 N2 1_555 1_555
H14 C12 1_555 1_555
H15 C12 1_555 1_555
C13 C7 1_555 1_555
C14 C6 1_555 1_555
H16 C14 1_555 1_555
H17 C14 1_555 1_555
C15 H18 1_555 1_555
H19 C15 1_555 1_555
C16 C3 1_555 1_555
C17 N2 1_555 1_555
H20 C17 1_555 1_555
H21 C17 1_555 1_555
C18 C4 1_555 1_555
C19 C11 1_555 1_555
H22 C19 1_555 1_555
C20 C3 1_555 1_555
C21 N1 1_555 1_555
H23 C21 1_555 1_555
H24 C21 1_555 1_555
C22 C7 1_555 1_555
C23 C10 1_555 1_555
H25 C23 1_555 1_555
H26 C23 1_555 1_555
C24 C14 1_555 1_555
H27 C24 1_555 1_555
H28 C24 1_555 1_555
H29 C24 1_555 1_555
C25 C23 1_555 1_555
H30 C25 1_555 1_555
H31 C25 1_555 1_555
C26 C15 1_555 1_555
H32 C26 1_555 1_555
H33 C26 1_555 1_555
H34 C26 1_555 1_555
C27 C25 1_555 1_555
H35 C27 1_555 1_555
H36 C27 1_555 1_555
H37 C27 1_555 1_555
C28 H38 1_555 1_555
H39 C28 1_555 1_555
C29 C28 1_555 1_555
H40 C29 1_555 1_555
H41 C29 1_555 1_555
H42 C29 1_555 1_555
C30 C8 1_555 1_555
H43 C30 1_555 1_555
H44 C30 1_555 1_555
C31 H45 1_555 1_555
H46 C31 1_555 1_555
O5 C32 1_555 1_555
C32 C31 1_555 1_555
H47 C32 1_555 1_555
H48 C32 1_555 1_555
O6 C31 1_555 1_555
O7 C33 1_555 1_555
C33 H49 1_555 1_555
H50 C33 1_555 1_555
C34 O7 1_555 1_555
H51 C34 1_555 1_555
H52 C34 1_555 1_555
O8 C35 1_555 1_555
C35 H53 1_555 1_555
H54 C35 1_555 1_555
C36 O8 1_555 1_555
H55 C36 1_555 1_555
H56 C36 1_555 1_555
C1B C1 1_555 1_555
F1B C1B 1_555 1_555
I1B C2B 1_555 1_555
F2B C2B 1_555 1_555
C2B C1B 1_555 1_555
F3B C1B 1_555 1_555
F4B C2B 1_555 1_555
O1E H1E 1_555 1_555
O2E H2E 1_555 1_555
O3E H3E 1_555 1_555
N1E H4E 1_555 1_555
H5E N1E 1_555 1_555
N2E H6E 1_555 1_555
H7E N2E 1_555 1_555
C3E O4E 1_555 1_555
C4E H8E 1_555 1_555
O4E H9E 1_555 1_555
C5E O1E 1_555 1_555
C6E N1E 1_555 1_555
H10E C6E 1_555 1_555
H11E C6E 1_555 1_555
C7E O3E 1_555 1_555
C8E H12E 1_555 1_555
C9E O2E 1_555 1_555
C10E C20 1_555 1_555
H13E C10E 1_555 1_555
C11E C9E 1_555 1_555
C12E N2E 1_555 1_555
H14E C12E 1_555 1_555
H15E C12E 1_555 1_555
C13E C7E 1_555 1_555
C14E C6E 1_555 1_555
H16E C14E 1_555 1_555
H17E C14E 1_555 1_555
C15E H18E 1_555 1_555
H19E C15E 1_555 1_555
C16E C3E 1_555 1_555
C17E N2E 1_555 1_555
H20E C17E 1_555 1_555
H21E C17E 1_555 1_555
C18E C4E 1_555 1_555
C19E C11E 1_555 1_555
H22E C19E 1_555 1_555
C20E C10 1_555 1_555
C21E N1E 1_555 1_555
H23E C21E 1_555 1_555
H24E C21E 1_555 1_555
C22E C7E 1_555 1_555
C23E C10E 1_555 1_555
H25E C23E 1_555 1_555
H26E C23E 1_555 1_555
C24E C14E 1_555 1_555
H27E C24E 1_555 1_555
H28E C24E 1_555 1_555
H29E C24E 1_555 1_555
C25E C23E 1_555 1_555
H30E C25E 1_555 1_555
H31E C25E 1_555 1_555
C26E C15E 1_555 1_555
H32E C26E 1_555 1_555
H33E C26E 1_555 1_555
H34E C26E 1_555 1_555
C27E C25E 1_555 1_555
H35E C27E 1_555 1_555
H36E C27E 1_555 1_555
H37E C27E 1_555 1_555
C28E H38E 1_555 1_555
H39E C28E 1_555 1_555
C29E C28E 1_555 1_555
H40E C29E 1_555 1_555
H41E C29E 1_555 1_555
H42E C29E 1_555 1_555
C30E C8E 1_555 1_555
H43E C30E 1_555 1_555
H44E C30E 1_555 1_555
C31E O6 1_555 1_555
H45E C31E 1_555 1_555
H46E C31E 1_555 1_555
C32E O5 1_555 1_555
H47E C32E 1_555 1_555
H48E C32E 1_555 1_555
O7E C33E 1_555 1_555
C33E C33 1_555 1_555
H49E C33E 1_555 1_555
H50E C33E 1_555 1_555
C34E C34 1_555 1_555
H51E C34E 1_555 1_555
H52E C34E 1_555 1_555
O8A C35A 1_555 1_555
C35A C35 1_555 1_555
H53A C35A 1_555 1_555
H54A C35A 1_555 1_555
C36A C36 1_555 1_555
H55A C36A 1_555 1_555
H56A C36A 1_555 1_555
C4 C20 1_555 1_555
C5 C16 1_555 1_555
C5 C18 1_555 1_555
C8 C18 1_555 1_555
C8 C22 1_555 1_555
C9 C13 1_555 1_555
C10 C11 1_555 1_555
C12 C16 1_555 1_555
C13 C21 1_555 1_555
C15 C17 1_555 1_555
C19 C22 1_555 1_555
C28 C30 1_555 1_555
C3E C20E 1_555 1_555
C4E C20E 1_555 1_555
C5E C16E 1_555 1_555
C5E C18E 1_555 1_555
C8E C18E 1_555 1_555
C8E C22E 1_555 1_555
C9E C13E 1_555 1_555
C10E C11E 1_555 1_555
C12E C16E 1_555 1_555
C13E C21E 1_555 1_555
C15E C17E 1_555 1_555
C19E C22E 1_555 1_555
C28E C30E 1_555 1_555
C31E C32E 1_555 1_555
O7E C34E 1_555 1_555
O8A C36A 1_555 1_555

#END
