
#######################################################################
#
#                 Cambridge Crystallographic Data Centre
#                                CCDC 
#
#######################################################################
#
# If this CIF has been generated from an entry in the Cambridge 
# Structural Database, then it will include bibliographic, chemical, 
# crystal, experimental, refinement or atomic coordinate data resulting 
# from the CCDC's data processing and validation procedures.
#
#######################################################################

data_SUQBEN
_chemical_formula_moiety         'C24 H17 F1'
_chemical_name_systematic        5'-(4-fluorophenyl)-1,1':3',1''-terphenyl
_symmetry_cell_setting           orthorhombic
_symmetry_space_group_name_H-M   'P n a 21'
_symmetry_Int_Tables_number      33
_space_group_name_Hall           'P 2c -2n'
loop_
_symmetry_equiv_pos_site_id
_symmetry_equiv_pos_as_xyz
1 x,y,z
2 -x,-y,1/2+z
3 1/2+x,1/2-y,z
4 1/2-x,1/2+y,1/2+z
_cell_length_a                   7.5120(2)
_cell_length_b                   20.1473(8)
_cell_length_c                   11.4124(5)
_cell_angle_alpha                90
_cell_angle_beta                 90
_cell_angle_gamma                90
_cell_volume                     1727.23
_cell_formula_units_Z            4
loop_
_atom_site_label
_atom_site_type_symbol
_atom_site_fract_x
_atom_site_fract_y
_atom_site_fract_z
C1 C 0.2463(4) 0.73034(15) 0.3039(3)
C2 C 0.2750(4) 0.72931(15) 0.4237(3)
H1 H 0.2947 0.7691 0.4630
C3 C 0.2751(4) 0.67011(16) 0.4871(3)
C4 C 0.2459(4) 0.61076(15) 0.4264(3)
H2 H 0.2465 0.5709 0.4673
C5 C 0.2159(4) 0.61009(15) 0.3060(3)
C6 C 0.2162(4) 0.67010(15) 0.2458(3)
H3 H 0.1959 0.6703 0.1654
C7 C 0.2449(4) 0.79362(15) 0.2376(3)
C8 C 0.3075(6) 0.79682(17) 0.1236(3)
H4 H 0.3513 0.7586 0.0882
C9 C 0.3061(6) 0.8560(2) 0.0613(4)
H5 H 0.3482 0.8576 -0.0153
C10 C 0.2421(6) 0.9117(2) 0.1143(4)
C11 C 0.1812(5) 0.91060(17) 0.2263(4)
H6 H 0.1390 0.9493 0.2611
C12 C 0.1823(5) 0.85188(16) 0.2880(4)
H7 H 0.1404 0.8512 0.3647
C13 C 0.3090(4) 0.66911(15) 0.6154(3)
C14 C 0.2404(5) 0.71756(19) 0.6885(3)
H8 H 0.1718 0.7515 0.6566
C15 C 0.2712(6) 0.7167(2) 0.8074(4)
H9 H 0.2225 0.7495 0.8550
C16 C 0.3745(6) 0.6670(2) 0.8560(4)
C17 C 0.4439(5) 0.61850(19) 0.7844(4)
H10 H 0.5133 0.5848 0.8161
C18 C 0.4104(5) 0.62000(17) 0.6662(3)
H11 H 0.4577 0.5868 0.6190
C19 C 0.1830(4) 0.54654(15) 0.2425(3)
C20 C 0.0912(4) 0.49444(16) 0.2947(4)
H12 H 0.0496 0.4992 0.3710
C21 C 0.0606(5) 0.43551(16) 0.2353(4)
H13 H -0.0008 0.4011 0.2716
C22 C 0.1214(5) 0.42822(19) 0.1227(4)
C23 C 0.2123(5) 0.4790(2) 0.0686(4)
H14 H 0.2532 0.4738 -0.0077
C24 C 0.2427(4) 0.53786(17) 0.1281(3)
H15 H 0.3039 0.5721 0.0910
F1 F 0.2270(8) 0.9642(2) 0.0562(5)
F2? F 0.1168(10) 0.3752(4) 0.0698(8)
F3? F 0.4067(13) 0.6678(4) 0.9547(7)
loop_
_geom_bond_atom_site_label_1
_geom_bond_atom_site_label_2
_geom_bond_site_symmetry_1
_geom_bond_site_symmetry_2
C1 C2 1_555 1_555
C2 H1 1_555 1_555
C3 C2 1_555 1_555
C4 C3 1_555 1_555
H2 C4 1_555 1_555
C5 C4 1_555 1_555
C6 C1 1_555 1_555
H3 C6 1_555 1_555
C7 C1 1_555 1_555
C8 C7 1_555 1_555
H4 C8 1_555 1_555
C9 C8 1_555 1_555
H5 C9 1_555 1_555
C10 C9 1_555 1_555
C11 C10 1_555 1_555
H6 C11 1_555 1_555
C12 C7 1_555 1_555
H7 C12 1_555 1_555
C13 C3 1_555 1_555
C14 C13 1_555 1_555
H8 C14 1_555 1_555
C15 C14 1_555 1_555
H9 C15 1_555 1_555
C16 C15 1_555 1_555
C17 C16 1_555 1_555
H10 C17 1_555 1_555
C18 C13 1_555 1_555
H11 C18 1_555 1_555
C19 C5 1_555 1_555
C20 C19 1_555 1_555
H12 C20 1_555 1_555
C21 C20 1_555 1_555
H13 C21 1_555 1_555
C22 C21 1_555 1_555
C23 C22 1_555 1_555
H14 C23 1_555 1_555
C24 C19 1_555 1_555
H15 C24 1_555 1_555
F1 C10 1_555 1_555
C5 C6 1_555 1_555
C11 C12 1_555 1_555
C17 C18 1_555 1_555
C23 C24 1_555 1_555

#END
