
#######################################################################
#
#                 Cambridge Crystallographic Data Centre
#                                CCDC 
#
#######################################################################
#
# If this CIF has been generated from an entry in the Cambridge 
# Structural Database, then it will include bibliographic, chemical, 
# crystal, experimental, refinement or atomic coordinate data resulting 
# from the CCDC's data processing and validation procedures.
#
#######################################################################

data_SURPUS
_chemical_formula_moiety         'C22 H20 Br1 N1 O1'
_chemical_name_systematic        9-(4-(4-bromophenoxy)butyl)-9H-carbazole
_symmetry_cell_setting           monoclinic
_symmetry_space_group_name_H-M   'P 21/n'
_symmetry_Int_Tables_number      14
_space_group_name_Hall           '-P 2yn'
loop_
_symmetry_equiv_pos_site_id
_symmetry_equiv_pos_as_xyz
1 x,y,z
2 1/2-x,1/2+y,1/2-z
3 -x,-y,-z
4 1/2+x,1/2-y,1/2+z
_cell_length_a                   9.5118(19)
_cell_length_b                   19.672(4)
_cell_length_c                   9.821(2)
_cell_angle_alpha                90
_cell_angle_beta                 91.45(3)
_cell_angle_gamma                90
_cell_volume                     1837.08
_exptl_crystal_colour            colorless
_exptl_crystal_description       block
_cell_formula_units_Z            4
loop_
_atom_site_label
_atom_site_type_symbol
_atom_site_fract_x
_atom_site_fract_y
_atom_site_fract_z
Br1 Br -0.42034(3) 0.024196(17) 0.75035(4)
N1 N 0.4787(2) 0.26762(10) 0.8861(2)
O1 O 0.1237(2) 0.15322(10) 0.93568(17)
C1 C 0.3936(3) 0.32341(12) 0.8606(2)
C2 C 0.6119(3) 0.29032(12) 0.9242(2)
C3 C 0.2521(3) 0.32635(14) 0.8232(3)
H1 H 0.1992 0.2870 0.8113
C4 C 0.4735(3) 0.38281(12) 0.8818(2)
C5 C 0.6123(3) 0.36177(12) 0.9230(2)
C6 C -0.2481(3) 0.06431(14) 0.8101(3)
C7 C 0.0003(3) 0.12217(14) 0.9004(3)
C8 C 0.4096(3) 0.44571(14) 0.8607(3)
H2 H 0.4610 0.4856 0.8727
C9 C 0.7360(3) 0.39588(14) 0.9581(3)
H3 H 0.7385 0.4431 0.9586
C10 C 0.7309(3) 0.25281(15) 0.9585(3)
H4 H 0.7298 0.2055 0.9585
C11 C -0.0446(3) 0.12893(16) 0.7656(3)
H5 H 0.0100 0.1531 0.7051
C12 C 0.4386(3) 0.19666(13) 0.8746(3)
H6 H 0.5083 0.1728 0.8224
H7 H 0.3493 0.1935 0.8251
C13 C 0.1930(3) 0.38933(15) 0.8045(3)
H8 H 0.0983 0.3923 0.7792
C14 C 0.2698(3) 0.44840(16) 0.8219(3)
H9 H 0.2266 0.4903 0.8073
C15 C -0.2052(3) 0.05713(15) 0.9436(3)
H10 H -0.2601 0.0327 1.0034
C16 C 0.8548(3) 0.35899(17) 0.9920(3)
H11 H 0.9381 0.3815 1.0147
C17 C 0.3060(3) 0.18843(16) 1.0949(3)
H12 H 0.2887 0.2356 1.0709
H13 H 0.3346 0.1871 1.1904
C18 C -0.1692(3) 0.10012(15) 0.7206(3)
H14 H -0.1993 0.1050 0.6303
C19 C -0.0805(3) 0.08604(15) 0.9893(3)
H15 H -0.0512 0.0811 1.0798
C20 C 0.1696(3) 0.14907(16) 1.0765(3)
H16 H 0.1842 0.1019 1.1022
H17 H 0.0984 0.1681 1.1343
C21 C 0.8514(3) 0.28899(18) 0.9926(3)
H18 H 0.9329 0.2653 1.0167
C22 C 0.4254(3) 0.16214(16) 1.0112(3)
H19 H 0.4122 0.1138 0.9964
H20 H 0.5128 0.1681 1.0628
loop_
_geom_bond_atom_site_label_1
_geom_bond_atom_site_label_2
_geom_bond_site_symmetry_1
_geom_bond_site_symmetry_2
Br1 C6 1_555 1_555
N1 C1 1_555 1_555
O1 C7 1_555 1_555
C1 C3 1_555 1_555
C2 N1 1_555 1_555
C3 H1 1_555 1_555
C4 C1 1_555 1_555
C5 C2 1_555 1_555
C6 C15 1_555 1_555
C7 C11 1_555 1_555
C8 C4 1_555 1_555
H2 C8 1_555 1_555
C9 C5 1_555 1_555
H3 C9 1_555 1_555
C10 C2 1_555 1_555
H4 C10 1_555 1_555
C11 H5 1_555 1_555
C12 N1 1_555 1_555
H6 C12 1_555 1_555
H7 C12 1_555 1_555
C13 C3 1_555 1_555
H8 C13 1_555 1_555
C14 C8 1_555 1_555
H9 C14 1_555 1_555
C15 H10 1_555 1_555
C16 C9 1_555 1_555
H11 C16 1_555 1_555
C17 H12 1_555 1_555
H13 C17 1_555 1_555
C18 C6 1_555 1_555
H14 C18 1_555 1_555
C19 C7 1_555 1_555
H15 C19 1_555 1_555
C20 O1 1_555 1_555
H16 C20 1_555 1_555
H17 C20 1_555 1_555
C21 C10 1_555 1_555
H18 C21 1_555 1_555
C22 C12 1_555 1_555
H19 C22 1_555 1_555
H20 C22 1_555 1_555
C4 C5 1_555 1_555
C11 C18 1_555 1_555
C13 C14 1_555 1_555
C15 C19 1_555 1_555
C16 C21 1_555 1_555
C17 C20 1_555 1_555
C17 C22 1_555 1_555

#END
