
#######################################################################
#
#                 Cambridge Crystallographic Data Centre
#                                CCDC 
#
#######################################################################
#
# If this CIF has been generated from an entry in the Cambridge 
# Structural Database, then it will include bibliographic, chemical, 
# crystal, experimental, refinement or atomic coordinate data resulting 
# from the CCDC's data processing and validation procedures.
#
#######################################################################

data_SURPOM
_chemical_formula_moiety         'C20 H16 Br1 N1 O1'
_chemical_name_systematic        9-(2-(4-bromophenoxy)ethyl)-9H-carbazole
_symmetry_cell_setting           orthorhombic
_symmetry_space_group_name_H-M   'P 21 21 21'
_symmetry_Int_Tables_number      19
_space_group_name_Hall           'P 2ac 2ab'
loop_
_symmetry_equiv_pos_site_id
_symmetry_equiv_pos_as_xyz
1 x,y,z
2 1/2-x,-y,1/2+z
3 -x,1/2+y,1/2-z
4 1/2+x,1/2-y,-z
_cell_length_a                   5.6160(8)
_cell_length_b                   13.1439(19)
_cell_length_c                   22.937(2)
_cell_angle_alpha                90
_cell_angle_beta                 90
_cell_angle_gamma                90
_cell_volume                     1693.12
_exptl_crystal_colour            colorless
_exptl_crystal_description       rodlike
_cell_formula_units_Z            4
loop_
_atom_site_label
_atom_site_type_symbol
_atom_site_fract_x
_atom_site_fract_y
_atom_site_fract_z
Br1 Br 0.1826(3) 0.49989(10) -0.04517(4)
O1 O 0.4110(9) 0.2162(4) 0.1514(2)
N1 N 0.4437(10) 0.1068(5) 0.2584(3)
C1 C -0.0593(17) -0.0551(8) 0.2847(6)
H1 H -0.1624 -0.0679 0.3156
C2 C -0.082(2) -0.1072(8) 0.2339(7)
H2 H -0.1988 -0.1569 0.2305
C3 C 0.065(2) -0.0880(8) 0.1879(6)
H3 H 0.0394 -0.1225 0.1531
C4 C 0.2491(18) -0.0189(7) 0.1912(4)
H4 H 0.3506 -0.0081 0.1597
C5 C 0.2777(13) 0.0339(5) 0.2432(3)
C6 C 0.1235(15) 0.0194(6) 0.2904(3)
C7 C 0.3965(15) 0.1380(6) 0.3140(4)
C8 C 0.5200(18) 0.2105(7) 0.3471(4)
H5 H 0.6533 0.2441 0.3326
C9 C 0.432(3) 0.2293(9) 0.4026(6)
H6 H 0.5116 0.2752 0.4266
C10 C 0.232(3) 0.1822(10) 0.4228(5)
H7 H 0.1773 0.1984 0.4599
C11 C 0.111(2) 0.1132(9) 0.3912(4)
H8 H -0.0261 0.0829 0.4057
C12 C 0.1982(15) 0.0883(6) 0.3355(3)
C13 C 0.6455(15) 0.1371(6) 0.2235(4)
H9 H 0.6840 0.0826 0.1967
H10 H 0.7817 0.1469 0.2489
C14 C 0.6040(13) 0.2343(6) 0.1889(3)
H11 H 0.5682 0.2903 0.2150
H12 H 0.7451 0.2516 0.1666
C15 C 0.1684(14) 0.2672(6) 0.0755(3)
H13 H 0.0722 0.2117 0.0843
C16 C 0.1136(15) 0.3302(7) 0.0301(3)
H14 H -0.0198 0.3168 0.0073
C17 C 0.2526(17) 0.4128(7) 0.0177(3)
C18 C 0.4510(17) 0.4321(6) 0.0507(4)
H15 H 0.5474 0.4874 0.0418
C19 C 0.5089(14) 0.3698(6) 0.0972(3)
H16 H 0.6408 0.3839 0.1203
C20 C 0.3699(14) 0.2877(6) 0.1084(3)
loop_
_geom_bond_atom_site_label_1
_geom_bond_atom_site_label_2
_geom_bond_site_symmetry_1
_geom_bond_site_symmetry_2
Br1 C17 1_555 1_555
O1 C14 1_555 1_555
N1 C5 1_555 1_555
C1 H1 1_555 1_555
C2 C1 1_555 1_555
H2 C2 1_555 1_555
C3 C2 1_555 1_555
H3 C3 1_555 1_555
C4 C3 1_555 1_555
H4 C4 1_555 1_555
C5 C4 1_555 1_555
C6 C1 1_555 1_555
C7 N1 1_555 1_555
C8 C7 1_555 1_555
H5 C8 1_555 1_555
C9 C8 1_555 1_555
H6 C9 1_555 1_555
C10 C9 1_555 1_555
H7 C10 1_555 1_555
C11 C10 1_555 1_555
H8 C11 1_555 1_555
C12 C6 1_555 1_555
C13 N1 1_555 1_555
H9 C13 1_555 1_555
H10 C13 1_555 1_555
C14 C13 1_555 1_555
H11 C14 1_555 1_555
H12 C14 1_555 1_555
C15 H13 1_555 1_555
C16 C15 1_555 1_555
H14 C16 1_555 1_555
C17 C16 1_555 1_555
C18 C17 1_555 1_555
H15 C18 1_555 1_555
C19 C18 1_555 1_555
H16 C19 1_555 1_555
C20 O1 1_555 1_555
C5 C6 1_555 1_555
C7 C12 1_555 1_555
C11 C12 1_555 1_555
C15 C20 1_555 1_555
C19 C20 1_555 1_555

#END
