
#######################################################################
#
#                 Cambridge Crystallographic Data Centre
#                                CCDC 
#
#######################################################################
#
# If this CIF has been generated from an entry in the Cambridge 
# Structural Database, then it will include bibliographic, chemical, 
# crystal, experimental, refinement or atomic coordinate data resulting 
# from the CCDC's data processing and validation procedures.
#
#######################################################################

data_SURXOT
_chemical_formula_moiety         'C27 H32 B1 N1 S1'
_chemical_name_systematic        
(Cyano)(2-(dimethylsulfonio)phenyl)dimesitylborate
_symmetry_cell_setting           monoclinic
_symmetry_space_group_name_H-M   'P 21/c'
_symmetry_Int_Tables_number      14
_space_group_name_Hall           '-P 2ybc'
loop_
_symmetry_equiv_pos_site_id
_symmetry_equiv_pos_as_xyz
1 x,y,z
2 -x,1/2+y,1/2-z
3 -x,-y,-z
4 x,1/2-y,1/2+z
_cell_length_a                   8.6248(17)
_cell_length_b                   14.589(3)
_cell_length_c                   18.030(4)
_cell_angle_alpha                90
_cell_angle_beta                 96.42(3)
_cell_angle_gamma                90
_cell_volume                     2254.44
_exptl_crystal_colour            colorless
_exptl_crystal_description       block
_cell_formula_units_Z            4
loop_
_atom_site_label
_atom_site_type_symbol
_atom_site_fract_x
_atom_site_fract_y
_atom_site_fract_z
S1 S 0.40790(11) 0.09490(6) 0.31508(5)
N1 N 0.4150(4) 0.2928(2) 0.23255(18)
C1 C 0.8853(4) 0.3731(2) 0.38031(19)
C2 C 0.7227(4) 0.3582(2) 0.37503(19)
C3 C 0.9482(4) 0.4597(2) 0.39827(19)
H1 H 1.0582 0.4670 0.4016
C4 C 0.5181(4) 0.2261(2) 0.41564(19)
C5 C 0.8079(4) 0.1150(2) 0.4024(2)
C6 C 0.5107(4) 0.2781(2) 0.2809(2)
C7 C 0.8593(4) 0.5346(2) 0.4114(2)
C8 C 0.7439(4) 0.1672(2) 0.3414(2)
C9 C 0.4168(4) 0.1512(2) 0.40312(19)
C10 C 0.3288(4) 0.1607(3) 0.5234(2)
H2 H 0.2661 0.1393 0.5599
C11 C 0.6308(4) 0.4369(2) 0.3867(2)
C12 C 1.0027(4) 0.3000(3) 0.3669(2)
H3 H 1.1079 0.3264 0.3733
H4 H 0.9801 0.2762 0.3161
H5 H 0.9965 0.2500 0.4028
C13 C 0.5180(4) 0.2661(3) 0.4862(2)
H6 H 0.5834 0.3177 0.4981
C14 C 0.7002(5) 0.5214(2) 0.4050(2)
H7 H 0.6350 0.5720 0.4133
C15 C 0.4285(4) 0.2347(3) 0.5389(2)
H8 H 0.4345 0.2637 0.5863
C16 C 0.3215(4) 0.1187(3) 0.4548(2)
H9 H 0.2529 0.0686 0.4429
C17 C 0.7693(4) 0.1326(3) 0.2709(2)
C18 C 0.8861(4) -0.0077(3) 0.3240(2)
C19 C 0.8758(4) 0.0295(2) 0.3933(2)
H10 H 0.9163 -0.0040 0.4363
B1 B 0.6362(5) 0.2589(3) 0.3542(2)
C20 C 0.4537(4) 0.4381(3) 0.3779(2)
H11 H 0.4171 0.4995 0.3898
H12 H 0.4153 0.3933 0.4120
H13 H 0.4144 0.4225 0.3264
C21 C 0.2077(4) 0.1062(3) 0.2799(2)
H14 H 0.1854 0.1703 0.2663
H15 H 0.1424 0.0872 0.3182
H16 H 0.1851 0.0674 0.2356
C22 C 0.9297(5) 0.6278(3) 0.4293(2)
H17 H 0.8466 0.6715 0.4368
H18 H 0.9854 0.6484 0.3878
H19 H 1.0028 0.6239 0.4749
C23 C 0.8354(4) 0.0467(3) 0.2640(2)
H20 H 0.8461 0.0244 0.2153
C24 C 0.4220(5) -0.0233(3) 0.3365(2)
H21 H 0.5298 -0.0382 0.3556
H22 H 0.3910 -0.0591 0.2913
H23 H 0.3528 -0.0380 0.3744
C25 C 0.8179(5) 0.1492(3) 0.4821(2)
H24 H 0.7637 0.2082 0.4833
H25 H 0.9277 0.1571 0.5018
H26 H 0.7689 0.1046 0.5128
C26 C 0.9564(5) -0.1016(3) 0.3148(3)
H27 H 0.9525 -0.1162 0.2616
H28 H 0.8971 -0.1476 0.3395
H29 H 1.0651 -0.1018 0.3374
C27 C 0.7319(5) 0.1870(4) 0.1999(2)
H30 H 0.6895 0.2469 0.2117
H31 H 0.6547 0.1537 0.1660
H32 H 0.8272 0.1957 0.1758
loop_
_geom_bond_atom_site_label_1
_geom_bond_atom_site_label_2
_geom_bond_site_symmetry_1
_geom_bond_site_symmetry_2
S1 C9 1_555 1_555
N1 C6 1_555 1_555
C1 C2 1_555 1_555
C2 C11 1_555 1_555
C3 C1 1_555 1_555
H1 C3 1_555 1_555
C4 C9 1_555 1_555
C5 C8 1_555 1_555
C6 B1 1_555 1_555
C7 C3 1_555 1_555
C8 C17 1_555 1_555
C9 C16 1_555 1_555
C10 H2 1_555 1_555
C11 C14 1_555 1_555
C12 C1 1_555 1_555
H3 C12 1_555 1_555
H4 C12 1_555 1_555
H5 C12 1_555 1_555
C13 C4 1_555 1_555
H6 C13 1_555 1_555
C14 C7 1_555 1_555
H7 C14 1_555 1_555
C15 C10 1_555 1_555
H8 C15 1_555 1_555
C16 C10 1_555 1_555
H9 C16 1_555 1_555
C17 C23 1_555 1_555
C18 C19 1_555 1_555
C19 C5 1_555 1_555
H10 C19 1_555 1_555
B1 C2 1_555 1_555
C20 C11 1_555 1_555
H11 C20 1_555 1_555
H12 C20 1_555 1_555
H13 C20 1_555 1_555
C21 S1 1_555 1_555
H14 C21 1_555 1_555
H15 C21 1_555 1_555
H16 C21 1_555 1_555
C22 C7 1_555 1_555
H17 C22 1_555 1_555
H18 C22 1_555 1_555
H19 C22 1_555 1_555
C23 C18 1_555 1_555
H20 C23 1_555 1_555
C24 S1 1_555 1_555
H21 C24 1_555 1_555
H22 C24 1_555 1_555
H23 C24 1_555 1_555
C25 C5 1_555 1_555
H24 C25 1_555 1_555
H25 C25 1_555 1_555
H26 C25 1_555 1_555
C26 C18 1_555 1_555
H27 C26 1_555 1_555
H28 C26 1_555 1_555
H29 C26 1_555 1_555
C27 C17 1_555 1_555
H30 C27 1_555 1_555
H31 C27 1_555 1_555
H32 C27 1_555 1_555
C4 B1 1_555 1_555
C8 B1 1_555 1_555
C13 C15 1_555 1_555

#END
