
#######################################################################
#
#                 Cambridge Crystallographic Data Centre
#                                CCDC 
#
#######################################################################
#
# If this CIF has been generated from an entry in the Cambridge 
# Structural Database, then it will include bibliographic, chemical, 
# crystal, experimental, refinement or atomic coordinate data resulting 
# from the CCDC's data processing and validation procedures.
#
#######################################################################

data_SUSXEK
_chemical_formula_moiety         'C25 H13 N1 O8,C3 H7 N1 O1'
_chemical_name_systematic        
'9-(2-Hydroxy-5-nitrophenyl)-9H-dibenzo(c,h)-2,7,10-trioxanthene-1,8-dione dimethylformamide solvate'
_symmetry_cell_setting           triclinic
_symmetry_space_group_name_H-M   'P -1'
_symmetry_Int_Tables_number      2
_space_group_name_Hall           '-P 1'
loop_
_symmetry_equiv_pos_site_id
_symmetry_equiv_pos_as_xyz
1 x,y,z
2 -x,-y,-z
_cell_length_a                   10.210(3)
_cell_length_b                   10.698(4)
_cell_length_c                   12.522(4)
_cell_angle_alpha                92.214(6)
_cell_angle_beta                 113.751(5)
_cell_angle_gamma                105.040(5)
_cell_volume                     1193.05
_chemical_melting_point          250-253deg.C
_cell_formula_units_Z            2
loop_
_atom_site_label
_atom_site_type_symbol
_atom_site_fract_x
_atom_site_fract_y
_atom_site_fract_z
O1 O 0.6996(3) 0.6119(3) -0.24010(17)
O2 O 0.8631(2) 0.5229(2) -0.14105(16)
O3 O 0.64626(17) 0.65693(16) 0.23630(12)
H1 H 0.5870 0.6999 0.2220
O4 O 0.7571(2) 0.28418(18) 0.15408(16)
O5 O 0.63408(19) 0.21519(15) 0.26063(14)
O6 O 0.80433(17) 0.57641(15) 0.46978(12)
O7 O 1.1304(2) 0.7737(2) 0.30016(17)
O8 O 1.14951(18) 0.87346(17) 0.46456(16)
N1 N 0.7696(3) 0.5759(2) -0.14918(18)
C1 C 0.6760(2) 0.6397(2) 0.14224(17)
C2 C 0.5945(2) 0.6738(2) 0.03411(18)
H2 H 0.5183 0.7102 0.0261
C3 C 0.6263(3) 0.6537(2) -0.06012(19)
H3 H 0.5733 0.6778 -0.1318
C4 C 0.7370(2) 0.5977(2) -0.04821(18)
C5 C 0.8196(2) 0.5639(2) 0.05801(19)
H4 H 0.8943 0.5262 0.0643
C6 C 0.7916(2) 0.5861(2) 0.15544(17)
C7 C 0.8843(2) 0.5499(2) 0.27336(18)
H5 H 0.9623 0.5190 0.2644
C8 C 0.7891(2) 0.4409(2) 0.30690(18)
C9 C 0.7305(3) 0.3127(2) 0.2355(2)
C10 C 0.5921(3) 0.2365(2) 0.3499(2)
C11 C 0.4922(3) 0.1331(3) 0.3653(3)
H6 H 0.4553 0.0522 0.3170
C12 C 0.4480(3) 0.1508(3) 0.4521(3)
H7 H 0.3806 0.0812 0.4630
C13 C 0.5017(3) 0.2708(3) 0.5245(3)
H8 H 0.4696 0.2815 0.5831
C14 C 0.6025(3) 0.3740(3) 0.5101(2)
H9 H 0.6395 0.4544 0.5592
C15 C 0.6493(2) 0.3578(2) 0.42145(19)
C16 C 0.7508(2) 0.4593(2) 0.39608(18)
C17 C 0.9155(2) 0.6725(2) 0.46034(18)
C18 C 0.9803(3) 0.7844(2) 0.55162(19)
C19 C 0.9310(3) 0.8008(3) 0.6389(2)
H10 H 0.8524 0.7357 0.6417
C20 C 1.0002(4) 0.9146(3) 0.7211(2)
H11 H 0.9664 0.9274 0.7782
C21 C 1.1194(4) 1.0091(3) 0.7183(3)
H12 H 1.1666 1.0842 0.7753
C22 C 1.1699(3) 0.9951(3) 0.6340(2)
H13 H 1.2505 1.0596 0.6334
C23 C 1.0990(3) 0.8837(2) 0.5501(2)
C24 C 1.0819(3) 0.7693(3) 0.3730(2)
C25 C 0.9603(2) 0.6642(2) 0.37366(18)
O9 O 0.4712(2) 0.8063(2) 0.19492(18)
N2 N 0.2695(2) 0.8682(2) 0.08969(17)
C26 C 0.3379(3) 0.7937(3) 0.1575(2)
H14 H 0.2801 0.7258 0.1787
C27 C 0.3471(4) 0.9699(3) 0.0467(3)
H15 H 0.4533 0.9856 0.0894
H16 H 0.3227 1.0488 0.0577
H17 H 0.3174 0.9438 -0.0359
C28 C 0.1092(4) 0.8400(5) 0.0443(4)
H18 H 0.0715 0.7750 0.0840
H19 H 0.0637 0.8076 -0.0390
H20 H 0.0855 0.9187 0.0575
loop_
_geom_bond_atom_site_label_1
_geom_bond_atom_site_label_2
_geom_bond_site_symmetry_1
_geom_bond_site_symmetry_2
O1 N1 1_555 1_555
O2 N1 1_555 1_555
O3 H1 1_555 1_555
O4 C9 1_555 1_555
O5 C9 1_555 1_555
O6 C16 1_555 1_555
O7 C24 1_555 1_555
O8 C23 1_555 1_555
N1 C4 1_555 1_555
C1 O3 1_555 1_555
C2 C1 1_555 1_555
H2 C2 1_555 1_555
C3 C2 1_555 1_555
H3 C3 1_555 1_555
C4 C3 1_555 1_555
C5 C4 1_555 1_555
H4 C5 1_555 1_555
C6 C1 1_555 1_555
C7 C6 1_555 1_555
H5 C7 1_555 1_555
C8 C7 1_555 1_555
C9 C8 1_555 1_555
C10 O5 1_555 1_555
C11 C10 1_555 1_555
H6 C11 1_555 1_555
C12 C11 1_555 1_555
H7 C12 1_555 1_555
C13 C12 1_555 1_555
H8 C13 1_555 1_555
C14 C13 1_555 1_555
H9 C14 1_555 1_555
C15 C10 1_555 1_555
C16 C8 1_555 1_555
C17 O6 1_555 1_555
C18 C17 1_555 1_555
C19 C18 1_555 1_555
H10 C19 1_555 1_555
C20 C19 1_555 1_555
H11 C20 1_555 1_555
C21 C20 1_555 1_555
H12 C21 1_555 1_555
C22 C21 1_555 1_555
H13 C22 1_555 1_555
C23 C18 1_555 1_555
C24 O8 1_555 1_555
C25 C7 1_555 1_555
O9 C26 1_555 1_555
N2 C26 1_555 1_555
C26 H14 1_555 1_555
C27 N2 1_555 1_555
H15 C27 1_555 1_555
H16 C27 1_555 1_555
H17 C27 1_555 1_555
C28 N2 1_555 1_555
H18 C28 1_555 1_555
H19 C28 1_555 1_555
H20 C28 1_555 1_555
C5 C6 1_555 1_555
C14 C15 1_555 1_555
C15 C16 1_555 1_555
C17 C25 1_555 1_555
C22 C23 1_555 1_555
C24 C25 1_555 1_555

#END
