
#######################################################################
#
#                 Cambridge Crystallographic Data Centre
#                                CCDC 
#
#######################################################################
#
# If this CIF has been generated from an entry in the Cambridge 
# Structural Database, then it will include bibliographic, chemical, 
# crystal, experimental, refinement or atomic coordinate data resulting 
# from the CCDC's data processing and validation procedures.
#
#######################################################################

data_SUSYAI01
_chemical_formula_moiety         'C3 H3 N7 O2,H2 O1'
_chemical_name_systematic        
'5-(4-amino-1,2,5-oxadiazol-3-yl)-1H-tetrazol-1-ol monohydrate'
_symmetry_cell_setting           monoclinic
_symmetry_space_group_name_H-M   'P 21/n'
_symmetry_Int_Tables_number      14
_space_group_name_Hall           '-P 2yn'
loop_
_symmetry_equiv_pos_site_id
_symmetry_equiv_pos_as_xyz
1 x,y,z
2 1/2-x,1/2+y,1/2-z
3 -x,-y,-z
4 1/2+x,1/2-y,1/2+z
_cell_length_a                   4.5711(9)
_cell_length_b                   13.471(3)
_cell_length_c                   11.956(3)
_cell_angle_alpha                90
_cell_angle_beta                 95.780(3)
_cell_angle_gamma                90
_cell_volume                     732.475
_exptl_crystal_colour            colorless
_exptl_crystal_description       block
_cell_formula_units_Z            4
loop_
_atom_site_label
_atom_site_type_symbol
_atom_site_fract_x
_atom_site_fract_y
_atom_site_fract_z
N1 N -0.1433(4) 0.48177(11) 0.62737(15)
H1 H -0.2350 0.5332 0.5994
H2 H 0.0023 0.4887 0.6782
N2 N -0.4448(3) 0.37235(12) 0.51522(13)
N3 N -0.2440(3) 0.22563(11) 0.57990(12)
N4 N 0.2852(3) 0.35585(10) 0.77497(12)
N5 N 0.4996(3) 0.31034(11) 0.84290(13)
N6 N 0.4927(3) 0.21514(11) 0.82890(12)
O1 O -0.4573(3) 0.26857(10) 0.50750(11)
O2 O 0.1897(3) 0.10441(9) 0.72249(11)
H3 H 0.1948 0.0963 0.6547
C1 C -0.2267(4) 0.39145(13) 0.59202(14)
C2 C -0.1025(4) 0.29858(12) 0.63179(14)
C3 C 0.1420(4) 0.28401(12) 0.71753(13)
N7 N 0.2702(3) 0.19854(10) 0.75022(13)
O3 O 0.7504(3) 0.44278(9) 1.01606(11)
H4 H 0.728(6) 0.3963(14) 0.9720(18)
H5 H 0.739(18) 0.486(5) 0.968(6)
loop_
_geom_bond_atom_site_label_1
_geom_bond_atom_site_label_2
_geom_bond_site_symmetry_1
_geom_bond_site_symmetry_2
N1 H1 1_555 1_555
H2 N1 1_555 1_555
N2 O1 1_555 1_555
N3 O1 1_555 1_555
N4 N5 1_555 1_555
N5 N6 1_555 1_555
N6 N7 1_555 1_555
O2 H3 1_555 1_555
C1 N1 1_555 1_555
C2 N3 1_555 1_555
C3 N4 1_555 1_555
N7 O2 1_555 1_555
O3 H4 1_555 1_555
H5 O3 1_555 1_555
N2 C1 1_555 1_555
C1 C2 1_555 1_555
C2 C3 1_555 1_555
C3 N7 1_555 1_555

#END
