
#######################################################################
#
#                 Cambridge Crystallographic Data Centre
#                                CCDC 
#
#######################################################################
#
# If this CIF has been generated from an entry in the Cambridge 
# Structural Database, then it will include bibliographic, chemical, 
# crystal, experimental, refinement or atomic coordinate data resulting 
# from the CCDC's data processing and validation procedures.
#
#######################################################################

data_SUTCUH
_chemical_formula_moiety         'C14 H27 B10 N1 Si1'
_chemical_name_systematic        
2,3-(1,2-Dicarba-closo-dodecaborane-1,2-diyl)-2-methyl-1-(trimethylsilyl)indole
_symmetry_cell_setting           orthorhombic
_symmetry_space_group_name_H-M   'P b c a'
_symmetry_Int_Tables_number      61
_space_group_name_Hall           '-P 2ac 2ab'
loop_
_symmetry_equiv_pos_site_id
_symmetry_equiv_pos_as_xyz
1 x,y,z
2 1/2-x,-y,1/2+z
3 -x,1/2+y,1/2-z
4 1/2+x,1/2-y,-z
5 -x,-y,-z
6 1/2+x,y,1/2-z
7 x,1/2-y,1/2+z
8 1/2-x,1/2+y,z
_cell_length_a                   13.5872(4)
_cell_length_b                   13.6524(4)
_cell_length_c                   44.1111(12)
_cell_angle_alpha                90
_cell_angle_beta                 90
_cell_angle_gamma                90
_cell_volume                     8182.52
_exptl_crystal_colour            colorless
_exptl_crystal_description       block
_cell_formula_units_Z            16
loop_
_atom_site_label
_atom_site_type_symbol
_atom_site_fract_x
_atom_site_fract_y
_atom_site_fract_z
Si1 Si 0.44593(9) 0.95037(8) 0.08390(2)
N1 N 0.4578(2) 0.8226(2) 0.08355(6)
B1 B 0.6467(3) 0.7047(4) 0.07193(11)
H1 H 0.6402 0.7270 0.0958
B2 B 0.6727(5) 0.5852(5) 0.06124(13)
H2 H 0.6822 0.5263 0.0780
B3 B 0.6193(6) 0.5651(5) 0.02587(14)
H3 H 0.5922 0.4922 0.0193
B4 B 0.5607(4) 0.6652(5) 0.01433(11)
H4 H 0.4959 0.6585 -0.0005
B5 B 0.6903(6) 0.7886(5) 0.04708(14)
H5 H 0.7101 0.8639 0.0536
B6 B 0.7580(4) 0.6807(5) 0.05770(12)
H6 H 0.8252 0.6848 0.0716
B7 B 0.7386(6) 0.5919(5) 0.02816(13)
H7 H 0.7923 0.5342 0.0227
B8 B 0.6738(5) 0.6505(5) -0.00078(12)
H8 H 0.6870 0.6372 -0.0250
B9 B 0.6347(7) 0.7658(5) 0.01106(12)
H9 H 0.6187 0.8270 -0.0044
B10 B 0.7601(5) 0.7153(6) 0.01923(13)
H10 H 0.8289 0.7403 0.0086
C1 C 0.5675(4) 0.6325(4) 0.05192(10)
C2 C 0.5709(3) 0.7419(3) 0.04426(8)
C3 C 0.4449(4) 0.6562(3) 0.06661(10)
C4 C 0.3692(3) 0.5948(4) 0.05264(11)
H11 H 0.3063 0.6100 0.0613
H12 H 0.3842 0.5270 0.0562
H13 H 0.3674 0.6070 0.0312
C5 C 0.4399(3) 0.6634(3) 0.10043(9)
C6 C 0.4296(4) 0.5912(4) 0.12182(12)
H14 H 0.4246 0.5259 0.1161
C7 C 0.4268(4) 0.6174(4) 0.15211(12)
H15 H 0.4177 0.5693 0.1668
C8 C 0.4374(3) 0.7127(4) 0.16072(10)
H16 H 0.4377 0.7286 0.1812
C9 C 0.4478(3) 0.7863(3) 0.13922(8)
H17 H 0.4544 0.8515 0.1451
C10 C 0.4479(2) 0.7602(3) 0.10882(8)
C11 C 0.4644(3) 0.7616(3) 0.05662(8)
H18 H 0.4192 0.7830 0.0406
C12 C 0.3296(4) 0.9825(4) 0.10342(12)
H19 H 0.2752 0.9537 0.0928
H20 H 0.3222 1.0524 0.1038
H21 H 0.3313 0.9581 0.1238
C13 C 0.4441(5) 0.9908(4) 0.04370(11)
H22 H 0.3891 0.9614 0.0335
H23 H 0.5040 0.9709 0.0339
H24 H 0.4383 1.0608 0.0429
C14 C 0.5515(4) 1.0052(3) 0.10414(11)
H25 H 0.6115 0.9884 0.0938
H26 H 0.5537 0.9805 0.1245
H27 H 0.5444 1.0751 0.1046
Si2 Si 0.68356(7) 0.38920(7) 0.16803(2)
N2 N 0.5596(2) 0.3518(2) 0.16689(6)
C15 C 0.4071(2) 0.1968(3) 0.19851(8)
C16 C 0.5160(2) 0.2282(2) 0.20958(7)
C17 C 0.3946(2) 0.2981(3) 0.18181(8)
C18 C 0.3052(3) 0.3583(3) 0.19147(10)
H28 H 0.2467 0.3303 0.1828
H29 H 0.3126 0.4244 0.1845
H30 H 0.3001 0.3579 0.2132
C19 C 0.4092(3) 0.2974(3) 0.14822(8)
C20 C 0.3431(3) 0.2712(3) 0.12573(10)
H31 H 0.2806 0.2486 0.1307
C21 C 0.3722(4) 0.2793(4) 0.09548(10)
H32 H 0.3290 0.2618 0.0800
C22 C 0.4642(4) 0.3130(3) 0.08860(9)
H33 H 0.4822 0.3187 0.0683
C23 C 0.5317(3) 0.3389(3) 0.11073(8)
H34 H 0.5943 0.3609 0.1056
C24 C 0.5028(3) 0.3309(2) 0.14112(8)
C25 C 0.5007(2) 0.3299(2) 0.19347(7)
H35 H 0.4981 0.3846 0.2078
C26 C 0.7589(3) 0.3015(4) 0.14584(10)
H36 H 0.7517 0.2369 0.1542
H37 H 0.8268 0.3206 0.1467
H38 H 0.7371 0.3014 0.1251
C27 C 0.7214(3) 0.3862(3) 0.20811(9)
H39 H 0.6823 0.4317 0.2195
H40 H 0.7896 0.4038 0.2097
H41 H 0.7120 0.3214 0.2160
C28 C 0.6940(3) 0.5146(3) 0.15273(10)
H42 H 0.6539 0.5582 0.1645
H43 H 0.6722 0.5153 0.1320
H44 H 0.7614 0.5355 0.1537
B11 B 0.4250(3) 0.2251(4) 0.23646(9)
H45 H 0.3945 0.2895 0.2482
B12 B 0.3480(4) 0.1274(4) 0.22505(11)
H46 H 0.2681 0.1278 0.2291
B13 B 0.3995(3) 0.0742(3) 0.19154(10)
H47 H 0.3521 0.0405 0.1742
B14 B 0.5074(3) 0.1389(3) 0.18200(9)
H48 H 0.5307 0.1469 0.1582
B15 B 0.5447(3) 0.1836(4) 0.24478(9)
H49 H 0.5922 0.2206 0.2614
B16 B 0.4374(4) 0.1143(4) 0.25482(11)
H50 H 0.4151 0.1044 0.2786
B17 B 0.4223(4) 0.0208(4) 0.22734(11)
H51 H 0.3899 -0.0504 0.2334
B18 B 0.5193(4) 0.0294(3) 0.20087(10)
H52 H 0.5503 -0.0357 0.1897
B19 B 0.5950(3) 0.1310(3) 0.21153(9)
H53 H 0.6746 0.1345 0.2071
B20 B 0.5420(4) 0.0543(4) 0.23971(10)
H54 H 0.5873 0.0052 0.2537
loop_
_geom_bond_atom_site_label_1
_geom_bond_atom_site_label_2
_geom_bond_site_symmetry_1
_geom_bond_site_symmetry_2
Si1 N1 1_555 1_555
N1 C10 1_555 1_555
B1 H1 1_555 1_555
B2 B1 1_555 1_555
H2 B2 1_555 1_555
B3 B2 1_555 1_555
H3 B3 1_555 1_555
B4 B3 1_555 1_555
H4 B4 1_555 1_555
B5 B1 1_555 1_555
H5 B5 1_555 1_555
B6 B1 1_555 1_555
H6 B6 1_555 1_555
B7 B2 1_555 1_555
H7 B7 1_555 1_555
B8 B3 1_555 1_555
H8 B8 1_555 1_555
B9 B4 1_555 1_555
H9 B9 1_555 1_555
B10 B5 1_555 1_555
H10 B10 1_555 1_555
C1 B1 1_555 1_555
C2 B1 1_555 1_555
C3 C1 1_555 1_555
C4 C3 1_555 1_555
H11 C4 1_555 1_555
H12 C4 1_555 1_555
H13 C4 1_555 1_555
C5 C3 1_555 1_555
C6 C5 1_555 1_555
H14 C6 1_555 1_555
C7 C6 1_555 1_555
H15 C7 1_555 1_555
C8 C7 1_555 1_555
H16 C8 1_555 1_555
C9 C8 1_555 1_555
H17 C9 1_555 1_555
C10 C5 1_555 1_555
C11 N1 1_555 1_555
H18 C11 1_555 1_555
C12 Si1 1_555 1_555
H19 C12 1_555 1_555
H20 C12 1_555 1_555
H21 C12 1_555 1_555
C13 Si1 1_555 1_555
H22 C13 1_555 1_555
H23 C13 1_555 1_555
H24 C13 1_555 1_555
C14 Si1 1_555 1_555
H25 C14 1_555 1_555
H26 C14 1_555 1_555
H27 C14 1_555 1_555
Si2 N2 1_555 1_555
N2 C24 1_555 1_555
C15 C16 1_555 1_555
C16 C25 1_555 1_555
C17 C15 1_555 1_555
C18 C17 1_555 1_555
H28 C18 1_555 1_555
H29 C18 1_555 1_555
H30 C18 1_555 1_555
C19 C17 1_555 1_555
C20 C19 1_555 1_555
H31 C20 1_555 1_555
C21 C20 1_555 1_555
H32 C21 1_555 1_555
C22 C21 1_555 1_555
H33 C22 1_555 1_555
C23 C22 1_555 1_555
H34 C23 1_555 1_555
C24 C19 1_555 1_555
C25 N2 1_555 1_555
H35 C25 1_555 1_555
C26 Si2 1_555 1_555
H36 C26 1_555 1_555
H37 C26 1_555 1_555
H38 C26 1_555 1_555
C27 Si2 1_555 1_555
H39 C27 1_555 1_555
H40 C27 1_555 1_555
H41 C27 1_555 1_555
C28 Si2 1_555 1_555
H42 C28 1_555 1_555
H43 C28 1_555 1_555
H44 C28 1_555 1_555
B11 C15 1_555 1_555
H45 B11 1_555 1_555
B12 C15 1_555 1_555
H46 B12 1_555 1_555
B13 C15 1_555 1_555
H47 B13 1_555 1_555
B14 C15 1_555 1_555
H48 B14 1_555 1_555
B15 C16 1_555 1_555
H49 B15 1_555 1_555
B16 B11 1_555 1_555
H50 B16 1_555 1_555
B17 B12 1_555 1_555
H51 B17 1_555 1_555
B18 B13 1_555 1_555
H52 B18 1_555 1_555
B19 C16 1_555 1_555
H53 B19 1_555 1_555
B20 B15 1_555 1_555
H54 B20 1_555 1_555
B2 B6 1_555 1_555
B2 C1 1_555 1_555
B3 B7 1_555 1_555
B3 C1 1_555 1_555
B4 B8 1_555 1_555
B4 C1 1_555 1_555
B4 C2 1_555 1_555
B5 B6 1_555 1_555
B5 B9 1_555 1_555
B5 C2 1_555 1_555
B6 B7 1_555 1_555
B6 B10 1_555 1_555
B7 B8 1_555 1_555
B7 B10 1_555 1_555
B8 B9 1_555 1_555
B8 B10 1_555 1_555
B9 B10 1_555 1_555
B9 C2 1_555 1_555
C1 C2 1_555 1_555
C2 C11 1_555 1_555
C3 C11 1_555 1_555
C9 C10 1_555 1_555
C16 B11 1_555 1_555
C16 B14 1_555 1_555
C17 C25 1_555 1_555
C23 C24 1_555 1_555
B11 B12 1_555 1_555
B11 B15 1_555 1_555
B12 B13 1_555 1_555
B12 B16 1_555 1_555
B13 B14 1_555 1_555
B13 B17 1_555 1_555
B14 B18 1_555 1_555
B14 B19 1_555 1_555
B15 B16 1_555 1_555
B15 B19 1_555 1_555
B16 B17 1_555 1_555
B16 B20 1_555 1_555
B17 B18 1_555 1_555
B17 B20 1_555 1_555
B18 B19 1_555 1_555
B18 B20 1_555 1_555
B19 B20 1_555 1_555

#END
