
#######################################################################
#
#                 Cambridge Crystallographic Data Centre
#                                CCDC 
#
#######################################################################
#
# If this CIF has been generated from an entry in the Cambridge 
# Structural Database, then it will include bibliographic, chemical, 
# crystal, experimental, refinement or atomic coordinate data resulting 
# from the CCDC's data processing and validation procedures.
#
#######################################################################

data_SUTDUI
_chemical_formula_moiety         'C14 H27 B10 N1 O1 Si1'
_chemical_name_systematic        
3-(1,2-Dicarba-closo-dodecaboranyl)-5-methoxy-1-(trimethylsilyl)indole
_symmetry_cell_setting           monoclinic
_symmetry_space_group_name_H-M   'P 21/n'
_symmetry_Int_Tables_number      14
_space_group_name_Hall           '-P 2yn'
loop_
_symmetry_equiv_pos_site_id
_symmetry_equiv_pos_as_xyz
1 x,y,z
2 1/2-x,1/2+y,1/2-z
3 -x,-y,-z
4 1/2+x,1/2-y,1/2+z
_cell_length_a                   7.2295(3)
_cell_length_b                   10.6326(4)
_cell_length_c                   27.3463(10)
_cell_angle_alpha                90
_cell_angle_beta                 95.486(3)
_cell_angle_gamma                90
_cell_volume                     2092.44
_exptl_crystal_colour            colorless
_exptl_crystal_description       block
_cell_formula_units_Z            4
loop_
_atom_site_label
_atom_site_type_symbol
_atom_site_fract_x
_atom_site_fract_y
_atom_site_fract_z
O1 O 0.4486(5) 0.6981(3) 0.27377(11)
Si1 Si 0.48962(17) 0.20159(9) 0.11471(4)
N1 N 0.5876(5) 0.3527(3) 0.13169(11)
C1 C 0.8736(5) 0.6321(3) 0.10934(12)
C2 C 1.1066(6) 0.6277(4) 0.12509(15)
H1 H 1.1701 0.5548 0.1498
C3 C 0.7514(5) 0.5344(3) 0.12798(13)
C4 C 0.7136(5) 0.4198(3) 0.10734(14)
H2 H 0.7668 0.3900 0.0799
C5 C 0.6387(5) 0.5439(3) 0.16872(12)
C6 C 0.6096(5) 0.6380(3) 0.20361(13)
H3 H 0.6697 0.7152 0.2030
C7 C 0.4899(6) 0.6124(4) 0.23849(13)
C8 C 0.3998(6) 0.4967(4) 0.24014(14)
H4 H 0.3214 0.4819 0.2646
C9 C 0.4246(6) 0.4040(4) 0.20633(14)
H5 H 0.3648 0.3268 0.2076
C10 C 0.5425(5) 0.4298(3) 0.17013(13)
C11 C 0.5431(7) 0.8141(4) 0.27482(17)
H6 H 0.5027 0.8656 0.3006
H7 H 0.5165 0.8561 0.2439
H8 H 0.6744 0.7997 0.2807
C12 C 0.5491(8) 0.0896(4) 0.16600(18)
H9 H 0.4939 0.1175 0.1947
H10 H 0.6817 0.0858 0.1731
H11 H 0.5026 0.0076 0.1568
C13 C 0.2362(7) 0.2238(4) 0.10276(19)
H12 H 0.1862 0.2486 0.1326
H13 H 0.1797 0.1463 0.0912
H14 H 0.2110 0.2879 0.0783
C14 C 0.5924(8) 0.1511(5) 0.05855(19)
H15 H 0.5610 0.2107 0.0327
H16 H 0.5445 0.0698 0.0486
H17 H 0.7251 0.1464 0.0651
B1 B 1.0205(7) 0.5859(4) 0.06707(17)
H18 H 1.0241 0.4892 0.0529
B2 B 0.8313(7) 0.6854(4) 0.05054(16)
H19 H 0.7124 0.6552 0.0252
B3 B 0.8042(7) 0.7841(4) 0.10171(18)
H20 H 0.6666 0.8183 0.1097
B4 B 0.9772(7) 0.7425(4) 0.14916(17)
H21 H 0.9538 0.7476 0.1883
B5 B 1.2249(7) 0.6774(5) 0.0781(2)
H22 H 1.3620 0.6411 0.0707
B6 B 1.0538(7) 0.7180(4) 0.03019(17)
H23 H 1.0795 0.7094 -0.0087
B7 B 0.9186(7) 0.8428(4) 0.05188(18)
H24 H 0.8565 0.9159 0.0270
B8 B 1.0051(7) 0.8774(4) 0.11300(19)
H25 H 0.9978 0.9728 0.1282
B9 B 1.1965(7) 0.7761(5) 0.12856(19)
H26 H 1.3157 0.8050 0.1541
B10 B 1.1620(7) 0.8373(4) 0.06908(18)
H27 H 1.2579 0.9067 0.0556
loop_
_geom_bond_atom_site_label_1
_geom_bond_atom_site_label_2
_geom_bond_site_symmetry_1
_geom_bond_site_symmetry_2
O1 C7 1_555 1_555
Si1 N1 1_555 1_555
N1 C4 1_555 1_555
C1 C2 1_555 1_555
C2 H1 1_555 1_555
C3 C1 1_555 1_555
C4 C3 1_555 1_555
H2 C4 1_555 1_555
C5 C3 1_555 1_555
C6 C5 1_555 1_555
H3 C6 1_555 1_555
C7 C6 1_555 1_555
C8 C7 1_555 1_555
H4 C8 1_555 1_555
C9 C8 1_555 1_555
H5 C9 1_555 1_555
C10 N1 1_555 1_555
C11 O1 1_555 1_555
H6 C11 1_555 1_555
H7 C11 1_555 1_555
H8 C11 1_555 1_555
C12 Si1 1_555 1_555
H9 C12 1_555 1_555
H10 C12 1_555 1_555
H11 C12 1_555 1_555
C13 Si1 1_555 1_555
H12 C13 1_555 1_555
H13 C13 1_555 1_555
H14 C13 1_555 1_555
C14 Si1 1_555 1_555
H15 C14 1_555 1_555
H16 C14 1_555 1_555
H17 C14 1_555 1_555
B1 C1 1_555 1_555
H18 B1 1_555 1_555
B2 C1 1_555 1_555
H19 B2 1_555 1_555
B3 C1 1_555 1_555
H20 B3 1_555 1_555
B4 C1 1_555 1_555
H21 B4 1_555 1_555
B5 C2 1_555 1_555
H22 B5 1_555 1_555
B6 B1 1_555 1_555
H23 B6 1_555 1_555
B7 B2 1_555 1_555
H24 B7 1_555 1_555
B8 B3 1_555 1_555
H25 B8 1_555 1_555
B9 C2 1_555 1_555
H26 B9 1_555 1_555
B10 B5 1_555 1_555
H27 B10 1_555 1_555
C2 B1 1_555 1_555
C2 B4 1_555 1_555
C5 C10 1_555 1_555
C9 C10 1_555 1_555
B1 B2 1_555 1_555
B1 B5 1_555 1_555
B2 B3 1_555 1_555
B2 B6 1_555 1_555
B3 B4 1_555 1_555
B3 B7 1_555 1_555
B4 B8 1_555 1_555
B4 B9 1_555 1_555
B5 B6 1_555 1_555
B5 B9 1_555 1_555
B6 B7 1_555 1_555
B6 B10 1_555 1_555
B7 B8 1_555 1_555
B7 B10 1_555 1_555
B8 B9 1_555 1_555
B8 B10 1_555 1_555
B9 B10 1_555 1_555

#END
