
#######################################################################
#
#                 Cambridge Crystallographic Data Centre
#                                CCDC 
#
#######################################################################
#
# If this CIF has been generated from an entry in the Cambridge 
# Structural Database, then it will include bibliographic, chemical, 
# crystal, experimental, refinement or atomic coordinate data resulting 
# from the CCDC's data processing and validation procedures.
#
#######################################################################

data_SUTJEX
_chemical_formula_moiety         'C16 H27 F3 N2 O4 S1'
_chemical_name_systematic        
'(S)-Ethyl 5-(((R)-t-butylsulfinyl)imino)-5-(morpholin-4-yl)-3-(trifluoromethyl)pentanoate'
_symmetry_cell_setting           tetragonal
_symmetry_space_group_name_H-M   'P 41'
_symmetry_Int_Tables_number      76
_space_group_name_Hall           'P 4w'
loop_
_symmetry_equiv_pos_site_id
_symmetry_equiv_pos_as_xyz
1 x,y,z
2 -x,-y,1/2+z
3 -y,x,1/4+z
4 y,-x,3/4+z
_cell_length_a                   13.5525(11)
_cell_length_b                   13.5525(11)
_cell_length_c                   11.1134(13)
_cell_angle_alpha                90
_cell_angle_beta                 90
_cell_angle_gamma                90
_cell_volume                     2041.2
_exptl_crystal_colour            colorless
_exptl_crystal_description       prismatic
_chemical_melting_point          '82-83 deg.C'
_cell_formula_units_Z            4
loop_
_atom_site_label
_atom_site_type_symbol
_atom_site_fract_x
_atom_site_fract_y
_atom_site_fract_z
S1 S 0.01741(5) 0.64779(6) 0.13249(8)
F1 F -0.14031(15) 0.34449(19) 0.1754(2)
F2 F -0.05030(19) 0.22011(17) 0.2154(2)
F3 F -0.08526(18) 0.25512(17) 0.0336(2)
O1 O 0.22648(17) 0.3864(2) 0.2103(2)
O2 O 0.17615(16) 0.49312(16) 0.3504(2)
O3 O 0.33333(17) 0.4119(2) -0.2007(3)
O4 O -0.06646(17) 0.66455(17) 0.0507(2)
N1 N 0.17807(17) 0.46965(17) -0.0482(2)
N2 N 0.10975(17) 0.59460(17) 0.0580(2)
C1 C 0.1010(2) 0.5051(2) 0.0168(3)
C2 C 0.0131(2) 0.4384(2) 0.0348(3)
H1 H -0.0019 0.4059 -0.0408
H2 H -0.0435 0.4784 0.0566
C3 C 0.02862(19) 0.3590(2) 0.1324(3)
H3 H 0.0836 0.3173 0.1063
C4 C -0.0614(3) 0.2950(3) 0.1384(4)
C5 C 0.0550(2) 0.3998(2) 0.2544(3)
H4 H 0.0167 0.4591 0.2688
H5 H 0.0371 0.3519 0.3155
C6 C 0.1619(2) 0.4238(2) 0.2664(3)
C7 C 0.2764(3) 0.5201(3) 0.3763(4)
H6 H 0.2777 0.5864 0.4092
H7 H 0.3141 0.5204 0.3021
C8 C 0.3226(4) 0.4527(3) 0.4614(5)
H8 H 0.2838 0.4497 0.5336
H9 H 0.3877 0.4758 0.4804
H10 H 0.3267 0.3881 0.4263
C9 C 0.2701(2) 0.5232(3) -0.0509(4)
H11 H 0.3128 0.4992 0.0128
H12 H 0.2575 0.5926 -0.0364
C10 C 0.3212(3) 0.5113(3) -0.1697(4)
H13 H 0.2829 0.5441 -0.2317
H14 H 0.3854 0.5429 -0.1661
C11 C 0.2400(3) 0.3656(3) -0.2076(4)
H15 H 0.2486 0.2975 -0.2325
H16 H 0.2003 0.3986 -0.2681
C12 C 0.1873(2) 0.3680(2) -0.0907(3)
H17 H 0.1222 0.3392 -0.0999
H18 H 0.2232 0.3293 -0.0319
C13 C 0.0770(2) 0.7682(2) 0.1516(3)
C14 C 0.0990(3) 0.8119(3) 0.0298(4)
H19 H 0.1258 0.8770 0.0396
H20 H 0.0392 0.8155 -0.0164
H21 H 0.1459 0.7711 -0.0115
C15 C 0.1698(2) 0.7500(3) 0.2252(4)
H22 H 0.2140 0.7086 0.1804
H23 H 0.1525 0.7181 0.2993
H24 H 0.2014 0.8118 0.2422
C16 C 0.0027(3) 0.8289(3) 0.2213(4)
H25 H 0.0308 0.8920 0.2404
H26 H -0.0143 0.7951 0.2943
H27 H -0.0555 0.8381 0.1734
loop_
_geom_bond_atom_site_label_1
_geom_bond_atom_site_label_2
_geom_bond_site_symmetry_1
_geom_bond_site_symmetry_2
S1 O4 1_555 1_555
F1 C4 1_555 1_555
F2 C4 1_555 1_555
F3 C4 1_555 1_555
O1 C6 1_555 1_555
O2 C6 1_555 1_555
O3 C10 1_555 1_555
N1 C1 1_555 1_555
N2 S1 1_555 1_555
C1 N2 1_555 1_555
C2 C1 1_555 1_555
H1 C2 1_555 1_555
H2 C2 1_555 1_555
C3 C2 1_555 1_555
H3 C3 1_555 1_555
C4 C3 1_555 1_555
C5 C3 1_555 1_555
H4 C5 1_555 1_555
H5 C5 1_555 1_555
C6 C5 1_555 1_555
C7 O2 1_555 1_555
H6 C7 1_555 1_555
H7 C7 1_555 1_555
C8 C7 1_555 1_555
H8 C8 1_555 1_555
H9 C8 1_555 1_555
H10 C8 1_555 1_555
C9 N1 1_555 1_555
H11 C9 1_555 1_555
H12 C9 1_555 1_555
C10 C9 1_555 1_555
H13 C10 1_555 1_555
H14 C10 1_555 1_555
C11 O3 1_555 1_555
H15 C11 1_555 1_555
H16 C11 1_555 1_555
C12 N1 1_555 1_555
H17 C12 1_555 1_555
H18 C12 1_555 1_555
C13 S1 1_555 1_555
C14 C13 1_555 1_555
H19 C14 1_555 1_555
H20 C14 1_555 1_555
H21 C14 1_555 1_555
C15 C13 1_555 1_555
H22 C15 1_555 1_555
H23 C15 1_555 1_555
H24 C15 1_555 1_555
C16 C13 1_555 1_555
H25 C16 1_555 1_555
H26 C16 1_555 1_555
H27 C16 1_555 1_555
C11 C12 1_555 1_555

#END
