
#######################################################################
#
#                 Cambridge Crystallographic Data Centre
#                                CCDC 
#
#######################################################################
#
# If this CIF has been generated from an entry in the Cambridge 
# Structural Database, then it will include bibliographic, chemical, 
# crystal, experimental, refinement or atomic coordinate data resulting 
# from the CCDC's data processing and validation procedures.
#
#######################################################################

data_SUTQUV
_chemical_compound_source        'Nocardiopsis lucentensis'
_chemical_formula_moiety         'C16 H12 N2 O5'
_chemical_name_systematic        
'2-(3-Acetamido-4-hydroxyphenyl)-1,3-benzoxazole-5-carboxylic acid'
_chemical_properties_biological  'cytotoxic activity'
_symmetry_cell_setting           monoclinic
_symmetry_space_group_name_H-M   'C 2/c'
_symmetry_Int_Tables_number      15
_space_group_name_Hall           '-C 2yn'
loop_
_symmetry_equiv_pos_site_id
_symmetry_equiv_pos_as_xyz
1 x,y,z
2 -x,y,1/2-z
3 1/2+x,1/2+y,z
4 1/2-x,1/2+y,1/2-z
5 -x,-y,-z
6 x,-y,1/2+z
7 1/2-x,1/2-y,-z
8 1/2+x,1/2-y,1/2+z
_cell_length_a                   12.9640(11)
_cell_length_b                   7.3166(6)
_cell_length_c                   30.426(3)
_cell_angle_alpha                90
_cell_angle_beta                 100.042(2)
_cell_angle_gamma                90
_cell_volume                     2841.77
_cell_formula_units_Z            8
loop_
_atom_site_label
_atom_site_type_symbol
_atom_site_fract_x
_atom_site_fract_y
_atom_site_fract_z
N1 N 0.3835(4) 0.5074(6) 0.53836(15)
N2 N 0.3200(4) 0.5757(6) 0.33412(15)
H1 H 0.3234 0.4985 0.3131
O1 O 0.4735(4) 0.9730(7) 0.70598(15)
H2 H 0.4879 0.9567 0.7330
O2 O 0.4788(4) 0.6654(6) 0.70690(14)
O3 O 0.3850(3) 0.7744(5) 0.50096(12)
O4 O 0.3054(4) 0.8723(5) 0.34777(13)
O5 O 0.2909(3) 0.2262(5) 0.33520(12)
H3 H 0.2851 0.1153 0.3378
C1 C 0.4667(6) 0.8173(11) 0.6858(2)
C2 C 0.4425(5) 0.8142(9) 0.6364(2)
C3 C 0.4240(5) 0.6472(8) 0.6150(2)
H4 H 0.4247 0.5389 0.6311
C4 C 0.4045(4) 0.6477(8) 0.56899(19)
C5 C 0.4052(5) 0.8124(9) 0.54619(18)
C6 C 0.4231(5) 0.9818(8) 0.5664(2)
H5 H 0.4225 1.0897 0.5502
C7 C 0.4417(5) 0.9782(8) 0.6126(2)
H6 H 0.4540 1.0875 0.6283
C8 C 0.3718(5) 0.5836(8) 0.49995(19)
C9 C 0.3497(4) 0.4985(7) 0.45668(18)
C10 C 0.3459(5) 0.5898(7) 0.41653(18)
H7 H 0.3576 0.7152 0.4166
C11 C 0.3253(5) 0.4981(7) 0.37701(18)
C12 C 0.3081(5) 0.3051(7) 0.37632(19)
C13 C 0.3132(4) 0.2170(7) 0.41599(18)
H8 H 0.3031 0.0912 0.4159
C14 C 0.3327(4) 0.3061(7) 0.45588(18)
H9 H 0.3348 0.2418 0.4824
C15 C 0.3104(5) 0.7525(7) 0.3210(2)
C16 C 0.3019(6) 0.7851(8) 0.2718(2)
H10 H 0.2339 0.7478 0.2567
H11 H 0.3548 0.7157 0.2607
H12 H 0.3116 0.9128 0.2665
H13? H 0.4920 0.6852 0.7338
loop_
_geom_bond_atom_site_label_1
_geom_bond_atom_site_label_2
_geom_bond_site_symmetry_1
_geom_bond_site_symmetry_2
N1 C4 1_555 1_555
N2 H1 1_555 1_555
O1 H2 1_555 1_555
O2 C1 1_555 1_555
O3 C5 1_555 1_555
O4 C15 1_555 1_555
O5 H3 1_555 1_555
C1 O1 1_555 1_555
C2 C1 1_555 1_555
C3 C2 1_555 1_555
H4 C3 1_555 1_555
C4 C3 1_555 1_555
C5 C4 1_555 1_555
C6 C5 1_555 1_555
H5 C6 1_555 1_555
C7 C2 1_555 1_555
H6 C7 1_555 1_555
C8 N1 1_555 1_555
C9 C8 1_555 1_555
C10 C9 1_555 1_555
H7 C10 1_555 1_555
C11 N2 1_555 1_555
C12 O5 1_555 1_555
C13 C12 1_555 1_555
H8 C13 1_555 1_555
C14 C9 1_555 1_555
H9 C14 1_555 1_555
C15 N2 1_555 1_555
C16 C15 1_555 1_555
H10 C16 1_555 1_555
H11 C16 1_555 1_555
H12 C16 1_555 1_555
O3 C8 1_555 1_555
C6 C7 1_555 1_555
C10 C11 1_555 1_555
C11 C12 1_555 1_555
C13 C14 1_555 1_555

#END
