
#######################################################################
#
#                 Cambridge Crystallographic Data Centre
#                                CCDC 
#
#######################################################################
#
# If this CIF has been generated from an entry in the Cambridge 
# Structural Database, then it will include bibliographic, chemical, 
# crystal, experimental, refinement or atomic coordinate data resulting 
# from the CCDC's data processing and validation procedures.
#
#######################################################################

data_SUTYUB
_chemical_name_common            (1R,2R,5S,7R,8R)-8-Hydroxycedran-9-one
_chemical_formula_moiety         'C15 H24 O2'
_chemical_name_systematic        
(1R,2R,5S,7R,8R)-2,6,6,8-Tetramethyl-8-hydroxy-tricyclo(5.3.1.0^1,5^)undecan-9-one
_symmetry_cell_setting           orthorhombic
_symmetry_space_group_name_H-M   'P 21 21 21'
_symmetry_Int_Tables_number      19
_space_group_name_Hall           'P 2ac 2ab'
loop_
_symmetry_equiv_pos_site_id
_symmetry_equiv_pos_as_xyz
1 x,y,z
2 1/2-x,-y,1/2+z
3 1/2+x,1/2-y,-z
4 -x,1/2+y,1/2-z
_cell_length_a                   13.455(5)
_cell_length_b                   30.61(1)
_cell_length_c                   6.694(5)
_cell_angle_alpha                90
_cell_angle_beta                 90
_cell_angle_gamma                90
_cell_volume                     2756.97
_exptl_crystal_colour            colorless
_exptl_crystal_description       prismatic
_cell_formula_units_Z            8
loop_
_atom_site_label
_atom_site_type_symbol
_atom_site_fract_x
_atom_site_fract_y
_atom_site_fract_z
O1 O -0.8219(2) -0.0604(1) -1.1305(5)
O2 O -0.8102(2) -0.12609(8) -0.7586(4)
C1 C -1.0455(3) -0.0945(1) -0.9018(7)
C2 C -1.1492(4) -0.1128(2) -0.9607(9)
C3 C -1.2069(4) -0.0720(2) -1.026(1)
C4 C -1.1718(4) -0.0365(2) -0.8853(10)
C5 C -1.0575(3) -0.0432(1) -0.8861(7)
C6 C -0.9936(4) -0.0289(1) -0.7036(7)
C7 C -0.9312(3) -0.0710(1) -0.6546(6)
C8 C -0.8387(3) -0.0803(1) -0.7861(7)
C9 C -0.8694(3) -0.0797(1) -1.0055(7)
C10 C -0.9633(3) -0.1046(2) -1.0559(6)
C11 C -1.0082(3) -0.1068(1) -0.6961(7)
C12 C -1.1528(5) -0.1501(2) -1.109(1)
C13 C -1.0540(5) -0.0177(2) -0.5173(9)
C14 C -0.9328(4) 0.0120(1) -0.7596(10)
C15 C -0.7487(3) -0.0519(1) -0.7431(8)
H1 H -1.1805 -0.1226 -0.8259
H2 H -1.1954 -0.0626 -1.1828
H3 H -1.2808 -0.0755 -1.0069
H4 H -1.1869 -0.0071 -0.9386
H5 H -1.1986 -0.0373 -0.7294
H6 H -1.0320 -0.0284 -1.0106
H7 H -0.9077 -0.0709 -0.4943
H8 H -0.9502 -0.1418 -1.0631
H9 H -0.9825 -0.0992 -1.2032
H10 H -1.0634 -0.1076 -0.5836
H11 H -0.9803 -0.1384 -0.6979
H12 H -1.2159 -0.1630 -1.1233
H13 H -1.1306 -0.1421 -1.2486
H14 H -1.1023 -0.1754 -1.0656
H15 H -1.1031 -0.0458 -0.4472
H16 H -1.0985 0.0103 -0.5709
H17 H -1.0158 -0.0111 -0.3927
H18 H -0.9833 0.0326 -0.7894
H19 H -0.8880 0.0178 -0.6405
H20 H -0.9058 0.0123 -0.9029
H21 H -0.7680 -0.0208 -0.7749
H22 H -0.7385 -0.0498 -0.5970
H23 H -0.6732 -0.0703 -0.8185
H24 H -0.7942 -0.1360 -0.6202
O3 O -0.7702(2) -0.16044(10) -0.3776(5)
O4 O -0.6439(2) -0.1564(1) 0.0356(5)
C16 C -0.5062(3) -0.1543(1) -0.3938(6)
C17 C -0.4211(4) -0.1280(2) -0.4928(8)
C18 C -0.3544(4) -0.1637(2) -0.5678(9)
C19 C -0.4220(4) -0.1989(2) -0.6448(8)
C20 C -0.5164(3) -0.1971(1) -0.5138(7)
C21 C -0.5388(3) -0.2333(1) -0.3584(7)
C22 C -0.5554(3) -0.2075(1) -0.1602(6)
C23 C -0.6597(3) -0.1867(1) -0.1235(7)
C24 C -0.6868(3) -0.1596(1) -0.3033(6)
C25 C -0.6075(3) -0.1304(1) -0.3850(7)
C26 C -0.4819(3) -0.1705(1) -0.1868(6)
C27 C -0.4540(5) -0.0962(2) -0.6579(9)
C28 C -0.4489(4) -0.2643(2) -0.3202(9)
C29 C -0.6255(4) -0.2626(1) -0.4295(8)
C30 C -0.7391(4) -0.2186(2) -0.0597(8)
H25 H -0.3862 -0.1114 -0.3795
H26 H -0.3121 -0.1558 -0.6949
H27 H -0.3153 -0.1753 -0.4519
H28 H -0.4374 -0.1855 -0.8022
H29 H -0.4022 -0.2226 -0.6664
H30 H -0.5703 -0.1944 -0.6048
H31 H -0.5445 -0.2201 -0.0391
H32 H -0.6018 -0.1097 -0.2862
H33 H -0.6253 -0.1233 -0.5333
H34 H -0.4107 -0.1766 -0.1863
H35 H -0.4869 -0.1491 -0.0913
H36 H -0.4902 -0.1172 -0.7688
H37 H -0.3970 -0.0851 -0.7286
H38 H -0.5007 -0.0711 -0.5538
H39 H -0.3728 -0.2484 -0.2962
H40 H -0.4351 -0.2848 -0.4308
H41 H -0.4689 -0.2844 -0.1869
H42 H -0.5985 -0.2797 -0.5668
H43 H -0.6403 -0.2889 -0.3133
H44 H -0.6867 -0.2451 -0.4762
H45 H -0.7538 -0.2320 -0.1688
H46 H -0.7177 -0.2307 0.0749
H47 H -0.8030 -0.1976 0.0110
H48 H -0.6959 -0.1528 0.0876
loop_
_geom_bond_atom_site_label_1
_geom_bond_atom_site_label_2
_geom_bond_site_symmetry_1
_geom_bond_site_symmetry_2
O1 C9 1_555 1_555
O2 C8 1_555 1_555
C1 C2 1_555 1_555
C2 C3 1_555 1_555
C3 C4 1_555 1_555
C4 C5 1_555 1_555
C5 C1 1_555 1_555
C6 C5 1_555 1_555
C7 C6 1_555 1_555
C8 C7 1_555 1_555
C9 C8 1_555 1_555
C10 C1 1_555 1_555
C11 C1 1_555 1_555
C12 C2 1_555 1_555
C13 C6 1_555 1_555
C14 C6 1_555 1_555
C15 C8 1_555 1_555
H1 C2 1_555 1_555
H2 C3 1_555 1_555
H3 C3 1_555 1_555
H4 C4 1_555 1_555
H5 C4 1_555 1_555
H6 C5 1_555 1_555
H7 C7 1_555 1_555
H8 C10 1_555 1_555
H9 C10 1_555 1_555
H10 C11 1_555 1_555
H11 C11 1_555 1_555
H12 C12 1_555 1_555
H13 C12 1_555 1_555
H14 C12 1_555 1_555
H15 C13 1_555 1_555
H16 C13 1_555 1_555
H17 C13 1_555 1_555
H18 C14 1_555 1_555
H19 C14 1_555 1_555
H20 C14 1_555 1_555
H21 C15 1_555 1_555
H22 C15 1_555 1_555
H23 C15 1_555 1_555
H24 O2 1_555 1_555
O3 C24 1_555 1_555
O4 C23 1_555 1_555
C16 C17 1_555 1_555
C17 C18 1_555 1_555
C18 C19 1_555 1_555
C19 C20 1_555 1_555
C20 C16 1_555 1_555
C21 C20 1_555 1_555
C22 C21 1_555 1_555
C23 C22 1_555 1_555
C24 C23 1_555 1_555
C25 C16 1_555 1_555
C26 C16 1_555 1_555
C27 C17 1_555 1_555
C28 C21 1_555 1_555
C29 C21 1_555 1_555
C30 C23 1_555 1_555
H25 C17 1_555 1_555
H26 C18 1_555 1_555
H27 C18 1_555 1_555
H28 C19 1_555 1_555
H29 C19 1_555 1_555
H30 C20 1_555 1_555
H31 C22 1_555 1_555
H32 C25 1_555 1_555
H33 C25 1_555 1_555
H34 C26 1_555 1_555
H35 C26 1_555 1_555
H36 C27 1_555 1_555
H37 C27 1_555 1_555
H38 C27 1_555 1_555
H39 C28 1_555 1_555
H40 C28 1_555 1_555
H41 C28 1_555 1_555
H42 C29 1_555 1_555
H43 C29 1_555 1_555
H44 C29 1_555 1_555
H45 C30 1_555 1_555
H46 C30 1_555 1_555
H47 C30 1_555 1_555
H48 O4 1_555 1_555
C7 C11 1_555 1_555
C9 C10 1_555 1_555
C22 C26 1_555 1_555
C24 C25 1_555 1_555

#END
