
#######################################################################
#
#                 Cambridge Crystallographic Data Centre
#                                CCDC 
#
#######################################################################
#
# If this CIF has been generated from an entry in the Cambridge 
# Structural Database, then it will include bibliographic, chemical, 
# crystal, experimental, refinement or atomic coordinate data resulting 
# from the CCDC's data processing and validation procedures.
#
#######################################################################

data_SUVNAY01
_chemical_formula_moiety         'C20 H14 O2,C6 H14 N2,C7 H8'
_chemical_name_systematic        
"(R,R)-(-)-1,2-Diaminocyclohexane (R)-(-)-1,1'-bi-2-naphthol toluene solvate"
_symmetry_cell_setting           orthorhombic
_symmetry_space_group_name_H-M   'C 2 2 21'
_symmetry_Int_Tables_number      20
_space_group_name_Hall           'C 2n 2'
loop_
_symmetry_equiv_pos_site_id
_symmetry_equiv_pos_as_xyz
1 x,y,z
2 -x,-y,1/2+z
3 -x,y,1/2-z
4 x,-y,-z
5 1/2+x,1/2+y,z
6 1/2-x,1/2-y,1/2+z
7 1/2-x,1/2+y,1/2-z
8 1/2+x,1/2-y,-z
_cell_length_a                   12.380(2)
_cell_length_b                   14.296(3)
_cell_length_c                   15.277(3)
_cell_angle_alpha                90
_cell_angle_beta                 90
_cell_angle_gamma                90
_cell_volume                     2703.79
_exptl_crystal_colour            colorless
_cell_formula_units_Z            4
loop_
_atom_site_label
_atom_site_type_symbol
_atom_site_fract_x
_atom_site_fract_y
_atom_site_fract_z
N1 N 0.0233(3) 0.3905(2) 0.3472(2)
H8 H -0.011(4) 0.443(3) 0.326(3)
H9 H 0.102(4) 0.390(3) 0.347(3)
C11 C -0.0131(4) 0.3071(2) 0.2997(3)
H10 H -0.101(4) 0.309(3) 0.306(3)
C12 C 0.0348(4) 0.2199(3) 0.3403(3)
H11 H 0.1126 0.2213 0.3335
H12 H 0.0189 0.2194 0.4025
C13 C -0.0084(6) 0.1320(3) 0.2998(3)
H13 H 0.018(5) 0.078(4) 0.328(4)
H14 H -0.080(5) 0.123(4) 0.308(4)
N1B N -0.0233(3) 0.3905(2) 0.1528(2)
H8B H 0.011(4) 0.443(3) 0.174(3)
H9B H -0.102(4) 0.390(3) 0.153(3)
C11B C 0.0131(4) 0.3071(2) 0.2003(3)
H10B H 0.101(4) 0.309(3) 0.194(3)
C12B C -0.0348(4) 0.2199(3) 0.1597(3)
H11B H -0.1126 0.2213 0.1665
H12B H -0.0189 0.2194 0.0975
C13B C 0.0084(6) 0.1320(3) 0.2002(3)
H13B H -0.018(5) 0.078(4) 0.172(4)
H14B H 0.080(5) 0.123(4) 0.192(4)
O1 O -0.0373(2) 0.35743(18) 0.51813(18)
H1 H -0.0250 0.3874 0.4735
C1 C -0.1623(3) 0.4837(2) 0.5468(2)
C2 C -0.1022(3) 0.4081(2) 0.5718(2)
C3 C -0.1052(4) 0.3760(3) 0.6599(3)
H2 H -0.0645 0.3241 0.6762
C4 C -0.1668(3) 0.4204(3) 0.7198(3)
H3 H -0.1685 0.3981 0.7770
C5 C -0.2916(4) 0.5477(3) 0.7603(3)
H4 H -0.2930 0.5268 0.8179
C6 C -0.3498(4) 0.6231(4) 0.7379(4)
H5 H -0.3898 0.6545 0.7801
C7 C -0.3505(4) 0.6549(4) 0.6510(4)
H6 H -0.3920 0.7066 0.6354
C8 C -0.2899(4) 0.6095(3) 0.5890(3)
H7 H -0.2904 0.6316 0.5318
C9 C -0.2274(3) 0.5310(3) 0.6093(3)
C10 C -0.2279(3) 0.4989(3) 0.6978(3)
O1C O -0.0373(2) 0.64257(18) 0.48187(18)
H1C H -0.0250 0.6126 0.5265
C1C C -0.1623(3) 0.5163(2) 0.4532(2)
C2C C -0.1022(3) 0.5919(2) 0.4282(2)
C3C C -0.1052(4) 0.6240(3) 0.3401(3)
H2C H -0.0645 0.6759 0.3238
C4C C -0.1668(3) 0.5796(3) 0.2802(3)
H3C H -0.1685 0.6019 0.2230
C5C C -0.2916(4) 0.4523(3) 0.2397(3)
H4C H -0.2930 0.4732 0.1821
C6C C -0.3498(4) 0.3769(4) 0.2621(4)
H5C H -0.3898 0.3455 0.2199
C7C C -0.3505(4) 0.3451(4) 0.3490(4)
H6C H -0.3920 0.2934 0.3646
C8C C -0.2899(4) 0.3905(3) 0.4110(3)
H7C H -0.2904 0.3684 0.4682
C9C C -0.2274(3) 0.4690(3) 0.3907(3)
C10C C -0.2279(3) 0.5011(3) 0.3022(3)
C14? C -0.2107(7) 0.5000 0.0000
C15? C -0.2696(13) 0.6528(10) -0.0005(7)
C16? C -0.4038(15) 0.5000 0.0000
C17? C -0.4218(15) 0.5543(10) 0.0003(9)
C18? C -0.3444(10) 0.6238(12) -0.0056(10)
C19? C -0.2687(15) 0.5739(10) 0.0009(5)
loop_
_geom_bond_atom_site_label_1
_geom_bond_atom_site_label_2
_geom_bond_site_symmetry_1
_geom_bond_site_symmetry_2
O1 H1 1_555 1_555
C1 C2 1_555 1_555
C2 O1 1_555 1_555
C3 C2 1_555 1_555
H2 C3 1_555 1_555
C4 C3 1_555 1_555
H3 C4 1_555 1_555
C5 H4 1_555 1_555
C6 C5 1_555 1_555
H5 C6 1_555 1_555
C7 C6 1_555 1_555
H6 C7 1_555 1_555
C8 C7 1_555 1_555
H7 C8 1_555 1_555
C9 C1 1_555 1_555
C10 C4 1_555 1_555
N1 H8 1_555 1_555
H9 N1 1_555 1_555
C11 N1 1_555 1_555
H10 C11 1_555 1_555
C12 C11 1_555 1_555
H11 C12 1_555 1_555
H12 C12 1_555 1_555
C13 C12 1_555 1_555
H13 C13 1_555 1_555
H14 C13 1_555 1_555
O1C H1C 1_555 1_555
C1C C1 1_555 1_555
C2C O1C 1_555 1_555
C3C C2C 1_555 1_555
H2C C3C 1_555 1_555
C4C C3C 1_555 1_555
H3C C4C 1_555 1_555
C5C H4C 1_555 1_555
C6C C5C 1_555 1_555
H5C C6C 1_555 1_555
C7C C6C 1_555 1_555
H6C C7C 1_555 1_555
C8C C7C 1_555 1_555
H7C C8C 1_555 1_555
C9C C1C 1_555 1_555
C10C C4C 1_555 1_555
N1B H8B 1_555 1_555
H9B N1B 1_555 1_555
C11B C11 1_555 1_555
H10B C11B 1_555 1_555
C12B C11B 1_555 1_555
H11B C12B 1_555 1_555
H12B C12B 1_555 1_555
C13B C13 1_555 1_555
H13B C13B 1_555 1_555
H14B C13B 1_555 1_555
C5 C10 1_555 1_555
C8 C9 1_555 1_555
C9 C10 1_555 1_555
C1C C2C 1_555 1_555
C5C C10C 1_555 1_555
C8C C9C 1_555 1_555
C9C C10C 1_555 1_555
N1B C11B 1_555 1_555
C12B C13B 1_555 1_555

#END
