
#######################################################################
#
#                 Cambridge Crystallographic Data Centre
#                                CCDC 
#
#######################################################################
#
# If this CIF has been generated from an entry in the Cambridge 
# Structural Database, then it will include bibliographic, chemical, 
# crystal, experimental, refinement or atomic coordinate data resulting 
# from the CCDC's data processing and validation procedures.
#
#######################################################################

data_SUVPAA
_chemical_formula_moiety         'C10 H12 N2 O4 S1'
_chemical_name_systematic        
4-((Aminocarbonylmethyl)sulfonyl)-N-acetylaniline
_symmetry_cell_setting           orthorhombic
_symmetry_space_group_name_H-M   'P c a 21'
_symmetry_Int_Tables_number      29
_space_group_name_Hall           'P 2c -2ac'
loop_
_symmetry_equiv_pos_site_id
_symmetry_equiv_pos_as_xyz
1 x,y,z
2 -x,-y,1/2+z
3 1/2-x,y,1/2+z
4 1/2+x,-y,z
_cell_length_a                   9.446(3)
_cell_length_b                   14.178(3)
_cell_length_c                   8.295(2)
_cell_angle_alpha                90
_cell_angle_beta                 90
_cell_angle_gamma                90
_cell_volume                     1110.91
_cell_formula_units_Z            4
loop_
_atom_site_label
_atom_site_type_symbol
_atom_site_fract_x
_atom_site_fract_y
_atom_site_fract_z
S1 S 0.9075(1) 0.8807(1) 0.5000
O1 O 0.7897(2) 0.9360(1) 0.4425(3)
O2 O 1.0218(2) 0.8586(2) 0.3907(3)
O3 O 1.0773(2) 0.8646(2) 0.9001(3)
O4 O 0.8887(2) 0.4490(2) 0.8710(3)
N1 N 1.2180(3) 0.8739(2) 0.6804(4)
N2 N 0.6882(2) 0.5302(2) 0.8038(3)
C1 C 0.8417(3) 0.7740(2) 0.5803(3)
C2 C 0.9332(3) 0.6992(2) 0.6030(4)
C3 C 0.8851(3) 0.6164(2) 0.6731(4)
C4 C 0.7444(4) 0.6102(2) 0.7254(3)
C5 C 0.6514(3) 0.6853(2) 0.6958(4)
C6 C 0.6987(3) 0.7673(2) 0.6240(4)
C7 C 0.9810(3) 0.9420(2) 0.6696(4)
C8 C 1.0961(3) 0.8888(2) 0.7609(4)
C9 C 0.7588(3) 0.4579(2) 0.8749(4)
C10 C 0.6673(4) 0.3853(2) 0.9571(4)
loop_
_geom_bond_atom_site_label_1
_geom_bond_atom_site_label_2
_geom_bond_site_symmetry_1
_geom_bond_site_symmetry_2
S1 O1 1_555 1_555
O2 S1 1_555 1_555
O3 C8 1_555 1_555
O4 C9 1_555 1_555
N1 C8 1_555 1_555
N2 C4 1_555 1_555
C1 S1 1_555 1_555
C2 C1 1_555 1_555
C3 C2 1_555 1_555
C4 C3 1_555 1_555
C5 C4 1_555 1_555
C6 C1 1_555 1_555
C7 S1 1_555 1_555
C8 C7 1_555 1_555
C9 N2 1_555 1_555
C10 C9 1_555 1_555
C5 C6 1_555 1_555

#END
