
#######################################################################
#
#                 Cambridge Crystallographic Data Centre
#                                CCDC 
#
#######################################################################
#
# If this CIF has been generated from an entry in the Cambridge 
# Structural Database, then it will include bibliographic, chemical, 
# crystal, experimental, refinement or atomic coordinate data resulting 
# from the CCDC's data processing and validation procedures.
#
#######################################################################

data_SUVPAC
_chemical_formula_moiety         'C22 H16 N2 O6'
_chemical_name_systematic        
"7a-cyano-7-(4-methoxyphenyl)-6-oxo-7a,8-dihydro-6H-chromeno[3',4':5,6]pyrano[2,3-b]aziren-8a(7H)-yl acetate"
_symmetry_cell_setting           triclinic
_symmetry_space_group_name_H-M   'P -1'
_symmetry_Int_Tables_number      2
_space_group_name_Hall           '-P 1'
loop_
_symmetry_equiv_pos_site_id
_symmetry_equiv_pos_as_xyz
1 x,y,z
2 -x,-y,-z
_cell_length_a                   12.0263(11)
_cell_length_b                   12.8267(12)
_cell_length_c                   15.6641(14)
_cell_angle_alpha                70.463(4)
_cell_angle_beta                 69.253(4)
_cell_angle_gamma                62.293(3)
_cell_volume                     1958.04
_exptl_crystal_colour            colorless
_exptl_crystal_description       granular
_cell_formula_units_Z            4
loop_
_atom_site_label
_atom_site_type_symbol
_atom_site_fract_x
_atom_site_fract_y
_atom_site_fract_z
C1 C 0.14205(15) -0.08038(14) 0.22169(10)
C2 C 0.04004(14) -0.00003(14) 0.17042(10)
C3 C 0.05442(14) 0.10638(13) 0.09307(10)
H1 H 0.0620 0.0891 0.0344
C4 C 0.17952(14) 0.11385(13) 0.08525(10)
C5 C 0.26857(14) 0.03272(13) 0.13384(10)
C6 C -0.03806(15) -0.05203(15) 0.16042(11)
C7 C 0.2408(2) -0.40081(17) 0.24788(17)
H2 H 0.2775 -0.4524 0.2041
H3 H 0.1590 -0.4035 0.2852
H4 H 0.2983 -0.4275 0.2875
C8 C 0.38825(14) 0.04317(13) 0.12103(10)
C9 C 0.40877(14) 0.14037(13) 0.05556(10)
C10 C 0.51892(16) 0.16049(16) 0.03865(12)
H5 H 0.5302 0.2273 -0.0045
C11 C 0.61119(16) 0.07945(17) 0.08713(13)
H6 H 0.6862 0.0912 0.0762
C12 C 0.59421(16) -0.01926(16) 0.15183(12)
H7 H 0.6581 -0.0737 0.1836
C13 C 0.48332(15) -0.03769(14) 0.16969(11)
H8 H 0.4718 -0.1037 0.2140
C14 C 0.20841(15) 0.20986(14) 0.01307(11)
C15 C -0.06460(14) 0.22133(14) 0.10668(11)
C16 C -0.15925(15) 0.26028(15) 0.05889(11)
H9 H -0.1491 0.2151 0.0189
C17 C -0.26814(16) 0.36489(15) 0.06981(12)
H10 H -0.3310 0.3891 0.0378
C18 C -0.28415(16) 0.43381(15) 0.12819(12)
C19 C -0.08271(16) 0.29014(15) 0.16570(12)
H11 H -0.0209 0.2649 0.1989
C20 C -0.19111(16) 0.39611(15) 0.17656(12)
H12 H -0.2011 0.4416 0.2162
C21 C -0.4112(2) 0.61174(17) 0.19021(14)
H13 H -0.4122 0.5680 0.2534
H14 H -0.4914 0.6807 0.1883
H15 H -0.3408 0.6377 0.1666
C22 C 0.22174(16) -0.27544(15) 0.19660(14)
H16 H -0.0187(17) -0.0273(15) 0.3069(12)
N1 N 0.03107(14) 0.00631(13) 0.26673(10)
N2 N -0.09908(15) -0.09116(15) 0.15069(12)
O1 O 0.25873(10) -0.06730(9) 0.19750(7)
O2 O 0.32028(10) 0.22183(10) 0.00379(7)
O3 O 0.14219(12) 0.28104(11) -0.03999(8)
O4 O -0.39538(12) 0.53602(11) 0.13434(10)
O5 O 0.16359(11) -0.20067(10) 0.25944(7)
O6 O 0.24940(12) -0.23939(11) 0.11486(9)
C23 C 0.44900(16) 0.78533(15) 0.46024(11)
C24 C 0.57344(17) 0.68539(15) 0.47252(11)
C25 C 0.69371(16) 0.70781(14) 0.45668(11)
H17 H 0.7139 0.6861 0.5173
C26 C 0.66369(15) 0.84068(14) 0.41925(10)
C27 C 0.54621(15) 0.92524(15) 0.40934(10)
C28 C 0.76782(17) 0.87918(16) 0.40026(12)
C29 C 0.52477(15) 1.04944(14) 0.36665(10)
C30 C 0.62974(16) 1.08092(15) 0.34005(11)
C31 C 0.62182(19) 1.19561(16) 0.29376(13)
H18 H 0.6932 1.2152 0.2768
C32 C 0.5070(2) 1.27994(17) 0.27329(14)
H19 H 0.5006 1.3575 0.2420
C33 C 0.39996(19) 1.25162(17) 0.29841(13)
H20 H 0.3226 1.3098 0.2838
C34 C 0.40849(17) 1.13706(15) 0.34500(12)
H21 H 0.3367 1.1180 0.3621
C35 C 0.57064(18) 0.57375(17) 0.53651(12)
C36 C 0.1178(2) 0.8039(2) 0.55205(17)
H22 H 0.0878 0.8522 0.5974
H23 H 0.1426 0.7206 0.5824
H24 H 0.0498 0.8269 0.5225
C37 C 0.80765(16) 0.62714(14) 0.39446(11)
C38 C 0.82626(17) 0.65855(15) 0.29858(11)
H25 H 0.7691 0.7316 0.2721
C39 C 0.92652(17) 0.58532(16) 0.24092(12)
H26 H 0.9369 0.6089 0.1766
C40 C 1.01106(16) 0.47701(15) 0.27943(13)
C41 C 0.99436(17) 0.44265(16) 0.37549(13)
H27 H 1.0511 0.3692 0.4018
C42 C 0.89366(17) 0.51747(15) 0.43187(12)
H28 H 0.8832 0.4939 0.4962
C43 C 1.1435(2) 0.4395(2) 0.12893(17)
H29 H 1.0756 0.4482 0.1052
H30 H 1.2240 0.3820 0.1013
H31 H 1.1500 0.5158 0.1139
C44 C 0.23079(19) 0.82252(19) 0.48070(14)
H32 H 0.4913(18) 0.6658(17) 0.3890(13)
N3 N 0.52263(14) 0.72021(13) 0.38772(9)
N4 N 0.57283(18) 0.48356(15) 0.58339(11)
O7 O 1.11517(13) 0.39882(12) 0.22791(11)
O8 O 0.74659(11) 0.99817(10) 0.35971(8)
O9 O 0.87136(12) 0.81674(12) 0.41862(10)
O10 O 0.43547(10) 0.90474(10) 0.43820(8)
O11 O 0.33599(11) 0.77554(11) 0.51959(7)
O12 O 0.23773(16) 0.86882(18) 0.40154(11)
loop_
_geom_bond_atom_site_label_1
_geom_bond_atom_site_label_2
_geom_bond_site_symmetry_1
_geom_bond_site_symmetry_2
C1 C2 1_555 1_555
C2 C3 1_555 1_555
C3 H1 1_555 1_555
C4 C3 1_555 1_555
C5 C4 1_555 1_555
C6 C2 1_555 1_555
C7 H2 1_555 1_555
H3 C7 1_555 1_555
H4 C7 1_555 1_555
C8 C5 1_555 1_555
C9 C8 1_555 1_555
C10 C9 1_555 1_555
H5 C10 1_555 1_555
C11 C10 1_555 1_555
H6 C11 1_555 1_555
C12 C11 1_555 1_555
H7 C12 1_555 1_555
C13 C8 1_555 1_555
H8 C13 1_555 1_555
C14 C4 1_555 1_555
C15 C3 1_555 1_555
C16 C15 1_555 1_555
H9 C16 1_555 1_555
C17 C16 1_555 1_555
H10 C17 1_555 1_555
C18 C17 1_555 1_555
C19 C15 1_555 1_555
H11 C19 1_555 1_555
C20 C18 1_555 1_555
H12 C20 1_555 1_555
C21 H13 1_555 1_555
H14 C21 1_555 1_555
H15 C21 1_555 1_555
C22 C7 1_555 1_555
H16 N1 1_555 1_555
N1 C1 1_555 1_555
N2 C6 1_555 1_555
O1 C1 1_555 1_555
O2 C9 1_555 1_555
O3 C14 1_555 1_555
O4 C18 1_555 1_555
O5 C1 1_555 1_555
O6 C22 1_555 1_555
C23 C24 1_555 1_555
C24 C25 1_555 1_555
C25 H17 1_555 1_555
C26 C25 1_555 1_555
C27 C26 1_555 1_555
C28 C26 1_555 1_555
C29 C27 1_555 1_555
C30 C29 1_555 1_555
C31 C30 1_555 1_555
H18 C31 1_555 1_555
C32 C31 1_555 1_555
H19 C32 1_555 1_555
C33 C32 1_555 1_555
H20 C33 1_555 1_555
C34 C29 1_555 1_555
H21 C34 1_555 1_555
C35 C24 1_555 1_555
C36 H22 1_555 1_555
H23 C36 1_555 1_555
H24 C36 1_555 1_555
C37 C25 1_555 1_555
C38 C37 1_555 1_555
H25 C38 1_555 1_555
C39 C38 1_555 1_555
H26 C39 1_555 1_555
C40 C39 1_555 1_555
C41 C40 1_555 1_555
H27 C41 1_555 1_555
C42 C37 1_555 1_555
H28 C42 1_555 1_555
C43 H29 1_555 1_555
H30 C43 1_555 1_555
H31 C43 1_555 1_555
C44 C36 1_555 1_555
H32 N3 1_555 1_555
N3 C23 1_555 1_555
N4 C35 1_555 1_555
O7 C40 1_555 1_555
O8 C28 1_555 1_555
O9 C28 1_555 1_555
O10 C23 1_555 1_555
O11 C23 1_555 1_555
O12 C44 1_555 1_555
C2 N1 1_555 1_555
C5 O1 1_555 1_555
C12 C13 1_555 1_555
C14 O2 1_555 1_555
C19 C20 1_555 1_555
C21 O4 1_555 1_555
C22 O5 1_555 1_555
C24 N3 1_555 1_555
C27 O10 1_555 1_555
C30 O8 1_555 1_555
C33 C34 1_555 1_555
C41 C42 1_555 1_555
C43 O7 1_555 1_555
C44 O11 1_555 1_555

#END
