
#######################################################################
#
#                 Cambridge Crystallographic Data Centre
#                                CCDC 
#
#######################################################################
#
# If this CIF has been generated from an entry in the Cambridge 
# Structural Database, then it will include bibliographic, chemical, 
# crystal, experimental, refinement or atomic coordinate data resulting 
# from the CCDC's data processing and validation procedures.
#
#######################################################################

data_SUWMOO
_chemical_formula_moiety         'C40 H40 N4 O2 S4,C1 H1 Cl3'
_chemical_name_systematic        
"2,9-dibutyl-5,13-bis(morpholin-4-yl)isoquinolino[4',5',6':6,5,10]anthra[2,1,9-def]isoquinoline-1,3,8,10(2H,9H)-tetrathione chloroform solvate"
_symmetry_cell_setting           triclinic
_symmetry_space_group_name_H-M   'P -1'
_symmetry_Int_Tables_number      2
_space_group_name_Hall           '-P 1'
loop_
_symmetry_equiv_pos_site_id
_symmetry_equiv_pos_as_xyz
1 x,y,z
2 -x,-y,-z
_cell_length_a                   10.5929(5)
_cell_length_b                   13.3915(8)
_cell_length_c                   15.0416(8)
_cell_angle_alpha                93.393(5)
_cell_angle_beta                 105.711(5)
_cell_angle_gamma                107.519(5)
_cell_volume                     1935.59
_exptl_crystal_colour            'dull black'
_exptl_crystal_description       block
_cell_formula_units_Z            2
loop_
_atom_site_label
_atom_site_type_symbol
_atom_site_fract_x
_atom_site_fract_y
_atom_site_fract_z
C1 C 0.4040(3) 0.5800(2) 0.7348(2)
C2 C 0.4796(3) 0.6321(2) 0.6772(2)
H1 H 0.4703 0.6974 0.6604
C3 C 0.5666(3) 0.5918(2) 0.6443(2)
C4 C 0.6501(3) 0.4443(2) 0.6218(2)
C5 C 0.6396(3) 0.3399(2) 0.6297(2)
H2 H 0.6870 0.3069 0.5985
C6 C 0.5612(3) 0.2813(2) 0.6822(2)
C7 C 0.5086(3) 0.2085(2) 0.8584(2)
H3 H 0.5570 0.1751 0.8286
C8 C 0.4766(3) 0.1715(2) 0.9353(2)
H4 H 0.5044 0.1143 0.9579
C9 C 0.4037(3) 0.2166(2) 0.9809(2)
C10 C 0.3146(3) 0.3609(2) 1.0033(2)
C11 C 0.3033(3) 0.4578(2) 0.9811(2)
H5 H 0.2697 0.4968 1.0185
C12 C 0.3394(3) 0.4983(2) 0.9065(2)
H6 H 0.3315 0.5654 0.8947
C13 C 0.3875(3) 0.4448(2) 0.8468(2)
C14 C 0.4297(3) 0.4885(2) 0.7689(2)
C15 C 0.5045(3) 0.4384(2) 0.7250(2)
C16 C 0.5741(3) 0.4918(2) 0.6636(2)
C17 C 0.5114(3) 0.3359(2) 0.7427(2)
C18 C 0.4727(3) 0.2943(2) 0.8216(2)
C19 C 0.4109(3) 0.3490(2) 0.8721(2)
C20 C 0.3748(3) 0.3078(2) 0.9512(2)
C21 C 0.6452(3) 0.6497(2) 0.5858(2)
S1 S 0.64758(9) 0.77116(6) 0.56875(6)
N1 N 0.7168(3) 0.5984(2) 0.54458(18)
C22 C 0.7307(3) 0.5018(2) 0.5643(2)
S2 S 0.83500(8) 0.45319(7) 0.52407(6)
C23 C 0.3609(3) 0.1709(2) 1.0576(2)
S3 S 0.38830(9) 0.06001(7) 1.08958(6)
N2 N 0.2926(3) 0.2218(2) 1.10214(18)
C24 C 0.2666(3) 0.3144(2) 1.0783(2)
S4 S 0.17635(8) 0.36655(6) 1.13119(6)
N3 N 0.3055(3) 0.6195(2) 0.7566(2)
C25 C 0.3057(4) 0.7248(3) 0.7340(3)
H7 H 0.2678 0.7211 0.6656
H8 H 0.4017 0.7754 0.7550
C26 C 0.2159(4) 0.7617(3) 0.7836(3)
H9 H 0.2558 0.7666 0.8520
H10 H 0.2166 0.8333 0.7701
O1 O 0.0785(3) 0.6923(2) 0.7550(2)
C27 C 0.0754(4) 0.5894(3) 0.7765(3)
H11 H -0.0219 0.5408 0.7550
H12 H 0.1108 0.5932 0.8450
C28 C 0.1617(3) 0.5457(3) 0.7307(2)
H13 H 0.1622 0.4766 0.7504
H14 H 0.1201 0.5341 0.6620
N4 N 0.5355(3) 0.1720(2) 0.67586(19)
C29 C 0.6090(4) 0.1250(3) 0.6245(2)
H15 H 0.7088 0.1679 0.6441
H16 H 0.5701 0.1237 0.5566
C30 C 0.5919(5) 0.0130(3) 0.6454(3)
H17 H 0.6402 -0.0195 0.6105
H18 H 0.6360 0.0156 0.7130
O2 O 0.4500(3) -0.0513(2) 0.6206(2)
C31 C 0.3826(4) -0.0068(3) 0.6731(3)
H19 H 0.4272 -0.0043 0.7405
H20 H 0.2842 -0.0523 0.6573
C32 C 0.3890(3) 0.1041(2) 0.6536(2)
H21 H 0.3398 0.1016 0.5870
H22 H 0.3427 0.1339 0.6921
C33 C 0.7832(4) 0.6515(3) 0.4778(2)
H23 H 0.7264 0.6924 0.4445
H24 H 0.7834 0.5966 0.4308
C34 C 0.9296(5) 0.7249(3) 0.5216(3)
H25 H 0.9935 0.6859 0.5477
H26 H 0.9353 0.7796 0.5712
C35 C 0.9605(10) 0.7749(7) 0.4331(6)
H27 H 0.9654 0.7202 0.3881
H28 H 0.8849 0.8015 0.4014
C36 C 1.0971(9) 0.8650(8) 0.4655(7)
H29 H 1.1212 0.8923 0.4112
H30 H 1.1701 0.8393 0.5012
H31 H 1.0887 0.9218 0.5054
C37 C 0.2392(3) 0.1726(3) 1.1760(2)
H32 H 0.2412 0.2288 1.2227
H33 H 0.3005 0.1342 1.2083
C38 C 0.0918(3) 0.0959(3) 1.1360(2)
H34 H 0.0315 0.1330 1.1003
H35 H 0.0907 0.0370 1.0925
C39 C 0.0352(4) 0.0515(3) 1.2131(3)
H36 H 0.0362 0.1106 1.2564
H37 H 0.0964 0.0153 1.2492
C40 C -0.1121(4) -0.0263(4) 1.1753(3)
H38 H -0.1128 -0.0871 1.1353
H39 H -0.1730 0.0088 1.1389
H40 H -0.1455 -0.0509 1.2276
C43 C 0.0504(3) 0.7081(3) 0.1078(3)
H48 H -0.0367 0.6831 0.0538
Cl1 Cl 0.15616(9) 0.83018(7) 0.09033(8)
Cl2 Cl 0.00434(11) 0.72640(8) 0.21075(8)
Cl3 Cl 0.13042(9) 0.61080(7) 0.11322(7)
H41? H 0.9771 0.6858 0.5653
H42? H 0.9230 0.7841 0.5607
C41? C 1.0296(11) 0.7757(7) 0.4684(7)
H43? H 1.1246 0.8095 0.5119
H44? H 1.0319 0.7217 0.4215
C42? C 0.9766(12) 0.8569(10) 0.4215(10)
H45? H 0.8865 0.8215 0.3743
H46? H 1.0428 0.8970 0.3913
H47? H 0.9659 0.9055 0.4681
loop_
_geom_bond_atom_site_label_1
_geom_bond_atom_site_label_2
_geom_bond_site_symmetry_1
_geom_bond_site_symmetry_2
C1 C2 1_555 1_555
C2 H1 1_555 1_555
C3 C2 1_555 1_555
C4 C5 1_555 1_555
C5 H2 1_555 1_555
C6 C5 1_555 1_555
C7 H3 1_555 1_555
C8 C7 1_555 1_555
H4 C8 1_555 1_555
C9 C8 1_555 1_555
C10 C11 1_555 1_555
C11 H5 1_555 1_555
C12 C11 1_555 1_555
H6 C12 1_555 1_555
C13 C12 1_555 1_555
C14 C1 1_555 1_555
C15 C14 1_555 1_555
C16 C3 1_555 1_555
C17 C6 1_555 1_555
C18 C7 1_555 1_555
C19 C13 1_555 1_555
C20 C9 1_555 1_555
C21 C3 1_555 1_555
S1 C21 1_555 1_555
N1 C21 1_555 1_555
C22 C4 1_555 1_555
S2 C22 1_555 1_555
C23 C9 1_555 1_555
S3 C23 1_555 1_555
N2 C23 1_555 1_555
C24 C10 1_555 1_555
S4 C24 1_555 1_555
N3 C1 1_555 1_555
C25 N3 1_555 1_555
H7 C25 1_555 1_555
H8 C25 1_555 1_555
C26 C25 1_555 1_555
H9 C26 1_555 1_555
H10 C26 1_555 1_555
O1 C26 1_555 1_555
C27 O1 1_555 1_555
H11 C27 1_555 1_555
H12 C27 1_555 1_555
C28 N3 1_555 1_555
H13 C28 1_555 1_555
H14 C28 1_555 1_555
N4 C6 1_555 1_555
C29 N4 1_555 1_555
H15 C29 1_555 1_555
H16 C29 1_555 1_555
C30 C29 1_555 1_555
H17 C30 1_555 1_555
H18 C30 1_555 1_555
O2 C30 1_555 1_555
C31 O2 1_555 1_555
H19 C31 1_555 1_555
H20 C31 1_555 1_555
C32 N4 1_555 1_555
H21 C32 1_555 1_555
H22 C32 1_555 1_555
C33 N1 1_555 1_555
H23 C33 1_555 1_555
H24 C33 1_555 1_555
C34 C33 1_555 1_555
H25 C34 1_555 1_555
H26 C34 1_555 1_555
C35 C34 1_555 1_555
H27 C35 1_555 1_555
H28 C35 1_555 1_555
C36 C35 1_555 1_555
H29 C36 1_555 1_555
H30 C36 1_555 1_555
H31 C36 1_555 1_555
C37 N2 1_555 1_555
H32 C37 1_555 1_555
H33 C37 1_555 1_555
C38 C37 1_555 1_555
H34 C38 1_555 1_555
H35 C38 1_555 1_555
C39 C38 1_555 1_555
H36 C39 1_555 1_555
H37 C39 1_555 1_555
C40 C39 1_555 1_555
H38 C40 1_555 1_555
H39 C40 1_555 1_555
H40 C40 1_555 1_555
C43 H48 1_555 1_555
Cl1 C43 1_555 1_555
Cl2 C43 1_555 1_555
Cl3 C43 1_555 1_555
C4 C16 1_555 1_555
C10 C20 1_555 1_555
C13 C14 1_555 1_555
C15 C16 1_555 1_555
C15 C17 1_555 1_555
C17 C18 1_555 1_555
C18 C19 1_555 1_555
C19 C20 1_555 1_555
N1 C22 1_555 1_555
N2 C24 1_555 1_555
C27 C28 1_555 1_555
C31 C32 1_555 1_555

#END
