
#######################################################################
#
#                 Cambridge Crystallographic Data Centre
#                                CCDC 
#
#######################################################################
#
# If this CIF has been generated from an entry in the Cambridge 
# Structural Database, then it will include bibliographic, chemical, 
# crystal, experimental, refinement or atomic coordinate data resulting 
# from the CCDC's data processing and validation procedures.
#
#######################################################################

data_SUWMED
_chemical_formula_moiety         'C8 H24 N4 4+,H2 O1,4(Cl1 1-)'
_chemical_name_systematic        
"N,N'-bis(2-ammonioethyl)-2-methylenepropane-1,3-diaminium tetrachloride monohydrate"
_symmetry_cell_setting           monoclinic
_symmetry_space_group_name_H-M   'P 21/c'
_symmetry_Int_Tables_number      14
_space_group_name_Hall           '-P 2ybc'
loop_
_symmetry_equiv_pos_site_id
_symmetry_equiv_pos_as_xyz
1 x,y,z
2 -x,1/2+y,1/2-z
3 -x,-y,-z
4 x,1/2-y,1/2+z
_cell_length_a                   6.1584(3)
_cell_length_b                   10.8024(8)
_cell_length_c                   24.0597(18)
_cell_angle_alpha                90
_cell_angle_beta                 90.633(5)
_cell_angle_gamma                90
_cell_volume                     1600.49
_exptl_crystal_colour            colorless
_exptl_crystal_description       needle
_cell_formula_units_Z            4
loop_
_atom_site_label
_atom_site_type_symbol
_atom_site_fract_x
_atom_site_fract_y
_atom_site_fract_z
Cl1 Cl 0.2578(2) 0.41203(12) -0.04209(5)
Cl2 Cl 0.2742(2) 0.08357(12) 0.03911(5)
Cl3 Cl -0.2254(2) -0.23813(12) 0.27852(5)
Cl4 Cl 0.7734(2) 0.14482(12) 0.31442(5)
N1 N -0.2427(7) 0.3833(4) -0.05457(18)
H1 H -0.1071 0.4136 -0.0492
H2 H -0.2281 0.3839 -0.0949
H3 H -0.3816 0.4148 -0.0449
N2 N -0.2146(8) 0.1356(4) 0.05546(18)
H4 H -0.0824 0.0991 0.0428
H5 H -0.3159 0.0846 0.0405
N3 N 0.0424(7) -0.0190(5) 0.2238(2)
H6 H -0.0077 0.0582 0.2367
H7 H -0.0657 -0.0674 0.2386
N4 N 0.2781(8) 0.0820(4) 0.33058(19)
H8 H 0.4000 0.1103 0.3167
H9 H 0.1284 0.1031 0.3220
H10 H 0.2784 0.0728 0.3685
C1 C -0.2357(9) 0.2561(5) -0.0310(2)
H13 H -0.1056 0.2139 -0.0432
H14 H -0.3608 0.2093 -0.0439
C2 C -0.2361(9) 0.2636(5) 0.0321(2)
H15 H -0.1162 0.3147 0.0451
H16 H -0.3704 0.3009 0.0446
C3 C -0.2255(9) 0.1325(5) 0.1179(2)
H17 H -0.1151 0.1867 0.1336
H18 H -0.3663 0.1621 0.1298
C4 C -0.1901(10) 0.0026(6) 0.1387(2)
C5 C 0.0332(9) -0.0327(6) 0.1622(2)
H19 H 0.0652 -0.1178 0.1524
H20 H 0.1429 0.0197 0.1457
C6 C 0.2582(9) -0.0572(5) 0.2475(2)
H21 H 0.3706 -0.0047 0.2323
H22 H 0.2887 -0.1418 0.2365
C7 C 0.2644(9) -0.0483(5) 0.3107(2)
H23 H 0.1346 -0.0864 0.3255
H24 H 0.3888 -0.0941 0.3248
C8 C -0.3426(11) -0.0827(6) 0.1338(3)
H25 H -0.4753 -0.0631 0.1172
H26 H -0.3173 -0.1624 0.1469
O1 O -0.2553(7) 0.6346(4) -0.09789(17)
H11 H -0.3818 0.6045 -0.0881
H12 H -0.2624 0.6735 -0.1297
loop_
_geom_bond_atom_site_label_1
_geom_bond_atom_site_label_2
_geom_bond_site_symmetry_1
_geom_bond_site_symmetry_2
N1 H1 1_555 1_555
H2 N1 1_555 1_555
H3 N1 1_555 1_555
N2 H4 1_555 1_555
H5 N2 1_555 1_555
N3 H6 1_555 1_555
H7 N3 1_555 1_555
N4 H8 1_555 1_555
H9 N4 1_555 1_555
H10 N4 1_555 1_555
O1 H11 1_555 1_555
H12 O1 1_555 1_555
C1 N1 1_555 1_555
H13 C1 1_555 1_555
H14 C1 1_555 1_555
C2 N2 1_555 1_555
H15 C2 1_555 1_555
H16 C2 1_555 1_555
C3 N2 1_555 1_555
H17 C3 1_555 1_555
H18 C3 1_555 1_555
C4 C3 1_555 1_555
C5 N3 1_555 1_555
H19 C5 1_555 1_555
H20 C5 1_555 1_555
C6 N3 1_555 1_555
H21 C6 1_555 1_555
H22 C6 1_555 1_555
C7 N4 1_555 1_555
H23 C7 1_555 1_555
H24 C7 1_555 1_555
C8 C4 1_555 1_555
H25 C8 1_555 1_555
H26 C8 1_555 1_555
C1 C2 1_555 1_555
C4 C5 1_555 1_555
C6 C7 1_555 1_555

#END
