
#######################################################################
#
#                 Cambridge Crystallographic Data Centre
#                                CCDC 
#
#######################################################################
#
# If this CIF has been generated from an entry in the Cambridge 
# Structural Database, then it will include bibliographic, chemical, 
# crystal, experimental, refinement or atomic coordinate data resulting 
# from the CCDC's data processing and validation procedures.
#
#######################################################################

data_SUXKON
_chemical_formula_moiety         'C17 H15 Cl1 F3 N1 O5'
_chemical_name_systematic        
"Methyl 5-chloro-3,5'-dioxo-4'-(4,4,4-trifluorobutyl)-3H-spiro[1-benzofuran-2,2'-pyrrolidine]-4'-carboxylate"
_symmetry_cell_setting           orthorhombic
_symmetry_space_group_name_H-M   'P n a 21'
_symmetry_Int_Tables_number      33
_space_group_name_Hall           'P 2c -2n'
loop_
_symmetry_equiv_pos_site_id
_symmetry_equiv_pos_as_xyz
1 x,y,z
2 -x,-y,1/2+z
3 1/2+x,1/2-y,z
4 1/2-x,1/2+y,1/2+z
_cell_length_a                   15.896(3)
_cell_length_b                   8.7193(14)
_cell_length_c                   25.283(4)
_cell_angle_alpha                90
_cell_angle_beta                 90
_cell_angle_gamma                90
_cell_volume                     3504.27
_exptl_crystal_colour            colorless
_exptl_crystal_description       block
_cell_formula_units_Z            8
loop_
_atom_site_label
_atom_site_type_symbol
_atom_site_fract_x
_atom_site_fract_y
_atom_site_fract_z
Cl1 Cl 0.02615(5) -0.39713(8) 0.48819(3)
O1 O 0.13954(9) 0.23474(18) 0.49111(7)
C1 C 0.10388(14) -0.1236(3) 0.49151(9)
H1 H 0.0506 -0.0794 0.4912
O2 O 0.32068(10) 0.00146(19) 0.49584(8)
O3 O 0.42613(13) 0.5720(2) 0.57593(8)
C2 C 0.18881(12) 0.1300(2) 0.49417(9)
C3 C 0.17661(13) -0.0352(2) 0.49364(9)
C4 C 0.30306(14) 0.2182(3) 0.55741(9)
H2 H 0.2546 0.2729 0.5711
H3 H 0.3173 0.1361 0.5817
C5 C 0.37777(13) 0.3274(3) 0.55032(8)
C6 C 0.25581(14) -0.1017(3) 0.49388(9)
C7 C 0.11502(16) -0.2805(3) 0.48983(10)
O4 O 0.42034(12) 0.4512(2) 0.46707(7)
N1 N 0.32314(11) 0.2589(2) 0.46709(8)
H4 H 0.3129 0.2594 0.4337
C8 C 0.26647(16) -0.2583(3) 0.49109(12)
H5 H 0.3197 -0.3024 0.4902
O5 O 0.30466(14) 0.4969(3) 0.61034(11)
C9 C 0.28441(13) 0.1540(3) 0.50213(9)
C10 C 0.37787(13) 0.3593(3) 0.49007(9)
C11 C 0.46365(14) 0.2563(3) 0.56405(10)
H6 H 0.4711 0.1639 0.5432
H7 H 0.5076 0.3278 0.5539
C12 C 0.47452(15) 0.2163(4) 0.62213(11)
H8 H 0.4312 0.1442 0.6326
H9 H 0.4681 0.3082 0.6434
C13 C 0.36375(15) 0.4742(3) 0.58218(10)
C14 C 0.19398(17) -0.3471(3) 0.48964(11)
H10 H 0.1986 -0.4534 0.4885
C15 C 0.5743(2) 0.1012(5) 0.68764(16)
C16 C 0.56056(17) 0.1463(4) 0.63227(12)
H11 H 0.5672 0.0567 0.6099
H12 H 0.6034 0.2199 0.6222
F1 F 0.64862(15) 0.0392(4) 0.69691(11)
C17 C 0.4204(3) 0.7128(4) 0.60543(15)
H13 H 0.3675 0.7616 0.5981
H14 H 0.4656 0.7798 0.5953
H15 H 0.4243 0.6909 0.6426
F2 F 0.5204(2) -0.0037(6) 0.70211(19)
F3 F 0.5674(2) 0.2156(5) 0.72064(12)
Cl2 Cl 0.28853(5) -0.40161(8) 0.36281(3)
O6 O 0.40515(10) 0.2274(2) 0.35563(9)
O7 O 0.58525(9) -0.0108(2) 0.34928(8)
C18 C 0.37754(16) -0.2861(3) 0.36073(10)
O8 O 0.69288(12) 0.4263(2) 0.37921(7)
C19 C 0.45693(18) -0.3557(3) 0.36042(11)
H16 H 0.4610 -0.4619 0.3627
O9 O 0.69166(13) 0.5630(2) 0.27193(8)
C20 C 0.36756(14) -0.1296(3) 0.35874(10)
H17 H 0.3147 -0.0842 0.3599
C21 C 0.44095(13) -0.0425(3) 0.35492(9)
C22 C 0.64636(14) 0.3420(3) 0.35555(9)
C23 C 0.73013(14) 0.2458(3) 0.28033(9)
H18 H 0.7740 0.3167 0.2910
H19 H 0.7380 0.1516 0.3002
C24 C 0.45428(13) 0.1206(3) 0.35255(9)
O10 O 0.57074(16) 0.4884(3) 0.23687(11)
N2 N 0.58894(12) 0.2476(3) 0.37791(8)
H20 H 0.5770 0.2511 0.4111
C25 C 0.64395(14) 0.3152(3) 0.29509(9)
C26 C 0.51974(13) -0.1119(3) 0.35330(9)
C27 C 0.52938(15) -0.2685(3) 0.35681(12)
H21 H 0.5824 -0.3137 0.3568
C28 C 0.56897(16) 0.2083(3) 0.28811(10)
H22 H 0.5825 0.1268 0.2634
H23 H 0.5208 0.2645 0.2747
C29 C 0.74041(16) 0.2109(3) 0.22170(10)
H24 H 0.6969 0.1399 0.2105
H25 H 0.7343 0.3047 0.2014
C30 C 0.54973(14) 0.1422(3) 0.34278(9)
C31 C 0.62970(16) 0.4646(3) 0.26488(10)
C32 C 0.82597(18) 0.1416(4) 0.21138(11)
H26 H 0.8689 0.2143 0.2221
H27 H 0.8323 0.0504 0.2330
F4 F 0.8342(2) 0.2205(5) 0.12401(12)
F5 F 0.91446(16) 0.0385(3) 0.14608(12)
F6 F 0.7850(2) 0.0012(6) 0.13817(17)
C33 C 0.6851(3) 0.7067(4) 0.24313(16)
H28 H 0.6820 0.6861 0.2059
H29 H 0.7336 0.7689 0.2504
H30 H 0.6352 0.7602 0.2541
C34 C 0.8398(2) 0.1000(5) 0.15508(16)
loop_
_geom_bond_atom_site_label_1
_geom_bond_atom_site_label_2
_geom_bond_site_symmetry_1
_geom_bond_site_symmetry_2
Cl1 C7 1_555 1_555
O1 C2 1_555 1_555
C1 H1 1_555 1_555
O2 C6 1_555 1_555
O3 C13 1_555 1_555
C2 C3 1_555 1_555
C3 C1 1_555 1_555
C4 H2 1_555 1_555
H3 C4 1_555 1_555
C5 C4 1_555 1_555
C6 C3 1_555 1_555
C7 C1 1_555 1_555
O4 C10 1_555 1_555
N1 H4 1_555 1_555
C8 C6 1_555 1_555
H5 C8 1_555 1_555
O5 C13 1_555 1_555
C9 O2 1_555 1_555
C10 C5 1_555 1_555
C11 C5 1_555 1_555
H6 C11 1_555 1_555
H7 C11 1_555 1_555
C12 C11 1_555 1_555
H8 C12 1_555 1_555
H9 C12 1_555 1_555
C13 C5 1_555 1_555
C14 C7 1_555 1_555
H10 C14 1_555 1_555
C15 C16 1_555 1_555
C16 C12 1_555 1_555
H11 C16 1_555 1_555
H12 C16 1_555 1_555
F1 C15 1_555 1_555
C17 O3 1_555 1_555
H13 C17 1_555 1_555
H14 C17 1_555 1_555
H15 C17 1_555 1_555
F2 C15 1_555 1_555
F3 C15 1_555 1_555
Cl2 C18 1_555 1_555
O6 C24 1_555 1_555
O7 C26 1_555 1_555
C18 C19 1_555 1_555
O8 C22 1_555 1_555
C19 H16 1_555 1_555
O9 C31 1_555 1_555
C20 C18 1_555 1_555
H17 C20 1_555 1_555
C21 C20 1_555 1_555
C22 N2 1_555 1_555
C23 H18 1_555 1_555
H19 C23 1_555 1_555
C24 C21 1_555 1_555
O10 C31 1_555 1_555
N2 H20 1_555 1_555
C25 C22 1_555 1_555
C26 C21 1_555 1_555
C27 C19 1_555 1_555
H21 C27 1_555 1_555
C28 C25 1_555 1_555
H22 C28 1_555 1_555
H23 C28 1_555 1_555
C29 C23 1_555 1_555
H24 C29 1_555 1_555
H25 C29 1_555 1_555
C30 O7 1_555 1_555
C31 C25 1_555 1_555
C32 C29 1_555 1_555
H26 C32 1_555 1_555
H27 C32 1_555 1_555
F4 C34 1_555 1_555
F5 C34 1_555 1_555
F6 C34 1_555 1_555
C33 O9 1_555 1_555
H28 C33 1_555 1_555
H29 C33 1_555 1_555
H30 C33 1_555 1_555
C34 C32 1_555 1_555
C2 C9 1_555 1_555
C4 C9 1_555 1_555
N1 C9 1_555 1_555
N1 C10 1_555 1_555
C8 C14 1_555 1_555
C23 C25 1_555 1_555
C24 C30 1_555 1_555
N2 C30 1_555 1_555
C26 C27 1_555 1_555
C28 C30 1_555 1_555

#END
