
#######################################################################
#
#                 Cambridge Crystallographic Data Centre
#                                CCDC 
#
#######################################################################
#
# If this CIF has been generated from an entry in the Cambridge 
# Structural Database, then it will include bibliographic, chemical, 
# crystal, experimental, refinement or atomic coordinate data resulting 
# from the CCDC's data processing and validation procedures.
#
#######################################################################

data_SUYYIW
_chemical_formula_moiety         'C9 H11 N1 O1,C7 H4 N2 O7'
_chemical_name_systematic        
'2-hydroxy-3,5-dinitrobenzoic acid 4-(dimethylamino)benzaldehyde'
_symmetry_cell_setting           triclinic
_symmetry_space_group_name_H-M   'P -1'
_symmetry_Int_Tables_number      2
_space_group_name_Hall           '-P 1'
loop_
_symmetry_equiv_pos_site_id
_symmetry_equiv_pos_as_xyz
1 x,y,z
2 -x,-y,-z
_cell_length_a                   8.5330(6)
_cell_length_b                   9.3220(8)
_cell_length_c                   10.8740(11)
_cell_angle_alpha                84.5150(10)
_cell_angle_beta                 87.253(2)
_cell_angle_gamma                75.9950(10)
_cell_volume                     835.139
_exptl_crystal_colour            colorless
_exptl_crystal_description       block
_cell_formula_units_Z            2
loop_
_atom_site_label
_atom_site_type_symbol
_atom_site_fract_x
_atom_site_fract_y
_atom_site_fract_z
N1 N 0.0698(4) -0.0210(4) 0.8065(3)
O1 O 0.2733(3) 0.5166(3) 1.0326(2)
C1 C 0.3080(4) 0.3801(5) 1.0512(4)
H1 H 0.3836 0.3380 1.1112
C2 C 0.2423(4) 0.2814(4) 0.9886(3)
C3 C 0.1254(4) 0.3296(4) 0.8982(3)
H2 H 0.0866 0.4308 0.8775
C4 C 0.0677(4) 0.2314(4) 0.8403(3)
H3 H -0.0109 0.2670 0.7812
C5 C 0.1231(4) 0.0775(4) 0.8667(3)
C6 C 0.2397(4) 0.0293(4) 0.9591(3)
H4 H 0.2789 -0.0716 0.9806
C7 C 0.2946(4) 0.1296(4) 1.0165(3)
H5 H 0.3708 0.0949 1.0774
C8 C -0.0540(5) 0.0274(5) 0.7150(4)
H6 H -0.1540 0.0742 0.7544
H7 H -0.0679 -0.0567 0.6761
H8 H -0.0223 0.0970 0.6538
C9 C 0.1243(5) -0.1805(4) 0.8367(4)
H9 H 0.2402 -0.2092 0.8311
H10 H 0.0800 -0.2318 0.7797
H11 H 0.0887 -0.2057 0.9193
N2 N 0.1566(4) 0.4194(5) 0.3981(4)
N3 N 0.3930(4) -0.0436(4) 0.6355(3)
O2 O 0.5999(3) 0.3346(3) 0.8346(2)
H12 H 0.6418 0.3861 0.8734
O3 O 0.4960(3) 0.5518(3) 0.7319(3)
O4 O 0.3120(3) 0.5657(3) 0.5546(2)
H13 H 0.3623 0.5954 0.6052
O5 O 0.1152(4) 0.5504(4) 0.3892(3)
O6 O 0.1215(4) 0.3429(4) 0.3250(3)
O7 O 0.3214(4) -0.1038(3) 0.5699(3)
O8 O 0.4858(4) -0.1102(3) 0.7151(3)
C10 C 0.5109(5) 0.4180(4) 0.7485(3)
C11 C 0.4288(4) 0.3387(4) 0.6719(3)
C12 C 0.3315(4) 0.4209(4) 0.5757(3)
C13 C 0.2571(4) 0.3425(4) 0.5024(3)
C14 C 0.2761(4) 0.1931(4) 0.5226(3)
H14 H 0.2249 0.1432 0.4730
C15 C 0.3711(4) 0.1171(4) 0.6165(3)
C16 C 0.4471(4) 0.1878(4) 0.6910(3)
H15 H 0.5112 0.1338 0.7545
loop_
_geom_bond_atom_site_label_1
_geom_bond_atom_site_label_2
_geom_bond_site_symmetry_1
_geom_bond_site_symmetry_2
N1 C5 1_555 1_555
O1 C1 1_555 1_555
C1 H1 1_555 1_555
C2 C1 1_555 1_555
C3 C2 1_555 1_555
H2 C3 1_555 1_555
C4 C3 1_555 1_555
H3 C4 1_555 1_555
C5 C4 1_555 1_555
C6 C5 1_555 1_555
H4 C6 1_555 1_555
C7 C2 1_555 1_555
H5 C7 1_555 1_555
C8 N1 1_555 1_555
H6 C8 1_555 1_555
H7 C8 1_555 1_555
H8 C8 1_555 1_555
C9 N1 1_555 1_555
H9 C9 1_555 1_555
H10 C9 1_555 1_555
H11 C9 1_555 1_555
N2 O5 1_555 1_555
N3 O7 1_555 1_555
O2 H12 1_555 1_555
O3 C10 1_555 1_555
O4 H13 1_555 1_555
O6 N2 1_555 1_555
O8 N3 1_555 1_555
C10 O2 1_555 1_555
C11 C10 1_555 1_555
C12 O4 1_555 1_555
C13 N2 1_555 1_555
C14 C13 1_555 1_555
H14 C14 1_555 1_555
C15 N3 1_555 1_555
C16 C11 1_555 1_555
H15 C16 1_555 1_555
C6 C7 1_555 1_555
C11 C12 1_555 1_555
C12 C13 1_555 1_555
C14 C15 1_555 1_555
C15 C16 1_555 1_555

#END
