
#######################################################################
#
#                 Cambridge Crystallographic Data Centre
#                                CCDC 
#
#######################################################################
#
# If this CIF has been generated from an entry in the Cambridge 
# Structural Database, then it will include bibliographic, chemical, 
# crystal, experimental, refinement or atomic coordinate data resulting 
# from the CCDC's data processing and validation procedures.
#
#######################################################################

data_SUZBAR
_chemical_formula_moiety         'C18 H16 F2 N4 O4'
_chemical_name_systematic        
1-(4-(Difluoromethoxy)phenyl)-N-(3,4-dimethoxyphenyl)-1H-1,2,4-triazole-3-carboxamide
_symmetry_cell_setting           triclinic
_symmetry_space_group_name_H-M   'P -1'
_symmetry_Int_Tables_number      2
_space_group_name_Hall           '-P 1'
loop_
_symmetry_equiv_pos_site_id
_symmetry_equiv_pos_as_xyz
1 x,y,z
2 -x,-y,-z
_cell_length_a                   9.4015(19)
_cell_length_b                   12.138(2)
_cell_length_c                   16.270(3)
_cell_angle_alpha                77.345(2)
_cell_angle_beta                 88.040(2)
_cell_angle_gamma                87.376(2)
_cell_volume                     1809.1
_exptl_crystal_colour            colorless
_exptl_crystal_description       block
_cell_formula_units_Z            4
loop_
_atom_site_label
_atom_site_type_symbol
_atom_site_fract_x
_atom_site_fract_y
_atom_site_fract_z
F1 F -0.2892(3) 0.4118(2) 1.37589(19)
F2 F -0.2201(3) 0.26170(19) 1.45438(13)
O1 O 0.7795(2) 0.64315(15) 0.59135(11)
O2 O 0.9274(2) 0.45986(15) 0.59554(11)
O3 O 0.48397(19) 0.29964(14) 0.91556(11)
O4 O -0.1729(2) 0.28577(17) 1.32169(14)
N1 N 0.5169(2) 0.48188(16) 0.84610(12)
H1 H 0.4881 0.5502 0.8459
N2 N 0.3146(2) 0.55824(16) 0.95026(12)
N3 N 0.2702(2) 0.37827(15) 1.01521(12)
N4 N 0.18439(19) 0.45224(15) 1.04774(11)
C1 C 0.6230(2) 0.46897(19) 0.78493(14)
C2 C 0.6469(3) 0.56221(19) 0.71933(15)
H3 H 0.5932 0.6289 0.7175
C3 C 0.7485(3) 0.5570(2) 0.65761(15)
C4 C 0.8284(3) 0.4564(2) 0.65991(15)
C5 C 0.8042(3) 0.3651(2) 0.72421(15)
H4 H 0.8575 0.2982 0.7258
C6 C 0.7021(3) 0.3699(2) 0.78718(15)
H5 H 0.6872 0.3070 0.8304
C7 C 0.7015(5) 0.7467(2) 0.5852(2)
H6 H 0.7275 0.7977 0.5335
H7 H 0.7226 0.7791 0.6320
H8 H 0.6015 0.7337 0.5859
C8 C 1.0015(3) 0.3576(2) 0.58939(17)
H9 H 1.0621 0.3704 0.5398
H10 H 0.9343 0.3017 0.5859
H11 H 1.0583 0.3315 0.6383
C9 C 0.4546(2) 0.4004(2) 0.90504(14)
C10 C 0.3447(2) 0.44616(18) 0.95750(14)
C11 C 0.2133(3) 0.55853(19) 1.00804(15)
H12 H 0.1679 0.6232 1.0198
C12 C 0.0877(2) 0.41099(19) 1.11610(14)
C13 C 0.0736(3) 0.2964(2) 1.1441(2)
H13 H 0.1224 0.2458 1.1167
C14 C -0.0134(4) 0.2578(2) 1.2127(2)
H14 H -0.0225 0.1805 1.2325
C15 C -0.0870(3) 0.3319(2) 1.25244(17)
C16 C -0.0769(3) 0.4452(2) 1.22283(16)
H15 H -0.1295 0.4957 1.2486
C17 C 0.0116(3) 0.4850(2) 1.15448(15)
H16 H 0.0194 0.5624 1.1344
C18 C -0.1793(4) 0.3348(3) 1.3868(2)
H17 H -0.0892 0.3683 1.3946
F3 F 0.1983(3) -0.00133(18) 1.41169(13)
F4 F 0.1523(2) -0.09493(19) 1.32178(16)
O5 O 1.4711(2) 0.25405(15) 0.60847(12)
O6 O 1.3643(2) 0.06175(15) 0.61500(12)
O7 O 0.98744(19) 0.24742(14) 0.91141(12)
O8 O 0.2832(2) 0.05283(16) 1.28611(12)
N5 N 1.0411(2) 0.10370(16) 0.84462(12)
H2 H 1.0182 0.0360 0.8443
N6 N 0.7726(2) 0.11814(15) 1.00419(12)
N7 N 0.8388(2) -0.02784(16) 0.94376(12)
N8 N 0.6917(2) 0.02766(15) 1.03503(12)
C19 C 1.1504(2) 0.14830(19) 0.78631(14)
C20 C 1.2112(3) 0.2503(2) 0.78470(16)
H18 H 1.1817 0.2933 0.8234
C21 C 1.3170(3) 0.2879(2) 0.72463(16)
H19 H 1.3563 0.3573 0.7228
C22 C 1.3648(3) 0.2252(2) 0.66795(15)
C23 C 1.3058(3) 0.1200(2) 0.67165(15)
C24 C 1.1994(3) 0.0835(2) 0.72955(15)
H20 H 1.1593 0.0144 0.7310
C25 C 1.4982(3) 0.3698(2) 0.58133(19)
H21 H 1.5685 0.3797 0.5364
H22 H 1.5327 0.3976 0.6275
H23 H 1.4118 0.4108 0.5616
C26 C 1.3106(4) -0.0464(3) 0.6163(2)
H24 H 1.3612 -0.0794 0.5749
H25 H 1.2111 -0.0384 0.6039
H26 H 1.3232 -0.0944 0.6711
C27 C 0.9680(3) 0.1532(2) 0.90072(15)
C28 C 0.8581(2) 0.08040(19) 0.95009(15)
C29 C 0.7337(2) -0.05840(19) 0.99824(14)
H27 H 0.6940 -0.1291 1.0098
C30 C 0.5838(2) 0.03304(18) 1.09822(14)
C31 C 0.5146(2) -0.06285(19) 1.13650(15)
H28 H 0.5362 -0.1305 1.1200
C32 C 0.4136(3) -0.05910(19) 1.19900(15)
H29 H 0.3664 -0.1239 1.2248
C33 C 0.3829(3) 0.0410(2) 1.22304(16)
C34 C 0.4491(3) 0.1375(2) 1.18296(18)
H30 H 0.4254 0.2054 1.1985
C35 C 0.5496(3) 0.1346(2) 1.12029(17)
H31 H 0.5940 0.2001 1.0931
C36 C 0.2545(4) -0.0386(3) 1.34734(19)
H32 H 0.3400 -0.0868 1.3631
loop_
_geom_bond_atom_site_label_1
_geom_bond_atom_site_label_2
_geom_bond_site_symmetry_1
_geom_bond_site_symmetry_2
F1 C18 1_555 1_555
F2 C18 1_555 1_555
F3 C36 1_555 1_555
F4 C36 1_555 1_555
O1 C3 1_555 1_555
O2 C4 1_555 1_555
O3 C9 1_555 1_555
O4 C15 1_555 1_555
O5 C22 1_555 1_555
O6 C23 1_555 1_555
O7 C27 1_555 1_555
O8 C33 1_555 1_555
N1 H1 1_555 1_555
N2 C10 1_555 1_555
N3 N4 1_555 1_555
N4 C11 1_555 1_555
N5 H2 1_555 1_555
N6 N8 1_555 1_555
N7 C28 1_555 1_555
N8 C29 1_555 1_555
C1 N1 1_555 1_555
C2 C1 1_555 1_555
H3 C2 1_555 1_555
C3 C2 1_555 1_555
C4 C3 1_555 1_555
C5 C4 1_555 1_555
H4 C5 1_555 1_555
C6 C1 1_555 1_555
H5 C6 1_555 1_555
C7 O1 1_555 1_555
H6 C7 1_555 1_555
H7 C7 1_555 1_555
H8 C7 1_555 1_555
C8 O2 1_555 1_555
H9 C8 1_555 1_555
H10 C8 1_555 1_555
H11 C8 1_555 1_555
C9 N1 1_555 1_555
C10 N3 1_555 1_555
C11 N2 1_555 1_555
H12 C11 1_555 1_555
C12 N4 1_555 1_555
C13 C12 1_555 1_555
H13 C13 1_555 1_555
C14 C13 1_555 1_555
H14 C14 1_555 1_555
C15 C14 1_555 1_555
C16 C15 1_555 1_555
H15 C16 1_555 1_555
C17 C12 1_555 1_555
H16 C17 1_555 1_555
C18 O4 1_555 1_555
H17 C18 1_555 1_555
C19 N5 1_555 1_555
C20 C19 1_555 1_555
H18 C20 1_555 1_555
C21 C20 1_555 1_555
H19 C21 1_555 1_555
C22 C21 1_555 1_555
C23 C22 1_555 1_555
C24 C19 1_555 1_555
H20 C24 1_555 1_555
C25 O5 1_555 1_555
H21 C25 1_555 1_555
H22 C25 1_555 1_555
H23 C25 1_555 1_555
C26 O6 1_555 1_555
H24 C26 1_555 1_555
H25 C26 1_555 1_555
H26 C26 1_555 1_555
C27 N5 1_555 1_555
C28 N6 1_555 1_555
C29 N7 1_555 1_555
H27 C29 1_555 1_555
C30 N8 1_555 1_555
C31 C30 1_555 1_555
H28 C31 1_555 1_555
C32 C31 1_555 1_555
H29 C32 1_555 1_555
C33 C32 1_555 1_555
C34 C33 1_555 1_555
H30 C34 1_555 1_555
C35 C30 1_555 1_555
H31 C35 1_555 1_555
C36 O8 1_555 1_555
H32 C36 1_555 1_555
C5 C6 1_555 1_555
C9 C10 1_555 1_555
C16 C17 1_555 1_555
C23 C24 1_555 1_555
C27 C28 1_555 1_555
C34 C35 1_555 1_555

#END
