
#######################################################################
#
#                 Cambridge Crystallographic Data Centre
#                                CCDC 
#
#######################################################################
#
# If this CIF has been generated from an entry in the Cambridge 
# Structural Database, then it will include bibliographic, chemical, 
# crystal, experimental, refinement or atomic coordinate data resulting 
# from the CCDC's data processing and validation procedures.
#
#######################################################################

data_SUZVUF
_chemical_formula_moiety         'C20 H21 N5 O4'
_chemical_name_systematic        
'Ethyl 2-isopropylamino-6-methyl-8-oxo-3-phenyl-3H,8H-furo[2,3-d][1,2,4]triazolo[1,5-a]pyrimidine-7-carboxylate'
_symmetry_cell_setting           orthorhombic
_symmetry_space_group_name_H-M   'F d d 2'
_symmetry_Int_Tables_number      43
_space_group_name_Hall           'F 2 -2d'
loop_
_symmetry_equiv_pos_site_id
_symmetry_equiv_pos_as_xyz
1 x,y,z
2 -x,-y,z
3 1/4+x,1/4-y,1/4+z
4 1/4-x,1/4+y,1/4+z
5 x,1/2+y,1/2+z
6 -x,1/2-y,1/2+z
7 1/4+x,3/4-y,3/4+z
8 1/4-x,3/4+y,3/4+z
9 1/2+x,y,1/2+z
10 1/2-x,-y,1/2+z
11 3/4+x,1/4-y,3/4+z
12 3/4-x,1/4+y,3/4+z
13 1/2+x,1/2+y,z
14 1/2-x,1/2-y,z
15 3/4+x,3/4-y,1/4+z
16 3/4-x,3/4+y,1/4+z
_cell_length_a                   19.9810(11)
_cell_length_b                   37.3673(19)
_cell_length_c                   10.7181(6)
_cell_angle_alpha                90
_cell_angle_beta                 90
_cell_angle_gamma                90
_cell_volume                     8002.52
_exptl_crystal_colour            purple
_exptl_crystal_description       block
_cell_formula_units_Z            16
_exptl_crystal_recrystallization_method ethanol/dichloromethane
loop_
_atom_site_label
_atom_site_type_symbol
_atom_site_fract_x
_atom_site_fract_y
_atom_site_fract_z
C1 C 0.25088(16) 0.07862(8) 0.2745(4)
H1 H 0.2634 0.0694 0.1974
C2 C 0.29491(17) 0.07774(9) 0.3748(4)
H2 H 0.3378 0.0685 0.3640
C3 C 0.2759(2) 0.09026(10) 0.4890(4)
H3 H 0.3052 0.0889 0.5562
C4 C 0.2140(2) 0.10476(12) 0.5044(4)
H4 H 0.2011 0.1133 0.5822
C5 C 0.17048(18) 0.10680(10) 0.4059(3)
H5 H 0.1287 0.1173 0.4167
C6 C 0.18834(15) 0.09340(8) 0.2912(3)
C7 C 0.07894(14) 0.07677(7) 0.1978(3)
C8 C 0.14928(15) 0.10258(7) 0.0675(3)
C9 C 0.21415(19) 0.12881(12) -0.1012(4)
H6 H 0.1973 0.1093 -0.1537
C10 C 0.1741(3) 0.16260(18) -0.1310(7)
H7 H 0.1276 0.1584 -0.1149
H8 H 0.1801 0.1687 -0.2173
H9 H 0.1896 0.1819 -0.0796
C11 C 0.2851(3) 0.1340(3) -0.1290(7)
H10 H 0.3032 0.1519 -0.0745
H11 H 0.2901 0.1416 -0.2141
H12 H 0.3086 0.1118 -0.1168
C12 C -0.00778(15) 0.06210(8) 0.0432(3)
C13 C -0.03791(14) 0.04496(8) 0.1483(3)
C14 C -0.00908(14) 0.04888(8) 0.2641(3)
C15 C -0.09993(16) 0.02527(8) 0.1723(4)
C16 C -0.10362(17) 0.02052(9) 0.2962(4)
C17 C -0.1520(2) 0.00305(13) 0.3833(5)
H13 H -0.1864 -0.0087 0.3360
H14 H -0.1719 0.0209 0.4361
H15 H -0.1289 -0.0142 0.4336
C18 C -0.1456(2) 0.00781(11) 0.0816(5)
C19 C -0.1552(3) -0.01350(12) -0.1254(6)
H16 H -0.1946 0.0006 -0.1452
H17 H -0.1697 -0.0370 -0.0976
C20 C -0.1128(4) -0.0169(2) -0.2349(7)
H18 H -0.0985 0.0064 -0.2614
H19 H -0.1375 -0.0282 -0.3009
H20 H -0.0743 -0.0312 -0.2147
N1 N 0.14054(11) 0.09293(6) 0.1915(2)
N2 N 0.05524(11) 0.07635(6) 0.0793(2)
N3 N 0.09879(12) 0.09351(6) -0.0029(2)
N4 N 0.20563(14) 0.11862(8) 0.0286(3)
H21 H 0.2249(17) 0.1327(8) 0.081(3)
N5 N 0.04897(13) 0.06436(7) 0.2978(2)
O1 O -0.02832(11) 0.06660(6) -0.0623(2)
O2 O -0.04849(11) 0.03475(6) 0.3546(2)
O3 O -0.20042(15) -0.00291(9) 0.1061(4)
O4 O -0.11678(14) 0.00387(7) -0.0285(3)
C21? C 0.2513(12) 0.1649(3) -0.110(3)
C22? C 0.2599(11) 0.1007(4) -0.153(2)
H22? H 0.2212 0.1840 -0.0881
H23? H 0.2674 0.1684 -0.1932
H24? H 0.2885 0.1649 -0.0528
H25? H 0.2996 0.0995 -0.1023
H26? H 0.2718 0.1067 -0.2367
H27? H 0.2376 0.0780 -0.1514
H28? H 0.1720 0.1295 -0.1479
loop_
_geom_bond_atom_site_label_1
_geom_bond_atom_site_label_2
_geom_bond_site_symmetry_1
_geom_bond_site_symmetry_2
C1 H1 1_555 1_555
C2 C1 1_555 1_555
H2 C2 1_555 1_555
C3 C2 1_555 1_555
H3 C3 1_555 1_555
C4 C3 1_555 1_555
H4 C4 1_555 1_555
C5 C4 1_555 1_555
H5 C5 1_555 1_555
C6 C1 1_555 1_555
C7 N1 1_555 1_555
C8 N1 1_555 1_555
C9 H6 1_555 1_555
C10 C9 1_555 1_555
H7 C10 1_555 1_555
H8 C10 1_555 1_555
H9 C10 1_555 1_555
C11 C9 1_555 1_555
H10 C11 1_555 1_555
H11 C11 1_555 1_555
H12 C11 1_555 1_555
C12 C13 1_555 1_555
C13 C14 1_555 1_555
C14 N5 1_555 1_555
C15 C13 1_555 1_555
C16 C15 1_555 1_555
C17 C16 1_555 1_555
H13 C17 1_555 1_555
H14 C17 1_555 1_555
H15 C17 1_555 1_555
C18 C15 1_555 1_555
C19 H16 1_555 1_555
H17 C19 1_555 1_555
C20 C19 1_555 1_555
H18 C20 1_555 1_555
H19 C20 1_555 1_555
H20 C20 1_555 1_555
N1 C6 1_555 1_555
N2 C7 1_555 1_555
N3 C8 1_555 1_555
N4 C8 1_555 1_555
H21 N4 1_555 1_555
N5 C7 1_555 1_555
O1 C12 1_555 1_555
O2 C14 1_555 1_555
O3 C18 1_555 1_555
O4 C18 1_555 1_555
C5 C6 1_555 1_555
C9 N4 1_555 1_555
C12 N2 1_555 1_555
C16 O2 1_555 1_555
C19 O4 1_555 1_555
N2 N3 1_555 1_555

#END
