
#######################################################################
#
#                 Cambridge Crystallographic Data Centre
#                                CCDC 
#
#######################################################################
#
# If this CIF has been generated from an entry in the Cambridge 
# Structural Database, then it will include bibliographic, chemical, 
# crystal, experimental, refinement or atomic coordinate data resulting 
# from the CCDC's data processing and validation procedures.
#
#######################################################################

data_SYRING01
_chemical_compound_source        'stems of Diploclisia glaucescens'
_chemical_name_common            
(-)-2,6-bis(4-Hydroxy-3,5-dimethoxyphenyl)-3,7-dioxabicyclo(3.3.0)octane
_chemical_formula_moiety         'C22 H26 O8'
_chemical_name_systematic        (-)-Syringaresinol
_chemical_properties_biological  'enhances the proliferation of T and B cells'
_symmetry_cell_setting           orthorhombic
_symmetry_space_group_name_H-M   'P 21 21 21'
_symmetry_Int_Tables_number      19
_space_group_name_Hall           'P 2ac 2ab'
loop_
_symmetry_equiv_pos_site_id
_symmetry_equiv_pos_as_xyz
1 x,y,z
2 1/2-x,-y,1/2+z
3 1/2+x,1/2-y,-z
4 -x,1/2+y,1/2-z
_cell_length_a                   8.6010(3)
_cell_length_b                   13.0830(9)
_cell_length_c                   18.1130(11)
_cell_angle_alpha                90
_cell_angle_beta                 90
_cell_angle_gamma                90
_cell_volume                     2038.2
_exptl_crystal_colour            colorless
_cell_formula_units_Z            4
_exptl_crystal_recrystallization_method 'ethyl acetate/chloroform'
loop_
_atom_site_label
_atom_site_type_symbol
_atom_site_fract_x
_atom_site_fract_y
_atom_site_fract_z
C1 C -0.2880(9) 0.1870(4) -0.1970(3)
O1 O -0.2166(6) 0.2744(3) -0.2283(2)
C2 C -0.2243(10) 0.3545(4) -0.1732(3)
C3 C -0.2262(8) 0.3007(4) -0.0994(3)
C4 C -0.3745(8) 0.3135(4) -0.0531(3)
O2 O -0.3875(5) 0.2207(3) -0.0109(2)
C5 C -0.3442(10) 0.1383(4) -0.0600(3)
C6 C -0.2331(9) 0.1846(4) -0.1182(3)
C7 C -0.2560(8) 0.0914(4) -0.2417(3)
C8 C -0.1668(8) 0.0934(4) -0.3060(3)
C9 C -0.1512(7) 0.0032(4) -0.3468(3)
C10 C -0.2244(8) -0.0867(4) -0.3251(3)
C11 C -0.3113(8) -0.0876(4) -0.2601(3)
C12 C -0.3293(8) 0.0020(4) -0.2196(3)
C13 C -0.3797(8) 0.4057(4) -0.0033(3)
C14 C -0.3150(8) 0.4039(4) 0.0675(3)
C15 C -0.3236(8) 0.4909(4) 0.1120(3)
C16 C -0.3895(8) 0.5810(4) 0.0855(3)
C17 C -0.4482(8) 0.5830(4) 0.0141(3)
C18 C -0.4462(8) 0.4949(5) -0.0287(3)
O3 O -0.0698(6) -0.0056(3) -0.4122(3)
C19 C 0.0363(8) 0.0747(5) -0.4312(3)
O4 O -0.2117(6) -0.1754(3) -0.3645(2)
O5 O -0.3762(6) -0.1808(3) -0.2423(3)
C20 C -0.4494(11) -0.1898(5) -0.1712(4)
O6 O -0.2678(8) 0.4975(3) 0.1822(3)
C21 C -0.2477(10) 0.4037(5) 0.2231(3)
O7 O -0.3988(6) 0.6684(3) 0.1275(2)
O8 O -0.5071(6) 0.6740(3) -0.0137(3)
C22 C -0.6613(10) 0.6869(6) -0.0097(6)
loop_
_geom_bond_atom_site_label_1
_geom_bond_atom_site_label_2
_geom_bond_site_symmetry_1
_geom_bond_site_symmetry_2
C1 O1 1_555 1_555
O1 C2 1_555 1_555
C2 C3 1_555 1_555
C3 C4 1_555 1_555
C4 O2 1_555 1_555
O2 C5 1_555 1_555
C5 C6 1_555 1_555
C6 C1 1_555 1_555
C7 C1 1_555 1_555
C8 C7 1_555 1_555
C9 C8 1_555 1_555
C10 C9 1_555 1_555
C11 C10 1_555 1_555
C12 C7 1_555 1_555
C13 C4 1_555 1_555
C14 C13 1_555 1_555
C15 C14 1_555 1_555
C16 C15 1_555 1_555
C17 C16 1_555 1_555
C18 C13 1_555 1_555
O3 C9 1_555 1_555
C19 O3 1_555 1_555
O4 C10 1_555 1_555
O5 C11 1_555 1_555
C20 O5 1_555 1_555
O6 C15 1_555 1_555
C21 O6 1_555 1_555
O7 C16 1_555 1_555
O8 C17 1_555 1_555
C22 O8 1_555 1_555
C3 C6 1_555 1_555
C11 C12 1_555 1_555
C17 C18 1_555 1_555

#END
