
#######################################################################
#
#                 Cambridge Crystallographic Data Centre
#                                CCDC 
#
#######################################################################
#
# If this CIF has been generated from an entry in the Cambridge 
# Structural Database, then it will include bibliographic, chemical, 
# crystal, experimental, refinement or atomic coordinate data resulting 
# from the CCDC's data processing and validation procedures.
#
#######################################################################

data_TABXOM
_chemical_formula_moiety         'C13 H15 Br1 N2 O2'
_chemical_name_systematic        
1-(5-(5-bromo-2-hydroxyphenyl)-3-methyl-4,5-dihydro-1H-pyrazol-1-yl)propan-1-one
_chemical_properties_biological  'antiproliferative activity'
_symmetry_cell_setting           monoclinic
_symmetry_space_group_name_H-M   'P 21/c'
_symmetry_Int_Tables_number      14
_space_group_name_Hall           '-P 2ybc'
loop_
_symmetry_equiv_pos_site_id
_symmetry_equiv_pos_as_xyz
1 x,y,z
2 -x,1/2+y,1/2-z
3 -x,-y,-z
4 x,1/2-y,1/2+z
_cell_length_a                   21.381(5)
_cell_length_b                   12.360(3)
_cell_length_c                   10.855(3)
_cell_angle_alpha                90
_cell_angle_beta                 104.240(2)
_cell_angle_gamma                90
_cell_volume                     2780.5
_exptl_crystal_colour            colorless
_exptl_crystal_description       block
_chemical_melting_point          '180-181 deg.C'
_cell_formula_units_Z            8
loop_
_atom_site_label
_atom_site_type_symbol
_atom_site_fract_x
_atom_site_fract_y
_atom_site_fract_z
Br1 Br 0.21223(3) 0.61041(6) 0.70745(6)
O1 O -0.04106(17) 0.6457(3) 0.5060(3)
N1 N -0.13980(18) 0.5499(3) 0.6972(4)
C1 C -0.1685(3) 0.4484(5) 0.8642(5)
H1 H -0.2098 0.4816 0.8311
H2 H -0.1521 0.4692 0.9514
H3 H -0.1730 0.3712 0.8588
O2 O -0.02943(14) 0.6769(3) 0.8876(3)
N2 N -0.08676(18) 0.5676(3) 0.6461(3)
C2 C -0.1497(2) 0.7011(5) 0.5023(5)
H4 H -0.1872 0.6565 0.5018
H5 H -0.1523 0.7238 0.4157
C3 C 0.1358(2) 0.7135(4) 0.8559(4)
H6 H 0.1716 0.7572 0.8864
C4 C -0.1230(2) 0.4845(4) 0.7889(5)
C5 C -0.0276(2) 0.5087(4) 0.7134(4)
H7 H -0.0159 0.4561 0.6553
C6 C -0.0539(2) 0.4479(4) 0.8146(4)
H8 H -0.0512 0.3702 0.8044
H9 H -0.0302 0.4676 0.8998
C7 C 0.0807(2) 0.7287(4) 0.8977(4)
H10 H 0.0796 0.7822 0.9573
C8 C 0.1377(2) 0.6335(4) 0.7691(5)
C9 C 0.0853(2) 0.5676(4) 0.7245(4)
H11 H 0.0875 0.5130 0.6668
C10 C 0.0258(2) 0.6633(4) 0.8504(4)
C11 C 0.0289(2) 0.5819(3) 0.7648(4)
C12 C -0.0892(2) 0.6351(4) 0.5506(4)
C13 C -0.1507(3) 0.8006(5) 0.5850(6)
H12 H -0.1894 0.8411 0.5515
H13 H -0.1139 0.8450 0.5851
H14 H -0.1494 0.7782 0.6702
Br2 Br 0.68394(3) 0.38138(6) 0.96719(7)
O3 O 0.44280(16) 0.3187(3) 0.5507(3)
N3 N 0.33262(18) 0.4551(3) 0.6340(4)
O4 O 0.43174(17) 0.3633(3) 0.9242(3)
N4 N 0.38627(18) 0.4353(3) 0.7348(4)
C14 C 0.3042(2) 0.5551(5) 0.4371(5)
H15 H 0.2623 0.5256 0.4339
H16 H 0.3186 0.5303 0.3649
H17 H 0.3019 0.6326 0.4359
C15 C 0.4199(2) 0.5498(4) 0.5939(4)
H18 H 0.4247 0.6276 0.6040
H19 H 0.4423 0.5257 0.5312
C16 C 0.4455(2) 0.4910(4) 0.7219(4)
H20 H 0.4578 0.5450 0.7896
C17 C 0.3509(2) 0.5185(4) 0.5570(5)
C18 C 0.5524(3) 0.2676(4) 0.6482(5)
H21 H 0.5507 0.2130 0.5885
C19 C 0.5583(2) 0.4294(4) 0.8221(4)
H22 H 0.5609 0.4848 0.8812
C20 C 0.6107(2) 0.3626(5) 0.8303(5)
C21 C 0.6079(2) 0.2821(5) 0.7418(5)
H23 H 0.6434 0.2377 0.7454
C22 C 0.5013(2) 0.4165(4) 0.7276(4)
C23 C 0.3836(3) 0.3735(4) 0.8337(5)
C24 C 0.4988(2) 0.3327(4) 0.6406(4)
C25 C 0.3207(3) 0.3157(5) 0.8303(5)
H24 H 0.3182 0.2993 0.9164
H25 H 0.2848 0.3626 0.7922
C26 C 0.3160(4) 0.2143(6) 0.7563(7)
H26 H 0.2762 0.1785 0.7560
H27 H 0.3515 0.1679 0.7942
H28 H 0.3174 0.2308 0.6705
loop_
_geom_bond_atom_site_label_1
_geom_bond_atom_site_label_2
_geom_bond_site_symmetry_1
_geom_bond_site_symmetry_2
Br1 C8 1_555 1_555
O1 C12 1_555 1_555
N1 N2 1_555 1_555
C1 H1 1_555 1_555
H2 C1 1_555 1_555
H3 C1 1_555 1_555
O2 C10 1_555 1_555
N2 C5 1_555 1_555
C2 H4 1_555 1_555
H5 C2 1_555 1_555
C3 H6 1_555 1_555
C4 N1 1_555 1_555
C5 H7 1_555 1_555
C6 C4 1_555 1_555
H8 C6 1_555 1_555
H9 C6 1_555 1_555
C7 C3 1_555 1_555
H10 C7 1_555 1_555
C8 C3 1_555 1_555
C9 C8 1_555 1_555
H11 C9 1_555 1_555
C10 C7 1_555 1_555
C11 C5 1_555 1_555
C12 N2 1_555 1_555
C13 C2 1_555 1_555
H12 C13 1_555 1_555
H13 C13 1_555 1_555
H14 C13 1_555 1_555
Br2 C20 1_555 1_555
O3 C24 1_555 1_555
N3 N4 1_555 1_555
O4 C23 1_555 1_555
N4 C16 1_555 1_555
C14 H15 1_555 1_555
H16 C14 1_555 1_555
H17 C14 1_555 1_555
C15 H18 1_555 1_555
H19 C15 1_555 1_555
C16 C15 1_555 1_555
H20 C16 1_555 1_555
C17 N3 1_555 1_555
C18 H21 1_555 1_555
C19 H22 1_555 1_555
C20 C19 1_555 1_555
C21 C18 1_555 1_555
H23 C21 1_555 1_555
C22 C16 1_555 1_555
C23 N4 1_555 1_555
C24 C18 1_555 1_555
C25 C23 1_555 1_555
H24 C25 1_555 1_555
H25 C25 1_555 1_555
C26 C25 1_555 1_555
H26 C26 1_555 1_555
H27 C26 1_555 1_555
H28 C26 1_555 1_555
C1 C4 1_555 1_555
C2 C12 1_555 1_555
C5 C6 1_555 1_555
C9 C11 1_555 1_555
C10 C11 1_555 1_555
C14 C17 1_555 1_555
C15 C17 1_555 1_555
C19 C22 1_555 1_555
C20 C21 1_555 1_555
C22 C24 1_555 1_555

#END
