
#######################################################################
#
#                 Cambridge Crystallographic Data Centre
#                                CCDC 
#
#######################################################################
#
# If this CIF has been generated from an entry in the Cambridge 
# Structural Database, then it will include bibliographic, chemical, 
# crystal, experimental, refinement or atomic coordinate data resulting 
# from the CCDC's data processing and validation procedures.
#
#######################################################################

data_TABYON
_chemical_formula_moiety         'C18 H22 N2 O5'
_chemical_name_systematic        
2-(1,2-dihydroxyethyl)-10-methoxy-12b-methyl-2,3,6,7,12,12b-hexahydro-4H-[1,3]oxazino[3',2':1,2]pyrido[3,4-b]indol-4-one
_symmetry_cell_setting           trigonal
_symmetry_space_group_name_H-M   'P 32'
_symmetry_Int_Tables_number      145
_space_group_name_Hall           'P 32'
loop_
_symmetry_equiv_pos_site_id
_symmetry_equiv_pos_as_xyz
1 x,y,z
2 -y,x-y,2/3+z
3 -x+y,-x,1/3+z
_cell_length_a                   13.7436(2)
_cell_length_b                   13.7436(2)
_cell_length_c                   7.59540(10)
_cell_angle_alpha                90
_cell_angle_beta                 90
_cell_angle_gamma                120
_cell_volume                     1242.46
_exptl_crystal_colour            colorless
_exptl_crystal_description       block
_cell_formula_units_Z            3
loop_
_atom_site_label
_atom_site_type_symbol
_atom_site_fract_x
_atom_site_fract_y
_atom_site_fract_z
O1 O 0.27637(12) 0.92990(14) -0.17237(19)
O2 O 0.77769(11) 1.25465(12) 0.7594(2)
O3 O 0.05700(10) 1.01716(12) 0.31542(18)
H1 H 0.0254 1.0008 0.4143
O4 O 0.20354(13) 1.25994(13) 0.3802(2)
H2 H 0.1383 1.2476 0.3595
C1 C 0.26223(15) 0.86005(15) 0.2925(3)
N1 N 0.27376(13) 0.85782(14) 0.0969(2)
C2 C 0.35408(17) 0.82263(18) 0.0392(3)
H3 H 0.3485 0.8114 -0.0900
H4 H 0.3347 0.7502 0.0954
C3 C 0.47475(17) 0.91113(18) 0.0883(3)
H5 H 0.5238 0.8775 0.0827
H6 H 0.5037 0.9742 0.0035
C4 C 0.68626(17) 1.08714(17) 0.3617(3)
H7 H 0.7203 1.0763 0.2604
C5 C 0.75147(16) 1.16072(17) 0.4914(3)
H8 H 0.8308 1.2013 0.4783
C6 C 0.70254(15) 1.17683(15) 0.6430(3)
C7 C 0.58713(16) 1.11842(15) 0.6691(2)
H9 H 0.5540 1.1281 0.7725
N2 N 0.40702(12) 0.98207(13) 0.5212(2)
H10 H 0.3584 0.9773 0.6010
C8 C 0.38110(15) 0.92844(14) 0.3610(3)
C9 C 0.47674(16) 0.95368(16) 0.2704(3)
C10 C 0.56864(16) 1.02800(15) 0.3803(3)
C11 C 0.52228(15) 1.04455(15) 0.5352(3)
O5 O 0.19679(10) 0.90880(10) 0.34177(16)
C12 C 0.22704(14) 1.01031(15) 0.2468(2)
H11 H 0.3107 1.0587 0.2475
C13 C 0.19817(17) 0.74085(16) 0.3667(3)
H12 H 0.1885 0.7441 0.4940
H13 H 0.2406 0.7023 0.3436
H14 H 0.1243 0.6996 0.3102
C14 C 0.18817(16) 0.97486(17) 0.0588(3)
H15 H 0.1061 0.9221 0.0566
H16 H 0.2043 1.0414 -0.0129
C15 C 0.24941(15) 0.91867(16) -0.0161(3)
C16 C 0.73205(18) 1.27550(19) 0.9145(3)
H17 H 0.6850 1.3075 0.8815
H18 H 0.7934 1.3285 0.9905
H19 H 0.6865 1.2048 0.9780
C17 C 0.17626(15) 1.07285(16) 0.3386(2)
H20 H 0.1928 1.0763 0.4674
C18 C 0.22768(16) 1.19239(16) 0.2687(3)
H21 H 0.3101 1.2257 0.2590
H22 H 0.1978 1.1908 0.1495
loop_
_geom_bond_atom_site_label_1
_geom_bond_atom_site_label_2
_geom_bond_site_symmetry_1
_geom_bond_site_symmetry_2
O1 C15 1_555 1_555
O2 C6 1_555 1_555
O3 H1 1_555 1_555
O4 H2 1_555 1_555
C1 N1 1_555 1_555
N1 C2 1_555 1_555
C2 H3 1_555 1_555
H4 C2 1_555 1_555
C3 C2 1_555 1_555
H5 C3 1_555 1_555
H6 C3 1_555 1_555
C4 H7 1_555 1_555
C5 C4 1_555 1_555
H8 C5 1_555 1_555
C6 C5 1_555 1_555
C7 C6 1_555 1_555
H9 C7 1_555 1_555
N2 H10 1_555 1_555
C8 C1 1_555 1_555
C9 C3 1_555 1_555
C10 C4 1_555 1_555
C11 C7 1_555 1_555
O5 C1 1_555 1_555
C12 O5 1_555 1_555
H11 C12 1_555 1_555
C13 C1 1_555 1_555
H12 C13 1_555 1_555
H13 C13 1_555 1_555
H14 C13 1_555 1_555
C14 C12 1_555 1_555
H15 C14 1_555 1_555
H16 C14 1_555 1_555
C15 N1 1_555 1_555
C16 O2 1_555 1_555
H17 C16 1_555 1_555
H18 C16 1_555 1_555
H19 C16 1_555 1_555
C17 O3 1_555 1_555
H20 C17 1_555 1_555
C18 O4 1_555 1_555
H21 C18 1_555 1_555
H22 C18 1_555 1_555
N2 C8 1_555 1_555
N2 C11 1_555 1_555
C8 C9 1_555 1_555
C9 C10 1_555 1_555
C10 C11 1_555 1_555
C12 C17 1_555 1_555
C14 C15 1_555 1_555
C17 C18 1_555 1_555

#END
