
#######################################################################
#
#                 Cambridge Crystallographic Data Centre
#                                CCDC 
#
#######################################################################
#
# If this CIF has been generated from an entry in the Cambridge 
# Structural Database, then it will include bibliographic, chemical, 
# crystal, experimental, refinement or atomic coordinate data resulting 
# from the CCDC's data processing and validation procedures.
#
#######################################################################

data_TABZUU
_chemical_formula_moiety         'C19 H20 N2 O2'
_chemical_name_systematic        
1-(5-(2-hydroxyphenyl)-3-methyl-4,5-dihydro-1H-pyrazol-1-yl)-3-phenylpropan-1-one
_symmetry_cell_setting           triclinic
_symmetry_space_group_name_H-M   'P -1'
_symmetry_Int_Tables_number      2
_space_group_name_Hall           '-P 1'
loop_
_symmetry_equiv_pos_site_id
_symmetry_equiv_pos_as_xyz
1 x,y,z
2 -x,-y,-z
_cell_length_a                   8.081(3)
_cell_length_b                   9.646(3)
_cell_length_c                   11.162(4)
_cell_angle_alpha                93.964(3)
_cell_angle_beta                 108.008(3)
_cell_angle_gamma                94.048(3)
_cell_volume                     821.582
_exptl_crystal_colour            colorless
_exptl_crystal_description       block
_cell_formula_units_Z            2
loop_
_atom_site_label
_atom_site_type_symbol
_atom_site_fract_x
_atom_site_fract_y
_atom_site_fract_z
O1 O 0.6238(2) 0.38853(18) 0.44593(15)
H1 H 0.5424 0.3574 0.3831
C1 C 1.0102(3) 0.4799(3) 0.6669(2)
H2 H 1.0055 0.3810 0.6420
H3 H 1.0492 0.5330 0.6083
C2 C 1.3099(4) 0.4828(4) 0.8477(3)
H4 H 1.3603 0.5186 0.9349
H5 H 1.3758 0.5240 0.7987
H6 H 1.3123 0.3832 0.8402
O2 O 0.6380(2) 0.70598(18) 0.76954(16)
C3 C 0.8317(3) 0.5200(2) 0.6728(2)
H7 H 0.7799 0.5783 0.6050
C4 C 1.1265(3) 0.5173(3) 0.8003(2)
N1 N 1.0572(2) 0.5870(2) 0.87018(18)
N2 N 0.8854(2) 0.6030(2) 0.79724(17)
C5 C 0.4775(4) 0.1582(3) 0.6476(3)
H8 H 0.3997 0.0799 0.6407
C6 C 0.4916(4) 0.2131(3) 0.5401(3)
H9 H 0.4247 0.1708 0.4608
C7 C 0.6923(3) 0.3368(3) 0.7754(2)
H10 H 0.7599 0.3778 0.8550
C8 C 0.6046(3) 0.3307(2) 0.5494(2)
C9 C 0.7063(3) 0.3941(2) 0.6679(2)
C10 C 0.5780(4) 0.2187(3) 0.7651(3)
H11 H 0.5695 0.1807 0.8376
C11 C 0.9617(6) 1.1099(4) 1.3617(3)
H12 H 1.0042 1.1624 1.4399
C12 C 0.8086(5) 1.1361(3) 1.2765(3)
H13 H 0.7464 1.2066 1.2970
C13 C 0.9883(4) 0.9290(3) 1.2156(3)
H14 H 1.0514 0.8585 1.1964
C14 C 0.7444(4) 1.0588(3) 1.1595(3)
H15 H 0.6397 1.0783 1.1021
C15 C 0.8340(3) 0.9535(2) 1.1273(2)
C16 C 1.0521(5) 1.0065(4) 1.3321(3)
H16 H 1.1568 0.9879 1.3900
C17 C 0.7886(3) 0.6918(2) 0.8360(2)
C18 C 0.8734(3) 0.7714(3) 0.9643(2)
H17 H 0.9029 0.7056 1.0278
H18 H 0.9811 0.8229 0.9648
C19 C 0.7576(4) 0.8714(3) 0.9987(3)
H19 H 0.6492 0.8193 0.9959
H20 H 0.7292 0.9370 0.9349
loop_
_geom_bond_atom_site_label_1
_geom_bond_atom_site_label_2
_geom_bond_site_symmetry_1
_geom_bond_site_symmetry_2
O1 H1 1_555 1_555
C1 H2 1_555 1_555
H3 C1 1_555 1_555
C2 H4 1_555 1_555
H5 C2 1_555 1_555
H6 C2 1_555 1_555
O2 C17 1_555 1_555
C3 C1 1_555 1_555
H7 C3 1_555 1_555
C4 C1 1_555 1_555
N1 C4 1_555 1_555
N2 C3 1_555 1_555
C5 H8 1_555 1_555
C6 C5 1_555 1_555
H9 C6 1_555 1_555
C7 H10 1_555 1_555
C8 O1 1_555 1_555
C9 C3 1_555 1_555
C10 C5 1_555 1_555
H11 C10 1_555 1_555
C11 H12 1_555 1_555
C12 C11 1_555 1_555
H13 C12 1_555 1_555
C13 H14 1_555 1_555
C14 C12 1_555 1_555
H15 C14 1_555 1_555
C15 C13 1_555 1_555
C16 C11 1_555 1_555
H16 C16 1_555 1_555
C17 N2 1_555 1_555
C18 C17 1_555 1_555
H17 C18 1_555 1_555
H18 C18 1_555 1_555
C19 C15 1_555 1_555
H19 C19 1_555 1_555
H20 C19 1_555 1_555
C2 C4 1_555 1_555
N1 N2 1_555 1_555
C6 C8 1_555 1_555
C7 C9 1_555 1_555
C7 C10 1_555 1_555
C8 C9 1_555 1_555
C13 C16 1_555 1_555
C14 C15 1_555 1_555
C18 C19 1_555 1_555

#END
