
#######################################################################
#
#                 Cambridge Crystallographic Data Centre
#                                CCDC 
#
#######################################################################
#
# If this CIF has been generated from an entry in the Cambridge 
# Structural Database, then it will include bibliographic, chemical, 
# crystal, experimental, refinement or atomic coordinate data resulting 
# from the CCDC's data processing and validation procedures.
#
#######################################################################

data_TACLUG
_chemical_formula_moiety         'C21 H25 N1 O2'
_chemical_name_systematic        
(2R,3R)-3-(4-Methoxyphenyl)-2-methyl-N-((R)-1-phenylethyl)pent-4-enamide
_symmetry_cell_setting           orthorhombic
_symmetry_space_group_name_H-M   'P 21 21 21'
_symmetry_Int_Tables_number      19
_space_group_name_Hall           'P 2ac 2ab'
loop_
_symmetry_equiv_pos_site_id
_symmetry_equiv_pos_as_xyz
1 x,y,z
2 1/2-x,-y,1/2+z
3 -x,1/2+y,1/2-z
4 1/2+x,1/2-y,-z
_cell_length_a                   5.0151(18)
_cell_length_b                   16.013(6)
_cell_length_c                   22.861(8)
_cell_angle_alpha                90
_cell_angle_beta                 90
_cell_angle_gamma                90
_cell_volume                     1835.89
_exptl_crystal_colour            colorless
_exptl_crystal_description       needle
_cell_formula_units_Z            4
loop_
_atom_site_label
_atom_site_type_symbol
_atom_site_fract_x
_atom_site_fract_y
_atom_site_fract_z
N1 N 0.2011(9) 0.5768(3) 0.18268(19)
H1 H 0.341(16) 0.591(5) 0.173(3)
O1 O -0.2299(6) 0.5935(2) 0.15786(15)
O2 O 0.0541(10) 0.2033(2) 0.10821(18)
C1 C 0.2607(14) 0.3029(4) 0.2897(3)
H2 H 0.2876 0.2480 0.3030
C2 C 0.1900(10) 0.4710(3) 0.2594(2)
C3 C 0.440(2) 0.4307(6) 0.2505(5)
H3 H 0.5821 0.4608 0.2341
C4 C 0.475(2) 0.3473(6) 0.2657(4)
H4 H 0.6413 0.3211 0.2601
C5 C 0.017(2) 0.3373(7) 0.2939(5)
H5 H -0.1297 0.3053 0.3064
C6 C -0.015(2) 0.4202(6) 0.2798(5)
H6 H -0.1852 0.4439 0.2842
C7 C 0.1539(10) 0.5623(3) 0.2441(2)
H7 H -0.0347 0.5767 0.2520
C8 C 0.0114(10) 0.5897(3) 0.1430(2)
C9 C 0.0941(10) 0.6027(3) 0.0809(2)
H8 H 0.2854 0.5884 0.0772
C10 C -0.0677(11) 0.5437(3) 0.0412(2)
H9 H -0.2584 0.5564 0.0479
C11 C -0.1960(14) 0.4143(4) 0.0970(3)
H10 H -0.3382 0.4451 0.1129
C12 C -0.1620(16) 0.3322(4) 0.1133(3)
H11 H -0.2784 0.3081 0.1407
C13 C 0.0414(12) 0.2850(3) 0.0897(2)
C14 C 0.2020(13) 0.3205(4) 0.0505(3)
H12 H 0.3385 0.2887 0.0332
C15 C 0.1711(12) 0.4038(4) 0.0347(3)
H13 H 0.2891 0.4274 0.0073
C16 C -0.0264(10) 0.4522(3) 0.0579(2)
C17 C 0.3246(14) 0.6200(4) 0.2809(2)
H14 H 0.2923 0.6774 0.2694
H15 H 0.5113 0.6066 0.2749
H16 H 0.2796 0.6129 0.3218
C18 C 0.0581(14) 0.6937(3) 0.0643(2)
H17 H 0.1633 0.7284 0.0903
H18 H -0.1286 0.7087 0.0677
H19 H 0.1167 0.7021 0.0243
C19 C -0.0148(14) 0.5586(3) -0.0222(2)
H20 H 0.1581 0.5468 -0.0358
C20 C -0.1841(17) 0.5864(4) -0.0606(3)
H21 H -0.3595 0.5991 -0.0492
H22 H -0.1311 0.5937 -0.0997
C21 C 0.2474(15) 0.1512(4) 0.0824(3)
H23 H 0.2354 0.0957 0.0993
H24 H 0.4236 0.1739 0.0896
H25 H 0.2164 0.1479 0.0406
C22? C 0.2320(19) 0.4136(6) 0.2186(5)
C23? C 0.2630(19) 0.3300(6) 0.2337(4)
C24? C 0.204(3) 0.3634(5) 0.3325(4)
C25? C 0.177(2) 0.4475(6) 0.3176(4)
H26? H 0.2408 0.4295 0.1791
H27? H 0.2867 0.2907 0.2036
H28? H 0.1826 0.3469 0.3717
H29? H 0.1513 0.4878 0.3469
loop_
_geom_bond_atom_site_label_1
_geom_bond_atom_site_label_2
_geom_bond_site_symmetry_1
_geom_bond_site_symmetry_2
N1 H1 1_555 1_555
O1 C8 1_555 1_555
O2 C13 1_555 1_555
C1 H2 1_555 1_555
C2 C3 1_555 1_555
C3 H3 1_555 1_555
C4 C1 1_555 1_555
H4 C4 1_555 1_555
C5 C1 1_555 1_555
H5 C5 1_555 1_555
C6 C2 1_555 1_555
H6 C6 1_555 1_555
C7 N1 1_555 1_555
H7 C7 1_555 1_555
C8 N1 1_555 1_555
C9 C8 1_555 1_555
H8 C9 1_555 1_555
C10 C9 1_555 1_555
H9 C10 1_555 1_555
C11 H10 1_555 1_555
C12 C11 1_555 1_555
H11 C12 1_555 1_555
C13 C12 1_555 1_555
C14 C13 1_555 1_555
H12 C14 1_555 1_555
C15 C14 1_555 1_555
H13 C15 1_555 1_555
C16 C10 1_555 1_555
C17 C7 1_555 1_555
H14 C17 1_555 1_555
H15 C17 1_555 1_555
H16 C17 1_555 1_555
C18 C9 1_555 1_555
H17 C18 1_555 1_555
H18 C18 1_555 1_555
H19 C18 1_555 1_555
C19 C10 1_555 1_555
H20 C19 1_555 1_555
C20 C19 1_555 1_555
H21 C20 1_555 1_555
H22 C20 1_555 1_555
C21 O2 1_555 1_555
H23 C21 1_555 1_555
H24 C21 1_555 1_555
H25 C21 1_555 1_555
C2 C7 1_555 1_555
C3 C4 1_555 1_555
C5 C6 1_555 1_555
C11 C16 1_555 1_555
C15 C16 1_555 1_555

#END
