
#######################################################################
#
#                 Cambridge Crystallographic Data Centre
#                                CCDC 
#
#######################################################################
#
# If this CIF has been generated from an entry in the Cambridge 
# Structural Database, then it will include bibliographic, chemical, 
# crystal, experimental, refinement or atomic coordinate data resulting 
# from the CCDC's data processing and validation procedures.
#
#######################################################################

data_TACXUS
_chemical_formula_moiety         'C38 H45 N5 O4,C16 H36 N1 1+,F1 1-,2(C1 H4 O1)'
_chemical_name_systematic        
'Tetrabutylammonium fluoride 2,12-(pyrrole-2,5-diylbis(3-carboxylatopropyl))-2,7,7,12,17,17-hexamethylporphyrin methanol solvate'
_symmetry_cell_setting           orthorhombic
_symmetry_space_group_name_H-M   'F d d 2'
_symmetry_Int_Tables_number      43
_space_group_name_Hall           'F 2 -2d'
loop_
_symmetry_equiv_pos_site_id
_symmetry_equiv_pos_as_xyz
1 x,y,z
2 -x,-y,z
3 1/4-x,1/4+y,1/4+z
4 1/4+x,1/4-y,1/4+z
5 x,1/2+y,1/2+z
6 -x,1/2-y,1/2+z
7 1/4-x,3/4+y,3/4+z
8 1/4+x,3/4-y,3/4+z
9 1/2+x,y,1/2+z
10 1/2-x,-y,1/2+z
11 3/4-x,1/4+y,3/4+z
12 3/4+x,1/4-y,3/4+z
13 1/2+x,1/2+y,z
14 1/2-x,1/2-y,z
15 3/4-x,3/4+y,1/4+z
16 3/4+x,3/4-y,1/4+z
_cell_length_a                   40.2400(2)
_cell_length_b                   40.8940(6)
_cell_length_c                   13.2060(6)
_cell_angle_alpha                90
_cell_angle_beta                 90
_cell_angle_gamma                90
_cell_volume                     21731.5
_exptl_crystal_colour            colorless
_exptl_crystal_description       laths
_cell_formula_units_Z            16
loop_
_atom_site_label
_atom_site_type_symbol
_atom_site_fract_x
_atom_site_fract_y
_atom_site_fract_z
F1 F 0.85766(4) 0.45799(4) 0.34265(13)
O1 O 0.83390(6) 0.38621(6) 0.1663(2)
O2 O 0.84956(7) 0.33867(6) 0.0963(3)
O3 O 0.97673(7) 0.44995(6) 0.0862(3)
O4 O 0.92898(6) 0.47345(6) 0.13704(19)
N1 N 0.91878(7) 0.45484(6) 0.4467(2)
N2 N 0.86028(6) 0.40032(6) 0.4620(2)
N3 N 0.80383(6) 0.46085(6) 0.4751(2)
N4 N 0.86270(6) 0.51482(6) 0.4598(2)
N5 N 0.89504(7) 0.41421(7) 0.1101(2)
C1 C 0.93453(7) 0.48249(7) 0.4817(2)
C2 C 0.95973(7) 0.47200(7) 0.5432(2)
H1 H 0.9748 0.4856 0.5794
C3 C 0.95938(7) 0.43718(7) 0.5434(3)
H2 H 0.9744 0.4234 0.5788
C4 C 0.93362(7) 0.42711(7) 0.4835(2)
C5 C 0.92252(8) 0.39318(7) 0.4526(2)
C6 C 0.88832(7) 0.38474(7) 0.4949(2)
C7 C 0.87848(8) 0.36196(7) 0.5640(3)
H3 H 0.8925 0.3473 0.5996
C8 C 0.84333(8) 0.36416(7) 0.5730(3)
H4 H 0.8297 0.3513 0.6163
C9 C 0.83254(8) 0.38794(7) 0.5086(3)
C10 C 0.79777(7) 0.39921(8) 0.4804(3)
C11 C 0.79047(7) 0.43340(7) 0.5203(3)
C12 C 0.76973(8) 0.44455(8) 0.5948(3)
H5 H 0.7569 0.4313 0.6393
C13 C 0.77061(8) 0.47939(8) 0.5941(3)
H6 H 0.7586 0.4935 0.6381
C14 C 0.79186(7) 0.48895(7) 0.5188(3)
C15 C 0.80077(7) 0.52274(7) 0.4791(3)
C16 C 0.83647(8) 0.53188(7) 0.5020(3)
C17 C 0.85010(8) 0.55687(7) 0.5574(3)
H7 H 0.8381 0.5729 0.5944
C18 C 0.88501(8) 0.55476(7) 0.5503(3)
H8 H 0.9005 0.5690 0.5822
C19 C 0.89275(7) 0.52859(7) 0.4893(2)
C20 C 0.92540(7) 0.51658(7) 0.4460(3)
C21 C 0.94772(8) 0.36781(7) 0.4904(3)
H9 H 0.9479 0.3677 0.5646
H10 H 0.9699 0.3734 0.4651
H11 H 0.9414 0.3461 0.4657
C22 C 0.92169(8) 0.39151(8) 0.3358(3)
H12 H 0.9147 0.3696 0.3145
H13 H 0.9439 0.3961 0.3089
H14 H 0.9059 0.4077 0.3098
C23 C 0.77226(8) 0.37561(8) 0.5267(3)
H15 H 0.7765 0.3534 0.5022
H16 H 0.7498 0.3823 0.5068
H17 H 0.7741 0.3761 0.6007
C24 C 0.77746(9) 0.54805(8) 0.5270(3)
H18 H 0.7806 0.5482 0.6006
H19 H 0.7544 0.5424 0.5114
H20 H 0.7825 0.5698 0.4997
C25 C 0.79580(9) 0.52365(8) 0.3631(3)
H21 H 0.8014 0.5455 0.3376
H22 H 0.7726 0.5187 0.3471
H23 H 0.8103 0.5074 0.3312
C26 C 0.95296(8) 0.54016(7) 0.4783(3)
H24 H 0.9482 0.5620 0.4515
H25 H 0.9743 0.5325 0.4516
H26 H 0.9540 0.5411 0.5524
C27 C 0.79434(8) 0.39994(8) 0.3636(3)
H27 H 0.7718 0.4080 0.3467
H28 H 0.8105 0.4160 0.3366
C28 C 0.79975(9) 0.36745(8) 0.3086(3)
H29 H 0.8205 0.3573 0.3335
H30 H 0.7812 0.3525 0.3247
C29 C 0.80193(9) 0.37164(10) 0.1956(3)
H31 H 0.7994 0.3501 0.1623
H32 H 0.7836 0.3859 0.1722
C30 C 0.85528(9) 0.36624(9) 0.1172(3)
C31 C 0.88705(8) 0.38194(8) 0.0948(3)
C32 C 0.91528(9) 0.36560(9) 0.0634(3)
H33 H 0.9168 0.3431 0.0464
C33 C 0.94120(10) 0.38850(9) 0.0615(3)
H34 H 0.9636 0.3842 0.0433
C34 C 0.92836(8) 0.41842(8) 0.0906(3)
C35 C 0.94744(9) 0.44865(9) 0.1030(3)
C36 C 0.94632(9) 0.50429(9) 0.1554(3)
H35 H 0.9326 0.5227 0.1308
H36 H 0.9675 0.5045 0.1175
C37 C 0.95329(8) 0.50865(8) 0.2684(3)
H37 H 0.9630 0.4882 0.2956
H38 H 0.9698 0.5263 0.2776
C38 C 0.92195(8) 0.51701(7) 0.3280(3)
H39 H 0.9043 0.5013 0.3086
H40 H 0.9144 0.5391 0.3072
H85 H 0.8178(8) 0.4601(7) 0.424(3)
H86 H 0.8609(7) 0.4138(8) 0.418(3)
H87 H 0.8807(8) 0.4304(8) 0.127(3)
H88 H 0.9026(8) 0.4555(7) 0.411(3)
H89 H 0.8602(9) 0.4961(10) 0.413(3)
N6 N 0.87391(6) 0.46341(6) 0.7909(2)
C39 C 0.89854(8) 0.48273(8) 0.8537(3)
H41 H 0.9123 0.4671 0.8927
H42 H 0.8859 0.4961 0.9031
C40 C 0.92181(8) 0.50540(8) 0.7953(3)
H43 H 0.9329 0.4932 0.7401
H44 H 0.9090 0.5236 0.7648
C41 C 0.94769(8) 0.51889(8) 0.8682(3)
H45 H 0.9364 0.5318 0.9214
H46 H 0.9593 0.5005 0.9016
C42 C 0.97305(9) 0.54028(8) 0.8151(4)
H47 H 0.9851 0.5272 0.7649
H48 H 0.9887 0.5490 0.8650
H49 H 0.9617 0.5584 0.7811
C43 C 0.89113(8) 0.44113(7) 0.7148(3)
H50 H 0.9060 0.4548 0.6728
H51 H 0.8739 0.4321 0.6691
C44 C 0.91151(8) 0.41254(7) 0.7562(3)
H52 H 0.8978 0.4012 0.8076
H53 H 0.9151 0.3969 0.7000
C45 C 0.94501(8) 0.41954(8) 0.8037(3)
H54 H 0.9418 0.4281 0.8731
H55 H 0.9567 0.4365 0.7636
C46 C 0.96615(8) 0.38855(8) 0.8077(3)
H56 H 0.9544 0.3717 0.8462
H57 H 0.9874 0.3934 0.8408
H58 H 0.9703 0.3807 0.7387
C47 C 0.85388(8) 0.44310(8) 0.8653(3)
H59 H 0.8427 0.4581 0.9132
H60 H 0.8695 0.4294 0.9049
C48 C 0.82767(8) 0.42086(8) 0.8189(3)
H61 H 0.8092 0.4342 0.7915
H62 H 0.8375 0.4083 0.7622
C49 C 0.81428(10) 0.39735(10) 0.8982(3)
H63 H 0.8326 0.3831 0.9218
H64 H 0.8062 0.4101 0.9570
C50 C 0.78643(10) 0.37622(10) 0.8593(3)
H65 H 0.7677 0.3901 0.8391
H66 H 0.7793 0.3612 0.9127
H67 H 0.7942 0.3637 0.8006
C51 C 0.85167(8) 0.48620(8) 0.7289(3)
H68 H 0.8654 0.4959 0.6744
H69 H 0.8343 0.4727 0.6960
C52 C 0.83439(8) 0.51411(8) 0.7854(3)
H70 H 0.8511 0.5243 0.8307
H71 H 0.8282 0.5308 0.7346
C53 C 0.80383(8) 0.50702(8) 0.8483(3)
H72 H 0.8107 0.4976 0.9142
H73 H 0.7899 0.4906 0.8130
C54 C 0.78345(10) 0.53771(9) 0.8667(4)
H74 H 0.7965 0.5532 0.9068
H75 H 0.7631 0.5320 0.9035
H76 H 0.7776 0.5477 0.8016
O5 O 0.86888(7) 0.52049(6) 0.0482(2)
H77 H 0.8627 0.5039 0.0808
C55 C 0.85652(14) 0.54961(11) 0.0910(4)
H78 H 0.8522 0.5647 0.0370
H79 H 0.8723 0.5595 0.1361
H80 H 0.8360 0.5459 0.1264
O6 O 0.84815(6) 0.46584(6) 0.15591(18)
H81 H 0.8520 0.4622 0.2174
C56 C 0.81294(9) 0.46396(9) 0.1377(3)
H82 H 0.8011 0.4624 0.2007
H83 H 0.8084 0.4452 0.0965
H84 H 0.8058 0.4831 0.1014
loop_
_geom_bond_atom_site_label_1
_geom_bond_atom_site_label_2
_geom_bond_site_symmetry_1
_geom_bond_site_symmetry_2
O1 C29 1_555 1_555
O2 C30 1_555 1_555
O3 C35 1_555 1_555
O4 C35 1_555 1_555
N1 C1 1_555 1_555
N2 C6 1_555 1_555
N3 C11 1_555 1_555
N4 C16 1_555 1_555
N5 C31 1_555 1_555
C1 C2 1_555 1_555
C2 H1 1_555 1_555
C3 C2 1_555 1_555
H2 C3 1_555 1_555
C4 N1 1_555 1_555
C5 C4 1_555 1_555
C6 C5 1_555 1_555
C7 C6 1_555 1_555
H3 C7 1_555 1_555
C8 C7 1_555 1_555
H4 C8 1_555 1_555
C9 N2 1_555 1_555
C10 C9 1_555 1_555
C11 C10 1_555 1_555
C12 C11 1_555 1_555
H5 C12 1_555 1_555
C13 C12 1_555 1_555
H6 C13 1_555 1_555
C14 N3 1_555 1_555
C15 C14 1_555 1_555
C16 C15 1_555 1_555
C17 C16 1_555 1_555
H7 C17 1_555 1_555
C18 C17 1_555 1_555
H8 C18 1_555 1_555
C19 N4 1_555 1_555
C20 C1 1_555 1_555
C21 C5 1_555 1_555
H9 C21 1_555 1_555
H10 C21 1_555 1_555
H11 C21 1_555 1_555
C22 C5 1_555 1_555
H12 C22 1_555 1_555
H13 C22 1_555 1_555
H14 C22 1_555 1_555
C23 C10 1_555 1_555
H15 C23 1_555 1_555
H16 C23 1_555 1_555
H17 C23 1_555 1_555
C24 C15 1_555 1_555
H18 C24 1_555 1_555
H19 C24 1_555 1_555
H20 C24 1_555 1_555
C25 C15 1_555 1_555
H21 C25 1_555 1_555
H22 C25 1_555 1_555
H23 C25 1_555 1_555
C26 C20 1_555 1_555
H24 C26 1_555 1_555
H25 C26 1_555 1_555
H26 C26 1_555 1_555
C27 C10 1_555 1_555
H27 C27 1_555 1_555
H28 C27 1_555 1_555
C28 C27 1_555 1_555
H29 C28 1_555 1_555
H30 C28 1_555 1_555
C29 C28 1_555 1_555
H31 C29 1_555 1_555
H32 C29 1_555 1_555
C30 O1 1_555 1_555
C31 C30 1_555 1_555
C32 C31 1_555 1_555
H33 C32 1_555 1_555
C33 C32 1_555 1_555
H34 C33 1_555 1_555
C34 N5 1_555 1_555
C35 C34 1_555 1_555
C36 O4 1_555 1_555
H35 C36 1_555 1_555
H36 C36 1_555 1_555
C37 C36 1_555 1_555
H37 C37 1_555 1_555
H38 C37 1_555 1_555
C38 C20 1_555 1_555
H39 C38 1_555 1_555
H40 C38 1_555 1_555
N6 C39 1_555 1_555
C39 H41 1_555 1_555
H42 C39 1_555 1_555
C40 C39 1_555 1_555
H43 C40 1_555 1_555
H44 C40 1_555 1_555
C41 C40 1_555 1_555
H45 C41 1_555 1_555
H46 C41 1_555 1_555
C42 C41 1_555 1_555
H47 C42 1_555 1_555
H48 C42 1_555 1_555
H49 C42 1_555 1_555
C43 N6 1_555 1_555
H50 C43 1_555 1_555
H51 C43 1_555 1_555
C44 C43 1_555 1_555
H52 C44 1_555 1_555
H53 C44 1_555 1_555
C45 C44 1_555 1_555
H54 C45 1_555 1_555
H55 C45 1_555 1_555
C46 C45 1_555 1_555
H56 C46 1_555 1_555
H57 C46 1_555 1_555
H58 C46 1_555 1_555
C47 N6 1_555 1_555
H59 C47 1_555 1_555
H60 C47 1_555 1_555
C48 C47 1_555 1_555
H61 C48 1_555 1_555
H62 C48 1_555 1_555
C49 C48 1_555 1_555
H63 C49 1_555 1_555
H64 C49 1_555 1_555
C50 C49 1_555 1_555
H65 C50 1_555 1_555
H66 C50 1_555 1_555
H67 C50 1_555 1_555
C51 N6 1_555 1_555
H68 C51 1_555 1_555
H69 C51 1_555 1_555
C52 C51 1_555 1_555
H70 C52 1_555 1_555
H71 C52 1_555 1_555
C53 C52 1_555 1_555
H72 C53 1_555 1_555
H73 C53 1_555 1_555
C54 C53 1_555 1_555
H74 C54 1_555 1_555
H75 C54 1_555 1_555
H76 C54 1_555 1_555
O5 H77 1_555 1_555
C55 O5 1_555 1_555
H78 C55 1_555 1_555
H79 C55 1_555 1_555
H80 C55 1_555 1_555
O6 H81 1_555 1_555
C56 O6 1_555 1_555
H82 C56 1_555 1_555
H83 C56 1_555 1_555
H84 C56 1_555 1_555
H85 N3 1_555 1_555
H86 N2 1_555 1_555
H87 N5 1_555 1_555
H88 N1 1_555 1_555
H89 N4 1_555 1_555
C3 C4 1_555 1_555
C8 C9 1_555 1_555
C13 C14 1_555 1_555
C18 C19 1_555 1_555
C19 C20 1_555 1_555
C33 C34 1_555 1_555
C37 C38 1_555 1_555

#END
