
#######################################################################
#
#                 Cambridge Crystallographic Data Centre
#                                CCDC 
#
#######################################################################
#
# If this CIF has been generated from an entry in the Cambridge 
# Structural Database, then it will include bibliographic, chemical, 
# crystal, experimental, refinement or atomic coordinate data resulting 
# from the CCDC's data processing and validation procedures.
#
#######################################################################

data_TADLIU02
_chemical_name_common            Fenofibrate
_chemical_formula_moiety         'C20 H21 Cl1 O4'
_chemical_name_systematic        
'1-Methylethyl 2-(4-(4-chlorobenzoyl)phenoxy)-2-methylpropanoate'
_chemical_properties_biological  'Fenofibrate is a hypolipidemic agent'
_symmetry_cell_setting           monoclinic
_symmetry_space_group_name_H-M   'P 21/n'
_symmetry_Int_Tables_number      14
_space_group_name_Hall           '-P 2yn'
loop_
_symmetry_equiv_pos_site_id
_symmetry_equiv_pos_as_xyz
1 x,y,z
2 1/2-x,1/2+y,1/2-z
3 -x,-y,-z
4 1/2+x,1/2-y,1/2+z
_cell_length_a                   13.619(7)
_cell_length_b                   7.554(4)
_cell_length_c                   17.880(9)
_cell_angle_alpha                90
_cell_angle_beta                 92.351(7)
_cell_angle_gamma                90
_cell_volume                     1837.91
_exptl_crystal_colour            colorless
_exptl_crystal_description       rod
_cell_formula_units_Z            4
loop_
_atom_site_label
_atom_site_type_symbol
_atom_site_fract_x
_atom_site_fract_y
_atom_site_fract_z
C1 C 0.98363(7) -0.49735(14) 0.29835(5)
H1 H 0.9267(10) -0.479(2) 0.3277(8)
C2 C 0.99751(7) -0.66052(14) 0.26451(6)
H2 H 0.9516(11) -0.753(2) 0.2689(8)
C3 C 1.08085(7) -0.68592(13) 0.22400(5)
C4 C 1.15028(7) -0.55341(14) 0.21560(6)
H3 H 1.2062(11) -0.573(2) 0.1867(8)
C5 C 1.13655(7) -0.39270(13) 0.25114(6)
H4 H 1.1816(10) -0.301(2) 0.2466(8)
C6 C 1.05353(7) -0.36328(13) 0.29280(5)
C7 C 1.04666(7) -0.19348(13) 0.33509(5)
C8 C 0.94919(7) -0.11087(13) 0.34454(5)
C9 C 0.93885(7) 0.00765(13) 0.40331(5)
H5 H 0.9942(10) 0.0308(19) 0.4365(8)
C10 C 0.84993(7) 0.08979(14) 0.41575(6)
H6 H 0.8456(10) 0.167(2) 0.4564(8)
C11 C 0.76931(7) 0.05541(13) 0.36688(5)
C12 C 0.77985(7) -0.05777(14) 0.30618(6)
H7 H 0.7249(11) -0.0765(19) 0.2725(8)
C13 C 0.86832(7) -0.14117(14) 0.29537(5)
H8 H 0.8746(10) -0.217(2) 0.2548(8)
C14 C 0.65082(7) 0.23173(14) 0.43399(5)
C15 C 0.54539(8) 0.28665(17) 0.41324(7)
H9 H 0.5436(12) 0.353(2) 0.3669(9)
H10 H 0.5176(12) 0.362(2) 0.4534(9)
H11 H 0.5050(13) 0.179(3) 0.4063(10)
C16 C 0.65440(9) 0.12729(15) 0.50688(6)
H12 H 0.6167(13) 0.017(2) 0.5001(10)
H13 H 0.6231(11) 0.194(2) 0.5444(9)
H14 H 0.7205(12) 0.099(2) 0.5259(9)
C17 C 0.71380(7) 0.40029(14) 0.43499(5)
C18 C 0.77991(8) 0.63294(14) 0.51234(6)
H15 H 0.7610(10) 0.7108(19) 0.4709(8)
C19 C 0.88738(8) 0.58315(17) 0.51171(7)
H16 H 0.9033(12) 0.498(2) 0.5533(9)
H17 H 0.9268(13) 0.689(3) 0.5203(10)
H18 H 0.9043(12) 0.532(2) 0.4624(10)
C20 C 0.75230(9) 0.71124(16) 0.58614(6)
H19 H 0.6834(12) 0.738(2) 0.5851(8)
H20 H 0.7889(11) 0.819(2) 0.5977(9)
H21 H 0.7689(11) 0.627(2) 0.6267(9)
Cl1 Cl 1.10023(2) -0.89065(3) 0.182934(16)
O1 O 1.12160(6) -0.12687(11) 0.36317(5)
O2 O 0.67716(5) 0.12387(10) 0.37179(4)
O3 O 0.74930(6) 0.46191(11) 0.38030(4)
O4 O 0.72043(5) 0.47133(10) 0.50329(4)
loop_
_geom_bond_atom_site_label_1
_geom_bond_atom_site_label_2
_geom_bond_site_symmetry_1
_geom_bond_site_symmetry_2
C1 H1 1_555 1_555
C2 C1 1_555 1_555
H2 C2 1_555 1_555
C3 C2 1_555 1_555
C4 C3 1_555 1_555
H3 C4 1_555 1_555
C5 C4 1_555 1_555
H4 C5 1_555 1_555
C6 C1 1_555 1_555
C7 C6 1_555 1_555
C8 C7 1_555 1_555
C9 C8 1_555 1_555
H5 C9 1_555 1_555
C10 C9 1_555 1_555
H6 C10 1_555 1_555
C11 C10 1_555 1_555
C12 C11 1_555 1_555
H7 C12 1_555 1_555
C13 C8 1_555 1_555
H8 C13 1_555 1_555
C14 C15 1_555 1_555
C15 H9 1_555 1_555
H10 C15 1_555 1_555
H11 C15 1_555 1_555
C16 C14 1_555 1_555
H12 C16 1_555 1_555
H13 C16 1_555 1_555
H14 C16 1_555 1_555
C17 C14 1_555 1_555
C18 H15 1_555 1_555
C19 C18 1_555 1_555
H16 C19 1_555 1_555
H17 C19 1_555 1_555
H18 C19 1_555 1_555
C20 C18 1_555 1_555
H19 C20 1_555 1_555
H20 C20 1_555 1_555
H21 C20 1_555 1_555
Cl1 C3 1_555 1_555
O1 C7 1_555 1_555
O2 C11 1_555 1_555
O3 C17 1_555 1_555
O4 C17 1_555 1_555
C5 C6 1_555 1_555
C12 C13 1_555 1_555
C14 O2 1_555 1_555
C18 O4 1_555 1_555

#END
