
#######################################################################
#
#                 Cambridge Crystallographic Data Centre
#                                CCDC 
#
#######################################################################
#
# If this CIF has been generated from an entry in the Cambridge 
# Structural Database, then it will include bibliographic, chemical, 
# crystal, experimental, refinement or atomic coordinate data resulting 
# from the CCDC's data processing and validation procedures.
#
#######################################################################

data_TADPUL
_chemical_formula_moiety         'C19 H20 O4'
_chemical_name_systematic        
trans-4-Acetyl-5,6-dimethoxy-1,9-dimethyl-4,4a-dihydro-3H-fluoren-3-one
_symmetry_cell_setting           orthorhombic
_symmetry_space_group_name_H-M   'P c a 21'
_symmetry_Int_Tables_number      29
_space_group_name_Hall           'P 2c -2ac'
loop_
_symmetry_equiv_pos_site_id
_symmetry_equiv_pos_as_xyz
1 x,y,z
2 -x,-y,1/2+z
3 1/2+x,-y,z
4 1/2-x,y,1/2+z
_cell_length_a                   17.8305(2)
_cell_length_b                   5.36310(10)
_cell_length_c                   16.2017(2)
_cell_angle_alpha                90
_cell_angle_beta                 90
_cell_angle_gamma                90
_cell_volume                     1549.32
_exptl_crystal_colour            green
_exptl_crystal_description       prism
_cell_formula_units_Z            4
loop_
_atom_site_label
_atom_site_type_symbol
_atom_site_fract_x
_atom_site_fract_y
_atom_site_fract_z
O1 O -0.66580(6) -0.8447(2) -0.81732(7)
O2 O -0.71122(5) -0.54906(19) -0.69444(6)
O3 O -0.64577(7) -0.1458(3) -0.40042(7)
O4 O -0.75811(5) -0.16181(18) -0.56282(7)
C1 C -0.51316(7) 0.1113(3) -0.54285(9)
C2 C -0.55735(8) 0.0839(3) -0.47543(9)
H1 H -0.5514 0.1969 -0.4324
C3 C -0.61365(8) -0.1110(3) -0.46604(9)
C4 C -0.63119(7) -0.2799(3) -0.53993(8)
H2 H -0.6062 -0.4406 -0.5314
C5 C -0.60337(7) -0.1687(2) -0.62179(8)
H3 H -0.6391 -0.0412 -0.6401
C6 C -0.59127(7) -0.3512(2) -0.69101(8)
C7 C -0.63962(7) -0.5234(3) -0.72477(8)
C8 C -0.61406(8) -0.6797(3) -0.78849(9)
C9 C -0.54035(8) -0.6579(3) -0.81687(9)
H4 H -0.5234 -0.7630 -0.8585
C10 C -0.49210(8) -0.4811(3) -0.78356(9)
H5 H -0.4432 -0.4668 -0.8031
C11 C -0.51749(8) -0.3259(3) -0.72084(8)
C12 C -0.47905(8) -0.1331(3) -0.67287(9)
C13 C -0.52621(7) -0.0498(2) -0.61327(9)
C14 C -0.71653(8) -0.3226(3) -0.53828(9)
C15 C -0.74411(10) -0.5624(3) -0.50168(11)
H6 H -0.7979 -0.5672 -0.5043
H7 H -0.7283 -0.5733 -0.4452
H8 H -0.7238 -0.7003 -0.5322
C16 C -0.76534(9) -0.4145(4) -0.74231(12)
H9 H -0.8143 -0.4378 -0.7189
H10 H -0.7650 -0.4754 -0.7980
H11 H -0.7530 -0.2403 -0.7421
C17 C -0.64347(9) -1.0070(3) -0.88246(10)
H12 H -0.6846 -1.1135 -0.8971
H13 H -0.6019 -1.1070 -0.8646
H14 H -0.6288 -0.9100 -0.9296
C18 C -0.39900(8) -0.0659(3) -0.69043(11)
H15 H -0.3832 0.0630 -0.6532
H16 H -0.3947 -0.0073 -0.7462
H17 H -0.3679 -0.2102 -0.6831
C19 C -0.45200(8) 0.3039(3) -0.54280(10)
H18 H -0.4522 0.3913 -0.4911
H19 H -0.4603 0.4200 -0.5870
H20 H -0.4044 0.2236 -0.5503
loop_
_geom_bond_atom_site_label_1
_geom_bond_atom_site_label_2
_geom_bond_site_symmetry_1
_geom_bond_site_symmetry_2
O1 C8 1_555 1_555
O2 C7 1_555 1_555
O3 C3 1_555 1_555
O4 C14 1_555 1_555
C1 C2 1_555 1_555
C2 H1 1_555 1_555
C3 C2 1_555 1_555
C4 C3 1_555 1_555
H2 C4 1_555 1_555
C5 C4 1_555 1_555
H3 C5 1_555 1_555
C6 C5 1_555 1_555
C7 C6 1_555 1_555
C8 C7 1_555 1_555
C9 C8 1_555 1_555
H4 C9 1_555 1_555
C10 C9 1_555 1_555
H5 C10 1_555 1_555
C11 C6 1_555 1_555
C12 C11 1_555 1_555
C13 C1 1_555 1_555
C14 C4 1_555 1_555
C15 C14 1_555 1_555
H6 C15 1_555 1_555
H7 C15 1_555 1_555
H8 C15 1_555 1_555
C16 O2 1_555 1_555
H9 C16 1_555 1_555
H10 C16 1_555 1_555
H11 C16 1_555 1_555
C17 O1 1_555 1_555
H12 C17 1_555 1_555
H13 C17 1_555 1_555
H14 C17 1_555 1_555
C18 C12 1_555 1_555
H15 C18 1_555 1_555
H16 C18 1_555 1_555
H17 C18 1_555 1_555
C19 C1 1_555 1_555
H18 C19 1_555 1_555
H19 C19 1_555 1_555
H20 C19 1_555 1_555
C5 C13 1_555 1_555
C10 C11 1_555 1_555
C12 C13 1_555 1_555

#END
