
#######################################################################
#
#                 Cambridge Crystallographic Data Centre
#                                CCDC 
#
#######################################################################
#
# If this CIF has been generated from an entry in the Cambridge 
# Structural Database, then it will include bibliographic, chemical, 
# crystal, experimental, refinement or atomic coordinate data resulting 
# from the CCDC's data processing and validation procedures.
#
#######################################################################

data_TAFLAN
_chemical_formula_moiety         'C18 H36 K1 N2 O6 1+,Na1 1-'
_chemical_name_systematic        'Cryptand(2.2.2)-potassium natride'
_symmetry_cell_setting           orthorhombic
_symmetry_space_group_name_H-M   'F d d 2'
_symmetry_Int_Tables_number      43
_space_group_name_Hall           'F 2 -2d'
loop_
_symmetry_equiv_pos_site_id
_symmetry_equiv_pos_as_xyz
1 x,y,z
2 x,1/2+y,1/2+z
3 1/2+x,y,1/2+z
4 1/2+x,1/2+y,z
5 1/4-x,1/4+y,1/4+z
6 1/4-x,3/4+y,3/4+z
7 3/4-x,1/4+y,3/4+z
8 3/4-x,3/4+y,1/4+z
9 1/4+x,1/4-y,1/4+z
10 1/4+x,3/4-y,3/4+z
11 3/4+x,1/4-y,3/4+z
12 3/4+x,3/4-y,1/4+z
13 1/2-x,-y,1/2+z
14 1/2-x,1/2-y,z
15 -x,-y,z
16 -x,1/2-y,1/2+z
_cell_length_a                   15.769(7)
_cell_length_b                   25.245(7)
_cell_length_c                   13.818(13)
_cell_angle_alpha                90
_cell_angle_beta                 90
_cell_angle_gamma                90
_cell_volume                     5500.79
_exptl_crystal_colour            'dark grey'
_cell_formula_units_Z            8
loop_
_atom_site_label
_atom_site_type_symbol
_atom_site_fract_x
_atom_site_fract_y
_atom_site_fract_z
K1 K 0.00000 0.00000 0.0000
O1 O -0.0007(1) 0.09556(6) 0.0989(1)
O2 O -0.1552(1) 0.04284(6) 0.0677(1)
O3 O 0.06218(9) 0.04014(6) -0.1801(1)
N1 N 0.1544(1) 0.06749(7) -0.0041(2)
C1 C 0.1485(2) 0.10556(9) 0.0771(2)
C2 C 0.0643(2) 0.13368(9) 0.0834(2)
C3 C -0.0800(2) 0.1207(1) 0.1173(2)
C4 C -0.1438(2) 0.0792(1) 0.1457(2)
C5 C -0.2226(2) 0.0064(1) 0.0884(2)
C6 C 0.2300(1) 0.03334(9) 0.0088(2)
C7 C 0.1605(1) 0.09597(9) -0.0963(2)
C8 C 0.1457(1) 0.06197(9) -0.1840(2)
C9 C 0.0458(1) 0.00877(9) -0.2633(2)
H1 H 0.196(12) 0.133(1) 0.074(2)
H2 H 0.157(1) 0.0848(9) 0.134(2)
H3 H 0.066(2) 0.1558(9) 0.144(2)
H4 H 0.051(1) 0.1562(8) 0.023(2)
H5 H -0.101(1) 0.1427(8) 0.057(2)
H6 H -0.073(1) 0.1455(8) 0.168(2)
H7 H -0.126(1) 0.0602(9) 0.205(2)
H8 H -0.197(2) 0.095(1) 0.155(2)
H9 H -0.277(1) 0.0258(9) 0.095(2)
H10 H -0.211(1) -0.0102(8) 0.151(2)
H11 H 0.236(1) 0.0137(8) -0.053(2)
H12 H 0.283(1) 0.0561(9) 0.021(2)
H13 H 0.215(1) 0.1138(9) -0.107(2)
H14 H 0.117(1) 0.1218(8) -0.093(2)
H15 H 0.151(1) 0.0837(8) -0.241(2)
H16 H 0.189(1) 0.0341(9) -0.190(2)
H17 H 0.085(1) -0.0222(8) -0.263(2)
H18 H 0.053(1) 0.0303(8) -0.327(2)
O1N O 0.0007(1) -0.09556(6) 0.0989(1)
O2N O 0.1552(1) -0.04284(6) 0.0677(1)
O3N O -0.06218(9) -0.04014(6) -0.1801(1)
N1N N -0.1544(1) -0.06749(7) -0.0041(2)
C6N C -0.2300(1) -0.03334(9) 0.0088(2)
C5N C 0.2226(2) -0.0064(1) 0.0884(2)
C9N C -0.0458(1) -0.00877(9) -0.2633(2)
C2N C -0.0643(2) -0.13368(9) 0.0834(2)
C3N C 0.0800(2) -0.1207(1) 0.1173(2)
C4N C 0.1438(2) -0.0792(1) 0.1457(2)
C8N C -0.1457(1) -0.06197(9) -0.1840(2)
C1N C -0.1485(2) -0.10556(9) 0.0771(2)
C7N C -0.1605(1) -0.09597(9) -0.0963(2)
H11N H -0.236(1) -0.0137(8) -0.053(2)
H12N H -0.283(1) -0.0561(9) 0.021(2)
H9N H 0.277(1) -0.0258(9) 0.095(2)
H10N H 0.211(1) 0.0102(8) 0.151(2)
H17N H -0.085(1) 0.0222(8) -0.263(2)
H18N H -0.053(1) -0.0303(8) -0.327(2)
H3N H -0.066(2) -0.1558(9) 0.144(2)
H4N H -0.051(1) -0.1562(8) 0.023(2)
H5N H 0.101(1) -0.1427(8) 0.057(2)
H6N H 0.073(1) -0.1455(8) 0.168(2)
H7N H 0.126(1) -0.0602(9) 0.205(2)
H8N H 0.197(2) -0.095(1) 0.155(2)
H15N H -0.151(1) -0.0837(8) -0.241(2)
H16N H -0.189(1) -0.0341(9) -0.190(2)
H1N H -0.196(12) -0.133(1) 0.074(2)
H2N H -0.157(1) -0.0848(9) 0.134(2)
H13N H -0.215(1) -0.1138(9) -0.107(2)
H14N H -0.117(1) -0.1218(8) -0.093(2)
Na1 Na 0.00000 0.00000 0.4151(1)
loop_
_geom_bond_atom_site_label_1
_geom_bond_atom_site_label_2
_geom_bond_site_symmetry_1
_geom_bond_site_symmetry_2
K1 O1 1_555 1_555
O1 C2 1_555 1_555
O2 K1 1_555 1_555
O3 K1 1_555 1_555
N1 K1 1_555 1_555
C1 N1 1_555 1_555
C2 C1 1_555 1_555
C3 O1 1_555 1_555
C4 O2 1_555 1_555
C5 O2 1_555 1_555
C6 N1 1_555 1_555
C7 N1 1_555 1_555
C8 O3 1_555 1_555
C9 O3 1_555 1_555
H1 C1 1_555 1_555
H2 C1 1_555 1_555
H3 C2 1_555 1_555
H4 C2 1_555 1_555
H5 C3 1_555 1_555
H6 C3 1_555 1_555
H7 C4 1_555 1_555
H8 C4 1_555 1_555
H9 C5 1_555 1_555
H10 C5 1_555 1_555
H11 C6 1_555 1_555
H12 C6 1_555 1_555
H13 C7 1_555 1_555
H14 C7 1_555 1_555
H15 C8 1_555 1_555
H16 C8 1_555 1_555
H17 C9 1_555 1_555
H18 C9 1_555 1_555
O1N K1 1_555 1_555
O2N K1 1_555 1_555
O3N K1 1_555 1_555
N1N K1 1_555 1_555
C6N C5 1_555 1_555
C5N C6 1_555 1_555
C9N C9 1_555 1_555
C2N O1N 1_555 1_555
C3N O1N 1_555 1_555
C4N O2N 1_555 1_555
C8N O3N 1_555 1_555
C1N N1N 1_555 1_555
C7N N1N 1_555 1_555
H11N C6N 1_555 1_555
H12N C6N 1_555 1_555
H9N C5N 1_555 1_555
H10N C5N 1_555 1_555
H17N C9N 1_555 1_555
H18N C9N 1_555 1_555
H3N C2N 1_555 1_555
H4N C2N 1_555 1_555
H5N C3N 1_555 1_555
H6N C3N 1_555 1_555
H7N C4N 1_555 1_555
H8N C4N 1_555 1_555
H15N C8N 1_555 1_555
H16N C8N 1_555 1_555
H1N C1N 1_555 1_555
H2N C1N 1_555 1_555
H13N C7N 1_555 1_555
H14N C7N 1_555 1_555
C3 C4 1_555 1_555
C7 C8 1_555 1_555
O2N C5N 1_555 1_555
O3N C9N 1_555 1_555
N1N C6N 1_555 1_555
C2N C1N 1_555 1_555
C3N C4N 1_555 1_555
C8N C7N 1_555 1_555

#END
