
#######################################################################
#
#                 Cambridge Crystallographic Data Centre
#                                CCDC 
#
#######################################################################
#
# If this CIF has been generated from an entry in the Cambridge 
# Structural Database, then it will include bibliographic, chemical, 
# crystal, experimental, refinement or atomic coordinate data resulting 
# from the CCDC's data processing and validation procedures.
#
#######################################################################

data_TAFYAD
_chemical_formula_moiety         'C15 H11 N1 O4 S1'
_chemical_name_systematic        
(3,3-dioxido-1,8b-dihydroazireno[1,2-c][1,2,3]benzoxathiazin-1-yl)(phenyl)methanone
_symmetry_cell_setting           orthorhombic
_symmetry_space_group_name_H-M   'P 21 21 21'
_symmetry_Int_Tables_number      19
_space_group_name_Hall           'P 2ac 2ab'
loop_
_symmetry_equiv_pos_site_id
_symmetry_equiv_pos_as_xyz
1 x,y,z
2 1/2-x,-y,1/2+z
3 -x,1/2+y,1/2-z
4 1/2+x,1/2-y,-z
_cell_length_a                   6.9902(15)
_cell_length_b                   10.327(2)
_cell_length_c                   18.799(4)
_cell_angle_alpha                90
_cell_angle_beta                 90
_cell_angle_gamma                90
_cell_volume                     1357.06
_exptl_crystal_colour            colorless
_exptl_crystal_description       BLOCK
_cell_formula_units_Z            4
loop_
_atom_site_label
_atom_site_type_symbol
_atom_site_fract_x
_atom_site_fract_y
_atom_site_fract_z
S1 S 0.51369(8) 1.05734(5) 0.74691(3)
O1 O 0.7690(3) 1.01965(14) 0.54548(7)
O2 O 0.3304(2) 1.05835(18) 0.71528(9)
O3 O 0.5756(3) 1.16225(15) 0.78907(8)
O4 O 0.5155(2) 0.93002(13) 0.79375(7)
N1 N 0.6772(2) 1.03694(15) 0.68609(8)
C1 C 0.7397(3) 0.7957(2) 0.45970(10)
H1 H 0.7372 0.8746 0.4359
C2 C 0.7424(3) 0.6816(2) 0.42193(12)
H2 H 0.7385 0.6840 0.3725
C3 C 0.7509(4) 0.5645(2) 0.45605(13)
H3 H 0.7542 0.4880 0.4299
C4 C 0.7545(4) 0.5608(2) 0.52898(13)
H4 H 0.7611 0.4815 0.5523
C5 C 0.7483(3) 0.6735(2) 0.56804(12)
H5 H 0.7492 0.6698 0.6175
C6 C 0.7408(3) 0.79223(19) 0.53387(10)
C7 C 0.7361(3) 0.91637(19) 0.57294(10)
C8 C 0.6918(3) 0.90961(18) 0.65168(10)
H6 H 0.6021 0.8425 0.6673
C9 C 0.8415(3) 0.95221(19) 0.70394(10)
H7 H 0.9643 0.9779 0.6831
C10 C 0.8527(3) 0.89267(19) 0.77548(11)
C11 C 0.6949(3) 0.88692(19) 0.81956(10)
C12 C 0.7012(4) 0.8364(2) 0.88675(12)
H8 H 0.5933 0.8367 0.9157
C13 C 0.8715(4) 0.7852(2) 0.91028(13)
H9 H 0.8788 0.7505 0.9558
C14 C 1.0299(4) 0.7846(2) 0.86778(12)
H10 H 1.1428 0.7472 0.8840
C15 C 1.0228(3) 0.8395(2) 0.80082(12)
H11 H 1.1319 0.8409 0.7725
loop_
_geom_bond_atom_site_label_1
_geom_bond_atom_site_label_2
_geom_bond_site_symmetry_1
_geom_bond_site_symmetry_2
S1 O2 1_555 1_555
O1 C7 1_555 1_555
O3 S1 1_555 1_555
O4 S1 1_555 1_555
N1 S1 1_555 1_555
C1 H1 1_555 1_555
C2 C1 1_555 1_555
H2 C2 1_555 1_555
C3 C2 1_555 1_555
H3 C3 1_555 1_555
C4 C3 1_555 1_555
H4 C4 1_555 1_555
C5 C4 1_555 1_555
H5 C5 1_555 1_555
C6 C1 1_555 1_555
C7 C6 1_555 1_555
C8 N1 1_555 1_555
H6 C8 1_555 1_555
C9 N1 1_555 1_555
H7 C9 1_555 1_555
C10 C9 1_555 1_555
C11 O4 1_555 1_555
C12 C11 1_555 1_555
H8 C12 1_555 1_555
C13 C12 1_555 1_555
H9 C13 1_555 1_555
C14 C13 1_555 1_555
H10 C14 1_555 1_555
C15 C10 1_555 1_555
H11 C15 1_555 1_555
C5 C6 1_555 1_555
C7 C8 1_555 1_555
C8 C9 1_555 1_555
C10 C11 1_555 1_555
C14 C15 1_555 1_555

#END
