
#######################################################################
#
#                 Cambridge Crystallographic Data Centre
#                                CCDC 
#
#######################################################################
#
# If this CIF has been generated from an entry in the Cambridge 
# Structural Database, then it will include bibliographic, chemical, 
# crystal, experimental, refinement or atomic coordinate data resulting 
# from the CCDC's data processing and validation procedures.
#
#######################################################################

data_TAFZEI
_chemical_formula_moiety         'C19 H16 O4 S2'
_chemical_name_systematic        
(4-(methylsulfanyl)-5-(4-(methylsulfonyl)phenyl)-2-furyl)(phenyl)methanone
_symmetry_cell_setting           triclinic
_symmetry_space_group_name_H-M   'P -1'
_symmetry_Int_Tables_number      2
_space_group_name_Hall           '-P 1'
loop_
_symmetry_equiv_pos_site_id
_symmetry_equiv_pos_as_xyz
1 x,y,z
2 -x,-y,-z
_cell_length_a                   7.573(9)
_cell_length_b                   8.012(10)
_cell_length_c                   15.475(19)
_cell_angle_alpha                77.359(16)
_cell_angle_beta                 78.217(17)
_cell_angle_gamma                86.315(18)
_cell_volume                     896.69
_exptl_crystal_colour            colorless
_exptl_crystal_description       block
_cell_formula_units_Z            2
loop_
_atom_site_label
_atom_site_type_symbol
_atom_site_fract_x
_atom_site_fract_y
_atom_site_fract_z
S1 S 0.06167(19) 0.03319(14) 1.33033(7)
S2 S 0.85434(15) 0.19512(17) 0.96636(7)
O1 O 0.3996(3) 0.3999(3) 0.90338(15)
O2 O 0.2763(4) 0.6054(5) 0.76612(19)
C1 C 0.3971(5) 0.2454(5) 1.0537(2)
C2 C 0.5005(5) 0.3081(5) 0.9627(2)
C3 C 0.2153(5) 0.2819(5) 1.0731(2)
H1 H 0.1606 0.3501 1.0287
C4 C 0.5124(5) 0.4437(5) 0.8213(2)
C5 C 0.1960(6) 0.1188(5) 1.2238(2)
C6 C 0.6743(5) 0.2967(5) 0.9193(2)
C7 C 0.5355(5) 0.5789(5) 0.6553(2)
C8 C 0.1115(6) 0.2186(5) 1.1579(2)
H2 H -0.0117 0.2425 1.1703
C9 C 0.3762(7) 0.0847(6) 1.2065(3)
H3 H 0.4308 0.0192 1.2517
C10 C 0.4290(5) 0.5485(5) 0.7491(2)
C11 C 0.6803(5) 0.3837(5) 0.8286(2)
H4 H 0.7818 0.3972 0.7825
O3 O 0.1759(7) -0.0770(5) 1.3830(2)
C12 C 0.6498(6) 0.4564(5) 0.6213(2)
H5 H 0.6642 0.3502 0.6583
C13 C 0.5107(5) 0.7350(5) 0.5984(2)
H6 H 0.4316 0.8173 0.6196
C14 C 0.4798(6) 0.1474(6) 1.1214(3)
H7 H 0.6033 0.1241 1.1097
C15 C 0.6039(6) 0.7675(6) 0.5102(3)
H8 H 0.5897 0.8730 0.4724
C16 C 0.7185(6) 0.6441(6) 0.4776(3)
H9 H 0.7792 0.6658 0.4177
C17 C -0.0029(6) 0.2062(5) 1.3810(3)
H10 H -0.0803 0.2819 1.3475
H11 H 0.1023 0.2662 1.3817
H12 H -0.0663 0.1662 1.4418
C18 C 0.7422(6) 0.4907(6) 0.5332(3)
H13 H 0.8212 0.4087 0.5116
C19 C 1.0365(6) 0.2222(7) 0.8715(3)
H14 H 1.0057 0.1744 0.8250
H15 H 1.1427 0.1650 0.8894
H16 H 1.0594 0.3420 0.8490
O4 O -0.0971(6) -0.0340(6) 1.3161(2)
loop_
_geom_bond_atom_site_label_1
_geom_bond_atom_site_label_2
_geom_bond_site_symmetry_1
_geom_bond_site_symmetry_2
S1 C5 1_555 1_555
S2 C6 1_555 1_555
O1 C2 1_555 1_555
O2 C10 1_555 1_555
C1 C2 1_555 1_555
C2 C6 1_555 1_555
C3 C1 1_555 1_555
H1 C3 1_555 1_555
C4 O1 1_555 1_555
C5 C8 1_555 1_555
C6 C11 1_555 1_555
C7 C10 1_555 1_555
C8 C3 1_555 1_555
H2 C8 1_555 1_555
C9 C5 1_555 1_555
H3 C9 1_555 1_555
C10 C4 1_555 1_555
C11 C4 1_555 1_555
H4 C11 1_555 1_555
O3 S1 1_555 1_555
C12 C7 1_555 1_555
H5 C12 1_555 1_555
C13 C7 1_555 1_555
H6 C13 1_555 1_555
C14 C1 1_555 1_555
H7 C14 1_555 1_555
C15 C13 1_555 1_555
H8 C15 1_555 1_555
C16 C15 1_555 1_555
H9 C16 1_555 1_555
C17 S1 1_555 1_555
H10 C17 1_555 1_555
H11 C17 1_555 1_555
H12 C17 1_555 1_555
C18 C12 1_555 1_555
H13 C18 1_555 1_555
C19 S2 1_555 1_555
H14 C19 1_555 1_555
H15 C19 1_555 1_555
H16 C19 1_555 1_555
O4 S1 1_555 1_555
C9 C14 1_555 1_555
C16 C18 1_555 1_555

#END
