
#######################################################################
#
#                 Cambridge Crystallographic Data Centre
#                                CCDC 
#
#######################################################################
#
# If this CIF has been generated from an entry in the Cambridge 
# Structural Database, then it will include bibliographic, chemical, 
# crystal, experimental, refinement or atomic coordinate data resulting 
# from the CCDC's data processing and validation procedures.
#
#######################################################################

data_TAGWOQ
_chemical_formula_moiety         'C18 H23 N1 O2 S1'
_chemical_name_systematic        
2-((4-methylphenyl)sulfonyl)-1,2,3,4,4a,7,8,10a-octahydrocycloocta[c]pyridine
_symmetry_cell_setting           triclinic
_symmetry_space_group_name_H-M   'P -1'
_symmetry_Int_Tables_number      2
_space_group_name_Hall           '-P 1'
loop_
_symmetry_equiv_pos_site_id
_symmetry_equiv_pos_as_xyz
1 x,y,z
2 -x,-y,-z
_cell_length_a                   8.5152(5)
_cell_length_b                   9.8897(6)
_cell_length_c                   20.8763(8)
_cell_angle_alpha                78.889(3)
_cell_angle_beta                 87.047(3)
_cell_angle_gamma                76.058(2)
_cell_volume                     1674.25
_exptl_crystal_description       needle
_cell_formula_units_Z            4
loop_
_atom_site_label
_atom_site_type_symbol
_atom_site_fract_x
_atom_site_fract_y
_atom_site_fract_z
S1 S 0.4862(2) 0.3958(2) 0.32602(9)
C1 C 0.4644(8) 0.5812(8) 0.3195(3)
N1 N 0.3323(7) 0.3592(7) 0.3706(3)
C2 C 0.2130(9) 0.3026(8) 0.4802(4)
H1 H 0.2056 0.3274 0.5237
O1 O 0.4690(8) 0.3676(7) 0.2632(3)
O2 O 0.6306(7) 0.3253(7) 0.3629(3)
C3 C 0.2812(9) 0.1430(8) 0.4879(4)
H2 H 0.3532 0.1155 0.4552
C4 C 0.3290(9) 0.3800(8) 0.4394(3)
H3 H 0.2952 0.4805 0.4406
H4 H 0.4368 0.3446 0.4576
C5 C 0.0526(10) 0.3360(10) 0.3779(4)
H5 H 0.0853 0.2358 0.3760
H6 H -0.0533 0.3736 0.3581
C6 C 0.3407(10) 0.8179(10) 0.2679(4)
H7 H 0.2719 0.8798 0.2363
C7 C 0.3638(10) 0.6719(9) 0.2718(4)
H8 H 0.3122 0.6365 0.2428
C8 C 0.0423(9) 0.3540(9) 0.4495(4)
H9 H 0.0095 0.4563 0.4489
C9 C 0.1725(10) 0.4117(10) 0.3399(4)
H10 H 0.1799 0.3957 0.2953
H11 H 0.1358 0.5129 0.3387
C10 C -0.0906(10) 0.2921(11) 0.4844(5)
H12 H -0.1819 0.3039 0.4594
C11 C 0.5200(12) 0.7782(10) 0.3570(5)
H13 H 0.5722 0.8136 0.3858
C12 C 0.4171(12) 0.8722(10) 0.3096(4)
C13 C -0.0980(12) 0.2241(13) 0.5445(5)
H14 H -0.1959 0.1996 0.5559
C14 C 0.5454(11) 0.6313(10) 0.3617(4)
H15 H 0.6156 0.5689 0.3927
C15 C 0.2555(12) 0.0377(10) 0.5330(5)
H16 H 0.3110 -0.0522 0.5270
C16 C 0.0261(13) 0.1788(11) 0.5987(4)
H17 H 0.0834 0.2530 0.5974
H18 H -0.0296 0.1678 0.6405
C17 C 0.3904(17) 1.0294(12) 0.3046(6)
H19 H 0.4531 1.0485 0.3372
H20 H 0.2777 1.0697 0.3112
H21 H 0.4232 1.0705 0.2621
C18 C 0.1476(13) 0.0412(11) 0.5940(5)
H22 H 0.0887 -0.0324 0.5970
H23 H 0.2175 0.0164 0.6319
S2 S 0.9718(2) 0.7522(2) 0.16699(10)
C19 C 0.9505(8) 0.9320(7) 0.1742(3)
N2 N 0.8224(7) 0.7497(7) 0.1212(3)
O3 O 1.1182(7) 0.7130(7) 0.1306(3)
O4 O 0.9502(8) 0.6711(6) 0.2301(3)
C20 C 0.8341(10) 1.1221(9) 0.2299(4)
H24 H 0.7685 1.1565 0.2630
C21 C 0.7840(9) 0.6326(8) 0.0010(4)
H25 H 0.8522 0.5753 0.0340
C22 C 0.8553(10) 0.9804(8) 0.2251(4)
H26 H 0.8073 0.9198 0.2550
C23 C 0.8205(9) 0.8300(8) 0.0534(4)
H27 H 0.9295 0.8136 0.0356
H28 H 0.7824 0.9306 0.0534
C24 C 0.5469(10) 0.7231(10) 0.1115(4)
H29 H 0.4396 0.7402 0.1308
H30 H 0.5838 0.6221 0.1121
C25 C 0.7097(9) 0.7837(8) 0.0105(3)
H31 H 0.7025 0.8460 -0.0324
C26 C 0.6608(9) 0.7691(10) 0.1519(4)
H32 H 0.6191 0.8680 0.1549
H33 H 0.6681 0.7132 0.1957
C27 C 1.0244(10) 1.0178(10) 0.1317(4)
H34 H 1.0896 0.9827 0.0987
C28 C 0.9081(10) 1.2138(9) 0.1867(4)
C29 C 0.7634(11) 0.5733(10) -0.0484(5)
H35 H 0.8207 0.4793 -0.0443
C30 C 0.5378(9) 0.8028(8) 0.0405(4)
H36 H 0.4989 0.9039 0.0419
C31 C 0.8834(15) 1.3672(10) 0.1931(5)
H37 H 0.9434 1.4141 0.1595
H38 H 0.9205 1.3718 0.2351
H39 H 0.7704 1.4131 0.1888
C32 C 1.0032(11) 1.1590(9) 0.1373(4)
H40 H 1.0537 1.2179 0.1074
C33 C 0.4139(10) 0.7637(11) 0.0040(4)
H41 H 0.3241 0.7466 0.0285
C34 C 0.6659(12) 0.6275(12) -0.1099(5)
H42 H 0.6173 0.5530 -0.1178
H43 H 0.7393 0.6453 -0.1459
C35 C 0.5313(13) 0.7625(12) -0.1109(4)
H44 H 0.5798 0.8400 -0.1074
H45 H 0.4761 0.7862 -0.1525
C36 C 0.4121(11) 0.7495(11) -0.0583(5)
H46 H 0.3189 0.7276 -0.0704
loop_
_geom_bond_atom_site_label_1
_geom_bond_atom_site_label_2
_geom_bond_site_symmetry_1
_geom_bond_site_symmetry_2
S1 C1 1_555 1_555
C1 C7 1_555 1_555
N1 S1 1_555 1_555
C2 H1 1_555 1_555
O1 S1 1_555 1_555
O2 S1 1_555 1_555
C3 C2 1_555 1_555
H2 C3 1_555 1_555
C4 N1 1_555 1_555
H3 C4 1_555 1_555
H4 C4 1_555 1_555
C5 H5 1_555 1_555
H6 C5 1_555 1_555
C6 H7 1_555 1_555
C7 C6 1_555 1_555
H8 C7 1_555 1_555
C8 C2 1_555 1_555
H9 C8 1_555 1_555
C9 N1 1_555 1_555
H10 C9 1_555 1_555
H11 C9 1_555 1_555
C10 C8 1_555 1_555
H12 C10 1_555 1_555
C11 H13 1_555 1_555
C12 C6 1_555 1_555
C13 C10 1_555 1_555
H14 C13 1_555 1_555
C14 C1 1_555 1_555
H15 C14 1_555 1_555
C15 C3 1_555 1_555
H16 C15 1_555 1_555
C16 C13 1_555 1_555
H17 C16 1_555 1_555
H18 C16 1_555 1_555
C17 C12 1_555 1_555
H19 C17 1_555 1_555
H20 C17 1_555 1_555
H21 C17 1_555 1_555
C18 C15 1_555 1_555
H22 C18 1_555 1_555
H23 C18 1_555 1_555
S2 C19 1_555 1_555
C19 C22 1_555 1_555
N2 S2 1_555 1_555
O3 S2 1_555 1_555
O4 S2 1_555 1_555
C20 H24 1_555 1_555
C21 H25 1_555 1_555
C22 C20 1_555 1_555
H26 C22 1_555 1_555
C23 N2 1_555 1_555
H27 C23 1_555 1_555
H28 C23 1_555 1_555
C24 H29 1_555 1_555
H30 C24 1_555 1_555
C25 C21 1_555 1_555
H31 C25 1_555 1_555
C26 N2 1_555 1_555
H32 C26 1_555 1_555
H33 C26 1_555 1_555
C27 C19 1_555 1_555
H34 C27 1_555 1_555
C28 C20 1_555 1_555
C29 C21 1_555 1_555
H35 C29 1_555 1_555
C30 C24 1_555 1_555
H36 C30 1_555 1_555
C31 C28 1_555 1_555
H37 C31 1_555 1_555
H38 C31 1_555 1_555
H39 C31 1_555 1_555
C32 C27 1_555 1_555
H40 C32 1_555 1_555
C33 C30 1_555 1_555
H41 C33 1_555 1_555
C34 C29 1_555 1_555
H42 C34 1_555 1_555
H43 C34 1_555 1_555
C35 C34 1_555 1_555
H44 C35 1_555 1_555
H45 C35 1_555 1_555
C36 C33 1_555 1_555
H46 C36 1_555 1_555
C2 C4 1_555 1_555
C5 C8 1_555 1_555
C5 C9 1_555 1_555
C11 C12 1_555 1_555
C11 C14 1_555 1_555
C16 C18 1_555 1_555
C23 C25 1_555 1_555
C24 C26 1_555 1_555
C25 C30 1_555 1_555
C28 C32 1_555 1_555
C35 C36 1_555 1_555

#END
