
#######################################################################
#
#                 Cambridge Crystallographic Data Centre
#                                CCDC 
#
#######################################################################
#
# If this CIF has been generated from an entry in the Cambridge 
# Structural Database, then it will include bibliographic, chemical, 
# crystal, experimental, refinement or atomic coordinate data resulting 
# from the CCDC's data processing and validation procedures.
#
#######################################################################

data_TAHNEV
_chemical_formula_moiety         'C24 H34 O8'
_chemical_name_systematic        
'Tetramethyl 1,2-trans-1,10-trans-2,7-cis-1,7-dimethyltricyclo(8.4.0.0^2,7^)tetradec-8-ene-5,5,12,12-tetracarboxylate'
_symmetry_cell_setting           monoclinic
_symmetry_space_group_name_H-M   'P 21'
_symmetry_Int_Tables_number      4
_space_group_name_Hall           'P 2yb'
loop_
_symmetry_equiv_pos_site_id
_symmetry_equiv_pos_as_xyz
1 x,y,z
2 -x,1/2+y,-z
_cell_length_a                   7.8649(23)
_cell_length_b                   10.9621(17)
_cell_length_c                   13.3312(18)
_cell_angle_alpha                90
_cell_angle_beta                 93.279(15)
_cell_angle_gamma                90
_cell_volume                     1147.48
_cell_formula_units_Z            2
loop_
_atom_site_label
_atom_site_type_symbol
_atom_site_fract_x
_atom_site_fract_y
_atom_site_fract_z
C1 C 0.4331(8) 0.2222(6) 0.2460(4)
C2 C 0.5018(9) 0.2856(7) 0.1500(5)
C3 C 0.5017(9) 0.1999(6) 0.0573(4)
C4 C 0.5513(9) 0.2743(7) -0.0315(5)
C5 C 0.4643(9) 0.2757(7) -0.1192(5)
C6 C 0.3012(9) 0.2020(8) -0.1405(5)
C7 C 0.1898(9) 0.2546(7) -0.2223(4)
C8 C 0.0433(9) 0.1736(6) -0.2478(4)
C9 C -0.0485(9) 0.1312(7) -0.1546(5)
C10 C 0.0678(9) 0.0860(7) -0.0727(5)
C11 C 0.2116(8) 0.1781(7) -0.0404(4)
C12 C 0.3477(9) 0.1179(7) 0.0316(5)
C13 C 0.2746(9) 0.0644(7) 0.1334(5)
C14 C 0.2647(10) 0.1583(8) 0.2190(4)
C15 C 0.6598(10) 0.1115(7) 0.0788(5)
C16 C 0.1328(9) 0.2938(7) -0.0028(5)
C17 C 0.5684(9) 0.1477(7) 0.2985(5)
C18 C 0.8459(10) 0.1387(9) 0.3686(5)
C19 C 0.3982(8) 0.3324(7) 0.3182(5)
C20 C 0.2791(9) 0.3759(8) 0.4731(5)
C21 C 0.0890(9) 0.0668(7) -0.3132(5)
C22 C 0.2084(10) 0.0079(8) -0.4628(5)
C23 C -0.0889(9) 0.2445(6) -0.3096(5)
C24 C -0.3738(9) 0.2393(8) -0.3970(6)
O1 O 0.5437(6) 0.0283(5) 0.3253(3)
O2 O 0.7087(6) 0.2079(5) 0.3205(3)
O3 O 0.4237(7) 0.4363(5) 0.3016(4)
O4 O 0.3326(6) 0.28617 0.4015(3)
O5 O 0.0723(7) -0.0394(5) -0.2948(4)
O6 O 0.1576(6) 0.1066(5) -0.3966(3)
O7 O -0.0894(7) 0.3512(5) -0.3265(4)
O8 O -0.2230(7) 0.1819(5) -0.3458(4)
H1 H 0.622(7) 0.313(5) 0.171(4)
H2 H 0.407(10) 0.347(8) 0.109(6)
H3 H 0.694(11) 0.320(8) -0.029(6)
H4 H 0.496(18) 0.229(14) -0.187(10)
H5 H 0.313(10) 0.119(8) -0.189(6)
H6 H 0.188(13) 0.312(9) -0.178(7)
H7 H 0.256(9) 0.255(7) -0.280(5)
H8 H -0.115(13) 0.059(9) -0.165(7)
H9 H -0.113(10) 0.208(7) -0.120(5)
H10 H -0.0003(8) 0.092(6) -0.004(4)
H11 H 0.145(10) 0.011(8) -0.103(6)
H12 H 0.365(7) 0.048(5) -0.016(4)
H13 H 0.373(7) 0.019(6) 0.177(5)
H14 H 0.136(9) 0.077(6) 0.126(5)
H15 H 0.150(11) 0.209(8) 0.175(6)
H16 H 0.235(8) 0.098(7) 0.277(5)
H17 H 0.779(16) 0.152(10) 0.107(7)
H18 H 0.652(7) 0.051(6) 0.143(4)
H19 H 0.714(16) 0.075(11) 0.012(9)
H20 H 0.068(9) 0.263(7) 0.078(6)
H21 H 0.223(12) 0.320(10) 0.038(7)
H22 H 0.022(16) 0.271(12) -0.048(8)
H23 H 0.211(10) 0.327(7) 0.535(6)
H24 H 0.364(8) 0.401(6) 0.518(5)
H25 H 0.164(9) 0.389(7) 0.460(5)
H26 H 0.265(9) 0.045(8) -0.528(5)
H27 H 0.278(9) -0.065(6) -0.428(5)
H28 H 0.105(10) -0.074(8) -0.478(6)
H29 H -0.448(11) 0.155(8) -0.407(6)
H30 H -0.387(9) 0.296(7) -0.332(5)
H31 H -0.346(10) 0.205(7) -0.470(5)
H32 H 0.955 0.201 0.377
H33 H 0.812 0.102 0.434
H34 H 0.881 0.068 0.313
loop_
_geom_bond_atom_site_label_1
_geom_bond_atom_site_label_2
_geom_bond_site_symmetry_1
_geom_bond_site_symmetry_2
C1 C2 1_555 1_555
C2 C3 1_555 1_555
C3 C4 1_555 1_555
C4 C5 1_555 1_555
C5 C6 1_555 1_555
C6 C7 1_555 1_555
C7 C8 1_555 1_555
C8 C9 1_555 1_555
C9 C10 1_555 1_555
C10 C11 1_555 1_555
C11 C6 1_555 1_555
C12 C3 1_555 1_555
C13 C12 1_555 1_555
C14 C1 1_555 1_555
C15 C3 1_555 1_555
C16 C11 1_555 1_555
C17 C1 1_555 1_555
C18 O2 1_555 1_555
C19 C1 1_555 1_555
C20 O4 1_555 1_555
C21 C8 1_555 1_555
C22 O6 1_555 1_555
C23 C8 1_555 1_555
C24 O8 1_555 1_555
O1 C17 1_555 1_555
O2 C17 1_555 1_555
O3 C19 1_555 1_555
O4 C19 1_555 1_555
O5 C21 1_555 1_555
O6 C21 1_555 1_555
O7 C23 1_555 1_555
O8 C23 1_555 1_555
H1 C2 1_555 1_555
H2 C2 1_555 1_555
H3 C4 1_555 1_555
H4 C5 1_555 1_555
H5 C6 1_555 1_555
H6 C7 1_555 1_555
H7 C7 1_555 1_555
H8 C9 1_555 1_555
H9 C9 1_555 1_555
H10 C10 1_555 1_555
H11 C10 1_555 1_555
H12 C12 1_555 1_555
H13 C13 1_555 1_555
H14 C13 1_555 1_555
H15 C14 1_555 1_555
H16 C14 1_555 1_555
H17 C15 1_555 1_555
H18 C15 1_555 1_555
H19 C15 1_555 1_555
H20 C16 1_555 1_555
H21 C16 1_555 1_555
H22 C16 1_555 1_555
H23 C20 1_555 1_555
H24 C20 1_555 1_555
H25 C20 1_555 1_555
H26 C22 1_555 1_555
H27 C22 1_555 1_555
H28 C22 1_555 1_555
H29 C24 1_555 1_555
H30 C24 1_555 1_555
H31 C24 1_555 1_555
H32 C18 1_555 1_555
H33 C18 1_555 1_555
H34 C18 1_555 1_555
C11 C12 1_555 1_555
C13 C14 1_555 1_555

#END
