
#######################################################################
#
#                 Cambridge Crystallographic Data Centre
#                                CCDC 
#
#######################################################################
#
# If this CIF has been generated from an entry in the Cambridge 
# Structural Database, then it will include bibliographic, chemical, 
# crystal, experimental, refinement or atomic coordinate data resulting 
# from the CCDC's data processing and validation procedures.
#
#######################################################################

data_TAJJAR
_chemical_formula_moiety         'C28 H22 O7'
_chemical_name_systematic        
"Methyl 5-benzylidene-2,3-dimethoxy-6-oxo-6,11b-dihydroindeno[1',2':1,2]indeno[5,6-d][1,3]dioxole-5a(5H)-carboxylate"
_symmetry_cell_setting           monoclinic
_symmetry_space_group_name_H-M   'P 21/n'
_symmetry_Int_Tables_number      14
_space_group_name_Hall           '-P 2yn'
loop_
_symmetry_equiv_pos_site_id
_symmetry_equiv_pos_as_xyz
1 x,y,z
2 1/2-x,1/2+y,1/2-z
3 -x,-y,-z
4 1/2+x,1/2-y,1/2+z
_cell_length_a                   8.1618(6)
_cell_length_b                   16.0349(12)
_cell_length_c                   17.1320(13)
_cell_angle_alpha                90
_cell_angle_beta                 91.684(2)
_cell_angle_gamma                90
_cell_volume                     2241.16
_exptl_crystal_colour            colorless
_exptl_crystal_description       block
_cell_formula_units_Z            4
loop_
_atom_site_label
_atom_site_type_symbol
_atom_site_fract_x
_atom_site_fract_y
_atom_site_fract_z
O1 O 0.09598(18) 0.25280(9) 0.57699(7)
O2 O 0.07163(16) 0.35257(8) 0.48085(7)
O3 O 0.09985(15) 0.26257(7) 0.08000(7)
O4 O 0.21043(15) 0.11352(7) 0.05769(7)
O5 O -0.4918(2) 0.00969(17) 0.24183(11)
O6 O -0.53829(14) 0.05599(9) 0.35940(7)
O7 O -0.23956(16) -0.01040(8) 0.44642(7)
C1 C -0.14353(18) 0.18741(10) 0.37326(9)
C2 C -0.0757(2) 0.26677(11) 0.38387(10)
H1 H -0.0797 0.3071 0.3449
C3 C -0.0030(2) 0.28096(11) 0.45569(10)
C4 C 0.0091(2) 0.22054(12) 0.51380(10)
C5 C -0.0536(2) 0.14315(12) 0.50461(10)
H2 H -0.0445 0.1027 0.5434
C6 C -0.13353(19) 0.12806(11) 0.43219(9)
C7 C -0.21586(19) 0.05126(11) 0.40751(9)
C8 C -0.26501(19) 0.06098(11) 0.32047(9)
C9 C -0.23170(19) 0.15419(10) 0.30066(9)
H3 H -0.3336 0.1847 0.2891
C10 C -0.12404(18) 0.15051(10) 0.23064(9)
C11 C -0.07312(19) 0.06966(10) 0.21598(9)
C12 C -0.1477(2) 0.01062(11) 0.27018(9)
C13 C 0.0427(2) 0.05560(11) 0.15850(9)
H4 H 0.0814 0.0020 0.1497
C14 C 0.09897(19) 0.12141(10) 0.11518(9)
C15 C 0.04019(19) 0.20285(10) 0.12803(9)
C16 C -0.06960(19) 0.21698(10) 0.18635(9)
H5 H -0.1069 0.2707 0.1959
C17 C -0.0335(2) -0.12860(11) 0.23003(10)
C18 C -0.0721(2) -0.13430(12) 0.15085(10)
H6 H -0.1540 -0.1005 0.1292
C19 C 0.0094(3) -0.18958(12) 0.10356(11)
H7 H -0.0183 -0.1926 0.0506
C20 C 0.1289(2) -0.23912(13) 0.13384(12)
H8 H 0.1840 -0.2758 0.1018
C21 C 0.1689(3) -0.23513(14) 0.21237(13)
H9 H 0.2515 -0.2693 0.2331
C22 C 0.0885(2) -0.18132(12) 0.26057(11)
H10 H 0.1154 -0.1800 0.3137
C23 C 0.1198(3) 0.33818(14) 0.56031(12)
H11 H 0.2342 0.3529 0.5689
H12 H 0.0545 0.3722 0.5944
C24 C -0.4425(2) 0.03798(12) 0.30201(11)
C25 C 0.0215(3) 0.34140(12) 0.08005(13)
H13 H 0.0750 0.3781 0.0446
H14 H 0.0279 0.3645 0.1317
H15 H -0.0914 0.3350 0.0639
C26 C 0.2634(3) 0.03109(13) 0.04045(13)
H16 H 0.3413 0.0330 -0.0004
H17 H 0.1708 -0.0020 0.0238
H18 H 0.3139 0.0067 0.0864
C27 C -0.7118(2) 0.04049(15) 0.34849(14)
H19 H -0.7675 0.0564 0.3948
H20 H -0.7296 -0.0177 0.3384
H21 H -0.7537 0.0726 0.3050
C28 C -0.1247(2) -0.07112(11) 0.28009(10)
H22 H -0.1717 -0.0947 0.3237
loop_
_geom_bond_atom_site_label_1
_geom_bond_atom_site_label_2
_geom_bond_site_symmetry_1
_geom_bond_site_symmetry_2
O1 C4 1_555 1_555
O2 C3 1_555 1_555
O3 C15 1_555 1_555
O4 C14 1_555 1_555
O5 C24 1_555 1_555
O6 C24 1_555 1_555
O7 C7 1_555 1_555
C1 C2 1_555 1_555
C2 H1 1_555 1_555
C3 C2 1_555 1_555
C4 C3 1_555 1_555
C5 C4 1_555 1_555
H2 C5 1_555 1_555
C6 C1 1_555 1_555
C7 C6 1_555 1_555
C8 C7 1_555 1_555
C9 C1 1_555 1_555
H3 C9 1_555 1_555
C10 C9 1_555 1_555
C11 C10 1_555 1_555
C12 C8 1_555 1_555
C13 C11 1_555 1_555
H4 C13 1_555 1_555
C14 C13 1_555 1_555
C15 C14 1_555 1_555
C16 C10 1_555 1_555
H5 C16 1_555 1_555
C17 C18 1_555 1_555
C18 H6 1_555 1_555
C19 C18 1_555 1_555
H7 C19 1_555 1_555
C20 C19 1_555 1_555
H8 C20 1_555 1_555
C21 C20 1_555 1_555
H9 C21 1_555 1_555
C22 C17 1_555 1_555
H10 C22 1_555 1_555
C23 O1 1_555 1_555
H11 C23 1_555 1_555
H12 C23 1_555 1_555
C24 C8 1_555 1_555
C25 O3 1_555 1_555
H13 C25 1_555 1_555
H14 C25 1_555 1_555
H15 C25 1_555 1_555
C26 O4 1_555 1_555
H16 C26 1_555 1_555
H17 C26 1_555 1_555
H18 C26 1_555 1_555
C27 O6 1_555 1_555
H19 C27 1_555 1_555
H20 C27 1_555 1_555
H21 C27 1_555 1_555
C28 C12 1_555 1_555
H22 C28 1_555 1_555
O2 C23 1_555 1_555
C5 C6 1_555 1_555
C8 C9 1_555 1_555
C11 C12 1_555 1_555
C15 C16 1_555 1_555
C17 C28 1_555 1_555
C21 C22 1_555 1_555

#END
