
#######################################################################
#
#                 Cambridge Crystallographic Data Centre
#                                CCDC 
#
#######################################################################
#
# If this CIF has been generated from an entry in the Cambridge 
# Structural Database, then it will include bibliographic, chemical, 
# crystal, experimental, refinement or atomic coordinate data resulting 
# from the CCDC's data processing and validation procedures.
#
#######################################################################

data_TAKFUJ
_chemical_name_common            
5-methyl-7,9-dioxahexacyclo[8.6.2.2$11,14!.0$1,8!.0$5,17!.0$11,16!]icosane-6,12-dione
_chemical_formula_moiety         'C19 H24 O4'
_chemical_name_systematic        
(2S,4aR,5R,9R,12aR)-9-methyloctahydro-2H,5H,6aH,8H-9,12a,5-(epiethane[1,1,2]triyl)-2,4a-ethanooxocino[2,3-c]isochromene-8,15-dione
_symmetry_cell_setting           monoclinic
_symmetry_space_group_name_H-M   'C 2/c'
_symmetry_Int_Tables_number      15
_space_group_name_Hall           '-C 2yn'
loop_
_symmetry_equiv_pos_site_id
_symmetry_equiv_pos_as_xyz
1 x,y,z
2 -x,y,1/2-z
3 1/2+x,1/2+y,z
4 1/2-x,1/2+y,1/2-z
5 -x,-y,-z
6 x,-y,1/2+z
7 1/2-x,1/2-y,-z
8 1/2+x,1/2-y,1/2+z
_cell_length_a                   7.4285(2)
_cell_length_b                   11.0122(4)
_cell_length_c                   37.7617(13)
_cell_angle_alpha                90
_cell_angle_beta                 90.990(3)
_cell_angle_gamma                90
_cell_volume                     3088.6
_exptl_crystal_colour            colorless
_cell_formula_units_Z            8
loop_
_atom_site_label
_atom_site_type_symbol
_atom_site_fract_x
_atom_site_fract_y
_atom_site_fract_z
O1 O -0.0893(2) 0.05583(14) -0.05010(4)
O2 O 0.09084(16) 0.04507(10) -0.09536(3)
O3 O -0.03118(14) -0.05081(10) -0.14295(3)
O4 O -0.07207(19) -0.40295(13) -0.19065(4)
C1 C 0.4098(2) -0.12823(17) -0.09498(4)
H1 H 0.4693 -0.2060 -0.0919
H2 H 0.4860 -0.0781 -0.1096
C2 C 0.3938(2) -0.06776(19) -0.05865(5)
H3 H 0.5071 -0.0756 -0.0457
H4 H 0.3689 0.0181 -0.0618
C3 C 0.2439(3) -0.12572(18) -0.03735(4)
H5 H 0.2263 -0.0781 -0.0161
H6 H 0.2819 -0.2064 -0.0301
C4 C 0.0611(2) -0.13603(16) -0.05774(4)
C5 C 0.0931(2) -0.21342(15) -0.09108(4)
H7 H 0.1460 -0.2908 -0.0834
C6 C -0.0759(2) -0.24213(17) -0.11417(4)
H8 H -0.0847 -0.3291 -0.1179
H9 H -0.1830 -0.2157 -0.1020
C7 C -0.0645(2) -0.17775(15) -0.14974(4)
H10 H -0.1787 -0.1871 -0.1628
C8 C 0.08910(19) -0.22302(14) -0.17221(4)
C9 C 0.25589(18) -0.23368(14) -0.14706(4)
H11 H 0.2509 -0.3163 -0.1375
C10 C 0.4264(2) -0.23051(17) -0.16934(4)
H12 H 0.5210 -0.2782 -0.1581
H13 H 0.4687 -0.1477 -0.1718
C11 C 0.3769(2) -0.28418(17) -0.20602(4)
H14 H 0.4858 -0.3092 -0.2184
C12 C 0.2776(2) -0.18534(18) -0.22703(4)
H15 H 0.2272 -0.2188 -0.2488
H16 H 0.3600 -0.1205 -0.2331
C13 C 0.1266(2) -0.13604(15) -0.20374(4)
H17 H 0.0176 -0.1265 -0.2180
H18 H 0.1607 -0.0568 -0.1946
C14 C 0.2456(3) -0.39113(17) -0.20316(5)
H19 H 0.2257 -0.4272 -0.2263
H20 H 0.2964 -0.4527 -0.1876
C15 C 0.23024(19) -0.14883(14) -0.11469(4)
C16 C 0.1354(2) -0.03031(15) -0.12511(4)
H21 H 0.2141 0.0158 -0.1408
C17 C 0.0071(2) -0.00741(17) -0.06730(4)
C18 C -0.0773(3) -0.1939(2) -0.03333(5)
H22 H -0.0398 -0.2749 -0.0273
H23 H -0.1925 -0.1966 -0.0452
H24 H -0.0863 -0.1465 -0.0121
C19 C 0.0686(2) -0.34683(16) -0.18872(4)
loop_
_geom_bond_atom_site_label_1
_geom_bond_atom_site_label_2
_geom_bond_site_symmetry_1
_geom_bond_site_symmetry_2
O1 C17 1_555 1_555
O2 C16 1_555 1_555
O3 C7 1_555 1_555
O4 C19 1_555 1_555
C1 H1 1_555 1_555
H2 C1 1_555 1_555
C2 C1 1_555 1_555
H3 C2 1_555 1_555
H4 C2 1_555 1_555
C3 C2 1_555 1_555
H5 C3 1_555 1_555
H6 C3 1_555 1_555
C4 C3 1_555 1_555
C5 C4 1_555 1_555
H7 C5 1_555 1_555
C6 C5 1_555 1_555
H8 C6 1_555 1_555
H9 C6 1_555 1_555
C7 C6 1_555 1_555
H10 C7 1_555 1_555
C8 C7 1_555 1_555
C9 C8 1_555 1_555
H11 C9 1_555 1_555
C10 C9 1_555 1_555
H12 C10 1_555 1_555
H13 C10 1_555 1_555
C11 C10 1_555 1_555
H14 C11 1_555 1_555
C12 C11 1_555 1_555
H15 C12 1_555 1_555
H16 C12 1_555 1_555
C13 C8 1_555 1_555
H17 C13 1_555 1_555
H18 C13 1_555 1_555
C14 C11 1_555 1_555
H19 C14 1_555 1_555
H20 C14 1_555 1_555
C15 C1 1_555 1_555
C16 O3 1_555 1_555
H21 C16 1_555 1_555
C17 O2 1_555 1_555
C18 C4 1_555 1_555
H22 C18 1_555 1_555
H23 C18 1_555 1_555
H24 C18 1_555 1_555
C19 C8 1_555 1_555
C4 C17 1_555 1_555
C5 C15 1_555 1_555
C9 C15 1_555 1_555
C12 C13 1_555 1_555
C14 C19 1_555 1_555
C15 C16 1_555 1_555

#END
