
#######################################################################
#
#                 Cambridge Crystallographic Data Centre
#                                CCDC 
#
#######################################################################
#
# If this CIF has been generated from an entry in the Cambridge 
# Structural Database, then it will include bibliographic, chemical, 
# crystal, experimental, refinement or atomic coordinate data resulting 
# from the CCDC's data processing and validation procedures.
#
#######################################################################

data_TAKNAV
_chemical_formula_moiety         'C21 H21 N3 O1'
_chemical_name_systematic        
3,3-Dimethyl-1-(3-methyl-1-phenyl-5-oxo-pyrazol-4-ylidene)-1,2,3,4-tetrahydroisoquinoline
_symmetry_cell_setting           monoclinic
_symmetry_space_group_name_H-M   'P 21/c'
_symmetry_Int_Tables_number      14
_space_group_name_Hall           '-P 2ybc'
loop_
_symmetry_equiv_pos_site_id
_symmetry_equiv_pos_as_xyz
1 x,y,z
2 x,1/2-y,1/2+z
3 -x,-y,-z
4 -x,1/2+y,1/2-z
_cell_length_a                   9.617(2)
_cell_length_b                   9.810(2)
_cell_length_c                   18.668(4)
_cell_angle_alpha                90.00
_cell_angle_beta                 102.19(3)
_cell_angle_gamma                90.00
_cell_volume                     1721.48
_exptl_crystal_colour            'light yellow'
_exptl_crystal_description       prism
_cell_formula_units_Z            4
_exptl_crystal_recrystallization_method acetone
loop_
_atom_site_label
_atom_site_type_symbol
_atom_site_fract_x
_atom_site_fract_y
_atom_site_fract_z
O1 O 0.3498(2) 0.1935(2) 0.60356(11)
N1 N 0.5518(3) 0.0354(3) 0.67942(13)
H1 H 0.4656(32) 0.0712(29) 0.6685(15)
N2 N 0.5241(3) 0.2461(3) 0.45913(13)
N3 N 0.4121(3) 0.2634(3) 0.49503(13)
C1 C 0.6346(3) 0.0612(3) 0.6322(2)
C2 C 0.7792(3) 0.0034(3) 0.6515(2)
C3 C 0.8959(3) 0.0681(4) 0.6335(2)
H2 H 0.8837(3) 0.1545(4) 0.6088(2)
C4 C 1.0293(4) 0.0085(5) 0.6519(2)
H3 H 1.1100(4) 0.0522(5) 0.6391(2)
C5 C 1.0464(4) -0.1147(5) 0.6886(2)
H4 H 1.1383(4) -0.1575(5) 0.6995(2)
C6 C 0.9330(4) -0.1754(4) 0.7100(2)
H5 H 0.9463(4) -0.2598(4) 0.7366(2)
C7 C 0.7989(3) -0.1171(3) 0.6932(2)
C8 C 0.6747(3) -0.1727(3) 0.7204(2)
H6 H 0.7086(3) -0.2305(3) 0.7620(2)
H7 H 0.6158(3) -0.2262(3) 0.6828(2)
C9 C 0.5882(3) -0.0564(3) 0.7433(2)
C10 C 0.4469(3) -0.1074(4) 0.7575(2)
H8 H 0.3942(3) -0.0322(4) 0.7712(2)
H9 H 0.3929(3) -0.1494(4) 0.7140(2)
H10 H 0.4650(3) -0.1730(4) 0.7965(2)
C11 C 0.6704(3) 0.0204(4) 0.8103(2)
H11 H 0.6132(3) 0.0935(4) 0.8224(2)
H12 H 0.6941(3) -0.0410(4) 0.8511(2)
H13 H 0.7561(3) 0.0568(4) 0.7992(2)
C12 C 0.5762(3) 0.1392(3) 0.5697(2)
C13 C 0.6198(3) 0.1721(3) 0.5027(2)
C14 C 0.4359(3) 0.1973(3) 0.5615(2)
C15 C 0.7462(4) 0.1307(4) 0.4732(2)
H14 H 0.7416(4) 0.1725(4) 0.4263(2)
H15 H 0.8317(4) 0.1588(4) 0.5064(2)
H16 H 0.7463(4) 0.0333(4) 0.4679(2)
C16 C 0.2957(3) 0.3467(3) 0.4622(2)
C17 C 0.1592(3) 0.3187(4) 0.4710(2)
H17 H 0.1428(3) 0.2424(4) 0.5004(2)
C18 C 0.0484(4) 0.4019(4) 0.4373(2)
H18 H -0.0463(4) 0.3841(4) 0.4439(2)
C19 C 0.0727(4) 0.5109(4) 0.3947(2)
H19 H -0.0052(4) 0.5665(4) 0.3703(2)
C20 C 0.2083(4) 0.5379(4) 0.3865(2)
H20 H 0.2253(4) 0.6144(4) 0.3574(2)
C21 C 0.3207(4) 0.4570(3) 0.4202(2)
H21 H 0.4157(4) 0.4756(3) 0.4144(2)
loop_
_geom_bond_atom_site_label_1
_geom_bond_atom_site_label_2
_geom_bond_site_symmetry_1
_geom_bond_site_symmetry_2
O1 C14 1_555 1_555
N1 H1 1_555 1_555
N2 N3 1_555 1_555
N3 C14 1_555 1_555
C1 N1 1_555 1_555
C2 C1 1_555 1_555
C3 C2 1_555 1_555
H2 C3 1_555 1_555
C4 C3 1_555 1_555
H3 C4 1_555 1_555
C5 C4 1_555 1_555
H4 C5 1_555 1_555
C6 C5 1_555 1_555
H5 C6 1_555 1_555
C7 C2 1_555 1_555
C8 C7 1_555 1_555
H6 C8 1_555 1_555
H7 C8 1_555 1_555
C9 N1 1_555 1_555
C10 C9 1_555 1_555
H8 C10 1_555 1_555
H9 C10 1_555 1_555
H10 C10 1_555 1_555
C11 C9 1_555 1_555
H11 C11 1_555 1_555
H12 C11 1_555 1_555
H13 C11 1_555 1_555
C12 C1 1_555 1_555
C13 N2 1_555 1_555
C14 C12 1_555 1_555
C15 C13 1_555 1_555
H14 C15 1_555 1_555
H15 C15 1_555 1_555
H16 C15 1_555 1_555
C16 N3 1_555 1_555
C17 C16 1_555 1_555
H17 C17 1_555 1_555
C18 C17 1_555 1_555
H18 C18 1_555 1_555
C19 C18 1_555 1_555
H19 C19 1_555 1_555
C20 C19 1_555 1_555
H20 C20 1_555 1_555
C21 C16 1_555 1_555
H21 C21 1_555 1_555
C6 C7 1_555 1_555
C8 C9 1_555 1_555
C12 C13 1_555 1_555
C20 C21 1_555 1_555

#END
