
#######################################################################
#
#                 Cambridge Crystallographic Data Centre
#                                CCDC 
#
#######################################################################
#
# If this CIF has been generated from an entry in the Cambridge 
# Structural Database, then it will include bibliographic, chemical, 
# crystal, experimental, refinement or atomic coordinate data resulting 
# from the CCDC's data processing and validation procedures.
#
#######################################################################

data_TALPII
_chemical_formula_moiety         'C48 H30 N4,C1 H2 Cl2'
_chemical_name_systematic        
"2,2'-(1,4-phenylene)bis(3-(4-(9H-carbazol-9-yl)phenyl)acrylonitrile) dichloromethane solvate"
_symmetry_cell_setting           rhombohedral
_symmetry_space_group_name_H-M   'R -3'
_symmetry_Int_Tables_number      148
_space_group_name_Hall           '-R 3'
loop_
_symmetry_equiv_pos_site_id
_symmetry_equiv_pos_as_xyz
1 x,y,z
2 -y,x-y,z
3 -x+y,-x,z
4 2/3+x,1/3+y,1/3+z
5 2/3-y,1/3+x-y,1/3+z
6 2/3-x+y,1/3-x,1/3+z
7 1/3+x,2/3+y,2/3+z
8 1/3-y,2/3+x-y,2/3+z
9 1/3-x+y,2/3-x,2/3+z
10 -x,-y,-z
11 y,-x+y,-z
12 x-y,x,-z
13 1/3-x,2/3-y,2/3-z
14 1/3+y,2/3-x+y,2/3-z
15 1/3+x-y,2/3+x,2/3-z
16 2/3-x,1/3-y,1/3-z
17 2/3+y,1/3-x+y,1/3-z
18 2/3+x-y,1/3+x,1/3-z
_cell_length_a                   30.549
_cell_length_b                   30.549
_cell_length_c                   11.026
_cell_angle_alpha                90
_cell_angle_beta                 90
_cell_angle_gamma                120
_cell_volume                     8911.33
_exptl_crystal_colour            red
_exptl_crystal_description       prism
_cell_formula_units_Z            9
loop_
_atom_site_label
_atom_site_type_symbol
_atom_site_fract_x
_atom_site_fract_y
_atom_site_fract_z
C1 C 0.23306(11) -0.00146(9) 1.2444(2)
H1 H 0.2196 -0.0062 1.3221
C2 C 0.26335(12) -0.02047(10) 1.2140(3)
H2 H 0.2702 -0.0388 1.2708
C3 C 0.28428(11) -0.01270(10) 1.0984(3)
H3 H 0.3059 -0.0250 1.0803
C4 C 0.27403(10) 0.01260(10) 1.0105(2)
H4 H 0.2879 0.0172 0.9333
C5 C 0.24221(9) 0.03120(8) 1.0406(2)
C6 C 0.22231(10) 0.02518(9) 1.1581(2)
C7 C 0.19423(11) 0.05140(10) 1.1621(2)
C8 C 0.16705(16) 0.05882(14) 1.2525(3)
H5 H 0.1652 0.0460 1.3300
C9 C 0.14299(19) 0.08516(18) 1.2266(4)
H6 H 0.1247 0.0903 1.2867
C10 C 0.14575(17) 0.10434(15) 1.1109(4)
H7 H 0.1287 0.1218 1.0950
C11 C 0.17265(13) 0.09838(11) 1.0195(3)
H8 H 0.1740 0.1113 0.9423
C12 C 0.19792(10) 0.07226(9) 1.0465(2)
C13 C 0.23859(10) 0.07317(9) 0.8482(2)
C14 C 0.23423(11) 0.03733(9) 0.7644(2)
H9 H 0.2222 0.0041 0.7885
C15 C 0.24781(10) 0.05117(9) 0.6458(2)
H10 H 0.2451 0.0269 0.5909
C16 C 0.26549(9) 0.10033(9) 0.6050(2)
C17 C 0.26831(9) 0.13541(9) 0.6910(2)
H11 H 0.2793 0.1685 0.6670
C18 C 0.25522(9) 0.12197(9) 0.8100(2)
H12 H 0.2576 0.1460 0.8654
C19 C 0.28111(9) 0.11157(9) 0.4788(2)
H13 H 0.2823 0.0855 0.4380
C20 C 0.29411(9) 0.15271(8) 0.4107(2)
C21 C 0.29007(10) 0.19475(10) 0.4565(2)
C22 C 0.31411(8) 0.15979(8) 0.28580(19)
C23 C 0.33755(10) 0.13368(9) 0.2434(2)
H14 H 0.3408 0.1114 0.2949
C24 C 0.35585(10) 0.14015(9) 0.1277(2)
H15 H 0.3709 0.1218 0.1019
N1 N 0.22693(8) 0.05972(7) 0.97221(17)
N2 N 0.28779(10) 0.22940(10) 0.4878(2)
C1O C 0.43361(11) 0.33479(9) -0.9111(2)
H1O H 0.4471 0.3395 -0.9888
C2O C 0.40332(12) 0.35380(10) -0.8807(3)
H2O H 0.3965 0.3721 -0.9375
C3O C 0.38239(11) 0.34603(10) -0.7651(3)
H3O H 0.3608 0.3583 -0.7470
C4O C 0.39264(10) 0.32073(10) -0.6772(2)
H4O H 0.3788 0.3161 -0.6000
C5O C 0.42446(9) 0.30213(8) -0.7073(2)
C6O C 0.44436(10) 0.30815(9) -0.8248(2)
C7O C 0.47244(11) 0.28193(10) -0.8288(2)
C8O C 0.49962(16) 0.27451(14) -0.9192(3)
H5O H 0.5015 0.2873 -0.9967
C9O C 0.52368(19) 0.24817(18) -0.8933(4)
H6O H 0.5420 0.2430 -0.9534
C10O C 0.52092(17) 0.22899(15) -0.7776(4)
H7O H 0.5380 0.2115 -0.7617
C11O C 0.49402(13) 0.23495(11) -0.6862(3)
H8O H 0.4927 0.2220 -0.6090
C12O C 0.46875(10) 0.26107(9) -0.7132(2)
C13O C 0.42808(10) 0.26016(9) -0.5149(2)
C14O C 0.43244(11) 0.29600(9) -0.4311(2)
H9O H 0.4445 0.3292 -0.4552
C15O C 0.41886(10) 0.28216(9) -0.3125(2)
H10O H 0.4216 0.3064 -0.2576
C16O C 0.40118(9) 0.23300(9) -0.2717(2)
C17O C 0.39836(9) 0.19792(9) -0.3577(2)
H11O H 0.3874 0.1648 -0.3337
C18O C 0.41145(9) 0.21136(9) -0.4767(2)
H12O H 0.4091 0.1873 -0.5321
C19O C 0.38556(9) 0.22176(9) -0.1455(2)
H13O H 0.3844 0.2478 -0.1047
C20O C 0.37256(9) 0.18062(8) -0.0774(2)
C21O C 0.37660(10) 0.13858(10) -0.1232(2)
C22O C 0.35256(8) 0.17354(8) 0.04753(19)
C23O C 0.32912(10) 0.19965(9) 0.0899(2)
H14O H 0.3259 0.2219 0.0384
C24O C 0.31082(10) 0.19318(9) 0.2056(2)
H15O H 0.2958 0.2115 0.2314
N1O N 0.43974(8) 0.27361(7) -0.63888(17)
N2O N 0.37888(10) 0.10393(10) -0.1545(2)
loop_
_geom_bond_atom_site_label_1
_geom_bond_atom_site_label_2
_geom_bond_site_symmetry_1
_geom_bond_site_symmetry_2
C1 H1 1_555 1_555
C2 C1 1_555 1_555
H2 C2 1_555 1_555
C3 C2 1_555 1_555
H3 C3 1_555 1_555
C4 C3 1_555 1_555
H4 C4 1_555 1_555
C5 C4 1_555 1_555
C6 C1 1_555 1_555
C7 C6 1_555 1_555
C8 C7 1_555 1_555
H5 C8 1_555 1_555
C9 C8 1_555 1_555
H6 C9 1_555 1_555
C10 C9 1_555 1_555
H7 C10 1_555 1_555
C11 C10 1_555 1_555
H8 C11 1_555 1_555
C12 C7 1_555 1_555
C13 C14 1_555 1_555
C14 H9 1_555 1_555
C15 C14 1_555 1_555
H10 C15 1_555 1_555
C16 C15 1_555 1_555
C17 C16 1_555 1_555
H11 C17 1_555 1_555
C18 C13 1_555 1_555
H12 C18 1_555 1_555
C19 C16 1_555 1_555
H13 C19 1_555 1_555
C20 C19 1_555 1_555
C21 C20 1_555 1_555
C22 C20 1_555 1_555
C23 C22 1_555 1_555
H14 C23 1_555 1_555
C24 C23 1_555 1_555
H15 C24 1_555 1_555
N1 C5 1_555 1_555
N2 C21 1_555 1_555
C1O H1O 1_555 1_555
C2O C1O 1_555 1_555
H2O C2O 1_555 1_555
C3O C2O 1_555 1_555
H3O C3O 1_555 1_555
C4O C3O 1_555 1_555
H4O C4O 1_555 1_555
C5O C4O 1_555 1_555
C6O C1O 1_555 1_555
C7O C6O 1_555 1_555
C8O C7O 1_555 1_555
H5O C8O 1_555 1_555
C9O C8O 1_555 1_555
H6O C9O 1_555 1_555
C10O C9O 1_555 1_555
H7O C10O 1_555 1_555
C11O C10O 1_555 1_555
H8O C11O 1_555 1_555
C12O C7O 1_555 1_555
C13O C14O 1_555 1_555
C14O H9O 1_555 1_555
C15O C14O 1_555 1_555
H10O C15O 1_555 1_555
C16O C15O 1_555 1_555
C17O C16O 1_555 1_555
H11O C17O 1_555 1_555
C18O C13O 1_555 1_555
H12O C18O 1_555 1_555
C19O C16O 1_555 1_555
H13O C19O 1_555 1_555
C20O C19O 1_555 1_555
C21O C20O 1_555 1_555
C22O C24 1_555 1_555
C23O C22O 1_555 1_555
H14O C23O 1_555 1_555
C24O C22 1_555 1_555
H15O C24O 1_555 1_555
N1O C5O 1_555 1_555
N2O C21O 1_555 1_555
C5 C6 1_555 1_555
C11 C12 1_555 1_555
C12 N1 1_555 1_555
C13 N1 1_555 1_555
C17 C18 1_555 1_555
C5O C6O 1_555 1_555
C11O C12O 1_555 1_555
C12O N1O 1_555 1_555
C13O N1O 1_555 1_555
C17O C18O 1_555 1_555
C20O C22O 1_555 1_555
C23O C24O 1_555 1_555

#END
