
#######################################################################
#
#                 Cambridge Crystallographic Data Centre
#                                CCDC 
#
#######################################################################
#
# If this CIF has been generated from an entry in the Cambridge 
# Structural Database, then it will include bibliographic, chemical, 
# crystal, experimental, refinement or atomic coordinate data resulting 
# from the CCDC's data processing and validation procedures.
#
#######################################################################

data_TALXUC
_chemical_formula_moiety         'C47 H44 N6 O2'
_chemical_name_systematic        
2,4,6,8,9,11-hexabenzyl-2,4,6,8,9,11-hexaazatricyclo[3.3.3.0^1,5^]undecane-3,7-dione
_symmetry_cell_setting           triclinic
_symmetry_space_group_name_H-M   'P -1'
_symmetry_Int_Tables_number      2
_space_group_name_Hall           '-P 1'
loop_
_symmetry_equiv_pos_site_id
_symmetry_equiv_pos_as_xyz
1 x,y,z
2 -x,-y,-z
_cell_length_a                   10.453(4)
_cell_length_b                   10.551(4)
_cell_length_c                   19.723(7)
_cell_angle_alpha                90.489(7)
_cell_angle_beta                 100.289(6)
_cell_angle_gamma                111.952(6)
_cell_volume                     1978.32
_exptl_crystal_colour            white
_exptl_crystal_description       block
_cell_formula_units_Z            2
loop_
_atom_site_label
_atom_site_type_symbol
_atom_site_fract_x
_atom_site_fract_y
_atom_site_fract_z
N1 N 0.6669(2) 0.4580(2) 0.19996(10)
N2 N 0.8543(2) 0.2758(2) 0.21015(10)
N3 N 0.6102(2) 0.1172(2) 0.21202(10)
N4 N 0.8384(2) 0.4181(2) 0.29000(10)
N5 N 0.5894(2) 0.28321(19) 0.28296(10)
N6 N 0.6528(2) 0.2846(2) 0.12928(10)
O1 O 0.6153(2) 0.4698(2) 0.08208(9)
O2 O 1.04924(18) 0.3923(2) 0.29499(10)
C1 C 0.8830(5) 0.8104(4) 0.2794(2)
H1 H 0.8201 0.8195 0.3052
C2 C 1.0200(8) 0.9060(5) 0.2906(4)
H2 H 1.0491 0.9788 0.3242
C3 C 1.1135(7) 0.8937(9) 0.2522(7)
H3 H 1.2049 0.9587 0.2587
C4 C 1.0697(5) 0.7857(7) 0.2051(5)
H4 H 1.1338 0.7751 0.1806
C5 C 0.9349(4) 0.6910(4) 0.1920(3)
H5 H 0.9073 0.6199 0.1576
C6 C 0.8399(3) 0.7013(3) 0.22987(17)
C7 C 0.6891(3) 0.5999(3) 0.21710(14)
H6 H 0.6512 0.6038 0.2582
H7 H 0.6354 0.6291 0.1797
C8 C 0.6429(3) 0.4106(3) 0.13187(13)
C9 C 0.7077(2) 0.2521(2) 0.19660(12)
C10 C 0.6985(2) 0.3617(2) 0.24677(12)
C11 C 0.9266(3) 0.3655(3) 0.26817(13)
C12 C 0.9229(3) 0.2004(3) 0.17813(14)
H8 H 0.8516 0.1279 0.1459
H9 H 0.9650 0.1573 0.2138
C13 C 1.0349(3) 0.2849(3) 0.14009(13)
C14 C 1.0216(3) 0.3878(4) 0.10134(19)
H10 H 0.9439 0.4112 0.1002
C15 C 1.1245(4) 0.4582(5) 0.0633(2)
H11 H 1.1152 0.5281 0.0370
C16 C 1.2408(4) 0.4225(4) 0.06548(18)
H12 H 1.3085 0.4665 0.0396
C17 C 1.2540(3) 0.3239(4) 0.10527(19)
H13 H 1.3326 0.3014 0.1078
C18 C 1.1531(3) 0.2558(3) 0.14237(17)
H14 H 1.1650 0.1881 0.1697
C19 C 0.5068(2) 0.1560(3) 0.23830(13)
H15 H 0.4533 0.0848 0.2645
H16 H 0.4423 0.1716 0.2006
C20 C 0.6749(3) 0.0453(3) 0.26250(15)
H17 H 0.7110 0.0996 0.3066
H18 H 0.7531 0.0346 0.2466
C21 C 0.5689(3) -0.0936(3) 0.27160(16)
C22 C 0.4852(4) -0.1820(3) 0.2167(2)
H19 H 0.4918 -0.1590 0.1717
C23 C 0.3858(4) -0.3123(4) 0.2299(3)
H20 H 0.3253 -0.3745 0.1936
C24 C 0.3821(5) -0.3430(5) 0.2976(4)
H21 H 0.3166 -0.4259 0.3067
C25 C 0.4706(6) -0.2561(6) 0.3503(3)
H22 H 0.4701 -0.2810 0.3954
C26 C 0.5605(5) -0.1323(4) 0.3382(2)
H23 H 0.6185 -0.0712 0.3754
C27 C 0.8779(3) 0.5009(3) 0.35500(12)
H24 H 0.8313 0.5654 0.3504
H25 H 0.9784 0.5538 0.3633
C28 C 0.8436(3) 0.4230(3) 0.41786(13)
C29 C 0.8706(3) 0.3052(3) 0.42950(15)
H26 H 0.9069 0.2702 0.3975
C30 C 0.8429(4) 0.2394(4) 0.48940(18)
H27 H 0.8586 0.1589 0.4965
C31 C 0.7931(4) 0.2916(4) 0.53753(17)
H28 H 0.7759 0.2476 0.5775
C32 C 0.7689(4) 0.4078(4) 0.52677(17)
H29 H 0.7355 0.4438 0.5597
C33 C 0.7935(3) 0.4739(3) 0.46716(15)
H30 H 0.7758 0.5534 0.4604
C34 C 0.5047(3) 0.3508(3) 0.30715(13)
H31 H 0.4422 0.3638 0.2676
H32 H 0.5666 0.4406 0.3293
C35 C 0.4182(3) 0.2710(2) 0.35751(12)
C36 C 0.2925(3) 0.2838(3) 0.36102(16)
H33 H 0.2576 0.3335 0.3294
C37 C 0.2188(4) 0.2228(4) 0.4115(2)
H34 H 0.1361 0.2345 0.4146
C38 C 0.2662(4) 0.1453(4) 0.45705(18)
H35 H 0.2167 0.1052 0.4911
C39 C 0.3859(4) 0.1278(4) 0.45187(17)
H36 H 0.4165 0.0724 0.4815
C40 C 0.4636(3) 0.1915(3) 0.40305(14)
H37 H 0.5470 0.1803 0.4011
C41 C 0.6172(3) 0.1998(3) 0.06433(13)
H38 H 0.6455 0.1227 0.0728
H39 H 0.6703 0.2535 0.0317
C42 C 0.4614(3) 0.1458(3) 0.03201(13)
C43 C 0.4121(3) 0.2042(3) -0.02362(14)
H40 H 0.4747 0.2783 -0.0413
C44 C 0.2705(4) 0.1539(4) -0.05358(17)
H41 H 0.2387 0.1951 -0.0908
C45 C 0.1784(4) 0.0455(4) -0.02910(17)
H42 H 0.0836 0.0117 -0.0499
C46 C 0.2239(3) -0.0155(4) 0.02657(18)
H43 H 0.1602 -0.0895 0.0437
C47 C 0.3657(3) 0.0346(3) 0.05675(15)
H44 H 0.3969 -0.0069 0.0940
loop_
_geom_bond_atom_site_label_1
_geom_bond_atom_site_label_2
_geom_bond_site_symmetry_1
_geom_bond_site_symmetry_2
N1 C7 1_555 1_555
N2 C9 1_555 1_555
N3 C9 1_555 1_555
N4 C10 1_555 1_555
N5 C10 1_555 1_555
N6 C8 1_555 1_555
O1 C8 1_555 1_555
O2 C11 1_555 1_555
C1 H1 1_555 1_555
C2 C1 1_555 1_555
H2 C2 1_555 1_555
C3 C2 1_555 1_555
H3 C3 1_555 1_555
C4 C3 1_555 1_555
H4 C4 1_555 1_555
C5 C4 1_555 1_555
H5 C5 1_555 1_555
C6 C1 1_555 1_555
C7 C6 1_555 1_555
H6 C7 1_555 1_555
H7 C7 1_555 1_555
C8 N1 1_555 1_555
C9 N6 1_555 1_555
C10 N1 1_555 1_555
C11 N2 1_555 1_555
C12 N2 1_555 1_555
H8 C12 1_555 1_555
H9 C12 1_555 1_555
C13 C12 1_555 1_555
C14 C13 1_555 1_555
H10 C14 1_555 1_555
C15 C14 1_555 1_555
H11 C15 1_555 1_555
C16 C15 1_555 1_555
H12 C16 1_555 1_555
C17 C16 1_555 1_555
H13 C17 1_555 1_555
C18 C13 1_555 1_555
H14 C18 1_555 1_555
C19 N3 1_555 1_555
H15 C19 1_555 1_555
H16 C19 1_555 1_555
C20 N3 1_555 1_555
H17 C20 1_555 1_555
H18 C20 1_555 1_555
C21 C20 1_555 1_555
C22 C21 1_555 1_555
H19 C22 1_555 1_555
C23 C22 1_555 1_555
H20 C23 1_555 1_555
C24 C23 1_555 1_555
H21 C24 1_555 1_555
C25 C24 1_555 1_555
H22 C25 1_555 1_555
C26 C21 1_555 1_555
H23 C26 1_555 1_555
C27 N4 1_555 1_555
H24 C27 1_555 1_555
H25 C27 1_555 1_555
C28 C27 1_555 1_555
C29 C28 1_555 1_555
H26 C29 1_555 1_555
C30 C29 1_555 1_555
H27 C30 1_555 1_555
C31 C30 1_555 1_555
H28 C31 1_555 1_555
C32 C31 1_555 1_555
H29 C32 1_555 1_555
C33 C28 1_555 1_555
H30 C33 1_555 1_555
C34 N5 1_555 1_555
H31 C34 1_555 1_555
H32 C34 1_555 1_555
C35 C34 1_555 1_555
C36 C35 1_555 1_555
H33 C36 1_555 1_555
C37 C36 1_555 1_555
H34 C37 1_555 1_555
C38 C37 1_555 1_555
H35 C38 1_555 1_555
C39 C38 1_555 1_555
H36 C39 1_555 1_555
C40 C35 1_555 1_555
H37 C40 1_555 1_555
C41 N6 1_555 1_555
H38 C41 1_555 1_555
H39 C41 1_555 1_555
C42 C41 1_555 1_555
C43 C42 1_555 1_555
H40 C43 1_555 1_555
C44 C43 1_555 1_555
H41 C44 1_555 1_555
C45 C44 1_555 1_555
H42 C45 1_555 1_555
C46 C45 1_555 1_555
H43 C46 1_555 1_555
C47 C42 1_555 1_555
H44 C47 1_555 1_555
N4 C11 1_555 1_555
N5 C19 1_555 1_555
C5 C6 1_555 1_555
C9 C10 1_555 1_555
C17 C18 1_555 1_555
C25 C26 1_555 1_555
C32 C33 1_555 1_555
C39 C40 1_555 1_555
C46 C47 1_555 1_555

#END
