
#######################################################################
#
#                 Cambridge Crystallographic Data Centre
#                                CCDC 
#
#######################################################################
#
# If this CIF has been generated from an entry in the Cambridge 
# Structural Database, then it will include bibliographic, chemical, 
# crystal, experimental, refinement or atomic coordinate data resulting 
# from the CCDC's data processing and validation procedures.
#
#######################################################################

data_TAMWIO
_chemical_formula_moiety         'C12 H21 N1 O1'
_chemical_name_systematic        
trans-4-t-Butyl-1-(hydroxymethyl)cyclohexanecarbonitrile
_symmetry_cell_setting           monoclinic
_symmetry_space_group_name_H-M   'P 21/c'
_symmetry_Int_Tables_number      14
_space_group_name_Hall           '-P 2ybc'
loop_
_symmetry_equiv_pos_site_id
_symmetry_equiv_pos_as_xyz
1 x,y,z
2 -x,1/2+y,1/2-z
3 -x,-y,-z
4 x,1/2-y,1/2+z
_cell_length_a                   18.0517(11)
_cell_length_b                   6.2044(4)
_cell_length_c                   10.8293(7)
_cell_angle_alpha                90
_cell_angle_beta                 91.692(3)
_cell_angle_gamma                90
_cell_volume                     1212.35
_exptl_crystal_colour            colorless
_exptl_crystal_description       plate
_chemical_melting_point          '345-347 K'
_cell_formula_units_Z            4
_exptl_crystal_recrystallization_method 'hexanes/ethyl acetate'
loop_
_atom_site_label
_atom_site_type_symbol
_atom_site_fract_x
_atom_site_fract_y
_atom_site_fract_z
C1 C 0.36835(11) 0.5407(3) 0.26535(18)
C2 C 0.23921(12) 0.3835(3) 0.2341(2)
H1 H 0.2026 0.2940 0.2733
H2 H 0.2515 0.3156 0.1567
C3 C 0.26522(11) 0.7535(3) 0.1575(2)
H3 H 0.2784 0.7039 0.0761
H4 H 0.2450 0.8977 0.1486
C4 C 0.20552(12) 0.6051(3) 0.2072(2)
H5 H 0.1923 0.6648 0.2874
C5 C 0.30853(11) 0.3945(3) 0.3173(2)
H6 H 0.3285 0.2503 0.3281
H7 H 0.2952 0.4475 0.3979
C6 C 0.33494(11) 0.7635(3) 0.2395(2)
H8 H 0.3232 0.8311 0.3173
H9 H 0.3715 0.8526 0.1999
C7 C 0.43687(12) 0.5574(4) 0.3520(2)
H10 H 0.4694 0.6685 0.3215
H11 H 0.4214 0.6007 0.4333
C8 C 0.13281(13) 0.5960(4) 0.1287(2)
C9 C 0.39223(11) 0.4511(4) 0.1480(2)
C10 C 0.10416(16) 0.8239(5) 0.1007(3)
H12 H 0.1021 0.9046 0.1761
H13 H 0.0554 0.8154 0.0629
H14 H 0.1369 0.8944 0.0453
C11 C 0.07298(14) 0.4767(5) 0.1988(3)
H15 H 0.0883 0.3304 0.2130
H16 H 0.0274 0.4780 0.1507
H17 H 0.0656 0.5468 0.2765
C12 C 0.14415(16) 0.4803(5) 0.0044(2)
H18 H 0.1843 0.5469 -0.0376
H19 H 0.0996 0.4907 -0.0460
H20 H 0.1556 0.3313 0.0194
N1 N 0.40826(12) 0.3822(4) 0.0548(2)
O1 O 0.47658(8) 0.3626(3) 0.36234(14)
H21 H 0.4601 0.2904 0.4187
loop_
_geom_bond_atom_site_label_1
_geom_bond_atom_site_label_2
_geom_bond_site_symmetry_1
_geom_bond_site_symmetry_2
C1 C5 1_555 1_555
C2 H1 1_555 1_555
H2 C2 1_555 1_555
C3 H3 1_555 1_555
H4 C3 1_555 1_555
C4 C2 1_555 1_555
H5 C4 1_555 1_555
C5 C2 1_555 1_555
H6 C5 1_555 1_555
H7 C5 1_555 1_555
C6 C1 1_555 1_555
H8 C6 1_555 1_555
H9 C6 1_555 1_555
C7 C1 1_555 1_555
H10 C7 1_555 1_555
H11 C7 1_555 1_555
C8 C4 1_555 1_555
C9 C1 1_555 1_555
C10 C8 1_555 1_555
H12 C10 1_555 1_555
H13 C10 1_555 1_555
H14 C10 1_555 1_555
C11 C8 1_555 1_555
H15 C11 1_555 1_555
H16 C11 1_555 1_555
H17 C11 1_555 1_555
C12 C8 1_555 1_555
H18 C12 1_555 1_555
H19 C12 1_555 1_555
H20 C12 1_555 1_555
N1 C9 1_555 1_555
O1 C7 1_555 1_555
H21 O1 1_555 1_555
C3 C4 1_555 1_555
C3 C6 1_555 1_555

#END
