
#######################################################################
#
#                 Cambridge Crystallographic Data Centre
#                                CCDC 
#
#######################################################################
#
# If this CIF has been generated from an entry in the Cambridge 
# Structural Database, then it will include bibliographic, chemical, 
# crystal, experimental, refinement or atomic coordinate data resulting 
# from the CCDC's data processing and validation procedures.
#
#######################################################################

data_TANQOR
_chemical_formula_moiety         'C74 H16 O6,3(C1 H1 Cl3)'
_chemical_name_systematic        
'(4-methoxy-2-oxidophenyl)-(1,3-diethoxy-1,3-dioxopropan-2-ylidene)-C60fullerene chloroform solvate'
_symmetry_cell_setting           monoclinic
_symmetry_space_group_name_H-M   'P 21/n'
_symmetry_Int_Tables_number      14
_space_group_name_Hall           '-P 2yn'
loop_
_symmetry_equiv_pos_site_id
_symmetry_equiv_pos_as_xyz
1 x,y,z
2 1/2-x,1/2+y,1/2-z
3 -x,-y,-z
4 1/2+x,1/2-y,1/2+z
_cell_length_a                   21.0174(6)
_cell_length_b                   9.9144(2)
_cell_length_c                   26.3443(8)
_cell_angle_alpha                90
_cell_angle_beta                 104.108(3)
_cell_angle_gamma                90
_cell_volume                     5323.92
_exptl_crystal_colour            black
_exptl_crystal_description       block
_cell_formula_units_Z            4
loop_
_atom_site_label
_atom_site_type_symbol
_atom_site_fract_x
_atom_site_fract_y
_atom_site_fract_z
Cl1 Cl 0.73636(13) 0.2197(3) 0.65014(10)
Cl2 Cl 0.66234(13) 0.1052(4) 0.71739(11)
Cl3 Cl 0.71061(19) -0.0602(3) 0.64688(11)
C1 C 0.6803(4) 0.0963(9) 0.6570(3)
H1 H 0.6396 0.1111 0.6300
O1 O 0.52989(18) 0.4851(4) 0.58251(14)
O2 O 0.16772(17) 0.3456(4) 0.50075(13)
O3 O 0.0247(2) 0.7000(4) 0.53322(18)
C2 C 0.3251(2) 0.3374(4) 0.62041(18)
C3 C 0.4367(2) 0.2939(4) 0.62520(17)
C4 C 0.2812(2) 0.2643(5) 0.52857(18)
C5 C 0.4656(2) -0.1327(5) 0.71208(19)
C6 C 0.4949(2) -0.0341(5) 0.68749(19)
C7 C 0.2167(2) 0.1403(5) 0.67224(19)
C8 C 0.3897(2) 0.2511(5) 0.70310(17)
C9 C 0.2031(2) -0.1043(5) 0.6723(2)
C10 C 0.3292(2) 0.2129(5) 0.71594(17)
C11 C 0.2697(2) 0.2395(5) 0.68103(18)
C12 C 0.3317(2) 0.3159(4) 0.56654(17)
C13 C 0.3987(2) 0.2797(4) 0.57010(17)
C14 C 0.4942(2) 0.0708(5) 0.60754(19)
C15 C 0.1710(2) -0.0984(5) 0.6198(2)
C16 C 0.5019(2) -0.0560(5) 0.6346(2)
C17 C 0.2953(2) 0.1631(5) 0.49460(17)
C18 C 0.2663(2) 0.3060(4) 0.63246(18)
O4 O 0.5966(2) 0.4449(6) 0.69047(18)
C19 C 0.1601(2) 0.0298(5) 0.5927(2)
C20 C 0.4363(2) -0.0474(5) 0.52822(19)
C21 C 0.3865(2) 0.3153(4) 0.65592(17)
C22 C 0.1849(2) -0.1984(5) 0.5840(2)
C23 C 0.3596(2) 0.1230(5) 0.49800(17)
C24 C 0.1677(2) 0.0082(5) 0.5388(2)
C25 C 0.5096(2) 0.3239(5) 0.64136(18)
C26 C 0.2509(3) -0.2089(5) 0.6915(2)
C27 C 0.2031(2) 0.2715(5) 0.59232(19)
C28 C 0.4463(2) -0.1716(5) 0.5541(2)
C29 C 0.5429(2) 0.3589(5) 0.5977(2)
C30 C 0.4803(2) -0.1757(5) 0.6086(2)
C31 C 0.1825(2) -0.1332(5) 0.5343(2)
C32 C 0.4830(2) 0.1075(5) 0.69406(18)
C33 C 0.5378(2) 0.3999(5) 0.6912(2)
C34 C 0.1964(2) 0.1044(5) 0.51388(19)
C35 C 0.4384(2) 0.1451(5) 0.72218(18)
C36 C 0.4066(2) 0.0429(5) 0.74720(17)
C37 C 0.3679(3) -0.1918(5) 0.73422(19)
C38 C 0.4206(3) -0.0921(5) 0.74274(18)
C39 C 0.4120(2) 0.1810(5) 0.53659(17)
C40 C 0.4895(2) 0.1793(5) 0.64543(18)
C41 C 0.3938(3) -0.2703(5) 0.5449(2)
C42 C 0.4609(2) 0.0757(5) 0.55590(18)
C43 C 0.2429(2) 0.0635(5) 0.48553(18)
C44 C 0.3342(3) -0.2422(5) 0.5104(2)
C45 C 0.2116(2) 0.2474(5) 0.53462(19)
C46 C 0.1527(2) 0.3868(5) 0.58335(19)
C47 C 0.4421(3) -0.2565(5) 0.6847(2)
C48 C 0.4491(3) -0.2775(5) 0.6343(2)
C49 C 0.2635(3) -0.3054(5) 0.6571(2)
C50 C 0.2757(3) -0.3400(5) 0.5714(2)
C51 C 0.2300(3) -0.3004(5) 0.6021(2)
C52 C 0.3370(3) -0.3682(5) 0.6072(2)
C53 C 0.0669(2) 0.5922(5) 0.5460(2)
C54 C 0.2269(2) 0.0190(5) 0.69956(19)
C55 C 0.2570(3) -0.0716(5) 0.48006(18)
C56 C 0.3816(3) -0.2935(5) 0.6985(2)
C57 C 0.2260(3) -0.1724(5) 0.5048(2)
C58 C 0.3743(2) -0.0194(5) 0.49240(17)
C59 C 0.2890(3) -0.0100(5) 0.73525(18)
C60 C 0.2732(3) -0.2780(5) 0.5237(2)
C61 C 0.5676(3) 0.5377(6) 0.5470(3)
H2 H 0.5465 0.6185 0.5300
H3 H 0.5681 0.4714 0.5200
C62 C 0.1820(2) 0.1465(5) 0.61853(19)
C63 C 0.3303(3) -0.3473(5) 0.6606(2)
C64 C 0.1379(2) 0.4218(5) 0.5318(2)
C65 C 0.0948(3) 0.5275(5) 0.5109(2)
H4 H 0.0858 0.5517 0.4757
C66 C 0.3398(2) 0.0855(5) 0.74338(18)
C67 C 0.3246(3) -0.1136(5) 0.48383(18)
C68 C 0.3040(3) -0.1507(5) 0.7306(2)
C69 C 0.0798(3) 0.5546(6) 0.5992(2)
H5 H 0.0594 0.5993 0.6219
C70 C 0.3958(3) -0.3354(5) 0.5946(2)
C71 C 0.1234(2) 0.4498(5) 0.6173(2)
H6 H 0.1324 0.4233 0.6522
C72 C 0.0127(3) 0.7528(7) 0.4812(3)
H7 H -0.0073 0.6845 0.4567
H8 H 0.0534 0.7802 0.4741
H9 H -0.0162 0.8291 0.4780
C73 C 0.6364(4) 0.5702(9) 0.5755(3)
H10 H 0.6602 0.6024 0.5511
H11 H 0.6572 0.4904 0.5925
H12 H 0.6360 0.6385 0.6012
C74 C 0.6341(5) 0.5185(12) 0.7362(3)
H13 H 0.6186 0.4939 0.7667
H14 H 0.6801 0.4936 0.7428
C75 C 0.6275(8) 0.6605(13) 0.7280(5)
H15 H 0.6392 0.6838 0.6961
H16 H 0.6561 0.7068 0.7568
H17 H 0.5829 0.6866 0.7257
O5 O 0.57582(19) 0.2820(4) 0.58024(17)
O6 O 0.5131(2) 0.4128(5) 0.72708(17)
C76 C 0.9716(4) 0.0105(10) 0.6509(3)
H18 H 0.9490 -0.0217 0.6770
Cl4 Cl 1.02661(17) 0.1417(5) 0.66276(14)
Cl5 Cl 0.99223(16) -0.1003(3) 0.60581(13)
Cl6 Cl 0.89218(13) 0.0695(4) 0.62341(11)
C77 C 0.8683(5) 0.5928(13) 0.6226(4)
H19 H 0.8741 0.6305 0.5896
Cl10 Cl 0.9336(3) 0.5563(10) 0.6678(3)
Cl11 Cl 0.8145(4) 0.7051(7) 0.6390(3)
Cl12 Cl 0.8223(3) 0.4453(7) 0.6016(3)
Cl7? Cl 1.0383(13) -0.079(3) 0.6649(11)
Cl8? Cl 0.9232(10) -0.033(3) 0.5988(9)
Cl9? Cl 0.9703(14) 0.184(4) 0.6597(11)
Cl13? Cl 0.8971(6) 0.431(2) 0.6325(6)
Cl14? Cl 0.9163(7) 0.6873(14) 0.6808(5)
Cl15? Cl 0.7934(7) 0.6000(16) 0.6268(6)
loop_
_geom_bond_atom_site_label_1
_geom_bond_atom_site_label_2
_geom_bond_site_symmetry_1
_geom_bond_site_symmetry_2
Cl1 C1 1_555 1_555
Cl2 C1 1_555 1_555
Cl3 C1 1_555 1_555
C1 H1 1_555 1_555
O1 C29 1_555 1_555
O2 C45 1_555 1_555
O3 C53 1_555 1_555
C2 C12 1_555 1_555
C3 C13 1_555 1_555
C4 C12 1_555 1_555
C5 C6 1_555 1_555
C6 C16 1_555 1_555
C7 C11 1_555 1_555
C8 C10 1_555 1_555
C9 C15 1_555 1_555
C10 C11 1_555 1_555
C11 C18 1_555 1_555
C12 C13 1_555 1_555
C13 C39 1_555 1_555
C14 C16 1_555 1_555
C15 C19 1_555 1_555
C16 C30 1_555 1_555
C17 C4 1_555 1_555
C18 C2 1_555 1_555
O4 C33 1_555 1_555
C19 C24 1_555 1_555
C20 C28 1_555 1_555
C21 C2 1_555 1_555
C22 C15 1_555 1_555
C23 C17 1_555 1_555
C24 C31 1_555 1_555
C25 C3 1_555 1_555
C26 C9 1_555 1_555
C27 C18 1_555 1_555
C28 C30 1_555 1_555
C29 C25 1_555 1_555
C30 C48 1_555 1_555
C31 C22 1_555 1_555
C32 C6 1_555 1_555
C33 C25 1_555 1_555
C34 C24 1_555 1_555
C35 C8 1_555 1_555
C36 C35 1_555 1_555
C37 C38 1_555 1_555
C38 C5 1_555 1_555
C39 C23 1_555 1_555
C40 C3 1_555 1_555
C41 C28 1_555 1_555
C42 C14 1_555 1_555
C43 C17 1_555 1_555
C44 C41 1_555 1_555
C45 C4 1_555 1_555
C46 C27 1_555 1_555
C47 C5 1_555 1_555
C48 C47 1_555 1_555
C49 C26 1_555 1_555
C50 C51 1_555 1_555
C51 C22 1_555 1_555
C52 C50 1_555 1_555
C53 C65 1_555 1_555
C54 C7 1_555 1_555
C55 C43 1_555 1_555
C56 C37 1_555 1_555
C57 C31 1_555 1_555
C58 C20 1_555 1_555
C59 C54 1_555 1_555
C60 C44 1_555 1_555
C61 O1 1_555 1_555
H2 C61 1_555 1_555
H3 C61 1_555 1_555
C62 C7 1_555 1_555
C63 C49 1_555 1_555
C64 O2 1_555 1_555
C65 C64 1_555 1_555
H4 C65 1_555 1_555
C66 C10 1_555 1_555
C67 C44 1_555 1_555
C68 C26 1_555 1_555
C69 C53 1_555 1_555
H5 C69 1_555 1_555
C70 C41 1_555 1_555
C71 C46 1_555 1_555
H6 C71 1_555 1_555
C72 O3 1_555 1_555
H7 C72 1_555 1_555
H8 C72 1_555 1_555
H9 C72 1_555 1_555
C73 C61 1_555 1_555
H10 C73 1_555 1_555
H11 C73 1_555 1_555
H12 C73 1_555 1_555
C74 O4 1_555 1_555
H13 C74 1_555 1_555
H14 C74 1_555 1_555
C75 C74 1_555 1_555
H15 C75 1_555 1_555
H16 C75 1_555 1_555
H17 C75 1_555 1_555
O5 C29 1_555 1_555
O6 C33 1_555 1_555
C76 H18 1_555 1_555
Cl4 C76 1_555 1_555
Cl5 C76 1_555 1_555
Cl6 C76 1_555 1_555
C77 H19 1_555 1_555
Cl10 C77 1_555 1_555
Cl11 C77 1_555 1_555
Cl12 C77 1_555 1_555
C3 C21 1_555 1_555
C8 C21 1_555 1_555
C9 C54 1_555 1_555
C14 C40 1_555 1_555
C19 C62 1_555 1_555
C20 C42 1_555 1_555
C23 C58 1_555 1_555
C25 C40 1_555 1_555
C27 C45 1_555 1_555
C27 C62 1_555 1_555
C32 C35 1_555 1_555
C32 C40 1_555 1_555
C34 C43 1_555 1_555
C34 C45 1_555 1_555
C36 C38 1_555 1_555
C36 C66 1_555 1_555
C37 C68 1_555 1_555
C39 C42 1_555 1_555
C46 C64 1_555 1_555
C47 C56 1_555 1_555
C48 C70 1_555 1_555
C49 C51 1_555 1_555
C50 C60 1_555 1_555
C52 C63 1_555 1_555
C52 C70 1_555 1_555
C55 C57 1_555 1_555
C55 C67 1_555 1_555
C56 C63 1_555 1_555
C57 C60 1_555 1_555
C58 C67 1_555 1_555
C59 C66 1_555 1_555
C59 C68 1_555 1_555
C69 C71 1_555 1_555

#END
