
#######################################################################
#
#                 Cambridge Crystallographic Data Centre
#                                CCDC 
#
#######################################################################
#
# If this CIF has been generated from an entry in the Cambridge 
# Structural Database, then it will include bibliographic, chemical, 
# crystal, experimental, refinement or atomic coordinate data resulting 
# from the CCDC's data processing and validation procedures.
#
#######################################################################

data_TAPBAQ
_chemical_formula_moiety         'C18 H18 O2'
_chemical_name_systematic        
2-(2-methoxy-1-naphthyl)-3-methylcyclohex-2-en-1-one
_symmetry_cell_setting           orthorhombic
_symmetry_space_group_name_H-M   'P 21 21 21'
_symmetry_Int_Tables_number      19
_space_group_name_Hall           'P 2ac 2ab'
loop_
_symmetry_equiv_pos_site_id
_symmetry_equiv_pos_as_xyz
1 x,y,z
2 1/2-x,-y,1/2+z
3 -x,1/2+y,1/2-z
4 1/2+x,1/2-y,-z
_cell_length_a                   8.4515(8)
_cell_length_b                   10.3033(10)
_cell_length_c                   16.0590(16)
_cell_angle_alpha                90
_cell_angle_beta                 90
_cell_angle_gamma                90
_cell_volume                     1398.39
_exptl_crystal_colour            colorless
_exptl_crystal_description       Prism
_cell_formula_units_Z            4
loop_
_atom_site_label
_atom_site_type_symbol
_atom_site_fract_x
_atom_site_fract_y
_atom_site_fract_z
O1 O 0.24039(10) 0.83756(8) 0.10507(5)
O2 O 0.23879(9) 0.53875(7) 0.15331(5)
C1 C 0.65463(12) 0.63952(11) 0.27311(7)
H1 H 0.7079 0.6996 0.3112
H2 H 0.7300 0.5735 0.2542
H3 H 0.5665 0.5974 0.3021
C2 C 0.59255(12) 0.71328(9) 0.19928(6)
C3 C 0.71637(12) 0.75745(10) 0.13773(7)
H4 H 0.7521 0.6817 0.1048
H5 H 0.8089 0.7912 0.1687
C4 C 0.65733(13) 0.86231(11) 0.07842(7)
H6 H 0.6481 0.9458 0.1085
H7 H 0.7341 0.8738 0.0324
C5 C 0.49668(13) 0.82420(11) 0.04298(6)
H8 H 0.4583 0.8936 0.0054
H9 H 0.5076 0.7435 0.0100
C6 C 0.37807(12) 0.80310(9) 0.11186(6)
C7 C 0.43723(12) 0.73694(9) 0.18828(6)
C8 C 0.31480(11) 0.69618(9) 0.24956(6)
C9 C 0.29763(12) 0.75938(9) 0.32800(6)
C10 C 0.39576(12) 0.86511(9) 0.35238(6)
H10 H 0.4768 0.8944 0.3160
C11 C 0.37465(13) 0.92527(10) 0.42788(6)
H11 H 0.4405 0.9963 0.4427
C12 C 0.25637(13) 0.88280(10) 0.48369(6)
H12 H 0.2431 0.9251 0.5358
C13 C 0.16094(12) 0.78076(10) 0.46264(6)
H13 H 0.0825 0.7518 0.5007
C14 C 0.17776(11) 0.71742(9) 0.38439(6)
C15 C 0.07700(11) 0.61424(10) 0.36021(6)
H14 H -0.0028 0.5854 0.3975
C16 C 0.09221(11) 0.55530(10) 0.28431(7)
H15 H 0.0222 0.4873 0.2688
C17 C 0.21261(11) 0.59592(9) 0.22893(6)
C18 C 0.12385(14) 0.44816(10) 0.12421(7)
H16 H 0.1216 0.3727 0.1613
H17 H 0.1515 0.4202 0.0677
H18 H 0.0194 0.4894 0.1236
loop_
_geom_bond_atom_site_label_1
_geom_bond_atom_site_label_2
_geom_bond_site_symmetry_1
_geom_bond_site_symmetry_2
O1 C6 1_555 1_555
O2 C17 1_555 1_555
C1 H1 1_555 1_555
H2 C1 1_555 1_555
H3 C1 1_555 1_555
C2 C1 1_555 1_555
C3 C2 1_555 1_555
H4 C3 1_555 1_555
H5 C3 1_555 1_555
C4 C3 1_555 1_555
H6 C4 1_555 1_555
H7 C4 1_555 1_555
C5 C4 1_555 1_555
H8 C5 1_555 1_555
H9 C5 1_555 1_555
C6 C5 1_555 1_555
C7 C2 1_555 1_555
C8 C7 1_555 1_555
C9 C8 1_555 1_555
C10 C9 1_555 1_555
H10 C10 1_555 1_555
C11 C10 1_555 1_555
H11 C11 1_555 1_555
C12 C11 1_555 1_555
H12 C12 1_555 1_555
C13 C12 1_555 1_555
H13 C13 1_555 1_555
C14 C9 1_555 1_555
C15 C14 1_555 1_555
H14 C15 1_555 1_555
C16 C15 1_555 1_555
H15 C16 1_555 1_555
C17 C8 1_555 1_555
C18 O2 1_555 1_555
H16 C18 1_555 1_555
H17 C18 1_555 1_555
H18 C18 1_555 1_555
C6 C7 1_555 1_555
C13 C14 1_555 1_555
C16 C17 1_555 1_555

#END
