
#######################################################################
#
#                 Cambridge Crystallographic Data Centre
#                                CCDC 
#
#######################################################################
#
# If this CIF has been generated from an entry in the Cambridge 
# Structural Database, then it will include bibliographic, chemical, 
# crystal, experimental, refinement or atomic coordinate data resulting 
# from the CCDC's data processing and validation procedures.
#
#######################################################################

data_TAPGID
_chemical_formula_moiety         'C25 H29 Cl1 N1 O5 S1'
_chemical_name_systematic        
'1-oxy-2,2,6,6-tetramethylpiperidin-4-yl 4-(2-((4-chlorobenzyl)sulfonyl)vinyl)benzoate radical'
_chemical_properties_biological  
'tested for radioprotective activity under gamma-ray radiation'
_symmetry_cell_setting           monoclinic
_symmetry_space_group_name_H-M   'P 21/c'
_symmetry_Int_Tables_number      14
_space_group_name_Hall           '-P 2ybc'
loop_
_symmetry_equiv_pos_site_id
_symmetry_equiv_pos_as_xyz
1 x,y,z
2 -x,1/2+y,1/2-z
3 -x,-y,-z
4 x,1/2-y,1/2+z
_cell_length_a                   23.6905(18)
_cell_length_b                   12.9222(10)
_cell_length_c                   8.2629(6)
_cell_angle_alpha                90
_cell_angle_beta                 92.980(2)
_cell_angle_gamma                90
_cell_volume                     2526.13
_exptl_crystal_colour            white
_exptl_crystal_description       block
_cell_formula_units_Z            4
loop_
_atom_site_label
_atom_site_type_symbol
_atom_site_fract_x
_atom_site_fract_y
_atom_site_fract_z
S1 S 0.47722(2) 0.91310(4) 0.25300(7)
Cl1 Cl 0.24577(4) 0.58315(9) 0.20476(15)
O1 O 0.49280(7) 0.83406(12) 0.3690(2)
N1 N 0.06818(10) 1.49205(19) 0.7445(3)
C1 C 0.30364(12) 0.6612(2) 0.1702(4)
O2 O 0.52094(7) 0.98039(13) 0.2011(2)
C2 C 0.35703(12) 0.6220(2) 0.1908(3)
H1 H 0.3625 0.5539 0.2245
O3 O 0.27683(8) 1.46256(13) 0.5993(3)
C3 C 0.40271(10) 0.68374(17) 0.1613(3)
H2 H 0.4390 0.6566 0.1739
O4 O 0.21409(7) 1.33411(12) 0.6171(2)
C4 C 0.39531(10) 0.78536(17) 0.1134(3)
C5 C 0.34108(12) 0.8242(2) 0.0950(4)
H3 H 0.3356 0.8926 0.0633
O5 O 0.02418(9) 1.5417(2) 0.7862(3)
C6 C 0.29505(12) 0.7630(3) 0.1231(4)
H4 H 0.2586 0.7897 0.1104
C7 C 0.44507(10) 0.85233(18) 0.0785(3)
H5 H 0.4328 0.9054 0.0014
H6 H 0.4731 0.8102 0.0281
C8 C 0.42255(11) 0.98658(18) 0.3310(3)
H7 H 0.3937 0.9527 0.3818
C9 C 0.42118(10) 1.08713(19) 0.3198(3)
H8 H 0.4500 1.1181 0.2647
C10 C 0.37890(10) 1.15670(18) 0.3852(3)
C11 C 0.38754(11) 1.26198(19) 0.3764(3)
H9 H 0.4193 1.2869 0.3272
C12 C 0.35037(10) 1.33064(19) 0.4387(3)
H10 H 0.3577 1.4013 0.4342
C13 C 0.30176(9) 1.29556(17) 0.5086(3)
C14 C 0.29149(11) 1.18936(18) 0.5141(3)
H11 H 0.2588 1.1648 0.5587
C15 C 0.32950(11) 1.12107(19) 0.4539(3)
H12 H 0.3225 1.0504 0.4588
C16 C 0.26429(10) 1.37318(19) 0.5781(3)
C17 C 0.17594(11) 1.40659(19) 0.6913(4)
H13 H 0.1967 1.4487 0.7730
C18 C 0.13198(12) 1.3416(2) 0.7698(4)
H14 H 0.1508 1.2967 0.8496
H15 H 0.1133 1.2980 0.6878
C19 C 0.08731(12) 1.4048(2) 0.8523(4)
C20 C 0.10511(12) 1.5504(2) 0.6337(4)
C21 C 0.14722(12) 1.4751(2) 0.5640(4)
H16 H 0.1275 1.4320 0.4833
H17 H 0.1757 1.5142 0.5102
C22 C 0.03634(13) 1.3360(3) 0.8795(5)
H18 H 0.0215 1.3098 0.7773
H19 H 0.0078 1.3758 0.9295
H20 H 0.0477 1.2793 0.9488
C23 C 0.11072(15) 1.4481(3) 1.0172(4)
H21 H 0.1429 1.4912 1.0004
H22 H 0.1218 1.3918 1.0876
H23 H 0.0820 1.4882 1.0657
C24 C 0.13489(17) 1.6383(3) 0.7290(7)
H24 H 0.1585 1.6098 0.8158
H25 H 0.1071 1.6831 0.7727
H26 H 0.1577 1.6772 0.6580
C25 C 0.06761(15) 1.5949(3) 0.4961(6)
H27 H 0.0487 1.5395 0.4378
H28 H 0.0904 1.6330 0.4240
H29 H 0.0401 1.6401 0.5395
loop_
_geom_bond_atom_site_label_1
_geom_bond_atom_site_label_2
_geom_bond_site_symmetry_1
_geom_bond_site_symmetry_2
S1 O1 1_555 1_555
Cl1 C1 1_555 1_555
N1 O5 1_555 1_555
C1 C2 1_555 1_555
O2 S1 1_555 1_555
C2 H1 1_555 1_555
O3 C16 1_555 1_555
C3 C2 1_555 1_555
H2 C3 1_555 1_555
O4 C16 1_555 1_555
C4 C3 1_555 1_555
C5 C4 1_555 1_555
H3 C5 1_555 1_555
C6 C1 1_555 1_555
H4 C6 1_555 1_555
C7 S1 1_555 1_555
H5 C7 1_555 1_555
H6 C7 1_555 1_555
C8 S1 1_555 1_555
H7 C8 1_555 1_555
C9 C8 1_555 1_555
H8 C9 1_555 1_555
C10 C9 1_555 1_555
C11 C10 1_555 1_555
H9 C11 1_555 1_555
C12 C11 1_555 1_555
H10 C12 1_555 1_555
C13 C12 1_555 1_555
C14 C13 1_555 1_555
H11 C14 1_555 1_555
C15 C10 1_555 1_555
H12 C15 1_555 1_555
C16 C13 1_555 1_555
C17 O4 1_555 1_555
H13 C17 1_555 1_555
C18 C17 1_555 1_555
H14 C18 1_555 1_555
H15 C18 1_555 1_555
C19 N1 1_555 1_555
C20 N1 1_555 1_555
C21 C17 1_555 1_555
H16 C21 1_555 1_555
H17 C21 1_555 1_555
C22 C19 1_555 1_555
H18 C22 1_555 1_555
H19 C22 1_555 1_555
H20 C22 1_555 1_555
C23 C19 1_555 1_555
H21 C23 1_555 1_555
H22 C23 1_555 1_555
H23 C23 1_555 1_555
C24 C20 1_555 1_555
H24 C24 1_555 1_555
H25 C24 1_555 1_555
H26 C24 1_555 1_555
C25 C20 1_555 1_555
H27 C25 1_555 1_555
H28 C25 1_555 1_555
H29 C25 1_555 1_555
C4 C7 1_555 1_555
C5 C6 1_555 1_555
C14 C15 1_555 1_555
C18 C19 1_555 1_555
C20 C21 1_555 1_555

#END
