
#######################################################################
#
#                 Cambridge Crystallographic Data Centre
#                                CCDC 
#
#######################################################################
#
# If this CIF has been generated from an entry in the Cambridge 
# Structural Database, then it will include bibliographic, chemical, 
# crystal, experimental, refinement or atomic coordinate data resulting 
# from the CCDC's data processing and validation procedures.
#
#######################################################################

data_TAPHEY
_chemical_formula_moiety         'C1 H7 N4 1+,C6 H3 N2 O5 1-'
_chemical_name_systematic        'Aminoguanidinium 2,4-dinitrophenolate'
_symmetry_cell_setting           monoclinic
_symmetry_space_group_name_H-M   'P 21/n'
_symmetry_Int_Tables_number      14
_space_group_name_Hall           '-P 2yn'
loop_
_symmetry_equiv_pos_site_id
_symmetry_equiv_pos_as_xyz
1 x,y,z
2 1/2-x,1/2+y,1/2-z
3 -x,-y,-z
4 1/2+x,1/2-y,1/2+z
_cell_length_a                   4.9224(7)
_cell_length_b                   23.307(3)
_cell_length_c                   9.4048(16)
_cell_angle_alpha                90
_cell_angle_beta                 91.621(12)
_cell_angle_gamma                90
_cell_volume                     1078.55
_cell_formula_units_Z            4
loop_
_atom_site_label
_atom_site_type_symbol
_atom_site_fract_x
_atom_site_fract_y
_atom_site_fract_z
O1 O 0.6606(4) 0.37826(7) -0.25335(19)
O2 O 0.3615(4) 0.41221(7) -0.0341(2)
O3 O 0.0585(4) 0.35439(7) 0.0398(2)
O4 O 0.1220(5) 0.15509(7) -0.0292(2)
O5 O 0.4138(4) 0.11948(7) -0.1706(2)
N1 N 0.2587(4) 0.36407(8) -0.0319(2)
N2 N 0.3059(5) 0.16079(8) -0.1137(2)
C1 C 0.5801(5) 0.32963(10) -0.2162(2)
C2 C 0.3767(5) 0.31867(9) -0.1124(2)
C3 C 0.2873(5) 0.26372(9) -0.0824(2)
H6 H 0.1520 0.2582 -0.0167
C4 C 0.3981(5) 0.21752(9) -0.1494(2)
C5 C 0.6010(5) 0.22501(10) -0.2484(3)
H7 H 0.6773 0.1933 -0.2923
C6 C 0.6859(5) 0.27844(10) -0.2802(3)
H8 H 0.8202 0.2824 -0.3471
N3 N 0.7026(6) -0.03211(10) -0.0927(3)
N4 N 0.9328(4) -0.04187(8) -0.1743(2)
H1 H 1.0280 -0.0726 -0.1630
N5 N 0.8620(4) 0.04557(8) -0.2775(2)
H2 H 0.9053 0.0714 -0.3380
H3 H 0.7283 0.0513 -0.2223
N6 N 1.2051(4) -0.01238(8) -0.3525(2)
H4 H 1.2511 0.0130 -0.4137
H5 H 1.2933 -0.0442 -0.3458
C7 C 1.0000(5) -0.00263(9) -0.2693(2)
H9 H 0.757(6) -0.0402(13) -0.0071(16)
H10 H 0.575(5) -0.0567(12) -0.114(4)
loop_
_geom_bond_atom_site_label_1
_geom_bond_atom_site_label_2
_geom_bond_site_symmetry_1
_geom_bond_site_symmetry_2
O1 C1 1_555 1_555
O2 N1 1_555 1_555
O3 N1 1_555 1_555
O4 N2 1_555 1_555
O5 N2 1_555 1_555
N1 C2 1_555 1_555
N2 C4 1_555 1_555
N3 N4 1_555 1_555
N4 H1 1_555 1_555
N5 H2 1_555 1_555
H3 N5 1_555 1_555
N6 H4 1_555 1_555
H5 N6 1_555 1_555
C1 C2 1_555 1_555
C2 C3 1_555 1_555
C3 H6 1_555 1_555
C4 C3 1_555 1_555
C5 C4 1_555 1_555
H7 C5 1_555 1_555
C6 C1 1_555 1_555
H8 C6 1_555 1_555
C7 N4 1_555 1_555
H9 N3 1_555 1_555
H10 N3 1_555 1_555
N5 C7 1_555 1_555
N6 C7 1_555 1_555
C5 C6 1_555 1_555

#END
