
#######################################################################
#
#                 Cambridge Crystallographic Data Centre
#                                CCDC 
#
#######################################################################
#
# If this CIF has been generated from an entry in the Cambridge 
# Structural Database, then it will include bibliographic, chemical, 
# crystal, experimental, refinement or atomic coordinate data resulting 
# from the CCDC's data processing and validation procedures.
#
#######################################################################

data_TAQMEF
_chemical_name_common            
13-Ethylidene-2,9,10-trimethyl-11,15-dioxahexacyclo[8.6.0.0$2,7!.0$3,9!.0$4,6!.0$12,16!]hexadecane-8,14-dione
_chemical_formula_moiety         'C19 H22 O4'
_chemical_name_systematic        'Pallambin A'
_symmetry_cell_setting           orthorhombic
_symmetry_space_group_name_H-M   'P 21 21 2'
_symmetry_Int_Tables_number      18
_space_group_name_Hall           'P 2 2ab'
loop_
_symmetry_equiv_pos_site_id
_symmetry_equiv_pos_as_xyz
1 x,y,z
2 -x,-y,z
3 1/2+x,1/2-y,-z
4 1/2-x,1/2+y,-z
_cell_length_a                   13.7792(17)
_cell_length_b                   39.505(5)
_cell_length_c                   6.2897(8)
_cell_angle_alpha                90
_cell_angle_beta                 90
_cell_angle_gamma                90
_cell_volume                     3423.78
_exptl_crystal_colour            colorless
_exptl_crystal_description       needle
_cell_formula_units_Z            8
loop_
_atom_site_label
_atom_site_type_symbol
_atom_site_fract_x
_atom_site_fract_y
_atom_site_fract_z
C1 C 0.1146(4) 0.35479(13) 0.4564(8)
H1 H 0.0450 0.3559 0.4874
C2 C 0.1849(3) 0.36465(12) 0.6383(7)
H2 H 0.1828 0.3505 0.7664
C3 C 0.1544(3) 0.40070(12) 0.6638(7)
C4 C 0.2150(3) 0.42074(10) 0.5032(7)
C5 C 0.2429(3) 0.39197(10) 0.3490(6)
H3 H 0.2891 0.3983 0.2374
C6 C 0.1511(4) 0.37556(14) 0.2708(8)
H4 H 0.1045 0.3893 0.1911
C7 C 0.1435(4) 0.33777(15) 0.2571(9)
H5 H 0.0924 0.3284 0.1689
H6 H 0.2034 0.3248 0.2579
C8 C 0.3082(3) 0.42775(10) 0.6311(7)
C9 C 0.3542(3) 0.39235(9) 0.6503(6)
H7 H 0.3586 0.3856 0.7998
C10 C 0.2855(3) 0.36862(10) 0.5287(7)
C11 C 0.4556(3) 0.39696(10) 0.5560(6)
H8 H 0.5055 0.3863 0.6448
C12 C 0.4699(3) 0.43511(10) 0.5420(7)
H9 H 0.4993 0.4449 0.6698
C13 C 0.5288(3) 0.44022(11) 0.3470(8)
C14 C 0.5886(4) 0.46476(13) 0.3042(10)
H10 H 0.5961 0.4817 0.4053
C15 C 0.6476(5) 0.46758(18) 0.0977(14)
H11 H 0.6206 0.4527 -0.0076
H12 H 0.7138 0.4613 0.1250
H13 H 0.6454 0.4905 0.0469
C16 C 0.5063(3) 0.40958(12) 0.2147(7)
C17 C 0.2933(4) 0.44600(13) 0.8424(8)
H14 H 0.3552 0.4514 0.9034
H15 H 0.2579 0.4316 0.9378
H16 H 0.2573 0.4665 0.8188
C18 C 0.1653(4) 0.45159(13) 0.4138(9)
H17 H 0.1097 0.4447 0.3326
H18 H 0.2096 0.4637 0.3237
H19 H 0.1450 0.4660 0.5283
C19 C 0.3386(4) 0.33393(10) 0.4849(9)
H20 H 0.3689 0.3347 0.3476
H21 H 0.2921 0.3158 0.4884
H22 H 0.3870 0.3302 0.5921
O1 O 0.0906(3) 0.41120(10) 0.7782(6)
O2 O 0.3742(2) 0.44727(7) 0.5011(5)
O3 O 0.4623(2) 0.38575(7) 0.3347(4)
O4 O 0.5202(2) 0.40498(10) 0.0267(5)
C20 C 0.6671(3) 0.23749(11) 0.1479(7)
H23 H 0.6841 0.2139 0.1161
C21 C 0.6845(3) 0.26328(10) -0.0257(6)
H24 H 0.6478 0.2602 -0.1577
C22 C 0.7908(3) 0.25927(10) -0.0407(6)
C23 C 0.8342(3) 0.28285(10) 0.1259(6)
C24 C 0.7425(3) 0.28763(9) 0.2711(6)
H25 H 0.7499 0.3046 0.3837
C25 C 0.7121(3) 0.25307(10) 0.3468(7)
H26 H 0.7577 0.2396 0.4312
C26 C 0.6075(4) 0.24379(12) 0.3476(8)
H27 H 0.5604 0.2620 0.3442
H28 H 0.5881 0.2243 0.4309
C27 C 0.8415(3) 0.31691(11) 0.0063(6)
C28 C 0.7336(3) 0.32624(10) -0.0278(6)
H29 H 0.7184 0.3263 -0.1800
C29 C 0.6741(3) 0.29826(10) 0.0861(6)
C30 C 0.7256(3) 0.36257(10) 0.0630(6)
H30 H 0.6922 0.3778 -0.0360
C31 C 0.8295(3) 0.37359(10) 0.1012(7)
H31 H 0.8577 0.3858 -0.0194
C32 C 0.8227(3) 0.39431(10) 0.2965(8)
C33 C 0.8802(4) 0.41913(12) 0.3558(12)
H32 H 0.9330 0.4237 0.2684
C34 C 0.8691(5) 0.44080(16) 0.5503(13)
H33 H 0.8045 0.4384 0.6054
H34 H 0.8806 0.4640 0.5137
H35 H 0.9151 0.4338 0.6562
C35 C 0.7355(4) 0.38333(11) 0.4069(7)
C36 C 0.9043(3) 0.31688(13) -0.1945(7)
H36 H 0.9037 0.3390 -0.2572
H37 H 0.8789 0.3008 -0.2942
H38 H 0.9697 0.3108 -0.1580
C37 C 0.9272(3) 0.27089(12) 0.2280(8)
H39 H 0.9755 0.2674 0.1203
H40 H 0.9156 0.2500 0.3019
H41 H 0.9497 0.2877 0.3269
C38 C 0.5685(3) 0.31016(11) 0.1174(8)
H42 H 0.5539 0.3277 0.0167
H43 H 0.5606 0.3188 0.2591
H44 H 0.5252 0.2914 0.0958
O5 O 0.8357(2) 0.24050(9) -0.1538(5)
O6 O 0.87919(18) 0.34229(7) 0.1489(5)
O7 O 0.6817(2) 0.36353(7) 0.2740(4)
O8 O 0.7081(3) 0.38822(9) 0.5872(5)
loop_
_geom_bond_atom_site_label_1
_geom_bond_atom_site_label_2
_geom_bond_site_symmetry_1
_geom_bond_site_symmetry_2
C1 H1 1_555 1_555
C2 C1 1_555 1_555
H2 C2 1_555 1_555
C3 C2 1_555 1_555
C4 C3 1_555 1_555
C5 C4 1_555 1_555
H3 C5 1_555 1_555
C6 C1 1_555 1_555
H4 C6 1_555 1_555
C7 C1 1_555 1_555
H5 C7 1_555 1_555
H6 C7 1_555 1_555
C8 C4 1_555 1_555
C9 C8 1_555 1_555
H7 C9 1_555 1_555
C10 C2 1_555 1_555
C11 C9 1_555 1_555
H8 C11 1_555 1_555
C12 C11 1_555 1_555
H9 C12 1_555 1_555
C13 C12 1_555 1_555
C14 C13 1_555 1_555
H10 C14 1_555 1_555
C15 C14 1_555 1_555
H11 C15 1_555 1_555
H12 C15 1_555 1_555
H13 C15 1_555 1_555
C16 C13 1_555 1_555
C17 C8 1_555 1_555
H14 C17 1_555 1_555
H15 C17 1_555 1_555
H16 C17 1_555 1_555
C18 C4 1_555 1_555
H17 C18 1_555 1_555
H18 C18 1_555 1_555
H19 C18 1_555 1_555
C19 C10 1_555 1_555
H20 C19 1_555 1_555
H21 C19 1_555 1_555
H22 C19 1_555 1_555
O1 C3 1_555 1_555
O2 C8 1_555 1_555
O3 C11 1_555 1_555
O4 C16 1_555 1_555
C20 H23 1_555 1_555
C21 C20 1_555 1_555
H24 C21 1_555 1_555
C22 C21 1_555 1_555
C23 C22 1_555 1_555
C24 C23 1_555 1_555
H25 C24 1_555 1_555
C25 C20 1_555 1_555
H26 C25 1_555 1_555
C26 C20 1_555 1_555
H27 C26 1_555 1_555
H28 C26 1_555 1_555
C27 C23 1_555 1_555
C28 C27 1_555 1_555
H29 C28 1_555 1_555
C29 C21 1_555 1_555
C30 C28 1_555 1_555
H30 C30 1_555 1_555
C31 C30 1_555 1_555
H31 C31 1_555 1_555
C32 C31 1_555 1_555
C33 C32 1_555 1_555
H32 C33 1_555 1_555
C34 C33 1_555 1_555
H33 C34 1_555 1_555
H34 C34 1_555 1_555
H35 C34 1_555 1_555
C35 C32 1_555 1_555
C36 C27 1_555 1_555
H36 C36 1_555 1_555
H37 C36 1_555 1_555
H38 C36 1_555 1_555
C37 C23 1_555 1_555
H39 C37 1_555 1_555
H40 C37 1_555 1_555
H41 C37 1_555 1_555
C38 C29 1_555 1_555
H42 C38 1_555 1_555
H43 C38 1_555 1_555
H44 C38 1_555 1_555
O5 C22 1_555 1_555
O6 C27 1_555 1_555
O7 C30 1_555 1_555
O8 C35 1_555 1_555
C5 C6 1_555 1_555
C5 C10 1_555 1_555
C6 C7 1_555 1_555
C9 C10 1_555 1_555
C12 O2 1_555 1_555
C16 O3 1_555 1_555
C24 C25 1_555 1_555
C24 C29 1_555 1_555
C25 C26 1_555 1_555
C28 C29 1_555 1_555
C31 O6 1_555 1_555
C35 O7 1_555 1_555

#END
