
#######################################################################
#
#                 Cambridge Crystallographic Data Centre
#                                CCDC 
#
#######################################################################
#
# If this CIF has been generated from an entry in the Cambridge 
# Structural Database, then it will include bibliographic, chemical, 
# crystal, experimental, refinement or atomic coordinate data resulting 
# from the CCDC's data processing and validation procedures.
#
#######################################################################

data_TAQNIK
_chemical_formula_moiety         'C16 H11 Br1 O4'
_chemical_name_systematic        
5'-Bromo-5-methoxy-3H,3'H-2,2'-spirobi[[1]benzofuran]-3-one
_symmetry_cell_setting           monoclinic
_symmetry_space_group_name_H-M   'P 21/c'
_symmetry_Int_Tables_number      14
_space_group_name_Hall           '-P 2ybc'
loop_
_symmetry_equiv_pos_site_id
_symmetry_equiv_pos_as_xyz
1 x,y,z
2 -x,1/2+y,1/2-z
3 -x,-y,-z
4 x,1/2-y,1/2+z
_cell_length_a                   19.247(8)
_cell_length_b                   4.881(2)
_cell_length_c                   16.331(7)
_cell_angle_alpha                90
_cell_angle_beta                 112.154(4)
_cell_angle_gamma                90
_cell_volume                     1420.94
_exptl_crystal_colour            yellow
_exptl_crystal_description       block
_cell_formula_units_Z            4
loop_
_atom_site_label
_atom_site_type_symbol
_atom_site_fract_x
_atom_site_fract_y
_atom_site_fract_z
Br1 Br 0.01574(4) 0.18085(18) 0.59842(5)
C1 C 0.0882(3) 0.1477(13) 0.7858(5)
H1 H 0.0538 0.0103 0.7828
C2 C 0.0869(3) 0.2834(15) 0.7093(4)
C3 C 0.1380(4) 0.4838(15) 0.7145(5)
H2 H 0.1363 0.5690 0.6628
C4 C 0.1921(4) 0.5635(13) 0.7941(6)
H3 H 0.2263 0.7020 0.7974
C5 C 0.1932(4) 0.4264(13) 0.8694(5)
C6 C 0.1425(4) 0.2264(12) 0.8656(4)
C7 C 0.1576(3) 0.1329(12) 0.9582(4)
H4 H 0.1612 -0.0651 0.9632
H5 H 0.1194 0.1970 0.9789
C8 C 0.2334(4) 0.2699(14) 1.0084(4)
C9 C 0.2439(4) 0.3898(13) 1.0994(5)
C10 C 0.3074(3) 0.2466(13) 1.1622(5)
C11 C 0.3341(4) 0.0693(14) 1.1159(5)
C12 C 0.3954(4) -0.1013(14) 1.1559(6)
H6 H 0.4125 -0.2213 1.1234
C13 C 0.4290(4) -0.0822(15) 1.2456(6)
H7 H 0.4704 -0.1924 1.2748
C14 C 0.4038(4) 0.0963(16) 1.2957(6)
C15 C 0.3429(4) 0.2608(13) 1.2539(5)
H8 H 0.3256 0.3804 1.2863
C16 C 0.4174(4) 0.2519(18) 1.4393(5)
H9 H 0.4176 0.4414 1.4236
H10 H 0.4496 0.2266 1.5001
H11 H 0.3673 0.1976 1.4310
O1 O 0.2434(2) 0.4775(8) 0.9535(3)
O2 O 0.2938(2) 0.0735(8) 1.0256(3)
O3 O 0.2052(2) 0.5696(9) 1.1109(3)
O4 O 0.4437(3) 0.0891(11) 1.3846(4)
loop_
_geom_bond_atom_site_label_1
_geom_bond_atom_site_label_2
_geom_bond_site_symmetry_1
_geom_bond_site_symmetry_2
Br1 C2 1_555 1_555
C1 H1 1_555 1_555
C2 C1 1_555 1_555
C3 C2 1_555 1_555
H2 C3 1_555 1_555
C4 C3 1_555 1_555
H3 C4 1_555 1_555
C5 C4 1_555 1_555
C6 C1 1_555 1_555
C7 C6 1_555 1_555
H4 C7 1_555 1_555
H5 C7 1_555 1_555
C8 C7 1_555 1_555
C9 C8 1_555 1_555
C10 C9 1_555 1_555
C11 C10 1_555 1_555
C12 C11 1_555 1_555
H6 C12 1_555 1_555
C13 C12 1_555 1_555
H7 C13 1_555 1_555
C14 C13 1_555 1_555
C15 C10 1_555 1_555
H8 C15 1_555 1_555
C16 H9 1_555 1_555
H10 C16 1_555 1_555
H11 C16 1_555 1_555
O1 C5 1_555 1_555
O2 C8 1_555 1_555
O3 C9 1_555 1_555
O4 C14 1_555 1_555
C5 C6 1_555 1_555
C8 O1 1_555 1_555
C11 O2 1_555 1_555
C14 C15 1_555 1_555
C16 O4 1_555 1_555

#END
