
#######################################################################
#
#                 Cambridge Crystallographic Data Centre
#                                CCDC 
#
#######################################################################
#
# If this CIF has been generated from an entry in the Cambridge 
# Structural Database, then it will include bibliographic, chemical, 
# crystal, experimental, refinement or atomic coordinate data resulting 
# from the CCDC's data processing and validation procedures.
#
#######################################################################

data_TAQROU
_chemical_compound_source        'Schisandra lancifolia'
_chemical_name_common            
"4a-Hydroxy-3a,8,8-trimethyl-11a-(1-(4-methyl-5-oxofuran-2(5H)-ylidene)propan-2-yl)dodecahydrofuro[3',4':5,6]azuleno[1,2-b]furo[3,2-d]furan-2,6(3H,3bH)-dione monohydrate"
_chemical_formula_moiety         'C27 H34 O8,H2 O1'
_chemical_name_systematic        'Schilancitrilactone C monohydrate'
_chemical_properties_biological  'tested for anti-HIV activity'
_symmetry_cell_setting           orthorhombic
_symmetry_space_group_name_H-M   'P 21 21 21'
_symmetry_Int_Tables_number      19
_space_group_name_Hall           'P 2ac 2ab'
loop_
_symmetry_equiv_pos_site_id
_symmetry_equiv_pos_as_xyz
1 x,y,z
2 1/2+x,1/2-y,-z
3 -x,1/2+y,1/2-z
4 1/2-x,-y,1/2+z
_cell_length_a                   10.2430(4)
_cell_length_b                   10.5955(5)
_cell_length_c                   23.2804(9)
_cell_angle_alpha                90
_cell_angle_beta                 90
_cell_angle_gamma                90
_cell_volume                     2526.61
_exptl_crystal_colour            colorless
_exptl_crystal_description       prism
_cell_formula_units_Z            4
loop_
_atom_site_label
_atom_site_type_symbol
_atom_site_fract_x
_atom_site_fract_y
_atom_site_fract_z
O1 O -0.24680(11) 0.56272(12) 0.11591(5)
O2 O 0.49788(12) -0.08544(13) 0.22658(5)
O3 O 0.62039(11) -0.02967(13) 0.15207(5)
O4 O 0.13576(12) 0.10293(13) 0.17902(6)
H1 H 0.1569 0.0609 0.2082
O5 O 0.42474(12) 0.75708(13) 0.10072(5)
C1 C -0.26006(16) 0.61563(17) 0.02049(7)
H2 H -0.2378 0.6481 -0.0163
C2 C 0.67184(19) -0.0331(2) 0.05165(8)
H3 H 0.7649 -0.0446 0.0599
H4 H 0.6616 0.0100 0.0147
H5 H 0.6289 -0.1157 0.0500
C3 C 0.21826(15) 0.56367(16) 0.18953(7)
C4 C 0.26556(15) 0.42672(16) 0.17928(7)
H6 H 0.3617 0.4207 0.1863
C5 C -0.17671(17) 0.61912(17) 0.07071(7)
C6 C -0.05697(17) 0.66162(17) 0.07879(7)
H7 H -0.0112 0.6930 0.0463
C7 C 0.36506(17) 0.15875(17) 0.18359(7)
H8 H 0.3738 0.1408 0.2251
H9 H 0.4269 0.2274 0.1740
C8 C 0.40288(16) 0.04003(17) 0.14959(7)
H10 H 0.3243 -0.0154 0.1460
C9 C 0.14028(17) 0.57621(18) 0.24527(7)
H11 H 0.1917 0.5425 0.2773
H12 H 0.0585 0.5288 0.2419
H13 H 0.1207 0.6654 0.2524
C10 C -0.37279(16) 0.55997(17) 0.03371(7)
C11 C 0.33956(17) 0.69873(17) 0.12468(7)
C12 C 0.14041(16) 0.59117(17) 0.13262(7)
C13 C -0.36594(16) 0.52486(18) 0.09481(7)
C14 C 0.22544(16) 0.20415(17) 0.17146(7)
C15 C 0.46054(16) 0.06126(17) 0.08979(7)
H14 H 0.4310 -0.0105 0.0651
C16 C 0.23533(15) 0.39918(17) 0.11612(7)
H15 H 0.3097 0.4233 0.0906
C17 C 0.01209(16) 0.66389(18) 0.13556(7)
H16 H -0.0452 0.6214 0.1644
O6 O 0.23095(11) 0.66408(12) 0.09620(5)
C18 C 0.41600(18) 0.18305(18) 0.06036(7)
H17 H 0.4500 0.1850 0.0206
H18 H 0.4525 0.2565 0.0812
O7 O 0.12010(11) 0.47626(12) 0.10512(5)
O8 O -0.44322(12) 0.47042(14) 0.12506(5)
C19 C 0.68577(19) 0.1673(2) 0.10977(8)
H19 H 0.6451 0.2134 0.1415
H20 H 0.6846 0.2197 0.0751
H21 H 0.7763 0.1468 0.1198
C20 C 0.03107(18) 0.80182(18) 0.15459(7)
H22 H 0.0837 0.8466 0.1260
H23 H 0.0758 0.8038 0.1918
H24 H -0.0543 0.8429 0.1581
C21 C -0.49122(17) 0.5304(2) -0.00093(7)
H25 H -0.4757 0.5531 -0.0412
H26 H -0.5656 0.5786 0.0138
H27 H -0.5102 0.4399 0.0018
C22 C 0.33188(17) 0.65780(17) 0.18648(7)
H28 H 0.3152 0.7311 0.2118
H29 H 0.4145 0.6171 0.1985
C23 C 0.50814(16) -0.03177(17) 0.18048(7)
C24 C 0.26603(18) 0.19319(18) 0.05909(7)
H30 H 0.2406 0.2390 0.0238
H31 H 0.2296 0.1069 0.0563
C25 C 0.61016(17) 0.04563(19) 0.09871(7)
C26 C 0.19459(16) 0.31837(18) 0.20990(7)
H32 H 0.0994 0.3341 0.2119
H33 H 0.2288 0.3060 0.2493
C27 C 0.20212(16) 0.25945(17) 0.11064(7)
H34 H 0.1058 0.2552 0.1039
O9 O 0.76579(14) 0.43589(13) 0.23225(5)
H35 H 0.6781 0.4350 0.2400
H36 H 0.7655 0.4614 0.1961
loop_
_geom_bond_atom_site_label_1
_geom_bond_atom_site_label_2
_geom_bond_site_symmetry_1
_geom_bond_site_symmetry_2
O1 C5 1_555 1_555
O2 C23 1_555 1_555
O3 C23 1_555 1_555
O4 H1 1_555 1_555
O5 C11 1_555 1_555
C1 H2 1_555 1_555
C2 H3 1_555 1_555
H4 C2 1_555 1_555
H5 C2 1_555 1_555
C3 C4 1_555 1_555
C4 H6 1_555 1_555
C5 C1 1_555 1_555
C6 C5 1_555 1_555
H7 C6 1_555 1_555
C7 H8 1_555 1_555
H9 C7 1_555 1_555
C8 C7 1_555 1_555
H10 C8 1_555 1_555
C9 C3 1_555 1_555
H11 C9 1_555 1_555
H12 C9 1_555 1_555
H13 C9 1_555 1_555
C10 C1 1_555 1_555
C11 O6 1_555 1_555
C12 C3 1_555 1_555
C13 O1 1_555 1_555
C14 O4 1_555 1_555
C15 C8 1_555 1_555
H14 C15 1_555 1_555
C16 C4 1_555 1_555
H15 C16 1_555 1_555
C17 C6 1_555 1_555
H16 C17 1_555 1_555
O6 C12 1_555 1_555
C18 C15 1_555 1_555
H17 C18 1_555 1_555
H18 C18 1_555 1_555
O7 C12 1_555 1_555
O8 C13 1_555 1_555
C19 H19 1_555 1_555
H20 C19 1_555 1_555
H21 C19 1_555 1_555
C20 C17 1_555 1_555
H22 C20 1_555 1_555
H23 C20 1_555 1_555
H24 C20 1_555 1_555
C21 C10 1_555 1_555
H25 C21 1_555 1_555
H26 C21 1_555 1_555
H27 C21 1_555 1_555
C22 C3 1_555 1_555
H28 C22 1_555 1_555
H29 C22 1_555 1_555
C23 C8 1_555 1_555
C24 C18 1_555 1_555
H30 C24 1_555 1_555
H31 C24 1_555 1_555
C25 O3 1_555 1_555
C26 C4 1_555 1_555
H32 C26 1_555 1_555
H33 C26 1_555 1_555
C27 C14 1_555 1_555
H34 C27 1_555 1_555
O9 H35 1_555 1_555
H36 O9 1_555 1_555
C2 C25 1_555 1_555
C7 C14 1_555 1_555
C10 C13 1_555 1_555
C11 C22 1_555 1_555
C12 C17 1_555 1_555
C14 C26 1_555 1_555
C15 C25 1_555 1_555
C16 O7 1_555 1_555
C16 C27 1_555 1_555
C19 C25 1_555 1_555
C24 C27 1_555 1_555

#END
