
#######################################################################
#
#                 Cambridge Crystallographic Data Centre
#                                CCDC 
#
#######################################################################
#
# If this CIF has been generated from an entry in the Cambridge 
# Structural Database, then it will include bibliographic, chemical, 
# crystal, experimental, refinement or atomic coordinate data resulting 
# from the CCDC's data processing and validation procedures.
#
#######################################################################

data_TAQTIP
_chemical_formula_moiety         'C16 H19 N7'
_chemical_name_systematic        
1-(4-(4-Methylpyrimidin-2-yl)piperazin-1-ylmethyl)-1H-benzotriazole
_chemical_properties_biological  'possible herbicidal activity'
_symmetry_cell_setting           triclinic
_symmetry_space_group_name_H-M   'P -1'
_symmetry_Int_Tables_number      2
_space_group_name_Hall           '-P 1'
loop_
_symmetry_equiv_pos_site_id
_symmetry_equiv_pos_as_xyz
1 x,y,z
2 -x,-y,-z
_cell_length_a                   6.5207(17)
_cell_length_b                   9.2488(16)
_cell_length_c                   13.429(4)
_cell_angle_alpha                102.108(8)
_cell_angle_beta                 94.112(7)
_cell_angle_gamma                101.504(8)
_cell_volume                     770.492
_exptl_crystal_colour            colorless
_exptl_crystal_description       Prism
_cell_formula_units_Z            2
_exptl_crystal_recrystallization_method ethanol
loop_
_atom_site_label
_atom_site_type_symbol
_atom_site_fract_x
_atom_site_fract_y
_atom_site_fract_z
N1 N 0.0256(2) 0.16368(18) 0.08980(12)
N2 N -0.1810(3) 0.1463(2) 0.10249(14)
N3 N -0.2741(3) 0.2019(2) 0.03535(14)
N4 N 0.2611(2) 0.23005(17) 0.25140(11)
N5 N 0.3795(3) 0.51160(17) 0.39374(11)
N6 N 0.4797(3) 0.74315(18) 0.35356(12)
N7 N 0.1601(3) 0.6799(2) 0.42649(14)
C1 C 0.0669(3) 0.2329(2) 0.01128(13)
C2 C -0.1273(3) 0.2571(2) -0.02272(14)
C3 C -0.1475(4) 0.3256(3) -0.10485(16)
H1 H -0.2763 0.3430 -0.1280
C4 C 0.0276(4) 0.3657(3) -0.14938(18)
H2 H 0.0191 0.4120 -0.2042
C5 C 0.2217(4) 0.3394(3) -0.11507(18)
H3 H 0.3382 0.3682 -0.1483
C6 C 0.2461(3) 0.2730(3) -0.03465(16)
H4 H 0.3754 0.2559 -0.0121
C7 C 0.1670(3) 0.1167(2) 0.16130(14)
H5 H 0.0879 0.0298 0.1823
H6 H 0.2787 0.0838 0.1247
C8 C 0.1087(3) 0.2894(2) 0.31321(14)
H7 H 0.0066 0.2060 0.3266
H8 H 0.0338 0.3461 0.2759
C9 C 0.2186(3) 0.3908(2) 0.41291(14)
H9 H 0.1170 0.4339 0.4520
H10 H 0.2829 0.3321 0.4529
C10 C 0.5331(3) 0.4520(2) 0.33370(14)
H11 H 0.6055 0.3946 0.3714
H12 H 0.6370 0.5350 0.3211
C11 C 0.4240(3) 0.3514(2) 0.23333(14)
H13 H 0.3610 0.4109 0.1934
H14 H 0.5260 0.3084 0.1946
C12 C 0.3364(3) 0.6498(2) 0.39045(13)
C13 C 0.4403(4) 0.8812(2) 0.35349(16)
C14 C 0.2630(4) 0.9204(3) 0.38875(19)
H15 H 0.2360 1.0154 0.3885
C15 C 0.1277(4) 0.8168(3) 0.42415(19)
H16 H 0.0064 0.8426 0.4480
C16 C 0.5980(4) 0.9835(3) 0.3114(2)
H17 H 0.7356 0.9659 0.3271
H18 H 0.5962 1.0870 0.3415
H19 H 0.5645 0.9641 0.2384
loop_
_geom_bond_atom_site_label_1
_geom_bond_atom_site_label_2
_geom_bond_site_symmetry_1
_geom_bond_site_symmetry_2
N1 N2 1_555 1_555
N2 N3 1_555 1_555
N3 C2 1_555 1_555
N4 C7 1_555 1_555
N5 C9 1_555 1_555
N6 C12 1_555 1_555
N7 C12 1_555 1_555
C1 N1 1_555 1_555
C2 C1 1_555 1_555
C3 C2 1_555 1_555
H1 C3 1_555 1_555
C4 C3 1_555 1_555
H2 C4 1_555 1_555
C5 C4 1_555 1_555
H3 C5 1_555 1_555
C6 C1 1_555 1_555
H4 C6 1_555 1_555
C7 N1 1_555 1_555
H5 C7 1_555 1_555
H6 C7 1_555 1_555
C8 N4 1_555 1_555
H7 C8 1_555 1_555
H8 C8 1_555 1_555
C9 C8 1_555 1_555
H9 C9 1_555 1_555
H10 C9 1_555 1_555
C10 N5 1_555 1_555
H11 C10 1_555 1_555
H12 C10 1_555 1_555
C11 N4 1_555 1_555
H13 C11 1_555 1_555
H14 C11 1_555 1_555
C12 N5 1_555 1_555
C13 N6 1_555 1_555
C14 C13 1_555 1_555
H15 C14 1_555 1_555
C15 N7 1_555 1_555
H16 C15 1_555 1_555
C16 C13 1_555 1_555
H17 C16 1_555 1_555
H18 C16 1_555 1_555
H19 C16 1_555 1_555
C5 C6 1_555 1_555
C10 C11 1_555 1_555
C14 C15 1_555 1_555

#END
