
#######################################################################
#
#                 Cambridge Crystallographic Data Centre
#                                CCDC 
#
#######################################################################
#
# If this CIF has been generated from an entry in the Cambridge 
# Structural Database, then it will include bibliographic, chemical, 
# crystal, experimental, refinement or atomic coordinate data resulting 
# from the CCDC's data processing and validation procedures.
#
#######################################################################

data_TAQWOX
_chemical_name_common            
(3-Oxo-3H-isobenzofuran)-1-spiro-9-(2-dibenzylamino-6-diethylaminoxanthene)
_chemical_formula_moiety         'C38 H34 N2 O3'
_chemical_name_systematic        
Spiro(isobenzofuran-1(3H),9'(9H)-2'-dibenzylamino-6'-diethylminoxanthen)-3-one
_symmetry_cell_setting           monoclinic
_symmetry_space_group_name_H-M   'C c'
_symmetry_Int_Tables_number      9
_space_group_name_Hall           'C -2yc'
loop_
_symmetry_equiv_pos_site_id
_symmetry_equiv_pos_as_xyz
1 x,y,z
2 x,-y,1/2+z
3 1/2+x,1/2+y,z
4 1/2+x,1/2-y,1/2+z
_cell_length_a                   16.826(4)
_cell_length_b                   10.648(4)
_cell_length_c                   17.618(7)
_cell_angle_alpha                90
_cell_angle_beta                 92.25(2)
_cell_angle_gamma                90
_cell_volume                     3154.06
_cell_formula_units_Z            4
loop_
_atom_site_label
_atom_site_type_symbol
_atom_site_fract_x
_atom_site_fract_y
_atom_site_fract_z
O1 O 0.334 0.318(1) 0.822
O2 O 0.1191(8) 0.278(1) 0.7557(7)
O3 O -0.0079(9) 0.257(2) 0.717(1)
N1 N 0.276(1) 0.556(2) 1.040(1)
N2 N 0.289(1) -0.067(2) 0.6085(9)
C1 C 0.177(1) 0.201(2) 0.807(1)
C2 C 0.042(1) 0.209(3) 0.759(2)
C3 C 0.357(2) 0.603(2) 1.041(2)
C4 C 0.413(2) 0.534(3) 1.082(2)
C5 C 0.221(2) 0.584(2) 1.093(1)
C6 C 0.170(2) 0.698(4) 1.064(2)
C7 C 0.216(1) -0.132(2) 0.599(1)
C8 C 0.360(1) -0.120(2) 0.575(1)
C9 C 0.278(1) 0.346(2) 0.872(1)
C10 C 0.205(1) 0.293(2) 0.871(1)
C11 C 0.150(1) 0.327(2) 0.925(1)
C12 C 0.173(1) 0.409(2) 0.983
C13 C 0.254(1) 0.461(2) 0.984(1)
C14 C 0.304(1) 0.424(2) 0.928(1)
C15 C 0.319(1) 0.222(2) 0.767(1)
C16 C 0.249(1) 0.161(2) 0.756(1)
C17 C 0.241(1) 0.061(2) 0.704(1)
C18 C 0.305(1) 0.030(2) 0.659(1)
C19 C 0.373(1) 0.099(2) 0.672(1)
C20 C 0.380(1) 0.194(2) 0.722(1)
C21 C 0.128(1) 0.091(2) 0.828(1)
C22 C 0.055(1) 0.101(2) 0.797(1)
C23 C -0.007(1) -0.001(3) 0.818(2)
C24 C 0.019(1) -0.089(2) 0.857(2)
C25 C 0.091(1) -0.102(2) 0.888(2)
C26 C 0.148(1) -0.005(2) 0.877(1)
C27 C 0.200(1) -0.224(2) 0.664(1)
C28 C 0.260(2) -0.274(3) 0.715(1)
C29 C 0.243(2) -0.351(3) 0.773(2)
C30 C 0.168(1) -0.396(3) 0.779(1)
C31 C 0.110(1) -0.353(3) 0.729(1)
C32 C 0.125(1) -0.274(2) 0.676(1)
C33 C 0.387(1) -0.063(2) 0.505(1)
C34 C 0.350(1) 0.048(3) 0.472(1)
C35 C 0.376(2) 0.078(4) 0.405(1)
C36 C 0.440(2) 0.043(3) 0.376(1)
C37 C 0.475(2) -0.059(3) 0.398(2)
C38 C 0.447(1) -0.096(3) 0.471(2)
loop_
_geom_bond_atom_site_label_1
_geom_bond_atom_site_label_2
_geom_bond_site_symmetry_1
_geom_bond_site_symmetry_2
O1 C9 1_555 1_555
O2 C1 1_555 1_555
O3 C2 1_555 1_555
N1 C3 1_555 1_555
N2 C7 1_555 1_555
C1 C10 1_555 1_555
C2 O2 1_555 1_555
C3 C4 1_555 1_555
C5 N1 1_555 1_555
C6 C5 1_555 1_555
C7 C27 1_555 1_555
C8 N2 1_555 1_555
C9 C10 1_555 1_555
C10 C11 1_555 1_555
C11 C12 1_555 1_555
C12 C13 1_555 1_555
C13 N1 1_555 1_555
C14 C9 1_555 1_555
C15 O1 1_555 1_555
C16 C1 1_555 1_555
C17 C16 1_555 1_555
C18 N2 1_555 1_555
C19 C18 1_555 1_555
C20 C15 1_555 1_555
C21 C1 1_555 1_555
C22 C2 1_555 1_555
C23 C22 1_555 1_555
C24 C23 1_555 1_555
C25 C24 1_555 1_555
C26 C21 1_555 1_555
C27 C28 1_555 1_555
C28 C29 1_555 1_555
C29 C30 1_555 1_555
C30 C31 1_555 1_555
C31 C32 1_555 1_555
C32 C27 1_555 1_555
C33 C8 1_555 1_555
C34 C33 1_555 1_555
C35 C34 1_555 1_555
C36 C35 1_555 1_555
C37 C36 1_555 1_555
C38 C33 1_555 1_555
C13 C14 1_555 1_555
C15 C16 1_555 1_555
C17 C18 1_555 1_555
C19 C20 1_555 1_555
C21 C22 1_555 1_555
C25 C26 1_555 1_555
C37 C38 1_555 1_555

#END
