
#######################################################################
#
#                 Cambridge Crystallographic Data Centre
#                                CCDC 
#
#######################################################################
#
# If this CIF has been generated from an entry in the Cambridge 
# Structural Database, then it will include bibliographic, chemical, 
# crystal, experimental, refinement or atomic coordinate data resulting 
# from the CCDC's data processing and validation procedures.
#
#######################################################################

data_TARGAX
_chemical_formula_moiety         'C30 H25 Br1 N2'
_chemical_name_systematic        
2-(4-bromophenyl)-9,9-diethyl-1-phenyl-1,9-dihydrofluoreno[2,3-d]imidazole
_symmetry_cell_setting           monoclinic
_symmetry_space_group_name_H-M   'P 21/c'
_symmetry_Int_Tables_number      14
_space_group_name_Hall           '-P 2ybc'
loop_
_symmetry_equiv_pos_site_id
_symmetry_equiv_pos_as_xyz
1 x,y,z
2 -x,1/2+y,1/2-z
3 -x,-y,-z
4 x,1/2-y,1/2+z
_cell_length_a                   11.982(12)
_cell_length_b                   9.253(9)
_cell_length_c                   22.05(2)
_cell_angle_alpha                90
_cell_angle_beta                 90.284(11)
_cell_angle_gamma                90
_cell_volume                     2444.64
_cell_formula_units_Z            4
loop_
_atom_site_label
_atom_site_type_symbol
_atom_site_fract_x
_atom_site_fract_y
_atom_site_fract_z
Br1 Br 0.58815(3) 0.09250(4) 1.148931(15)
C1 C 0.6266(3) 0.0752(3) 1.06556(14)
C2 C 0.7083(3) -0.0228(4) 1.04982(15)
H1 H 0.7452 -0.0765 1.0794
C3 C 0.7344(3) -0.0397(4) 0.98901(15)
H2 H 0.7888 -0.1063 0.9780
C4 C 0.6811(2) 0.0406(3) 0.94391(13)
C5 C 0.5990(3) 0.1399(3) 0.96198(14)
H3 H 0.5622 0.1951 0.9328
C6 C 0.5722(3) 0.1568(3) 1.02248(14)
H4 H 0.5178 0.2229 1.0340
C7 C 0.7109(2) 0.0083(3) 0.88098(13)
C8 C 0.7727(3) -0.1053(3) 0.80293(14)
C9 C 0.8221(3) -0.2042(3) 0.76307(15)
H5 H 0.8443 -0.2954 0.7760
C10 C 0.8363(3) -0.1603(3) 0.70370(14)
C11 C 0.8925(3) -0.2338(3) 0.65344(15)
C12 C 0.9511(3) -0.3626(4) 0.65172(17)
H6 H 0.9553 -0.4212 0.6859
C13 C 1.0035(3) -0.4032(4) 0.59828(19)
H7 H 1.0428 -0.4898 0.5966
C14 C 0.9977(3) -0.3158(4) 0.54765(17)
H8 H 1.0335 -0.3439 0.5122
C15 C 0.9392(3) -0.1865(4) 0.54884(16)
H9 H 0.9359 -0.1280 0.5146
C16 C 0.8859(3) -0.1460(4) 0.60151(15)
C17 C 0.8175(3) -0.0086(4) 0.61480(14)
C18 C 0.7991(2) -0.0230(3) 0.68256(14)
C19 C 0.7509(3) 0.0751(3) 0.72153(14)
H10 H 0.7268 0.1654 0.7083
C20 C 0.7402(2) 0.0317(3) 0.78175(13)
C21 C 0.6668(3) 0.2528(3) 0.83263(13)
C22 C 0.7357(3) 0.3558(4) 0.85793(16)
H11 H 0.8035 0.3292 0.8753
C23 C 0.7030(4) 0.4990(4) 0.85731(19)
H12 H 0.7486 0.5690 0.8748
C24 C 0.6041(4) 0.5382(4) 0.8311(2)
H13 H 0.5827 0.6348 0.8307
C25 C 0.5366(4) 0.4361(5) 0.80553(18)
H14 H 0.4695 0.4638 0.7876
C26 C 0.5669(3) 0.2916(4) 0.80598(15)
H15 H 0.5207 0.2221 0.7886
C27 C 0.6968(4) -0.0206(6) 0.58234(18)
H16 H 0.6596 -0.1049 0.5988
H17 H 0.6536 0.0631 0.5944
C28 C 0.6912(5) -0.0307(7) 0.5174(2)
H18 H 0.7293 0.0503 0.4998
H19 H 0.6145 -0.0302 0.5046
H20 H 0.7261 -0.1187 0.5045
C29 C 0.8760(4) 0.1292(4) 0.59688(18)
H21 H 0.8884 0.1285 0.5534
H22 H 0.8282 0.2108 0.6061
C30 C 0.9846(4) 0.1482(6) 0.6284(2)
H23 H 0.9731 0.1476 0.6715
H24 H 1.0172 0.2387 0.6166
H25 H 1.0338 0.0706 0.6176
N1 N 0.7532(2) -0.1164(3) 0.86467(12)
N2 N 0.7003(2) 0.1041(2) 0.83248(11)
loop_
_geom_bond_atom_site_label_1
_geom_bond_atom_site_label_2
_geom_bond_site_symmetry_1
_geom_bond_site_symmetry_2
Br1 C1 1_555 1_555
C1 C2 1_555 1_555
C2 H1 1_555 1_555
C3 C2 1_555 1_555
H2 C3 1_555 1_555
C4 C3 1_555 1_555
C5 C4 1_555 1_555
H3 C5 1_555 1_555
C6 C1 1_555 1_555
H4 C6 1_555 1_555
C7 C4 1_555 1_555
C8 C9 1_555 1_555
C9 H5 1_555 1_555
C10 C9 1_555 1_555
C11 C10 1_555 1_555
C12 C11 1_555 1_555
H6 C12 1_555 1_555
C13 C12 1_555 1_555
H7 C13 1_555 1_555
C14 C13 1_555 1_555
H8 C14 1_555 1_555
C15 C14 1_555 1_555
H9 C15 1_555 1_555
C16 C11 1_555 1_555
C17 C16 1_555 1_555
C18 C10 1_555 1_555
C19 C18 1_555 1_555
H10 C19 1_555 1_555
C20 C8 1_555 1_555
C21 C22 1_555 1_555
C22 H11 1_555 1_555
C23 C22 1_555 1_555
H12 C23 1_555 1_555
C24 C23 1_555 1_555
H13 C24 1_555 1_555
C25 C24 1_555 1_555
H14 C25 1_555 1_555
C26 C21 1_555 1_555
H15 C26 1_555 1_555
C27 C17 1_555 1_555
H16 C27 1_555 1_555
H17 C27 1_555 1_555
C28 C27 1_555 1_555
H18 C28 1_555 1_555
H19 C28 1_555 1_555
H20 C28 1_555 1_555
C29 C17 1_555 1_555
H21 C29 1_555 1_555
H22 C29 1_555 1_555
C30 C29 1_555 1_555
H23 C30 1_555 1_555
H24 C30 1_555 1_555
H25 C30 1_555 1_555
N1 C7 1_555 1_555
N2 C7 1_555 1_555
C5 C6 1_555 1_555
C8 N1 1_555 1_555
C15 C16 1_555 1_555
C17 C18 1_555 1_555
C19 C20 1_555 1_555
C20 N2 1_555 1_555
C21 N2 1_555 1_555
C25 C26 1_555 1_555

#END
