
#######################################################################
#
#                 Cambridge Crystallographic Data Centre
#                                CCDC 
#
#######################################################################
#
# If this CIF has been generated from an entry in the Cambridge 
# Structural Database, then it will include bibliographic, chemical, 
# crystal, experimental, refinement or atomic coordinate data resulting 
# from the CCDC's data processing and validation procedures.
#
#######################################################################

data_TARNIK
_chemical_name_common            
'3,11,19,27-Tetrathia-7,15:23,31-bis(crown-5)-6,8,14,16,22,24,30,32,33,34,35,36-dodecamethyl-(3.3.3.3)metacyclophane chloroform solvate'
_chemical_formula_moiety         'C60 H84 O10 S4,C1 H1 Cl3'
_chemical_name_systematic        
'2,8,10,26,28,34,36,52,56,57,58,62-Dodecamethyl-12,15,18,21,24,38,41,44,47,50-decaoxa-5,31,54,60-tetrathiaheptacyclo(33.17.3.3^9,27^.1^3,51^.1^7,11^.1^25,29^.1^33,37^)dohexaconta-1,3(56),7(62),8,10,25(58),26,28,33(57),34,36,51-dodecaene chloroform solvate'
_symmetry_cell_setting           triclinic
_symmetry_space_group_name_H-M   'P -1'
_symmetry_Int_Tables_number      2
_space_group_name_Hall           '-P 1'
loop_
_symmetry_equiv_pos_site_id
_symmetry_equiv_pos_as_xyz
1 x,y,z
2 -x,-y,-z
_cell_length_a                   11.9764(2)
_cell_length_b                   16.0319(1)
_cell_length_c                   17.4826(3)
_cell_angle_alpha                73.985(1)
_cell_angle_beta                 86.742(1)
_cell_angle_gamma                82.634(1)
_cell_volume                     3199.02
_exptl_crystal_colour            colorless
_exptl_crystal_description       'rectangular cube'
_cell_formula_units_Z            2
loop_
_atom_site_label
_atom_site_type_symbol
_atom_site_fract_x
_atom_site_fract_y
_atom_site_fract_z
S1 S 0.67852(17) 0.29788(13) 0.23721(12)
S2 S 0.92300(14) 0.64367(10) 0.18037(10)
S3 S 0.75617(16) 0.90858(14) 0.37688(12)
S4 S 0.3817(2) 0.72151(12) 0.20643(11)
O1 O 0.7583(4) 0.5220(3) -0.0664(2)
O2 O 0.7060(5) 0.6981(3) -0.1718(3)
O3 O 0.7503(4) 0.8797(3) -0.2234(3)
O4 O 0.7879(5) 0.9848(4) -0.1138(3)
O5 O 0.8761(4) 1.0103(3) 0.0328(3)
O6 O 0.2690(4) 0.9339(4) 0.4146(3)
O7 O 0.0871(7) 0.8573(6) 0.5129(4)
O8 O 0.0774(5) 0.6701(4) 0.5682(3)
O9 O 0.1765(10) 0.4778(9) 0.5401(7)
O10 O 0.3235(5) 0.3893(4) 0.4397(4)
C1 C 0.8044(5) 0.4955(4) 0.0085(4)
C2 C 0.8716(5) 0.5486(4) 0.0307(3)
C3 C 0.9268(5) 0.5170(4) 0.1033(4)
C4 C 0.9098(5) 0.4343(4) 0.1547(4)
C5 C 0.8382(5) 0.3841(4) 0.1321(4)
C6 C 0.7870(5) 0.4128(4) 0.0574(4)
C7 C 0.7145(7) 0.3581(5) 0.0294(5)
H1 H 0.7112 0.3035 0.0691
H2 H 0.7458 0.3473 -0.0193
H3 H 0.6399 0.3884 0.0202
C8 C 0.8861(6) 0.6374(4) -0.0239(4)
H4 H 0.9354 0.6655 -0.0001
H5 H 0.8142 0.6722 -0.0324
H6 H 0.9181 0.6313 -0.0739
C9 C 0.9747(7) 0.4018(4) 0.2315(4)
H7 H 1.0189 0.4459 0.2364
H8 H 1.0235 0.3496 0.2307
H9 H 0.9227 0.3893 0.2759
C10 C 0.8164(6) 0.2958(4) 0.1871(4)
H10 H 0.8743 0.2767 0.2268
H11 H 0.8219 0.2534 0.1563
C11 C 1.0038(5) 0.5725(4) 0.1265(4)
H12 H 1.0388 0.6076 0.0792
H13 H 1.0627 0.5355 0.1599
C12 C 0.6521(6) 0.5761(5) -0.0724(4)
H14 H 0.6504 0.6144 -0.0379
H15 H 0.5913 0.5399 -0.0559
C13 C 0.6375(7) 0.6290(5) -0.1569(5)
H16 H 0.6597 0.5926 -0.1925
H17 H 0.5592 0.6525 -0.1660
C14 C 0.7014(8) 0.7521(6) -0.2527(5)
H18 H 0.6262 0.7827 -0.2636
H19 H 0.7190 0.7162 -0.2892
C15 C 0.7841(8) 0.8157(6) -0.2636(6)
H20 H 0.8564 0.7850 -0.2440
H21 H 0.7934 0.8438 -0.3199
C16 C 0.8311(7) 0.9389(7) -0.2316(5)
H22 H 0.8503 0.9614 -0.2876
H23 H 0.8990 0.9083 -0.2045
C17 C 0.7889(9) 1.0127(6) -0.1984(6)
H24 H 0.8368 1.0591 -0.2170
H25 H 0.7133 1.0357 -0.2167
C18 C 0.7559(8) 1.0530(5) -0.0781(6)
H26 H 0.6792 1.0779 -0.0922
H27 H 0.8046 1.0985 -0.0979
C19 C 0.7634(7) 1.0207(5) 0.0095(5)
H28 H 0.7188 1.0618 0.0339
H29 H 0.7331 0.9651 0.0278
C20 C 0.8995(5) 0.9510(4) 0.1058(4)
C21 C 0.9438(5) 0.8659(4) 0.1058(4)
C22 C 0.9720(5) 0.8068(4) 0.1793(4)
C23 C 0.9501(5) 0.8308(4) 0.2498(4)
C24 C 0.9076(5) 0.9175(4) 0.2483(4)
C25 C 0.8859(5) 0.9781(4) 0.1755(5)
C26 C 0.8466(6) 1.0740(4) 0.1677(5)
H30 H 0.8410 1.0840 0.2195
H31 H 0.7742 1.0893 0.1435
H32 H 0.8997 1.1093 0.1352
C27 C 0.9670(7) 0.7630(5) 0.3302(4)
H33 H 0.9481 0.7907 0.3722
H34 H 1.0442 0.7376 0.3344
H35 H 0.9193 0.7181 0.3345
C28 C 0.9600(7) 0.8412(4) 0.0287(4)
H36 H 0.9909 0.7810 0.0390
H37 H 1.0107 0.8773 -0.0057
H38 H 0.8887 0.8495 0.0035
C29 C 1.0269(5) 0.7166(4) 0.1800(4)
H39 H 1.0727 0.6931 0.2268
H40 H 1.0761 0.7202 0.1334
C30 C 0.8851(6) 0.9427(5) 0.3241(4)
H41 H 0.8814 1.0057 0.3126
H42 H 0.9481 0.9174 0.3590
C31 C 0.6519(6) 0.9538(5) 0.3006(5)
H43 H 0.6302 1.0152 0.2969
H44 H 0.6836 0.9491 0.2495
C32 C 0.5499(5) 0.9051(4) 0.3209(4)
C33 C 0.5455(5) 0.8272(4) 0.3005(4)
C34 C 0.4513(5) 0.7819(4) 0.3227(4)
C35 C 0.3596(6) 0.8166(5) 0.3618(4)
C36 C 0.3672(6) 0.8949(5) 0.3813(4)
C37 C 0.4588(6) 0.9397(4) 0.3631(4)
C38 C 0.4590(7) 1.0252(5) 0.3835(5)
H45 H 0.5291 1.0481 0.3661
H46 H 0.4498 1.0158 0.4400
H47 H 0.3980 1.0660 0.3573
C39 C 0.2511(7) 0.7742(7) 0.3805(6)
H48 H 0.1987 0.8075 0.4075
H49 H 0.2671 0.7157 0.4139
H50 H 0.2192 0.7726 0.3318
C40 C 0.6435(7) 0.7929(6) 0.2537(5)
H51 H 0.7004 0.8319 0.2438
H52 H 0.6172 0.7893 0.2040
H53 H 0.6746 0.7359 0.2840
C41 C 0.4463(6) 0.6965(4) 0.3025(4)
H54 H 0.4021 0.6590 0.3427
H55 H 0.5216 0.6664 0.3006
C42 C 0.2696(9) 0.9095(7) 0.4971(5)
H56 H 0.3117 0.9475 0.5159
H57 H 0.3050 0.8499 0.5165
C43 C 0.1488(11) 0.9167(9) 0.5271(7)
H58 H 0.1485 0.9097 0.5840
H59 H 0.1127 0.9749 0.5022
C44 C 0.0239(10) 0.8154(7) 0.5754(6)
H60 H -0.0410 0.8547 0.5844
H61 H 0.0680 0.7967 0.6233
C45 C -0.0132(8) 0.7393(6) 0.5572(5)
H62 H -0.0763 0.7198 0.5919
H63 H -0.0378 0.7553 0.5026
C46 C 0.0504(8) 0.5947(6) 0.5485(7)
H64 H -0.0193 0.5771 0.5755
H65 H 0.0399 0.6081 0.4916
C47 C 0.136(2) 0.5280(8) 0.5710(14)
H66 H 0.1981 0.5562 0.5815
H67 H 0.1112 0.4936 0.6226
C48 C 0.2493(13) 0.3972(12) 0.5612(7)
H68 H 0.2693 0.3836 0.6167
H69 H 0.2108 0.3502 0.5543
C49 C 0.3444(9) 0.4045(9) 0.5139(6)
H70 H 0.4053 0.3624 0.5403
H71 H 0.3669 0.4626 0.5048
C50 C 0.3906(6) 0.4252(5) 0.3755(4)
C51 C 0.4979(7) 0.3835(6) 0.3669(4)
C52 C 0.5660(6) 0.4224(5) 0.3018(4)
C53 C 0.5269(6) 0.5000(4) 0.2475(4)
C54 C 0.4151(5) 0.5363(4) 0.2548(4)
C55 C 0.3462(6) 0.4989(4) 0.3201(4)
C56 C 0.2261(6) 0.5369(5) 0.3302(5)
H72 H 0.2085 0.5887 0.2875
H73 H 0.2173 0.5514 0.3801
H74 H 0.1763 0.4948 0.3294
C57 C 0.5374(10) 0.2949(7) 0.4235(6)
H75 H 0.6133 0.2762 0.4094
H76 H 0.4892 0.2529 0.4196
H77 H 0.5347 0.2998 0.4771
C58 C 0.6001(7) 0.5431(5) 0.1784(5)
H78 H 0.5592 0.5959 0.1474
H79 H 0.6210 0.5040 0.1458
H80 H 0.6667 0.5567 0.1982
C59 C 0.6841(6) 0.3788(5) 0.2921(4)
H81 H 0.7159 0.3507 0.3440
H82 H 0.7318 0.4224 0.2635
C60 C 0.3648(6) 0.6157(4) 0.1919(4)
H83 H 0.2849 0.6121 0.1895
H84 H 0.3986 0.6132 0.1407
C61 C 0.4439(14) 1.1312(7) 0.0938(7)
H85 H 0.3685 1.1379 0.1178
Cl1 Cl 0.5356(4) 1.1752(3) 0.1416(3)
Cl2 Cl 0.4912(5) 1.0197(3) 0.1130(3)
Cl3 Cl 0.4367(5) 1.1818(3) -0.0065(3)
C62? C 0.427(2) 1.1435(10) 0.0770(15)
H86? H 0.3696 1.1387 0.1200
Cl4? Cl 0.5311(10) 1.2016(8) 0.0947(8)
Cl5? Cl 0.4836(11) 1.0389(7) 0.0732(7)
Cl6? Cl 0.3624(11) 1.1972(7) -0.0143(7)
C63? C 0.122(2) 0.5232(7) 0.586(2)
O11? O 0.2209(14) 0.5223(19) 0.527(2)
C64? C 0.293(3) 0.441(3) 0.559(2)
C65? C 0.384(2) 0.439(2) 0.5085(9)
loop_
_geom_bond_atom_site_label_1
_geom_bond_atom_site_label_2
_geom_bond_site_symmetry_1
_geom_bond_site_symmetry_2
S1 C10 1_555 1_555
S2 C11 1_555 1_555
S3 C30 1_555 1_555
S4 C41 1_555 1_555
O1 C1 1_555 1_555
O2 C13 1_555 1_555
O3 C15 1_555 1_555
O4 C17 1_555 1_555
O5 C19 1_555 1_555
O6 C36 1_555 1_555
O7 C43 1_555 1_555
O8 C45 1_555 1_555
O9 C47 1_555 1_555
O10 C49 1_555 1_555
C1 C2 1_555 1_555
C2 C3 1_555 1_555
C3 C4 1_555 1_555
C4 C5 1_555 1_555
C5 C6 1_555 1_555
C6 C1 1_555 1_555
C7 C6 1_555 1_555
H1 C7 1_555 1_555
H2 C7 1_555 1_555
H3 C7 1_555 1_555
C8 C2 1_555 1_555
H4 C8 1_555 1_555
H5 C8 1_555 1_555
H6 C8 1_555 1_555
C9 C4 1_555 1_555
H7 C9 1_555 1_555
H8 C9 1_555 1_555
H9 C9 1_555 1_555
C10 C5 1_555 1_555
H10 C10 1_555 1_555
H11 C10 1_555 1_555
C11 C3 1_555 1_555
H12 C11 1_555 1_555
H13 C11 1_555 1_555
C12 O1 1_555 1_555
H14 C12 1_555 1_555
H15 C12 1_555 1_555
C13 C12 1_555 1_555
H16 C13 1_555 1_555
H17 C13 1_555 1_555
C14 O2 1_555 1_555
H18 C14 1_555 1_555
H19 C14 1_555 1_555
C15 C14 1_555 1_555
H20 C15 1_555 1_555
H21 C15 1_555 1_555
C16 O3 1_555 1_555
H22 C16 1_555 1_555
H23 C16 1_555 1_555
C17 C16 1_555 1_555
H24 C17 1_555 1_555
H25 C17 1_555 1_555
C18 O4 1_555 1_555
H26 C18 1_555 1_555
H27 C18 1_555 1_555
C19 C18 1_555 1_555
H28 C19 1_555 1_555
H29 C19 1_555 1_555
C20 O5 1_555 1_555
C21 C20 1_555 1_555
C22 C21 1_555 1_555
C23 C22 1_555 1_555
C24 C23 1_555 1_555
C25 C20 1_555 1_555
C26 C25 1_555 1_555
H30 C26 1_555 1_555
H31 C26 1_555 1_555
H32 C26 1_555 1_555
C27 C23 1_555 1_555
H33 C27 1_555 1_555
H34 C27 1_555 1_555
H35 C27 1_555 1_555
C28 C21 1_555 1_555
H36 C28 1_555 1_555
H37 C28 1_555 1_555
H38 C28 1_555 1_555
C29 S2 1_555 1_555
H39 C29 1_555 1_555
H40 C29 1_555 1_555
C30 C24 1_555 1_555
H41 C30 1_555 1_555
H42 C30 1_555 1_555
C31 S3 1_555 1_555
H43 C31 1_555 1_555
H44 C31 1_555 1_555
C32 C31 1_555 1_555
C33 C32 1_555 1_555
C34 C33 1_555 1_555
C35 C34 1_555 1_555
C36 C35 1_555 1_555
C37 C32 1_555 1_555
C38 C37 1_555 1_555
H45 C38 1_555 1_555
H46 C38 1_555 1_555
H47 C38 1_555 1_555
C39 C35 1_555 1_555
H48 C39 1_555 1_555
H49 C39 1_555 1_555
H50 C39 1_555 1_555
C40 C33 1_555 1_555
H51 C40 1_555 1_555
H52 C40 1_555 1_555
H53 C40 1_555 1_555
C41 C34 1_555 1_555
H54 C41 1_555 1_555
H55 C41 1_555 1_555
C42 O6 1_555 1_555
H56 C42 1_555 1_555
H57 C42 1_555 1_555
C43 C42 1_555 1_555
H58 C43 1_555 1_555
H59 C43 1_555 1_555
C44 O7 1_555 1_555
H60 C44 1_555 1_555
H61 C44 1_555 1_555
C45 C44 1_555 1_555
H62 C45 1_555 1_555
H63 C45 1_555 1_555
C46 O8 1_555 1_555
H64 C46 1_555 1_555
H65 C46 1_555 1_555
C47 C46 1_555 1_555
H66 C47 1_555 1_555
H67 C47 1_555 1_555
C48 O9 1_555 1_555
H68 C48 1_555 1_555
H69 C48 1_555 1_555
C49 C48 1_555 1_555
H70 C49 1_555 1_555
H71 C49 1_555 1_555
C50 O10 1_555 1_555
C51 C50 1_555 1_555
C52 C51 1_555 1_555
C53 C52 1_555 1_555
C54 C53 1_555 1_555
C55 C50 1_555 1_555
C56 C55 1_555 1_555
H72 C56 1_555 1_555
H73 C56 1_555 1_555
H74 C56 1_555 1_555
C57 C51 1_555 1_555
H75 C57 1_555 1_555
H76 C57 1_555 1_555
H77 C57 1_555 1_555
C58 C53 1_555 1_555
H78 C58 1_555 1_555
H79 C58 1_555 1_555
H80 C58 1_555 1_555
C59 S1 1_555 1_555
H81 C59 1_555 1_555
H82 C59 1_555 1_555
C60 S4 1_555 1_555
H83 C60 1_555 1_555
H84 C60 1_555 1_555
C61 H85 1_555 1_555
Cl1 C61 1_555 1_555
Cl2 C61 1_555 1_555
Cl3 C61 1_555 1_555
C22 C29 1_555 1_555
C24 C25 1_555 1_555
C36 C37 1_555 1_555
C52 C59 1_555 1_555
C54 C55 1_555 1_555
C54 C60 1_555 1_555

#END
