
#######################################################################
#
#                 Cambridge Crystallographic Data Centre
#                                CCDC 
#
#######################################################################
#
# If this CIF has been generated from an entry in the Cambridge 
# Structural Database, then it will include bibliographic, chemical, 
# crystal, experimental, refinement or atomic coordinate data resulting 
# from the CCDC's data processing and validation procedures.
#
#######################################################################

data_TASMEI
_chemical_formula_moiety         'C18 H17 Br1 O3 S1'
_chemical_name_systematic        
2-(bromomethyl)-4-(methylsulfonyl)-2,5-diphenyl-2,3-dihydrofuran
_symmetry_cell_setting           triclinic
_symmetry_space_group_name_H-M   'P -1'
_symmetry_Int_Tables_number      2
_space_group_name_Hall           '-P 1'
loop_
_symmetry_equiv_pos_site_id
_symmetry_equiv_pos_as_xyz
1 x,y,z
2 -x,-y,-z
_cell_length_a                   7.199(5)
_cell_length_b                   13.752(9)
_cell_length_c                   17.953(12)
_cell_angle_alpha                70.844(10)
_cell_angle_beta                 88.143(16)
_cell_angle_gamma                87.891(15)
_cell_volume                     1677.42
_exptl_crystal_colour            colorless
_exptl_crystal_description       Tabullar
_cell_formula_units_Z            4
loop_
_atom_site_label
_atom_site_type_symbol
_atom_site_fract_x
_atom_site_fract_y
_atom_site_fract_z
Br1 Br 0.5475(2) 0.16363(11) 0.70889(9)
C1 C 0.363(3) 0.2042(17) 0.6125(13)
H1 H 0.4029 0.2694 0.5728
H2 H 0.3710 0.1500 0.5872
C2 C 0.159(3) 0.2173(15) 0.6378(13)
C3 C 0.092(3) 0.1110(16) 0.7019(14)
H3 H -0.0210 0.0854 0.6854
H4 H 0.1915 0.0567 0.7134
C4 C 0.053(3) 0.1510(14) 0.7714(13)
C5 C 0.091(3) 0.2518(15) 0.7532(12)
C6 C 0.084(3) 0.3278(16) 0.7948(12)
C7 C 0.176(3) 0.3078(17) 0.8651(12)
H5 H 0.2332 0.2420 0.8887
C8 C 0.185(3) 0.3823(15) 0.9019(13)
H6 H 0.2501 0.3695 0.9496
C9 C 0.096(3) 0.4750(17) 0.8660(14)
H7 H 0.0939 0.5266 0.8907
C10 C 0.011(3) 0.4947(19) 0.7975(15)
H8 H -0.0472 0.5602 0.7732
C11 C 0.007(3) 0.4200(16) 0.7618(15)
H9 H -0.0516 0.4352 0.7125
C12 C 0.174(4) -0.0115(17) 0.8987(14)
H10 H 0.2736 0.0301 0.9076
H11 H 0.2179 -0.0451 0.8607
H12 H 0.1400 -0.0640 0.9487
C13 C 0.038(3) 0.2484(15) 0.5645(13)
C14 C -0.054(4) 0.3452(16) 0.5411(14)
H13 H -0.0457 0.3901 0.5713
C15 C -0.156(4) 0.374(2) 0.4727(17)
H14 H -0.2105 0.4409 0.4531
C16 C -0.177(4) 0.3034(18) 0.4328(15)
H15 H -0.2527 0.3220 0.3876
C17 C -0.091(3) 0.2074(17) 0.4580(14)
H16 H -0.1062 0.1605 0.4299
C18 C 0.016(3) 0.1797(17) 0.5245(13)
H17 H 0.0757 0.1135 0.5424
O1 O 0.146(2) 0.2931(10) 0.6755(8)
O2 O -0.158(2) 0.0045(12) 0.8470(10)
O3 O -0.069(2) 0.1227(11) 0.9144(9)
S1 S -0.0196(8) 0.0680(4) 0.8615(3)
Br2 Br -0.0783(2) 0.20785(11) 0.22806(9)
C19 C 0.128(3) 0.2456(15) 0.1331(12)
H18 H 0.1226 0.1951 0.1047
H19 H 0.0962 0.3144 0.0953
C20 C 0.321(3) 0.2463(15) 0.1598(13)
C21 C 0.384(3) 0.1476(16) 0.2259(13)
H20 H 0.2904 0.0935 0.2372
H21 H 0.5048 0.1200 0.2121
C22 C 0.402(3) 0.1863(16) 0.2938(13)
C23 C 0.384(3) 0.2907(13) 0.2705(12)
C24 C 0.396(3) 0.3713(17) 0.3062(13)
C25 C 0.318(3) 0.3604(16) 0.3819(13)
H22 H 0.2541 0.3000 0.4111
C26 C 0.336(3) 0.4383(16) 0.4116(13)
H23 H 0.2851 0.4310 0.4626
C27 C 0.430(3) 0.5325(15) 0.3685(13)
H24 H 0.4449 0.5858 0.3905
C28 C 0.498(4) 0.540(2) 0.2920(17)
H25 H 0.5535 0.6023 0.2600
C29 C 0.485(4) 0.4611(16) 0.2639(15)
H26 H 0.5395 0.4668 0.2138
C30 C 0.285(3) 0.0199(19) 0.4113(14)
H27 H 0.2958 -0.0227 0.4668
H28 H 0.2875 -0.0245 0.3783
H29 H 0.1676 0.0600 0.4041
C31 C 0.451(3) 0.2676(16) 0.0880(12)
C32 C 0.539(3) 0.3607(17) 0.0575(14)
H30 H 0.5161 0.4134 0.0803
C33 C 0.663(3) 0.377(2) -0.0085(15)
H31 H 0.7356 0.4369 -0.0256
C34 C 0.678(3) 0.306(2) -0.0479(18)
H32 H 0.7545 0.3186 -0.0941
C35 C 0.579(4) 0.2133(18) -0.0188(14)
H33 H 0.5867 0.1634 -0.0450
C36 C 0.471(3) 0.1979(15) 0.0482(12)
H34 H 0.4058 0.1354 0.0682
O4 O 0.334(2) 0.3286(11) 0.1930(9)
O5 O 0.628(3) 0.0481(11) 0.3697(11)
O6 O 0.485(2) 0.1544(10) 0.4413(9)
S2 S 0.4722(8) 0.1043(4) 0.3839(3)
loop_
_geom_bond_atom_site_label_1
_geom_bond_atom_site_label_2
_geom_bond_site_symmetry_1
_geom_bond_site_symmetry_2
Br1 C1 1_555 1_555
C1 H1 1_555 1_555
H2 C1 1_555 1_555
C2 C1 1_555 1_555
C3 C2 1_555 1_555
H3 C3 1_555 1_555
H4 C3 1_555 1_555
C4 C3 1_555 1_555
C5 C4 1_555 1_555
C6 C5 1_555 1_555
C7 C6 1_555 1_555
H5 C7 1_555 1_555
C8 C7 1_555 1_555
H6 C8 1_555 1_555
C9 C8 1_555 1_555
H7 C9 1_555 1_555
C10 C9 1_555 1_555
H8 C10 1_555 1_555
C11 C6 1_555 1_555
H9 C11 1_555 1_555
C12 H10 1_555 1_555
H11 C12 1_555 1_555
H12 C12 1_555 1_555
C13 C2 1_555 1_555
C14 C13 1_555 1_555
H13 C14 1_555 1_555
C15 C14 1_555 1_555
H14 C15 1_555 1_555
C16 C15 1_555 1_555
H15 C16 1_555 1_555
C17 C16 1_555 1_555
H16 C17 1_555 1_555
C18 C13 1_555 1_555
H17 C18 1_555 1_555
O1 C2 1_555 1_555
O2 S1 1_555 1_555
O3 S1 1_555 1_555
S1 C4 1_555 1_555
Br2 C19 1_555 1_555
C19 H18 1_555 1_555
H19 C19 1_555 1_555
C20 C19 1_555 1_555
C21 C20 1_555 1_555
H20 C21 1_555 1_555
H21 C21 1_555 1_555
C22 C21 1_555 1_555
C23 C22 1_555 1_555
C24 C23 1_555 1_555
C25 C24 1_555 1_555
H22 C25 1_555 1_555
C26 C25 1_555 1_555
H23 C26 1_555 1_555
C27 C26 1_555 1_555
H24 C27 1_555 1_555
C28 C27 1_555 1_555
H25 C28 1_555 1_555
C29 C24 1_555 1_555
H26 C29 1_555 1_555
C30 H27 1_555 1_555
H28 C30 1_555 1_555
H29 C30 1_555 1_555
C31 C20 1_555 1_555
C32 C31 1_555 1_555
H30 C32 1_555 1_555
C33 C32 1_555 1_555
H31 C33 1_555 1_555
C34 C33 1_555 1_555
H32 C34 1_555 1_555
C35 C34 1_555 1_555
H33 C35 1_555 1_555
C36 C31 1_555 1_555
H34 C36 1_555 1_555
O4 C20 1_555 1_555
O5 S2 1_555 1_555
O6 S2 1_555 1_555
S2 C22 1_555 1_555
C5 O1 1_555 1_555
C10 C11 1_555 1_555
C12 S1 1_555 1_555
C17 C18 1_555 1_555
C23 O4 1_555 1_555
C28 C29 1_555 1_555
C30 S2 1_555 1_555
C35 C36 1_555 1_555

#END
