
#######################################################################
#
#                 Cambridge Crystallographic Data Centre
#                                CCDC 
#
#######################################################################
#
# If this CIF has been generated from an entry in the Cambridge 
# Structural Database, then it will include bibliographic, chemical, 
# crystal, experimental, refinement or atomic coordinate data resulting 
# from the CCDC's data processing and validation procedures.
#
#######################################################################

data_TATBUN
_chemical_formula_moiety         'C43 H52 O8 S2'
_chemical_name_systematic        
'(14,19-bis(Methoxymethyl)nonacyclo[10.8.1.1^4,9^.1^15,18^.0^2,11^.0^3,10^.0^5,8^.0^13,20^.0^14,19^]tricos-16-ene-6,7-diyl)bis(methylene) bis(4-methylbenzenesulfonate)'
_symmetry_cell_setting           monoclinic
_symmetry_space_group_name_H-M   'P 21/n'
_symmetry_Int_Tables_number      14
_space_group_name_Hall           '-P 2yn'
loop_
_symmetry_equiv_pos_site_id
_symmetry_equiv_pos_as_xyz
1 x,y,z
2 1/2-x,1/2+y,1/2-z
3 -x,-y,-z
4 1/2+x,1/2-y,1/2+z
_cell_length_a                   9.489(3)
_cell_length_b                   37.749(13)
_cell_length_c                   11.204(4)
_cell_angle_alpha                90
_cell_angle_beta                 109.795(7)
_cell_angle_gamma                90
_cell_volume                     3776.13
_exptl_crystal_colour            colorless
_exptl_crystal_description       'very thin plate'
_cell_formula_units_Z            4
loop_
_atom_site_label
_atom_site_type_symbol
_atom_site_fract_x
_atom_site_fract_y
_atom_site_fract_z
S1 S 1.44320(15) 1.03583(4) 0.74986(15)
S2 S 0.87040(18) 1.13643(4) 0.81945(18)
O1 O 0.4929(4) 0.80184(9) 0.6664(4)
O2 O 0.9623(5) 0.79758(11) 0.4380(4)
O3 O 0.9341(4) 1.09876(9) 0.8688(3)
O4 O 1.2743(3) 1.04790(9) 0.7145(3)
O5 O 0.9885(4) 1.15998(10) 0.8869(4)
O6 O 0.8159(5) 1.13597(11) 0.6840(4)
O7 O 1.5202(4) 1.04214(9) 0.8811(3)
O8 O 1.4904(4) 1.05246(9) 0.6556(3)
C1 C 0.8380(7) 0.74310(15) 0.6845(7)
H1 H 0.8748 0.7207 0.7300
H2 H 0.7599 0.7384 0.6014
C2 C 0.9662(7) 0.76756(15) 0.6748(6)
H3 H 1.0313 0.7571 0.6300
C3 C 0.8714(6) 0.80072(13) 0.6084(6)
C4 C 0.7485(6) 0.80301(13) 0.6726(5)
C5 C 0.7889(6) 0.77081(14) 0.7661(6)
H4 H 0.7085 0.7629 0.7992
C6 C 0.9416(8) 0.77800(14) 0.8660(7)
H5 H 0.9594 0.7832 0.9528
C7 C 1.0433(8) 0.77575(14) 0.8124(7)
H6 H 1.1481 0.7788 0.8533
C8 C 0.8296(7) 0.79597(15) 0.4673(6)
H7 H 0.7798 0.7728 0.4412
H8 H 0.7599 0.8149 0.4220
C9 C 0.9405(9) 0.78649(19) 0.3133(7)
H9 H 1.0352 0.7881 0.2967
H10 H 0.8655 0.8017 0.2536
H11 H 0.9053 0.7619 0.3026
C10 C 0.5845(6) 0.79957(14) 0.5896(6)
H12 H 0.5579 0.8187 0.5254
H13 H 0.5680 0.7766 0.5446
C11 C 0.3410(6) 0.79430(16) 0.5921(6)
H14 H 0.3087 0.8103 0.5189
H15 H 0.2771 0.7977 0.6439
H16 H 0.3330 0.7697 0.5624
C12 C 0.9337(5) 0.83757(12) 0.6648(5)
H17 H 1.0377 0.8360 0.7273
C13 C 0.9079(5) 0.87149(13) 0.5866(5)
H18 H 0.9497 0.8716 0.5158
C14 C 0.9656(5) 0.90093(12) 0.6852(5)
H19 H 1.0700 0.8972 0.7449
C15 C 0.8445(5) 0.90278(12) 0.7512(5)
H20 H 0.8853 0.8996 0.8453
C16 C 0.7329(5) 0.87408(13) 0.6808(5)
H21 H 0.6307 0.8765 0.6870
C17 C 0.8116(5) 0.83899(12) 0.7315(5)
H22 H 0.8555 0.8383 0.8262
C18 C 0.7378(5) 0.87705(13) 0.5469(5)
H23 H 0.7057 0.9006 0.5086
H24 H 0.6800 0.8581 0.4900
C19 C 0.9289(5) 0.93977(13) 0.6407(5)
H25 H 0.8882 0.9430 0.5466
C20 C 1.0420(5) 0.96782(12) 0.7120(5)
H26 H 1.1430 0.9656 0.7030
C21 C 0.9644(5) 1.00358(12) 0.6699(5)
H27 H 0.9163 1.0059 0.5759
C22 C 0.8501(5) 1.00482(13) 0.7431(5)
H28 H 0.7447 1.0099 0.6881
C23 C 0.8703(5) 0.96930(12) 0.8102(5)
H29 H 0.8306 0.9681 0.8822
C24 C 0.8087(5) 0.94143(12) 0.7084(5)
H30 H 0.7037 0.9457 0.6506
C25 C 1.0413(5) 0.96358(13) 0.8480(4)
H31 H 1.1004 0.9821 0.9063
H32 H 1.0735 0.9397 0.8835
C26 C 0.9343(5) 1.03738(12) 0.8203(5)
H33 H 0.9932 1.0308 0.9099
C27 C 1.0342(5) 1.03841(13) 0.7357(5)
H34 H 1.0014 1.0584 0.6740
C28 C 1.2006(5) 1.04155(14) 0.8070(5)
H35 H 1.2205 1.0614 0.8682
H36 H 1.2389 1.0194 0.8544
C29 C 0.8366(6) 1.06859(12) 0.8142(5)
H37 H 0.7750 1.0736 0.7251
H38 H 0.7687 1.0639 0.8628
C30 C 0.7202(6) 1.14177(14) 0.8736(6)
C31 C 0.5743(7) 1.13543(14) 0.7950(6)
H39 H 0.5544 1.1276 0.7103
C32 C 0.4586(7) 1.14060(16) 0.8413(7)
H40 H 0.3589 1.1357 0.7879
C33 C 0.4836(7) 1.15270(17) 0.9635(7)
C34 C 0.6310(7) 1.15961(16) 1.0387(6)
H41 H 0.6513 1.1686 1.1221
C35 C 0.7471(7) 1.15372(15) 0.9949(6)
H42 H 0.8471 1.1579 1.0488
C36 C 0.3568(7) 1.1586(2) 1.0103(6)
H43 H 0.3951 1.1675 1.0975
H44 H 0.3040 1.1361 1.0083
H45 H 0.2876 1.1759 0.9560
C37 C 1.4290(5) 0.99059(14) 0.7225(5)
C38 C 1.3844(5) 0.97878(16) 0.5984(5)
H46 H 1.3739 0.9950 0.5312
C39 C 1.3552(6) 0.94325(17) 0.5726(6)
H47 H 1.3226 0.9353 0.4870
C40 C 1.3722(6) 0.91909(16) 0.6682(6)
C41 C 1.4217(6) 0.93108(15) 0.7927(6)
H48 H 1.4354 0.9147 0.8600
C42 C 1.4515(5) 0.96692(15) 0.8204(5)
H49 H 1.4869 0.9749 0.9059
C43 C 1.3312(6) 0.88094(15) 0.6386(6)
H50 H 1.2985 0.8773 0.5466
H51 H 1.2497 0.8746 0.6697
H52 H 1.4186 0.8660 0.6800
loop_
_geom_bond_atom_site_label_1
_geom_bond_atom_site_label_2
_geom_bond_site_symmetry_1
_geom_bond_site_symmetry_2
S1 O4 1_555 1_555
S2 O3 1_555 1_555
O1 C10 1_555 1_555
O2 C8 1_555 1_555
O3 C29 1_555 1_555
O4 C28 1_555 1_555
O5 S2 1_555 1_555
O6 S2 1_555 1_555
O7 S1 1_555 1_555
O8 S1 1_555 1_555
C1 H1 1_555 1_555
H2 C1 1_555 1_555
C2 C1 1_555 1_555
H3 C2 1_555 1_555
C3 C2 1_555 1_555
C4 C3 1_555 1_555
C5 C1 1_555 1_555
H4 C5 1_555 1_555
C6 C5 1_555 1_555
H5 C6 1_555 1_555
C7 C2 1_555 1_555
H6 C7 1_555 1_555
C8 C3 1_555 1_555
H7 C8 1_555 1_555
H8 C8 1_555 1_555
C9 O2 1_555 1_555
H9 C9 1_555 1_555
H10 C9 1_555 1_555
H11 C9 1_555 1_555
C10 C4 1_555 1_555
H12 C10 1_555 1_555
H13 C10 1_555 1_555
C11 O1 1_555 1_555
H14 C11 1_555 1_555
H15 C11 1_555 1_555
H16 C11 1_555 1_555
C12 C3 1_555 1_555
H17 C12 1_555 1_555
C13 C12 1_555 1_555
H18 C13 1_555 1_555
C14 C13 1_555 1_555
H19 C14 1_555 1_555
C15 C14 1_555 1_555
H20 C15 1_555 1_555
C16 C15 1_555 1_555
H21 C16 1_555 1_555
C17 C4 1_555 1_555
H22 C17 1_555 1_555
C18 C13 1_555 1_555
H23 C18 1_555 1_555
H24 C18 1_555 1_555
C19 C14 1_555 1_555
H25 C19 1_555 1_555
C20 C19 1_555 1_555
H26 C20 1_555 1_555
C21 C20 1_555 1_555
H27 C21 1_555 1_555
C22 C21 1_555 1_555
H28 C22 1_555 1_555
C23 C22 1_555 1_555
H29 C23 1_555 1_555
C24 C15 1_555 1_555
H30 C24 1_555 1_555
C25 C20 1_555 1_555
H31 C25 1_555 1_555
H32 C25 1_555 1_555
C26 C22 1_555 1_555
H33 C26 1_555 1_555
C27 C21 1_555 1_555
H34 C27 1_555 1_555
C28 C27 1_555 1_555
H35 C28 1_555 1_555
H36 C28 1_555 1_555
C29 C26 1_555 1_555
H37 C29 1_555 1_555
H38 C29 1_555 1_555
C30 S2 1_555 1_555
C31 C30 1_555 1_555
H39 C31 1_555 1_555
C32 C31 1_555 1_555
H40 C32 1_555 1_555
C33 C32 1_555 1_555
C34 C33 1_555 1_555
H41 C34 1_555 1_555
C35 C30 1_555 1_555
H42 C35 1_555 1_555
C36 C33 1_555 1_555
H43 C36 1_555 1_555
H44 C36 1_555 1_555
H45 C36 1_555 1_555
C37 S1 1_555 1_555
C38 C37 1_555 1_555
H46 C38 1_555 1_555
C39 C38 1_555 1_555
H47 C39 1_555 1_555
C40 C39 1_555 1_555
C41 C40 1_555 1_555
H48 C41 1_555 1_555
C42 C37 1_555 1_555
H49 C42 1_555 1_555
C43 C40 1_555 1_555
H50 C43 1_555 1_555
H51 C43 1_555 1_555
H52 C43 1_555 1_555
C4 C5 1_555 1_555
C6 C7 1_555 1_555
C12 C17 1_555 1_555
C16 C17 1_555 1_555
C16 C18 1_555 1_555
C19 C24 1_555 1_555
C23 C24 1_555 1_555
C23 C25 1_555 1_555
C26 C27 1_555 1_555
C34 C35 1_555 1_555
C41 C42 1_555 1_555

#END
