
#######################################################################
#
#                 Cambridge Crystallographic Data Centre
#                                CCDC 
#
#######################################################################
#
# If this CIF has been generated from an entry in the Cambridge 
# Structural Database, then it will include bibliographic, chemical, 
# crystal, experimental, refinement or atomic coordinate data resulting 
# from the CCDC's data processing and validation procedures.
#
#######################################################################

data_TATCEY
_chemical_formula_moiety         'C19 H18 Cl1 N1 O3 S1,C1 H1 Cl3'
_chemical_name_systematic        
'(S)-2-(2-Chlorophenyl)-4-methyl-1-((4-methylphenyl)sulfonyl)-2,5-dihydro-1H-pyrrole-3-carbaldehyde chloroform solvate'
_symmetry_cell_setting           triclinic
_symmetry_space_group_name_H-M   'P 1'
_symmetry_Int_Tables_number      1
_space_group_name_Hall           'P 1'
loop_
_symmetry_equiv_pos_site_id
_symmetry_equiv_pos_as_xyz
1 x,y,z
_cell_length_a                   9.172(3)
_cell_length_b                   9.485(3)
_cell_length_c                   13.601(5)
_cell_angle_alpha                100.969(4)
_cell_angle_beta                 98.970(4)
_cell_angle_gamma                90.120(3)
_cell_volume                     1146.8
_exptl_crystal_colour            colorless
_exptl_crystal_description       block
_cell_formula_units_Z            2
loop_
_atom_site_label
_atom_site_type_symbol
_atom_site_fract_x
_atom_site_fract_y
_atom_site_fract_z
C1 C 0.8296(8) -0.2094(7) 0.9197(6)
C2 C 0.7760(11) -0.2927(8) 0.9816(9)
H1 H 0.6865 -0.3440 0.9609
C3 C 0.8592(13) -0.2962(9) 1.0733(9)
H2 H 0.8258 -0.3501 1.1163
C4 C 0.9917(12) -0.2211(9) 1.1030(7)
H3 H 1.0473 -0.2239 1.1659
C5 C 1.0423(9) -0.1421(7) 1.0402(6)
H4 H 1.1336 -0.0937 1.0602
C6 C 0.9595(7) -0.1331(6) 0.9474(5)
C7 C 1.0175(7) -0.0368(6) 0.8832(5)
H5 H 0.9497 -0.0436 0.8191
C8 C 1.1737(7) -0.0676(7) 0.8618(5)
C9 C 1.2647(7) 0.0476(7) 0.8897(5)
C10 C 1.1827(7) 0.1744(6) 0.9354(5)
H6 H 1.2309 0.2156 1.0035
H7 H 1.1767 0.2480 0.8943
C11 C 1.2151(10) -0.2095(8) 0.8170(7)
H8 H 1.3131 -0.2227 0.8083
C12 C 1.4247(8) 0.0609(8) 0.8850(7)
H9 H 1.4626 -0.0329 0.8661
H10 H 1.4762 0.1067 0.9503
H11 H 1.4387 0.1177 0.8356
C13 C 0.8530(8) 0.2719(7) 0.8218(5)
C14 C 0.9030(9) 0.4021(7) 0.8061(6)
H12 H 0.9621 0.4641 0.8584
C15 C 0.8653(10) 0.4395(8) 0.7133(7)
H13 H 0.8984 0.5279 0.7039
C16 C 0.7795(10) 0.3496(9) 0.6334(7)
C17 C 0.7356(10) 0.2170(9) 0.6516(7)
H14 H 0.6820 0.1520 0.5982
C18 C 0.7675(9) 0.1786(7) 0.7436(6)
H15 H 0.7325 0.0913 0.7538
C19 C 0.7373(14) 0.3903(11) 0.5305(8)
H16 H 0.7116 0.4894 0.5393
H17 H 0.6543 0.3313 0.4929
H18 H 0.8193 0.3759 0.4940
Cl1 Cl 0.7175(2) -0.2105(2) 0.80135(18)
N1 N 1.0359(6) 0.1153(5) 0.9368(4)
O1 O 0.7753(5) 0.1362(5) 0.9527(4)
O2 O 0.9487(6) 0.3468(5) 1.0132(4)
O3 O 1.1306(7) -0.3113(5) 0.7903(5)
S1 S 0.89763(19) 0.22011(16) 0.94023(14)
C20 C 0.3926(8) 0.4534(7) 0.2003(6)
C21 C 0.3107(10) 0.5359(8) 0.1379(10)
H19 H 0.2308 0.5863 0.1593
C22 C 0.3475(12) 0.5422(9) 0.0474(10)
H20 H 0.2933 0.5994 0.0075
C23 C 0.4621(11) 0.4675(9) 0.0113(8)
H21 H 0.4832 0.4726 -0.0527
C24 C 0.5459(8) 0.3847(7) 0.0702(6)
H22 H 0.6244 0.3349 0.0460
C25 C 0.5143(7) 0.3752(6) 0.1652(6)
C26 C 0.6017(8) 0.2813(6) 0.2286(5)
H23 H 0.5654 0.2872 0.2932
C27 C 0.7664(8) 0.3131(6) 0.2465(5)
C28 C 0.8468(8) 0.1959(7) 0.2168(5)
C29 C 0.7437(7) 0.0701(6) 0.1763(5)
H24 H 0.7600 0.0239 0.1091
H25 H 0.7567 0.0005 0.2205
C30 C 0.4647(8) -0.0287(6) 0.2864(6)
C31 C 0.5289(9) -0.1564(7) 0.3039(7)
H26 H 0.5691 -0.2158 0.2530
C32 C 0.5323(9) -0.1941(8) 0.3972(7)
H27 H 0.5754 -0.2794 0.4086
C33 C 0.4739(9) -0.1092(9) 0.4730(7)
C34 C 0.4109(10) 0.0198(9) 0.4565(7)
H28 H 0.3709 0.0790 0.5076
C35 C 0.4087(9) 0.0579(8) 0.3645(7)
H29 H 0.3683 0.1447 0.3542
C36 C 0.4754(12) -0.1548(11) 0.5747(7)
H30 H 0.4063 -0.2338 0.5666
H31 H 0.4482 -0.0755 0.6229
H32 H 0.5727 -0.1836 0.5987
C37 C 1.0079(8) 0.1843(8) 0.2242(6)
H33 H 1.0351 0.1779 0.1581
H34 H 1.0381 0.0998 0.2501
H35 H 1.0558 0.2677 0.2690
C38 C 0.8276(9) 0.4567(8) 0.2893(6)
H36 H 0.9290 0.4709 0.2940
Cl2 Cl 0.3467(3) 0.4504(2) 0.31838(19)
N2 N 0.5968(6) 0.1280(5) 0.1727(4)
O4 O 0.7586(6) 0.5581(5) 0.3190(4)
O5 O 0.3269(5) 0.1083(5) 0.1556(4)
O6 O 0.4741(6) -0.1036(5) 0.0962(4)
S2 S 0.45673(18) 0.02214(16) 0.16901(14)
C39 C -0.0581(11) 0.8308(9) 0.4535(7)
H37 H -0.1455 0.7778 0.4122
Cl3 Cl -0.0737(5) 1.0068(3) 0.4424(3)
Cl4 Cl -0.0561(6) 0.8106(4) 0.5758(3)
Cl5 Cl 0.0979(4) 0.7568(4) 0.4052(3)
C40 C 0.2409(13) 0.4039(11) 0.6565(9)
H38 H 0.1805 0.4695 0.6968
Cl6 Cl 0.4225(5) 0.4518(6) 0.6994(5)
Cl7 Cl 0.1913(7) 0.4136(7) 0.5332(4)
Cl8 Cl 0.2033(6) 0.2306(4) 0.6700(3)
loop_
_geom_bond_atom_site_label_1
_geom_bond_atom_site_label_2
_geom_bond_site_symmetry_1
_geom_bond_site_symmetry_2
C1 C2 1_555 1_555
C2 H1 1_555 1_555
C3 C2 1_555 1_555
H2 C3 1_555 1_555
C4 C3 1_555 1_555
H3 C4 1_555 1_555
C5 C4 1_555 1_555
H4 C5 1_555 1_555
C6 C1 1_555 1_555
C7 C6 1_555 1_555
H5 C7 1_555 1_555
C8 C7 1_555 1_555
C9 C8 1_555 1_555
C10 C9 1_555 1_555
H6 C10 1_555 1_555
H7 C10 1_555 1_555
C11 C8 1_555 1_555
H8 C11 1_555 1_555
C12 C9 1_555 1_555
H9 C12 1_555 1_555
H10 C12 1_555 1_555
H11 C12 1_555 1_555
C13 C14 1_555 1_555
C14 H12 1_555 1_555
C15 C14 1_555 1_555
H13 C15 1_555 1_555
C16 C15 1_555 1_555
C17 C16 1_555 1_555
H14 C17 1_555 1_555
C18 C13 1_555 1_555
H15 C18 1_555 1_555
C19 C16 1_555 1_555
H16 C19 1_555 1_555
H17 C19 1_555 1_555
H18 C19 1_555 1_555
C20 C21 1_555 1_555
C21 H19 1_555 1_555
C22 C21 1_555 1_555
H20 C22 1_555 1_555
C23 C22 1_555 1_555
H21 C23 1_555 1_555
C24 C23 1_555 1_555
H22 C24 1_555 1_555
C25 C20 1_555 1_555
C26 C25 1_555 1_555
H23 C26 1_555 1_555
C27 C26 1_555 1_555
C28 C27 1_555 1_555
C29 C28 1_555 1_555
H24 C29 1_555 1_555
H25 C29 1_555 1_555
C30 C31 1_555 1_555
C31 H26 1_555 1_555
C32 C31 1_555 1_555
H27 C32 1_555 1_555
C33 C32 1_555 1_555
C34 C33 1_555 1_555
H28 C34 1_555 1_555
C35 C30 1_555 1_555
H29 C35 1_555 1_555
C36 C33 1_555 1_555
H30 C36 1_555 1_555
H31 C36 1_555 1_555
H32 C36 1_555 1_555
C37 C28 1_555 1_555
H33 C37 1_555 1_555
H34 C37 1_555 1_555
H35 C37 1_555 1_555
C38 C27 1_555 1_555
H36 C38 1_555 1_555
C39 H37 1_555 1_555
C40 H38 1_555 1_555
Cl1 C1 1_555 1_555
Cl2 C20 1_555 1_555
Cl3 C39 1_555 1_555
Cl4 C39 1_555 1_555
Cl5 C39 1_555 1_555
Cl6 C40 1_555 1_555
Cl7 C40 1_555 1_555
Cl8 C40 1_555 1_555
N1 C7 1_555 1_555
N2 C26 1_555 1_555
O1 S1 1_555 1_555
O2 S1 1_555 1_555
O3 C11 1_555 1_555
O4 C38 1_555 1_555
O5 S2 1_555 1_555
O6 S2 1_555 1_555
S1 C13 1_555 1_555
S2 C30 1_555 1_555
C5 C6 1_555 1_555
C10 N1 1_555 1_555
C17 C18 1_555 1_555
C24 C25 1_555 1_555
C29 N2 1_555 1_555
C34 C35 1_555 1_555
N1 S1 1_555 1_555
N2 S2 1_555 1_555

#END
