
#######################################################################
#
#                 Cambridge Crystallographic Data Centre
#                                CCDC 
#
#######################################################################
#
# If this CIF has been generated from an entry in the Cambridge 
# Structural Database, then it will include bibliographic, chemical, 
# crystal, experimental, refinement or atomic coordinate data resulting 
# from the CCDC's data processing and validation procedures.
#
#######################################################################

data_TATJON
_chemical_formula_moiety         'C21 H38 O1 Si4'
_chemical_name_systematic        
3-Phenyl-3-(trimethylsilyloxy)-2,2-bis(trimethylsilyl)-2-silabicyclo(2.2.1)hept-5-ene
_symmetry_cell_setting           monoclinic
_symmetry_space_group_name_H-M   'P 21/n'
_symmetry_Int_Tables_number      14
_space_group_name_Hall           '-P 2yn'
loop_
_symmetry_equiv_pos_site_id
_symmetry_equiv_pos_as_xyz
1 x,y,z
2 1/2-x,1/2+y,1/2-z
3 -x,-y,-z
4 1/2+x,1/2-y,1/2+z
_cell_length_a                   9.8865(2)
_cell_length_b                   18.0282(3)
_cell_length_c                   14.3975(2)
_cell_angle_alpha                90
_cell_angle_beta                 98.329(1)
_cell_angle_gamma                90
_cell_volume                     2539.08
_cell_formula_units_Z            4
loop_
_atom_site_label
_atom_site_type_symbol
_atom_site_fract_x
_atom_site_fract_y
_atom_site_fract_z
Si1 Si 0.38911(7) 0.15498(4) 0.43072(5)
Si2 Si 0.15891(7) 0.11707(4) 0.41884(5)
Si3 Si 0.48051(7) 0.13298(4) 0.29110(5)
Si4 Si 0.58598(7) 0.36917(4) 0.39846(5)
O1 O 0.5287(2) 0.2846(1) 0.4143(1)
C1 C 0.4349(2) 0.2561(1) 0.4753(2)
C2 C 0.5164(3) 0.2403(2) 0.5743(2)
C3 C 0.4229(3) 0.2033(2) 0.6349(2)
C4 C 0.4123(3) 0.1317(2) 0.6156(2)
C5 C 0.4981(3) 0.1141(2) 0.5409(2)
C6 C 0.6107(3) 0.1738(2) 0.5604(2)
C7 C 0.3139(2) 0.3083(1) 0.4730(2)
C8 C 0.2221(3) 0.3145(1) 0.3902(2)
C9 C 0.1091(3) 0.3605(1) 0.3833(2)
C10 C 0.0861(3) 0.4020(2) 0.4602(2)
C11 C 0.1762(3) 0.3979(2) 0.5421(2)
C12 C 0.2899(3) 0.3518(1) 0.5486(2)
C13 C 0.0661(3) 0.1357(2) 0.2977(2)
C14 C 0.0610(4) 0.1619(2) 0.5057(3)
C15 C 0.1619(4) 0.0139(2) 0.4368(3)
C16 C 0.4231(4) 0.0394(2) 0.2437(2)
C17 C 0.6723(3) 0.1320(2) 0.3137(2)
C18 C 0.4210(3) 0.2041(2) 0.1998(2)
C19 C 0.6464(4) 0.4167(2) 0.5112(2)
C20 C 0.4591(4) 0.4280(2) 0.3246(3)
C21 C 0.7311(4) 0.3525(2) 0.3326(3)
H1 H 0.5620(25) 0.2829(14) 0.6026(17)
H2 H 0.3716(27) 0.2307(14) 0.6753(18)
H3 H 0.3525(29) 0.0955(16) 0.6413(19)
H4 H 0.5233(23) 0.0652(13) 0.5363(16)
H5 H 0.6672(26) 0.1854(14) 0.5122(18)
H6 H 0.6760(26) 0.1619(13) 0.6184(18)
H7 H 0.2350(25) 0.2870(14) 0.3372(18)
H8 H 0.0496(26) 0.3627(13) 0.3254(18)
H9 H 0.0055(27) 0.4319(14) 0.4576(17)
H10 H 0.1656(25) 0.4258(13) 0.5946(18)
H11 H 0.3505(23) 0.3491(12) 0.6037(16)
H12 H 0.0560(31) 0.1895(19) 0.2857(20)
H13 H -0.0188(33) 0.1151(16) 0.2893(20)
H14 H 0.1153(34) 0.1160(17) 0.2490(23)
H15 H 0.0615(30) 0.2144(18) 0.4980(21)
H16 H 0.0958(35) 0.1470(19) 0.5673(25)
H17 H -0.0325(34) 0.1484(16) 0.4951(20)
H18 H 0.2123(35) -0.0111(19) 0.3920(24)
H19 H 0.0738(32) -0.0030(16) 0.4289(19)
H20 H 0.2052(28) 0.0038(14) 0.4968(20)
H21 H 0.4455(30) 0.0028(17) 0.2875(21)
H22 H 0.4576(32) 0.0293(17) 0.1857(23)
H23 H 0.3286(36) 0.0376(17) 0.2299(21)
H24 H 0.7075(36) 0.0962(19) 0.3635(26)
H25 H 0.7089(33) 0.1782(19) 0.3376(22)
H26 H 0.7048(33) 0.1220(17) 0.2556(24)
H27 H 0.3214(37) 0.2054(16) 0.1847(21)
H28 H 0.4528(32) 0.1932(17) 0.1452(23)
H29 H 0.4504(34) 0.2523(20) 0.2214(22)
H30 H 0.6852(32) 0.4654(19) 0.4986(21)
H31 H 0.7228(37) 0.3872(19) 0.5476(25)
H32 H 0.5762(36) 0.4235(18) 0.5448(24)
H33 H 0.5088(35) 0.4727(20) 0.3098(22)
H34 H 0.3888(38) 0.4401(20) 0.3561(25)
H35 H 0.4228(35) 0.4029(19) 0.2657(25)
H36 H 0.7696(33) 0.3981(19) 0.3231(21)
H37 H 0.7009(31) 0.3273(18) 0.2733(22)
H38 H 0.8007(39) 0.3242(20) 0.3686(25)
loop_
_geom_bond_atom_site_label_1
_geom_bond_atom_site_label_2
_geom_bond_site_symmetry_1
_geom_bond_site_symmetry_2
Si1 Si2 1_555 1_555
Si2 C13 1_555 1_555
Si3 Si1 1_555 1_555
Si4 O1 1_555 1_555
O1 C1 1_555 1_555
C1 Si1 1_555 1_555
C2 C1 1_555 1_555
C3 C2 1_555 1_555
C4 C3 1_555 1_555
C5 Si1 1_555 1_555
C6 C2 1_555 1_555
C7 C1 1_555 1_555
C8 C7 1_555 1_555
C9 C8 1_555 1_555
C10 C9 1_555 1_555
C11 C10 1_555 1_555
C12 C7 1_555 1_555
C13 H12 1_555 1_555
C14 Si2 1_555 1_555
C15 Si2 1_555 1_555
C16 Si3 1_555 1_555
C17 Si3 1_555 1_555
C18 Si3 1_555 1_555
C19 Si4 1_555 1_555
C20 Si4 1_555 1_555
C21 Si4 1_555 1_555
H1 C2 1_555 1_555
H2 C3 1_555 1_555
H3 C4 1_555 1_555
H4 C5 1_555 1_555
H5 C6 1_555 1_555
H6 C6 1_555 1_555
H7 C8 1_555 1_555
H8 C9 1_555 1_555
H9 C10 1_555 1_555
H10 C11 1_555 1_555
H11 C12 1_555 1_555
H13 C13 1_555 1_555
H14 C13 1_555 1_555
H15 C14 1_555 1_555
H16 C14 1_555 1_555
H17 C14 1_555 1_555
H18 C15 1_555 1_555
H19 C15 1_555 1_555
H20 C15 1_555 1_555
H21 C16 1_555 1_555
H22 C16 1_555 1_555
H23 C16 1_555 1_555
H24 C17 1_555 1_555
H25 C17 1_555 1_555
H26 C17 1_555 1_555
H27 C18 1_555 1_555
H28 C18 1_555 1_555
H29 C18 1_555 1_555
H30 C19 1_555 1_555
H31 C19 1_555 1_555
H32 C19 1_555 1_555
H33 C20 1_555 1_555
H34 C20 1_555 1_555
H35 C20 1_555 1_555
H36 C21 1_555 1_555
H37 C21 1_555 1_555
H38 C21 1_555 1_555
C4 C5 1_555 1_555
C5 C6 1_555 1_555
C11 C12 1_555 1_555

#END
