
#######################################################################
#
#                 Cambridge Crystallographic Data Centre
#                                CCDC 
#
#######################################################################
#
# If this CIF has been generated from an entry in the Cambridge 
# Structural Database, then it will include bibliographic, chemical, 
# crystal, experimental, refinement or atomic coordinate data resulting 
# from the CCDC's data processing and validation procedures.
#
#######################################################################

data_TATKUU
_chemical_formula_moiety         'C8 H13 N1 O5'
_chemical_name_systematic        
3S,4S-6-Cyano-1-hydroxymethyl-4-deoxy-\a-lyxopyranose
_symmetry_cell_setting           rhombohedral
_symmetry_space_group_name_H-M   'R 3'
_symmetry_Int_Tables_number      146
_space_group_name_Hall           'R 3'
loop_
_symmetry_equiv_pos_site_id
_symmetry_equiv_pos_as_xyz
1 x,y,z
2 -y,x-y,z
3 -x+y,-x,z
4 1/3+x,2/3+y,2/3+z
5 1/3-y,2/3+x-y,2/3+z
6 1/3-x+y,2/3-x,2/3+z
7 2/3+x,1/3+y,1/3+z
8 2/3-y,1/3+x-y,1/3+z
9 2/3-x+y,1/3-x,1/3+z
_cell_length_a                   21.970(1)
_cell_length_b                   21.970(1)
_cell_length_c                   5.2531(9)
_cell_angle_alpha                90
_cell_angle_beta                 90
_cell_angle_gamma                120
_cell_volume                     2195.87
_cell_formula_units_Z            9
loop_
_atom_site_label
_atom_site_type_symbol
_atom_site_fract_x
_atom_site_fract_y
_atom_site_fract_z
O1 O 0.2289(1) 0.4156(1) 0.237
O2 O 0.2547(1) 0.3574(1) -0.0773(5)
O3 O 0.0860(1) 0.3239(1) 0.1449(5)
O4 O 0.0894(1) 0.3776(1) -0.3621(6)
O5 O 0.2562(1) 0.3102(1) 0.4187(6)
N1 N 0.3726(3) 0.5672(3) 0.545(1)
C1 C 0.2048(2) 0.3514(2) 0.1051(7)
C2 C 0.1372(2) 0.3331(2) -0.0390(7)
C3 C 0.1513(2) 0.3927(2) -0.2218(8)
C4 C 0.1779(2) 0.4602(2) -0.0752(9)
C5 C 0.2422(2) 0.4742(2) 0.0804(8)
C6 C 0.2636(3) 0.5353(2) 0.259(1)
C7 C 0.3249(3) 0.5526(2) 0.417(1)
C8 C 0.1927(2) 0.2951(2) 0.2984(8)
loop_
_geom_bond_atom_site_label_1
_geom_bond_atom_site_label_2
_geom_bond_site_symmetry_1
_geom_bond_site_symmetry_2
O1 C1 1_555 1_555
O2 C1 1_555 1_555
O3 C2 1_555 1_555
O4 C3 1_555 1_555
O5 C8 1_555 1_555
N1 C7 1_555 1_555
C1 C2 1_555 1_555
C2 C3 1_555 1_555
C3 C4 1_555 1_555
C4 C5 1_555 1_555
C5 O1 1_555 1_555
C6 C5 1_555 1_555
C7 C6 1_555 1_555
C8 C1 1_555 1_555

#END
