
#######################################################################
#
#                 Cambridge Crystallographic Data Centre
#                                CCDC 
#
#######################################################################
#
# If this CIF has been generated from an entry in the Cambridge 
# Structural Database, then it will include bibliographic, chemical, 
# crystal, experimental, refinement or atomic coordinate data resulting 
# from the CCDC's data processing and validation procedures.
#
#######################################################################

data_TATZAQ
_chemical_formula_moiety         'C45 H47 N7 O2 2+,O4 S1 2-,3(C1 H2 Cl2),H2 O1'
_chemical_name_systematic        
'14,18-Dimethyl-16-p-tolyl-13,19-di-n-propyl-3,29,35,36,37-penta-aza-10,22-diazoniahexacyclo(29.3.1.1^12,15^.1^17,20^.0^4,9^.0^23,28^)heptatriaconta-1(35),4,6,8,10,12,14,17,19,21,23,25,27,31,33-pentadecaene-2,30-dione sulfate dichloromethane solvate monohydrate'
_symmetry_cell_setting           monoclinic
_symmetry_space_group_name_H-M   'P 21/c'
_symmetry_Int_Tables_number      14
_space_group_name_Hall           '-P 2ybc'
loop_
_symmetry_equiv_pos_site_id
_symmetry_equiv_pos_as_xyz
1 x,y,z
2 -x,1/2+y,1/2-z
3 -x,-y,-z
4 x,1/2-y,1/2+z
_cell_length_a                   13.4908(14)
_cell_length_b                   19.0632(17)
_cell_length_c                   20.867(2)
_cell_angle_alpha                90
_cell_angle_beta                 96.607(2)
_cell_angle_gamma                90
_cell_volume                     5330.89
_exptl_crystal_colour            'light green'
_exptl_crystal_description       prism
_cell_formula_units_Z            4
_exptl_crystal_recrystallization_method acetonitrile
loop_
_atom_site_label
_atom_site_type_symbol
_atom_site_fract_x
_atom_site_fract_y
_atom_site_fract_z
S1 S 0.03552(6) 0.41649(4) 0.29444(4)
O1 O 0.01006(18) 0.40063(15) 0.35883(11)
O2 O 0.08142(18) 0.48835(12) 0.29535(11)
O3 O -0.05174(17) 0.41549(13) 0.24624(11)
O4 O 0.11149(17) 0.36612(11) 0.27652(11)
N1 N 0.0670(2) 0.56740(15) 0.40174(14)
C1 C 0.1518(2) 0.58524(16) 0.43496(15)
H1 H 0.1490 0.6123 0.4729
C2 C 0.2456(2) 0.56718(17) 0.41829(15)
N2 N 0.2611(2) 0.52364(15) 0.36790(13)
C3 C 0.3599(2) 0.51275(18) 0.36733(15)
C4 C 0.4117(2) 0.55133(18) 0.41776(16)
C5 C 0.3405(2) 0.58577(18) 0.45018(16)
C6 C 0.3994(2) 0.46298(17) 0.32092(15)
H2 H 0.4712 0.4748 0.3193
C7 C 0.3463(2) 0.47386(17) 0.25430(15)
N3 N 0.2688(2) 0.43388(15) 0.23016(13)
C8 C 0.2339(2) 0.45826(17) 0.16915(15)
C9 C 0.2948(2) 0.51525(17) 0.15500(15)
C10 C 0.3646(3) 0.52535(18) 0.20960(16)
C11 C 0.1550(2) 0.42772(16) 0.12942(15)
H3 H 0.1399 0.4466 0.0873
N4 N 0.1001(2) 0.37520(14) 0.14553(14)
C12 C 0.0184(2) 0.34862(16) 0.10259(14)
C13 C -0.0657(2) 0.39008(17) 0.08582(15)
C14 C -0.1424(3) 0.36423(18) 0.04188(16)
H4 H -0.2007 0.3916 0.0306
C15 C -0.1338(3) 0.29852(18) 0.01461(17)
H5 H -0.1850 0.2818 -0.0167
C16 C -0.0512(3) 0.25717(18) 0.03272(16)
H6 H -0.0465 0.2118 0.0144
C17 C 0.0247(3) 0.28153(17) 0.07747(16)
H7 H 0.0807 0.2526 0.0909
N5 N -0.0717(2) 0.45833(14) 0.11259(14)
C18 C -0.0904(2) 0.51560(17) 0.07576(15)
O5 O -0.10801(19) 0.51416(12) 0.01673(10)
C19 C -0.0889(2) 0.58451(17) 0.11054(15)
N6 N -0.09902(19) 0.58419(14) 0.17399(12)
C20 C -0.1027(2) 0.64726(17) 0.20251(15)
C21 C -0.0936(3) 0.71067(18) 0.17135(16)
H8 H -0.0974 0.7539 0.1936
C22 C -0.0786(3) 0.70932(18) 0.10656(17)
H9 H -0.0691 0.7516 0.0840
C23 C -0.0778(3) 0.64543(17) 0.07578(16)
H10 H -0.0697 0.6431 0.0312
C24 C -0.1179(3) 0.64949(18) 0.27314(16)
O6 O -0.1475(2) 0.70334(13) 0.29639(12)
N7 N -0.0980(2) 0.58960(15) 0.30683(13)
C25 C -0.1105(2) 0.58717(17) 0.37404(15)
C26 C -0.0289(2) 0.57867(15) 0.42119(14)
C27 C -0.0423(2) 0.58110(16) 0.48603(15)
H11 H 0.0129 0.5737 0.5179
C28 C -0.1356(2) 0.59425(17) 0.50451(15)
H12 H -0.1443 0.5970 0.5490
C29 C -0.2168(3) 0.6034(2) 0.45789(17)
H13 H -0.2810 0.6125 0.4705
C30 C -0.2042(2) 0.59936(19) 0.39321(16)
H14 H -0.2602 0.6050 0.3616
C31 C 0.5234(2) 0.5549(2) 0.43275(18)
H15 H 0.5546 0.5253 0.4023
H16 H 0.5428 0.5382 0.4768
H17 H 0.5456 0.6035 0.4289
C32 C 0.3606(3) 0.6381(2) 0.5036(2)
H18 H 0.4165 0.6210 0.5345
H19 H 0.3009 0.6420 0.5268
C33 C 0.3866(6) 0.7102(3) 0.4795(4)
H22 H 0.3374 0.7260 0.4457
H23 H 0.4479 0.7037 0.4609
C34 C 0.4073(8) 0.7640(6) 0.5263(9)
H24 H 0.4282 0.8066 0.5053
H25 H 0.4608 0.7485 0.5591
H26 H 0.3470 0.7738 0.5469
C36 C 0.3947(2) 0.38596(19) 0.34252(16)
C37 C 0.4489(5) 0.3360(3) 0.3141(3)
H30 H 0.4933 0.3499 0.2842
C38 C 0.4393(6) 0.2659(3) 0.3286(3)
H31 H 0.4763 0.2323 0.3076
C39 C 0.3772(4) 0.2429(2) 0.3732(3)
C40 C 0.3261(3) 0.2929(2) 0.4019(2)
H32 H 0.2837 0.2793 0.4330
C41 C 0.3341(3) 0.36369(19) 0.38707(18)
H33 H 0.2970 0.3972 0.4081
C42 C 0.3664(5) 0.1659(3) 0.3894(3)
H34 H 0.3207 0.1610 0.4224
H35 H 0.4318 0.1467 0.4057
H36 H 0.3396 0.1403 0.3505
C43 C 0.2879(3) 0.55673(19) 0.09390(17)
H37 H 0.2884 0.6074 0.1045
H38 H 0.2237 0.5461 0.0677
C44 C 0.3735(3) 0.5410(2) 0.05399(18)
H39 H 0.3674 0.5721 0.0157
H40 H 0.4376 0.5519 0.0801
C45 C 0.3752(3) 0.4659(2) 0.0319(2)
H41 H 0.4313 0.4589 0.0067
H42 H 0.3126 0.4550 0.0051
H43 H 0.3827 0.4348 0.0696
C46 C 0.4409(3) 0.5827(2) 0.22068(19)
H44 H 0.4792 0.5766 0.2631
H45 H 0.4071 0.6283 0.2190
H46 H 0.4860 0.5807 0.1871
H59 H 0.066(2) 0.5468(16) 0.3736(15)
H60 H 0.219(2) 0.5034(17) 0.3442(15)
H61 H 0.239(3) 0.4052(19) 0.2507(17)
H62 H 0.104(2) 0.3626(18) 0.1827(18)
H63 H -0.055(3) 0.463(2) 0.151(2)
H64 H -0.076(2) 0.5590(19) 0.2842(16)
Cl1 Cl 0.43583(14) 0.22104(12) 0.16322(13)
Cl2 Cl 0.29935(14) 0.28752(8) 0.06542(8)
C47 C 0.3349(4) 0.2777(3) 0.1464(3)
H47 H 0.2776 0.2595 0.1671
H48 H 0.3528 0.3242 0.1654
Cl3 Cl 0.36939(15) 0.95282(11) 0.35614(9)
Cl4 Cl 0.32076(10) 0.96567(9) 0.21687(7)
C48 C 0.2761(3) 0.9554(3) 0.2916(2)
H49 H 0.2303 0.9947 0.2981
H50 H 0.2370 0.9114 0.2910
Cl5 Cl 0.15371(12) 0.65295(9) 0.25400(12)
Cl6 Cl 0.2765(4) 0.7707(2) 0.3132(2)
C49 C 0.1353(8) 0.7342(5) 0.3029(4)
H51 H 0.1120 0.7227 0.3450
H52 H 0.0884 0.7676 0.2791
O7 O 0.1535(2) 0.85089(18) 0.09173(14)
H55 H 0.1629 0.8235 0.1330
H56 H 0.2103 0.9007 0.0959
H20? H 0.3685 0.7439 0.5123
H21? H 0.4603 0.7113 0.4818
C35? C 0.3517(15) 0.7390(9) 0.4204(12)
H27? H 0.3847 0.7841 0.4153
H28? H 0.2794 0.7462 0.4182
H29? H 0.3661 0.7071 0.3859
Cl7? Cl 0.2875(2) 0.76457(19) 0.2336(2)
C50? C 0.1614(7) 0.7409(6) 0.2376(9)
H53? H 0.1342 0.7684 0.2719
H54? H 0.1212 0.7517 0.1960
O8? O 0.2048(10) 0.8011(9) 0.1342(6)
H57? H 0.2692 0.7751 0.1388
H58? H 0.1827 0.8443 0.1223
loop_
_geom_bond_atom_site_label_1
_geom_bond_atom_site_label_2
_geom_bond_site_symmetry_1
_geom_bond_site_symmetry_2
S1 O1 1_555 1_555
O2 S1 1_555 1_555
O3 S1 1_555 1_555
O4 S1 1_555 1_555
N1 C1 1_555 1_555
C1 H1 1_555 1_555
C2 C1 1_555 1_555
N2 C2 1_555 1_555
C3 N2 1_555 1_555
C4 C3 1_555 1_555
C5 C2 1_555 1_555
C6 C3 1_555 1_555
H2 C6 1_555 1_555
C7 C6 1_555 1_555
N3 C7 1_555 1_555
C8 N3 1_555 1_555
C9 C8 1_555 1_555
C10 C7 1_555 1_555
C11 C8 1_555 1_555
H3 C11 1_555 1_555
N4 C11 1_555 1_555
C12 N4 1_555 1_555
C13 C12 1_555 1_555
C14 C13 1_555 1_555
H4 C14 1_555 1_555
C15 C14 1_555 1_555
H5 C15 1_555 1_555
C16 C15 1_555 1_555
H6 C16 1_555 1_555
C17 C12 1_555 1_555
H7 C17 1_555 1_555
N5 C13 1_555 1_555
C18 N5 1_555 1_555
O5 C18 1_555 1_555
C19 C18 1_555 1_555
N6 C19 1_555 1_555
C20 N6 1_555 1_555
C21 C20 1_555 1_555
H8 C21 1_555 1_555
C22 C21 1_555 1_555
H9 C22 1_555 1_555
C23 C19 1_555 1_555
H10 C23 1_555 1_555
C24 C20 1_555 1_555
O6 C24 1_555 1_555
N7 C24 1_555 1_555
C25 N7 1_555 1_555
C26 N1 1_555 1_555
C27 C26 1_555 1_555
H11 C27 1_555 1_555
C28 C27 1_555 1_555
H12 C28 1_555 1_555
C29 C28 1_555 1_555
H13 C29 1_555 1_555
C30 C25 1_555 1_555
H14 C30 1_555 1_555
C31 C4 1_555 1_555
H15 C31 1_555 1_555
H16 C31 1_555 1_555
H17 C31 1_555 1_555
C32 C5 1_555 1_555
H18 C32 1_555 1_555
H19 C32 1_555 1_555
C33 C32 1_555 1_555
H22 C33 1_555 1_555
H23 C33 1_555 1_555
C34 C33 1_555 1_555
H24 C34 1_555 1_555
H25 C34 1_555 1_555
H26 C34 1_555 1_555
C36 C6 1_555 1_555
C37 C36 1_555 1_555
H30 C37 1_555 1_555
C38 C37 1_555 1_555
H31 C38 1_555 1_555
C39 C38 1_555 1_555
C40 C39 1_555 1_555
H32 C40 1_555 1_555
C41 C36 1_555 1_555
H33 C41 1_555 1_555
C42 C39 1_555 1_555
H34 C42 1_555 1_555
H35 C42 1_555 1_555
H36 C42 1_555 1_555
C43 C9 1_555 1_555
H37 C43 1_555 1_555
H38 C43 1_555 1_555
C44 C43 1_555 1_555
H39 C44 1_555 1_555
H40 C44 1_555 1_555
C45 C44 1_555 1_555
H41 C45 1_555 1_555
H42 C45 1_555 1_555
H43 C45 1_555 1_555
C46 C10 1_555 1_555
H44 C46 1_555 1_555
H45 C46 1_555 1_555
H46 C46 1_555 1_555
Cl1 C47 1_555 1_555
Cl2 C47 1_555 1_555
Cl3 C48 1_555 1_555
Cl4 C48 1_555 1_555
Cl5 C49 1_555 1_555
Cl6 C49 1_555 1_555
C47 H47 1_555 1_555
H48 C47 1_555 1_555
C48 H49 1_555 1_555
H50 C48 1_555 1_555
C49 H51 1_555 1_555
H52 C49 1_555 1_555
O7 H55 1_555 1_555
H56 O7 1_555 1_555
H59 N1 1_555 1_555
H60 N2 1_555 1_555
H61 N3 1_555 1_555
H62 N4 1_555 1_555
H63 N5 1_555 1_555
H64 N7 1_555 1_555
C4 C5 1_555 1_555
C9 C10 1_555 1_555
C16 C17 1_555 1_555
C22 C23 1_555 1_555
C25 C26 1_555 1_555
C29 C30 1_555 1_555
C40 C41 1_555 1_555

#END
