
#######################################################################
#
#                 Cambridge Crystallographic Data Centre
#                                CCDC 
#
#######################################################################
#
# If this CIF has been generated from an entry in the Cambridge 
# Structural Database, then it will include bibliographic, chemical, 
# crystal, experimental, refinement or atomic coordinate data resulting 
# from the CCDC's data processing and validation procedures.
#
#######################################################################

data_TATZEU
_chemical_formula_moiety         'C45 H45 N7 O2,3(C2 H3 N1)'
_chemical_name_systematic        
'14,18-Dimethyl-16-p-tolyl-13,19-di-n-propyl-3,10,22,29,35,36,37-hepta-azahexacyclo(29.3.1.1^12,15^.1^17,20^.0^4,9^.0^23,28^)heptatriaconta-1(35),4,6,8,10,12,14,17,19,21,23,25,27,31,33-pentadecaene-2,30-dione acetonitrile solvate'
_symmetry_cell_setting           monoclinic
_symmetry_space_group_name_H-M   'P 21/c'
_symmetry_Int_Tables_number      14
_space_group_name_Hall           '-P 2ybc'
loop_
_symmetry_equiv_pos_site_id
_symmetry_equiv_pos_as_xyz
1 x,y,z
2 -x,1/2+y,1/2-z
3 -x,-y,-z
4 x,1/2-y,1/2+z
_cell_length_a                   17.5831(5)
_cell_length_b                   15.3110(5)
_cell_length_c                   18.6423(7)
_cell_angle_alpha                90
_cell_angle_beta                 114.702(2)
_cell_angle_gamma                90
_cell_volume                     4559.53
_exptl_crystal_colour            red
_exptl_crystal_description       'hexagonal plates'
_cell_formula_units_Z            4
loop_
_atom_site_label
_atom_site_type_symbol
_atom_site_fract_x
_atom_site_fract_y
_atom_site_fract_z
O1 O 0.4487(2) 0.2321(2) 0.2117(2)
O2 O 0.0692(2) 0.3152(3) 0.2350(2)
N1 N 0.2744(3) 0.2797(3) 0.2517(2)
N2 N 0.4428(3) 0.2912(3) 0.3224(3)
N3 N 0.5227(2) 0.2581(3) 0.4801(2)
N4 N 0.4512(3) 0.1485(3) 0.5622(3)
N5 N 0.2928(3) 0.2030(3) 0.5263(2)
N6 N 0.1349(3) 0.3600(3) 0.4259(2)
N7 N 0.1915(3) 0.3912(3) 0.3011(3)
C1 C 0.1929(3) 0.2626(4) 0.2264(3)
C2 C 0.1509(3) 0.1968(4) 0.1725(3)
H1 H 0.0922 0.1875 0.1570
C3 C 0.1973(4) 0.1475(4) 0.1439(3)
H2 H 0.1713 0.1003 0.1082
C4 C 0.2808(4) 0.1642(3) 0.1673(3)
H3 H 0.3133 0.1316 0.1460
C5 C 0.3171(3) 0.2310(4) 0.2224(3)
C6 C 0.4094(3) 0.2506(3) 0.2512(4)
C7 C 0.5255(3) 0.3205(3) 0.3624(3)
C8 C 0.5659(3) 0.3642(3) 0.3232(3)
H4 H 0.5389 0.3707 0.2668
C9 C 0.6456(4) 0.3978(3) 0.3652(4)
H5 H 0.6739 0.4292 0.3390
C10 C 0.6860(3) 0.3884(3) 0.4481(4)
H6 H 0.7410 0.4120 0.4774
C11 C 0.6453(3) 0.3410(3) 0.4863(3)
H7 H 0.6717 0.3335 0.5425
C12 C 0.5657(3) 0.3071(3) 0.4433(3)
C13 C 0.5667(3) 0.1997(4) 0.5316(3)
H8 H 0.6252 0.1936 0.5437
C14 C 0.5312(3) 0.1433(3) 0.5709(3)
C15 C 0.5677(3) 0.0718(3) 0.6194(3)
C16 C 0.5073(3) 0.0326(3) 0.6388(3)
C17 C 0.4330(3) 0.0813(3) 0.6035(3)
C18 C 0.3527(3) 0.0717(3) 0.6042(3)
C19 C 0.2856(3) 0.1259(4) 0.5653(3)
C20 C 0.1993(3) 0.1182(4) 0.5567(3)
C21 C 0.1560(3) 0.1873(4) 0.5108(3)
C22 C 0.2157(3) 0.2369(3) 0.4950(3)
C23 C 0.2053(3) 0.3205(3) 0.4553(3)
H9 H 0.2522 0.3471 0.4502
C24 C 0.1300(3) 0.4439(4) 0.3897(3)
C25 C 0.0940(3) 0.5099(4) 0.4152(3)
H10 H 0.0743 0.4975 0.4550
C26 C 0.0877(3) 0.5934(4) 0.3838(4)
H11 H 0.0650 0.6406 0.4027
C27 C 0.1148(4) 0.6080(4) 0.3254(4)
H12 H 0.1082 0.6650 0.3021
C28 C 0.1483(3) 0.5412(4) 0.2980(3)
H13 H 0.1669 0.5513 0.2571
C29 C 0.1559(3) 0.4589(4) 0.3299(3)
C30 C 0.1448(4) 0.3247(4) 0.2550(3)
C31 C 0.6598(3) 0.0448(3) 0.6505(3)
H14 H 0.6821 0.0319 0.7059
H15 H 0.6912 0.0922 0.6426
C32 C 0.6724(3) -0.0343(4) 0.6077(3)
H16 H 0.6523 -0.0212 0.5525
H17 H 0.6399 -0.0815 0.6143
C33 C 0.7652(3) -0.0611(4) 0.6414(3)
H18 H 0.7729 -0.1116 0.6146
H19 H 0.7967 -0.0132 0.6345
H20 H 0.7843 -0.0737 0.6966
C34 C 0.5250(3) -0.0464(3) 0.6914(3)
H21 H 0.4979 -0.0955 0.6585
H22 H 0.5036 -0.0401 0.7307
H23 H 0.5840 -0.0581 0.7170
C35 C 0.3416(3) -0.0067(3) 0.6458(3)
C36 C 0.3477(3) -0.0023(4) 0.7213(3)
H24 H 0.3611 0.0529 0.7481
C37 C 0.3333(3) -0.0762(4) 0.7574(3)
H25 H 0.3375 -0.0719 0.8103
C38 C 0.3157(3) -0.1564(4) 0.7190(3)
C39 C 0.3103(3) -0.1606(4) 0.6437(3)
H26 H 0.2968 -0.2153 0.6160
C40 C 0.3231(3) -0.0873(4) 0.6073(3)
H27 H 0.3217 -0.0912 0.5554
C41 C 0.3033(3) -0.2382(3) 0.7608(3)
H28 H 0.3086 -0.2232 0.8127
H29 H 0.2487 -0.2623 0.7307
H30 H 0.3452 -0.2805 0.7649
C42 C 0.1617(3) 0.0483(3) 0.5903(3)
H31 H 0.1031 0.0596 0.5738
H32 H 0.1690 -0.0084 0.5721
H33 H 0.1896 0.0501 0.6469
C43 C 0.0654(3) 0.2029(4) 0.4808(4)
H34 H 0.0565 0.2647 0.4816
H35 H 0.0434 0.1749 0.5142
C44 C 0.0132(4) 0.1713(4) 0.3949(4)
H37 H -0.0453 0.1823 0.3795
H38 H 0.0306 0.2029 0.3599
C45 C 0.0264(5) 0.0651(6) 0.3878(5)
H39 H -0.0098 0.0337 0.4056
H40 H 0.0832 0.0493 0.4208
H41 H 0.0134 0.0479 0.3345
H48 H 0.260(3) 0.394(3) 0.314(3)
H49 H 0.411(3) 0.184(3) 0.540(3)
H50 H 0.398(3) 0.311(3) 0.348(3)
N8 N 0.3735(3) 0.4285(3) 0.4186(3)
C47 C 0.4111(3) 0.4220(4) 0.4848(4)
C48 C 0.4571(3) 0.4138(3) 0.5700(3)
H45 H 0.4501 0.4658 0.5954
H46 H 0.5154 0.4048 0.5831
H47 H 0.4368 0.3642 0.5883
H36? H 0.0208 0.1100 0.3893
C46? C -0.0873(6) 0.1913(11) 0.3816(10)
H42? H -0.1252 0.1745 0.3291
H43? H -0.1004 0.1593 0.4193
H44? H -0.0928 0.2527 0.3886
loop_
_geom_bond_atom_site_label_1
_geom_bond_atom_site_label_2
_geom_bond_site_symmetry_1
_geom_bond_site_symmetry_2
O1 C6 1_555 1_555
O2 C30 1_555 1_555
N1 C1 1_555 1_555
N2 C6 1_555 1_555
N3 C12 1_555 1_555
N4 C14 1_555 1_555
N5 C19 1_555 1_555
N6 C23 1_555 1_555
N7 C29 1_555 1_555
C1 C2 1_555 1_555
C2 H1 1_555 1_555
C3 C2 1_555 1_555
H2 C3 1_555 1_555
C4 C3 1_555 1_555
H3 C4 1_555 1_555
C5 N1 1_555 1_555
C6 C5 1_555 1_555
C7 N2 1_555 1_555
C8 C7 1_555 1_555
H4 C8 1_555 1_555
C9 C8 1_555 1_555
H5 C9 1_555 1_555
C10 C9 1_555 1_555
H6 C10 1_555 1_555
C11 C10 1_555 1_555
H7 C11 1_555 1_555
C12 C7 1_555 1_555
C13 N3 1_555 1_555
H8 C13 1_555 1_555
C14 C13 1_555 1_555
C15 C14 1_555 1_555
C16 C15 1_555 1_555
C17 N4 1_555 1_555
C18 C17 1_555 1_555
C19 C18 1_555 1_555
C20 C19 1_555 1_555
C21 C20 1_555 1_555
C22 N5 1_555 1_555
C23 C22 1_555 1_555
H9 C23 1_555 1_555
C24 N6 1_555 1_555
C25 C24 1_555 1_555
H10 C25 1_555 1_555
C26 C25 1_555 1_555
H11 C26 1_555 1_555
C27 C26 1_555 1_555
H12 C27 1_555 1_555
C28 C27 1_555 1_555
H13 C28 1_555 1_555
C29 C24 1_555 1_555
C30 N7 1_555 1_555
C31 C15 1_555 1_555
H14 C31 1_555 1_555
H15 C31 1_555 1_555
C32 C31 1_555 1_555
H16 C32 1_555 1_555
H17 C32 1_555 1_555
C33 C32 1_555 1_555
H18 C33 1_555 1_555
H19 C33 1_555 1_555
H20 C33 1_555 1_555
C34 C16 1_555 1_555
H21 C34 1_555 1_555
H22 C34 1_555 1_555
H23 C34 1_555 1_555
C35 C18 1_555 1_555
C36 C35 1_555 1_555
H24 C36 1_555 1_555
C37 C36 1_555 1_555
H25 C37 1_555 1_555
C38 C37 1_555 1_555
C39 C38 1_555 1_555
H26 C39 1_555 1_555
C40 C35 1_555 1_555
H27 C40 1_555 1_555
C41 C38 1_555 1_555
H28 C41 1_555 1_555
H29 C41 1_555 1_555
H30 C41 1_555 1_555
C42 C20 1_555 1_555
H31 C42 1_555 1_555
H32 C42 1_555 1_555
H33 C42 1_555 1_555
C43 C21 1_555 1_555
H34 C43 1_555 1_555
H35 C43 1_555 1_555
C44 C43 1_555 1_555
H37 C44 1_555 1_555
H38 C44 1_555 1_555
C45 C44 1_555 1_555
H39 C45 1_555 1_555
H40 C45 1_555 1_555
H41 C45 1_555 1_555
N8 C47 1_555 1_555
C47 C48 1_555 1_555
C48 H45 1_555 1_555
H46 C48 1_555 1_555
H47 C48 1_555 1_555
H48 N7 1_555 1_555
H49 N4 1_555 1_555
H50 N2 1_555 1_555
C1 C30 1_555 1_555
C4 C5 1_555 1_555
C11 C12 1_555 1_555
C16 C17 1_555 1_555
C21 C22 1_555 1_555
C28 C29 1_555 1_555
C39 C40 1_555 1_555

#END
