
#######################################################################
#
#                 Cambridge Crystallographic Data Centre
#                                CCDC 
#
#######################################################################
#
# If this CIF has been generated from an entry in the Cambridge 
# Structural Database, then it will include bibliographic, chemical, 
# crystal, experimental, refinement or atomic coordinate data resulting 
# from the CCDC's data processing and validation procedures.
#
#######################################################################

data_TAVMAH
_chemical_formula_moiety         'C9 H10 N2 O1 S1'
_chemical_name_systematic        
1-(2-hydroxyethyl)-1,3-dihydro-2H-benzimidazole-2-thione
_symmetry_cell_setting           triclinic
_symmetry_space_group_name_H-M   'P -1'
_symmetry_Int_Tables_number      2
_space_group_name_Hall           '-P 1'
loop_
_symmetry_equiv_pos_site_id
_symmetry_equiv_pos_as_xyz
1 x,y,z
2 -x,-y,-z
_cell_length_a                   7.3434(5)
_cell_length_b                   7.9920(6)
_cell_length_c                   9.2454(6)
_cell_angle_alpha                68.908(2)
_cell_angle_beta                 72.248(2)
_cell_angle_gamma                82.675(2)
_cell_volume                     482.045
_exptl_crystal_colour            white
_exptl_crystal_description       rod
_cell_formula_units_Z            2
loop_
_atom_site_label
_atom_site_type_symbol
_atom_site_fract_x
_atom_site_fract_y
_atom_site_fract_z
S1 S 0.29836(7) 0.73430(8) 1.04267(6)
O1 O 0.94659(19) 0.6253(2) 0.81788(19)
H1 H 0.9005 0.5242 0.8440
N1 N 0.5846(2) 0.7996(2) 0.76255(18)
N2 N 0.3262(2) 0.7018(2) 0.75332(19)
C1 C 0.8250(3) 0.7221(3) 0.9142(2)
H2 H 0.9030 0.7754 0.9564
H3 H 0.7346 0.6386 1.0075
C2 C 0.6199(3) 0.7921(2) 0.6076(2)
C3 C 0.7144(3) 0.8684(3) 0.8188(2)
H4 H 0.6398 0.9388 0.8869
H5 H 0.8053 0.9502 0.7244
C4 C 0.4040(3) 0.7437(2) 0.8512(2)
C5 C 0.4537(3) 0.7323(2) 0.6023(2)
C6 C 0.4377(3) 0.7155(3) 0.4622(3)
H6 H 0.3236 0.6754 0.4582
C7 C 0.7801(3) 0.8337(3) 0.4749(3)
H7 H 0.8951 0.8717 0.4793
C8 C 0.5954(4) 0.7597(3) 0.3295(3)
H8 H 0.5891 0.7510 0.2313
C9 C 0.7632(4) 0.8166(4) 0.3351(3)
H9 H 0.8691 0.8446 0.2411
H10 H 0.213(4) 0.668(3) 0.782(3)
loop_
_geom_bond_atom_site_label_1
_geom_bond_atom_site_label_2
_geom_bond_site_symmetry_1
_geom_bond_site_symmetry_2
S1 C4 1_555 1_555
O1 H1 1_555 1_555
N1 C2 1_555 1_555
N2 C4 1_555 1_555
C1 O1 1_555 1_555
H2 C1 1_555 1_555
H3 C1 1_555 1_555
C2 C5 1_555 1_555
C3 N1 1_555 1_555
H4 C3 1_555 1_555
H5 C3 1_555 1_555
C4 N1 1_555 1_555
C5 N2 1_555 1_555
C6 C5 1_555 1_555
H6 C6 1_555 1_555
C7 C2 1_555 1_555
H7 C7 1_555 1_555
C8 C6 1_555 1_555
H8 C8 1_555 1_555
C9 C7 1_555 1_555
H9 C9 1_555 1_555
H10 N2 1_555 1_555
C1 C3 1_555 1_555
C8 C9 1_555 1_555

#END
