
#######################################################################
#
#                 Cambridge Crystallographic Data Centre
#                                CCDC 
#
#######################################################################
#
# If this CIF has been generated from an entry in the Cambridge 
# Structural Database, then it will include bibliographic, chemical, 
# crystal, experimental, refinement or atomic coordinate data resulting 
# from the CCDC's data processing and validation procedures.
#
#######################################################################

data_TAVWOE
_chemical_formula_moiety         'C19 H18 Cl1 N1 O3'
_chemical_name_systematic        
(R)-1-Acetyl-2-((S)-1-(3-chlorophenyl)-3-hydroxypropyl)-1,2-dihydro-3H-indol-3-one
_symmetry_cell_setting           orthorhombic
_symmetry_space_group_name_H-M   'P 21 21 21'
_symmetry_Int_Tables_number      19
_space_group_name_Hall           'P 2ac 2ab'
loop_
_symmetry_equiv_pos_site_id
_symmetry_equiv_pos_as_xyz
1 x,y,z
2 1/2-x,-y,1/2+z
3 -x,1/2+y,1/2-z
4 1/2+x,1/2-y,-z
_cell_length_a                   8.112(11)
_cell_length_b                   12.822(19)
_cell_length_c                   16.77(2)
_cell_angle_alpha                90
_cell_angle_beta                 90
_cell_angle_gamma                90
_cell_volume                     1744.28
_exptl_crystal_colour            colorless
_exptl_crystal_description       block
_cell_formula_units_Z            4
loop_
_atom_site_label
_atom_site_type_symbol
_atom_site_fract_x
_atom_site_fract_y
_atom_site_fract_z
C1 C -0.0051(6) 0.5629(3) 0.2093(3)
C2 C -0.1659(6) 0.5425(4) 0.1861(3)
H1 H -0.2549 0.5603 0.2183
C3 C -0.1882(7) 0.4949(4) 0.1132(4)
H2 H -0.2950 0.4804 0.0962
C4 C -0.0573(9) 0.4678(4) 0.0641(3)
H3 H -0.0774 0.4358 0.0153
C5 C 0.1044(7) 0.4884(4) 0.0877(3)
H4 H 0.1938 0.4701 0.0560
C6 C 0.1252(6) 0.5370(3) 0.1601(3)
C7 C 0.2803(7) 0.5723(3) 0.1975(3)
C8 C 0.2333(5) 0.6347(3) 0.2720(2)
H5 H 0.2935 0.6085 0.3185
C9 C 0.2639(5) 0.7534(3) 0.2613(2)
H6 H 0.2056 0.7885 0.3049
C10 C 0.1886(5) 0.7930(3) 0.1844(3)
C11 C 0.0237(5) 0.8247(3) 0.1837(3)
H7 H -0.0366 0.8254 0.2309
C12 C -0.0500(5) 0.8553(3) 0.1126(3)
C13 C 0.0372(7) 0.8566(3) 0.0421(3)
H8 H -0.0130 0.8770 -0.0053
C14 C 0.1996(7) 0.8271(4) 0.0432(3)
H9 H 0.2598 0.8282 -0.0040
C15 C 0.2764(5) 0.7956(3) 0.1136(3)
H10 H 0.3868 0.7761 0.1130
C16 C -0.0399(7) 0.6256(4) 0.3491(3)
C17 C 0.0517(6) 0.6631(4) 0.4225(3)
H11 H 0.0026 0.7265 0.4414
H12 H 0.1651 0.6756 0.4091
H13 H 0.0455 0.6108 0.4634
C18 C 0.4499(5) 0.7811(4) 0.2707(3)
H14 H 0.5142 0.7324 0.2392
H15 H 0.4682 0.8503 0.2490
C19 C 0.5136(6) 0.7789(4) 0.3563(3)
H16 H 0.6259 0.8049 0.3568
H17 H 0.4473 0.8261 0.3882
Cl1 Cl -0.25746(14) 0.89337(10) 0.11405(8)
N1 N 0.0533(4) 0.6114(3) 0.2800(2)
O1 O -0.1855(4) 0.6049(3) 0.3490(2)
O2 O 0.4220(4) 0.5591(2) 0.1732(2)
O3 O 0.5116(4) 0.6802(3) 0.3925(2)
H18 H 0.5777 0.6419 0.3699
loop_
_geom_bond_atom_site_label_1
_geom_bond_atom_site_label_2
_geom_bond_site_symmetry_1
_geom_bond_site_symmetry_2
C1 C2 1_555 1_555
C2 H1 1_555 1_555
C3 C2 1_555 1_555
H2 C3 1_555 1_555
C4 C3 1_555 1_555
H3 C4 1_555 1_555
C5 C4 1_555 1_555
H4 C5 1_555 1_555
C6 C1 1_555 1_555
C7 C6 1_555 1_555
C8 C7 1_555 1_555
H5 C8 1_555 1_555
C9 C8 1_555 1_555
H6 C9 1_555 1_555
C10 C9 1_555 1_555
C11 C10 1_555 1_555
H7 C11 1_555 1_555
C12 C11 1_555 1_555
C13 C12 1_555 1_555
H8 C13 1_555 1_555
C14 C13 1_555 1_555
H9 C14 1_555 1_555
C15 C10 1_555 1_555
H10 C15 1_555 1_555
C16 C17 1_555 1_555
C17 H11 1_555 1_555
H12 C17 1_555 1_555
H13 C17 1_555 1_555
C18 C9 1_555 1_555
H14 C18 1_555 1_555
H15 C18 1_555 1_555
C19 C18 1_555 1_555
H16 C19 1_555 1_555
H17 C19 1_555 1_555
Cl1 C12 1_555 1_555
N1 C1 1_555 1_555
O1 C16 1_555 1_555
O2 C7 1_555 1_555
O3 C19 1_555 1_555
H18 O3 1_555 1_555
C5 C6 1_555 1_555
C8 N1 1_555 1_555
C14 C15 1_555 1_555
C16 N1 1_555 1_555

#END
