
#######################################################################
#
#                 Cambridge Crystallographic Data Centre
#                                CCDC 
#
#######################################################################
#
# If this CIF has been generated from an entry in the Cambridge 
# Structural Database, then it will include bibliographic, chemical, 
# crystal, experimental, refinement or atomic coordinate data resulting 
# from the CCDC's data processing and validation procedures.
#
#######################################################################

data_TAWQEO
_chemical_formula_moiety         'C13 H8 Cl2 F1 N1'
_chemical_name_systematic        3,5-Dichloro-N-(4-fluorobenzylidene)aniline
_symmetry_cell_setting           monoclinic
_symmetry_space_group_name_H-M   'P 21/c'
_symmetry_Int_Tables_number      14
_space_group_name_Hall           '-P 2ybc'
loop_
_symmetry_equiv_pos_site_id
_symmetry_equiv_pos_as_xyz
1 x,y,z
2 -x,1/2+y,1/2-z
3 -x,-y,-z
4 x,1/2-y,1/2+z
_cell_length_a                   14.1311(7)
_cell_length_b                   3.8481(2)
_cell_length_c                   22.0365(11)
_cell_angle_alpha                90
_cell_angle_beta                 94.7520(10)
_cell_angle_gamma                90
_cell_volume                     1194.18
_exptl_crystal_colour            white
_exptl_crystal_description       block
_cell_formula_units_Z            4
_exptl_crystal_recrystallization_method ethanol
loop_
_atom_site_label
_atom_site_type_symbol
_atom_site_fract_x
_atom_site_fract_y
_atom_site_fract_z
Cl1 Cl 0.32754(4) -0.35584(17) 0.999714(18)
Cl2 Cl 0.58696(3) -0.00790(14) 0.84603(2)
F1 F -0.05438(8) 0.3787(4) 0.55361(5)
N1 N 0.22726(9) 0.1260(4) 0.78919(5)
C1 C 0.15786(9) 0.1598(4) 0.68603(6)
C2 C 0.07465(10) 0.3226(4) 0.70090(6)
H1 H 0.0674 0.3824 0.7411
C3 C 0.00291(10) 0.3957(5) 0.65631(7)
H2 H -0.0530 0.5016 0.6660
C4 C 0.01643(11) 0.3078(5) 0.59714(7)
C5 C 0.09772(12) 0.1545(5) 0.58017(7)
H3 H 0.1050 0.1028 0.5396
C6 C 0.16859(11) 0.0790(4) 0.62542(7)
H4 H 0.2242 -0.0272 0.6152
C7 C 0.23260(10) 0.0630(4) 0.73301(6)
H5 H 0.2847(13) -0.053(5) 0.7189(8)
C8 C 0.30393(10) 0.0247(4) 0.83091(6)
C9 C 0.39851(10) 0.0545(4) 0.81808(6)
H6 H 0.4141 0.1402 0.7807
C10 C 0.46860(10) -0.0459(4) 0.86194(7)
C11 C 0.44932(11) -0.1733(4) 0.91805(6)
H7 H 0.4977 -0.2401 0.9469
C12 C 0.35492(11) -0.1972(4) 0.92943(6)
C13 C 0.28228(11) -0.0973(5) 0.88757(6)
H8 H 0.2195 -0.1112 0.8970
loop_
_geom_bond_atom_site_label_1
_geom_bond_atom_site_label_2
_geom_bond_site_symmetry_1
_geom_bond_site_symmetry_2
Cl1 C12 1_555 1_555
Cl2 C10 1_555 1_555
F1 C4 1_555 1_555
N1 C7 1_555 1_555
C1 C2 1_555 1_555
C2 H1 1_555 1_555
C3 C2 1_555 1_555
H2 C3 1_555 1_555
C4 C3 1_555 1_555
C5 C4 1_555 1_555
H3 C5 1_555 1_555
C6 C1 1_555 1_555
H4 C6 1_555 1_555
C7 C1 1_555 1_555
H5 C7 1_555 1_555
C8 N1 1_555 1_555
C9 C8 1_555 1_555
H6 C9 1_555 1_555
C10 C9 1_555 1_555
C11 C10 1_555 1_555
H7 C11 1_555 1_555
C12 C11 1_555 1_555
C13 C8 1_555 1_555
H8 C13 1_555 1_555
C5 C6 1_555 1_555
C12 C13 1_555 1_555

#END
