
#######################################################################
#
#                 Cambridge Crystallographic Data Centre
#                                CCDC 
#
#######################################################################
#
# If this CIF has been generated from an entry in the Cambridge 
# Structural Database, then it will include bibliographic, chemical, 
# crystal, experimental, refinement or atomic coordinate data resulting 
# from the CCDC's data processing and validation procedures.
#
#######################################################################

data_TAXNOX
_chemical_formula_moiety         'C13 H14 O2'
_chemical_name_systematic        
2,3,4,5,7,8-Hexahydro-9H-indeno[5,6-b]oxepin-9-one
_symmetry_cell_setting           monoclinic
_symmetry_space_group_name_H-M   'P 21/c'
_symmetry_Int_Tables_number      14
_space_group_name_Hall           '-P 2ybc'
loop_
_symmetry_equiv_pos_site_id
_symmetry_equiv_pos_as_xyz
1 x,y,z
2 -x,1/2+y,1/2-z
3 -x,-y,-z
4 x,1/2-y,1/2+z
_cell_length_a                   20.6470(13)
_cell_length_b                   6.1783(4)
_cell_length_c                   17.7204(10)
_cell_angle_alpha                90
_cell_angle_beta                 112.1710(10)
_cell_angle_gamma                90
_cell_volume                     2093.34
_exptl_crystal_colour            colorless
_exptl_crystal_description       tabular
_cell_formula_units_Z            8
loop_
_atom_site_label
_atom_site_type_symbol
_atom_site_fract_x
_atom_site_fract_y
_atom_site_fract_z
O1 O -0.19514(7) 1.2189(2) 0.29602(9)
O2 O 0.08311(6) 1.24605(19) 0.38120(8)
C1 C 0.15855(11) 0.8179(3) 0.38200(13)
H1 H 0.2003 0.7289 0.4011
H2 H 0.1256 0.7516 0.3329
C2 C 0.12669(9) 0.8198(3) 0.44674(11)
H3 H 0.1294 0.6748 0.4687
H4 H 0.1546 0.9137 0.4909
C3 C 0.05200(9) 0.8939(3) 0.41721(10)
C4 C 0.03269(9) 1.1010(3) 0.38299(10)
C5 C -0.03576(9) 1.1683(3) 0.35394(10)
H5 H -0.0479 1.3048 0.3308
C6 C -0.08651(9) 1.0291(3) 0.35976(10)
C7 C -0.16243(10) 1.0596(3) 0.33074(11)
C8 C 0.17748(11) 1.0407(3) 0.36103(13)
H6 H 0.2110 1.1055 0.4101
H7 H 0.2003 1.0246 0.3225
C9 C 0.11680(11) 1.1929(3) 0.32545(12)
H8 H 0.1332 1.3253 0.3091
H9 H 0.0827 1.1276 0.2769
C10 C -0.06883(9) 0.8267(3) 0.39493(10)
C11 C -0.13224(10) 0.7078(3) 0.39658(12)
H10 H -0.1290 0.6867 0.4521
H11 H -0.1371 0.5679 0.3702
C12 C -0.19383(10) 0.8557(3) 0.34968(12)
H12 H -0.2242 0.7863 0.2998
H13 H -0.2210 0.8889 0.3825
C13 C 0.00010(9) 0.7598(3) 0.42270(10)
H14 H 0.0119 0.6227 0.4454
O3 O 0.68752(7) 0.0813(2) 0.44751(9)
O4 O 0.41288(6) 0.18958(19) 0.37857(7)
C14 C 0.66146(9) 0.2492(3) 0.41356(11)
C15 C 0.58780(9) 0.3151(3) 0.38819(10)
C16 C 0.53241(9) 0.2063(3) 0.39780(10)
H15 H 0.5389 0.0696 0.4215
C17 C 0.46797(9) 0.3041(3) 0.37175(10)
C18 C 0.38525(10) 0.2775(3) 0.43571(11)
H16 H 0.4232 0.3404 0.4813
H17 H 0.3653 0.1609 0.4566
C19 C 0.33036(10) 0.4466(3) 0.39860(12)
H18 H 0.3096 0.4841 0.4377
H19 H 0.2938 0.3847 0.3514
C20 C 0.35620(10) 0.6529(3) 0.37255(12)
H20 H 0.3919 0.7177 0.4199
H21 H 0.3176 0.7545 0.3522
C21 C 0.38632(9) 0.6176(3) 0.30703(11)
H22 H 0.3537 0.5296 0.2641
H23 H 0.3896 0.7569 0.2835
C22 C 0.45697(9) 0.5110(3) 0.33558(9)
C23 C 0.51321(9) 0.6144(3) 0.32612(10)
H24 H 0.5069 0.7504 0.3019
C24 C 0.57856(9) 0.5178(3) 0.35223(10)
C25 C 0.64552(9) 0.6032(3) 0.34821(12)
H25 H 0.6581 0.7408 0.3763
H26 H 0.6410 0.6221 0.2921
C26 C 0.69994(10) 0.4301(3) 0.39056(12)
H27 H 0.7216 0.3768 0.3542
H28 H 0.7361 0.4892 0.4388
loop_
_geom_bond_atom_site_label_1
_geom_bond_atom_site_label_2
_geom_bond_site_symmetry_1
_geom_bond_site_symmetry_2
O1 C7 1_555 1_555
O2 C4 1_555 1_555
C1 H1 1_555 1_555
H2 C1 1_555 1_555
C2 C1 1_555 1_555
H3 C2 1_555 1_555
H4 C2 1_555 1_555
C3 C2 1_555 1_555
C4 C3 1_555 1_555
C5 C4 1_555 1_555
H5 C5 1_555 1_555
C6 C5 1_555 1_555
C7 C6 1_555 1_555
C8 C1 1_555 1_555
H6 C8 1_555 1_555
H7 C8 1_555 1_555
C9 O2 1_555 1_555
H8 C9 1_555 1_555
H9 C9 1_555 1_555
C10 C6 1_555 1_555
C11 C10 1_555 1_555
H10 C11 1_555 1_555
H11 C11 1_555 1_555
C12 C7 1_555 1_555
H12 C12 1_555 1_555
H13 C12 1_555 1_555
C13 C3 1_555 1_555
H14 C13 1_555 1_555
O3 C14 1_555 1_555
O4 C17 1_555 1_555
C14 C15 1_555 1_555
C15 C16 1_555 1_555
C16 H15 1_555 1_555
C17 C16 1_555 1_555
C18 O4 1_555 1_555
H16 C18 1_555 1_555
H17 C18 1_555 1_555
C19 C18 1_555 1_555
H18 C19 1_555 1_555
H19 C19 1_555 1_555
C20 C19 1_555 1_555
H20 C20 1_555 1_555
H21 C20 1_555 1_555
C21 C20 1_555 1_555
H22 C21 1_555 1_555
H23 C21 1_555 1_555
C22 C17 1_555 1_555
C23 C22 1_555 1_555
H24 C23 1_555 1_555
C24 C15 1_555 1_555
C25 C24 1_555 1_555
H25 C25 1_555 1_555
H26 C25 1_555 1_555
C26 C14 1_555 1_555
H27 C26 1_555 1_555
H28 C26 1_555 1_555
C8 C9 1_555 1_555
C10 C13 1_555 1_555
C11 C12 1_555 1_555
C21 C22 1_555 1_555
C23 C24 1_555 1_555
C25 C26 1_555 1_555

#END
