
#######################################################################
#
#                 Cambridge Crystallographic Data Centre
#                                CCDC 
#
#######################################################################
#
# If this CIF has been generated from an entry in the Cambridge 
# Structural Database, then it will include bibliographic, chemical, 
# crystal, experimental, refinement or atomic coordinate data resulting 
# from the CCDC's data processing and validation procedures.
#
#######################################################################

data_TAXPEP
_chemical_compound_source        
'the leaves of Isodon japonica Hara var. glaucocalyx'
_chemical_name_common            'Glaucocalyxin I methanol solvate'
_chemical_formula_moiety         'C21 H32 O5,0.5(C1 H4 O1)'
_chemical_name_systematic        
'7,14-Dihydroxy-17-methoxykaurane-3,15-dione methanol solvate'
_symmetry_cell_setting           monoclinic
_symmetry_space_group_name_H-M   'C 2'
_symmetry_Int_Tables_number      5
_space_group_name_Hall           'C 2y'
loop_
_symmetry_equiv_pos_site_id
_symmetry_equiv_pos_as_xyz
1 x,y,z
2 -x,y,-z
3 1/2+x,1/2+y,z
4 1/2-x,1/2+y,-z
_cell_length_a                   19.655(7)
_cell_length_b                   7.741(3)
_cell_length_c                   14.444(5)
_cell_angle_alpha                90
_cell_angle_beta                 115.537(3)
_cell_angle_gamma                90
_cell_volume                     1982.95
_exptl_crystal_colour            colorless
_exptl_crystal_description       chunk
_cell_formula_units_Z            4
loop_
_atom_site_label
_atom_site_type_symbol
_atom_site_fract_x
_atom_site_fract_y
_atom_site_fract_z
O1 O 0.82040(10) 0.7191(3) 0.94779(14)
O2 O 0.51093(9) 0.1814(2) 0.60224(12)
H1 H 0.5086 0.1779 0.5446
O3 O 0.45688(10) 0.1635(2) 0.74191(13)
H2 H 0.4736 0.1296 0.7010
O4 O 0.39234(9) 0.5140(3) 0.51146(12)
C1 C 0.62586(14) 0.8316(3) 0.7953(2)
H3 H 0.5974 0.8796 0.7255
H4 H 0.6105 0.8964 0.8423
C2 C 0.71067(14) 0.8613(3) 0.82831(19)
H5 H 0.7175 0.9031 0.7681
H6 H 0.7280 0.9542 0.8805
C3 C 0.76033(13) 0.7065(3) 0.87145(18)
C4 C 0.73576(11) 0.5367(3) 0.81290(16)
C5 C 0.64842(11) 0.5322(3) 0.74874(15)
H7 H 0.6386 0.5890 0.6820
C6 C 0.61866(11) 0.3473(3) 0.72132(15)
H8 H 0.6499 0.2830 0.6946
H9 H 0.6217 0.2872 0.7834
C7 C 0.53780(11) 0.3520(3) 0.64116(15)
H10 H 0.5362 0.4232 0.5825
C8 C 0.48717(11) 0.4393(3) 0.68260(15)
C9 C 0.51756(12) 0.6254(3) 0.71956(16)
H11 H 0.5129 0.6861 0.6560
C10 C 0.60335(12) 0.6392(3) 0.79467(16)
C11 C 0.46266(14) 0.7237(3) 0.75229(18)
H12 H 0.4909 0.8184 0.7991
H13 H 0.4229 0.7773 0.6904
C12 C 0.42415(14) 0.6154(3) 0.80570(19)
H14 H 0.4592 0.6028 0.8792
H15 H 0.3789 0.6778 0.8015
C13 C 0.40047(13) 0.4349(3) 0.75825(17)
H16 H 0.3762 0.3678 0.7951
C14 C 0.47154(12) 0.3431(3) 0.76501(17)
H17 H 0.5142 0.3592 0.8345
C15 C 0.40704(12) 0.4678(3) 0.59783(16)
C16 C 0.35054(12) 0.4345(3) 0.64143(18)
H18 H 0.3350 0.3113 0.6241
C17 C 0.76744(13) 0.3840(3) 0.88641(19)
H19 H 0.7421 0.3771 0.9317
H20 H 0.8217 0.4003 0.9277
H21 H 0.7588 0.2768 0.8469
C18 C 0.77284(12) 0.5354(4) 0.73752(18)
H22 H 0.8278 0.5312 0.7764
H23 H 0.7585 0.6403 0.6955
H24 H 0.7556 0.4337 0.6929
C19 C 0.62214(12) 0.5875(3) 0.90553(15)
H25 H 0.5862 0.6421 0.9268
H26 H 0.6733 0.6258 0.9508
H27 H 0.6189 0.4617 0.9099
C20 C 0.2784(3) 0.5371(9) 0.5894(6)
H28 H 0.2837 0.6516 0.6223
H29 H 0.2659 0.5542 0.5159
O5 O 0.2218(2) 0.4397(11) 0.6005(5)
C21 C 0.1500(4) 0.5029(16) 0.5367(6)
H30 H 0.1398 0.4840 0.4648
H31 H 0.1478 0.6269 0.5491
H32 H 0.1121 0.4422 0.5517
O6? O 0.53987(16) 0.0524(5) 0.9413(2)
H33? H 0.5828 0.0960 0.9744
C22? C 0.5000 0.0582(12) 1.0000
H34? H 0.4653 -0.0401 0.9826
H35? H 0.4712 0.1662 0.9862
H36? H 0.5352 0.0527 1.0729
C23? C 0.2897(7) 0.5714(16) 0.6069(17)
C24? C 0.1675(11) 0.466(4) 0.5430(17)
H37? H 0.3140 0.6813 0.6396
H38? H 0.2722 0.5864 0.5321
H39? H 0.4943 0.1375 0.6418
H40? H 0.1852 0.3511 0.5348
H41? H 0.1537 0.5324 0.4797
H42? H 0.1233 0.4540 0.5574
H43? H 0.4723 0.1096 0.7973
O7? O 0.2249(4) 0.552(2) 0.6245(5)
loop_
_geom_bond_atom_site_label_1
_geom_bond_atom_site_label_2
_geom_bond_site_symmetry_1
_geom_bond_site_symmetry_2
O1 C3 1_555 1_555
O2 H1 1_555 1_555
O3 H2 1_555 1_555
O4 C15 1_555 1_555
C1 H3 1_555 1_555
H4 C1 1_555 1_555
C2 C1 1_555 1_555
H5 C2 1_555 1_555
H6 C2 1_555 1_555
C3 C2 1_555 1_555
C4 C3 1_555 1_555
C5 C4 1_555 1_555
H7 C5 1_555 1_555
C6 C5 1_555 1_555
H8 C6 1_555 1_555
H9 C6 1_555 1_555
C7 O2 1_555 1_555
H10 C7 1_555 1_555
C8 C7 1_555 1_555
C9 C8 1_555 1_555
H11 C9 1_555 1_555
C10 C1 1_555 1_555
C11 C9 1_555 1_555
H12 C11 1_555 1_555
H13 C11 1_555 1_555
C12 C11 1_555 1_555
H14 C12 1_555 1_555
H15 C12 1_555 1_555
C13 C12 1_555 1_555
H16 C13 1_555 1_555
C14 O3 1_555 1_555
H17 C14 1_555 1_555
C15 C8 1_555 1_555
C16 C13 1_555 1_555
H18 C16 1_555 1_555
C17 C4 1_555 1_555
H19 C17 1_555 1_555
H20 C17 1_555 1_555
H21 C17 1_555 1_555
C18 C4 1_555 1_555
H22 C18 1_555 1_555
H23 C18 1_555 1_555
H24 C18 1_555 1_555
C19 C10 1_555 1_555
H25 C19 1_555 1_555
H26 C19 1_555 1_555
H27 C19 1_555 1_555
C20 C16 1_555 1_555
H28 C20 1_555 1_555
H29 C20 1_555 1_555
O5 C20 1_555 1_555
C21 O5 1_555 1_555
H30 C21 1_555 1_555
H31 C21 1_555 1_555
H32 C21 1_555 1_555
C5 C10 1_555 1_555
C6 C7 1_555 1_555
C8 C14 1_555 1_555
C9 C10 1_555 1_555
C13 C14 1_555 1_555
C15 C16 1_555 1_555

#END
