
#######################################################################
#
#                 Cambridge Crystallographic Data Centre
#                                CCDC 
#
#######################################################################
#
# If this CIF has been generated from an entry in the Cambridge 
# Structural Database, then it will include bibliographic, chemical, 
# crystal, experimental, refinement or atomic coordinate data resulting 
# from the CCDC's data processing and validation procedures.
#
#######################################################################

data_TAXREP
_chemical_name_common            Dihydromaldoxin
_chemical_formula_moiety         'C17 H15 Cl1 O8'
_chemical_name_systematic        
"2-(3'-Chloro-2'-hydroxy-4'-methoxy-6'-methoxycarbonyl-phenoxy)-6-hydroxy-4-methylbenzoic acid"
_symmetry_cell_setting           triclinic
_symmetry_space_group_name_H-M   'P -1'
_symmetry_Int_Tables_number      2
_space_group_name_Hall           '-P 1'
loop_
_symmetry_equiv_pos_site_id
_symmetry_equiv_pos_as_xyz
1 x,y,z
2 -x,-y,-z
_cell_length_a                   7.524(1)
_cell_length_b                   8.834(5)
_cell_length_c                   13.605(1)
_cell_angle_alpha                102.52(2)
_cell_angle_beta                 108.36(7)
_cell_angle_gamma                94.30(4)
_cell_volume                     827.767
_chemical_melting_point          198-199deg.C
_cell_formula_units_Z            2
loop_
_atom_site_label
_atom_site_type_symbol
_atom_site_fract_x
_atom_site_fract_y
_atom_site_fract_z
C1 C 0.3615(5) 1.1469(4) 1.5443(3)
C2 C 0.2445(5) 1.0264(4) 1.4571(3)
C3 C 0.1707(5) 0.8859(4) 1.4691(3)
C4 C 0.2071(5) 0.8596(4) 1.5698(3)
C5 C 0.3218(5) 0.9770(4) 1.6587(3)
C6 C 0.3988(5) 1.1150(4) 1.6455(3)
C7 C 0.1258(6) 0.7062(5) 1.5835(3)
C8 C 0.4298(5) 1.2960(4) 1.5276(3)
C9 C -0.0288(6) 1.4849(6) 1.8233(4)
C10 C 0.4247(6) 1.2882(5) 2.1933(3)
C11 C 0.5201(5) 1.2268(4) 1.8342(3)
C12 C 0.3898(5) 1.2926(4) 1.8787(3)
C13 C 0.4024(5) 1.2950(4) 1.9846(3)
C14 C 0.5429(5) 1.2324(4) 2.0436(3)
C15 C 0.6741(5) 1.1675(4) 1.9989(3)
C16 C 0.6635(5) 1.1644(4) 1.8941(3)
C17 C 0.2359(6) 1.3612(5) 1.8167(4)
Cl1 Cl 0.8491(1) 1.0874(1) 2.0724(8)
O1 O 0.5559(4) 1.4003(3) 1.6065(2)
O2 O 0.3728(4) 1.3259(3) 1.4396(2)
O3 O 0.2112(4) 1.3695(4) 1.7266(3)
O4 O 0.1266(4) 1.4162(4) 1.8751(2)
O5 O 0.5615(4) 1.2269(3) 2.1466(2)
O6 O 0.7936(4) 1.0991(3) 1.8527(2)
O7 O 0.5244(3) 1.2276(3) 1.7316(2)
O8 O 0.1996(4) 1.0434(3) 1.3549(2)
H1 H 0.04656 0.63498 1.51172
H2 H 0.04338 0.72582 1.62909
H3 H 0.23053 0.65082 1.61867
H4 H -0.0214 1.52229 1.87258
H5 H -0.11950 1.40677 1.75757
H6 H 0.01518 1.57784 1.80060
H7 H 0.45526 1.27723 2.26841
H8 H 0.29267 1.23008 2.14968
H9 H 0.42335 1.40305 2.19478
H10 H 0.34913 0.96044 1.73383
H11 H 0.08844 0.80064 1.40321
H12 H 0.30724 1.34470 2.01628
H13 H 0.7658 1.0979 1.7718
H14 H 0.6025 1.5107 1.5843
H15 H 0.2617 1.1761 1.3675
loop_
_geom_bond_atom_site_label_1
_geom_bond_atom_site_label_2
_geom_bond_site_symmetry_1
_geom_bond_site_symmetry_2
C1 C2 1_555 1_555
C2 C3 1_555 1_555
C3 C4 1_555 1_555
C4 C5 1_555 1_555
C5 C6 1_555 1_555
C6 C1 1_555 1_555
C7 C4 1_555 1_555
C8 C1 1_555 1_555
C9 O4 1_555 1_555
C10 O5 1_555 1_555
C11 C12 1_555 1_555
C12 C13 1_555 1_555
C13 C14 1_555 1_555
C14 C15 1_555 1_555
C15 C16 1_555 1_555
C16 C11 1_555 1_555
C17 C12 1_555 1_555
Cl1 C15 1_555 1_555
O1 C8 1_555 1_555
O2 C8 1_555 1_555
O3 C17 1_555 1_555
O4 C17 1_555 1_555
O5 C14 1_555 1_555
O6 C16 1_555 1_555
O7 C6 1_555 1_555
O8 C2 1_555 1_555
H1 C7 1_555 1_555
H2 C7 1_555 1_555
H3 C7 1_555 1_555
H4 C9 1_555 1_555
H5 C9 1_555 1_555
H6 C9 1_555 1_555
H7 C10 1_555 1_555
H8 C10 1_555 1_555
H9 C10 1_555 1_555
H10 C5 1_555 1_555
H11 C3 1_555 1_555
H12 C13 1_555 1_555
H13 O6 1_555 1_555
H14 O1 1_555 1_555
H15 O8 1_555 1_555
C11 O7 1_555 1_555

#END
