
#######################################################################
#
#                 Cambridge Crystallographic Data Centre
#                                CCDC 
#
#######################################################################
#
# If this CIF has been generated from an entry in the Cambridge 
# Structural Database, then it will include bibliographic, chemical, 
# crystal, experimental, refinement or atomic coordinate data resulting 
# from the CCDC's data processing and validation procedures.
#
#######################################################################

data_TAXROB
_chemical_formula_moiety         'C8 H15 N1 O5'
_chemical_name_systematic        
N-(2,4,5-Trihydroxy-6-methyltetrahydro-2H-pyran-3-yl)acetamide
_symmetry_cell_setting           monoclinic
_symmetry_space_group_name_H-M   'P 21'
_symmetry_Int_Tables_number      4
_space_group_name_Hall           'P 2yb'
loop_
_symmetry_equiv_pos_site_id
_symmetry_equiv_pos_as_xyz
1 x,y,z
2 -x,1/2+y,-z
_cell_length_a                   9.2232(5)
_cell_length_b                   5.6143(3)
_cell_length_c                   9.4582(5)
_cell_angle_alpha                90
_cell_angle_beta                 106.2990(10)
_cell_angle_gamma                90
_cell_volume                     470.079
_exptl_crystal_colour            colorless
_exptl_crystal_description       plate
_cell_formula_units_Z            2
loop_
_atom_site_label
_atom_site_type_symbol
_atom_site_fract_x
_atom_site_fract_y
_atom_site_fract_z
C1 C 0.38104(15) 0.3154(2) 0.36340(14)
H1 H 0.431(2) 0.328(4) 0.466(2)
C2 C 0.47517(13) 0.3751(2) 0.25775(13)
H2 H 0.516(2) 0.539(4) 0.283(2)
C3 C 0.37542(14) 0.3681(2) 0.09814(13)
H3 H 0.335(2) 0.212(4) 0.071(2)
C4 C 0.24123(14) 0.5351(2) 0.08181(14)
H4 H 0.173(2) 0.519(4) -0.015(2)
C5 C 0.15660(14) 0.4640(3) 0.19304(14)
H5 H 0.125(2) 0.307(5) 0.175(2)
C6 C 0.02303(15) 0.6233(3) 0.18951(17)
H6 H -0.0219 0.5752 0.2675
H7 H -0.0525 0.6087 0.0936
H8 H 0.0571 0.7891 0.2051
C7 C 0.74266(14) 0.2697(3) 0.36152(14)
C8 C 0.86256(14) 0.0885(3) 0.36153(15)
H9 H 0.9385 0.0888 0.4577
H10 H 0.9109 0.1284 0.2846
H11 H 0.8165 -0.0698 0.3423
N1 N 0.60302(12) 0.2153(2) 0.27732(12)
H12 H 0.597(2) 0.096(5) 0.220(2)
O1 O 0.25723(11) 0.4768(2) 0.33985(10)
O2 O 0.33338(12) 0.0773(2) 0.34220(11)
H13 H 0.294(2) 0.036(5) 0.418(2)
O3 O 0.45632(11) 0.4449(2) -0.00131(10)
H14 H 0.517(3) 0.354(5) 0.005(3)
O4 O 0.28908(12) 0.7778(2) 0.09501(12)
H15 H 0.297(2) 0.820(5) 0.182(3)
O5 O 0.77119(11) 0.4565(2) 0.43351(11)
H16? H 0.8388 0.0095 0.2654
H17? H 0.8664 -0.0301 0.4385
H18? H 0.9608 0.1681 0.3808
loop_
_geom_bond_atom_site_label_1
_geom_bond_atom_site_label_2
_geom_bond_site_symmetry_1
_geom_bond_site_symmetry_2
C1 H1 1_555 1_555
C2 C1 1_555 1_555
H2 C2 1_555 1_555
C3 C2 1_555 1_555
H3 C3 1_555 1_555
C4 C3 1_555 1_555
H4 C4 1_555 1_555
C5 C4 1_555 1_555
H5 C5 1_555 1_555
C6 C5 1_555 1_555
H6 C6 1_555 1_555
H7 C6 1_555 1_555
H8 C6 1_555 1_555
C7 C8 1_555 1_555
C8 H9 1_555 1_555
H10 C8 1_555 1_555
H11 C8 1_555 1_555
N1 C2 1_555 1_555
H12 N1 1_555 1_555
O1 C1 1_555 1_555
O2 C1 1_555 1_555
H13 O2 1_555 1_555
O3 C3 1_555 1_555
H14 O3 1_555 1_555
O4 C4 1_555 1_555
H15 O4 1_555 1_555
O5 C7 1_555 1_555
C5 O1 1_555 1_555
C7 N1 1_555 1_555

#END
