
#######################################################################
#
#                 Cambridge Crystallographic Data Centre
#                                CCDC 
#
#######################################################################
#
# If this CIF has been generated from an entry in the Cambridge 
# Structural Database, then it will include bibliographic, chemical, 
# crystal, experimental, refinement or atomic coordinate data resulting 
# from the CCDC's data processing and validation procedures.
#
#######################################################################

data_TAXXOH
_chemical_formula_moiety         'C21 H19 N1 O3 S2,H2 O1'
_chemical_name_systematic        
'1,3-Dibenzyl-4-(1,3-dithiolan-2-ylidene)-3-hydroxypyrrolidine-2,5-dione monohydrate'
_symmetry_cell_setting           triclinic
_symmetry_space_group_name_H-M   'P -1'
_symmetry_Int_Tables_number      2
_space_group_name_Hall           '-P 1'
loop_
_symmetry_equiv_pos_site_id
_symmetry_equiv_pos_as_xyz
1 x,y,z
2 -x,-y,-z
_cell_length_a                   9.7050(19)
_cell_length_b                   9.8400(18)
_cell_length_c                   11.535(2)
_cell_angle_alpha                79.440(2)
_cell_angle_beta                 66.755(2)
_cell_angle_gamma                80.141(2)
_cell_volume                     989.018
_cell_formula_units_Z            2
loop_
_atom_site_label
_atom_site_type_symbol
_atom_site_fract_x
_atom_site_fract_y
_atom_site_fract_z
S1 S -0.36895(7) 0.12126(6) 0.40785(6)
S2 S -0.33035(7) 0.41789(6) 0.35627(7)
N1 N 0.13601(19) 0.08774(16) 0.30126(16)
O1 O -0.0038(2) 0.41977(15) 0.36149(17)
O2 O -0.07220(18) -0.03236(14) 0.37104(15)
O3 O 0.29343(18) 0.25925(17) 0.24230(16)
C1 C -0.0921(2) 0.21805(18) 0.32593(18)
C2 C 0.0253(2) 0.32024(19) 0.27777(19)
C3 C 0.0971(2) 0.3176(2) 0.03856(19)
C4 C -0.0165(2) 0.07774(19) 0.33643(18)
C5 C 0.1701(2) 0.2236(2) 0.27022(19)
C6 C 0.2826(2) -0.1291(2) 0.2125(2)
C7 C 0.0449(3) 0.4032(2) 0.1469(2)
H1 H -0.0508 0.4563 0.1519
H2 H 0.1171 0.4691 0.1276
C8 C 0.2451(3) -0.0329(2) 0.3110(2)
H3 H 0.2047 -0.0852 0.3949
H4 H 0.3374 0.0002 0.3031
C9 C -0.2439(2) 0.24716(19) 0.35921(18)
C10 C 0.2836(2) -0.2714(2) 0.2481(2)
H5 H 0.2554 -0.3071 0.3336
C11 C 0.3683(3) -0.3098(3) 0.0313(3)
H6 H 0.3979 -0.3703 -0.0296
C12 C -0.0022(3) 0.2503(2) 0.0158(2)
H7 H -0.1032 0.2557 0.0700
C13 C 0.2464(3) 0.3072(3) -0.0445(2)
H8 H 0.3153 0.3515 -0.0314
C14 C 0.3247(3) -0.0785(2) 0.0846(2)
H9 H 0.3246 0.0168 0.0586
C15 C 0.1951(3) 0.1653(3) -0.1671(2)
H10 H 0.2280 0.1138 -0.2350
C16 C 0.0462(3) 0.1758(3) -0.0858(2)
H11 H -0.0226 0.1319 -0.0997
C17 C 0.3262(3) -0.3609(2) 0.1573(3)
H12 H 0.3262 -0.4563 0.1823
C18 C -0.5392(3) 0.2417(3) 0.4547(3)
H13 H -0.6217 0.2032 0.4493
H14 H -0.5670 0.2584 0.5419
C19 C -0.5092(3) 0.3738(3) 0.3677(3)
H15 H -0.5889 0.4470 0.4009
H16 H -0.5045 0.3623 0.2844
C20 C 0.3668(3) -0.1701(3) -0.0048(2)
H17 H 0.3944 -0.1355 -0.0905
C21 C 0.2949(3) 0.2329(3) -0.1458(2)
H18 H 0.3957 0.2281 -0.2006
H19 H 0.015(3) 0.386(3) 0.420(3)
O4 O 0.0884(2) 0.3192(2) 0.55499(18)
H20 H 0.065(4) 0.372(4) 0.606(4)
H21 H 0.059(3) 0.242(3) 0.600(3)
loop_
_geom_bond_atom_site_label_1
_geom_bond_atom_site_label_2
_geom_bond_site_symmetry_1
_geom_bond_site_symmetry_2
S1 C9 1_555 1_555
S2 C9 1_555 1_555
N1 C4 1_555 1_555
O1 C2 1_555 1_555
O2 C4 1_555 1_555
O3 C5 1_555 1_555
C1 C2 1_555 1_555
C2 C5 1_555 1_555
C3 C7 1_555 1_555
C4 C1 1_555 1_555
C5 N1 1_555 1_555
C6 C8 1_555 1_555
C7 C2 1_555 1_555
H1 C7 1_555 1_555
H2 C7 1_555 1_555
C8 N1 1_555 1_555
H3 C8 1_555 1_555
H4 C8 1_555 1_555
C9 C1 1_555 1_555
C10 C6 1_555 1_555
H5 C10 1_555 1_555
C11 H6 1_555 1_555
C12 C3 1_555 1_555
H7 C12 1_555 1_555
C13 C3 1_555 1_555
H8 C13 1_555 1_555
C14 C6 1_555 1_555
H9 C14 1_555 1_555
C15 H10 1_555 1_555
C16 C12 1_555 1_555
H11 C16 1_555 1_555
C17 C10 1_555 1_555
H12 C17 1_555 1_555
C18 S1 1_555 1_555
H13 C18 1_555 1_555
H14 C18 1_555 1_555
C19 S2 1_555 1_555
H15 C19 1_555 1_555
H16 C19 1_555 1_555
C20 C11 1_555 1_555
H17 C20 1_555 1_555
C21 C13 1_555 1_555
H18 C21 1_555 1_555
O4 H20 1_555 1_555
H19 O1 1_555 1_555
H21 O4 1_555 1_555
C11 C17 1_555 1_555
C14 C20 1_555 1_555
C15 C16 1_555 1_555
C15 C21 1_555 1_555
C18 C19 1_555 1_555

#END
