
#######################################################################
#
#                 Cambridge Crystallographic Data Centre
#                                CCDC 
#
#######################################################################
#
# If this CIF has been generated from an entry in the Cambridge 
# Structural Database, then it will include bibliographic, chemical, 
# crystal, experimental, refinement or atomic coordinate data resulting 
# from the CCDC's data processing and validation procedures.
#
#######################################################################

data_TAYBIG01
_chemical_formula_moiety         'C17 H15 N1 O5'
_chemical_name_systematic        
'Methyl 2-(4-nitrophenyl)-4-oxo-4-phenylbutanoate'
_symmetry_cell_setting           monoclinic
_symmetry_space_group_name_H-M   'P 21'
_symmetry_Int_Tables_number      4
_space_group_name_Hall           'P 2yb'
loop_
_symmetry_equiv_pos_site_id
_symmetry_equiv_pos_as_xyz
1 x,y,z
2 -x,1/2+y,-z
_cell_length_a                   7.41750(10)
_cell_length_b                   12.6298(2)
_cell_length_c                   7.90910(10)
_cell_angle_alpha                90
_cell_angle_beta                 104.4580(10)
_cell_angle_gamma                90
_cell_volume                     717.472
_exptl_crystal_colour            colorless
_exptl_crystal_description       prism
_cell_formula_units_Z            2
_exptl_crystal_recrystallization_method ethanol/water
loop_
_atom_site_label
_atom_site_type_symbol
_atom_site_fract_x
_atom_site_fract_y
_atom_site_fract_z
C1 C 0.0553(2) 0.02506(15) -0.0432(2)
H1 H 0.0263 -0.0477 -0.0352
C2 C 0.0023(2) 0.07715(16) -0.2030(2)
H2 H -0.0627 0.0397 -0.304
C3 C 0.0439(2) 0.18324(15) -0.2151(2)
H3 H 0.0066 0.2185 -0.3244
C4 C 0.1403(2) 0.23841(16) -0.0679(2)
H4 H 0.1695 0.3111 -0.0765
C5 C 0.1935(2) 0.18667(15) 0.0915(2)
H5 H 0.2594 0.2243 0.192
C6 C 0.1515(2) 0.08016(15) 0.1057(2)
C7 C 0.2129(3) 0.02087(15) 0.2741(2)
C8 C 0.3180(3) 0.08098(14) 0.4338(2)
H6 H 0.2364 0.1369 0.4615
H7 H 0.4275 0.1159 0.4077
C9 C 0.3833(2) 0.00926(14) 0.5925(2)
H8 H 0.271 -0.0248 0.6174
C10 C 0.4873(2) 0.06832(14) 0.7574(2)
C11 C 0.5630(2) 0.16833(15) 0.7529(2)
H9 H 0.5486 0.2031 0.6438
C12 C 0.6599(3) 0.21897(15) 0.9051(2)
H10 H 0.7096 0.2881 0.9018
C13 C 0.6813(2) 0.16496(15) 1.0615(2)
C14 C 0.6089(2) 0.06500(15) 1.0708(2)
H11 H 0.627 0.0296 1.1798
C15 C 0.5094(3) 0.01720(14) 0.9180(2)
H12 H 0.4558 -0.0507 0.9226
C16 C 0.5130(2) -0.07832(15) 0.5620(2)
C17 C 0.7730(3) -0.11798(16) 0.4496(2)
H13 H 0.839 -0.1462 0.5636
H14 H 0.8617 -0.0822 0.3955
H15 H 0.713 -0.1762 0.3743
N1 N 0.7913(2) 0.21471(13) 1.22198(19)
O1 O 0.18274(18) -0.07361(11) 0.28233(16)
O2 O 0.83627(18) 0.30806(10) 1.21683(16)
O3 O 0.8379(2) 0.15957(12) 1.35362(17)
O4 O 0.63250(16) -0.04296(10) 0.47218(16)
O5 O 0.51579(18) -0.16773(10) 0.61857(16)
loop_
_geom_bond_atom_site_label_1
_geom_bond_atom_site_label_2
_geom_bond_site_symmetry_1
_geom_bond_site_symmetry_2
C1 H1 1_555 1_555
C2 C1 1_555 1_555
H2 C2 1_555 1_555
C3 C2 1_555 1_555
H3 C3 1_555 1_555
C4 C3 1_555 1_555
H4 C4 1_555 1_555
C5 C4 1_555 1_555
H5 C5 1_555 1_555
C6 C1 1_555 1_555
C7 C6 1_555 1_555
C8 C7 1_555 1_555
H6 C8 1_555 1_555
H7 C8 1_555 1_555
C9 C8 1_555 1_555
H8 C9 1_555 1_555
C10 C9 1_555 1_555
C11 C10 1_555 1_555
H9 C11 1_555 1_555
C12 C11 1_555 1_555
H10 C12 1_555 1_555
C13 C12 1_555 1_555
C14 C13 1_555 1_555
H11 C14 1_555 1_555
C15 C10 1_555 1_555
H12 C15 1_555 1_555
C16 C9 1_555 1_555
C17 H13 1_555 1_555
H14 C17 1_555 1_555
H15 C17 1_555 1_555
N1 C13 1_555 1_555
O1 C7 1_555 1_555
O2 N1 1_555 1_555
O3 N1 1_555 1_555
O4 C16 1_555 1_555
O5 C16 1_555 1_555
C5 C6 1_555 1_555
C14 C15 1_555 1_555
C17 O4 1_555 1_555

#END
