
#######################################################################
#
#                 Cambridge Crystallographic Data Centre
#                                CCDC 
#
#######################################################################
#
# If this CIF has been generated from an entry in the Cambridge 
# Structural Database, then it will include bibliographic, chemical, 
# crystal, experimental, refinement or atomic coordinate data resulting 
# from the CCDC's data processing and validation procedures.
#
#######################################################################

data_TAYFAB
_chemical_formula_moiety         'C16 H21 N1 O2 S2'
_chemical_name_systematic        
2,11-Dithia-14-nitro-4,5,6,7,8,9-hexahydro(3.3)paracyclophane
_symmetry_cell_setting           monoclinic
_symmetry_space_group_name_H-M   'P 21/n'
_symmetry_Int_Tables_number      14
_space_group_name_Hall           '-P 2yn'
loop_
_symmetry_equiv_pos_site_id
_symmetry_equiv_pos_as_xyz
1 x,y,z
2 1/2-x,1/2+y,1/2-z
3 -x,-y,-z
4 1/2+x,1/2-y,1/2+z
_cell_length_a                   9.7706(18)
_cell_length_b                   12.592(2)
_cell_length_c                   12.741(2)
_cell_angle_alpha                90
_cell_angle_beta                 90.145(4)
_cell_angle_gamma                90
_cell_volume                     1567.54
_exptl_crystal_colour            yellow
_chemical_melting_point          '133-135 deg.C'
_cell_formula_units_Z            4
_exptl_crystal_recrystallization_method n-hexane/dichloromethane
loop_
_atom_site_label
_atom_site_type_symbol
_atom_site_fract_x
_atom_site_fract_y
_atom_site_fract_z
S1 S 0.10952(6) 0.34974(5) 0.06474(5)
S2 S -0.41355(6) 0.48978(5) 0.36572(5)
O1 O 0.2528(2) 0.52631(18) 0.2528(2)
O2 O 0.0779(2) 0.62595(15) 0.2467(2)
N1 N 0.1321(2) 0.54205(16) 0.26646(18)
C1 C -0.0525(2) 0.27997(17) 0.05336(19)
H1 H -0.0485 0.2358 -0.0090
H2 H -0.0605 0.2327 0.1132
C2 C -0.1836(2) 0.34631(16) 0.04721(16)
H3 H -0.1923 0.3740 -0.0244
C3 C -0.3064(2) 0.27487(17) 0.06901(18)
H4 H -0.3142 0.2232 0.0129
H5 H -0.2900 0.2363 0.1337
C4 C -0.4417(2) 0.33432(19) 0.07840(19)
H6 H -0.5123 0.2850 0.1003
H7 H -0.4672 0.3618 0.0100
C5 C -0.4353(2) 0.42602(17) 0.15639(17)
H8 H -0.5205 0.4666 0.1501
C6 C -0.3176(2) 0.49871(16) 0.12489(19)
H9 H -0.3361 0.5283 0.0560
H10 H -0.3113 0.5571 0.1744
C7 C -0.18256(19) 0.43987(15) 0.12254(16)
H11 H -0.1107 0.4888 0.1021
H12 H -0.1616 0.4144 0.1926
C8 C -0.4251(2) 0.38500(17) 0.26868(17)
H13 H -0.3451 0.3399 0.2747
H14 H -0.5049 0.3418 0.2836
C9 C -0.2858(2) 0.4413(2) 0.45858(17)
H15 H -0.2675 0.4962 0.5102
H16 H -0.3225 0.3802 0.4954
C10 C -0.1537(2) 0.41041(18) 0.40666(15)
C11 C -0.0631(2) 0.48614(17) 0.36883(17)
H17 H -0.0766 0.5575 0.3844
C12 C 0.04640(19) 0.45594(16) 0.30842(17)
C13 C 0.0712(2) 0.34987(16) 0.27996(18)
C14 C -0.0156(2) 0.27628(17) 0.32499(18)
H18 H 0.0000 0.2045 0.3128
C15 C -0.1251(2) 0.30558(18) 0.38768(17)
H19 H -0.1800 0.2533 0.4173
C16 C 0.1672(2) 0.31432(19) 0.1958(2)
H20 H 0.1777 0.2378 0.1998
H21 H 0.2563 0.3460 0.2081
loop_
_geom_bond_atom_site_label_1
_geom_bond_atom_site_label_2
_geom_bond_site_symmetry_1
_geom_bond_site_symmetry_2
S1 C1 1_555 1_555
S2 C8 1_555 1_555
O1 N1 1_555 1_555
O2 N1 1_555 1_555
N1 C12 1_555 1_555
C1 H1 1_555 1_555
H2 C1 1_555 1_555
C2 C1 1_555 1_555
H3 C2 1_555 1_555
C3 C2 1_555 1_555
H4 C3 1_555 1_555
H5 C3 1_555 1_555
C4 C3 1_555 1_555
H6 C4 1_555 1_555
H7 C4 1_555 1_555
C5 C4 1_555 1_555
H8 C5 1_555 1_555
C6 C5 1_555 1_555
H9 C6 1_555 1_555
H10 C6 1_555 1_555
C7 C2 1_555 1_555
H11 C7 1_555 1_555
H12 C7 1_555 1_555
C8 C5 1_555 1_555
H13 C8 1_555 1_555
H14 C8 1_555 1_555
C9 S2 1_555 1_555
H15 C9 1_555 1_555
H16 C9 1_555 1_555
C10 C9 1_555 1_555
C11 C10 1_555 1_555
H17 C11 1_555 1_555
C12 C11 1_555 1_555
C13 C12 1_555 1_555
C14 C13 1_555 1_555
H18 C14 1_555 1_555
C15 C10 1_555 1_555
H19 C15 1_555 1_555
C16 S1 1_555 1_555
H20 C16 1_555 1_555
H21 C16 1_555 1_555
C6 C7 1_555 1_555
C13 C16 1_555 1_555
C14 C15 1_555 1_555

#END
