
#######################################################################
#
#                 Cambridge Crystallographic Data Centre
#                                CCDC 
#
#######################################################################
#
# If this CIF has been generated from an entry in the Cambridge 
# Structural Database, then it will include bibliographic, chemical, 
# crystal, experimental, refinement or atomic coordinate data resulting 
# from the CCDC's data processing and validation procedures.
#
#######################################################################

data_TAYGAE
_chemical_formula_moiety         'C22 H24 N2 O4'
_chemical_name_systematic        
2,6-dicyclohexylpyrrolo[3,4-f]isoindole-1,3,5,7(2H,6H)-tetrone
_symmetry_cell_setting           monoclinic
_symmetry_space_group_name_H-M   'P 21/n'
_symmetry_Int_Tables_number      14
_space_group_name_Hall           '-P 2yn'
loop_
_symmetry_equiv_pos_site_id
_symmetry_equiv_pos_as_xyz
1 x,y,z
2 1/2-x,1/2+y,1/2-z
3 -x,-y,-z
4 1/2+x,1/2-y,1/2+z
_cell_length_a                   27.492(3)
_cell_length_b                   5.2268(7)
_cell_length_c                   27.504(5)
_cell_angle_alpha                90
_cell_angle_beta                 112.440(8)
_cell_angle_gamma                90
_cell_volume                     3652.93
_exptl_crystal_colour            colorless
_exptl_crystal_description       needle
_cell_formula_units_Z            8
loop_
_atom_site_label
_atom_site_type_symbol
_atom_site_fract_x
_atom_site_fract_y
_atom_site_fract_z
O1 O 0.4148(3) 0.7250(13) 0.3847(3)
O2 O 0.3578(3) 0.7318(12) 0.1518(3)
O3 O 0.2530(3) 0.0173(14) 0.1352(3)
O4 O 0.3094(3) 0.0146(14) 0.3667(3)
N1 N 0.3659(4) 0.3638(17) 0.3905(4)
N2 N 0.3006(3) 0.3724(16) 0.1286(3)
C1 C 0.3835(4) 0.5476(19) 0.3643(4)
C2 C 0.3586(4) 0.4888(19) 0.3065(4)
C3 C 0.3633(4) 0.5996(19) 0.2648(4)
H1 H 0.3850 0.7461 0.2688
C4 C 0.3363(4) 0.4969(19) 0.2163(4)
C5 C 0.3348(4) 0.5622(18) 0.1628(4)
C6 C 0.2810(4) 0.2103(18) 0.1550(4)
C7 C 0.3040(4) 0.2682(17) 0.2120(4)
C8 C 0.2983(4) 0.1566(19) 0.2539(4)
H2 H 0.2763 0.0119 0.2502
C9 C 0.3262(4) 0.2645(17) 0.3020(4)
C10 C 0.3299(4) 0.1969(19) 0.3548(4)
C11 C 0.3812(4) 0.330(2) 0.4478(4)
H3 H 0.3597 0.1883 0.4537
C12 C 0.3675(5) 0.590(2) 0.4715(4)
H4 H 0.3890 0.7339 0.4672
H5 H 0.3299 0.6342 0.4532
C13 C 0.3803(5) 0.540(2) 0.5300(4)
H6 H 0.3728 0.6956 0.5464
H7 H 0.3573 0.4008 0.5335
C14 C 0.4368(4) 0.465(2) 0.5583(4)
H8 H 0.4432 0.4290 0.5956
H9 H 0.4595 0.6102 0.5574
C15 C 0.4518(4) 0.230(2) 0.5342(4)
H10 H 0.4330 0.0789 0.5400
H11 H 0.4900 0.1992 0.5520
C16 C 0.4379(4) 0.2651(19) 0.4751(4)
H12 H 0.4597 0.4034 0.4693
H13 H 0.4457 0.1052 0.4601
C17 C 0.2880(4) 0.3529(19) 0.0723(4)
H14 H 0.2619 0.2111 0.0588
C18 C 0.3374(4) 0.276(2) 0.0615(4)
H15 H 0.3655 0.4049 0.0767
H16 H 0.3508 0.1085 0.0780
C19 C 0.3225(5) 0.2585(19) 0.0021(4)
H17 H 0.3547 0.2235 -0.0049
H18 H 0.2982 0.1123 -0.0118
C20 C 0.2964(5) 0.500(2) -0.0276(5)
H19 H 0.2859 0.4727 -0.0659
H20 H 0.3217 0.6440 -0.0170
C21 C 0.2474(5) 0.569(2) -0.0158(4)
H21 H 0.2318 0.7297 -0.0341
H22 H 0.2208 0.4318 -0.0294
C22 C 0.2611(5) 0.6014(19) 0.0432(4)
H23 H 0.2287 0.6350 0.0498
H24 H 0.2851 0.7489 0.0566
O5 O 0.6576(4) 0.6153(17) 0.3696(4)
O6 O 0.8884(3) 0.5583(15) 0.4158(3)
O7 O 0.8621(4) -0.1286(17) 0.3051(4)
O8 O 0.6291(4) -0.0911(17) 0.2631(4)
N3 N 0.6284(4) 0.2688(19) 0.3128(4)
N4 N 0.8904(4) 0.2178(17) 0.3643(4)
C23 C 0.6646(5) 0.437(2) 0.3454(5)
C24 C 0.7172(5) 0.357(2) 0.3410(5)
C25 C 0.7672(5) 0.465(2) 0.3686(5)
H25 H 0.7729 0.6084 0.3913
C26 C 0.8079(5) 0.336(2) 0.3589(5)
C27 C 0.8659(5) 0.394(2) 0.3846(5)
C28 C 0.8531(5) 0.044(2) 0.3292(5)
C29 C 0.7997(5) 0.128(2) 0.3281(5)
C30 C 0.7511(5) 0.028(2) 0.3014(5)
H26 H 0.7451 -0.1122 0.2778
C31 C 0.7102(5) 0.150(3) 0.3121(5)
C32 C 0.6522(5) 0.087(2) 0.2921(5)
C33 C 0.5715(5) 0.288(3) 0.3076(6)
H27 H 0.5705 0.4303 0.3315
C34 C 0.5384(5) 0.367(2) 0.2556(5)
H28 H 0.5428 0.2473 0.2297
H29 H 0.5494 0.5393 0.2488
C35 C 0.4808(5) 0.375(2) 0.2484(6)
H30 H 0.4750 0.5236 0.2678
H31 H 0.4590 0.3994 0.2106
C36 C 0.4628(5) 0.137(3) 0.2673(6)
H32 H 0.4266 0.1633 0.2658
H33 H 0.4618 -0.0068 0.2434
C37 C 0.4971(5) 0.067(3) 0.3211(6)
H34 H 0.4852 -0.0995 0.3300
H35 H 0.4932 0.1965 0.3456
C38 C 0.5567(5) 0.045(3) 0.3301(6)
H36 H 0.5784 0.0297 0.3682
H37 H 0.5627 -0.1085 0.3120
C39 C 0.9471(5) 0.193(2) 0.3765(5)
H38 H 0.9513 0.0515 0.3539
C40 C 0.9774(5) 0.113(2) 0.4335(5)
H39 H 0.9629 -0.0498 0.4407
H40 H 0.9735 0.2450 0.4575
C41 C 1.0360(5) 0.078(2) 0.4436(5)
H41 H 1.0555 0.0320 0.4810
H42 H 1.0400 -0.0649 0.4217
C42 C 1.0590(5) 0.315(2) 0.4311(5)
H43 H 1.0964 0.2851 0.4370
H44 H 1.0575 0.4550 0.4548
C43 C 1.0279(5) 0.398(3) 0.3721(5)
H45 H 1.0420 0.5618 0.3651
H46 H 1.0325 0.2665 0.3482
C44 C 0.9691(5) 0.427(2) 0.3619(5)
H47 H 0.9645 0.5734 0.3825
H48 H 0.9494 0.4643 0.3242
loop_
_geom_bond_atom_site_label_1
_geom_bond_atom_site_label_2
_geom_bond_site_symmetry_1
_geom_bond_site_symmetry_2
O1 C1 1_555 1_555
O2 C5 1_555 1_555
O3 C6 1_555 1_555
O4 C10 1_555 1_555
N1 C1 1_555 1_555
N2 C5 1_555 1_555
C1 C2 1_555 1_555
C2 C3 1_555 1_555
C3 H1 1_555 1_555
C4 C3 1_555 1_555
C5 C4 1_555 1_555
C6 N2 1_555 1_555
C7 C4 1_555 1_555
C8 C7 1_555 1_555
H2 C8 1_555 1_555
C9 C2 1_555 1_555
C10 N1 1_555 1_555
C11 N1 1_555 1_555
H3 C11 1_555 1_555
C12 C11 1_555 1_555
H4 C12 1_555 1_555
H5 C12 1_555 1_555
C13 C12 1_555 1_555
H6 C13 1_555 1_555
H7 C13 1_555 1_555
C14 C13 1_555 1_555
H8 C14 1_555 1_555
H9 C14 1_555 1_555
C15 C14 1_555 1_555
H10 C15 1_555 1_555
H11 C15 1_555 1_555
C16 C11 1_555 1_555
H12 C16 1_555 1_555
H13 C16 1_555 1_555
C17 N2 1_555 1_555
H14 C17 1_555 1_555
C18 C17 1_555 1_555
H15 C18 1_555 1_555
H16 C18 1_555 1_555
C19 C18 1_555 1_555
H17 C19 1_555 1_555
H18 C19 1_555 1_555
C20 C19 1_555 1_555
H19 C20 1_555 1_555
H20 C20 1_555 1_555
C21 C20 1_555 1_555
H21 C21 1_555 1_555
H22 C21 1_555 1_555
C22 C17 1_555 1_555
H23 C22 1_555 1_555
H24 C22 1_555 1_555
O5 C23 1_555 1_555
O6 C27 1_555 1_555
O7 C28 1_555 1_555
O8 C32 1_555 1_555
N3 C23 1_555 1_555
N4 C27 1_555 1_555
C23 C24 1_555 1_555
C24 C25 1_555 1_555
C25 H25 1_555 1_555
C26 C25 1_555 1_555
C27 C26 1_555 1_555
C28 N4 1_555 1_555
C29 C26 1_555 1_555
C30 C29 1_555 1_555
H26 C30 1_555 1_555
C31 C24 1_555 1_555
C32 N3 1_555 1_555
C33 N3 1_555 1_555
H27 C33 1_555 1_555
C34 C33 1_555 1_555
H28 C34 1_555 1_555
H29 C34 1_555 1_555
C35 C34 1_555 1_555
H30 C35 1_555 1_555
H31 C35 1_555 1_555
C36 C35 1_555 1_555
H32 C36 1_555 1_555
H33 C36 1_555 1_555
C37 C36 1_555 1_555
H34 C37 1_555 1_555
H35 C37 1_555 1_555
C38 C33 1_555 1_555
H36 C38 1_555 1_555
H37 C38 1_555 1_555
C39 N4 1_555 1_555
H38 C39 1_555 1_555
C40 C39 1_555 1_555
H39 C40 1_555 1_555
H40 C40 1_555 1_555
C41 C40 1_555 1_555
H41 C41 1_555 1_555
H42 C41 1_555 1_555
C42 C41 1_555 1_555
H43 C42 1_555 1_555
H44 C42 1_555 1_555
C43 C42 1_555 1_555
H45 C43 1_555 1_555
H46 C43 1_555 1_555
C44 C39 1_555 1_555
H47 C44 1_555 1_555
H48 C44 1_555 1_555
C6 C7 1_555 1_555
C8 C9 1_555 1_555
C9 C10 1_555 1_555
C15 C16 1_555 1_555
C21 C22 1_555 1_555
C28 C29 1_555 1_555
C30 C31 1_555 1_555
C31 C32 1_555 1_555
C37 C38 1_555 1_555
C43 C44 1_555 1_555

#END
