
#######################################################################
#
#                 Cambridge Crystallographic Data Centre
#                                CCDC 
#
#######################################################################
#
# If this CIF has been generated from an entry in the Cambridge 
# Structural Database, then it will include bibliographic, chemical, 
# crystal, experimental, refinement or atomic coordinate data resulting 
# from the CCDC's data processing and validation procedures.
#
#######################################################################

data_TAYGUX
_chemical_formula_moiety         'C24 H15 Cl2 N3 O4,C4 H8 O2'
_chemical_name_systematic        
"Dimethyl 5,5'-dichloro-2',8'-dihydrospiro[indole-3,6'-isoindolo[4,5,6-cd]indole]-7',9'-dicarboxylate ethyl acetate solvate"
_symmetry_cell_setting           orthorhombic
_symmetry_space_group_name_H-M   'P 21 21 21'
_symmetry_Int_Tables_number      19
_space_group_name_Hall           'P 2ac 2ab'
loop_
_symmetry_equiv_pos_site_id
_symmetry_equiv_pos_as_xyz
1 x,y,z
2 1/2-x,-y,1/2+z
3 -x,1/2+y,1/2-z
4 1/2+x,1/2-y,-z
_cell_length_a                   9.8140(5)
_cell_length_b                   12.9791(7)
_cell_length_c                   20.2420(11)
_cell_angle_alpha                90
_cell_angle_beta                 90
_cell_angle_gamma                90
_cell_volume                     2578.36
_exptl_crystal_colour            colorless
_exptl_crystal_description       block
_cell_formula_units_Z            4
_exptl_crystal_recrystallization_method 'ethyl acetate'
loop_
_atom_site_label
_atom_site_type_symbol
_atom_site_fract_x
_atom_site_fract_y
_atom_site_fract_z
Cl1 Cl -0.10861(6) 0.29529(5) -0.06748(3)
Cl2 Cl 0.01532(6) 0.20256(5) 0.19741(3)
N1 N 0.0357(2) 0.73001(16) 0.12698(10)
H1 H 0.0019 0.7895 0.1142
C1 C 0.1685(2) 0.7133(2) 0.14364(12)
C2 C 0.1821(2) 0.6102(2) 0.16108(12)
C3 C 0.0513(2) 0.5634(2) 0.15479(12)
C4 C -0.0365(2) 0.6414(2) 0.13302(12)
C5 C -0.1816(3) 0.6430(2) 0.11449(13)
C6 C -0.3463(3) 0.7351(3) 0.05302(17)
H2 H -0.3739 0.6744 0.0275
H3 H -0.3546 0.7968 0.0254
H4 H -0.4053 0.7420 0.0918
C7 C 0.2683(3) 0.7964(2) 0.14053(12)
C8 C 0.2941(3) 0.9736(2) 0.11704(16)
H5 H 0.3440 0.9824 0.1586
H6 H 0.2381 1.0348 0.1087
H7 H 0.3590 0.9645 0.0807
N2 N -0.1987(2) 0.40103(17) 0.21264(10)
C9 C -0.0850(3) 0.4435(2) 0.22704(12)
H8 H -0.0658 0.4693 0.2700
C10 C 0.0192(2) 0.45000(19) 0.16979(12)
C11 C -0.0658(2) 0.39936(19) 0.11646(12)
C12 C -0.0374(2) 0.37848(19) 0.05101(12)
H9 H 0.0459 0.3993 0.0311
C13 C -0.1370(3) 0.3253(2) 0.01552(13)
C14 C -0.2597(2) 0.2952(2) 0.04351(13)
H10 H -0.3247 0.2586 0.0179
C15 C -0.2876(3) 0.3188(2) 0.10928(13)
H11 H -0.3715 0.2993 0.1291
C16 C -0.1899(2) 0.3710(2) 0.14472(12)
N3 N 0.4935(2) 0.46990(16) 0.20726(10)
H12 H 0.5802 0.4606 0.2166
C17 C 0.4353(2) 0.5619(2) 0.18892(12)
H13 H 0.4828 0.6251 0.1833
C18 C 0.2978(3) 0.5482(2) 0.18001(12)
C19 C 0.2717(2) 0.4420(2) 0.19188(12)
C20 C 0.1479(2) 0.3891(2) 0.18778(12)
C21 C 0.1560(2) 0.2843(2) 0.20231(12)
C22 C 0.2787(3) 0.2370(2) 0.22185(13)
H14 H 0.2779 0.1658 0.2328
C23 C 0.3994(3) 0.2903(2) 0.22556(12)
H15 H 0.4818 0.2579 0.2388
C24 C 0.3951(3) 0.3948(2) 0.20880(12)
O1 O -0.26654(18) 0.58199(14) 0.13184(9)
O2 O -0.20710(17) 0.72336(15) 0.07408(10)
O3 O 0.38812(17) 0.78796(15) 0.15239(9)
O4 O 0.20791(18) 0.88455(15) 0.12160(9)
C25 C -0.3137(3) 1.0279(3) 0.14457(16)
H16 H -0.3730 0.9739 0.1625
H17 H -0.3674 1.0743 0.1166
H18 H -0.2732 1.0671 0.1810
C26 C -0.2036(3) 0.9799(2) 0.10450(14)
C27 C -0.1277(3) 0.9465(3) -0.00495(14)
H19 H -0.1708 0.9267 -0.0473
H20 H -0.0867 0.8840 0.0148
C28 C -0.0187(3) 1.0249(2) -0.01749(16)
H21 H -0.0601 1.0882 -0.0346
H22 H 0.0461 0.9978 -0.0499
H23 H 0.0292 1.0400 0.0239
O5 O -0.1045(2) 0.93861(16) 0.12635(9)
O6 O -0.23063(19) 0.98787(17) 0.03956(10)
loop_
_geom_bond_atom_site_label_1
_geom_bond_atom_site_label_2
_geom_bond_site_symmetry_1
_geom_bond_site_symmetry_2
Cl1 C13 1_555 1_555
Cl2 C21 1_555 1_555
N1 H1 1_555 1_555
C1 N1 1_555 1_555
C2 C1 1_555 1_555
C3 C2 1_555 1_555
C4 N1 1_555 1_555
C5 C4 1_555 1_555
C6 H2 1_555 1_555
H3 C6 1_555 1_555
H4 C6 1_555 1_555
C7 C1 1_555 1_555
C8 H5 1_555 1_555
H6 C8 1_555 1_555
H7 C8 1_555 1_555
N2 C9 1_555 1_555
C9 H8 1_555 1_555
C10 C3 1_555 1_555
C11 C10 1_555 1_555
C12 C11 1_555 1_555
H9 C12 1_555 1_555
C13 C12 1_555 1_555
C14 C13 1_555 1_555
H10 C14 1_555 1_555
C15 C14 1_555 1_555
H11 C15 1_555 1_555
C16 N2 1_555 1_555
N3 H12 1_555 1_555
C17 N3 1_555 1_555
H13 C17 1_555 1_555
C18 C2 1_555 1_555
C19 C18 1_555 1_555
C20 C10 1_555 1_555
C21 C20 1_555 1_555
C22 C21 1_555 1_555
H14 C22 1_555 1_555
C23 C22 1_555 1_555
H15 C23 1_555 1_555
C24 N3 1_555 1_555
O1 C5 1_555 1_555
O2 C5 1_555 1_555
O3 C7 1_555 1_555
O4 C7 1_555 1_555
C25 H16 1_555 1_555
H17 C25 1_555 1_555
H18 C25 1_555 1_555
C26 C25 1_555 1_555
C27 H19 1_555 1_555
H20 C27 1_555 1_555
C28 C27 1_555 1_555
H21 C28 1_555 1_555
H22 C28 1_555 1_555
H23 C28 1_555 1_555
O5 C26 1_555 1_555
O6 C26 1_555 1_555
C3 C4 1_555 1_555
C6 O2 1_555 1_555
C8 O4 1_555 1_555
C9 C10 1_555 1_555
C11 C16 1_555 1_555
C15 C16 1_555 1_555
C17 C18 1_555 1_555
C19 C20 1_555 1_555
C19 C24 1_555 1_555
C23 C24 1_555 1_555
C27 O6 1_555 1_555

#END
