
#######################################################################
#
#                 Cambridge Crystallographic Data Centre
#                                CCDC 
#
#######################################################################
#
# If this CIF has been generated from an entry in the Cambridge 
# Structural Database, then it will include bibliographic, chemical, 
# crystal, experimental, refinement or atomic coordinate data resulting 
# from the CCDC's data processing and validation procedures.
#
#######################################################################

data_TAYXUP
_chemical_formula_moiety         'C6 H10 N2 2+,2(C6 H5 O3 S1 1-)'
_chemical_name_systematic        'benzene-1,4-diaminium bis(benzenesulfonate)'
_symmetry_cell_setting           orthorhombic
_symmetry_space_group_name_H-M   'P b c a'
_symmetry_Int_Tables_number      61
_space_group_name_Hall           '-P 2ac 2ab'
loop_
_symmetry_equiv_pos_site_id
_symmetry_equiv_pos_as_xyz
1 x,y,z
2 1/2-x,-y,1/2+z
3 1/2+x,1/2-y,-z
4 -x,1/2+y,1/2-z
5 -x,-y,-z
6 1/2+x,y,1/2-z
7 1/2-x,1/2+y,z
8 x,1/2-y,1/2+z
_cell_length_a                   7.3346(2)
_cell_length_b                   7.5087(2)
_cell_length_c                   36.7164(14)
_cell_angle_alpha                90
_cell_angle_beta                 90
_cell_angle_gamma                90
_cell_volume                     2022.09
_exptl_crystal_colour            colorless
_exptl_crystal_description       block
_cell_formula_units_Z            4
loop_
_atom_site_label
_atom_site_type_symbol
_atom_site_fract_x
_atom_site_fract_y
_atom_site_fract_z
C1 C 0.4908(3) 0.5036(4) 0.34887(7)
C2 C 0.3680(5) 0.5810(4) 0.32550(8)
H1 H 0.2879 0.6681 0.3337
C3 C 0.3656(6) 0.5269(6) 0.28938(9)
H2 H 0.2826 0.5783 0.2734
C4 C 0.4822(5) 0.4002(6) 0.27690(10)
H3 H 0.4797 0.3661 0.2526
C5 C 0.6034(5) 0.3231(6) 0.30042(9)
H4 H 0.6828 0.2356 0.2921
C6 C 0.6087(5) 0.3746(4) 0.33664(8)
H5 H 0.6915 0.3222 0.3526
O1 O 0.3598(3) 0.7034(3) 0.39970(5)
O2 O 0.4732(3) 0.4140(3) 0.41729(6)
O3 O 0.6814(3) 0.6490(3) 0.40013(5)
S1 S 0.50278(8) 0.56981(9) 0.395320(18)
C7 C 1.0111(3) 0.5195(3) 0.46321(7)
C8 C 1.1460(4) 0.5882(4) 0.48479(8)
H6 H 1.2446 0.6472 0.4744
C9 C 1.1342(4) 0.5688(5) 0.52212(8)
N1 N 1.0238(3) 0.5376(3) 0.42381(6)
H7 H 1.1245 0.5975 0.4181
H8 H 0.9268 0.5963 0.4156
H9 H 1.0277 0.4300 0.4137
H10 H 1.222(4) 0.611(5) 0.5382(8)
C7D C 0.9889(3) 0.4805(3) 0.53679(7)
C8D C 0.8540(4) 0.4118(4) 0.51521(8)
H6D H 0.7554 0.3528 0.5256
C9D C 0.8658(4) 0.4312(5) 0.47788(8)
N1D N 0.9762(3) 0.4624(3) 0.57619(6)
H7D H 0.8755 0.4025 0.5819
H8D H 1.0732 0.4037 0.5844
H9D H 0.9723 0.5700 0.5863
H10D H 0.778(4) 0.389(5) 0.4618(8)
loop_
_geom_bond_atom_site_label_1
_geom_bond_atom_site_label_2
_geom_bond_site_symmetry_1
_geom_bond_site_symmetry_2
C1 C2 1_555 1_555
C2 H1 1_555 1_555
C3 C2 1_555 1_555
H2 C3 1_555 1_555
C4 C3 1_555 1_555
H3 C4 1_555 1_555
C5 C4 1_555 1_555
H4 C5 1_555 1_555
C6 C1 1_555 1_555
H5 C6 1_555 1_555
O1 S1 1_555 1_555
O2 S1 1_555 1_555
O3 S1 1_555 1_555
S1 C1 1_555 1_555
C7 C8 1_555 1_555
C8 H6 1_555 1_555
C9 C8 1_555 1_555
N1 C7 1_555 1_555
H7 N1 1_555 1_555
H8 N1 1_555 1_555
H9 N1 1_555 1_555
H10 C9 1_555 1_555
C7D C9 1_555 1_555
C8D C7D 1_555 1_555
H6D C8D 1_555 1_555
C9D C7 1_555 1_555
N1D C7D 1_555 1_555
H7D N1D 1_555 1_555
H8D N1D 1_555 1_555
H9D N1D 1_555 1_555
H10D C9D 1_555 1_555
C5 C6 1_555 1_555
C8D C9D 1_555 1_555

#END
