
#######################################################################
#
#                 Cambridge Crystallographic Data Centre
#                                CCDC 
#
#######################################################################
#
# If this CIF has been generated from an entry in the Cambridge 
# Structural Database, then it will include bibliographic, chemical, 
# crystal, experimental, refinement or atomic coordinate data resulting 
# from the CCDC's data processing and validation procedures.
#
#######################################################################

data_TAYXOJ
_chemical_formula_moiety         'C6 H10 N2 2+,2(C6 H6 N1 O3 S1 1-)'
_chemical_name_systematic        
'benzene-1,4-diaminium bis(2-aminobenzenesulfonate)'
_symmetry_cell_setting           orthorhombic
_symmetry_space_group_name_H-M   'P b c a'
_symmetry_Int_Tables_number      61
_space_group_name_Hall           '-P 2ac 2ab'
loop_
_symmetry_equiv_pos_site_id
_symmetry_equiv_pos_as_xyz
1 x,y,z
2 1/2-x,-y,1/2+z
3 1/2+x,1/2-y,-z
4 -x,1/2+y,1/2-z
5 -x,-y,-z
6 1/2+x,y,1/2-z
7 1/2-x,1/2+y,z
8 x,1/2-y,1/2+z
_cell_length_a                   7.3996(4)
_cell_length_b                   7.6266(5)
_cell_length_c                   37.156(2)
_cell_angle_alpha                90
_cell_angle_beta                 90
_cell_angle_gamma                90
_cell_volume                     2096.85
_exptl_crystal_colour            colorless
_exptl_crystal_description       block
_cell_formula_units_Z            4
loop_
_atom_site_label
_atom_site_type_symbol
_atom_site_fract_x
_atom_site_fract_y
_atom_site_fract_z
C1 C 0.3977(8) -0.0126(7) 0.67470(14)
C2 C 0.4041(8) 0.0251(8) 0.71168(15)
H1 H 0.3179 -0.0231 0.7270
C3 C 0.5364(8) 0.1327(9) 0.72561(15)
H2 H 0.5368 0.1572 0.7501
C4 C 0.6703(8) 0.2060(8) 0.70368(15)
H3 H 0.7597 0.2781 0.7132
C5 C 0.6648(8) 0.1669(7) 0.66706(15)
H4 H 0.7530 0.2133 0.6520
C6 C 0.5318(7) 0.0612(7) 0.65250(14)
N1 N 0.2574(7) -0.1095(7) 0.66086(12)
O1 O 0.6894(5) 0.1014(5) 0.59092(10)
O2 O 0.4782(5) -0.1452(5) 0.59733(10)
O3 O 0.3701(5) 0.1559(5) 0.59441(9)
S1 S 0.51928(17) 0.03699(18) 0.60521(3)
H5 H 0.181(7) -0.168(7) 0.6758(12)
H6 H 0.275(8) -0.176(7) 0.6411(10)
C7 C 0.0185(7) -0.0015(7) 0.53668(13)
C8 C 0.1220(8) 0.1119(8) 0.51653(15)
H7 H 0.2030 0.1876 0.5277
C9 C 0.1041(8) 0.1120(8) 0.47923(15)
H8 H 0.1746 0.1864 0.4652
N2 N 0.0362(6) -0.0040(6) 0.57586(11)
H9 H 0.1197 0.0733 0.5826
H10 H 0.0690 -0.1108 0.5830
H11 H -0.0693 0.0239 0.5858
C7D C -0.0185(7) 0.0015(7) 0.46332(13)
C8D C -0.1220(8) -0.1119(8) 0.48347(15)
H7D H -0.2030 -0.1876 0.4723
C9D C -0.1041(8) -0.1120(8) 0.52077(15)
H8D H -0.1746 -0.1864 0.5348
N2D N -0.0362(6) 0.0040(6) 0.42414(11)
H9D H -0.1197 -0.0733 0.4174
H10D H -0.0690 0.1108 0.4170
H11D H 0.0693 -0.0239 0.4142
loop_
_geom_bond_atom_site_label_1
_geom_bond_atom_site_label_2
_geom_bond_site_symmetry_1
_geom_bond_site_symmetry_2
C1 C2 1_555 1_555
C2 H1 1_555 1_555
C3 C2 1_555 1_555
H2 C3 1_555 1_555
C4 C3 1_555 1_555
H3 C4 1_555 1_555
C5 C4 1_555 1_555
H4 C5 1_555 1_555
C6 C1 1_555 1_555
N1 C1 1_555 1_555
O1 S1 1_555 1_555
O2 S1 1_555 1_555
O3 S1 1_555 1_555
S1 C6 1_555 1_555
H5 N1 1_555 1_555
H6 N1 1_555 1_555
C7 C8 1_555 1_555
C8 H7 1_555 1_555
C9 C8 1_555 1_555
H8 C9 1_555 1_555
N2 C7 1_555 1_555
H9 N2 1_555 1_555
H10 N2 1_555 1_555
H11 N2 1_555 1_555
C7D C9 1_555 1_555
C8D C7D 1_555 1_555
H7D C8D 1_555 1_555
C9D C7 1_555 1_555
H8D C9D 1_555 1_555
N2D C7D 1_555 1_555
H9D N2D 1_555 1_555
H10D N2D 1_555 1_555
H11D N2D 1_555 1_555
C5 C6 1_555 1_555
C8D C9D 1_555 1_555

#END
