
#######################################################################
#
#                 Cambridge Crystallographic Data Centre
#                                CCDC 
#
#######################################################################
#
# If this CIF has been generated from an entry in the Cambridge 
# Structural Database, then it will include bibliographic, chemical, 
# crystal, experimental, refinement or atomic coordinate data resulting 
# from the CCDC's data processing and validation procedures.
#
#######################################################################

data_TAYZIE
_chemical_formula_moiety         'C25 H21 N1'
_chemical_name_systematic        
6-Ethyl-5-methyl-11-phenyl-5H-indeno[1,2-c]quinoline
_symmetry_cell_setting           monoclinic
_symmetry_space_group_name_H-M   'P 21/n'
_symmetry_Int_Tables_number      14
_space_group_name_Hall           '-P 2yn'
loop_
_symmetry_equiv_pos_site_id
_symmetry_equiv_pos_as_xyz
1 x,y,z
2 1/2-x,1/2+y,1/2-z
3 -x,-y,-z
4 1/2+x,1/2-y,1/2+z
_cell_length_a                   10.198(4)
_cell_length_b                   11.168(5)
_cell_length_c                   15.819(7)
_cell_angle_alpha                90
_cell_angle_beta                 98.631(6)
_cell_angle_gamma                90
_cell_volume                     1781.24
_exptl_crystal_colour            orange
_exptl_crystal_description       block
_cell_formula_units_Z            4
loop_
_atom_site_label
_atom_site_type_symbol
_atom_site_fract_x
_atom_site_fract_y
_atom_site_fract_z
N1 N 0.62721(15) 0.37930(13) 0.14504(10)
C1 C 0.65550(18) 0.45423(17) 0.08130(12)
C2 C 0.64197(18) 0.57591(16) 0.08980(11)
C3 C 0.66534(19) 0.67526(17) 0.03463(12)
C4 C 0.7254(2) 0.68793(19) -0.03902(13)
H1 H 0.7609 0.6215 -0.0629
C5 C 0.7318(2) 0.7990(2) -0.07596(14)
H2 H 0.7709 0.8067 -0.1251
C6 C 0.6812(2) 0.8992(2) -0.04134(14)
H3 H 0.6857 0.9731 -0.0678
C7 C 0.6243(2) 0.89085(18) 0.03186(12)
H4 H 0.5910 0.9588 0.0552
C8 C 0.61688(18) 0.77951(17) 0.07092(12)
C9 C 0.56350(18) 0.74784(15) 0.14742(11)
C10 C 0.58250(17) 0.62608(15) 0.15995(11)
C11 C 0.56297(17) 0.54698(16) 0.22894(11)
C12 C 0.5272(2) 0.58604(18) 0.30689(12)
H5 H 0.5078 0.6666 0.3133
C13 C 0.5198(2) 0.5101(2) 0.37333(13)
H6 H 0.4955 0.5388 0.4239
C14 C 0.5487(2) 0.3902(2) 0.36532(15)
H7 H 0.5450 0.3383 0.4109
C15 C 0.5826(2) 0.34788(19) 0.29067(15)
H8 H 0.6017 0.2669 0.2860
C16 C 0.58909(17) 0.42378(17) 0.22085(12)
C17 C 0.6381(3) 0.24852(19) 0.13765(17)
H9 H 0.6545 0.2283 0.0812
H10 H 0.5569 0.2118 0.1480
H11 H 0.7101 0.2201 0.1789
C18 C 0.7013(2) 0.40051(19) 0.00354(13)
H12 H 0.6835 0.4569 -0.0434
H13 H 0.6499 0.3288 -0.0125
C19 C 0.8478(2) 0.3685(3) 0.01637(16)
H14 H 0.8997 0.4393 0.0312
H15 H 0.8704 0.3353 -0.0356
H16 H 0.8660 0.3108 0.0616
C20 C 0.49382(18) 0.83384(16) 0.19662(11)
C21 C 0.3604(2) 0.81903(19) 0.20260(13)
H17 H 0.3152 0.7533 0.1765
C22 C 0.2933(2) 0.8995(2) 0.24639(14)
H18 H 0.2039 0.8877 0.2497
C23 C 0.3580(3) 0.9965(2) 0.28478(15)
H19 H 0.3129 1.0513 0.3141
C24 C 0.4896(3) 1.01285(18) 0.28003(15)
H20 H 0.5343 1.0781 0.3072
C25 C 0.5570(2) 0.93309(17) 0.23507(13)
H21 H 0.6457 0.9467 0.2308
loop_
_geom_bond_atom_site_label_1
_geom_bond_atom_site_label_2
_geom_bond_site_symmetry_1
_geom_bond_site_symmetry_2
N1 C1 1_555 1_555
C1 C2 1_555 1_555
C2 C3 1_555 1_555
C3 C4 1_555 1_555
C4 H1 1_555 1_555
C5 C4 1_555 1_555
H2 C5 1_555 1_555
C6 C5 1_555 1_555
H3 C6 1_555 1_555
C7 C6 1_555 1_555
H4 C7 1_555 1_555
C8 C3 1_555 1_555
C9 C8 1_555 1_555
C10 C2 1_555 1_555
C11 C10 1_555 1_555
C12 C11 1_555 1_555
H5 C12 1_555 1_555
C13 C12 1_555 1_555
H6 C13 1_555 1_555
C14 C13 1_555 1_555
H7 C14 1_555 1_555
C15 C14 1_555 1_555
H8 C15 1_555 1_555
C16 N1 1_555 1_555
C17 N1 1_555 1_555
H9 C17 1_555 1_555
H10 C17 1_555 1_555
H11 C17 1_555 1_555
C18 C1 1_555 1_555
H12 C18 1_555 1_555
H13 C18 1_555 1_555
C19 C18 1_555 1_555
H14 C19 1_555 1_555
H15 C19 1_555 1_555
H16 C19 1_555 1_555
C20 C9 1_555 1_555
C21 C20 1_555 1_555
H17 C21 1_555 1_555
C22 C21 1_555 1_555
H18 C22 1_555 1_555
C23 C22 1_555 1_555
H19 C23 1_555 1_555
C24 C23 1_555 1_555
H20 C24 1_555 1_555
C25 C20 1_555 1_555
H21 C25 1_555 1_555
C7 C8 1_555 1_555
C9 C10 1_555 1_555
C11 C16 1_555 1_555
C15 C16 1_555 1_555
C24 C25 1_555 1_555

#END
