
#######################################################################
#
#                 Cambridge Crystallographic Data Centre
#                                CCDC 
#
#######################################################################
#
# If this CIF has been generated from an entry in the Cambridge 
# Structural Database, then it will include bibliographic, chemical, 
# crystal, experimental, refinement or atomic coordinate data resulting 
# from the CCDC's data processing and validation procedures.
#
#######################################################################

data_TAZFOR
_chemical_formula_moiety         'C33 H33 F3 S3'
_chemical_name_systematic        
3,3',3''-((2,4,6-Triethylbenzene-1,3,5-triyl)tris(methylene))tris(4-fluorobenzenethiol)
_symmetry_cell_setting           trigonal
_symmetry_space_group_name_H-M   'P 3 1 c'
_symmetry_Int_Tables_number      159
_space_group_name_Hall           "P 3 -2'c"
loop_
_symmetry_equiv_pos_site_id
_symmetry_equiv_pos_as_xyz
1 x,y,z
2 -y,x-y,z
3 -x+y,-x,z
4 y,x,1/2+z
5 x-y,-y,1/2+z
6 -x,-x+y,1/2+z
_cell_length_a                   13.5211(10)
_cell_length_b                   13.5211(10)
_cell_length_c                   9.2218(9)
_cell_angle_alpha                90
_cell_angle_beta                 90
_cell_angle_gamma                120
_cell_volume                     1460.06
_exptl_crystal_colour            colorless
_exptl_crystal_description       platelet
_cell_formula_units_Z            2
loop_
_atom_site_label
_atom_site_type_symbol
_atom_site_fract_x
_atom_site_fract_y
_atom_site_fract_z
S1 S 0.52017(8) 0.81002(8) 1.24592(13)
F1 F 0.80606(16) 0.89801(18) 0.7304(3)
C1 C 0.6032(3) 0.8378(3) 1.0868(5)
C2 C 0.7165(4) 0.8672(4) 1.1034(5)
C3 C 0.7836(4) 0.8868(4) 0.9843(5)
C4 C 0.7374(3) 0.8787(3) 0.8478(4)
C5 C 0.6240(3) 0.8475(3) 0.8241(4)
C6 C 0.5577(3) 0.8272(3) 0.9485(4)
C7 C 0.5767(3) 0.8339(3) 0.6715(4)
C8 C 0.4499(3) 0.7485(3) 0.6649(4)
C9 C 0.3690(3) 0.7841(3) 0.6651(4)
C10 C 0.4064(3) 0.9106(3) 0.6685(4)
C11 C 0.4228(3) 0.9627(3) 0.5176(4)
H1 H 0.431(4) 0.820(4) 1.192(5)
H2 H 0.7474 0.8738 1.1977
H3 H 0.8611 0.9058 0.9948
H4 H 0.4795 0.8056 0.9385
H5 H 0.5906 0.9089 0.6361
H6 H 0.6178 0.8082 0.6065
H7 H 0.4792 0.9521 0.7228
H8 H 0.3483 0.9208 0.7212
H9 H 0.4696 1.0460 0.5244
H10 H 0.3482 0.9421 0.4761
H11 H 0.4612 0.9336 0.4552
S1A S 0.18998(8) 0.71015(11) 1.24592(13)
S1B S 0.28985(11) 0.47983(8) 1.24592(13)
F1A F 0.10199(18) 0.90805(24) 0.7304(3)
F1B F 0.09195(24) 0.19394(16) 0.7304(3)
C1A C 0.1622(3) 0.7654(4) 1.0868(5)
C1B C 0.2346(4) 0.3968(3) 1.0868(5)
C2A C 0.1328(4) 0.8493(6) 1.1034(5)
C2B C 0.1507(6) 0.2835(4) 1.1034(5)
C3A C 0.1132(4) 0.8968(6) 0.9843(5)
C3B C 0.1032(6) 0.2164(4) 0.9843(5)
C4A C 0.1213(3) 0.8587(4) 0.8478(4)
C4B C 0.1413(4) 0.2626(3) 0.8478(4)
C5A C 0.1525(3) 0.7765(4) 0.8241(4)
C5B C 0.2235(4) 0.3760(3) 0.8241(4)
C6A C 0.1728(3) 0.7305(4) 0.9485(4)
C6B C 0.2695(4) 0.4423(3) 0.9485(4)
C7A C 0.1661(3) 0.7428(4) 0.6715(4)
C7B C 0.2572(4) 0.4233(3) 0.6715(4)
C8A C 0.2515(3) 0.7014(4) 0.6649(4)
C8B C 0.2986(4) 0.5501(3) 0.6649(4)
C9A C 0.2159(3) 0.5849(4) 0.6651(4)
C9B C 0.4151(4) 0.6310(3) 0.6651(4)
C10A C 0.0894(3) 0.4958(4) 0.6685(4)
C10B C 0.5042(4) 0.5936(3) 0.6685(4)
C11A C 0.0373(3) 0.4601(4) 0.5176(4)
C11B C 0.5399(4) 0.5772(3) 0.5176(4)
H1A H 0.180(4) 0.611(6) 1.192(5)
H1B H 0.389(6) 0.569(4) 1.192(5)
H2A H 0.1262 0.8736 1.1977
H2B H 0.1264 0.2526 1.1977
H3A H 0.0942 0.9553 0.9948
H3B H 0.0447 0.1389 0.9948
H4A H 0.1944 0.6739 0.9385
H4B H 0.3261 0.5205 0.9385
H5A H 0.0911 0.6817 0.6361
H5B H 0.3183 0.4094 0.6361
H6A H 0.1918 0.8096 0.6065
H6B H 0.1904 0.3822 0.6065
H7A H 0.0479 0.5271 0.7228
H7B H 0.4729 0.5208 0.7228
H8A H 0.0792 0.4275 0.7212
H8B H 0.5725 0.6517 0.7212
H9A H -0.0460 0.4236 0.5244
H9B H 0.5764 0.5304 0.5244
H10A H 0.0579 0.4061 0.4761
H10B H 0.5939 0.6518 0.4761
H11A H 0.0664 0.5276 0.4552
H11B H 0.4724 0.5388 0.4552
loop_
_geom_bond_atom_site_label_1
_geom_bond_atom_site_label_2
_geom_bond_site_symmetry_1
_geom_bond_site_symmetry_2
S1 C1 1_555 1_555
F1 C4 1_555 1_555
C1 C2 1_555 1_555
C2 C3 1_555 1_555
C3 C4 1_555 1_555
C4 C5 1_555 1_555
C5 C6 1_555 1_555
C6 C1 1_555 1_555
C7 C5 1_555 1_555
C8 C7 1_555 1_555
C9 C8 1_555 1_555
C10 C9 1_555 1_555
C11 C10 1_555 1_555
H1 S1 1_555 1_555
H2 C2 1_555 1_555
H3 C3 1_555 1_555
H4 C6 1_555 1_555
H5 C7 1_555 1_555
H6 C7 1_555 1_555
H7 C10 1_555 1_555
H8 C10 1_555 1_555
H9 C11 1_555 1_555
H10 C11 1_555 1_555
H11 C11 1_555 1_555
S1A C1A 1_555 1_555
S1B C1B 1_555 1_555
F1A C4A 1_555 1_555
F1B C4B 1_555 1_555
C1A C2A 1_555 1_555
C1B C2B 1_555 1_555
C2A C3A 1_555 1_555
C2B C3B 1_555 1_555
C3A C4A 1_555 1_555
C3B C4B 1_555 1_555
C4A C5A 1_555 1_555
C4B C5B 1_555 1_555
C5A C6A 1_555 1_555
C5B C6B 1_555 1_555
C6A C1A 1_555 1_555
C6B C1B 1_555 1_555
C7A C5A 1_555 1_555
C7B C5B 1_555 1_555
C8A C9 1_555 1_555
C8B C7B 1_555 1_555
C9A C8A 1_555 1_555
C9B C8 1_555 1_555
C10A C9A 1_555 1_555
C10B C9B 1_555 1_555
C11A C10A 1_555 1_555
C11B C10B 1_555 1_555
H1A S1A 1_555 1_555
H1B S1B 1_555 1_555
H2A C2A 1_555 1_555
H2B C2B 1_555 1_555
H3A C3A 1_555 1_555
H3B C3B 1_555 1_555
H4A C6A 1_555 1_555
H4B C6B 1_555 1_555
H5A C7A 1_555 1_555
H5B C7B 1_555 1_555
H6A C7A 1_555 1_555
H6B C7B 1_555 1_555
H7A C10A 1_555 1_555
H7B C10B 1_555 1_555
H8A C10A 1_555 1_555
H8B C10B 1_555 1_555
H9A C11A 1_555 1_555
H9B C11B 1_555 1_555
H10A C11A 1_555 1_555
H10B C11B 1_555 1_555
H11A C11A 1_555 1_555
H11B C11B 1_555 1_555
C7A C8A 1_555 1_555
C8B C9A 1_555 1_555
C8B C9B 1_555 1_555

#END
