
#######################################################################
#
#                 Cambridge Crystallographic Data Centre
#                                CCDC 
#
#######################################################################
#
# If this CIF has been generated from an entry in the Cambridge 
# Structural Database, then it will include bibliographic, chemical, 
# crystal, experimental, refinement or atomic coordinate data resulting 
# from the CCDC's data processing and validation procedures.
#
#######################################################################

data_TAZRES
_chemical_formula_moiety         'C22 H20 Br1 N1 O2'
_chemical_name_systematic        
4-Benzylidene-3a-(3-bromopropyl)-3a,4,4a,5-tetrahydrofuro(3',2':2,3)cyclobuta(1,2-b)indol-2(1H)-one
_symmetry_cell_setting           monoclinic
_symmetry_space_group_name_H-M   'P 21/c'
_symmetry_Int_Tables_number      14
_space_group_name_Hall           '-P 2ybc'
loop_
_symmetry_equiv_pos_site_id
_symmetry_equiv_pos_as_xyz
1 x,y,z
2 -x,1/2+y,1/2-z
3 -x,-y,-z
4 x,1/2-y,1/2+z
_cell_length_a                   19.3272(7)
_cell_length_b                   11.6860(5)
_cell_length_c                   16.0890(6)
_cell_angle_alpha                90
_cell_angle_beta                 92.6300(10)
_cell_angle_gamma                90
_cell_volume                     3630
_exptl_crystal_colour            colorless
_exptl_crystal_description       Plate
_cell_formula_units_Z            8
loop_
_atom_site_label
_atom_site_type_symbol
_atom_site_fract_x
_atom_site_fract_y
_atom_site_fract_z
Br1 Br 0.44344(3) 0.36621(5) 1.02269(4)
C1 C 0.0674(3) 0.4326(4) 0.7833(3)
C2 C 0.0587(3) 0.5068(5) 0.7158(3)
H1 H 0.0462 0.4791 0.6617
C3 C 0.0692(3) 0.6224(5) 0.7307(3)
H2 H 0.0634 0.6744 0.6855
C4 C 0.0878(3) 0.6654(4) 0.8095(3)
H3 H 0.0945 0.7452 0.8177
C5 C 0.0964(3) 0.5890(5) 0.8767(3)
H4 H 0.1083 0.6163 0.9311
C6 C 0.0872(3) 0.4731(4) 0.8618(3)
C7 C 0.0965(3) 0.3728(4) 0.9208(3)
C8 C 0.0839(3) 0.2676(4) 0.8609(3)
H5 H 0.0553 0.2056 0.8850
C9 C 0.1616(3) 0.2443(4) 0.8678(3)
C10 C 0.1721(3) 0.3311(4) 0.9378(3)
C11 C 0.0642(3) 0.3730(4) 1.0043(3)
H6 H 0.0150 0.3499 0.9990
H7 H 0.0676 0.4496 1.0305
C12 C 0.1068(3) 0.2861(5) 1.0538(3)
C13 C 0.2321(3) 0.4142(5) 0.9452(3)
H8 H 0.2194 0.4789 0.9812
H9 H 0.2408 0.4454 0.8894
C14 C 0.2986(3) 0.3593(4) 0.9813(4)
H10 H 0.2919 0.3363 1.0396
H11 H 0.3086 0.2894 0.9492
C15 C 0.3593(3) 0.4401(5) 0.9789(4)
H12 H 0.3500 0.5090 1.0123
H13 H 0.3655 0.4645 0.9208
C16 C 0.2060(3) 0.1829(5) 0.8263(3)
H14 H 0.2536 0.1979 0.8389
C17 C 0.1910(3) 0.0937(5) 0.7627(3)
C18 C 0.1260(3) 0.0441(5) 0.7494(3)
H15 H 0.0877 0.0733 0.7778
C19 C 0.1162(3) -0.0483(5) 0.6945(4)
H16 H 0.0716 -0.0817 0.6857
C20 C 0.1721(3) -0.0905(5) 0.6533(4)
H17 H 0.1658 -0.1529 0.6158
C21 C 0.2376(3) -0.0422(5) 0.6662(4)
H18 H 0.2760 -0.0716 0.6382
C22 C 0.2459(3) 0.0493(5) 0.7202(3)
H19 H 0.2905 0.0827 0.7285
N1 N 0.0546(2) 0.3142(4) 0.7833(3)
H39 H 0.0327 0.2752 0.7433
O1 O 0.0938(2) 0.2360(3) 1.1159(2)
O2 O 0.16824(18) 0.2691(3) 1.0177(2)
Br2 Br 0.07916(3) 0.62672(5) 0.49046(4)
C23 C 0.4208(3) 0.5711(4) 0.2989(3)
C24 C 0.4369(3) 0.4881(4) 0.2406(3)
H20 H 0.4519 0.5091 0.1873
C25 C 0.4304(3) 0.3736(5) 0.2628(4)
H21 H 0.4412 0.3156 0.2242
C26 C 0.4084(3) 0.3432(5) 0.3404(3)
H22 H 0.4048 0.2645 0.3544
C27 C 0.3912(3) 0.4266(5) 0.3984(3)
H23 H 0.3769 0.4054 0.4520
C28 C 0.3956(3) 0.5416(4) 0.3758(3)
C29 C 0.3821(3) 0.6466(4) 0.4257(3)
C30 C 0.4020(3) 0.7454(4) 0.3633(3)
H24 H 0.4330 0.8052 0.3894
C31 C 0.3257(3) 0.7803(4) 0.3565(3)
C32 C 0.3081(3) 0.6990(4) 0.4265(3)
C33 C 0.4113(3) 0.6527(4) 0.5148(3)
H25 H 0.4061 0.5786 0.5437
H26 H 0.4609 0.6744 0.5168
C34 C 0.3679(3) 0.7442(5) 0.5528(3)
C35 C 0.2403(3) 0.6332(5) 0.4203(3)
H27 H 0.2415 0.5798 0.3727
H28 H 0.2020 0.6880 0.4085
C36 C 0.2247(3) 0.5655(5) 0.4980(4)
H29 H 0.2597 0.5041 0.5059
H30 H 0.2291 0.6169 0.5468
C37 C 0.1530(3) 0.5121(5) 0.4946(4)
H31 H 0.1483 0.4633 0.5444
H32 H 0.1479 0.4624 0.4449
C38 C 0.2860(3) 0.8511(4) 0.3124(3)
H33 H 0.2376 0.8426 0.3189
C39 C 0.3055(3) 0.9417(4) 0.2544(3)
C40 C 0.3747(3) 0.9666(4) 0.2367(3)
H34 H 0.4110 0.9182 0.2575
C41 C 0.3898(3) 1.0608(5) 0.1895(4)
H35 H 0.4367 1.0781 0.1795
C42 C 0.3379(3) 1.1304(5) 0.1565(3)
H36 H 0.3492 1.1944 0.1233
C43 C 0.2691(3) 1.1072(5) 0.1717(4)
H37 H 0.2332 1.1552 0.1494
C44 C 0.2537(3) 1.0131(5) 0.2198(3)
H38 H 0.2066 0.9966 0.2296
N2 N 0.4308(2) 0.6897(4) 0.2921(3)
H40 H 0.4512 0.7245 0.2513
O3 O 0.3794(2) 0.7957(3) 0.6175(2)
O4 O 0.31025(18) 0.7665(3) 0.5053(2)
loop_
_geom_bond_atom_site_label_1
_geom_bond_atom_site_label_2
_geom_bond_site_symmetry_1
_geom_bond_site_symmetry_2
Br1 C15 1_555 1_555
Br2 C37 1_555 1_555
C1 C2 1_555 1_555
C2 H1 1_555 1_555
C3 C2 1_555 1_555
H2 C3 1_555 1_555
C4 C3 1_555 1_555
H3 C4 1_555 1_555
C5 C4 1_555 1_555
H4 C5 1_555 1_555
C6 C1 1_555 1_555
C7 C6 1_555 1_555
C8 C7 1_555 1_555
H5 C8 1_555 1_555
C9 C8 1_555 1_555
C10 C7 1_555 1_555
C11 C7 1_555 1_555
H6 C11 1_555 1_555
H7 C11 1_555 1_555
C12 C11 1_555 1_555
C13 C10 1_555 1_555
H8 C13 1_555 1_555
H9 C13 1_555 1_555
C14 C13 1_555 1_555
H10 C14 1_555 1_555
H11 C14 1_555 1_555
C15 C14 1_555 1_555
H12 C15 1_555 1_555
H13 C15 1_555 1_555
C16 C9 1_555 1_555
H14 C16 1_555 1_555
C17 C16 1_555 1_555
C18 C17 1_555 1_555
H15 C18 1_555 1_555
C19 C18 1_555 1_555
H16 C19 1_555 1_555
C20 C19 1_555 1_555
H17 C20 1_555 1_555
C21 C20 1_555 1_555
H18 C21 1_555 1_555
C22 C17 1_555 1_555
H19 C22 1_555 1_555
C23 C24 1_555 1_555
C24 H20 1_555 1_555
C25 C24 1_555 1_555
H21 C25 1_555 1_555
C26 C25 1_555 1_555
H22 C26 1_555 1_555
C27 C26 1_555 1_555
H23 C27 1_555 1_555
C28 C23 1_555 1_555
C29 C28 1_555 1_555
C30 C29 1_555 1_555
H24 C30 1_555 1_555
C31 C30 1_555 1_555
C32 C29 1_555 1_555
C33 C29 1_555 1_555
H25 C33 1_555 1_555
H26 C33 1_555 1_555
C34 C33 1_555 1_555
C35 C32 1_555 1_555
H27 C35 1_555 1_555
H28 C35 1_555 1_555
C36 C35 1_555 1_555
H29 C36 1_555 1_555
H30 C36 1_555 1_555
C37 C36 1_555 1_555
H31 C37 1_555 1_555
H32 C37 1_555 1_555
C38 C31 1_555 1_555
H33 C38 1_555 1_555
C39 C38 1_555 1_555
C40 C39 1_555 1_555
H34 C40 1_555 1_555
C41 C40 1_555 1_555
H35 C41 1_555 1_555
C42 C41 1_555 1_555
H36 C42 1_555 1_555
C43 C42 1_555 1_555
H37 C43 1_555 1_555
C44 C39 1_555 1_555
H38 C44 1_555 1_555
N1 C1 1_555 1_555
H39 N1 1_555 1_555
N2 C23 1_555 1_555
H40 N2 1_555 1_555
O1 C12 1_555 1_555
O2 C10 1_555 1_555
O3 C34 1_555 1_555
O4 C32 1_555 1_555
C5 C6 1_555 1_555
C8 N1 1_555 1_555
C9 C10 1_555 1_555
C12 O2 1_555 1_555
C21 C22 1_555 1_555
C27 C28 1_555 1_555
C30 N2 1_555 1_555
C31 C32 1_555 1_555
C34 O4 1_555 1_555
C43 C44 1_555 1_555

#END
