
#######################################################################
#
#                 Cambridge Crystallographic Data Centre
#                                CCDC 
#
#######################################################################
#
# If this CIF has been generated from an entry in the Cambridge 
# Structural Database, then it will include bibliographic, chemical, 
# crystal, experimental, refinement or atomic coordinate data resulting 
# from the CCDC's data processing and validation procedures.
#
#######################################################################

data_TDPAZP
_chemical_formula_moiety         'C21 H18 N2'
_chemical_name_systematic        trans-1,3-Diphenyl-2-phenylazo-propene
_symmetry_cell_setting           monoclinic
_symmetry_space_group_name_H-M   'P 21/a'
_symmetry_Int_Tables_number      14
_space_group_name_Hall           '-P 2yab'
loop_
_symmetry_equiv_pos_site_id
_symmetry_equiv_pos_as_xyz
1 x,y,z
2 1/2-x,1/2+y,-z
3 -x,-y,-z
4 1/2+x,1/2-y,z
_cell_length_a                   27.50
_cell_length_b                   5.62
_cell_length_c                   11.16
_cell_angle_alpha                90
_cell_angle_beta                 90.50
_cell_angle_gamma                90
_cell_volume                     1724.71
_chemical_melting_point          50-1deg.C
_cell_formula_units_Z            4
loop_
_atom_site_label
_atom_site_type_symbol
_atom_site_fract_x
_atom_site_fract_y
_atom_site_fract_z
C1 C 0.32230 -0.03440 -0.49400
C2 C 0.35620 0.15100 -0.46380
C3 C 0.36970 0.99520 -0.04090
C4 C 0.37540 1.19250 0.03550
C5 C 0.34070 1.23190 0.13250
C6 C 0.30100 1.07530 0.14100
C7 C 0.29380 0.87540 0.06180
C8 C 0.32910 0.83430 -0.03260
C9 C 0.49650 0.63170 -0.28260
C10 C 0.50020 0.49700 -0.17310
C11 C 0.53640 0.32000 -0.15420
C12 C 0.57100 0.26630 -0.24800
C13 C 0.56710 0.39820 -0.35620
C14 C 0.53100 0.57190 -0.37260
C15 C 0.41320 0.79790 -0.22270
C16 C 0.40910 0.96830 -0.13480
C17 C 0.45850 0.82690 -0.30660
C18 C 0.34990 0.30450 -0.35930
C19 C 0.30830 0.26670 -0.28730
C20 C 0.27490 0.08200 -0.31450
C21 C 0.28170 -0.07140 -0.41940
N1 N 0.38630 0.48280 -0.33820
N2 N 0.37890 0.61600 -0.24700
loop_
_geom_bond_atom_site_label_1
_geom_bond_atom_site_label_2
_geom_bond_site_symmetry_1
_geom_bond_site_symmetry_2
C1 C2 1_555 1_555
C2 C18 1_555 1_555
C3 C4 1_555 1_555
C4 C5 1_555 1_555
C5 C6 1_555 1_555
C6 C7 1_555 1_555
C7 C8 1_555 1_555
C8 C3 1_555 1_555
C9 C10 1_555 1_555
C10 C11 1_555 1_555
C11 C12 1_555 1_555
C12 C13 1_555 1_555
C13 C14 1_555 1_555
C14 C9 1_555 1_555
C15 C16 1_555 1_555
C16 C3 1_555 1_555
C17 C9 1_555 1_555
C18 C19 1_555 1_555
C19 C20 1_555 1_555
C20 C21 1_555 1_555
C21 C1 1_555 1_555
N1 C18 1_555 1_555
N2 C15 1_555 1_555
C15 C17 1_555 1_555
N1 N2 1_555 1_555

#END
