
#######################################################################
#
#                 Cambridge Crystallographic Data Centre
#                                CCDC 
#
#######################################################################
#
# If this CIF has been generated from an entry in the Cambridge 
# Structural Database, then it will include bibliographic, chemical, 
# crystal, experimental, refinement or atomic coordinate data resulting 
# from the CCDC's data processing and validation procedures.
#
#######################################################################

data_TEBLUH
_chemical_formula_moiety         'C28 H27 N2 O2 1+,C12 H11 N4 O6 1-'
_chemical_name_systematic        
'4-(2-(1-Methyl-4-pyridine)ethenyl)phenol 2-amino-4-nitrophenol'
_symmetry_cell_setting           triclinic
_symmetry_space_group_name_H-M   'P 1'
_symmetry_Int_Tables_number      1
_space_group_name_Hall           'P 1'
loop_
_symmetry_equiv_pos_site_id
_symmetry_equiv_pos_as_xyz
1 x,y,z
_cell_length_a                   8.714(14)
_cell_length_b                   13.67(2)
_cell_length_c                   16.18(2)
_cell_angle_alpha                103.75(11)
_cell_angle_beta                 97.71(11)
_cell_angle_gamma                101.92(13)
_cell_volume                     1797.39
_exptl_crystal_colour            red
_chemical_melting_point          222deg.C(dec.)
_cell_formula_units_Z            2
loop_
_atom_site_label
_atom_site_type_symbol
_atom_site_fract_x
_atom_site_fract_y
_atom_site_fract_z
C1 C -0.3422(4) 0.0414(3) 0.9410(3)
C2 C 1.3925(4) 0.9403(3) 0.0588(3)
C5 C 0.0334(4) 0.2363(3) 0.7304(3)
C6 C 0.0973(4) 0.3388(3) 0.7496(3)
C7 C 0.1973(4) 0.3895(3) 0.6951(3)
C8 C 0.2455(4) 0.3402(3) 0.6241(3)
C9 C 0.3400(4) 0.3959(3) 0.5806(3)
C10 C 0.3934(4) 0.4998(3) 0.6048(3)
C11 C 0.3535(4) 0.5531(4) 0.6805(3)
C12 C 0.2480(4) 0.4983(3) 0.7259(3)
C13 C -0.0638(4) 0.1907(3) 0.7859(3)
C14 C -0.1010(4) 0.2460(3) 0.8646(3)
C15 C -0.1891(4) 0.1957(3) 0.9081(3)
N1 N -0.2464(4) 0.0939(3) 0.8839(3)
C16 C -0.2164(4) 0.0361(4) 0.8136(3)
C17 C -0.1205(4) 0.0864(3) 0.7646(3)
C56 C 1.1089(3) 0.7933(3) 0.2067(3)
C57 C 1.1834(4) 0.9019(3) 0.2331(3)
C58 C 1.2706(4) 0.9395(3) 0.1844(3)
N8 N 1.2905(3) 0.8834(3) 0.1093(3)
C59 C 1.2287(4) 0.7861(3) 0.0813(3)
C60 C 1.1327(4) 0.7402(3) 0.1326(3)
O7 O 0.5342(4) 0.4500(3) 0.4282(3)
C61 C 1.0066(4) 0.7455(3) 0.2629(3)
C62 C 0.9293(4) 0.6484(3) 0.2421(3)
C63 C 0.8250(4) 0.5985(3) 0.2909(3)
C64 C 0.7564(4) 0.4951(3) 0.2634(3)
C65 C 0.6555(4) 0.4469(4) 0.3037(3)
C66 C 0.6296(4) 0.4945(3) 0.3830(3)
C67 C 0.7011(4) 0.6007(3) 0.4210(3)
C68 C 0.7958(4) 0.6493(3) 0.3739(3)
O12 O 0.4862(3) 0.5528(3) 0.5669(3)
H1 H -0.3551 0.0943 0.9887
H2 H -0.4454 -0.0005 0.9096
H3 H -0.2817 -0.0015 0.9626
H4 H 1.4036 0.8962 0.0052
H5 H 1.3425 0.9932 0.0470
H6 H 1.4962 0.9723 0.0948
H13 H 0.0558 0.1916 0.6804
H14 H 0.0813 0.3806 0.8029
H15 H 0.2042 0.2661 0.6061
H16 H 0.3694 0.3549 0.5311
H17 H 0.3948 0.6272 0.6985
H18 H 0.2186 0.5394 0.7753
H19 H -0.0665 0.3205 0.8827
H20 H -0.2153 0.2339 0.9599
H21 H -0.2509 -0.0384 0.7955
H22 H -0.0943 0.0481 0.7127
H55 H 1.1702 0.9444 0.2868
H56 H 1.3237 1.0121 0.2032
H57 H 1.2419 0.7435 0.0276
H58 H 1.0795 0.6675 0.1138
H59 H 0.9912 0.7910 0.3146
H60 H 0.9504 0.6032 0.1920
H61 H 0.7759 0.4603 0.2084
H62 H 0.6065 0.3742 0.2784
H63 H 0.6816 0.6355 0.4760
H64 H 0.8447 0.7220 0.3993
H76 H 0.5256 0.4956 0.5059
C3 C -0.8429(4) 0.5466(4) 1.4320(3)
C4 C 0.8906(4) 1.4442(3) 0.5566(3)
C30 C 0.6089(4) 1.2962(3) 0.7025(3)
C31 C 0.6675(4) 1.4053(3) 0.7263(3)
C32 C 0.7557(4) 1.4479(3) 0.6767(3)
N6 N 0.7933(3) 1.3937(3) 0.6051(3)
C33 C 0.7433(4) 1.2891(3) 0.5807(3)
C34 C 0.6495(4) 1.2388(3) 0.6326(3)
O5 O 0.0568(3) 0.9336(3) 0.9223(3)
C35 C 0.5067(4) 1.2475(3) 0.7542(3)
C36 C 0.4471(4) 1.1478(3) 0.7433(3)
C37 C 0.3498(4) 1.0964(3) 0.7893(3)
C38 C 0.2966(4) 0.9907(3) 0.7663(3)
C39 C 0.2101(4) 0.9379(3) 0.8073(3)
C40 C 0.1549(4) 0.9877(3) 0.8805(3)
C41 C 0.2112(4) 1.0975(3) 0.9122(3)
C42 C 0.3053(4) 1.1471(3) 0.8672(3)
O6 O 0.0155(3) 1.0424(3) 1.0587(3)
C43 C -0.4600(4) 0.7397(3) 1.2268(3)
C44 C -0.3814(4) 0.8360(3) 1.2424(3)
C45 C -0.2837(4) 0.8861(3) 1.1921(3)
C46 C -0.2522(4) 0.8317(3) 1.1176(3)
C47 C -0.1530(4) 0.8825(3) 1.0723(3)
C48 C -0.0791(4) 0.9869(3) 1.0977(3)
C49 C -0.1100(4) 1.0437(3) 1.1770(3)
C50 C -0.2042(4) 0.9920(3) 1.2248(3)
C51 C -0.5553(4) 0.6957(3) 1.2785(3)
C52 C -0.5826(4) 0.7509(3) 1.3610(3)
C53 C -0.6698(4) 0.6999(3) 1.4041(3)
N7 N -0.7463(3) 0.5931(3) 1.3761(3)
C54 C -0.7252(4) 0.5385(3) 1.3002(3)
C55 C -0.6294(4) 0.5933(3) 1.2520(3)
H7 H -0.8854 0.4730 1.4080
H8 H -0.7718 0.5598 1.4863
H9 H -0.9289 0.5794 1.4411
H10 H 0.9168 1.5178 0.5828
H11 H 0.9868 1.4203 0.5584
H12 H 0.8376 1.4292 0.4974
H34 H 0.6423 1.4482 0.7763
H35 H 0.7972 1.5219 0.6925
H36 H 0.7685 1.2463 0.5307
H37 H 0.6081 1.1648 0.6168
H38 H 0.0309 0.9885 0.9851
H39 H 0.4815 1.2930 0.8026
H40 H 0.4809 1.1033 0.6976
H41 H 0.3258 0.9559 0.7141
H42 H 0.1781 0.8634 0.7865
H43 H 0.1820 1.1323 0.9644
H44 H 0.3373 1.2216 0.8880
H45 H -0.4569 0.6961 1.1713
H46 H -0.3851 0.8771 1.2988
H47 H -0.3012 0.7585 1.0982
H48 H -0.1363 0.8414 1.0189
H49 H -0.0610 1.1169 1.1963
H50 H -0.2209 1.0331 1.2783
H51 H -0.5374 0.8244 1.3832
H52 H -0.6870 0.7366 1.4592
H53 H -0.7704 0.4649 1.2780
H54 H -0.6122 0.5566 1.1969
O1 O 0.5439(3) 0.0396(3) 0.4413(3)
C18 C 0.1597(4) 0.1645(3) 0.4040(3)
C19 C 0.2919(4) 0.1902(3) 0.3666(3)
C20 C 0.4215(4) 0.1472(3) 0.3742(3)
C21 C 0.4273(4) 0.0812(3) 0.4299(3)
C22 C 0.2851(4) 0.0539(3) 0.4674(3)
C23 C 0.1636(4) 0.0987(3) 0.4524(3)
O2 O 0.5417(3) -0.0513(3) 0.5545(3)
C24 C 0.9293(3) -0.1716(3) 0.5868(3)
C25 C 0.7878(4) -0.2056(3) 0.6234(3)
C26 C 0.6617(4) -0.1643(3) 0.6116(3)
C27 C 0.6706(4) -0.0896(3) 0.5628(3)
C28 C 0.7989(4) -0.0578(3) 0.5281(3)
C29 C 0.9271(4) -0.1024(3) 0.5410(3)
O3 O 1.1775(3) -0.1875(3) 0.5668(3)
N2 N 0.0326(4) 0.2192(3) 0.3885(3)
N3 N 0.5647(4) 0.1717(3) 0.3429(3)
N4 N 1.0526(4) -0.2218(3) 0.5942(3)
O4 O 1.0620(3) -0.2848(3) 0.6329(3)
N5 N 0.5318(3) -0.1973(3) 0.6415(3)
O14 O 0.0426(3) 0.2788(3) 0.3433(3)
O16 O -0.0801(3) 0.1954(3) 0.4256(3)
H23 H 0.2915 0.2382 0.3319
H24 H 0.2855 0.0059 0.5022
H25 H 0.0738 0.0800 0.4789
H26 H 0.5360 -0.0172 0.4939
H27 H 0.7867 -0.2552 0.6567
H28 H 0.8000 -0.0082 0.4948
H29 H 1.0204 -0.0796 0.5183
H30 H 0.6486 0.1437 0.3502
H31 H 0.5645 0.2167 0.3103
H32 H 0.4437 -0.1737 0.6325
H33 H 0.5341 -0.2438 0.6725
O8 O 1.0043(3) 0.5402(3) 0.9381(3)
N9 N 1.0129(4) 0.6771(3) 0.8446(3)
C69 C 0.6188(4) 0.6571(3) 0.9022(3)
C70 C 0.7408(4) 0.6892(3) 0.8676(3)
C71 C 0.8751(4) 0.6506(3) 0.8805(3)
C72 C 0.8771(4) 0.5753(3) 0.9251(3)
C73 C 0.7343(4) 0.5440(3) 0.9572(3)
C74 C 0.6068(4) 0.5822(3) 0.9469(3)
O9 O 1.6255(4) 0.2987(3) 1.0633(3)
O10 O 0.9974(3) 0.4439(3) 1.0485(3)
N10 N 0.9957(4) 0.3161(3) 1.1491(3)
C75 C 1.3723(4) 0.3172(3) 1.0878(3)
C76 C 1.2435(3) 0.2903(3) 1.1266(3)
C77 C 1.1200(4) 0.3339(3) 1.1075(3)
C78 C 1.1322(4) 0.4084(3) 1.0616(3)
C79 C 1.2575(4) 0.4289(3) 1.0246(3)
C80 C 1.3902(4) 0.3879(3) 1.0378(3)
N11 N 1.5066(3) 0.2728(3) 1.0963(3)
O11 O 1.5045(4) 0.2107(3) 1.1393(3)
N12 N 0.4759(4) 0.7045(3) 0.8941(3)
O13 O 0.5000(4) 0.7776(3) 0.8558(3)
O15 O 0.3646(4) 0.6752(3) 0.9277(3)
H65 H 0.9938 0.5032 0.9900
H66 H 1.0940 0.6464 0.8511
H67 H 1.0191 0.7260 0.8158
H68 H 0.7452 0.7416 0.8371
H69 H 0.7299 0.4916 0.9877
H70 H 0.5140 0.5609 0.9704
H71 H 0.9179 0.3489 1.1408
H72 H 0.9876 0.2717 1.1824
H73 H 1.2366 0.2427 1.1619
H74 H 1.2644 0.4765 0.9894
H75 H 1.4848 0.4054 1.0147
loop_
_geom_bond_atom_site_label_1
_geom_bond_atom_site_label_2
_geom_bond_site_symmetry_1
_geom_bond_site_symmetry_2
C1 N1 1_555 1_555
C2 N8 1_555 1_555
C3 N7 1_555 1_555
C4 N6 1_555 1_555
C5 C6 1_555 1_555
C6 C7 1_555 1_555
C7 C8 1_555 1_555
C8 C9 1_555 1_555
C9 C10 1_555 1_555
C10 C11 1_555 1_555
C11 C12 1_555 1_555
C12 C7 1_555 1_555
C13 C5 1_555 1_555
C14 C13 1_555 1_555
C15 C14 1_555 1_555
N1 C15 1_555 1_555
C16 N1 1_555 1_555
C17 C13 1_555 1_555
O1 C21 1_555 1_555
C18 C19 1_555 1_555
C19 C20 1_555 1_555
C20 C21 1_555 1_555
C21 C22 1_555 1_555
C22 C23 1_555 1_555
C23 C18 1_555 1_555
O2 C27 1_555 1_555
C24 C25 1_555 1_555
C25 C26 1_555 1_555
C26 C27 1_555 1_555
C27 C28 1_555 1_555
C28 C29 1_555 1_555
C29 C24 1_555 1_555
O3 N4 1_555 1_555
N2 C18 1_555 1_555
N3 C20 1_555 1_555
N4 C24 1_555 1_555
O4 N4 1_555 1_555
N5 C26 1_555 1_555
C30 C31 1_555 1_555
C31 C32 1_555 1_555
C32 N6 1_555 1_555
N6 C33 1_555 1_555
C33 C34 1_555 1_555
C34 C30 1_555 1_555
O5 C40 1_555 1_555
C35 C30 1_555 1_555
C36 C35 1_555 1_555
C37 C36 1_555 1_555
C38 C37 1_555 1_555
C39 C38 1_555 1_555
C40 C39 1_555 1_555
C41 C40 1_555 1_555
C42 C37 1_555 1_555
O6 C48 1_555 1_555
C43 C44 1_555 1_555
C44 C45 1_555 1_555
C45 C46 1_555 1_555
C46 C47 1_555 1_555
C47 C48 1_555 1_555
C48 C49 1_555 1_555
C49 C50 1_555 1_555
C50 C45 1_555 1_555
C51 C43 1_555 1_555
C52 C51 1_555 1_555
C53 C52 1_555 1_555
N7 C53 1_555 1_555
C54 N7 1_555 1_555
C55 C51 1_555 1_555
C56 C57 1_555 1_555
C57 C58 1_555 1_555
C58 N8 1_555 1_555
N8 C59 1_555 1_555
C59 C60 1_555 1_555
C60 C56 1_555 1_555
O7 C66 1_555 1_555
C61 C56 1_555 1_555
C62 C61 1_555 1_555
C63 C62 1_555 1_555
C64 C63 1_555 1_555
C65 C64 1_555 1_555
C66 C65 1_555 1_555
C67 C66 1_555 1_555
C68 C63 1_555 1_555
O8 C72 1_555 1_555
N9 C71 1_555 1_555
C69 C70 1_555 1_555
C70 C71 1_555 1_555
C71 C72 1_555 1_555
C72 C73 1_555 1_555
C73 C74 1_555 1_555
C74 C69 1_555 1_555
O9 N11 1_555 1_555
O10 C78 1_555 1_555
N10 C77 1_555 1_555
C75 C76 1_555 1_555
C76 C77 1_555 1_555
C77 C78 1_555 1_555
C78 C79 1_555 1_555
C79 C80 1_555 1_555
C80 C75 1_555 1_555
N11 C75 1_555 1_555
O11 N11 1_555 1_555
O12 C10 1_555 1_555
N12 C69 1_555 1_555
O13 N12 1_555 1_555
O14 N2 1_555 1_555
O15 N12 1_555 1_555
O16 N2 1_555 1_555
H1 C1 1_555 1_555
H2 C1 1_555 1_555
H3 C1 1_555 1_555
H4 C2 1_555 1_555
H5 C2 1_555 1_555
H6 C2 1_555 1_555
H7 C3 1_555 1_555
H8 C3 1_555 1_555
H9 C3 1_555 1_555
H10 C4 1_555 1_555
H11 C4 1_555 1_555
H12 C4 1_555 1_555
H13 C5 1_555 1_555
H14 C6 1_555 1_555
H15 C8 1_555 1_555
H16 C9 1_555 1_555
H17 C11 1_555 1_555
H18 C12 1_555 1_555
H19 C14 1_555 1_555
H20 C15 1_555 1_555
H21 C16 1_555 1_555
H22 C17 1_555 1_555
H23 C19 1_555 1_555
H24 C22 1_555 1_555
H25 C23 1_555 1_555
H26 O1 1_555 1_555
H27 C25 1_555 1_555
H28 C28 1_555 1_555
H29 C29 1_555 1_555
H30 N3 1_555 1_555
H31 N3 1_555 1_555
H32 N5 1_555 1_555
H33 N5 1_555 1_555
H34 C31 1_555 1_555
H35 C32 1_555 1_555
H36 C33 1_555 1_555
H37 C34 1_555 1_555
H38 O5 1_555 1_555
H39 C35 1_555 1_555
H40 C36 1_555 1_555
H41 C38 1_555 1_555
H42 C39 1_555 1_555
H43 C41 1_555 1_555
H44 C42 1_555 1_555
H45 C43 1_555 1_555
H46 C44 1_555 1_555
H47 C46 1_555 1_555
H48 C47 1_555 1_555
H49 C49 1_555 1_555
H50 C50 1_555 1_555
H51 C52 1_555 1_555
H52 C53 1_555 1_555
H53 C54 1_555 1_555
H54 C55 1_555 1_555
H55 C57 1_555 1_555
H56 C58 1_555 1_555
H57 C59 1_555 1_555
H58 C60 1_555 1_555
H59 C61 1_555 1_555
H60 C62 1_555 1_555
H61 C64 1_555 1_555
H62 C65 1_555 1_555
H63 C67 1_555 1_555
H64 C68 1_555 1_555
H65 O8 1_555 1_555
H66 N9 1_555 1_555
H67 N9 1_555 1_555
H68 C70 1_555 1_555
H69 C73 1_555 1_555
H70 C74 1_555 1_555
H71 N10 1_555 1_555
H72 N10 1_555 1_555
H73 C76 1_555 1_555
H74 C79 1_555 1_555
H75 C80 1_555 1_555
H76 O7 1_555 1_555
C16 C17 1_555 1_555
O2 H26 1_555 1_555
C41 C42 1_555 1_555
O6 H38 1_555 1_555
C54 C55 1_555 1_555
C67 C68 1_555 1_555
O10 H65 1_555 1_555
O12 H76 1_555 1_555

#END
