
#######################################################################
#
#                 Cambridge Crystallographic Data Centre
#                                CCDC 
#
#######################################################################
#
# If this CIF has been generated from an entry in the Cambridge 
# Structural Database, then it will include bibliographic, chemical, 
# crystal, experimental, refinement or atomic coordinate data resulting 
# from the CCDC's data processing and validation procedures.
#
#######################################################################

data_TEBMOF
_chemical_formula_moiety         'C42 H32 O2 P2,H2 O1'
_chemical_name_systematic        
"1,1':3',1''-terphenyl-3,3''-diylbis(diphenylphosphane) dioxide monohydrate"
_symmetry_cell_setting           monoclinic
_symmetry_space_group_name_H-M   'P 21/n'
_symmetry_Int_Tables_number      14
_space_group_name_Hall           '-P 2yn'
loop_
_symmetry_equiv_pos_site_id
_symmetry_equiv_pos_as_xyz
1 x,y,z
2 1/2-x,1/2+y,1/2-z
3 -x,-y,-z
4 1/2+x,1/2-y,1/2+z
_cell_length_a                   9.34760(10)
_cell_length_b                   34.3019(5)
_cell_length_c                   10.7754(2)
_cell_angle_alpha                90
_cell_angle_beta                 105.9050(10)
_cell_angle_gamma                90
_cell_volume                     3322.76
_exptl_crystal_description       Block
_cell_formula_units_Z            4
loop_
_atom_site_label
_atom_site_type_symbol
_atom_site_fract_x
_atom_site_fract_y
_atom_site_fract_z
P1 P 0.80847(4) 0.05579(2) 0.76837(4)
P2 P 0.63522(4) 0.21257(2) 0.28870(4)
O1 O 0.71378(12) 0.08407(4) 0.67733(12)
O2 O 0.63046(12) 0.18915(4) 0.40400(11)
C1 C 0.6620(2) -0.00893(6) 0.64748(19)
H1 H 0.6830 0.0014 0.5746
C2 C 0.5775(2) -0.04254(6) 0.6369(2)
H2 H 0.5420 -0.0547 0.5573
C3 C 0.5461(2) -0.05792(6) 0.7439(2)
H3 H 0.4882 -0.0803 0.7366
C4 C 0.6002(2) -0.04022(6) 0.8626(2)
H4 H 0.5799 -0.0509 0.9352
C5 C 0.68467(19) -0.00659(6) 0.87389(18)
H5 H 0.7207 0.0052 0.9541
C6 C 0.71579(17) 0.00955(5) 0.76627(16)
C7 C 0.7371(2) 0.08736(6) 0.97783(19)
H6 H 0.6415 0.0887 0.9224
C8 C 0.7630(2) 0.09987(6) 1.1037(2)
H7 H 0.6847 0.1091 1.1333
C9 C 0.9051(3) 0.09874(6) 1.1855(2)
H8 H 0.9227 0.1071 1.2704
C10 C 1.0211(2) 0.08522(6) 1.14157(19)
H9 H 1.1170 0.0849 1.1967
C11 C 0.99582(19) 0.07208(5) 1.01585(18)
H10 H 1.0746 0.0628 0.9870
C12 C 0.85292(18) 0.07273(5) 0.93282(16)
C13 C 0.98194(17) 0.04719(5) 0.73055(16)
C14 C 1.0594(2) 0.01200(6) 0.75341(19)
H11 H 1.0215 -0.0090 0.7889
C15 C 1.1933(2) 0.00859(6) 0.7228(2)
H12 H 1.2454 -0.0148 0.7381
C16 C 1.25029(19) 0.03967(6) 0.66964(18)
H13 H 1.3410 0.0369 0.6506
C17 C 1.17383(17) 0.07511(5) 0.64409(16)
C18 C 1.03939(16) 0.07822(5) 0.67618(15)
H14 H 0.9870 0.1016 0.6609
C19 C 1.23158(17) 0.10874(5) 0.58569(15)
C20 C 1.38475(17) 0.11542(5) 0.61204(16)
H15 H 1.4517 0.0982 0.6642
C21 C 1.43635(17) 0.14754(5) 0.56079(16)
H16 H 1.5383 0.1518 0.5790
C22 C 1.33894(17) 0.17356(5) 0.48273(16)
H17 H 1.3760 0.1952 0.4499
C23 C 1.18504(16) 0.16759(5) 0.45267(15)
C24 C 1.13435(16) 0.13491(5) 0.50562(15)
H18 H 1.0325 0.1305 0.4868
C25 C 1.07914(17) 0.19533(5) 0.36797(15)
C26 C 1.12390(18) 0.22418(5) 0.29446(17)
H19 H 1.2236 0.2259 0.2959
C27 C 1.02300(19) 0.25011(5) 0.21974(18)
H20 H 1.0562 0.2691 0.1725
C28 C 0.87329(18) 0.24832(5) 0.21414(17)
H21 H 0.8062 0.2660 0.1642
C29 C 0.82527(17) 0.21964(5) 0.28460(15)
C30 C 0.92742(16) 0.19381(5) 0.36042(15)
H22 H 0.8937 0.1749 0.4076
C31 C 0.53651(17) 0.18852(5) 0.14160(16)
C32 C 0.41723(19) 0.16493(6) 0.14860(19)
H23 H 0.3928 0.1623 0.2262
C33 C 0.3357(2) 0.14551(6) 0.0400(2)
H24 H 0.2555 0.1300 0.0446
C34 C 0.3721(2) 0.14885(6) -0.0752(2)
H25 H 0.3168 0.1356 -0.1480
C35 C 0.4906(2) 0.17186(6) -0.08244(19)
H26 H 0.5153 0.1740 -0.1601
C36 C 0.5730(2) 0.19179(6) 0.02535(18)
H27 H 0.6526 0.2073 0.0199
C37 C 0.54616(17) 0.25908(5) 0.29103(16)
C38 C 0.45230(18) 0.27610(5) 0.18152(17)
H28 H 0.4413 0.2649 0.1009
C39 C 0.3752(2) 0.30980(6) 0.19278(19)
H29 H 0.3136 0.3213 0.1193
C40 C 0.3891(2) 0.32629(6) 0.3116(2)
H30 H 0.3357 0.3487 0.3186
C41 C 0.4822(2) 0.30971(6) 0.4206(2)
H31 H 0.4920 0.3210 0.5010
C42 C 0.5609(2) 0.27628(6) 0.41015(19)
H32 H 0.6243 0.2653 0.4838
O3 O 0.74058(14) 0.11218(4) 0.43445(14)
H33 H 0.725(3) 0.1019(7) 0.501(2)
H34 H 0.692(3) 0.1337(8) 0.424(2)
loop_
_geom_bond_atom_site_label_1
_geom_bond_atom_site_label_2
_geom_bond_site_symmetry_1
_geom_bond_site_symmetry_2
P1 O1 1_555 1_555
P2 O2 1_555 1_555
C1 H1 1_555 1_555
C2 C1 1_555 1_555
H2 C2 1_555 1_555
C3 C2 1_555 1_555
H3 C3 1_555 1_555
C4 C3 1_555 1_555
H4 C4 1_555 1_555
C5 C4 1_555 1_555
H5 C5 1_555 1_555
C6 P1 1_555 1_555
C7 H6 1_555 1_555
C8 C7 1_555 1_555
H7 C8 1_555 1_555
C9 C8 1_555 1_555
H8 C9 1_555 1_555
C10 C9 1_555 1_555
H9 C10 1_555 1_555
C11 C10 1_555 1_555
H10 C11 1_555 1_555
C12 P1 1_555 1_555
C13 P1 1_555 1_555
C14 C13 1_555 1_555
H11 C14 1_555 1_555
C15 C14 1_555 1_555
H12 C15 1_555 1_555
C16 C15 1_555 1_555
H13 C16 1_555 1_555
C17 C16 1_555 1_555
C18 C13 1_555 1_555
H14 C18 1_555 1_555
C19 C17 1_555 1_555
C20 C19 1_555 1_555
H15 C20 1_555 1_555
C21 C20 1_555 1_555
H16 C21 1_555 1_555
C22 C21 1_555 1_555
H17 C22 1_555 1_555
C23 C22 1_555 1_555
C24 C19 1_555 1_555
H18 C24 1_555 1_555
C25 C23 1_555 1_555
C26 C25 1_555 1_555
H19 C26 1_555 1_555
C27 C26 1_555 1_555
H20 C27 1_555 1_555
C28 C27 1_555 1_555
H21 C28 1_555 1_555
C29 P2 1_555 1_555
C30 C25 1_555 1_555
H22 C30 1_555 1_555
C31 P2 1_555 1_555
C32 C31 1_555 1_555
H23 C32 1_555 1_555
C33 C32 1_555 1_555
H24 C33 1_555 1_555
C34 C33 1_555 1_555
H25 C34 1_555 1_555
C35 C34 1_555 1_555
H26 C35 1_555 1_555
C36 C31 1_555 1_555
H27 C36 1_555 1_555
C37 P2 1_555 1_555
C38 C37 1_555 1_555
H28 C38 1_555 1_555
C39 C38 1_555 1_555
H29 C39 1_555 1_555
C40 C39 1_555 1_555
H30 C40 1_555 1_555
C41 C40 1_555 1_555
H31 C41 1_555 1_555
C42 C37 1_555 1_555
H32 C42 1_555 1_555
O3 H33 1_555 1_555
H34 O3 1_555 1_555
C1 C6 1_555 1_555
C5 C6 1_555 1_555
C7 C12 1_555 1_555
C11 C12 1_555 1_555
C17 C18 1_555 1_555
C23 C24 1_555 1_555
C28 C29 1_555 1_555
C29 C30 1_555 1_555
C35 C36 1_555 1_555
C41 C42 1_555 1_555

#END
