
#######################################################################
#
#                 Cambridge Crystallographic Data Centre
#                                CCDC 
#
#######################################################################
#
# If this CIF has been generated from an entry in the Cambridge 
# Structural Database, then it will include bibliographic, chemical, 
# crystal, experimental, refinement or atomic coordinate data resulting 
# from the CCDC's data processing and validation procedures.
#
#######################################################################

data_TEBPEY
_chemical_formula_moiety         'C11 H8 Br1 N1 O2'
_chemical_name_systematic        'methyl 3-(4-bromophenyl)-2-cyanoacrylate'
_symmetry_cell_setting           triclinic
_symmetry_space_group_name_H-M   'P -1'
_symmetry_Int_Tables_number      2
_space_group_name_Hall           '-P 1'
loop_
_symmetry_equiv_pos_site_id
_symmetry_equiv_pos_as_xyz
1 x,y,z
2 -x,-y,-z
_cell_length_a                   7.296(7)
_cell_length_b                   20.55(2)
_cell_length_c                   7.722(7)
_cell_angle_alpha                90
_cell_angle_beta                 111.045(18)
_cell_angle_gamma                90
_cell_volume                     1080.56
_cell_formula_units_Z            4
loop_
_atom_site_label
_atom_site_type_symbol
_atom_site_fract_x
_atom_site_fract_y
_atom_site_fract_z
Br1 Br 0.05908(16) 0.29099(5) 1.35560(14)
O1 O 0.7725(9) 0.6429(3) 1.1587(8)
O2 O 0.9759(10) 0.5660(3) 1.3204(10)
C1 C 0.2387(12) 0.3551(4) 1.3380(11)
C2 C 0.1730(12) 0.4148(4) 1.2702(11)
H1 H 0.0402 0.4248 1.2341
C3 C 0.8157(15) 0.5857(4) 1.2418(12)
C4 C 0.6308(12) 0.5501(4) 1.2282(10)
N1 N 0.3064(13) 0.6050(4) 1.0353(12)
C5 C 0.3019(13) 0.4598(4) 1.2554(12)
H2 H 0.2549 0.4999 1.2028
C6 C 0.6430(12) 0.4931(4) 1.3059(11)
H3 H 0.7717 0.4795 1.3673
C7 C 0.5026(13) 0.4477(4) 1.3166(11)
C8 C 0.5621(14) 0.3872(4) 1.3892(14)
H4 H 0.6956 0.3776 1.4344
C9 C 0.4355(16) 0.3416(4) 1.3974(13)
H5 H 0.4810 0.3005 1.4435
C10 C 0.4504(14) 0.5811(4) 1.1244(12)
C11 C 0.9343(14) 0.6789(5) 1.1597(13)
H6 H 0.8914 0.7139 1.0721
H7 H 1.0223 0.6513 1.1260
H8 H 1.0010 0.6963 1.2816
Br2 Br 0.12435(19) 1.13693(5) 0.02166(17)
O3 O 0.3507(13) 0.8062(3) 0.9051(10)
O4 O 0.4060(11) 0.9030(3) 1.0428(10)
C12 C 0.3607(14) 0.8705(5) 0.9053(13)
C13 C 0.2075(14) 1.1078(4) 0.3971(13)
H9 H 0.1983 1.1524 0.4124
C14 C 0.2640(13) 1.0010(4) 0.5334(13)
C15 C 0.3089(14) 0.8950(4) 0.7185(12)
C16 C 0.2444(14) 1.0669(4) 0.5435(14)
H10 H 0.2570 1.0847 0.6579
C17 C 0.1842(13) 1.0826(5) 0.2279(13)
C18 C 0.3046(12) 0.9602(5) 0.6915(12)
H11 H 0.3351 0.9836 0.8014
C19 C 0.2541(17) 0.8479(5) 0.5681(15)
C20 C 0.2000(14) 1.0169(5) 0.2046(13)
H12 H 0.1856 1.0003 0.0883
N2 N 0.214(2) 0.8106(5) 0.4587(15)
C21 C 0.401(2) 0.7730(6) 1.0830(17)
H13 H 0.3445 0.7302 1.0636
H14 H 0.3493 0.7972 1.1619
H15 H 0.5408 0.7698 1.1408
C22 C 0.2368(15) 0.9758(5) 0.3527(13)
H16 H 0.2442 0.9312 0.3360
loop_
_geom_bond_atom_site_label_1
_geom_bond_atom_site_label_2
_geom_bond_site_symmetry_1
_geom_bond_site_symmetry_2
Br1 C1 1_555 1_555
O1 C3 1_555 1_555
O2 C3 1_555 1_555
C1 C2 1_555 1_555
C2 H1 1_555 1_555
C3 C4 1_555 1_555
C4 C6 1_555 1_555
N1 C10 1_555 1_555
C5 C2 1_555 1_555
H2 C5 1_555 1_555
C6 H3 1_555 1_555
C7 C5 1_555 1_555
C8 C7 1_555 1_555
H4 C8 1_555 1_555
C9 C1 1_555 1_555
H5 C9 1_555 1_555
C10 C4 1_555 1_555
C11 O1 1_555 1_555
H6 C11 1_555 1_555
H7 C11 1_555 1_555
H8 C11 1_555 1_555
Br2 C17 1_555 1_555
O3 C12 1_555 1_555
O4 C12 1_555 1_555
C12 C15 1_555 1_555
C13 H9 1_555 1_555
C14 C16 1_555 1_555
C15 C18 1_555 1_555
C16 C13 1_555 1_555
H10 C16 1_555 1_555
C17 C13 1_555 1_555
C18 C14 1_555 1_555
H11 C18 1_555 1_555
C19 C15 1_555 1_555
C20 C17 1_555 1_555
H12 C20 1_555 1_555
N2 C19 1_555 1_555
C21 O3 1_555 1_555
H13 C21 1_555 1_555
H14 C21 1_555 1_555
H15 C21 1_555 1_555
C22 C14 1_555 1_555
H16 C22 1_555 1_555
C6 C7 1_555 1_555
C8 C9 1_555 1_555
C20 C22 1_555 1_555

#END
