
#######################################################################
#
#                 Cambridge Crystallographic Data Centre
#                                CCDC 
#
#######################################################################
#
# If this CIF has been generated from an entry in the Cambridge 
# Structural Database, then it will include bibliographic, chemical, 
# crystal, experimental, refinement or atomic coordinate data resulting 
# from the CCDC's data processing and validation procedures.
#
#######################################################################

data_TEBYAB
_chemical_formula_moiety         'C32 H26 Cl8 O6,C4 H8 O2'
_chemical_name_systematic        
'(1\a,4\a,4a\b,5\b,7\b,7a\b,8\a,11\a,11a\b,12\b,14\b,14a\b)-1,4,4a,5,7,7a,8,11,11a,12,14,14a-dodecahydro-1,3,4,8,9,10,11-octachloro-5,14:7,12-dietheno-1,4:8,11-di(dimethoxymethano)pentacene-6,13-diol ethyl acetate clathrate'
_symmetry_cell_setting           monoclinic
_symmetry_space_group_name_H-M   'P 21/n'
_symmetry_Int_Tables_number      14
_space_group_name_Hall           '-P 2yn'
loop_
_symmetry_equiv_pos_site_id
_symmetry_equiv_pos_as_xyz
1 x,y,z
2 1/2-x,1/2+y,1/2-z
3 -x,-y,-z
4 1/2+x,1/2-y,1/2+z
_cell_length_a                   10.0829(7)
_cell_length_b                   13.0345(9)
_cell_length_c                   29.465(2)
_cell_angle_alpha                90.00
_cell_angle_beta                 97.4750(10)
_cell_angle_gamma                90.00
_cell_volume                     3839.54
_exptl_crystal_colour            colorless
_exptl_crystal_description       cubic
_chemical_melting_point          '253-255 deg.C(dec.)'
_cell_formula_units_Z            4
loop_
_atom_site_label
_atom_site_type_symbol
_atom_site_fract_x
_atom_site_fract_y
_atom_site_fract_z
C1 C 0.4758(3) 0.3032(2) 0.43741(9)
C2 C 0.4070(3) 0.3523(2) 0.39403(10)
C3 C 0.4684(3) 0.3134(2) 0.35152(9)
C4 C 0.4280(3) 0.1983(2) 0.34934(9)
C5 C 0.3533(3) 0.1857(2) 0.39188(10)
C6 C 0.4452(3) 0.2052(2) 0.43594(9)
C7 C 0.2727(3) 0.2900(2) 0.38934(10)
C8 C 0.6214(3) 0.3227(2) 0.34960(9)
C9 C 0.6365(3) 0.2756(2) 0.30342(9)
C10 C 0.5974(3) 0.1734(2) 0.29981(9)
C11 C 0.5534(3) 0.1316(2) 0.34387(9)
C12 C 0.6636(3) 0.1566(3) 0.38203(10)
C13 C 0.6976(3) 0.2540(3) 0.38522(10)
C14 C 0.6815(3) 0.3268(2) 0.26712(9)
C15 C 0.6851(3) 0.2736(2) 0.22637(9)
C16 C 0.6455(3) 0.1709(2) 0.22235(9)
C17 C 0.5997(3) 0.12073(19) 0.25901(9)
C18 C 0.7212(3) 0.3180(2) 0.18170(9)
C19 C 0.5862(3) 0.3085(2) 0.14949(9)
C20 C 0.5469(3) 0.1934(2) 0.14427(9)
C21 C 0.6512(3) 0.1271(2) 0.17453(10)
C22 C 0.7894(3) 0.1499(3) 0.16254(10)
C23 C 0.8247(3) 0.2467(3) 0.16592(10)
C24 C 0.5755(3) 0.3465(2) 0.09911(10)
C25 C 0.6805(3) 0.2968(3) 0.07461(10)
C26 C 0.6501(4) 0.1979(3) 0.07031(10)
C27 C 0.5226(3) 0.1803(2) 0.09133(10)
C28 C 0.4496(3) 0.2843(2) 0.07728(10)
O1 O 0.5646(2) 0.01767(15) 0.25448(7)
O2 O 0.7166(2) 0.42772(17) 0.27324(8)
C29 C 0.1075(4) 0.3796(3) 0.33724(15)
H1 H 0.0588 0.3921 0.3626
H2 H 0.0457 0.3664 0.3102
H3 H 0.1606 0.4387 0.3323
C30 C 0.0958(4) 0.2553(4) 0.43517(16)
H4 H 0.0434 0.2350 0.4071
H5 H 0.0409 0.2936 0.4534
H6 H 0.1299 0.1953 0.4517
C31 C 0.3732(4) 0.3781(3) 0.00890(13)
H7 H 0.3181 0.4141 0.0279
H8 H 0.3223 0.3641 -0.0203
H9 H 0.4493 0.4195 0.0047
C32 C 0.2174(4) 0.2631(4) 0.08659(15)
H10 H 0.1993 0.2623 0.0538
H11 H 0.1481 0.3004 0.0989
H12 H 0.2202 0.1940 0.0979
Cl1 Cl 0.43549(12) 0.06761(7) 0.07249(3)
Cl2 Cl 0.56616(9) 0.48140(6) 0.09533(3)
Cl3 Cl 0.39471(10) 0.48731(6) 0.39646(3)
Cl4 Cl 0.26166(8) 0.06993(6) 0.39050(3)
Cl5 Cl 0.58447(10) 0.36593(8) 0.47694(3)
Cl6 Cl 0.50727(9) 0.11088(7) 0.47261(3)
Cl7 Cl 0.81877(10) 0.35777(10) 0.06080(4)
Cl8 Cl 0.74122(14) 0.10413(10) 0.04913(4)
O4 O 0.3436(2) 0.31180(18) 0.10027(7)
O5 O 0.1930(2) 0.29249(17) 0.34701(7)
O6 O 0.2050(2) 0.31780(18) 0.42527(8)
O7 O 0.4171(2) 0.28447(18) 0.03025(7)
H21 H 0.456(3) 0.182(2) 0.1553(10)
H22 H 0.523(3) 0.349(2) 0.1628(10)
H23 H 0.424(3) 0.352(2) 0.3257(10)
H24 H 0.361(3) 0.187(2) 0.3217(11)
H25 H 0.652(3) 0.392(3) 0.3519(10)
H26 H 0.527(3) 0.057(2) 0.3420(10)
H27 H 0.629(3) 0.058(3) 0.1719(11)
H28 H 0.693(3) 0.099(3) 0.4010(12)
H29 H 0.761(3) 0.279(3) 0.4086(12)
H30 H 0.748(3) 0.389(2) 0.1850(10)
H31 H 0.907(4) 0.276(3) 0.1603(12)
H32 H 0.782(4) 0.446(3) 0.2609(12)
H33 H 0.843(4) 0.095(3) 0.1516(14)
H34 H 0.493(4) 0.014(3) 0.2608(12)
C33 C 0.5243(9) 0.6134(6) 0.2110(3)
H13 H 0.6002 0.5684 0.2125
H14 H 0.5536 0.6808 0.2208
H15 H 0.4806 0.6163 0.1801
C34 C 0.4343(7) 0.5760(6) 0.2398(4)
H16 H 0.3541 0.6178 0.2364
H17 H 0.4749 0.5799 0.2715
C35 C 0.2783(5) 0.4385(5) 0.22582(16)
O3 O 0.3987(3) 0.4677(3) 0.22786(16)
O8 O 0.1932(4) 0.5033(3) 0.23305(16)
C36 C 0.2564(7) 0.3317(5) 0.2170(2)
H18 H 0.1689 0.3131 0.2237
H19 H 0.3225 0.2925 0.2360
H20 H 0.2631 0.3177 0.1854
loop_
_geom_bond_atom_site_label_1
_geom_bond_atom_site_label_2
_geom_bond_site_symmetry_1
_geom_bond_site_symmetry_2
C1 C2 1_555 1_555
C2 C3 1_555 1_555
C3 C4 1_555 1_555
C4 C5 1_555 1_555
C5 C6 1_555 1_555
C6 C1 1_555 1_555
C7 C2 1_555 1_555
C8 C3 1_555 1_555
C9 C8 1_555 1_555
C10 C9 1_555 1_555
C11 C4 1_555 1_555
C12 C11 1_555 1_555
C13 C8 1_555 1_555
C14 C9 1_555 1_555
C15 C14 1_555 1_555
C16 C15 1_555 1_555
C17 C10 1_555 1_555
C18 C15 1_555 1_555
C19 C18 1_555 1_555
C20 C19 1_555 1_555
C21 C16 1_555 1_555
C22 C21 1_555 1_555
C23 C18 1_555 1_555
C24 C19 1_555 1_555
C25 C24 1_555 1_555
C26 C25 1_555 1_555
C27 C20 1_555 1_555
C28 C24 1_555 1_555
O1 C17 1_555 1_555
O2 C14 1_555 1_555
C29 H1 1_555 1_555
H2 C29 1_555 1_555
H3 C29 1_555 1_555
C30 H4 1_555 1_555
H5 C30 1_555 1_555
H6 C30 1_555 1_555
C31 H7 1_555 1_555
H8 C31 1_555 1_555
H9 C31 1_555 1_555
C32 H10 1_555 1_555
H11 C32 1_555 1_555
H12 C32 1_555 1_555
C33 H13 1_555 1_555
H14 C33 1_555 1_555
H15 C33 1_555 1_555
C34 C33 1_555 1_555
H16 C34 1_555 1_555
H17 C34 1_555 1_555
C35 O3 1_555 1_555
O3 C34 1_555 1_555
Cl1 C27 1_555 1_555
Cl2 C24 1_555 1_555
Cl3 C2 1_555 1_555
Cl4 C5 1_555 1_555
Cl5 C1 1_555 1_555
Cl6 C6 1_555 1_555
Cl7 C25 1_555 1_555
Cl8 C26 1_555 1_555
O4 C28 1_555 1_555
O5 C7 1_555 1_555
O6 C7 1_555 1_555
O7 C28 1_555 1_555
O8 C35 1_555 1_555
C36 C35 1_555 1_555
H18 C36 1_555 1_555
H19 C36 1_555 1_555
H20 C36 1_555 1_555
H21 C20 1_555 1_555
H22 C19 1_555 1_555
H23 C3 1_555 1_555
H24 C4 1_555 1_555
H25 C8 1_555 1_555
H26 C11 1_555 1_555
H27 C21 1_555 1_555
H28 C12 1_555 1_555
H29 C13 1_555 1_555
H30 C18 1_555 1_555
H31 C23 1_555 1_555
H32 O2 1_555 1_555
H33 C22 1_555 1_555
H34 O1 1_555 1_555
C5 C7 1_555 1_555
C10 C11 1_555 1_555
C12 C13 1_555 1_555
C16 C17 1_555 1_555
C20 C21 1_555 1_555
C22 C23 1_555 1_555
C26 C27 1_555 1_555
C27 C28 1_555 1_555
C29 O5 1_555 1_555
C30 O6 1_555 1_555
C31 O7 1_555 1_555
C32 O4 1_555 1_555

#END
