
#######################################################################
#
#                 Cambridge Crystallographic Data Centre
#                                CCDC 
#
#######################################################################
#
# If this CIF has been generated from an entry in the Cambridge 
# Structural Database, then it will include bibliographic, chemical, 
# crystal, experimental, refinement or atomic coordinate data resulting 
# from the CCDC's data processing and validation procedures.
#
#######################################################################

data_TECGOZ
_chemical_formula_moiety         'C76 H20 F30 N8,2.5(C2 H4 Cl2)'
_chemical_name_systematic        
"10,10',15,15',20,20'-hexakis(pentafluorophenyl)-5,5'-biporphyrin 1,2-dichloroethane solvate"
_symmetry_cell_setting           triclinic
_symmetry_space_group_name_H-M   'P -1'
_symmetry_Int_Tables_number      2
_space_group_name_Hall           '-P 1'
loop_
_symmetry_equiv_pos_site_id
_symmetry_equiv_pos_as_xyz
1 x,y,z
2 -x,-y,-z
_cell_length_a                   18.5492(3)
_cell_length_b                   21.5458(4)
_cell_length_c                   22.1560(4)
_cell_angle_alpha                68.6717(9)
_cell_angle_beta                 89.6696(9)
_cell_angle_gamma                64.5465(8)
_cell_volume                     7327.45
_exptl_crystal_colour            red
_exptl_crystal_description       prism
_cell_formula_units_Z            4
loop_
_atom_site_label
_atom_site_type_symbol
_atom_site_fract_x
_atom_site_fract_y
_atom_site_fract_z
F1 F -0.3362(2) 0.4109(2) 0.0542(2)
F2 F -0.4382(2) 0.5067(2) -0.0619(2)
F3 F -0.5357(3) 0.6508(2) -0.0825(2)
F4 F -0.5224(3) 0.7032(3) 0.0100(2)
F5 F -0.4194(2) 0.6097(2) 0.1248(2)
F6 F -0.0583(2) 0.1083(2) 0.5601(2)
F7 F 0.0489(3) 0.0265(3) 0.6714(2)
F8 F 0.1560(3) 0.0715(3) 0.6997(2)
F9 F 0.1531(3) 0.2013(3) 0.6130(2)
F10 F 0.0421(2) 0.2857(2) 0.5021(2)
F11 F 0.3099(3) 0.3452(2) 0.2926(2)
F12 F 0.3508(3) 0.4403(3) 0.3188(2)
F13 F 0.3501(2) 0.5583(2) 0.2194(3)
F14 F 0.2983(3) 0.5888(2) 0.0921(2)
F15 F 0.2548(3) 0.4955(2) 0.0662(2)
F16 F 0.5373(3) 0.0523(3) 0.1923(3)
F17 F 0.6925(4) -0.0156(4) 0.1760(4)
F18 F 0.7297(3) 0.0256(4) 0.0530(3)
F19 F 0.6130(3) 0.1300(4) -0.0494(3)
F20 F 0.4581(3) 0.1982(3) -0.0343(2)
F21 F 0.1303(3) 0.1332(3) -0.0289(2)
F22 F 0.0854(3) 0.0434(2) -0.0605(2)
F23 F 0.0785(2) -0.0749(2) 0.0366(2)
F24 F 0.1230(3) -0.1054(2) 0.1641(2)
F25 F 0.1784(2) -0.0230(2) 0.1967(2)
C1 C -0.0310(5) 0.2472(4) 0.4050(4)
C2 C 0.0576(4) 0.2095(4) 0.4051(4)
H1 H 0.0994 0.1783 0.4428
C3 C 0.0673(4) 0.2274(4) 0.3427(4)
H2 H 0.1177 0.2114 0.3278
C4 C -0.0130(4) 0.2762(4) 0.3007(4)
C5 C -0.0262(4) 0.3080(4) 0.2335(4)
C6 C -0.1019(4) 0.3583(4) 0.1915(4)
C7 C -0.1157(5) 0.3965(5) 0.1217(4)
H3 H -0.0754 0.3934 0.0947
C8 C -0.1975(5) 0.4382(4) 0.1008(4)
H4 H -0.2245 0.4692 0.0564
C9 C -0.2358(5) 0.4270(4) 0.1581(4)
C10 C -0.3191(4) 0.4562(4) 0.1587(4)
C11 C -0.3544(5) 0.4391(4) 0.2135(4)
C12 C -0.4420(4) 0.4608(4) 0.2118(4)
H5 H -0.4835 0.4880 0.1738
C13 C -0.4507(4) 0.4343(4) 0.2746(4)
H6 H -0.5003 0.4394 0.2894
C14 C -0.3722(5) 0.3968(4) 0.3161(4)
C15 C -0.3591(4) 0.3651(4) 0.3853(4)
C16 C -0.2846(5) 0.3303(5) 0.4261(4)
C17 C -0.2709(5) 0.3020(5) 0.4971(4)
H7 H -0.3111 0.3055 0.5242
C18 C -0.1889(5) 0.2693(4) 0.5179(4)
H8 H -0.1623 0.2465 0.5624
C19 C -0.1496(5) 0.2748(4) 0.4616(4)
C20 C -0.0666(4) 0.2433(4) 0.4613(4)
C21 C 0.1238(4) 0.1515(4) 0.1339(3)
C22 C 0.0547(4) 0.1422(4) 0.1576(4)
H9 H 0.0372 0.1080 0.1540
C23 C 0.0203(4) 0.1908(4) 0.1856(4)
H10 H -0.0259 0.1968 0.2061
C24 C 0.0654(4) 0.2325(4) 0.1793(3)
C25 C 0.0475(4) 0.2895(4) 0.1999(3)
C26 C 0.0897(4) 0.3301(4) 0.1939(4)
C27 C 0.0689(5) 0.3922(4) 0.2131(4)
H11 H 0.0215 0.4143 0.2298
C28 C 0.1276(4) 0.4135(4) 0.2034(4)
H12 H 0.1290 0.4531 0.2119
C29 C 0.1879(5) 0.3656(4) 0.1777(4)
C30 C 0.2613(4) 0.3633(4) 0.1641(4)
C31 C 0.3220(5) 0.3125(4) 0.1448(3)
C32 C 0.3998(4) 0.3085(4) 0.1386(3)
H13 H 0.4185 0.3404 0.1456
C33 C 0.4425(5) 0.2512(4) 0.1208(4)
H14 H 0.4975 0.2331 0.1151
C34 C 0.3866(4) 0.2226(4) 0.1122(4)
C35 C 0.4076(4) 0.1635(4) 0.0901(4)
C36 C 0.3567(4) 0.1342(4) 0.0815(3)
C37 C 0.3751(5) 0.0743(4) 0.0611(4)
H15 H 0.4248 0.0482 0.0489
C38 C 0.3121(5) 0.0612(5) 0.0621(4)
H16 H 0.3085 0.0247 0.0496
C39 C 0.2492(5) 0.1110(4) 0.0852(4)
C40 C 0.1769(4) 0.1108(4) 0.1025(4)
C81 C -0.3748(4) 0.5072(4) 0.0933(4)
C82 C -0.3808(5) 0.4822(5) 0.0454(4)
C83 C -0.4345(5) 0.5330(5) -0.0156(4)
C84 C -0.4831(5) 0.6050(4) -0.0259(4)
C85 C -0.4764(5) 0.6303(4) 0.0218(4)
C86 C -0.4223(5) 0.5818(4) 0.0800(4)
C87 C -0.4328(9) 0.3730(9) 0.4174(7)
C88 C -0.4598(7) 0.3189(7) 0.4333(6)
C89 C -0.5300(8) 0.3297(7) 0.4600(7)
C90 C -0.5733(8) 0.3947(8) 0.4707(7)
C91 C -0.5464(10) 0.4487(7) 0.4548(7)
C92 C -0.4761(11) 0.4379(8) 0.4281(8)
F51 F -0.4174(9) 0.2608(8) 0.4234(5)
F52 F -0.5561(6) 0.2818(6) 0.4678(5)
F53 F -0.6436(7) 0.4041(7) 0.4931(5)
F54 F -0.5890(6) 0.5090(7) 0.4709(5)
F55 F -0.4526(6) 0.4934(5) 0.4142(5)
C97 C -0.0114(4) 0.1986(4) 0.5275(4)
C98 C -0.0089(4) 0.1347(4) 0.5716(4)
C99 C 0.0476(6) 0.0903(5) 0.6286(4)
C100 C 0.1031(5) 0.1135(5) 0.6421(4)
C101 C 0.1008(5) 0.1779(5) 0.6004(4)
C102 C 0.0432(5) 0.2212(4) 0.5434(4)
C103 C 0.2820(4) 0.4176(4) 0.1789(4)
C104 C 0.3050(4) 0.4050(4) 0.2421(4)
C105 C 0.3259(5) 0.4536(5) 0.2567(4)
C106 C 0.3246(5) 0.5145(5) 0.2054(5)
C107 C 0.3010(5) 0.5280(4) 0.1413(4)
C108 C 0.2771(4) 0.4818(4) 0.1295(4)
C109 C 0.4915(5) 0.1278(4) 0.0796(4)
C110 C 0.5142(5) 0.1456(5) 0.0199(5)
C111 C 0.5949(6) 0.1107(6) 0.0100(5)
C112 C 0.6530(6) 0.0581(6) 0.0628(7)
C113 C 0.6324(6) 0.0419(6) 0.1226(6)
C114 C 0.5546(5) 0.0735(5) 0.1320(5)
C115 C 0.1552(4) 0.0575(4) 0.0845(4)
C116 C 0.1329(4) 0.0718(4) 0.0210(4)
C117 C 0.1060(4) 0.0288(5) 0.0030(4)
C118 C 0.1060(4) -0.0323(4) 0.0527(4)
C119 C 0.1271(4) -0.0481(4) 0.1169(4)
C120 C 0.1556(4) -0.0050(4) 0.1316(4)
N1 N -0.0699(4) 0.2854(3) 0.3404(3)
H53 H -0.1228 0.3116 0.3269
N2 N -0.1768(3) 0.3788(3) 0.2123(3)
N3 N -0.3151(3) 0.3994(3) 0.2776(3)
H54 H -0.2626 0.3793 0.2915
N4 N -0.2104(3) 0.3123(3) 0.4058(3)
N5 N 0.1308(3) 0.2051(3) 0.1483(3)
H55 H 0.1687 0.2196 0.1398
N6 N 0.1593(4) 0.3177(3) 0.1703(3)
N7 N 0.3151(3) 0.2599(3) 0.1271(3)
H56 H 0.2721 0.2524 0.1260
N8 N 0.2802(3) 0.1562(3) 0.0966(3)
F26 F 0.2618(3) 0.8674(3) 0.5284(2)
F27 F 0.1268(3) 0.9576(2) 0.5596(2)
F28 F 0.0045(3) 1.0750(2) 0.4635(2)
F29 F 0.0182(3) 1.1070(2) 0.3352(2)
F30 F 0.1553(2) 1.0238(2) 0.3027(2)
F31 F 0.6504(3) 0.8005(3) 0.5351(3)
F32 F 0.7414(3) 0.8645(4) 0.5539(3)
F33 F 0.7598(3) 0.9673(4) 0.4504(3)
F34 F 0.6850(4) 1.0090(4) 0.3265(4)
F35 F 0.5973(4) 0.9439(3) 0.3098(3)
F36 F 0.7398(3) 0.5092(2) 0.4313(2)
F37 F 0.8789(3) 0.4133(3) 0.4133(2)
F38 F 0.9138(3) 0.4377(2) 0.2902(2)
F39 F 0.8026(3) 0.5549(3) 0.1849(2)
F40 F 0.6629(3) 0.6544(2) 0.2022(2)
F41 F 0.1895(3) 0.3974(2) 0.3706(2)
F42 F 0.1825(3) 0.3026(2) 0.4858(2)
F43 F 0.1166(2) 0.3535(2) 0.5803(2)
F44 F 0.0670(3) 0.4971(3) 0.5591(2)
F45 F 0.0697(3) 0.5949(3) 0.4423(2)
F46 F 0.0487(2) 0.8956(2) -0.0637(2)
F47 F 0.0750(3) 0.9809(3) -0.1739(2)
F48 F 0.2288(3) 0.9376(3) -0.2043(2)
F49 F 0.3510(3) 0.8059(3) -0.1234(2)
F50 F 0.3242(2) 0.7176(2) -0.0131(2)
C41 C 0.5490(4) 0.6432(4) 0.3115(4)
C42 C 0.5362(5) 0.5991(5) 0.2819(4)
H17 H 0.5774 0.5605 0.2722
C43 C 0.4559(5) 0.6213(5) 0.2699(5)
H18 H 0.4306 0.6014 0.2504
C44 C 0.4153(5) 0.6809(5) 0.2923(4)
C45 C 0.3326(4) 0.7188(4) 0.2904(4)
C46 C 0.2945(4) 0.7745(4) 0.3163(4)
C47 C 0.2087(4) 0.8122(4) 0.3128(3)
H19 H 0.1690 0.8051 0.2932
C48 C 0.1949(4) 0.8592(4) 0.3423(4)
H20 H 0.1437 0.8917 0.3481
C49 C 0.2742(4) 0.8508(4) 0.3639(3)
C50 C 0.2869(4) 0.8906(4) 0.3975(3)
C51 C 0.3581(4) 0.8910(4) 0.4124(4)
C52 C 0.3719(5) 0.9364(4) 0.4395(3)
H21 H 0.3319 0.9705 0.4543
C53 C 0.4499(4) 0.9241(4) 0.4413(4)
H22 H 0.4738 0.9481 0.4565
C54 C 0.4901(4) 0.8672(4) 0.4156(4)
C55 C 0.5708(4) 0.8363(4) 0.4084(4)
C56 C 0.6097(4) 0.7795(4) 0.3861(3)
C57 C 0.6921(4) 0.7497(4) 0.3786(4)
H23 H 0.7299 0.7659 0.3866
C58 C 0.7074(4) 0.6936(4) 0.3580(4)
H24 H 0.7575 0.6634 0.3489
C59 C 0.6334(4) 0.6890(4) 0.3528(4)
C60 C 0.6211(4) 0.6418(4) 0.3285(3)
C61 C 0.1866(4) 0.5819(4) 0.3366(4)
C62 C 0.2347(5) 0.5715(5) 0.3920(4)
H25 H 0.2403 0.5395 0.4365
C63 C 0.2716(5) 0.6164(5) 0.3694(4)
H26 H 0.3057 0.6227 0.3961
C64 C 0.2505(4) 0.6522(4) 0.2997(4)
C65 C 0.2778(4) 0.7011(4) 0.2570(4)
C66 C 0.2604(4) 0.7311(4) 0.1883(4)
C67 C 0.2924(5) 0.7791(4) 0.1466(4)
H27 H 0.3258 0.7966 0.1602
C68 C 0.2645(4) 0.7938(4) 0.0841(4)
H28 H 0.2765 0.8227 0.0454
C69 C 0.2142(4) 0.7587(4) 0.0864(4)
C70 C 0.1759(4) 0.7597(4) 0.0325(4)
C71 C 0.1219(4) 0.7286(4) 0.0338(4)
C72 C 0.0803(5) 0.7322(4) -0.0227(4)
H29 H 0.0876 0.7519 -0.0668
C73 C 0.0292(4) 0.7029(4) -0.0022(4)
H30 H -0.0076 0.6995 -0.0289
C74 C 0.0414(4) 0.6774(4) 0.0692(4)
C75 C 0.0000(5) 0.6430(4) 0.1116(4)
C76 C 0.0183(4) 0.6116(4) 0.1799(4)
C77 C -0.0216(5) 0.5722(5) 0.2225(4)
H31 H -0.0661 0.5666 0.2089
C78 C 0.0164(4) 0.5450(4) 0.2852(4)
H32 H 0.0035 0.5171 0.3241
C79 C 0.0807(4) 0.5671(4) 0.2812(4)
C80 C 0.1329(4) 0.5527(4) 0.3382(4)
C121 C 0.2139(4) 0.9411(4) 0.4153(4)
C122 C 0.2031(5) 0.9286(4) 0.4780(4)
C123 C 0.1337(5) 0.9741(4) 0.4953(4)
C124 C 0.0728(5) 1.0320(4) 0.4483(4)
C125 C 0.0799(4) 1.0489(4) 0.3834(4)
C126 C 0.1505(5) 1.0047(4) 0.3666(4)
C127 C 0.6208(4) 0.8697(4) 0.4224(4)
C128 C 0.6309(5) 0.9250(5) 0.3702(5)
C129 C 0.6789(6) 0.9545(6) 0.3802(6)
C130 C 0.7157(6) 0.9350(6) 0.4418(6)
C131 C 0.7067(5) 0.8844(7) 0.4923(6)
C132 C 0.6575(4) 0.8505(5) 0.4850(4)
C133 C 0.6969(4) 0.5852(4) 0.3169(4)
C134 C 0.7533(4) 0.5212(4) 0.3710(4)
C135 C 0.8242(5) 0.4729(4) 0.3613(4)
C136 C 0.8413(5) 0.4835(4) 0.2995(5)
C137 C 0.7867(5) 0.5438(5) 0.2451(4)
C138 C 0.7146(5) 0.5935(5) 0.2546(4)
C139 C 0.1869(5) 0.8028(4) -0.0327(4)
C140 C 0.2632(5) 0.7842(4) -0.0529(4)
C141 C 0.2774(5) 0.8280(5) -0.1092(4)
C142 C 0.2144(6) 0.8944(5) -0.1488(4)
C143 C 0.1369(6) 0.9171(5) -0.1343(4)
C144 C 0.1239(5) 0.8715(5) -0.0774(4)
C145 C -0.0746(5) 0.6451(6) 0.0787(5)
C146 C -0.1511(6) 0.6915(5) 0.0860(5)
C147 C -0.2192(4) 0.6891(5) 0.0634(5)
C148 C -0.2109(4) 0.6404(5) 0.0334(4)
C149 C -0.1344(5) 0.5940(5) 0.0261(4)
C150 C -0.0663(4) 0.5964(5) 0.0488(4)
F56 F 0.0071(5) 0.5490(5) 0.0445(4)
F57 F -0.1262(7) 0.5479(6) -0.0012(5)
F58 F -0.2763(6) 0.6346(6) 0.0151(4)
F59 F -0.2933(4) 0.7340(5) 0.0695(4)
F60 F -0.1637(8) 0.7393(7) 0.1145(5)
C157 C 0.1289(4) 0.5015(4) 0.4014(4)
C158 C 0.0971(5) 0.5226(5) 0.4523(4)
C159 C 0.0960(4) 0.4756(5) 0.5108(4)
C160 C 0.1225(5) 0.4012(5) 0.5213(4)
C161 C 0.1546(5) 0.3751(5) 0.4737(4)
C162 C 0.1567(5) 0.4250(5) 0.4163(4)
N9 N 0.4750(3) 0.6910(3) 0.3176(3)
N10 N 0.3340(3) 0.7972(3) 0.3480(3)
H57 H 0.3867 0.7811 0.3566
N11 N 0.4340(3) 0.8459(3) 0.4011(3)
N12 N 0.5736(3) 0.7416(3) 0.3692(3)
H58 H 0.5228 0.7500 0.3691
N13 N 0.1978(3) 0.6306(3) 0.2797(3)
N14 N 0.2136(3) 0.7194(3) 0.1511(3)
H59 H 0.1880 0.6922 0.1655
N15 N 0.1005(3) 0.6914(3) 0.0896(3)
N16 N 0.0795(3) 0.6075(3) 0.2176(3)
H60 H 0.1121 0.6274 0.2032
Cl1 Cl 0.5057(4) 0.0817(4) 0.3991(3)
Cl2 Cl 0.5075(2) 0.28970(18) 0.27885(16)
C93 C 0.5062(9) 0.1688(8) 0.3726(7)
H33 H 0.4582 0.2043 0.3835
H34 H 0.5554 0.1628 0.3963
C94 C 0.5047(8) 0.1998(7) 0.3023(6)
H35 H 0.4548 0.2075 0.2781
H36 H 0.5522 0.1644 0.2908
Cl3 Cl 0.8021(3) 0.2374(3) 0.1970(3)
Cl4 Cl 0.7154(2) 0.1430(2) 0.30451(19)
C95 C 0.8154(11) 0.2089(12) 0.2833(10)
H37 H 0.8606 0.1574 0.3043
H38 H 0.8305 0.2425 0.2950
C96 C 0.7436(12) 0.2105(13) 0.3085(8)
H39 H 0.6979 0.2610 0.2840
H40 H 0.7514 0.2035 0.3551
C151 C -0.1212(16) 0.8333(18) 0.1990(10)
H41 H -0.1488 0.8503 0.1537
H42 H -0.1408 0.8771 0.2111
C152 C -0.0268(13) 0.7986(11) 0.2025(9)
H43 H -0.0134 0.8342 0.1675
H44 H -0.0069 0.7518 0.1952
Cl5 Cl -0.1430(3) 0.7624(3) 0.2553(2)
Cl6 Cl 0.0214(7) 0.7794(5) 0.2799(5)
Cl7 Cl 0.6019(10) 0.9025(8) 0.0994(4)
Cl8 Cl 0.4651(7) 0.8528(5) 0.1799(4)
C153 C 0.5382(15) 0.8742(12) 0.2068(7)
H45 H 0.5138 0.9294 0.1921
H46 H 0.5486 0.8524 0.2555
C154 C 0.6167(14) 0.8488(11) 0.1849(11)
H47 H 0.6393 0.7950 0.1935
H48 H 0.6555 0.8554 0.2094
Cl9 Cl 0.2976(3) 1.1843(3) 0.30234(19)
C155 C 0.3677(9) 1.0797(10) 0.2716(7)
H49 H 0.4113 1.0593 0.3093
H50 H 0.3747 1.1170 0.2330
C156 C 0.283(4) 1.112(3) 0.289(3)
H51 H 0.2764 1.0768 0.3291
H52 H 0.2390 1.1323 0.2519
Cl10 Cl 0.3625(9) 0.9984(8) 0.2508(6)
C163? C -0.431(2) 0.367(2) 0.4139(18)
C164? C -0.4562(19) 0.3167(18) 0.4092(15)
C165? C -0.5228(18) 0.3128(15) 0.4360(14)
C166? C -0.5645(17) 0.3595(17) 0.4674(15)
C167? C -0.5396(19) 0.4102(15) 0.4721(15)
C168? C -0.473(2) 0.4141(17) 0.4453(17)
C169? C -0.0579(18) 0.6254(17) 0.0833(15)
C170? C -0.139(2) 0.6787(15) 0.0695(16)
C171? C -0.1982(14) 0.6685(16) 0.0425(17)
C172? C -0.1768(16) 0.6051(18) 0.0292(15)
C173? C -0.0959(18) 0.5519(14) 0.0431(15)
C174? C -0.0364(14) 0.5620(15) 0.0701(16)
C175? C 0.3926(18) 0.8890(15) 0.2050(14)
C176? C 0.446(2) 0.913(2) 0.2286(17)
C177? C 0.398(2) 0.123(2) 0.298(3)
C178? C 0.457(3) 0.159(3) 0.3099(17)
Cl11? Cl 0.3579(6) 0.9992(6) 0.2490(5)
Cl12? Cl 0.3010(16) 0.1233(16) 0.3073(17)
Cl13? Cl 0.4965(16) 0.0986(13) 0.3943(13)
Cl14? Cl 0.4785(8) 0.8188(13) 0.1882(11)
F61? F -0.5781(12) 0.4516(15) 0.4980(13)
F62? F -0.4492(14) 0.4570(13) 0.4490(12)
F63? F -0.5629(12) 0.2630(12) 0.4351(14)
F64? F -0.6361(12) 0.3633(16) 0.4890(14)
F65? F -0.4223(16) 0.2592(15) 0.3890(17)
F66? F 0.0416(16) 0.5034(18) 0.0855(19)
F67? F -0.086(2) 0.502(2) 0.0243(19)
F68? F -0.242(2) 0.603(2) 0.0064(19)
F69? F -0.2733(19) 0.7175(17) 0.0368(16)
F70? F -0.1542(18) 0.7379(19) 0.0815(16)
H61? H 0.4354 0.0683 0.3200
H62? H 0.3969 0.1334 0.2501
H63? H 0.4255 0.2124 0.3032
H64? H 0.4999 0.1536 0.2824
H65? H 0.3522 0.9284 0.1650
H66? H 0.3659 0.8675 0.2395
H67? H 0.4747 0.9320 0.1941
H68? H 0.4861 0.8732 0.2685
loop_
_geom_bond_atom_site_label_1
_geom_bond_atom_site_label_2
_geom_bond_site_symmetry_1
_geom_bond_site_symmetry_2
F1 C82 1_555 1_555
F2 C83 1_555 1_555
F3 C84 1_555 1_555
F4 C85 1_555 1_555
F5 C86 1_555 1_555
F6 C98 1_555 1_555
F7 C99 1_555 1_555
F8 C100 1_555 1_555
F9 C101 1_555 1_555
F10 C102 1_555 1_555
F11 C104 1_555 1_555
F12 C105 1_555 1_555
F13 C106 1_555 1_555
F14 C107 1_555 1_555
F15 C108 1_555 1_555
F16 C114 1_555 1_555
F17 C113 1_555 1_555
F18 C112 1_555 1_555
F19 C111 1_555 1_555
F20 C110 1_555 1_555
F21 C116 1_555 1_555
F22 C117 1_555 1_555
F23 C118 1_555 1_555
F24 C119 1_555 1_555
F25 C120 1_555 1_555
F26 C122 1_555 1_555
F27 C123 1_555 1_555
F28 C124 1_555 1_555
F29 C125 1_555 1_555
F30 C126 1_555 1_555
F31 C132 1_555 1_555
F32 C131 1_555 1_555
F33 C130 1_555 1_555
F34 C129 1_555 1_555
F35 C128 1_555 1_555
F36 C134 1_555 1_555
F37 C135 1_555 1_555
F38 C136 1_555 1_555
F39 C137 1_555 1_555
F40 C138 1_555 1_555
F41 C162 1_555 1_555
F42 C161 1_555 1_555
F43 C160 1_555 1_555
F44 C159 1_555 1_555
F45 C158 1_555 1_555
F46 C144 1_555 1_555
F47 C143 1_555 1_555
F48 C142 1_555 1_555
F49 C141 1_555 1_555
F50 C140 1_555 1_555
C1 C2 1_555 1_555
C2 H1 1_555 1_555
C3 C2 1_555 1_555
H2 C3 1_555 1_555
C4 C3 1_555 1_555
C5 C4 1_555 1_555
C6 C5 1_555 1_555
C7 C6 1_555 1_555
H3 C7 1_555 1_555
C8 C7 1_555 1_555
H4 C8 1_555 1_555
C9 C8 1_555 1_555
C10 C9 1_555 1_555
C11 C10 1_555 1_555
C12 C11 1_555 1_555
H5 C12 1_555 1_555
C13 C12 1_555 1_555
H6 C13 1_555 1_555
C14 C13 1_555 1_555
C15 C14 1_555 1_555
C16 C15 1_555 1_555
C17 C16 1_555 1_555
H7 C17 1_555 1_555
C18 C17 1_555 1_555
H8 C18 1_555 1_555
C19 C18 1_555 1_555
C20 C1 1_555 1_555
C21 C22 1_555 1_555
C22 H9 1_555 1_555
C23 C22 1_555 1_555
H10 C23 1_555 1_555
C24 C23 1_555 1_555
C25 C5 1_555 1_555
C26 C25 1_555 1_555
C27 C26 1_555 1_555
H11 C27 1_555 1_555
C28 C27 1_555 1_555
H12 C28 1_555 1_555
C29 C28 1_555 1_555
C30 C29 1_555 1_555
C31 C30 1_555 1_555
C32 C31 1_555 1_555
H13 C32 1_555 1_555
C33 C32 1_555 1_555
H14 C33 1_555 1_555
C34 C33 1_555 1_555
C35 C34 1_555 1_555
C36 C35 1_555 1_555
C37 C36 1_555 1_555
H15 C37 1_555 1_555
C38 C37 1_555 1_555
H16 C38 1_555 1_555
C39 C38 1_555 1_555
C40 C21 1_555 1_555
C41 C42 1_555 1_555
C42 H17 1_555 1_555
C43 C42 1_555 1_555
H18 C43 1_555 1_555
C44 C43 1_555 1_555
C45 C44 1_555 1_555
C46 C45 1_555 1_555
C47 C46 1_555 1_555
H19 C47 1_555 1_555
C48 C47 1_555 1_555
H20 C48 1_555 1_555
C49 C48 1_555 1_555
C50 C49 1_555 1_555
C51 C50 1_555 1_555
C52 C51 1_555 1_555
H21 C52 1_555 1_555
C53 C52 1_555 1_555
H22 C53 1_555 1_555
C54 C53 1_555 1_555
C55 C54 1_555 1_555
C56 C55 1_555 1_555
C57 C56 1_555 1_555
H23 C57 1_555 1_555
C58 C57 1_555 1_555
H24 C58 1_555 1_555
C59 C58 1_555 1_555
C60 C41 1_555 1_555
C61 C62 1_555 1_555
C62 H25 1_555 1_555
C63 C62 1_555 1_555
H26 C63 1_555 1_555
C64 C63 1_555 1_555
C65 C45 1_555 1_555
C66 C65 1_555 1_555
C67 C66 1_555 1_555
H27 C67 1_555 1_555
C68 C67 1_555 1_555
H28 C68 1_555 1_555
C69 C68 1_555 1_555
C70 C69 1_555 1_555
C71 C70 1_555 1_555
C72 C71 1_555 1_555
H29 C72 1_555 1_555
C73 C72 1_555 1_555
H30 C73 1_555 1_555
C74 C73 1_555 1_555
C75 C74 1_555 1_555
C76 C75 1_555 1_555
C77 C76 1_555 1_555
H31 C77 1_555 1_555
C78 C77 1_555 1_555
H32 C78 1_555 1_555
C79 C78 1_555 1_555
C80 C61 1_555 1_555
C81 C10 1_555 1_555
C82 C81 1_555 1_555
C83 C82 1_555 1_555
C84 C83 1_555 1_555
C85 C84 1_555 1_555
C86 C81 1_555 1_555
C87 C15 1_555 1_555
C88 C87 1_555 1_555
C89 C88 1_555 1_555
C90 C89 1_555 1_555
C91 C90 1_555 1_555
C92 C87 1_555 1_555
F51 C88 1_555 1_555
F52 C89 1_555 1_555
F53 C90 1_555 1_555
F54 C91 1_555 1_555
F55 C92 1_555 1_555
Cl1 C93 1_555 1_555
Cl2 C94 1_555 1_555
C93 H33 1_555 1_555
H34 C93 1_555 1_555
C94 C93 1_555 1_555
H35 C94 1_555 1_555
H36 C94 1_555 1_555
Cl3 C95 1_555 1_555
Cl4 C96 1_555 1_555
C95 H37 1_555 1_555
H38 C95 1_555 1_555
C96 C95 1_555 1_555
H39 C96 1_555 1_555
H40 C96 1_555 1_555
C97 C20 1_555 1_555
C98 C97 1_555 1_555
C99 C98 1_555 1_555
C100 C99 1_555 1_555
C101 C100 1_555 1_555
C102 C97 1_555 1_555
C103 C30 1_555 1_555
C104 C103 1_555 1_555
C105 C104 1_555 1_555
C106 C105 1_555 1_555
C107 C106 1_555 1_555
C108 C103 1_555 1_555
C109 C35 1_555 1_555
C110 C109 1_555 1_555
C111 C110 1_555 1_555
C112 C111 1_555 1_555
C113 C112 1_555 1_555
C114 C109 1_555 1_555
C115 C40 1_555 1_555
C116 C115 1_555 1_555
C117 C116 1_555 1_555
C118 C117 1_555 1_555
C119 C118 1_555 1_555
C120 C115 1_555 1_555
C121 C50 1_555 1_555
C122 C121 1_555 1_555
C123 C122 1_555 1_555
C124 C123 1_555 1_555
C125 C124 1_555 1_555
C126 C121 1_555 1_555
C127 C55 1_555 1_555
C128 C127 1_555 1_555
C129 C128 1_555 1_555
C130 C129 1_555 1_555
C131 C130 1_555 1_555
C132 C127 1_555 1_555
C133 C60 1_555 1_555
C134 C133 1_555 1_555
C135 C134 1_555 1_555
C136 C135 1_555 1_555
C137 C136 1_555 1_555
C138 C133 1_555 1_555
C139 C70 1_555 1_555
C140 C139 1_555 1_555
C141 C140 1_555 1_555
C142 C141 1_555 1_555
C143 C142 1_555 1_555
C144 C139 1_555 1_555
C145 C75 1_555 1_555
C146 C145 1_555 1_555
C147 C146 1_555 1_555
C148 C147 1_555 1_555
C149 C148 1_555 1_555
C150 C145 1_555 1_555
F56 C150 1_555 1_555
F57 C149 1_555 1_555
F58 C148 1_555 1_555
F59 C147 1_555 1_555
F60 C146 1_555 1_555
C151 H41 1_555 1_555
H42 C151 1_555 1_555
C152 C151 1_555 1_555
H43 C152 1_555 1_555
H44 C152 1_555 1_555
Cl5 C151 1_555 1_555
Cl6 C152 1_555 1_555
Cl7 C154 1_555 1_555
Cl8 C153 1_555 1_555
C153 H45 1_555 1_555
H46 C153 1_555 1_555
C154 C153 1_555 1_555
H47 C154 1_555 1_555
H48 C154 1_555 1_555
Cl9 C156 1_555 1_555
C155 H49 1_555 1_555
H50 C155 1_555 1_555
C156 C155 1_555 1_555
H51 C156 1_555 1_555
H52 C156 1_555 1_555
Cl10 C155 1_555 1_555
C157 C80 1_555 1_555
C158 C157 1_555 1_555
C159 C158 1_555 1_555
C160 C159 1_555 1_555
C161 C160 1_555 1_555
C162 C157 1_555 1_555
N1 C1 1_555 1_555
H53 N1 1_555 1_555
N2 C6 1_555 1_555
N3 C11 1_555 1_555
H54 N3 1_555 1_555
N4 C16 1_555 1_555
N5 C21 1_555 1_555
H55 N5 1_555 1_555
N6 C26 1_555 1_555
N7 C31 1_555 1_555
H56 N7 1_555 1_555
N8 C36 1_555 1_555
N9 C41 1_555 1_555
N10 C46 1_555 1_555
H57 N10 1_555 1_555
N11 C51 1_555 1_555
N12 C56 1_555 1_555
H58 N12 1_555 1_555
N13 C61 1_555 1_555
N14 C66 1_555 1_555
H59 N14 1_555 1_555
N15 C71 1_555 1_555
N16 C76 1_555 1_555
H60 N16 1_555 1_555
C4 N1 1_555 1_555
C9 N2 1_555 1_555
C14 N3 1_555 1_555
C19 C20 1_555 1_555
C19 N4 1_555 1_555
C24 C25 1_555 1_555
C24 N5 1_555 1_555
C29 N6 1_555 1_555
C34 N7 1_555 1_555
C39 C40 1_555 1_555
C39 N8 1_555 1_555
C44 N9 1_555 1_555
C49 N10 1_555 1_555
C54 N11 1_555 1_555
C59 C60 1_555 1_555
C59 N12 1_555 1_555
C64 C65 1_555 1_555
C64 N13 1_555 1_555
C69 N14 1_555 1_555
C74 N15 1_555 1_555
C79 C80 1_555 1_555
C79 N16 1_555 1_555
C85 C86 1_555 1_555
C91 C92 1_555 1_555
C101 C102 1_555 1_555
C107 C108 1_555 1_555
C113 C114 1_555 1_555
C119 C120 1_555 1_555
C125 C126 1_555 1_555
C131 C132 1_555 1_555
C137 C138 1_555 1_555
C143 C144 1_555 1_555
C149 C150 1_555 1_555
C161 C162 1_555 1_555

#END
