
#######################################################################
#
#                 Cambridge Crystallographic Data Centre
#                                CCDC 
#
#######################################################################
#
# If this CIF has been generated from an entry in the Cambridge 
# Structural Database, then it will include bibliographic, chemical, 
# crystal, experimental, refinement or atomic coordinate data resulting 
# from the CCDC's data processing and validation procedures.
#
#######################################################################

data_TECJER
_chemical_formula_moiety         'C21 H28 O6'
_chemical_name_systematic        
c-5-Hydroxy-r-2,c-4-bis(isopropoxycarbonyl)-t-5-methyl-t-3-phenylcyclohexanone
_symmetry_cell_setting           monoclinic
_symmetry_space_group_name_H-M   'C 2/c'
_symmetry_Int_Tables_number      15
_space_group_name_Hall           '-C 2yn'
loop_
_symmetry_equiv_pos_site_id
_symmetry_equiv_pos_as_xyz
1 x,y,z
2 1/2+x,1/2+y,z
3 -x,y,1/2-z
4 1/2-x,1/2+y,1/2-z
5 -x,-y,-z
6 1/2-x,1/2-y,-z
7 x,-y,1/2+z
8 1/2+x,1/2-y,1/2+z
_cell_length_a                   35.775(6)
_cell_length_b                   5.7948(10)
_cell_length_c                   20.174(3)
_cell_angle_alpha                90
_cell_angle_beta                 99.893(3)
_cell_angle_gamma                90
_cell_volume                     4120.06
_exptl_crystal_colour            colorless
_exptl_crystal_description       block
_chemical_melting_point          '463 K'
_cell_formula_units_Z            8
_exptl_crystal_recrystallization_method ethanol
loop_
_atom_site_label
_atom_site_type_symbol
_atom_site_fract_x
_atom_site_fract_y
_atom_site_fract_z
C1 C 0.08258(4) 0.5846(3) 0.49083(7)
C2 C 0.08280(4) 0.5717(2) 0.41527(6)
H1 H 0.0697 0.7080 0.3938
C3 C 0.12403(3) 0.5725(2) 0.40181(6)
H2 H 0.1362 0.4297 0.4205
C4 C 0.14636(4) 0.7769(2) 0.43865(6)
H3 H 0.1355 0.9214 0.4188
C5 C 0.14510(4) 0.7789(2) 0.51499(6)
C6 C 0.10401(4) 0.7842(3) 0.52566(7)
H4 H 0.1032 0.7776 0.5734
H5 H 0.0922 0.9275 0.5081
C7 C 0.06128(4) 0.3601(2) 0.38765(6)
C8 C -0.00125(4) 0.2138(3) 0.34937(9)
H6 H 0.0096 0.1137 0.3184
C9 C -0.00756(6) 0.0779(4) 0.40980(11)
H7 H 0.0161 0.0139 0.4317
H8 H -0.0252 -0.0446 0.3959
H9 H -0.0176 0.1775 0.4405
C10 C -0.03693(5) 0.3265(5) 0.31271(12)
H10 H -0.0484 0.4158 0.3439
H11 H -0.0544 0.2097 0.2928
H12 H -0.0307 0.4257 0.2781
C11 C 0.18704(4) 0.7601(2) 0.42803(6)
C12 C 0.23519(4) 0.9248(3) 0.37390(9)
H13 H 0.2516 0.8258 0.4059
C13 C 0.24964(5) 1.1634(4) 0.37998(12)
H14 H 0.2333 1.2611 0.3493
H15 H 0.2748 1.1675 0.3694
H16 H 0.2503 1.2171 0.4252
C14 C 0.23220(8) 0.8283(5) 0.30549(14)
H17 H 0.2211 0.6773 0.3042
H18 H 0.2570 0.8178 0.2937
H19 H 0.2166 0.9270 0.2740
C15 C 0.16713(5) 0.9816(3) 0.54955(8)
H20 H 0.1667 0.9754 0.5970
H21 H 0.1557 1.1232 0.5314
H22 H 0.1929 0.9747 0.5421
C16 C 0.12591(4) 0.5767(2) 0.32705(6)
C17 C 0.11161(4) 0.7606(3) 0.28676(7)
H23 H 0.0994 0.8808 0.3049
C18 C 0.11530(5) 0.7672(3) 0.21975(8)
H24 H 0.1056 0.8919 0.1932
C19 C 0.13310(5) 0.5920(3) 0.19204(8)
H25 H 0.1356 0.5976 0.1470
C20 C 0.14712(5) 0.4084(3) 0.23128(8)
H26 H 0.1591 0.2884 0.2126
C21 C 0.14363(4) 0.3997(3) 0.29861(7)
H27 H 0.1533 0.2740 0.3248
O1 O 0.02452(3) 0.40602(18) 0.37070(5)
O2 O 0.07529(3) 0.17373(18) 0.38329(6)
O3 O 0.06699(4) 0.4406(2) 0.51928(6)
O4 O 0.16009(3) 0.56738(17) 0.54505(5)
H28 H 0.1791 0.5316 0.5299
O5 O 0.19687(3) 0.92937(17) 0.39085(5)
O6 O 0.20823(3) 0.60803(18) 0.45165(6)
loop_
_geom_bond_atom_site_label_1
_geom_bond_atom_site_label_2
_geom_bond_site_symmetry_1
_geom_bond_site_symmetry_2
C1 C2 1_555 1_555
C2 H1 1_555 1_555
C3 C2 1_555 1_555
H2 C3 1_555 1_555
C4 C3 1_555 1_555
H3 C4 1_555 1_555
C5 C4 1_555 1_555
C6 C1 1_555 1_555
H4 C6 1_555 1_555
H5 C6 1_555 1_555
C7 C2 1_555 1_555
C8 H6 1_555 1_555
C9 C8 1_555 1_555
H7 C9 1_555 1_555
H8 C9 1_555 1_555
H9 C9 1_555 1_555
C10 C8 1_555 1_555
H10 C10 1_555 1_555
H11 C10 1_555 1_555
H12 C10 1_555 1_555
C11 C4 1_555 1_555
C12 H13 1_555 1_555
C13 C12 1_555 1_555
H14 C13 1_555 1_555
H15 C13 1_555 1_555
H16 C13 1_555 1_555
C14 C12 1_555 1_555
H17 C14 1_555 1_555
H18 C14 1_555 1_555
H19 C14 1_555 1_555
C15 C5 1_555 1_555
H20 C15 1_555 1_555
H21 C15 1_555 1_555
H22 C15 1_555 1_555
C16 C3 1_555 1_555
C17 C16 1_555 1_555
H23 C17 1_555 1_555
C18 C17 1_555 1_555
H24 C18 1_555 1_555
C19 C18 1_555 1_555
H25 C19 1_555 1_555
C20 C19 1_555 1_555
H26 C20 1_555 1_555
C21 C16 1_555 1_555
H27 C21 1_555 1_555
O1 C7 1_555 1_555
O2 C7 1_555 1_555
O3 C1 1_555 1_555
O4 C5 1_555 1_555
H28 O4 1_555 1_555
O5 C11 1_555 1_555
O6 C11 1_555 1_555
C5 C6 1_555 1_555
C8 O1 1_555 1_555
C12 O5 1_555 1_555
C20 C21 1_555 1_555

#END
