
#######################################################################
#
#                 Cambridge Crystallographic Data Centre
#                                CCDC 
#
#######################################################################
#
# If this CIF has been generated from an entry in the Cambridge 
# Structural Database, then it will include bibliographic, chemical, 
# crystal, experimental, refinement or atomic coordinate data resulting 
# from the CCDC's data processing and validation procedures.
#
#######################################################################

data_TECMEW
_chemical_formula_moiety         'C42 H30 N4 O1 S1'
_chemical_name_systematic        
10-[5-(4,6-diphenyl-1,3,5-triazin-2-yl)-9,9-dimethyl-9H-xanthen-4-yl]-10H-phenothiazine
_symmetry_cell_setting           orthorhombic
_symmetry_space_group_name_H-M   'P b c a'
_symmetry_Int_Tables_number      61
_space_group_name_Hall           '-P 2ac 2ab'
loop_
_symmetry_equiv_pos_site_id
_symmetry_equiv_pos_as_xyz
1 x,y,z
2 1/2-x,-y,1/2+z
3 -x,1/2+y,1/2-z
4 1/2+x,1/2-y,-z
5 -x,-y,-z
6 1/2+x,y,1/2-z
7 x,1/2-y,1/2+z
8 1/2-x,1/2+y,z
_cell_length_a                   20.1654(19)
_cell_length_b                   8.1152(8)
_cell_length_c                   37.841(4)
_cell_angle_alpha                90
_cell_angle_beta                 90
_cell_angle_gamma                90
_cell_volume                     6192.54
_exptl_crystal_colour            yellow
_exptl_crystal_description       plate
_cell_formula_units_Z            8
loop_
_atom_site_label
_atom_site_type_symbol
_atom_site_fract_x
_atom_site_fract_y
_atom_site_fract_z
S1 S 0.37982(2) 0.18879(6) 0.35094(2)
O1 O 0.57082(6) 0.67438(15) 0.34600(3)
N1 N 0.48703(7) 0.42460(18) 0.32313(4)
N2 N 0.52389(7) 0.64348(18) 0.41397(4)
N3 N 0.61702(7) 0.51593(18) 0.44105(4)
N4 N 0.50799(7) 0.42391(19) 0.45472(4)
C1 C 0.57586(8) 0.6288(2) 0.31099(4)
C2 C 0.53443(8) 0.5005(2) 0.29996(4)
C3 C 0.53571(9) 0.4524(2) 0.26477(5)
H1 H 0.5082 0.3646 0.2569
C4 C 0.57692(9) 0.5320(2) 0.24109(5)
H2 H 0.5771 0.5002 0.2169
C5 C 0.61812(9) 0.6586(2) 0.25253(5)
H3 H 0.6465 0.7116 0.2360
C6 C 0.61863(8) 0.7094(2) 0.28777(5)
C7 C 0.65798(8) 0.8570(2) 0.30097(5)
C8 C 0.67149(8) 0.8339(2) 0.34030(5)
C9 C 0.72559(9) 0.9049(2) 0.35761(5)
H4 H 0.7570 0.9659 0.3443
C10 C 0.73460(9) 0.8887(2) 0.39375(5)
H5 H 0.7713 0.9401 0.4050
C11 C 0.68984(9) 0.7971(2) 0.41349(5)
H6 H 0.6967 0.7833 0.4382
C12 C 0.63493(8) 0.7253(2) 0.39733(5)
C13 C 0.62624(8) 0.7472(2) 0.36097(5)
C14 C 0.61444(9) 1.0122(2) 0.29624(5)
H7 H 0.6034 1.0259 0.2712
H8 H 0.6388 1.1093 0.3045
H9 H 0.5736 1.0000 0.3100
C15 C 0.72253(9) 0.8795(2) 0.27994(5)
H10 H 0.7499 0.7804 0.2823
H11 H 0.7468 0.9748 0.2892
H12 H 0.7120 0.8977 0.2550
C16 C 0.36754(9) 0.3849(2) 0.33252(5)
C17 C 0.30251(9) 0.4392(2) 0.32787(5)
H13 H 0.2669 0.3758 0.3371
C18 C 0.28929(9) 0.5839(3) 0.31005(5)
H14 H 0.2448 0.6170 0.3058
C19 C 0.34132(9) 0.6803(2) 0.29840(5)
H15 H 0.3325 0.7811 0.2865
C20 C 0.40659(9) 0.6307(2) 0.30399(5)
H16 H 0.4420 0.7001 0.2967
C21 C 0.42066(8) 0.4801(2) 0.32017(4)
C22 C 0.50768(9) 0.3139(2) 0.34969(4)
C23 C 0.57401(9) 0.3042(2) 0.36025(5)
H17 H 0.6058 0.3754 0.3498
C24 C 0.59412(10) 0.1922(2) 0.38584(5)
H18 H 0.6396 0.1858 0.3922
C25 C 0.54872(10) 0.0901(2) 0.40208(5)
H19 H 0.5625 0.0152 0.4199
C26 C 0.48281(10) 0.0984(2) 0.39198(5)
H20 H 0.4512 0.0292 0.4032
C27 C 0.46229(9) 0.2064(2) 0.36568(5)
C28 C 0.58884(8) 0.6240(2) 0.41881(4)
C29 C 0.57418(8) 0.4162(2) 0.45784(4)
C30 C 0.60196(9) 0.2790(2) 0.47892(4)
C31 C 0.66848(9) 0.2367(2) 0.47479(5)
H21 H 0.6965 0.3032 0.4605
C32 C 0.69422(10) 0.0982(3) 0.49136(5)
H22 H 0.7394 0.0688 0.4881
C33 C 0.65347(10) 0.0028(3) 0.51271(5)
H23 H 0.6709 -0.0921 0.5241
C34 C 0.58747(10) 0.0456(3) 0.51742(5)
H24 H 0.5598 -0.0195 0.5322
C35 C 0.56180(9) 0.1831(2) 0.50057(5)
H25 H 0.5166 0.2120 0.5038
C36 C 0.48557(8) 0.5398(2) 0.43256(4)
C37 C 0.41317(8) 0.5518(2) 0.42675(5)
C38 C 0.38781(9) 0.6727(2) 0.40443(5)
H26 H 0.4169 0.7476 0.3930
C39 C 0.31998(9) 0.6837(3) 0.39896(5)
H27 H 0.3026 0.7675 0.3841
C40 C 0.27761(9) 0.5727(3) 0.41507(5)
H28 H 0.2312 0.5801 0.4111
C41 C 0.30249(9) 0.4509(3) 0.43698(5)
H29 H 0.2733 0.3742 0.4478
C42 C 0.37032(9) 0.4412(2) 0.44312(5)
H30 H 0.3874 0.3590 0.4585
loop_
_geom_bond_atom_site_label_1
_geom_bond_atom_site_label_2
_geom_bond_site_symmetry_1
_geom_bond_site_symmetry_2
S1 C16 1_555 1_555
O1 C1 1_555 1_555
N1 C2 1_555 1_555
N2 C28 1_555 1_555
N3 C28 1_555 1_555
N4 C29 1_555 1_555
C1 C2 1_555 1_555
C2 C3 1_555 1_555
C3 H1 1_555 1_555
C4 C3 1_555 1_555
H2 C4 1_555 1_555
C5 C4 1_555 1_555
H3 C5 1_555 1_555
C6 C1 1_555 1_555
C7 C6 1_555 1_555
C8 C7 1_555 1_555
C9 C8 1_555 1_555
H4 C9 1_555 1_555
C10 C9 1_555 1_555
H5 C10 1_555 1_555
C11 C10 1_555 1_555
H6 C11 1_555 1_555
C12 C11 1_555 1_555
C13 O1 1_555 1_555
C14 C7 1_555 1_555
H7 C14 1_555 1_555
H8 C14 1_555 1_555
H9 C14 1_555 1_555
C15 C7 1_555 1_555
H10 C15 1_555 1_555
H11 C15 1_555 1_555
H12 C15 1_555 1_555
C16 C17 1_555 1_555
C17 H13 1_555 1_555
C18 C17 1_555 1_555
H14 C18 1_555 1_555
C19 C18 1_555 1_555
H15 C19 1_555 1_555
C20 C19 1_555 1_555
H16 C20 1_555 1_555
C21 N1 1_555 1_555
C22 N1 1_555 1_555
C23 C22 1_555 1_555
H17 C23 1_555 1_555
C24 C23 1_555 1_555
H18 C24 1_555 1_555
C25 C24 1_555 1_555
H19 C25 1_555 1_555
C26 C25 1_555 1_555
H20 C26 1_555 1_555
C27 S1 1_555 1_555
C28 C12 1_555 1_555
C29 N3 1_555 1_555
C30 C29 1_555 1_555
C31 C30 1_555 1_555
H21 C31 1_555 1_555
C32 C31 1_555 1_555
H22 C32 1_555 1_555
C33 C32 1_555 1_555
H23 C33 1_555 1_555
C34 C33 1_555 1_555
H24 C34 1_555 1_555
C35 C30 1_555 1_555
H25 C35 1_555 1_555
C36 N2 1_555 1_555
C37 C36 1_555 1_555
C38 C37 1_555 1_555
H26 C38 1_555 1_555
C39 C38 1_555 1_555
H27 C39 1_555 1_555
C40 C39 1_555 1_555
H28 C40 1_555 1_555
C41 C40 1_555 1_555
H29 C41 1_555 1_555
C42 C37 1_555 1_555
H30 C42 1_555 1_555
N4 C36 1_555 1_555
C5 C6 1_555 1_555
C8 C13 1_555 1_555
C12 C13 1_555 1_555
C16 C21 1_555 1_555
C20 C21 1_555 1_555
C22 C27 1_555 1_555
C26 C27 1_555 1_555
C34 C35 1_555 1_555
C41 C42 1_555 1_555

#END
