
#######################################################################
#
#                 Cambridge Crystallographic Data Centre
#                                CCDC 
#
#######################################################################
#
# If this CIF has been generated from an entry in the Cambridge 
# Structural Database, then it will include bibliographic, chemical, 
# crystal, experimental, refinement or atomic coordinate data resulting 
# from the CCDC's data processing and validation procedures.
#
#######################################################################

data_TECNUL
_chemical_formula_moiety         'C15 H15 N9 O6'
_chemical_name_systematic        
'tris(2-Azidoethyl) benzene-1,3,5-tricarboxylate'
_symmetry_cell_setting           triclinic
_symmetry_space_group_name_H-M   'P -1'
_symmetry_Int_Tables_number      2
_space_group_name_Hall           '-P 1'
loop_
_symmetry_equiv_pos_site_id
_symmetry_equiv_pos_as_xyz
1 x,y,z
2 -x,-y,-z
_cell_length_a                   6.7391(9)
_cell_length_b                   10.6986(14)
_cell_length_c                   14.5075(19)
_cell_angle_alpha                100.108(2)
_cell_angle_beta                 98.961(2)
_cell_angle_gamma                106.181(2)
_cell_volume                     965.499
_exptl_crystal_colour            colorless
_exptl_crystal_description       block
_cell_formula_units_Z            2
_exptl_crystal_recrystallization_method 'ethyl acetate'
loop_
_atom_site_label
_atom_site_type_symbol
_atom_site_fract_x
_atom_site_fract_y
_atom_site_fract_z
O1 O 0.4043(3) 0.35240(17) 1.08876(12)
O2 O 0.2973(3) 0.22495(15) 0.93944(11)
O3 O 0.1639(4) -0.35735(18) 1.00675(15)
O4 O 0.0914(3) -0.26362(16) 0.88516(12)
O5 O 0.4287(4) -0.0745(2) 1.33694(13)
O6 O 0.4424(4) 0.14001(19) 1.35797(12)
N1 N 0.0943(4) 0.2595(3) 0.74960(19)
N2 N 0.0634(5) 0.2071(3) 0.6650(2)
N3 N 0.0183(7) 0.1553(6) 0.5861(3)
N4 N 0.6850(6) 0.3943(3) 1.4998(2)
N5 N 0.6702(5) 0.4337(3) 1.4266(2)
N6 N 0.6734(7) 0.4794(4) 1.3626(3)
N7 N 0.0222(8) -0.2955(5) 0.6790(3)
N8 N 0.0528(6) -0.1777(5) 0.7082(2)
N9 N 0.0962(7) -0.0641(5) 0.7294(4)
C1 C 0.3196(3) 0.1168(2) 1.06683(15)
C2 C 0.2461(3) -0.0083(2) 1.00376(16)
H1 H 0.2080 -0.0157 0.9381
C3 C 0.2298(3) -0.1222(2) 1.03959(16)
C4 C 0.2855(4) -0.1110(2) 1.13758(16)
H2 H 0.2741 -0.1875 1.1611
C5 C 0.3579(4) 0.0135(2) 1.20051(16)
C6 C 0.3757(4) 0.1278(2) 1.16463(16)
H3 H 0.4253 0.2118 1.2065
C7 C 0.3449(4) 0.2440(2) 1.03419(16)
C8 C 0.3381(5) 0.3470(2) 0.90398(18)
H4 H 0.4794 0.4065 0.9346
H5 H 0.2372 0.3927 0.9188
C9 C 0.3179(5) 0.3107(3) 0.79820(19)
H6 H 0.3884 0.3889 0.7766
H7 H 0.3855 0.2432 0.7824
C10 C 0.1584(4) -0.2598(2) 0.97702(18)
C11 C 0.0275(6) -0.3938(3) 0.8200(2)
H8 H -0.0593 -0.4606 0.8469
H9 H 0.1511 -0.4190 0.8095
C12 C -0.0931(7) -0.3860(4) 0.7293(3)
H10 H -0.1470 -0.4748 0.6873
H11 H -0.2141 -0.3591 0.7420
C13 C 0.4131(4) 0.0192(3) 1.30457(18)
C14 C 0.4904(7) 0.1520(3) 1.4607(2)
H12 H 0.3780 0.0886 1.4787
H13 H 0.6213 0.1327 1.4794
C15 C 0.5111(9) 0.2868(4) 1.5087(3)
H14 H 0.3814 0.3048 1.4852
H15 H 0.5207 0.2895 1.5765
loop_
_geom_bond_atom_site_label_1
_geom_bond_atom_site_label_2
_geom_bond_site_symmetry_1
_geom_bond_site_symmetry_2
O1 C7 1_555 1_555
O2 C7 1_555 1_555
O3 C10 1_555 1_555
O4 C10 1_555 1_555
O5 C13 1_555 1_555
O6 C13 1_555 1_555
N1 N2 1_555 1_555
N2 N3 1_555 1_555
N4 N5 1_555 1_555
N5 N6 1_555 1_555
N7 N8 1_555 1_555
N8 N9 1_555 1_555
C1 C2 1_555 1_555
C2 H1 1_555 1_555
C3 C2 1_555 1_555
C4 C3 1_555 1_555
H2 C4 1_555 1_555
C5 C4 1_555 1_555
C6 C1 1_555 1_555
H3 C6 1_555 1_555
C7 C1 1_555 1_555
C8 O2 1_555 1_555
H4 C8 1_555 1_555
H5 C8 1_555 1_555
C9 N1 1_555 1_555
H6 C9 1_555 1_555
H7 C9 1_555 1_555
C10 C3 1_555 1_555
C11 O4 1_555 1_555
H8 C11 1_555 1_555
H9 C11 1_555 1_555
C12 N7 1_555 1_555
H10 C12 1_555 1_555
H11 C12 1_555 1_555
C13 C5 1_555 1_555
C14 O6 1_555 1_555
H12 C14 1_555 1_555
H13 C14 1_555 1_555
C15 N4 1_555 1_555
H14 C15 1_555 1_555
H15 C15 1_555 1_555
C5 C6 1_555 1_555
C8 C9 1_555 1_555
C11 C12 1_555 1_555
C14 C15 1_555 1_555

#END
