
#######################################################################
#
#                 Cambridge Crystallographic Data Centre
#                                CCDC 
#
#######################################################################
#
# If this CIF has been generated from an entry in the Cambridge 
# Structural Database, then it will include bibliographic, chemical, 
# crystal, experimental, refinement or atomic coordinate data resulting 
# from the CCDC's data processing and validation procedures.
#
#######################################################################

data_TECVEC
_chemical_formula_moiety         'C14 H13 N1 O1 S1'
_chemical_name_systematic        
10-Oxa-2-thia[3](1,3)benzeno[2](3,5)pyridinophane
_symmetry_cell_setting           monoclinic
_symmetry_space_group_name_H-M   'P 21/c'
_symmetry_Int_Tables_number      14
_space_group_name_Hall           '-P 2ybc'
loop_
_symmetry_equiv_pos_site_id
_symmetry_equiv_pos_as_xyz
1 x,y,z
2 -x,1/2+y,1/2-z
3 -x,-y,-z
4 x,1/2-y,1/2+z
_cell_length_a                   8.411(2)
_cell_length_b                   21.053(1)
_cell_length_c                   7.027(1)
_cell_angle_alpha                90
_cell_angle_beta                 109.90(1)
_cell_angle_gamma                90
_cell_volume                     1170.02
_exptl_crystal_colour            colorless
_cell_formula_units_Z            4
loop_
_atom_site_label
_atom_site_type_symbol
_atom_site_fract_x
_atom_site_fract_y
_atom_site_fract_z
C1 C 0.57426(29) 0.15144(11) 0.91716(37)
H1 H 0.52561(29) 0.10975(11) 0.88913(37)
H2 H 0.56311(29) 0.16598(11) 1.04150(37)
S1 S 0.46061(6) 0.20582(2) 0.71140(9)
C2 C 0.35757(27) 0.15566(11) 0.49547(40)
H3 H 0.28953(27) 0.18248(11) 0.38811(40)
H4 H 0.28212(27) 0.12781(11) 0.53174(40)
C3 C 0.46786(26) 0.11566(10) 0.41226(33)
C4 C 0.40170(30) 0.05975(12) 0.30934(38)
H5 H 0.28483(30) 0.05067(12) 0.28665(38)
N1 N 0.48973(28) 0.01815(10) 0.24300(35)
C5 C 0.65375(31) 0.02972(11) 0.28727(38)
H6 H 0.72080(31) -0.00150(11) 0.24960(38)
C6 C 0.73458(28) 0.08371(11) 0.38825(35)
C7 C 0.63462(26) 0.12846(10) 0.44039(34)
H7 H 0.68176(26) 0.16881(10) 0.49477(34)
C8 C 0.92290(30) 0.08955(13) 0.45964(40)
H8 H 0.95187(30) 0.13343(13) 0.45353(40)
H9 H 0.96687(30) 0.06585(13) 0.37184(40)
O1 O 1.00052(21) 0.06760(9) 0.66816(28)
C9 C 0.96546(27) 0.10782(11) 0.80668(38)
C10 C 1.07383(28) 0.15702(12) 0.89506(40)
H10 H 1.17965(28) 0.16129(12) 0.87246(40)
C11 C 1.02679(30) 0.20041(11) 1.01330(40)
H11 H 1.10510(30) 0.23273(11) 1.08421(40)
C12 C 0.86866(29) 0.19769(10) 1.03172(36)
H12 H 0.83468(29) 0.22972(10) 1.10728(36)
C13 C 0.75812(27) 0.14839(9) 0.93986(33)
C14 C 0.81341(27) 0.10104(10) 0.84074(35)
H13 H 0.74741(27) 0.06324(10) 0.79596(35)
loop_
_geom_bond_atom_site_label_1
_geom_bond_atom_site_label_2
_geom_bond_site_symmetry_1
_geom_bond_site_symmetry_2
C1 H1 1_555 1_555
H2 C1 1_555 1_555
S1 C1 1_555 1_555
C2 S1 1_555 1_555
H3 C2 1_555 1_555
H4 C2 1_555 1_555
C3 C2 1_555 1_555
C4 C3 1_555 1_555
H5 C4 1_555 1_555
N1 C4 1_555 1_555
C5 N1 1_555 1_555
H6 C5 1_555 1_555
C6 C5 1_555 1_555
C7 C3 1_555 1_555
H7 C7 1_555 1_555
C8 C6 1_555 1_555
H8 C8 1_555 1_555
H9 C8 1_555 1_555
O1 C8 1_555 1_555
C9 O1 1_555 1_555
C10 C9 1_555 1_555
H10 C10 1_555 1_555
C11 C10 1_555 1_555
H11 C11 1_555 1_555
C12 C11 1_555 1_555
H12 C12 1_555 1_555
C13 C1 1_555 1_555
C14 C9 1_555 1_555
H13 C14 1_555 1_555
C6 C7 1_555 1_555
C12 C13 1_555 1_555
C13 C14 1_555 1_555

#END
