
#######################################################################
#
#                 Cambridge Crystallographic Data Centre
#                                CCDC 
#
#######################################################################
#
# If this CIF has been generated from an entry in the Cambridge 
# Structural Database, then it will include bibliographic, chemical, 
# crystal, experimental, refinement or atomic coordinate data resulting 
# from the CCDC's data processing and validation procedures.
#
#######################################################################

data_TEDBAG
_chemical_formula_moiety         
'C24 H48 Na1 O6 1+,C20 H40 Na1 O5 1+,C48 H78 N6 Si3 2-'
_chemical_name_systematic        
"hexakis(Tetrahydrofuran)-sodium pentakis(tetrahydrofuran)-sodium 1,1:2,2:3,3-tris(1,2-bis(neopentylamido)benzene-N,N')-cyclotrisilanide"
_symmetry_cell_setting           hexagonal
_symmetry_space_group_name_H-M   'P 63/m'
_symmetry_Int_Tables_number      176
_space_group_name_Hall           '-P 6c'
loop_
_symmetry_equiv_pos_site_id
_symmetry_equiv_pos_as_xyz
1 x,y,z
2 -y,x-y,z
3 y,-x+y,1/2+z
4 -x+y,-x,z
5 x-y,x,1/2+z
6 -x,-y,1/2+z
7 -x,-y,-z
8 y,-x+y,-z
9 -y,x-y,1/2-z
10 x-y,x,-z
11 -x+y,-x,1/2-z
12 x,y,1/2-z
_cell_length_a                   15.0722(1)
_cell_length_b                   15.0722(1)
_cell_length_c                   25.4341(3)
_cell_angle_alpha                90
_cell_angle_beta                 90
_cell_angle_gamma                120
_cell_volume                     5003.8
_exptl_crystal_colour            brown
_exptl_crystal_description       prism
_cell_formula_units_Z            2
loop_
_atom_site_label
_atom_site_type_symbol
_atom_site_fract_x
_atom_site_fract_y
_atom_site_fract_z
Na1 Na 0.00000 0.00000 0.50000
O1 O 0.12922(16) 0.13746(16) 0.55240(8)
C9 C 0.2330(3) 0.2016(3) 0.53767(17)
H12 H 0.2386 0.2105 0.499
H13 H 0.2746 0.1709 0.5489
C10 C 0.2695(4) 0.3007(4) 0.5635(3)
H14 H 0.3343 0.3213 0.5825
H15 H 0.282 0.3541 0.5372
C11 C 0.1935(4) 0.2894(4) 0.5988(3)
H16 H 0.1672 0.3356 0.5889
H17 H 0.222 0.3073 0.6348
C12 C 0.1092(3) 0.1814(3) 0.59717(14)
H18 H 0.1087 0.1448 0.6296
H19 H 0.0421 0.1778 0.5937
O1A O -0.13746(16) -0.00824(23) 0.55240(8)
O1C O 0.00824(23) -0.12922(16) 0.55240(8)
O1F O -0.12922(16) -0.13746(16) 0.44760(8)
O1G O 0.13746(16) 0.00824(23) 0.44760(8)
O1I O -0.00824(23) 0.12922(16) 0.44760(8)
C9A C -0.2016(3) 0.0314(4) 0.53767(17)
C9C C -0.0314(4) -0.2330(3) 0.53767(17)
C9F C -0.2330(3) -0.2016(3) 0.46233(17)
C9G C 0.2016(3) -0.0314(4) 0.46233(17)
C9I C 0.0314(4) 0.2330(3) 0.46233(17)
H12A H -0.2105 0.0281 0.499
H12C H -0.0281 -0.2386 0.499
H12F H -0.2386 -0.2105 0.501
H12G H 0.2105 -0.0281 0.501
H12I H 0.0281 0.2386 0.501
H13A H -0.1709 0.1037 0.5489
H13C H -0.1037 -0.2746 0.5489
H13F H -0.2746 -0.1709 0.4511
H13G H 0.1709 -0.1037 0.4511
H13I H 0.1037 0.2746 0.4511
C10A C -0.3007(4) -0.0312(6) 0.5635(3)
C10C C 0.0312(6) -0.2695(4) 0.5635(3)
C10F C -0.2695(4) -0.3007(4) 0.4365(3)
C10G C 0.3007(4) 0.0312(6) 0.4365(3)
C10I C -0.0312(6) 0.2695(4) 0.4365(3)
H14A H -0.3213 0.0130 0.5825
H14C H -0.0130 -0.3343 0.5825
H14F H -0.3343 -0.3213 0.4175
H14G H 0.3213 -0.0130 0.4175
H14I H 0.0130 0.3343 0.4175
H15A H -0.3541 -0.0721 0.5372
H15C H 0.0721 -0.282 0.5372
H15F H -0.282 -0.3541 0.4628
H15G H 0.3541 0.0721 0.4628
H15I H -0.0721 0.282 0.4628
C11A C -0.2894(4) -0.0959(6) 0.5988(3)
C11C C 0.0959(6) -0.1935(4) 0.5988(3)
C11F C -0.1935(4) -0.2894(4) 0.4012(3)
C11G C 0.2894(4) 0.0959(6) 0.4012(3)
C11I C -0.0959(6) 0.1935(4) 0.4012(3)
H16A H -0.3356 -0.1684 0.5889
H16C H 0.1684 -0.1672 0.5889
H16F H -0.1672 -0.3356 0.4111
H16G H 0.3356 0.1684 0.4111
H16I H -0.1684 0.1672 0.4111
H17A H -0.3073 -0.0853 0.6348
H17C H 0.0853 -0.222 0.6348
H17F H -0.222 -0.3073 0.3652
H17G H 0.3073 0.0853 0.3652
H17I H -0.0853 0.222 0.3652
C12A C -0.1814(3) -0.0722(4) 0.59717(14)
C12C C 0.0722(4) -0.1092(3) 0.59717(14)
C12F C -0.1092(3) -0.1814(3) 0.40283(14)
C12G C 0.1814(3) 0.0722(4) 0.40283(14)
C12I C -0.0722(4) 0.1092(3) 0.40283(14)
H18A H -0.1448 -0.0361 0.6296
H18C H 0.0361 -0.1087 0.6296
H18F H -0.1087 -0.1448 0.3704
H18G H 0.1448 0.0361 0.3704
H18I H -0.0361 0.1087 0.3704
H19A H -0.1778 -0.1357 0.5937
H19C H 0.1357 -0.0421 0.5937
H19F H -0.0421 -0.1778 0.4063
H19G H 0.1778 0.1357 0.4063
H19I H -0.1357 0.0421 0.4063
Na2 Na 0.6667 0.3333 0.25000
O2 O 0.4935(3) 0.2363(3) 0.25000
O3 O 0.6667 0.3333 0.3439(2)
C13 C 0.4587(5) 0.1326(5) 0.2677(3)
H20 H 0.5014 0.1062 0.2523
H21 H 0.4623 0.1302 0.3065
C14 C 0.3543(4) 0.0728(5) 0.25000
H22 H 0.3136 0.0151 0.2743
H23 H 0.3512 0.0453 0.2143
C15 C 0.3164(4) 0.1472(5) 0.25000
H24 H 0.2745 0.1381 0.2183
H25 H 0.2745 0.1381 0.2817
C16 C 0.4092(5) 0.2482(5) 0.25000
H26 H 0.4101 0.2871 0.2185
H27 H 0.4101 0.2871 0.2815
C17 C 0.6234(10) 0.3471(18) 0.4290(4)
C18 C 0.656(2) 0.3989(16) 0.3760(4)
O2A O 0.7637(3) 0.2572(4) 0.25000
O2C O 0.7428(4) 0.5065(3) 0.25000
O3K O 0.6667 0.3333 0.1561(2)
C13K C 0.4587(5) 0.1326(5) 0.2323(3)
C13A C 0.8674(5) 0.3261(7) 0.2677(3)
C13H C 0.8674(5) 0.3261(7) 0.2323(3)
C13C C 0.6739(7) 0.5413(5) 0.2677(3)
C13J C 0.6739(7) 0.5413(5) 0.2323(3)
H20A H 0.8938 0.3952 0.2523
H20C H 0.6048 0.4986 0.2523
H21K H 0.4623 0.1302 0.1935
H21A H 0.8698 0.3321 0.3065
H21H H 0.8698 0.3321 0.1935
H21C H 0.6679 0.5377 0.3065
H21J H 0.6679 0.5377 0.1935
C14A C 0.9272(5) 0.2815(6) 0.25000
C14C C 0.7185(6) 0.6457(4) 0.25000
H22K H 0.3136 0.0151 0.2257
H22A H 0.9849 0.2985 0.2743
H22H H 0.9849 0.2985 0.2257
H22C H 0.7015 0.6864 0.2743
H22J H 0.7015 0.6864 0.2257
H23K H 0.3512 0.0453 0.2857
H23H H 0.9547 0.3059 0.2857
H23A H 0.9547 0.3059 0.2143
H23J H 0.6941 0.6488 0.2857
H23C H 0.6941 0.6488 0.2143
C15A C 0.8528(5) 0.1692(6) 0.25000
C15C C 0.8308(6) 0.6836(4) 0.25000
H24A H 0.8619 0.1364 0.2183
H24H H 0.8619 0.1364 0.2817
H24C H 0.8636 0.7255 0.2183
H24J H 0.8636 0.7255 0.2817
C16A C 0.7518(5) 0.1610(7) 0.25000
C16C C 0.8390(7) 0.5908(5) 0.25000
H26A H 0.7129 0.1230 0.2185
H26H H 0.7129 0.1230 0.2815
H26C H 0.8770 0.5899 0.2185
H26J H 0.8770 0.5899 0.2815
C17A C 0.6529(18) 0.2763(21) 0.4290(4)
C17C C 0.7237(21) 0.3766(10) 0.4290(4)
C17K C 0.6234(10) 0.3471(18) 0.0710(4)
C17H C 0.6529(18) 0.2763(21) 0.0710(4)
C17J C 0.7237(21) 0.3766(10) 0.0710(4)
C18C C 0.7429(26) 0.344(2) 0.3760(4)
C18A C 0.6011(16) 0.2571(26) 0.3760(4)
C18K C 0.656(2) 0.3989(16) 0.1240(4)
C18H C 0.6011(16) 0.2571(26) 0.1240(4)
C18J C 0.7429(26) 0.344(2) 0.1240(4)
Si1 Si 0.57100(7) 0.26082(7) 0.75000
N1 N 0.46830(15) 0.18913(15) 0.70181(8)
C1 C 0.37058(17) 0.14999(17) 0.72173(10)
C2 C 0.27849(19) 0.1162(2) 0.69518(12)
H1 H 0.2777 0.116 0.6578
C3 C 0.1869(2) 0.0824(2) 0.72294(13)
H2 H 0.1245 0.0594 0.7043
C4 C 0.48753(19) 0.19575(19) 0.64559(10)
C5 C 0.4833(2) 0.1006(2) 0.61940(11)
C6 C 0.3731(2) 0.0136(2) 0.61137(15)
H3 H 0.3355 0.0384 0.5902
H4 H 0.3396 -0.0098 0.6456
H5 H 0.3736 -0.0434 0.5931
C7 C 0.5346(3) 0.1352(3) 0.56522(12)
H6 H 0.4972 0.1603 0.5441
H7 H 0.5335 0.0772 0.5473
H8 H 0.6056 0.1903 0.5698
C8 C 0.5408(2) 0.0617(2) 0.65263(13)
H9 H 0.6114 0.1172 0.658
H10 H 0.5413 0.0046 0.6345
H11 H 0.5068 0.0384 0.6868
Si1A Si 0.73918(7) 0.31018(10) 0.75000
Si1C Si 0.68982(10) 0.42900(7) 0.75000
N1K N 0.46830(15) 0.18913(15) 0.79819(8)
N1C N 0.72083(21) 0.53170(15) 0.70181(8)
N1J N 0.72083(21) 0.53170(15) 0.79819(8)
N1A N 0.81087(15) 0.27917(21) 0.70181(8)
N1H N 0.81087(15) 0.27917(21) 0.79819(8)
C1K C 0.37058(17) 0.14999(17) 0.77827(10)
C1C C 0.77941(24) 0.62942(17) 0.72173(10)
C1J C 0.77941(24) 0.62942(17) 0.77827(10)
C1A C 0.85001(17) 0.22059(24) 0.72173(10)
C1H C 0.85001(17) 0.22059(24) 0.77827(10)
C2K C 0.27849(19) 0.1162(2) 0.80482(12)
C2C C 0.83771(28) 0.72151(19) 0.69518(12)
C2J C 0.83771(28) 0.72151(19) 0.80482(12)
C2A C 0.8838(2) 0.16229(28) 0.69518(12)
C2H C 0.8838(2) 0.16229(28) 0.80482(12)
H1K H 0.2777 0.116 0.8422
H1C H 0.8383 0.7223 0.6578
H1J H 0.8383 0.7223 0.8422
H1A H 0.884 0.1617 0.6578
H1H H 0.884 0.1617 0.8422
C3K C 0.1869(2) 0.0824(2) 0.77706(13)
C3C C 0.8955(3) 0.8131(2) 0.72294(13)
C3J C 0.8955(3) 0.8131(2) 0.77706(13)
C3A C 0.9176(2) 0.1045(3) 0.72294(13)
C3H C 0.9176(2) 0.1045(3) 0.77706(13)
H2K H 0.1245 0.0594 0.7957
H2J H 0.9349 0.8755 0.7957
H2C H 0.9349 0.8755 0.7043
H2A H 0.9406 0.0651 0.7043
H2H H 0.9406 0.0651 0.7957
C4K C 0.48753(19) 0.19575(19) 0.85441(10)
C4J C 0.70822(27) 0.51247(19) 0.85441(10)
C4C C 0.70822(27) 0.51247(19) 0.64559(10)
C4A C 0.80425(19) 0.29178(27) 0.64559(10)
C4H C 0.80425(19) 0.29178(27) 0.85441(10)
C5K C 0.4833(2) 0.1006(2) 0.88060(11)
C5J C 0.6173(3) 0.5167(2) 0.88060(11)
C5C C 0.6173(3) 0.5167(2) 0.61940(11)
C5A C 0.8994(2) 0.3827(3) 0.61940(11)
C5H C 0.8994(2) 0.3827(3) 0.88060(11)
C6K C 0.3731(2) 0.0136(2) 0.88863(15)
C6J C 0.6405(3) 0.6269(2) 0.88863(15)
C6C C 0.6405(3) 0.6269(2) 0.61137(15)
C6A C 0.9864(2) 0.3595(3) 0.61137(15)
C6H C 0.9864(2) 0.3595(3) 0.88863(15)
H3K H 0.3355 0.0384 0.9098
H3J H 0.7029 0.6645 0.9098
H3C H 0.7029 0.6645 0.5902
H3A H 0.9616 0.2971 0.5902
H3H H 0.9616 0.2971 0.9098
H4K H 0.3396 -0.0098 0.8544
H4J H 0.6506 0.6604 0.8544
H4C H 0.6506 0.6604 0.6456
H4A H 1.0098 0.3494 0.6456
H4H H 1.0098 0.3494 0.8544
H5K H 0.3736 -0.0434 0.9069
H5J H 0.5830 0.6264 0.9069
H5C H 0.5830 0.6264 0.5931
H5A H 1.0434 0.4170 0.5931
H5H H 1.0434 0.4170 0.9069
C7K C 0.5346(3) 0.1352(3) 0.93478(12)
C7J C 0.6006(4) 0.4654(3) 0.93478(12)
C7C C 0.6006(4) 0.4654(3) 0.56522(12)
C7A C 0.8648(3) 0.3994(4) 0.56522(12)
C7H C 0.8648(3) 0.3994(4) 0.93478(12)
H6K H 0.4972 0.1603 0.9559
H6J H 0.6631 0.5028 0.9559
H6C H 0.6631 0.5028 0.5441
H6A H 0.8397 0.3369 0.5441
H6H H 0.8397 0.3369 0.9559
H7K H 0.5335 0.0772 0.9527
H7J H 0.5437 0.4665 0.9527
H7C H 0.5437 0.4665 0.5473
H7A H 0.9228 0.4563 0.5473
H7H H 0.9228 0.4563 0.9527
H8K H 0.6056 0.1903 0.9302
H8J H 0.5847 0.3944 0.9302
H8C H 0.5847 0.3944 0.5698
H8A H 0.8097 0.4153 0.5698
H8H H 0.8097 0.4153 0.9302
C8K C 0.5408(2) 0.0617(2) 0.84737(13)
C8J C 0.5209(3) 0.4592(2) 0.84737(13)
C8C C 0.5209(3) 0.4592(2) 0.65263(13)
C8A C 0.9383(2) 0.4791(3) 0.65263(13)
C8H C 0.9383(2) 0.4791(3) 0.84737(13)
H9K H 0.6114 0.1172 0.842
H9J H 0.5058 0.3886 0.842
H9C H 0.5058 0.3886 0.658
H9A H 0.8828 0.4942 0.658
H9H H 0.8828 0.4942 0.842
H10K H 0.5413 0.0046 0.8655
H10J H 0.4633 0.4587 0.8655
H10C H 0.4633 0.4587 0.6345
H10A H 0.9954 0.5367 0.6345
H10H H 0.9954 0.5367 0.8655
H11K H 0.5068 0.0384 0.8132
H11J H 0.5316 0.4932 0.8132
H11C H 0.5316 0.4932 0.6868
H11A H 0.9616 0.4684 0.6868
H11H H 0.9616 0.4684 0.8132
loop_
_geom_bond_atom_site_label_1
_geom_bond_atom_site_label_2
_geom_bond_site_symmetry_1
_geom_bond_site_symmetry_2
Si1 N1 1_555 1_555
N1 C1 1_555 1_555
C1 C2 1_555 1_555
C2 H1 1_555 1_555
C3 C2 1_555 1_555
H2 C3 1_555 1_555
C4 N1 1_555 1_555
C5 C4 1_555 1_555
C6 C5 1_555 1_555
H3 C6 1_555 1_555
H4 C6 1_555 1_555
H5 C6 1_555 1_555
C7 C5 1_555 1_555
H6 C7 1_555 1_555
H7 C7 1_555 1_555
H8 C7 1_555 1_555
C8 C5 1_555 1_555
H9 C8 1_555 1_555
H10 C8 1_555 1_555
H11 C8 1_555 1_555
Na1 O1 1_555 1_555
O1 C9 1_555 1_555
C9 H12 1_555 1_555
H13 C9 1_555 1_555
C10 C9 1_555 1_555
H14 C10 1_555 1_555
H15 C10 1_555 1_555
C11 C10 1_555 1_555
H16 C11 1_555 1_555
H17 C11 1_555 1_555
C12 O1 1_555 1_555
H18 C12 1_555 1_555
H19 C12 1_555 1_555
Na2 O2 1_555 1_555
O2 C13 1_555 1_555
O3 Na2 1_555 1_555
C13 H20 1_555 1_555
H20 C13K 1_555 1_555
H21 C13 1_555 1_555
C14 C13 1_555 1_555
H22 C14 1_555 1_555
H23 C14 1_555 1_555
C15 C14 1_555 1_555
H24 C15 1_555 1_555
H25 C15 1_555 1_555
C16 O2 1_555 1_555
H26 C16 1_555 1_555
H27 C16 1_555 1_555
C17 C18 1_555 1_555
C18 O3 1_555 1_555
Si1A Si1 1_555 1_555
Si1C Si1 1_555 1_555
N1K Si1 1_555 1_555
N1C Si1C 1_555 1_555
N1J Si1C 1_555 1_555
N1A Si1A 1_555 1_555
N1H Si1A 1_555 1_555
C1K C1 1_555 1_555
C1C N1C 1_555 1_555
C1J N1J 1_555 1_555
C1A N1A 1_555 1_555
C1H N1H 1_555 1_555
C2K C1K 1_555 1_555
C2C C1C 1_555 1_555
C2J C1J 1_555 1_555
C2A C1A 1_555 1_555
C2H C1H 1_555 1_555
H1K C2K 1_555 1_555
H1C C2C 1_555 1_555
H1J C2J 1_555 1_555
H1A C2A 1_555 1_555
H1H C2H 1_555 1_555
C3K C3 1_555 1_555
C3C C2C 1_555 1_555
C3J C2J 1_555 1_555
C3A C2A 1_555 1_555
C3H C2H 1_555 1_555
H2K C3K 1_555 1_555
H2J C3J 1_555 1_555
H2C C3C 1_555 1_555
H2A C3A 1_555 1_555
H2H C3H 1_555 1_555
C4K N1K 1_555 1_555
C4J N1J 1_555 1_555
C4C N1C 1_555 1_555
C4A N1A 1_555 1_555
C4H N1H 1_555 1_555
C5K C4K 1_555 1_555
C5J C4J 1_555 1_555
C5C C4C 1_555 1_555
C5A C4A 1_555 1_555
C5H C4H 1_555 1_555
C6K C5K 1_555 1_555
C6J C5J 1_555 1_555
C6C C5C 1_555 1_555
C6A C5A 1_555 1_555
C6H C5H 1_555 1_555
H3K C6K 1_555 1_555
H3J C6J 1_555 1_555
H3C C6C 1_555 1_555
H3A C6A 1_555 1_555
H3H C6H 1_555 1_555
H4K C6K 1_555 1_555
H4J C6J 1_555 1_555
H4C C6C 1_555 1_555
H4A C6A 1_555 1_555
H4H C6H 1_555 1_555
H5K C6K 1_555 1_555
H5J C6J 1_555 1_555
H5C C6C 1_555 1_555
H5A C6A 1_555 1_555
H5H C6H 1_555 1_555
C7K C5K 1_555 1_555
C7J C5J 1_555 1_555
C7C C5C 1_555 1_555
C7A C5A 1_555 1_555
C7H C5H 1_555 1_555
H6K C7K 1_555 1_555
H6J C7J 1_555 1_555
H6C C7C 1_555 1_555
H6A C7A 1_555 1_555
H6H C7H 1_555 1_555
H7K C7K 1_555 1_555
H7J C7J 1_555 1_555
H7C C7C 1_555 1_555
H7A C7A 1_555 1_555
H7H C7H 1_555 1_555
H8K C7K 1_555 1_555
H8J C7J 1_555 1_555
H8C C7C 1_555 1_555
H8A C7A 1_555 1_555
H8H C7H 1_555 1_555
C8K C5K 1_555 1_555
C8J C5J 1_555 1_555
C8C C5C 1_555 1_555
C8A C5A 1_555 1_555
C8H C5H 1_555 1_555
H9K C8K 1_555 1_555
H9J C8J 1_555 1_555
H9C C8C 1_555 1_555
H9A C8A 1_555 1_555
H9H C8H 1_555 1_555
H10K C8K 1_555 1_555
H10J C8J 1_555 1_555
H10C C8C 1_555 1_555
H10A C8A 1_555 1_555
H10H C8H 1_555 1_555
H11K C8K 1_555 1_555
H11J C8J 1_555 1_555
H11C C8C 1_555 1_555
H11A C8A 1_555 1_555
H11H C8H 1_555 1_555
O1A Na1 1_555 1_555
O1C Na1 1_555 1_555
O1F Na1 1_555 1_555
O1G Na1 1_555 1_555
O1I Na1 1_555 1_555
C9A O1A 1_555 1_555
C9C O1C 1_555 1_555
C9F O1F 1_555 1_555
C9G O1G 1_555 1_555
C9I O1I 1_555 1_555
H12A C9A 1_555 1_555
H12C C9C 1_555 1_555
H12F C9F 1_555 1_555
H12G C9G 1_555 1_555
H12I C9I 1_555 1_555
H13A C9A 1_555 1_555
H13C C9C 1_555 1_555
H13F C9F 1_555 1_555
H13G C9G 1_555 1_555
H13I C9I 1_555 1_555
C10A C9A 1_555 1_555
C10C C9C 1_555 1_555
C10F C9F 1_555 1_555
C10G C9G 1_555 1_555
C10I C9I 1_555 1_555
H14A C10A 1_555 1_555
H14C C10C 1_555 1_555
H14F C10F 1_555 1_555
H14G C10G 1_555 1_555
H14I C10I 1_555 1_555
H15A C10A 1_555 1_555
H15C C10C 1_555 1_555
H15F C10F 1_555 1_555
H15G C10G 1_555 1_555
H15I C10I 1_555 1_555
C11A C10A 1_555 1_555
C11C C10C 1_555 1_555
C11F C10F 1_555 1_555
C11G C10G 1_555 1_555
C11I C10I 1_555 1_555
H16A C11A 1_555 1_555
H16C C11C 1_555 1_555
H16F C11F 1_555 1_555
H16G C11G 1_555 1_555
H16I C11I 1_555 1_555
H17A C11A 1_555 1_555
H17C C11C 1_555 1_555
H17F C11F 1_555 1_555
H17G C11G 1_555 1_555
H17I C11I 1_555 1_555
C12A O1A 1_555 1_555
C12C O1C 1_555 1_555
C12F O1F 1_555 1_555
C12G O1G 1_555 1_555
C12I O1I 1_555 1_555
H18A C12A 1_555 1_555
H18C C12C 1_555 1_555
H18F C12F 1_555 1_555
H18G C12G 1_555 1_555
H18I C12I 1_555 1_555
H19A C12A 1_555 1_555
H19C C12C 1_555 1_555
H19F C12F 1_555 1_555
H19G C12G 1_555 1_555
H19I C12I 1_555 1_555
O2A Na2 1_555 1_555
O2C Na2 1_555 1_555
O3K Na2 1_555 1_555
C13K O2 1_555 1_555
C13A O2A 1_555 1_555
C13H O2A 1_555 1_555
C13C O2C 1_555 1_555
C13J O2C 1_555 1_555
H20A C13A 1_555 1_555
H20C C13C 1_555 1_555
H21K C13K 1_555 1_555
H21A C13A 1_555 1_555
H21H C13H 1_555 1_555
H21C C13C 1_555 1_555
H21J C13J 1_555 1_555
C14A C13A 1_555 1_555
C14C C13C 1_555 1_555
H22K C14 1_555 1_555
H22A C14A 1_555 1_555
H22H C14A 1_555 1_555
H22C C14C 1_555 1_555
H22J C14C 1_555 1_555
H23K C14 1_555 1_555
H23H C14A 1_555 1_555
H23A C14A 1_555 1_555
H23J C14C 1_555 1_555
H23C C14C 1_555 1_555
C15A C14A 1_555 1_555
C15C C14C 1_555 1_555
H24A C15A 1_555 1_555
H24H C15A 1_555 1_555
H24C C15C 1_555 1_555
H24J C15C 1_555 1_555
C16A O2A 1_555 1_555
C16C O2C 1_555 1_555
H26A C16A 1_555 1_555
H26H C16A 1_555 1_555
H26C C16C 1_555 1_555
H26J C16C 1_555 1_555
C17A C17 1_555 1_555
C17C C17 1_555 1_555
C17K C17H 1_555 1_555
C17H C17J 1_555 1_555
C17J C17K 1_555 1_555
C18C O3 1_555 1_555
C18A O3 1_555 1_555
C18K O3K 1_555 1_555
C18H O3K 1_555 1_555
C18J O3K 1_555 1_555
C11 C12 1_555 1_555
C13 C13K 1_555 1_555
C14 C13K 1_555 1_555
H22 H23K 1_555 1_555
H23 H22K 1_555 1_555
C15 C16 1_555 1_555
Si1A Si1C 1_555 1_555
N1K C1K 1_555 1_555
C1C C1J 1_555 1_555
C1A C1H 1_555 1_555
C2K C3K 1_555 1_555
C3C C3J 1_555 1_555
C3A C3H 1_555 1_555
C11A C12A 1_555 1_555
C11C C12C 1_555 1_555
C11F C12F 1_555 1_555
C11G C12G 1_555 1_555
C11I C12I 1_555 1_555
C13A C13H 1_555 1_555
C13H H20A 1_555 1_555
C13H C14A 1_555 1_555
C13C C13J 1_555 1_555
C13J H20C 1_555 1_555
C13J C14C 1_555 1_555
H22A H23H 1_555 1_555
H22H H23A 1_555 1_555
H22C H23J 1_555 1_555
H22J H23C 1_555 1_555
C15A C16A 1_555 1_555
C15C C16C 1_555 1_555
C17A C17C 1_555 1_555
C17A C18A 1_555 1_555
C17C C18C 1_555 1_555
C17K C18K 1_555 1_555
C17H C18H 1_555 1_555
C17J C18J 1_555 1_555

#END
