
#######################################################################
#
#                 Cambridge Crystallographic Data Centre
#                                CCDC 
#
#######################################################################
#
# If this CIF has been generated from an entry in the Cambridge 
# Structural Database, then it will include bibliographic, chemical, 
# crystal, experimental, refinement or atomic coordinate data resulting 
# from the CCDC's data processing and validation procedures.
#
#######################################################################

data_TEDHAO
_chemical_formula_moiety         'C17 H26 N1 O1 1+,C8 H7 O3 1-'
_chemical_name_systematic        
'N-[(2-hydroxyphenyl)methyl]-1,7,7-trimethylbicyclo[2.2.1]heptan-2-aminium hydroxy(phenyl)acetate'
_symmetry_cell_setting           orthorhombic
_symmetry_space_group_name_H-M   'P 21 21 21'
_symmetry_Int_Tables_number      19
_space_group_name_Hall           'P 2ac 2ab'
loop_
_symmetry_equiv_pos_site_id
_symmetry_equiv_pos_as_xyz
1 x,y,z
2 1/2-x,-y,1/2+z
3 1/2+x,1/2-y,-z
4 -x,1/2+y,1/2-z
_cell_length_a                   8.1876(11)
_cell_length_b                   13.913(2)
_cell_length_c                   19.993(2)
_cell_angle_alpha                90
_cell_angle_beta                 90
_cell_angle_gamma                90
_cell_volume                     2277.48
_exptl_crystal_colour            colorless
_cell_formula_units_Z            4
loop_
_atom_site_label
_atom_site_type_symbol
_atom_site_fract_x
_atom_site_fract_y
_atom_site_fract_z
O1 O 0.02191(18) 0.62664(11) 0.57018(7)
H1 H -0.0548 0.6109 0.5942
C1 C 0.2323(2) 0.73958(15) 0.56215(9)
N1 N 0.3210(2) 0.59123(12) 0.50557(8)
H2 H 0.2315 0.5598 0.5199
H3 H 0.3979 0.5858 0.5375
C2 C 0.3165(3) 0.81715(17) 0.58785(12)
H4 H 0.4034 0.8427 0.5637
C3 C 0.2797(3) 0.69511(14) 0.49683(10)
H5 H 0.1902 0.7013 0.4654
H6 H 0.3733 0.7288 0.4786
C4 C 0.4184(3) 0.43526(15) 0.45025(10)
C5 C 0.1009(3) 0.70223(15) 0.59790(10)
C6 C 0.3820(3) 0.54369(15) 0.44300(9)
H7 H 0.4834 0.5758 0.4296
C7 C 0.0585(3) 0.74272(18) 0.65913(11)
H8 H -0.0290 0.7182 0.6834
C8 C 0.2623(3) 0.54887(18) 0.38372(11)
H9 H 0.1544 0.5687 0.3982
H10 H 0.3010 0.5929 0.3496
C9 C 0.4296(4) 0.4240(2) 0.32963(12)
H11 H 0.4662 0.4759 0.3009
H12 H 0.4297 0.3645 0.3043
C10 C 0.1465(3) 0.8190(2) 0.68346(12)
H13 H 0.1186 0.8453 0.7247
C11 C 0.5367(3) 0.41581(19) 0.39201(12)
H14 H 0.6239 0.4630 0.3912
H15 H 0.5842 0.3521 0.3956
C12 C 0.4822(4) 0.40249(19) 0.51705(13)
H16 H 0.5821 0.4357 0.5270
H17 H 0.5024 0.3346 0.5157
H18 H 0.4029 0.4163 0.5511
C13 C 0.2751(3) 0.85759(19) 0.64835(13)
H19 H 0.3328 0.9099 0.6651
C14 C 0.2614(4) 0.44490(19) 0.35825(12)
H20 H 0.1711 0.4300 0.3278
C15 C 0.2601(3) 0.38638(19) 0.42363(12)
C16 C 0.1077(4) 0.4008(2) 0.46658(16)
H21 H 0.0162 0.3699 0.4456
H22 H 0.0858 0.4683 0.4711
H23 H 0.1253 0.3733 0.5100
C17 C 0.2797(5) 0.2775(2) 0.41261(17)
H24 H 0.3751 0.2656 0.3860
H25 H 0.1851 0.2530 0.3899
H26 H 0.2910 0.2460 0.4551
C18 C 0.0741(3) 0.51157(15) 0.19199(9)
C19 C -0.1456(3) 0.41241(16) 0.13772(10)
O2 O -0.0867(2) 0.39036(13) 0.08353(8)
O3 O -0.2940(2) 0.42643(15) 0.14977(9)
O4 O -0.1266(3) 0.42916(16) 0.25788(8)
H27 H -0.2239 0.4328 0.2484
C20 C -0.0332(3) 0.42423(16) 0.19841(10)
H28 H 0.0374 0.3675 0.2011
C21 C 0.0107(3) 0.60285(18) 0.19988(11)
H29 H -0.1003 0.6109 0.2080
C22 C 0.2393(3) 0.50240(19) 0.17862(10)
H30 H 0.2837 0.4414 0.1731
C23 C 0.3387(3) 0.5814(2) 0.17339(13)
H31 H 0.4490 0.5739 0.1635
C24 C 0.1115(5) 0.68241(19) 0.19568(13)
H32 H 0.0685 0.7437 0.2017
C25 C 0.2751(4) 0.6709(2) 0.18268(14)
H33 H 0.3428 0.7245 0.1802
loop_
_geom_bond_atom_site_label_1
_geom_bond_atom_site_label_2
_geom_bond_site_symmetry_1
_geom_bond_site_symmetry_2
O1 H1 1_555 1_555
C1 C2 1_555 1_555
N1 H2 1_555 1_555
H3 N1 1_555 1_555
C2 H4 1_555 1_555
C3 C1 1_555 1_555
H5 C3 1_555 1_555
H6 C3 1_555 1_555
C4 C6 1_555 1_555
C5 O1 1_555 1_555
C6 N1 1_555 1_555
H7 C6 1_555 1_555
C7 C5 1_555 1_555
H8 C7 1_555 1_555
C8 C6 1_555 1_555
H9 C8 1_555 1_555
H10 C8 1_555 1_555
C9 H11 1_555 1_555
H12 C9 1_555 1_555
C10 C7 1_555 1_555
H13 C10 1_555 1_555
C11 C4 1_555 1_555
H14 C11 1_555 1_555
H15 C11 1_555 1_555
C12 C4 1_555 1_555
H16 C12 1_555 1_555
H17 C12 1_555 1_555
H18 C12 1_555 1_555
C13 C2 1_555 1_555
H19 C13 1_555 1_555
C14 C8 1_555 1_555
H20 C14 1_555 1_555
C15 C4 1_555 1_555
C16 C15 1_555 1_555
H21 C16 1_555 1_555
H22 C16 1_555 1_555
H23 C16 1_555 1_555
C17 C15 1_555 1_555
H24 C17 1_555 1_555
H25 C17 1_555 1_555
H26 C17 1_555 1_555
C18 C20 1_555 1_555
C19 O2 1_555 1_555
O3 C19 1_555 1_555
O4 H27 1_555 1_555
C20 C19 1_555 1_555
H28 C20 1_555 1_555
C21 C18 1_555 1_555
H29 C21 1_555 1_555
C22 C18 1_555 1_555
H30 C22 1_555 1_555
C23 C22 1_555 1_555
H31 C23 1_555 1_555
C24 C21 1_555 1_555
H32 C24 1_555 1_555
C25 C23 1_555 1_555
H33 C25 1_555 1_555
C1 C5 1_555 1_555
N1 C3 1_555 1_555
C9 C11 1_555 1_555
C9 C14 1_555 1_555
C10 C13 1_555 1_555
C14 C15 1_555 1_555
O4 C20 1_555 1_555
C24 C25 1_555 1_555

#END
