
#######################################################################
#
#                 Cambridge Crystallographic Data Centre
#                                CCDC 
#
#######################################################################
#
# If this CIF has been generated from an entry in the Cambridge 
# Structural Database, then it will include bibliographic, chemical, 
# crystal, experimental, refinement or atomic coordinate data resulting 
# from the CCDC's data processing and validation procedures.
#
#######################################################################

data_TEDXOP
_chemical_formula_moiety         'C19 H15 Cl1 N4 O1'
_chemical_name_systematic        
4-Benzoyl-7-chloro-1,3-dimethyl-1,5-dihydropyridazino(3,4-b)quinoxaline
_symmetry_cell_setting           triclinic
_symmetry_space_group_name_H-M   'P -1'
_symmetry_Int_Tables_number      2
_space_group_name_Hall           '-P 1'
loop_
_symmetry_equiv_pos_site_id
_symmetry_equiv_pos_as_xyz
1 x,y,z
2 -x,-y,-z
_cell_length_a                   12.511(2)
_cell_length_b                   14.037(2)
_cell_length_c                   4.709(2)
_cell_angle_alpha                94.93(2)
_cell_angle_beta                 95.48(2)
_cell_angle_gamma                97.62(1)
_cell_volume                     811.846
_exptl_crystal_colour            red
_chemical_melting_point          184-185deg.C
_cell_formula_units_Z            2
loop_
_atom_site_label
_atom_site_type_symbol
_atom_site_fract_x
_atom_site_fract_y
_atom_site_fract_z
Cl1 Cl 0.6441(2) 0.9424(1) 0.3688(5)
O1 O 0.2457(4) 0.8718(4) -0.767(1)
N1 N 0.1851(4) 0.5270(4) -0.882(1)
N2 N 0.2626(4) 0.5273(4) -0.648(1)
N3 N 0.3961(4) 0.5937(4) -0.294(1)
N4 N 0.3581(5) 0.7752(5) -0.433(1)
C1 C 0.2097(5) 0.7018(5) -0.789(1)
C2 C 0.1610(5) 0.6111(5) -0.940(1)
C3 C 0.3221(5) 0.6064(5) -0.500(1)
C4 C 0.2964(5) 0.6975(5) -0.578(1)
C5 C 0.4518(5) 0.6764(5) -0.141(1)
C6 C 0.4367(5) 0.7687(5) -0.207(1)
C7 C 0.4949(6) 0.8506(6) -0.052(2)
C8 C 0.5710(5) 0.8400(5) 0.173(2)
C9 C 0.5873(6) 0.7502(6) 0.244(2)
C10 C 0.5294(6) 0.6689(5) 0.087(2)
C11 C 0.1820(6) 0.7966(6) -0.838(1)
C12 C 0.0666(6) 0.8090(5) -0.952(2)
C13 C -0.0222(6) 0.7582(7) -0.846(2)
C14 C -0.1260(7) 0.7797(8) -0.934(2)
C15 C -0.140(1) 0.8480(8) -1.114(2)
C16 C -0.053(1) 0.8966(7) -1.231(2)
C17 C 0.0533(7) 0.8786(5) -1.136(2)
C18 C 0.0767(6) 0.6021(5) -1.198(2)
C19 C 0.2807(7) 0.4322(5) -0.583(2)
loop_
_geom_bond_atom_site_label_1
_geom_bond_atom_site_label_2
_geom_bond_site_symmetry_1
_geom_bond_site_symmetry_2
Cl1 C8 1_555 1_555
O1 C11 1_555 1_555
N1 N2 1_555 1_555
N2 C3 1_555 1_555
N3 C3 1_555 1_555
N4 C4 1_555 1_555
C1 C2 1_555 1_555
C2 N1 1_555 1_555
C3 C4 1_555 1_555
C4 C1 1_555 1_555
C5 N3 1_555 1_555
C6 N4 1_555 1_555
C7 C6 1_555 1_555
C8 C7 1_555 1_555
C9 C8 1_555 1_555
C10 C5 1_555 1_555
C11 C1 1_555 1_555
C12 C11 1_555 1_555
C13 C12 1_555 1_555
C14 C13 1_555 1_555
C15 C14 1_555 1_555
C16 C15 1_555 1_555
C17 C12 1_555 1_555
C18 C2 1_555 1_555
C19 N2 1_555 1_555
C5 C6 1_555 1_555
C9 C10 1_555 1_555
C16 C17 1_555 1_555

#END
