
#######################################################################
#
#                 Cambridge Crystallographic Data Centre
#                                CCDC 
#
#######################################################################
#
# If this CIF has been generated from an entry in the Cambridge 
# Structural Database, then it will include bibliographic, chemical, 
# crystal, experimental, refinement or atomic coordinate data resulting 
# from the CCDC's data processing and validation procedures.
#
#######################################################################

data_TEFBAI
_chemical_formula_moiety         'C18 H20 O6'
_chemical_name_systematic        
'Dimethyl cis-1,5-dimethyl-4,8-dioxo-2,3,3a,4,6,7,7a,8-octahydro-s-indacene-3a,7a-dicarboxylate'
_symmetry_cell_setting           monoclinic
_symmetry_space_group_name_H-M   'C 2/c'
_symmetry_Int_Tables_number      15
_space_group_name_Hall           '-C 2yn'
loop_
_symmetry_equiv_pos_site_id
_symmetry_equiv_pos_as_xyz
1 x,y,z
2 1/2+x,1/2+y,z
3 -x,y,1/2-z
4 1/2-x,1/2+y,1/2-z
5 -x,-y,-z
6 1/2-x,1/2-y,-z
7 x,-y,1/2+z
8 1/2+x,1/2-y,1/2+z
_cell_length_a                   42.172(11)
_cell_length_b                   7.4706(16)
_cell_length_c                   16.193(3)
_cell_angle_alpha                90
_cell_angle_beta                 101.360(17)
_cell_angle_gamma                90
_cell_volume                     5001.66
_exptl_crystal_colour            colorless
_exptl_crystal_description       block
_chemical_melting_point          '92 deg.C'
_cell_formula_units_Z            12
_exptl_crystal_recrystallization_method 'ethyl acetate'
loop_
_atom_site_label
_atom_site_type_symbol
_atom_site_fract_x
_atom_site_fract_y
_atom_site_fract_z
O1 O 0.36871(6) 0.2480(4) -0.12612(17)
C1 C 0.35247(8) 0.1525(5) -0.0900(2)
O2 O 0.28724(7) 0.0822(5) 0.06659(19)
C2 C 0.36646(8) 0.0739(5) -0.0029(2)
O3 O 0.37072(7) -0.2414(4) 0.03425(18)
C3 C 0.39664(9) 0.1755(6) 0.0449(2)
H1 H 0.4163 0.1104 0.0418
H2 H 0.3979 0.2940 0.0213
O4 O 0.39169(7) -0.1422(4) -0.07414(17)
C4 C 0.39198(11) 0.1873(7) 0.1348(3)
H3 H 0.4045 0.0957 0.1691
H4 H 0.3987 0.3036 0.1585
O5 O 0.31197(9) -0.2655(4) -0.13591(19)
C5 C 0.35662(11) 0.1593(6) 0.1308(3)
O6 O 0.29691(7) -0.2853(4) -0.0122(2)
C6 C 0.34232(9) 0.0958(5) 0.0554(2)
C7 C 0.30782(9) 0.0607(5) 0.0252(2)
C8 C 0.29903(8) 0.0049(5) -0.0674(2)
C9 C 0.26384(9) 0.0484(6) -0.1100(3)
H5 H 0.2502 -0.0565 -0.1115
H6 H 0.2552 0.1432 -0.0800
C10 C 0.26571(10) 0.1085(7) -0.1994(3)
H7 H 0.2608 0.0101 -0.2389
H8 H 0.2507 0.2057 -0.2177
C11 C 0.29994(10) 0.1694(5) -0.1924(3)
C12 C 0.31820(8) 0.1123(5) -0.1207(2)
C13 C 0.34176(14) 0.2006(8) 0.2051(3)
H9 H 0.3581 0.2447 0.2503
H10 H 0.3324 0.0938 0.2229
H11 H 0.3253 0.2899 0.1898
C14 C 0.30959(11) 0.2762(7) -0.2614(3)
H15 H 0.2910 0.2969 -0.3051
H16 H 0.3256 0.2114 -0.2841
H17 H 0.3184 0.3888 -0.2394
C15 C 0.37597(8) -0.1232(5) -0.0109(2)
C16 C 0.40329(12) -0.3203(6) -0.0855(3)
H21 H 0.4142 -0.3212 -0.1323
H22 H 0.3854 -0.4018 -0.0963
H23 H 0.4181 -0.3566 -0.0354
C17 C 0.30394(9) -0.1962(5) -0.0772(3)
C18 C 0.30101(14) -0.4778(6) -0.0139(4)
H24 H 0.2955 -0.5293 0.0358
H25 H 0.3231 -0.5053 -0.0156
H26 H 0.2871 -0.5262 -0.0630
O7 O 0.45791(6) -0.1605(4) 0.10503(15)
C19 C 0.47542(8) -0.1106(5) 0.1696(2)
C20 C 0.50981(8) -0.0421(5) 0.1697(2)
O8 O 0.53235(7) 0.2520(4) 0.20392(19)
O9 O 0.48449(7) 0.2246(3) 0.11740(17)
C21 C 0.52389(9) -0.1127(5) 0.0943(2)
H27 H 0.5086 -0.1927 0.0599
H28 H 0.5284 -0.0139 0.0595
C22 C 0.55476(10) -0.2115(7) 0.1310(2)
H29 H 0.5542 -0.3322 0.1086
H30 H 0.5734 -0.1496 0.1178
C23 C 0.55645(8) -0.2154(5) 0.2238(2)
C24 C 0.46731(8) -0.1216(5) 0.2536(2)
C25 C 0.58257(10) -0.3206(6) 0.2777(3)
H31 H 0.5962 -0.3731 0.2433
H32 H 0.5731 -0.4136 0.3060
H33 H 0.5952 -0.2430 0.3187
C26 C 0.51058(9) 0.1611(5) 0.1673(2)
C27 C 0.48196(12) 0.4170(6) 0.1102(3)
H37 H 0.4622 0.4481 0.0725
H38 H 0.5000 0.4628 0.0886
H39 H 0.4820 0.4680 0.1646
O7B O 0.54209(6) -0.1605(4) 0.39497(15)
C19B C 0.52458(8) -0.1106(5) 0.3304(2)
C20B C 0.49019(8) -0.0421(5) 0.3303(2)
O8B O 0.46765(7) 0.2520(4) 0.29608(19)
O9B O 0.51551(7) 0.2246(3) 0.38260(17)
C21B C 0.47611(9) -0.1127(5) 0.4057(2)
H27B H 0.4914 -0.1927 0.4401
H28B H 0.4716 -0.0139 0.4405
C22B C 0.44524(10) -0.2115(7) 0.3690(2)
H29B H 0.4458 -0.3322 0.3914
H30B H 0.4266 -0.1496 0.3822
C23B C 0.44355(8) -0.2154(5) 0.2762(2)
C24B C 0.53269(8) -0.1216(5) 0.2464(2)
C25B C 0.41743(10) -0.3206(6) 0.2223(3)
H31B H 0.4038 -0.3731 0.2567
H32B H 0.4269 -0.4136 0.1940
H33B H 0.4048 -0.2430 0.1813
C26B C 0.48942(9) 0.1611(5) 0.3327(2)
C27B C 0.51804(12) 0.4170(6) 0.3898(3)
H37B H 0.5378 0.4481 0.4275
H38B H 0.5000 0.4628 0.4114
H39B H 0.5180 0.4680 0.3354
H12? H 0.3190 0.1742 0.1917
H13? H 0.3448 0.3251 0.2191
H14? H 0.3519 0.1291 0.2522
H18? H 0.3323 0.3012 -0.2473
H19? H 0.2977 0.3866 -0.2683
H20? H 0.3049 0.2093 -0.3130
H34? H 0.5802 -0.3134 0.3354
H35? H 0.6032 -0.2729 0.2727
H36? H 0.5812 -0.4434 0.2599
loop_
_geom_bond_atom_site_label_1
_geom_bond_atom_site_label_2
_geom_bond_site_symmetry_1
_geom_bond_site_symmetry_2
O1 C1 1_555 1_555
C1 C2 1_555 1_555
O2 C7 1_555 1_555
C2 C3 1_555 1_555
O3 C15 1_555 1_555
C3 H1 1_555 1_555
H2 C3 1_555 1_555
O4 C15 1_555 1_555
C4 C3 1_555 1_555
H3 C4 1_555 1_555
H4 C4 1_555 1_555
O5 C17 1_555 1_555
C5 C4 1_555 1_555
O6 C17 1_555 1_555
C6 C2 1_555 1_555
C7 C6 1_555 1_555
C8 C7 1_555 1_555
C9 C8 1_555 1_555
H5 C9 1_555 1_555
H6 C9 1_555 1_555
C10 C9 1_555 1_555
H7 C10 1_555 1_555
H8 C10 1_555 1_555
C11 C10 1_555 1_555
C12 C1 1_555 1_555
C13 C5 1_555 1_555
H9 C13 1_555 1_555
H10 C13 1_555 1_555
H11 C13 1_555 1_555
C14 C11 1_555 1_555
H15 C14 1_555 1_555
H16 C14 1_555 1_555
H17 C14 1_555 1_555
C15 C2 1_555 1_555
C16 O4 1_555 1_555
H21 C16 1_555 1_555
H22 C16 1_555 1_555
H23 C16 1_555 1_555
C17 C8 1_555 1_555
C18 O6 1_555 1_555
H24 C18 1_555 1_555
H25 C18 1_555 1_555
H26 C18 1_555 1_555
O7 C19 1_555 1_555
C19 C20 1_555 1_555
C20 C21 1_555 1_555
O8 C26 1_555 1_555
O9 C26 1_555 1_555
C21 H27 1_555 1_555
H28 C21 1_555 1_555
C22 C21 1_555 1_555
H29 C22 1_555 1_555
H30 C22 1_555 1_555
C23 C22 1_555 1_555
C24 C19 1_555 1_555
C25 C23 1_555 1_555
H31 C25 1_555 1_555
H32 C25 1_555 1_555
H33 C25 1_555 1_555
C26 C20 1_555 1_555
C27 O9 1_555 1_555
H37 C27 1_555 1_555
H38 C27 1_555 1_555
H39 C27 1_555 1_555
O7B C19B 1_555 1_555
C19B C20B 1_555 1_555
C20B C24 1_555 1_555
O8B C26B 1_555 1_555
O9B C26B 1_555 1_555
C21B C20B 1_555 1_555
H27B C21B 1_555 1_555
H28B C21B 1_555 1_555
C22B C21B 1_555 1_555
H29B C22B 1_555 1_555
H30B C22B 1_555 1_555
C23B C24 1_555 1_555
C24B C20 1_555 1_555
C25B C23B 1_555 1_555
H31B C25B 1_555 1_555
H32B C25B 1_555 1_555
H33B C25B 1_555 1_555
C26B C20B 1_555 1_555
C27B O9B 1_555 1_555
H37B C27B 1_555 1_555
H38B C27B 1_555 1_555
H39B C27B 1_555 1_555
C5 C6 1_555 1_555
C8 C12 1_555 1_555
C11 C12 1_555 1_555
C23 C24B 1_555 1_555
C19B C24B 1_555 1_555
C22B C23B 1_555 1_555

#END
