
#######################################################################
#
#                 Cambridge Crystallographic Data Centre
#                                CCDC 
#
#######################################################################
#
# If this CIF has been generated from an entry in the Cambridge 
# Structural Database, then it will include bibliographic, chemical, 
# crystal, experimental, refinement or atomic coordinate data resulting 
# from the CCDC's data processing and validation procedures.
#
#######################################################################

data_TEFFOC
_chemical_formula_moiety         'C15 H26 O3 Si1'
_chemical_name_systematic        
4-{[t-butyl(dimethyl)silyl]oxy}-3-hydroxy-2b-methylhexahydrocyclopropa[cd]pentalen-2(1H)-one
_symmetry_cell_setting           monoclinic
_symmetry_space_group_name_H-M   'C 2'
_symmetry_Int_Tables_number      5
_space_group_name_Hall           'C 2y'
loop_
_symmetry_equiv_pos_site_id
_symmetry_equiv_pos_as_xyz
1 x,y,z
2 1/2+x,1/2+y,z
3 -x,y,-z
4 1/2-x,1/2+y,-z
_cell_length_a                   18.9377(5)
_cell_length_b                   6.2442(1)
_cell_length_c                   14.6275(5)
_cell_angle_alpha                90
_cell_angle_beta                 105.950(3)
_cell_angle_gamma                90
_cell_volume                     1663.12
_exptl_crystal_colour            colorless
_exptl_crystal_description       lath
_cell_formula_units_Z            4
loop_
_atom_site_label
_atom_site_type_symbol
_atom_site_fract_x
_atom_site_fract_y
_atom_site_fract_z
Si1 Si 0.39492(2) 0.64059(13) 0.73107(3)
O1 O 0.62928(7) 0.7246(2) 0.94829(10)
O2 O 0.47467(7) 0.5178(3) 0.76929(9)
O3 O 0.73025(8) 0.3194(3) 1.05897(10)
C1 C 0.63858(9) 0.4768(3) 0.81822(12)
C2 C 0.59434(8) 0.6434(4) 0.85622(11)
C3 C 0.52531(8) 0.5197(3) 0.86098(12)
C4 C 0.55302(9) 0.2903(3) 0.88448(14)
C5 C 0.59940(10) 0.2686(3) 0.98832(14)
C6 C 0.67817(10) 0.3098(3) 0.98790(14)
C7 C 0.68260(9) 0.3109(3) 0.88878(13)
C8 C 0.60694(9) 0.2622(3) 0.82347(13)
C9 C 0.66966(11) 0.5398(4) 0.73768(14)
C10 C 0.31959(11) 0.4412(4) 0.71988(17)
C11 C 0.38525(11) 0.8514(3) 0.81696(14)
C12 C 0.39306(10) 0.7544(3) 0.61085(13)
C13 C 0.31746(13) 0.8513(4) 0.56312(17)
C14 C 0.45198(13) 0.9290(4) 0.62186(17)
C15 C 0.40869(16) 0.5747(4) 0.54786(17)
H1 H 0.6710(15) 0.772(5) 0.9497(19)
H2 H 0.5815 0.7575 0.8115
H3 H 0.5034 0.5802 0.9096
H4 H 0.5145 0.1864 0.8696
H5 H 0.5837 0.3614 1.0313
H6 H 0.5963 0.1257 1.0090
H7 H 0.7266 0.2540 0.8759
H8 H 0.5992 0.1667 0.7699
H9 H 0.6902 0.4221 0.7150
H10 H 0.7057 0.6492 0.7599
H11 H 0.6313 0.5973 0.6857
H12 H 0.2727 0.5107 0.6952
H13 H 0.3221 0.3820 0.7817
H14 H 0.3232 0.3264 0.6760
H15 H 0.3417 0.9314 0.7909
H16 H 0.4256 0.9480 0.8285
H17 H 0.3837 0.7921 0.8774
H18 H 0.3149 0.9019 0.5005
H19 H 0.3043 0.9660 0.5995
H20 H 0.2792 0.7434 0.5541
H21 H 0.4525 0.9799 0.5611
H22 H 0.4425 1.0479 0.6582
H23 H 0.5001 0.8693 0.6535
H24 H 0.4113 0.6327 0.4885
H25 H 0.4539 0.5022 0.5787
H26 H 0.3700 0.4698 0.5350
loop_
_geom_bond_atom_site_label_1
_geom_bond_atom_site_label_2
_geom_bond_site_symmetry_1
_geom_bond_site_symmetry_2
Si1 O2 1_555 1_555
O1 C2 1_555 1_555
O2 C3 1_555 1_555
O3 C6 1_555 1_555
C1 C2 1_555 1_555
C2 C3 1_555 1_555
C3 C4 1_555 1_555
C4 C5 1_555 1_555
C5 C6 1_555 1_555
C6 C7 1_555 1_555
C7 C1 1_555 1_555
C8 C1 1_555 1_555
C9 C1 1_555 1_555
C10 Si1 1_555 1_555
C11 Si1 1_555 1_555
C12 Si1 1_555 1_555
C13 C12 1_555 1_555
C14 C12 1_555 1_555
C15 C12 1_555 1_555
H1 O1 1_555 1_555
H2 C2 1_555 1_555
H3 C3 1_555 1_555
H4 C4 1_555 1_555
H5 C5 1_555 1_555
H6 C5 1_555 1_555
H7 C7 1_555 1_555
H8 C8 1_555 1_555
H9 C9 1_555 1_555
H10 C9 1_555 1_555
H11 C9 1_555 1_555
H12 C10 1_555 1_555
H13 C10 1_555 1_555
H14 C10 1_555 1_555
H15 C11 1_555 1_555
H16 C11 1_555 1_555
H17 C11 1_555 1_555
H18 C13 1_555 1_555
H19 C13 1_555 1_555
H20 C13 1_555 1_555
H21 C14 1_555 1_555
H22 C14 1_555 1_555
H23 C14 1_555 1_555
H24 C15 1_555 1_555
H25 C15 1_555 1_555
H26 C15 1_555 1_555
C4 C8 1_555 1_555
C7 C8 1_555 1_555

#END
