
#######################################################################
#
#                 Cambridge Crystallographic Data Centre
#                                CCDC 
#
#######################################################################
#
# If this CIF has been generated from an entry in the Cambridge 
# Structural Database, then it will include bibliographic, chemical, 
# crystal, experimental, refinement or atomic coordinate data resulting 
# from the CCDC's data processing and validation procedures.
#
#######################################################################

data_TEFGUJ
_chemical_formula_moiety         'C10 H12 O2'
_chemical_name_systematic        
4,5-dimethyl-2b,5,5a,5b-tetrahydro-2-oxacyclopropa[cd]inden-1(2aH)-one
_symmetry_cell_setting           orthorhombic
_symmetry_space_group_name_H-M   'P 21 21 21'
_symmetry_Int_Tables_number      19
_space_group_name_Hall           'P 2ac 2ab'
loop_
_symmetry_equiv_pos_site_id
_symmetry_equiv_pos_as_xyz
1 x,y,z
2 1/2+x,1/2-y,-z
3 -x,1/2+y,1/2-z
4 1/2-x,-y,1/2+z
_cell_length_a                   7.8054(1)
_cell_length_b                   9.7920(1)
_cell_length_c                   11.0580(1)
_cell_angle_alpha                90
_cell_angle_beta                 90
_cell_angle_gamma                90
_cell_volume                     845.168
_exptl_crystal_colour            colorless
_exptl_crystal_description       block
_cell_formula_units_Z            4
loop_
_atom_site_label
_atom_site_type_symbol
_atom_site_fract_x
_atom_site_fract_y
_atom_site_fract_z
O1 O 0.45998(10) 0.71362(7) 0.90068(6)
O2 O 0.70072(9) 0.71197(8) 0.79181(7)
C1 C 0.21236(12) 0.64311(10) 0.70381(9)
C2 C 0.32354(12) 0.65683(9) 0.61305(9)
C3 C 0.43343(12) 0.78421(9) 0.60033(8)
C4 C 0.45880(12) 0.85211(9) 0.72458(8)
C5 C 0.29264(13) 0.87688(10) 0.79164(9)
C6 C 0.29873(14) 0.78261(10) 0.89807(9)
C7 C 0.17885(13) 0.75150(10) 0.79429(9)
C8 C 0.34627(15) 0.54906(11) 0.51780(10)
C9 C 0.35848(14) 0.88542(10) 0.50984(9)
C10 C 0.55764(13) 0.75459(9) 0.80531(8)
H1 H 0.1457 0.5598 0.7114
H2 H 0.5458 0.7545 0.5698
H3 H 0.5263 0.9373 0.7169
H4 H 0.2432 0.9669 0.7954
H5 H 0.2554 0.8056 0.9774
H6 H 0.0574 0.7676 0.8125
H7 H 0.2644 0.4761 0.5277
H8 H 0.4621 0.5099 0.5215
H9 H 0.3334 0.5898 0.4370
H10 H 0.3394 0.8424 0.4295
H11 H 0.2467 0.9211 0.5408
H12 H 0.4377 0.9646 0.4999
loop_
_geom_bond_atom_site_label_1
_geom_bond_atom_site_label_2
_geom_bond_site_symmetry_1
_geom_bond_site_symmetry_2
O1 C6 1_555 1_555
O2 C10 1_555 1_555
C1 C2 1_555 1_555
C2 C3 1_555 1_555
C3 C4 1_555 1_555
C4 C5 1_555 1_555
C5 C6 1_555 1_555
C6 C7 1_555 1_555
C7 C1 1_555 1_555
C8 C2 1_555 1_555
C9 C3 1_555 1_555
C10 O1 1_555 1_555
H1 C1 1_555 1_555
H2 C3 1_555 1_555
H3 C4 1_555 1_555
H4 C5 1_555 1_555
H5 C6 1_555 1_555
H6 C7 1_555 1_555
H7 C8 1_555 1_555
H8 C8 1_555 1_555
H9 C8 1_555 1_555
H10 C9 1_555 1_555
H11 C9 1_555 1_555
H12 C9 1_555 1_555
C4 C10 1_555 1_555
C5 C7 1_555 1_555

#END
