
#######################################################################
#
#                 Cambridge Crystallographic Data Centre
#                                CCDC 
#
#######################################################################
#
# If this CIF has been generated from an entry in the Cambridge 
# Structural Database, then it will include bibliographic, chemical, 
# crystal, experimental, refinement or atomic coordinate data resulting 
# from the CCDC's data processing and validation procedures.
#
#######################################################################

data_TEFGET
_chemical_formula_moiety         'C13 H16 O3'
_chemical_name_systematic        
6-methyl-8-(propan-2-yl)-3a,7a-dihydro-3,6-methano-1-benzofuran-2,7(3H,6H)-dione
_symmetry_cell_setting           orthorhombic
_symmetry_space_group_name_H-M   'P 21 21 21'
_symmetry_Int_Tables_number      19
_space_group_name_Hall           'P 2ac 2ab'
loop_
_symmetry_equiv_pos_site_id
_symmetry_equiv_pos_as_xyz
1 x,y,z
2 1/2+x,1/2-y,-z
3 -x,1/2+y,1/2-z
4 1/2-x,-y,1/2+z
_cell_length_a                   7.27015(5)
_cell_length_b                   11.05109(8)
_cell_length_c                   13.78627(9)
_cell_angle_alpha                90
_cell_angle_beta                 90
_cell_angle_gamma                90
_cell_volume                     1107.63
_exptl_crystal_colour            colorless
_exptl_crystal_description       block
_cell_formula_units_Z            4
loop_
_atom_site_label
_atom_site_type_symbol
_atom_site_fract_x
_atom_site_fract_y
_atom_site_fract_z
O1 O 0.21918(11) 0.72862(7) 0.41885(6)
O2 O 0.13586(11) 0.74109(6) 0.57421(5)
O3 O 0.30988(12) 0.70585(7) 0.77465(6)
C1 C 0.20276(13) 0.54518(9) 0.52097(7)
C2 C 0.39460(12) 0.52539(8) 0.57031(7)
C3 C 0.36814(13) 0.52036(9) 0.68367(7)
C4 C 0.26446(15) 0.63618(9) 0.71119(7)
C5 C 0.08988(15) 0.65510(9) 0.65062(8)
C6 C 0.04598(13) 0.53671(9) 0.59747(7)
C7 C 0.22788(15) 0.42385(9) 0.70942(7)
C8 C 0.06581(15) 0.43223(9) 0.66568(8)
C9 C 0.54914(15) 0.50987(11) 0.73873(8)
C10 C 0.18923(14) 0.67784(9) 0.49403(7)
C11 C 0.50412(13) 0.41856(8) 0.52638(8)
C12 C 0.40835(15) 0.29588(9) 0.53032(8)
C13 C 0.55932(16) 0.44891(10) 0.42216(8)
H1 H 0.1818 0.4920 0.4648
H2 H 0.4674 0.6000 0.5561
H3 H -0.0108 0.6879 0.6895
H4 H -0.0764 0.5413 0.5661
H5 H 0.2587 0.3621 0.7550
H6 H -0.0331 0.3774 0.6761
H7 H 0.6363 0.5714 0.7168
H8 H 0.5248 0.5239 0.8078
H9 H 0.6070 0.4297 0.7298
H10 H 0.6179 0.4124 0.5640
H11 H 0.3900 0.2688 0.5977
H12 H 0.4825 0.2349 0.4958
H13 H 0.2889 0.2988 0.4975
H14 H 0.4505 0.4610 0.3821
H15 H 0.6335 0.3827 0.3943
H16 H 0.6338 0.5227 0.4210
loop_
_geom_bond_atom_site_label_1
_geom_bond_atom_site_label_2
_geom_bond_site_symmetry_1
_geom_bond_site_symmetry_2
O1 C10 1_555 1_555
O2 C5 1_555 1_555
O3 C4 1_555 1_555
C1 C2 1_555 1_555
C2 C3 1_555 1_555
C3 C4 1_555 1_555
C4 C5 1_555 1_555
C5 C6 1_555 1_555
C6 C1 1_555 1_555
C7 C3 1_555 1_555
C8 C6 1_555 1_555
C9 C3 1_555 1_555
C10 O2 1_555 1_555
C11 C2 1_555 1_555
C12 C11 1_555 1_555
C13 C11 1_555 1_555
H1 C1 1_555 1_555
H2 C2 1_555 1_555
H3 C5 1_555 1_555
H4 C6 1_555 1_555
H5 C7 1_555 1_555
H6 C8 1_555 1_555
H7 C9 1_555 1_555
H8 C9 1_555 1_555
H9 C9 1_555 1_555
H10 C11 1_555 1_555
H11 C12 1_555 1_555
H12 C12 1_555 1_555
H13 C12 1_555 1_555
H14 C13 1_555 1_555
H15 C13 1_555 1_555
H16 C13 1_555 1_555
C1 C10 1_555 1_555
C7 C8 1_555 1_555

#END
