
#######################################################################
#
#                 Cambridge Crystallographic Data Centre
#                                CCDC 
#
#######################################################################
#
# If this CIF has been generated from an entry in the Cambridge 
# Structural Database, then it will include bibliographic, chemical, 
# crystal, experimental, refinement or atomic coordinate data resulting 
# from the CCDC's data processing and validation procedures.
#
#######################################################################

data_TEFHEU
_chemical_formula_moiety         'C13 H16 O3'
_chemical_name_systematic        
4b-methyl-3-(propan-2-yl)hexahydro-2H-cyclopropa[3,4]pentaleno[1,6-bc]furan-2,4(2aH)-dione
_symmetry_cell_setting           orthorhombic
_symmetry_space_group_name_H-M   'P 21 21 21'
_symmetry_Int_Tables_number      19
_space_group_name_Hall           'P 2ac 2ab'
loop_
_symmetry_equiv_pos_site_id
_symmetry_equiv_pos_as_xyz
1 x,y,z
2 1/2+x,1/2-y,-z
3 -x,1/2+y,1/2-z
4 1/2-x,-y,1/2+z
_cell_length_a                   7.38770(10)
_cell_length_b                   7.81780(10)
_cell_length_c                   19.8494(2)
_cell_angle_alpha                90
_cell_angle_beta                 90
_cell_angle_gamma                90
_cell_volume                     1146.41
_exptl_crystal_colour            colorless
_exptl_crystal_description       plate
_cell_formula_units_Z            4
loop_
_atom_site_label
_atom_site_type_symbol
_atom_site_fract_x
_atom_site_fract_y
_atom_site_fract_z
O1 O 1.23389(15) 0.42826(18) 0.66829(6)
O2 O 0.92744(15) 0.20288(12) 0.70003(5)
O3 O 0.75597(17) 0.03449(12) 0.63553(5)
C1 C 0.8340(2) 0.59823(19) 0.59360(7)
C2 C 0.77634(19) 0.41799(16) 0.57414(6)
C3 C 0.69556(17) 0.34225(16) 0.64069(6)
C4 C 0.75362(17) 0.46302(15) 0.69821(6)
C5 C 0.93725(19) 0.38315(17) 0.71593(7)
C6 C 1.0787(2) 0.4739(2) 0.67285(7)
C7 C 0.9933(2) 0.62607(19) 0.64223(7)
C8 C 0.7974(2) 0.63591(16) 0.66550(7)
C9 C 0.6243(2) 0.4715(2) 0.75761(7)
C10 C 0.7861(2) 0.17518(16) 0.65671(6)
C11 C 0.6434(2) 0.41316(19) 0.51459(7)
C12 C 0.7389(3) 0.4561(2) 0.44842(7)
C13 C 0.4798(2) 0.5285(2) 0.52499(8)
H1 H 0.8208 0.6893 0.5594
H2 H 0.8874 0.3507 0.5622
H3 H 0.5608 0.3316 0.6372
H4 H 0.9695 0.3958 0.7660
H5 H 1.0676 0.7291 0.6365
H6 H 0.7400 0.7434 0.6820
H7 H 0.6744 0.5459 0.7927
H8 H 0.6114 0.3551 0.7772
H9 H 0.5086 0.5120 0.7432
H10 H 0.5953 0.2913 0.5120
H11 H 0.6612 0.4416 0.4112
H12 H 0.7845 0.5756 0.4486
H13 H 0.8424 0.3819 0.4414
H14 H 0.3940 0.5137 0.4872
H15 H 0.5182 0.6478 0.5271
H16 H 0.4180 0.5019 0.5663
loop_
_geom_bond_atom_site_label_1
_geom_bond_atom_site_label_2
_geom_bond_site_symmetry_1
_geom_bond_site_symmetry_2
O1 C6 1_555 1_555
O2 C5 1_555 1_555
O3 C10 1_555 1_555
C1 C2 1_555 1_555
C2 C3 1_555 1_555
C3 C4 1_555 1_555
C4 C5 1_555 1_555
C5 C6 1_555 1_555
C6 C7 1_555 1_555
C7 C1 1_555 1_555
C8 C1 1_555 1_555
C9 C4 1_555 1_555
C10 O2 1_555 1_555
C11 C2 1_555 1_555
C12 C11 1_555 1_555
C13 C11 1_555 1_555
H1 C1 1_555 1_555
H2 C2 1_555 1_555
H3 C3 1_555 1_555
H4 C5 1_555 1_555
H5 C7 1_555 1_555
H6 C8 1_555 1_555
H7 C9 1_555 1_555
H8 C9 1_555 1_555
H9 C9 1_555 1_555
H10 C11 1_555 1_555
H11 C12 1_555 1_555
H12 C12 1_555 1_555
H13 C12 1_555 1_555
H14 C13 1_555 1_555
H15 C13 1_555 1_555
H16 C13 1_555 1_555
C3 C10 1_555 1_555
C4 C8 1_555 1_555
C7 C8 1_555 1_555

#END
