
#######################################################################
#
#                 Cambridge Crystallographic Data Centre
#                                CCDC 
#
#######################################################################
#
# If this CIF has been generated from an entry in the Cambridge 
# Structural Database, then it will include bibliographic, chemical, 
# crystal, experimental, refinement or atomic coordinate data resulting 
# from the CCDC's data processing and validation procedures.
#
#######################################################################

data_TEFSAZ
_chemical_formula_moiety         'C12 H16 O4,C12 H10 N2'
_chemical_name_systematic        
'1,3-Adamantanedicarboxylic acid 1,2-bis(4-pyridyl)ethylene'
_symmetry_cell_setting           orthorhombic
_symmetry_space_group_name_H-M   'P b c a'
_symmetry_Int_Tables_number      61
_space_group_name_Hall           '-P 2ac 2ab'
loop_
_symmetry_equiv_pos_site_id
_symmetry_equiv_pos_as_xyz
1 x,y,z
2 1/2-x,-y,1/2+z
3 -x,1/2+y,1/2-z
4 1/2+x,1/2-y,-z
5 -x,-y,-z
6 1/2+x,y,1/2-z
7 x,1/2-y,1/2+z
8 1/2-x,1/2+y,z
_cell_length_a                   12.525(3)
_cell_length_b                   12.772(3)
_cell_length_c                   26.458(5)
_cell_angle_alpha                90
_cell_angle_beta                 90
_cell_angle_gamma                90
_cell_volume                     4232.47
_exptl_crystal_colour            colorless
_exptl_crystal_description       needle
_cell_formula_units_Z            8
loop_
_atom_site_label
_atom_site_type_symbol
_atom_site_fract_x
_atom_site_fract_y
_atom_site_fract_z
O1 O -0.2457(3) 0.3511(4) 0.59289(14)
O2 O -0.3491(2) 0.3246(3) 0.65678(11)
H1 H -0.3939 0.3439 0.6362
O3 O 0.1133(2) 0.1885(2) 0.58694(11)
O4 O 0.1971(2) 0.1443(2) 0.65723(10)
H2 H 0.2478 0.1380 0.6378
C1 C -0.2579(3) 0.3208(3) 0.63564(16)
C2 C -0.1676(3) 0.2790(3) 0.66743(13)
C3 C -0.1332(3) 0.3630(3) 0.70573(14)
H3 H -0.1117 0.4260 0.6879
H4 H -0.1928 0.3804 0.7276
C4 C -0.0410(3) 0.3229(3) 0.73730(14)
H5 H -0.0193 0.3773 0.7613
C5 C 0.0540(3) 0.2949(3) 0.70354(14)
H6 H 0.1128 0.2702 0.7242
H7 H 0.0776 0.3566 0.6853
C6 C 0.0211(2) 0.2094(3) 0.66596(12)
C7 C -0.0722(3) 0.2514(3) 0.63415(12)
H8 H -0.0492 0.3132 0.6158
H9 H -0.0933 0.1989 0.6096
C8 C -0.0758(3) 0.2272(3) 0.76594(14)
H10 H -0.1352 0.2449 0.7879
H11 H -0.0175 0.2024 0.7869
C9 C -0.1096(3) 0.1413(3) 0.72953(16)
H12 H -0.1325 0.0795 0.7486
C10 C -0.2022(3) 0.1811(3) 0.69702(16)
H13 H -0.2626 0.1980 0.7185
H14 H -0.2241 0.1268 0.6736
C11 C -0.0153(3) 0.1128(3) 0.69569(14)
H15 H -0.0361 0.0578 0.6724
H16 H 0.0432 0.0869 0.7162
C12 C 0.1142(3) 0.1804(3) 0.63238(15)
N1 N 0.3666(3) 0.1062(2) 0.59856(13)
N2 N 0.9927(3) 0.1201(2) 0.40409(15)
C13 C 0.4630(3) 0.0786(3) 0.61523(15)
H17 H 0.4700 0.0585 0.6489
C14 C 0.5523(3) 0.0783(3) 0.58547(15)
H18 H 0.6178 0.0580 0.5989
C15 C 0.5447(3) 0.1087(2) 0.53449(15)
C16 C 0.4440(3) 0.1356(2) 0.51757(15)
H19 H 0.4338 0.1553 0.4841
C17 C 0.3580(3) 0.1332(2) 0.55053(17)
H20 H 0.2910 0.1514 0.5382
C18 C 0.6362(3) 0.1148(3) 0.49948(15)
H21 H 0.6210 0.1357 0.4666
C19 C 0.7360(3) 0.0942(2) 0.50942(16)
H22 H 0.7528 0.0741 0.5422
C20 C 0.8238(3) 0.1003(2) 0.47269(16)
C21 C 0.9285(3) 0.1081(3) 0.48911(17)
H23 H 0.9442 0.1062 0.5234
C22 C 1.0102(3) 0.1191(3) 0.4536(2)
H24 H 1.0800 0.1259 0.4651
C23 C 0.8931(4) 0.1110(3) 0.38845(17)
H25 H 0.8802 0.1107 0.3538
C24 C 0.8078(3) 0.1019(3) 0.42033(15)
H26 H 0.7391 0.0968 0.4072
loop_
_geom_bond_atom_site_label_1
_geom_bond_atom_site_label_2
_geom_bond_site_symmetry_1
_geom_bond_site_symmetry_2
O1 C1 1_555 1_555
O2 H1 1_555 1_555
O3 C12 1_555 1_555
O4 H2 1_555 1_555
N1 C13 1_555 1_555
N2 C22 1_555 1_555
C1 O2 1_555 1_555
C2 C1 1_555 1_555
C3 C2 1_555 1_555
H3 C3 1_555 1_555
H4 C3 1_555 1_555
C4 C3 1_555 1_555
H5 C4 1_555 1_555
C5 C4 1_555 1_555
H6 C5 1_555 1_555
H7 C5 1_555 1_555
C6 C5 1_555 1_555
C7 C2 1_555 1_555
H8 C7 1_555 1_555
H9 C7 1_555 1_555
C8 C4 1_555 1_555
H10 C8 1_555 1_555
H11 C8 1_555 1_555
C9 C8 1_555 1_555
H12 C9 1_555 1_555
C10 C2 1_555 1_555
H13 C10 1_555 1_555
H14 C10 1_555 1_555
C11 C6 1_555 1_555
H15 C11 1_555 1_555
H16 C11 1_555 1_555
C12 O4 1_555 1_555
C13 H17 1_555 1_555
C14 C13 1_555 1_555
H18 C14 1_555 1_555
C15 C14 1_555 1_555
C16 C15 1_555 1_555
H19 C16 1_555 1_555
C17 N1 1_555 1_555
H20 C17 1_555 1_555
C18 C15 1_555 1_555
H21 C18 1_555 1_555
C19 C18 1_555 1_555
H22 C19 1_555 1_555
C20 C19 1_555 1_555
C21 C20 1_555 1_555
H23 C21 1_555 1_555
C22 C21 1_555 1_555
H24 C22 1_555 1_555
C23 N2 1_555 1_555
H25 C23 1_555 1_555
C24 C20 1_555 1_555
H26 C24 1_555 1_555
C6 C7 1_555 1_555
C6 C12 1_555 1_555
C9 C10 1_555 1_555
C9 C11 1_555 1_555
C16 C17 1_555 1_555
C23 C24 1_555 1_555

#END
