
#######################################################################
#
#                 Cambridge Crystallographic Data Centre
#                                CCDC 
#
#######################################################################
#
# If this CIF has been generated from an entry in the Cambridge 
# Structural Database, then it will include bibliographic, chemical, 
# crystal, experimental, refinement or atomic coordinate data resulting 
# from the CCDC's data processing and validation procedures.
#
#######################################################################

data_TEGNEB
_chemical_compound_source        'isolated from Isodon rubescens'
_chemical_name_common            'isojiangrubesin A unknown solvate'
_chemical_formula_moiety         'C22 H34 O8'
_chemical_name_systematic        
'1,6,7,14-tetrahydroxy-17,20-dimethoxy-7,20-epoxyk-auran-15-one unknown solvate'
_symmetry_cell_setting           orthorhombic
_symmetry_space_group_name_H-M   'P 21 21 21'
_symmetry_Int_Tables_number      19
_space_group_name_Hall           'P 2ac 2ab'
loop_
_symmetry_equiv_pos_site_id
_symmetry_equiv_pos_as_xyz
1 x,y,z
2 1/2+x,1/2-y,-z
3 -x,1/2+y,1/2-z
4 1/2-x,-y,1/2+z
_cell_length_a                   14.5714(3)
_cell_length_b                   17.3491(4)
_cell_length_c                   17.8558(4)
_cell_angle_alpha                90
_cell_angle_beta                 90
_cell_angle_gamma                90
_cell_volume                     4513.96
_exptl_crystal_colour            colorless
_exptl_crystal_description       prism
_cell_formula_units_Z            8
loop_
_atom_site_label
_atom_site_type_symbol
_atom_site_fract_x
_atom_site_fract_y
_atom_site_fract_z
O1 O 1.1756(2) 1.0940(2) 0.7475(2)
O2 O 0.91237(19) 1.00650(18) 0.80536(17)
O3 O 0.85547(17) 1.11566(14) 0.95286(17)
H1 H 0.8031 1.1264 0.9696
O4 O 0.89146(17) 1.03555(13) 1.04950(15)
O5 O 0.82673(18) 0.93790(14) 1.12090(16)
O6 O 1.00469(19) 0.82284(16) 1.10033(17)
H2 H 0.9779 0.8130 1.1409
O7 O 0.75447(17) 1.00108(16) 0.88197(16)
H3 H 0.7949 1.0051 0.8487
O8 O 1.02701(19) 1.15054(14) 0.92250(18)
H4 H 0.9722 1.1615 0.9323
C1 C 0.7056(3) 0.8269(2) 0.8912(3)
H5 H 0.6584 0.7870 0.8959
H6 H 0.7520 0.8103 0.8549
H7 H 0.6773 0.8750 0.8739
C2 C 0.7510(3) 0.8402(2) 0.9675(2)
C3 C 0.8304(2) 0.90076(19) 0.9579(2)
H8 H 0.8571 0.8891 0.9076
C4 C 0.7966(2) 0.9850(2) 0.9515(2)
H9 H 0.7489 0.9927 0.9911
C5 C 0.8769(3) 1.0391(2) 0.9701(2)
C6 C 0.9680(2) 1.0177(2) 0.9348(2)
C7 C 0.9743(3) 1.0145(2) 0.8498(2)
C8 C 1.0754(3) 1.0243(2) 0.8283(3)
H10 H 1.0985 0.9744 0.8076
C9 C 1.0830(3) 1.0863(3) 0.7674(3)
H11 H 1.0463 1.0712 0.7231
H12 H 1.0591 1.1360 0.7865
C10 C 1.1849(4) 1.1499(3) 0.6902(4)
H13 H 1.1490 1.1340 0.6465
H14 H 1.2497 1.1546 0.6762
H15 H 1.1624 1.1997 0.7084
C11 C 0.9028(3) 0.9585(2) 1.0777(2)
H16 H 0.9589 0.9568 1.1099
C12 C 0.8170(3) 0.9849(2) 1.1857(2)
H17 H 0.8741 0.9837 1.2147
H18 H 0.7666 0.9652 1.2166
H19 H 0.8037 1.0380 1.1705
C13 C 0.9152(3) 0.9017(2) 1.0120(2)
C14 C 0.6755(3) 0.8635(2) 1.0223(3)
H20 H 0.6306 0.8217 1.0263
H21 H 0.6450 0.9102 1.0041
H22 H 0.7025 0.8735 1.0716
C15 C 0.7950(3) 0.7636(2) 0.9934(3)
H23 H 0.7456 0.7265 1.0056
H24 H 0.8311 0.7418 0.9515
C16 C 0.8569(3) 0.7721(2) 1.0607(2)
H25 H 0.8765 0.7205 1.0781
H26 H 0.8229 0.7974 1.1019
C17 C 0.9408(3) 0.8199(2) 1.0409(2)
H27 H 0.9720 0.7928 0.9985
C18 C 0.9953(2) 0.9339(2) 0.9634(2)
H28 H 0.9979 0.9006 0.9178
C19 C 1.0919(3) 0.9333(2) 0.9964(3)
H29 H 1.1098 0.8796 1.0081
H30 H 1.0923 0.9631 1.0437
C20 C 1.1616(3) 0.9683(2) 0.9418(3)
H31 H 1.1781 0.9292 0.9037
H32 H 1.2180 0.9821 0.9695
C21 C 1.1241(3) 1.0404(2) 0.9022(3)
H33 H 1.1743 1.0789 0.8947
C22 C 1.0478(3) 1.0748(2) 0.9510(2)
H34 H 1.0648 1.0759 1.0053
O9 O 0.94378(19) 0.49980(15) 0.01018(17)
O10 O 0.99879(18) 0.43534(14) 0.11445(16)
O11 O 1.13466(18) 0.38797(15) 0.15664(16)
H35 H 1.1702 0.4223 0.1405
O12 O 1.18641(17) 0.33905(15) 0.01504(17)
H36 H 1.1832 0.2954 0.0353
O13 O 0.77081(18) 0.38372(17) -0.00840(19)
H37 H 0.7250 0.3738 -0.0353
O14 O 1.13286(18) 0.20885(15) 0.08437(17)
O15 O 1.0638(2) 0.29235(17) 0.25534(17)
H38 H 1.1055 0.3203 0.2375
C23 C 0.9316(3) 0.5721(2) 0.0471(3)
H39 H 0.8699 0.5745 0.0687
H40 H 0.9392 0.6141 0.0108
H41 H 0.9773 0.5775 0.0869
C24 C 0.9298(3) 0.4372(2) 0.0573(2)
H42 H 0.8682 0.4423 0.0814
C25 C 0.9320(3) 0.3615(2) 0.0109(2)
C26 C 0.9277(3) 0.2949(2) 0.0712(2)
H43 H 0.9348 0.2456 0.0428
C27 C 1.0148(3) 0.3005(2) 0.1252(2)
C28 C 1.0638(3) 0.2227(2) 0.1189(2)
C29 C 1.0086(3) 0.1648(2) 0.1636(3)
H44 H 0.9721 0.1331 0.1275
C30 C 1.0659(3) 0.1107(3) 0.2100(3)
H45 H 1.1154 0.1397 0.2354
H46 H 1.0272 0.0860 0.2489
O16 O 1.1036(3) 0.0547(2) 0.1636(2)
C31 C 1.1569(5) 0.0006(4) 0.2073(4)
H47 H 1.2116 0.0265 0.2269
H48 H 1.1755 -0.0427 0.1755
H49 H 1.1197 -0.0186 0.2490
C32 C 1.0662(2) 0.3748(2) 0.1050(2)
C33 C 1.1013(2) 0.3788(2) 0.0248(2)
H50 H 1.1127 0.4344 0.0131
C34 C 1.0272(2) 0.3504(2) -0.0294(2)
H51 H 1.0361 0.2933 -0.0318
C35 C 1.0399(3) 0.3784(2) -0.1113(2)
C36 C 1.1172(3) 0.3305(2) -0.1475(3)
H52 H 1.1034 0.2755 -0.1419
H53 H 1.1756 0.3422 -0.1227
H54 H 1.1217 0.3432 -0.2008
C37 C 0.9525(3) 0.3621(2) -0.1547(3)
H55 H 0.9456 0.3056 -0.1604
H56 H 0.9583 0.3845 -0.2055
C38 C 0.8667(3) 0.3941(2) -0.1179(3)
H57 H 0.8735 0.4503 -0.1102
H58 H 0.8130 0.3854 -0.1508
C39 C 0.8515(3) 0.3548(2) -0.0435(3)
H59 H 0.8415 0.2987 -0.0536
C40 C 0.8386(3) 0.2869(2) 0.1159(3)
H60 H 0.7870 0.2771 0.0812
H61 H 0.8259 0.3357 0.1428
C41 C 0.8454(3) 0.2210(3) 0.1724(3)
H62 H 0.8316 0.1717 0.1467
H63 H 0.7985 0.2285 0.2119
C42 C 0.9402(3) 0.2154(2) 0.2090(3)
H64 H 0.9350 0.1965 0.2617
C43 C 0.9854(3) 0.2945(2) 0.2068(3)
H65 H 0.9416 0.3364 0.2210
C44 C 1.0666(3) 0.4637(2) -0.1207(3)
H66 H 1.0728 0.4757 -0.1741
H67 H 1.1252 0.4732 -0.0953
H68 H 1.0189 0.4964 -0.0986
loop_
_geom_bond_atom_site_label_1
_geom_bond_atom_site_label_2
_geom_bond_site_symmetry_1
_geom_bond_site_symmetry_2
O1 C9 1_555 1_555
O2 C7 1_555 1_555
O3 H1 1_555 1_555
O4 C5 1_555 1_555
O5 C11 1_555 1_555
O6 H2 1_555 1_555
O7 H3 1_555 1_555
O8 H4 1_555 1_555
C1 H5 1_555 1_555
H6 C1 1_555 1_555
H7 C1 1_555 1_555
C2 C1 1_555 1_555
C3 C2 1_555 1_555
H8 C3 1_555 1_555
C4 O7 1_555 1_555
H9 C4 1_555 1_555
C5 O3 1_555 1_555
C6 C5 1_555 1_555
C7 C6 1_555 1_555
C8 C7 1_555 1_555
H10 C8 1_555 1_555
C9 C8 1_555 1_555
H11 C9 1_555 1_555
H12 C9 1_555 1_555
C10 O1 1_555 1_555
H13 C10 1_555 1_555
H14 C10 1_555 1_555
H15 C10 1_555 1_555
C11 O4 1_555 1_555
H16 C11 1_555 1_555
C12 O5 1_555 1_555
H17 C12 1_555 1_555
H18 C12 1_555 1_555
H19 C12 1_555 1_555
C13 C3 1_555 1_555
C14 C2 1_555 1_555
H20 C14 1_555 1_555
H21 C14 1_555 1_555
H22 C14 1_555 1_555
C15 C2 1_555 1_555
H23 C15 1_555 1_555
H24 C15 1_555 1_555
C16 C15 1_555 1_555
H25 C16 1_555 1_555
H26 C16 1_555 1_555
C17 O6 1_555 1_555
H27 C17 1_555 1_555
C18 C6 1_555 1_555
H28 C18 1_555 1_555
C19 C18 1_555 1_555
H29 C19 1_555 1_555
H30 C19 1_555 1_555
C20 C19 1_555 1_555
H31 C20 1_555 1_555
H32 C20 1_555 1_555
C21 C8 1_555 1_555
H33 C21 1_555 1_555
C22 O8 1_555 1_555
H34 C22 1_555 1_555
O9 C23 1_555 1_555
O10 C24 1_555 1_555
O11 H35 1_555 1_555
O12 H36 1_555 1_555
O13 H37 1_555 1_555
O14 C28 1_555 1_555
O15 H38 1_555 1_555
C23 H39 1_555 1_555
H40 C23 1_555 1_555
H41 C23 1_555 1_555
C24 O9 1_555 1_555
H42 C24 1_555 1_555
C25 C24 1_555 1_555
C26 C25 1_555 1_555
H43 C26 1_555 1_555
C27 C26 1_555 1_555
C28 C27 1_555 1_555
C29 C28 1_555 1_555
H44 C29 1_555 1_555
C30 C29 1_555 1_555
H45 C30 1_555 1_555
H46 C30 1_555 1_555
O16 C30 1_555 1_555
C31 O16 1_555 1_555
H47 C31 1_555 1_555
H48 C31 1_555 1_555
H49 C31 1_555 1_555
C32 O10 1_555 1_555
C33 O12 1_555 1_555
H50 C33 1_555 1_555
C34 C25 1_555 1_555
H51 C34 1_555 1_555
C35 C34 1_555 1_555
C36 C35 1_555 1_555
H52 C36 1_555 1_555
H53 C36 1_555 1_555
H54 C36 1_555 1_555
C37 C35 1_555 1_555
H55 C37 1_555 1_555
H56 C37 1_555 1_555
C38 C37 1_555 1_555
H57 C38 1_555 1_555
H58 C38 1_555 1_555
C39 O13 1_555 1_555
H59 C39 1_555 1_555
C40 C26 1_555 1_555
H60 C40 1_555 1_555
H61 C40 1_555 1_555
C41 C40 1_555 1_555
H62 C41 1_555 1_555
H63 C41 1_555 1_555
C42 C29 1_555 1_555
H64 C42 1_555 1_555
C43 O15 1_555 1_555
H65 C43 1_555 1_555
C44 C35 1_555 1_555
H66 C44 1_555 1_555
H67 C44 1_555 1_555
H68 C44 1_555 1_555
C3 C4 1_555 1_555
C4 C5 1_555 1_555
C6 C22 1_555 1_555
C11 C13 1_555 1_555
C13 C17 1_555 1_555
C13 C18 1_555 1_555
C16 C17 1_555 1_555
C20 C21 1_555 1_555
C21 C22 1_555 1_555
O11 C32 1_555 1_555
C25 C39 1_555 1_555
C27 C32 1_555 1_555
C27 C43 1_555 1_555
C32 C33 1_555 1_555
C33 C34 1_555 1_555
C38 C39 1_555 1_555
C41 C42 1_555 1_555
C42 C43 1_555 1_555

#END
