
#######################################################################
#
#                 Cambridge Crystallographic Data Centre
#                                CCDC 
#
#######################################################################
#
# If this CIF has been generated from an entry in the Cambridge 
# Structural Database, then it will include bibliographic, chemical, 
# crystal, experimental, refinement or atomic coordinate data resulting 
# from the CCDC's data processing and validation procedures.
#
#######################################################################

data_TEHCEP
_chemical_formula_moiety         'C17 H17 Cl2 N1 O3'
_chemical_name_systematic        
'(R)-t-Butyl 5-chloro-2-((R)-2-chloro-2-cyanoethyl)-1-oxo-2,3-dihydro-1H-indene-2-carboxylate'
_symmetry_cell_setting           orthorhombic
_symmetry_space_group_name_H-M   'P 21 21 21'
_symmetry_Int_Tables_number      19
_space_group_name_Hall           'P 2ac 2ab'
loop_
_symmetry_equiv_pos_site_id
_symmetry_equiv_pos_as_xyz
1 x,y,z
2 1/2-x,-y,1/2+z
3 -x,1/2+y,1/2-z
4 1/2+x,1/2-y,-z
_cell_length_a                   6.3692(15)
_cell_length_b                   11.781(3)
_cell_length_c                   23.498(5)
_cell_angle_alpha                90
_cell_angle_beta                 90
_cell_angle_gamma                90
_cell_volume                     1763.19
_exptl_crystal_colour            colorless
_exptl_crystal_description       needle
_cell_formula_units_Z            4
_exptl_crystal_recrystallization_method 'diethyl ether/hexanes'
loop_
_atom_site_label
_atom_site_type_symbol
_atom_site_fract_x
_atom_site_fract_y
_atom_site_fract_z
Cl1 Cl 1.48845(17) 0.98247(8) 0.93667(5)
Cl2 Cl 0.68821(15) 0.30665(9) 0.87403(4)
O1 O 0.7325(4) 0.5759(2) 0.92110(10)
O2 O 0.8535(4) 0.5663(2) 0.79586(10)
O3 O 1.0467(4) 0.4064(2) 0.78675(11)
N1 N 0.9527(5) 0.1564(3) 0.98561(15)
C1 C 1.3120(6) 0.8697(3) 0.92891(15)
C2 C 1.1098(6) 0.8830(3) 0.95049(17)
H1 H 1.076(5) 0.948(3) 0.9697(15)
C3 C 0.9709(6) 0.7947(3) 0.94496(16)
H2 H 0.831(5) 0.798(3) 0.9602(13)
C4 C 1.0345(5) 0.6961(3) 0.91808(14)
C5 C 0.9131(5) 0.5930(3) 0.90686(14)
C6 C 1.0526(5) 0.5068(3) 0.87558(16)
C7 C 1.2696(6) 0.5681(3) 0.8713(2)
H3 H 1.377(5) 0.527(3) 0.8915(13)
H4 H 1.309(6) 0.575(3) 0.8326(16)
C8 C 1.2373(5) 0.6841(3) 0.89728(15)
C9 C 1.3795(6) 0.7721(3) 0.90252(17)
H5 H 1.519(6) 0.763(2) 0.8893(13)
C10 C 1.0742(6) 0.3953(3) 0.90808(18)
H6 H 1.161(5) 0.409(3) 0.9417(14)
H7 H 1.148(4) 0.340(2) 0.8834(12)
C11 C 0.8708(6) 0.3411(3) 0.92961(18)
H8 H 0.810(5) 0.390(3) 0.9527(13)
C12 C 0.9161(6) 0.2365(3) 0.96135(18)
C13 C 0.9809(6) 0.4845(3) 0.81422(15)
C14 C 0.7718(7) 0.5642(4) 0.73635(17)
C15 C 0.9516(10) 0.5731(6) 0.6947(2)
H9 H 1.047(7) 0.506(4) 0.696(2)
H10 H 0.898(6) 0.585(3) 0.6596(18)
H11 H 1.037(8) 0.642(4) 0.7063(19)
C16 C 0.6388(9) 0.6701(5) 0.7353(3)
H12 H 0.582(6) 0.678(3) 0.6995(17)
H13 H 0.524(8) 0.670(4) 0.765(2)
H14 H 0.716(7) 0.739(4) 0.7404(18)
C17 C 0.6397(10) 0.4597(5) 0.7281(2)
H15 H 0.563(7) 0.459(4) 0.6916(19)
H16 H 0.532(7) 0.450(3) 0.7573(19)
H17 H 0.722(7) 0.392(4) 0.7286(18)
loop_
_geom_bond_atom_site_label_1
_geom_bond_atom_site_label_2
_geom_bond_site_symmetry_1
_geom_bond_site_symmetry_2
Cl1 C1 1_555 1_555
Cl2 C11 1_555 1_555
O1 C5 1_555 1_555
O2 C13 1_555 1_555
O3 C13 1_555 1_555
N1 C12 1_555 1_555
C1 C2 1_555 1_555
C2 H1 1_555 1_555
C3 C2 1_555 1_555
H2 C3 1_555 1_555
C4 C3 1_555 1_555
C5 C4 1_555 1_555
C6 C5 1_555 1_555
C7 C6 1_555 1_555
H3 C7 1_555 1_555
H4 C7 1_555 1_555
C8 C4 1_555 1_555
C9 C1 1_555 1_555
H5 C9 1_555 1_555
C10 C6 1_555 1_555
H6 C10 1_555 1_555
H7 C10 1_555 1_555
C11 C10 1_555 1_555
H8 C11 1_555 1_555
C12 C11 1_555 1_555
C13 C6 1_555 1_555
C14 O2 1_555 1_555
C15 C14 1_555 1_555
H9 C15 1_555 1_555
H10 C15 1_555 1_555
H11 C15 1_555 1_555
C16 C14 1_555 1_555
H12 C16 1_555 1_555
H13 C16 1_555 1_555
H14 C16 1_555 1_555
C17 C14 1_555 1_555
H15 C17 1_555 1_555
H16 C17 1_555 1_555
H17 C17 1_555 1_555
C7 C8 1_555 1_555
C8 C9 1_555 1_555

#END
