
#######################################################################
#
#                 Cambridge Crystallographic Data Centre
#                                CCDC 
#
#######################################################################
#
# If this CIF has been generated from an entry in the Cambridge 
# Structural Database, then it will include bibliographic, chemical, 
# crystal, experimental, refinement or atomic coordinate data resulting 
# from the CCDC's data processing and validation procedures.
#
#######################################################################

data_TEHDAO
_chemical_name_common            gene891
_chemical_formula_moiety         'C22 H19 F1'
_chemical_name_systematic        
1,1'-[1-(4-fluorophenyl)but-1-ene-1,2-diyl]dibenzene
_symmetry_cell_setting           monoclinic
_symmetry_space_group_name_H-M   'P 21/n'
_symmetry_Int_Tables_number      14
_space_group_name_Hall           '-P 2yn'
loop_
_symmetry_equiv_pos_site_id
_symmetry_equiv_pos_as_xyz
1 x,y,z
2 1/2-x,1/2+y,1/2-z
3 -x,-y,-z
4 1/2+x,1/2-y,1/2+z
_cell_length_a                   12.2957(5)
_cell_length_b                   8.7030(4)
_cell_length_c                   15.5509(6)
_cell_angle_alpha                90
_cell_angle_beta                 92.233(2)
_cell_angle_gamma                90
_cell_volume                     1662.83
_exptl_crystal_colour            colorless
_exptl_crystal_description       prism
_cell_formula_units_Z            4
loop_
_atom_site_label
_atom_site_type_symbol
_atom_site_fract_x
_atom_site_fract_y
_atom_site_fract_z
C1 C 0.48108(8) 0.23754(12) 0.61972(7)
C2 C 0.43301(8) 0.21933(12) 0.54043(7)
C3 C 0.49599(8) 0.18296(12) 0.46106(7)
H1 H 0.466138 0.087893 0.434333
H2 H 0.572918 0.162980 0.478724
C4 C 0.49190(9) 0.31133(14) 0.39412(7)
H3 H 0.415938 0.332979 0.376844
H4 H 0.531506 0.279270 0.343663
H5 H 0.525623 0.404168 0.418867
C5 C 0.31255(8) 0.23257(12) 0.52463(6)
C6 C 0.25465(9) 0.35682(13) 0.55650(7)
H6 H 0.292632 0.434620 0.588252
C7 C 0.14277(9) 0.36909(14) 0.54277(7)
H7 H 0.104899 0.453739 0.565937
C8 C 0.08617(9) 0.25807(15) 0.49533(8)
H8 H 0.009582 0.266078 0.485840
C9 C 0.14255(9) 0.13529(15) 0.46190(8)
H9 H 0.104444 0.059219 0.428894
C10 C 0.25442(9) 0.12267(14) 0.47632(7)
H10 H 0.291942 0.037903 0.452923
C11 C 0.41835(8) 0.25521(12) 0.69962(6)
C12 C 0.44465(8) 0.37223(13) 0.75838(7)
H11 H 0.503096 0.440044 0.747544
C13 C 0.38636(9) 0.39058(14) 0.83246(7)
H12 H 0.404259 0.471641 0.871401
C14 C 0.30212(9) 0.29069(15) 0.84957(7)
H13 H 0.262302 0.302858 0.900266
C15 C 0.27631(9) 0.17309(15) 0.79240(7)
H14 H 0.218566 0.104512 0.803951
C16 C 0.33433(9) 0.15485(13) 0.71833(7)
H15 H 0.316526 0.072929 0.679939
C17 C 0.60157(8) 0.23400(12) 0.63603(6)
C18 C 0.67233(9) 0.32828(13) 0.59152(7)
H16 H 0.643307 0.397476 0.549316
C19 C 0.78425(9) 0.32285(13) 0.60776(7)
H17 H 0.831747 0.387500 0.577368
C20 C 0.82452(9) 0.22133(14) 0.66903(7)
C21 C 0.75813(9) 0.12749(14) 0.71549(7)
H18 H 0.788039 0.058837 0.757613
C22 C 0.64654(9) 0.13588(13) 0.69917(7)
H19 H 0.599658 0.073640 0.731583
F1 F 0.93386(5) 0.21358(10) 0.68381(5)
loop_
_geom_bond_atom_site_label_1
_geom_bond_atom_site_label_2
_geom_bond_site_symmetry_1
_geom_bond_site_symmetry_2
C1 C2 1_555 1_555
C2 C3 1_555 1_555
C3 H1 1_555 1_555
H2 C3 1_555 1_555
C4 C3 1_555 1_555
H3 C4 1_555 1_555
H4 C4 1_555 1_555
H5 C4 1_555 1_555
C5 C2 1_555 1_555
C6 C5 1_555 1_555
H6 C6 1_555 1_555
C7 C6 1_555 1_555
H7 C7 1_555 1_555
C8 C7 1_555 1_555
H8 C8 1_555 1_555
C9 C8 1_555 1_555
H9 C9 1_555 1_555
C10 C5 1_555 1_555
H10 C10 1_555 1_555
C11 C1 1_555 1_555
C12 C11 1_555 1_555
H11 C12 1_555 1_555
C13 C12 1_555 1_555
H12 C13 1_555 1_555
C14 C13 1_555 1_555
H13 C14 1_555 1_555
C15 C14 1_555 1_555
H14 C15 1_555 1_555
C16 C11 1_555 1_555
H15 C16 1_555 1_555
C17 C1 1_555 1_555
C18 C17 1_555 1_555
H16 C18 1_555 1_555
C19 C18 1_555 1_555
H17 C19 1_555 1_555
C20 C19 1_555 1_555
C21 C20 1_555 1_555
H18 C21 1_555 1_555
C22 C17 1_555 1_555
H19 C22 1_555 1_555
F1 C20 1_555 1_555
C9 C10 1_555 1_555
C15 C16 1_555 1_555
C21 C22 1_555 1_555

#END
