
#######################################################################
#
#                 Cambridge Crystallographic Data Centre
#                                CCDC 
#
#######################################################################
#
# If this CIF has been generated from an entry in the Cambridge 
# Structural Database, then it will include bibliographic, chemical, 
# crystal, experimental, refinement or atomic coordinate data resulting 
# from the CCDC's data processing and validation procedures.
#
#######################################################################

data_TEHPOO
_chemical_name_common            gene870
_chemical_formula_moiety         'C22 H21 N1 O3 S1'
_chemical_name_systematic        
'2-phenyl-1-(pyridin-2-yl)but-1-en-1-yl 4-methylbenzene-1-sulfonate'
_symmetry_cell_setting           monoclinic
_symmetry_space_group_name_H-M   'P 21/c'
_symmetry_Int_Tables_number      14
_space_group_name_Hall           '-P 2ybc'
loop_
_symmetry_equiv_pos_site_id
_symmetry_equiv_pos_as_xyz
1 x,y,z
2 -x,1/2+y,1/2-z
3 -x,-y,-z
4 x,1/2-y,1/2+z
_cell_length_a                   11.5316(7)
_cell_length_b                   19.9422(13)
_cell_length_c                   9.0447(6)
_cell_angle_alpha                90
_cell_angle_beta                 108.879(2)
_cell_angle_gamma                90
_cell_volume                     1968.07
_exptl_crystal_colour            colorless
_exptl_crystal_description       blade
_cell_formula_units_Z            4
loop_
_atom_site_label
_atom_site_type_symbol
_atom_site_fract_x
_atom_site_fract_y
_atom_site_fract_z
C1 C 0.00000(14) 0.36789(8) 0.50108(18)
C2 C 0.01259(14) 0.32025(8) 0.39478(19)
H1 H 0.061794 0.281517 0.429744
C3 C -0.04797(14) 0.33040(8) 0.23710(19)
H2 H -0.039089 0.298496 0.163501
C4 C -0.12182(14) 0.38664(8) 0.18435(19)
C5 C -0.13721(14) 0.43186(8) 0.2941(2)
H3 H -0.190746 0.469022 0.259880
C6 C -0.07571(14) 0.42351(8) 0.45242(19)
H4 H -0.085080 0.455154 0.526247
C7 C -0.18141(16) 0.39798(10) 0.0119(2)
H5 H -0.222947 0.441549 -0.005205
H6 H -0.241377 0.362390 -0.031515
H7 H -0.118747 0.397383 -0.039821
C8 C 0.30245(14) 0.38195(8) 0.65965(18)
C9 C 0.40395(15) 0.35735(8) 0.76321(19)
C10 C 0.41698(15) 0.34753(8) 0.93372(19)
H8 H 0.463336 0.305716 0.971702
H9 H 0.334536 0.342324 0.943942
C11 C 0.48230(19) 0.40570(10) 1.0351(2)
H10 H 0.562585 0.412362 1.021955
H11 H 0.493286 0.395742 1.144939
H12 H 0.433169 0.446543 1.003946
C12 C 0.51340(14) 0.34159(8) 0.71576(18)
C13 C 0.56267(15) 0.38921(9) 0.6397(2)
H13 H 0.526709 0.432504 0.618831
C14 C 0.66375(16) 0.37388(10) 0.5944(2)
H14 H 0.696287 0.406570 0.542234
C15 C 0.71711(16) 0.31104(10) 0.6251(2)
H15 H 0.785532 0.300328 0.592787
C16 C 0.67067(16) 0.26399(10) 0.7027(2)
H16 H 0.708139 0.221105 0.725176
C17 C 0.56959(15) 0.27886(9) 0.7482(2)
H17 H 0.538459 0.246129 0.801833
C18 C 0.27451(14) 0.39107(8) 0.48874(18)
C19 C 0.29673(15) 0.34025(8) 0.39667(19)
H18 H 0.333976 0.299466 0.442503
C20 C 0.26373(16) 0.34999(9) 0.2371(2)
H19 H 0.277450 0.315819 0.171459
C21 C 0.21061(16) 0.40996(9) 0.1743(2)
H20 H 0.187710 0.418151 0.065188
C22 C 0.19156(16) 0.45790(9) 0.2749(2)
H21 H 0.154291 0.498992 0.231198
N1 N 0.22244(12) 0.44992(7) 0.42986(16)
O1 O 0.03110(11) 0.39559(7) 0.79286(14)
O2 O 0.12855(11) 0.29332(6) 0.73177(14)
O3 O 0.20844(10) 0.40617(5) 0.71651(12)
S1 S 0.08909(4) 0.36107(2) 0.69792(5)
loop_
_geom_bond_atom_site_label_1
_geom_bond_atom_site_label_2
_geom_bond_site_symmetry_1
_geom_bond_site_symmetry_2
C1 C2 1_555 1_555
C2 H1 1_555 1_555
C3 C2 1_555 1_555
H2 C3 1_555 1_555
C4 C3 1_555 1_555
C5 C4 1_555 1_555
H3 C5 1_555 1_555
C6 C1 1_555 1_555
H4 C6 1_555 1_555
C7 C4 1_555 1_555
H5 C7 1_555 1_555
H6 C7 1_555 1_555
H7 C7 1_555 1_555
C8 C9 1_555 1_555
C9 C10 1_555 1_555
C10 H8 1_555 1_555
H9 C10 1_555 1_555
C11 C10 1_555 1_555
H10 C11 1_555 1_555
H11 C11 1_555 1_555
H12 C11 1_555 1_555
C12 C9 1_555 1_555
C13 C12 1_555 1_555
H13 C13 1_555 1_555
C14 C13 1_555 1_555
H14 C14 1_555 1_555
C15 C14 1_555 1_555
H15 C15 1_555 1_555
C16 C15 1_555 1_555
H16 C16 1_555 1_555
C17 C12 1_555 1_555
H17 C17 1_555 1_555
C18 C8 1_555 1_555
C19 C18 1_555 1_555
H18 C19 1_555 1_555
C20 C19 1_555 1_555
H19 C20 1_555 1_555
C21 C20 1_555 1_555
H20 C21 1_555 1_555
C22 C21 1_555 1_555
H21 C22 1_555 1_555
N1 C18 1_555 1_555
O1 S1 1_555 1_555
O2 S1 1_555 1_555
O3 C8 1_555 1_555
S1 C1 1_555 1_555
C5 C6 1_555 1_555
C16 C17 1_555 1_555
C22 N1 1_555 1_555
O3 S1 1_555 1_555

#END
