
#######################################################################
#
#                 Cambridge Crystallographic Data Centre
#                                CCDC 
#
#######################################################################
#
# If this CIF has been generated from an entry in the Cambridge 
# Structural Database, then it will include bibliographic, chemical, 
# crystal, experimental, refinement or atomic coordinate data resulting 
# from the CCDC's data processing and validation procedures.
#
#######################################################################

data_TEHQUV
_chemical_formula_moiety         'C22 H23 N1 O3,C1 H2 Cl2'
_chemical_name_systematic        
'7-[4-(4-methoxyphenyl)buta-1,3-diyn-1-yl]-1,5,7-trimethyl-3-azabicyclo[3.3.1]nonane-2,4-dione dichloromethane solvate'
_symmetry_cell_setting           monoclinic
_symmetry_space_group_name_H-M   'P 21/c'
_symmetry_Int_Tables_number      14
_space_group_name_Hall           '-P 2ybc'
loop_
_symmetry_equiv_pos_site_id
_symmetry_equiv_pos_as_xyz
1 x,y,z
2 -x,1/2+y,1/2-z
3 -x,-y,-z
4 x,1/2-y,1/2+z
_cell_length_a                   12.4027(6)
_cell_length_b                   15.2165(8)
_cell_length_c                   11.6136(6)
_cell_angle_alpha                90
_cell_angle_beta                 91.4080(10)
_cell_angle_gamma                90
_cell_volume                     2191.12
_exptl_crystal_colour            colorless
_exptl_crystal_description       plate
_cell_formula_units_Z            4
_exptl_crystal_recrystallization_method CDCl3
loop_
_atom_site_label
_atom_site_type_symbol
_atom_site_fract_x
_atom_site_fract_y
_atom_site_fract_z
O1 O 0.50902(7) 0.48704(6) 0.65399(7)
O2 O 0.24737(8) 0.39088(7) 0.41210(8)
O3 O 1.05983(9) 0.39594(8) 0.09943(10)
N1 N 0.36745(9) 0.44772(7) 0.54038(9)
H1 H 0.4020(12) 0.4684(10) 0.4814(12)
C1 C 0.36875(10) 0.40553(8) 0.74735(10)
C2 C 0.42179(10) 0.45030(8) 0.64571(10)
C3 C 0.27945(10) 0.39559(8) 0.51184(11)
C4 C 0.22840(10) 0.34527(9) 0.60936(10)
C5 C 0.28069(10) 0.25317(8) 0.61852(11)
H2 H 0.2757 0.2252 0.5416
H3 H 0.2374 0.2172 0.6713
C6 C 0.39988(10) 0.24974(8) 0.66105(10)
C7 C 0.41754(10) 0.31297(8) 0.76408(10)
H4 H 0.3859 0.2860 0.8331
H5 H 0.4961 0.3191 0.7794
C8 C 0.24780(10) 0.39577(9) 0.72146(10)
H6 H 0.2137 0.3641 0.7855
H7 H 0.2143 0.4547 0.7150
C9 C 0.38982(12) 0.46008(9) 0.85619(11)
H8 H 0.4677 0.4650 0.8709
H9 H 0.3563 0.4313 0.9218
H10 H 0.3589 0.5189 0.8456
C10 C 0.10758(11) 0.33598(10) 0.58289(13)
H11 H 0.0746 0.3944 0.5780
H12 H 0.0741 0.3022 0.6443
H13 H 0.0966 0.3053 0.5093
C11 C 0.42657(11) 0.15538(9) 0.69983(12)
H14 H 0.4144 0.1150 0.6351
H15 H 0.3800 0.1388 0.7633
H16 H 0.5023 0.1522 0.7258
C12 C 0.47715(10) 0.27203(8) 0.57083(10)
C13 C 0.55000(10) 0.28701(9) 0.50710(10)
C14 C 0.63390(10) 0.30558(9) 0.43519(11)
C15 C 0.70758(11) 0.32042(9) 0.37461(11)
C16 C 0.79703(10) 0.33849(9) 0.30133(11)
C17 C 0.78757(11) 0.32852(10) 0.18204(11)
H17 H 0.7211 0.3092 0.1484
C18 C 0.87389(12) 0.34640(10) 0.11172(12)
H18 H 0.8666 0.3391 0.0307
C19 C 0.97075(11) 0.37491(10) 0.16080(12)
C20 C 0.98252(11) 0.38379(10) 0.27975(12)
H19 H 1.0496 0.4021 0.3131
C21 C 0.89628(11) 0.36593(10) 0.34922(11)
H20 H 0.9044 0.3723 0.4303
C22 C 1.04933(16) 0.39478(12) -0.02319(14)
H21 H 1.1154 0.4179 -0.0565
H22 H 0.9879 0.4314 -0.0476
H23 H 1.0375 0.3343 -0.0496
Cl1 Cl 0.70810(3) 0.43060(3) 0.88688(3)
Cl2 Cl 0.86775(3) 0.39719(3) 0.71072(4)
C23 C 0.7337(3) 0.4248(4) 0.7373(3)
H24 H 0.6855 0.3803 0.7011
H25 H 0.7170 0.4823 0.7013
C24? C 0.7500(12) 0.4571(14) 0.7532(13)
H26? H 0.7660 0.5208 0.7510
H27? H 0.6905 0.4455 0.6968
loop_
_geom_bond_atom_site_label_1
_geom_bond_atom_site_label_2
_geom_bond_site_symmetry_1
_geom_bond_site_symmetry_2
O1 C2 1_555 1_555
O2 C3 1_555 1_555
O3 C19 1_555 1_555
N1 H1 1_555 1_555
C1 C2 1_555 1_555
C2 N1 1_555 1_555
C3 N1 1_555 1_555
C4 C3 1_555 1_555
C5 C4 1_555 1_555
H2 C5 1_555 1_555
H3 C5 1_555 1_555
C6 C5 1_555 1_555
C7 C1 1_555 1_555
H4 C7 1_555 1_555
H5 C7 1_555 1_555
C8 C1 1_555 1_555
H6 C8 1_555 1_555
H7 C8 1_555 1_555
C9 C1 1_555 1_555
H8 C9 1_555 1_555
H9 C9 1_555 1_555
H10 C9 1_555 1_555
C10 C4 1_555 1_555
H11 C10 1_555 1_555
H12 C10 1_555 1_555
H13 C10 1_555 1_555
C11 C6 1_555 1_555
H14 C11 1_555 1_555
H15 C11 1_555 1_555
H16 C11 1_555 1_555
C12 C6 1_555 1_555
C13 C12 1_555 1_555
C14 C13 1_555 1_555
C15 C14 1_555 1_555
C16 C15 1_555 1_555
C17 C16 1_555 1_555
H17 C17 1_555 1_555
C18 C17 1_555 1_555
H18 C18 1_555 1_555
C19 C18 1_555 1_555
C20 C19 1_555 1_555
H19 C20 1_555 1_555
C21 C16 1_555 1_555
H20 C21 1_555 1_555
C22 O3 1_555 1_555
H21 C22 1_555 1_555
H22 C22 1_555 1_555
H23 C22 1_555 1_555
Cl1 C23 1_555 1_555
Cl2 C23 1_555 1_555
C23 H24 1_555 1_555
H25 C23 1_555 1_555
C4 C8 1_555 1_555
C6 C7 1_555 1_555
C20 C21 1_555 1_555

#END
