
#######################################################################
#
#                 Cambridge Crystallographic Data Centre
#                                CCDC 
#
#######################################################################
#
# If this CIF has been generated from an entry in the Cambridge 
# Structural Database, then it will include bibliographic, chemical, 
# crystal, experimental, refinement or atomic coordinate data resulting 
# from the CCDC's data processing and validation procedures.
#
#######################################################################

data_TEHROQ
_chemical_formula_moiety         'C22 H23 N1 O2,C13 H19 N3 O2'
_chemical_name_systematic        
"N,N'-(pyridine-2,6-diyl)bis(2-methylpropanamide) 1,5,7-trimethyl-7-[4-(4-methylphenyl)buta-1,3-diyn-1-yl]-3-azabicyclo[3.3.1]nonane-2,4-dione"
_symmetry_cell_setting           monoclinic
_symmetry_space_group_name_H-M   'P 21/n'
_symmetry_Int_Tables_number      14
_space_group_name_Hall           '-P 2yn'
loop_
_symmetry_equiv_pos_site_id
_symmetry_equiv_pos_as_xyz
1 x,y,z
2 1/2-x,1/2+y,1/2-z
3 -x,-y,-z
4 1/2+x,1/2-y,1/2+z
_cell_length_a                   9.4453(2)
_cell_length_b                   15.7653(3)
_cell_length_c                   22.0171(4)
_cell_angle_alpha                90
_cell_angle_beta                 99.4990(10)
_cell_angle_gamma                90
_cell_volume                     3233.57
_exptl_crystal_colour            colorless
_exptl_crystal_description       block
_cell_formula_units_Z            4
_exptl_crystal_recrystallization_method 'dichloromethane / n-hexane'
loop_
_atom_site_label
_atom_site_type_symbol
_atom_site_fract_x
_atom_site_fract_y
_atom_site_fract_z
O1 O 0.48658(9) 0.85647(6) 0.37722(4)
O2 O 0.57138(12) 0.72250(7) 0.20767(4)
N1 N 0.53091(10) 0.79709(6) 0.28968(4)
H1 H 0.6033(12) 0.7671(8) 0.3124(6)
C1 C 0.32105(12) 0.89206(8) 0.28501(5)
C2 C 0.45124(12) 0.84837(7) 0.32152(5)
C3 C 0.49823(14) 0.77550(8) 0.22834(5)
C4 C 0.36949(14) 0.81798(8) 0.19005(5)
C5 C 0.23611(15) 0.76158(8) 0.18981(6)
H2 H 0.2568 0.7049 0.1741
H3 H 0.1558 0.7861 0.1605
C6 C 0.18579(14) 0.75006(9) 0.25261(7)
C7 C 0.18742(13) 0.83609(9) 0.28581(6)
H4 H 0.1781 0.8253 0.3293
H5 H 0.1017 0.8686 0.2669
C8 C 0.34468(13) 0.90343(7) 0.21865(5)
H6 H 0.2596 0.9312 0.1944
H7 H 0.4289 0.9405 0.2177
C9 C 0.29958(15) 0.97768(9) 0.31467(6)
H8 H 0.2827 0.9688 0.3569
H9 H 0.2166 1.0066 0.2909
H10 H 0.3856 1.0126 0.3152
C10 C 0.39876(17) 0.82844(10) 0.12428(6)
H11 H 0.3167 0.8565 0.0992
H12 H 0.4131 0.7725 0.1068
H13 H 0.4852 0.8630 0.1246
C11 C 0.03047(18) 0.71577(13) 0.24195(10)
H14 H -0.0016 0.7081 0.2817
H15 H 0.0273 0.6612 0.2205
H16 H -0.0328 0.7563 0.2169
C12 C 0.27547(15) 0.68583(9) 0.29010(7)
C13 C 0.34070(16) 0.62880(9) 0.31831(7)
C14 C 0.41439(16) 0.56283(9) 0.35009(7)
C15 C 0.47402(15) 0.50297(9) 0.37732(7)
C16 C 0.53892(14) 0.43189(8) 0.41183(6)
C17 C 0.65471(15) 0.38826(9) 0.39471(6)
H17 H 0.6909 0.4046 0.3587
C18 C 0.71705(15) 0.32124(9) 0.43015(7)
H18 H 0.7949 0.2915 0.4177
C19 C 0.66763(14) 0.29660(8) 0.48379(6)
C20 C 0.55009(14) 0.33928(8) 0.49975(6)
H19 H 0.5135 0.3224 0.5356
C21 C 0.48567(15) 0.40552(8) 0.46466(6)
H20 H 0.4050 0.4334 0.4763
C22 C 0.74031(16) 0.22729(10) 0.52441(8)
H21 H 0.8032 0.2525 0.5596
H22 H 0.7974 0.1921 0.5008
H23 H 0.6676 0.1921 0.5392
O3 O 0.93415(9) 0.83032(6) 0.51903(4)
O4 O 0.81647(10) 0.46241(5) 0.27098(4)
N2 N 0.75416(10) 0.78600(6) 0.44319(4)
H24 H 0.6709(11) 0.8029(8) 0.4206(6)
N3 N 0.75504(10) 0.68749(6) 0.36623(4)
N4 N 0.73635(10) 0.59697(6) 0.28351(4)
H25 H 0.6812(13) 0.6387(7) 0.2644(6)
C23 C 0.80871(16) 0.99012(8) 0.52626(6)
H26 H 0.8671 0.9731 0.5654
H27 H 0.7450 1.0368 0.5336
H28 H 0.8717 1.0089 0.4977
C24 C 0.61399(14) 0.88714(9) 0.54019(7)
H29 H 0.5594 0.8380 0.5218
H30 H 0.5478 0.9337 0.5447
H31 H 0.6670 0.8716 0.5808
C25 C 0.71946(13) 0.91531(7) 0.49867(5)
H32 H 0.6638 0.9328 0.4580
C26 C 0.81552(13) 0.84079(7) 0.48854(5)
C27 C 0.81419(12) 0.71170(7) 0.42323(5)
C28 C 0.92311(13) 0.66663(8) 0.45964(5)
H33 H 0.9625 0.6851 0.5000
C29 C 0.97186(14) 0.59384(8) 0.43485(6)
H34 H 1.0471 0.5620 0.4583
C30 C 0.91273(13) 0.56670(8) 0.37641(6)
H35 H 0.9456 0.5166 0.3593
C31 C 0.80332(12) 0.61566(7) 0.34369(5)
C32 C 0.74669(12) 0.52438(7) 0.25037(5)
C33 C 0.66404(12) 0.52743(8) 0.18489(5)
H36 H 0.5680 0.5536 0.1859
C34 C 0.64132(14) 0.43808(8) 0.15890(6)
H37 H 0.7344 0.4130 0.1551
H38 H 0.5808 0.4404 0.1183
H39 H 0.5942 0.4033 0.1866
C35 C 0.74395(14) 0.58200(9) 0.14396(6)
H40 H 0.7598 0.6388 0.1619
H41 H 0.6865 0.5864 0.1027
H42 H 0.8366 0.5557 0.1411
loop_
_geom_bond_atom_site_label_1
_geom_bond_atom_site_label_2
_geom_bond_site_symmetry_1
_geom_bond_site_symmetry_2
O1 C2 1_555 1_555
O2 C3 1_555 1_555
N1 H1 1_555 1_555
C1 C2 1_555 1_555
C2 N1 1_555 1_555
C3 N1 1_555 1_555
C4 C3 1_555 1_555
C5 C4 1_555 1_555
H2 C5 1_555 1_555
H3 C5 1_555 1_555
C6 C5 1_555 1_555
C7 C1 1_555 1_555
H4 C7 1_555 1_555
H5 C7 1_555 1_555
C8 C1 1_555 1_555
H6 C8 1_555 1_555
H7 C8 1_555 1_555
C9 C1 1_555 1_555
H8 C9 1_555 1_555
H9 C9 1_555 1_555
H10 C9 1_555 1_555
C10 C4 1_555 1_555
H11 C10 1_555 1_555
H12 C10 1_555 1_555
H13 C10 1_555 1_555
C11 C6 1_555 1_555
H14 C11 1_555 1_555
H15 C11 1_555 1_555
H16 C11 1_555 1_555
C12 C6 1_555 1_555
C13 C12 1_555 1_555
C14 C13 1_555 1_555
C15 C14 1_555 1_555
C16 C15 1_555 1_555
C17 C16 1_555 1_555
H17 C17 1_555 1_555
C18 C17 1_555 1_555
H18 C18 1_555 1_555
C19 C18 1_555 1_555
C20 C19 1_555 1_555
H19 C20 1_555 1_555
C21 C16 1_555 1_555
H20 C21 1_555 1_555
C22 C19 1_555 1_555
H21 C22 1_555 1_555
H22 C22 1_555 1_555
H23 C22 1_555 1_555
O3 C26 1_555 1_555
O4 C32 1_555 1_555
N2 H24 1_555 1_555
N3 C27 1_555 1_555
N4 H25 1_555 1_555
C23 H26 1_555 1_555
H27 C23 1_555 1_555
H28 C23 1_555 1_555
C24 H29 1_555 1_555
H30 C24 1_555 1_555
H31 C24 1_555 1_555
C25 C23 1_555 1_555
H32 C25 1_555 1_555
C26 N2 1_555 1_555
C27 N2 1_555 1_555
C28 C27 1_555 1_555
H33 C28 1_555 1_555
C29 C28 1_555 1_555
H34 C29 1_555 1_555
C30 C29 1_555 1_555
H35 C30 1_555 1_555
C31 N3 1_555 1_555
C32 N4 1_555 1_555
C33 C32 1_555 1_555
H36 C33 1_555 1_555
C34 C33 1_555 1_555
H37 C34 1_555 1_555
H38 C34 1_555 1_555
H39 C34 1_555 1_555
C35 C33 1_555 1_555
H40 C35 1_555 1_555
H41 C35 1_555 1_555
H42 C35 1_555 1_555
C4 C8 1_555 1_555
C6 C7 1_555 1_555
C20 C21 1_555 1_555
N4 C31 1_555 1_555
C24 C25 1_555 1_555
C25 C26 1_555 1_555
C30 C31 1_555 1_555

#END
