
#######################################################################
#
#                 Cambridge Crystallographic Data Centre
#                                CCDC 
#
#######################################################################
#
# If this CIF has been generated from an entry in the Cambridge 
# Structural Database, then it will include bibliographic, chemical, 
# crystal, experimental, refinement or atomic coordinate data resulting 
# from the CCDC's data processing and validation procedures.
#
#######################################################################

data_TEHSAD
_chemical_formula_moiety         'C22 H23 N1 O3,C13 H19 N3 O2'
_chemical_name_systematic        
"N,N'-(pyridine-2,6-diyl)bis(2-methylpropanamide) 7-[4-(4-methoxyphenyl)buta-1,3-diyn-1-yl]-1,5,7-trimethyl-3-azabicyclo[3.3.1]nonane-2,4-dione"
_symmetry_cell_setting           monoclinic
_symmetry_space_group_name_H-M   'P 21/c'
_symmetry_Int_Tables_number      14
_space_group_name_Hall           '-P 2ybc'
loop_
_symmetry_equiv_pos_site_id
_symmetry_equiv_pos_as_xyz
1 x,y,z
2 -x,1/2+y,1/2-z
3 -x,-y,-z
4 x,1/2-y,1/2+z
_cell_length_a                   20.3984(4)
_cell_length_b                   20.6493(4)
_cell_length_c                   17.0642(3)
_cell_angle_alpha                90
_cell_angle_beta                 110.5950(10)
_cell_angle_gamma                90
_cell_volume                     6728.3
_exptl_crystal_colour            colorless
_exptl_crystal_description       plate
_cell_formula_units_Z            8
_exptl_crystal_recrystallization_method 'dichloromethane / n-hexane'
loop_
_atom_site_label
_atom_site_type_symbol
_atom_site_fract_x
_atom_site_fract_y
_atom_site_fract_z
O1 O 0.51103(5) 0.61552(4) 0.72550(6)
O2 O 0.33609(5) 0.64871(4) 0.48229(5)
O3 O 0.29544(5) 0.20331(4) 0.59227(6)
N1 N 0.42943(5) 0.63745(5) 0.60047(6)
H1 H 0.4315(8) 0.5952(5) 0.5876(9)
C1 C 0.46927(6) 0.72607(6) 0.70473(8)
C2 C 0.47262(6) 0.65576(6) 0.67973(8)
C3 C 0.37620(6) 0.67376(6) 0.54581(7)
C4 C 0.37123(7) 0.74459(6) 0.56828(8)
C5 C 0.31900(6) 0.75236(6) 0.61468(8)
H2 H 0.2731 0.7349 0.5786
H3 H 0.3127 0.7992 0.6224
C6 C 0.34001(6) 0.71889(6) 0.70113(8)
C7 C 0.41786(6) 0.73269(6) 0.75268(8)
H4 H 0.4216 0.7772 0.7752
H5 H 0.4330 0.7027 0.8010
C8 C 0.44334(7) 0.76734(6) 0.62574(8)
H6 H 0.4769 0.7644 0.5958
H7 H 0.4406 0.8132 0.6412
C9 C 0.54267(7) 0.74774(7) 0.76062(9)
H8 H 0.5600 0.7190 0.8093
H9 H 0.5406 0.7923 0.7795
H10 H 0.5743 0.7458 0.7288
C10 C 0.34560(8) 0.78435(7) 0.48763(8)
H11 H 0.3782 0.7791 0.4574
H12 H 0.3432 0.8302 0.5014
H13 H 0.2990 0.7693 0.4524
C11 C 0.29445(7) 0.74689(7) 0.74836(9)
H14 H 0.3067 0.7258 0.8031
H15 H 0.2449 0.7391 0.7158
H16 H 0.3028 0.7936 0.7563
C12 C 0.32637(6) 0.64869(6) 0.69106(8)
C13 C 0.31473(7) 0.59137(6) 0.68315(8)
C14 C 0.30465(7) 0.52543(7) 0.67188(8)
C15 C 0.29750(7) 0.46808(6) 0.66153(8)
C16 C 0.29310(6) 0.39975(6) 0.64436(8)
C17 C 0.31892(7) 0.37583(6) 0.58415(8)
H17 H 0.3372 0.4052 0.5541
C18 C 0.31834(7) 0.31070(6) 0.56770(8)
H18 H 0.3360 0.2954 0.5265
C19 C 0.29178(7) 0.26701(6) 0.61135(8)
C20 C 0.26459(7) 0.28990(6) 0.67019(8)
H19 H 0.2456 0.2605 0.6994
C21 C 0.26519(7) 0.35575(6) 0.68628(8)
H20 H 0.2464 0.3711 0.7264
C22 C 0.27759(8) 0.15637(7) 0.64309(10)
H21 H 0.2833 0.1127 0.6238
H22 H 0.2288 0.1626 0.6387
H23 H 0.3084 0.1616 0.7015
O4 O 0.01980(5) 0.08496(4) 0.26401(7)
O5 O 0.24638(4) 0.05436(4) 0.40771(6)
O6 O 0.07147(6) 0.46787(5) 0.57255(7)
N2 N 0.13564(5) 0.06595(5) 0.31855(7)
H24 H 0.1415(8) 0.1092(5) 0.3248(10)
C23 C 0.05391(6) -0.02737(6) 0.28146(8)
C24 C 0.06692(6) 0.04512(6) 0.28660(8)
C25 C 0.19168(6) 0.02832(6) 0.36549(8)
C26 C 0.18169(6) -0.04473(6) 0.36084(8)
C27 C 0.16487(6) -0.06869(6) 0.43726(8)
H25 H 0.2039 -0.0560 0.4886
H26 H 0.1630 -0.1166 0.4356
C28 C 0.09587(6) -0.04324(6) 0.44405(8)
C29 C 0.03598(6) -0.04935(6) 0.35817(8)
H27 H 0.0209 -0.0952 0.3499
H28 H -0.0044 -0.0235 0.3600
C30 C 0.12029(6) -0.06152(6) 0.28147(8)
H29 H 0.1127 -0.1090 0.2784
H30 H 0.1311 -0.0480 0.2317
C31 C -0.00778(7) -0.04223(7) 0.20126(9)
H31 H -0.0502 -0.0214 0.2038
H32 H -0.0150 -0.0892 0.1957
H33 H 0.0023 -0.0256 0.1529
C32 C 0.24969(7) -0.07588(6) 0.36072(9)
H34 H 0.2605 -0.0600 0.3125
H35 H 0.2441 -0.1230 0.3571
H36 H 0.2880 -0.0645 0.4125
C33 C 0.07801(8) -0.08420(7) 0.50901(9)
H37 H 0.0713 -0.1294 0.4904
H38 H 0.0349 -0.0678 0.5150
H39 H 0.1165 -0.0815 0.5631
C34 C 0.10243(7) 0.02520(7) 0.47119(8)
C35 C 0.10217(7) 0.08180(7) 0.48758(9)
C36 C 0.09915(7) 0.14769(7) 0.50019(9)
C37 C 0.09488(7) 0.20504(7) 0.50840(9)
C38 C 0.08879(7) 0.27312(7) 0.52122(8)
C39 C 0.12230(7) 0.31916(7) 0.48898(8)
H40 H 0.1489 0.3054 0.4561
C40 C 0.11759(7) 0.38470(7) 0.50397(8)
H41 H 0.1406 0.4156 0.4815
C41 C 0.07893(7) 0.40478(7) 0.55212(8)
C42 C 0.04453(8) 0.35930(7) 0.58412(10)
H42 H 0.0177 0.3732 0.6166
C43 C 0.04927(8) 0.29438(7) 0.56880(9)
H43 H 0.0255 0.2637 0.5907
C44 C 0.10417(8) 0.51692(7) 0.53998(9)
H44 H 0.0868 0.5144 0.4787
H45 H 0.1550 0.5104 0.5617
H46 H 0.0932 0.5596 0.5572
O7 O -0.03207(5) 0.30287(5) 0.19747(8)
O8 O 0.37841(5) 0.24420(4) 0.40287(6)
N3 N 0.04191(6) 0.22270(5) 0.26848(7)
H47 H 0.0424(8) 0.1806(5) 0.2838(10)
N4 N 0.16102(5) 0.21180(5) 0.32714(6)
N5 N 0.27780(5) 0.19085(5) 0.39420(6)
H48 H 0.2622(8) 0.1521(5) 0.4054(9)
C45 C -0.15021(7) 0.22525(7) 0.16465(11)
H49 H -0.1616 0.2710 0.1679
H50 H -0.1884 0.1983 0.1687
H51 H -0.1440 0.2169 0.1112
C46 C -0.08304(7) 0.20900(7) 0.23611(10)
H52 H -0.0719 0.1622 0.2325
C47 C -0.08975(8) 0.22188(9) 0.32124(11)
H53 H -0.0465 0.2088 0.3659
H54 H -0.1291 0.1969 0.3258
H55 H -0.0980 0.2682 0.3266
C48 C -0.02263(7) 0.24967(6) 0.23073(9)
C49 C 0.10773(6) 0.25148(6) 0.28627(8)
C50 C 0.11735(7) 0.31510(6) 0.26549(9)
H56 H 0.0789 0.3412 0.2334
C51 C 0.18508(7) 0.33878(6) 0.29337(8)
H57 H 0.1934 0.3823 0.2814
C52 C 0.24087(7) 0.30010(6) 0.33837(8)
H58 H 0.2873 0.3165 0.3590
C53 C 0.22629(6) 0.23606(6) 0.35237(8)
C54 C 0.34906(6) 0.19649(6) 0.41735(8)
C55 C 0.38921(6) 0.13709(7) 0.46143(8)
H59 H 0.3606 0.1139 0.4897
C56 C 0.40068(8) 0.09207(7) 0.39651(10)
H60 H 0.3553 0.0772 0.3576
H61 H 0.4285 0.0546 0.4248
H62 H 0.4256 0.1154 0.3655
C57 C 0.45846(8) 0.15772(9) 0.52756(10)
H63 H 0.4877 0.1790 0.5003
H64 H 0.4829 0.1195 0.5581
H65 H 0.4493 0.1879 0.5668
O9 O 0.60486(5) 0.39968(4) 0.74458(6)
O10 O 0.29645(5) 0.45825(4) 0.30765(6)
N6 N 0.52972(5) 0.48157(5) 0.67901(6)
H66 H 0.5182(7) 0.5224(5) 0.6878(9)
N7 N 0.44315(5) 0.49406(5) 0.55043(6)
N8 N 0.35296(5) 0.51559(5) 0.42748(6)
H67 H 0.3518(8) 0.5538(5) 0.4530(8)
C58 C 0.67621(7) 0.47806(7) 0.88252(9)
H68 H 0.6779 0.4319 0.8962
H69 H 0.6880 0.5036 0.9340
H70 H 0.7100 0.4874 0.8550
C59 C 0.60308(6) 0.49561(6) 0.82419(8)
H71 H 0.6027 0.5421 0.8075
C60 C 0.54956(8) 0.48622(8) 0.86736(9)
H72 H 0.5033 0.5001 0.8297
H73 H 0.5633 0.5121 0.9187
H74 H 0.5478 0.4404 0.8813
C61 C 0.58085(6) 0.45380(6) 0.74574(8)
C62 C 0.49212(6) 0.45417(6) 0.60099(7)
C63 C 0.50364(6) 0.39157(6) 0.57823(8)
H75 H 0.5382 0.3644 0.6156
C64 C 0.46288(6) 0.37051(6) 0.49931(8)
H76 H 0.4690 0.3278 0.4822
C65 C 0.41323(6) 0.41058(6) 0.44468(8)
H77 H 0.3862 0.3969 0.3896
C66 C 0.40455(6) 0.47191(6) 0.47375(7)
C67 C 0.29936(6) 0.50493(6) 0.35269(8)
C68 C 0.24129(6) 0.55521(6) 0.33379(8)
H78 H 0.2630 0.5991 0.3471
C69 C 0.19929(7) 0.54180(8) 0.39118(10)
H79 H 0.1810 0.4975 0.3820
H80 H 0.1602 0.5724 0.3784
H81 H 0.2299 0.5469 0.4498
C70 C 0.19447(8) 0.55356(8) 0.24214(9)
H82 H 0.2214 0.5672 0.2074
H83 H 0.1548 0.5830 0.2331
H84 H 0.1770 0.5094 0.2268
loop_
_geom_bond_atom_site_label_1
_geom_bond_atom_site_label_2
_geom_bond_site_symmetry_1
_geom_bond_site_symmetry_2
O1 C2 1_555 1_555
O2 C3 1_555 1_555
O3 C19 1_555 1_555
N1 H1 1_555 1_555
C1 C2 1_555 1_555
C2 N1 1_555 1_555
C3 N1 1_555 1_555
C4 C3 1_555 1_555
C5 C4 1_555 1_555
H2 C5 1_555 1_555
H3 C5 1_555 1_555
C6 C5 1_555 1_555
C7 C1 1_555 1_555
H4 C7 1_555 1_555
H5 C7 1_555 1_555
C8 C1 1_555 1_555
H6 C8 1_555 1_555
H7 C8 1_555 1_555
C9 C1 1_555 1_555
H8 C9 1_555 1_555
H9 C9 1_555 1_555
H10 C9 1_555 1_555
C10 C4 1_555 1_555
H11 C10 1_555 1_555
H12 C10 1_555 1_555
H13 C10 1_555 1_555
C11 C6 1_555 1_555
H14 C11 1_555 1_555
H15 C11 1_555 1_555
H16 C11 1_555 1_555
C12 C6 1_555 1_555
C13 C12 1_555 1_555
C14 C13 1_555 1_555
C15 C14 1_555 1_555
C16 C15 1_555 1_555
C17 C16 1_555 1_555
H17 C17 1_555 1_555
C18 C17 1_555 1_555
H18 C18 1_555 1_555
C19 C18 1_555 1_555
C20 C19 1_555 1_555
H19 C20 1_555 1_555
C21 C16 1_555 1_555
H20 C21 1_555 1_555
C22 O3 1_555 1_555
H21 C22 1_555 1_555
H22 C22 1_555 1_555
H23 C22 1_555 1_555
O4 C24 1_555 1_555
O5 C25 1_555 1_555
O6 C41 1_555 1_555
N2 H24 1_555 1_555
C23 C24 1_555 1_555
C24 N2 1_555 1_555
C25 N2 1_555 1_555
C26 C25 1_555 1_555
C27 C26 1_555 1_555
H25 C27 1_555 1_555
H26 C27 1_555 1_555
C28 C27 1_555 1_555
C29 C23 1_555 1_555
H27 C29 1_555 1_555
H28 C29 1_555 1_555
C30 C23 1_555 1_555
H29 C30 1_555 1_555
H30 C30 1_555 1_555
C31 C23 1_555 1_555
H31 C31 1_555 1_555
H32 C31 1_555 1_555
H33 C31 1_555 1_555
C32 C26 1_555 1_555
H34 C32 1_555 1_555
H35 C32 1_555 1_555
H36 C32 1_555 1_555
C33 C28 1_555 1_555
H37 C33 1_555 1_555
H38 C33 1_555 1_555
H39 C33 1_555 1_555
C34 C28 1_555 1_555
C35 C34 1_555 1_555
C36 C35 1_555 1_555
C37 C36 1_555 1_555
C38 C37 1_555 1_555
C39 C38 1_555 1_555
H40 C39 1_555 1_555
C40 C39 1_555 1_555
H41 C40 1_555 1_555
C41 C40 1_555 1_555
C42 C41 1_555 1_555
H42 C42 1_555 1_555
C43 C38 1_555 1_555
H43 C43 1_555 1_555
C44 O6 1_555 1_555
H44 C44 1_555 1_555
H45 C44 1_555 1_555
H46 C44 1_555 1_555
O7 C48 1_555 1_555
O8 C54 1_555 1_555
N3 H47 1_555 1_555
N4 C49 1_555 1_555
N5 H48 1_555 1_555
C45 H49 1_555 1_555
H50 C45 1_555 1_555
H51 C45 1_555 1_555
C46 C45 1_555 1_555
H52 C46 1_555 1_555
C47 C46 1_555 1_555
H53 C47 1_555 1_555
H54 C47 1_555 1_555
H55 C47 1_555 1_555
C48 N3 1_555 1_555
C49 N3 1_555 1_555
C50 C49 1_555 1_555
H56 C50 1_555 1_555
C51 C50 1_555 1_555
H57 C51 1_555 1_555
C52 C51 1_555 1_555
H58 C52 1_555 1_555
C53 N4 1_555 1_555
C54 N5 1_555 1_555
C55 C54 1_555 1_555
H59 C55 1_555 1_555
C56 C55 1_555 1_555
H60 C56 1_555 1_555
H61 C56 1_555 1_555
H62 C56 1_555 1_555
C57 C55 1_555 1_555
H63 C57 1_555 1_555
H64 C57 1_555 1_555
H65 C57 1_555 1_555
O9 C61 1_555 1_555
O10 C67 1_555 1_555
N6 H66 1_555 1_555
N7 C62 1_555 1_555
N8 H67 1_555 1_555
C58 H68 1_555 1_555
H69 C58 1_555 1_555
H70 C58 1_555 1_555
C59 C58 1_555 1_555
H71 C59 1_555 1_555
C60 C59 1_555 1_555
H72 C60 1_555 1_555
H73 C60 1_555 1_555
H74 C60 1_555 1_555
C61 N6 1_555 1_555
C62 N6 1_555 1_555
C63 C62 1_555 1_555
H75 C63 1_555 1_555
C64 C63 1_555 1_555
H76 C64 1_555 1_555
C65 C64 1_555 1_555
H77 C65 1_555 1_555
C66 N7 1_555 1_555
C67 N8 1_555 1_555
C68 C67 1_555 1_555
H78 C68 1_555 1_555
C69 C68 1_555 1_555
H79 C69 1_555 1_555
H80 C69 1_555 1_555
H81 C69 1_555 1_555
C70 C68 1_555 1_555
H82 C70 1_555 1_555
H83 C70 1_555 1_555
H84 C70 1_555 1_555
C4 C8 1_555 1_555
C6 C7 1_555 1_555
C20 C21 1_555 1_555
C26 C30 1_555 1_555
C28 C29 1_555 1_555
C42 C43 1_555 1_555
N5 C53 1_555 1_555
C46 C48 1_555 1_555
C52 C53 1_555 1_555
N8 C66 1_555 1_555
C59 C61 1_555 1_555
C65 C66 1_555 1_555

#END
