
#######################################################################
#
#                 Cambridge Crystallographic Data Centre
#                                CCDC 
#
#######################################################################
#
# If this CIF has been generated from an entry in the Cambridge 
# Structural Database, then it will include bibliographic, chemical, 
# crystal, experimental, refinement or atomic coordinate data resulting 
# from the CCDC's data processing and validation procedures.
#
#######################################################################

data_TEHVAE
_chemical_formula_moiety         'C17 H21 N1 O10'
_chemical_name_systematic        
N-(prop-2-ynyl)-1,2,3,4-tetra-O-acetyl-\b-D-glucopyranuronamide
_symmetry_cell_setting           orthorhombic
_symmetry_space_group_name_H-M   'P 21 21 21'
_symmetry_Int_Tables_number      19
_space_group_name_Hall           'P 2ac 2ab'
loop_
_symmetry_equiv_pos_site_id
_symmetry_equiv_pos_as_xyz
1 x,y,z
2 1/2-x,-y,1/2+z
3 -x,1/2+y,1/2-z
4 1/2+x,1/2-y,-z
_cell_length_a                   5.9422(5)
_cell_length_b                   17.2973(16)
_cell_length_c                   19.8338(18)
_cell_angle_alpha                90
_cell_angle_beta                 90
_cell_angle_gamma                90
_cell_volume                     2038.6
_exptl_crystal_colour            colorless
_exptl_crystal_description       block
_chemical_melting_point          '166-167 deg.C'
_cell_formula_units_Z            4
_exptl_crystal_recrystallization_method methanol
loop_
_atom_site_label
_atom_site_type_symbol
_atom_site_fract_x
_atom_site_fract_y
_atom_site_fract_z
O1 O 0.92674(18) 1.04353(6) 0.81781(5)
O2 O 0.54804(18) 0.75741(6) 0.83733(6)
O3 O 0.72198(19) 0.84851(6) 0.77669(5)
O4 O 1.2926(2) 1.01981(7) 0.79575(7)
O5 O 0.8373(2) 0.98158(6) 0.94516(5)
C1 C 0.5665(3) 0.83844(8) 0.83020(7)
H1 H 0.4177 0.8623 0.8192
O6 O 0.48626(19) 0.86719(6) 0.94501(6)
O7 O 0.5511(3) 1.06254(7) 0.96952(7)
O8 O 0.9534(2) 0.99018(6) 0.67035(6)
C2 C 0.7750(3) 0.92772(8) 0.76363(7)
H2 H 0.6342 0.9568 0.7527
O9 O 0.1883(2) 0.75838(7) 0.80174(8)
C3 C 0.7239(2) 0.95510(8) 0.88546(7)
H3 H 0.5860 0.9868 0.8770
C4 C 0.8858(2) 0.96242(7) 0.82699(7)
H4 H 1.0297 0.9349 0.8373
C5 C 1.1592(3) 1.15138(9) 0.79896(10)
H5 H 1.1134 1.1683 0.7538
H6 H 1.3151 1.1672 0.8073
H7 H 1.0606 1.1751 0.8327
N1 N 1.0568(3) 0.86706(7) 0.69292(7)
H8 H 1.0309 0.8247 0.7163
O10 O 0.7191(2) 0.81003(8) 1.01985(6)
C6 C 0.3500(3) 0.72310(9) 0.81955(8)
C7 C 0.3676(3) 0.63721(9) 0.82618(9)
H9 H 0.4588 0.6166 0.7891
H10 H 0.2168 0.6144 0.8245
H11 H 0.4388 0.6243 0.8693
C8 C 0.5411(3) 0.83896(9) 1.00707(8)
C9 C 0.6614(2) 0.87061(8) 0.89548(7)
H12 H 0.7952 0.8400 0.9104
C10 C 0.7339(3) 1.03710(9) 0.98185(8)
C11 C 1.1415(3) 1.06499(9) 0.80357(7)
C12 C 0.9360(3) 0.93101(8) 0.70388(7)
C13 C 0.3518(3) 0.85189(10) 1.05543(9)
H13 H 0.3574 0.9051 1.0722
H14 H 0.3659 0.8159 1.0934
H15 H 0.2081 0.8431 1.0324
C14 C 1.2966(3) 0.79151(10) 0.61901(9)
C15 C 1.2319(4) 0.86880(10) 0.64164(10)
H16 H 1.3659 0.8954 0.6601
H17 H 1.1777 0.8990 0.6025
C16 C 0.8836(5) 1.06078(13) 1.03935(9)
H18 H 0.8655 1.0242 1.0767
H19 H 0.8420 1.1128 1.0545
H20 H 1.0407 1.0607 1.0244
C17 C 1.3562(4) 0.73091(12) 0.59916(12)
H21 H 1.4045 0.6819 0.5831
loop_
_geom_bond_atom_site_label_1
_geom_bond_atom_site_label_2
_geom_bond_site_symmetry_1
_geom_bond_site_symmetry_2
O1 C4 1_555 1_555
O2 C1 1_555 1_555
O3 C1 1_555 1_555
O4 C11 1_555 1_555
O5 C3 1_555 1_555
C1 H1 1_555 1_555
O6 C8 1_555 1_555
O7 C10 1_555 1_555
O8 C12 1_555 1_555
C2 O3 1_555 1_555
H2 C2 1_555 1_555
O9 C6 1_555 1_555
C3 H3 1_555 1_555
C4 C2 1_555 1_555
H4 C4 1_555 1_555
C5 H5 1_555 1_555
H6 C5 1_555 1_555
H7 C5 1_555 1_555
N1 H8 1_555 1_555
O10 C8 1_555 1_555
C6 O2 1_555 1_555
C7 C6 1_555 1_555
H9 C7 1_555 1_555
H10 C7 1_555 1_555
H11 C7 1_555 1_555
C8 C13 1_555 1_555
C9 C1 1_555 1_555
H12 C9 1_555 1_555
C10 O5 1_555 1_555
C11 O1 1_555 1_555
C12 C2 1_555 1_555
C13 H13 1_555 1_555
H14 C13 1_555 1_555
H15 C13 1_555 1_555
C14 C15 1_555 1_555
C15 N1 1_555 1_555
H16 C15 1_555 1_555
H17 C15 1_555 1_555
C16 C10 1_555 1_555
H18 C16 1_555 1_555
H19 C16 1_555 1_555
H20 C16 1_555 1_555
C17 C14 1_555 1_555
H21 C17 1_555 1_555
O6 C9 1_555 1_555
C3 C4 1_555 1_555
C3 C9 1_555 1_555
C5 C11 1_555 1_555
N1 C12 1_555 1_555

#END
