
#######################################################################
#
#                 Cambridge Crystallographic Data Centre
#                                CCDC 
#
#######################################################################
#
# If this CIF has been generated from an entry in the Cambridge 
# Structural Database, then it will include bibliographic, chemical, 
# crystal, experimental, refinement or atomic coordinate data resulting 
# from the CCDC's data processing and validation procedures.
#
#######################################################################

data_TEJKUO19
_chemical_formula_moiety         'C6 H16 N1 1+,Br1 1-'
_chemical_name_systematic        'Di-isopropylammonium bromide'
_symmetry_cell_setting           monoclinic
_symmetry_space_group_name_H-M   'P 21'
_symmetry_Int_Tables_number      4
_space_group_name_Hall           'P 2yb'
loop_
_symmetry_equiv_pos_site_id
_symmetry_equiv_pos_as_xyz
1 x,y,z
2 -x,1/2+y,-z
_cell_length_a                   7.7923(12)
_cell_length_b                   8.0448(12)
_cell_length_c                   7.8554(12)
_cell_angle_alpha                90
_cell_angle_beta                 116.33(2)
_cell_angle_gamma                90
_cell_volume                     441.347
_cell_formula_units_Z            2
loop_
_atom_site_label
_atom_site_type_symbol
_atom_site_fract_x
_atom_site_fract_y
_atom_site_fract_z
Br1 Br 0.15012(3) 0.8871 0.36460(3)
C1 C 0.1127(3) 0.3844(9) 0.2989(3)
H1 H 0.1090 0.5020 0.3295
C2 C 0.3645(6) 0.3152(6) 0.6408(5)
H2 H 0.4626 0.2892 0.5989
C3 C 0.3863(6) 0.4955(7) 0.7045(7)
H3 H 0.3670 0.5665 0.5993
H4 H 0.5126 0.5128 0.8049
H5 H 0.2932 0.5211 0.7494
N1 N 0.1689(3) 0.2871(3) 0.4769(3)
H6 H 0.1600 0.1786 0.4461
H7 H 0.0811 0.3070 0.5196
C4 C 0.2564(4) 0.3658(9) 0.2201(4)
H8 H 0.3797 0.4026 0.3129
H9 H 0.2170 0.4317 0.1072
H10 H 0.2639 0.2512 0.1901
C5 C -0.0870(4) 0.3344(4) 0.1570(4)
H11 H -0.1244 0.3980 0.0426
H12 H -0.1749 0.3552 0.2098
H13 H -0.0886 0.2182 0.1285
C6 C 0.3864(5) 0.1978(4) 0.7989(5)
H14 H 0.5086 0.2153 0.9056
H15 H 0.3780 0.0852 0.7555
H16 H 0.2865 0.2183 0.8362
loop_
_geom_bond_atom_site_label_1
_geom_bond_atom_site_label_2
_geom_bond_site_symmetry_1
_geom_bond_site_symmetry_2
C1 H1 1_555 1_555
C2 H2 1_555 1_555
C3 C2 1_555 1_555
H3 C3 1_555 1_555
H4 C3 1_555 1_555
H5 C3 1_555 1_555
N1 C1 1_555 1_555
H6 N1 1_555 1_555
H7 N1 1_555 1_555
C4 C1 1_555 1_555
H8 C4 1_555 1_555
H9 C4 1_555 1_555
H10 C4 1_555 1_555
C5 C1 1_555 1_555
H11 C5 1_555 1_555
H12 C5 1_555 1_555
H13 C5 1_555 1_555
C6 C2 1_555 1_555
H14 C6 1_555 1_555
H15 C6 1_555 1_555
H16 C6 1_555 1_555
C2 N1 1_555 1_555

#END
