
#######################################################################
#
#                 Cambridge Crystallographic Data Centre
#                                CCDC 
#
#######################################################################
#
# If this CIF has been generated from an entry in the Cambridge 
# Structural Database, then it will include bibliographic, chemical, 
# crystal, experimental, refinement or atomic coordinate data resulting 
# from the CCDC's data processing and validation procedures.
#
#######################################################################

data_TEJKUO08
_chemical_formula_moiety         'C6 H16 N1 1+,Br1 1-'
_chemical_name_systematic        'Di-isopropylammonium bromide'
_symmetry_cell_setting           orthorhombic
_symmetry_space_group_name_H-M   'P 21 21 21'
_symmetry_Int_Tables_number      19
_space_group_name_Hall           'P 2ac 2ab'
loop_
_symmetry_equiv_pos_site_id
_symmetry_equiv_pos_as_xyz
1 x,y,z
2 1/2-x,-y,1/2+z
3 1/2+x,1/2-y,-z
4 -x,1/2+y,1/2-z
_cell_length_a                   8.0355(16)
_cell_length_b                   8.3336(17)
_cell_length_c                   13.618(3)
_cell_angle_alpha                90
_cell_angle_beta                 90
_cell_angle_gamma                90
_cell_volume                     911.925
_cell_formula_units_Z            4
loop_
_atom_site_label
_atom_site_type_symbol
_atom_site_fract_x
_atom_site_fract_y
_atom_site_fract_z
N1 N 0.1741(3) -0.3349(3) -1.09912(19)
H1 H 0.2003 -0.3107 -1.0366
H2 H 0.0648 -0.3152 -1.1066
C1 C 0.3815(4) -0.5559(5) -1.0991(4)
H3 H 0.3957 -0.6690 -1.1096
H4 H 0.4154 -0.5290 -1.0336
H5 H 0.4483 -0.4975 -1.1454
C2 C 0.2012(4) -0.5122(4) -1.1130(2)
H6 H 0.1683 -0.5408 -1.1801
C3 C 0.0875(5) -0.5990(4) -1.0419(3)
H7 H -0.0258 -0.5684 -1.0541
H8 H 0.1172 -0.5709 -0.9758
H9 H 0.0991 -0.7128 -1.0506
C4 C 0.2274(4) -0.2562(4) -1.2714(2)
H10 H 0.2880 -0.1839 -1.3131
H11 H 0.1102 -0.2424 -1.2821
H12 H 0.2582 -0.3647 -1.2866
C5 C 0.2682(4) -0.2208(4) -1.1652(3)
H13 H 0.3879 -0.2355 -1.1549
C6 C 0.2206(6) -0.0512(4) -1.1360(3)
H14 H 0.2501 -0.0333 -1.0685
H15 H 0.1028 -0.0370 -1.1440
H16 H 0.2787 0.0241 -1.1768
Br1 Br 0.26880(3) -0.25014(5) -0.86622(2)
loop_
_geom_bond_atom_site_label_1
_geom_bond_atom_site_label_2
_geom_bond_site_symmetry_1
_geom_bond_site_symmetry_2
N1 H1 1_555 1_555
H2 N1 1_555 1_555
C1 H3 1_555 1_555
H4 C1 1_555 1_555
H5 C1 1_555 1_555
C2 N1 1_555 1_555
H6 C2 1_555 1_555
C3 C2 1_555 1_555
H7 C3 1_555 1_555
H8 C3 1_555 1_555
H9 C3 1_555 1_555
C4 H10 1_555 1_555
H11 C4 1_555 1_555
H12 C4 1_555 1_555
C5 N1 1_555 1_555
H13 C5 1_555 1_555
C6 C5 1_555 1_555
H14 C6 1_555 1_555
H15 C6 1_555 1_555
H16 C6 1_555 1_555
C1 C2 1_555 1_555
C4 C5 1_555 1_555

#END
