
#######################################################################
#
#                 Cambridge Crystallographic Data Centre
#                                CCDC 
#
#######################################################################
#
# If this CIF has been generated from an entry in the Cambridge 
# Structural Database, then it will include bibliographic, chemical, 
# crystal, experimental, refinement or atomic coordinate data resulting 
# from the CCDC's data processing and validation procedures.
#
#######################################################################

data_TEJPEE
_chemical_formula_moiety         'C7 H6 O4 S5,H2 O1'
_chemical_name_systematic        
'4,5-bis(Carboxymethylsulfanyl)-1,3-dithiole-2-thione monohydrate'
_symmetry_cell_setting           monoclinic
_symmetry_space_group_name_H-M   'P 21/c'
_symmetry_Int_Tables_number      14
_space_group_name_Hall           '-P 2ybc'
loop_
_symmetry_equiv_pos_site_id
_symmetry_equiv_pos_as_xyz
1 x,y,z
2 -x,1/2+y,1/2-z
3 -x,-y,-z
4 x,1/2-y,1/2+z
_cell_length_a                   12.5548(10)
_cell_length_b                   10.8325(8)
_cell_length_c                   9.5073(7)
_cell_angle_alpha                90
_cell_angle_beta                 104.5770(10)
_cell_angle_gamma                90
_cell_volume                     1251.37
_exptl_crystal_colour            red
_exptl_crystal_description       block
_chemical_melting_point          '445-447 K'
_cell_formula_units_Z            4
_exptl_crystal_recrystallization_method ethanol
loop_
_atom_site_label
_atom_site_type_symbol
_atom_site_fract_x
_atom_site_fract_y
_atom_site_fract_z
S1 S -0.08879(4) 0.41038(4) 0.32164(5)
S2 S 0.04825(3) 0.32038(3) 0.12796(4)
S3 S 0.08162(3) 0.56769(3) 0.24382(4)
S4 S 0.22474(3) 0.34486(4) -0.03837(4)
S5 S 0.25977(3) 0.62642(4) 0.08938(4)
O1 O 0.33537(10) 0.03077(11) 0.15923(15)
H1 H 0.3804 0.0139 0.2355
O2 O 0.37785(12) 0.22436(12) 0.23083(14)
O3 O 0.40644(10) 0.49824(10) 0.34930(13)
O4 O 0.45006(11) 0.66638(11) 0.48790(13)
H2 H 0.4900 0.6177 0.5430
C1 C 0.00890(12) 0.43111(13) 0.23686(16)
C2 C 0.15449(11) 0.40416(13) 0.08406(15)
C3 C 0.16934(11) 0.52050(13) 0.13718(15)
C4 C 0.23935(13) 0.18349(15) 0.00849(18)
H3 H 0.1689 0.1532 0.0183
H4 H 0.2567 0.1393 -0.0717
C5 C 0.32561(12) 0.15186(14) 0.14582(17)
C6 C 0.32532(13) 0.69443(14) 0.26227(18)
H5 H 0.3697 0.7636 0.2457
H6 H 0.2687 0.7268 0.3053
C7 C 0.39745(12) 0.60813(14) 0.36970(16)
O5 O 0.48709(11) 0.92970(13) 0.37441(15)
H7 H 0.5457 0.9172 0.3431
H8 H 0.4966 0.9436 0.4665
loop_
_geom_bond_atom_site_label_1
_geom_bond_atom_site_label_2
_geom_bond_site_symmetry_1
_geom_bond_site_symmetry_2
S1 C1 1_555 1_555
S2 C1 1_555 1_555
S3 C1 1_555 1_555
S4 C2 1_555 1_555
S5 C3 1_555 1_555
O1 H1 1_555 1_555
O2 C5 1_555 1_555
O3 C7 1_555 1_555
O4 H2 1_555 1_555
O5 H7 1_555 1_555
C2 S2 1_555 1_555
C3 S3 1_555 1_555
C4 S4 1_555 1_555
H3 C4 1_555 1_555
H4 C4 1_555 1_555
C5 O1 1_555 1_555
C6 S5 1_555 1_555
H5 C6 1_555 1_555
H6 C6 1_555 1_555
C7 O4 1_555 1_555
H8 O5 1_555 1_555
C2 C3 1_555 1_555
C4 C5 1_555 1_555
C6 C7 1_555 1_555

#END
