
#######################################################################
#
#                 Cambridge Crystallographic Data Centre
#                                CCDC 
#
#######################################################################
#
# If this CIF has been generated from an entry in the Cambridge 
# Structural Database, then it will include bibliographic, chemical, 
# crystal, experimental, refinement or atomic coordinate data resulting 
# from the CCDC's data processing and validation procedures.
#
#######################################################################

data_TEJSIL
_chemical_formula_moiety         'C19 H16 F6 S4'
_chemical_name_systematic        
1-(2,5-Dimethyl-3-thienyl)-2-(5-(1,3-dithiolan-2-yl)-2-methyl-3-thienyl)-3,3,4,4,5,5-hexafluorocyclopent-1-ene
_symmetry_cell_setting           triclinic
_symmetry_space_group_name_H-M   'P -1'
_symmetry_Int_Tables_number      2
_space_group_name_Hall           '-P 1'
loop_
_symmetry_equiv_pos_site_id
_symmetry_equiv_pos_as_xyz
1 x,y,z
2 -x,-y,-z
_cell_length_a                   8.954(3)
_cell_length_b                   10.305(3)
_cell_length_c                   13.329(3)
_cell_angle_alpha                100.471(14)
_cell_angle_beta                 106.617(16)
_cell_angle_gamma                111.010(17)
_cell_volume                     1043.14
_exptl_crystal_colour            colorless
_exptl_crystal_description       prism
_chemical_melting_point          '387.7 K'
_cell_formula_units_Z            2
_chemical_properties_physical    light-sensitive
_exptl_crystal_recrystallization_method chloroform
_exptl_crystal_preparation       photochromic
loop_
_atom_site_label
_atom_site_type_symbol
_atom_site_fract_x
_atom_site_fract_y
_atom_site_fract_z
S1 S 1.01847(7) 0.76934(7) 0.49747(5)
S2 S 1.27327(11) 0.58176(8) 0.45668(7)
S3 S 1.45941(9) 0.88807(8) 0.60356(7)
S4 S 0.34589(8) 0.42826(7) 0.14151(6)
F1 F 0.5752(3) 0.83867(18) -0.00798(13)
F2 F 0.5240(2) 0.96406(17) 0.11254(16)
F3 F 0.8162(3) 1.1671(2) 0.1958(2)
F4 F 0.8440(3) 1.0860(2) 0.04884(16)
F5 F 1.0284(2) 0.9623(2) 0.14039(14)
F6 F 1.0714(2) 1.12416(18) 0.28393(14)
C1 C 0.8448(3) 0.8844(2) 0.23455(18)
C2 C 0.6749(3) 0.8273(2) 0.17270(18)
C3 C 0.6401(3) 0.9164(3) 0.0990(2)
C4 C 0.8123(4) 1.0440(3) 0.1278(2)
C5 C 0.9462(3) 1.0061(3) 0.1999(2)
C6 C 0.8782(3) 0.8120(2) 0.40667(18)
C7 C 0.9348(3) 0.8423(2) 0.32407(17)
C8 C 1.0932(3) 0.8320(2) 0.33697(19)
H1 H 1.1501 0.8514 0.2891
C9 C 1.1533(3) 0.7913(2) 0.42565(19)
C10 C 1.3144(3) 0.7709(3) 0.4635(2)
H2 H 1.3755 0.7976 0.4146
C12 C 1.3224(8) 0.6101(5) 0.6000(4)
H5 H 1.3463 0.5335 0.6217
H6 H 1.2254 0.6110 0.6168
C13 C 1.4710(5) 0.7537(3) 0.6657(3)
H7 H 1.5894 0.7881 0.7167
H8 H 1.3987 0.7428 0.7086
C14 C 0.7252(3) 0.8168(3) 0.4278(2)
H9 H 0.6955 0.8863 0.3980
H10 H 0.7526 0.8457 0.5059
H11 H 0.6290 0.7215 0.3930
C15 C 0.5396(3) 0.5614(2) 0.15406(18)
C16 C 0.5313(3) 0.6930(2) 0.16426(18)
C17 C 0.3668(3) 0.6830(3) 0.16073(19)
H12 H 0.3400 0.7626 0.1654
C18 C 0.2533(3) 0.5479(3) 0.1500(2)
C19 C 0.6826(3) 0.5221(3) 0.1477(2)
H13 H 0.7482 0.5837 0.1147
H14 H 0.6345 0.4214 0.1035
H15 H 0.7571 0.5361 0.2207
C20 C 0.0714(3) 0.4962(3) 0.1450(3)
H16 H 0.0350 0.5727 0.1400
H17 H 0.0665 0.4717 0.2105
H18 H -0.0038 0.4112 0.0813
C11? C 1.4175(9) 0.6089(6) 0.5887(4)
H3? H 1.5031 0.5731 0.5902
H4? H 1.3376 0.5491 0.6151
loop_
_geom_bond_atom_site_label_1
_geom_bond_atom_site_label_2
_geom_bond_site_symmetry_1
_geom_bond_site_symmetry_2
S1 C6 1_555 1_555
S2 C10 1_555 1_555
S3 C10 1_555 1_555
S4 C15 1_555 1_555
F1 C3 1_555 1_555
F2 C3 1_555 1_555
F3 C4 1_555 1_555
F4 C4 1_555 1_555
F5 C5 1_555 1_555
F6 C5 1_555 1_555
C1 C2 1_555 1_555
C2 C3 1_555 1_555
C3 C4 1_555 1_555
C4 C5 1_555 1_555
C5 C1 1_555 1_555
C6 C7 1_555 1_555
C7 C1 1_555 1_555
C8 C7 1_555 1_555
H1 C8 1_555 1_555
C9 S1 1_555 1_555
C10 C9 1_555 1_555
H2 C10 1_555 1_555
C12 S2 1_555 1_555
H5 C12 1_555 1_555
H6 C12 1_555 1_555
C13 S3 1_555 1_555
H7 C13 1_555 1_555
H8 C13 1_555 1_555
C14 C6 1_555 1_555
H9 C14 1_555 1_555
H10 C14 1_555 1_555
H11 C14 1_555 1_555
C15 C16 1_555 1_555
C16 C2 1_555 1_555
C17 C16 1_555 1_555
H12 C17 1_555 1_555
C18 S4 1_555 1_555
C19 C15 1_555 1_555
H13 C19 1_555 1_555
H14 C19 1_555 1_555
H15 C19 1_555 1_555
C20 C18 1_555 1_555
H16 C20 1_555 1_555
H17 C20 1_555 1_555
H18 C20 1_555 1_555
C8 C9 1_555 1_555
C12 C13 1_555 1_555
C17 C18 1_555 1_555

#END
