
#######################################################################
#
#                 Cambridge Crystallographic Data Centre
#                                CCDC 
#
#######################################################################
#
# If this CIF has been generated from an entry in the Cambridge 
# Structural Database, then it will include bibliographic, chemical, 
# crystal, experimental, refinement or atomic coordinate data resulting 
# from the CCDC's data processing and validation procedures.
#
#######################################################################

data_TEKBAP
_chemical_formula_moiety         'C33 H33 N2 1+,F6 P1 1-'
_chemical_name_systematic        
'1,1,3-trimethyl-2-[3-(1,1,3-trimethyl-1,3-dihydro-2H-benzo[e]indol-2-ylidene)prop-1-en-1-yl]-1H-benzo[e]indol-3-ium hexafluorophosphate'
_symmetry_cell_setting           monoclinic
_symmetry_space_group_name_H-M   'I 2'
_symmetry_Int_Tables_number      5
_space_group_name_Hall           'I 2y'
loop_
_symmetry_equiv_pos_site_id
_symmetry_equiv_pos_as_xyz
1 x,y,z
2 -x,y,-z
3 1/2+x,1/2+y,1/2+z
4 1/2-x,1/2+y,1/2-z
_cell_length_a                   6.9784(18)
_cell_length_b                   10.685(3)
_cell_length_c                   20.041(5)
_cell_angle_alpha                90
_cell_angle_beta                 90.00
_cell_angle_gamma                90
_cell_volume                     1494.34
_cell_formula_units_Z            2
loop_
_atom_site_label
_atom_site_type_symbol
_atom_site_fract_x
_atom_site_fract_y
_atom_site_fract_z
P1 P 0.5000 0.30635(13) 1.0000
F1 F 0.3428(5) 0.4123(4) 1.00001(19)
F2 F 0.6601(7) 0.2074(4) 1.00014(18)
F3 F 0.4993(6) 0.3036(4) 0.92196(15)
F1A F 0.6572(5) 0.4123(4) 0.99999(19)
F2A F 0.3399(7) 0.2074(4) 0.99986(18)
F3A F 0.5007(6) 0.3036(4) 1.07804(15)
N1 N 0.4998(3) 0.6989(2) 0.82009(12)
C1 C 0.5005(5) 1.0501(4) 0.61476(18)
H1 H 0.5015 1.0265 0.5701
C2 C 0.4993(6) 1.1728(5) 0.6311(2)
H2 H 0.4979 1.2327 0.5974
C3 C 0.5003(5) 1.2107(4) 0.6973(2)
H3 H 0.5015 1.2956 0.7075
C4 C 0.4995(5) 1.1248(3) 0.74758(18)
H4 H 0.4988 1.1518 0.7917
C5 C 0.4997(4) 0.9945(3) 0.73350(16)
C6 C 0.5001(4) 0.9566(4) 0.66538(16)
C7 C 0.5004(5) 0.8263(4) 0.64904(18)
H5 H 0.5009 0.8024 0.6044
C8 C 0.4999(5) 0.7376(4) 0.69667(18)
H6 H 0.4994 0.6531 0.6855
C9 C 0.5000(4) 0.7759(3) 0.76363(16)
C10 C 0.4993(5) 0.8983(3) 0.78247(15)
C11 C 0.5001(4) 0.9072(3) 0.85805(15)
C12 C 0.5000(4) 0.7676(3) 0.87693(16)
C13 C 0.5004(5) 0.5626(3) 0.81723(19)
H7 H 0.3843 0.5310 0.8366
H8 H 0.6085 0.5311 0.8416
H9 H 0.5088 0.5360 0.7716
C14 C 0.6823(4) 0.9719(3) 0.88475(16)
H10 H 0.6781 1.0594 0.8740
H11 H 0.7933 0.9347 0.8646
H12 H 0.6888 0.9620 0.9323
C15 C 0.3177(4) 0.9720(3) 0.88444(16)
H13 H 0.2067 0.9328 0.8653
H14 H 0.3199 1.0589 0.8723
H15 H 0.3129 0.9646 0.9322
C16 C 0.5008(5) 0.7127(3) 0.93957(16)
H16 H 0.5021 0.6257 0.9412
C17 C 0.5000 0.7755(5) 1.0000
H17 H 0.5000 0.8625 1.0000
N1A N 0.5002(3) 0.6989(2) 1.17991(12)
C1A C 0.4995(5) 1.0501(4) 1.38524(18)
H1A H 0.4985 1.0265 1.4299
C2A C 0.5007(6) 1.1728(5) 1.3689(2)
H2A H 0.5021 1.2327 1.4026
C3A C 0.4997(5) 1.2107(4) 1.3027(2)
H3A H 0.4985 1.2956 1.2925
C4A C 0.5005(5) 1.1248(3) 1.25242(18)
H4A H 0.5012 1.1518 1.2083
C5A C 0.5003(4) 0.9945(3) 1.26650(16)
C6A C 0.4999(4) 0.9566(4) 1.33462(16)
C7A C 0.4996(5) 0.8263(4) 1.35096(18)
H5A H 0.4991 0.8024 1.3956
C8A C 0.5001(5) 0.7376(4) 1.30333(18)
H6A H 0.5006 0.6531 1.3145
C9A C 0.5000(4) 0.7759(3) 1.23637(16)
C10A C 0.5007(5) 0.8983(3) 1.21753(15)
C11A C 0.4999(4) 0.9072(3) 1.14195(15)
C12A C 0.5000(4) 0.7676(3) 1.12307(16)
C13A C 0.4996(5) 0.5626(3) 1.18277(19)
H7A H 0.6157 0.5310 1.1634
H8A H 0.3915 0.5311 1.1584
H9A H 0.4912 0.5360 1.2284
C14A C 0.3177(4) 0.9719(3) 1.11525(16)
H10A H 0.3219 1.0594 1.1260
H11A H 0.2067 0.9347 1.1354
H12A H 0.3112 0.9620 1.0677
C15A C 0.6823(4) 0.9720(3) 1.11556(16)
H13A H 0.7933 0.9328 1.1347
H14A H 0.6801 1.0589 1.1277
H15A H 0.6871 0.9646 1.0678
C16A C 0.4992(5) 0.7127(3) 1.06043(16)
H16A H 0.4979 0.6257 1.0588
loop_
_geom_bond_atom_site_label_1
_geom_bond_atom_site_label_2
_geom_bond_site_symmetry_1
_geom_bond_site_symmetry_2
P1 F1 1_555 1_555
F2 P1 1_555 1_555
F3 P1 1_555 1_555
N1 C9 1_555 1_555
C1 H1 1_555 1_555
C2 C1 1_555 1_555
H2 C2 1_555 1_555
C3 C2 1_555 1_555
H3 C3 1_555 1_555
C4 C3 1_555 1_555
H4 C4 1_555 1_555
C5 C4 1_555 1_555
C6 C1 1_555 1_555
C7 C6 1_555 1_555
H5 C7 1_555 1_555
C8 C7 1_555 1_555
H6 C8 1_555 1_555
C9 C8 1_555 1_555
C10 C5 1_555 1_555
C11 C10 1_555 1_555
C12 N1 1_555 1_555
C13 N1 1_555 1_555
H7 C13 1_555 1_555
H8 C13 1_555 1_555
H9 C13 1_555 1_555
C14 C11 1_555 1_555
H10 C14 1_555 1_555
H11 C14 1_555 1_555
H12 C14 1_555 1_555
C15 C11 1_555 1_555
H13 C15 1_555 1_555
H14 C15 1_555 1_555
H15 C15 1_555 1_555
C16 C12 1_555 1_555
H16 C16 1_555 1_555
C17 C16 1_555 1_555
H17 C17 1_555 1_555
F1A P1 1_555 1_555
F2A P1 1_555 1_555
F3A P1 1_555 1_555
N1A C9A 1_555 1_555
C1A H1A 1_555 1_555
C2A C1A 1_555 1_555
H2A C2A 1_555 1_555
C3A C2A 1_555 1_555
H3A C3A 1_555 1_555
C4A C3A 1_555 1_555
H4A C4A 1_555 1_555
C5A C4A 1_555 1_555
C6A C1A 1_555 1_555
C7A C6A 1_555 1_555
H5A C7A 1_555 1_555
C8A C7A 1_555 1_555
H6A C8A 1_555 1_555
C9A C8A 1_555 1_555
C10A C5A 1_555 1_555
C11A C10A 1_555 1_555
C12A N1A 1_555 1_555
C13A N1A 1_555 1_555
H7A C13A 1_555 1_555
H8A C13A 1_555 1_555
H9A C13A 1_555 1_555
C14A C11A 1_555 1_555
H10A C14A 1_555 1_555
H11A C14A 1_555 1_555
H12A C14A 1_555 1_555
C15A C11A 1_555 1_555
H13A C15A 1_555 1_555
H14A C15A 1_555 1_555
H15A C15A 1_555 1_555
C16A C17 1_555 1_555
H16A C16A 1_555 1_555
C5 C6 1_555 1_555
C9 C10 1_555 1_555
C11 C12 1_555 1_555
C5A C6A 1_555 1_555
C9A C10A 1_555 1_555
C11A C12A 1_555 1_555
C12A C16A 1_555 1_555

#END
