
#######################################################################
#
#                 Cambridge Crystallographic Data Centre
#                                CCDC 
#
#######################################################################
#
# If this CIF has been generated from an entry in the Cambridge 
# Structural Database, then it will include bibliographic, chemical, 
# crystal, experimental, refinement or atomic coordinate data resulting 
# from the CCDC's data processing and validation procedures.
#
#######################################################################

data_TEKQUY
_chemical_formula_moiety         'C17 H12 Cl1 N3 O1'
_chemical_name_systematic        
7-chloro-4-(4-methylphenyl)pyrazolo[1,5-a]quinazolin-5(4H)-one
_symmetry_cell_setting           monoclinic
_symmetry_space_group_name_H-M   'P 21/c'
_symmetry_Int_Tables_number      14
_space_group_name_Hall           '-P 2ybc'
loop_
_symmetry_equiv_pos_site_id
_symmetry_equiv_pos_as_xyz
1 x,y,z
2 -x,1/2+y,1/2-z
3 -x,-y,-z
4 x,1/2-y,1/2+z
_cell_length_a                   7.3150(19)
_cell_length_b                   15.531(4)
_cell_length_c                   13.424(3)
_cell_angle_alpha                90
_cell_angle_beta                 116.600(11)
_cell_angle_gamma                90
_cell_volume                     1363.67
_exptl_crystal_colour            colorless
_exptl_crystal_description       Prism
_cell_formula_units_Z            4
loop_
_atom_site_label
_atom_site_type_symbol
_atom_site_fract_x
_atom_site_fract_y
_atom_site_fract_z
Cl1 Cl 0.98905(9) 1.17765(3) 0.60892(5)
O1 O 0.9039(3) 0.83918(10) 0.63828(14)
N1 N 0.6424(3) 0.79629(12) 0.47535(15)
N2 N 0.4693(3) 0.89911(12) 0.33357(15)
N3 N 0.3084(3) 0.90863(13) 0.22998(16)
C1 C 0.8596(3) 1.01299(14) 0.57039(19)
H1 H 0.9587 1.0013 0.6424
C2 C 0.8333(3) 1.09550(14) 0.5286(2)
C3 C 0.6867(3) 1.11437(14) 0.4217(2)
H2 H 0.6717 1.1705 0.3951
C4 C 0.5625(3) 1.04987(15) 0.3545(2)
H3 H 0.4636 1.0619 0.2826
C5 C 0.5887(3) 0.96661(14) 0.39655(19)
C6 C 0.7357(3) 0.94707(14) 0.50345(18)
C7 C 0.7704(3) 0.85829(14) 0.54677(18)
C8 C 0.4906(3) 0.81649(13) 0.36988(19)
C9 C 0.3415(3) 0.76923(15) 0.28761(19)
H4 H 0.3169 0.7104 0.2871
C10 C 0.2346(3) 0.82941(14) 0.2048(2)
H5 H 0.1223 0.8153 0.1381
C11 C 0.6768(3) 0.70678(14) 0.50601(18)
C12 C 0.6562(3) 0.67688(14) 0.5973(2)
H6 H 0.6177 0.7141 0.6388
C13 C 0.6933(3) 0.59132(15) 0.6261(2)
H7 H 0.6784 0.5712 0.6873
C14 C 0.7524(3) 0.53417(14) 0.56616(19)
C15 C 0.7690(3) 0.56572(14) 0.47366(18)
H8 H 0.8047 0.5285 0.4310
C16 C 0.7333(3) 0.65152(14) 0.44405(18)
H9 H 0.7473 0.6720 0.3827
C17 C 0.7960(4) 0.44174(15) 0.6001(2)
H10 H 0.6971 0.4208 0.6229
H11 H 0.9305 0.4368 0.6610
H12 H 0.7885 0.4083 0.5382
loop_
_geom_bond_atom_site_label_1
_geom_bond_atom_site_label_2
_geom_bond_site_symmetry_1
_geom_bond_site_symmetry_2
Cl1 C2 1_555 1_555
O1 C7 1_555 1_555
N1 C7 1_555 1_555
N2 N3 1_555 1_555
N3 C10 1_555 1_555
C1 H1 1_555 1_555
C2 C1 1_555 1_555
C3 C2 1_555 1_555
H2 C3 1_555 1_555
C4 C3 1_555 1_555
H3 C4 1_555 1_555
C5 N2 1_555 1_555
C6 C1 1_555 1_555
C7 C6 1_555 1_555
C8 N1 1_555 1_555
C9 C8 1_555 1_555
H4 C9 1_555 1_555
C10 C9 1_555 1_555
H5 C10 1_555 1_555
C11 N1 1_555 1_555
C12 C11 1_555 1_555
H6 C12 1_555 1_555
C13 C12 1_555 1_555
H7 C13 1_555 1_555
C14 C13 1_555 1_555
C15 C14 1_555 1_555
H8 C15 1_555 1_555
C16 C11 1_555 1_555
H9 C16 1_555 1_555
C17 C14 1_555 1_555
H10 C17 1_555 1_555
H11 C17 1_555 1_555
H12 C17 1_555 1_555
N2 C8 1_555 1_555
C4 C5 1_555 1_555
C5 C6 1_555 1_555
C15 C16 1_555 1_555

#END
