
#######################################################################
#
#                 Cambridge Crystallographic Data Centre
#                                CCDC 
#
#######################################################################
#
# If this CIF has been generated from an entry in the Cambridge 
# Structural Database, then it will include bibliographic, chemical, 
# crystal, experimental, refinement or atomic coordinate data resulting 
# from the CCDC's data processing and validation procedures.
#
#######################################################################

data_TEKVIR
_chemical_formula_moiety         'C20 H24 B1 F1 N2 O2,2(C1 H1 Cl3)'
_chemical_name_systematic        
'(2,3-dimethylbutane-2,3-diolato)-(3-fluoro-(1,2,3,4-tetrahydroquinazolin-2-yl)phenyl)-boron chloroform solvate'
_symmetry_cell_setting           triclinic
_symmetry_space_group_name_H-M   'P -1'
_symmetry_Int_Tables_number      2
_space_group_name_Hall           '-P 1'
loop_
_symmetry_equiv_pos_site_id
_symmetry_equiv_pos_as_xyz
1 x,y,z
2 -x,-y,-z
_cell_length_a                   10.6408(19)
_cell_length_b                   10.9101(19)
_cell_length_c                   12.125(2)
_cell_angle_alpha                82.127(2)
_cell_angle_beta                 75.954(2)
_cell_angle_gamma                89.447(3)
_cell_volume                     1352.25
_exptl_crystal_colour            colorless
_exptl_crystal_description       Irregular
_cell_formula_units_Z            2
_exptl_crystal_recrystallization_method chloroform
loop_
_atom_site_label
_atom_site_type_symbol
_atom_site_fract_x
_atom_site_fract_y
_atom_site_fract_z
B1 B 0.4763(2) 0.8717(2) 0.68507(19)
O1 O 0.48159(14) 0.77215(13) 0.77468(12)
O2 O 0.35994(14) 0.93819(13) 0.72134(12)
C1 C 0.3840(2) 0.7921(2) 0.87639(17)
C2 C 0.2813(2) 0.8709(2) 0.82656(18)
C3 C 0.4476(3) 0.8625(3) 0.9499(2)
C4 C 0.3347(3) 0.6658(2) 0.9418(2)
C5 C 0.2134(3) 0.9664(3) 0.8993(2)
C6 C 0.1797(2) 0.7917(3) 0.7983(2)
C7 C 0.60719(19) 0.95539(18) 0.62969(17)
C8 C 0.68197(19) 0.91333(18) 0.53088(17)
C9 C 0.8000(2) 0.9709(2) 0.47497(18)
C10 C 0.8452(2) 1.0721(2) 0.5122(2)
C11 C 0.7710(2) 1.1151(2) 0.6091(2)
C12 C 0.6532(2) 1.0573(2) 0.66820(19)
C13 C 0.62045(19) 0.80258(19) 0.50146(16)
C14 C 0.4138(2) 0.69008(19) 0.56182(18)
C15 C 0.4463(2) 0.65496(19) 0.44180(18)
C16 C 0.5509(2) 0.71142(19) 0.35656(17)
C17 C 0.5702(3) 0.6849(2) 0.2437(2)
C18 C 0.4879(3) 0.6034(2) 0.2170(2)
C19 C 0.3845(3) 0.5460(2) 0.3012(2)
C20 C 0.3648(3) 0.5722(2) 0.4128(2)
N1 N 0.63738(17) 0.79570(17) 0.38112(15)
N2 N 0.47885(16) 0.80946(16) 0.56297(14)
F1 F 0.87432(13) 0.92762(14) 0.38112(12)
H1 H 0.640(2) 0.869(3) 0.342(2)
H2 H 0.447(3) 0.866(3) 0.519(2)
H3 H 0.384(3) 0.877(3) 1.021(3)
H4 H 0.480(3) 0.946(3) 0.911(3)
H5 H 0.519(4) 0.817(3) 0.969(3)
H6 H 0.268(3) 0.677(3) 1.007(3)
H7 H 0.406(3) 0.620(3) 0.967(3)
H8 H 0.301(3) 0.615(3) 0.897(3)
H9 H 0.175(3) 0.925(3) 0.974(3)
H10 H 0.267(3) 1.023(3) 0.910(3)
H11 H 0.150(3) 1.011(3) 0.863(3)
H12 H 0.218(3) 0.723(3) 0.759(2)
H13 H 0.123(3) 0.751(3) 0.864(3)
H14 H 0.134(3) 0.846(3) 0.751(3)
H15 H 0.928(3) 1.107(3) 0.471(2)
H16 H 0.802(3) 1.179(3) 0.634(3)
H17 H 0.603(3) 1.090(3) 0.737(2)
H18 H 0.649(2) 0.731(2) 0.536(2)
H19 H 0.440(2) 0.627(2) 0.618(2)
H20 H 0.322(3) 0.700(2) 0.587(2)
H21 H 0.641(3) 0.722(3) 0.186(2)
H22 H 0.501(3) 0.585(3) 0.142(3)
H23 H 0.324(3) 0.492(3) 0.283(3)
H24 H 0.291(3) 0.539(3) 0.471(3)
C21 C 0.9209(3) 0.6661(3) 0.2777(2)
Cl1 Cl 0.97397(11) 0.61836(9) 0.40254(8)
Cl2 Cl 1.03901(11) 0.76397(10) 0.18163(8)
Cl3 Cl 0.88436(12) 0.53659(11) 0.22055(13)
H25 H 0.848(3) 0.711(3) 0.298(3)
C22 C 0.2281(2) 0.2489(2) 0.1905(2)
Cl4 Cl 0.24540(10) 0.37429(9) 0.08044(7)
Cl5 Cl 0.16791(8) 0.11635(8) 0.15254(9)
Cl6 Cl 0.12585(7) 0.28871(7) 0.31684(6)
H26 H 0.310(3) 0.232(3) 0.204(2)
loop_
_geom_bond_atom_site_label_1
_geom_bond_atom_site_label_2
_geom_bond_site_symmetry_1
_geom_bond_site_symmetry_2
B1 O1 1_555 1_555
O1 C1 1_555 1_555
O2 B1 1_555 1_555
C1 C2 1_555 1_555
C2 O2 1_555 1_555
C3 C1 1_555 1_555
C4 C1 1_555 1_555
C5 C2 1_555 1_555
C6 C2 1_555 1_555
C7 B1 1_555 1_555
C8 C7 1_555 1_555
C9 C8 1_555 1_555
C10 C9 1_555 1_555
C11 C10 1_555 1_555
C12 C7 1_555 1_555
C13 C8 1_555 1_555
C14 C15 1_555 1_555
C15 C16 1_555 1_555
C16 C17 1_555 1_555
C17 C18 1_555 1_555
C18 C19 1_555 1_555
C19 C20 1_555 1_555
C20 C15 1_555 1_555
N1 C13 1_555 1_555
N2 B1 1_555 1_555
F1 C9 1_555 1_555
H1 N1 1_555 1_555
H2 N2 1_555 1_555
H3 C3 1_555 1_555
H4 C3 1_555 1_555
H5 C3 1_555 1_555
H6 C4 1_555 1_555
H7 C4 1_555 1_555
H8 C4 1_555 1_555
H9 C5 1_555 1_555
H10 C5 1_555 1_555
H11 C5 1_555 1_555
H12 C6 1_555 1_555
H13 C6 1_555 1_555
H14 C6 1_555 1_555
H15 C10 1_555 1_555
H16 C11 1_555 1_555
H17 C12 1_555 1_555
H18 C13 1_555 1_555
H19 C14 1_555 1_555
H20 C14 1_555 1_555
H21 C17 1_555 1_555
H22 C18 1_555 1_555
H23 C19 1_555 1_555
H24 C20 1_555 1_555
C21 Cl1 1_555 1_555
Cl2 C21 1_555 1_555
Cl3 C21 1_555 1_555
H25 C21 1_555 1_555
C22 Cl4 1_555 1_555
Cl5 C22 1_555 1_555
Cl6 C22 1_555 1_555
H26 C22 1_555 1_555
C11 C12 1_555 1_555
C13 N2 1_555 1_555
C14 N2 1_555 1_555
C16 N1 1_555 1_555

#END
