
#######################################################################
#
#                 Cambridge Crystallographic Data Centre
#                                CCDC 
#
#######################################################################
#
# If this CIF has been generated from an entry in the Cambridge 
# Structural Database, then it will include bibliographic, chemical, 
# crystal, experimental, refinement or atomic coordinate data resulting 
# from the CCDC's data processing and validation procedures.
#
#######################################################################

data_TELJEB
_chemical_formula_moiety         'C9 H11 N1 O1 Se1'
_chemical_name_systematic        N-(2-Hydroxyethyl)benzenecarboselenoamide
_symmetry_cell_setting           monoclinic
_symmetry_space_group_name_H-M   'P 21/n'
_symmetry_Int_Tables_number      14
_space_group_name_Hall           '-P 2yn'
loop_
_symmetry_equiv_pos_site_id
_symmetry_equiv_pos_as_xyz
1 x,y,z
2 1/2-x,1/2+y,1/2-z
3 -x,-y,-z
4 1/2+x,1/2-y,1/2+z
_cell_length_a                   9.598(3)
_cell_length_b                   8.166(2)
_cell_length_c                   12.750(4)
_cell_angle_alpha                90
_cell_angle_beta                 103.190(4)
_cell_angle_gamma                90
_cell_volume                     972.947
_exptl_crystal_colour            orange
_exptl_crystal_description       prism
_cell_formula_units_Z            4
loop_
_atom_site_label
_atom_site_type_symbol
_atom_site_fract_x
_atom_site_fract_y
_atom_site_fract_z
Se1 Se 0.48251(3) 0.64317(4) 0.28989(2)
O1 O 0.96813(19) 0.5946(2) 0.59037(15)
H1 H 0.974(4) 0.658(4) 0.634(3)
N1 N 0.7580(2) 0.5600(3) 0.39515(15)
H2 H 0.843(3) 0.522(3) 0.3957(19)
C1 C 0.8411(3) 0.5032(3) 0.58564(19)
H3 H 0.8154 0.5094 0.6548
H4 H 0.8588 0.3891 0.5718
C2 C 0.7186(3) 0.5650(3) 0.49936(18)
H5 H 0.6348 0.4974 0.4968
H6 H 0.6955 0.6764 0.5155
C3 C 0.6721(3) 0.5960(3) 0.30307(18)
C4 C 0.7383(3) 0.5988(3) 0.20816(19)
C5 C 0.8716(3) 0.6699(3) 0.2169(2)
H7 H 0.9204 0.7130 0.2825
C6 C 0.9326(3) 0.6774(4) 0.1285(3)
H8 H 1.0218 0.7259 0.1349
C7 C 0.8614(4) 0.6131(4) 0.0313(2)
H9 H 0.9020 0.6190 -0.0282
C8 C 0.7314(3) 0.5408(4) 0.0224(2)
H10 H 0.6847 0.4951 -0.0430
C9 C 0.6682(3) 0.5348(3) 0.10960(19)
H11 H 0.5783 0.4877 0.1020
loop_
_geom_bond_atom_site_label_1
_geom_bond_atom_site_label_2
_geom_bond_site_symmetry_1
_geom_bond_site_symmetry_2
Se1 C3 1_555 1_555
O1 H1 1_555 1_555
N1 H2 1_555 1_555
C1 O1 1_555 1_555
H3 C1 1_555 1_555
H4 C1 1_555 1_555
C2 N1 1_555 1_555
H5 C2 1_555 1_555
H6 C2 1_555 1_555
C3 N1 1_555 1_555
C4 C3 1_555 1_555
C5 C4 1_555 1_555
H7 C5 1_555 1_555
C6 C5 1_555 1_555
H8 C6 1_555 1_555
C7 C6 1_555 1_555
H9 C7 1_555 1_555
C8 C7 1_555 1_555
H10 C8 1_555 1_555
C9 C4 1_555 1_555
H11 C9 1_555 1_555
C1 C2 1_555 1_555
C8 C9 1_555 1_555

#END
