
#######################################################################
#
#                 Cambridge Crystallographic Data Centre
#                                CCDC 
#
#######################################################################
#
# If this CIF has been generated from an entry in the Cambridge 
# Structural Database, then it will include bibliographic, chemical, 
# crystal, experimental, refinement or atomic coordinate data resulting 
# from the CCDC's data processing and validation procedures.
#
#######################################################################

data_TELLEB
_chemical_formula_moiety         'C21 H16 N4 S1'
_chemical_name_systematic        
6-(4-Methylphenyl)-3-(1-naphthylmethylene)-s-triazolo(3,4-b)(1,3,4)thiadiazole
_symmetry_cell_setting           triclinic
_symmetry_space_group_name_H-M   'P -1'
_symmetry_Int_Tables_number      2
_space_group_name_Hall           '-P 1'
loop_
_symmetry_equiv_pos_site_id
_symmetry_equiv_pos_as_xyz
1 x,y,z
2 -x,-y,-z
_cell_length_a                   9.430(1)
_cell_length_b                   10.007(1)
_cell_length_c                   10.023(2)
_cell_angle_alpha                90.29(1)
_cell_angle_beta                 109.01(1)
_cell_angle_gamma                104.1(1)
_cell_volume                     863.622
_exptl_crystal_colour            colorless
_chemical_melting_point          452-453K
_cell_formula_units_Z            2
loop_
_atom_site_label
_atom_site_type_symbol
_atom_site_fract_x
_atom_site_fract_y
_atom_site_fract_z
S1 S 0.6115(1) 0.49991(9) 0.3069(1)
N1 N 0.5179(3) 0.2522(3) 0.1722(3)
N2 N 0.4680(3) 0.2482(3) 0.2872(3)
N3 N 0.3760(4) 0.2047(3) 0.4590(3)
N4 N 0.4535(4) 0.3461(3) 0.4774(3)
C1 C 0.8796(5) 0.5466(5) -0.2532(5)
C2 C 0.8067(4) 0.5017(4) -0.1422(4)
C3 C 0.7181(5) 0.3680(4) -0.1477(4)
C4 C 0.6481(5) 0.3268(4) -0.0476(4)
C5 C 0.6664(4) 0.4216(4) 0.0633(4)
C6 C 0.7526(5) 0.5554(4) 0.0680(4)
C7 C 0.8216(5) 0.5955(4) -0.0329(4)
C8 C 0.5959(4) 0.3776(4) 0.1714(4)
C9 C 0.5056(4) 0.3678(4) 0.3719(4)
C10 C 0.3871(4) 0.1478(4) 0.3451(4)
C11 C 0.3266(4) -0.0018(4) 0.2906(4)
C12 C 0.1928(4) -0.0738(4) 0.3377(4)
C13 C 0.2165(5) -0.1661(4) 0.4398(4)
C14 C 0.0961(5) -0.2314(4) 0.4901(4)
C15 C -0.0449(5) -0.2056(4) 0.4413(4)
C16 C -0.0742(4) -0.1137(4) 0.3344(4)
C17 C -0.2225(5) -0.0866(5) 0.2802(5)
C18 C -0.2501(5) 0.0037(5) 0.1770(5)
C19 C -0.1317(6) 0.0698(5) 0.1273(5)
C20 C 0.0130(5) 0.0461(4) 0.1770(4)
C21 C 0.0459(4) -0.0471(4) 0.2836(4)
H1 H 1.013(5) 0.604(5) -0.202(5)
H2 H 0.936(5) 0.495(5) -0.261(5)
H3 H 0.788(5) 0.517(5) -0.359(5)
H4 H 0.684(5) 0.304(5) -0.233(5)
H5 H 0.538(5) 0.228(5) -0.088(5)
H6 H 0.794(5) 0.616(5) 0.155(5)
H7 H 0.905(5) 0.686(5) -0.010(5)
H8 H 0.427(5) -0.036(5) 0.334(5)
H9 H 0.284(5) 0.001(5) 0.176(5)
H10 H 0.327(5) -0.164(5) 0.488(5)
H11 H 0.133(5) -0.291(5) 0.584(5)
H12 H -0.137(5) -0.259(5) 0.469(5)
H13 H -0.321(5) -0.140(5) 0.300(5)
H14 H -0.349(5) -0.005(5) 0.143(5)
H15 H -0.157(5) 0.127(5) 0.041(5)
H16 H 0.116(5) 0.098(5) 0.151(5)
loop_
_geom_bond_atom_site_label_1
_geom_bond_atom_site_label_2
_geom_bond_site_symmetry_1
_geom_bond_site_symmetry_2
S1 C8 1_555 1_555
N1 N2 1_555 1_555
N2 C9 1_555 1_555
N3 N4 1_555 1_555
N4 C9 1_555 1_555
C1 C2 1_555 1_555
C2 C3 1_555 1_555
C3 C4 1_555 1_555
C4 C5 1_555 1_555
C5 C6 1_555 1_555
C6 C7 1_555 1_555
C7 C2 1_555 1_555
C8 N1 1_555 1_555
C9 S1 1_555 1_555
C10 N2 1_555 1_555
C11 C10 1_555 1_555
C12 C11 1_555 1_555
C13 C12 1_555 1_555
C14 C13 1_555 1_555
C15 C14 1_555 1_555
C16 C15 1_555 1_555
C17 C16 1_555 1_555
C18 C17 1_555 1_555
C19 C18 1_555 1_555
C20 C19 1_555 1_555
C21 C12 1_555 1_555
H1 C1 1_555 1_555
H2 C1 1_555 1_555
H3 C1 1_555 1_555
H4 C3 1_555 1_555
H5 C4 1_555 1_555
H6 C6 1_555 1_555
H7 C7 1_555 1_555
H8 C11 1_555 1_555
H9 C11 1_555 1_555
H10 C13 1_555 1_555
H11 C14 1_555 1_555
H12 C15 1_555 1_555
H13 C17 1_555 1_555
H14 C18 1_555 1_555
H15 C19 1_555 1_555
H16 C20 1_555 1_555
N3 C10 1_555 1_555
C5 C8 1_555 1_555
C16 C21 1_555 1_555
C20 C21 1_555 1_555

#END
