
#######################################################################
#
#                 Cambridge Crystallographic Data Centre
#                                CCDC 
#
#######################################################################
#
# If this CIF has been generated from an entry in the Cambridge 
# Structural Database, then it will include bibliographic, chemical, 
# crystal, experimental, refinement or atomic coordinate data resulting 
# from the CCDC's data processing and validation procedures.
#
#######################################################################

data_TELTEM
_chemical_formula_moiety         'C21 H24 Br1 N1 O1'
_chemical_name_systematic        
(4-bromophenyl)(2-butyl-4-methyl-3,4-dihydroquinolin-1(2H)-yl)methanone
_symmetry_cell_setting           monoclinic
_symmetry_space_group_name_H-M   'P 21/n'
_symmetry_Int_Tables_number      14
_space_group_name_Hall           '-P 2yn'
loop_
_symmetry_equiv_pos_site_id
_symmetry_equiv_pos_as_xyz
1 x,y,z
2 1/2-x,1/2+y,1/2-z
3 -x,-y,-z
4 1/2+x,1/2-y,1/2+z
_cell_length_a                   14.1542(6)
_cell_length_b                   9.9175(3)
_cell_length_c                   14.8720(6)
_cell_angle_alpha                90
_cell_angle_beta                 112.819(5)
_cell_angle_gamma                90
_cell_volume                     1924.26
_exptl_crystal_colour            colorless
_exptl_crystal_description       block
_cell_formula_units_Z            4
loop_
_atom_site_label
_atom_site_type_symbol
_atom_site_fract_x
_atom_site_fract_y
_atom_site_fract_z
Br1 Br 0.57768(3) 0.17868(4) 0.02368(3)
N1 N 0.91263(11) -0.14143(17) -0.14759(11)
C1 C 0.83163(14) -0.10074(18) -0.23544(12)
C2 C 1.01141(15) -0.1805(2) -0.15378(14)
H1 H 1.0663 -0.1627 -0.0901
O1 O 0.96823(13) -0.20494(19) 0.01057(11)
C3 C 0.90479(15) -0.1464(2) -0.05898(13)
C4 C 0.79274(15) 0.0593(2) -0.08291(13)
H2 H 0.8235 0.0965 -0.1222
C5 C 0.81952(14) -0.0700(2) -0.04602(12)
C6 C 0.73280(15) -0.1511(2) -0.26279(14)
H3 H 0.7180 -0.2145 -0.2240
C7 C 0.67491(17) 0.0756(2) -0.00504(16)
C8 C 0.72125(16) 0.1334(2) -0.06209(15)
H4 H 0.7045 0.2206 -0.0860
C9 C 0.77391(18) -0.1243(2) 0.01343(15)
H5 H 0.7930 -0.2096 0.0403
C10 C 1.01391(17) -0.3298(2) -0.17537(17)
H6 H 0.9620 -0.3489 -0.2395
H7 H 0.9971 -0.3812 -0.1280
C11 C 0.65679(17) -0.1061(2) -0.34797(16)
H8 H 0.5901 -0.1375 -0.3659
C12 C 0.85634(17) -0.0083(2) -0.29371(14)
C13 C 1.03094(18) -0.0918(3) -0.2297(2)
H9 H 1.1028 -0.0668 -0.2045
H10 H 1.0169 -0.1444 -0.2885
C14 C 0.7000(2) -0.0520(3) 0.03285(18)
H11 H 0.6680 -0.0893 0.0710
C15 C 0.7784(2) 0.0325(3) -0.38005(16)
H12 H 0.7930 0.0928 -0.4208
C16 C 0.9664(2) 0.0360(2) -0.25630(19)
H13 H 0.9805 0.0869 -0.1960
C17 C 1.11780(18) -0.3756(3) -0.17225(19)
H14 H 1.1342 -0.3243 -0.2198
H15 H 1.1696 -0.3557 -0.1083
C18 C 0.6794(2) -0.0151(3) -0.40640(16)
H16 H 0.6279 0.0146 -0.4639
C19 C 1.1221(2) -0.5246(3) -0.1930(2)
H17 H 1.0720 -0.5443 -0.2578
H18 H 1.1038 -0.5762 -0.1467
C20 C 0.9941(3) 0.1255(3) -0.3252(3)
H19 H 0.9805 0.0783 -0.3853
H20 H 1.0655 0.1484 -0.2959
H21 H 0.9537 0.2064 -0.3380
C21 C 1.2271(3) -0.5691(4) -0.1865(3)
H22 H 1.2456 -0.5186 -0.2323
H23 H 1.2255 -0.6635 -0.2014
H24 H 1.2767 -0.5534 -0.1216
loop_
_geom_bond_atom_site_label_1
_geom_bond_atom_site_label_2
_geom_bond_site_symmetry_1
_geom_bond_site_symmetry_2
Br1 C7 1_555 1_555
N1 C1 1_555 1_555
C1 C6 1_555 1_555
C2 N1 1_555 1_555
H1 C2 1_555 1_555
O1 C3 1_555 1_555
C3 N1 1_555 1_555
C4 H2 1_555 1_555
C5 C3 1_555 1_555
C6 H3 1_555 1_555
C7 C8 1_555 1_555
C8 C4 1_555 1_555
H4 C8 1_555 1_555
C9 C5 1_555 1_555
H5 C9 1_555 1_555
C10 C2 1_555 1_555
H6 C10 1_555 1_555
H7 C10 1_555 1_555
C11 C6 1_555 1_555
H8 C11 1_555 1_555
C12 C1 1_555 1_555
C13 C2 1_555 1_555
H9 C13 1_555 1_555
H10 C13 1_555 1_555
C14 C7 1_555 1_555
H11 C14 1_555 1_555
C15 C12 1_555 1_555
H12 C15 1_555 1_555
C16 C12 1_555 1_555
H13 C16 1_555 1_555
C17 C10 1_555 1_555
H14 C17 1_555 1_555
H15 C17 1_555 1_555
C18 C11 1_555 1_555
H16 C18 1_555 1_555
C19 C17 1_555 1_555
H17 C19 1_555 1_555
H18 C19 1_555 1_555
C20 C16 1_555 1_555
H19 C20 1_555 1_555
H20 C20 1_555 1_555
H21 C20 1_555 1_555
C21 C19 1_555 1_555
H22 C21 1_555 1_555
H23 C21 1_555 1_555
H24 C21 1_555 1_555
C4 C5 1_555 1_555
C9 C14 1_555 1_555
C13 C16 1_555 1_555
C15 C18 1_555 1_555

#END
