
#######################################################################
#
#                 Cambridge Crystallographic Data Centre
#                                CCDC 
#
#######################################################################
#
# If this CIF has been generated from an entry in the Cambridge 
# Structural Database, then it will include bibliographic, chemical, 
# crystal, experimental, refinement or atomic coordinate data resulting 
# from the CCDC's data processing and validation procedures.
#
#######################################################################

data_TELTIQ
_chemical_formula_moiety         'C27 H28 Br1 N1 O1'
_chemical_name_systematic        
(4-bromophenyl)(2-butyl-4-methyl-3-phenyl-3,4-dihydroquinolin-1(2H)-yl)methanone
_symmetry_cell_setting           monoclinic
_symmetry_space_group_name_H-M   'P 21/n'
_symmetry_Int_Tables_number      14
_space_group_name_Hall           '-P 2yn'
loop_
_symmetry_equiv_pos_site_id
_symmetry_equiv_pos_as_xyz
1 x,y,z
2 1/2-x,1/2+y,1/2-z
3 -x,-y,-z
4 1/2+x,1/2-y,1/2+z
_cell_length_a                   9.5415(2)
_cell_length_b                   14.9292(2)
_cell_length_c                   17.0189(3)
_cell_angle_alpha                90
_cell_angle_beta                 101.753(2)
_cell_angle_gamma                90
_cell_volume                     2373.46
_exptl_crystal_description       block
_cell_formula_units_Z            4
loop_
_atom_site_label
_atom_site_type_symbol
_atom_site_fract_x
_atom_site_fract_y
_atom_site_fract_z
Br1 Br 0.87443(4) 0.90459(2) 0.48827(2)
O1 O 0.83977(19) 0.46914(10) 0.58528(8)
N1 N 0.73446(16) 0.44377(10) 0.45604(9)
C1 C 0.80022(19) 0.59764(12) 0.50424(11)
C2 C 0.7910(2) 0.49884(13) 0.51848(11)
C3 C 0.66367(18) 0.47485(13) 0.37916(10)
C4 C 0.75965(19) 0.34565(12) 0.46712(11)
H1 H 0.8536 0.3397 0.5030
C5 C 0.77427(19) 0.30017(13) 0.38704(11)
H2 H 0.8514 0.2561 0.4011
C6 C 0.8720(2) 0.72468(14) 0.43453(11)
H3 H 0.9062 0.7484 0.3915
C7 C 0.71197(19) 0.44023(14) 0.31347(11)
C8 C 0.6453(2) 0.24903(13) 0.34050(11)
C9 C 0.7727(2) 0.65513(14) 0.56346(11)
H4 H 0.7410 0.6318 0.6074
C10 C 0.84983(19) 0.63359(14) 0.43980(11)
H5 H 0.8684 0.5959 0.3996
C11 C 0.5087(2) 0.28472(14) 0.31772(12)
H6 H 0.4904 0.3420 0.3346
C12 C 0.8282(2) 0.37086(15) 0.33297(12)
H7 H 0.9119 0.4002 0.3658
C13 C 0.8425(2) 0.77954(14) 0.49397(11)
C14 C 0.6531(2) 0.30208(14) 0.51111(11)
H8 H 0.6460 0.3384 0.5574
H9 H 0.5595 0.3010 0.4758
C15 C 0.7918(2) 0.74623(15) 0.55795(12)
H10 H 0.7707 0.7845 0.5970
C16 C 0.5475(2) 0.53230(15) 0.36972(13)
H11 H 0.5146 0.5531 0.4142
C17 C 0.6664(3) 0.16296(15) 0.31504(15)
H12 H 0.7561 0.1366 0.3305
C18 C 0.3993(2) 0.23632(18) 0.27025(13)
H13 H 0.3085 0.2614 0.2556
C19 C 0.6416(3) 0.46634(18) 0.23760(13)
H14 H 0.6713 0.4439 0.1927
C20 C 0.6940(3) 0.20728(15) 0.53887(14)
H15 H 0.7017 0.1712 0.4925
H16 H 0.7876 0.2085 0.5743
C21 C 0.4239(3) 0.15178(19) 0.24468(15)
H17 H 0.3505 0.1197 0.2124
C22 C 0.5566(3) 0.11511(18) 0.26694(17)
H18 H 0.5739 0.0577 0.2499
C23 C 0.4813(3) 0.5583(2) 0.29329(17)
H19 H 0.4049 0.5982 0.2861
C24 C 0.8763(3) 0.3295(2) 0.26082(16)
H20 H 0.9463 0.2837 0.2789
H21 H 0.9177 0.3750 0.2329
H22 H 0.7953 0.3036 0.2253
C25 C 0.5281(3) 0.5252(2) 0.22778(15)
H23 H 0.4829 0.5428 0.1764
C26 C 0.5897(3) 0.1632(2) 0.5821(2)
H24 H 0.5803 0.2002 0.6276
H25 H 0.4968 0.1608 0.5462
C27 C 0.6305(5) 0.0708(3) 0.6115(3)
H26 H 0.6379 0.0331 0.5668
H27 H 0.5589 0.0473 0.6381
H28 H 0.7211 0.0726 0.6485
loop_
_geom_bond_atom_site_label_1
_geom_bond_atom_site_label_2
_geom_bond_site_symmetry_1
_geom_bond_site_symmetry_2
Br1 C13 1_555 1_555
O1 C2 1_555 1_555
N1 C2 1_555 1_555
C1 C2 1_555 1_555
C3 N1 1_555 1_555
C4 N1 1_555 1_555
H1 C4 1_555 1_555
C5 C4 1_555 1_555
H2 C5 1_555 1_555
C6 H3 1_555 1_555
C7 C3 1_555 1_555
C8 C5 1_555 1_555
C9 C1 1_555 1_555
H4 C9 1_555 1_555
C10 C1 1_555 1_555
H5 C10 1_555 1_555
C11 C8 1_555 1_555
H6 C11 1_555 1_555
C12 C5 1_555 1_555
H7 C12 1_555 1_555
C13 C6 1_555 1_555
C14 C4 1_555 1_555
H8 C14 1_555 1_555
H9 C14 1_555 1_555
C15 C9 1_555 1_555
H10 C15 1_555 1_555
C16 C3 1_555 1_555
H11 C16 1_555 1_555
C17 C8 1_555 1_555
H12 C17 1_555 1_555
C18 C11 1_555 1_555
H13 C18 1_555 1_555
C19 C7 1_555 1_555
H14 C19 1_555 1_555
C20 C14 1_555 1_555
H15 C20 1_555 1_555
H16 C20 1_555 1_555
C21 C18 1_555 1_555
H17 C21 1_555 1_555
C22 C17 1_555 1_555
H18 C22 1_555 1_555
C23 C16 1_555 1_555
H19 C23 1_555 1_555
C24 C12 1_555 1_555
H20 C24 1_555 1_555
H21 C24 1_555 1_555
H22 C24 1_555 1_555
C25 C19 1_555 1_555
H23 C25 1_555 1_555
C26 C20 1_555 1_555
H24 C26 1_555 1_555
H25 C26 1_555 1_555
C27 C26 1_555 1_555
H26 C27 1_555 1_555
H27 C27 1_555 1_555
H28 C27 1_555 1_555
C6 C10 1_555 1_555
C7 C12 1_555 1_555
C13 C15 1_555 1_555
C21 C22 1_555 1_555
C23 C25 1_555 1_555

#END
