
#######################################################################
#
#                 Cambridge Crystallographic Data Centre
#                                CCDC 
#
#######################################################################
#
# If this CIF has been generated from an entry in the Cambridge 
# Structural Database, then it will include bibliographic, chemical, 
# crystal, experimental, refinement or atomic coordinate data resulting 
# from the CCDC's data processing and validation procedures.
#
#######################################################################

data_TELYOB
_chemical_formula_moiety         'C21 H17 N2 O1 1+,C2 F3 O2 1-'
_chemical_name_systematic        
'3-{2-[4-(1,3-benzoxazol-2-yl)phenyl]ethenyl}-1-methylpyridin-1-ium trifluoroacetate'
_symmetry_cell_setting           monoclinic
_symmetry_space_group_name_H-M   'P 21/c'
_symmetry_Int_Tables_number      14
_space_group_name_Hall           '-P 2ybc'
loop_
_symmetry_equiv_pos_site_id
_symmetry_equiv_pos_as_xyz
1 x,y,z
2 -x,1/2+y,1/2-z
3 -x,-y,-z
4 x,1/2-y,1/2+z
_cell_length_a                   19.817(2)
_cell_length_b                   8.4268(9)
_cell_length_c                   12.4459(14)
_cell_angle_alpha                90
_cell_angle_beta                 101.220(1)
_cell_angle_gamma                90
_cell_volume                     2038.67
_exptl_crystal_colour            yellow
_exptl_crystal_description       block
_cell_formula_units_Z            4
loop_
_atom_site_label
_atom_site_type_symbol
_atom_site_fract_x
_atom_site_fract_y
_atom_site_fract_z
O1 O 0.43709(6) 0.38309(16) 0.38049(9)
C1 C 0.49287(9) 0.2408(2) 0.54155(13)
C2 C 0.43415(9) 0.3313(2) 0.48389(14)
N1 N 0.37833(8) 0.3688(2) 0.51762(13)
C3 C 0.66050(10) -0.0328(2) 0.71466(15)
H1 H 0.6525 -0.0861 0.7764
C4 C 0.60374(9) 0.0606(2) 0.65363(14)
C5 C 0.77889(10) -0.1425(2) 0.75259(15)
C6 C 0.54997(10) 0.2117(2) 0.49481(14)
H2 H 0.5513 0.2518 0.4256
C7 C 0.54614(10) 0.0900(2) 0.69936(15)
H3 H 0.5443 0.0482 0.7679
C8 C 0.49192(10) 0.1796(2) 0.64546(14)
H4 H 0.4545 0.1994 0.6784
C9 C 0.72239(10) -0.0490(2) 0.69052(16)
H5 H 0.7306 0.0037 0.6287
C10 C 0.37561(9) 0.4620(2) 0.34662(15)
C11 C 0.60454(10) 0.1243(2) 0.54981(14)
H6 H 0.6425 0.1073 0.5177
N2 N 0.89569(9) -0.2225(2) 0.77180(15)
C12 C 0.84123(11) -0.1384(3) 0.71989(17)
H7 H 0.8459 -0.0759 0.6602
C13 C 0.83135(13) -0.3201(3) 0.89581(19)
H8 H 0.8282 -0.3819 0.9565
C14 C 0.89154(13) -0.3125(3) 0.8594(2)
H9 H 0.9297 -0.3693 0.8949
C15 C 0.28822(12) 0.6107(3) 0.23782(19)
H10 H 0.2697 0.6628 0.1729
C16 C 0.33959(10) 0.4538(2) 0.43082(16)
C17 C 0.35254(11) 0.5396(3) 0.24913(17)
H11 H 0.3783 0.5442 0.1943
C18 C 0.77489(12) -0.2364(3) 0.84290(17)
H12 H 0.7337 -0.2428 0.8679
C19 C 0.27540(12) 0.5279(3) 0.4186(2)
H13 H 0.2500 0.5251 0.4740
C20 C 0.25131(12) 0.6053(3) 0.3212(2)
H14 H 0.2088 0.6556 0.3113
C21 C 0.96006(15) -0.2176(5) 0.7288(3)
H15 H 0.9543 -0.1482 0.6666
H16 H 0.9968 -0.1792 0.7847
H17 H 0.9710 -0.3225 0.7073
O2 O 0.17618(10) 0.6468(2) -0.02605(16)
C22 C 0.11504(13) 0.6724(3) -0.03020(19)
O3 O 0.06594(13) 0.5908(3) -0.0700(2)
C23 C 0.09873(16) 0.8216(4) 0.0293(3)
F1 F 0.1534(4) 0.8663(7) 0.1057(5)
F2 F 0.0446(5) 0.8467(13) 0.0561(8)
F3 F 0.1012(3) 0.9471(6) -0.0515(7)
F4? F 0.1024(4) 0.7737(10) 0.1428(4)
F5? F 0.1287(4) 0.9425(9) 0.0258(9)
F6? F 0.0297(4) 0.8498(11) 0.0030(8)
loop_
_geom_bond_atom_site_label_1
_geom_bond_atom_site_label_2
_geom_bond_site_symmetry_1
_geom_bond_site_symmetry_2
O1 C2 1_555 1_555
C1 C2 1_555 1_555
C2 N1 1_555 1_555
N1 C16 1_555 1_555
C3 H1 1_555 1_555
C4 C3 1_555 1_555
C5 C9 1_555 1_555
C6 C1 1_555 1_555
H2 C6 1_555 1_555
C7 C4 1_555 1_555
H3 C7 1_555 1_555
C8 C1 1_555 1_555
H4 C8 1_555 1_555
C9 C3 1_555 1_555
H5 C9 1_555 1_555
C10 O1 1_555 1_555
C11 C4 1_555 1_555
H6 C11 1_555 1_555
N2 C12 1_555 1_555
C12 C5 1_555 1_555
H7 C12 1_555 1_555
C13 H8 1_555 1_555
C14 N2 1_555 1_555
H9 C14 1_555 1_555
C15 H10 1_555 1_555
C16 C10 1_555 1_555
C17 C10 1_555 1_555
H11 C17 1_555 1_555
C18 C5 1_555 1_555
H12 C18 1_555 1_555
C19 C16 1_555 1_555
H13 C19 1_555 1_555
C20 C15 1_555 1_555
H14 C20 1_555 1_555
C21 N2 1_555 1_555
H15 C21 1_555 1_555
H16 C21 1_555 1_555
H17 C21 1_555 1_555
O2 C22 1_555 1_555
C22 O3 1_555 1_555
C23 C22 1_555 1_555
F1 C23 1_555 1_555
F2 C23 1_555 1_555
F3 C23 1_555 1_555
C6 C11 1_555 1_555
C7 C8 1_555 1_555
C13 C14 1_555 1_555
C13 C18 1_555 1_555
C15 C17 1_555 1_555
C19 C20 1_555 1_555

#END
