
#######################################################################
#
#                 Cambridge Crystallographic Data Centre
#                                CCDC 
#
#######################################################################
#
# If this CIF has been generated from an entry in the Cambridge 
# Structural Database, then it will include bibliographic, chemical, 
# crystal, experimental, refinement or atomic coordinate data resulting 
# from the CCDC's data processing and validation procedures.
#
#######################################################################

data_TENCAT
_chemical_formula_moiety         'C50 H42 N2 O4 S4,2(C7 H8)'
_chemical_name_systematic        
'7-[2,6-di-isopropylphenyl]-2-{7-[2,6-di-isopropylphenyl]-6,8-dioxo-7,8-dihydro-2H,6H-[1,3]benzodithiolo[5,6-f]isoindol-2-ylidene}-2H,6H-[1,3]benzodithiolo[5,6-f]isoindole-6,8(7H)-dione toluene solvate'
_symmetry_cell_setting           triclinic
_symmetry_space_group_name_H-M   'P -1'
_symmetry_Int_Tables_number      2
_space_group_name_Hall           '-P 1'
loop_
_symmetry_equiv_pos_site_id
_symmetry_equiv_pos_as_xyz
1 x,y,z
2 -x,-y,-z
_cell_length_a                   7.958(3)
_cell_length_b                   8.297(3)
_cell_length_c                   21.443(8)
_cell_angle_alpha                96.864(6)
_cell_angle_beta                 92.263(5)
_cell_angle_gamma                109.280(6)
_cell_volume                     1322.13
_exptl_crystal_colour            yellow
_exptl_crystal_description       prism
_cell_formula_units_Z            1
loop_
_atom_site_label
_atom_site_type_symbol
_atom_site_fract_x
_atom_site_fract_y
_atom_site_fract_z
C1 C 0.0578(5) 0.0584(5) 0.52237(19)
C2 C 0.2181(5) 0.2429(5) 0.62842(18)
C3 C 0.2627(5) 0.3141(5) 0.69076(19)
H1 H 0.1908 0.2639 0.7224
C4 C 0.4164(5) 0.4627(5) 0.7074(2)
C5 C 0.4615(6) 0.5448(5) 0.77083(19)
H2 H 0.3890 0.5006 0.8032
C6 C 0.6109(5) 0.6887(5) 0.78450(19)
C7 C 0.7179(5) 0.7560(5) 0.73672(19)
C8 C 0.6830(5) 0.6827(5) 0.6753(2)
H3 H 0.7586 0.7302 0.6441
C9 C 0.5285(5) 0.5319(5) 0.65927(19)
C10 C 0.4809(5) 0.4523(5) 0.59583(19)
H4 H 0.5553 0.4950 0.5637
C11 C 0.3268(5) 0.3132(5) 0.58104(18)
C12 C 0.6895(5) 0.8006(5) 0.84570(19)
C13 C 0.8635(5) 0.9141(5) 0.76582(19)
C14 C 0.9556(5) 1.0769(5) 0.87403(19)
C15 C 0.9238(6) 1.2324(5) 0.8745(2)
C16 C 1.0386(6) 1.3751(6) 0.9148(2)
H5 H 1.0228 1.4840 0.9156
C17 C 1.1745(6) 1.3601(6) 0.9533(2)
H6 H 1.2504 1.4584 0.9805
C18 C 1.2011(6) 1.2032(5) 0.9527(2)
H7 H 1.2929 1.1941 0.9803
C19 C 1.0937(5) 1.0580(5) 0.91192(19)
C20 C 0.7729(6) 1.2523(6) 0.8343(2)
H8 H 0.7046 1.1370 0.8099
C21 C 0.6442(6) 1.3090(6) 0.8757(2)
H9 H 0.6128 1.2357 0.9091
H10 H 0.5357 1.2980 0.8498
H11 H 0.7018 1.4294 0.8948
C22 C 0.8441(6) 1.3793(6) 0.7866(2)
H12 H 0.9105 1.4940 0.8093
H13 H 0.7436 1.3852 0.7602
H14 H 0.9235 1.3390 0.7599
C23 C 1.1276(6) 0.8857(5) 0.9080(2)
H15 H 1.0090 0.7914 0.9038
C24 C 1.2351(6) 0.8702(6) 0.9664(2)
H16 H 1.3549 0.9569 0.9700
H17 H 1.2448 0.7548 0.9625
H18 H 1.1745 0.8890 1.0041
C25 C 1.2238(6) 0.8590(6) 0.8488(2)
H19 H 1.1537 0.8673 0.8114
H20 H 1.2366 0.7449 0.8449
H21 H 1.3422 0.9480 0.8523
N1 N 0.8431(4) 0.9298(4) 0.83070(15)
O1 O 0.6380(4) 0.7898(4) 0.89764(13)
O2 O 0.9801(4) 1.0157(4) 0.74070(14)
S1 S 0.02495(14) 0.06401(14) 0.60298(5)
S2 S 0.25416(14) 0.21133(14) 0.50326(5)
C1A C -0.0578(5) -0.0584(5) 0.47763(19)
C2A C -0.2181(5) -0.2429(5) 0.37158(18)
C3A C -0.2627(5) -0.3141(5) 0.30924(19)
H1A H -0.1908 -0.2639 0.2776
C4A C -0.4164(5) -0.4627(5) 0.2926(2)
C5A C -0.4615(6) -0.5448(5) 0.22917(19)
H2A H -0.3890 -0.5006 0.1968
C6A C -0.6109(5) -0.6887(5) 0.21550(19)
C7A C -0.7179(5) -0.7560(5) 0.26328(19)
C8A C -0.6830(5) -0.6827(5) 0.3247(2)
H3A H -0.7586 -0.7302 0.3559
C9A C -0.5285(5) -0.5319(5) 0.34073(19)
C10A C -0.4809(5) -0.4523(5) 0.40417(19)
H4A H -0.5553 -0.4950 0.4363
C11A C -0.3268(5) -0.3132(5) 0.41896(18)
C12A C -0.6895(5) -0.8006(5) 0.15430(19)
C13A C -0.8635(5) -0.9141(5) 0.23418(19)
C14A C -0.9556(5) -1.0769(5) 0.12597(19)
C15A C -0.9238(6) -1.2324(5) 0.1255(2)
C16A C -1.0386(6) -1.3751(6) 0.0852(2)
H5A H -1.0228 -1.4840 0.0844
C17A C -1.1745(6) -1.3601(6) 0.0467(2)
H6A H -1.2504 -1.4584 0.0195
C18A C -1.2011(6) -1.2032(5) 0.0473(2)
H7A H -1.2929 -1.1941 0.0197
C19A C -1.0937(5) -1.0580(5) 0.08808(19)
C20A C -0.7729(6) -1.2523(6) 0.1657(2)
H8A H -0.7046 -1.1370 0.1901
C21A C -0.6442(6) -1.3090(6) 0.1243(2)
H9A H -0.6128 -1.2357 0.0909
H10A H -0.5357 -1.2980 0.1502
H11A H -0.7018 -1.4294 0.1052
C22A C -0.8441(6) -1.3793(6) 0.2134(2)
H12A H -0.9105 -1.4940 0.1907
H13A H -0.7436 -1.3852 0.2398
H14A H -0.9235 -1.3390 0.2401
C23A C -1.1276(6) -0.8857(5) 0.0920(2)
H15A H -1.0090 -0.7914 0.0962
C24A C -1.2351(6) -0.8702(6) 0.0336(2)
H16A H -1.3549 -0.9569 0.0300
H17A H -1.2448 -0.7548 0.0375
H18A H -1.1745 -0.8890 -0.0041
C25A C -1.2238(6) -0.8590(6) 0.1512(2)
H19A H -1.1537 -0.8673 0.1886
H20A H -1.2366 -0.7449 0.1551
H21A H -1.3422 -0.9480 0.1477
N1A N -0.8431(4) -0.9298(4) 0.16930(15)
O1A O -0.6380(4) -0.7898(4) 0.10236(13)
O2A O -0.9801(4) -1.0157(4) 0.25930(14)
S1A S -0.02495(14) -0.06401(14) 0.39702(5)
S2A S -0.25416(14) -0.21133(14) 0.49674(5)
C26 C 0.5693(7) 1.0649(7) 0.6390(3)
H22 H 0.5458 1.1577 0.6660
H23 H 0.6084 1.1042 0.5989
H24 H 0.6632 1.0337 0.6601
C27 C 0.4012(6) 0.9098(6) 0.6264(2)
C28 C 0.3344(7) 0.8297(7) 0.5658(2)
H25 H 0.3956 0.8741 0.5311
C29 C 0.1792(7) 0.6852(7) 0.5546(3)
H26 H 0.1346 0.6320 0.5127
C30 C 0.0913(7) 0.6209(7) 0.6054(3)
H27 H -0.0145 0.5228 0.5985
C31 C 0.1566(6) 0.6983(6) 0.6663(2)
H28 H 0.0960 0.6526 0.7010
C32 C 0.3096(6) 0.8421(6) 0.6770(2)
H29 H 0.3529 0.8953 0.7189
loop_
_geom_bond_atom_site_label_1
_geom_bond_atom_site_label_2
_geom_bond_site_symmetry_1
_geom_bond_site_symmetry_2
C1 S1 1_555 1_555
C2 C3 1_555 1_555
C3 H1 1_555 1_555
C4 C3 1_555 1_555
C5 C4 1_555 1_555
H2 C5 1_555 1_555
C6 C5 1_555 1_555
C7 C6 1_555 1_555
C8 C7 1_555 1_555
H3 C8 1_555 1_555
C9 C4 1_555 1_555
C10 C9 1_555 1_555
H4 C10 1_555 1_555
C11 C2 1_555 1_555
C12 C6 1_555 1_555
C13 C7 1_555 1_555
C14 C15 1_555 1_555
C15 C16 1_555 1_555
C16 H5 1_555 1_555
C17 C16 1_555 1_555
H6 C17 1_555 1_555
C18 C17 1_555 1_555
H7 C18 1_555 1_555
C19 C14 1_555 1_555
C20 C15 1_555 1_555
H8 C20 1_555 1_555
C21 C20 1_555 1_555
H9 C21 1_555 1_555
H10 C21 1_555 1_555
H11 C21 1_555 1_555
C22 C20 1_555 1_555
H12 C22 1_555 1_555
H13 C22 1_555 1_555
H14 C22 1_555 1_555
C23 C19 1_555 1_555
H15 C23 1_555 1_555
C24 C23 1_555 1_555
H16 C24 1_555 1_555
H17 C24 1_555 1_555
H18 C24 1_555 1_555
C25 C23 1_555 1_555
H19 C25 1_555 1_555
H20 C25 1_555 1_555
H21 C25 1_555 1_555
N1 C12 1_555 1_555
O1 C12 1_555 1_555
O2 C13 1_555 1_555
S1 C2 1_555 1_555
S2 C1 1_555 1_555
C26 H22 1_555 1_555
H23 C26 1_555 1_555
H24 C26 1_555 1_555
C27 C26 1_555 1_555
C28 C27 1_555 1_555
H25 C28 1_555 1_555
C29 C28 1_555 1_555
H26 C29 1_555 1_555
C30 C29 1_555 1_555
H27 C30 1_555 1_555
C31 C30 1_555 1_555
H28 C31 1_555 1_555
C32 C27 1_555 1_555
H29 C32 1_555 1_555
C1A C1 1_555 1_555
C2A C3A 1_555 1_555
C3A H1A 1_555 1_555
C4A C3A 1_555 1_555
C5A C4A 1_555 1_555
H2A C5A 1_555 1_555
C6A C5A 1_555 1_555
C7A C6A 1_555 1_555
C8A C7A 1_555 1_555
H3A C8A 1_555 1_555
C9A C4A 1_555 1_555
C10A C9A 1_555 1_555
H4A C10A 1_555 1_555
C11A C2A 1_555 1_555
C12A C6A 1_555 1_555
C13A C7A 1_555 1_555
C14A C15A 1_555 1_555
C15A C16A 1_555 1_555
C16A H5A 1_555 1_555
C17A C16A 1_555 1_555
H6A C17A 1_555 1_555
C18A C17A 1_555 1_555
H7A C18A 1_555 1_555
C19A C14A 1_555 1_555
C20A C15A 1_555 1_555
H8A C20A 1_555 1_555
C21A C20A 1_555 1_555
H9A C21A 1_555 1_555
H10A C21A 1_555 1_555
H11A C21A 1_555 1_555
C22A C20A 1_555 1_555
H12A C22A 1_555 1_555
H13A C22A 1_555 1_555
H14A C22A 1_555 1_555
C23A C19A 1_555 1_555
H15A C23A 1_555 1_555
C24A C23A 1_555 1_555
H16A C24A 1_555 1_555
H17A C24A 1_555 1_555
H18A C24A 1_555 1_555
C25A C23A 1_555 1_555
H19A C25A 1_555 1_555
H20A C25A 1_555 1_555
H21A C25A 1_555 1_555
N1A C12A 1_555 1_555
O1A C12A 1_555 1_555
O2A C13A 1_555 1_555
S1A C1A 1_555 1_555
S2A C1A 1_555 1_555
C8 C9 1_555 1_555
C10 C11 1_555 1_555
C11 S2 1_555 1_555
C13 N1 1_555 1_555
C14 N1 1_555 1_555
C18 C19 1_555 1_555
C31 C32 1_555 1_555
C2A S1A 1_555 1_555
C8A C9A 1_555 1_555
C10A C11A 1_555 1_555
C11A S2A 1_555 1_555
C13A N1A 1_555 1_555
C14A N1A 1_555 1_555
C18A C19A 1_555 1_555

#END
