
#######################################################################
#
#                 Cambridge Crystallographic Data Centre
#                                CCDC 
#
#######################################################################
#
# If this CIF has been generated from an entry in the Cambridge 
# Structural Database, then it will include bibliographic, chemical, 
# crystal, experimental, refinement or atomic coordinate data resulting 
# from the CCDC's data processing and validation procedures.
#
#######################################################################

data_TENLOQ
_chemical_formula_moiety         'C22 H28 Br1 N1 O2 S1'
_chemical_name_systematic        
N-[2-(2-bromophenyl)-1-(4-methoxyphenyl)-2-methylbut-3-en-1-yl]-2-methylpropane-2-sulfinamide
_symmetry_cell_setting           monoclinic
_symmetry_space_group_name_H-M   'P 21'
_symmetry_Int_Tables_number      4
_space_group_name_Hall           'P 2yb'
loop_
_symmetry_equiv_pos_site_id
_symmetry_equiv_pos_as_xyz
1 x,y,z
2 -x,1/2+y,-z
_cell_length_a                   18.851(5)
_cell_length_b                   6.6457(19)
_cell_length_c                   20.170(6)
_cell_angle_alpha                90
_cell_angle_beta                 114.181(3)
_cell_angle_gamma                90
_cell_volume                     2305.14
_exptl_crystal_colour            colorless
_cell_formula_units_Z            4
loop_
_atom_site_label
_atom_site_type_symbol
_atom_site_fract_x
_atom_site_fract_y
_atom_site_fract_z
Br1 Br 0.05941(4) 0.50890(12) 0.31685(4)
C1 C 0.0619(3) 1.0224(12) 0.4360(3)
H1 H 0.0934 1.1313 0.4590
C2 C -0.0115(5) 1.0063(18) 0.4376(4)
H2 H -0.0282 1.1050 0.4606
C3 C -0.0591(5) 0.845(2) 0.4052(5)
H3 H -0.1075 0.8329 0.4068
C4 C -0.0346(4) 0.7060(15) 0.3714(4)
H4 H -0.0671 0.5979 0.3495
C5 C 0.0372(3) 0.7164(11) 0.3678(3)
C6 C 0.0891(3) 0.8826(10) 0.4017(3)
C7 C 0.1696(3) 0.9027(9) 0.4008(3)
C8 C 0.2076(4) 1.1052(11) 0.4305(4)
H5 H 0.1732 1.2119 0.4043
H6 H 0.2555 1.1162 0.4247
H7 H 0.2179 1.1148 0.4811
C9 C 0.1625(3) 0.8923(12) 0.3227(3)
H8 H 0.1949 0.8001 0.3141
C10 C 0.1182(4) 0.9925(13) 0.2681(3)
H9 H 0.0843 1.0872 0.2730
H10 H 0.1195 0.9716 0.2230
C11 C 0.2237(3) 0.7293(9) 0.4480(3)
H11 H 0.1956 0.6019 0.4322
C12 C 0.2998(3) 0.7104(9) 0.4406(3)
C13 C 0.3632(3) 0.8353(10) 0.4779(3)
H12 H 0.3613 0.9248 0.5126
C14 C 0.4300(3) 0.8264(11) 0.4633(3)
H13 H 0.4716 0.9116 0.4880
C15 C 0.4344(3) 0.6939(11) 0.4131(3)
C16 C 0.3734(3) 0.5659(11) 0.3782(3)
H14 H 0.3761 0.4739 0.3446
C17 C 0.3082(3) 0.5728(10) 0.3928(3)
H15 H 0.2682 0.4815 0.3697
C18 C 0.5544(4) 0.8250(16) 0.4214(5)
H16 H 0.5320 0.9560 0.4067
H17 H 0.5928 0.8013 0.4025
H18 H 0.5784 0.8177 0.4735
C19 C 0.2988(4) 0.7210(16) 0.6675(3)
C20 C 0.2264(5) 0.802(2) 0.6689(5)
H19 H 0.1893 0.6953 0.6599
H20 H 0.2053 0.9033 0.6320
H21 H 0.2376 0.8604 0.7157
C21 C 0.3358(6) 0.570(2) 0.7268(3)
H22 H 0.3383 0.6237 0.7718
H23 H 0.3874 0.5407 0.7312
H24 H 0.3055 0.4488 0.7153
C22 C 0.3552(6) 0.888(2) 0.6737(4)
H25 H 0.3326 0.9770 0.6329
H26 H 0.4023 0.8317 0.6743
H27 H 0.3665 0.9613 0.7179
N1 N 0.2364(2) 0.7634(8) 0.5244(2)
H28 H 0.2221 0.8730 0.5381
O1 O 0.4961(2) 0.6792(8) 0.3945(2)
O2 O 0.2231(3) 0.4208(9) 0.5789(3)
S1 S 0.27935(8) 0.5811(3) 0.58206(7)
Br2 Br 0.22347(4) 0.57813(10) 0.19414(3)
C23 C 0.1355(3) 0.0584(11) 0.0726(3)
H29 H 0.1517 -0.0509 0.0536
C24 C 0.0587(4) 0.0708(15) 0.0625(3)
H30 H 0.0243 -0.0305 0.0370
C25 C 0.0329(4) 0.2249(16) 0.0886(4)
H31 H -0.0192 0.2316 0.0809
C26 C 0.0839(4) 0.3748(13) 0.1271(3)
H32 H 0.0659 0.4825 0.1453
C27 C 0.1611(3) 0.3664(9) 0.1388(3)
C28 C 0.1896(3) 0.2065(10) 0.1109(3)
C29 C 0.2743(3) 0.1956(9) 0.1172(3)
C30 C 0.2916(3) -0.0054(10) 0.0888(3)
H33 H 0.2796 -0.1150 0.1135
H34 H 0.3456 -0.0107 0.0976
H35 H 0.2604 -0.0158 0.0375
C31 C 0.3318(3) 0.1996(11) 0.1962(3)
H36 H 0.3756 0.2801 0.2073
C32 C 0.3269(5) 0.1065(14) 0.2480(4)
H37 H 0.2843 0.0239 0.2400
H38 H 0.3658 0.1199 0.2947
C33 C 0.2854(3) 0.3725(9) 0.0716(2)
H39 H 0.2708 0.4976 0.0885
C34 C 0.3677(3) 0.3971(9) 0.0767(3)
C35 C 0.3955(3) 0.2884(10) 0.0349(3)
H40 H 0.3620 0.2018 -0.0002
C36 C 0.4720(3) 0.3032(11) 0.0431(3)
H41 H 0.4893 0.2265 0.0141
C37 C 0.5215(3) 0.4298(11) 0.0936(3)
C38 C 0.4941(3) 0.5489(10) 0.1343(3)
H42 H 0.5269 0.6410 0.1674
C39 C 0.4184(3) 0.5306(9) 0.1257(2)
H43 H 0.4007 0.6104 0.1537
C40 C 0.6310(4) 0.3107(13) 0.0747(4)
H44 H 0.6230 0.1778 0.0890
H45 H 0.6857 0.3346 0.0904
H46 H 0.6056 0.3226 0.0228
C41 C 0.1522(3) 0.4126(13) -0.1439(3)
C42 C 0.0869(4) 0.2932(15) -0.1389(4)
H47 H 0.0498 0.2596 -0.1869
H48 H 0.0619 0.3717 -0.1147
H49 H 0.1072 0.1719 -0.1120
C43 C 0.1218(4) 0.5866(17) -0.1984(3)
H50 H 0.1649 0.6550 -0.2022
H51 H 0.0934 0.6793 -0.1820
H52 H 0.0882 0.5343 -0.2452
C44 C 0.2060(5) 0.2737(19) -0.1618(4)
H53 H 0.1780 0.2139 -0.2087
H54 H 0.2250 0.1698 -0.1257
H55 H 0.2491 0.3496 -0.1624
N2 N 0.2298(2) 0.3391(8) -0.0051(2)
H56 H 0.2086 0.2242 -0.0207
O3 O 0.5995(2) 0.4544(8) 0.1072(2)
O4 O 0.1587(2) 0.6805(8) -0.0436(2)
S2 S 0.21175(7) 0.5406(3) -0.05821(7)
loop_
_geom_bond_atom_site_label_1
_geom_bond_atom_site_label_2
_geom_bond_site_symmetry_1
_geom_bond_site_symmetry_2
Br1 C5 1_555 1_555
C1 H1 1_555 1_555
C2 C1 1_555 1_555
H2 C2 1_555 1_555
C3 C2 1_555 1_555
H3 C3 1_555 1_555
C4 C3 1_555 1_555
H4 C4 1_555 1_555
C5 C4 1_555 1_555
C6 C1 1_555 1_555
C7 C6 1_555 1_555
C8 C7 1_555 1_555
H5 C8 1_555 1_555
H6 C8 1_555 1_555
H7 C8 1_555 1_555
C9 C7 1_555 1_555
H8 C9 1_555 1_555
C10 C9 1_555 1_555
H9 C10 1_555 1_555
H10 C10 1_555 1_555
C11 C7 1_555 1_555
H11 C11 1_555 1_555
C12 C11 1_555 1_555
C13 C12 1_555 1_555
H12 C13 1_555 1_555
C14 C13 1_555 1_555
H13 C14 1_555 1_555
C15 C14 1_555 1_555
C16 C15 1_555 1_555
H14 C16 1_555 1_555
C17 C12 1_555 1_555
H15 C17 1_555 1_555
C18 H16 1_555 1_555
H17 C18 1_555 1_555
H18 C18 1_555 1_555
C19 C20 1_555 1_555
C20 H19 1_555 1_555
H20 C20 1_555 1_555
H21 C20 1_555 1_555
C21 C19 1_555 1_555
H22 C21 1_555 1_555
H23 C21 1_555 1_555
H24 C21 1_555 1_555
C22 C19 1_555 1_555
H25 C22 1_555 1_555
H26 C22 1_555 1_555
H27 C22 1_555 1_555
N1 C11 1_555 1_555
H28 N1 1_555 1_555
O1 C15 1_555 1_555
O2 S1 1_555 1_555
S1 C19 1_555 1_555
Br2 C27 1_555 1_555
C23 H29 1_555 1_555
C24 C23 1_555 1_555
H30 C24 1_555 1_555
C25 C24 1_555 1_555
H31 C25 1_555 1_555
C26 C25 1_555 1_555
H32 C26 1_555 1_555
C27 C26 1_555 1_555
C28 C23 1_555 1_555
C29 C28 1_555 1_555
C30 C29 1_555 1_555
H33 C30 1_555 1_555
H34 C30 1_555 1_555
H35 C30 1_555 1_555
C31 C29 1_555 1_555
H36 C31 1_555 1_555
C32 C31 1_555 1_555
H37 C32 1_555 1_555
H38 C32 1_555 1_555
C33 C29 1_555 1_555
H39 C33 1_555 1_555
C34 C33 1_555 1_555
C35 C34 1_555 1_555
H40 C35 1_555 1_555
C36 C35 1_555 1_555
H41 C36 1_555 1_555
C37 C36 1_555 1_555
C38 C37 1_555 1_555
H42 C38 1_555 1_555
C39 C34 1_555 1_555
H43 C39 1_555 1_555
C40 H44 1_555 1_555
H45 C40 1_555 1_555
H46 C40 1_555 1_555
C41 C42 1_555 1_555
C42 H47 1_555 1_555
H48 C42 1_555 1_555
H49 C42 1_555 1_555
C43 C41 1_555 1_555
H50 C43 1_555 1_555
H51 C43 1_555 1_555
H52 C43 1_555 1_555
C44 C41 1_555 1_555
H53 C44 1_555 1_555
H54 C44 1_555 1_555
H55 C44 1_555 1_555
N2 C33 1_555 1_555
H56 N2 1_555 1_555
O3 C37 1_555 1_555
O4 S2 1_555 1_555
S2 C41 1_555 1_555
C5 C6 1_555 1_555
C16 C17 1_555 1_555
C18 O1 1_555 1_555
N1 S1 1_555 1_555
C27 C28 1_555 1_555
C38 C39 1_555 1_555
C40 O3 1_555 1_555
N2 S2 1_555 1_555

#END
