
#######################################################################
#
#                 Cambridge Crystallographic Data Centre
#                                CCDC 
#
#######################################################################
#
# If this CIF has been generated from an entry in the Cambridge 
# Structural Database, then it will include bibliographic, chemical, 
# crystal, experimental, refinement or atomic coordinate data resulting 
# from the CCDC's data processing and validation procedures.
#
#######################################################################

data_TENLON
_chemical_name_common            
"5,5':11,11':17,17':23,23'-tetrakis(propane-1,3-dioxy)-bis(6,10:12,16:18,22:24,4-O,O'-tetrakis(methylene)-2,8,14,20-tetrakis(phenylethyl)calix[4]resorcinarene) N-methyl-2-pyrrolidinone clathrate nitrobenzene solvate"
_chemical_formula_moiety         'C140 H128 O24,C5 H9 N1 O1,2(C6 H5 N1 O2)'
_chemical_name_systematic        
"33,45-(Epoxypropanoxy)-9,10,39,40-tetrahydro-1,17,25,27,51,53,61,76-octakis(2-phenylethyl)-19,23:55,59-dimethano-2,50:16,28-dimetheno-3,49,15,29-(methynoxypropanoxymethyno)-1H,8H,17H,25H,27H,38H,51H,53H-bis(1,3)benzodioxocino(9,8-d:9',8'-d')-bis(1,3)benzodioxocino(9',10':16,17;10'',9'':23,24)(1,3,6 10,13,15,18,22)octaoxacyclotetracosino(4,5-j:12,11-j')-bis(1,3)benzodioxocine N-methyl-2-pyrrolidinone clathrate nitrobenzene solvate"
_symmetry_cell_setting           triclinic
_symmetry_space_group_name_H-M   'P -1'
_symmetry_Int_Tables_number      2
_space_group_name_Hall           '-P 1'
loop_
_symmetry_equiv_pos_site_id
_symmetry_equiv_pos_as_xyz
1 x,y,z
2 -x,-y,-z
_cell_length_a                   12.216(3)
_cell_length_b                   26.288(7)
_cell_length_c                   11.740(6)
_cell_angle_alpha                101.93(3)
_cell_angle_beta                 107.36(3)
_cell_angle_gamma                88.51(2)
_cell_volume                     3518.09
_exptl_crystal_colour            colorless
_cell_formula_units_Z            1
loop_
_atom_site_label
_atom_site_type_symbol
_atom_site_fract_x
_atom_site_fract_y
_atom_site_fract_z
N2 N 0.8639(23) 0.1387(12) 0.0198(32)
O3 O 0.8758(30) 0.1227(14) -0.1006(38)
O4 O 0.8635(32) 0.1743(16) 0.1247(37)
C7 C 0.9179(15) 0.2101(8) -0.1273(18)
C8 C 0.9243(15) 0.2606(8) -0.1457(18)
C9 C 0.9026(15) 0.3028(8) -0.0622(18)
C10 C 0.8745(15) 0.2946(8) 0.0397(18)
C11 C 0.8682(15) 0.2441(8) 0.0581(18)
C12 C 0.8899(15) 0.2019(8) -0.0254(18)
H6 H 0.9347 0.1775 -0.1920
H7 H 0.9460 0.2670 -0.2246
H8 H 0.9075 0.3419 -0.0764
H9 H 0.8578 0.3273 0.1044
H10 H 0.8465 0.2377 0.1370
C13 C 0.5490(60) 0.5666(23) 0.5563(55)
N3 N 0.5010(80) 0.5122(21) 0.5066(62)
C14 C 0.5788(85) 0.4778(31) 0.4758(68)
O5 O 0.6645(31) 0.4764(13) 0.4900(32)
C15 C 0.4985(45) 0.5770(20) 0.5907(47)
C16 C 0.6139(42) 0.5612(18) 0.5966(44)
C17 C 0.5949(63) 0.5046(29) 0.5166(56)
N3A N 0.4990(80) 0.4878(21) 0.4934(62)
C13A C 0.4510(60) 0.4334(23) 0.4437(55)
C15A C 0.5015(45) 0.4230(20) 0.4093(47)
C14A C 0.4212(85) 0.5222(31) 0.5242(68)
C16A C 0.3861(42) 0.4388(18) 0.4034(44)
C17A C 0.4051(63) 0.4954(29) 0.4834(56)
O5A O 0.3355(31) 0.5236(13) 0.5100(32)
O6 O 0.9440(14) 0.5696(7) 0.8701(15)
C18 C 0.8749(22) 0.5213(10) 0.8297(23)
H11 H 0.8366 0.5159 0.8986
H12 H 0.8085 0.5195 0.7439
C19 C 0.9660(21) 0.4774(9) 0.8166(23)
H13 H 1.0335 0.4812 0.9022
H14 H 1.0021 0.4831 0.7463
C20 C 0.9075(23) 0.4238(10) 0.7783(25)
H15 H 0.8761 0.4177 0.8515
H16 H 0.9656 0.3936 0.7602
O7 O 0.8138(13) 0.4237(6) 0.6730(15)
C21 C 0.5856(11) 0.2938(5) 0.5722(15)
C22 C 0.6621(11) 0.2985(5) 0.5068(15)
C23 C 0.7385(11) 0.3415(5) 0.5436(15)
C24 C 0.7384(11) 0.3797(5) 0.6459(15)
C25 C 0.6619(11) 0.3750(5) 0.7113(15)
C26 C 0.5855(11) 0.3321(5) 0.6745(15)
H17 H 0.5264 0.2606 0.5437
O8 O 0.8180(13) 0.3454(6) 0.4830(14)
C27 C 0.7777(19) 0.3661(9) 0.3780(21)
H18 H 0.7095 0.3920 0.3885
H19 H 0.8474 0.3876 0.3685
O9 O 0.7331(13) 0.3253(6) 0.2643(14)
C28 C 0.4608(13) 0.2616(4) 0.2414(12)
C29 C 0.3878(13) 0.2814(4) 0.1455(12)
C30 C 0.4312(13) 0.3158(4) 0.0925(12)
C31 C 0.5476(13) 0.3306(4) 0.1353(12)
C32 C 0.6207(13) 0.3108(4) 0.2311(12)
C33 C 0.5773(13) 0.2763(4) 0.2842(12)
H20 H 0.4272 0.2349 0.2825
O10 O 0.5899(13) 0.3593(7) 0.0719(15)
C34 C 0.5954(19) 0.4153(9) 0.1168(22)
H21 H 0.5313 0.4346 0.0565
H22 H 0.5848 0.4244 0.2070
C35 C 0.7151(18) 0.4328(8) 0.1203(20)
H23 H 0.7787 0.4213 0.1959
H24 H 0.7319 0.4149 0.0358
C36 C 0.7179(20) 0.4933(9) 0.1446(22)
H25 H 0.6464 0.5053 0.0768
H26 H 0.7971 0.5092 0.1410
O11 O 0.7033(13) 0.5089(6) 0.2648(15)
O12 O 0.6690(12) 0.4170(6) 0.8111(13)
C37 C 0.5779(19) 0.4520(9) 0.7866(21)
H27 H 0.6102 0.4911 0.8318
H28 H 0.5436 0.4499 0.6894
O13 O 0.4899(13) 0.4383(6) 0.8345(13)
C38 C 0.3043(14) 0.3314(4) 0.6100(14)
C39 C 0.3976(14) 0.3587(4) 0.7006(14)
C40 C 0.3927(14) 0.4121(4) 0.7427(14)
C41 C 0.7057(14) 0.5617(4) 0.3059(14)
C42 C 0.7990(14) 0.5889(4) 0.3965(14)
C43 C 0.2060(14) 0.3576(4) 0.5615(14)
H29 H 0.3081 0.2900 0.5774
O14 O 0.8932(13) 0.5604(6) 0.4360(15)
C44 C 0.8969(19) 0.5441(8) 0.5405(21)
H30 H 0.9283 0.5051 0.5349
H31 H 0.8106 0.5440 0.5476
O15 O 0.9691(13) 0.5775(6) 0.6496(15)
C45 C 0.8208(12) 0.6991(5) 0.7239(14)
C46 C 0.8780(12) 0.6610(5) 0.6638(14)
C47 C 0.9137(12) 0.6167(5) 0.7105(14)
C48 C 0.8922(12) 0.6104(5) 0.8173(14)
C49 C 0.8350(12) 0.6485(5) 0.8774(14)
C50 C 0.7993(12) 0.6929(5) 0.8306(14)
H32 H 0.7931 0.7335 0.6877
C51 C 0.1031(20) 0.3318(9) 0.4553(20)
H33 H 0.0247 0.3508 0.4614
C52 C 0.0819(20) 0.2754(9) 0.4642(21)
H34 H 0.1601 0.2553 0.4630
H35 H 0.0120 0.2566 0.3871
C53 C 0.0544(20) 0.2729(9) 0.5807(22)
H36 H -0.0300 0.2875 0.5764
H37 H 0.1177 0.2966 0.6569
C54 C -0.0416(15) 0.1862(9) 0.5469(16)
C55 C -0.0414(15) 0.1347(9) 0.5601(16)
C56 C 0.0598(15) 0.1140(9) 0.6226(16)
C57 C 0.1608(15) 0.1448(9) 0.6718(16)
C58 C 0.1606(15) 0.1963(9) 0.6586(16)
C59 C 0.0594(15) 0.2170(9) 0.5961(16)
H38 H -0.1199 0.2023 0.4985
H39 H -0.1196 0.1108 0.5220
H40 H 0.0600 0.0741 0.6328
H41 H 0.2392 0.1287 0.7201
H42 H 0.2388 0.2202 0.6967
O16 O 0.8226(14) 0.6398(6) 0.9870(14)
C60 C 0.7143(20) 0.6274(9) 0.9831(22)
H43 H 0.7229 0.6046 1.0518
H44 H 0.6738 0.6036 0.8938
O17 O 0.3617(13) 0.3331(6) -0.0037(14)
C61 C 0.2603(18) 0.2676(9) 0.0973(21)
H45 H 0.2304 0.2674 0.0007
C62 C 0.2283(18) 0.2100(8) 0.1089(19)
H46 H 0.1371 0.2043 0.0922
H47 H 0.2736 0.2054 0.2004
C63 C 0.2704(12) 0.1699(9) 0.0189(22)
H48 H 0.3599 0.1785 0.0318
H49 H 0.2203 0.1731 -0.0723
C64 C 0.1506(15) 0.0872(8) -0.0263(14)
C65 C 0.1320(15) 0.0381(8) -0.0062(14)
C66 C 0.2181(15) 0.0160(8) 0.0750(14)
C67 C 0.3229(15) 0.0431(8) 0.1362(14)
C68 C 0.3415(15) 0.0921(8) 0.1162(14)
C69 C 0.2554(15) 0.1142(8) 0.0349(14)
H50 H 0.0839 0.1043 -0.0892
H51 H 0.0509 0.0172 -0.0536
H52 H 0.2036 -0.0220 0.0905
H53 H 0.3896 0.0260 0.1991
H54 H 0.4226 0.1130 0.1636
C70 C 0.6599(19) 0.2584(8) 0.3919(19)
H55 H 0.7426 0.2565 0.3756
C71 C 0.6373(19) 0.2016(8) 0.4049(21)
H56 H 0.5480 0.1963 0.3984
H57 H 0.6908 0.1934 0.4903
C72 C 0.6650(22) 0.1655(10) 0.2968(24)
H58 H 0.6050 0.1713 0.2122
H59 H 0.7512 0.1749 0.2988
C73 C 0.6238(14) 0.0909(8) 0.3988(15)
C74 C 0.6251(14) 0.0380(8) 0.4007(15)
C75 C 0.6601(14) 0.0025(8) 0.3132(15)
C76 C 0.6938(14) 0.0199(8) 0.2237(15)
C77 C 0.6925(14) 0.0728(8) 0.2218(15)
C78 C 0.6575(14) 0.1083(8) 0.3093(15)
H60 H 0.5967 0.1183 0.4666
H61 H 0.5990 0.0245 0.4700
H62 H 0.6611 -0.0384 0.3146
H63 H 0.7209 -0.0075 0.1559
H64 H 0.7186 0.0863 0.1525
C79 C 0.5042(19) 0.3296(9) 0.7479(21)
H65 H 0.5468 0.3487 0.8412
C80 C 0.4808(18) 0.2731(8) 0.7597(20)
H66 H 0.4480 0.2494 0.6688
H67 H 0.4191 0.2725 0.8090
C81 C 0.5926(19) 0.2516(8) 0.8272(21)
H68 H 0.6237 0.2755 0.9179
H69 H 0.6539 0.2537 0.7780
C82 C 0.5470(14) 0.1822(8) 0.9316(16)
C83 C 0.5365(14) 0.1298(8) 0.9347(16)
C84 C 0.5593(14) 0.0913(8) 0.8439(16)
C85 C 0.5925(14) 0.1051(8) 0.7501(16)
C86 C 0.6030(14) 0.1575(8) 0.7470(16)
C87 C 0.5802(14) 0.1960(8) 0.8378(16)
H70 H 0.5293 0.2120 1.0019
H71 H 0.5108 0.1191 1.0073
H72 H 0.5512 0.0507 0.8463
H73 H 0.6101 0.0753 0.6799
H74 H 0.6287 0.1682 0.6744
C42A C 0.2010(14) 0.4111(4) 0.6035(14)
C41A C 0.2943(14) 0.4383(4) 0.6941(14)
O11A O 0.2967(13) 0.4911(6) 0.7352(15)
C36A C 0.2821(20) 0.5067(9) 0.8554(22)
C35A C 0.2849(18) 0.5672(8) 0.8797(20)
C34A C 0.4046(19) 0.5847(9) 0.8832(22)
O10A O 0.4101(13) 0.6407(7) 0.9281(15)
C31A C 0.4524(13) 0.6694(4) 0.8647(12)
C30A C 0.5688(13) 0.6842(4) 0.9075(12)
C29A C 0.6122(13) 0.7186(4) 0.8545(12)
C28A C 0.5392(13) 0.7384(4) 0.7586(12)
C33A C 0.4227(13) 0.7237(4) 0.7158(12)
C32A C 0.3793(13) 0.6892(4) 0.7689(12)
O9A O 0.2669(13) 0.6747(6) 0.7357(14)
C27A C 0.2223(19) 0.6339(9) 0.6220(21)
O8A O 0.1820(13) 0.6546(6) 0.5170(14)
C23A C 0.2615(11) 0.6585(5) 0.4564(15)
C22A C 0.3379(11) 0.7015(5) 0.4932(15)
C21A C 0.4144(11) 0.7062(5) 0.4278(15)
C26A C 0.4145(11) 0.6679(5) 0.3255(15)
C25A C 0.3381(11) 0.6250(5) 0.2887(15)
C24A C 0.2616(11) 0.6203(5) 0.3541(15)
O7A O 0.1862(13) 0.5763(6) 0.3270(15)
C20A C 0.0925(23) 0.5762(10) 0.2217(25)
C19A C 0.0340(21) 0.5226(9) 0.1834(23)
C18A C 0.1251(22) 0.4787(10) 0.1703(23)
O6A O 0.0560(14) 0.4304(7) 0.1299(15)
C48A C 0.1078(12) 0.3896(5) 0.1827(14)
C47A C 0.0863(12) 0.3833(5) 0.2895(14)
O15A O 0.0309(13) 0.4225(6) 0.3504(15)
C44A C 0.1031(19) 0.4559(8) 0.4595(21)
O14A O 0.1068(13) 0.4396(6) 0.5640(15)
H30A H 0.0717 0.4949 0.4651
H31A H 0.1894 0.4560 0.4524
C46A C 0.1220(12) 0.3390(5) 0.3362(14)
C45A C 0.1792(12) 0.3009(5) 0.2761(14)
C50A C 0.2007(12) 0.3071(5) 0.1694(14)
C49A C 0.1650(12) 0.3515(5) 0.1226(14)
O16A O 0.1774(14) 0.3602(6) 0.0130(14)
C60A C 0.2857(20) 0.3726(9) 0.0169(22)
H43A H 0.2771 0.3954 -0.0518
H44A H 0.3262 0.3964 0.1062
C40A C 0.6073(14) 0.5879(4) 0.2573(14)
O13A O 0.5101(13) 0.5617(6) 0.1655(13)
C37A C 0.4221(19) 0.5480(9) 0.2134(21)
O12A O 0.3310(12) 0.5830(6) 0.1889(13)
H27A H 0.3898 0.5089 0.1682
H28A H 0.4564 0.5501 0.3106
C39A C 0.6024(14) 0.6413(4) 0.2994(14)
C38A C 0.6957(14) 0.6686(4) 0.3900(14)
C43A C 0.7940(14) 0.6424(4) 0.4385(14)
O17A O 0.6383(13) 0.6669(6) 1.0037(14)
C61A C 0.7397(18) 0.7324(9) 0.9027(21)
H45A H 0.7696 0.7326 0.9993
C62A C 0.7717(18) 0.7900(8) 0.8911(19)
H46A H 0.8629 0.7957 0.9078
H47A H 0.7264 0.7946 0.7996
C63A C 0.7296(12) 0.8301(9) 0.9811(22)
H48A H 0.6401 0.8215 0.9682
H49A H 0.7797 0.8269 1.0723
C69A C 0.7446(15) 0.8858(8) 0.9651(14)
C64A C 0.8494(15) 0.9128(8) 1.0263(14)
C65A C 0.8680(15) 0.9619(8) 1.0062(14)
C66A C 0.7819(15) 0.9840(8) 0.9250(14)
C67A C 0.6771(15) 0.9569(8) 0.8638(14)
C68A C 0.6585(15) 0.9079(8) 0.8838(14)
H54A H 0.5774 0.8870 0.8364
H53A H 0.6104 0.9740 0.8009
H52A H 0.7964 1.0220 0.9095
H51A H 0.9491 0.9828 1.0536
H50A H 0.9161 0.8957 1.0892
C51A C 0.8969(20) 0.6682(9) 0.5447(20)
H33A H 0.9753 0.6492 0.5386
C52A C 0.9181(20) 0.7246(9) 0.5358(21)
H34A H 0.8399 0.7447 0.5370
H35A H 0.9880 0.7434 0.6129
C53A C 0.9456(20) 0.7271(9) 0.4193(22)
H36A H 1.0300 0.7125 0.4236
H37A H 0.8823 0.7034 0.3431
C59A C 0.9406(15) 0.7830(9) 0.4039(16)
C54A C 1.0416(15) 0.8138(9) 0.4531(16)
C55A C 1.0414(15) 0.8653(9) 0.4399(16)
C56A C 0.9402(15) 0.8860(9) 0.3774(16)
C57A C 0.8392(15) 0.8552(9) 0.3282(16)
C58A C 0.8394(15) 0.8037(9) 0.3414(16)
H42A H 0.7612 0.7798 0.3033
H41A H 0.7608 0.8713 0.2799
H40A H 0.9400 0.9259 0.3672
H39A H 1.1196 0.8892 0.4780
H38A H 1.1199 0.7977 0.5015
H29A H 0.6919 0.7100 0.4226
C79A C 0.4958(19) 0.6704(9) 0.2521(21)
H65A H 0.4532 0.6513 0.1588
C80A C 0.5192(18) 0.7269(8) 0.2403(20)
H66A H 0.5520 0.7506 0.3312
H67A H 0.5809 0.7275 0.1910
C81A C 0.4074(19) 0.7484(8) 0.1728(21)
H68A H 0.3763 0.7245 0.0821
H69A H 0.3461 0.7463 0.2220
C87A C 0.4198(14) 0.8040(8) 0.1622(16)
C82A C 0.4530(14) 0.8178(8) 0.0684(16)
C83A C 0.4635(14) 0.8702(8) 0.0653(16)
C84A C 0.4407(14) 0.9087(8) 0.1561(16)
C85A C 0.4075(14) 0.8949(8) 0.2499(16)
C86A C 0.3970(14) 0.8425(8) 0.2530(16)
H74A H 0.3713 0.8318 0.3256
H73A H 0.3899 0.9247 0.3201
H72A H 0.4488 0.9493 0.1537
H71A H 0.4892 0.8809 -0.0073
H70A H 0.4707 0.7880 -0.0019
H32A H 0.2069 0.2665 0.3123
H11A H 0.1634 0.4841 0.1014
H12A H 0.1915 0.4805 0.2561
H13A H -0.0335 0.5188 0.0978
H14A H -0.0021 0.5169 0.2537
H15A H 0.1239 0.5823 0.1485
H16A H 0.0344 0.6064 0.2398
H17A H 0.4736 0.7394 0.4563
C70A C 0.3401(19) 0.7416(8) 0.6081(19)
H55A H 0.2574 0.7435 0.6244
C71A C 0.3627(19) 0.7984(8) 0.5951(21)
H56A H 0.4520 0.8037 0.6016
H57A H 0.3092 0.8066 0.5097
C72A C 0.3350(22) 0.8345(10) 0.7032(24)
H58A H 0.3950 0.8287 0.7878
H59A H 0.2488 0.8251 0.7012
C78A C 0.3425(14) 0.8917(8) 0.6907(15)
C73A C 0.3762(14) 0.9091(8) 0.6012(15)
C74A C 0.3749(14) 0.9620(8) 0.5993(15)
C75A C 0.3399(14) 0.9975(8) 0.6868(15)
C76A C 0.3062(14) 0.9801(8) 0.7763(15)
C77A C 0.3075(14) 0.9272(8) 0.7782(15)
H64A H 0.2814 0.9137 0.8475
H63A H 0.2791 1.0075 0.8441
H62A H 0.3389 1.0384 0.6854
H61A H 0.4010 0.9755 0.5300
H60A H 0.4033 0.8817 0.5334
H18A H 0.2905 0.6080 0.6115
H19A H 0.1526 0.6124 0.6315
H20A H 0.5728 0.7651 0.7175
H21A H 0.4687 0.5654 0.9435
H22A H 0.4152 0.5756 0.7930
H23A H 0.2213 0.5787 0.8041
H24A H 0.2681 0.5851 0.9642
H25A H 0.3536 0.4947 0.9232
H26A H 0.2029 0.4908 0.8590
O1 O 0.2926(16) 0.1890(8) 0.4020(17)
O2 O 0.4013(24) 0.1372(10) 0.4899(25)
N1 N 0.3223(27) 0.1461(12) 0.4313(27)
C1 C 0.1124(23) 0.1196(7) 0.3164(18)
C2 C 0.0230(23) 0.0821(7) 0.2776(18)
C3 C 0.0427(23) 0.0333(7) 0.3074(18)
C4 C 0.1518(22) 0.0220(7) 0.3759(18)
C5 C 0.2412(23) 0.0594(7) 0.4147(18)
C6 C 0.2215(23) 0.1082(7) 0.3849(18)
H1 H 0.0972 0.1574 0.2933
H2 H -0.0614 0.0909 0.2246
H3 H -0.0265 0.0043 0.2774
H4 H 0.1671 -0.0159 0.3990
H5 H 0.3257 0.0506 0.4678
loop_
_geom_bond_atom_site_label_1
_geom_bond_atom_site_label_2
_geom_bond_site_symmetry_1
_geom_bond_site_symmetry_2
O1 N1 1_555 1_555
O2 N1 1_555 1_555
N1 C6 1_555 1_555
C1 C2 1_555 1_555
C2 C3 1_555 1_555
C3 C4 1_555 1_555
C4 C5 1_555 1_555
C5 C6 1_555 1_555
C6 C1 1_555 1_555
H1 C1 1_555 1_555
H2 C2 1_555 1_555
H3 C3 1_555 1_555
H4 C4 1_555 1_555
H5 C5 1_555 1_555
N2 O3 1_555 1_555
O4 N2 1_555 1_555
C7 C8 1_555 1_555
C8 C9 1_555 1_555
C9 C10 1_555 1_555
C10 C11 1_555 1_555
C11 C12 1_555 1_555
C12 N2 1_555 1_555
H6 C7 1_555 1_555
H7 C8 1_555 1_555
H8 C9 1_555 1_555
H9 C10 1_555 1_555
H10 C11 1_555 1_555
C13 N3 1_555 1_555
N3 C14 1_555 1_555
C14 O5 1_555 1_555
O5 C17 1_555 1_555
C15 C13 1_555 1_555
C16 C13 1_555 1_555
C17 C13 1_555 1_555
O6 C18 1_555 1_555
C18 H11 1_555 1_555
H12 C18 1_555 1_555
C19 C18 1_555 1_555
H13 C19 1_555 1_555
H14 C19 1_555 1_555
C20 C19 1_555 1_555
H15 C20 1_555 1_555
H16 C20 1_555 1_555
O7 C20 1_555 1_555
C21 C22 1_555 1_555
C22 C23 1_555 1_555
C23 C24 1_555 1_555
C24 O7 1_555 1_555
C25 C24 1_555 1_555
C26 C21 1_555 1_555
H17 C21 1_555 1_555
O8 C23 1_555 1_555
C27 O8 1_555 1_555
H18 C27 1_555 1_555
H19 C27 1_555 1_555
O9 C27 1_555 1_555
C28 C29 1_555 1_555
C29 C30 1_555 1_555
C30 C31 1_555 1_555
C31 C32 1_555 1_555
C32 O9 1_555 1_555
C33 C28 1_555 1_555
H20 C28 1_555 1_555
O10 C31 1_555 1_555
C34 O10 1_555 1_555
H21 C34 1_555 1_555
H22 C34 1_555 1_555
C35 C34 1_555 1_555
H23 C35 1_555 1_555
H24 C35 1_555 1_555
C36 C35 1_555 1_555
H25 C36 1_555 1_555
H26 C36 1_555 1_555
O11 C36 1_555 1_555
O12 C25 1_555 1_555
C37 O12 1_555 1_555
H27 C37 1_555 1_555
H28 C37 1_555 1_555
O13 C37 1_555 1_555
C38 C39 1_555 1_555
C39 C40 1_555 1_555
C40 O13 1_555 1_555
C41 O11 1_555 1_555
C42 C41 1_555 1_555
C43 C38 1_555 1_555
H29 C38 1_555 1_555
O14 C42 1_555 1_555
C44 O14 1_555 1_555
H30 C44 1_555 1_555
H31 C44 1_555 1_555
O15 C44 1_555 1_555
C45 C46 1_555 1_555
C46 C47 1_555 1_555
C47 O15 1_555 1_555
C48 O6 1_555 1_555
C49 C48 1_555 1_555
C50 C45 1_555 1_555
H32 C45 1_555 1_555
C51 C43 1_555 1_555
H33 C51 1_555 1_555
C52 C51 1_555 1_555
H34 C52 1_555 1_555
H35 C52 1_555 1_555
C53 C52 1_555 1_555
H36 C53 1_555 1_555
H37 C53 1_555 1_555
C54 C55 1_555 1_555
C55 C56 1_555 1_555
C56 C57 1_555 1_555
C57 C58 1_555 1_555
C58 C59 1_555 1_555
C59 C53 1_555 1_555
H38 C54 1_555 1_555
H39 C55 1_555 1_555
H40 C56 1_555 1_555
H41 C57 1_555 1_555
H42 C58 1_555 1_555
O16 C49 1_555 1_555
C60 O16 1_555 1_555
H43 C60 1_555 1_555
H44 C60 1_555 1_555
O17 C30 1_555 1_555
C61 C29 1_555 1_555
H45 C61 1_555 1_555
C62 C61 1_555 1_555
H46 C62 1_555 1_555
H47 C62 1_555 1_555
C63 C62 1_555 1_555
H48 C63 1_555 1_555
H49 C63 1_555 1_555
C64 C65 1_555 1_555
C65 C66 1_555 1_555
C66 C67 1_555 1_555
C67 C68 1_555 1_555
C68 C69 1_555 1_555
C69 C63 1_555 1_555
H50 C64 1_555 1_555
H51 C65 1_555 1_555
H52 C66 1_555 1_555
H53 C67 1_555 1_555
H54 C68 1_555 1_555
C70 C22 1_555 1_555
H55 C70 1_555 1_555
C71 C70 1_555 1_555
H56 C71 1_555 1_555
H57 C71 1_555 1_555
C72 C71 1_555 1_555
H58 C72 1_555 1_555
H59 C72 1_555 1_555
C73 C74 1_555 1_555
C74 C75 1_555 1_555
C75 C76 1_555 1_555
C76 C77 1_555 1_555
C77 C78 1_555 1_555
C78 C72 1_555 1_555
H60 C73 1_555 1_555
H61 C74 1_555 1_555
H62 C75 1_555 1_555
H63 C76 1_555 1_555
H64 C77 1_555 1_555
C79 C26 1_555 1_555
H65 C79 1_555 1_555
C80 C79 1_555 1_555
H66 C80 1_555 1_555
H67 C80 1_555 1_555
C81 C80 1_555 1_555
H68 C81 1_555 1_555
H69 C81 1_555 1_555
C82 C83 1_555 1_555
C83 C84 1_555 1_555
C84 C85 1_555 1_555
C85 C86 1_555 1_555
C86 C87 1_555 1_555
C87 C81 1_555 1_555
H70 C82 1_555 1_555
H71 C83 1_555 1_555
H72 C84 1_555 1_555
H73 C85 1_555 1_555
H74 C86 1_555 1_555
N3A N3 1_555 1_555
C13A N3A 1_555 1_555
C15A C14 1_555 1_555
C14A N3 1_555 1_555
C16A N3A 1_555 1_555
C17A N3 1_555 1_555
O5A C14A 1_555 1_555
C42A C43 1_555 1_555
C41A C40 1_555 1_555
O11A C41A 1_555 1_555
C36A O11A 1_555 1_555
C35A C36A 1_555 1_555
C34A C35A 1_555 1_555
O10A C34A 1_555 1_555
C31A O10A 1_555 1_555
C30A C31A 1_555 1_555
C29A C30A 1_555 1_555
C28A C29A 1_555 1_555
C33A C28A 1_555 1_555
C32A C31A 1_555 1_555
O9A C32A 1_555 1_555
C27A O9A 1_555 1_555
O8A C27A 1_555 1_555
C23A O8A 1_555 1_555
C22A C23A 1_555 1_555
C21A C22A 1_555 1_555
C26A C21A 1_555 1_555
C25A C26A 1_555 1_555
C24A C23A 1_555 1_555
O7A C24A 1_555 1_555
C20A O7A 1_555 1_555
C19A C20A 1_555 1_555
C18A C19A 1_555 1_555
O6A C18A 1_555 1_555
C48A O6A 1_555 1_555
C47A C48A 1_555 1_555
O15A C47A 1_555 1_555
C44A O15A 1_555 1_555
O14A C42A 1_555 1_555
H30A C44A 1_555 1_555
H31A C44A 1_555 1_555
C46A C51 1_555 1_555
C45A C46A 1_555 1_555
C50A C61 1_555 1_555
C49A C48A 1_555 1_555
O16A C49A 1_555 1_555
C60A O17 1_555 1_555
H43A C60A 1_555 1_555
H44A C60A 1_555 1_555
C40A C41 1_555 1_555
O13A C40A 1_555 1_555
C37A O13A 1_555 1_555
O12A C25A 1_555 1_555
H27A C37A 1_555 1_555
H28A C37A 1_555 1_555
C39A C40A 1_555 1_555
C38A C39A 1_555 1_555
C43A C42 1_555 1_555
O17A C60 1_555 1_555
C61A C50 1_555 1_555
H45A C61A 1_555 1_555
C62A C61A 1_555 1_555
H46A C62A 1_555 1_555
H47A C62A 1_555 1_555
C63A C62A 1_555 1_555
H48A C63A 1_555 1_555
H49A C63A 1_555 1_555
C69A C63A 1_555 1_555
C64A C69A 1_555 1_555
C65A C64A 1_555 1_555
C66A C65A 1_555 1_555
C67A C66A 1_555 1_555
C68A C69A 1_555 1_555
H54A C68A 1_555 1_555
H53A C67A 1_555 1_555
H52A C66A 1_555 1_555
H51A C65A 1_555 1_555
H50A C64A 1_555 1_555
C51A C46 1_555 1_555
H33A C51A 1_555 1_555
C52A C51A 1_555 1_555
H34A C52A 1_555 1_555
H35A C52A 1_555 1_555
C53A C52A 1_555 1_555
H36A C53A 1_555 1_555
H37A C53A 1_555 1_555
C59A C53A 1_555 1_555
C54A C59A 1_555 1_555
C55A C54A 1_555 1_555
C56A C55A 1_555 1_555
C57A C56A 1_555 1_555
C58A C59A 1_555 1_555
H42A C58A 1_555 1_555
H41A C57A 1_555 1_555
H40A C56A 1_555 1_555
H39A C55A 1_555 1_555
H38A C54A 1_555 1_555
H29A C38A 1_555 1_555
C79A C26A 1_555 1_555
H65A C79A 1_555 1_555
C80A C79A 1_555 1_555
H66A C80A 1_555 1_555
H67A C80A 1_555 1_555
C81A C80A 1_555 1_555
H68A C81A 1_555 1_555
H69A C81A 1_555 1_555
C87A C81A 1_555 1_555
C82A C87A 1_555 1_555
C83A C82A 1_555 1_555
C84A C83A 1_555 1_555
C85A C84A 1_555 1_555
C86A C87A 1_555 1_555
H74A C86A 1_555 1_555
H73A C85A 1_555 1_555
H72A C84A 1_555 1_555
H71A C83A 1_555 1_555
H70A C82A 1_555 1_555
H32A C45A 1_555 1_555
H11A C18A 1_555 1_555
H12A C18A 1_555 1_555
H13A C19A 1_555 1_555
H14A C19A 1_555 1_555
H15A C20A 1_555 1_555
H16A C20A 1_555 1_555
H17A C21A 1_555 1_555
C70A C33A 1_555 1_555
H55A C70A 1_555 1_555
C71A C70A 1_555 1_555
H56A C71A 1_555 1_555
H57A C71A 1_555 1_555
C72A C71A 1_555 1_555
H58A C72A 1_555 1_555
H59A C72A 1_555 1_555
C78A C72A 1_555 1_555
C73A C78A 1_555 1_555
C74A C73A 1_555 1_555
C75A C74A 1_555 1_555
C76A C75A 1_555 1_555
C77A C78A 1_555 1_555
H64A C77A 1_555 1_555
H63A C76A 1_555 1_555
H62A C75A 1_555 1_555
H61A C74A 1_555 1_555
H60A C73A 1_555 1_555
H18A C27A 1_555 1_555
H19A C27A 1_555 1_555
H20A C28A 1_555 1_555
H21A C34A 1_555 1_555
H22A C34A 1_555 1_555
H23A C35A 1_555 1_555
H24A C35A 1_555 1_555
H25A C36A 1_555 1_555
H26A C36A 1_555 1_555
C7 C12 1_555 1_555
N3 C15 1_555 1_555
N3 C16 1_555 1_555
N3 C17 1_555 1_555
C14 C17 1_555 1_555
C14 N3A 1_555 1_555
C15 C16 1_555 1_555
C15 C14A 1_555 1_555
C16 C17 1_555 1_555
C17 N3A 1_555 1_555
C25 C26 1_555 1_555
C32 C33 1_555 1_555
C33 C70 1_555 1_555
C39 C79 1_555 1_555
C47 C48 1_555 1_555
C49 C50 1_555 1_555
C54 C59 1_555 1_555
C64 C69 1_555 1_555
C73 C78 1_555 1_555
C82 C87 1_555 1_555
N3A C15A 1_555 1_555
N3A C14A 1_555 1_555
N3A C17A 1_555 1_555
C13A C15A 1_555 1_555
C13A C16A 1_555 1_555
C13A C17A 1_555 1_555
C15A C16A 1_555 1_555
C14A C17A 1_555 1_555
C16A C17A 1_555 1_555
C17A O5A 1_555 1_555
C42A C41A 1_555 1_555
C30A O17A 1_555 1_555
C29A C61A 1_555 1_555
C33A C32A 1_555 1_555
C22A C70A 1_555 1_555
C25A C24A 1_555 1_555
C47A C46A 1_555 1_555
C44A O14A 1_555 1_555
C45A C50A 1_555 1_555
C50A C49A 1_555 1_555
O16A C60A 1_555 1_555
C37A O12A 1_555 1_555
C39A C79A 1_555 1_555
C38A C43A 1_555 1_555
C43A C51A 1_555 1_555
C67A C68A 1_555 1_555
C57A C58A 1_555 1_555
C85A C86A 1_555 1_555
C76A C77A 1_555 1_555

#END
