
#######################################################################
#
#                 Cambridge Crystallographic Data Centre
#                                CCDC 
#
#######################################################################
#
# If this CIF has been generated from an entry in the Cambridge 
# Structural Database, then it will include bibliographic, chemical, 
# crystal, experimental, refinement or atomic coordinate data resulting 
# from the CCDC's data processing and validation procedures.
#
#######################################################################

data_TENRIP
_chemical_formula_moiety         
'C6 H4 O6 P1 S1 3-,3(C3 H7 N6 1+),C3 H6 N6,12(H2 O1)'
_chemical_name_systematic        
'tris(2,4,6-triamino-1,3,5-triazinium) (3-sulfonatophenyl)phosphonate 1,3,5-triazine-2,4,6-triamine dodecahydrate'
_symmetry_cell_setting           triclinic
_symmetry_space_group_name_H-M   'P -1'
_symmetry_Int_Tables_number      2
_space_group_name_Hall           '-P 1'
loop_
_symmetry_equiv_pos_site_id
_symmetry_equiv_pos_as_xyz
1 x,y,z
2 -x,-y,-z
_cell_length_a                   10.1920(4)
_cell_length_b                   13.9995(7)
_cell_length_c                   16.1481(8)
_cell_angle_alpha                77.462(4)
_cell_angle_beta                 77.848(3)
_cell_angle_gamma                75.058(3)
_cell_volume                     2143.7
_exptl_crystal_colour            colorless
_exptl_crystal_description       block
_cell_formula_units_Z            2
loop_
_atom_site_label
_atom_site_type_symbol
_atom_site_fract_x
_atom_site_fract_y
_atom_site_fract_z
P1 P 0.01201(15) 0.17963(11) 0.62209(9)
S1 S 0.15745(14) 0.37290(12) 0.29349(9)
C1 C -0.0166(5) 0.2885(4) 0.5387(3)
C2 C 0.0701(5) 0.2917(4) 0.4588(3)
H28 H 0.1428 0.2373 0.4491
C3 C 0.0499(5) 0.3741(4) 0.3939(3)
C4 C -0.0557(6) 0.4551(4) 0.4071(4)
H29 H -0.0698 0.5102 0.3633
C5 C -0.1418(6) 0.4547(5) 0.4861(4)
H30 H -0.2113 0.5107 0.4966
C6 C -0.1230(6) 0.3704(5) 0.5489(4)
H31 H -0.1849 0.3691 0.6002
O1 O 0.1524(4) 0.1728(3) 0.6457(3)
O2 O -0.1037(4) 0.1965(3) 0.6972(2)
O3 O 0.0148(4) 0.0882(3) 0.5847(2)
O4 O 0.1342(5) 0.2916(3) 0.2586(3)
O5 O 0.2973(4) 0.3543(4) 0.3092(3)
O6 O 0.1156(4) 0.4700(3) 0.2404(2)
N1 N 0.7761(4) -0.0737(3) 0.2033(3)
H1 H 0.803(5) -0.105(4) 0.251(4)
N2 N 0.8257(4) -0.0562(3) 0.0525(3)
N3 N 0.6053(4) 0.0277(3) 0.1244(3)
N4 N 0.9847(4) -0.1516(3) 0.1354(3)
H2 H 1.0417 -0.1657 0.0899
H3 H 1.0078 -0.1756 0.1853
N5 N 0.6582(4) 0.0451(3) -0.0217(3)
H4 H 0.7125 0.0323 -0.0685
H5 H 0.5782 0.0841 -0.0239
N6 N 0.5662(4) 0.0002(3) 0.2720(3)
H6 H 0.4855 0.0388 0.2721
H7 H 0.5945 -0.0282 0.3199
C7 C 0.8629(5) -0.0937(3) 0.1286(3)
C8 C 0.6978(5) 0.0049(3) 0.0532(3)
C9 C 0.6467(5) -0.0153(4) 0.1985(3)
N7 N 0.7771(4) 0.1769(3) 0.1807(3)
H8 H 0.809(5) 0.158(4) 0.232(3)
N8 N 0.8291(4) 0.2055(3) 0.0294(3)
N9 N 0.6058(4) 0.2818(3) 0.1034(3)
N10 N 0.9897(4) 0.1051(3) 0.1101(3)
H9 H 1.0469 0.0943 0.0639
H10 H 1.0130 0.0780 0.1596
N11 N 0.6628(4) 0.3078(3) -0.0427(3)
H11 H 0.7189 0.2986 -0.0897
H12 H 0.5820 0.3457 -0.0445
N12 N 0.5653(4) 0.2465(3) 0.2508(3)
H13 H 0.4836 0.2837 0.2517
H14 H 0.5937 0.2161 0.2983
C10 C 0.8662(5) 0.1633(3) 0.1051(3)
C11 C 0.7005(5) 0.2641(3) 0.0313(3)
C12 C 0.6474(5) 0.2360(4) 0.1764(4)
N13 N 0.7380(4) 0.4458(3) 0.1702(3)
H15 H 0.749(5) 0.426(4) 0.222(4)
N14 N 0.8245(4) 0.4584(3) 0.0224(3)
N15 N 0.5965(4) 0.5473(3) 0.0732(3)
N16 N 0.9568(4) 0.3621(3) 0.1230(3)
H16 H 1.0228 0.3453 0.0822
H17 H 0.9668 0.3393 0.1757
N17 N 0.6834(4) 0.5579(3) -0.0698(3)
H18 H 0.7479 0.5427 -0.1117
H19 H 0.6066 0.5977 -0.0799
N18 N 0.5180(4) 0.5270(3) 0.2182(3)
H20 H 0.4399 0.5655 0.2092
H21 H 0.5318 0.5010 0.2699
C13 C 0.8390(5) 0.4235(4) 0.1044(3)
C14 C 0.7023(5) 0.5202(3) 0.0103(3)
C15 C 0.6167(5) 0.5078(4) 0.1528(4)
N19 N -0.2739(4) 0.7058(3) 0.1589(3)
N20 N -0.1797(4) 0.7114(3) 0.0102(3)
N21 N -0.4065(4) 0.8077(3) 0.0530(3)
N22 N -0.0580(4) 0.6157(3) 0.1148(3)
H22 H 0.0090 0.5965 0.0755
H23 H -0.0513 0.5940 0.1681
N23 N -0.3117(4) 0.8112(3) -0.0886(3)
H24 H -0.2456 0.7932 -0.1289
H25 H -0.3863 0.8522 -0.1013
N24 N -0.4921(4) 0.7963(3) 0.1965(3)
H26 H -0.5665 0.8374 0.1837
H27 H -0.4843 0.7728 0.2495
C16 C -0.1725(5) 0.6793(3) 0.0930(4)
C17 C -0.2986(5) 0.7755(4) -0.0067(3)
C18 C -0.3881(5) 0.7687(4) 0.1339(4)
O7 O 0.2481(5) 0.3296(3) 0.6709(3)
O8 O 0.9206(6) 0.0946(4) 0.3143(3)
O9 O -0.2207(4) 0.0455(3) 0.7963(2)
O10 O 0.2722(4) 0.0896(3) 0.3007(3)
O11 O -0.2243(4) 0.3551(3) 0.7786(2)
O12 O 0.1806(5) -0.0144(4) 0.4601(3)
O13 O 0.3856(7) 0.0890(6) 0.5458(4)
O14 O 0.7785(6) 0.3269(5) 0.3326(4)
O15 O 0.6088(9) 0.1557(7) 0.4306(6)
O16 O 0.4794(8) 0.3764(8) 0.5684(6)
O17 O 0.4902(11) 0.4275(8) 0.3992(5)
O18 O -0.6395(8) 0.7929(7) 0.3770(5)
loop_
_geom_bond_atom_site_label_1
_geom_bond_atom_site_label_2
_geom_bond_site_symmetry_1
_geom_bond_site_symmetry_2
P1 C1 1_555 1_555
S1 C3 1_555 1_555
N1 H1 1_555 1_555
N2 C7 1_555 1_555
N3 C8 1_555 1_555
N4 H2 1_555 1_555
H3 N4 1_555 1_555
N5 H4 1_555 1_555
H5 N5 1_555 1_555
N6 H6 1_555 1_555
H7 N6 1_555 1_555
N7 H8 1_555 1_555
N8 C10 1_555 1_555
N9 C11 1_555 1_555
N10 H9 1_555 1_555
H10 N10 1_555 1_555
N11 H11 1_555 1_555
H12 N11 1_555 1_555
N12 H13 1_555 1_555
H14 N12 1_555 1_555
N13 H15 1_555 1_555
N14 C13 1_555 1_555
N15 C14 1_555 1_555
N16 H16 1_555 1_555
H17 N16 1_555 1_555
N17 H18 1_555 1_555
H19 N17 1_555 1_555
N18 H20 1_555 1_555
H21 N18 1_555 1_555
N19 C16 1_555 1_555
N20 C16 1_555 1_555
N21 C17 1_555 1_555
N22 H22 1_555 1_555
H23 N22 1_555 1_555
N23 H24 1_555 1_555
H25 N23 1_555 1_555
N24 H26 1_555 1_555
H27 N24 1_555 1_555
C1 C2 1_555 1_555
C2 H28 1_555 1_555
C3 C2 1_555 1_555
C4 C3 1_555 1_555
H29 C4 1_555 1_555
C5 C4 1_555 1_555
H30 C5 1_555 1_555
C6 C1 1_555 1_555
H31 C6 1_555 1_555
C7 N1 1_555 1_555
C8 N2 1_555 1_555
C9 N1 1_555 1_555
C10 N7 1_555 1_555
C11 N8 1_555 1_555
C12 N7 1_555 1_555
C13 N13 1_555 1_555
C14 N14 1_555 1_555
C15 N13 1_555 1_555
C16 N22 1_555 1_555
C17 N20 1_555 1_555
C18 N19 1_555 1_555
O1 P1 1_555 1_555
O2 P1 1_555 1_555
O3 P1 1_555 1_555
O4 S1 1_555 1_555
O5 S1 1_555 1_555
O6 S1 1_555 1_555
N3 C9 1_555 1_555
N4 C7 1_555 1_555
N5 C8 1_555 1_555
N6 C9 1_555 1_555
N9 C12 1_555 1_555
N10 C10 1_555 1_555
N11 C11 1_555 1_555
N12 C12 1_555 1_555
N15 C15 1_555 1_555
N16 C13 1_555 1_555
N17 C14 1_555 1_555
N18 C15 1_555 1_555
N21 C18 1_555 1_555
N23 C17 1_555 1_555
N24 C18 1_555 1_555
C5 C6 1_555 1_555

#END
