
#######################################################################
#
#                 Cambridge Crystallographic Data Centre
#                                CCDC 
#
#######################################################################
#
# If this CIF has been generated from an entry in the Cambridge 
# Structural Database, then it will include bibliographic, chemical, 
# crystal, experimental, refinement or atomic coordinate data resulting 
# from the CCDC's data processing and validation procedures.
#
#######################################################################

data_TENSOX
_chemical_formula_moiety         'C25 H32 O2'
_chemical_name_systematic        
8,10-di-t-butyl-4-methylidene-1-phenyl-2-oxaspiro[5.5]undeca-7,10-dien-9-one
_symmetry_cell_setting           orthorhombic
_symmetry_space_group_name_H-M   'P 21 21 21'
_symmetry_Int_Tables_number      19
_space_group_name_Hall           'P 2ac 2ab'
loop_
_symmetry_equiv_pos_site_id
_symmetry_equiv_pos_as_xyz
1 x,y,z
2 1/2-x,-y,1/2+z
3 -x,1/2+y,1/2-z
4 1/2+x,1/2-y,-z
_cell_length_a                   9.900(9)
_cell_length_b                   12.187(9)
_cell_length_c                   18.495(16)
_cell_angle_alpha                90
_cell_angle_beta                 90
_cell_angle_gamma                90
_cell_volume                     2231.45
_exptl_crystal_colour            colorless
_exptl_crystal_description       needle
_cell_formula_units_Z            4
loop_
_atom_site_label
_atom_site_type_symbol
_atom_site_fract_x
_atom_site_fract_y
_atom_site_fract_z
O1 O 0.6624(2) 0.6480(2) 0.42349(13)
O2 O 0.4347(3) 0.3710(3) 0.66730(15)
C1 C 0.4812(4) 0.5291(3) 0.4713(2)
C2 C 0.5801(4) 0.4480(3) 0.5004(2)
H1 H 0.6592 0.4348 0.4726
C3 C 0.3535(4) 0.5346(3) 0.5149(2)
H2 H 0.2816 0.5783 0.4967
C4 C 0.4457(4) 0.4989(3) 0.3914(2)
H3 H 0.4132 0.4221 0.3893
H4 H 0.3722 0.5472 0.3739
C5 C 0.2376(5) 0.5547(4) 0.6934(3)
H5 H 0.2975 0.5088 0.7228
H6 H 0.1541 0.5693 0.7202
H7 H 0.2828 0.6242 0.6823
C6 C 0.3336(3) 0.4823(3) 0.5777(2)
C7 C 0.7118(4) 0.6638(3) 0.5714(2)
H8 H 0.7730 0.6189 0.5452
C8 C 0.6182(5) 0.4321(4) 0.3031(3)
C9 C 0.6314(4) 0.6224(3) 0.3491(2)
H9 H 0.7154 0.6236 0.3201
H10 H 0.5693 0.6786 0.3293
C10 C 0.5666(3) 0.3925(3) 0.5619(2)
C11 C 0.5867(4) 0.6902(3) 0.5415(2)
C12 C 0.6722(4) 0.3095(3) 0.5885(2)
C13 C 0.5453(3) 0.6467(3) 0.46870(19)
H11 H 0.4772 0.6982 0.4476
C14 C 0.6602(5) 0.7689(4) 0.6772(2)
H12 H 0.6849 0.7953 0.7237
C15 C 0.5671(4) 0.5116(3) 0.3436(2)
C16 C 0.7471(4) 0.7029(4) 0.6392(2)
H13 H 0.8321 0.6839 0.6595
C17 C 0.4442(4) 0.4119(3) 0.6066(2)
C18 C 0.1395(4) 0.3829(3) 0.6387(3)
H14 H 0.2049 0.3365 0.6641
H15 H 0.1128 0.3475 0.5933
H16 H 0.0596 0.3934 0.6693
C19 C 0.2037(4) 0.4945(3) 0.6223(2)
C20 C 0.6065(4) 0.1957(3) 0.5970(3)
H17 H 0.5331 0.2000 0.6323
H18 H 0.6744 0.1429 0.6137
H19 H 0.5703 0.1717 0.5502
C21 C 0.5375(5) 0.7968(4) 0.6479(3)
H20 H 0.4776 0.8428 0.6741
C22 C 0.7895(4) 0.2995(4) 0.5352(2)
H21 H 0.7550 0.2762 0.4880
H22 H 0.8542 0.2450 0.5531
H23 H 0.8345 0.3707 0.5304
C23 C 0.5002(4) 0.7580(3) 0.5799(2)
H24 H 0.4154 0.7781 0.5599
C24 C 0.0972(4) 0.5627(4) 0.5818(3)
H25 H 0.0149 0.5676 0.6111
H26 H 0.0763 0.5273 0.5356
H27 H 0.1326 0.6365 0.5729
C25 C 0.7317(4) 0.3469(4) 0.6612(2)
H28 H 0.7714 0.4200 0.6558
H29 H 0.8016 0.2950 0.6766
H30 H 0.6599 0.3494 0.6977
H31 H 0.568(4) 0.354(4) 0.302(2)
H32 H 0.704(4) 0.444(4) 0.272(2)
loop_
_geom_bond_atom_site_label_1
_geom_bond_atom_site_label_2
_geom_bond_site_symmetry_1
_geom_bond_site_symmetry_2
O1 C9 1_555 1_555
O2 C17 1_555 1_555
C1 C2 1_555 1_555
C2 H1 1_555 1_555
C3 C1 1_555 1_555
H2 C3 1_555 1_555
C4 C1 1_555 1_555
H3 C4 1_555 1_555
H4 C4 1_555 1_555
C5 H5 1_555 1_555
H6 C5 1_555 1_555
H7 C5 1_555 1_555
C6 C3 1_555 1_555
C7 H8 1_555 1_555
C8 C15 1_555 1_555
C9 H9 1_555 1_555
H10 C9 1_555 1_555
C10 C2 1_555 1_555
C11 C7 1_555 1_555
C12 C10 1_555 1_555
C13 O1 1_555 1_555
H11 C13 1_555 1_555
C14 H12 1_555 1_555
C15 C4 1_555 1_555
C16 C7 1_555 1_555
H13 C16 1_555 1_555
C17 C6 1_555 1_555
C18 H14 1_555 1_555
H15 C18 1_555 1_555
H16 C18 1_555 1_555
C19 C5 1_555 1_555
C20 C12 1_555 1_555
H17 C20 1_555 1_555
H18 C20 1_555 1_555
H19 C20 1_555 1_555
C21 C14 1_555 1_555
H20 C21 1_555 1_555
C22 C12 1_555 1_555
H21 C22 1_555 1_555
H22 C22 1_555 1_555
H23 C22 1_555 1_555
C23 C11 1_555 1_555
H24 C23 1_555 1_555
C24 C19 1_555 1_555
H25 C24 1_555 1_555
H26 C24 1_555 1_555
H27 C24 1_555 1_555
C25 C12 1_555 1_555
H28 C25 1_555 1_555
H29 C25 1_555 1_555
H30 C25 1_555 1_555
H31 C8 1_555 1_555
H32 C8 1_555 1_555
C1 C13 1_555 1_555
C6 C19 1_555 1_555
C9 C15 1_555 1_555
C10 C17 1_555 1_555
C11 C13 1_555 1_555
C14 C16 1_555 1_555
C18 C19 1_555 1_555
C21 C23 1_555 1_555

#END
