
#######################################################################
#
#                 Cambridge Crystallographic Data Centre
#                                CCDC 
#
#######################################################################
#
# If this CIF has been generated from an entry in the Cambridge 
# Structural Database, then it will include bibliographic, chemical, 
# crystal, experimental, refinement or atomic coordinate data resulting 
# from the CCDC's data processing and validation procedures.
#
#######################################################################

data_TEPBUT06
_chemical_formula_moiety         'C28 H22'
_chemical_name_systematic        
1,1',1'',1'''-(buta-1,3-diene-1,2,3,4-tetrayl)tetrabenzene
_symmetry_cell_setting           monoclinic
_symmetry_space_group_name_H-M   'P 21/n'
_symmetry_Int_Tables_number      14
_space_group_name_Hall           '-P 2yn'
loop_
_symmetry_equiv_pos_site_id
_symmetry_equiv_pos_as_xyz
1 x,y,z
2 1/2-x,1/2+y,1/2-z
3 -x,-y,-z
4 1/2+x,1/2-y,1/2+z
_cell_length_a                   8.143(4)
_cell_length_b                   5.809(3)
_cell_length_c                   22.021(10)
_cell_angle_alpha                90
_cell_angle_beta                 96.713(8)
_cell_angle_gamma                90
_cell_volume                     1034.51
_exptl_crystal_colour            colorless
_exptl_crystal_description       block
_cell_formula_units_Z            2
loop_
_atom_site_label
_atom_site_type_symbol
_atom_site_fract_x
_atom_site_fract_y
_atom_site_fract_z
C1 C 0.2502(2) 0.8348(3) 0.08249(7)
C2 C 0.2416(2) 0.7933(3) 0.14462(8)
H1 H 0.1835 0.6660 0.1563
C3 C 0.3184(2) 0.9390(3) 0.18900(8)
H2 H 0.3108 0.9088 0.2301
C4 C 0.4054(2) 1.1273(4) 0.17295(10)
H3 H 0.4550 1.2258 0.2030
C5 C 0.4192(2) 1.1700(3) 0.11243(10)
H4 H 0.4793 1.2963 0.1014
C6 C 0.3432(2) 1.0243(3) 0.06786(8)
H5 H 0.3545 1.0536 0.0270
C7 C 0.1680(2) 0.6954(3) 0.03141(7)
H6 H 0.2180 0.7015 -0.0044
C8 C 0.0319(2) 0.5608(3) 0.02859(7)
C9 C -0.06131(19) 0.5302(3) 0.08285(7)
C10 C -0.0383(2) 0.3348(3) 0.11935(8)
H7 H 0.0309 0.2181 0.1086
C11 C -0.1164(2) 0.3114(3) 0.17109(8)
H8 H -0.0982 0.1805 0.1953
C12 C -0.2211(3) 0.4805(4) 0.18725(9)
H9 H -0.2723 0.4655 0.2226
C13 C -0.2498(2) 0.6717(4) 0.15078(9)
H10 H -0.3233 0.7841 0.1609
C14 C -0.1694(2) 0.6981(3) 0.09894(8)
H11 H -0.1882 0.8291 0.0749
C1B C -0.2502(2) 0.1652(3) -0.08249(7)
C2B C -0.2416(2) 0.2067(3) -0.14462(8)
H1B H -0.1835 0.3340 -0.1563
C3B C -0.3184(2) 0.0610(3) -0.18900(8)
H2B H -0.3108 0.0912 -0.2301
C4B C -0.4054(2) -0.1273(4) -0.17295(10)
H3B H -0.4550 -0.2258 -0.2030
C5B C -0.4192(2) -0.1700(3) -0.11243(10)
H4B H -0.4793 -0.2963 -0.1014
C6B C -0.3432(2) -0.0243(3) -0.06786(8)
H5B H -0.3545 -0.0536 -0.0270
C7B C -0.1680(2) 0.3046(3) -0.03141(7)
H6B H -0.2180 0.2985 0.0044
C8B C -0.0319(2) 0.4392(3) -0.02859(7)
C9B C 0.06131(19) 0.4698(3) -0.08285(7)
C10B C 0.0383(2) 0.6652(3) -0.11935(8)
H7B H -0.0309 0.7819 -0.1086
C11B C 0.1164(2) 0.6886(3) -0.17109(8)
H8B H 0.0982 0.8195 -0.1953
C12B C 0.2211(3) 0.5195(4) -0.18725(9)
H9B H 0.2723 0.5345 -0.2226
C13B C 0.2498(2) 0.3283(4) -0.15078(9)
H10B H 0.3233 0.2159 -0.1609
C14B C 0.1694(2) 0.3019(3) -0.09894(8)
H11B H 0.1882 0.1709 -0.0749
loop_
_geom_bond_atom_site_label_1
_geom_bond_atom_site_label_2
_geom_bond_site_symmetry_1
_geom_bond_site_symmetry_2
C1 C2 1_555 1_555
C2 H1 1_555 1_555
C3 C2 1_555 1_555
H2 C3 1_555 1_555
C4 C3 1_555 1_555
H3 C4 1_555 1_555
C5 C4 1_555 1_555
H4 C5 1_555 1_555
C6 C1 1_555 1_555
H5 C6 1_555 1_555
C7 C1 1_555 1_555
H6 C7 1_555 1_555
C8 C7 1_555 1_555
C9 C8 1_555 1_555
C10 C9 1_555 1_555
H7 C10 1_555 1_555
C11 C10 1_555 1_555
H8 C11 1_555 1_555
C12 C11 1_555 1_555
H9 C12 1_555 1_555
C13 C12 1_555 1_555
H10 C13 1_555 1_555
C14 C9 1_555 1_555
H11 C14 1_555 1_555
C1B C2B 1_555 1_555
C2B H1B 1_555 1_555
C3B C2B 1_555 1_555
H2B C3B 1_555 1_555
C4B C3B 1_555 1_555
H3B C4B 1_555 1_555
C5B C4B 1_555 1_555
H4B C5B 1_555 1_555
C6B C1B 1_555 1_555
H5B C6B 1_555 1_555
C7B C1B 1_555 1_555
H6B C7B 1_555 1_555
C8B C8 1_555 1_555
C9B C8B 1_555 1_555
C10B C9B 1_555 1_555
H7B C10B 1_555 1_555
C11B C10B 1_555 1_555
H8B C11B 1_555 1_555
C12B C11B 1_555 1_555
H9B C12B 1_555 1_555
C13B C12B 1_555 1_555
H10B C13B 1_555 1_555
C14B C9B 1_555 1_555
H11B C14B 1_555 1_555
C5 C6 1_555 1_555
C13 C14 1_555 1_555
C5B C6B 1_555 1_555
C7B C8B 1_555 1_555
C13B C14B 1_555 1_555

#END
