
#######################################################################
#
#                 Cambridge Crystallographic Data Centre
#                                CCDC 
#
#######################################################################
#
# If this CIF has been generated from an entry in the Cambridge 
# Structural Database, then it will include bibliographic, chemical, 
# crystal, experimental, refinement or atomic coordinate data resulting 
# from the CCDC's data processing and validation procedures.
#
#######################################################################

data_TEPFUS
_chemical_formula_moiety         'C23 H31 N1 O5 Si1'
_chemical_name_systematic        
'Benzyl (1R*,5S*,7S*)-9-[(t-butyl(dimethyl)silyl)oxy]-8-oxo-11-oxa-3-azatricyclo[5.3.1.0^1,5^]undec-9-ene-3-carboxylate'
_symmetry_cell_setting           monoclinic
_symmetry_space_group_name_H-M   'P 21/c'
_symmetry_Int_Tables_number      14
_space_group_name_Hall           '-P 2ybc'
loop_
_symmetry_equiv_pos_site_id
_symmetry_equiv_pos_as_xyz
1 x,y,z
2 -x,1/2+y,1/2-z
3 -x,-y,-z
4 x,1/2-y,1/2+z
_cell_length_a                   12.2994(3)
_cell_length_b                   10.2273(3)
_cell_length_c                   36.2157(13)
_cell_angle_alpha                90
_cell_angle_beta                 91.871(3)
_cell_angle_gamma                90
_cell_volume                     4553.13
_exptl_crystal_colour            colorless
_exptl_crystal_description       plate
_cell_formula_units_Z            8
loop_
_atom_site_label
_atom_site_type_symbol
_atom_site_fract_x
_atom_site_fract_y
_atom_site_fract_z
Si1 Si 0.04048(4) 0.11725(5) 0.11135(2)
O1 O -0.07041(11) 0.14800(13) 0.13544(4)
N1 N -0.21234(13) 0.22476(15) 0.29127(4)
C1 C 0.0004(2) 0.3417(2) 0.06813(7)
H1 H -0.0677 0.3533 0.0810
H2 H -0.0120 0.2832 0.0470
H3 H 0.0259 0.4267 0.0594
O2 O -0.07190(12) -0.11239(13) 0.16042(4)
C2 C 0.1066(2) 0.3751(2) 0.12744(7)
H4 H 0.1340 0.4589 0.1184
H5 H 0.1603 0.3366 0.1448
H6 H 0.0382 0.3895 0.1400
O3 O -0.22436(10) 0.04494(12) 0.22723(4)
C3 C 0.08668(17) 0.2819(2) 0.09470(6)
O4 O -0.36097(11) 0.33732(12) 0.30897(4)
C4 C 0.19320(19) 0.2635(3) 0.07409(7)
H7 H 0.1818 0.1995 0.0542
H8 H 0.2503 0.2321 0.0914
H9 H 0.2153 0.3473 0.0636
O5 O -0.26241(11) 0.21286(13) 0.34993(4)
C5 C -0.00316(19) 0.0115(2) 0.07184(6)
H10 H -0.0637 0.0532 0.0581
H11 H -0.0267 -0.0736 0.0811
H12 H 0.0579 -0.0009 0.0555
C6 C 0.14723(17) 0.0411(2) 0.14207(6)
H13 H 0.2166 0.0402 0.1295
H14 H 0.1260 -0.0487 0.1479
H15 H 0.1553 0.0918 0.1650
C7 C -0.09654(15) 0.11573(18) 0.17034(5)
C8 C -0.10280(15) -0.02498(18) 0.18042(5)
C9 C -0.14362(15) -0.05033(17) 0.21907(5)
H16 H -0.1734 -0.1409 0.2211
C10 C -0.05084(16) -0.02650(18) 0.24830(6)
H17 H -0.0560 -0.0879 0.2693
H18 H 0.0214 -0.0359 0.2373
C11 C -0.07077(15) 0.11512(17) 0.26057(5)
H19 H -0.0033 0.1691 0.2589
C12 C -0.16043(14) 0.16212(17) 0.23247(5)
C13 C -0.11879(14) 0.20499(17) 0.19593(5)
H20 H -0.1083 0.2953 0.1910
C14 C -0.22610(15) 0.26255(17) 0.25263(5)
H21 H -0.1978 0.3518 0.2485
H22 H -0.3037 0.2593 0.2445
C15 C -0.12279(16) 0.13145(19) 0.29832(5)
H23 H -0.1508 0.0469 0.3073
H24 H -0.0695 0.1666 0.3169
C16 C -0.28456(15) 0.26459(17) 0.31611(5)
C17 C -0.34052(16) 0.24724(19) 0.37755(5)
H25 H -0.4121 0.2075 0.3711
H26 H -0.3496 0.3434 0.3785
C18 C -0.29897(17) 0.19719(19) 0.41437(6)
C19 C -0.35521(18) 0.1032(2) 0.43324(6)
H27 H -0.4192 0.0660 0.4223
C20 C -0.3193(2) 0.0625(2) 0.46814(6)
H28 H -0.3599 -0.0007 0.4811
C21 C -0.2252(2) 0.1132(2) 0.48401(6)
H29 H -0.2007 0.0854 0.5079
C22 C -0.1669(2) 0.2050(3) 0.46493(7)
H30 H -0.1012 0.2393 0.4755
C23 C -0.2034(2) 0.2469(3) 0.43052(7)
H31 H -0.1629 0.3105 0.4177
Si2 Si -0.58089(4) 0.67716(5) 0.38422(2)
N2 N -0.30026(13) 0.64028(15) 0.21874(4)
O6 O -0.45613(11) 0.72625(13) 0.37290(4)
O7 O -0.46198(12) 0.98288(13) 0.34602(4)
O8 O -0.29424(10) 0.83054(12) 0.28221(4)
O9 O -0.15064(10) 0.52859(12) 0.20141(4)
O10 O -0.25286(10) 0.64518(12) 0.15979(3)
C24 C -0.6752(2) 0.6072(3) 0.45076(7)
H32 H -0.6974 0.5245 0.4391
H33 H -0.7307 0.6739 0.4454
H34 H -0.6671 0.5948 0.4775
C25 C -0.4794(2) 0.5465(3) 0.44351(7)
H35 H -0.4691 0.5361 0.4703
H36 H -0.4104 0.5727 0.4329
H37 H -0.5036 0.4634 0.4326
C26 C -0.56542(17) 0.6519(2) 0.43535(6)
C27 C -0.5305(2) 0.7809(3) 0.45401(7)
H38 H -0.5226 0.7676 0.4808
H39 H -0.5859 0.8479 0.4488
H40 H -0.4608 0.8093 0.4444
C28 C -0.61587(18) 0.5235(2) 0.35891(6)
H41 H -0.5558 0.4610 0.3620
H42 H -0.6282 0.5429 0.3326
H43 H -0.6820 0.4857 0.3689
C29 C -0.67903(17) 0.8083(2) 0.37150(7)
H44 H -0.7523 0.7817 0.3783
H45 H -0.6780 0.8238 0.3448
H46 H -0.6587 0.8888 0.3847
C30 C -0.42457(14) 0.75567(18) 0.33833(5)
C31 C -0.39514(14) 0.66603(17) 0.31355(5)
H47 H -0.4010 0.5755 0.3190
C32 C -0.35282(14) 0.70956(16) 0.27712(5)
C33 C -0.44388(14) 0.74864(16) 0.24835(5)
H48 H -0.5096 0.6920 0.2505
C34 C -0.46823(16) 0.89103(17) 0.25902(5)
H49 H -0.5421 0.8993 0.2689
H50 H -0.4619 0.9502 0.2376
C35 C -0.37965(15) 0.92150(17) 0.28926(5)
H51 H -0.3533 1.0136 0.2871
C36 C -0.42371(15) 0.89614(18) 0.32734(5)
C37 C -0.28166(15) 0.61197(17) 0.25796(5)
H52 H -0.2042 0.6243 0.2654
H53 H -0.3033 0.5212 0.2638
C38 C -0.39138(15) 0.73022(18) 0.21083(5)
H54 H -0.4438 0.6918 0.1925
H55 H -0.3649 0.8146 0.2012
C39 C -0.22841(15) 0.59883(16) 0.19396(5)
C40 C -0.17478(15) 0.61058(18) 0.13242(5)
H56 H -0.1643 0.5146 0.1321
H57 H -0.1038 0.6522 0.1386
C41 C -0.21664(16) 0.65662(17) 0.09529(5)
C42 C -0.14222(17) 0.6815(2) 0.06804(6)
H58 H -0.0666 0.6716 0.0735
C43 C -0.17705(19) 0.7203(2) 0.03298(6)
H59 H -0.1253 0.7364 0.0146
C44 C -0.28694(19) 0.7358(2) 0.02458(6)
H60 H -0.3108 0.7635 0.0006
C45 C -0.36170(18) 0.7105(2) 0.05152(6)
H61 H -0.4372 0.7205 0.0459
C46 C -0.32709(17) 0.6706(2) 0.08664(6)
H62 H -0.3790 0.6528 0.1048
loop_
_geom_bond_atom_site_label_1
_geom_bond_atom_site_label_2
_geom_bond_site_symmetry_1
_geom_bond_site_symmetry_2
Si1 O1 1_555 1_555
O1 C7 1_555 1_555
N1 C14 1_555 1_555
C1 H1 1_555 1_555
H2 C1 1_555 1_555
H3 C1 1_555 1_555
O2 C8 1_555 1_555
C2 H4 1_555 1_555
H5 C2 1_555 1_555
H6 C2 1_555 1_555
O3 C9 1_555 1_555
C3 Si1 1_555 1_555
O4 C16 1_555 1_555
C4 C3 1_555 1_555
H7 C4 1_555 1_555
H8 C4 1_555 1_555
H9 C4 1_555 1_555
O5 C16 1_555 1_555
C5 Si1 1_555 1_555
H10 C5 1_555 1_555
H11 C5 1_555 1_555
H12 C5 1_555 1_555
C6 Si1 1_555 1_555
H13 C6 1_555 1_555
H14 C6 1_555 1_555
H15 C6 1_555 1_555
C7 C8 1_555 1_555
C8 C9 1_555 1_555
C9 H16 1_555 1_555
C10 C9 1_555 1_555
H17 C10 1_555 1_555
H18 C10 1_555 1_555
C11 C10 1_555 1_555
H19 C11 1_555 1_555
C12 O3 1_555 1_555
C13 C7 1_555 1_555
H20 C13 1_555 1_555
C14 C12 1_555 1_555
H21 C14 1_555 1_555
H22 C14 1_555 1_555
C15 N1 1_555 1_555
H23 C15 1_555 1_555
H24 C15 1_555 1_555
C16 N1 1_555 1_555
C17 O5 1_555 1_555
H25 C17 1_555 1_555
H26 C17 1_555 1_555
C18 C17 1_555 1_555
C19 C18 1_555 1_555
H27 C19 1_555 1_555
C20 C19 1_555 1_555
H28 C20 1_555 1_555
C21 C20 1_555 1_555
H29 C21 1_555 1_555
C22 C21 1_555 1_555
H30 C22 1_555 1_555
C23 C18 1_555 1_555
H31 C23 1_555 1_555
Si2 O6 1_555 1_555
N2 C37 1_555 1_555
O6 C30 1_555 1_555
O7 C36 1_555 1_555
O8 C32 1_555 1_555
O9 C39 1_555 1_555
O10 C39 1_555 1_555
C24 H32 1_555 1_555
H33 C24 1_555 1_555
H34 C24 1_555 1_555
C25 H35 1_555 1_555
H36 C25 1_555 1_555
H37 C25 1_555 1_555
C26 Si2 1_555 1_555
C27 C26 1_555 1_555
H38 C27 1_555 1_555
H39 C27 1_555 1_555
H40 C27 1_555 1_555
C28 Si2 1_555 1_555
H41 C28 1_555 1_555
H42 C28 1_555 1_555
H43 C28 1_555 1_555
C29 Si2 1_555 1_555
H44 C29 1_555 1_555
H45 C29 1_555 1_555
H46 C29 1_555 1_555
C30 C31 1_555 1_555
C31 H47 1_555 1_555
C32 C31 1_555 1_555
C33 C32 1_555 1_555
H48 C33 1_555 1_555
C34 C33 1_555 1_555
H49 C34 1_555 1_555
H50 C34 1_555 1_555
C35 O8 1_555 1_555
H51 C35 1_555 1_555
C36 C30 1_555 1_555
C37 C32 1_555 1_555
H52 C37 1_555 1_555
H53 C37 1_555 1_555
C38 N2 1_555 1_555
H54 C38 1_555 1_555
H55 C38 1_555 1_555
C39 N2 1_555 1_555
C40 O10 1_555 1_555
H56 C40 1_555 1_555
H57 C40 1_555 1_555
C41 C40 1_555 1_555
C42 C41 1_555 1_555
H58 C42 1_555 1_555
C43 C42 1_555 1_555
H59 C43 1_555 1_555
C44 C43 1_555 1_555
H60 C44 1_555 1_555
C45 C44 1_555 1_555
H61 C45 1_555 1_555
C46 C41 1_555 1_555
H62 C46 1_555 1_555
C1 C3 1_555 1_555
C2 C3 1_555 1_555
C11 C12 1_555 1_555
C11 C15 1_555 1_555
C12 C13 1_555 1_555
C22 C23 1_555 1_555
C24 C26 1_555 1_555
C25 C26 1_555 1_555
C33 C38 1_555 1_555
C34 C35 1_555 1_555
C35 C36 1_555 1_555
C45 C46 1_555 1_555

#END
