
#######################################################################
#
#                 Cambridge Crystallographic Data Centre
#                                CCDC 
#
#######################################################################
#
# If this CIF has been generated from an entry in the Cambridge 
# Structural Database, then it will include bibliographic, chemical, 
# crystal, experimental, refinement or atomic coordinate data resulting 
# from the CCDC's data processing and validation procedures.
#
#######################################################################

data_TEPKEG
_chemical_formula_moiety         'C26 H18 N4,2(C6 F3 I3)'
_chemical_name_systematic        
'1,2,4,5-tetrakis(4-Pyridyl)benzene bis(1,3,5-trifluoro-2,4,6-tri-iodobenzene)'
_symmetry_cell_setting           triclinic
_symmetry_space_group_name_H-M   'P -1'
_symmetry_Int_Tables_number      2
_space_group_name_Hall           '-P 1'
loop_
_symmetry_equiv_pos_site_id
_symmetry_equiv_pos_as_xyz
1 x,y,z
2 -x,-y,-z
_cell_length_a                   9.3457(10)
_cell_length_b                   10.8381(11)
_cell_length_c                   11.4689(12)
_cell_angle_alpha                114.1730(10)
_cell_angle_beta                 102.9140(10)
_cell_angle_gamma                91.2080(10)
_cell_volume                     1024.7
_exptl_crystal_colour            colorless
_exptl_crystal_description       block
_cell_formula_units_Z            1
loop_
_atom_site_label
_atom_site_type_symbol
_atom_site_fract_x
_atom_site_fract_y
_atom_site_fract_z
C1 C 0.0011(4) 0.6521(3) -0.0399(3)
C2 C 0.1489(4) 0.6401(3) -0.0065(3)
C3 C 0.2303(4) 0.6794(3) 0.1230(3)
C4 C 0.1551(4) 0.7297(3) 0.2204(3)
C5 C 0.0049(4) 0.7398(3) 0.1931(3)
C6 C -0.0683(4) 0.7017(4) 0.0627(4)
F1 F 0.2196(2) 0.5885(2) -0.1034(2)
F2 F 0.2308(2) 0.7688(2) 0.34696(19)
F3 F -0.2136(2) 0.7133(3) 0.0327(2)
I1 I -0.11117(3) 0.59466(2) -0.23840(2)
I2 I 0.45621(3) 0.66599(3) 0.16583(3)
I3 I -0.10555(3) 0.80805(3) 0.34548(2)
C7 C 0.8339(5) 0.3621(5) 0.4311(4)
H1 H 0.9278 0.3637 0.4809
C8 C 0.7738(4) 0.2454(4) 0.3184(4)
H2 H 0.8273 0.1715 0.2933
C9 C 0.6340(4) 0.2385(3) 0.2430(3)
C10 C 0.5627(4) 0.3536(4) 0.2844(4)
H3 H 0.4689 0.3550 0.2361
C11 C 0.6333(5) 0.4669(4) 0.3993(4)
H4 H 0.5841 0.5435 0.4258
C12 C 0.5642(4) 0.1131(3) 0.1201(3)
C13 C 0.4358(4) 0.0340(3) 0.1076(3)
C14 C 0.3747(4) -0.0768(3) -0.0130(3)
H5 H 0.2889 -0.1287 -0.0221
C15 C 0.1600(5) 0.0810(5) 0.3130(5)
H6 H 0.0579 0.0784 0.3002
C16 C 0.2169(4) 0.0569(4) 0.2048(4)
H7 H 0.1541 0.0385 0.1227
C17 C 0.3682(4) 0.0605(3) 0.2206(3)
C18 C 0.4529(5) 0.0845(4) 0.3456(4)
H8 H 0.5549 0.0850 0.3613
C19 C 0.3842(6) 0.1077(4) 0.4470(4)
H9 H 0.4436 0.1246 0.5300
N1 N 0.7664(4) 0.4724(4) 0.4731(3)
N2 N 0.2409(5) 0.1075(4) 0.4333(4)
C7A C 0.1661(5) -0.3621(5) -0.4311(4)
H1A H 0.0722 -0.3637 -0.4809
C8A C 0.2262(4) -0.2454(4) -0.3184(4)
H2A H 0.1727 -0.1715 -0.2933
C9A C 0.3660(4) -0.2385(3) -0.2430(3)
C10A C 0.4373(4) -0.3536(4) -0.2844(4)
H3A H 0.5311 -0.3550 -0.2361
C11A C 0.3667(5) -0.4669(4) -0.3993(4)
H4A H 0.4159 -0.5435 -0.4258
C12A C 0.4358(4) -0.1131(3) -0.1201(3)
C13A C 0.5642(4) -0.0340(3) -0.1076(3)
C14A C 0.6253(4) 0.0768(3) 0.0130(3)
H5A H 0.7111 0.1287 0.0221
C15A C 0.8400(5) -0.0810(5) -0.3130(5)
H6A H 0.9421 -0.0784 -0.3002
C16A C 0.7831(4) -0.0569(4) -0.2048(4)
H7A H 0.8459 -0.0385 -0.1227
C17A C 0.6318(4) -0.0605(3) -0.2206(3)
C18A C 0.5471(5) -0.0845(4) -0.3456(4)
H8A H 0.4451 -0.0850 -0.3613
C19A C 0.6158(6) -0.1077(4) -0.4470(4)
H9A H 0.5564 -0.1246 -0.5300
N1A N 0.2336(4) -0.4724(4) -0.4731(3)
N2A N 0.7591(5) -0.1075(4) -0.4333(4)
loop_
_geom_bond_atom_site_label_1
_geom_bond_atom_site_label_2
_geom_bond_site_symmetry_1
_geom_bond_site_symmetry_2
C1 C2 1_555 1_555
C2 C3 1_555 1_555
C3 C4 1_555 1_555
C4 C5 1_555 1_555
C5 C6 1_555 1_555
C6 C1 1_555 1_555
C7 H1 1_555 1_555
C8 C7 1_555 1_555
H2 C8 1_555 1_555
C9 C8 1_555 1_555
C10 C9 1_555 1_555
H3 C10 1_555 1_555
C11 C10 1_555 1_555
H4 C11 1_555 1_555
C12 C9 1_555 1_555
C13 C12 1_555 1_555
C14 C13 1_555 1_555
H5 C14 1_555 1_555
C15 H6 1_555 1_555
C16 C15 1_555 1_555
H7 C16 1_555 1_555
C17 C13 1_555 1_555
C18 C17 1_555 1_555
H8 C18 1_555 1_555
C19 C18 1_555 1_555
H9 C19 1_555 1_555
F1 C2 1_555 1_555
F2 C4 1_555 1_555
F3 C6 1_555 1_555
I1 C1 1_555 1_555
I2 C3 1_555 1_555
I3 C5 1_555 1_555
N1 C7 1_555 1_555
N2 C15 1_555 1_555
C7A H1A 1_555 1_555
C8A C7A 1_555 1_555
H2A C8A 1_555 1_555
C9A C8A 1_555 1_555
C10A C9A 1_555 1_555
H3A C10A 1_555 1_555
C11A C10A 1_555 1_555
H4A C11A 1_555 1_555
C12A C14 1_555 1_555
C13A C12A 1_555 1_555
C14A C12 1_555 1_555
H5A C14A 1_555 1_555
C15A H6A 1_555 1_555
C16A C15A 1_555 1_555
H7A C16A 1_555 1_555
C17A C13A 1_555 1_555
C18A C17A 1_555 1_555
H8A C18A 1_555 1_555
C19A C18A 1_555 1_555
H9A C19A 1_555 1_555
N1A C7A 1_555 1_555
N2A C15A 1_555 1_555
C11 N1 1_555 1_555
C16 C17 1_555 1_555
C19 N2 1_555 1_555
C9A C12A 1_555 1_555
C11A N1A 1_555 1_555
C13A C14A 1_555 1_555
C16A C17A 1_555 1_555
C19A N2A 1_555 1_555

#END
