
#######################################################################
#
#                 Cambridge Crystallographic Data Centre
#                                CCDC 
#
#######################################################################
#
# If this CIF has been generated from an entry in the Cambridge 
# Structural Database, then it will include bibliographic, chemical, 
# crystal, experimental, refinement or atomic coordinate data resulting 
# from the CCDC's data processing and validation procedures.
#
#######################################################################

data_TEPKAC
_chemical_formula_moiety         'C26 H18 N4,2(C6 F4 I2),C1 H1 Cl3'
_chemical_name_systematic        
'1,2,4,5-tetrakis(4-Pyridyl)benzene bis(1,3-di-iodotetrafluorobenzene) chloroform solvate'
_symmetry_cell_setting           monoclinic
_symmetry_space_group_name_H-M   'C 2/c'
_symmetry_Int_Tables_number      15
_space_group_name_Hall           '-C 2yn'
loop_
_symmetry_equiv_pos_site_id
_symmetry_equiv_pos_as_xyz
1 x,y,z
2 -x,y,1/2-z
3 1/2+x,1/2+y,z
4 1/2-x,1/2+y,1/2-z
5 -x,-y,-z
6 x,-y,1/2+z
7 1/2-x,1/2-y,-z
8 1/2+x,1/2-y,1/2+z
_cell_length_a                   20.9771(19)
_cell_length_b                   20.4699(18)
_cell_length_c                   10.1640(9)
_cell_angle_alpha                90
_cell_angle_beta                 95.3160(10)
_cell_angle_gamma                90
_cell_volume                     4345.64
_exptl_crystal_colour            colorless
_exptl_crystal_description       block
_cell_formula_units_Z            4
loop_
_atom_site_label
_atom_site_type_symbol
_atom_site_fract_x
_atom_site_fract_y
_atom_site_fract_z
C8 C 0.6531(3) 0.7709(3) 0.9222(6)
H2 H 0.6974 0.7667 0.9271
C9 C 0.6253(2) 0.8264(2) 0.8625(5)
H3 H 0.6508 0.8586 0.8296
C10 C 0.5591(2) 0.8332(2) 0.8525(4)
C11 C 0.5243(3) 0.7833(2) 0.9041(5)
H4 H 0.4799 0.7856 0.8995
C12 C 0.5562(3) 0.7303(2) 0.9624(6)
H5 H 0.5320 0.6973 0.9965
C13 C 0.5281(2) 0.8931(2) 0.7932(5)
C14 C 0.5558(2) 0.9533(2) 0.8306(5)
H6 H 0.5940 0.9533 0.8852
C15 C 0.5292(2) 1.0129(2) 0.7902(4)
C16 C 0.6219(2) 1.1401(2) 0.9948(5)
H7 H 0.6397 1.1447 1.0815
C17 C 0.5908(2) 1.0821(2) 0.9597(5)
H8 H 0.5877 1.0491 1.0217
C18 C 0.5647(2) 1.0741(2) 0.8314(4)
C19 C 0.5731(2) 1.1245(2) 0.7436(5)
H9 H 0.5580 1.1203 0.6551
C20 C 0.6039(3) 1.1807(2) 0.7883(6)
H10 H 0.6081 1.2144 0.7283
N1 N 0.6192(2) 0.7237(2) 0.9727(5)
N2 N 0.6278(2) 1.18946(19) 0.9123(5)
C8A C 0.3469(3) 0.7709(3) 0.5778(6)
H2A H 0.3026 0.7667 0.5729
C9A C 0.3747(2) 0.8264(2) 0.6375(5)
H3A H 0.3492 0.8586 0.6704
C10A C 0.4409(2) 0.8332(2) 0.6475(4)
C11A C 0.4757(3) 0.7833(2) 0.5959(5)
H4A H 0.5201 0.7856 0.6005
C12A C 0.4438(3) 0.7303(2) 0.5376(6)
H5A H 0.4680 0.6973 0.5035
C13A C 0.4719(2) 0.8931(2) 0.7068(5)
C14A C 0.4442(2) 0.9533(2) 0.6694(5)
H6A H 0.4060 0.9533 0.6148
C15A C 0.4708(2) 1.0129(2) 0.7098(4)
C16A C 0.3781(2) 1.1401(2) 0.5052(5)
H7A H 0.3603 1.1447 0.4185
C17A C 0.4092(2) 1.0821(2) 0.5403(5)
H8A H 0.4123 1.0491 0.4783
C18A C 0.4353(2) 1.0741(2) 0.6686(4)
C19A C 0.4269(2) 1.1245(2) 0.7564(5)
H9A H 0.4420 1.1203 0.8449
C20A C 0.3961(3) 1.1807(2) 0.7117(6)
H10A H 0.3919 1.2144 0.7717
N1A N 0.3808(2) 0.7237(2) 0.5273(5)
N2A N 0.3722(2) 1.18946(19) 0.5877(5)
C2 C 0.2112(2) 1.0145(2) 0.1485(5)
C3 C 0.1904(2) 0.9569(2) 0.0880(5)
C4 C 0.2076(2) 0.8955(2) 0.1335(5)
C5 C 0.2489(2) 0.8925(2) 0.2469(6)
C6 C 0.2733(2) 0.9479(3) 0.3078(5)
C7 C 0.2535(2) 1.0083(2) 0.2581(5)
F1 F 0.15071(18) 0.96138(14) -0.0245(3)
F2 F 0.26607(15) 0.83478(15) 0.3007(3)
F3 F 0.31427(16) 0.94397(18) 0.4171(3)
F4 F 0.27638(17) 1.06174(16) 0.3243(3)
I1 I 0.175937(18) 1.105510(16) 0.08101(4)
I2 I 0.173575(18) 0.810411(16) 0.03597(4)
Cl1? Cl 0.5000 0.4552(5) 0.7500
Cl2? Cl 0.5319(9) 0.5609(6) 0.6016(17)
Cl3? Cl 0.5586(5) 0.5788(5) 0.7254(13)
C1? C 0.4787(10) 0.5278(5) 0.687(2)
H1? H 0.4456 0.5163 0.6197
loop_
_geom_bond_atom_site_label_1
_geom_bond_atom_site_label_2
_geom_bond_site_symmetry_1
_geom_bond_site_symmetry_2
C2 C3 1_555 1_555
C3 C4 1_555 1_555
C4 C5 1_555 1_555
C5 C6 1_555 1_555
C6 C7 1_555 1_555
C7 C2 1_555 1_555
C8 H2 1_555 1_555
C9 C8 1_555 1_555
H3 C9 1_555 1_555
C10 C9 1_555 1_555
C11 C10 1_555 1_555
H4 C11 1_555 1_555
C12 C11 1_555 1_555
H5 C12 1_555 1_555
C13 C10 1_555 1_555
C14 C13 1_555 1_555
H6 C14 1_555 1_555
C15 C14 1_555 1_555
C16 H7 1_555 1_555
C17 C16 1_555 1_555
H8 C17 1_555 1_555
C18 C15 1_555 1_555
C19 C18 1_555 1_555
H9 C19 1_555 1_555
C20 C19 1_555 1_555
H10 C20 1_555 1_555
F1 C3 1_555 1_555
F2 C5 1_555 1_555
F3 C6 1_555 1_555
F4 C7 1_555 1_555
I1 C2 1_555 1_555
I2 C4 1_555 1_555
N1 C8 1_555 1_555
N2 C16 1_555 1_555
C8A H2A 1_555 1_555
C9A C8A 1_555 1_555
H3A C9A 1_555 1_555
C10A C9A 1_555 1_555
C11A C10A 1_555 1_555
H4A C11A 1_555 1_555
C12A C11A 1_555 1_555
H5A C12A 1_555 1_555
C13A C13 1_555 1_555
C14A C13A 1_555 1_555
H6A C14A 1_555 1_555
C15A C15 1_555 1_555
C16A H7A 1_555 1_555
C17A C16A 1_555 1_555
H8A C17A 1_555 1_555
C18A C15A 1_555 1_555
C19A C18A 1_555 1_555
H9A C19A 1_555 1_555
C20A C19A 1_555 1_555
H10A C20A 1_555 1_555
N1A C8A 1_555 1_555
N2A C16A 1_555 1_555
C12 N1 1_555 1_555
C17 C18 1_555 1_555
C20 N2 1_555 1_555
C10A C13A 1_555 1_555
C12A N1A 1_555 1_555
C14A C15A 1_555 1_555
C17A C18A 1_555 1_555
C20A N2A 1_555 1_555

#END
