
#######################################################################
#
#                 Cambridge Crystallographic Data Centre
#                                CCDC 
#
#######################################################################
#
# If this CIF has been generated from an entry in the Cambridge 
# Structural Database, then it will include bibliographic, chemical, 
# crystal, experimental, refinement or atomic coordinate data resulting 
# from the CCDC's data processing and validation procedures.
#
#######################################################################

data_TERXAP
_chemical_formula_moiety         'C14 H10 Br1 F1 N4 O4'
_chemical_name_systematic        
'1-(4-Bromophenyl)-2-fluoroethanone (2,4-dinitrophenyl)hydrazone'
_symmetry_cell_setting           orthorhombic
_symmetry_space_group_name_H-M   'P b c a'
_symmetry_Int_Tables_number      61
_space_group_name_Hall           '-P 2ac 2ab'
loop_
_symmetry_equiv_pos_site_id
_symmetry_equiv_pos_as_xyz
1 x,y,z
2 1/2-x,-y,1/2+z
3 1/2+x,1/2-y,-z
4 -x,1/2+y,1/2-z
5 -x,-y,-z
6 1/2+x,y,1/2-z
7 1/2-x,1/2+y,z
8 x,1/2-y,1/2+z
_cell_length_a                   13.366(1)
_cell_length_b                   7.3869(7)
_cell_length_c                   29.892(3)
_cell_angle_alpha                90
_cell_angle_beta                 90
_cell_angle_gamma                90
_cell_volume                     2951.34
_exptl_crystal_colour            orange
_cell_formula_units_Z            8
loop_
_atom_site_label
_atom_site_type_symbol
_atom_site_fract_x
_atom_site_fract_y
_atom_site_fract_z
Br1 Br 0.74483(2) 0.02400(4) 0.26238(1)
F1 F 1.1779(1) -0.4310(2) 0.11438(6)
O1 O 1.2375(2) -0.5529(3) -0.05514(7)
O2 O 1.2292(1) -0.4701(3) 0.01409(6)
O3 O 1.0103(2) -0.3540(3) -0.16433(6)
O4 O 0.8837(1) -0.1814(3) -0.14697(6)
N1 N 1.0750(2) -0.2882(3) 0.04366(7)
N2 N 1.0075(2) -0.2344(3) 0.07586(7)
N3 N 1.1964(2) -0.4689(3) -0.02468(8)
N4 N 0.9589(2) -0.2699(3) -0.13725(8)
C1 C 0.9562(2) -0.2029(3) -0.01344(8)
C2 C 1.0468(2) -0.2876(3) -0.00009(8)
C3 C 1.1052(2) -0.3694(3) -0.03441(8)
C4 C 1.0765(2) -0.3627(3) -0.07904(9)
C5 C 0.9890(2) -0.2768(3) -0.09010(8)
C6 C 0.9277(2) -0.1972(3) -0.05762(9)
C7 C 0.8774(2) -0.0901(4) 0.13988(9)
C8 C 0.8103(2) -0.0329(4) 0.1726(1)
C9 C 0.8360(2) -0.0516(4) 0.21732(9)
C10 C 0.9267(2) -0.1257(4) 0.22998(9)
C11 C 0.9936(2) -0.1825(4) 0.19714(9)
C12 C 0.9701(2) -0.1654(3) 0.15149(8)
C13 C 1.0414(2) -0.2220(3) 0.11631(8)
C14 C 1.1506(2) -0.2541(4) 0.12767(9)
H1 H 0.9096(18) -0.1402(38) 0.0117(7)
H2 H 1.1227(17) -0.4268(36) -0.1041(7)
H3 H 0.8585(11) -0.1344(36) -0.0680(9)
H4 H 1.1413(12) -0.3505(37) 0.0521(10)
H5 H 0.8561(23) -0.0826(46) 0.1051(3)
H6 H 0.7400(14) 0.0303(46) 0.1641(12)
H7 H 0.9463(24) -0.1411(47) 0.2648(3)
H8 H 1.0664(12) -0.2343(45) 0.2061(12)
H9 H 1.1997(19) -0.1658(36) 0.1078(9)
H10 H 1.1681(21) -0.2375(40) 0.1634(2)
loop_
_geom_bond_atom_site_label_1
_geom_bond_atom_site_label_2
_geom_bond_site_symmetry_1
_geom_bond_site_symmetry_2
Br1 C9 1_555 1_555
F1 C14 1_555 1_555
O1 N3 1_555 1_555
O2 N3 1_555 1_555
O3 N4 1_555 1_555
O4 N4 1_555 1_555
N1 N2 1_555 1_555
N2 C13 1_555 1_555
N3 C3 1_555 1_555
N4 C5 1_555 1_555
C1 C2 1_555 1_555
C2 N1 1_555 1_555
C3 C2 1_555 1_555
C4 C3 1_555 1_555
C5 C4 1_555 1_555
C6 C1 1_555 1_555
C7 C8 1_555 1_555
C8 C9 1_555 1_555
C9 C10 1_555 1_555
C10 C11 1_555 1_555
C11 C12 1_555 1_555
C12 C7 1_555 1_555
C13 C12 1_555 1_555
C14 C13 1_555 1_555
H1 C1 1_555 1_555
H2 C4 1_555 1_555
H3 C6 1_555 1_555
H4 N1 1_555 1_555
H5 C7 1_555 1_555
H6 C8 1_555 1_555
H7 C10 1_555 1_555
H8 C11 1_555 1_555
H9 C14 1_555 1_555
H10 C14 1_555 1_555
C5 C6 1_555 1_555

#END
