
#######################################################################
#
#                 Cambridge Crystallographic Data Centre
#                                CCDC 
#
#######################################################################
#
# If this CIF has been generated from an entry in the Cambridge 
# Structural Database, then it will include bibliographic, chemical, 
# crystal, experimental, refinement or atomic coordinate data resulting 
# from the CCDC's data processing and validation procedures.
#
#######################################################################

data_TESHAD
_chemical_formula_moiety         'C21 H20 Si1'
_chemical_name_systematic        
1,1-dimethyl-2-(1-phenylethylidene)-1,2-dihydronaphtho[1,8-bc]silole
_symmetry_cell_setting           monoclinic
_symmetry_space_group_name_H-M   'P 21/n'
_symmetry_Int_Tables_number      14
_space_group_name_Hall           '-P 2yn'
loop_
_symmetry_equiv_pos_site_id
_symmetry_equiv_pos_as_xyz
1 x,y,z
2 1/2-x,1/2+y,1/2-z
3 -x,-y,-z
4 1/2+x,1/2-y,1/2+z
_cell_length_a                   12.2864(7)
_cell_length_b                   9.5206(6)
_cell_length_c                   14.4288(8)
_cell_angle_alpha                90
_cell_angle_beta                 96.731(6)
_cell_angle_gamma                90
_cell_volume                     1676.16
_exptl_crystal_colour            'light colorless'
_exptl_crystal_description       block
_cell_formula_units_Z            4
loop_
_atom_site_label
_atom_site_type_symbol
_atom_site_fract_x
_atom_site_fract_y
_atom_site_fract_z
Si1 Si 0.25275(4) 0.59751(5) 0.14965(4)
C1 C 0.35832(14) 0.58564(18) 0.25258(12)
C2 C 0.37263(17) 0.6572(2) 0.33601(13)
H1 H 0.3206 0.7228 0.3495
C3 C 0.46503(18) 0.6322(2) 0.40088(13)
H2 H 0.4730 0.6804 0.4573
C4 C 0.54307(17) 0.5383(2) 0.38223(13)
H3 H 0.6037 0.5235 0.4261
C5 C 0.53336(15) 0.46305(19) 0.29741(12)
C6 C 0.43945(14) 0.48637(18) 0.23299(12)
C7 C 0.61477(15) 0.37032(19) 0.27210(13)
H4 H 0.6764 0.3513 0.3141
C8 C 0.60300(15) 0.30894(19) 0.18638(14)
H5 H 0.6582 0.2505 0.1698
C9 C 0.50921(14) 0.33181(19) 0.12223(13)
H6 H 0.5039 0.2888 0.0640
C10 C 0.42517(13) 0.41684(17) 0.14417(12)
C11 C 0.32095(13) 0.45503(18) 0.08574(12)
C12 C 0.28126(14) 0.39985(19) 0.00278(12)
C13 C 0.17719(16) 0.4542(2) -0.05157(15)
H7 H 0.1459 0.5258 -0.0160
H8 H 0.1259 0.3785 -0.0635
H9 H 0.1937 0.4930 -0.1097
C14 C 0.33101(13) 0.28283(19) -0.04661(12)
C15 C 0.33211(14) 0.14546(19) -0.01392(12)
H10 H 0.3037 0.1254 0.0416
C16 C 0.37507(15) 0.0385(2) -0.06323(13)
H11 H 0.3754 -0.0529 -0.0405
C17 C 0.41743(16) 0.0659(2) -0.14559(14)
H12 H 0.4465 -0.0065 -0.1783
C18 C 0.41634(16) 0.2019(2) -0.17914(14)
H13 H 0.4450 0.2214 -0.2346
C19 C 0.37274(15) 0.3086(2) -0.13031(13)
H14 H 0.3713 0.3996 -0.1539
C20 C 0.25384(19) 0.7724(2) 0.09267(15)
H15 H 0.3279 0.7984 0.0857
H16 H 0.2225 0.8410 0.1305
H17 H 0.2117 0.7683 0.0324
C21 C 0.11333(16) 0.5566(3) 0.18091(17)
H18 H 0.0623 0.5530 0.1252
H19 H 0.0912 0.6283 0.2216
H20 H 0.1146 0.4674 0.2120
loop_
_geom_bond_atom_site_label_1
_geom_bond_atom_site_label_2
_geom_bond_site_symmetry_1
_geom_bond_site_symmetry_2
Si1 C1 1_555 1_555
C1 C2 1_555 1_555
C2 H1 1_555 1_555
C3 C2 1_555 1_555
H2 C3 1_555 1_555
C4 C3 1_555 1_555
H3 C4 1_555 1_555
C5 C4 1_555 1_555
C6 C1 1_555 1_555
C7 C5 1_555 1_555
H4 C7 1_555 1_555
C8 C7 1_555 1_555
H5 C8 1_555 1_555
C9 C8 1_555 1_555
H6 C9 1_555 1_555
C10 C6 1_555 1_555
C11 Si1 1_555 1_555
C12 C11 1_555 1_555
C13 C12 1_555 1_555
H7 C13 1_555 1_555
H8 C13 1_555 1_555
H9 C13 1_555 1_555
C14 C12 1_555 1_555
C15 C14 1_555 1_555
H10 C15 1_555 1_555
C16 C15 1_555 1_555
H11 C16 1_555 1_555
C17 C16 1_555 1_555
H12 C17 1_555 1_555
C18 C17 1_555 1_555
H13 C18 1_555 1_555
C19 C14 1_555 1_555
H14 C19 1_555 1_555
C20 Si1 1_555 1_555
H15 C20 1_555 1_555
H16 C20 1_555 1_555
H17 C20 1_555 1_555
C21 Si1 1_555 1_555
H18 C21 1_555 1_555
H19 C21 1_555 1_555
H20 C21 1_555 1_555
C5 C6 1_555 1_555
C9 C10 1_555 1_555
C10 C11 1_555 1_555
C18 C19 1_555 1_555

#END
