
#######################################################################
#
#                 Cambridge Crystallographic Data Centre
#                                CCDC 
#
#######################################################################
#
# If this CIF has been generated from an entry in the Cambridge 
# Structural Database, then it will include bibliographic, chemical, 
# crystal, experimental, refinement or atomic coordinate data resulting 
# from the CCDC's data processing and validation procedures.
#
#######################################################################

data_TESHUW
_chemical_formula_moiety         'C23 H24 N4 O9 S1'
_chemical_name_systematic        
'4-((4-((5,6-Dimethoxypyrimidin-4-yl)sulfamoyl)phenyl)carbamoyl)-2,6-dimethoxyphenyl acetate'
_symmetry_cell_setting           triclinic
_symmetry_space_group_name_H-M   'P -1'
_symmetry_Int_Tables_number      2
_space_group_name_Hall           '-P 1'
loop_
_symmetry_equiv_pos_site_id
_symmetry_equiv_pos_as_xyz
1 x,y,z
2 -x,-y,-z
_cell_length_a                   8.2973(10)
_cell_length_b                   11.1991(13)
_cell_length_c                   13.8762(16)
_cell_angle_alpha                88.856(2)
_cell_angle_beta                 76.540(2)
_cell_angle_gamma                80.098(2)
_cell_volume                     1235.04
_exptl_crystal_colour            colorless
_exptl_crystal_description       block
_chemical_melting_point          '565-567 K'
_cell_formula_units_Z            2
loop_
_atom_site_label
_atom_site_type_symbol
_atom_site_fract_x
_atom_site_fract_y
_atom_site_fract_z
S1 S 0.18790(6) 0.19387(4) 0.33939(3)
C1 C 0.1614(2) 0.13062(16) 0.45765(13)
O1 O -0.01513(18) -0.26120(13) 1.16170(10)
O2 O 0.04222(17) 0.28105(13) 0.33651(10)
O3 O 0.36690(17) -0.06973(14) 0.75310(10)
N1 N 0.3523(2) 0.26033(15) 0.32287(12)
H1 H 0.4447 0.2237 0.2856
O4 O 0.23992(17) 0.09682(13) 0.26739(9)
N2 N 0.09793(19) -0.02306(15) 0.73693(11)
H2 H -0.0048 -0.0243 0.7670
C2 C -0.0011(2) 0.11581(18) 0.62164(14)
H3 H -0.0984 0.1405 0.6706
C3 C 0.1243(2) 0.02713(16) 0.64184(13)
O5 O 0.2399(2) -0.13611(16) 1.13326(10)
C4 C 0.2167(2) -0.06942(17) 0.78594(14)
N3 N 0.2340(2) 0.41110(15) 0.44596(12)
O6 O -0.1710(2) -0.28878(16) 1.01918(11)
O7 O 0.60153(19) 0.38799(14) 0.24292(12)
C5 C 0.4769(2) 0.43851(18) 0.32048(15)
C6 C 0.2855(2) 0.03939(17) 0.47583(14)
H4 H 0.3812 0.0133 0.4262
C7 C 0.0165(2) 0.16807(17) 0.52935(14)
H5 H -0.0680 0.2275 0.5160
O8 O 0.5780(2) 0.62110(15) 0.32131(14)
C8 C 0.1508(2) -0.11885(17) 0.88566(13)
C9 C 0.3540(2) 0.37241(17) 0.36476(14)
C10 C 0.2333(3) -0.10520(18) 0.95976(14)
H6 H 0.3261 -0.0662 0.9472
C11 C 0.2668(2) -0.01270(17) 0.56773(14)
H7 H 0.3495 -0.0744 0.5800
C12 C 0.0134(3) -0.17783(18) 0.90282(14)
H8 H -0.0418 -0.1852 0.8527
N4 N 0.3448(2) 0.59356(16) 0.44321(14)
C13 C 0.1759(3) -0.15025(18) 1.05269(14)
C14 C 0.0411(3) -0.21180(17) 1.06896(14)
C15 C -0.0410(3) -0.22569(18) 0.99481(15)
C16 C 0.2373(3) 0.5197(2) 0.47989(16)
H9 H 0.1546 0.5478 0.5361
C17 C 0.0811(3) -0.3657(2) 1.18104(17)
C18 C 0.4644(3) 0.55219(19) 0.36383(17)
O9 O 0.2092(3) -0.40770(18) 1.12556(16)
C19 C 0.0050(4) -0.4162(2) 1.27717(18)
H10 H 0.0759 -0.4897 1.2886
H11 H -0.1039 -0.4331 1.2756
H12 H -0.0062 -0.3584 1.3295
C20 C 0.4047(3) -0.1100(3) 1.11704(19)
H13 H 0.4329 -0.1020 1.1796
H14 H 0.4104 -0.0356 1.0819
H15 H 0.4827 -0.1747 1.0786
C21 C 0.6186(4) 0.4499(3) 0.1508(2)
H16 H 0.7103 0.4058 0.1023
H17 H 0.6405 0.5299 0.1599
H18 H 0.5165 0.4557 0.1284
C22 C -0.2454(4) -0.3146(3) 0.9420(2)
H19 H -0.3354 -0.3584 0.9678
H20 H -0.1624 -0.3629 0.8914
H21 H -0.2889 -0.2402 0.9143
C23 C 0.5597(4) 0.7411(2) 0.3619(3)
H22 H 0.6480 0.7807 0.3252
H23 H 0.5663 0.7360 0.4301
H24 H 0.4526 0.7868 0.3577
loop_
_geom_bond_atom_site_label_1
_geom_bond_atom_site_label_2
_geom_bond_site_symmetry_1
_geom_bond_site_symmetry_2
S1 C1 1_555 1_555
C1 C6 1_555 1_555
O1 C14 1_555 1_555
O2 S1 1_555 1_555
O3 C4 1_555 1_555
N1 S1 1_555 1_555
H1 N1 1_555 1_555
O4 S1 1_555 1_555
N2 H2 1_555 1_555
C2 H3 1_555 1_555
C3 N2 1_555 1_555
O5 C13 1_555 1_555
C4 N2 1_555 1_555
N3 C9 1_555 1_555
O6 C15 1_555 1_555
O7 C5 1_555 1_555
C5 C9 1_555 1_555
C6 H4 1_555 1_555
C7 C1 1_555 1_555
H5 C7 1_555 1_555
O8 C18 1_555 1_555
C8 C4 1_555 1_555
C9 N1 1_555 1_555
C10 C8 1_555 1_555
H6 C10 1_555 1_555
C11 C3 1_555 1_555
H7 C11 1_555 1_555
C12 C8 1_555 1_555
H8 C12 1_555 1_555
N4 C16 1_555 1_555
C13 C10 1_555 1_555
C14 C13 1_555 1_555
C15 C12 1_555 1_555
C16 N3 1_555 1_555
H9 C16 1_555 1_555
C17 O1 1_555 1_555
C18 C5 1_555 1_555
O9 C17 1_555 1_555
C19 C17 1_555 1_555
H10 C19 1_555 1_555
H11 C19 1_555 1_555
H12 C19 1_555 1_555
C20 O5 1_555 1_555
H13 C20 1_555 1_555
H14 C20 1_555 1_555
H15 C20 1_555 1_555
C21 O7 1_555 1_555
H16 C21 1_555 1_555
H17 C21 1_555 1_555
H18 C21 1_555 1_555
C22 O6 1_555 1_555
H19 C22 1_555 1_555
H20 C22 1_555 1_555
H21 C22 1_555 1_555
C23 O8 1_555 1_555
H22 C23 1_555 1_555
H23 C23 1_555 1_555
H24 C23 1_555 1_555
C2 C3 1_555 1_555
C2 C7 1_555 1_555
C6 C11 1_555 1_555
N4 C18 1_555 1_555
C14 C15 1_555 1_555

#END
