
#######################################################################
#
#                 Cambridge Crystallographic Data Centre
#                                CCDC 
#
#######################################################################
#
# If this CIF has been generated from an entry in the Cambridge 
# Structural Database, then it will include bibliographic, chemical, 
# crystal, experimental, refinement or atomic coordinate data resulting 
# from the CCDC's data processing and validation procedures.
#
#######################################################################

data_TESJAE
_chemical_formula_moiety         'C13 H12 N4 O2'
_chemical_name_systematic        
N'-(2-Hydroxybenzoyl)pyridine-2-carbohydrazonamide
_symmetry_cell_setting           monoclinic
_symmetry_space_group_name_H-M   'C c'
_symmetry_Int_Tables_number      9
_space_group_name_Hall           'C -2yc'
loop_
_symmetry_equiv_pos_site_id
_symmetry_equiv_pos_as_xyz
1 x,y,z
2 x,-y,1/2+z
3 1/2+x,1/2+y,z
4 1/2+x,1/2-y,1/2+z
_cell_length_a                   8.749(4)
_cell_length_b                   17.707(8)
_cell_length_c                   8.005(4)
_cell_angle_alpha                90
_cell_angle_beta                 102.751(5)
_cell_angle_gamma                90
_cell_volume                     1209.54
_exptl_crystal_colour            yellow
_exptl_crystal_description       prism
_cell_formula_units_Z            4
_exptl_crystal_recrystallization_method acetonitrile
loop_
_atom_site_label
_atom_site_type_symbol
_atom_site_fract_x
_atom_site_fract_y
_atom_site_fract_z
O1 O 0.23591(15) 0.73032(7) 0.52853(16)
O2 O 0.11078(15) 0.61493(7) 0.33645(14)
C1 C -0.3022(2) 0.43190(10) 0.0612(2)
H1 H -0.2910 0.4841 0.0630
C2 C -0.3980(3) 0.39559(13) -0.0763(2)
H2 H -0.4521 0.4234 -0.1693
C3 C -0.4127(2) 0.31877(12) -0.0748(2)
H3 H -0.4771 0.2936 -0.1658
C4 C -0.3305(2) 0.27966(10) 0.0637(3)
H4 H -0.3402 0.2274 0.0640
C5 C -0.22399(19) 0.38774(9) 0.1954(2)
C6 C -0.12111(17) 0.42206(9) 0.35137(19)
C7 C 0.11746(17) 0.57948(9) 0.47217(19)
C8 C 0.22654(18) 0.60315(9) 0.63375(19)
C9 C 0.28365(19) 0.55213(10) 0.7663(2)
H5 H 0.2514 0.5020 0.7551
C10 C 0.3870(2) 0.57526(11) 0.9133(2)
H6 H 0.4235 0.5408 1.0007
C11 C 0.4364(2) 0.64921(11) 0.9308(2)
H7 H 0.5061 0.6646 1.0302
C12 C 0.3831(2) 0.70041(11) 0.8019(2)
H8 H 0.4159 0.7504 0.8149
C13 C 0.28076(18) 0.67764(9) 0.6529(2)
N1 N -0.1035(2) 0.38074(9) 0.49420(19)
H9 H -0.0437(19) 0.3954(10) 0.5935(16)
H10 H -0.153(2) 0.3370(7) 0.485(3)
N2 N -0.06199(14) 0.48787(7) 0.33227(15)
N3 N 0.03340(14) 0.51723(7) 0.48172(16)
H11 H 0.018(2) 0.5036(9) 0.5823(15)
N4 N -0.23722(18) 0.31272(8) 0.19843(18)
H12 H 0.192(3) 0.7082(14) 0.434(2)
loop_
_geom_bond_atom_site_label_1
_geom_bond_atom_site_label_2
_geom_bond_site_symmetry_1
_geom_bond_site_symmetry_2
O1 C13 1_555 1_555
O2 C7 1_555 1_555
C1 H1 1_555 1_555
C2 C1 1_555 1_555
H2 C2 1_555 1_555
C3 C2 1_555 1_555
H3 C3 1_555 1_555
C4 C3 1_555 1_555
H4 C4 1_555 1_555
C5 C1 1_555 1_555
C6 C5 1_555 1_555
C7 C8 1_555 1_555
C8 C9 1_555 1_555
C9 H5 1_555 1_555
C10 C9 1_555 1_555
H6 C10 1_555 1_555
C11 C10 1_555 1_555
H7 C11 1_555 1_555
C12 C11 1_555 1_555
H8 C12 1_555 1_555
C13 C8 1_555 1_555
N1 C6 1_555 1_555
H9 N1 1_555 1_555
H10 N1 1_555 1_555
N2 C6 1_555 1_555
N3 C7 1_555 1_555
H11 N3 1_555 1_555
N4 C4 1_555 1_555
H12 O1 1_555 1_555
C5 N4 1_555 1_555
C12 C13 1_555 1_555
N2 N3 1_555 1_555

#END
