
#######################################################################
#
#                 Cambridge Crystallographic Data Centre
#                                CCDC 
#
#######################################################################
#
# If this CIF has been generated from an entry in the Cambridge 
# Structural Database, then it will include bibliographic, chemical, 
# crystal, experimental, refinement or atomic coordinate data resulting 
# from the CCDC's data processing and validation procedures.
#
#######################################################################

data_TESKAF
_chemical_formula_moiety         'C21 H21 N3 O2'
_chemical_name_systematic        
4-Dimethylamino-N'-((2-methoxy-1-naphthyl)methylene)benzohydrazide
_symmetry_cell_setting           monoclinic
_symmetry_space_group_name_H-M   'P 21/c'
_symmetry_Int_Tables_number      14
_space_group_name_Hall           '-P 2ybc'
loop_
_symmetry_equiv_pos_site_id
_symmetry_equiv_pos_as_xyz
1 x,y,z
2 -x,1/2+y,1/2-z
3 -x,-y,-z
4 x,1/2-y,1/2+z
_cell_length_a                   5.0165(5)
_cell_length_b                   13.148(1)
_cell_length_c                   26.705(2)
_cell_angle_alpha                90
_cell_angle_beta                 90.198(1)
_cell_angle_gamma                90
_cell_volume                     1761.37
_exptl_crystal_colour            colorless
_exptl_crystal_description       block
_cell_formula_units_Z            4
loop_
_atom_site_label
_atom_site_type_symbol
_atom_site_fract_x
_atom_site_fract_y
_atom_site_fract_z
N1 N 0.5587(5) 0.23232(17) 0.14990(9)
N2 N 0.6295(5) 0.14093(18) 0.12772(10)
N3 N 0.7735(7) -0.2842(2) 0.01522(12)
O1 O 1.0304(4) 0.32683(16) 0.25128(9)
O2 O 0.1991(4) 0.09101(16) 0.12477(8)
C1 C 0.7043(6) 0.3801(2) 0.19459(11)
C2 C 0.8581(6) 0.4017(2) 0.23634(11)
C3 C 0.8287(6) 0.4937(2) 0.26284(12)
H1 H 0.9340 0.5071 0.2908
C4 C 0.6447(7) 0.5624(2) 0.24708(13)
H2 H 0.6249 0.6226 0.2649
C5 C 0.4837(6) 0.5458(2) 0.20492(12)
C6 C 0.2925(7) 0.6174(2) 0.18889(14)
H3 H 0.2699 0.6770 0.2072
C7 C 0.1405(7) 0.6018(3) 0.14754(16)
H4 H 0.0147 0.6498 0.1376
C8 C 0.1760(7) 0.5123(3) 0.11997(14)
H5 H 0.0746 0.5017 0.0912
C9 C 0.3558(6) 0.4406(2) 0.13438(13)
H6 H 0.3739 0.3818 0.1154
C10 C 0.5159(6) 0.4535(2) 0.17752(11)
C11 C 0.7503(6) 0.2825(2) 0.16966(11)
H7 H 0.9225 0.2564 0.1682
C12 C 1.1948(7) 0.3442(3) 0.29362(13)
H8 H 1.3075 0.4019 0.2875
H9 H 1.3031 0.2853 0.2997
H10 H 1.0853 0.3573 0.3223
C13 C 0.4334(5) 0.0748(2) 0.11517(10)
C14 C 0.5255(5) -0.0181(2) 0.08928(10)
C15 C 0.4109(8) -0.1089(3) 0.09781(17)
H11 H 0.2699 -0.1126 0.1203
C16 C 0.4951(9) -0.1968(3) 0.07441(18)
H12 H 0.4171 -0.2583 0.0835
C17 C 0.6852(6) -0.1971(2) 0.03912(11)
C18 C 0.7950(10) -0.1050(3) 0.02940(19)
H13 H 0.9252 -0.1000 0.0048
C19 C 0.7194(10) -0.0191(3) 0.05477(18)
H14 H 0.8071 0.0415 0.0477
C20 C 0.6446(11) -0.3785(3) 0.0236(2)
H15 H 0.6297 -0.3902 0.0590
H16 H 0.7468 -0.4322 0.0087
H17 H 0.4699 -0.3769 0.0088
C21 C 0.9496(10) -0.2767(3) -0.02703(18)
H18 H 0.8575 -0.2450 -0.0545
H19 H 1.0064 -0.3436 -0.0368
H20 H 1.1023 -0.2366 -0.0181
H21 H 0.803(3) 0.126(3) 0.1236(13)
loop_
_geom_bond_atom_site_label_1
_geom_bond_atom_site_label_2
_geom_bond_site_symmetry_1
_geom_bond_site_symmetry_2
N1 N2 1_555 1_555
N2 C13 1_555 1_555
N3 C17 1_555 1_555
O1 C2 1_555 1_555
O2 C13 1_555 1_555
C1 C2 1_555 1_555
C2 C3 1_555 1_555
C3 H1 1_555 1_555
C4 C3 1_555 1_555
H2 C4 1_555 1_555
C5 C4 1_555 1_555
C6 C5 1_555 1_555
H3 C6 1_555 1_555
C7 C6 1_555 1_555
H4 C7 1_555 1_555
C8 C7 1_555 1_555
H5 C8 1_555 1_555
C9 C8 1_555 1_555
H6 C9 1_555 1_555
C10 C1 1_555 1_555
C11 N1 1_555 1_555
H7 C11 1_555 1_555
C12 O1 1_555 1_555
H8 C12 1_555 1_555
H9 C12 1_555 1_555
H10 C12 1_555 1_555
C13 C14 1_555 1_555
C14 C15 1_555 1_555
C15 H11 1_555 1_555
C16 C15 1_555 1_555
H12 C16 1_555 1_555
C17 C16 1_555 1_555
C18 C17 1_555 1_555
H13 C18 1_555 1_555
C19 C14 1_555 1_555
H14 C19 1_555 1_555
C20 N3 1_555 1_555
H15 C20 1_555 1_555
H16 C20 1_555 1_555
H17 C20 1_555 1_555
C21 N3 1_555 1_555
H18 C21 1_555 1_555
H19 C21 1_555 1_555
H20 C21 1_555 1_555
H21 N2 1_555 1_555
C1 C11 1_555 1_555
C5 C10 1_555 1_555
C9 C10 1_555 1_555
C18 C19 1_555 1_555

#END
