
#######################################################################
#
#                 Cambridge Crystallographic Data Centre
#                                CCDC 
#
#######################################################################
#
# If this CIF has been generated from an entry in the Cambridge 
# Structural Database, then it will include bibliographic, chemical, 
# crystal, experimental, refinement or atomic coordinate data resulting 
# from the CCDC's data processing and validation procedures.
#
#######################################################################

data_TEVHOU
_chemical_formula_moiety         'C16 H12 N2'
_chemical_name_systematic        N-phenyl-1-(quinolin-2-yl)methanimine
_symmetry_cell_setting           monoclinic
_symmetry_space_group_name_H-M   'P 21/c'
_symmetry_Int_Tables_number      14
_space_group_name_Hall           '-P 2ybc'
loop_
_symmetry_equiv_pos_site_id
_symmetry_equiv_pos_as_xyz
1 x,y,z
2 -x,1/2+y,1/2-z
3 -x,-y,-z
4 x,1/2-y,1/2+z
_cell_length_a                   11.808(2)
_cell_length_b                   5.3450(11)
_cell_length_c                   19.780(4)
_cell_angle_alpha                90
_cell_angle_beta                 94.52(3)
_cell_angle_gamma                90
_cell_volume                     1244.51
_exptl_crystal_colour            yellow
_exptl_crystal_description       block
_cell_formula_units_Z            4
loop_
_atom_site_label
_atom_site_type_symbol
_atom_site_fract_x
_atom_site_fract_y
_atom_site_fract_z
C1 C 0.28619(11) 0.6080(3) 0.30865(6)
C2 C 0.40338(11) 0.6604(3) 0.30661(7)
H1 H 0.4469 0.5713 0.2777
C3 C 0.45151(11) 0.8417(3) 0.34731(7)
H2 H 0.5286 0.8767 0.3466
C4 C 0.38505(11) 0.9769(2) 0.39054(6)
C5 C 0.42706(13) 1.1692(3) 0.43449(8)
H3 H 0.5035 1.2123 0.4360
C6 C 0.35705(15) 1.2925(3) 0.47477(8)
H4 H 0.3861 1.4191 0.5034
C7 C 0.24191(14) 1.2301(3) 0.47338(8)
H5 H 0.1948 1.3146 0.5012
C8 C 0.19868(11) 1.0460(3) 0.43143(7)
H6 H 0.1219 1.0068 0.4307
C9 C 0.26807(10) 0.9143(2) 0.38933(6)
C10 C 0.22920(11) 0.4161(3) 0.26511(7)
H7 H 0.1532 0.3810 0.2703
C11 C 0.21700(11) 0.1246(2) 0.17762(7)
C12 C 0.27798(12) -0.0634(3) 0.14925(7)
H8 H 0.3559 -0.0749 0.1601
C13 C 0.22527(13) -0.2341(3) 0.10513(8)
H9 H 0.2673 -0.3609 0.0869
C14 C 0.11040(13) -0.2166(3) 0.08808(8)
H10 H 0.0747 -0.3318 0.0583
C15 C 0.04836(12) -0.0291(3) 0.11509(8)
H11 H -0.0293 -0.0173 0.1033
C16 C 0.10026(12) 0.1413(3) 0.15944(8)
H12 H 0.0577 0.2679 0.1774
N1 N 0.22020(9) 0.7308(2) 0.34809(6)
N2 N 0.27831(9) 0.2973(2) 0.22117(6)
loop_
_geom_bond_atom_site_label_1
_geom_bond_atom_site_label_2
_geom_bond_site_symmetry_1
_geom_bond_site_symmetry_2
C1 C2 1_555 1_555
C2 H1 1_555 1_555
C3 C2 1_555 1_555
H2 C3 1_555 1_555
C4 C3 1_555 1_555
C5 C4 1_555 1_555
H3 C5 1_555 1_555
C6 C5 1_555 1_555
H4 C6 1_555 1_555
C7 C6 1_555 1_555
H5 C7 1_555 1_555
C8 C7 1_555 1_555
H6 C8 1_555 1_555
C9 C4 1_555 1_555
C10 C1 1_555 1_555
H7 C10 1_555 1_555
C11 C12 1_555 1_555
C12 H8 1_555 1_555
C13 C12 1_555 1_555
H9 C13 1_555 1_555
C14 C13 1_555 1_555
H10 C14 1_555 1_555
C15 C14 1_555 1_555
H11 C15 1_555 1_555
C16 C11 1_555 1_555
H12 C16 1_555 1_555
N1 C1 1_555 1_555
N2 C10 1_555 1_555
C8 C9 1_555 1_555
C9 N1 1_555 1_555
C11 N2 1_555 1_555
C15 C16 1_555 1_555

#END
