
#######################################################################
#
#                 Cambridge Crystallographic Data Centre
#                                CCDC 
#
#######################################################################
#
# If this CIF has been generated from an entry in the Cambridge 
# Structural Database, then it will include bibliographic, chemical, 
# crystal, experimental, refinement or atomic coordinate data resulting 
# from the CCDC's data processing and validation procedures.
#
#######################################################################

data_TEVYEB
_chemical_formula_moiety         'C9 H20 B1 N1 O2'
_chemical_name_systematic        
2,2,3,3-tetramethyl-1,4-dioxa-6-aza-5-boraspiro[4.4]nonane
_symmetry_cell_setting           monoclinic
_symmetry_space_group_name_H-M   'P 21/c'
_symmetry_Int_Tables_number      14
_space_group_name_Hall           '-P 2ybc'
loop_
_symmetry_equiv_pos_site_id
_symmetry_equiv_pos_as_xyz
1 x,y,z
2 -x,1/2+y,1/2-z
3 -x,-y,-z
4 x,1/2-y,1/2+z
_cell_length_a                   7.757(15)
_cell_length_b                   18.89(3)
_cell_length_c                   15.08(3)
_cell_angle_alpha                90
_cell_angle_beta                 98.82(3)
_cell_angle_gamma                90
_cell_volume                     2183.54
_cell_formula_units_Z            8
loop_
_atom_site_label
_atom_site_type_symbol
_atom_site_fract_x
_atom_site_fract_y
_atom_site_fract_z
B1 B 0.9397(10) 0.3614(4) 0.2449(5)
C1 C 0.9005(9) 0.3172(4) 0.1534(4)
H1 H 0.9794 0.2772 0.1553
H2 H 0.7817 0.2995 0.1448
C2 C 0.9270(9) 0.3676(4) 0.0759(4)
H3 H 1.0469 0.3662 0.0649
H4 H 0.8507 0.3548 0.0212
C3 C 0.8817(9) 0.4406(4) 0.1076(4)
H5 H 0.9436 0.4767 0.0794
H6 H 0.7574 0.4492 0.0924
C4 C 1.0775(8) 0.3170(4) 0.3832(4)
C5 C 0.8990(9) 0.3481(4) 0.3958(4)
C6 C 1.0713(9) 0.2383(4) 0.3656(5)
H7 H 0.9751 0.2277 0.3195
H8 H 1.0565 0.2137 0.4197
H9 H 1.1782 0.2236 0.3466
C7 C 1.2260(9) 0.3339(4) 0.4577(4)
H10 H 1.3310 0.3118 0.4450
H11 H 1.1987 0.3163 0.5136
H12 H 1.2425 0.3842 0.4616
C8 C 0.7918(9) 0.3025(4) 0.4485(4)
H13 H 0.6844 0.3262 0.4538
H14 H 0.8557 0.2940 0.5072
H15 H 0.7668 0.2582 0.4180
C9 C 0.9142(10) 0.4227(4) 0.4348(4)
H16 H 0.9858 0.4510 0.4021
H17 H 0.9663 0.4206 0.4968
H18 H 0.8002 0.4434 0.4301
N1 N 0.9353(7) 0.4420(3) 0.2074(3)
H19 H 0.8598 0.4676 0.2327
H20 H 1.0404 0.4616 0.2209
O1 O 1.1090(5) 0.3525(2) 0.3030(3)
O2 O 0.8111(5) 0.3518(2) 0.3050(3)
B2 B 0.4234(10) 0.4592(4) 0.1910(5)
C10 C 0.4010(9) 0.3258(4) 0.1713(4)
H21 H 0.2812 0.3106 0.1699
H22 H 0.4770 0.2851 0.1841
C11 C 0.4254(9) 0.3596(4) 0.0812(4)
H23 H 0.5457 0.3553 0.0713
H24 H 0.3507 0.3368 0.0319
C12 C 0.3763(9) 0.4360(4) 0.0880(4)
H25 H 0.2525 0.4422 0.0675
H26 H 0.4402 0.4649 0.0510
C13 C 0.5372(9) 0.5682(4) 0.2433(4)
C14 C 0.3703(9) 0.5540(4) 0.2843(5)
C15 C 0.5032(10) 0.6130(4) 0.1577(4)
H27 H 0.6046 0.6122 0.1284
H28 H 0.4783 0.6608 0.1730
H29 H 0.4054 0.5939 0.1182
C16 C 0.6854(9) 0.5997(4) 0.3068(4)
H30 H 0.7176 0.5682 0.3565
H31 H 0.6498 0.6443 0.3285
H32 H 0.7836 0.6068 0.2760
C17 C 0.2475(10) 0.6172(4) 0.2817(5)
H33 H 0.2063 0.6298 0.2204
H34 H 0.3087 0.6566 0.3119
H35 H 0.1501 0.6051 0.3110
C18 C 0.4090(9) 0.5255(4) 0.3803(4)
H36 H 0.3034 0.5077 0.3979
H37 H 0.4548 0.5628 0.4202
H38 H 0.4930 0.4879 0.3829
N2 N 0.4469(7) 0.3815(3) 0.2397(3)
H39 H 0.5567 0.3759 0.2662
H40 H 0.3777 0.3783 0.2815
O3 O 0.5838(5) 0.4987(2) 0.2199(3)
O4 O 0.2885(5) 0.5003(2) 0.2257(3)
loop_
_geom_bond_atom_site_label_1
_geom_bond_atom_site_label_2
_geom_bond_site_symmetry_1
_geom_bond_site_symmetry_2
B1 C1 1_555 1_555
C1 H1 1_555 1_555
H2 C1 1_555 1_555
C2 C1 1_555 1_555
H3 C2 1_555 1_555
H4 C2 1_555 1_555
C3 C2 1_555 1_555
H5 C3 1_555 1_555
H6 C3 1_555 1_555
C4 C5 1_555 1_555
C5 C8 1_555 1_555
C6 C4 1_555 1_555
H7 C6 1_555 1_555
H8 C6 1_555 1_555
H9 C6 1_555 1_555
C7 C4 1_555 1_555
H10 C7 1_555 1_555
H11 C7 1_555 1_555
H12 C7 1_555 1_555
C8 H13 1_555 1_555
H14 C8 1_555 1_555
H15 C8 1_555 1_555
C9 C5 1_555 1_555
H16 C9 1_555 1_555
H17 C9 1_555 1_555
H18 C9 1_555 1_555
N1 B1 1_555 1_555
H19 N1 1_555 1_555
H20 N1 1_555 1_555
O1 B1 1_555 1_555
O2 B1 1_555 1_555
B2 C12 1_555 1_555
C10 H21 1_555 1_555
H22 C10 1_555 1_555
C11 C10 1_555 1_555
H23 C11 1_555 1_555
H24 C11 1_555 1_555
C12 C11 1_555 1_555
H25 C12 1_555 1_555
H26 C12 1_555 1_555
C13 C14 1_555 1_555
C14 C17 1_555 1_555
C15 C13 1_555 1_555
H27 C15 1_555 1_555
H28 C15 1_555 1_555
H29 C15 1_555 1_555
C16 C13 1_555 1_555
H30 C16 1_555 1_555
H31 C16 1_555 1_555
H32 C16 1_555 1_555
C17 H33 1_555 1_555
H34 C17 1_555 1_555
H35 C17 1_555 1_555
C18 C14 1_555 1_555
H36 C18 1_555 1_555
H37 C18 1_555 1_555
H38 C18 1_555 1_555
N2 B2 1_555 1_555
H39 N2 1_555 1_555
H40 N2 1_555 1_555
O3 B2 1_555 1_555
O4 B2 1_555 1_555
C3 N1 1_555 1_555
C4 O1 1_555 1_555
C5 O2 1_555 1_555
C10 N2 1_555 1_555
C13 O3 1_555 1_555
C14 O4 1_555 1_555

#END
