
#######################################################################
#
#                 Cambridge Crystallographic Data Centre
#                                CCDC 
#
#######################################################################
#
# If this CIF has been generated from an entry in the Cambridge 
# Structural Database, then it will include bibliographic, chemical, 
# crystal, experimental, refinement or atomic coordinate data resulting 
# from the CCDC's data processing and validation procedures.
#
#######################################################################

data_TEWFIL
_chemical_name_common            '(S)-N-(2-Hydroxyphenyl)proline amide'
_chemical_formula_moiety         'C11 H14 N2 O2'
_chemical_name_systematic        
(S)-N-(2-Hydroxyphenyl)pyrrolidine-2-carboxamide
_symmetry_cell_setting           monoclinic
_symmetry_space_group_name_H-M   'P 21'
_symmetry_Int_Tables_number      4
_space_group_name_Hall           'P 2yb'
loop_
_symmetry_equiv_pos_site_id
_symmetry_equiv_pos_as_xyz
1 x,y,z
2 -x,1/2+y,-z
_cell_length_a                   7.3006(6)
_cell_length_b                   10.2768(9)
_cell_length_c                   7.9945(7)
_cell_angle_alpha                90
_cell_angle_beta                 114.3930(10)
_cell_angle_gamma                90
_cell_volume                     546.26
_exptl_crystal_colour            colorless
_exptl_crystal_description       block
_chemical_melting_point          '166-167 deg.C'
_cell_formula_units_Z            2
_exptl_crystal_recrystallization_method chloroform/methanol
loop_
_atom_site_label
_atom_site_type_symbol
_atom_site_fract_x
_atom_site_fract_y
_atom_site_fract_z
O1 O 0.58136(12) 0.42783(9) 0.79157(14)
O2 O -0.02986(14) 0.40630(10) 0.86982(16)
N1 N 0.37930(16) 0.13007(11) 0.89433(17)
N2 N 0.27618(13) 0.37209(10) 0.78181(14)
C1 C 0.3286(2) 0.02218(16) 0.7629(2)
H1 H 0.2130 0.0443 0.6510
H2 H 0.2975 -0.0556 0.8150
C2 C 0.5122(3) 0.00023(16) 0.7236(2)
H3 H 0.4760 -0.0401 0.6044
H4 H 0.6107 -0.0537 0.8172
C3 C 0.5908(2) 0.13738(16) 0.7272(2)
H5 H 0.5260 0.1784 0.6076
H6 H 0.7351 0.1371 0.7638
C4 C 0.53600(16) 0.20838(12) 0.87162(16)
H7 H 0.6550 0.2112 0.9888
C5 C 0.46653(15) 0.34622(11) 0.81077(14)
C6 C 0.17470(15) 0.49267(11) 0.73517(15)
C7 C 0.01356(16) 0.50910(12) 0.78533(17)
C8 C -0.08807(18) 0.62745(14) 0.75106(19)
H8 H -0.1917 0.6400 0.7885
C9 C -0.03656(19) 0.72607(12) 0.66229(19)
H9 H -0.1049 0.8049 0.6405
C10 C 0.11684(19) 0.70812(14) 0.60539(18)
H10 H 0.1488 0.7740 0.5423
C11 C 0.22295(18) 0.59189(12) 0.64236(17)
H11 H 0.3267 0.5804 0.6049
H12 H 0.425(3) 0.1005(18) 1.011(3)
H13 H 0.217(2) 0.3090(17) 0.8088(19)
H14 H -0.150(3) 0.412(2) 0.855(2)
loop_
_geom_bond_atom_site_label_1
_geom_bond_atom_site_label_2
_geom_bond_site_symmetry_1
_geom_bond_site_symmetry_2
O1 C5 1_555 1_555
O2 C7 1_555 1_555
N1 C1 1_555 1_555
N2 C5 1_555 1_555
C1 H1 1_555 1_555
H2 C1 1_555 1_555
C2 C1 1_555 1_555
H3 C2 1_555 1_555
H4 C2 1_555 1_555
C3 C2 1_555 1_555
H5 C3 1_555 1_555
H6 C3 1_555 1_555
C4 N1 1_555 1_555
H7 C4 1_555 1_555
C5 C4 1_555 1_555
C6 N2 1_555 1_555
C7 C6 1_555 1_555
C8 C7 1_555 1_555
H8 C8 1_555 1_555
C9 C8 1_555 1_555
H9 C9 1_555 1_555
C10 C9 1_555 1_555
H10 C10 1_555 1_555
C11 C6 1_555 1_555
H11 C11 1_555 1_555
H12 N1 1_555 1_555
H13 N2 1_555 1_555
H14 O2 1_555 1_555
C3 C4 1_555 1_555
C10 C11 1_555 1_555

#END
