
#######################################################################
#
#                 Cambridge Crystallographic Data Centre
#                                CCDC 
#
#######################################################################
#
# If this CIF has been generated from an entry in the Cambridge 
# Structural Database, then it will include bibliographic, chemical, 
# crystal, experimental, refinement or atomic coordinate data resulting 
# from the CCDC's data processing and validation procedures.
#
#######################################################################

data_TEWKAK
_chemical_name_common            
'(mu-2,7,12,17,22,27,32,37-octakis(pentafluorophenyl)-41,42,43,44,45,46,47,48-octaazanonacyclo[36.2.1.13,6.18,11.113,16.118,21.123,26.128,31.133,36]octatetraconta-1,3,5,7,9,11(47),12,14,16,18,20,22,24,26,28(43),29,31,33,35,37,39-henicosaene-4,24,41,42,45,46-hexayl radical cation)-dimethyl-di-silicon hexafluorophosphate acetone dichloromethane solvate'
_chemical_formula_moiety         
'C90 H22 F40 N8 Si2 1+,F6 P1 1-,2.24(C3 H6 O1),1.76(C1 H2 Cl2)'
_chemical_name_systematic        
'(\m-5,10,15,20,25,30,35,40-octakis(pentafluorophenyl)[38]octaphyrinato radical cation)-dimethyl-di-silicon hexafluorophosphate acetone dichloromethane solvate'
_symmetry_cell_setting           monoclinic
_symmetry_space_group_name_H-M   'P 21/n'
_symmetry_Int_Tables_number      14
_space_group_name_Hall           '-P 2yn'
loop_
_symmetry_equiv_pos_site_id
_symmetry_equiv_pos_as_xyz
1 x,y,z
2 1/2-x,1/2+y,1/2-z
3 -x,-y,-z
4 1/2+x,1/2-y,1/2+z
_cell_length_a                   15.4303(17)
_cell_length_b                   36.071(4)
_cell_length_c                   17.3883(19)
_cell_angle_alpha                90
_cell_angle_beta                 100.921(2)
_cell_angle_gamma                90
_cell_volume                     9502.81
_exptl_crystal_colour            green
_exptl_crystal_description       prism
_cell_formula_units_Z            4
loop_
_atom_site_label
_atom_site_type_symbol
_atom_site_fract_x
_atom_site_fract_y
_atom_site_fract_z
C1 C 0.8228(2) 0.19633(9) 0.19968(19)
C2 C 0.9096(2) 0.18306(9) 0.2279(2)
H1 H 0.9255 0.1637 0.2649
C3 C 0.9655(2) 0.20287(9) 0.1930(2)
H2 H 1.0278 0.2001 0.2009
C4 C 0.9141(2) 0.22848(9) 0.1424(2)
C5 C 0.9465(2) 0.25344(9) 0.0933(2)
C6 C 0.8943(2) 0.27989(9) 0.0491(2)
C7 C 0.9255(3) 0.31162(10) 0.0148(2)
H3 H 0.9843 0.3158 0.0078
C8 C 0.8561(3) 0.33489(10) -0.0062(2)
H4 H 0.8584 0.3590 -0.0276
C9 C 0.7796(2) 0.31701(9) 0.0095(2)
C10 C 0.6929(2) 0.33098(9) -0.0107(2)
C11 C 0.6210(2) 0.30807(9) -0.0204(2)
C12 C 0.5311(3) 0.31545(10) -0.0563(2)
H5 H 0.5057 0.3391 -0.0699
C13 C 0.4893(3) 0.28256(10) -0.0670(2)
H6 H 0.4291 0.2788 -0.0904
C14 C 0.5518(2) 0.25411(9) -0.0367(2)
C15 C 0.5406(2) 0.21601(9) -0.0433(2)
C16 C 0.6120(2) 0.19288(9) -0.0172(2)
C17 C 0.6965(2) 0.20303(9) 0.02978(19)
C18 C 0.7464(2) 0.17169(9) 0.03506(19)
H7 H 0.8061 0.1700 0.0615
C19 C 0.6962(2) 0.14133(9) -0.00509(19)
C20 C 0.7219(2) 0.10462(9) -0.00939(19)
C21 C 0.8157(2) 0.09785(9) 0.00982(19)
C22 C 0.8748(2) 0.12220(9) -0.0180(2)
H8 H 0.8590 0.1418 -0.0543
C23 C 0.9579(2) 0.11255(9) 0.0163(2)
H9 H 1.0111 0.1240 0.0087
C24 C 0.9500(2) 0.08198(9) 0.0660(2)
C25 C 1.0202(2) 0.06410(9) 0.1138(2)
C26 C 1.0105(2) 0.03198(9) 0.1546(2)
C27 C 1.0773(2) 0.00609(10) 0.1851(2)
H10 H 1.1391 0.0099 0.1912
C28 C 1.0370(2) -0.02513(10) 0.2039(2)
H11 H 1.0656 -0.0476 0.2224
C29 C 0.9455(2) -0.01844(9) 0.1914(2)
C30 C 0.8819(2) -0.04243(9) 0.2128(2)
C31 C 0.8026(2) -0.02958(9) 0.2261(2)
C32 C 0.7342(2) -0.04805(10) 0.2576(2)
H12 H 0.7304 -0.0739 0.2670
C33 C 0.6769(2) -0.02196(9) 0.2711(2)
H13 H 0.6255 -0.0260 0.2926
C34 C 0.7069(2) 0.01328(10) 0.2475(2)
C35 C 0.6715(2) 0.04811(9) 0.2566(2)
C36 C 0.7123(2) 0.07942(9) 0.2314(2)
C37 C 0.7812(2) 0.07940(9) 0.1853(2)
C38 C 0.8048(2) 0.11591(9) 0.1799(2)
H14 H 0.8503 0.1245 0.1545
C39 C 0.7511(2) 0.13892(9) 0.21808(19)
C40 C 0.7473(2) 0.17760(9) 0.21845(19)
C41 C 1.0428(2) 0.25253(10) 0.0920(2)
C42 C 1.1003(3) 0.27939(10) 0.1293(2)
C43 C 1.1897(3) 0.27752(12) 0.1308(2)
C44 C 1.2235(3) 0.24895(14) 0.0946(3)
C45 C 1.1686(3) 0.22186(12) 0.0568(3)
C46 C 1.0793(3) 0.22392(10) 0.0560(2)
C47 C 0.6848(3) 0.37108(9) -0.0322(2)
C48 C 0.6982(3) 0.39796(10) 0.0245(2)
C49 C 0.6951(3) 0.43529(10) 0.0060(2)
C50 C 0.6798(3) 0.44613(10) -0.0699(3)
C51 C 0.6711(4) 0.42032(12) -0.1274(3)
C52 C 0.6720(4) 0.38292(12) -0.1085(3)
C53 C 0.4583(2) 0.19981(9) -0.0902(2)
C54 C 0.4017(3) 0.17809(11) -0.0560(2)
C55 C 0.3305(3) 0.15982(11) -0.1006(2)
C56 C 0.3155(2) 0.16283(10) -0.1808(2)
C57 C 0.3699(2) 0.18428(10) -0.2161(2)
C58 C 0.4397(2) 0.20252(9) -0.1710(2)
C59 C 0.6565(2) 0.07584(9) -0.0400(2)
C60 C 0.5766(2) 0.07213(9) -0.0148(2)
C61 C 0.5151(2) 0.04562(10) -0.0461(2)
C62 C 0.5330(3) 0.02175(10) -0.1024(2)
C63 C 0.6111(3) 0.02458(10) -0.1288(2)
C64 C 0.6714(2) 0.05145(9) -0.0983(2)
C65 C 1.1093(2) 0.08030(9) 0.1171(2)
C66 C 1.1307(2) 0.11462(10) 0.1520(2)
C67 C 1.2120(2) 0.13090(10) 0.1544(2)
C68 C 1.2738(3) 0.11317(11) 0.1214(2)
C69 C 1.2552(3) 0.07914(12) 0.0863(2)
C70 C 1.1737(2) 0.06347(10) 0.0842(2)
C71 C 0.9097(2) -0.08172(9) 0.2295(2)
C72 C 0.9324(3) -0.09529(10) 0.3049(2)
C73 C 0.9604(3) -0.13127(11) 0.3203(2)
C74 C 0.9697(3) -0.15430(10) 0.2597(3)
C75 C 0.9486(3) -0.14156(10) 0.1840(2)
C76 C 0.9185(2) -0.10575(10) 0.1699(2)
C77 C 0.5977(2) 0.05188(9) 0.3003(2)
C78 C 0.6060(2) 0.04094(10) 0.3776(2)
C79 C 0.5403(3) 0.04492(12) 0.4200(2)
C80 C 0.4611(3) 0.06025(13) 0.3838(3)
C81 C 0.4491(2) 0.07132(12) 0.3071(3)
C82 C 0.5167(3) 0.06727(10) 0.2661(2)
C83 C 0.6719(2) 0.19633(9) 0.2418(2)
C84 C 0.6855(3) 0.22228(10) 0.3016(2)
C85 C 0.6178(3) 0.23843(11) 0.3293(2)
C86 C 0.5320(3) 0.22869(12) 0.2972(3)
C87 C 0.5153(3) 0.20349(12) 0.2377(3)
C88 C 0.5843(3) 0.18759(10) 0.2101(2)
C89 C 0.6764(2) 0.27288(9) 0.1522(2)
H15 H 0.7146 0.2689 0.2034
H16 H 0.6181 0.2622 0.1525
H17 H 0.6705 0.2995 0.1415
C90 C 0.7470(2) 0.00968(9) 0.0609(2)
H18 H 0.7598 0.0154 0.0091
H19 H 0.6851 0.0154 0.0615
H20 H 0.7578 -0.0167 0.0723
F1 F 1.06888(15) 0.30764(6) 0.16587(13)
F2 F 1.24357(17) 0.30328(8) 0.16988(17)
F3 F 1.31040(17) 0.24682(10) 0.0956(2)
F4 F 1.20138(19) 0.19334(8) 0.02192(17)
F5 F 1.02693(17) 0.19699(6) 0.01951(14)
F6 F 0.7179(2) 0.38787(6) 0.09973(14)
F7 F 0.7099(3) 0.46088(7) 0.06221(16)
F8 F 0.6770(2) 0.48224(6) -0.08823(16)
F9 F 0.6589(4) 0.43095(8) -0.20203(18)
F10 F 0.6610(4) 0.35810(8) -0.16649(16)
F11 F 0.41647(17) 0.17426(8) 0.02118(14)
F12 F 0.27765(17) 0.13864(8) -0.06679(16)
F13 F 0.24853(14) 0.14441(6) -0.22474(14)
F14 F 0.35782(15) 0.18558(7) -0.29467(13)
F15 F 0.49305(15) 0.22226(6) -0.20755(13)
F16 F 0.55858(15) 0.09361(6) 0.04252(13)
F17 F 0.43967(15) 0.04255(7) -0.02005(16)
F18 F 0.47460(16) -0.00454(7) -0.13089(16)
F19 F 0.62915(17) 0.00070(6) -0.18304(14)
F20 F 0.74737(14) 0.05296(6) -0.12464(12)
F21 F 1.07047(14) 0.13255(6) 0.18404(14)
F22 F 1.22970(16) 0.16407(6) 0.18849(14)
F23 F 1.35311(15) 0.12844(7) 0.12347(16)
F24 F 1.31601(17) 0.06165(8) 0.05397(17)
F25 F 1.15568(16) 0.03079(7) 0.04719(16)
F26 F 0.9282(2) -0.07275(6) 0.36595(14)
F27 F 0.9806(2) -0.14360(7) 0.39428(16)
F28 F 0.99742(18) -0.18920(6) 0.27401(16)
F29 F 0.95695(18) -0.16410(6) 0.12459(15)
F30 F 0.89743(16) -0.09422(6) 0.09530(13)
F31 F 0.68393(14) 0.02682(6) 0.41528(13)
F32 F 0.55289(17) 0.03525(8) 0.49558(15)
F33 F 0.39583(17) 0.06495(9) 0.42468(17)
F34 F 0.37176(16) 0.08602(9) 0.27311(17)
F35 F 0.50353(15) 0.07876(7) 0.19182(13)
F36 F 0.76821(15) 0.23224(6) 0.33466(12)
F37 F 0.6336(2) 0.26335(7) 0.38719(16)
F38 F 0.4657(2) 0.24403(9) 0.3256(2)
F39 F 0.43197(16) 0.19429(8) 0.2060(2)
F40 F 0.56655(15) 0.16312(6) 0.15095(14)
N1 N 0.82568(19) 0.22577(7) 0.14808(16)
N2 N 0.80275(19) 0.28223(7) 0.04249(17)
N3 N 0.63191(19) 0.27041(7) -0.00504(17)
N4 N 0.61431(18) 0.15593(7) -0.03534(17)
H21 H 0.5699 0.1434 -0.0624
N5 N 0.86235(18) 0.07199(7) 0.06034(17)
N6 N 0.92833(18) 0.01712(7) 0.16090(17)
N7 N 0.78260(19) 0.00775(7) 0.21763(17)
N8 N 0.69484(19) 0.11527(7) 0.24858(17)
H22 H 0.6543 0.1223 0.2749
Si1 Si 0.72612(6) 0.24997(2) 0.07458(5)
Si2 Si 0.81937(6) 0.03793(2) 0.13606(6)
C91 C 0.7344(4) 0.06503(19) -0.3870(4)
H23 H 0.7492 0.0511 -0.4318
H24 H 0.6862 0.0826 -0.4076
Cl1 Cl 0.69783(12) 0.03399(5) -0.32267(9)
Cl2 Cl 0.82676(13) 0.08987(7) -0.34104(15)
F41 F 0.59757(15) 0.13932(6) 0.36680(14)
F42 F 0.69334(19) 0.10431(7) 0.45110(16)
F43 F 0.73199(18) 0.16171(8) 0.41826(18)
F44 F 0.6122(2) 0.18556(7) 0.45693(16)
F45 F 0.5733(3) 0.12781(8) 0.4888(2)
F46 F 0.7081(3) 0.15016(9) 0.54017(18)
P1 P 0.65271(9) 0.14488(3) 0.45440(7)
O1 O 0.1844(12) 0.2933(7) 0.3330(7)
C93 C 0.2293(7) 0.2271(2) 0.3053(6)
H27 H 0.2874 0.2152 0.3170
H28 H 0.1883 0.2137 0.3320
H29 H 0.2071 0.2267 0.2486
C94 C 0.2374(8) 0.2674(6) 0.3339(7)
C95 C 0.3171(7) 0.2862(3) 0.3800(7)
H30 H 0.3675 0.2692 0.3867
H31 H 0.3306 0.3084 0.3518
H32 H 0.3055 0.2934 0.4314
C97 C 0.3988(11) 0.4159(4) -0.0433(9)
H35 H 0.4197 0.3920 -0.0200
H36 H 0.3345 0.4151 -0.0602
H37 H 0.4146 0.4356 -0.0044
C98 C 0.4529(5) 0.4636(2) -0.1316(4)
H38 H 0.4877 0.4757 -0.0853
H39 H 0.3947 0.4753 -0.1446
H40 H 0.4834 0.4661 -0.1759
C99 C 0.4423(6) 0.4237(3) -0.1147(7)
O2 O 0.4675(5) 0.39967(19) -0.1483(4)
O3 O 0.5151(2) 0.12098(8) -0.17648(18)
C101 C 0.4939(4) 0.10434(16) -0.3105(3)
H43 H 0.5055 0.0780 -0.3181
H44 H 0.5098 0.1188 -0.3534
H45 H 0.4310 0.1078 -0.3097
C102 C 0.5473(3) 0.11704(12) -0.2349(3)
C103 C 0.6445(4) 0.12427(16) -0.2313(3)
H46 H 0.6685 0.1379 -0.1832
H47 H 0.6523 0.1390 -0.2769
H48 H 0.6757 0.1006 -0.2314
C92? C 0.2811(6) 0.2419(3) 0.3314(5)
H25? H 0.3051 0.2376 0.2832
H26? H 0.3081 0.2234 0.3708
Cl3? Cl 0.3124(5) 0.2877(2) 0.3678(4)
Cl4? Cl 0.17001(19) 0.23508(8) 0.31078(14)
C96? C 0.398(4) 0.4094(6) -0.0274(17)
H33? H 0.3401 0.4016 -0.0168
H34? H 0.4450 0.3948 0.0061
Cl5? Cl 0.4027(19) 0.4035(9) -0.1285(16)
Cl6? Cl 0.4149(13) 0.4576(5) -0.0103(11)
Cl7? Cl 0.4527(10) 0.4762(4) -0.0578(14)
Cl8? Cl 0.413(2) 0.4102(7) -0.1252(19)
C100? C 0.379(5) 0.4389(16) -0.055(5)
H41? H 0.3875 0.4270 -0.0027
H42? H 0.3163 0.4466 -0.0710
loop_
_geom_bond_atom_site_label_1
_geom_bond_atom_site_label_2
_geom_bond_site_symmetry_1
_geom_bond_site_symmetry_2
C1 C2 1_555 1_555
C2 H1 1_555 1_555
C3 C2 1_555 1_555
H2 C3 1_555 1_555
C4 C3 1_555 1_555
C5 C4 1_555 1_555
C6 C5 1_555 1_555
C7 C6 1_555 1_555
H3 C7 1_555 1_555
C8 C7 1_555 1_555
H4 C8 1_555 1_555
C9 C8 1_555 1_555
C10 C9 1_555 1_555
C11 C10 1_555 1_555
C12 C11 1_555 1_555
H5 C12 1_555 1_555
C13 C12 1_555 1_555
H6 C13 1_555 1_555
C14 C13 1_555 1_555
C15 C14 1_555 1_555
C16 C15 1_555 1_555
C17 C16 1_555 1_555
C18 C17 1_555 1_555
H7 C18 1_555 1_555
C19 C18 1_555 1_555
C20 C19 1_555 1_555
C21 C20 1_555 1_555
C22 C21 1_555 1_555
H8 C22 1_555 1_555
C23 C22 1_555 1_555
H9 C23 1_555 1_555
C24 C23 1_555 1_555
C25 C24 1_555 1_555
C26 C25 1_555 1_555
C27 C26 1_555 1_555
H10 C27 1_555 1_555
C28 C27 1_555 1_555
H11 C28 1_555 1_555
C29 C28 1_555 1_555
C30 C29 1_555 1_555
C31 C30 1_555 1_555
C32 C31 1_555 1_555
H12 C32 1_555 1_555
C33 C32 1_555 1_555
H13 C33 1_555 1_555
C34 C33 1_555 1_555
C35 C34 1_555 1_555
C36 C35 1_555 1_555
C37 C36 1_555 1_555
C38 C37 1_555 1_555
H14 C38 1_555 1_555
C39 C38 1_555 1_555
C40 C1 1_555 1_555
C41 C5 1_555 1_555
C42 C41 1_555 1_555
C43 C42 1_555 1_555
C44 C43 1_555 1_555
C45 C44 1_555 1_555
C46 C41 1_555 1_555
C47 C10 1_555 1_555
C48 C47 1_555 1_555
C49 C48 1_555 1_555
C50 C49 1_555 1_555
C51 C50 1_555 1_555
C52 C47 1_555 1_555
C53 C15 1_555 1_555
C54 C53 1_555 1_555
C55 C54 1_555 1_555
C56 C55 1_555 1_555
C57 C56 1_555 1_555
C58 C53 1_555 1_555
C59 C20 1_555 1_555
C60 C59 1_555 1_555
C61 C60 1_555 1_555
C62 C61 1_555 1_555
C63 C62 1_555 1_555
C64 C59 1_555 1_555
C65 C25 1_555 1_555
C66 C65 1_555 1_555
C67 C66 1_555 1_555
C68 C67 1_555 1_555
C69 C68 1_555 1_555
C70 C65 1_555 1_555
C71 C30 1_555 1_555
C72 C71 1_555 1_555
C73 C72 1_555 1_555
C74 C73 1_555 1_555
C75 C74 1_555 1_555
C76 C71 1_555 1_555
C77 C35 1_555 1_555
C78 C77 1_555 1_555
C79 C78 1_555 1_555
C80 C79 1_555 1_555
C81 C80 1_555 1_555
C82 C77 1_555 1_555
C83 C40 1_555 1_555
C84 C83 1_555 1_555
C85 C84 1_555 1_555
C86 C85 1_555 1_555
C87 C86 1_555 1_555
C88 C83 1_555 1_555
C89 H15 1_555 1_555
H16 C89 1_555 1_555
H17 C89 1_555 1_555
C90 H18 1_555 1_555
H19 C90 1_555 1_555
H20 C90 1_555 1_555
F1 C42 1_555 1_555
F2 C43 1_555 1_555
F3 C44 1_555 1_555
F4 C45 1_555 1_555
F5 C46 1_555 1_555
F6 C48 1_555 1_555
F7 C49 1_555 1_555
F8 C50 1_555 1_555
F9 C51 1_555 1_555
F10 C52 1_555 1_555
F11 C54 1_555 1_555
F12 C55 1_555 1_555
F13 C56 1_555 1_555
F14 C57 1_555 1_555
F15 C58 1_555 1_555
F16 C60 1_555 1_555
F17 C61 1_555 1_555
F18 C62 1_555 1_555
F19 C63 1_555 1_555
F20 C64 1_555 1_555
F21 C66 1_555 1_555
F22 C67 1_555 1_555
F23 C68 1_555 1_555
F24 C69 1_555 1_555
F25 C70 1_555 1_555
F26 C72 1_555 1_555
F27 C73 1_555 1_555
F28 C74 1_555 1_555
F29 C75 1_555 1_555
F30 C76 1_555 1_555
F31 C78 1_555 1_555
F32 C79 1_555 1_555
F33 C80 1_555 1_555
F34 C81 1_555 1_555
F35 C82 1_555 1_555
F36 C84 1_555 1_555
F37 C85 1_555 1_555
F38 C86 1_555 1_555
F39 C87 1_555 1_555
F40 C88 1_555 1_555
N1 C1 1_555 1_555
N2 C6 1_555 1_555
N3 C11 1_555 1_555
N4 C16 1_555 1_555
H21 N4 1_555 1_555
N5 C21 1_555 1_555
N6 C26 1_555 1_555
N7 C31 1_555 1_555
N8 C36 1_555 1_555
H22 N8 1_555 1_555
Si1 C17 1_555 1_555
Si2 C37 1_555 1_555
C91 H23 1_555 1_555
H24 C91 1_555 1_555
Cl1 C91 1_555 1_555
Cl2 C91 1_555 1_555
F41 P1 1_555 1_555
F42 P1 1_555 1_555
F43 P1 1_555 1_555
F44 P1 1_555 1_555
F45 P1 1_555 1_555
F46 P1 1_555 1_555
O1 C94 1_555 1_555
C93 H27 1_555 1_555
H28 C93 1_555 1_555
H29 C93 1_555 1_555
C94 C93 1_555 1_555
C95 C94 1_555 1_555
H30 C95 1_555 1_555
H31 C95 1_555 1_555
H32 C95 1_555 1_555
C97 H35 1_555 1_555
H36 C97 1_555 1_555
H37 C97 1_555 1_555
C98 H38 1_555 1_555
H39 C98 1_555 1_555
H40 C98 1_555 1_555
C99 C97 1_555 1_555
O2 C99 1_555 1_555
O3 C102 1_555 1_555
C101 H43 1_555 1_555
H44 C101 1_555 1_555
H45 C101 1_555 1_555
C102 C101 1_555 1_555
C103 C102 1_555 1_555
H46 C103 1_555 1_555
H47 C103 1_555 1_555
H48 C103 1_555 1_555
C4 N1 1_555 1_555
C9 N2 1_555 1_555
C14 N3 1_555 1_555
C19 N4 1_555 1_555
C24 N5 1_555 1_555
C29 N6 1_555 1_555
C34 N7 1_555 1_555
C39 C40 1_555 1_555
C39 N8 1_555 1_555
C45 C46 1_555 1_555
C51 C52 1_555 1_555
C57 C58 1_555 1_555
C63 C64 1_555 1_555
C69 C70 1_555 1_555
C75 C76 1_555 1_555
C81 C82 1_555 1_555
C87 C88 1_555 1_555
C89 Si1 1_555 1_555
C90 Si2 1_555 1_555
N1 Si1 1_555 1_555
N2 Si1 1_555 1_555
N3 Si1 1_555 1_555
N5 Si2 1_555 1_555
N6 Si2 1_555 1_555
N7 Si2 1_555 1_555
C98 C99 1_555 1_555

#END
