
#######################################################################
#
#                 Cambridge Crystallographic Data Centre
#                                CCDC 
#
#######################################################################
#
# If this CIF has been generated from an entry in the Cambridge 
# Structural Database, then it will include bibliographic, chemical, 
# crystal, experimental, refinement or atomic coordinate data resulting 
# from the CCDC's data processing and validation procedures.
#
#######################################################################

data_TEWVID
_chemical_formula_moiety         'C18 H19 N7 O1,C1 H1 Cl3'
_chemical_name_systematic        
'4-(4-t-butylphenoxy)-6-[(pyridin-2-yl)diazenyl]-1,3,5-triazin-2-amine chloroform solvate'
_symmetry_cell_setting           monoclinic
_symmetry_space_group_name_H-M   'P 21/n'
_symmetry_Int_Tables_number      14
_space_group_name_Hall           '-P 2yn'
loop_
_symmetry_equiv_pos_site_id
_symmetry_equiv_pos_as_xyz
1 x,y,z
2 1/2-x,1/2+y,1/2-z
3 -x,-y,-z
4 1/2+x,1/2-y,1/2+z
_cell_length_a                   13.7969(17)
_cell_length_b                   17.697(3)
_cell_length_c                   18.179(3)
_cell_angle_alpha                90
_cell_angle_beta                 100.985(7)
_cell_angle_gamma                90
_cell_volume                     4357.32
_exptl_crystal_colour            orange
_exptl_crystal_description       prism
_cell_formula_units_Z            8
loop_
_atom_site_label
_atom_site_type_symbol
_atom_site_fract_x
_atom_site_fract_y
_atom_site_fract_z
C1 C 1.4256(2) 0.27739(18) 0.89480(19)
H1 H 1.4231 0.3035 0.8469
H2 H 1.3889 0.2298 0.8861
H3 H 1.4945 0.2668 0.9176
C2 C 1.4458(2) 0.39718(18) 0.9661(2)
H4 H 1.4242 0.4265 1.0058
H5 H 1.4415 0.4286 0.9212
H6 H 1.5143 0.3808 0.9832
C3 C 1.3751(2) 0.2837(2) 1.01932(18)
H7 H 1.4417 0.2671 1.0424
H8 H 1.3322 0.2395 1.0073
H9 H 1.3486 0.3164 1.0543
C4 C 1.37920(19) 0.32753(15) 0.94749(16)
C5 C 1.27391(18) 0.35039(14) 0.91107(14)
C6 C 1.2351(2) 0.41994(16) 0.92429(16)
H10 H 1.2753 0.4549 0.9561
C7 C 1.1387(2) 0.44049(16) 0.89244(16)
H11 H 1.1140 0.4890 0.9015
C8 C 1.08029(18) 0.38962(16) 0.84794(13)
C9 C 1.11510(19) 0.31870(15) 0.83473(15)
H12 H 1.0736 0.2832 0.8046
C10 C 1.21170(19) 0.30033(15) 0.86617(14)
H13 H 1.2361 0.2518 0.8566
C11 C 0.94192(18) 0.41025(14) 0.74852(14)
C12 C 0.95051(17) 0.40261(13) 0.62899(13)
C13 C 0.80383(17) 0.42263(14) 0.66188(14)
C14 C 1.03002(19) 0.40480(15) 0.45447(15)
C15 C 1.1276(2) 0.3840(3) 0.46825(18)
H14 H 1.1609 0.3719 0.5175
C16 C 1.1762(2) 0.3813(3) 0.40821(19)
H15 H 1.2446 0.3697 0.4158
C17 C 1.1240(2) 0.39549(19) 0.33814(18)
H16 H 1.1549 0.3931 0.2958
C18 C 1.0256(2) 0.41335(16) 0.32992(15)
H17 H 0.9894 0.4220 0.2807
N1 N 0.70727(14) 0.43281(12) 0.64228(12)
H18 H 0.6713 0.4391 0.6769
H19 H 0.6790 0.4332 0.5946
N2 N 0.84541(15) 0.42219(12) 0.73522(11)
N3 N 1.00064(14) 0.39966(12) 0.69953(11)
N4 N 0.85511(14) 0.41267(11) 0.60557(11)
N5 N 1.01265(14) 0.39114(12) 0.57457(11)
N6 N 0.97307(15) 0.41411(12) 0.51155(11)
N7 N 0.97787(16) 0.41928(12) 0.38654(12)
O1 O 0.98109(13) 0.40991(11) 0.82268(10)
C19 C 0.0352(2) 0.39117(17) 0.10100(18)
H20 H 0.0332 0.4175 0.1481
H21 H -0.0322 0.3781 0.0762
H22 H 0.0652 0.4242 0.0683
C20 C 0.04325(19) 0.26554(16) 0.16289(17)
H23 H 0.0802 0.2181 0.1717
H24 H -0.0235 0.2552 0.1350
H25 H 0.0392 0.2890 0.2110
C21 C 0.1044(2) 0.28119(18) 0.04231(15)
H26 H 0.1368 0.3157 0.0125
H27 H 0.0381 0.2689 0.0146
H28 H 0.1433 0.2347 0.0523
C22 C 0.09626(18) 0.31932(15) 0.11722(14)
C23 C 0.20083(17) 0.33612(14) 0.16004(13)
C24 C 0.2400(2) 0.40761(16) 0.16811(19)
H29 H 0.1997 0.4493 0.1487
C25 C 0.3369(2) 0.42097(17) 0.20391(19)
H30 H 0.3623 0.4710 0.2090
C26 C 0.39513(17) 0.36085(16) 0.23165(13)
C27 C 0.3586(2) 0.28976(17) 0.22594(18)
H31 H 0.3991 0.2485 0.2462
C28 C 0.2616(2) 0.27738(16) 0.19032(18)
H32 H 0.2364 0.2273 0.1867
C29 C 0.53302(17) 0.38247(14) 0.33182(13)
C30 C 0.52076(17) 0.39542(13) 0.45029(13)
C31 C 0.66926(17) 0.40414(13) 0.41783(13)
C32 C 0.43817(18) 0.42035(14) 0.62214(13)
C33 C 0.3392(2) 0.4049(2) 0.60797(17)
H33 H 0.3059 0.3916 0.5590
C34 C 0.2888(2) 0.4091(2) 0.66696(17)
H34 H 0.2199 0.3992 0.6590
C35 C 0.3394(2) 0.42762(16) 0.73626(15)
H35 H 0.3069 0.4309 0.7778
C36 C 0.4398(2) 0.44156(16) 0.74466(15)
H36 H 0.4753 0.4535 0.7933
N8 N 0.76587(14) 0.41431(12) 0.43676(12)
H37 H 0.8027 0.4127 0.4022
H38 H 0.7932 0.4227 0.4839
N9 N 0.62958(14) 0.39143(12) 0.34539(11)
N10 N 0.47179(14) 0.38226(11) 0.38054(11)
N11 N 0.61576(14) 0.40704(11) 0.47314(11)
N12 N 0.45680(14) 0.39388(12) 0.50454(11)
N13 N 0.49735(14) 0.42100(12) 0.56561(11)
N14 N 0.48938(15) 0.43924(12) 0.68915(11)
O2 O 0.49639(12) 0.37249(12) 0.25834(10)
C37 C 0.77831(18) 0.36122(16) 0.88728(14)
H39 H 0.8168 0.3979 0.8623
Cl1 Cl 0.66325(18) 0.3446(3) 0.82915(18)
Cl2 Cl 0.84580(7) 0.27790(6) 0.90709(7)
Cl3 Cl 0.75958(17) 0.3990(3) 0.97214(13)
C38 C 0.6892(2) 0.34145(17) 0.18662(15)
H41 H 0.6707 0.3505 0.2364
Cl6 Cl 0.63033(6) 0.25892(5) 0.14898(6)
Cl7 Cl 0.64768(12) 0.41868(6) 0.12857(6)
Cl8 Cl 0.81593(7) 0.32977(9) 0.20096(12)
H40? H 0.8044 0.3841 0.8447
Cl4? Cl 0.6549(5) 0.3411(8) 0.8495(7)
Cl5? Cl 0.7916(8) 0.4333(4) 0.9552(3)
H42? H 0.6449 0.3733 0.2114
Cl9? Cl 0.7101(11) 0.3827(14) 0.1034(6)
Cl10? Cl 0.8098(5) 0.3376(12) 0.2397(7)
loop_
_geom_bond_atom_site_label_1
_geom_bond_atom_site_label_2
_geom_bond_site_symmetry_1
_geom_bond_site_symmetry_2
C1 H1 1_555 1_555
H2 C1 1_555 1_555
H3 C1 1_555 1_555
C2 H4 1_555 1_555
H5 C2 1_555 1_555
H6 C2 1_555 1_555
C3 H7 1_555 1_555
H8 C3 1_555 1_555
H9 C3 1_555 1_555
C4 C1 1_555 1_555
C5 C4 1_555 1_555
C6 C5 1_555 1_555
H10 C6 1_555 1_555
C7 C6 1_555 1_555
H11 C7 1_555 1_555
C8 C7 1_555 1_555
C9 C8 1_555 1_555
H12 C9 1_555 1_555
C10 C5 1_555 1_555
H13 C10 1_555 1_555
C11 N2 1_555 1_555
C12 N3 1_555 1_555
C13 N1 1_555 1_555
C14 C15 1_555 1_555
C15 H14 1_555 1_555
C16 C15 1_555 1_555
H15 C16 1_555 1_555
C17 C16 1_555 1_555
H16 C17 1_555 1_555
C18 C17 1_555 1_555
H17 C18 1_555 1_555
N1 H18 1_555 1_555
H19 N1 1_555 1_555
N2 C13 1_555 1_555
N3 C11 1_555 1_555
N4 C12 1_555 1_555
N5 C12 1_555 1_555
N6 C14 1_555 1_555
N7 C14 1_555 1_555
O1 C8 1_555 1_555
C19 H20 1_555 1_555
H21 C19 1_555 1_555
H22 C19 1_555 1_555
C20 H23 1_555 1_555
H24 C20 1_555 1_555
H25 C20 1_555 1_555
C21 H26 1_555 1_555
H27 C21 1_555 1_555
H28 C21 1_555 1_555
C22 C19 1_555 1_555
C23 C22 1_555 1_555
C24 C23 1_555 1_555
H29 C24 1_555 1_555
C25 C24 1_555 1_555
H30 C25 1_555 1_555
C26 C25 1_555 1_555
C27 C26 1_555 1_555
H31 C27 1_555 1_555
C28 C23 1_555 1_555
H32 C28 1_555 1_555
C29 N9 1_555 1_555
C30 N10 1_555 1_555
C31 N8 1_555 1_555
C32 C33 1_555 1_555
C33 H33 1_555 1_555
C34 C33 1_555 1_555
H34 C34 1_555 1_555
C35 C34 1_555 1_555
H35 C35 1_555 1_555
C36 C35 1_555 1_555
H36 C36 1_555 1_555
N8 H37 1_555 1_555
H38 N8 1_555 1_555
N9 C31 1_555 1_555
N10 C29 1_555 1_555
N11 C30 1_555 1_555
N12 C30 1_555 1_555
N13 C32 1_555 1_555
N14 C32 1_555 1_555
O2 C26 1_555 1_555
C37 H39 1_555 1_555
Cl1 C37 1_555 1_555
Cl2 C37 1_555 1_555
Cl3 C37 1_555 1_555
C38 H41 1_555 1_555
Cl6 C38 1_555 1_555
Cl7 C38 1_555 1_555
Cl8 C38 1_555 1_555
C2 C4 1_555 1_555
C3 C4 1_555 1_555
C9 C10 1_555 1_555
C11 O1 1_555 1_555
C13 N4 1_555 1_555
C18 N7 1_555 1_555
N5 N6 1_555 1_555
C20 C22 1_555 1_555
C21 C22 1_555 1_555
C27 C28 1_555 1_555
C29 O2 1_555 1_555
C31 N11 1_555 1_555
C36 N14 1_555 1_555
N12 N13 1_555 1_555

#END
