
#######################################################################
#
#                 Cambridge Crystallographic Data Centre
#                                CCDC 
#
#######################################################################
#
# If this CIF has been generated from an entry in the Cambridge 
# Structural Database, then it will include bibliographic, chemical, 
# crystal, experimental, refinement or atomic coordinate data resulting 
# from the CCDC's data processing and validation procedures.
#
#######################################################################

data_TEXBAA
_chemical_formula_moiety         'C18 H28 N2 O4'
_chemical_name_systematic        
anti,anti-N,N'-Di-n-butyl-4,6-dimethoxyisophthalamide
_symmetry_cell_setting           monoclinic
_symmetry_space_group_name_H-M   'P 21/c'
_symmetry_Int_Tables_number      14
_space_group_name_Hall           '-P 2ybc'
loop_
_symmetry_equiv_pos_site_id
_symmetry_equiv_pos_as_xyz
1 x,y,z
2 -x,1/2+y,1/2-z
3 -x,-y,-z
4 x,1/2-y,1/2+z
_cell_length_a                   13.6110(11)
_cell_length_b                   8.4257(4)
_cell_length_c                   15.6598(12)
_cell_angle_alpha                90
_cell_angle_beta                 98.437(3)
_cell_angle_gamma                90
_cell_volume                     1776.46
_exptl_crystal_colour            colorless
_exptl_crystal_description       Rod
_cell_formula_units_Z            4
_exptl_crystal_recrystallization_method acetonitrile
loop_
_atom_site_label
_atom_site_type_symbol
_atom_site_fract_x
_atom_site_fract_y
_atom_site_fract_z
C1 C 0.3890(2) 0.6400(3) 0.01202(19)
H1 H 0.4306 0.5766 0.0557
H2 H 0.4234 0.7389 0.0021
H3 H 0.3759 0.5798 -0.0420
C2 C 0.2910(2) 0.6784(3) 0.04356(17)
H4 H 0.3049 0.7363 0.0990
H5 H 0.2516 0.7492 0.0012
C3 C 0.2299(2) 0.5312(3) 0.05622(18)
H6 H 0.2167 0.4720 0.0011
H7 H 0.2685 0.4613 0.0996
C4 C 0.1324(2) 0.5734(3) 0.08585(17)
H8 H 0.1457 0.6389 0.1388
H9 H 0.0923 0.6379 0.0407
C5 C -0.0136(2) 0.4497(3) 0.12919(16)
C6 C -0.0704(2) 0.3022(3) 0.14656(15)
C7 C -0.0399(2) 0.1443(3) 0.13875(16)
C8 C -0.1002(2) 0.0184(3) 0.15640(16)
H10 H -0.0788 -0.0879 0.1506
C9 C -0.1911(2) 0.0481(2) 0.18232(16)
C10 C -0.22575(19) 0.2051(3) 0.19022(16)
C11 C -0.1629(2) 0.3259(3) 0.17167(16)
H11 H -0.1847 0.4322 0.1765
C12 C -0.3233(2) 0.2554(3) 0.21508(16)
C13 C -0.48979(19) 0.1805(3) 0.24392(17)
H12 H -0.4860 0.2712 0.2845
H13 H -0.5165 0.0883 0.2722
C14 C -0.5603(2) 0.2220(3) 0.16253(17)
H14 H -0.5326 0.3128 0.1338
H15 H -0.6246 0.2563 0.1789
C15 C -0.5789(2) 0.0854(3) 0.09871(18)
H16 H -0.5147 0.0514 0.0822
H17 H -0.6065 -0.0054 0.1276
C16 C -0.6494(2) 0.1264(3) 0.01776(18)
H18 H -0.7140 0.1567 0.0333
H19 H -0.6575 0.0340 -0.0206
H20 H -0.6222 0.2151 -0.0118
C17 C 0.0847(2) -0.0405(3) 0.10608(19)
H21 H 0.0870 -0.0937 0.1620
H22 H 0.1513 -0.0394 0.0894
H23 H 0.0391 -0.0975 0.0623
C18 C -0.2205(2) -0.2336(2) 0.19265(18)
H24 H -0.2082 -0.2516 0.1333
H25 H -0.2724 -0.3064 0.2060
H26 H -0.1593 -0.2527 0.2327
N1 N 0.07561(16) 0.4344(2) 0.10357(14)
H27 H 0.1001 0.3391 0.0974
N2 N -0.39028(16) 0.1429(2) 0.22635(14)
H28 H -0.3733 0.0426 0.2230
O1 O -0.04884(14) 0.58192(18) 0.13902(12)
O2 O -0.34059(14) 0.39732(18) 0.22465(12)
O3 O 0.05059(14) 0.11954(17) 0.11276(12)
O4 O -0.25253(14) -0.07184(17) 0.20154(11)
loop_
_geom_bond_atom_site_label_1
_geom_bond_atom_site_label_2
_geom_bond_site_symmetry_1
_geom_bond_site_symmetry_2
C1 H1 1_555 1_555
H2 C1 1_555 1_555
H3 C1 1_555 1_555
C2 C1 1_555 1_555
H4 C2 1_555 1_555
H5 C2 1_555 1_555
C3 C2 1_555 1_555
H6 C3 1_555 1_555
H7 C3 1_555 1_555
C4 C3 1_555 1_555
H8 C4 1_555 1_555
H9 C4 1_555 1_555
C5 C6 1_555 1_555
C6 C7 1_555 1_555
C7 C8 1_555 1_555
C8 H10 1_555 1_555
C9 C8 1_555 1_555
C10 C9 1_555 1_555
C11 C6 1_555 1_555
H11 C11 1_555 1_555
C12 C10 1_555 1_555
C13 H12 1_555 1_555
H13 C13 1_555 1_555
C14 C13 1_555 1_555
H14 C14 1_555 1_555
H15 C14 1_555 1_555
C15 C14 1_555 1_555
H16 C15 1_555 1_555
H17 C15 1_555 1_555
C16 C15 1_555 1_555
H18 C16 1_555 1_555
H19 C16 1_555 1_555
H20 C16 1_555 1_555
C17 H21 1_555 1_555
H22 C17 1_555 1_555
H23 C17 1_555 1_555
C18 H24 1_555 1_555
H25 C18 1_555 1_555
H26 C18 1_555 1_555
N1 C4 1_555 1_555
H27 N1 1_555 1_555
N2 C12 1_555 1_555
H28 N2 1_555 1_555
O1 C5 1_555 1_555
O2 C12 1_555 1_555
O3 C7 1_555 1_555
O4 C9 1_555 1_555
C5 N1 1_555 1_555
C10 C11 1_555 1_555
C13 N2 1_555 1_555
C17 O3 1_555 1_555
C18 O4 1_555 1_555

#END
