
#######################################################################
#
#                 Cambridge Crystallographic Data Centre
#                                CCDC 
#
#######################################################################
#
# If this CIF has been generated from an entry in the Cambridge 
# Structural Database, then it will include bibliographic, chemical, 
# crystal, experimental, refinement or atomic coordinate data resulting 
# from the CCDC's data processing and validation procedures.
#
#######################################################################

data_TEYTID
_chemical_formula_moiety         'C4 H9 N5 2+,2(C6 H4 N1 O5 S1 1-)'
_chemical_name_systematic        
'2,4,6-triaminopyrimidinediium bis(4-nitrobenzene-1-sulfonate)'
_symmetry_cell_setting           triclinic
_symmetry_space_group_name_H-M   'P -1'
_symmetry_Int_Tables_number      2
_space_group_name_Hall           '-P 1'
loop_
_symmetry_equiv_pos_site_id
_symmetry_equiv_pos_as_xyz
1 x,y,z
2 -x,-y,-z
_cell_length_a                   7.7154(5)
_cell_length_b                   11.5739(10)
_cell_length_c                   12.5866(7)
_cell_angle_alpha                68.866(7)
_cell_angle_beta                 83.563(5)
_cell_angle_gamma                82.184(6)
_cell_volume                     1036.19
_exptl_crystal_colour            colorless
_exptl_crystal_description       block
_cell_formula_units_Z            2
loop_
_atom_site_label
_atom_site_type_symbol
_atom_site_fract_x
_atom_site_fract_y
_atom_site_fract_z
C1 C 1.1863(3) 0.0325(2) 0.56468(19)
C2 C 1.1624(3) 0.1334(2) 0.4666(2)
H1 H 1.102546 0.207843 0.469241
C3 C 1.2290(3) 0.1225(2) 0.3640(2)
H2 H 1.214054 0.189856 0.296314
C4 C 1.3179(3) 0.0116(2) 0.36165(19)
C5 C 1.3391(3) -0.0886(2) 0.4617(2)
H3 H 1.398558 -0.163291 0.459465
C6 C 1.2730(3) -0.0793(2) 0.5651(2)
H4 H 1.286719 -0.146623 0.632882
N1 N 1.1200(3) 0.0464(2) 0.67387(17)
O1 O 1.0702(3) 0.1509(2) 0.67383(16)
O2 O 1.1184(3) -0.0464(2) 0.75851(15)
O3 O 1.4630(3) 0.1197(2) 0.16291(17)
O4 O 1.2632(3) -0.0252(3) 0.1803(2)
O5 O 1.5461(3) -0.0989(2) 0.25631(18)
S1 S 1.40542(8) -0.00051(6) 0.22923(5)
C7 C 1.2450(3) 0.5128(2) 0.50289(19)
C8 C 1.2305(4) 0.6154(2) 0.4051(2)
H5 H 1.179679 0.691858 0.408034
C9 C 1.2927(4) 0.6031(2) 0.3019(2)
H6 H 1.283851 0.671501 0.234500
C10 C 1.3679(3) 0.4891(2) 0.29948(18)
C11 C 1.3839(3) 0.3877(2) 0.3991(2)
H7 H 1.436939 0.311524 0.396511
C12 C 1.3219(4) 0.3983(2) 0.5025(2)
H8 H 1.331720 0.330248 0.570054
N2 N 1.1796(3) 0.5260(2) 0.61244(18)
O6 O 1.1265(4) 0.6283(2) 0.61332(19)
O7 O 1.1841(4) 0.4360(2) 0.69730(18)
O8 O 1.4868(2) 0.58870(16) 0.08913(14)
O9 O 1.2858(2) 0.43377(18) 0.13302(15)
O10 O 1.5817(2) 0.37230(17) 0.19052(15)
S2 S 1.43782(6) 0.46993(5) 0.16619(4)
C13 C 1.1402(3) 0.81205(19) 0.01078(17)
C14 C 0.9789(3) 0.8242(2) 0.06771(18)
H9 H 0.963038 0.870484 0.115638
C15 C 0.8421(3) 0.76787(19) 0.05357(17)
C16 C 1.0291(3) 0.68337(19) -0.07067(17)
N3 N 0.6824(3) 0.7755(2) 0.10095(18)
N4 N 0.8711(2) 0.69838(17) -0.01745(15)
N5 N 1.0538(3) 0.6161(2) -0.13635(18)
N6 N 1.1617(2) 0.73600(17) -0.05356(15)
N7 N 1.2776(3) 0.8650(2) 0.01478(19)
H10 H 0.612(4) 0.728(3) 0.094(2)
H11 H 0.658(4) 0.814(3) 0.149(2)
H12 H 0.784(3) 0.668(2) -0.033(2)
H13 H 0.969(4) 0.590(3) -0.150(2)
H14 H 1.160(4) 0.608(3) -0.171(3)
H15 H 1.263(4) 0.717(3) -0.082(2)
H16 H 1.266(3) 0.902(3) 0.058(2)
H17 H 1.364(4) 0.863(2) -0.034(2)
loop_
_geom_bond_atom_site_label_1
_geom_bond_atom_site_label_2
_geom_bond_site_symmetry_1
_geom_bond_site_symmetry_2
C1 C2 1_555 1_555
C2 H1 1_555 1_555
C3 C2 1_555 1_555
H2 C3 1_555 1_555
C4 C3 1_555 1_555
C5 C4 1_555 1_555
H3 C5 1_555 1_555
C6 C1 1_555 1_555
H4 C6 1_555 1_555
N1 C1 1_555 1_555
O1 N1 1_555 1_555
O2 N1 1_555 1_555
O3 S1 1_555 1_555
O4 S1 1_555 1_555
O5 S1 1_555 1_555
S1 C4 1_555 1_555
C7 C8 1_555 1_555
C8 H5 1_555 1_555
C9 C8 1_555 1_555
H6 C9 1_555 1_555
C10 C9 1_555 1_555
C11 C10 1_555 1_555
H7 C11 1_555 1_555
C12 C7 1_555 1_555
H8 C12 1_555 1_555
N2 C7 1_555 1_555
O6 N2 1_555 1_555
O7 N2 1_555 1_555
O8 S2 1_555 1_555
O9 S2 1_555 1_555
O10 S2 1_555 1_555
S2 C10 1_555 1_555
C13 C14 1_555 1_555
C14 H9 1_555 1_555
C15 C14 1_555 1_555
C16 N4 1_555 1_555
N3 C15 1_555 1_555
N4 C15 1_555 1_555
N5 C16 1_555 1_555
N6 C13 1_555 1_555
N7 C13 1_555 1_555
H10 N3 1_555 1_555
H11 N3 1_555 1_555
H12 N4 1_555 1_555
H13 N5 1_555 1_555
H14 N5 1_555 1_555
H15 N6 1_555 1_555
H16 N7 1_555 1_555
H17 N7 1_555 1_555
C5 C6 1_555 1_555
C11 C12 1_555 1_555
C16 N6 1_555 1_555

#END
