
#######################################################################
#
#                 Cambridge Crystallographic Data Centre
#                                CCDC 
#
#######################################################################
#
# If this CIF has been generated from an entry in the Cambridge 
# Structural Database, then it will include bibliographic, chemical, 
# crystal, experimental, refinement or atomic coordinate data resulting 
# from the CCDC's data processing and validation procedures.
#
#######################################################################

data_TEYVUR
_chemical_formula_moiety         'C8 H14 N2 2+,2(C6 H5 O4 S1 1-)'
_chemical_name_systematic        
'2,5-dimethylbenzene-1,4-diaminium bis(4-hydroxybenzene-1-sulfonate)'
_symmetry_cell_setting           monoclinic
_symmetry_space_group_name_H-M   'P 21/c'
_symmetry_Int_Tables_number      14
_space_group_name_Hall           '-P 2ybc'
loop_
_symmetry_equiv_pos_site_id
_symmetry_equiv_pos_as_xyz
1 x,y,z
2 -x,1/2+y,1/2-z
3 -x,-y,-z
4 x,1/2-y,1/2+z
_cell_length_a                   8.1240(2)
_cell_length_b                   5.7011(2)
_cell_length_c                   23.0661(7)
_cell_angle_alpha                90
_cell_angle_beta                 93.074(3)
_cell_angle_gamma                90
_cell_volume                     1066.79
_exptl_crystal_colour            colorless
_exptl_crystal_description       block
_cell_formula_units_Z            2
loop_
_atom_site_label
_atom_site_type_symbol
_atom_site_fract_x
_atom_site_fract_y
_atom_site_fract_z
C1 C 0.8791(3) 0.3642(4) 0.33095(11)
C2 C 0.7633(3) 0.2122(5) 0.30578(13)
H1 H 0.739582 0.071945 0.324135
C3 C 0.6833(4) 0.2689(5) 0.25346(14)
H2 H 0.605479 0.166684 0.236528
C4 C 0.7183(3) 0.4773(5) 0.22611(12)
C5 C 0.8263(4) 0.6351(5) 0.25284(12)
H3 H 0.844523 0.779584 0.235621
C6 C 0.9073(3) 0.5789(5) 0.30519(12)
H4 H 0.980708 0.684945 0.323086
O1 O 0.6442(3) 0.5202(5) 0.17267(10)
O2 O 0.9319(2) 0.4255(4) 0.44192(8)
O3 O 0.9795(2) 0.0388(3) 0.40256(9)
O4 O 1.1660(2) 0.3595(3) 0.38473(9)
S1 S 0.99593(8) 0.29038(12) 0.39461(3)
H5 H 0.687(7) 0.631(9) 0.160(2)
C7 C 0.6362(3) 0.1198(4) 0.51981(11)
C8 C 0.4859(3) 0.1854(5) 0.54074(11)
C9 C 0.4685(4) 0.3791(6) 0.58425(16)
C10 C 0.3492(3) 0.0589(5) 0.51941(12)
N1 N 0.7871(3) 0.2439(5) 0.53937(12)
H6 H 0.834(4) 0.305(6) 0.5099(16)
H7 H 0.774(4) 0.365(6) 0.5645(14)
H8 H 0.858(4) 0.147(6) 0.5560(14)
H9 H 0.526(5) 0.357(7) 0.621(2)
H10 H 0.504(5) 0.528(8) 0.5690(18)
H11 H 0.362(5) 0.393(7) 0.5941(17)
H12 H 0.249(4) 0.089(5) 0.5328(12)
C7B C 0.3638(3) -0.1198(4) 0.48019(11)
C8B C 0.5141(3) -0.1854(5) 0.45926(11)
C9B C 0.5315(4) -0.3791(6) 0.41575(16)
C10B C 0.6508(3) -0.0589(5) 0.48059(12)
N1B N 0.2129(3) -0.2439(5) 0.46063(12)
H6B H 0.166(4) -0.305(6) 0.4901(16)
H7B H 0.226(4) -0.365(6) 0.4355(14)
H8B H 0.142(4) -0.147(6) 0.4440(14)
H9B H 0.474(5) -0.357(7) 0.379(2)
H10B H 0.496(5) -0.528(8) 0.4310(18)
H11B H 0.638(5) -0.393(7) 0.4059(17)
H12B H 0.751(4) -0.089(5) 0.4672(12)
loop_
_geom_bond_atom_site_label_1
_geom_bond_atom_site_label_2
_geom_bond_site_symmetry_1
_geom_bond_site_symmetry_2
C1 C2 1_555 1_555
C2 H1 1_555 1_555
C3 C2 1_555 1_555
H2 C3 1_555 1_555
C4 C3 1_555 1_555
C5 C4 1_555 1_555
H3 C5 1_555 1_555
C6 C1 1_555 1_555
H4 C6 1_555 1_555
O1 C4 1_555 1_555
O2 S1 1_555 1_555
O3 S1 1_555 1_555
O4 S1 1_555 1_555
S1 C1 1_555 1_555
H5 O1 1_555 1_555
C7 C8 1_555 1_555
C8 C9 1_555 1_555
C9 H9 1_555 1_555
C10 C8 1_555 1_555
N1 C7 1_555 1_555
H6 N1 1_555 1_555
H7 N1 1_555 1_555
H8 N1 1_555 1_555
H10 C9 1_555 1_555
H11 C9 1_555 1_555
H12 C10 1_555 1_555
C7B C10 1_555 1_555
C8B C7B 1_555 1_555
C9B C8B 1_555 1_555
C10B C7 1_555 1_555
N1B C7B 1_555 1_555
H6B N1B 1_555 1_555
H7B N1B 1_555 1_555
H8B N1B 1_555 1_555
H9B C9B 1_555 1_555
H10B C9B 1_555 1_555
H11B C9B 1_555 1_555
H12B C10B 1_555 1_555
C5 C6 1_555 1_555
C8B C10B 1_555 1_555

#END
