
#######################################################################
#
#                 Cambridge Crystallographic Data Centre
#                                CCDC 
#
#######################################################################
#
# If this CIF has been generated from an entry in the Cambridge 
# Structural Database, then it will include bibliographic, chemical, 
# crystal, experimental, refinement or atomic coordinate data resulting 
# from the CCDC's data processing and validation procedures.
#
#######################################################################

data_TEYWEC
_chemical_formula_moiety         'C8 H14 N2 2+,2(C6 H4 N1 O5 S1 1-)'
_chemical_name_systematic        
'2,5-dimethylbenzene-1,4-diaminium bis(4-nitrobenzene-1-sulfonate)'
_symmetry_cell_setting           monoclinic
_symmetry_space_group_name_H-M   'I 2/a'
_symmetry_Int_Tables_number      15
_space_group_name_Hall           '-I 2ya'
loop_
_symmetry_equiv_pos_site_id
_symmetry_equiv_pos_as_xyz
1 x,y,z
2 1/2-x,y,-z
3 1/2+x,1/2+y,1/2+z
4 -x,1/2+y,1/2-z
5 -x,-y,-z
6 1/2+x,-y,z
7 1/2-x,1/2-y,1/2-z
8 x,1/2-y,1/2+z
_cell_length_a                   17.8840(12)
_cell_length_b                   6.7120(4)
_cell_length_c                   19.8456(14)
_cell_angle_alpha                90
_cell_angle_beta                 112.723(8)
_cell_angle_gamma                90
_cell_volume                     2197.31
_exptl_crystal_colour            colorless
_exptl_crystal_description       block
_cell_formula_units_Z            4
loop_
_atom_site_label
_atom_site_type_symbol
_atom_site_fract_x
_atom_site_fract_y
_atom_site_fract_z
C1 C 0.40990(11) 0.2174(3) 0.26915(10)
C2 C 0.47624(11) 0.1555(3) 0.25518(10)
H1 H 0.521897 0.105808 0.292826
C3 C 0.47444(12) 0.1677(3) 0.18526(11)
H2 H 0.518508 0.126425 0.174923
C4 C 0.40581(12) 0.2426(3) 0.13108(10)
C5 C 0.33937(12) 0.3058(3) 0.14383(11)
H3 H 0.293815 0.355500 0.106062
C6 C 0.34201(12) 0.2938(3) 0.21370(10)
H4 H 0.298064 0.337105 0.223852
N1 N 0.40396(11) 0.2540(3) 0.05679(9)
O1 O 0.34837(12) 0.3419(3) 0.01106(9)
O2 O 0.45800(10) 0.1711(3) 0.04451(9)
O3 O 0.37704(10) 0.3840(2) 0.36966(8)
O4 O 0.35877(9) 0.0306(2) 0.35531(8)
O5 O 0.49327(8) 0.1648(3) 0.40666(7)
S1 S 0.41012(3) 0.19796(7) 0.35858(2)
C7 C 0.32692(11) 0.7002(3) 0.55207(11)
C8 C 0.31371(11) 0.7031(3) 0.47903(10)
C9 C 0.23663(11) 0.6983(3) 0.42451(10)
C10 C 0.22163(13) 0.6941(3) 0.34483(11)
N2 N 0.38388(10) 0.7152(3) 0.45844(10)
H5 H 0.3898(14) 0.608(4) 0.4374(13)
H6 H 0.4303(16) 0.734(4) 0.4964(15)
H7 H 0.3783(14) 0.817(4) 0.4268(14)
H8 H 0.3769(13) 0.704(3) 0.5850(12)
H9 H 0.2448(16) 0.579(4) 0.3331(14)
H10 H 0.1658(19) 0.692(4) 0.3165(16)
H11 H 0.2404(16) 0.810(4) 0.3300(15)
C7A C 0.17308(11) 0.7002(3) 0.44793(11)
C8A C 0.18629(11) 0.7031(3) 0.52097(10)
C9A C 0.26337(11) 0.6983(3) 0.57549(10)
C10A C 0.27837(13) 0.6941(3) 0.65517(11)
N2A N 0.11612(10) 0.7152(3) 0.54156(10)
H5A H 0.1102(14) 0.608(4) 0.5626(13)
H6A H 0.0697(16) 0.734(4) 0.5036(15)
H7A H 0.1217(14) 0.817(4) 0.5732(14)
H8A H 0.1231(13) 0.704(3) 0.4150(12)
H9A H 0.2552(16) 0.579(4) 0.6669(14)
H10A H 0.3342(19) 0.692(4) 0.6835(16)
H11A H 0.2596(16) 0.810(4) 0.6700(15)
loop_
_geom_bond_atom_site_label_1
_geom_bond_atom_site_label_2
_geom_bond_site_symmetry_1
_geom_bond_site_symmetry_2
C1 C2 1_555 1_555
C2 H1 1_555 1_555
C3 C2 1_555 1_555
H2 C3 1_555 1_555
C4 C3 1_555 1_555
C5 C4 1_555 1_555
H3 C5 1_555 1_555
C6 C1 1_555 1_555
H4 C6 1_555 1_555
N1 C4 1_555 1_555
O1 N1 1_555 1_555
O2 N1 1_555 1_555
O3 S1 1_555 1_555
O4 S1 1_555 1_555
O5 S1 1_555 1_555
S1 C1 1_555 1_555
C7 C8 1_555 1_555
C8 C9 1_555 1_555
C9 C10 1_555 1_555
C10 H9 1_555 1_555
N2 C8 1_555 1_555
H5 N2 1_555 1_555
H6 N2 1_555 1_555
H7 N2 1_555 1_555
H8 C7 1_555 1_555
H10 C10 1_555 1_555
H11 C10 1_555 1_555
C7A C9 1_555 1_555
C8A C7A 1_555 1_555
C9A C7 1_555 1_555
C10A C9A 1_555 1_555
N2A C8A 1_555 1_555
H5A N2A 1_555 1_555
H6A N2A 1_555 1_555
H7A N2A 1_555 1_555
H8A C7A 1_555 1_555
H9A C10A 1_555 1_555
H10A C10A 1_555 1_555
H11A C10A 1_555 1_555
C5 C6 1_555 1_555
C8A C9A 1_555 1_555

#END
