
#######################################################################
#
#                 Cambridge Crystallographic Data Centre
#                                CCDC 
#
#######################################################################
#
# If this CIF has been generated from an entry in the Cambridge 
# Structural Database, then it will include bibliographic, chemical, 
# crystal, experimental, refinement or atomic coordinate data resulting 
# from the CCDC's data processing and validation procedures.
#
#######################################################################

data_TEZMAO
_chemical_formula_moiety         'C6 H2 N3 O7 1-,C6 H8 N1 O1 1+'
_chemical_name_systematic        '2-Hydroxyanilinium 2,4,6-trinitrophenolate'
_symmetry_cell_setting           triclinic
_symmetry_space_group_name_H-M   'P -1'
_symmetry_Int_Tables_number      2
_space_group_name_Hall           '-P 1'
loop_
_symmetry_equiv_pos_site_id
_symmetry_equiv_pos_as_xyz
1 x,y,z
2 -x,-y,-z
_cell_length_a                   8.1626(6)
_cell_length_b                   8.4942(8)
_cell_length_c                   10.3537(11)
_cell_angle_alpha                79.7650(10)
_cell_angle_beta                 82.0190(10)
_cell_angle_gamma                88.947(2)
_cell_volume                     699.591
_exptl_crystal_colour            colorless
_exptl_crystal_description       block
_cell_formula_units_Z            2
loop_
_atom_site_label
_atom_site_type_symbol
_atom_site_fract_x
_atom_site_fract_y
_atom_site_fract_z
N1 N 0.6117(3) 0.1572(3) 0.5741(2)
H1 H 0.5594 0.0704 0.6215
H2 H 0.6033 0.1615 0.4887
H3 H 0.5661 0.2440 0.6008
O1 O 0.8274(3) 0.3642(3) 0.4159(2)
H4 H 0.9000 0.4236 0.3711
C1 C 0.8946(4) 0.2597(3) 0.5100(3)
C2 C 0.7866(3) 0.1503(3) 0.5927(2)
C3 C 0.8406(4) 0.0361(3) 0.6895(3)
H5 H 0.7670 -0.0381 0.7433
C4 C 1.0057(4) 0.0336(4) 0.7050(3)
H6 H 1.0443 -0.0421 0.7701
C5 C 1.1132(4) 0.1432(4) 0.6239(4)
H7 H 1.2244 0.1409 0.6351
C6 C 1.0595(4) 0.2564(4) 0.5265(3)
H8 H 1.1337 0.3298 0.4725
N2 N 0.3360(4) 1.0098(3) 0.9107(2)
N3 N 0.1344(4) 0.4866(3) 1.1395(2)
N4 N 0.4668(3) 0.5240(3) 0.7084(2)
O2 O 0.4475(3) 0.8678(2) 0.68378(17)
O3 O 0.4649(3) 1.0777(3) 0.8563(2)
O4 O 0.2224(4) 1.0748(3) 0.9704(2)
O5 O 0.0613(4) 0.5537(3) 1.2260(2)
O6 O 0.1285(5) 0.3431(3) 1.1463(3)
O7 O 0.4161(4) 0.3887(3) 0.7072(3)
O8 O 0.5713(4) 0.5909(4) 0.6245(3)
C7 C 0.3929(3) 0.7791(3) 0.7918(2)
C8 C 0.3203(3) 0.8392(3) 0.9088(2)
C9 C 0.2359(4) 0.7480(3) 1.0188(3)
H9 H 0.1851 0.7949 1.0885
C10 C 0.2275(4) 0.5839(3) 1.0248(3)
C11 C 0.3029(4) 0.5118(3) 0.9228(3)
H10 H 0.2982 0.4014 0.9289
C12 C 0.3852(3) 0.6067(3) 0.8116(2)
loop_
_geom_bond_atom_site_label_1
_geom_bond_atom_site_label_2
_geom_bond_site_symmetry_1
_geom_bond_site_symmetry_2
N1 H1 1_555 1_555
H2 N1 1_555 1_555
H3 N1 1_555 1_555
O1 H4 1_555 1_555
C1 O1 1_555 1_555
C2 N1 1_555 1_555
C3 C2 1_555 1_555
H5 C3 1_555 1_555
C4 C3 1_555 1_555
H6 C4 1_555 1_555
C5 C4 1_555 1_555
H7 C5 1_555 1_555
C6 C1 1_555 1_555
H8 C6 1_555 1_555
N2 O3 1_555 1_555
N3 O5 1_555 1_555
N4 O7 1_555 1_555
O2 C7 1_555 1_555
O4 N2 1_555 1_555
O6 N3 1_555 1_555
O8 N4 1_555 1_555
C7 C8 1_555 1_555
C8 N2 1_555 1_555
C9 C8 1_555 1_555
H9 C9 1_555 1_555
C10 N3 1_555 1_555
C11 C10 1_555 1_555
H10 C11 1_555 1_555
C12 N4 1_555 1_555
C1 C2 1_555 1_555
C5 C6 1_555 1_555
C7 C12 1_555 1_555
C9 C10 1_555 1_555
C11 C12 1_555 1_555

#END
