
#######################################################################
#
#                 Cambridge Crystallographic Data Centre
#                                CCDC 
#
#######################################################################
#
# If this CIF has been generated from an entry in the Cambridge 
# Structural Database, then it will include bibliographic, chemical, 
# crystal, experimental, refinement or atomic coordinate data resulting 
# from the CCDC's data processing and validation procedures.
#
#######################################################################

data_TEZMET
_chemical_formula_moiety         '2(C7 H7 O3 S1 1-),C6 H8 Cl2 N2 2+'
_chemical_name_systematic        
'2,5-dichlorobenzene-1,4-diaminium bis(4-methylbenzene-1-sulfonate)'
_symmetry_cell_setting           monoclinic
_symmetry_space_group_name_H-M   'P 21/n'
_symmetry_Int_Tables_number      14
_space_group_name_Hall           '-P 2yn'
loop_
_symmetry_equiv_pos_site_id
_symmetry_equiv_pos_as_xyz
1 x,y,z
2 1/2-x,1/2+y,1/2-z
3 -x,-y,-z
4 1/2+x,1/2-y,1/2+z
_cell_length_a                   5.9637(2)
_cell_length_b                   15.7025(4)
_cell_length_c                   11.9733(3)
_cell_angle_alpha                90
_cell_angle_beta                 95.124(2)
_cell_angle_gamma                90
_cell_volume                     1116.76
_exptl_crystal_colour            purple
_exptl_crystal_description       block
_cell_formula_units_Z            2
loop_
_atom_site_label
_atom_site_type_symbol
_atom_site_fract_x
_atom_site_fract_y
_atom_site_fract_z
C1 C 0.2629(6) 0.1098(2) 0.0914(3)
H1 H 0.353779 0.159963 0.103804
H2 H 0.223997 0.102576 0.012395
H3 H 0.128074 0.115686 0.128887
C2 C 0.3927(5) 0.03344(19) 0.1368(2)
C3 C 0.3018(5) -0.0474(2) 0.1300(3)
H4 H 0.156244 -0.054482 0.096525
C4 C 0.4187(5) -0.11775(19) 0.1711(2)
H5 H 0.352248 -0.171350 0.166127
C5 C 0.6363(4) -0.10803(16) 0.2200(2)
C6 C 0.7297(5) -0.02803(17) 0.2282(2)
H6 H 0.875393 -0.021109 0.261597
C7 C 0.6098(5) 0.04204(18) 0.1874(2)
H7 H 0.675294 0.095767 0.193831
O1 O 0.8506(4) -0.24406(17) 0.17165(18)
O2 O 0.9851(4) -0.16692(14) 0.33559(19)
O3 O 0.6470(3) -0.24846(12) 0.33347(19)
S1 S 0.79188(10) -0.19860(4) 0.26848(5)
C8 C 0.6453(4) -0.06180(15) 0.54620(18)
C9 C 0.4418(4) -0.08468(15) 0.49017(18)
C10 C 0.2966(4) -0.02302(15) 0.44411(19)
H8 H 0.159579 -0.038709 0.406553
N1 N 0.3792(4) -0.17407(13) 0.4762(2)
Cl1 Cl 0.82769(11) -0.13759(4) 0.60644(6)
H9 H 0.374(5) -0.1986(19) 0.543(3)
H10 H 0.246(5) -0.1778(17) 0.444(2)
H11 H 0.480(6) -0.203(2) 0.437(3)
C8B C 0.3547(4) 0.06180(15) 0.45380(18)
C9B C 0.5582(4) 0.08468(15) 0.50983(18)
C10B C 0.7034(4) 0.02302(15) 0.55589(19)
H8B H 0.840421 0.038709 0.593447
N1B N 0.6208(4) 0.17407(13) 0.5238(2)
Cl1B Cl 0.17231(11) 0.13759(4) 0.39356(6)
H9B H 0.626(5) 0.1986(19) 0.457(3)
H10B H 0.754(5) 0.1778(17) 0.556(2)
H11B H 0.520(6) 0.203(2) 0.563(3)
loop_
_geom_bond_atom_site_label_1
_geom_bond_atom_site_label_2
_geom_bond_site_symmetry_1
_geom_bond_site_symmetry_2
C1 H1 1_555 1_555
H2 C1 1_555 1_555
H3 C1 1_555 1_555
C2 C1 1_555 1_555
C3 C2 1_555 1_555
H4 C3 1_555 1_555
C4 C3 1_555 1_555
H5 C4 1_555 1_555
C5 C4 1_555 1_555
C6 C5 1_555 1_555
H6 C6 1_555 1_555
C7 C2 1_555 1_555
H7 C7 1_555 1_555
O1 S1 1_555 1_555
O2 S1 1_555 1_555
O3 S1 1_555 1_555
S1 C5 1_555 1_555
C8 C9 1_555 1_555
C9 C10 1_555 1_555
C10 H8 1_555 1_555
N1 C9 1_555 1_555
Cl1 C8 1_555 1_555
H9 N1 1_555 1_555
H10 N1 1_555 1_555
H11 N1 1_555 1_555
C8B C10 1_555 1_555
C9B C8B 1_555 1_555
C10B C8 1_555 1_555
H8B C10B 1_555 1_555
N1B C9B 1_555 1_555
Cl1B C8B 1_555 1_555
H9B N1B 1_555 1_555
H10B N1B 1_555 1_555
H11B N1B 1_555 1_555
C6 C7 1_555 1_555
C9B C10B 1_555 1_555

#END
