
#######################################################################
#
#                 Cambridge Crystallographic Data Centre
#                                CCDC 
#
#######################################################################
#
# If this CIF has been generated from an entry in the Cambridge 
# Structural Database, then it will include bibliographic, chemical, 
# crystal, experimental, refinement or atomic coordinate data resulting 
# from the CCDC's data processing and validation procedures.
#
#######################################################################

data_TGLYSU25
_chemical_formula_moiety         '2(C2 H2 D4 N1 O2 1+),C2 H2 D3 N1 O2,O4 S1 2-'
_chemical_name_systematic        
'bis(N,N,N,O-Tetradeuteroglycine) N,N,N-trideuteroglycine sulfate'
_symmetry_cell_setting           monoclinic
_symmetry_space_group_name_H-M   'P 21'
_symmetry_Int_Tables_number      4
_space_group_name_Hall           'P 2yb'
loop_
_symmetry_equiv_pos_site_id
_symmetry_equiv_pos_as_xyz
1 x,y,z
2 -x,1/2+y,-z
_cell_length_a                   9.462
_cell_length_b                   12.706
_cell_length_c                   5.746
_cell_angle_alpha                90
_cell_angle_beta                 110.35
_cell_angle_gamma                90
_cell_volume                     647.692
_cell_formula_units_Z            2
loop_
_atom_site_label
_atom_site_type_symbol
_atom_site_fract_x
_atom_site_fract_y
_atom_site_fract_z
S1 S -0.0109 0.2482 0.2212
O1 O -0.1454 0.2443 0.0131
O2 O -0.0362 0.2845 0.4584
O3 O 0.0909 0.1517 0.2048
O4 O 0.0861 0.3432 0.2178
O5 O 0.6093 0.2538 1.0833
O6 O 0.4939 0.2702 0.6768
C1 C 0.4900 0.2619 0.8803
C2 C 0.3384 0.2530 0.9213
N1 N 0.3622 0.2106 1.1680
D1 D 0.7054 0.2479 1.04713
H1 H 0.2956 0.3342 0.8973
H2 H 0.2561 0.1978 0.7766
D2 D 0.4226 0.1418 1.1936
D3 D 0.2585 0.1891 1.1828
D4 D 0.4151 0.2518 1.3082
O7 O 0.2253 0.5058 0.7696
O8 O 0.4594 0.5315 0.8001
C3 C 0.3200 0.5286 0.6872
C4 C 0.2693 0.5656 0.4190
N2 N 0.1062 0.5672 0.3018
H3 H 0.3269 0.5264 0.3168
H4 H 0.3078 0.6492 0.3997
D5 D 0.0603 0.4906 0.2851
D6 D 0.0702 0.5961 0.1099
D7 D 0.0538 0.6076 0.3870
O9 O 0.7822 0.4952 0.2423
O10 O 0.5557 0.4814 0.2459
C5 C 0.6984 0.4750 0.3355
C6 C 0.7507 0.4257 0.6031
N3 N 0.9229 0.4219 0.7064
D8 D 0.5108 0.5043 0.0513
H5 H 0.7185 0.4773 0.7337
H6 H 0.7212 0.3534 0.6000
D9 D 0.9685 0.4976 0.7174
D10 D 0.9528 0.3916 0.8788
D11 D 0.9555 0.3707 0.5987
loop_
_geom_bond_atom_site_label_1
_geom_bond_atom_site_label_2
_geom_bond_site_symmetry_1
_geom_bond_site_symmetry_2
S1 O1 1_555 1_555
O2 S1 1_555 1_555
O3 S1 1_555 1_555
O4 S1 1_555 1_555
O5 C1 1_555 1_555
O6 C1 1_555 1_555
C1 C2 1_555 1_555
C2 N1 1_555 1_555
N1 D2 1_555 1_555
D1 O5 1_555 1_555
H1 C2 1_555 1_555
H2 C2 1_555 1_555
D3 N1 1_555 1_555
D4 N1 1_555 1_555
O7 C3 1_555 1_555
O8 C3 1_555 1_555
C3 C4 1_555 1_555
C4 N2 1_555 1_555
N2 D5 1_555 1_555
H3 C4 1_555 1_555
H4 C4 1_555 1_555
D6 N2 1_555 1_555
D7 N2 1_555 1_555
O9 C5 1_555 1_555
O10 C5 1_555 1_555
C5 C6 1_555 1_555
C6 N3 1_555 1_555
N3 D9 1_555 1_555
D8 O10 1_555 1_555
H5 C6 1_555 1_555
H6 C6 1_555 1_555
D10 N3 1_555 1_555
D11 N3 1_555 1_555

#END
