
#######################################################################
#
#                 Cambridge Crystallographic Data Centre
#                                CCDC 
#
#######################################################################
#
# If this CIF has been generated from an entry in the Cambridge 
# Structural Database, then it will include bibliographic, chemical, 
# crystal, experimental, refinement or atomic coordinate data resulting 
# from the CCDC's data processing and validation procedures.
#
#######################################################################

data_THEBAN
_chemical_name_common            '19-Propylthevinol hydrobromide'
_chemical_formula_moiety         'C26 H36 N1 O4 1+,Br1 1-'
_chemical_name_systematic        
'7\a-(1-(R)-Hydroxy-1-methylbutyl)-6,14-endo-ethenotetrahydrothebaine hydrobromide'
_symmetry_cell_setting           orthorhombic
_symmetry_space_group_name_H-M   'P 21 21 21'
_symmetry_Int_Tables_number      19
_space_group_name_Hall           'P 2ac 2ab'
loop_
_symmetry_equiv_pos_site_id
_symmetry_equiv_pos_as_xyz
1 x,y,z
2 1/2+x,1/2-y,-z
3 -x,1/2+y,1/2-z
4 1/2-x,-y,1/2+z
_cell_length_a                   10.60
_cell_length_b                   22.34
_cell_length_c                   10.14
_cell_angle_alpha                90
_cell_angle_beta                 90
_cell_angle_gamma                90
_cell_volume                     2401.19
_cell_formula_units_Z            4
loop_
_atom_site_label
_atom_site_type_symbol
_atom_site_fract_x
_atom_site_fract_y
_atom_site_fract_z
Br1 Br -0.23740 -0.43190 0.22140
C1 C 0.42770 0.25780 0.22880
C2 C 0.49210 0.35980 0.13470
C3 C 1.10440 0.46780 0.13870
C4 C 0.51000 0.30730 0.23160
C5 C 0.47700 0.49410 0.18340
C6 C 0.62220 0.30270 0.29970
C7 C 0.72690 0.35000 0.30420
C8 C 0.73310 0.37290 0.16160
C9 C 0.69640 0.40010 0.40390
C10 C 0.57550 0.43420 0.36590
C11 C 0.76510 0.32110 0.07010
C12 C 0.86800 0.29030 0.10430
C13 C 1.08800 0.39490 0.13460
C14 C 1.08670 0.37020 -0.00840
C15 C 0.47000 0.20800 0.29800
C16 C 1.10430 0.49320 0.27170
C17 C 0.59010 0.20060 0.35230
C18 C 0.71700 0.14390 0.49300
C19 C 1.12910 0.56220 0.27000
C20 C 0.67070 0.24900 0.34890
C21 C 0.84100 0.31290 0.34450
C22 C 0.93370 0.31210 0.22710
C23 C 1.04670 0.21880 0.28180
C24 C 0.96740 0.38090 0.21110
C25 C 0.85330 0.41440 0.15280
C26 C 0.60840 0.40320 0.13040
N1 N 0.58900 0.45440 0.22690
O1 O 1.19650 0.37410 0.20500
O2 O 0.62680 0.14490 0.39960
O3 O 0.79700 0.25260 0.38140
O4 O 1.04730 0.28200 0.24810
loop_
_geom_bond_atom_site_label_1
_geom_bond_atom_site_label_2
_geom_bond_site_symmetry_1
_geom_bond_site_symmetry_2
C1 C4 1_555 1_555
C2 C4 1_555 1_555
C3 C13 1_555 1_555
C4 C6 1_555 1_555
C5 N1 1_555 1_555
C6 C7 1_555 1_555
C7 C8 1_555 1_555
C8 C11 1_555 1_555
C9 C7 1_555 1_555
C10 C9 1_555 1_555
C11 C12 1_555 1_555
C12 C22 1_555 1_555
C13 C14 1_555 1_555
C15 C1 1_555 1_555
C16 C3 1_555 1_555
C17 C15 1_555 1_555
C18 O2 1_555 1_555
C19 C16 1_555 1_555
C20 C6 1_555 1_555
C21 C7 1_555 1_555
C22 C21 1_555 1_555
C23 O4 1_555 1_555
C24 C13 1_555 1_555
C25 C8 1_555 1_555
C26 C2 1_555 1_555
N1 C10 1_555 1_555
O1 C13 1_555 1_555
O2 C17 1_555 1_555
O3 C20 1_555 1_555
O4 C22 1_555 1_555
C8 C26 1_555 1_555
C17 C20 1_555 1_555
C21 O3 1_555 1_555
C22 C24 1_555 1_555
C24 C25 1_555 1_555
C26 N1 1_555 1_555

#END
