
#######################################################################
#
#                 Cambridge Crystallographic Data Centre
#                                CCDC 
#
#######################################################################
#
# If this CIF has been generated from an entry in the Cambridge 
# Structural Database, then it will include bibliographic, chemical, 
# crystal, experimental, refinement or atomic coordinate data resulting 
# from the CCDC's data processing and validation procedures.
#
#######################################################################

data_THHXTR
_chemical_formula_moiety         'C15 H12 O3 S6'
_chemical_name_systematic        
2,4,6-tris(1',3'-Dithiolan-2'-ylidene)-cyclohexane-1,3,5-trione
_symmetry_cell_setting           monoclinic
_symmetry_space_group_name_H-M   'P c'
_symmetry_Int_Tables_number      7
_space_group_name_Hall           'P -2yc'
loop_
_symmetry_equiv_pos_site_id
_symmetry_equiv_pos_as_xyz
1 x,y,z
2 x,-y,1/2+z
_cell_length_a                   11.853(3)
_cell_length_b                   7.998(1)
_cell_length_c                   21.569(6)
_cell_angle_alpha                90
_cell_angle_beta                 123.31(2)
_cell_angle_gamma                90
_cell_volume                     1708.82
_exptl_crystal_colour            orange
_cell_formula_units_Z            4
loop_
_atom_site_label
_atom_site_type_symbol
_atom_site_fract_x
_atom_site_fract_y
_atom_site_fract_z
C1 C 0.22000 0.93490 0.48170
C2 C 0.34770 1.00100 0.54510
O1 O 0.45130 1.00020 0.54580
C3 C 0.34800 1.05990 0.60980
C4 C 0.22900 1.04480 0.61170
O2 O 0.23560 1.07770 0.67120
C5 C 0.10280 1.00060 0.54670
C6 C 0.09690 0.94970 0.47910
O3 O -0.01410 0.92330 0.42110
C7 C 0.22130 0.86730 0.42340
S1 S 0.07160 0.79140 0.34470
C8 C 0.15910 0.67330 0.31050
C9 C 0.28110 0.76640 0.32800
S2 S 0.36290 0.84260 0.42350
C10 C 0.46660 1.13520 0.66900
S3 S 0.60780 1.15800 0.66830
C11 C 0.71950 1.23420 0.76490
C12 C 0.63130 1.32660 0.78330
S4 S 0.47430 1.20830 0.74710
C13 C -0.01580 0.99910 0.54660
S5 S -0.02080 1.05040 0.62340
C14 C -0.20000 1.06190 0.57890
C15 C -0.26210 0.94150 0.51650
S6 S -0.17620 0.94940 0.46780
C16 C 0.48380 0.42430 0.48550
C17 C 0.60390 0.50030 0.54570
O4 O 0.70890 0.50020 0.54570
C18 C 0.60260 0.57610 0.60620
C19 C 0.47940 0.58340 0.60610
O5 O 0.47620 0.65650 0.65480
C20 C 0.36020 0.50010 0.54590
C21 C 0.35940 0.41870 0.48730
O6 O 0.25730 0.34260 0.43640
C22 C 0.48290 0.35640 0.42570
S7 S 0.33710 0.26060 0.35180
C23 C 0.40290 0.25740 0.28920
C24 C 0.55020 0.23860 0.33570
S8 S 0.61530 0.36940 0.41780
C25 C 0.72360 0.64040 0.66610
S9 S 0.87170 0.63020 0.67430
C26 C 0.96740 0.79270 0.75000
C27 C 0.91420 0.73960 0.79420
S10 S 0.72530 0.73920 0.74020
C28 C 0.24160 0.50150 0.54560
S11 S 0.22960 0.59010 0.61600
C29 C 0.07290 0.50780 0.59030
C30 C -0.01650 0.49960 0.50920
S12 S 0.08950 0.41100 0.47580
loop_
_geom_bond_atom_site_label_1
_geom_bond_atom_site_label_2
_geom_bond_site_symmetry_1
_geom_bond_site_symmetry_2
C1 C2 1_555 1_555
C2 O1 1_555 1_555
C3 C2 1_555 1_555
C4 C3 1_555 1_555
O2 C4 1_555 1_555
C5 C4 1_555 1_555
C6 C1 1_555 1_555
O3 C6 1_555 1_555
C7 C1 1_555 1_555
S1 C7 1_555 1_555
C8 S1 1_555 1_555
C9 C8 1_555 1_555
S2 C7 1_555 1_555
C10 C3 1_555 1_555
S3 C10 1_555 1_555
C11 S3 1_555 1_555
C12 C11 1_555 1_555
S4 C10 1_555 1_555
C13 C5 1_555 1_555
S5 C13 1_555 1_555
C14 S5 1_555 1_555
C15 C14 1_555 1_555
S6 C13 1_555 1_555
C16 C17 1_555 1_555
C17 O4 1_555 1_555
C18 C17 1_555 1_555
C19 C18 1_555 1_555
O5 C19 1_555 1_555
C20 C19 1_555 1_555
C21 C16 1_555 1_555
O6 C21 1_555 1_555
C22 C16 1_555 1_555
S7 C22 1_555 1_555
C23 S7 1_555 1_555
C24 C23 1_555 1_555
S8 C22 1_555 1_555
C25 C18 1_555 1_555
S9 C25 1_555 1_555
C26 S9 1_555 1_555
C27 C26 1_555 1_555
S10 C25 1_555 1_555
C28 C20 1_555 1_555
S11 C28 1_555 1_555
C29 S11 1_555 1_555
C30 C29 1_555 1_555
S12 C28 1_555 1_555
C5 C6 1_555 1_555
C9 S2 1_555 1_555
C12 S4 1_555 1_555
C15 S6 1_555 1_555
C20 C21 1_555 1_555
C24 S8 1_555 1_555
C27 S10 1_555 1_555
C30 S12 1_555 1_555

#END
