
#######################################################################
#
#                 Cambridge Crystallographic Data Centre
#                                CCDC 
#
#######################################################################
#
# If this CIF has been generated from an entry in the Cambridge 
# Structural Database, then it will include bibliographic, chemical, 
# crystal, experimental, refinement or atomic coordinate data resulting 
# from the CCDC's data processing and validation procedures.
#
#######################################################################

data_TIBCIR
_chemical_name_common            '13-Oxofumitremorgin B'
_chemical_formula_moiety         'C27 H31 N3 O5'
_chemical_name_systematic        
5a-Hydroxy-9-methoxy-11-(3-methyl-2-butenyl)-12-(2-methyl-1-propenyl)-2,3,11,12-tetrahydro-1H,5H-pyrrolo(1'',2'':4',5')pyrazino(1',2':1,6)pyrido(3,4-b)indole-5,6,14(5aH,14aH)-trione
_symmetry_cell_setting           orthorhombic
_symmetry_space_group_name_H-M   'P 21 21 21'
_symmetry_Int_Tables_number      19
_space_group_name_Hall           'P 2ac 2ab'
loop_
_symmetry_equiv_pos_site_id
_symmetry_equiv_pos_as_xyz
1 x,y,z
2 1/2-x,-y,1/2+z
3 -x,1/2+y,1/2-z
4 1/2+x,1/2-y,-z
_cell_length_a                   7.806(2)
_cell_length_b                   15.064(3)
_cell_length_c                   21.247(3)
_cell_angle_alpha                90
_cell_angle_beta                 90
_cell_angle_gamma                90
_cell_volume                     2498.43
_exptl_crystal_colour            colorless
_exptl_crystal_description       needle
_cell_formula_units_Z            4
_exptl_crystal_recrystallization_method methanol/chloroform
loop_
_atom_site_label
_atom_site_type_symbol
_atom_site_fract_x
_atom_site_fract_y
_atom_site_fract_z
N1 N -0.1347(5) 0.4732(2) 0.97817(15)
N2 N 0.1186(4) 0.3039(2) 0.89050(15)
N3 N 0.4265(4) 0.2364(2) 0.85467(15)
O1 O -0.0069(4) 0.24788(19) 0.80268(13)
O2 O 0.5411(4) 0.3259(2) 0.92843(14)
O3 O 0.2211(4) 0.19012(17) 0.95815(13)
H1 H 0.1293 0.1848 0.9765
O4 O 0.3460(4) 0.3238(2) 1.04003(15)
O5 O -0.1883(5) 0.6221(2) 1.18279(16)
C1 C -0.0158(5) 0.4132(2) 0.95848(18)
C2 C -0.0291(5) 0.3650(2) 0.89757(17)
H2 H -0.1337 0.3290 0.8986
C3 C 0.1149(5) 0.2507(2) 0.83839(19)
C4 C 0.2753(5) 0.1976(3) 0.82517(19)
H3 H 0.2603 0.1362 0.8393
C5 C 0.3241(6) 0.1993(4) 0.7553(2)
H4 H 0.2683 0.1516 0.7325
H5 H 0.2933 0.2556 0.7362
C6 C 0.5155(7) 0.1869(4) 0.7562(2)
H6 H 0.5447 0.1246 0.7605
H7 H 0.5669 0.2097 0.7179
C7 C 0.5752(6) 0.2385(3) 0.8123(2)
H8 H 0.6740 0.2105 0.8317
H9 H 0.6045 0.2989 0.8008
C8 C 0.4219(5) 0.2817(3) 0.9080(2)
C9 C 0.2433(5) 0.2790(2) 0.93978(18)
C10 C 0.2409(6) 0.3383(3) 0.99857(19)
C11 C 0.1088(6) 0.4024(3) 1.00415(19)
C12 C 0.0617(6) 0.4590(3) 1.05575(18)
C13 C 0.1294(7) 0.4757(3) 1.1151(2)
H10 H 0.2323 0.4500 1.1275
C14 C 0.0411(7) 0.5311(3) 1.1550(2)
H11 H 0.0859 0.5431 1.1947
C15 C -0.1136(7) 0.5697(3) 1.1376(2)
C16 C -0.1813(6) 0.5561(3) 1.0785(2)
H12 H -0.2830 0.5829 1.0659
C17 C -0.0913(6) 0.5008(2) 1.03895(18)
C18 C -0.2887(6) 0.5043(3) 0.9457(2)
H13 H -0.3865 0.4986 0.9736
H14 H -0.3092 0.4675 0.9091
C19 C -0.2718(7) 0.5979(3) 0.9258(2)
H15 H -0.1732 0.6116 0.9032
C20 C -0.3778(9) 0.6644(4) 0.9357(3)
C21 C -0.3413(10) 0.7564(4) 0.9104(3)
H16 H -0.2256 0.7589 0.8952
H17 H -0.3561 0.7992 0.9434
H18 H -0.4189 0.7693 0.8766
C22 C -0.5391(11) 0.6568(5) 0.9719(4)
H19 H -0.5511 0.5973 0.9873
H20 H -0.6342 0.6709 0.9451
H21 H -0.5365 0.6974 1.0068
C23 C -0.0397(6) 0.4264(3) 0.84068(19)
H22 H -0.1406 0.4232 0.8175
C24 C 0.0747(7) 0.4830(3) 0.8201(2)
C25 C 0.2459(9) 0.4976(5) 0.8501(3)
H23 H 0.2436 0.4760 0.8925
H24 H 0.2719 0.5599 0.8502
H25 H 0.3320 0.4663 0.8267
C26 C 0.0457(9) 0.5354(4) 0.7614(3)
H26 H -0.0666 0.5229 0.7452
H27 H 0.1301 0.5194 0.7305
H28 H 0.0549 0.5976 0.7706
C27 C -0.3470(8) 0.6624(4) 1.1680(3)
H29 H -0.3310 0.7044 1.1346
H30 H -0.3907 0.6924 1.2045
H31 H -0.4271 0.6177 1.1549
loop_
_geom_bond_atom_site_label_1
_geom_bond_atom_site_label_2
_geom_bond_site_symmetry_1
_geom_bond_site_symmetry_2
N1 C1 1_555 1_555
N2 C2 1_555 1_555
N3 C4 1_555 1_555
O1 C3 1_555 1_555
O2 C8 1_555 1_555
O3 H1 1_555 1_555
O4 C10 1_555 1_555
O5 C15 1_555 1_555
C1 C2 1_555 1_555
C2 H2 1_555 1_555
C3 N2 1_555 1_555
C4 C3 1_555 1_555
H3 C4 1_555 1_555
C5 C4 1_555 1_555
H4 C5 1_555 1_555
H5 C5 1_555 1_555
C6 C5 1_555 1_555
H6 C6 1_555 1_555
H7 C6 1_555 1_555
C7 N3 1_555 1_555
H8 C7 1_555 1_555
H9 C7 1_555 1_555
C8 N3 1_555 1_555
C9 N2 1_555 1_555
C10 C9 1_555 1_555
C11 C1 1_555 1_555
C12 C11 1_555 1_555
C13 C12 1_555 1_555
H10 C13 1_555 1_555
C14 C13 1_555 1_555
H11 C14 1_555 1_555
C15 C14 1_555 1_555
C16 C15 1_555 1_555
H12 C16 1_555 1_555
C17 N1 1_555 1_555
C18 N1 1_555 1_555
H13 C18 1_555 1_555
H14 C18 1_555 1_555
C19 C18 1_555 1_555
H15 C19 1_555 1_555
C20 C19 1_555 1_555
C21 C20 1_555 1_555
H16 C21 1_555 1_555
H17 C21 1_555 1_555
H18 C21 1_555 1_555
C22 C20 1_555 1_555
H19 C22 1_555 1_555
H20 C22 1_555 1_555
H21 C22 1_555 1_555
C23 C2 1_555 1_555
H22 C23 1_555 1_555
C24 C23 1_555 1_555
C25 C24 1_555 1_555
H23 C25 1_555 1_555
H24 C25 1_555 1_555
H25 C25 1_555 1_555
C26 C24 1_555 1_555
H26 C26 1_555 1_555
H27 C26 1_555 1_555
H28 C26 1_555 1_555
C27 O5 1_555 1_555
H29 C27 1_555 1_555
H30 C27 1_555 1_555
H31 C27 1_555 1_555
O3 C9 1_555 1_555
C6 C7 1_555 1_555
C8 C9 1_555 1_555
C10 C11 1_555 1_555
C12 C17 1_555 1_555
C16 C17 1_555 1_555

#END
