
#######################################################################
#
#                 Cambridge Crystallographic Data Centre
#                                CCDC 
#
#######################################################################
#
# If this CIF has been generated from an entry in the Cambridge 
# Structural Database, then it will include bibliographic, chemical, 
# crystal, experimental, refinement or atomic coordinate data resulting 
# from the CCDC's data processing and validation procedures.
#
#######################################################################

data_TIBHAO
_chemical_formula_moiety         'C1 H6 N3 S1 1+,C7 H5 O6 S1 1-'
_chemical_name_systematic        
'(Aminocarbonothioyl)hydrazinium 3-carboxy-4-hydroxybenzenesulfonate'
_symmetry_cell_setting           monoclinic
_symmetry_space_group_name_H-M   'P 21/c'
_symmetry_Int_Tables_number      14
_space_group_name_Hall           '-P 2ybc'
loop_
_symmetry_equiv_pos_site_id
_symmetry_equiv_pos_as_xyz
1 x,y,z
2 -x,1/2+y,1/2-z
3 -x,-y,-z
4 x,1/2-y,1/2+z
_cell_length_a                   10.479(7)
_cell_length_b                   7.625(5)
_cell_length_c                   16.357(11)
_cell_angle_alpha                90
_cell_angle_beta                 102.119(11)
_cell_angle_gamma                90
_cell_volume                     1277.84
_exptl_crystal_colour            colorless
_exptl_crystal_description       block
_cell_formula_units_Z            4
_exptl_crystal_recrystallization_method methanol
loop_
_atom_site_label
_atom_site_type_symbol
_atom_site_fract_x
_atom_site_fract_y
_atom_site_fract_z
C1 C 0.56833(14) 0.84889(19) 0.10417(9)
C2 C 0.61929(14) 0.8167(2) 0.03067(10)
C3 C 0.53816(16) 0.7370(2) -0.04070(10)
H1 H 0.5706 0.7179 -0.0887
C4 C 0.40923(15) 0.6869(2) -0.03899(9)
H2 H 0.3572 0.6342 -0.0855
C5 C 0.35867(13) 0.71735(19) 0.03421(9)
C6 C 0.43736(14) 0.7984(2) 0.10499(9)
H3 H 0.4036 0.8190 0.1523
C7 C 0.65308(15) 0.9391(2) 0.17811(10)
O1 O 0.59773(13) 0.9587(2) 0.24474(8)
H10 H 0.650(3) 1.002(3) 0.2827(18)
O2 O 0.76570(12) 0.99294(19) 0.17773(9)
O3 O 0.74555(12) 0.86069(17) 0.02604(9)
H11 H 0.777(2) 0.917(3) 0.0705(16)
O4 O 0.11736(10) 0.80793(15) 0.04875(7)
O5 O 0.21034(11) 0.52940(15) 0.11242(7)
O6 O 0.14066(11) 0.55637(15) -0.04141(7)
S1 S 0.19548(3) 0.64794(4) 0.03805(2)
C8 C 0.08614(15) 0.1228(2) 0.23987(9)
N1 N 0.02271(16) 0.1511(2) 0.30249(10)
H4 H -0.052(2) 0.199(3) 0.2929(13)
H5 H 0.059(2) 0.111(3) 0.3544(15)
N2 N 0.02342(14) 0.1857(2) 0.16191(9)
H6 H -0.034(2) 0.259(3) 0.1550(13)
N3 N 0.09222(14) 0.1840(2) 0.09460(8)
H7 H 0.1435(19) 0.286(3) 0.0960(12)
H8 H 0.143(2) 0.088(3) 0.1017(12)
H9 H 0.030(2) 0.179(3) 0.0463(13)
S2 S 0.23143(5) 0.01322(7) 0.25237(3)
loop_
_geom_bond_atom_site_label_1
_geom_bond_atom_site_label_2
_geom_bond_site_symmetry_1
_geom_bond_site_symmetry_2
C1 C2 1_555 1_555
C2 C3 1_555 1_555
C3 H1 1_555 1_555
C4 C3 1_555 1_555
H2 C4 1_555 1_555
C5 C4 1_555 1_555
C6 C1 1_555 1_555
H3 C6 1_555 1_555
C7 C1 1_555 1_555
C8 N1 1_555 1_555
N1 H4 1_555 1_555
H5 N1 1_555 1_555
N2 C8 1_555 1_555
H6 N2 1_555 1_555
N3 N2 1_555 1_555
H7 N3 1_555 1_555
H8 N3 1_555 1_555
H9 N3 1_555 1_555
O1 C7 1_555 1_555
H10 O1 1_555 1_555
O2 C7 1_555 1_555
O3 C2 1_555 1_555
H11 O3 1_555 1_555
O4 S1 1_555 1_555
O5 S1 1_555 1_555
O6 S1 1_555 1_555
S1 C5 1_555 1_555
S2 C8 1_555 1_555
C5 C6 1_555 1_555

#END
