
#######################################################################
#
#                 Cambridge Crystallographic Data Centre
#                                CCDC 
#
#######################################################################
#
# If this CIF has been generated from an entry in the Cambridge 
# Structural Database, then it will include bibliographic, chemical, 
# crystal, experimental, refinement or atomic coordinate data resulting 
# from the CCDC's data processing and validation procedures.
#
#######################################################################

data_TIBNOI
_chemical_formula_moiety         'C18 H22 N1 O2 P1 S1'
_chemical_name_systematic        
2-Benzylamino-5,5-dimethyl-4-phenyl-1,3,2-dioxaphosphinane-2-thione
_symmetry_cell_setting           orthorhombic
_symmetry_space_group_name_H-M   'P 21 21 21'
_symmetry_Int_Tables_number      19
_space_group_name_Hall           'P 2ac 2ab'
loop_
_symmetry_equiv_pos_site_id
_symmetry_equiv_pos_as_xyz
1 x,y,z
2 1/2-x,-y,1/2+z
3 -x,1/2+y,1/2-z
4 1/2+x,1/2-y,-z
_cell_length_a                   6.6955(6)
_cell_length_b                   15.2156(13)
_cell_length_c                   17.7423(15)
_cell_angle_alpha                90
_cell_angle_beta                 90
_cell_angle_gamma                90
_cell_volume                     1807.52
_exptl_crystal_colour            colorless
_exptl_crystal_description       block
_chemical_melting_point          '420 K'
_cell_formula_units_Z            4
_exptl_crystal_recrystallization_method chloroform/DMF
loop_
_atom_site_label
_atom_site_type_symbol
_atom_site_fract_x
_atom_site_fract_y
_atom_site_fract_z
P1 P 0.88566(13) 0.84817(5) 0.07689(4)
S1 S 0.79334(17) 0.77954(5) 0.16047(5)
N1 N 0.8137(5) 0.81274(15) -0.00444(13)
H1 H 0.7283 0.7705 -0.0044
O1 O 0.8232(3) 0.94851(10) 0.07744(10)
O2 O 1.1217(3) 0.85530(13) 0.06953(12)
C1 C 0.8180(4) 1.09561(16) 0.12247(13)
C2 C 0.7508(4) 1.12421(17) 0.05297(15)
H2 H 0.7687 1.0888 0.0108
C3 C 0.6572(5) 1.20471(19) 0.04527(19)
H3 H 0.6119 1.2228 -0.0018
C4 C 0.6313(7) 1.2575(2) 0.1064(2)
H4 H 0.5681 1.3116 0.1012
C5 C 0.6989(6) 1.2307(2) 0.1759(2)
H5 H 0.6824 1.2672 0.2175
C6 C 0.7915(5) 1.14967(19) 0.18430(15)
H6 H 0.8358 1.1317 0.2315
C7 C 0.9191(4) 1.00778(14) 0.13122(12)
H7 H 0.8918 0.9860 0.1822
C8 C 1.1465(4) 1.00658(18) 0.11896(15)
C9 C 1.2191(5) 0.9125(2) 0.1242(2)
H8 H 1.3623 0.9112 0.1158
H9 H 1.1938 0.8904 0.1745
C10 C 1.2492(5) 1.0583(2) 0.18298(17)
H10 H 1.2034 1.0367 0.2308
H11 H 1.2167 1.1195 0.1785
H12 H 1.3912 1.0508 0.1794
C11 C 1.2041(5) 1.0453(2) 0.04306(16)
H13 H 1.3450 1.0379 0.0351
H14 H 1.1720 1.1068 0.0423
H15 H 1.1319 1.0158 0.0038
C12 C 0.8780(6) 0.8446(2) -0.07733(17)
H16 H 0.8521 0.7989 -0.1142
H17 H 1.0214 0.8532 -0.0755
C13 C 0.7846(5) 0.9280(2) -0.10531(14)
C14 C 0.5875(6) 0.9480(2) -0.09257(16)
H18 H 0.5083 0.9100 -0.0644
C15 C 0.5060(6) 1.0248(3) -0.12164(18)
H19 H 0.3729 1.0385 -0.1122
C16 C 0.6198(8) 1.0801(3) -0.16376(18)
H20 H 0.5647 1.1316 -0.1828
C17 C 0.8128(8) 1.0604(3) -0.17807(18)
H21 H 0.8903 1.0977 -0.2076
C18 C 0.8936(6) 0.9847(2) -0.14854(16)
H22 H 1.0269 0.9718 -0.1583
loop_
_geom_bond_atom_site_label_1
_geom_bond_atom_site_label_2
_geom_bond_site_symmetry_1
_geom_bond_site_symmetry_2
P1 S1 1_555 1_555
N1 P1 1_555 1_555
H1 N1 1_555 1_555
O1 P1 1_555 1_555
O2 P1 1_555 1_555
C1 C2 1_555 1_555
C2 H2 1_555 1_555
C3 C2 1_555 1_555
H3 C3 1_555 1_555
C4 C3 1_555 1_555
H4 C4 1_555 1_555
C5 C4 1_555 1_555
H5 C5 1_555 1_555
C6 C1 1_555 1_555
H6 C6 1_555 1_555
C7 O1 1_555 1_555
H7 C7 1_555 1_555
C8 C7 1_555 1_555
C9 O2 1_555 1_555
H8 C9 1_555 1_555
H9 C9 1_555 1_555
C10 C8 1_555 1_555
H10 C10 1_555 1_555
H11 C10 1_555 1_555
H12 C10 1_555 1_555
C11 C8 1_555 1_555
H13 C11 1_555 1_555
H14 C11 1_555 1_555
H15 C11 1_555 1_555
C12 N1 1_555 1_555
H16 C12 1_555 1_555
H17 C12 1_555 1_555
C13 C12 1_555 1_555
C14 C13 1_555 1_555
H18 C14 1_555 1_555
C15 C14 1_555 1_555
H19 C15 1_555 1_555
C16 C15 1_555 1_555
H20 C16 1_555 1_555
C17 C16 1_555 1_555
H21 C17 1_555 1_555
C18 C13 1_555 1_555
H22 C18 1_555 1_555
C1 C7 1_555 1_555
C5 C6 1_555 1_555
C8 C9 1_555 1_555
C17 C18 1_555 1_555

#END
