
#######################################################################
#
#                 Cambridge Crystallographic Data Centre
#                                CCDC 
#
#######################################################################
#
# If this CIF has been generated from an entry in the Cambridge 
# Structural Database, then it will include bibliographic, chemical, 
# crystal, experimental, refinement or atomic coordinate data resulting 
# from the CCDC's data processing and validation procedures.
#
#######################################################################

data_TIBPAW
_chemical_formula_moiety         'C6 H6 N2 O4 S1'
_chemical_name_systematic        2-Nitrobenzenesulfonamide
_symmetry_cell_setting           monoclinic
_symmetry_space_group_name_H-M   'C c'
_symmetry_Int_Tables_number      9
_space_group_name_Hall           'C -2yc'
loop_
_symmetry_equiv_pos_site_id
_symmetry_equiv_pos_as_xyz
1 x,y,z
2 x,-y,1/2+z
3 1/2+x,1/2+y,z
4 1/2+x,1/2-y,1/2+z
_cell_length_a                   7.478(2)
_cell_length_b                   14.656(4)
_cell_length_c                   7.400(2)
_cell_angle_alpha                90
_cell_angle_beta                 93.872(4)
_cell_angle_gamma                90
_cell_volume                     809.171
_exptl_crystal_colour            yellow
_exptl_crystal_description       planar
_cell_formula_units_Z            4
loop_
_atom_site_label
_atom_site_type_symbol
_atom_site_fract_x
_atom_site_fract_y
_atom_site_fract_z
S1 S 0.48036(4) 0.215365(19) 0.46658(4)
O1 O 0.12027(15) 0.13267(10) 0.5661(2)
O2 O 0.06130(18) 0.03645(10) 0.3488(2)
O3 O 0.65394(15) 0.24338(8) 0.41739(16)
O4 O 0.32772(18) 0.23320(8) 0.34407(17)
N1 N 0.16263(16) 0.07154(9) 0.46554(19)
N2 N 0.45059(18) 0.26370(9) 0.65695(18)
H1 H 0.3473(16) 0.2505(15) 0.702(3)
H2 H 0.5521(17) 0.2667(13) 0.725(3)
C1 C 0.49346(17) 0.09486(8) 0.50072(15)
C2 C 0.34681(19) 0.03689(9) 0.48703(18)
C3 C 0.3655(2) -0.05756(10) 0.4956(2)
H3 H 0.2658 -0.0955 0.4810
C4 C 0.5356(3) -0.09364(10) 0.5265(2)
H4 H 0.5507 -0.1565 0.5343
C5 C 0.6838(2) -0.03683(11) 0.5458(2)
H5 H 0.7974 -0.0617 0.5692
C6 C 0.6634(2) 0.05681(11) 0.5303(2)
H6 H 0.7637 0.0944 0.5396
loop_
_geom_bond_atom_site_label_1
_geom_bond_atom_site_label_2
_geom_bond_site_symmetry_1
_geom_bond_site_symmetry_2
S1 O3 1_555 1_555
O1 N1 1_555 1_555
O2 N1 1_555 1_555
O4 S1 1_555 1_555
N1 C2 1_555 1_555
N2 S1 1_555 1_555
H1 N2 1_555 1_555
H2 N2 1_555 1_555
C1 S1 1_555 1_555
C2 C1 1_555 1_555
C3 C2 1_555 1_555
H3 C3 1_555 1_555
C4 C3 1_555 1_555
H4 C4 1_555 1_555
C5 C4 1_555 1_555
H5 C5 1_555 1_555
C6 C1 1_555 1_555
H6 C6 1_555 1_555
C5 C6 1_555 1_555

#END
