
#######################################################################
#
#                 Cambridge Crystallographic Data Centre
#                                CCDC 
#
#######################################################################
#
# If this CIF has been generated from an entry in the Cambridge 
# Structural Database, then it will include bibliographic, chemical, 
# crystal, experimental, refinement or atomic coordinate data resulting 
# from the CCDC's data processing and validation procedures.
#
#######################################################################

data_TICLAV
_chemical_formula_moiety         'C29 H31 B10 N1'
_chemical_name_systematic        
1-([4-(triphenylethenyl)benzylidene]amino)-1,2-dicarba-closo-dodecaborane(11)
_symmetry_cell_setting           triclinic
_symmetry_space_group_name_H-M   'P -1'
_symmetry_Int_Tables_number      2
_space_group_name_Hall           '-P 1'
loop_
_symmetry_equiv_pos_site_id
_symmetry_equiv_pos_as_xyz
1 x,y,z
2 -x,-y,-z
_cell_length_a                   12.9945(13)
_cell_length_b                   13.8135(16)
_cell_length_c                   17.4735(18)
_cell_angle_alpha                103.580(3)
_cell_angle_beta                 104.511(3)
_cell_angle_gamma                97.596(2)
_cell_volume                     2890.09
_exptl_crystal_colour            'yellow green'
_exptl_crystal_description       rod
_cell_formula_units_Z            4
loop_
_atom_site_label
_atom_site_type_symbol
_atom_site_fract_x
_atom_site_fract_y
_atom_site_fract_z
N1 N 0.5521(3) 0.2718(2) 0.7518(2)
B1 B 0.5117(5) 0.2667(4) 0.8934(3)
H1 H 0.4285 0.2216 0.8655
B2 B 0.5443(4) 0.3979(3) 0.9009(3)
H2 H 0.4818 0.4393 0.8784
B3 B 0.6780(4) 0.4239(3) 0.8913(3)
H3 H 0.7024 0.4824 0.8625
B4 B 0.7254(4) 0.3108(4) 0.8785(3)
H4 H 0.7802 0.2938 0.8405
B5 B 0.7344(5) 0.2703(4) 0.9675(3)
H5 H 0.7960 0.2274 0.9887
B6 B 0.6029(5) 0.2435(4) 0.9768(3)
H6 H 0.5788 0.1833 1.0042
B7 B 0.5532(5) 0.3576(4) 0.9898(3)
H7 H 0.4966 0.3733 1.0264
B8 B 0.6559(4) 0.4545(4) 0.9884(3)
H8 H 0.6665 0.5340 1.0243
B9 B 0.7686(5) 0.4008(4) 0.9748(3)
H9 H 0.8526 0.4444 1.0017
B10 B 0.6912(5) 0.3592(4) 1.0360(3)
H10 H 0.7248 0.3759 1.1031
C1 C 0.5920(3) 0.3102(3) 0.8386(2)
C2 C 0.6259(4) 0.2238(3) 0.8847(2)
H11 H 0.6155 0.1446 0.8483
C3 C 0.5264(3) 0.3304(3) 0.7079(3)
H12 H 0.5281 0.3977 0.7343
C4 C 0.4948(3) 0.2997(3) 0.6200(2)
C5 C 0.4908(3) 0.1997(3) 0.5777(2)
H13 H 0.5039 0.1524 0.6071
C6 C 0.4680(3) 0.1696(3) 0.4942(2)
H14 H 0.4625 0.1015 0.4678
C7 C 0.4527(3) 0.2378(3) 0.4473(2)
C8 C 0.4571(3) 0.3381(3) 0.4892(2)
H15 H 0.4459 0.3860 0.4601
C9 C 0.4778(3) 0.3666(3) 0.5734(3)
H16 H 0.4805 0.4341 0.5998
C10 C 0.4354(3) 0.2077(3) 0.3574(2)
C11 C 0.3757(3) 0.1171(3) 0.3064(2)
C12 C 0.4901(4) 0.2814(3) 0.3224(2)
C13 C 0.6001(4) 0.3145(3) 0.3503(3)
H17 H 0.6398 0.2992 0.3966
C14 C 0.6534(4) 0.3712(3) 0.3098(3)
H18 H 0.7285 0.3927 0.3284
C15 C 0.5937(6) 0.3947(3) 0.2422(3)
H19 H 0.6291 0.4299 0.2137
C16 C 0.4838(5) 0.3673(3) 0.2164(3)
H20 H 0.4433 0.3869 0.1727
C17 C 0.4338(4) 0.3101(3) 0.2563(3)
H21 H 0.3586 0.2899 0.2380
C18 C 0.3769(4) 0.0832(3) 0.2187(3)
C19 C 0.2818(4) 0.0535(3) 0.1568(3)
H22 H 0.2168 0.0482 0.1702
C20 C 0.2783(4) 0.0309(3) 0.0746(3)
H23 H 0.2126 0.0148 0.0333
C21 C 0.3763(5) 0.0331(4) 0.0558(3)
H24 H 0.3767 0.0170 0.0011
C22 C 0.4705(5) 0.0585(3) 0.1165(3)
H25 H 0.5355 0.0598 0.1030
C23 C 0.4733(4) 0.0826(3) 0.1981(3)
H26 H 0.5392 0.0984 0.2391
C24 C 0.3034(3) 0.0443(3) 0.3294(2)
C25 C 0.2241(4) 0.0738(3) 0.3651(3)
H27 H 0.2193 0.1420 0.3783
C26 C 0.1520(4) 0.0036(4) 0.3815(3)
H28 H 0.0985 0.0244 0.4044
C27 C 0.1604(4) -0.0967(4) 0.3636(3)
H29 H 0.1136 -0.1440 0.3757
C28 C 0.2369(4) -0.1270(3) 0.3284(3)
H30 H 0.2418 -0.1952 0.3158
C29 C 0.3074(3) -0.0574(3) 0.3111(2)
H31 H 0.3590 -0.0796 0.2865
N2 N 0.8807(3) 0.6632(2) 0.5491(2)
B11 B 0.9902(5) 0.5554(5) 0.6350(4)
H32 H 1.0639 0.5710 0.6161
B12 B 0.8738(5) 0.4687(4) 0.5684(4)
H33 H 0.8709 0.4266 0.5058
B13 B 0.7607(4) 0.5118(3) 0.5891(3)
H34 H 0.6840 0.4977 0.5399
B14 B 0.8076(4) 0.6246(4) 0.6697(3)
H35 H 0.7615 0.6861 0.6736
B15 B 0.8814(5) 0.5998(4) 0.7590(3)
H36 H 0.8834 0.6437 0.8208
B16 B 0.9978(5) 0.5568(5) 0.7376(4)
H37 H 1.0760 0.5732 0.7856
B17 B 0.9501(6) 0.4419(5) 0.6578(4)
H38 H 0.9968 0.3810 0.6536
B18 B 0.8083(5) 0.4143(4) 0.6305(3)
H39 H 0.7618 0.3355 0.6091
B19 B 0.7668(5) 0.5124(4) 0.6926(3)
H40 H 0.6927 0.4979 0.7113
B20 B 0.8852(5) 0.4701(4) 0.7344(4)
H41 H 0.8899 0.4280 0.7810
C30 C 0.8728(3) 0.5948(3) 0.5983(3)
C31 C 0.9430(4) 0.6440(3) 0.6943(3)
H42 H 0.9892 0.7228 0.7154
C32 C 0.8218(4) 0.6343(3) 0.4741(3)
H43 H 0.7762 0.5705 0.4551
C33 C 0.8221(3) 0.6956(3) 0.4166(3)
C34 C 0.7642(3) 0.6562(3) 0.3356(3)
H44 H 0.7201 0.5917 0.3183
C35 C 0.7695(3) 0.7101(3) 0.2785(3)
H45 H 0.7314 0.6802 0.2233
C36 C 0.8307(3) 0.8078(3) 0.3027(3)
C37 C 0.8869(3) 0.8469(3) 0.3852(3)
H46 H 0.9286 0.9125 0.4033
C38 C 0.8836(3) 0.7925(3) 0.4419(3)
H47 H 0.9229 0.8213 0.4969
C39 C 0.8396(3) 0.8636(3) 0.2409(2)
C40 C 0.8369(3) 0.9635(3) 0.2552(3)
C41 C 0.8525(4) 0.8048(3) 0.1631(3)
C42 C 0.9303(4) 0.7438(3) 0.1638(3)
H48 H 0.9725 0.7397 0.2140
C43 C 0.9464(5) 0.6897(4) 0.0924(4)
H49 H 0.9990 0.6501 0.0949
C44 C 0.8846(6) 0.6943(4) 0.0174(4)
H50 H 0.8963 0.6595 -0.0310
C45 C 0.8047(5) 0.7514(4) 0.0152(3)
H51 H 0.7606 0.7530 -0.0352
C46 C 0.7902(4) 0.8061(3) 0.0877(3)
H52 H 0.7366 0.8447 0.0851
C47 C 0.8679(4) 1.0276(3) 0.2032(3)
C48 C 0.9592(4) 1.0229(3) 0.1774(3)
H53 H 1.0031 0.9780 0.1912
C49 C 0.9859(4) 1.0858(4) 0.1303(3)
H54 H 1.0469 1.0815 0.1119
C50 C 0.9229(5) 1.1538(4) 0.1109(3)
H55 H 0.9416 1.1960 0.0801
C51 C 0.8332(5) 1.1593(4) 0.1368(3)
H56 H 0.7895 1.2041 0.1223
C52 C 0.8061(4) 1.0986(3) 0.1846(3)
H57 H 0.7465 1.1053 0.2043
C53 C 0.8012(4) 1.0209(3) 0.3248(3)
C54 C 0.7048(4) 0.9839(3) 0.3372(3)
H58 H 0.6627 0.9213 0.3039
C55 C 0.6701(4) 1.0407(4) 0.4000(3)
H59 H 0.6044 1.0161 0.4077
C56 C 0.7323(5) 1.1319(4) 0.4501(3)
H60 H 0.7099 1.1680 0.4928
C57 C 0.8270(4) 1.1702(3) 0.4378(3)
H61 H 0.8679 1.2333 0.4709
C58 C 0.8622(4) 1.1148(3) 0.3754(3)
H62 H 0.9274 1.1408 0.3676
loop_
_geom_bond_atom_site_label_1
_geom_bond_atom_site_label_2
_geom_bond_site_symmetry_1
_geom_bond_site_symmetry_2
N1 C1 1_555 1_555
B1 H1 1_555 1_555
B2 B1 1_555 1_555
H2 B2 1_555 1_555
B3 B2 1_555 1_555
H3 B3 1_555 1_555
B4 B3 1_555 1_555
H4 B4 1_555 1_555
B5 B4 1_555 1_555
H5 B5 1_555 1_555
B6 B1 1_555 1_555
H6 B6 1_555 1_555
B7 B1 1_555 1_555
H7 B7 1_555 1_555
B8 B2 1_555 1_555
H8 B8 1_555 1_555
B9 B3 1_555 1_555
H9 B9 1_555 1_555
B10 B5 1_555 1_555
H10 B10 1_555 1_555
C1 B1 1_555 1_555
C2 B1 1_555 1_555
H11 C2 1_555 1_555
C3 N1 1_555 1_555
H12 C3 1_555 1_555
C4 C3 1_555 1_555
C5 C4 1_555 1_555
H13 C5 1_555 1_555
C6 C5 1_555 1_555
H14 C6 1_555 1_555
C7 C6 1_555 1_555
C8 C7 1_555 1_555
H15 C8 1_555 1_555
C9 C4 1_555 1_555
H16 C9 1_555 1_555
C10 C7 1_555 1_555
C11 C10 1_555 1_555
C12 C10 1_555 1_555
C13 C12 1_555 1_555
H17 C13 1_555 1_555
C14 C13 1_555 1_555
H18 C14 1_555 1_555
C15 C14 1_555 1_555
H19 C15 1_555 1_555
C16 C15 1_555 1_555
H20 C16 1_555 1_555
C17 C12 1_555 1_555
H21 C17 1_555 1_555
C18 C11 1_555 1_555
C19 C18 1_555 1_555
H22 C19 1_555 1_555
C20 C19 1_555 1_555
H23 C20 1_555 1_555
C21 C20 1_555 1_555
H24 C21 1_555 1_555
C22 C21 1_555 1_555
H25 C22 1_555 1_555
C23 C18 1_555 1_555
H26 C23 1_555 1_555
C24 C11 1_555 1_555
C25 C24 1_555 1_555
H27 C25 1_555 1_555
C26 C25 1_555 1_555
H28 C26 1_555 1_555
C27 C26 1_555 1_555
H29 C27 1_555 1_555
C28 C27 1_555 1_555
H30 C28 1_555 1_555
C29 C24 1_555 1_555
H31 C29 1_555 1_555
N2 C30 1_555 1_555
B11 H32 1_555 1_555
B12 B11 1_555 1_555
H33 B12 1_555 1_555
B13 B12 1_555 1_555
H34 B13 1_555 1_555
B14 B13 1_555 1_555
H35 B14 1_555 1_555
B15 B14 1_555 1_555
H36 B15 1_555 1_555
B16 B11 1_555 1_555
H37 B16 1_555 1_555
B17 B11 1_555 1_555
H38 B17 1_555 1_555
B18 B12 1_555 1_555
H39 B18 1_555 1_555
B19 B13 1_555 1_555
H40 B19 1_555 1_555
B20 B15 1_555 1_555
H41 B20 1_555 1_555
C30 B11 1_555 1_555
C31 B11 1_555 1_555
H42 C31 1_555 1_555
C32 N2 1_555 1_555
H43 C32 1_555 1_555
C33 C32 1_555 1_555
C34 C33 1_555 1_555
H44 C34 1_555 1_555
C35 C34 1_555 1_555
H45 C35 1_555 1_555
C36 C35 1_555 1_555
C37 C36 1_555 1_555
H46 C37 1_555 1_555
C38 C33 1_555 1_555
H47 C38 1_555 1_555
C39 C36 1_555 1_555
C40 C39 1_555 1_555
C41 C39 1_555 1_555
C42 C41 1_555 1_555
H48 C42 1_555 1_555
C43 C42 1_555 1_555
H49 C43 1_555 1_555
C44 C43 1_555 1_555
H50 C44 1_555 1_555
C45 C44 1_555 1_555
H51 C45 1_555 1_555
C46 C41 1_555 1_555
H52 C46 1_555 1_555
C47 C40 1_555 1_555
C48 C47 1_555 1_555
H53 C48 1_555 1_555
C49 C48 1_555 1_555
H54 C49 1_555 1_555
C50 C49 1_555 1_555
H55 C50 1_555 1_555
C51 C50 1_555 1_555
H56 C51 1_555 1_555
C52 C47 1_555 1_555
H57 C52 1_555 1_555
C53 C40 1_555 1_555
C54 C53 1_555 1_555
H58 C54 1_555 1_555
C55 C54 1_555 1_555
H59 C55 1_555 1_555
C56 C55 1_555 1_555
H60 C56 1_555 1_555
C57 C56 1_555 1_555
H61 C57 1_555 1_555
C58 C53 1_555 1_555
H62 C58 1_555 1_555
B2 B7 1_555 1_555
B2 C1 1_555 1_555
B3 B8 1_555 1_555
B3 C1 1_555 1_555
B4 B9 1_555 1_555
B4 C1 1_555 1_555
B4 C2 1_555 1_555
B5 B6 1_555 1_555
B5 B9 1_555 1_555
B5 C2 1_555 1_555
B6 B7 1_555 1_555
B6 B10 1_555 1_555
B6 C2 1_555 1_555
B7 B8 1_555 1_555
B7 B10 1_555 1_555
B8 B9 1_555 1_555
B8 B10 1_555 1_555
B9 B10 1_555 1_555
C1 C2 1_555 1_555
C8 C9 1_555 1_555
C16 C17 1_555 1_555
C22 C23 1_555 1_555
C28 C29 1_555 1_555
B12 B17 1_555 1_555
B12 C30 1_555 1_555
B13 B18 1_555 1_555
B13 C30 1_555 1_555
B14 B19 1_555 1_555
B14 C30 1_555 1_555
B14 C31 1_555 1_555
B15 B16 1_555 1_555
B15 B19 1_555 1_555
B15 C31 1_555 1_555
B16 B17 1_555 1_555
B16 B20 1_555 1_555
B16 C31 1_555 1_555
B17 B18 1_555 1_555
B17 B20 1_555 1_555
B18 B19 1_555 1_555
B18 B20 1_555 1_555
B19 B20 1_555 1_555
C30 C31 1_555 1_555
C37 C38 1_555 1_555
C45 C46 1_555 1_555
C51 C52 1_555 1_555
C57 C58 1_555 1_555

#END
