
#######################################################################
#
#                 Cambridge Crystallographic Data Centre
#                                CCDC 
#
#######################################################################
#
# If this CIF has been generated from an entry in the Cambridge 
# Structural Database, then it will include bibliographic, chemical, 
# crystal, experimental, refinement or atomic coordinate data resulting 
# from the CCDC's data processing and validation procedures.
#
#######################################################################

data_TICNAW
_chemical_formula_moiety         'C22 H18 N2 O4 S1'
_chemical_name_systematic        
(3-(4-Methoxyphenyl)-3,4-dihydro-2H-1,4-benzothiazin-2-yl)(4-nitrophenyl)methanone
_symmetry_cell_setting           orthorhombic
_symmetry_space_group_name_H-M   'P b c a'
_symmetry_Int_Tables_number      61
_space_group_name_Hall           '-P 2ac 2ab'
loop_
_symmetry_equiv_pos_site_id
_symmetry_equiv_pos_as_xyz
1 x,y,z
2 1/2-x,-y,1/2+z
3 -x,1/2+y,1/2-z
4 1/2+x,1/2-y,-z
5 -x,-y,-z
6 1/2+x,y,1/2-z
7 x,1/2-y,1/2+z
8 1/2-x,1/2+y,z
_cell_length_a                   10.427(2)
_cell_length_b                   19.086(4)
_cell_length_c                   19.748(4)
_cell_angle_alpha                90
_cell_angle_beta                 90
_cell_angle_gamma                90
_cell_volume                     3930.04
_exptl_crystal_colour            colorless
_exptl_crystal_description       block
_cell_formula_units_Z            8
loop_
_atom_site_label
_atom_site_type_symbol
_atom_site_fract_x
_atom_site_fract_y
_atom_site_fract_z
S1 S 1.09085(5) 0.23122(2) 0.62425(3)
O1 O 0.51884(18) 0.41797(9) 0.75305(9)
O2 O 0.39718(14) 0.40608(8) 0.66644(9)
O3 O 0.85367(14) 0.19897(8) 0.51654(6)
O4 O 0.56947(13) -0.08351(8) 0.56899(8)
N1 N 1.08759(13) 0.06909(7) 0.63890(7)
H1 H 1.0701 0.0300 0.6585
N2 N 0.49489(16) 0.39311(8) 0.69801(9)
C1 C 1.20327(15) 0.10178(8) 0.65214(8)
C2 C 1.30927(16) 0.06271(10) 0.67269(9)
H2 H 1.3016 0.0144 0.6773
C3 C 1.42533(17) 0.09437(11) 0.68635(10)
H3 H 1.4947 0.0674 0.7005
C4 C 1.43877(18) 0.16604(12) 0.67911(10)
H4 H 1.5174 0.1873 0.6875
C5 C 1.33537(17) 0.20549(10) 0.65950(10)
H5 H 1.3444 0.2537 0.6548
C6 C 1.21702(15) 0.17437(9) 0.64652(8)
C7 C 0.95532(16) 0.17118(9) 0.62104(8)
H6 H 0.9205 0.1650 0.6667
C8 C 0.85683(16) 0.20832(9) 0.57707(8)
C9 C 0.76422(15) 0.25721(8) 0.61024(8)
C10 C 0.77783(16) 0.27847(9) 0.67704(8)
H7 H 0.8465 0.2621 0.7025
C11 C 0.69058(17) 0.32368(9) 0.70598(9)
H8 H 0.7001 0.3387 0.7505
C12 C 0.58937(15) 0.34582(8) 0.66716(9)
C13 C 0.57221(16) 0.32598(9) 0.60100(9)
H9 H 0.5023 0.3419 0.5762
C14 C 0.66147(16) 0.28175(9) 0.57232(8)
H10 H 0.6528 0.2683 0.5273
C15 C 0.99512(15) 0.09957(8) 0.59254(8)
H11 H 1.0356 0.1062 0.5482
C16 C 0.88111(15) 0.05117(9) 0.58506(8)
C17 C 0.81279(17) 0.02792(10) 0.64108(9)
H12 H 0.8372 0.0426 0.6841
C18 C 0.70928(17) -0.01650(10) 0.63405(9)
H13 H 0.6642 -0.0311 0.6722
C19 C 0.67243(16) -0.03928(9) 0.57087(9)
C20 C 0.73914(18) -0.01678(10) 0.51438(9)
H14 H 0.7150 -0.0318 0.4714
C21 C 0.84173(17) 0.02811(10) 0.52211(9)
H15 H 0.8857 0.0433 0.4838
C22 C 0.5316(2) -0.11129(13) 0.50514(13)
H16 H 0.5111 -0.0735 0.4749
H17 H 0.4575 -0.1406 0.5110
H18 H 0.6005 -0.1385 0.4865
loop_
_geom_bond_atom_site_label_1
_geom_bond_atom_site_label_2
_geom_bond_site_symmetry_1
_geom_bond_site_symmetry_2
S1 C6 1_555 1_555
O1 N2 1_555 1_555
O2 N2 1_555 1_555
O3 C8 1_555 1_555
O4 C19 1_555 1_555
N1 H1 1_555 1_555
N2 C12 1_555 1_555
C1 N1 1_555 1_555
C2 C1 1_555 1_555
H2 C2 1_555 1_555
C3 C2 1_555 1_555
H3 C3 1_555 1_555
C4 C3 1_555 1_555
H4 C4 1_555 1_555
C5 C4 1_555 1_555
H5 C5 1_555 1_555
C6 C1 1_555 1_555
C7 S1 1_555 1_555
H6 C7 1_555 1_555
C8 C7 1_555 1_555
C9 C8 1_555 1_555
C10 C9 1_555 1_555
H7 C10 1_555 1_555
C11 C10 1_555 1_555
H8 C11 1_555 1_555
C12 C11 1_555 1_555
C13 C12 1_555 1_555
H9 C13 1_555 1_555
C14 C9 1_555 1_555
H10 C14 1_555 1_555
C15 N1 1_555 1_555
H11 C15 1_555 1_555
C16 C15 1_555 1_555
C17 C16 1_555 1_555
H12 C17 1_555 1_555
C18 C17 1_555 1_555
H13 C18 1_555 1_555
C19 C18 1_555 1_555
C20 C19 1_555 1_555
H14 C20 1_555 1_555
C21 C16 1_555 1_555
H15 C21 1_555 1_555
C22 O4 1_555 1_555
H16 C22 1_555 1_555
H17 C22 1_555 1_555
H18 C22 1_555 1_555
C5 C6 1_555 1_555
C7 C15 1_555 1_555
C13 C14 1_555 1_555
C20 C21 1_555 1_555

#END
