
#######################################################################
#
#                 Cambridge Crystallographic Data Centre
#                                CCDC 
#
#######################################################################
#
# If this CIF has been generated from an entry in the Cambridge 
# Structural Database, then it will include bibliographic, chemical, 
# crystal, experimental, refinement or atomic coordinate data resulting 
# from the CCDC's data processing and validation procedures.
#
#######################################################################

data_TICNOJ
_chemical_formula_moiety         'C22 H35 Mg1 N2 P1'
_chemical_name_systematic        
(((t-Butylimido)di-isopropylphosphoranyl)(8-quinolinyl)methanide)-ethyl-magnesium
_symmetry_cell_setting           triclinic
_symmetry_space_group_name_H-M   'P -1'
_symmetry_Int_Tables_number      2
_space_group_name_Hall           '-P 1'
loop_
_symmetry_equiv_pos_site_id
_symmetry_equiv_pos_as_xyz
1 x,y,z
2 -x,-y,-z
_cell_length_a                   7.951(9)
_cell_length_b                   9.184(11)
_cell_length_c                   16.791(19)
_cell_angle_alpha                95.46(2)
_cell_angle_beta                 91.680(19)
_cell_angle_gamma                94.724(19)
_cell_volume                     1215.55
_exptl_crystal_colour            'dark red'
_chemical_melting_point          '98-100 deg.C'
_cell_formula_units_Z            2
_chemical_properties_physical    air-sensitive
loop_
_atom_site_label
_atom_site_type_symbol
_atom_site_fract_x
_atom_site_fract_y
_atom_site_fract_z
Mg1 Mg 0.47475(12) 0.40232(11) 0.26199(6)
P1 P 0.26794(10) 0.14339(9) 0.22517(4)
N1 N 0.3485(3) 0.4716(3) 0.37147(14)
N2 N 0.2696(3) 0.3021(3) 0.18867(14)
C1 C 0.4152(4) 0.1736(3) 0.31007(16)
H1 H 0.5088 0.1105 0.3071
C2 C 0.3570(3) 0.2118(3) 0.39402(17)
C3 C 0.3452(4) 0.1075(4) 0.45058(18)
H2 H 0.3769 0.0137 0.4361
C4 C 0.2862(5) 0.1409(4) 0.5292(2)
H3 H 0.2797 0.0687 0.5646
C5 C 0.2388(5) 0.2789(4) 0.5532(2)
H4 H 0.1957 0.2976 0.6037
C6 C 0.2555(4) 0.3938(4) 0.50106(18)
C7 C 0.2188(4) 0.5421(4) 0.5234(2)
H5 H 0.1779 0.5669 0.5738
C8 C 0.2432(5) 0.6482(4) 0.4713(2)
H6 H 0.2152 0.7435 0.4849
C9 C 0.3120(4) 0.6082(4) 0.3964(2)
H7 H 0.3333 0.6812 0.3624
C10 C 0.3184(3) 0.3603(3) 0.42208(17)
C11 C 0.0530(4) 0.0640(3) 0.24988(18)
H8 H -0.0144 0.0449 0.1996
C12 C -0.0383(4) 0.1756(4) 0.3062(2)
H9 H -0.1560 0.1429 0.3072
H10 H -0.0264 0.2706 0.2865
H11 H 0.0114 0.1818 0.3593
C13 C 0.0611(5) -0.0863(4) 0.2864(2)
H12 H 0.1306 -0.0721 0.3347
H13 H 0.1083 -0.1552 0.2486
H14 H -0.0508 -0.1237 0.2984
C14 C 0.3565(4) -0.0073(4) 0.15954(18)
H15 H 0.3701 -0.0882 0.1926
C15 C 0.5364(5) 0.0455(4) 0.1335(2)
H16 H 0.5851 -0.0347 0.1044
H17 H 0.6065 0.0797 0.1802
H18 H 0.5284 0.1239 0.1001
C16 C 0.2392(5) -0.0709(4) 0.0859(2)
H19 H 0.2251 0.0046 0.0510
H20 H 0.1310 -0.1053 0.1040
H21 H 0.2894 -0.1509 0.0573
C17 C 0.1749(4) 0.3631(4) 0.1218(2)
C18 C -0.0009(5) 0.2802(4) 0.0972(2)
H22 H 0.0139 0.1807 0.0772
H23 H -0.0544 0.3284 0.0562
H24 H -0.0704 0.2803 0.1430
C19 C 0.2877(6) 0.3634(5) 0.0469(2)
H25 H 0.3992 0.4063 0.0630
H26 H 0.2393 0.4196 0.0082
H27 H 0.2939 0.2644 0.0238
C20 C 0.1475(5) 0.5252(4) 0.1522(3)
H28 H 0.0836 0.5266 0.1998
H29 H 0.0870 0.5689 0.1116
H30 H 0.2551 0.5798 0.1638
C23 C 0.6729(11) 0.5565(10) 0.2297(5)
H36 H 0.7488 0.5755 0.2765
H37 H 0.7344 0.5028 0.1891
C24 C 0.6564(9) 0.6910(8) 0.2025(7)
H38 H 0.5712 0.6814 0.1602
H39 H 0.7621 0.7276 0.1827
H40 H 0.6244 0.7582 0.2457
C21? C 0.693(2) 0.5327(14) 0.2220(12)
H31? H 0.7381 0.5987 0.2675
H32? H 0.7781 0.4662 0.2079
C22? C 0.669(2) 0.625(3) 0.1516(13)
H33? H 0.6607 0.5621 0.1024
H34? H 0.7645 0.6962 0.1507
H35? H 0.5681 0.6745 0.1578
loop_
_geom_bond_atom_site_label_1
_geom_bond_atom_site_label_2
_geom_bond_site_symmetry_1
_geom_bond_site_symmetry_2
Mg1 N1 1_555 1_555
P1 N2 1_555 1_555
N1 C9 1_555 1_555
N2 Mg1 1_555 1_555
C1 Mg1 1_555 1_555
H1 C1 1_555 1_555
C2 C1 1_555 1_555
C3 C2 1_555 1_555
H2 C3 1_555 1_555
C4 C3 1_555 1_555
H3 C4 1_555 1_555
C5 C4 1_555 1_555
H4 C5 1_555 1_555
C6 C5 1_555 1_555
C7 C6 1_555 1_555
H5 C7 1_555 1_555
C8 C7 1_555 1_555
H6 C8 1_555 1_555
C9 C8 1_555 1_555
H7 C9 1_555 1_555
C10 N1 1_555 1_555
C11 P1 1_555 1_555
H8 C11 1_555 1_555
C12 C11 1_555 1_555
H9 C12 1_555 1_555
H10 C12 1_555 1_555
H11 C12 1_555 1_555
C13 C11 1_555 1_555
H12 C13 1_555 1_555
H13 C13 1_555 1_555
H14 C13 1_555 1_555
C14 P1 1_555 1_555
H15 C14 1_555 1_555
C15 C14 1_555 1_555
H16 C15 1_555 1_555
H17 C15 1_555 1_555
H18 C15 1_555 1_555
C16 C14 1_555 1_555
H19 C16 1_555 1_555
H20 C16 1_555 1_555
H21 C16 1_555 1_555
C17 N2 1_555 1_555
C18 C17 1_555 1_555
H22 C18 1_555 1_555
H23 C18 1_555 1_555
H24 C18 1_555 1_555
C19 C17 1_555 1_555
H25 C19 1_555 1_555
H26 C19 1_555 1_555
H27 C19 1_555 1_555
C20 C17 1_555 1_555
H28 C20 1_555 1_555
H29 C20 1_555 1_555
H30 C20 1_555 1_555
C23 Mg1 1_555 1_555
H36 C23 1_555 1_555
H37 C23 1_555 1_555
C24 C23 1_555 1_555
H38 C24 1_555 1_555
H39 C24 1_555 1_555
H40 C24 1_555 1_555
P1 C1 1_555 1_555
C2 C10 1_555 1_555
C6 C10 1_555 1_555

#END
