
#######################################################################
#
#                 Cambridge Crystallographic Data Centre
#                                CCDC 
#
#######################################################################
#
# If this CIF has been generated from an entry in the Cambridge 
# Structural Database, then it will include bibliographic, chemical, 
# crystal, experimental, refinement or atomic coordinate data resulting 
# from the CCDC's data processing and validation procedures.
#
#######################################################################

data_TICQUU
_chemical_formula_moiety         'C12 H9 F1 O1 S1'
_chemical_name_systematic        'S-(fluoromethyl) naphthalene-2-carbothioate'
_symmetry_cell_setting           orthorhombic
_symmetry_space_group_name_H-M   'P b c a'
_symmetry_Int_Tables_number      61
_space_group_name_Hall           '-P 2ac 2ab'
loop_
_symmetry_equiv_pos_site_id
_symmetry_equiv_pos_as_xyz
1 x,y,z
2 1/2-x,-y,1/2+z
3 -x,1/2+y,1/2-z
4 1/2+x,1/2-y,-z
5 -x,-y,-z
6 1/2+x,y,1/2-z
7 x,1/2-y,1/2+z
8 1/2-x,1/2+y,z
_cell_length_a                   14.863(3)
_cell_length_b                   5.9805(11)
_cell_length_c                   23.214(5)
_cell_angle_alpha                90
_cell_angle_beta                 90
_cell_angle_gamma                90
_cell_volume                     2063.45
_cell_formula_units_Z            8
loop_
_atom_site_label
_atom_site_type_symbol
_atom_site_fract_x
_atom_site_fract_y
_atom_site_fract_z
S1 S 0.66606(5) 1.15684(10) 0.51773(2)
F1 F 0.71227(10) 1.0789(3) 0.62445(6)
O1 O 0.58010(12) 0.7831(3) 0.54004(7)
C1 C 0.64563(17) 1.1768(5) 0.59291(10)
H1 H 0.6409 1.3332 0.6036
H2 H 0.5887 1.1053 0.6018
C2 C 0.61269(14) 0.8953(4) 0.50244(9)
C3 C 0.61074(13) 0.8326(3) 0.44059(9)
C4 C 0.57259(14) 0.6242(3) 0.42506(10)
H3 H 0.5521 0.5278 0.4536
C5 C 0.56563(14) 0.5638(4) 0.36896(9)
H4 H 0.5405 0.4261 0.3597
C6 C 0.59578(13) 0.7057(3) 0.32408(9)
C7 C 0.58973(14) 0.6478(4) 0.26507(9)
H5 H 0.5638 0.5124 0.2545
C8 C 0.62173(15) 0.7891(4) 0.22362(10)
H6 H 0.6178 0.7485 0.1850
C9 C 0.66024(15) 0.9935(4) 0.23863(9)
H7 H 0.6818 1.0882 0.2100
C10 C 0.66644(14) 1.0556(4) 0.29502(9)
H8 H 0.6918 1.1930 0.3045
C11 C 0.63483(13) 0.9134(3) 0.33921(9)
C12 C 0.64123(13) 0.9717(4) 0.39793(9)
H9 H 0.6668 1.1081 0.4080
loop_
_geom_bond_atom_site_label_1
_geom_bond_atom_site_label_2
_geom_bond_site_symmetry_1
_geom_bond_site_symmetry_2
S1 C1 1_555 1_555
F1 C1 1_555 1_555
O1 C2 1_555 1_555
C1 H1 1_555 1_555
H2 C1 1_555 1_555
C2 S1 1_555 1_555
C3 C2 1_555 1_555
C4 C3 1_555 1_555
H3 C4 1_555 1_555
C5 C4 1_555 1_555
H4 C5 1_555 1_555
C6 C5 1_555 1_555
C7 C6 1_555 1_555
H5 C7 1_555 1_555
C8 C7 1_555 1_555
H6 C8 1_555 1_555
C9 C8 1_555 1_555
H7 C9 1_555 1_555
C10 C9 1_555 1_555
H8 C10 1_555 1_555
C11 C6 1_555 1_555
C12 C3 1_555 1_555
H9 C12 1_555 1_555
C10 C11 1_555 1_555
C11 C12 1_555 1_555

#END
