
#######################################################################
#
#                 Cambridge Crystallographic Data Centre
#                                CCDC 
#
#######################################################################
#
# If this CIF has been generated from an entry in the Cambridge 
# Structural Database, then it will include bibliographic, chemical, 
# crystal, experimental, refinement or atomic coordinate data resulting 
# from the CCDC's data processing and validation procedures.
#
#######################################################################

data_TIDDAO
_chemical_formula_moiety         'C42 H38 N2'
_chemical_name_systematic        
7-(3,3-dimethyl-3H-indol-2-yl)-13,13-dimethyl-6,8-diphenyl-6,7,8,8a-tetrahydro-13H-benzo[3',4']cyclobuta[1',2':2,3]pyrido[1,2-a]indole
_symmetry_cell_setting           monoclinic
_symmetry_space_group_name_H-M   'P 21/n'
_symmetry_Int_Tables_number      14
_space_group_name_Hall           '-P 2yn'
loop_
_symmetry_equiv_pos_site_id
_symmetry_equiv_pos_as_xyz
1 x,y,z
2 1/2-x,1/2+y,1/2-z
3 -x,-y,-z
4 1/2+x,1/2-y,1/2+z
_cell_length_a                   13.0387(10)
_cell_length_b                   11.8758(8)
_cell_length_c                   21.3053(16)
_cell_angle_alpha                90
_cell_angle_beta                 93.760(6)
_cell_angle_gamma                90
_cell_volume                     3291.92
_exptl_crystal_colour            colorless
_exptl_crystal_description       block
_cell_formula_units_Z            4
loop_
_atom_site_label
_atom_site_type_symbol
_atom_site_fract_x
_atom_site_fract_y
_atom_site_fract_z
N1 N 0.83696(16) 0.24339(19) 0.15717(11)
C1 C 0.65600(18) 0.2765(2) 0.17926(12)
H1 H 0.6669 0.3574 0.1858
C2 C 0.62320(19) 0.2548(2) 0.10901(13)
H2 H 0.6119 0.1735 0.1047
N2 N 0.54465(17) 0.1325(2) 0.21727(11)
C3 C 0.9433(2) 0.2304(2) 0.16873(15)
C4 C 0.7571(2) 0.2126(2) 0.19863(13)
H3 H 0.7445 0.1314 0.1953
C5 C 0.5232(2) 0.3107(3) 0.08748(13)
C6 C 0.5717(2) 0.2367(2) 0.21966(13)
C7 C 1.0005(2) 0.1828(3) 0.21847(17)
H4 H 0.9691 0.1528 0.2527
C8 C 0.4424(2) 0.2193(3) 0.28823(14)
C9 C 0.7914(2) 0.2410(2) 0.26617(13)
C10 C 0.5101(2) 0.3088(2) 0.26372(13)
C11 C 0.8180(2) 0.2539(2) 0.08921(14)
C12 C 0.8343(2) 0.3449(3) 0.28177(15)
H5 H 0.8423 0.3975 0.2501
C13 C 0.4370(2) 0.2461(3) 0.07116(14)
H6 H 0.4413 0.1680 0.0731
C14 C 0.4640(2) 0.1190(3) 0.25872(15)
C15 C 0.7068(2) 0.2857(3) 0.06342(13)
H7 H 0.7002 0.3615 0.0454
C16 C 1.0961(2) 0.2739(3) 0.11618(17)
H8 H 1.1277 0.3047 0.0823
C17 C 0.9909(2) 0.2765(2) 0.11804(15)
C18 C 0.8070(3) 0.1513(3) 0.04527(16)
C19 C 0.4441(2) 0.3972(3) 0.22720(15)
H9 H 0.4027 0.3610 0.1942
H10 H 0.4880 0.4518 0.2093
H11 H 0.4003 0.4342 0.2553
C20 C 0.5762(3) 0.3681(3) 0.31620(16)
H12 H 0.6179 0.3135 0.3392
H13 H 0.5322 0.4051 0.3442
H14 H 0.6196 0.4228 0.2980
C21 C 0.7170(2) 0.1927(3) 0.01543(15)
C22 C 0.9103(2) 0.3302(3) 0.07216(13)
C23 C 0.8929(2) 0.4531(3) 0.09280(16)
H15 H 0.9503 0.4985 0.0824
H16 H 0.8864 0.4555 0.1374
H17 H 0.8312 0.4817 0.0714
C24 C 1.1069(3) 0.1811(3) 0.2157(2)
H18 H 1.1469 0.1495 0.2489
C25 C 0.7794(2) 0.1645(3) 0.31464(16)
H19 H 0.7505 0.0943 0.3055
C26 C 0.9370(2) 0.3283(3) 0.00378(16)
H20 H 0.9943 0.3774 -0.0016
H21 H 0.8789 0.3533 -0.0225
H22 H 0.9548 0.2530 -0.0077
C27 C 0.3451(3) 0.2968(5) 0.05210(17)
H23 H 0.2879 0.2527 0.0409
C28 C 0.4105(2) 0.0216(3) 0.27015(17)
H24 H 0.4257 -0.0461 0.2508
C29 C 0.4209(3) 0.4767(4) 0.06432(17)
H25 H 0.4157 0.5547 0.0621
C30 C 1.1545(3) 0.2246(3) 0.1656(2)
H26 H 1.2256 0.2211 0.1647
C31 C 0.3657(3) 0.2244(4) 0.32969(16)
H27 H 0.3508 0.2917 0.3495
C32 C 0.3375(3) 0.4117(5) 0.04956(18)
H28 H 0.2747 0.4453 0.0376
C33 C 0.8656(3) 0.3723(3) 0.34282(17)
H29 H 0.8951 0.4422 0.3520
C34 C 0.3326(3) 0.0290(4) 0.3120(2)
H30 H 0.2942 -0.0347 0.3202
C35 C 0.5141(3) 0.4269(3) 0.08277(16)
H31 H 0.5714 0.4719 0.0921
C36 C 0.3117(3) 0.1279(5) 0.34117(19)
H32 H 0.2601 0.1301 0.3693
C37 C 0.8544(3) 0.0560(3) 0.0248(2)
H33 H 0.9138 0.0270 0.0453
C38 C 0.6713(3) 0.1442(4) -0.03811(19)
H34 H 0.6123 0.1740 -0.0588
C39 C 0.8097(3) 0.1915(3) 0.37602(17)
H35 H 0.8010 0.1397 0.4080
C40 C 0.8530(3) 0.2957(4) 0.39019(17)
H36 H 0.8735 0.3139 0.4316
C41 C 0.7187(4) 0.0481(5) -0.0592(2)
H37 H 0.6901 0.0114 -0.0947
C42 C 0.8075(4) 0.0055(4) -0.0289(3)
H38 H 0.8368 -0.0590 -0.0449
loop_
_geom_bond_atom_site_label_1
_geom_bond_atom_site_label_2
_geom_bond_site_symmetry_1
_geom_bond_site_symmetry_2
N1 C3 1_555 1_555
C1 H1 1_555 1_555
C2 C1 1_555 1_555
H2 C2 1_555 1_555
N2 C6 1_555 1_555
C3 C7 1_555 1_555
C4 N1 1_555 1_555
H3 C4 1_555 1_555
C5 C2 1_555 1_555
C6 C1 1_555 1_555
C7 H4 1_555 1_555
C8 C10 1_555 1_555
C9 C4 1_555 1_555
C10 C6 1_555 1_555
C11 N1 1_555 1_555
C12 C9 1_555 1_555
H5 C12 1_555 1_555
C13 C5 1_555 1_555
H6 C13 1_555 1_555
C14 N2 1_555 1_555
C15 C2 1_555 1_555
H7 C15 1_555 1_555
C16 H8 1_555 1_555
C17 C3 1_555 1_555
C18 C11 1_555 1_555
C19 C10 1_555 1_555
H9 C19 1_555 1_555
H10 C19 1_555 1_555
H11 C19 1_555 1_555
C20 C10 1_555 1_555
H12 C20 1_555 1_555
H13 C20 1_555 1_555
H14 C20 1_555 1_555
C21 C15 1_555 1_555
C22 C11 1_555 1_555
C23 C22 1_555 1_555
H15 C23 1_555 1_555
H16 C23 1_555 1_555
H17 C23 1_555 1_555
C24 C7 1_555 1_555
H18 C24 1_555 1_555
C25 C9 1_555 1_555
H19 C25 1_555 1_555
C26 C22 1_555 1_555
H20 C26 1_555 1_555
H21 C26 1_555 1_555
H22 C26 1_555 1_555
C27 C13 1_555 1_555
H23 C27 1_555 1_555
C28 C14 1_555 1_555
H24 C28 1_555 1_555
C29 H25 1_555 1_555
C30 C16 1_555 1_555
H26 C30 1_555 1_555
C31 C8 1_555 1_555
H27 C31 1_555 1_555
C32 C27 1_555 1_555
H28 C32 1_555 1_555
C33 C12 1_555 1_555
H29 C33 1_555 1_555
C34 C28 1_555 1_555
H30 C34 1_555 1_555
C35 C5 1_555 1_555
H31 C35 1_555 1_555
C36 C31 1_555 1_555
H32 C36 1_555 1_555
C37 C18 1_555 1_555
H33 C37 1_555 1_555
C38 C21 1_555 1_555
H34 C38 1_555 1_555
C39 C25 1_555 1_555
H35 C39 1_555 1_555
C40 C33 1_555 1_555
H36 C40 1_555 1_555
C41 C38 1_555 1_555
H37 C41 1_555 1_555
C42 C37 1_555 1_555
H38 C42 1_555 1_555
C1 C4 1_555 1_555
C8 C14 1_555 1_555
C11 C15 1_555 1_555
C16 C17 1_555 1_555
C17 C22 1_555 1_555
C18 C21 1_555 1_555
C24 C30 1_555 1_555
C29 C32 1_555 1_555
C29 C35 1_555 1_555
C34 C36 1_555 1_555
C39 C40 1_555 1_555
C41 C42 1_555 1_555

#END
