
#######################################################################
#
#                 Cambridge Crystallographic Data Centre
#                                CCDC 
#
#######################################################################
#
# If this CIF has been generated from an entry in the Cambridge 
# Structural Database, then it will include bibliographic, chemical, 
# crystal, experimental, refinement or atomic coordinate data resulting 
# from the CCDC's data processing and validation procedures.
#
#######################################################################

data_TIDGOF
_chemical_formula_moiety         'C42 H40 N2'
_chemical_name_systematic        
7-(3,3-dimethyl-2,3-dihydro-1H-indol-2-yl)-13,13-dimethyl-6,8-diphenyl-6,7,8,8a-tetrahydro-13H-benzo[3',4']cyclobuta[1',2':2,3]pyrido[1,2-a]indole
_symmetry_cell_setting           triclinic
_symmetry_space_group_name_H-M   'P -1'
_symmetry_Int_Tables_number      2
_space_group_name_Hall           '-P 1'
loop_
_symmetry_equiv_pos_site_id
_symmetry_equiv_pos_as_xyz
1 x,y,z
2 -x,-y,-z
_cell_length_a                   10.5709(5)
_cell_length_b                   12.2106(6)
_cell_length_c                   13.4400(6)
_cell_angle_alpha                107.160(2)
_cell_angle_beta                 103.112(2)
_cell_angle_gamma                90.668(3)
_cell_volume                     1608.59
_exptl_crystal_colour            colorless
_exptl_crystal_description       block
_cell_formula_units_Z            2
loop_
_atom_site_label
_atom_site_type_symbol
_atom_site_fract_x
_atom_site_fract_y
_atom_site_fract_z
N1 N 0.56540(13) 0.68410(11) 0.25563(10)
C1 C 0.50346(16) 0.68613(13) 0.14747(12)
H1 H 0.4475 0.6142 0.1125
N2 N 0.30735(15) 0.69421(12) -0.04540(11)
H2 H 0.3779 0.6656 -0.0586
C2 C 0.38552(16) 0.84130(14) 0.26300(13)
H3 H 0.3418 0.9107 0.2589
C3 C 0.41124(16) 0.78609(13) 0.15024(12)
H4 H 0.4576 0.8465 0.1344
C4 C 0.61863(16) 0.79019(13) 0.34168(12)
C5 C 0.28420(17) 0.74928(13) 0.06178(13)
H5 H 0.2332 0.6929 0.0790
C6 C 0.51524(17) 0.88410(13) 0.34703(13)
H6 H 0.5032 0.9182 0.4197
C7 C 0.61317(18) 0.95599(14) 0.32006(13)
C8 C 0.56970(17) 0.58920(14) 0.29209(13)
C9 C 0.60875(17) 0.68212(13) 0.08397(13)
C10 C 0.70304(17) 0.87558(14) 0.31367(13)
C11 C 0.12124(17) 0.78332(15) -0.07564(14)
C12 C 0.19311(17) 0.84419(14) 0.04055(14)
C13 C 0.19385(18) 0.69702(14) -0.12128(13)
C14 C 0.63286(18) 0.62068(15) 0.40078(14)
C15 C 0.52175(19) 0.47603(14) 0.23568(15)
H7 H 0.4797 0.4549 0.1632
C16 C 0.29728(16) 0.77362(15) 0.30397(13)
C17 C 0.26912(18) 0.65492(16) 0.26748(15)
H8 H 0.3044 0.6109 0.2127
C18 C 0.61498(19) 0.74664(15) 0.01528(14)
H9 H 0.5531 0.7986 0.0062
C19 C 0.67700(18) 0.74821(15) 0.44196(13)
C20 C 0.70525(19) 0.60676(15) 0.09546(16)
H10 H 0.7045 0.5638 0.1421
C21 C 0.6312(2) 1.05924(16) 0.29851(15)
H11 H 0.5695 1.1131 0.3020
C22 C 0.8191(2) 0.89212(17) 0.28605(15)
H12 H 0.8801 0.8377 0.2816
C23 C 0.00643(19) 0.80476(18) -0.13698(16)
H13 H -0.0421 0.8630 -0.1069
C24 C 0.24138(19) 0.83479(18) 0.38598(16)
H14 H 0.2576 0.9144 0.4121
C25 C 0.1523(2) 0.63034(16) -0.22824(14)
H15 H 0.2009 0.5725 -0.2587
C26 C 0.6248(2) 0.80755(18) 0.54008(15)
H16 H 0.6636 0.7790 0.5983
H17 H 0.5318 0.7918 0.5226
H18 H 0.6461 0.8891 0.5609
C27 C 0.0986(2) 0.87459(19) 0.11390(16)
H19 H 0.0467 0.9336 0.0971
H20 H 0.1472 0.9017 0.1874
H21 H 0.0428 0.8075 0.1032
C28 C 0.2703(2) 0.95301(15) 0.04274(17)
H22 H 0.2110 1.0090 0.0299
H23 H 0.3181 0.9336 -0.0120
H24 H 0.3299 0.9843 0.1117
C29 C 0.7133(2) 0.73407(17) -0.03999(16)
H25 H 0.7165 0.7785 -0.0851
C30 C 0.8054(2) 0.65756(18) -0.02922(17)
H26 H 0.8694 0.6487 -0.0678
C31 C 0.6494(2) 0.53869(18) 0.45351(17)
H27 H 0.6920 0.5594 0.5258
C32 C 0.0358(2) 0.65311(19) -0.28788(16)
H28 H 0.0058 0.6092 -0.3594
C33 C 0.5389(2) 0.39500(17) 0.29158(18)
H29 H 0.5068 0.3189 0.2556
C34 C -0.0362(2) 0.7391(2) -0.24360(17)
H30 H -0.1136 0.7533 -0.2853
C35 C 0.8019(2) 0.59383(18) 0.03975(18)
H31 H 0.8644 0.5423 0.0487
C36 C 0.1626(2) 0.7808(2) 0.42976(18)
H32 H 0.1271 0.8239 0.4848
C37 C 0.8382(2) 0.99503(19) 0.26555(17)
H33 H 0.9148 1.0102 0.2472
C38 C 0.1901(2) 0.60116(19) 0.31076(19)
H34 H 0.1727 0.5217 0.2846
C39 C 0.6023(2) 0.42512(19) 0.39854(19)
H35 H 0.6136 0.3696 0.4338
C40 C 0.7475(2) 1.07612(19) 0.27138(17)
H36 H 0.7650 1.1438 0.2567
C41 C 0.8263(2) 0.7646(2) 0.47092(19)
H37 H 0.8603 0.7386 0.5318
H38 H 0.8538 0.8446 0.4880
H39 H 0.8583 0.7208 0.4111
C42 C 0.1367(2) 0.6632(2) 0.39175(19)
H40 H 0.0837 0.6263 0.4207
loop_
_geom_bond_atom_site_label_1
_geom_bond_atom_site_label_2
_geom_bond_site_symmetry_1
_geom_bond_site_symmetry_2
N1 C1 1_555 1_555
C1 H1 1_555 1_555
N2 H2 1_555 1_555
C2 H3 1_555 1_555
C3 C1 1_555 1_555
H4 C3 1_555 1_555
C4 N1 1_555 1_555
C5 N2 1_555 1_555
H5 C5 1_555 1_555
C6 C2 1_555 1_555
H6 C6 1_555 1_555
C7 C6 1_555 1_555
C8 N1 1_555 1_555
C9 C1 1_555 1_555
C10 C4 1_555 1_555
C11 C12 1_555 1_555
C12 C5 1_555 1_555
C13 N2 1_555 1_555
C14 C8 1_555 1_555
C15 C8 1_555 1_555
H7 C15 1_555 1_555
C16 C2 1_555 1_555
C17 C16 1_555 1_555
H8 C17 1_555 1_555
C18 C9 1_555 1_555
H9 C18 1_555 1_555
C19 C4 1_555 1_555
C20 C9 1_555 1_555
H10 C20 1_555 1_555
C21 C7 1_555 1_555
H11 C21 1_555 1_555
C22 C10 1_555 1_555
H12 C22 1_555 1_555
C23 C11 1_555 1_555
H13 C23 1_555 1_555
C24 C16 1_555 1_555
H14 C24 1_555 1_555
C25 C13 1_555 1_555
H15 C25 1_555 1_555
C26 C19 1_555 1_555
H16 C26 1_555 1_555
H17 C26 1_555 1_555
H18 C26 1_555 1_555
C27 C12 1_555 1_555
H19 C27 1_555 1_555
H20 C27 1_555 1_555
H21 C27 1_555 1_555
C28 C12 1_555 1_555
H22 C28 1_555 1_555
H23 C28 1_555 1_555
H24 C28 1_555 1_555
C29 C18 1_555 1_555
H25 C29 1_555 1_555
C30 C29 1_555 1_555
H26 C30 1_555 1_555
C31 C14 1_555 1_555
H27 C31 1_555 1_555
C32 C25 1_555 1_555
H28 C32 1_555 1_555
C33 C15 1_555 1_555
H29 C33 1_555 1_555
C34 C23 1_555 1_555
H30 C34 1_555 1_555
C35 C20 1_555 1_555
H31 C35 1_555 1_555
C36 C24 1_555 1_555
H32 C36 1_555 1_555
C37 C22 1_555 1_555
H33 C37 1_555 1_555
C38 C17 1_555 1_555
H34 C38 1_555 1_555
C39 C31 1_555 1_555
H35 C39 1_555 1_555
C40 C21 1_555 1_555
H36 C40 1_555 1_555
C41 C19 1_555 1_555
H37 C41 1_555 1_555
H38 C41 1_555 1_555
H39 C41 1_555 1_555
C42 C36 1_555 1_555
H40 C42 1_555 1_555
C2 C3 1_555 1_555
C3 C5 1_555 1_555
C4 C6 1_555 1_555
C7 C10 1_555 1_555
C11 C13 1_555 1_555
C14 C19 1_555 1_555
C30 C35 1_555 1_555
C32 C34 1_555 1_555
C33 C39 1_555 1_555
C37 C40 1_555 1_555
C38 C42 1_555 1_555

#END
