
#######################################################################
#
#                 Cambridge Crystallographic Data Centre
#                                CCDC 
#
#######################################################################
#
# If this CIF has been generated from an entry in the Cambridge 
# Structural Database, then it will include bibliographic, chemical, 
# crystal, experimental, refinement or atomic coordinate data resulting 
# from the CCDC's data processing and validation procedures.
#
#######################################################################

data_TIDHUM
_chemical_formula_moiety         'C20 H24 N2 O4 S1'
_chemical_name_systematic        
N'-(10-methoxy-11-oxotricyclo[6.3.1.0^1,6^]dodec-9-en-12-ylidene)-4-methylbenzenesulfonohydrazide
_symmetry_cell_setting           monoclinic
_symmetry_space_group_name_H-M   'P 21/c'
_symmetry_Int_Tables_number      14
_space_group_name_Hall           '-P 2ybc'
loop_
_symmetry_equiv_pos_site_id
_symmetry_equiv_pos_as_xyz
1 x,y,z
2 -x,1/2+y,1/2-z
3 -x,-y,-z
4 x,1/2-y,1/2+z
_cell_length_a                   12.974(2)
_cell_length_b                   32.04(5)
_cell_length_c                   9.2826(15)
_cell_angle_alpha                90
_cell_angle_beta                 90.174(2)
_cell_angle_gamma                90
_cell_volume                     3858.64
_exptl_crystal_colour            colorless
_exptl_crystal_description       Prism
_cell_formula_units_Z            8
loop_
_atom_site_label
_atom_site_type_symbol
_atom_site_fract_x
_atom_site_fract_y
_atom_site_fract_z
S1 S 0.32816(4) 0.179665(18) 0.33519(6)
N1 N 0.24377(14) 0.15896(6) 0.0979(2)
N2 N 0.31069(15) 0.18859(6) 0.1618(2)
O1 O -0.00978(12) 0.14667(6) -0.1792(2)
O2 O 0.02935(13) 0.22075(5) -0.2896(2)
O3 O 0.22862(12) 0.17339(5) 0.39678(17)
O4 O 0.39164(13) 0.21328(5) 0.38479(18)
C1 C 0.16859(17) 0.13061(7) -0.1226(2)
C2 C 0.1294(2) 0.09230(7) -0.0425(3)
H1 H 0.0693 0.1002 0.0172
H2 H 0.1841 0.0817 0.0225
C3 C 0.0980(2) 0.05792(8) -0.1476(3)
H3 H 0.0420 0.0684 -0.2107
H4 H 0.0708 0.0338 -0.0927
C4 C 0.1879(3) 0.04338(9) -0.2408(4)
H5 H 0.1627 0.0383 -0.3400
H6 H 0.2143 0.0166 -0.2025
C5 C 0.2765(2) 0.07492(9) -0.2460(3)
H7 H 0.3188 0.0722 -0.1575
H8 H 0.3212 0.0685 -0.3294
C6 C 0.23760(19) 0.11941(8) -0.2584(3)
H9 H 0.1956 0.1224 -0.3483
C7 C 0.32555(18) 0.15201(8) -0.2591(3)
H10 H 0.3913 0.1392 -0.2274
H11 H 0.3349 0.1638 -0.3568
C8 C 0.29115(17) 0.18621(7) -0.1525(2)
H12 H 0.3501 0.2028 -0.1132
C9 C 0.20832(18) 0.21318(7) -0.2198(2)
H13 H 0.2258 0.2401 -0.2546
C10 C 0.11061(17) 0.19975(7) -0.2313(2)
C11 C 0.07986(17) 0.15815(7) -0.1765(2)
C12 C 0.0513(2) 0.26116(8) -0.3467(4)
H14 H 0.0839 0.2784 -0.2720
H15 H -0.0130 0.2744 -0.3783
H16 H 0.0980 0.2585 -0.4289
C13 C 0.23875(16) 0.15986(7) -0.0391(2)
C14 C 0.39876(18) 0.13297(8) 0.3480(3)
C15 C 0.3544(2) 0.09572(9) 0.3066(4)
H17 H 0.2841 0.0949 0.2782
C16 C 0.4123(3) 0.05963(10) 0.3065(4)
H18 H 0.3818 0.0342 0.2757
C17 C 0.5146(2) 0.05996(10) 0.3508(4)
C18 C 0.5559(2) 0.09736(12) 0.3902(5)
H19 H 0.6261 0.0982 0.4197
C19 C 0.5003(2) 0.13410(10) 0.3890(4)
H20 H 0.5318 0.1597 0.4161
C20 C 0.5791(3) 0.02102(13) 0.3465(5)
H21 H 0.5363 -0.0026 0.3160
H22 H 0.6074 0.0155 0.4427
H23 H 0.6357 0.0248 0.2781
H24 H 0.371(2) 0.1918(8) 0.120(3)
S2 S 0.82547(4) 0.185396(18) 0.48202(6)
N3 N 0.74249(14) 0.15878(6) 0.7121(2)
N4 N 0.80979(15) 0.18972(6) 0.6578(2)
O5 O 0.49033(13) 0.13987(6) 1.00878(19)
O6 O 0.52622(13) 0.21634(5) 1.0985(2)
O7 O 0.72491(13) 0.18011(6) 0.42082(19)
O8 O 0.88734(14) 0.22052(5) 0.44230(19)
C21 C 0.66310(18) 0.12613(7) 0.9212(2)
C22 C 0.6123(2) 0.09325(8) 0.8252(3)
H28 H 0.5528 0.0812 0.8771
H29 H 0.5855 0.1071 0.7374
C23 C 0.6840(3) 0.05810(9) 0.7808(3)
H30 H 0.6448 0.0368 0.7261
H31 H 0.7386 0.0693 0.7172
C24 C 0.7329(3) 0.03807(9) 0.9116(4)
H32 H 0.7770 0.0144 0.8817
H33 H 0.6788 0.0273 0.9766
C25 C 0.7980(2) 0.07080(9) 0.9901(4)
H34 H 0.8529 0.0806 0.9245
H35 H 0.8318 0.0575 1.0741
C26 C 0.7360(2) 0.10859(8) 1.0423(3)
H36 H 0.6945 0.1008 1.1288
C27 C 0.8105(2) 0.14508(9) 1.0804(3)
H37 H 0.7984 0.1549 1.1800
H38 H 0.8832 0.1360 1.0722
C28 C 0.78672(17) 0.18009(7) 0.9707(2)
H39 H 0.8498 0.1956 0.9396
C29 C 0.70463(18) 0.20845(7) 1.0317(2)
H40 H 0.7223 0.2358 1.0627
C30 C 0.60730(17) 0.19523(7) 1.0421(2)
C31 C 0.57813(17) 0.15282(7) 0.9927(2)
C32 C 0.5490(2) 0.25663(8) 1.1572(3)
H41 H 0.5997 0.2538 1.2350
H42 H 0.4857 0.2691 1.1954
H43 H 0.5770 0.2746 1.0815
C33 C 0.73552(16) 0.15657(7) 0.8484(2)
C34 C 0.89699(17) 0.13973(7) 0.4478(2)
C35 C 0.8486(2) 0.10120(9) 0.4498(3)
H44 H 0.7783 0.0991 0.4772
C36 C 0.9029(2) 0.06585(9) 0.4117(4)
H45 H 0.8691 0.0395 0.4120
C37 C 1.0058(2) 0.06803(8) 0.3732(3)
C38 C 1.0529(2) 0.10657(10) 0.3778(4)
H46 H 1.1240 0.1086 0.3544
C39 C 0.9999(2) 0.14237(9) 0.4155(4)
H47 H 1.0344 0.1685 0.4190
C40 C 1.0643(3) 0.02983(10) 0.3243(4)
H48 H 1.0189 0.0054 0.3279
H49 H 1.1237 0.0253 0.3879
H50 H 1.0883 0.0340 0.2253
H51 H 0.875(3) 0.1933(11) 0.704(4)
H25? H 0.6500 0.0277 0.3752
H26? H 0.5789 0.0096 0.2485
H27? H 0.5505 0.0003 0.4131
H52? H 1.1351 0.0377 0.2995
H53? H 1.0303 0.0178 0.2395
H54? H 1.0656 0.0092 0.4021
loop_
_geom_bond_atom_site_label_1
_geom_bond_atom_site_label_2
_geom_bond_site_symmetry_1
_geom_bond_site_symmetry_2
S1 N2 1_555 1_555
N1 N2 1_555 1_555
N2 H24 1_555 1_555
O1 C11 1_555 1_555
O2 C10 1_555 1_555
O3 S1 1_555 1_555
O4 S1 1_555 1_555
C1 C2 1_555 1_555
C2 H1 1_555 1_555
H2 C2 1_555 1_555
C3 C2 1_555 1_555
H3 C3 1_555 1_555
H4 C3 1_555 1_555
C4 C3 1_555 1_555
H5 C4 1_555 1_555
H6 C4 1_555 1_555
C5 C4 1_555 1_555
H7 C5 1_555 1_555
H8 C5 1_555 1_555
C6 C1 1_555 1_555
H9 C6 1_555 1_555
C7 C6 1_555 1_555
H10 C7 1_555 1_555
H11 C7 1_555 1_555
C8 C7 1_555 1_555
H12 C8 1_555 1_555
C9 C8 1_555 1_555
H13 C9 1_555 1_555
C10 C9 1_555 1_555
C11 C1 1_555 1_555
C12 O2 1_555 1_555
H14 C12 1_555 1_555
H15 C12 1_555 1_555
H16 C12 1_555 1_555
C13 N1 1_555 1_555
C14 S1 1_555 1_555
C15 C14 1_555 1_555
H17 C15 1_555 1_555
C16 C15 1_555 1_555
H18 C16 1_555 1_555
C17 C16 1_555 1_555
C18 C17 1_555 1_555
H19 C18 1_555 1_555
C19 C14 1_555 1_555
H20 C19 1_555 1_555
C20 C17 1_555 1_555
H21 C20 1_555 1_555
H22 C20 1_555 1_555
H23 C20 1_555 1_555
S2 N4 1_555 1_555
N3 N4 1_555 1_555
N4 H51 1_555 1_555
O5 C31 1_555 1_555
O6 C30 1_555 1_555
O7 S2 1_555 1_555
O8 S2 1_555 1_555
C21 C22 1_555 1_555
C22 H28 1_555 1_555
H29 C22 1_555 1_555
C23 C22 1_555 1_555
H30 C23 1_555 1_555
H31 C23 1_555 1_555
C24 C23 1_555 1_555
H32 C24 1_555 1_555
H33 C24 1_555 1_555
C25 C24 1_555 1_555
H34 C25 1_555 1_555
H35 C25 1_555 1_555
C26 C21 1_555 1_555
H36 C26 1_555 1_555
C27 C26 1_555 1_555
H37 C27 1_555 1_555
H38 C27 1_555 1_555
C28 C27 1_555 1_555
H39 C28 1_555 1_555
C29 C28 1_555 1_555
H40 C29 1_555 1_555
C30 C29 1_555 1_555
C31 C21 1_555 1_555
C32 O6 1_555 1_555
H41 C32 1_555 1_555
H42 C32 1_555 1_555
H43 C32 1_555 1_555
C33 N3 1_555 1_555
C34 S2 1_555 1_555
C35 C34 1_555 1_555
H44 C35 1_555 1_555
C36 C35 1_555 1_555
H45 C36 1_555 1_555
C37 C36 1_555 1_555
C38 C37 1_555 1_555
H46 C38 1_555 1_555
C39 C34 1_555 1_555
H47 C39 1_555 1_555
C40 C37 1_555 1_555
H48 C40 1_555 1_555
H49 C40 1_555 1_555
H50 C40 1_555 1_555
C1 C13 1_555 1_555
C5 C6 1_555 1_555
C8 C13 1_555 1_555
C10 C11 1_555 1_555
C18 C19 1_555 1_555
C21 C33 1_555 1_555
C25 C26 1_555 1_555
C28 C33 1_555 1_555
C30 C31 1_555 1_555
C38 C39 1_555 1_555

#END
