
#######################################################################
#
#                 Cambridge Crystallographic Data Centre
#                                CCDC 
#
#######################################################################
#
# If this CIF has been generated from an entry in the Cambridge 
# Structural Database, then it will include bibliographic, chemical, 
# crystal, experimental, refinement or atomic coordinate data resulting 
# from the CCDC's data processing and validation procedures.
#
#######################################################################

data_TIDKEZ
_chemical_formula_moiety         'C14 H18 O3'
_chemical_name_systematic        
10-methoxy-2-methyltricyclo[6.3.1.0^1,6^]dodec-9-ene-11,12-dione
_symmetry_cell_setting           triclinic
_symmetry_space_group_name_H-M   'P -1'
_symmetry_Int_Tables_number      2
_space_group_name_Hall           '-P 1'
loop_
_symmetry_equiv_pos_site_id
_symmetry_equiv_pos_as_xyz
1 x,y,z
2 -x,-y,-z
_cell_length_a                   7.8091(6)
_cell_length_b                   8.3928(5)
_cell_length_c                   10.1583(7)
_cell_angle_alpha                89.245(6)
_cell_angle_beta                 68.680(7)
_cell_angle_gamma                84.577(6)
_cell_volume                     617.277
_exptl_crystal_colour            colorless
_exptl_crystal_description       block
_cell_formula_units_Z            2
loop_
_atom_site_label
_atom_site_type_symbol
_atom_site_fract_x
_atom_site_fract_y
_atom_site_fract_z
O1 O 0.20466(15) 0.51969(15) 0.89409(12)
O2 O 0.6904(2) 0.21042(15) 0.51198(12)
O3 O 0.3818(2) 0.28053(19) 0.97792(14)
C1 C 0.6725(2) 0.29532(18) 0.61113(15)
C2 C 0.6467(2) 0.24719(17) 0.76211(14)
C3 C 0.3804(2) 0.47287(18) 0.80796(15)
C4 C 0.6581(2) 0.06781(18) 0.79453(18)
H1 H 0.6290 0.0608 0.8966
C5 C 0.6777(2) 0.47583(19) 0.61221(16)
H2 H 0.7297 0.5180 0.5169
C6 C 0.4602(2) 0.3301(2) 0.86121(15)
C7 C 0.4808(2) 0.54216(18) 0.68951(16)
H3 H 0.4298 0.6302 0.6553
C8 C 0.8041(2) 0.33895(19) 0.77831(18)
H4 H 0.7793 0.3606 0.8785
C9 C 0.7985(2) 0.4981(2) 0.7005(2)
H5 H 0.7450 0.5866 0.7678
H6 H 0.9220 0.5196 0.6397
C10 C 0.8528(3) -0.0141(2) 0.7235(2)
H7 H 0.8561 -0.1239 0.7542
H8 H 0.8840 -0.0164 0.6219
C11 C 0.1202(2) 0.6623(2) 0.8562(2)
H9 H 0.1217 0.6499 0.7620
H10 H 0.1872 0.7511 0.8604
H11 H -0.0052 0.6818 0.9209
C12 C 0.9925(2) 0.2420(2) 0.7101(3)
H12 H 1.0271 0.2424 0.6083
H13 H 1.0842 0.2939 0.7330
C13 C 0.9949(3) 0.0699(2) 0.7575(3)
H14 H 1.1166 0.0146 0.7100
H15 H 0.9683 0.0678 0.8585
C14 C 0.5160(3) -0.0194(2) 0.7625(3)
H16 H 0.3955 0.0354 0.8091
H17 H 0.5183 -0.1268 0.7959
H18 H 0.5441 -0.0221 0.6624
loop_
_geom_bond_atom_site_label_1
_geom_bond_atom_site_label_2
_geom_bond_site_symmetry_1
_geom_bond_site_symmetry_2
O1 C3 1_555 1_555
O2 C1 1_555 1_555
O3 C6 1_555 1_555
C1 C2 1_555 1_555
C2 C4 1_555 1_555
C3 C6 1_555 1_555
C4 H1 1_555 1_555
C5 C1 1_555 1_555
H2 C5 1_555 1_555
C6 C2 1_555 1_555
C7 C3 1_555 1_555
H3 C7 1_555 1_555
C8 C2 1_555 1_555
H4 C8 1_555 1_555
C9 C5 1_555 1_555
H5 C9 1_555 1_555
H6 C9 1_555 1_555
C10 C4 1_555 1_555
H7 C10 1_555 1_555
H8 C10 1_555 1_555
C11 O1 1_555 1_555
H9 C11 1_555 1_555
H10 C11 1_555 1_555
H11 C11 1_555 1_555
C12 C8 1_555 1_555
H12 C12 1_555 1_555
H13 C12 1_555 1_555
C13 C10 1_555 1_555
H14 C13 1_555 1_555
H15 C13 1_555 1_555
C14 C4 1_555 1_555
H16 C14 1_555 1_555
H17 C14 1_555 1_555
H18 C14 1_555 1_555
C5 C7 1_555 1_555
C8 C9 1_555 1_555
C12 C13 1_555 1_555

#END
