
#######################################################################
#
#                 Cambridge Crystallographic Data Centre
#                                CCDC 
#
#######################################################################
#
# If this CIF has been generated from an entry in the Cambridge 
# Structural Database, then it will include bibliographic, chemical, 
# crystal, experimental, refinement or atomic coordinate data resulting 
# from the CCDC's data processing and validation procedures.
#
#######################################################################

data_TIDSIL
_chemical_formula_moiety         'C30 H25 F1 O6 S1'
_chemical_name_systematic        
4-(benzyloxy)-2-(3,4-dimethoxyphenyl)-3-[(4-fluorophenyl)sulfonyl]-2H-1-benzopyran
_symmetry_cell_setting           monoclinic
_symmetry_space_group_name_H-M   'P 21/c'
_symmetry_Int_Tables_number      14
_space_group_name_Hall           '-P 2ybc'
loop_
_symmetry_equiv_pos_site_id
_symmetry_equiv_pos_as_xyz
1 x,y,z
2 -x,1/2+y,1/2-z
3 -x,-y,-z
4 x,1/2-y,1/2+z
_cell_length_a                   12.1195(4)
_cell_length_b                   16.7902(5)
_cell_length_c                   13.7432(5)
_cell_angle_alpha                90
_cell_angle_beta                 113.3580(10)
_cell_angle_gamma                90
_cell_volume                     2567.39
_exptl_crystal_colour            colorless
_cell_formula_units_Z            4
loop_
_atom_site_label
_atom_site_type_symbol
_atom_site_fract_x
_atom_site_fract_y
_atom_site_fract_z
S1 S 0.25034(5) 0.02601(3) 0.14819(4)
F1 F 0.6129(2) -0.13597(15) 0.50601(15)
O1 O -0.15103(14) -0.09621(10) 0.39736(13)
O2 O 0.34661(11) 0.17257(8) 0.27839(11)
O3 O 0.16291(14) -0.03320(10) 0.09141(13)
O4 O 0.31661(14) 0.06493(11) 0.09553(12)
O5 O -0.01885(11) 0.16598(8) 0.13730(10)
O6 O -0.29315(13) -0.03624(10) 0.21993(13)
C1 C -0.0783(2) -0.14835(14) 0.4786(2)
H1 H -0.0355 -0.1848 0.4500
H2 H -0.1292 -0.1791 0.5053
H3 H -0.0201 -0.1172 0.5365
C2 C -0.09661(19) -0.05185(12) 0.34559(16)
C3 C 0.02472(19) -0.03757(12) 0.38147(16)
H4 H 0.0776 -0.0594 0.4472
C4 C 0.07074(18) 0.00882(12) 0.32198(15)
H5 H 0.1545 0.0196 0.3483
C5 C -0.00458(17) 0.03907(11) 0.22547(14)
C6 C 0.03727(16) 0.08763(11) 0.15372(15)
H6 H 0.0071 0.0603 0.0833
C7 C 0.17163(16) 0.09755(11) 0.18907(14)
C8 C 0.22586(16) 0.16197(11) 0.24501(14)
C9 C 0.38305(19) 0.24021(14) 0.23155(19)
H7 H 0.3421 0.2894 0.2389
H8 H 0.3633 0.2307 0.1554
C10 C 0.51571(19) 0.24706(13) 0.29168(19)
C11 C 0.5935(2) 0.20259(16) 0.2646(3)
H9 H 0.5631 0.1691 0.2040
C12 C 0.7164(3) 0.2058(2) 0.3245(4)
H10 H 0.7697 0.1742 0.3054
C13 C 0.7601(3) 0.2543(2) 0.4107(3)
H11 H 0.8442 0.2565 0.4519
C14 C 0.35723(18) -0.01938(12) 0.26230(16)
C15 C 0.3243(2) -0.08295(14) 0.3087(2)
H12 H 0.2430 -0.1001 0.2829
C16 C 0.4119(3) -0.12123(17) 0.3933(2)
H13 H 0.3914 -0.1643 0.4277
C17 C 0.5272(3) -0.0962(2) 0.4262(2)
C18 C 0.5617(2) -0.0338(2) 0.3826(2)
H14 H 0.6434 -0.0177 0.4083
C19 C 0.4745(2) 0.00553(16) 0.29992(19)
H15 H 0.4957 0.0503 0.2687
C20 C 0.6856(3) 0.2988(2) 0.4377(3)
H16 H 0.7169 0.3329 0.4977
C21 C 0.5632(2) 0.29547(16) 0.3789(2)
H17 H 0.5110 0.3273 0.3991
C22 C 0.15543(17) 0.21878(11) 0.27677(15)
C23 C 0.03170(17) 0.21708(11) 0.22157(15)
C24 C -0.0421(2) 0.26869(12) 0.24622(18)
H18 H -0.1266 0.2677 0.2068
C25 C 0.0083(2) 0.32162(13) 0.3287(2)
H19 H -0.0419 0.3570 0.3466
C26 C 0.1312(2) 0.32374(12) 0.38552(18)
H20 H 0.1651 0.3602 0.4425
C27 C 0.20462(19) 0.27313(12) 0.35969(16)
H21 H 0.2892 0.2752 0.3985
C28 C -0.12754(17) 0.02441(11) 0.18935(15)
H22 H -0.1800 0.0450 0.1226
C29 C -0.17432(18) -0.01929(12) 0.24859(16)
C30 C -0.37444(19) -0.00714(17) 0.12053(19)
H23 H -0.3683 0.0510 0.1191
H24 H -0.4566 -0.0221 0.1098
H25 H -0.3546 -0.0302 0.0639
loop_
_geom_bond_atom_site_label_1
_geom_bond_atom_site_label_2
_geom_bond_site_symmetry_1
_geom_bond_site_symmetry_2
S1 O3 1_555 1_555
F1 C17 1_555 1_555
O1 C1 1_555 1_555
O2 C8 1_555 1_555
O4 S1 1_555 1_555
O5 C6 1_555 1_555
O6 C29 1_555 1_555
C1 H1 1_555 1_555
H2 C1 1_555 1_555
H3 C1 1_555 1_555
C2 O1 1_555 1_555
C3 C2 1_555 1_555
H4 C3 1_555 1_555
C4 C3 1_555 1_555
H5 C4 1_555 1_555
C5 C4 1_555 1_555
C6 C5 1_555 1_555
H6 C6 1_555 1_555
C7 S1 1_555 1_555
C8 C7 1_555 1_555
C9 O2 1_555 1_555
H7 C9 1_555 1_555
H8 C9 1_555 1_555
C10 C9 1_555 1_555
C11 C10 1_555 1_555
H9 C11 1_555 1_555
C12 C11 1_555 1_555
H10 C12 1_555 1_555
C13 C12 1_555 1_555
H11 C13 1_555 1_555
C14 S1 1_555 1_555
C15 C14 1_555 1_555
H12 C15 1_555 1_555
C16 C15 1_555 1_555
H13 C16 1_555 1_555
C17 C16 1_555 1_555
C18 C17 1_555 1_555
H14 C18 1_555 1_555
C19 C14 1_555 1_555
H15 C19 1_555 1_555
C20 C13 1_555 1_555
H16 C20 1_555 1_555
C21 C10 1_555 1_555
H17 C21 1_555 1_555
C22 C8 1_555 1_555
C23 O5 1_555 1_555
C24 C23 1_555 1_555
H18 C24 1_555 1_555
C25 C24 1_555 1_555
H19 C25 1_555 1_555
C26 C25 1_555 1_555
H20 C26 1_555 1_555
C27 C22 1_555 1_555
H21 C27 1_555 1_555
C28 C5 1_555 1_555
H22 C28 1_555 1_555
C29 C2 1_555 1_555
C30 O6 1_555 1_555
H23 C30 1_555 1_555
H24 C30 1_555 1_555
H25 C30 1_555 1_555
C6 C7 1_555 1_555
C18 C19 1_555 1_555
C20 C21 1_555 1_555
C22 C23 1_555 1_555
C26 C27 1_555 1_555
C28 C29 1_555 1_555

#END
