
#######################################################################
#
#                 Cambridge Crystallographic Data Centre
#                                CCDC 
#
#######################################################################
#
# If this CIF has been generated from an entry in the Cambridge 
# Structural Database, then it will include bibliographic, chemical, 
# crystal, experimental, refinement or atomic coordinate data resulting 
# from the CCDC's data processing and validation procedures.
#
#######################################################################

data_TIDWUB
_chemical_formula_moiety         'C31 H33 F2 N1 O5 S1'
_chemical_name_systematic        
'ethyl 2,2-difluoro-3-{4-[(4-methoxyphenyl)(phenyl)methylidene]-3-methyl-1-[(4-methylphenyl)sulfonyl]pyrrolidin-3-yl}propanoate'
_symmetry_cell_setting           monoclinic
_symmetry_space_group_name_H-M   'P 21/n'
_symmetry_Int_Tables_number      14
_space_group_name_Hall           '-P 2yn'
loop_
_symmetry_equiv_pos_site_id
_symmetry_equiv_pos_as_xyz
1 x,y,z
2 1/2-x,1/2+y,1/2-z
3 -x,-y,-z
4 1/2+x,1/2-y,1/2+z
_cell_length_a                   12.5836(4)
_cell_length_b                   13.0599(5)
_cell_length_c                   17.6689(7)
_cell_angle_alpha                90
_cell_angle_beta                 91.349(3)
_cell_angle_gamma                90
_cell_volume                     2902.91
_exptl_crystal_colour            colorless
_exptl_crystal_description       block
_cell_formula_units_Z            4
loop_
_atom_site_label
_atom_site_type_symbol
_atom_site_fract_x
_atom_site_fract_y
_atom_site_fract_z
S1 S 0.68942(4) 0.64233(4) 0.12203(3)
F1 F 0.56099(12) 0.40014(12) 0.24882(8)
F2 F 0.50545(16) 0.26196(12) 0.19152(11)
O1 O 0.55686(17) 0.7401(2) 0.56975(12)
O2 O 0.59190(17) 0.35771(17) 0.05614(11)
O3 O 0.70844(14) 0.37132(14) 0.15329(10)
O4 O 0.70376(16) 0.59481(14) 0.05024(11)
O5 O 0.76623(14) 0.62871(15) 0.18208(12)
N1 N 0.57790(14) 0.59710(14) 0.15359(10)
C1 C 0.27537(16) 0.52393(17) 0.30610(12)
C2 C 0.17947(18) 0.5740(2) 0.29404(14)
H1 H 0.1793 0.6425 0.2796
C3 C 0.08380(19) 0.5237(2) 0.30324(16)
H2 H 0.0201 0.5582 0.2943
C4 C 0.0827(2) 0.4240(3) 0.3252(2)
H3 H 0.0183 0.3901 0.3309
C5 C 0.1776(3) 0.3730(2) 0.3391(2)
H4 H 0.1771 0.3049 0.3545
C6 C 0.2737(2) 0.4236(2) 0.33026(17)
H5 H 0.3373 0.3895 0.3407
C7 C 0.37989(16) 0.57723(16) 0.29769(12)
C8 C 0.43446(16) 0.57870(16) 0.23388(12)
C9 C 0.54146(17) 0.63118(18) 0.22784(12)
H6 H 0.5341 0.7051 0.2296
H7 H 0.5901 0.6094 0.2681
C10 C 0.48450(19) 0.58487(18) 0.10456(12)
H8 H 0.5000 0.5431 0.0608
H9 H 0.4572 0.6506 0.0876
C11 C 0.40593(18) 0.53094(18) 0.15639(13)
C12 C 0.2923(2) 0.5518(2) 0.12629(15)
H10 H 0.2430 0.5112 0.1541
H11 H 0.2872 0.5340 0.0736
H12 H 0.2759 0.6230 0.1324
C13 C 0.42439(17) 0.62315(18) 0.36968(12)
C14 C 0.37567(19) 0.7037(2) 0.40497(15)
H13 H 0.3138 0.7311 0.3834
C15 C 0.4169(2) 0.7457(2) 0.47274(16)
H14 H 0.3835 0.8009 0.4955
C16 C 0.5072(2) 0.7037(2) 0.50476(14)
C17 C 0.5555(2) 0.6215(2) 0.47182(14)
H15 H 0.6160 0.5930 0.4946
C18 C 0.51532(19) 0.5807(2) 0.40538(14)
H16 H 0.5485 0.5245 0.3838
C19 C 0.5095(3) 0.8223(4) 0.6078(2)
H17 H 0.4951 0.8769 0.5727
H18 H 0.5568 0.8461 0.6474
H19 H 0.4441 0.7998 0.6293
C20 C 0.41936(19) 0.41327(19) 0.15697(15)
H20 H 0.3656 0.3857 0.1898
H21 H 0.4024 0.3891 0.1062
C21 C 0.5244(2) 0.36534(18) 0.18090(14)
C22 C 0.6125(2) 0.36633(17) 0.12193(14)
C23 C 0.7971(2) 0.3684(2) 0.10060(18)
H22 H 0.7852 0.4174 0.0600
H23 H 0.8032 0.3007 0.0786
C24 C 0.8950(3) 0.3944(3) 0.1443(2)
H24 H 0.9530 0.4019 0.1104
H25 H 0.9110 0.3408 0.1800
H26 H 0.8847 0.4575 0.1711
C25 C 0.67706(17) 0.77540(17) 0.10673(13)
C26 C 0.71271(19) 0.8423(2) 0.16205(15)
H27 H 0.7413 0.8175 0.2075
C27 C 0.7055(2) 0.9469(2) 0.14939(17)
H28 H 0.7288 0.9921 0.1869
C28 C 0.6643(2) 0.9852(2) 0.08169(17)
C29 C 0.6308(2) 0.9163(2) 0.02660(17)
H29 H 0.6045 0.9409 -0.0195
C30 C 0.6355(2) 0.8115(2) 0.03856(14)
H30 H 0.6112 0.7662 0.0014
C31 C 0.6551(3) 1.0993(2) 0.0692(3)
H31 H 0.6595 1.1140 0.0161
H32 H 0.7118 1.1336 0.0962
H33 H 0.5880 1.1229 0.0873
loop_
_geom_bond_atom_site_label_1
_geom_bond_atom_site_label_2
_geom_bond_site_symmetry_1
_geom_bond_site_symmetry_2
S1 O4 1_555 1_555
F1 C21 1_555 1_555
F2 C21 1_555 1_555
O1 C16 1_555 1_555
O2 C22 1_555 1_555
O3 C22 1_555 1_555
O5 S1 1_555 1_555
N1 S1 1_555 1_555
C1 C2 1_555 1_555
C2 H1 1_555 1_555
C3 C2 1_555 1_555
H2 C3 1_555 1_555
C4 C3 1_555 1_555
H3 C4 1_555 1_555
C5 C4 1_555 1_555
H4 C5 1_555 1_555
C6 C1 1_555 1_555
H5 C6 1_555 1_555
C7 C1 1_555 1_555
C8 C7 1_555 1_555
C9 N1 1_555 1_555
H6 C9 1_555 1_555
H7 C9 1_555 1_555
C10 N1 1_555 1_555
H8 C10 1_555 1_555
H9 C10 1_555 1_555
C11 C8 1_555 1_555
C12 C11 1_555 1_555
H10 C12 1_555 1_555
H11 C12 1_555 1_555
H12 C12 1_555 1_555
C13 C7 1_555 1_555
C14 C13 1_555 1_555
H13 C14 1_555 1_555
C15 C14 1_555 1_555
H14 C15 1_555 1_555
C16 C15 1_555 1_555
C17 C16 1_555 1_555
H15 C17 1_555 1_555
C18 C13 1_555 1_555
H16 C18 1_555 1_555
C19 O1 1_555 1_555
H17 C19 1_555 1_555
H18 C19 1_555 1_555
H19 C19 1_555 1_555
C20 C11 1_555 1_555
H20 C20 1_555 1_555
H21 C20 1_555 1_555
C21 C20 1_555 1_555
C22 C21 1_555 1_555
C23 O3 1_555 1_555
H22 C23 1_555 1_555
H23 C23 1_555 1_555
C24 C23 1_555 1_555
H24 C24 1_555 1_555
H25 C24 1_555 1_555
H26 C24 1_555 1_555
C25 S1 1_555 1_555
C26 C25 1_555 1_555
H27 C26 1_555 1_555
C27 C26 1_555 1_555
H28 C27 1_555 1_555
C28 C27 1_555 1_555
C29 C28 1_555 1_555
H29 C29 1_555 1_555
C30 C25 1_555 1_555
H30 C30 1_555 1_555
C31 C28 1_555 1_555
H31 C31 1_555 1_555
H32 C31 1_555 1_555
H33 C31 1_555 1_555
C5 C6 1_555 1_555
C8 C9 1_555 1_555
C10 C11 1_555 1_555
C17 C18 1_555 1_555
C29 C30 1_555 1_555

#END
