
#######################################################################
#
#                 Cambridge Crystallographic Data Centre
#                                CCDC 
#
#######################################################################
#
# If this CIF has been generated from an entry in the Cambridge 
# Structural Database, then it will include bibliographic, chemical, 
# crystal, experimental, refinement or atomic coordinate data resulting 
# from the CCDC's data processing and validation procedures.
#
#######################################################################

data_TIDZIS
_chemical_formula_moiety         'C30 H31 F2 N1 O4 S1'
_chemical_name_systematic        
'ethyl 3-{4-(diphenylmethylidene)-3-methyl-1-[(4-methylphenyl)sulfonyl]pyrrolidin-3-yl}-2,2-difluoropropanoate'
_symmetry_cell_setting           triclinic
_symmetry_space_group_name_H-M   'P -1'
_symmetry_Int_Tables_number      2
_space_group_name_Hall           '-P 1'
loop_
_symmetry_equiv_pos_site_id
_symmetry_equiv_pos_as_xyz
1 x,y,z
2 -x,-y,-z
_cell_length_a                   13.8373(7)
_cell_length_b                   14.6324(8)
_cell_length_c                   16.7936(8)
_cell_angle_alpha                65.506(5)
_cell_angle_beta                 85.068(4)
_cell_angle_gamma                61.827(5)
_cell_volume                     2702
_exptl_crystal_colour            colorless
_exptl_crystal_description       block
_cell_formula_units_Z            4
loop_
_atom_site_label
_atom_site_type_symbol
_atom_site_fract_x
_atom_site_fract_y
_atom_site_fract_z
S1 S 0.50192(6) 0.91837(6) 0.37882(5)
F1 F 0.13984(14) 0.95651(14) 0.36858(12)
F2 F 0.03198(13) 1.08486(16) 0.41480(13)
O1 O 0.20743(17) 1.13784(18) 0.40630(15)
O2 O 0.20374(16) 1.10236(18) 0.28853(13)
O3 O 0.49169(15) 1.00964(16) 0.39717(14)
O4 O 0.49107(15) 0.93436(17) 0.28929(12)
N1 N 0.40425(17) 0.88830(19) 0.42377(14)
C1 C 0.3920(2) 0.8015(2) 0.40829(18)
H1 H 0.4638 0.7382 0.4121
H2 H 0.3506 0.8350 0.3507
C2 C 0.3293(2) 0.7620(2) 0.48143(17)
C3 C 0.3068(2) 0.8272(2) 0.53789(18)
C4 C 0.3948(2) 0.8667(2) 0.51704(17)
H3 H 0.3709 0.9359 0.5250
H4 H 0.4648 0.8076 0.5542
C5 C 0.3206(3) 0.7574(3) 0.63822(18)
H5 H 0.2603 0.7409 0.6528
H6 H 0.3209 0.8008 0.6681
H7 H 0.3892 0.6869 0.6565
C6 C 0.1878(2) 0.9282(3) 0.5122(2)
H8 H 0.1387 0.8960 0.5356
H9 H 0.1821 0.9731 0.5434
C7 C 0.1424(2) 1.0100(2) 0.4173(2)
C8 C 0.1911(2) 1.0898(2) 0.3702(2)
C9 C 0.2413(3) 1.1848(3) 0.2371(2)
H10 H 0.3083 1.1670 0.2681
H11 H 0.1850 1.2617 0.2274
C10 C 0.2631(3) 1.1765(4) 0.1511(2)
H12 H 0.2799 1.2357 0.1126
H13 H 0.1987 1.1857 0.1242
H14 H 0.3246 1.1030 0.1611
C11 C 0.2993(2) 0.6844(2) 0.48841(17)
C12 C 0.2433(2) 0.6374(2) 0.56319(19)
C13 C 0.1290(3) 0.6875(3) 0.5540(2)
H15 H 0.0870 0.7512 0.5023
C14 C 0.0768(3) 0.6433(3) 0.6214(3)
H16 H 0.0000 0.6777 0.6152
C15 C 0.1387(4) 0.5482(4) 0.6979(3)
H17 H 0.1035 0.5189 0.7434
C16 C 0.2524(4) 0.4966(3) 0.7070(2)
H18 H 0.2943 0.4322 0.7584
C17 C 0.3041(3) 0.5409(3) 0.6394(2)
H19 H 0.3810 0.5051 0.6454
C18 C 0.3130(2) 0.6430(3) 0.41875(19)
C19 C 0.3766(2) 0.5274(3) 0.4373(2)
H20 H 0.4158 0.4748 0.4933
C20 C 0.3816(3) 0.4903(3) 0.3725(2)
H21 H 0.4249 0.4130 0.3853
C21 C 0.3233(3) 0.5663(3) 0.2899(3)
H22 H 0.3266 0.5404 0.2471
C22 C 0.2596(3) 0.6814(3) 0.2701(2)
H23 H 0.2204 0.7333 0.2139
C23 C 0.2544(3) 0.7189(3) 0.3340(2)
H24 H 0.2110 0.7964 0.3205
C24 C 0.6283(2) 0.7953(2) 0.43498(18)
C25 C 0.6711(2) 0.7766(3) 0.51529(19)
H25 H 0.6374 0.8322 0.5368
C26 C 0.7645(2) 0.6745(3) 0.5630(2)
H26 H 0.7932 0.6619 0.6169
C27 C 0.8163(2) 0.5906(3) 0.5326(2)
C28 C 0.7749(2) 0.6129(3) 0.4504(2)
H27 H 0.8109 0.5587 0.4278
C29 C 0.6812(2) 0.7139(2) 0.40152(19)
H28 H 0.6537 0.7273 0.3469
C30 C 0.9127(3) 0.4767(3) 0.5885(2)
H29 H 0.9619 0.4883 0.6154
H30 H 0.9516 0.4382 0.5521
H31 H 0.8863 0.4307 0.6336
S2 S 0.91165(6) 1.45527(7) -0.11973(5)
O5 O 0.61089(19) 1.5820(2) -0.07264(17)
O6 O 0.84122(17) 1.49127(19) -0.19618(13)
O7 O 0.92023(18) 1.53818(17) -0.10069(14)
N2 N 0.8663(2) 1.3872(2) -0.03498(15)
C31 C 0.8460(3) 1.2982(3) -0.03838(19)
H32 H 0.9040 1.2528 -0.0639
H33 H 0.7753 1.3324 -0.0730
C32 C 0.8464(2) 1.2252(3) 0.05737(19)
C33 C 0.8702(2) 1.2724(3) 0.11493(18)
C34 C 0.9241(3) 1.3411(3) 0.05386(19)
H34 H 0.9132 1.4025 0.0686
H35 H 1.0028 1.2922 0.0576
C35 C 0.9499(3) 1.1837(3) 0.2007(2)
H36 H 0.9147 1.1444 0.2417
H37 H 0.9697 1.2217 0.2259
H38 H 1.0154 1.1294 0.1882
C36 C 0.7623(3) 1.3485(3) 0.1425(2)
H39 H 0.7427 1.2968 0.1901
H40 H 0.7816 1.3876 0.1677
C37 C 0.5603(3) 1.7016(4) -0.2265(3)
H41 H 0.5799 1.7527 -0.2735
H42 H 0.4812 1.7354 -0.2306
H43 H 0.5901 1.6303 -0.2312
C38 C 0.8263(2) 1.1373(3) 0.08049(19)
C39 C 0.8330(2) 1.0557(3) 0.17340(19)
C40 C 0.9322(3) 0.9599(3) 0.2207(2)
H44 H 0.9970 0.9476 0.1953
C41 C 0.9362(3) 0.8827(3) 0.3049(2)
H45 H 1.0037 0.8193 0.3355
C42 C 0.8414(3) 0.8986(3) 0.3438(2)
H46 H 0.8443 0.8465 0.4005
C43 C 0.7425(3) 0.9923(3) 0.2980(2)
H47 H 0.6782 1.0039 0.3241
C44 C 0.7374(3) 1.0700(3) 0.2134(2)
H48 H 0.6695 1.1324 0.1828
C45 C 0.7876(3) 1.1167(3) 0.0124(2)
C46 C 0.6809(3) 1.1907(3) -0.0335(2)
H49 H 0.6354 1.2549 -0.0232
C47 C 0.6411(4) 1.1706(4) -0.0942(3)
H50 H 0.5695 1.2207 -0.1241
C48 C 0.7083(5) 1.0761(5) -0.1097(3)
H51 H 0.6823 1.0625 -0.1506
C49 C 0.8139(4) 1.0017(4) -0.0653(3)
H52 H 0.8591 0.9381 -0.0763
C50 C 0.8532(3) 1.0213(3) -0.0039(2)
H53 H 0.9243 0.9699 0.0266
C51 C 1.0452(2) 1.3555(3) -0.12415(18)
C52 C 1.1360(2) 1.3361(3) -0.0763(2)
H54 H 1.1261 1.3778 -0.0441
C53 C 1.2402(3) 1.2544(3) -0.0773(2)
H55 H 1.3007 1.2426 -0.0465
C54 C 1.2573(3) 1.1892(3) -0.1231(2)
C55 C 1.1667(3) 1.2109(3) -0.1714(2)
H56 H 1.1771 1.1694 -0.2039
C56 C 1.0615(3) 1.2925(3) -0.1722(2)
H57 H 1.0015 1.3056 -0.2047
C57 C 1.3714(3) 1.0955(4) -0.1193(3)
H58 H 1.4259 1.1071 -0.0994
H59 H 1.3823 1.0974 -0.1771
H60 H 1.3785 1.0225 -0.0790
F3 F 0.6169(3) 1.3953(4) 0.0358(3)
F4 F 0.5720(3) 1.4818(3) 0.1223(3)
O8 O 0.6952(4) 1.5947(5) 0.0230(3)
C58 C 0.6565(4) 1.4395(4) 0.0769(3)
C59 C 0.6607(4) 1.5444(5) 0.0087(4)
C60 C 0.6040(4) 1.6817(5) -0.1444(4)
H61 H 0.5579 1.7477 -0.1322
H62 H 0.6775 1.6745 -0.1487
H63? H 0.7151 1.3132 0.1553
H64? H 0.7821 1.3475 0.1970
H65? H 0.5362 1.7053 -0.2802
H66? H 0.6364 1.6843 -0.2251
H67? H 0.5157 1.7741 -0.2240
F5? F 0.7420(7) 1.5367(6) 0.0584(5)
F6? F 0.6035(7) 1.5198(7) 0.1254(5)
O9? O 0.6297(11) 1.4193(10) -0.0017(7)
C61? C 0.6949(9) 1.4727(10) 0.0765(7)
C62? C 0.6407(8) 1.4866(11) -0.0014(7)
C63? C 0.5494(9) 1.6159(10) -0.1541(7)
H68? H 0.5746 1.5493 -0.1660
H69? H 0.4718 1.6431 -0.1470
loop_
_geom_bond_atom_site_label_1
_geom_bond_atom_site_label_2
_geom_bond_site_symmetry_1
_geom_bond_site_symmetry_2
S1 O3 1_555 1_555
F1 C7 1_555 1_555
F2 C7 1_555 1_555
O1 C8 1_555 1_555
O2 C8 1_555 1_555
O4 S1 1_555 1_555
N1 S1 1_555 1_555
C1 N1 1_555 1_555
H1 C1 1_555 1_555
H2 C1 1_555 1_555
C2 C1 1_555 1_555
C3 C2 1_555 1_555
C4 N1 1_555 1_555
H3 C4 1_555 1_555
H4 C4 1_555 1_555
C5 C3 1_555 1_555
H5 C5 1_555 1_555
H6 C5 1_555 1_555
H7 C5 1_555 1_555
C6 C3 1_555 1_555
H8 C6 1_555 1_555
H9 C6 1_555 1_555
C7 C6 1_555 1_555
C8 C7 1_555 1_555
C9 O2 1_555 1_555
H10 C9 1_555 1_555
H11 C9 1_555 1_555
C10 C9 1_555 1_555
H12 C10 1_555 1_555
H13 C10 1_555 1_555
H14 C10 1_555 1_555
C11 C2 1_555 1_555
C12 C11 1_555 1_555
C13 C12 1_555 1_555
H15 C13 1_555 1_555
C14 C13 1_555 1_555
H16 C14 1_555 1_555
C15 C14 1_555 1_555
H17 C15 1_555 1_555
C16 C15 1_555 1_555
H18 C16 1_555 1_555
C17 C12 1_555 1_555
H19 C17 1_555 1_555
C18 C11 1_555 1_555
C19 C18 1_555 1_555
H20 C19 1_555 1_555
C20 C19 1_555 1_555
H21 C20 1_555 1_555
C21 C20 1_555 1_555
H22 C21 1_555 1_555
C22 C21 1_555 1_555
H23 C22 1_555 1_555
C23 C18 1_555 1_555
H24 C23 1_555 1_555
C24 S1 1_555 1_555
C25 C24 1_555 1_555
H25 C25 1_555 1_555
C26 C25 1_555 1_555
H26 C26 1_555 1_555
C27 C26 1_555 1_555
C28 C27 1_555 1_555
H27 C28 1_555 1_555
C29 C24 1_555 1_555
H28 C29 1_555 1_555
C30 C27 1_555 1_555
H29 C30 1_555 1_555
H30 C30 1_555 1_555
H31 C30 1_555 1_555
S2 O6 1_555 1_555
O5 C59 1_555 1_555
O7 S2 1_555 1_555
N2 S2 1_555 1_555
C31 N2 1_555 1_555
H32 C31 1_555 1_555
H33 C31 1_555 1_555
C32 C31 1_555 1_555
C33 C32 1_555 1_555
C34 N2 1_555 1_555
H34 C34 1_555 1_555
H35 C34 1_555 1_555
C35 C33 1_555 1_555
H36 C35 1_555 1_555
H37 C35 1_555 1_555
H38 C35 1_555 1_555
C36 C33 1_555 1_555
H39 C36 1_555 1_555
H40 C36 1_555 1_555
C37 H41 1_555 1_555
H42 C37 1_555 1_555
H43 C37 1_555 1_555
C38 C32 1_555 1_555
C39 C38 1_555 1_555
C40 C39 1_555 1_555
H44 C40 1_555 1_555
C41 C40 1_555 1_555
H45 C41 1_555 1_555
C42 C41 1_555 1_555
H46 C42 1_555 1_555
C43 C42 1_555 1_555
H47 C43 1_555 1_555
C44 C39 1_555 1_555
H48 C44 1_555 1_555
C45 C38 1_555 1_555
C46 C45 1_555 1_555
H49 C46 1_555 1_555
C47 C46 1_555 1_555
H50 C47 1_555 1_555
C48 C47 1_555 1_555
H51 C48 1_555 1_555
C49 C48 1_555 1_555
H52 C49 1_555 1_555
C50 C45 1_555 1_555
H53 C50 1_555 1_555
C51 S2 1_555 1_555
C52 C51 1_555 1_555
H54 C52 1_555 1_555
C53 C52 1_555 1_555
H55 C53 1_555 1_555
C54 C53 1_555 1_555
C55 C54 1_555 1_555
H56 C55 1_555 1_555
C56 C51 1_555 1_555
H57 C56 1_555 1_555
C57 C54 1_555 1_555
H58 C57 1_555 1_555
H59 C57 1_555 1_555
H60 C57 1_555 1_555
F3 C58 1_555 1_555
F4 C58 1_555 1_555
O8 C59 1_555 1_555
C58 C36 1_555 1_555
C59 C58 1_555 1_555
C60 O5 1_555 1_555
H61 C60 1_555 1_555
H62 C60 1_555 1_555
C3 C4 1_555 1_555
C16 C17 1_555 1_555
C22 C23 1_555 1_555
C28 C29 1_555 1_555
C33 C34 1_555 1_555
C37 C60 1_555 1_555
C43 C44 1_555 1_555
C49 C50 1_555 1_555
C55 C56 1_555 1_555

#END
