
#######################################################################
#
#                 Cambridge Crystallographic Data Centre
#                                CCDC 
#
#######################################################################
#
# If this CIF has been generated from an entry in the Cambridge 
# Structural Database, then it will include bibliographic, chemical, 
# crystal, experimental, refinement or atomic coordinate data resulting 
# from the CCDC's data processing and validation procedures.
#
#######################################################################

data_TIFQOO02
_chemical_name_common            'Calix[4]hydroquinone tetrahydrate'
_chemical_formula_moiety         'C28 H24 O8,4(H2 O1)'
_chemical_name_systematic        
'5,11,17,23,25,26,27,28-Octahydroxycalix[4]arene tetrahydrate'
_symmetry_cell_setting           orthorhombic
_symmetry_space_group_name_H-M   'C m m m'
_symmetry_Int_Tables_number      65
_space_group_name_Hall           '-C 2 2'
loop_
_symmetry_equiv_pos_site_id
_symmetry_equiv_pos_as_xyz
1 x,y,z
2 -x,-y,z
3 x,-y,-z
4 -x,y,-z
5 1/2+x,1/2+y,z
6 1/2-x,1/2-y,z
7 1/2+x,1/2-y,-z
8 1/2-x,1/2+y,-z
9 -x,-y,-z
10 x,y,-z
11 -x,y,z
12 x,-y,z
13 1/2-x,1/2-y,-z
14 1/2+x,1/2+y,-z
15 1/2-x,1/2+y,z
16 1/2+x,1/2-y,z
_cell_length_a                   23.3007(5)
_cell_length_b                   25.03560(10)
_cell_length_c                   11.6313(2)
_cell_angle_alpha                90
_cell_angle_beta                 90
_cell_angle_gamma                90
_cell_volume                     6785.08
_cell_formula_units_Z            8
_exptl_crystal_recrystallization_method 'Di-cesium sulfate'
loop_
_atom_site_label
_atom_site_type_symbol
_atom_site_fract_x
_atom_site_fract_y
_atom_site_fract_z
O1 O 0.0577(1) 0.3847(1) 0.1132(2)
O2 O 0.1487(2) 0.2027(1) 0.3109(3)
C1 C 0.0794(1) 0.3377(1) 0.1601(3)
C2 C 0.0537(1) 0.3166(1) 0.2589(3)
C3 C 0.0772(2) 0.2706(1) 0.3070(3)
C4 C 0.1248(2) 0.2467(2) 0.2585(3)
C5 C 0.1492(2) 0.2678(2) 0.1595(3)
C6 C 0.1270(1) 0.3134(1) 0.1089(3)
C7 C 0.0000 0.3409(2) 0.3103(4)
C8 C 0.1539(2) 0.3359(2) 0.0000
H1 H 0.0232 0.3876 0.1301
H2 H 0.1451 0.1762 0.2684
H3 H 0.0606 0.2557 0.3733
H4 H 0.1811 0.2508 0.1263
H5 H 0.0000 0.3795 0.2966
H6 H 0.0000 0.3350 0.3936
H7 H 0.1494 0.3749 0.0000
H8 H 0.1950 0.3280 0.0000
C6I C 0.1270(1) 0.3134(1) -0.1089(3)
C1I C 0.0794(1) 0.3377(1) -0.1601(3)
O1I O 0.0577(1) 0.3847(1) -0.1132(2)
H1I H 0.0232 0.3876 -0.1301
C2I C 0.0537(1) 0.3166(1) -0.2589(3)
C3I C 0.0772(2) 0.2706(1) -0.3070(3)
C4I C 0.1248(2) 0.2467(2) -0.2585(3)
O2I O 0.1487(2) 0.2027(1) -0.3109(3)
H2I H 0.1451 0.1762 -0.2684
C5I C 0.1492(2) 0.2678(2) -0.1595(3)
H4I H 0.1811 0.2508 -0.1263
H3I H 0.0606 0.2557 -0.3733
C7I C 0.0000 0.3409(2) -0.3103(4)
C2C C -0.0537(1) 0.3166(1) -0.2589(3)
C1C C -0.0794(1) 0.3377(1) -0.1601(3)
O1C O -0.0577(1) 0.3847(1) -0.1132(2)
H1C H -0.0232 0.3876 -0.1301
C6C C -0.1270(1) 0.3134(1) -0.1089(3)
C5C C -0.1492(2) 0.2678(2) -0.1595(3)
C4C C -0.1248(2) 0.2467(2) -0.2585(3)
O2C O -0.1487(2) 0.2027(1) -0.3109(3)
H2C H -0.1451 0.1762 -0.2684
C3C C -0.0772(2) 0.2706(1) -0.3070(3)
H3C H -0.0606 0.2557 -0.3733
H4C H -0.1811 0.2508 -0.1263
C8C C -0.1539(2) 0.3359(2) 0.0000
C6J C -0.1270(1) 0.3134(1) 0.1089(3)
C1J C -0.0794(1) 0.3377(1) 0.1601(3)
O1J O -0.0577(1) 0.3847(1) 0.1132(2)
H1J H -0.0232 0.3876 0.1301
C2J C -0.0537(1) 0.3166(1) 0.2589(3)
C3J C -0.0772(2) 0.2706(1) 0.3070(3)
C4J C -0.1248(2) 0.2467(2) 0.2585(3)
O2J O -0.1487(2) 0.2027(1) 0.3109(3)
H2J H -0.1451 0.1762 0.2684
C5J C -0.1492(2) 0.2678(2) 0.1595(3)
H4J H -0.1811 0.2508 0.1263
H3J H -0.0606 0.2557 0.3733
H7C H -0.1494 0.3749 0.0000
H8C H -0.1950 0.3280 0.0000
H5I H 0.0000 0.3795 -0.2966
H6I H 0.0000 0.3350 -0.3936
O3 O 0.0902(1) 0.4461(1) 0.3863(2)
O4 O 0.2857(1) 0.3627(1) 0.1873(3)
C9 C 0.2385(2) 0.3842(2) 0.2407(3)
C10 C 0.2123(2) 0.4286(1) 0.1921(3)
C11 C 0.1631(1) 0.4502(1) 0.2409(3)
C12 C 0.1409(1) 0.4264(1) 0.3398(3)
C13 C 0.1674(2) 0.3823(1) 0.3908(3)
C14 C 0.2165(2) 0.3618(1) 0.3403(3)
C15 C 0.1366(2) 0.5000 0.1887(4)
C16 C 0.1440(2) 0.3571(2) 0.5000
H9 H 0.0895 0.4791 0.3796
H10 H 0.2993 0.3386 0.2280
H11 H 0.2280 0.4442 0.1256
H12 H 0.2351 0.3323 0.3738
H13 H 0.1429 0.5000 0.1054
H14 H 0.0951 0.5000 0.2027
H15 H 0.1021 0.3602 0.5000
H16 H 0.1536 0.3190 0.5000
C13I C 0.1674(2) 0.3823(1) 0.6092(3)
C12I C 0.1409(1) 0.4264(1) 0.6602(3)
O3I O 0.0902(1) 0.4461(1) 0.6137(2)
H9I H 0.0895 0.4791 0.6204
C11I C 0.1631(1) 0.4502(1) 0.7591(3)
C10I C 0.2123(2) 0.4286(1) 0.8079(3)
C9I C 0.2385(2) 0.3842(2) 0.7593(3)
O4I O 0.2857(1) 0.3627(1) 0.8127(3)
H10I H 0.2993 0.3386 0.7720
C14I C 0.2165(2) 0.3618(1) 0.6597(3)
H12I H 0.2351 0.3323 0.6262
H11I H 0.2280 0.4442 0.8744
C15I C 0.1366(2) 0.5000 0.8113(4)
C11B C 0.1631(1) 0.5498(1) 0.7591(3)
C10B C 0.2123(2) 0.5714(1) 0.8079(3)
C9B C 0.2385(2) 0.6158(2) 0.7593(3)
O4B O 0.2857(1) 0.6373(1) 0.8127(3)
H10B H 0.2993 0.6614 0.7720
C14B C 0.2165(2) 0.6382(1) 0.6597(3)
C13B C 0.1674(2) 0.6177(1) 0.6092(3)
C12B C 0.1409(1) 0.5736(1) 0.6602(3)
O3B O 0.0902(1) 0.5539(1) 0.6137(2)
H9B H 0.0895 0.5209 0.6204
C16B C 0.1440(2) 0.6429(2) 0.5000
C13K C 0.1674(2) 0.6177(1) 0.3908(3)
C12K C 0.1409(1) 0.5736(1) 0.3398(3)
O3K O 0.0902(1) 0.5539(1) 0.3863(2)
H9K H 0.0895 0.5209 0.3796
C11K C 0.1631(1) 0.5498(1) 0.2409(3)
C10K C 0.2123(2) 0.5714(1) 0.1921(3)
C9K C 0.2385(2) 0.6158(2) 0.2407(3)
O4K O 0.2857(1) 0.6373(1) 0.1873(3)
H10K H 0.2993 0.6614 0.2280
C14K C 0.2165(2) 0.6382(1) 0.3403(3)
H12K H 0.2351 0.6677 0.3738
H11K H 0.2280 0.5558 0.1256
H15B H 0.1021 0.6398 0.5000
H16B H 0.1536 0.6810 0.5000
H12B H 0.2351 0.6677 0.6262
H11B H 0.2280 0.5558 0.8744
H13I H 0.1429 0.5000 0.8946
H14I H 0.0951 0.5000 0.7973
O5 O 0.3330(3) 0.4051(3) 0.0000
O6 O 0.1037(3) 0.1595(2) 0.5000
O7 O 0.0000 0.2238(7) 0.0000
O8 O 0.0561(10) 0.1450(15) 0.0000
O9 O 0.2657(7) 0.5000 0.5000
O10 O 0.3345(9) 0.5000 0.5880(50)
O11 O 0.3964(9) 0.5000 0.0000
O12 O 0.0000 0.1001(11) 0.5000
O13? O 0.0000 0.1611(9) 0.0720(60)
O14? O 0.3478(16) 0.4447(11) 0.5000
loop_
_geom_bond_atom_site_label_1
_geom_bond_atom_site_label_2
_geom_bond_site_symmetry_1
_geom_bond_site_symmetry_2
O1 C1 1_555 1_555
O2 C4 1_555 1_555
C1 C2 1_555 1_555
C2 C3 1_555 1_555
C3 C4 1_555 1_555
C4 C5 1_555 1_555
C5 C6 1_555 1_555
C6 C1 1_555 1_555
C7 C2 1_555 1_555
C8 C6 1_555 1_555
H1 O1 1_555 1_555
H2 O2 1_555 1_555
H3 C3 1_555 1_555
H4 C5 1_555 1_555
H5 C7 1_555 1_555
H6 C7 1_555 1_555
H7 C8 1_555 1_555
H8 C8 1_555 1_555
O3 C12 1_555 1_555
O4 C9 1_555 1_555
C9 C10 1_555 1_555
C10 C11 1_555 1_555
C11 C12 1_555 1_555
C12 C13 1_555 1_555
C13 C14 1_555 1_555
C14 C9 1_555 1_555
C15 C11 1_555 1_555
C16 C13 1_555 1_555
H9 O3 1_555 1_555
H10 O4 1_555 1_555
H11 C10 1_555 1_555
H12 C14 1_555 1_555
H13 C15 1_555 1_555
H14 C15 1_555 1_555
H15 C16 1_555 1_555
H16 C16 1_555 1_555
C6I C8 1_555 1_555
C1I C6I 1_555 1_555
O1I C1I 1_555 1_555
H1I O1I 1_555 1_555
C2I C1I 1_555 1_555
C3I C2I 1_555 1_555
C4I C3I 1_555 1_555
O2I C4I 1_555 1_555
H2I O2I 1_555 1_555
C5I C6I 1_555 1_555
H4I C5I 1_555 1_555
H3I C3I 1_555 1_555
C7I C2I 1_555 1_555
C2C C7I 1_555 1_555
C1C C2C 1_555 1_555
O1C C1C 1_555 1_555
H1C O1C 1_555 1_555
C6C C1C 1_555 1_555
C5C C6C 1_555 1_555
C4C C5C 1_555 1_555
O2C C4C 1_555 1_555
H2C O2C 1_555 1_555
C3C C2C 1_555 1_555
H3C C3C 1_555 1_555
H4C C5C 1_555 1_555
C8C C6C 1_555 1_555
C6J C8C 1_555 1_555
C1J C6J 1_555 1_555
O1J C1J 1_555 1_555
H1J O1J 1_555 1_555
C2J C7 1_555 1_555
C3J C2J 1_555 1_555
C4J C3J 1_555 1_555
O2J C4J 1_555 1_555
H2J O2J 1_555 1_555
C5J C6J 1_555 1_555
H4J C5J 1_555 1_555
H3J C3J 1_555 1_555
H7C C8C 1_555 1_555
H8C C8C 1_555 1_555
H5I C7I 1_555 1_555
H6I C7I 1_555 1_555
C13I C16 1_555 1_555
C12I C13I 1_555 1_555
O3I C12I 1_555 1_555
H9I O3I 1_555 1_555
C11I C12I 1_555 1_555
C10I C11I 1_555 1_555
C9I C10I 1_555 1_555
O4I C9I 1_555 1_555
H10I O4I 1_555 1_555
C14I C13I 1_555 1_555
H12I C14I 1_555 1_555
H11I C10I 1_555 1_555
C15I C11I 1_555 1_555
C11B C15I 1_555 1_555
C10B C11B 1_555 1_555
C9B C10B 1_555 1_555
O4B C9B 1_555 1_555
H10B O4B 1_555 1_555
C14B C9B 1_555 1_555
C13B C14B 1_555 1_555
C12B C11B 1_555 1_555
O3B C12B 1_555 1_555
H9B O3B 1_555 1_555
C16B C13B 1_555 1_555
C13K C16B 1_555 1_555
C12K C13K 1_555 1_555
O3K C12K 1_555 1_555
H9K O3K 1_555 1_555
C11K C15 1_555 1_555
C10K C11K 1_555 1_555
C9K C10K 1_555 1_555
O4K C9K 1_555 1_555
H10K O4K 1_555 1_555
C14K C13K 1_555 1_555
H12K C14K 1_555 1_555
H11K C10K 1_555 1_555
H15B C16B 1_555 1_555
H16B C16B 1_555 1_555
H12B C14B 1_555 1_555
H11B C10B 1_555 1_555
H13I C15I 1_555 1_555
H14I C15I 1_555 1_555
C4I C5I 1_555 1_555
C4C C3C 1_555 1_555
C1J C2J 1_555 1_555
C4J C5J 1_555 1_555
C9I C14I 1_555 1_555
C13B C12B 1_555 1_555
C12K C11K 1_555 1_555
C9K C14K 1_555 1_555

#END
