
#######################################################################
#
#                 Cambridge Crystallographic Data Centre
#                                CCDC 
#
#######################################################################
#
# If this CIF has been generated from an entry in the Cambridge 
# Structural Database, then it will include bibliographic, chemical, 
# crystal, experimental, refinement or atomic coordinate data resulting 
# from the CCDC's data processing and validation procedures.
#
#######################################################################

data_TIFZIT
_chemical_formula_moiety         'C16 H14 N2'
_chemical_name_systematic        1-Benzyl-3-phenyl-1H-pyrazole
_symmetry_cell_setting           monoclinic
_symmetry_space_group_name_H-M   'P 21'
_symmetry_Int_Tables_number      4
_space_group_name_Hall           'P 2yb'
loop_
_symmetry_equiv_pos_site_id
_symmetry_equiv_pos_as_xyz
1 x,y,z
2 -x,1/2+y,-z
_cell_length_a                   6.026(2)
_cell_length_b                   8.583(3)
_cell_length_c                   12.410(5)
_cell_angle_alpha                90
_cell_angle_beta                 92.864(4)
_cell_angle_gamma                90
_cell_volume                     641.058
_exptl_crystal_colour            yellow
_exptl_crystal_description       block
_cell_formula_units_Z            2
loop_
_atom_site_label
_atom_site_type_symbol
_atom_site_fract_x
_atom_site_fract_y
_atom_site_fract_z
C1 C 0.6539(4) 0.6136(4) 0.3220(2)
H1 H 0.7711 0.5512 0.3020
C2 C 0.6751(6) 0.6990(4) 0.4159(2)
H2 H 0.8048 0.6918 0.4595
C3 C 0.5069(6) 0.7939(4) 0.4454(2)
H3 H 0.5227 0.8524 0.5084
C4 C 0.3150(6) 0.8030(4) 0.3820(2)
H4 H 0.2005 0.8681 0.4016
C5 C 0.2912(4) 0.7151(3) 0.28849(19)
H5 H 0.1593 0.7206 0.2464
C6 C 0.4603(4) 0.6193(3) 0.25672(17)
C7 C 0.4403(3) 0.5266(3) 0.15761(16)
C8 C 0.5939(4) 0.4257(3) 0.11565(19)
H6 H 0.7375 0.4058 0.1432
C9 C 0.4918(5) 0.3620(3) 0.0260(2)
H7 H 0.5522 0.2898 -0.0201
C10 C 0.1110(4) 0.3891(4) -0.06485(19)
H8 H -0.0292 0.3818 -0.0301
H9 H 0.1405 0.2882 -0.0964
C11 C 0.0882(4) 0.5075(3) -0.15359(18)
C12 C 0.2493(4) 0.5219(4) -0.22802(19)
H10 H 0.3768 0.4609 -0.2209
C13 C 0.2247(5) 0.6249(5) -0.3124(2)
H11 H 0.3343 0.6321 -0.3623
C14 C 0.0402(6) 0.7165(4) -0.3232(2)
H12 H 0.0242 0.7874 -0.3798
C15 C -0.1223(6) 0.7030(4) -0.2497(3)
H13 H -0.2495 0.7643 -0.2568
C16 C -0.0967(4) 0.5996(4) -0.1663(2)
H14 H -0.2075 0.5916 -0.1170
N1 N 0.2504(3) 0.5255(2) 0.09684(14)
N2 N 0.2865(3) 0.4236(3) 0.01698(14)
loop_
_geom_bond_atom_site_label_1
_geom_bond_atom_site_label_2
_geom_bond_site_symmetry_1
_geom_bond_site_symmetry_2
C1 H1 1_555 1_555
C2 C1 1_555 1_555
H2 C2 1_555 1_555
C3 C2 1_555 1_555
H3 C3 1_555 1_555
C4 C3 1_555 1_555
H4 C4 1_555 1_555
C5 C4 1_555 1_555
H5 C5 1_555 1_555
C6 C1 1_555 1_555
C7 C6 1_555 1_555
C8 C7 1_555 1_555
H6 C8 1_555 1_555
C9 C8 1_555 1_555
H7 C9 1_555 1_555
C10 H8 1_555 1_555
H9 C10 1_555 1_555
C11 C10 1_555 1_555
C12 C11 1_555 1_555
H10 C12 1_555 1_555
C13 C12 1_555 1_555
H11 C13 1_555 1_555
C14 C13 1_555 1_555
H12 C14 1_555 1_555
C15 C14 1_555 1_555
H13 C15 1_555 1_555
C16 C11 1_555 1_555
H14 C16 1_555 1_555
N1 C7 1_555 1_555
N2 C9 1_555 1_555
C5 C6 1_555 1_555
C10 N2 1_555 1_555
C15 C16 1_555 1_555
N1 N2 1_555 1_555

#END
