
#######################################################################
#
#                 Cambridge Crystallographic Data Centre
#                                CCDC 
#
#######################################################################
#
# If this CIF has been generated from an entry in the Cambridge 
# Structural Database, then it will include bibliographic, chemical, 
# crystal, experimental, refinement or atomic coordinate data resulting 
# from the CCDC's data processing and validation procedures.
#
#######################################################################

data_TIGMOO
_chemical_formula_moiety         'C27 H23 F1 N2 O3'
_chemical_name_systematic        
3-[(3-{[(2,3-dihydroxyphenyl)methylidene]amino}phenyl)methylidene]-5-[(2-fluorophenyl)methylidene]-1-methylpiperidin-4-one
_symmetry_cell_setting           triclinic
_symmetry_space_group_name_H-M   'P -1'
_symmetry_Int_Tables_number      2
_space_group_name_Hall           '-P 1'
loop_
_symmetry_equiv_pos_site_id
_symmetry_equiv_pos_as_xyz
1 x,y,z
2 -x,-y,-z
_cell_length_a                   7.0689(5)
_cell_length_b                   8.2072(5)
_cell_length_c                   20.1397(16)
_cell_angle_alpha                94.401(6)
_cell_angle_beta                 97.829(6)
_cell_angle_gamma                106.575(6)
_cell_volume                     1101.18
_exptl_crystal_colour            'light bronze'
_exptl_crystal_description       plate
_cell_formula_units_Z            2
loop_
_atom_site_label
_atom_site_type_symbol
_atom_site_fract_x
_atom_site_fract_y
_atom_site_fract_z
C1 C 0.2270(3) 0.2496(3) 0.76231(10)
C2 C 0.2252(3) 0.1517(3) 0.69695(10)
C3 C 0.4174(3) 0.1906(3) 0.66868(11)
H1 H 0.4945 0.1171 0.6851
H2 H 0.3878 0.1681 0.6198
C4 C 0.5997(3) 0.3963(3) 0.76189(9)
H3 H 0.6874 0.5123 0.7751
H4 H 0.6746 0.3179 0.7745
C5 C 0.4224(3) 0.3675(2) 0.79797(9)
C6 C 0.0524(3) 0.0373(3) 0.66718(11)
H5 H -0.0557 0.0324 0.6894
C7 C 0.0072(4) -0.0812(3) 0.60512(11)
C8 C -0.1871(5) -0.1395(4) 0.57069(13)
C9 C -0.2464(6) -0.2508(4) 0.51297(16)
H6 H -0.3799 -0.2870 0.4924
C10 C -0.1096(8) -0.3085(4) 0.48576(17)
H7 H -0.1470 -0.3816 0.4455
C11 C 0.0855(7) -0.2578(4) 0.51830(17)
H8 H 0.1796 -0.2993 0.5004
C12 C 0.1434(5) -0.1460(3) 0.57746(14)
H9 H 0.2759 -0.1140 0.5989
C13 C 0.4239(3) 0.4449(2) 0.85882(9)
H10 H 0.2995 0.4232 0.8724
C14 C 0.5907(3) 0.5585(2) 0.90749(9)
C15 C 0.5489(2) 0.6679(2) 0.95580(9)
H11 H 0.4176 0.6703 0.9541
C16 C 0.6949(3) 0.7734(2) 1.00643(9)
C17 C 0.8914(3) 0.7676(3) 1.00944(10)
H12 H 0.9920 0.8359 1.0432
C18 C 0.9348(3) 0.6604(3) 0.96222(10)
H13 H 1.0663 0.6583 0.9643
C19 C 0.7894(3) 0.5553(3) 0.91160(10)
H14 H 0.8231 0.4830 0.8805
C20 C 0.7547(3) 0.9895(2) 1.09784(10)
H15 H 0.8902 1.0190 1.0949
C21 C 0.6905(3) 1.0785(2) 1.15058(9)
C22 C 0.4890(2) 1.0333(2) 1.15879(9)
C23 C 0.4332(3) 1.1183(2) 1.21175(10)
C24 C 0.5736(3) 1.2464(3) 1.25530(11)
H16 H 0.5349 1.3020 1.2907
C25 C 0.7720(3) 1.2933(3) 1.24698(12)
H17 H 0.8661 1.3813 1.2762
C26 C 0.8297(3) 1.2095(3) 1.19545(11)
H18 H 0.9636 1.2406 1.1903
C27 C 0.7062(3) 0.4162(4) 0.65468(11)
H19 H 0.7912 0.3464 0.6662
H20 H 0.7794 0.5346 0.6685
H21 H 0.6621 0.3988 0.6067
F1 F -0.3275(3) -0.0814(3) 0.59540(10)
N1 N 0.5334(2) 0.3691(2) 0.68888(8)
N2 N 0.6306(2) 0.8707(2) 1.05465(8)
O1 O 0.0748(2) 0.2306(2) 0.78767(8)
O2 O 0.34485(18) 0.90889(19) 1.11746(7)
H22 H 0.3942 0.8690 1.0880
O3 O 0.2381(2) 1.0789(2) 1.22059(10)
H23 H 0.1763 0.9836 1.2007
loop_
_geom_bond_atom_site_label_1
_geom_bond_atom_site_label_2
_geom_bond_site_symmetry_1
_geom_bond_site_symmetry_2
C1 C2 1_555 1_555
C2 C3 1_555 1_555
C3 H1 1_555 1_555
H2 C3 1_555 1_555
C4 H3 1_555 1_555
H4 C4 1_555 1_555
C5 C1 1_555 1_555
C6 C2 1_555 1_555
H5 C6 1_555 1_555
C7 C6 1_555 1_555
C8 C7 1_555 1_555
C9 C8 1_555 1_555
H6 C9 1_555 1_555
C10 C9 1_555 1_555
H7 C10 1_555 1_555
C11 C10 1_555 1_555
H8 C11 1_555 1_555
C12 C7 1_555 1_555
H9 C12 1_555 1_555
C13 C5 1_555 1_555
H10 C13 1_555 1_555
C14 C13 1_555 1_555
C15 C14 1_555 1_555
H11 C15 1_555 1_555
C16 C15 1_555 1_555
C17 C16 1_555 1_555
H12 C17 1_555 1_555
C18 C17 1_555 1_555
H13 C18 1_555 1_555
C19 C14 1_555 1_555
H14 C19 1_555 1_555
C20 H15 1_555 1_555
C21 C20 1_555 1_555
C22 C21 1_555 1_555
C23 C22 1_555 1_555
C24 C23 1_555 1_555
H16 C24 1_555 1_555
C25 C24 1_555 1_555
H17 C25 1_555 1_555
C26 C21 1_555 1_555
H18 C26 1_555 1_555
C27 H19 1_555 1_555
H20 C27 1_555 1_555
H21 C27 1_555 1_555
F1 C8 1_555 1_555
N1 C3 1_555 1_555
N2 C16 1_555 1_555
O1 C1 1_555 1_555
O2 C22 1_555 1_555
H22 O2 1_555 1_555
O3 C23 1_555 1_555
H23 O3 1_555 1_555
C4 C5 1_555 1_555
C4 N1 1_555 1_555
C11 C12 1_555 1_555
C18 C19 1_555 1_555
C20 N2 1_555 1_555
C25 C26 1_555 1_555
C27 N1 1_555 1_555

#END
