
#######################################################################
#
#                 Cambridge Crystallographic Data Centre
#                                CCDC 
#
#######################################################################
#
# If this CIF has been generated from an entry in the Cambridge 
# Structural Database, then it will include bibliographic, chemical, 
# crystal, experimental, refinement or atomic coordinate data resulting 
# from the CCDC's data processing and validation procedures.
#
#######################################################################

data_TIHDAS
_chemical_formula_moiety         'C66 H66 N2 O10,3(C6 H6),H2 O1'
_chemical_name_systematic        
'10,16,36,42-tetrabutoxy-28,50,54,56-tetraoxa-13,39-diazatridecacyclo[43.7.1.1^3,51^.1^23,27^.1^25,29^.0^2,7^.0^6,11^.0^15,20^.0^19,24^.0^32,37^.0^33,55^.0^41,46^.0^49,53^]hexapentaconta-2,4,6,8,10,15,17,19,21,23,29(55),30,32,34,36,41,43,45,47,49(53)-icosaene-12,40-dione tris(benzene) monohydrate'
_symmetry_cell_setting           monoclinic
_symmetry_space_group_name_H-M   'P 21/m'
_symmetry_Int_Tables_number      11
_space_group_name_Hall           '-P 2yb'
loop_
_symmetry_equiv_pos_site_id
_symmetry_equiv_pos_as_xyz
1 x,y,z
2 -x,1/2+y,-z
3 -x,-y,-z
4 x,1/2-y,z
_cell_length_a                   13.6519(8)
_cell_length_b                   15.7069(9)
_cell_length_c                   17.7443(10)
_cell_angle_alpha                90
_cell_angle_beta                 93.209(3)
_cell_angle_gamma                90
_cell_volume                     3798.93
_exptl_crystal_colour            colorless
_exptl_crystal_description       block
_cell_formula_units_Z            2
loop_
_atom_site_label
_atom_site_type_symbol
_atom_site_fract_x
_atom_site_fract_y
_atom_site_fract_z
O1 O 0.1110(2) 0.67668(19) 0.8924(2)
C1 C 1.0892(13) 0.4328(11) 0.6603(8)
H1 H 1.0659 0.4207 0.7105
H2 H 1.1489 0.4675 0.6655
H3 H 1.1036 0.3792 0.6349
N1 N 0.5403(3) 0.51035(18) 0.74705(16)
H4 H 0.5567 0.5645 0.7503
C2 C 0.0967(5) 0.7500 0.9387(5)
H5 H 0.0267 0.7500 0.9526
O2 O 0.4725(2) 0.40003(16) 0.80498(15)
C3 C 0.1584(5) 0.7500 1.0087(4)
H6 H 0.1447 0.6989 1.0390
O3 O 0.64918(18) 0.51938(16) 0.90939(15)
C4 C 0.2641(4) 0.7500 0.9881(3)
H7 H 0.3092 0.7500 1.0345
C5 C 0.2064(3) 0.6439(2) 0.8920(3)
O4 O 0.7299(3) 0.51012(19) 0.61618(18)
O5 O 0.2093(2) 0.6764(2) 0.49786(18)
C6 C 0.2811(3) 0.6716(2) 0.9403(2)
C7 C 0.3742(3) 0.6295(2) 0.9372(2)
C8 C 0.4527(3) 0.6435(2) 0.99046(19)
H8 H 0.4426 0.6792 1.0326
C9 C 0.5429(3) 0.6076(2) 0.9836(2)
H9 H 0.5943 0.6183 1.0207
C10 C 0.3088(3) 0.5470(2) 0.8295(2)
H10 H 0.3175 0.5073 0.7901
C11 C 0.3888(3) 0.5685(2) 0.87807(19)
C12 C 0.4836(3) 0.5338(2) 0.8706(2)
C13 C 0.5594(3) 0.5547(2) 0.9215(2)
C14 C 0.2173(3) 0.5819(3) 0.8374(3)
H11 H 0.1626 0.5639 0.8060
C15 C 0.7300(3) 0.5427(3) 0.9611(3)
H12 H 0.7194 0.5195 1.0119
H13 H 0.7345 0.6054 0.9650
C16 C 0.8201(4) 0.5088(4) 0.9339(4)
H14 H 0.8094 0.4484 0.9198
H15 H 0.8714 0.5105 0.9756
C17 C 0.4734(3) 0.5659(2) 0.5830(2)
C18 C 0.5601(4) 0.5282(2) 0.6119(2)
C19 C 0.5589(4) 0.4650(3) 0.6773(2)
H16 H 0.5071 0.4219 0.6666
H17 H 0.6228 0.4352 0.6829
C20 C 0.5000(2) 0.4746(2) 0.8060(2)
C21 C 0.9541(6) 0.5235(6) 0.8488(6)
H18 H 0.9936 0.5113 0.8953
H19 H 0.9872 0.5668 0.8196
H20 H 0.9461 0.4713 0.8188
C22 C 0.8568(6) 0.5553(5) 0.8678(5)
H21 H 0.8098 0.5480 0.8238
H22 H 0.8613 0.6168 0.8795
C23 C 0.3806(4) 0.5454(3) 0.6092(2)
H23 H 0.3768 0.5050 0.6487
C24 C 0.2966(4) 0.5814(3) 0.5798(3)
H24 H 0.2351 0.5643 0.5974
C25 C 0.3007(4) 0.6445(3) 0.5229(2)
C26 C 0.6510(4) 0.6040(2) 0.5230(2)
H25 H 0.7115 0.6152 0.5011
C27 C 0.5675(3) 0.6434(2) 0.4942(2)
H26 H 0.5719 0.6818 0.4532
C28 C 0.4756(3) 0.6286(2) 0.5234(2)
C29 C 0.3886(3) 0.6721(2) 0.4976(2)
C30 C 0.6492(3) 0.5490(2) 0.5827(2)
C31 C 0.8260(4) 0.5266(3) 0.5879(3)
H27 H 0.8409 0.5882 0.5915
H28 H 0.8263 0.5096 0.5341
C32 C 0.9001(6) 0.4784(5) 0.6321(4)
H29 H 0.8811 0.4176 0.6299
H30 H 0.8980 0.4967 0.6854
C33 C 1.0039(8) 0.4851(7) 0.6100(7)
H31 H 1.0221 0.5461 0.6110
H32 H 1.0060 0.4657 0.5571
C34 C 0.2090(5) 0.7500 0.4524(4)
H33 H 0.1459 0.7500 0.4210
C35 C 0.2914(5) 0.7500 0.3984(4)
H34 H 0.2874 0.6988 0.3658
C36 C 0.3859(5) 0.7500 0.4470(3)
H35 H 0.4435 0.7500 0.4147
H6C H 0.1447 0.8011 1.0390
H34C H 0.2874 0.8012 0.3658
O1C O 0.1110(2) 0.82332(19) 0.8924(2)
C1C C 1.0892(13) 1.0672(11) 0.6603(8)
H1C H 1.0659 1.0793 0.7105
H2C H 1.1489 1.0325 0.6655
H3C H 1.1036 1.1208 0.6349
N1C N 0.5403(3) 0.98965(18) 0.74705(16)
H4C H 0.5567 0.9355 0.7503
O2C O 0.4725(2) 1.09997(16) 0.80498(15)
O3C O 0.64918(18) 0.98062(16) 0.90939(15)
C5C C 0.2064(3) 0.8561(2) 0.8920(3)
O4C O 0.7299(3) 0.98988(19) 0.61618(18)
O5C O 0.2093(2) 0.8236(2) 0.49786(18)
C6C C 0.2811(3) 0.8284(2) 0.9403(2)
C7C C 0.3742(3) 0.8705(2) 0.9372(2)
C8C C 0.4527(3) 0.8565(2) 0.99046(19)
H8C H 0.4426 0.8208 1.0326
C9C C 0.5429(3) 0.8924(2) 0.9836(2)
H9C H 0.5943 0.8817 1.0207
C10C C 0.3088(3) 0.9530(2) 0.8295(2)
H10C H 0.3175 0.9927 0.7901
C11C C 0.3888(3) 0.9315(2) 0.87807(19)
C12C C 0.4836(3) 0.9662(2) 0.8706(2)
C13C C 0.5594(3) 0.9453(2) 0.9215(2)
C14C C 0.2173(3) 0.9181(3) 0.8374(3)
H11C H 0.1626 0.9361 0.8060
C15C C 0.7300(3) 0.9573(3) 0.9611(3)
H12C H 0.7194 0.9805 1.0119
H13C H 0.7345 0.8946 0.9650
C16C C 0.8201(4) 0.9912(4) 0.9339(4)
H14C H 0.8094 1.0516 0.9198
H15C H 0.8714 0.9895 0.9756
C17C C 0.4734(3) 0.9341(2) 0.5830(2)
C18C C 0.5601(4) 0.9718(2) 0.6119(2)
C19C C 0.5589(4) 1.0350(3) 0.6773(2)
H16C H 0.5071 1.0781 0.6666
H17C H 0.6228 1.0648 0.6829
C20C C 0.5000(2) 1.0254(2) 0.8060(2)
C21C C 0.9541(6) 0.9765(6) 0.8488(6)
H18C H 0.9936 0.9887 0.8953
H19C H 0.9872 0.9332 0.8196
H20C H 0.9461 1.0287 0.8188
C22C C 0.8568(6) 0.9447(5) 0.8678(5)
H21C H 0.8098 0.9520 0.8238
H22C H 0.8613 0.8832 0.8795
C23C C 0.3806(4) 0.9546(3) 0.6092(2)
H23C H 0.3768 0.9950 0.6487
C24C C 0.2966(4) 0.9186(3) 0.5798(3)
H24C H 0.2351 0.9357 0.5974
C25C C 0.3007(4) 0.8555(3) 0.5229(2)
C26C C 0.6510(4) 0.8960(2) 0.5230(2)
H25C H 0.7115 0.8848 0.5011
C27C C 0.5675(3) 0.8566(2) 0.4942(2)
H26C H 0.5719 0.8182 0.4532
C28C C 0.4756(3) 0.8714(2) 0.5234(2)
C29C C 0.3886(3) 0.8279(2) 0.4976(2)
C30C C 0.6492(3) 0.9510(2) 0.5827(2)
C31C C 0.8260(4) 0.9734(3) 0.5879(3)
H27C H 0.8409 0.9118 0.5915
H28C H 0.8263 0.9904 0.5341
C32C C 0.9001(6) 1.0216(5) 0.6321(4)
H29C H 0.8811 1.0824 0.6299
H30C H 0.8980 1.0033 0.6854
C33C C 1.0039(8) 1.0149(7) 0.6100(7)
H31C H 1.0221 0.9539 0.6110
H32C H 1.0060 1.0343 0.5571
O6 O 0.4486(4) 0.2500 0.7073(3)
H38 H 0.438(4) 0.216(3) 0.735(3)
H38C H 0.438(4) 0.284(3) 0.735(3)
C37 C 0.4785(10) 0.7500 0.6969(5)
H39 H 0.4263 0.7500 0.6591
C38 C 0.5689(10) 0.7500 0.6764(4)
H40 H 0.5802 0.7500 0.6241
C39 C 0.6440(10) 0.7500 0.7246(7)
H41 H 0.7089 0.7500 0.7080
C40 C 0.6256(9) 0.7500 0.8086(6)
H42 H 0.6770 0.7500 0.8470
C41 C 0.5320(7) 0.7500 0.8230(4)
H43 H 0.5156 0.7500 0.8743
C42 C 0.4577(7) 0.7500 0.7692(4)
H44 H 0.3915 0.7500 0.7830
C43 C 0.1748(4) 0.3365(4) 0.8750(3)
H45 H 0.1730 0.3969 0.8740
C44 C 0.0959(4) 0.2937(4) 0.8900(4)
H46 H 0.0379 0.3235 0.9010
C45 C 0.2602(4) 0.2946(4) 0.8606(3)
H47 H 0.3180 0.3254 0.8508
C43C C 0.1748(4) 0.1635(4) 0.8750(3)
H45C H 0.1730 0.1031 0.8740
C44C C 0.0959(4) 0.2063(4) 0.8900(4)
H46C H 0.0379 0.1765 0.9010
C45C C 0.2602(4) 0.2054(4) 0.8606(3)
H47C H 0.3180 0.1746 0.8508
C46 C 0.7003(5) 0.2967(5) 0.8073(3)
H48 H 0.6447 0.3290 0.8200
C47 C 0.7848(7) 0.3341(3) 0.7879(3)
H49 H 0.7879 0.3944 0.7854
C48 C 0.8609(5) 0.2904(6) 0.7728(3)
H50 H 0.9191 0.3197 0.7613
C46C C 0.7003(5) 0.2033(5) 0.8073(3)
H48C H 0.6447 0.1710 0.8200
C47C C 0.7848(7) 0.1659(3) 0.7879(3)
H49C H 0.7879 0.1056 0.7854
C48C C 0.8609(5) 0.2096(6) 0.7728(3)
H50C H 0.9191 0.1803 0.7613
H36? H 0.1447 0.6989 1.0390
H37? H 0.2874 0.6988 0.3658
loop_
_geom_bond_atom_site_label_1
_geom_bond_atom_site_label_2
_geom_bond_site_symmetry_1
_geom_bond_site_symmetry_2
O1 C2 1_555 1_555
C1 H1 1_555 1_555
H2 C1 1_555 1_555
H3 C1 1_555 1_555
N1 H4 1_555 1_555
C2 H5 1_555 1_555
O2 C20 1_555 1_555
C3 C2 1_555 1_555
H6 C3 1_555 1_555
O3 C13 1_555 1_555
C4 C3 1_555 1_555
H7 C4 1_555 1_555
C5 O1 1_555 1_555
O4 C30 1_555 1_555
O5 C25 1_555 1_555
C6 C4 1_555 1_555
C7 C6 1_555 1_555
C8 C7 1_555 1_555
H8 C8 1_555 1_555
C9 C8 1_555 1_555
H9 C9 1_555 1_555
C10 H10 1_555 1_555
C11 C7 1_555 1_555
C12 C11 1_555 1_555
C13 C9 1_555 1_555
C14 C5 1_555 1_555
H11 C14 1_555 1_555
C15 O3 1_555 1_555
H12 C15 1_555 1_555
H13 C15 1_555 1_555
C16 C15 1_555 1_555
H14 C16 1_555 1_555
H15 C16 1_555 1_555
C17 C18 1_555 1_555
C18 C19 1_555 1_555
C19 N1 1_555 1_555
H16 C19 1_555 1_555
H17 C19 1_555 1_555
C20 N1 1_555 1_555
C21 H18 1_555 1_555
H19 C21 1_555 1_555
H20 C21 1_555 1_555
C22 C16 1_555 1_555
H21 C22 1_555 1_555
H22 C22 1_555 1_555
C23 C17 1_555 1_555
H23 C23 1_555 1_555
C24 C23 1_555 1_555
H24 C24 1_555 1_555
C25 C24 1_555 1_555
C26 H25 1_555 1_555
C27 C26 1_555 1_555
H26 C27 1_555 1_555
C28 C17 1_555 1_555
C29 C25 1_555 1_555
C30 C18 1_555 1_555
C31 O4 1_555 1_555
H27 C31 1_555 1_555
H28 C31 1_555 1_555
C32 C31 1_555 1_555
H29 C32 1_555 1_555
H30 C32 1_555 1_555
C33 C1 1_555 1_555
H31 C33 1_555 1_555
H32 C33 1_555 1_555
C34 O5 1_555 1_555
H33 C34 1_555 1_555
C35 C34 1_555 1_555
H34 C35 1_555 1_555
C36 C29 1_555 1_555
H35 C36 1_555 1_555
O6 H38 1_555 1_555
C37 H39 1_555 1_555
C38 C37 1_555 1_555
H40 C38 1_555 1_555
C39 C38 1_555 1_555
H41 C39 1_555 1_555
C40 C39 1_555 1_555
H42 C40 1_555 1_555
C41 C40 1_555 1_555
H43 C41 1_555 1_555
C42 C37 1_555 1_555
H44 C42 1_555 1_555
C43 H45 1_555 1_555
C44 C43 1_555 1_555
H46 C44 1_555 1_555
C45 C43 1_555 1_555
H47 C45 1_555 1_555
C46 H48 1_555 1_555
C47 C46 1_555 1_555
H49 C47 1_555 1_555
C48 C47 1_555 1_555
H50 C48 1_555 1_555
H6C C3 1_555 1_555
H34C C35 1_555 1_555
O1C C2 1_555 1_555
C1C H1C 1_555 1_555
H2C C1C 1_555 1_555
H3C C1C 1_555 1_555
N1C H4C 1_555 1_555
O2C C20C 1_555 1_555
O3C C13C 1_555 1_555
C5C O1C 1_555 1_555
O4C C30C 1_555 1_555
O5C C34 1_555 1_555
C6C C4 1_555 1_555
C7C C6C 1_555 1_555
C8C C7C 1_555 1_555
H8C C8C 1_555 1_555
C9C C8C 1_555 1_555
H9C C9C 1_555 1_555
C10C H10C 1_555 1_555
C11C C7C 1_555 1_555
C12C C11C 1_555 1_555
C13C C9C 1_555 1_555
C14C C5C 1_555 1_555
H11C C14C 1_555 1_555
C15C O3C 1_555 1_555
H12C C15C 1_555 1_555
H13C C15C 1_555 1_555
C16C C15C 1_555 1_555
H14C C16C 1_555 1_555
H15C C16C 1_555 1_555
C17C C18C 1_555 1_555
C18C C19C 1_555 1_555
C19C N1C 1_555 1_555
H16C C19C 1_555 1_555
H17C C19C 1_555 1_555
C20C N1C 1_555 1_555
C21C H18C 1_555 1_555
H19C C21C 1_555 1_555
H20C C21C 1_555 1_555
C22C C16C 1_555 1_555
H21C C22C 1_555 1_555
H22C C22C 1_555 1_555
C23C C17C 1_555 1_555
H23C C23C 1_555 1_555
C24C C23C 1_555 1_555
H24C C24C 1_555 1_555
C25C O5C 1_555 1_555
C26C H25C 1_555 1_555
C27C C26C 1_555 1_555
H26C C27C 1_555 1_555
C28C C17C 1_555 1_555
C29C C36 1_555 1_555
C30C C18C 1_555 1_555
C31C O4C 1_555 1_555
H27C C31C 1_555 1_555
H28C C31C 1_555 1_555
C32C C31C 1_555 1_555
H29C C32C 1_555 1_555
H30C C32C 1_555 1_555
C33C C1C 1_555 1_555
H31C C33C 1_555 1_555
H32C C33C 1_555 1_555
H38C O6 1_555 1_555
C43C H45C 1_555 1_555
C44C C44 1_555 1_555
H46C C44C 1_555 1_555
C45C C45 1_555 1_555
H47C C45C 1_555 1_555
C46C C46 1_555 1_555
H48C C46C 1_555 1_555
C47C C46C 1_555 1_555
H49C C47C 1_555 1_555
C48C C48 1_555 1_555
H50C C48C 1_555 1_555
C5 C6 1_555 1_555
C10 C11 1_555 1_555
C10 C14 1_555 1_555
C12 C13 1_555 1_555
C12 C20 1_555 1_555
C21 C22 1_555 1_555
C26 C30 1_555 1_555
C27 C28 1_555 1_555
C28 C29 1_555 1_555
C32 C33 1_555 1_555
C35 C36 1_555 1_555
C41 C42 1_555 1_555
C5C C6C 1_555 1_555
C10C C11C 1_555 1_555
C10C C14C 1_555 1_555
C12C C13C 1_555 1_555
C12C C20C 1_555 1_555
C21C C22C 1_555 1_555
C24C C25C 1_555 1_555
C25C C29C 1_555 1_555
C26C C30C 1_555 1_555
C27C C28C 1_555 1_555
C28C C29C 1_555 1_555
C32C C33C 1_555 1_555
C43C C44C 1_555 1_555
C43C C45C 1_555 1_555
C47C C48C 1_555 1_555

#END
