
#######################################################################
#
#                 Cambridge Crystallographic Data Centre
#                                CCDC 
#
#######################################################################
#
# If this CIF has been generated from an entry in the Cambridge 
# Structural Database, then it will include bibliographic, chemical, 
# crystal, experimental, refinement or atomic coordinate data resulting 
# from the CCDC's data processing and validation procedures.
#
#######################################################################

data_TIHFAU
_chemical_formula_moiety         'C66 H66 N2 O10,C4 H4 N2,H2 O1'
_chemical_name_systematic        
'10,16,36,42-tetrabutoxy-28,50,54,56-tetraoxa-13,39-diazatridecacyclo[43.7.1.1^3,51^.1^23,27^.1^25,29^.0^2,7^.0^6,11^.0^15,20^.0^19,24^.0^32,37^.0^33,55^.0^41,46^.0^49,53^]hexapentaconta-2,4,6,8,10,15,17,19,21,23,29(55),30,32,34,36,41,43,45(53),46,48-icosaene-12,40-dione pyrazine monohydrate'
_symmetry_cell_setting           monoclinic
_symmetry_space_group_name_H-M   'P 21/m'
_symmetry_Int_Tables_number      11
_space_group_name_Hall           '-P 2yb'
loop_
_symmetry_equiv_pos_site_id
_symmetry_equiv_pos_as_xyz
1 x,y,z
2 -x,1/2+y,-z
3 -x,-y,-z
4 x,1/2-y,z
_cell_length_a                   11.5510(8)
_cell_length_b                   16.7298(11)
_cell_length_c                   17.9121(12)
_cell_angle_alpha                90
_cell_angle_beta                 94.897(3)
_cell_angle_gamma                90
_cell_volume                     3448.81
_exptl_crystal_colour            colorless
_exptl_crystal_description       block
_cell_formula_units_Z            2
loop_
_atom_site_label
_atom_site_type_symbol
_atom_site_fract_x
_atom_site_fract_y
_atom_site_fract_z
C1 C -0.0042(3) 0.7500 0.3787(2)
H1 H -0.0881 0.7500 0.3887
C2 C 0.0670(3) 0.7500 0.4528(2)
H2 H 0.0491 0.7020 0.4820
C3 C 0.1945(3) 0.7500 0.43771(19)
H3 H 0.2452 0.7500 0.4858
C4 C 0.2159(2) 0.67498(12) 0.39192(13)
C5 C 0.3226(2) 0.63154(12) 0.39733(12)
C6 C 0.4140(2) 0.64633(13) 0.45341(13)
H4 H 0.4041 0.6870 0.4893
C7 C 0.5153(2) 0.60476(13) 0.45787(13)
H5 H 0.5736 0.6160 0.4971
C8 C 0.5347(2) 0.54513(13) 0.40498(13)
C9 C 0.4468(2) 0.52607(12) 0.35037(13)
C10 C 0.3391(2) 0.56684(12) 0.34709(12)
C11 C 0.2448(2) 0.54574(14) 0.29478(14)
H6 H 0.2544 0.5040 0.2599
C12 C 0.1411(2) 0.58419(14) 0.29376(15)
H7 H 0.0779 0.5676 0.2599
C13 C 0.1270(2) 0.64845(13) 0.34280(14)
C14 C 0.7259(2) 0.51870(15) 0.46271(14)
H8 H 0.6956 0.5109 0.5122
H9 H 0.7540 0.5744 0.4597
C15 C 0.8235(2) 0.46119(16) 0.45306(15)
H10 H 0.7906 0.4066 0.4480
H11 H 0.8770 0.4621 0.4992
C16 C 0.8933(3) 0.4769(2) 0.38700(19)
H12 H 0.9255 0.5317 0.3908
H13 H 0.8414 0.4736 0.3402
C17 C 0.9932(3) 0.4168(2) 0.3834(2)
H14 H 1.0403 0.4315 0.3425
H15 H 0.9612 0.3631 0.3744
H16 H 1.0418 0.4174 0.4310
C18 C 0.4694(2) 0.46679(13) 0.28992(13)
C19 C 0.5607(3) 0.45592(13) 0.17129(13)
H17 H 0.4955 0.4208 0.1528
H18 H 0.6313 0.4226 0.1807
C20 C 0.2083(4) 0.7500 -0.0707(2)
H19 H 0.1414 0.7500 -0.1100
C21 C 0.3170(4) 0.7500 -0.1090(2)
H20 H 0.3200 0.7980 -0.1411
C22 C 0.4198(3) 0.7500 -0.04952(18)
H21 H 0.4950 0.7500 -0.0734
C23 C 0.2994(2) 0.64851(13) 0.00897(14)
C24 C 0.2787(3) 0.58419(15) 0.05629(15)
H22 H 0.2013 0.5689 0.0637
C25 C 0.3696(2) 0.54387(13) 0.09150(14)
H23 H 0.3551 0.5017 0.1250
C26 C 0.4853(2) 0.56341(12) 0.07923(12)
C27 C 0.5803(2) 0.51945(13) 0.11388(12)
C28 C 0.6906(3) 0.53921(15) 0.09982(14)
C29 C 0.7112(3) 0.60170(15) 0.04935(16)
H24 H 0.7883 0.6136 0.0383
C30 C 0.6209(2) 0.64469(13) 0.01672(14)
H25 H 0.6367 0.6866 -0.0168
C31 C 0.5051(2) 0.62962(12) 0.03061(12)
C32 C 0.4085(2) 0.67453(12) -0.00230(12)
C33 C 0.8923(2) 0.49995(17) 0.11309(17)
H26 H 0.9270 0.5531 0.1246
H27 H 0.8898 0.4912 0.0583
C34 C 0.9636(3) 0.43575(16) 0.15399(19)
H28 H 0.9692 0.4472 0.2084
H29 H 0.9238 0.3837 0.1458
C35 C 1.0835(3) 0.4299(2) 0.1286(2)
H30 H 1.1251 0.4807 0.1403
H31 H 1.0777 0.4227 0.0736
C36 C 1.1531(4) 0.3620(2) 0.1649(4)
H32 H 1.1173 0.3110 0.1488
H33 H 1.1546 0.3667 0.2195
H34 H 1.2327 0.3641 0.1499
N1 N 0.53398(18) 0.49551(10) 0.24003(10)
H35 H 0.5642 0.5433 0.2487
O1 O 0.01633(15) 0.68129(10) 0.33554(11)
O2 O 0.63614(14) 0.50362(9) 0.40394(9)
O3 O 0.4240(2) 0.40101(12) 0.28373(14)
O4 O 0.19793(16) 0.68153(11) -0.02489(11)
O5 O 0.77855(18) 0.49631(12) 0.13710(12)
H2C H 0.0491 0.7980 0.4820
C4C C 0.2159(2) 0.82502(12) 0.39192(13)
C5C C 0.3226(2) 0.86846(12) 0.39733(12)
C6C C 0.4140(2) 0.85367(13) 0.45341(13)
H4C H 0.4041 0.8130 0.4893
C7C C 0.5153(2) 0.89524(13) 0.45787(13)
H5C H 0.5736 0.8840 0.4971
C8C C 0.5347(2) 0.95487(13) 0.40498(13)
C9C C 0.4468(2) 0.97393(12) 0.35037(13)
C10C C 0.3391(2) 0.93316(12) 0.34709(12)
C11C C 0.2448(2) 0.95426(14) 0.29478(14)
H6C H 0.2544 0.9960 0.2599
C12C C 0.1411(2) 0.91581(14) 0.29376(15)
H7C H 0.0779 0.9324 0.2599
C13C C 0.1270(2) 0.85155(13) 0.34280(14)
C14C C 0.7259(2) 0.98130(15) 0.46271(14)
H8C H 0.6956 0.9891 0.5122
H9C H 0.7540 0.9256 0.4597
C15C C 0.8235(2) 1.03881(16) 0.45306(15)
H10C H 0.7906 1.0934 0.4480
H11C H 0.8770 1.0379 0.4992
C16C C 0.8933(3) 1.0231(2) 0.38700(19)
H12C H 0.9255 0.9683 0.3908
H13C H 0.8414 1.0264 0.3402
C17C C 0.9932(3) 1.0832(2) 0.3834(2)
H14C H 1.0403 1.0685 0.3425
H15C H 0.9612 1.1369 0.3744
H16C H 1.0418 1.0826 0.4310
C18C C 0.4694(2) 1.03321(13) 0.28992(13)
C19C C 0.5607(3) 1.04408(13) 0.17129(13)
H17C H 0.4955 1.0792 0.1528
H18C H 0.6313 1.0774 0.1807
H20C H 0.3200 0.7020 -0.1411
C23C C 0.2994(2) 0.85149(13) 0.00897(14)
C24C C 0.2787(3) 0.91581(15) 0.05629(15)
H22C H 0.2013 0.9311 0.0637
C25C C 0.3696(2) 0.95613(13) 0.09150(14)
H23C H 0.3551 0.9983 0.1250
C26C C 0.4853(2) 0.93659(12) 0.07923(12)
C27C C 0.5803(2) 0.98055(13) 0.11388(12)
C28C C 0.6906(3) 0.96079(15) 0.09982(14)
C29C C 0.7112(3) 0.89830(15) 0.04935(16)
H24C H 0.7883 0.8864 0.0383
C30C C 0.6209(2) 0.85531(13) 0.01672(14)
H25C H 0.6367 0.8134 -0.0168
C31C C 0.5051(2) 0.87038(12) 0.03061(12)
C32C C 0.4085(2) 0.82547(12) -0.00230(12)
C33C C 0.8923(2) 1.00005(17) 0.11309(17)
H26C H 0.9270 0.9469 0.1246
H27C H 0.8898 1.0088 0.0583
C34C C 0.9636(3) 1.06425(16) 0.15399(19)
H28C H 0.9692 1.0528 0.2084
H29C H 0.9238 1.1163 0.1458
C35C C 1.0835(3) 1.0701(2) 0.1286(2)
H30C H 1.1251 1.0193 0.1403
H31C H 1.0777 1.0773 0.0736
C36C C 1.1531(4) 1.1380(2) 0.1649(4)
H32C H 1.1173 1.1890 0.1488
H33C H 1.1546 1.1333 0.2195
H34C H 1.2327 1.1359 0.1499
N1C N 0.53398(18) 1.00449(10) 0.24003(10)
H35C H 0.5642 0.9567 0.2487
O1C O 0.01633(15) 0.81871(10) 0.33554(11)
O2C O 0.63614(14) 0.99638(9) 0.40394(9)
O3C O 0.4240(2) 1.09899(12) 0.28373(14)
O4C O 0.19793(16) 0.81847(11) -0.02489(11)
O5C O 0.77855(18) 1.00369(12) 0.13710(12)
C37 C 0.7043(4) 0.7089(2) 0.2576(3)
H36 H 0.7764 0.6812 0.2628
C38 C 0.5079(4) 0.7070(2) 0.2401(2)
H37 H 0.4365 0.6789 0.2325
N2 N 0.6060(4) 0.66715(15) 0.25058(16)
C37C C 0.7043(4) 0.7911(2) 0.2576(3)
H36C H 0.7764 0.8188 0.2628
C38C C 0.5079(4) 0.7930(2) 0.2401(2)
H37C H 0.4365 0.8211 0.2325
N2C N 0.6060(4) 0.83285(15) 0.25058(16)
O6 O 0.4186(3) 0.2500 0.19389(16)
H38 H 0.4287 0.2168 0.2312
H38C H 0.4287 0.2832 0.2312
H39? H 0.0491 0.7020 0.4820
H40? H 0.3200 0.7980 -0.1411
H41? H 0.4033 0.2973 0.2107
loop_
_geom_bond_atom_site_label_1
_geom_bond_atom_site_label_2
_geom_bond_site_symmetry_1
_geom_bond_site_symmetry_2
C1 H1 1_555 1_555
C2 C1 1_555 1_555
H2 C2 1_555 1_555
C3 C2 1_555 1_555
H3 C3 1_555 1_555
C4 C3 1_555 1_555
C5 C4 1_555 1_555
C6 C5 1_555 1_555
H4 C6 1_555 1_555
C7 C6 1_555 1_555
H5 C7 1_555 1_555
C8 C7 1_555 1_555
C9 C8 1_555 1_555
C10 C5 1_555 1_555
C11 C10 1_555 1_555
H6 C11 1_555 1_555
C12 C11 1_555 1_555
H7 C12 1_555 1_555
C13 C4 1_555 1_555
C14 H8 1_555 1_555
H9 C14 1_555 1_555
C15 C14 1_555 1_555
H10 C15 1_555 1_555
H11 C15 1_555 1_555
C16 C15 1_555 1_555
H12 C16 1_555 1_555
H13 C16 1_555 1_555
C17 C16 1_555 1_555
H14 C17 1_555 1_555
H15 C17 1_555 1_555
H16 C17 1_555 1_555
C18 C9 1_555 1_555
C19 H17 1_555 1_555
H18 C19 1_555 1_555
C20 H19 1_555 1_555
C21 C20 1_555 1_555
H20 C21 1_555 1_555
C22 C21 1_555 1_555
H21 C22 1_555 1_555
C23 C24 1_555 1_555
C24 H22 1_555 1_555
C25 C24 1_555 1_555
H23 C25 1_555 1_555
C26 C25 1_555 1_555
C27 C19 1_555 1_555
C28 C27 1_555 1_555
C29 C28 1_555 1_555
H24 C29 1_555 1_555
C30 C29 1_555 1_555
H25 C30 1_555 1_555
C31 C26 1_555 1_555
C32 C22 1_555 1_555
C33 H26 1_555 1_555
H27 C33 1_555 1_555
C34 C33 1_555 1_555
H28 C34 1_555 1_555
H29 C34 1_555 1_555
C35 C34 1_555 1_555
H30 C35 1_555 1_555
H31 C35 1_555 1_555
C36 C35 1_555 1_555
H32 C36 1_555 1_555
H33 C36 1_555 1_555
H34 C36 1_555 1_555
N1 C18 1_555 1_555
H35 N1 1_555 1_555
O1 C1 1_555 1_555
O2 C8 1_555 1_555
O3 C18 1_555 1_555
O4 C20 1_555 1_555
O5 C28 1_555 1_555
C37 H36 1_555 1_555
C38 H37 1_555 1_555
N2 C37 1_555 1_555
O6 H38 1_555 1_555
H2C C2 1_555 1_555
C4C C3 1_555 1_555
C5C C4C 1_555 1_555
C6C C5C 1_555 1_555
H4C C6C 1_555 1_555
C7C C6C 1_555 1_555
H5C C7C 1_555 1_555
C8C C7C 1_555 1_555
C9C C8C 1_555 1_555
C10C C5C 1_555 1_555
C11C C10C 1_555 1_555
H6C C11C 1_555 1_555
C12C C11C 1_555 1_555
H7C C12C 1_555 1_555
C13C C4C 1_555 1_555
C14C H8C 1_555 1_555
H9C C14C 1_555 1_555
C15C C14C 1_555 1_555
H10C C15C 1_555 1_555
H11C C15C 1_555 1_555
C16C C15C 1_555 1_555
H12C C16C 1_555 1_555
H13C C16C 1_555 1_555
C17C C16C 1_555 1_555
H14C C17C 1_555 1_555
H15C C17C 1_555 1_555
H16C C17C 1_555 1_555
C18C C9C 1_555 1_555
C19C H17C 1_555 1_555
H18C C19C 1_555 1_555
H20C C21 1_555 1_555
C23C C24C 1_555 1_555
C24C H22C 1_555 1_555
C25C C24C 1_555 1_555
H23C C25C 1_555 1_555
C26C C25C 1_555 1_555
C27C C19C 1_555 1_555
C28C C27C 1_555 1_555
C29C C28C 1_555 1_555
H24C C29C 1_555 1_555
C30C C29C 1_555 1_555
H25C C30C 1_555 1_555
C31C C26C 1_555 1_555
C32C C22 1_555 1_555
C33C H26C 1_555 1_555
H27C C33C 1_555 1_555
C34C C33C 1_555 1_555
H28C C34C 1_555 1_555
H29C C34C 1_555 1_555
C35C C34C 1_555 1_555
H30C C35C 1_555 1_555
H31C C35C 1_555 1_555
C36C C35C 1_555 1_555
H32C C36C 1_555 1_555
H33C C36C 1_555 1_555
H34C C36C 1_555 1_555
N1C C18C 1_555 1_555
H35C N1C 1_555 1_555
O1C C1 1_555 1_555
O2C C8C 1_555 1_555
O3C C18C 1_555 1_555
O4C C20 1_555 1_555
O5C C28C 1_555 1_555
C37C C37 1_555 1_555
H36C C37C 1_555 1_555
C38C C38 1_555 1_555
H37C C38C 1_555 1_555
N2C C37C 1_555 1_555
H38C O6 1_555 1_555
C9 C10 1_555 1_555
C12 C13 1_555 1_555
C13 O1 1_555 1_555
C14 O2 1_555 1_555
C19 N1 1_555 1_555
C23 C32 1_555 1_555
C23 O4 1_555 1_555
C26 C27 1_555 1_555
C30 C31 1_555 1_555
C31 C32 1_555 1_555
C33 O5 1_555 1_555
C38 N2 1_555 1_555
C9C C10C 1_555 1_555
C12C C13C 1_555 1_555
C13C O1C 1_555 1_555
C14C O2C 1_555 1_555
C19C N1C 1_555 1_555
C23C C32C 1_555 1_555
C23C O4C 1_555 1_555
C26C C27C 1_555 1_555
C30C C31C 1_555 1_555
C31C C32C 1_555 1_555
C33C O5C 1_555 1_555
C38C N2C 1_555 1_555

#END
