
#######################################################################
#
#                 Cambridge Crystallographic Data Centre
#                                CCDC 
#
#######################################################################
#
# If this CIF has been generated from an entry in the Cambridge 
# Structural Database, then it will include bibliographic, chemical, 
# crystal, experimental, refinement or atomic coordinate data resulting 
# from the CCDC's data processing and validation procedures.
#
#######################################################################

data_TIHJOL
_chemical_formula_moiety         'C16 H13 Cl1 O2'
_chemical_name_systematic        
2-(4-Chlorophenoxy)-1,2-dihydronaphthalen-1-ol
_symmetry_cell_setting           monoclinic
_symmetry_space_group_name_H-M   'P 21'
_symmetry_Int_Tables_number      4
_space_group_name_Hall           'P 2yb'
loop_
_symmetry_equiv_pos_site_id
_symmetry_equiv_pos_as_xyz
1 x,y,z
2 -x,1/2+y,-z
_cell_length_a                   11.2632(16)
_cell_length_b                   4.6207(6)
_cell_length_c                   13.8939(17)
_cell_angle_alpha                90
_cell_angle_beta                 110.966(3)
_cell_angle_gamma                90
_cell_volume                     675.218
_exptl_crystal_colour            white
_exptl_crystal_description       block
_chemical_melting_point          '125-126 deg.C'
_cell_formula_units_Z            2
loop_
_atom_site_label
_atom_site_type_symbol
_atom_site_fract_x
_atom_site_fract_y
_atom_site_fract_z
C1 C 1.0271(2) -0.3792(6) 0.64660(19)
H1 H 0.9607 -0.5109 0.6215
C2 C 1.1105(2) -0.3365(6) 0.59458(19)
H2 H 1.1002 -0.4389 0.5345
C3 C 1.2082(2) -0.1418(6) 0.63261(19)
C4 C 1.2261(2) 0.0099(7) 0.72249(19)
H3 H 1.2936 0.1386 0.7481
C5 C 1.1427(2) -0.0316(7) 0.77406(17)
H4 H 1.1534 0.0704 0.8343
C6 C 1.0432(2) -0.2253(5) 0.73576(18)
C7 C 0.8807(2) -0.0374(5) 0.79126(17)
H5 H 0.9319 0.1396 0.8084
C8 C 0.7741(2) 0.0011(6) 0.68866(18)
H6 H 0.7854 -0.0572 0.6284
C9 C 0.6650(2) 0.1170(7) 0.68383(18)
H7 H 0.6006 0.1410 0.6200
C10 C 0.6434(2) 0.2089(6) 0.77764(18)
C11 C 0.5447(2) 0.3987(7) 0.7741(2)
H8 H 0.4889 0.4644 0.7107
C12 C 0.5297(2) 0.4888(7) 0.8635(2)
H9 H 0.4636 0.6136 0.8602
C13 C 0.6116(3) 0.3953(7) 0.9570(2)
H10 H 0.6020 0.4598 1.0172
C14 C 0.7100(2) 0.2030(5) 0.96280(19)
H11 H 0.7642 0.1368 1.0266
C15 C 0.72677(19) 0.1118(5) 0.87397(17)
C16 C 0.82968(19) -0.1023(5) 0.87572(14)
H12 H 0.7919 -0.2962 0.8636
Cl1 Cl 1.30983(6) -0.0816(2) 0.56473(5)
O1 O 0.96116(16) -0.2794(4) 0.78824(13)
O2 O 0.92776(14) -0.1002(4) 0.97502(11)
H13 H 0.9723 -0.2445 0.9816
loop_
_geom_bond_atom_site_label_1
_geom_bond_atom_site_label_2
_geom_bond_site_symmetry_1
_geom_bond_site_symmetry_2
C1 H1 1_555 1_555
C2 C1 1_555 1_555
H2 C2 1_555 1_555
C3 C2 1_555 1_555
C4 C3 1_555 1_555
H3 C4 1_555 1_555
C5 C4 1_555 1_555
H4 C5 1_555 1_555
C6 C1 1_555 1_555
C7 H5 1_555 1_555
C8 C7 1_555 1_555
H6 C8 1_555 1_555
C9 C8 1_555 1_555
H7 C9 1_555 1_555
C10 C9 1_555 1_555
C11 C10 1_555 1_555
H8 C11 1_555 1_555
C12 C11 1_555 1_555
H9 C12 1_555 1_555
C13 C12 1_555 1_555
H10 C13 1_555 1_555
C14 C13 1_555 1_555
H11 C14 1_555 1_555
C15 C10 1_555 1_555
C16 C7 1_555 1_555
H12 C16 1_555 1_555
Cl1 C3 1_555 1_555
O1 C6 1_555 1_555
O2 C16 1_555 1_555
H13 O2 1_555 1_555
C5 C6 1_555 1_555
C7 O1 1_555 1_555
C14 C15 1_555 1_555
C15 C16 1_555 1_555

#END
