
#######################################################################
#
#                 Cambridge Crystallographic Data Centre
#                                CCDC 
#
#######################################################################
#
# If this CIF has been generated from an entry in the Cambridge 
# Structural Database, then it will include bibliographic, chemical, 
# crystal, experimental, refinement or atomic coordinate data resulting 
# from the CCDC's data processing and validation procedures.
#
#######################################################################

data_TIHKUR
_chemical_formula_moiety         'C25 H24 O2'
_chemical_name_systematic        
3-(Biphenyl-4-yl)-1-(4-t-butylphenyl)-3-hydroxyprop-2-en-1-one
_symmetry_cell_setting           triclinic
_symmetry_space_group_name_H-M   'P -1'
_symmetry_Int_Tables_number      2
_space_group_name_Hall           '-P 1'
loop_
_symmetry_equiv_pos_site_id
_symmetry_equiv_pos_as_xyz
1 x,y,z
2 -x,-y,-z
_cell_length_a                   6.5578(6)
_cell_length_b                   11.3548(13)
_cell_length_c                   14.1560(13)
_cell_angle_alpha                99.040(2)
_cell_angle_beta                 90.873(2)
_cell_angle_gamma                106.053(2)
_cell_volume                     998.492
_exptl_crystal_colour            colorless
_exptl_crystal_description       block
_chemical_melting_point          '396 K'
_cell_formula_units_Z            2
_exptl_crystal_recrystallization_method dichloromethane/ethanol
loop_
_atom_site_label
_atom_site_type_symbol
_atom_site_fract_x
_atom_site_fract_y
_atom_site_fract_z
C1 C 0.1848(7) 1.1478(4) 0.4765(3)
H1 H 0.0733 1.1238 0.5188
H2 H 0.2174 1.0750 0.4439
H3 H 0.1393 1.1902 0.4303
C2 C 0.3222(8) 1.3461(4) 0.5847(3)
H4 H 0.2566 1.3792 0.5380
H5 H 0.4452 1.4088 0.6155
H6 H 0.2229 1.3206 0.6318
C3 C 0.5520(7) 1.2707(6) 0.4652(3)
H7 H 0.4936 1.3017 0.4150
H8 H 0.5944 1.1987 0.4384
H9 H 0.6734 1.3338 0.4969
C7 C 0.3878(4) 1.2363(2) 0.53598(17)
C8 C 0.4578(4) 1.17304(19) 0.61368(15)
C9 C 0.3148(4) 1.0916(2) 0.65980(17)
H19 H 0.1705 1.0735 0.6430
C10 C 0.3788(3) 1.0358(2) 0.73024(16)
H20 H 0.2772 0.9821 0.7604
C11 C 0.5911(3) 1.05849(18) 0.75651(14)
C12 C 0.7339(4) 1.1413(2) 0.71199(17)
H21 H 0.8782 1.1599 0.7289
C13 C 0.6680(4) 1.1978(2) 0.64268(17)
H22 H 0.7694 1.2545 0.6147
C14 C 0.6698(3) 0.99895(19) 0.82931(15)
C15 C 0.5408(3) 0.91601(18) 0.88072(14)
H23 H 0.3940 0.8946 0.8695
C16 C 0.6269(3) 0.86427(19) 0.94871(15)
C17 C 0.5022(3) 0.77346(18) 1.00488(14)
C18 C 0.2822(3) 0.73328(18) 0.99912(15)
H24 H 0.2061 0.7648 0.9584
C19 C 0.1744(3) 0.64730(19) 1.05277(15)
H25 H 0.0265 0.6230 1.0485
C20 C 0.2820(3) 0.59616(18) 1.11318(14)
C21 C 0.5022(3) 0.6383(2) 1.11969(16)
H26 H 0.5784 0.6070 1.1605
C22 C 0.6108(3) 0.7254(2) 1.06730(16)
H27 H 0.7585 0.7524 1.0737
C23 C 0.1692(3) 0.50258(18) 1.17043(14)
C24 C -0.0199(3) 0.5076(2) 1.21068(17)
H28 H -0.0777 0.5713 1.2015
C25 C -0.1241(4) 0.4204(2) 1.26393(19)
H29 H -0.2509 0.4256 1.2903
C26 C -0.0412(4) 0.3262(2) 1.27805(18)
H30 H -0.1102 0.2680 1.3150
C27 C 0.1417(4) 0.3177(2) 1.23808(18)
H31 H 0.1961 0.2524 1.2466
C28 C 0.2482(4) 0.4050(2) 1.18479(16)
H32 H 0.3742 0.3982 1.1583
O1 O 0.8736(2) 1.02827(16) 0.84284(13)
O2 O 0.8298(2) 0.89287(17) 0.96452(13)
H33 H 0.887(4) 0.966(3) 0.909(2)
C4? C 0.1691(13) 1.2492(14) 0.5431(11)
H10? H 0.1317 1.2811 0.4885
H11? H 0.1632 1.3055 0.6006
H12? H 0.0710 1.1694 0.5450
C5? C 0.547(2) 1.3667(9) 0.5480(12)
H13? H 0.5053 1.4136 0.5043
H14? H 0.6867 1.3591 0.5346
H15? H 0.5496 1.4088 0.6126
C6? C 0.417(3) 1.1610(13) 0.4444(7)
H16? H 0.3188 1.0796 0.4374
H17? H 0.5601 1.1540 0.4446
H18? H 0.3928 1.2006 0.3919
loop_
_geom_bond_atom_site_label_1
_geom_bond_atom_site_label_2
_geom_bond_site_symmetry_1
_geom_bond_site_symmetry_2
C1 H1 1_555 1_555
H2 C1 1_555 1_555
H3 C1 1_555 1_555
C2 H4 1_555 1_555
H5 C2 1_555 1_555
H6 C2 1_555 1_555
C3 H7 1_555 1_555
H8 C3 1_555 1_555
H9 C3 1_555 1_555
C7 C1 1_555 1_555
C8 C7 1_555 1_555
C9 C8 1_555 1_555
H19 C9 1_555 1_555
C10 C9 1_555 1_555
H20 C10 1_555 1_555
C11 C10 1_555 1_555
C12 C11 1_555 1_555
H21 C12 1_555 1_555
C13 C8 1_555 1_555
H22 C13 1_555 1_555
C14 C11 1_555 1_555
C15 C14 1_555 1_555
H23 C15 1_555 1_555
C16 C15 1_555 1_555
C17 C16 1_555 1_555
C18 C17 1_555 1_555
H24 C18 1_555 1_555
C19 C18 1_555 1_555
H25 C19 1_555 1_555
C20 C19 1_555 1_555
C21 C20 1_555 1_555
H26 C21 1_555 1_555
C22 C17 1_555 1_555
H27 C22 1_555 1_555
C23 C20 1_555 1_555
C24 C23 1_555 1_555
H28 C24 1_555 1_555
C25 C24 1_555 1_555
H29 C25 1_555 1_555
C26 C25 1_555 1_555
H30 C26 1_555 1_555
C27 C26 1_555 1_555
H31 C27 1_555 1_555
C28 C23 1_555 1_555
H32 C28 1_555 1_555
O1 C14 1_555 1_555
O2 C16 1_555 1_555
H33 O2 1_555 1_555
C2 C7 1_555 1_555
C3 C7 1_555 1_555
C12 C13 1_555 1_555
C21 C22 1_555 1_555
C27 C28 1_555 1_555

#END
