
#######################################################################
#
#                 Cambridge Crystallographic Data Centre
#                                CCDC 
#
#######################################################################
#
# If this CIF has been generated from an entry in the Cambridge 
# Structural Database, then it will include bibliographic, chemical, 
# crystal, experimental, refinement or atomic coordinate data resulting 
# from the CCDC's data processing and validation procedures.
#
#######################################################################

data_TIHKAY
_chemical_formula_moiety         'C24 H26 I1 N1 O2 S1'
_chemical_name_systematic        
4-(Iodo(phenyl)methylene)-2-((4-methylphenyl)sulfonyl)-2-azaspiro[4.6]undec-7-ene
_symmetry_cell_setting           monoclinic
_symmetry_space_group_name_H-M   'C 2/c'
_symmetry_Int_Tables_number      15
_space_group_name_Hall           '-C 2yn'
loop_
_symmetry_equiv_pos_site_id
_symmetry_equiv_pos_as_xyz
1 x,y,z
2 -x,y,1/2-z
3 1/2+x,1/2+y,z
4 1/2-x,1/2+y,1/2-z
5 -x,-y,-z
6 x,-y,1/2+z
7 1/2-x,1/2-y,-z
8 1/2+x,1/2-y,1/2+z
_cell_length_a                   30.0806(6)
_cell_length_b                   6.4962(2)
_cell_length_c                   27.0302(8)
_cell_angle_alpha                90
_cell_angle_beta                 122.7620(10)
_cell_angle_gamma                90
_cell_volume                     4441.74
_exptl_crystal_colour            colorless
_exptl_crystal_description       prism
_cell_formula_units_Z            8
loop_
_atom_site_label
_atom_site_type_symbol
_atom_site_fract_x
_atom_site_fract_y
_atom_site_fract_z
I1 I 0.49288(2) 0.20686(8) -0.06135(2)
S1 S 0.65719(8) 0.4617(3) 0.17588(9)
O1 O 0.7116(2) 0.4936(8) 0.2187(2)
O2 O 0.6208(2) 0.6316(7) 0.1525(2)
N1 N 0.6536(3) 0.3530(9) 0.1194(2)
C1 C 0.6326(3) 0.2770(11) 0.2034(3)
C2 C 0.6662(3) 0.1183(13) 0.2389(3)
H1 H 0.7027 0.1195 0.2523
C3 C 0.6452(4) -0.0403(12) 0.2539(3)
H2 H 0.6675 -0.1503 0.2773
C4 C 0.5919(4) -0.0437(13) 0.2356(3)
C5 C 0.5682(4) -0.2253(13) 0.2493(4)
H3 H 0.5959 -0.3266 0.2730
H4 H 0.5405 -0.2893 0.2125
H5 H 0.5529 -0.1766 0.2714
C6 C 0.5603(3) 0.1208(13) 0.2022(3)
H6 H 0.5244 0.1242 0.1908
C7 C 0.5798(3) 0.2798(12) 0.1852(3)
H7 H 0.5573 0.3891 0.1615
C8 C 0.6007(3) 0.3151(11) 0.0668(3)
H8 H 0.5850 0.4443 0.0447
H9 H 0.5769 0.2559 0.0778
C9 C 0.6098(3) 0.1640(10) 0.0307(3)
C10 C 0.5720(3) 0.0974(10) -0.0220(3)
C11 C 0.5763(3) -0.0497(10) -0.0618(3)
C12 C 0.5599(3) -0.2507(10) -0.0661(3)
H10 H 0.5460 -0.2966 -0.0437
C13 C 0.5638(3) -0.3867(12) -0.1038(3)
H11 H 0.5517 -0.5243 -0.1075
C14 C 0.5848(4) -0.3250(13) -0.1351(4)
H12 H 0.5888 -0.4196 -0.1593
C15 C 0.6001(4) -0.1237(13) -0.1312(3)
H13 H 0.6137 -0.0785 -0.1539
C16 C 0.5962(3) 0.0142(11) -0.0951(3)
H14 H 0.6071 0.1529 -0.0930
C17 C 0.6853(3) 0.1665(11) 0.1291(3)
H15 H 0.6768 0.0566 0.1481
H16 H 0.7236 0.1969 0.1537
C18 C 0.6684(3) 0.1042(11) 0.0659(3)
C19 C 0.6787(3) -0.1260(11) 0.0642(3)
H17 H 0.6533 -0.2054 0.0692
H18 H 0.6719 -0.1600 0.0250
C20 C 0.7335(3) -0.1926(13) 0.1101(4)
H19 H 0.7384 -0.2807 0.1408
C21 C 0.7773(4) -0.1312(16) 0.1099(5)
H20 H 0.8064 -0.2232 0.1272
C22 C 0.7834(5) 0.053(2) 0.0866(7)
H21 H 0.7769 0.0165 0.0476
H22 H 0.8215 0.0883 0.1118
C23 C 0.7559(4) 0.2424(13) 0.0778(4)
H23 H 0.7669 0.3388 0.0580
H24 H 0.7686 0.3008 0.1171
C24 C 0.6960(3) 0.2434(11) 0.0433(3)
H25 H 0.6830 0.2020 0.0024
H26 H 0.6843 0.3869 0.0419
loop_
_geom_bond_atom_site_label_1
_geom_bond_atom_site_label_2
_geom_bond_site_symmetry_1
_geom_bond_site_symmetry_2
I1 C10 1_555 1_555
S1 O1 1_555 1_555
O2 S1 1_555 1_555
N1 S1 1_555 1_555
C1 S1 1_555 1_555
C2 C1 1_555 1_555
H1 C2 1_555 1_555
C3 C2 1_555 1_555
H2 C3 1_555 1_555
C4 C3 1_555 1_555
C5 C4 1_555 1_555
H3 C5 1_555 1_555
H4 C5 1_555 1_555
H5 C5 1_555 1_555
C6 C4 1_555 1_555
H6 C6 1_555 1_555
C7 C1 1_555 1_555
H7 C7 1_555 1_555
C8 N1 1_555 1_555
H8 C8 1_555 1_555
H9 C8 1_555 1_555
C9 C8 1_555 1_555
C10 C9 1_555 1_555
C11 C10 1_555 1_555
C12 C11 1_555 1_555
H10 C12 1_555 1_555
C13 C12 1_555 1_555
H11 C13 1_555 1_555
C14 C13 1_555 1_555
H12 C14 1_555 1_555
C15 C14 1_555 1_555
H13 C15 1_555 1_555
C16 C11 1_555 1_555
H14 C16 1_555 1_555
C17 N1 1_555 1_555
H15 C17 1_555 1_555
H16 C17 1_555 1_555
C18 C9 1_555 1_555
C19 C18 1_555 1_555
H17 C19 1_555 1_555
H18 C19 1_555 1_555
C20 C19 1_555 1_555
H19 C20 1_555 1_555
C21 C20 1_555 1_555
H20 C21 1_555 1_555
C22 C21 1_555 1_555
H21 C22 1_555 1_555
H22 C22 1_555 1_555
C23 C22 1_555 1_555
H23 C23 1_555 1_555
H24 C23 1_555 1_555
C24 C18 1_555 1_555
H25 C24 1_555 1_555
H26 C24 1_555 1_555
C6 C7 1_555 1_555
C15 C16 1_555 1_555
C17 C18 1_555 1_555
C23 C24 1_555 1_555

#END
