
#######################################################################
#
#                 Cambridge Crystallographic Data Centre
#                                CCDC 
#
#######################################################################
#
# If this CIF has been generated from an entry in the Cambridge 
# Structural Database, then it will include bibliographic, chemical, 
# crystal, experimental, refinement or atomic coordinate data resulting 
# from the CCDC's data processing and validation procedures.
#
#######################################################################

data_TIHWOW
_chemical_formula_moiety         'C28 H32'
_chemical_name_systematic        
2-(Dispiro(2.0.2.1)hept-7'-ylidene)-hexaspiro(hexakis(cyclopropane)-1'',3:1''',4:1'''',6:1''''',7:1'''''',8:1''''''',9-tricyclo(3.2.2.0^1,5^)nonane)
_symmetry_cell_setting           triclinic
_symmetry_space_group_name_H-M   'P -1'
_symmetry_Int_Tables_number      2
_space_group_name_Hall           '-P 1'
loop_
_symmetry_equiv_pos_site_id
_symmetry_equiv_pos_as_xyz
1 x,y,z
2 -x,-y,-z
_cell_length_a                   10.599(3)
_cell_length_b                   13.098(6)
_cell_length_c                   15.778(6)
_cell_angle_alpha                94.01(4)
_cell_angle_beta                 99.98(3)
_cell_angle_gamma                91.53(3)
_cell_volume                     2150.29
_exptl_crystal_colour            colorless
_exptl_crystal_description       plate
_chemical_melting_point          '127-128 deg.C'
_cell_formula_units_Z            4
_exptl_crystal_recrystallization_method 'methanol/diethyl ether'
loop_
_atom_site_label
_atom_site_type_symbol
_atom_site_fract_x
_atom_site_fract_y
_atom_site_fract_z
C1 C 0.4034(3) 0.3210(2) 0.71026(18)
C2 C 0.3615(3) 0.3308(2) 0.79694(19)
C3 C 0.4830(3) 0.3356(2) 0.86377(19)
C4 C 0.5891(3) 0.3767(2) 0.82036(19)
C5 C 0.5530(3) 0.3370(2) 0.72663(19)
C6 C 0.5368(3) 0.4085(2) 0.65194(19)
C7 C 0.3930(3) 0.4084(2) 0.64981(19)
C8 C 0.4202(3) 0.2113(2) 0.67105(19)
C9 C 0.5648(3) 0.2234(2) 0.70048(19)
C10 C 0.2427(3) 0.3332(2) 0.8110(2)
C11 C 0.1051(3) 0.3235(2) 0.7747(2)
C12 C 0.0077(4) 0.3675(3) 0.7094(3)
C13 C 0.0152(4) 0.2522(3) 0.7138(3)
C14 C 0.1489(3) 0.3365(3) 0.8697(2)
C15 C 0.1166(4) 0.4035(3) 0.9428(3)
C16 C 0.1215(4) 0.2881(3) 0.9475(2)
C17 C 0.4813(4) 0.3540(3) 0.9589(2)
C18 C 0.5050(4) 0.2482(3) 0.9228(2)
C19 C 0.7242(4) 0.3962(3) 0.8681(2)
C20 C 0.6404(4) 0.4853(3) 0.8470(2)
C21 C 0.6235(4) 0.4945(3) 0.6342(2)
C22 C 0.5994(4) 0.3988(3) 0.5733(2)
C23 C 0.3162(4) 0.5009(3) 0.6586(3)
C24 C 0.2875(4) 0.4295(3) 0.5774(2)
C25 C 0.3339(4) 0.1189(3) 0.6693(2)
C26 C 0.3500(4) 0.1643(3) 0.5860(2)
C27 C 0.6459(4) 0.1495(3) 0.7519(2)
C28 C 0.6681(4) 0.1703(3) 0.6624(2)
H1 H -0.064(4) 0.402(3) 0.731(2)
H2 H 0.040(4) 0.399(3) 0.660(3)
H3 H -0.049(4) 0.216(3) 0.734(2)
H4 H 0.051(4) 0.213(3) 0.666(3)
H5 H 0.184(4) 0.447(3) 0.978(2)
H6 H 0.031(4) 0.431(3) 0.937(2)
H7 H 0.190(4) 0.261(3) 0.987(3)
H8 H 0.038(4) 0.252(3) 0.940(2)
H9 H 0.397(4) 0.369(3) 0.976(2)
H10 H 0.554(4) 0.400(3) 0.992(2)
H11 H 0.436(4) 0.191(3) 0.917(2)
H12 H 0.592(4) 0.224(3) 0.937(2)
H13 H 0.744(4) 0.377(3) 0.927(3)
H14 H 0.793(4) 0.383(3) 0.832(2)
H15 H 0.657(4) 0.531(3) 0.801(3)
H16 H 0.606(4) 0.518(3) 0.894(3)
H17 H 0.582(4) 0.557(3) 0.616(2)
H18 H 0.713(4) 0.499(3) 0.670(2)
H19 H 0.668(4) 0.348(3) 0.569(2)
H20 H 0.544(4) 0.406(3) 0.516(3)
H21 H 0.253(4) 0.506(3) 0.700(2)
H22 H 0.356(4) 0.568(3) 0.655(2)
H23 H 0.309(4) 0.457(3) 0.524(3)
H24 H 0.214(4) 0.382(3) 0.571(2)
H25 H 0.372(4) 0.052(3) 0.680(2)
H26 H 0.249(4) 0.131(3) 0.690(2)
H27 H 0.282(4) 0.203(3) 0.559(2)
H28 H 0.402(4) 0.123(3) 0.551(2)
H29 H 0.703(4) 0.179(3) 0.801(3)
H30 H 0.603(4) 0.080(3) 0.759(2)
H31 H 0.741(4) 0.211(3) 0.656(2)
H32 H 0.638(4) 0.114(3) 0.616(2)
C29 C 0.1802(3) -0.1679(2) 0.78896(18)
C30 C 0.2573(3) -0.1663(2) 0.71754(19)
C31 C 0.1644(3) -0.1647(2) 0.63353(19)
C32 C 0.0408(3) -0.1243(2) 0.6559(2)
C33 C 0.0361(3) -0.1570(2) 0.74621(19)
C34 C 0.0253(3) -0.0803(2) 0.82338(19)
C35 C 0.1701(3) -0.0735(2) 0.84985(19)
C36 C 0.1395(3) -0.2723(2) 0.8180(2)
C37 C 0.0094(3) -0.2696(2) 0.75950(19)
C38 C 0.3838(3) -0.1639(2) 0.72737(19)
C39 C 0.5077(3) -0.1647(3) 0.7860(2)
C40 C 0.5776(4) -0.1075(3) 0.8660(2)
C41 C 0.5719(4) -0.2232(3) 0.8571(2)
C42 C 0.5032(3) -0.1614(2) 0.6913(2)
C43 C 0.5661(4) -0.0987(3) 0.6340(2)
C44 C 0.5591(4) -0.2153(3) 0.6210(2)
C45 C 0.2078(4) -0.1475(3) 0.5494(2)
C46 C 0.1631(4) -0.2532(3) 0.5648(2)
C47 C -0.0759(4) -0.1142(3) 0.5877(2)
C48 C -0.0004(4) -0.0199(3) 0.6305(2)
C49 C -0.0687(4) 0.0001(3) 0.8363(2)
C50 C -0.0635(4) -0.0939(3) 0.8867(2)
C51 C 0.2525(4) 0.0235(3) 0.8580(2)
C52 C 0.2496(4) -0.0378(3) 0.9364(2)
C53 C 0.2181(4) -0.3622(3) 0.8425(2)
C54 C 0.1607(4) -0.3008(3) 0.9101(2)
C55 C -0.0442(4) -0.3512(3) 0.6899(2)
C56 C -0.1124(4) -0.3281(3) 0.7652(2)
H33 H 0.522(4) -0.069(3) 0.901(2)
H34 H 0.662(4) -0.066(3) 0.863(2)
H35 H 0.520(4) -0.260(3) 0.891(2)
H36 H 0.650(4) -0.261(3) 0.847(2)
H37 H 0.509(4) -0.058(3) 0.593(2)
H38 H 0.647(4) -0.067(3) 0.656(2)
H39 H 0.500(4) -0.248(3) 0.569(3)
H40 H 0.639(4) -0.256(3) 0.638(2)
H41 H 0.155(4) -0.109(3) 0.510(3)
H42 H 0.303(4) -0.135(3) 0.552(2)
H43 H 0.230(4) -0.307(3) 0.577(2)
H44 H 0.081(4) -0.280(3) 0.536(2)
H45 H -0.070(4) -0.136(3) 0.528(3)
H46 H -0.164(4) -0.129(3) 0.604(2)
H47 H -0.037(4) 0.027(3) 0.673(3)
H48 H 0.051(4) 0.016(3) 0.598(3)
H49 H -0.036(4) 0.070(3) 0.867(2)
H50 H -0.135(4) 0.003(3) 0.790(3)
H51 H -0.026(4) -0.087(3) 0.949(3)
H52 H -0.130(4) -0.148(3) 0.872(2)
H53 H 0.211(4) 0.088(3) 0.857(2)
H54 H 0.335(4) 0.020(3) 0.831(2)
H55 H 0.332(4) -0.081(3) 0.957(2)
H56 H 0.200(4) -0.002(3) 0.980(2)
H57 H 0.180(4) -0.435(3) 0.824(2)
H58 H 0.312(4) -0.355(3) 0.845(2)
H59 H 0.081(4) -0.332(3) 0.931(2)
H60 H 0.215(4) -0.253(3) 0.955(3)
H61 H -0.082(4) -0.323(3) 0.635(3)
H62 H -0.002(4) -0.419(3) 0.688(2)
H63 H -0.193(4) -0.287(3) 0.756(2)
H64 H -0.111(4) -0.379(3) 0.809(2)
loop_
_geom_bond_atom_site_label_1
_geom_bond_atom_site_label_2
_geom_bond_site_symmetry_1
_geom_bond_site_symmetry_2
C1 C2 1_555 1_555
C2 C3 1_555 1_555
C3 C4 1_555 1_555
C4 C5 1_555 1_555
C5 C1 1_555 1_555
C6 C5 1_555 1_555
C7 C1 1_555 1_555
C8 C1 1_555 1_555
C9 C5 1_555 1_555
C10 C2 1_555 1_555
C11 C10 1_555 1_555
C12 C11 1_555 1_555
C13 C11 1_555 1_555
C14 C10 1_555 1_555
C15 C14 1_555 1_555
C16 C14 1_555 1_555
C17 C3 1_555 1_555
C18 C3 1_555 1_555
C19 C4 1_555 1_555
C20 C4 1_555 1_555
C21 C6 1_555 1_555
C22 C6 1_555 1_555
C23 C7 1_555 1_555
C24 C7 1_555 1_555
C25 C8 1_555 1_555
C26 C8 1_555 1_555
C27 C9 1_555 1_555
C28 C9 1_555 1_555
H1 C12 1_555 1_555
H2 C12 1_555 1_555
H3 C13 1_555 1_555
H4 C13 1_555 1_555
H5 C15 1_555 1_555
H6 C15 1_555 1_555
H7 C16 1_555 1_555
H8 C16 1_555 1_555
H9 C17 1_555 1_555
H10 C17 1_555 1_555
H11 C18 1_555 1_555
H12 C18 1_555 1_555
H13 C19 1_555 1_555
H14 C19 1_555 1_555
H15 C20 1_555 1_555
H16 C20 1_555 1_555
H17 C21 1_555 1_555
H18 C21 1_555 1_555
H19 C22 1_555 1_555
H20 C22 1_555 1_555
H21 C23 1_555 1_555
H22 C23 1_555 1_555
H23 C24 1_555 1_555
H24 C24 1_555 1_555
H25 C25 1_555 1_555
H26 C25 1_555 1_555
H27 C26 1_555 1_555
H28 C26 1_555 1_555
H29 C27 1_555 1_555
H30 C27 1_555 1_555
H31 C28 1_555 1_555
H32 C28 1_555 1_555
C29 C30 1_555 1_555
C30 C31 1_555 1_555
C31 C32 1_555 1_555
C32 C33 1_555 1_555
C33 C29 1_555 1_555
C34 C33 1_555 1_555
C35 C29 1_555 1_555
C36 C29 1_555 1_555
C37 C33 1_555 1_555
C38 C30 1_555 1_555
C39 C38 1_555 1_555
C40 C39 1_555 1_555
C41 C39 1_555 1_555
C42 C38 1_555 1_555
C43 C42 1_555 1_555
C44 C42 1_555 1_555
C45 C31 1_555 1_555
C46 C31 1_555 1_555
C47 C32 1_555 1_555
C48 C32 1_555 1_555
C49 C34 1_555 1_555
C50 C34 1_555 1_555
C51 C35 1_555 1_555
C52 C35 1_555 1_555
C53 C36 1_555 1_555
C54 C36 1_555 1_555
C55 C37 1_555 1_555
C56 C37 1_555 1_555
H33 C40 1_555 1_555
H34 C40 1_555 1_555
H35 C41 1_555 1_555
H36 C41 1_555 1_555
H37 C43 1_555 1_555
H38 C43 1_555 1_555
H39 C44 1_555 1_555
H40 C44 1_555 1_555
H41 C45 1_555 1_555
H42 C45 1_555 1_555
H43 C46 1_555 1_555
H44 C46 1_555 1_555
H45 C47 1_555 1_555
H46 C47 1_555 1_555
H47 C48 1_555 1_555
H48 C48 1_555 1_555
H49 C49 1_555 1_555
H50 C49 1_555 1_555
H51 C50 1_555 1_555
H52 C50 1_555 1_555
H53 C51 1_555 1_555
H54 C51 1_555 1_555
H55 C52 1_555 1_555
H56 C52 1_555 1_555
H57 C53 1_555 1_555
H58 C53 1_555 1_555
H59 C54 1_555 1_555
H60 C54 1_555 1_555
H61 C55 1_555 1_555
H62 C55 1_555 1_555
H63 C56 1_555 1_555
H64 C56 1_555 1_555
C6 C7 1_555 1_555
C8 C9 1_555 1_555
C11 C14 1_555 1_555
C12 C13 1_555 1_555
C15 C16 1_555 1_555
C17 C18 1_555 1_555
C19 C20 1_555 1_555
C21 C22 1_555 1_555
C23 C24 1_555 1_555
C25 C26 1_555 1_555
C27 C28 1_555 1_555
C34 C35 1_555 1_555
C36 C37 1_555 1_555
C39 C42 1_555 1_555
C40 C41 1_555 1_555
C43 C44 1_555 1_555
C45 C46 1_555 1_555
C47 C48 1_555 1_555
C49 C50 1_555 1_555
C51 C52 1_555 1_555
C53 C54 1_555 1_555
C55 C56 1_555 1_555

#END
