
#######################################################################
#
#                 Cambridge Crystallographic Data Centre
#                                CCDC 
#
#######################################################################
#
# If this CIF has been generated from an entry in the Cambridge 
# Structural Database, then it will include bibliographic, chemical, 
# crystal, experimental, refinement or atomic coordinate data resulting 
# from the CCDC's data processing and validation procedures.
#
#######################################################################

data_TIHXAL
_chemical_formula_moiety         'C17 H22 N4 O6'
_chemical_name_systematic        
9-Azido-7-(hydroxymethyl)-2-(4-methoxyphenyl)-4,6-dimethyl-3-oxa-1-azaspiro[4.4]non-1-ene-6,7,8-triol
_symmetry_cell_setting           monoclinic
_symmetry_space_group_name_H-M   'P 21'
_symmetry_Int_Tables_number      4
_space_group_name_Hall           'P 2yb'
loop_
_symmetry_equiv_pos_site_id
_symmetry_equiv_pos_as_xyz
1 x,y,z
2 -x,1/2+y,-z
_cell_length_a                   7.0802(1)
_cell_length_b                   34.2482(4)
_cell_length_c                   7.5495(1)
_cell_angle_alpha                90
_cell_angle_beta                 92.706(1)
_cell_angle_gamma                90
_cell_volume                     1828.59
_exptl_crystal_colour            colorless
_exptl_crystal_description       block
_cell_formula_units_Z            4
loop_
_atom_site_label
_atom_site_type_symbol
_atom_site_fract_x
_atom_site_fract_y
_atom_site_fract_z
O1 O 0.44211(17) 0.59733(3) 0.46094(15)
H1 H 0.3606 0.5985 0.3765
O2 O 0.25123(16) 0.56393(3) 0.85942(15)
H2 H 0.2437 0.5395 0.8518
O3 O 0.76076(17) 0.57328(4) 0.78546(17)
H3 H 0.7990 0.5903 0.8586
O4 O 0.26393(18) 0.64143(3) 0.73499(16)
H4 H 0.2633 0.6413 0.6237
O5 O 0.6845(2) 0.45220(4) 0.8098(2)
O6 O 0.1027(2) 0.32215(4) 1.0101(2)
N1 N 0.4291(2) 0.49157(4) 0.8004(2)
C1 C 0.5326(8) 0.53053(13) 0.5512(4)
H5 H 0.6514 0.5414 0.5045
N2 N 0.4723(8) 0.4990(2) 0.4289(11)
N3 N 0.3129(9) 0.4989(3) 0.3624(15)
N4 N 0.1796(6) 0.49875(16) 0.2674(7)
C2 C 0.5853(2) 0.51617(5) 0.7416(2)
C3 C 0.3996(2) 0.56570(5) 0.5739(2)
H6 H 0.2702 0.5554 0.5425
C4 C 0.4163(2) 0.57713(5) 0.7735(2)
C5 C 0.5954(2) 0.55492(5) 0.8478(2)
C6 C 0.6043(3) 0.54982(6) 1.0470(2)
H7 H 0.7247 0.5375 1.0847
H8 H 0.4995 0.5332 1.0813
H9 H 0.5947 0.5754 1.1040
C7 C 0.4275(2) 0.62115(5) 0.8051(2)
H10 H 0.4423 0.6261 0.9342
H11 H 0.5409 0.6316 0.7494
C8 C 0.7636(3) 0.49011(5) 0.7675(3)
H12 H 0.8409 0.4998 0.8728
C9 C 0.8907(3) 0.48586(7) 0.6129(3)
H13 H 0.9929 0.4675 0.6445
H14 H 0.9446 0.5113 0.5848
H15 H 0.8167 0.4760 0.5094
C10 C 0.4983(3) 0.45757(5) 0.8317(2)
C11 C 0.3931(3) 0.42302(5) 0.8870(2)
C12 C 0.2076(3) 0.42597(5) 0.9356(3)
H16 H 0.1491 0.4509 0.9383
C13 C 0.1057(3) 0.39308(6) 0.9805(3)
H17 H -0.0210 0.3955 1.0151
C14 C 0.1905(3) 0.35648(5) 0.9745(2)
C15 C 0.3780(3) 0.35338(5) 0.9303(3)
H18 H 0.4376 0.3285 0.9311
C16 C 0.4790(3) 0.38627(5) 0.8852(3)
H19 H 0.6066 0.3839 0.8529
C17 C -0.0968(3) 0.32264(6) 1.0253(3)
H20 H -0.1287 0.3396 1.1241
H21 H -0.1417 0.2961 1.0472
H22 H -0.1576 0.3326 0.9150
O7 O 0.96466(17) 0.63436(4) -0.06107(15)
H24 H 1.0515 0.6338 -0.1331
O8 O 1.16390(16) 0.66277(3) 0.36113(15)
H25 H 1.1515 0.6867 0.3822
O9 O 0.65644(17) 0.64728(3) 0.25737(15)
H26 H 0.6062 0.6339 0.3355
O10 O 1.17103(19) 0.58783(4) 0.21468(17)
H27 H 1.1659 0.5877 0.1033
O11 O 0.70799(17) 0.77074(3) 0.32128(16)
O12 O 1.2958(3) 0.89760(4) 0.6100(2)
N8 N 0.9682(2) 0.73268(4) 0.31797(18)
N9 N 0.9201(2) 0.72952(5) -0.0561(2)
N10 N 0.8059(3) 0.74315(5) -0.1663(2)
N11 N 0.7119(3) 0.75833(7) -0.2722(3)
C19 C 0.8123(2) 0.70806(5) 0.2443(2)
C20 C 0.8519(2) 0.69643(4) 0.0509(2)
H28 H 0.7340 0.6855 -0.0079
C21 C 1.0032(2) 0.66417(5) 0.0673(2)
H29 H 1.1300 0.6758 0.0476
C22 C 0.9997(2) 0.64888(4) 0.2619(2)
C23 C 0.8177(2) 0.66738(5) 0.3346(2)
C24 C 0.8152(3) 0.66793(6) 0.5350(2)
H30 H 0.6991 0.6806 0.5711
H31 H 0.9252 0.6824 0.5835
H32 H 0.8197 0.6411 0.5800
C25 C 1.0019(3) 0.60475(5) 0.2766(2)
H33 H 0.9889 0.5973 0.4022
H34 H 0.8919 0.5940 0.2070
C26 C 0.6323(2) 0.73218(5) 0.2754(2)
H35 H 0.5717 0.7213 0.3818
C27 C 0.4825(3) 0.73577(6) 0.1274(3)
H36 H 0.3733 0.7499 0.1704
H37 H 0.4430 0.7097 0.0876
H38 H 0.5339 0.7501 0.0282
C28 C 0.8965(2) 0.76595(5) 0.3533(2)
C29 C 1.0028(3) 0.79991(5) 0.4238(2)
C30 C 1.1963(3) 0.79739(6) 0.4582(3)
H39 H 1.2590 0.7733 0.4402
C31 C 1.3006(3) 0.82965(6) 0.5188(3)
H40 H 1.4333 0.8276 0.5416
C32 C 1.2087(3) 0.86472(6) 0.5454(3)
C33 C 1.0152(3) 0.86740(6) 0.5149(3)
H41 H 0.9528 0.8914 0.5352
C34 C 0.9111(3) 0.83525(6) 0.4547(3)
H42 H 0.7780 0.8373 0.4347
C35 C 1.4955(4) 0.89805(7) 0.6275(3)
H43 H 1.5392 0.8764 0.7040
H44 H 1.5379 0.9229 0.6802
H45 H 1.5478 0.8951 0.5103
C18? C 0.5486(11) 0.53330(18) 0.5535(5)
H23? H 0.6682 0.5461 0.5186
N5? N 0.5017(10) 0.5027(3) 0.4213(16)
N6? N 0.3368(12) 0.4967(5) 0.377(2)
N7? N 0.1921(9) 0.4829(2) 0.3373(11)
N12? N 1.057(2) 0.7242(3) -0.145(2)
N13? N 1.185(3) 0.7294(8) -0.232(3)
loop_
_geom_bond_atom_site_label_1
_geom_bond_atom_site_label_2
_geom_bond_site_symmetry_1
_geom_bond_site_symmetry_2
O1 H1 1_555 1_555
O2 H2 1_555 1_555
O3 H3 1_555 1_555
O4 H4 1_555 1_555
O5 C8 1_555 1_555
O6 C14 1_555 1_555
N1 C2 1_555 1_555
C1 H5 1_555 1_555
N2 C1 1_555 1_555
N3 N2 1_555 1_555
N4 N3 1_555 1_555
C2 C1 1_555 1_555
C3 O1 1_555 1_555
H6 C3 1_555 1_555
C4 O2 1_555 1_555
C5 O3 1_555 1_555
C6 C5 1_555 1_555
H7 C6 1_555 1_555
H8 C6 1_555 1_555
H9 C6 1_555 1_555
C7 O4 1_555 1_555
H10 C7 1_555 1_555
H11 C7 1_555 1_555
C8 C2 1_555 1_555
H12 C8 1_555 1_555
C9 C8 1_555 1_555
H13 C9 1_555 1_555
H14 C9 1_555 1_555
H15 C9 1_555 1_555
C10 O5 1_555 1_555
C11 C10 1_555 1_555
C12 C11 1_555 1_555
H16 C12 1_555 1_555
C13 C12 1_555 1_555
H17 C13 1_555 1_555
C14 C13 1_555 1_555
C15 C14 1_555 1_555
H18 C15 1_555 1_555
C16 C11 1_555 1_555
H19 C16 1_555 1_555
C17 O6 1_555 1_555
H20 C17 1_555 1_555
H21 C17 1_555 1_555
H22 C17 1_555 1_555
O7 H24 1_555 1_555
O8 H25 1_555 1_555
O9 H26 1_555 1_555
O10 H27 1_555 1_555
O11 C26 1_555 1_555
O12 C32 1_555 1_555
N8 C19 1_555 1_555
N9 N10 1_555 1_555
N10 N11 1_555 1_555
C19 C20 1_555 1_555
C20 N9 1_555 1_555
H28 C20 1_555 1_555
C21 O7 1_555 1_555
H29 C21 1_555 1_555
C22 O8 1_555 1_555
C23 O9 1_555 1_555
C24 C23 1_555 1_555
H30 C24 1_555 1_555
H31 C24 1_555 1_555
H32 C24 1_555 1_555
C25 O10 1_555 1_555
H33 C25 1_555 1_555
H34 C25 1_555 1_555
C26 C19 1_555 1_555
H35 C26 1_555 1_555
C27 C26 1_555 1_555
H36 C27 1_555 1_555
H37 C27 1_555 1_555
H38 C27 1_555 1_555
C28 O11 1_555 1_555
C29 C28 1_555 1_555
C30 C29 1_555 1_555
H39 C30 1_555 1_555
C31 C30 1_555 1_555
H40 C31 1_555 1_555
C32 C31 1_555 1_555
C33 C32 1_555 1_555
H41 C33 1_555 1_555
C34 C29 1_555 1_555
H42 C34 1_555 1_555
C35 O12 1_555 1_555
H43 C35 1_555 1_555
H44 C35 1_555 1_555
H45 C35 1_555 1_555
N1 C10 1_555 1_555
C1 C3 1_555 1_555
C2 C5 1_555 1_555
C3 C4 1_555 1_555
C4 C5 1_555 1_555
C4 C7 1_555 1_555
C15 C16 1_555 1_555
N8 C28 1_555 1_555
C19 C23 1_555 1_555
C20 C21 1_555 1_555
C21 C22 1_555 1_555
C22 C23 1_555 1_555
C22 C25 1_555 1_555
C33 C34 1_555 1_555

#END
