
#######################################################################
#
#                 Cambridge Crystallographic Data Centre
#                                CCDC 
#
#######################################################################
#
# If this CIF has been generated from an entry in the Cambridge 
# Structural Database, then it will include bibliographic, chemical, 
# crystal, experimental, refinement or atomic coordinate data resulting 
# from the CCDC's data processing and validation procedures.
#
#######################################################################

data_TIJBAR
_chemical_formula_moiety         'C25 H30 O7'
_chemical_name_systematic        
7-(3,4-dimethoxyphenyl)-2,3-dimethoxy-11,11-dimethyl-4b,6a,7,11-tetrahydro-6H-furo[3',4':3,4]furo[3,2-c]isochromene
_symmetry_cell_setting           monoclinic
_symmetry_space_group_name_H-M   'P 21'
_symmetry_Int_Tables_number      4
_space_group_name_Hall           'P 2yb'
loop_
_symmetry_equiv_pos_site_id
_symmetry_equiv_pos_as_xyz
1 x,y,z
2 -x,1/2+y,-z
_cell_length_a                   9.2535(3)
_cell_length_b                   13.1779(4)
_cell_length_c                   9.6444(2)
_cell_angle_alpha                90
_cell_angle_beta                 113.1490(10)
_cell_angle_gamma                90
_cell_volume                     1081.37
_cell_formula_units_Z            2
loop_
_atom_site_label
_atom_site_type_symbol
_atom_site_fract_x
_atom_site_fract_y
_atom_site_fract_z
O1 O 0.05251(14) 0.14822(10) 0.37771(13)
O2 O -0.31159(15) 0.42262(9) -1.07706(13)
O3 O -0.48334(15) 0.28882(10) -1.01786(13)
O4 O -0.16696(16) 0.01437(10) 0.32512(13)
O5 O -0.26888(15) 0.09172(9) -0.33410(13)
O6 O 0.03734(14) 0.19770(11) -0.16883(13)
C1 C -0.1287(2) 0.42964(13) -0.6605(2)
C2 C -0.3670(2) 0.33136(13) -0.89529(19)
O7 O -0.33259(17) 0.35400(10) -0.44036(15)
C3 C -0.2502(2) 0.03120(14) 0.05263(19)
C4 C -0.1287(2) 0.16157(12) -0.03891(19)
C5 C -0.1574(2) 0.05756(14) 0.19989(19)
C6 C -0.2739(2) 0.40476(13) -0.92761(19)
C7 C -0.0424(2) 0.13312(14) 0.22880(19)
C8 C -0.3384(2) 0.30823(13) -0.7469(2)
C9 C -0.1114(2) 0.22152(14) -0.16281(19)
C10 C -0.2330(2) 0.08112(13) -0.06881(18)
C11 C -0.1473(2) 0.22267(13) -0.42102(19)
C12 C -0.2190(3) 0.49655(15) -1.1141(2)
C13 C -0.1923(2) 0.33354(13) -0.4675(2)
C14 C -0.5752(2) 0.21102(15) -0.9893(2)
C15 C -0.2338(2) 0.19699(13) -0.31981(18)
C16 C -0.0329(2) 0.18636(14) 0.11029(18)
C17 C -0.1552(2) 0.45285(13) -0.8108(2)
C18 C -0.2184(2) 0.35772(13) -0.62797(19)
C19 C 0.1755(2) 0.22025(17) 0.4070(2)
C20 C 0.0265(2) 0.20677(15) -0.32123(19)
C21 C -0.3047(3) -0.04288(19) 0.3051(3)
C22 C -0.3274(2) 0.04623(13) -0.22905(19)
C23 C -0.3772(2) 0.26715(15) -0.3777(2)
C24 C -0.5021(2) 0.06771(16) -0.2772(2)
C25 C -0.3013(3) -0.06663(15) -0.2461(2)
H1 H 0.075(2) 0.1419(17) -0.342(2)
H2 H -0.399(2) 0.2567(15) -0.7275(19)
H3 H -0.647(3) 0.1895(17) -1.091(3)
H4 H -0.121(2) 0.2953(17) -0.1479(19)
H5 H -0.041(3) 0.4653(15) -0.576(2)
H6 H -0.522(2) 0.1411(18) -0.267(2)
H7 H -0.544(2) 0.0279(16) -0.213(2)
H8 H -0.325(2) -0.0228(15) 0.034(2)
H9 H -0.463(2) 0.2304(13) -0.461(2)
H10 H -0.224(3) 0.5627(19) -1.069(2)
H11 H -0.182(2) 0.1810(15) -0.508(2)
H12 H 0.091(3) 0.2651(19) -0.330(2)
H13 H -0.510(2) 0.1515(17) -0.932(2)
H14 H 0.233(3) 0.2126(16) 0.511(3)
H15 H -0.263(3) 0.4936(17) -1.232(3)
H16 H -0.092(2) 0.5080(15) -0.833(2)
H17 H -0.309(3) -0.100(2) 0.250(3)
H18 H -0.560(3) 0.0470(17) -0.382(3)
H19 H -0.409(2) 0.2958(14) -0.298(2)
H20 H -0.185(3) -0.0780(15) -0.214(2)
H21 H -0.301(3) -0.0593(16) 0.405(3)
H22 H 0.240(2) 0.1993(16) 0.357(2)
H23 H 0.050(2) 0.2415(15) 0.132(2)
H24 H 0.137(3) 0.2935(19) 0.379(2)
H25 H -0.633(3) 0.2376(16) -0.930(2)
H26 H -0.110(3) 0.4772(16) -1.070(2)
H27 H -0.326(3) -0.1065(19) -0.168(3)
H28 H -0.359(3) -0.0867(18) -0.354(3)
H29 H -0.106(2) 0.3790(14) -0.399(2)
H30 H -0.398(4) -0.007(2) 0.249(3)
loop_
_geom_bond_atom_site_label_1
_geom_bond_atom_site_label_2
_geom_bond_site_symmetry_1
_geom_bond_site_symmetry_2
O1 C7 1_555 1_555
O2 C6 1_555 1_555
O3 C2 1_555 1_555
O4 C5 1_555 1_555
O5 C15 1_555 1_555
O6 C9 1_555 1_555
C1 C17 1_555 1_555
C2 C6 1_555 1_555
O7 C13 1_555 1_555
C3 C5 1_555 1_555
C4 C9 1_555 1_555
C5 C7 1_555 1_555
C6 C17 1_555 1_555
C7 C16 1_555 1_555
C8 C2 1_555 1_555
C9 C15 1_555 1_555
C10 C3 1_555 1_555
C11 C13 1_555 1_555
C12 O2 1_555 1_555
C13 C18 1_555 1_555
C14 O3 1_555 1_555
C15 C11 1_555 1_555
C16 C4 1_555 1_555
C17 H16 1_555 1_555
C18 C1 1_555 1_555
C19 O1 1_555 1_555
C20 O6 1_555 1_555
C21 O4 1_555 1_555
C22 O5 1_555 1_555
C23 O7 1_555 1_555
C24 C22 1_555 1_555
C25 C22 1_555 1_555
H1 C20 1_555 1_555
H2 C8 1_555 1_555
H3 C14 1_555 1_555
H4 C9 1_555 1_555
H5 C1 1_555 1_555
H6 C24 1_555 1_555
H7 C24 1_555 1_555
H8 C3 1_555 1_555
H9 C23 1_555 1_555
H10 C12 1_555 1_555
H11 C11 1_555 1_555
H12 C20 1_555 1_555
H13 C14 1_555 1_555
H14 C19 1_555 1_555
H15 C12 1_555 1_555
H17 C21 1_555 1_555
H18 C24 1_555 1_555
H19 C23 1_555 1_555
H20 C25 1_555 1_555
H21 C21 1_555 1_555
H22 C19 1_555 1_555
H23 C16 1_555 1_555
H24 C19 1_555 1_555
H25 C14 1_555 1_555
H26 C12 1_555 1_555
H27 C25 1_555 1_555
H28 C25 1_555 1_555
H29 C13 1_555 1_555
H30 C21 1_555 1_555
C4 C10 1_555 1_555
C8 C18 1_555 1_555
C10 C22 1_555 1_555
C11 C20 1_555 1_555
C15 C23 1_555 1_555

#END
