
#######################################################################
#
#                 Cambridge Crystallographic Data Centre
#                                CCDC 
#
#######################################################################
#
# If this CIF has been generated from an entry in the Cambridge 
# Structural Database, then it will include bibliographic, chemical, 
# crystal, experimental, refinement or atomic coordinate data resulting 
# from the CCDC's data processing and validation procedures.
#
#######################################################################

data_TIJBIA
_chemical_name_common            '2,5-dimethoxybenzaldehyde oxime'
_chemical_formula_moiety         'C9 H11 N1 O3'
_chemical_name_systematic        1-(2,5-dimethoxyphenyl)-N-hydroxymethanimine
_symmetry_cell_setting           monoclinic
_symmetry_space_group_name_H-M   'P 21/c'
_symmetry_Int_Tables_number      14
_space_group_name_Hall           '-P 2ybc'
loop_
_symmetry_equiv_pos_site_id
_symmetry_equiv_pos_as_xyz
1 x,y,z
2 -x,1/2+y,1/2-z
3 -x,-y,-z
4 x,1/2-y,1/2+z
_cell_length_a                   7.64800(10)
_cell_length_b                   21.3380(4)
_cell_length_c                   10.9421(2)
_cell_angle_alpha                90
_cell_angle_beta                 90.555(2)
_cell_angle_gamma                90
_cell_volume                     1785.59
_exptl_crystal_colour            colorless
_exptl_crystal_description       block
_cell_formula_units_Z            8
loop_
_atom_site_label
_atom_site_type_symbol
_atom_site_fract_x
_atom_site_fract_y
_atom_site_fract_z
O1 O 1.05737(9) 0.46081(3) 0.23188(6)
O2 O 0.88735(9) 0.21358(3) 0.13343(6)
O3 O 0.84907(9) 0.45697(3) 0.56752(6)
H1 H 0.905(2) 0.4914(7) 0.5868(13)
N1 N 0.92134(10) 0.44408(4) 0.45300(7)
C1 C 0.92057(11) 0.36690(4) 0.29191(8)
C2 C 1.01564(11) 0.40037(4) 0.20387(8)
C3 C 1.06269(12) 0.37068(4) 0.09534(8)
H2 H 1.125790 0.393201 0.035247
C4 C 1.01792(11) 0.30839(4) 0.07452(8)
H3 H 1.051935 0.288508 0.000789
C5 C 0.92359(11) 0.27498(4) 0.16103(8)
C6 C 0.87441(11) 0.30442(4) 0.26854(8)
H4 H 0.808499 0.281887 0.327125
C7 C 0.86582(11) 0.39220(4) 0.40987(8)
H5 H 0.784786 0.368751 0.456649
C8 C 1.16522(14) 0.49466(5) 0.14906(9)
H6 H 1.188699 0.536566 0.181970
H7 H 1.105118 0.498388 0.069891
H8 H 1.275896 0.472247 0.138464
C9 C 0.79088(13) 0.17920(4) 0.22231(9)
H9 H 0.769266 0.136629 0.192162
H10 H 0.679003 0.200181 0.236846
H11 H 0.858216 0.177225 0.298868
O4 O 0.33772(9) 0.09728(3) 0.32374(6)
O5 O 0.63115(9) 0.03239(3) 0.60782(6)
H12 H 0.6028(19) -0.0064(7) 0.5898(13)
O6 O 0.47197(9) 0.34248(3) 0.46029(6)
N2 N 0.53640(10) 0.06589(4) 0.51894(7)
C10 C 0.47308(11) 0.17198(4) 0.45403(8)
C11 C 0.36691(11) 0.15892(4) 0.35049(8)
C12 C 0.29914(11) 0.20820(4) 0.28236(8)
H13 H 0.229476 0.199464 0.212053
C13 C 0.33136(12) 0.27053(4) 0.31516(8)
H14 H 0.284202 0.303707 0.267240
C14 C 0.43233(11) 0.28369(4) 0.41782(8)
C15 C 0.50301(11) 0.23437(4) 0.48551(8)
H15 H 0.573634 0.243537 0.555138
C16 C 0.55768(11) 0.12487(4) 0.53198(8)
H16 H 0.632715 0.139016 0.595943
C17 C 0.24158(15) 0.08339(5) 0.21389(9)
H17 H 0.233090 0.037865 0.203679
H18 H 0.302042 0.101530 0.143698
H19 H 0.123897 0.101296 0.219223
C18 C 0.41248(14) 0.39453(4) 0.38939(9)
H20 H 0.453866 0.433561 0.426991
H21 H 0.284384 0.394557 0.386171
H22 H 0.458345 0.391238 0.306319
loop_
_geom_bond_atom_site_label_1
_geom_bond_atom_site_label_2
_geom_bond_site_symmetry_1
_geom_bond_site_symmetry_2
O1 C2 1_555 1_555
O2 C5 1_555 1_555
O3 H1 1_555 1_555
N1 O3 1_555 1_555
C1 C2 1_555 1_555
C2 C3 1_555 1_555
C3 H2 1_555 1_555
C4 C3 1_555 1_555
H3 C4 1_555 1_555
C5 C4 1_555 1_555
C6 C1 1_555 1_555
H4 C6 1_555 1_555
C7 N1 1_555 1_555
H5 C7 1_555 1_555
C8 O1 1_555 1_555
H6 C8 1_555 1_555
H7 C8 1_555 1_555
H8 C8 1_555 1_555
C9 O2 1_555 1_555
H9 C9 1_555 1_555
H10 C9 1_555 1_555
H11 C9 1_555 1_555
O4 C11 1_555 1_555
O5 H12 1_555 1_555
O6 C14 1_555 1_555
N2 O5 1_555 1_555
C10 C11 1_555 1_555
C11 C12 1_555 1_555
C12 H13 1_555 1_555
C13 C12 1_555 1_555
H14 C13 1_555 1_555
C14 C13 1_555 1_555
C15 C10 1_555 1_555
H15 C15 1_555 1_555
C16 N2 1_555 1_555
H16 C16 1_555 1_555
C17 O4 1_555 1_555
H17 C17 1_555 1_555
H18 C17 1_555 1_555
H19 C17 1_555 1_555
C18 O6 1_555 1_555
H20 C18 1_555 1_555
H21 C18 1_555 1_555
H22 C18 1_555 1_555
C1 C7 1_555 1_555
C5 C6 1_555 1_555
C10 C16 1_555 1_555
C14 C15 1_555 1_555

#END
