
#######################################################################
#
#                 Cambridge Crystallographic Data Centre
#                                CCDC 
#
#######################################################################
#
# If this CIF has been generated from an entry in the Cambridge 
# Structural Database, then it will include bibliographic, chemical, 
# crystal, experimental, refinement or atomic coordinate data resulting 
# from the CCDC's data processing and validation procedures.
#
#######################################################################

data_TIJFAV
_chemical_formula_moiety         
'C32 H32 O20 S4 4-,2(C12 H14 N2 2+),18.5(H2 O1),0.25(C2 H3 N1)'
_chemical_name_systematic        
"bis(1,1'-Dimethyl-4,4'-bipyridinium) 6,9,12,15,26,29,32,35-octaoxapentacyclo[34.4.0.0^5,40^.0^16,21^.0^20,25^]tetraconta-1(40),2,4,16,18,20,22,24,36,38-decaene-2,19,22,39-tetrasulfonate acetonitrile solvate hydrate"
_symmetry_cell_setting           triclinic
_symmetry_space_group_name_H-M   'P -1'
_symmetry_Int_Tables_number      2
_space_group_name_Hall           '-P 1'
loop_
_symmetry_equiv_pos_site_id
_symmetry_equiv_pos_as_xyz
1 x,y,z
2 -x,-y,-z
_cell_length_a                   12.261(3)
_cell_length_b                   23.082(7)
_cell_length_c                   28.567(8)
_cell_angle_alpha                108.262(4)
_cell_angle_beta                 91.474(3)
_cell_angle_gamma                105.118(5)
_cell_volume                     7360.71
_exptl_crystal_colour            colorless
_exptl_crystal_description       Prism
_cell_formula_units_Z            4
loop_
_atom_site_label
_atom_site_type_symbol
_atom_site_fract_x
_atom_site_fract_y
_atom_site_fract_z
S1 S -0.05131(6) 0.05874(3) 0.42507(3)
S2 S 0.06760(6) 0.38315(3) 0.51037(3)
S3 S -0.29273(6) 0.15022(3) 0.15213(3)
S4 S 0.28627(5) 0.28004(3) 0.19771(3)
O1 O -0.09623(17) 0.02296(9) 0.37354(8)
O2 O -0.13798(16) 0.06438(10) 0.45901(8)
O3 O 0.03580(16) 0.03569(10) 0.44288(8)
O4 O -0.02193(16) 0.40711(10) 0.53603(8)
O5 O 0.12170(17) 0.42330(9) 0.48180(8)
O6 O 0.14689(16) 0.37430(10) 0.54418(8)
O7 O 0.22140(15) 0.32371(9) 0.45166(8)
O8 O 0.36119(16) 0.41756(9) 0.41584(7)
O9 O 0.26727(15) 0.45236(9) 0.34159(7)
O10 O 0.13760(15) 0.34534(9) 0.25609(7)
O11 O -0.26522(16) 0.10492(10) 0.10900(7)
O12 O -0.35132(16) 0.19030(10) 0.13649(8)
O13 O -0.35625(16) 0.12226(10) 0.18599(8)
O14 O 0.25793(16) 0.32408(10) 0.17573(7)
O15 O 0.34933(15) 0.24054(9) 0.16521(7)
O16 O 0.34578(15) 0.30970(10) 0.24774(7)
O17 O -0.14803(15) 0.08126(9) 0.18003(7)
O18 O -0.26453(15) -0.02084(9) 0.21499(7)
O19 O -0.35000(16) 0.02294(10) 0.30845(7)
O20 O -0.20387(15) 0.12025(9) 0.39485(7)
C1 C -0.1469(2) 0.18027(13) 0.42297(10)
C2 C -0.1936(2) 0.22951(14) 0.43683(11)
H1 H -0.2728 0.2223 0.4291
C3 C -0.1236(2) 0.29146(14) 0.46286(11)
H2 H -0.1579 0.3247 0.4761
C4 C -0.0074(2) 0.30487(13) 0.46953(10)
C5 C 0.0437(2) 0.25390(14) 0.45130(10)
C6 C -0.0273(2) 0.18962(13) 0.43452(10)
C7 C 0.0239(2) 0.13916(13) 0.42908(10)
C8 C 0.1401(2) 0.15258(14) 0.43256(10)
H3 H 0.1743 0.1196 0.4307
C9 C 0.2100(2) 0.21411(14) 0.43876(10)
H4 H 0.2893 0.2211 0.4367
C10 C 0.1635(2) 0.26361(13) 0.44776(10)
C11 C 0.3435(2) 0.34043(14) 0.45664(11)
H5 H 0.3700 0.3148 0.4268
H6 H 0.3728 0.3326 0.4860
C12 C 0.3849(2) 0.41012(14) 0.46258(11)
H7 H 0.3457 0.4346 0.4880
H8 H 0.4677 0.4264 0.4734
C13 C 0.3771(2) 0.48269(14) 0.42004(11)
H9 H 0.4506 0.5092 0.4400
H10 H 0.3155 0.4981 0.4369
C14 C 0.3758(2) 0.48812(14) 0.36898(11)
H11 H 0.3909 0.5333 0.3714
H12 H 0.4361 0.4716 0.3518
C15 C 0.2647(2) 0.44931(14) 0.29058(10)
H13 H 0.3221 0.4289 0.2746
H14 H 0.2828 0.4928 0.2886
C16 C 0.1482(2) 0.41139(13) 0.26437(11)
H15 H 0.0895 0.4247 0.2849
H16 H 0.1376 0.4184 0.2323
C17 C 0.0401(2) 0.30243(13) 0.22981(10)
C18 C -0.0609(2) 0.31623(14) 0.22716(10)
H17 H -0.0647 0.3586 0.2422
C19 C -0.1590(2) 0.26794(14) 0.20231(11)
H18 H -0.2266 0.2790 0.1970
C20 C -0.1606(2) 0.20490(13) 0.18533(10)
C21 C -0.0556(2) 0.18857(13) 0.19085(10)
C22 C 0.0479(2) 0.23891(14) 0.20646(10)
C23 C 0.1539(2) 0.22344(14) 0.19819(10)
C24 C 0.1531(2) 0.16088(14) 0.18230(11)
H19 H 0.2224 0.1506 0.1752
C25 C 0.0533(2) 0.11156(14) 0.17612(10)
H20 H 0.0566 0.0690 0.1685
C26 C -0.0488(2) 0.12505(13) 0.18113(10)
C27 C -0.1556(2) 0.01500(13) 0.15641(11)
H21 H -0.0935 0.0038 0.1712
H22 H -0.1500 0.0057 0.1204
C28 C -0.2694(2) -0.02192(14) 0.16490(11)
H23 H -0.3289 -0.0027 0.1582
H24 H -0.2889 -0.0664 0.1421
C29 C -0.3731(2) -0.05101(14) 0.22652(11)
H25 H -0.3961 -0.0969 0.2069
H26 H -0.4310 -0.0320 0.2178
C30 C -0.3663(3) -0.04254(14) 0.28094(11)
H27 H -0.4374 -0.0686 0.2882
H28 H -0.3021 -0.0567 0.2906
C31 C -0.3641(2) 0.03189(15) 0.35950(11)
H29 H -0.3181 0.0098 0.3727
H30 H -0.4449 0.0138 0.3629
C32 C -0.3265(2) 0.10182(14) 0.38824(11)
H31 H -0.3544 0.1259 0.3697
H32 H -0.3564 0.1104 0.4208
S5 S 0.94065(6) 0.06256(3) 0.93034(3)
S6 S 1.08633(6) 0.38795(3) 1.00734(3)
S7 S 1.26716(6) 0.27296(4) 0.70198(3)
S8 S 0.69080(6) 0.15066(4) 0.64681(3)
O21 O 0.88857(16) 0.02319(9) 0.88029(7)
O22 O 0.85757(16) 0.07487(10) 0.96523(7)
O23 O 1.02369(16) 0.03744(9) 0.94861(8)
O24 O 1.16299(16) 0.37977(10) 1.04291(7)
O25 O 0.99998(16) 0.41575(9) 1.03215(8)
O26 O 1.14321(16) 0.42331(9) 0.97639(8)
O27 O 1.23666(15) 0.32129(9) 0.95425(7)
O28 O 1.37552(16) 0.40901(9) 0.91236(7)
O29 O 1.25779(16) 0.44542(10) 0.84268(7)
O30 O 1.11928(16) 0.34120(9) 0.75521(8)
O31 O 1.24890(17) 0.31796(11) 0.67865(8)
O32 O 1.33276(17) 0.23267(11) 0.67263(8)
O33 O 1.31691(17) 0.30156(11) 0.75346(8)
O34 O 0.62063(17) 0.11892(11) 0.67714(8)
O35 O 0.72418(16) 0.10771(10) 0.60402(8)
O36 O 0.63684(18) 0.19284(11) 0.63177(9)
O37 O 0.82542(16) 0.07900(9) 0.67778(8)
O38 O 0.70944(16) -0.01702(10) 0.71824(7)
O39 O 0.64086(16) 0.03101(9) 0.81194(7)
O40 O 0.79834(15) 0.12678(9) 0.89540(7)
C33 C 0.8599(2) 0.18617(13) 0.92312(10)
C34 C 0.8183(2) 0.23746(13) 0.93662(10)
H33 H 0.7397 0.2322 0.9290
C35 C 0.8916(2) 0.29827(13) 0.96189(11)
H34 H 0.8603 0.3329 0.9744
C36 C 1.0074(2) 0.30894(13) 0.96894(10)
C37 C 1.0536(2) 0.25560(13) 0.95213(10)
C38 C 0.9780(2) 0.19271(13) 0.93523(10)
C39 C 1.0231(2) 0.13996(13) 0.93036(10)
C40 C 1.1390(2) 0.15013(13) 0.93422(10)
H35 H 1.1690 0.1156 0.9324
C41 C 1.2142(2) 0.21034(13) 0.94074(10)
H36 H 1.2933 0.2152 0.9391
C42 C 1.1728(2) 0.26194(13) 0.94946(10)
C43 C 1.3580(2) 0.33390(14) 0.95522(11)
H37 H 1.3776 0.3059 0.9246
H38 H 1.3906 0.3265 0.9842
C44 C 1.4031(2) 0.40217(14) 0.95886(11)
H39 H 1.3692 0.4289 0.9852
H40 H 1.4867 0.4164 0.9676
C45 C 1.3821(3) 0.47356(14) 0.91724(11)
H41 H 1.4561 0.5020 0.9357
H42 H 1.3208 0.4864 0.9361
C46 C 1.3700(2) 0.47958(15) 0.86670(12)
H43 H 1.3853 0.5250 0.8698
H44 H 1.4261 0.4624 0.8466
C47 C 1.2471(3) 0.44475(15) 0.79251(11)
H45 H 1.3026 0.4250 0.7740
H46 H 1.2636 0.4889 0.7920
C48 C 1.1286(2) 0.40776(14) 0.76816(11)
H47 H 1.0726 0.4189 0.7912
H48 H 1.1128 0.4181 0.7380
C49 C 1.0211(2) 0.29907(14) 0.72997(10)
C50 C 0.9201(2) 0.31415(14) 0.72875(11)
H49 H 0.9171 0.3563 0.7452
C51 C 0.8214(2) 0.26658(14) 0.70296(11)
H50 H 0.7541 0.2782 0.6982
C52 C 0.8194(2) 0.20383(14) 0.68439(10)
C53 C 0.9222(2) 0.18608(14) 0.68978(10)
C54 C 1.0268(2) 0.23550(14) 0.70630(10)
C55 C 1.1313(2) 0.21820(14) 0.69847(10)
C56 C 1.1276(2) 0.15558(15) 0.68143(11)
H51 H 1.1961 0.1446 0.6740
C57 C 1.0263(2) 0.10667(14) 0.67440(11)
H52 H 1.0277 0.0637 0.6662
C58 C 0.9258(2) 0.12190(14) 0.67952(10)
C59 C 0.8194(3) 0.01271(14) 0.65786(12)
H53 H 0.8819 0.0038 0.6745
H54 H 0.8264 0.0006 0.6219
C60 C 0.7068(3) -0.02416(15) 0.66673(11)
H55 H 0.6456 -0.0082 0.6567
H56 H 0.6912 -0.0697 0.6467
C61 C 0.6013(2) -0.04569(15) 0.73073(11)
H57 H 0.5769 -0.0918 0.7119
H58 H 0.5437 -0.0265 0.7220
C62 C 0.6109(3) -0.03528(14) 0.78528(11)
H59 H 0.5375 -0.0567 0.7942
H60 H 0.6697 -0.0537 0.7941
C63 C 0.6292(2) 0.04278(14) 0.86349(11)
H61 H 0.6709 0.0187 0.8766
H62 H 0.5479 0.0283 0.8679
C64 C 0.6761(2) 0.11275(14) 0.89133(11)
H63 H 0.6501 0.1378 0.8732
H64 H 0.6502 0.1234 0.9247
N1 N 0.6468(2) 0.35322(12) 0.33587(10)
N2 N 0.9774(2) 0.14154(12) 0.30288(9)
C65 C 0.5759(3) 0.39784(17) 0.34366(13)
H65 H 0.5221 0.3899 0.3672
H66 H 0.5339 0.3914 0.3120
H67 H 0.6250 0.4417 0.3569
C66 C 0.7439(2) 0.36959(15) 0.36585(12)
H68 H 0.7665 0.4096 0.3917
C67 C 0.8105(2) 0.32906(15) 0.35938(12)
H69 H 0.8797 0.3413 0.3804
C68 C 0.7773(2) 0.26995(14) 0.32207(11)
C69 C 0.6759(2) 0.25475(15) 0.29179(11)
H70 H 0.6506 0.2149 0.2659
C70 C 0.6125(2) 0.29711(15) 0.29914(12)
H71 H 0.5439 0.2866 0.2781
C71 C 0.8476(2) 0.22521(14) 0.31461(10)
C72 C 0.9653(2) 0.24725(14) 0.32659(11)
H72 H 1.0016 0.2917 0.3392
C73 C 1.0289(3) 0.20499(14) 0.32016(11)
H73 H 1.1092 0.2203 0.3279
C74 C 0.8641(3) 0.11854(15) 0.29092(11)
H74 H 0.8295 0.0739 0.2790
C75 C 0.7984(3) 0.15940(15) 0.29586(11)
H75 H 0.7186 0.1428 0.2864
C76 C 1.0459(3) 0.09621(16) 0.29773(12)
H76 H 1.0259 0.0731 0.3212
H77 H 1.1269 0.1196 0.3048
H78 H 1.0304 0.0660 0.2638
N3 N -0.1531(2) 0.34640(14) 0.60781(11)
N4 N 0.1665(2) 0.12976(12) 0.54915(9)
C77 C -0.2192(3) 0.39377(19) 0.61822(18)
H79 H -0.2758 0.3843 0.6404
H80 H -0.2579 0.3917 0.5870
H81 H -0.1675 0.4365 0.6341
C78 C -0.0461(3) 0.36362(16) 0.62832(13)
H82 H -0.0133 0.4056 0.6505
C79 C 0.0179(3) 0.32099(15) 0.61762(11)
H83 H 0.0944 0.3337 0.6323
C80 C -0.0300(2) 0.25932(15) 0.58521(11)
C81 C -0.1428(3) 0.24229(16) 0.56478(12)
H84 H -0.1784 0.2004 0.5429
C82 C -0.2023(3) 0.28716(18) 0.57674(14)
H85 H -0.2791 0.2760 0.5628
C83 C 0.0377(2) 0.21386(14) 0.57229(10)
C84 C 0.1523(3) 0.23408(14) 0.56523(11)
H86 H 0.1866 0.2773 0.5686
C85 C 0.2144(3) 0.19136(15) 0.55357(12)
H87 H 0.2920 0.2050 0.5485
C86 C 0.0567(3) 0.10874(15) 0.55500(11)
H88 H 0.0246 0.0652 0.5514
C87 C -0.0096(3) 0.14977(15) 0.56612(11)
H89 H -0.0877 0.1344 0.5696
C88 C 0.2365(3) 0.08469(17) 0.53718(14)
H90 H 0.1971 0.0471 0.5089
H91 H 0.2487 0.0717 0.5660
H92 H 0.3101 0.1054 0.5287
N5 N 0.7932(2) 0.41443(12) 0.87813(10)
N6 N 1.1277(2) 0.20318(13) 0.81746(9)
C89 C 0.7215(3) 0.45840(18) 0.89237(16)
H93 H 0.7123 0.4678 0.9277
H94 H 0.6467 0.4385 0.8727
H95 H 0.7580 0.4980 0.8861
C90 C 0.9055(3) 0.43613(16) 0.89206(13)
H96 H 0.9388 0.4800 0.9100
C91 C 0.9731(3) 0.39588(14) 0.88071(12)
H97 H 1.0527 0.4120 0.8909
C92 C 0.9257(2) 0.33136(14) 0.85423(11)
C93 C 0.8089(3) 0.31079(15) 0.84055(12)
H98 H 0.7732 0.2671 0.8228
C94 C 0.7442(3) 0.35270(15) 0.85238(12)
H99 H 0.6646 0.3380 0.8423
C95 C 0.9965(2) 0.28662(14) 0.84214(10)
C96 C 1.1153(2) 0.30876(15) 0.84927(11)
H100 H 1.1524 0.3530 0.8630
C97 C 1.1776(3) 0.26610(16) 0.83638(12)
H101 H 1.2583 0.2814 0.8409
C98 C 1.0136(3) 0.18025(15) 0.81058(11)
H102 H 0.9791 0.1356 0.7976
C99 C 0.9470(3) 0.22085(14) 0.82220(11)
H103 H 0.8665 0.2042 0.8167
C100 C 1.1993(3) 0.15896(18) 0.80426(13)
H104 H 1.1505 0.1152 0.7894
H105 H 1.2450 0.1625 0.8342
H106 H 1.2499 0.1699 0.7804
N7 N -0.1431(2) 0.34770(12) 0.10202(9)
N8 N 0.1754(2) 0.13006(12) 0.05210(9)
C101 C -0.2070(3) 0.39604(16) 0.11187(13)
H107 H -0.1619 0.4354 0.1373
H108 H -0.2794 0.3799 0.1236
H109 H -0.2218 0.4047 0.0812
C102 C -0.0343(2) 0.36567(15) 0.12202(11)
H110 H -0.0004 0.4084 0.1426
C103 C 0.0282(2) 0.32268(14) 0.11289(11)
H111 H 0.1051 0.3356 0.1273
C104 C -0.0210(2) 0.26016(14) 0.08251(11)
C105 C -0.1347(3) 0.24283(15) 0.06291(11)
H112 H -0.1710 0.2002 0.0427
C106 C -0.1941(3) 0.28719(15) 0.07270(12)
H113 H -0.2712 0.2754 0.0589
C107 C 0.0465(2) 0.21432(14) 0.07162(10)
C108 C 0.1617(2) 0.23391(14) 0.06513(10)
H114 H 0.1965 0.2768 0.0675
C109 C 0.2235(2) 0.19110(14) 0.05543(11)
H115 H 0.3015 0.2044 0.0510
C110 C 0.0644(2) 0.10959(14) 0.05754(11)
H116 H 0.0318 0.0664 0.0548
C111 C -0.0013(2) 0.15047(14) 0.06700(11)
H117 H -0.0796 0.1356 0.0705
C112 C 0.2440(3) 0.08447(16) 0.04206(13)
H118 H 0.3199 0.1049 0.0354
H119 H 0.2067 0.0473 0.0131
H120 H 0.2510 0.0709 0.0710
N9 N 0.2525(8) 0.5885(6) 0.2452(5)
C113 C 0.3435(8) 0.5985(6) 0.2587(5)
C114 C 0.4647(8) 0.5999(7) 0.2721(5)
O41 O 0.2657(3) 0.5458(2) 0.21400(16)
O42 O 0.3961(4) 0.6427(3) 0.29547(19)
O43 O 0.5197(8) 0.2723(5) 0.6247(4)
O44 O 0.4681(4) 0.2422(3) 0.5992(2)
O45 O 0.3167(9) 0.4413(4) 0.6805(3)
O46 O 0.4307(3) 0.41266(18) 0.67988(14)
O47 O 0.4752(9) 0.1965(5) 0.7289(3)
O48 O 0.5241(4) 0.2374(3) 0.72864(18)
O49 O 0.63830(17) 0.03397(11) 0.47576(8)
O50 O 0.6001(2) 0.15322(12) 0.52454(9)
O51 O 0.3717(2) 0.42465(13) 0.58770(10)
O52 O 0.47701(19) 0.33833(13) 0.83581(9)
O53 O 0.6161(2) 0.34045(15) 0.48049(13)
O54 O 0.5002(3) 0.34122(17) 0.56150(12)
O55 O 0.68970(19) 0.13378(11) 0.77592(8)
O56 O 0.91706(17) 0.03255(10) 0.78619(8)
O57 O 0.5503(2) 0.20641(12) 0.81823(10)
O58 O 0.63379(16) 0.03694(11) 0.97737(8)
O59 O 0.42404(18) 0.14414(11) 0.95960(9)
O60 O 0.63667(19) 0.33853(12) 0.99980(9)
O61 O 0.5287(2) 0.23815(12) 0.91767(10)
O62 O 0.18638(18) 0.55408(10) -0.00012(9)
O63 O 0.18508(19) 0.55795(11) 0.51335(9)
O64 O 0.0369(2) 0.51382(11) 0.62422(9)
O65 O 0.0362(2) 0.50171(12) 0.20261(10)
O66 O 0.0936(2) 0.52650(13) 0.72278(11)
O67 O 0.38472(17) 0.41560(11) 0.08309(8)
O68 O 0.5935(2) 0.15505(11) 0.03172(9)
O69 O 0.3651(2) 0.44725(11) 0.18176(9)
O70 O 0.56722(17) 0.29256(11) 0.14715(9)
O71 O 0.47672(19) 0.31373(13) 0.06258(9)
O72 O 0.6883(2) 0.39400(14) 0.23451(11)
O73 O 0.42615(19) 0.14637(12) 0.45629(9)
O74 O 0.26844(17) 0.30128(10) 0.33513(8)
O75 O 0.52453(19) 0.22608(13) 0.40073(10)
O76 O 0.3709(2) 0.20241(12) 0.31633(9)
O77 O 0.45020(17) 0.17826(10) 0.21647(8)
O78 O 0.08001(16) 0.40145(10) 0.38264(8)
O79 O 0.5406(2) 0.46350(14) 0.25340(10)
O80 O 0.59641(17) 0.98617(10) 0.05550(8)
O81 O 0.59394(18) 0.98499(10) 0.55551(8)
loop_
_geom_bond_atom_site_label_1
_geom_bond_atom_site_label_2
_geom_bond_site_symmetry_1
_geom_bond_site_symmetry_2
S1 O1 1_555 1_555
S2 O4 1_555 1_555
S3 O11 1_555 1_555
S4 O14 1_555 1_555
O2 S1 1_555 1_555
O3 S1 1_555 1_555
O5 S2 1_555 1_555
O6 S2 1_555 1_555
O7 C10 1_555 1_555
O8 C12 1_555 1_555
O9 C14 1_555 1_555
O10 C16 1_555 1_555
O12 S3 1_555 1_555
O13 S3 1_555 1_555
O15 S4 1_555 1_555
O16 S4 1_555 1_555
O17 C26 1_555 1_555
O18 C28 1_555 1_555
O19 C30 1_555 1_555
O20 C1 1_555 1_555
C1 C2 1_555 1_555
C2 H1 1_555 1_555
C3 C2 1_555 1_555
H2 C3 1_555 1_555
C4 S2 1_555 1_555
C5 C4 1_555 1_555
C6 C1 1_555 1_555
C7 S1 1_555 1_555
C8 C7 1_555 1_555
H3 C8 1_555 1_555
C9 C8 1_555 1_555
H4 C9 1_555 1_555
C10 C5 1_555 1_555
C11 O7 1_555 1_555
H5 C11 1_555 1_555
H6 C11 1_555 1_555
C12 C11 1_555 1_555
H7 C12 1_555 1_555
H8 C12 1_555 1_555
C13 O8 1_555 1_555
H9 C13 1_555 1_555
H10 C13 1_555 1_555
C14 C13 1_555 1_555
H11 C14 1_555 1_555
H12 C14 1_555 1_555
C15 O9 1_555 1_555
H13 C15 1_555 1_555
H14 C15 1_555 1_555
C16 C15 1_555 1_555
H15 C16 1_555 1_555
H16 C16 1_555 1_555
C17 O10 1_555 1_555
C18 C17 1_555 1_555
H17 C18 1_555 1_555
C19 C18 1_555 1_555
H18 C19 1_555 1_555
C20 S3 1_555 1_555
C21 C20 1_555 1_555
C22 C17 1_555 1_555
C23 S4 1_555 1_555
C24 C23 1_555 1_555
H19 C24 1_555 1_555
C25 C24 1_555 1_555
H20 C25 1_555 1_555
C26 C21 1_555 1_555
C27 O17 1_555 1_555
H21 C27 1_555 1_555
H22 C27 1_555 1_555
C28 C27 1_555 1_555
H23 C28 1_555 1_555
H24 C28 1_555 1_555
C29 O18 1_555 1_555
H25 C29 1_555 1_555
H26 C29 1_555 1_555
C30 C29 1_555 1_555
H27 C30 1_555 1_555
H28 C30 1_555 1_555
C31 O19 1_555 1_555
H29 C31 1_555 1_555
H30 C31 1_555 1_555
C32 O20 1_555 1_555
H31 C32 1_555 1_555
H32 C32 1_555 1_555
S5 O21 1_555 1_555
S6 O24 1_555 1_555
S7 O31 1_555 1_555
S8 O34 1_555 1_555
O22 S5 1_555 1_555
O23 S5 1_555 1_555
O25 S6 1_555 1_555
O26 S6 1_555 1_555
O27 C42 1_555 1_555
O28 C44 1_555 1_555
O29 C46 1_555 1_555
O30 C48 1_555 1_555
O32 S7 1_555 1_555
O33 S7 1_555 1_555
O35 S8 1_555 1_555
O36 S8 1_555 1_555
O37 C58 1_555 1_555
O38 C60 1_555 1_555
O39 C62 1_555 1_555
O40 C33 1_555 1_555
C33 C34 1_555 1_555
C34 H33 1_555 1_555
C35 C34 1_555 1_555
H34 C35 1_555 1_555
C36 S6 1_555 1_555
C37 C36 1_555 1_555
C38 C33 1_555 1_555
C39 S5 1_555 1_555
C40 C39 1_555 1_555
H35 C40 1_555 1_555
C41 C40 1_555 1_555
H36 C41 1_555 1_555
C42 C37 1_555 1_555
C43 O27 1_555 1_555
H37 C43 1_555 1_555
H38 C43 1_555 1_555
C44 C43 1_555 1_555
H39 C44 1_555 1_555
H40 C44 1_555 1_555
C45 O28 1_555 1_555
H41 C45 1_555 1_555
H42 C45 1_555 1_555
C46 C45 1_555 1_555
H43 C46 1_555 1_555
H44 C46 1_555 1_555
C47 O29 1_555 1_555
H45 C47 1_555 1_555
H46 C47 1_555 1_555
C48 C47 1_555 1_555
H47 C48 1_555 1_555
H48 C48 1_555 1_555
C49 O30 1_555 1_555
C50 C49 1_555 1_555
H49 C50 1_555 1_555
C51 C50 1_555 1_555
H50 C51 1_555 1_555
C52 S8 1_555 1_555
C53 C52 1_555 1_555
C54 C49 1_555 1_555
C55 S7 1_555 1_555
C56 C55 1_555 1_555
H51 C56 1_555 1_555
C57 C56 1_555 1_555
H52 C57 1_555 1_555
C58 C53 1_555 1_555
C59 O37 1_555 1_555
H53 C59 1_555 1_555
H54 C59 1_555 1_555
C60 C59 1_555 1_555
H55 C60 1_555 1_555
H56 C60 1_555 1_555
C61 O38 1_555 1_555
H57 C61 1_555 1_555
H58 C61 1_555 1_555
C62 C61 1_555 1_555
H59 C62 1_555 1_555
H60 C62 1_555 1_555
C63 O39 1_555 1_555
H61 C63 1_555 1_555
H62 C63 1_555 1_555
C64 O40 1_555 1_555
H63 C64 1_555 1_555
H64 C64 1_555 1_555
N1 C65 1_555 1_555
N2 C73 1_555 1_555
C65 H65 1_555 1_555
H66 C65 1_555 1_555
H67 C65 1_555 1_555
C66 N1 1_555 1_555
H68 C66 1_555 1_555
C67 C66 1_555 1_555
H69 C67 1_555 1_555
C68 C67 1_555 1_555
C69 C68 1_555 1_555
H70 C69 1_555 1_555
C70 N1 1_555 1_555
H71 C70 1_555 1_555
C71 C68 1_555 1_555
C72 C71 1_555 1_555
H72 C72 1_555 1_555
C73 C72 1_555 1_555
H73 C73 1_555 1_555
C74 N2 1_555 1_555
H74 C74 1_555 1_555
C75 C71 1_555 1_555
H75 C75 1_555 1_555
C76 N2 1_555 1_555
H76 C76 1_555 1_555
H77 C76 1_555 1_555
H78 C76 1_555 1_555
N3 C77 1_555 1_555
N4 C85 1_555 1_555
C77 H79 1_555 1_555
H80 C77 1_555 1_555
H81 C77 1_555 1_555
C78 N3 1_555 1_555
H82 C78 1_555 1_555
C79 C78 1_555 1_555
H83 C79 1_555 1_555
C80 C79 1_555 1_555
C81 C80 1_555 1_555
H84 C81 1_555 1_555
C82 N3 1_555 1_555
H85 C82 1_555 1_555
C83 C80 1_555 1_555
C84 C83 1_555 1_555
H86 C84 1_555 1_555
C85 C84 1_555 1_555
H87 C85 1_555 1_555
C86 N4 1_555 1_555
H88 C86 1_555 1_555
C87 C83 1_555 1_555
H89 C87 1_555 1_555
C88 N4 1_555 1_555
H90 C88 1_555 1_555
H91 C88 1_555 1_555
H92 C88 1_555 1_555
N5 C89 1_555 1_555
N6 C97 1_555 1_555
C89 H93 1_555 1_555
H94 C89 1_555 1_555
H95 C89 1_555 1_555
C90 N5 1_555 1_555
H96 C90 1_555 1_555
C91 C90 1_555 1_555
H97 C91 1_555 1_555
C92 C91 1_555 1_555
C93 C92 1_555 1_555
H98 C93 1_555 1_555
C94 N5 1_555 1_555
H99 C94 1_555 1_555
C95 C92 1_555 1_555
C96 C95 1_555 1_555
H100 C96 1_555 1_555
C97 C96 1_555 1_555
H101 C97 1_555 1_555
C98 N6 1_555 1_555
H102 C98 1_555 1_555
C99 C95 1_555 1_555
H103 C99 1_555 1_555
C100 N6 1_555 1_555
H104 C100 1_555 1_555
H105 C100 1_555 1_555
H106 C100 1_555 1_555
N7 C101 1_555 1_555
N8 C109 1_555 1_555
C101 H107 1_555 1_555
H108 C101 1_555 1_555
H109 C101 1_555 1_555
C102 N7 1_555 1_555
H110 C102 1_555 1_555
C103 C102 1_555 1_555
H111 C103 1_555 1_555
C104 C103 1_555 1_555
C105 C104 1_555 1_555
H112 C105 1_555 1_555
C106 N7 1_555 1_555
H113 C106 1_555 1_555
C107 C104 1_555 1_555
C108 C107 1_555 1_555
H114 C108 1_555 1_555
C109 C108 1_555 1_555
H115 C109 1_555 1_555
C110 N8 1_555 1_555
H116 C110 1_555 1_555
C111 C107 1_555 1_555
H117 C111 1_555 1_555
C112 N8 1_555 1_555
H118 C112 1_555 1_555
H119 C112 1_555 1_555
H120 C112 1_555 1_555
N9 C113 1_555 1_555
C113 C114 1_555 1_555
C3 C4 1_555 1_555
C5 C6 1_555 1_555
C6 C7 1_555 1_555
C9 C10 1_555 1_555
C19 C20 1_555 1_555
C21 C22 1_555 1_555
C22 C23 1_555 1_555
C25 C26 1_555 1_555
C31 C32 1_555 1_555
C35 C36 1_555 1_555
C37 C38 1_555 1_555
C38 C39 1_555 1_555
C41 C42 1_555 1_555
C51 C52 1_555 1_555
C53 C54 1_555 1_555
C54 C55 1_555 1_555
C57 C58 1_555 1_555
C63 C64 1_555 1_555
C69 C70 1_555 1_555
C74 C75 1_555 1_555
C81 C82 1_555 1_555
C86 C87 1_555 1_555
C93 C94 1_555 1_555
C98 C99 1_555 1_555
C105 C106 1_555 1_555
C110 C111 1_555 1_555

#END
