
#######################################################################
#
#                 Cambridge Crystallographic Data Centre
#                                CCDC 
#
#######################################################################
#
# If this CIF has been generated from an entry in the Cambridge 
# Structural Database, then it will include bibliographic, chemical, 
# crystal, experimental, refinement or atomic coordinate data resulting 
# from the CCDC's data processing and validation procedures.
#
#######################################################################

data_TIJJEB
_chemical_formula_moiety         'C16 H11 N4 O4 1+,Cl1 1-,2.25(H2 O1)'
_chemical_name_systematic        
'6-Carboxy-5-carboxylatopyrazine-2,3-diyldi-2-pyridinium chloride hydrate'
_symmetry_cell_setting           monoclinic
_symmetry_space_group_name_H-M   'I 2/a'
_symmetry_Int_Tables_number      15
_space_group_name_Hall           '-I 2ya'
loop_
_symmetry_equiv_pos_site_id
_symmetry_equiv_pos_as_xyz
1 x,y,z
2 1/2+x,1/2+y,1/2+z
3 1/2+x,-y,z
4 x,1/2-y,1/2+z
5 -x,-y,-z
6 1/2-x,1/2-y,1/2-z
7 1/2-x,y,-z
8 -x,1/2+y,1/2-z
_cell_length_a                   19.5883(17)
_cell_length_b                   8.0623(5)
_cell_length_c                   22.936(2)
_cell_angle_alpha                90
_cell_angle_beta                 90.559(11)
_cell_angle_gamma                90
_cell_volume                     3622.04
_exptl_crystal_colour            colorless
_exptl_crystal_description       rod
_cell_formula_units_Z            8
loop_
_atom_site_label
_atom_site_type_symbol
_atom_site_fract_x
_atom_site_fract_y
_atom_site_fract_z
O1 O 0.00022(9) 0.1926(2) 0.33297(7)
O2 O -0.04931(9) 0.4384(2) 0.31389(8)
H1 H -0.0711(17) 0.427(4) 0.3513(16)
O3 O -0.12559(9) 0.1414(3) 0.14811(8)
O4 O -0.12505(7) 0.1999(2) 0.24294(7)
N1 N 0.07729(9) 0.3448(2) 0.23364(8)
N2 N -0.00305(9) 0.2937(2) 0.13643(8)
N3 N 0.20722(9) 0.4782(3) 0.21689(8)
H2 H 0.1784(14) 0.552(4) 0.2371(11)
N4 N 0.04464(11) 0.2977(3) 0.02828(8)
H3 H 0.0143(14) 0.218(4) 0.0390(11)
C1 C 0.01098(10) 0.3102(3) 0.23847(9)
C2 C -0.02847(10) 0.2726(3) 0.18944(9)
C3 C 0.06192(11) 0.3391(3) 0.13071(9)
C4 C 0.10405(10) 0.3533(3) 0.17995(9)
C5 C 0.17977(11) 0.3684(3) 0.17965(10)
C6 C 0.22210(13) 0.2671(4) 0.14841(12)
H4 H 0.2041(12) 0.194(3) 0.1250(11)
C7 C 0.29176(13) 0.2780(4) 0.15607(13)
H5 H 0.3200(15) 0.208(4) 0.1362(12)
C8 C 0.31845(13) 0.3931(4) 0.19409(12)
H6 H 0.3652(14) 0.403(3) 0.2006(10)
C9 C 0.27469(12) 0.4937(4) 0.22394(12)
H7 H 0.2894(12) 0.575(3) 0.2516(11)
C10 C 0.08151(12) 0.3768(3) 0.06990(10)
C11 C 0.12867(14) 0.4934(4) 0.05341(12)
H8 H 0.1562(14) 0.547(4) 0.0826(12)
C12 C 0.13715(17) 0.5273(5) -0.00524(13)
H9 H 0.1709(15) 0.608(4) -0.0163(12)
C13 C 0.09857(17) 0.4461(4) -0.04616(13)
H10 H 0.0993(16) 0.469(4) -0.0863(15)
C14 C 0.05233(17) 0.3294(4) -0.02876(12)
H11 H 0.0220(14) 0.270(4) -0.0548(12)
C15 C -0.01420(11) 0.3048(3) 0.30038(10)
C16 C -0.09956(11) 0.1984(3) 0.19289(11)
Cl1 Cl 0.12673(3) 0.94713(9) 0.07395(3)
O5 O 0.44735(11) 0.9286(3) 0.04654(11)
H12 H 0.4215(18) 0.931(4) 0.0177(16)
H13 H 0.4188(19) 0.899(5) 0.0784(18)
O6 O 0.2565(4) 0.7120(7) 0.1020(5)
H14 H 0.228(4) 0.789(11) 0.088(3)
H15 H 0.288(4) 0.774(10) 0.107(4)
O8 O 0.2500 0.1391(9) 0.0000
H18 H 0.2187 0.0920 0.0189
H18F H 0.2813 0.0920 -0.0189
O7? O 0.2358(5) 0.770(2) 0.1446(9)
H16? H 0.286(5) 0.786(10) 0.145(4)
H17? H 0.210(6) 0.846(15) 0.115(7)
loop_
_geom_bond_atom_site_label_1
_geom_bond_atom_site_label_2
_geom_bond_site_symmetry_1
_geom_bond_site_symmetry_2
O1 C15 1_555 1_555
O2 H1 1_555 1_555
O3 C16 1_555 1_555
O4 C16 1_555 1_555
N1 C1 1_555 1_555
N2 C2 1_555 1_555
N3 H2 1_555 1_555
N4 H3 1_555 1_555
C1 C2 1_555 1_555
C2 C16 1_555 1_555
C3 N2 1_555 1_555
C4 N1 1_555 1_555
C5 N3 1_555 1_555
C6 C5 1_555 1_555
H4 C6 1_555 1_555
C7 C6 1_555 1_555
H5 C7 1_555 1_555
C8 C7 1_555 1_555
H6 C8 1_555 1_555
C9 N3 1_555 1_555
H7 C9 1_555 1_555
C10 N4 1_555 1_555
C11 C10 1_555 1_555
H8 C11 1_555 1_555
C12 C11 1_555 1_555
H9 C12 1_555 1_555
C13 C12 1_555 1_555
H10 C13 1_555 1_555
C14 N4 1_555 1_555
H11 C14 1_555 1_555
C15 O2 1_555 1_555
O5 H12 1_555 1_555
H13 O5 1_555 1_555
O6 H14 1_555 1_555
H15 O6 1_555 1_555
O8 H18 1_555 1_555
H18F O8 1_555 1_555
C1 C15 1_555 1_555
C3 C4 1_555 1_555
C3 C10 1_555 1_555
C4 C5 1_555 1_555
C8 C9 1_555 1_555
C13 C14 1_555 1_555

#END
