
#######################################################################
#
#                 Cambridge Crystallographic Data Centre
#                                CCDC 
#
#######################################################################
#
# If this CIF has been generated from an entry in the Cambridge 
# Structural Database, then it will include bibliographic, chemical, 
# crystal, experimental, refinement or atomic coordinate data resulting 
# from the CCDC's data processing and validation procedures.
#
#######################################################################

data_TIJTOW
_chemical_formula_moiety         'C14 H12 N2 O1,H2 O1'
_chemical_name_systematic        
"4'-Acetyl-7-methylpyrrolo(1',5'-a)-1,8-naphthyridine monohydrate"
_symmetry_cell_setting           triclinic
_symmetry_space_group_name_H-M   'P -1'
_symmetry_Int_Tables_number      2
_space_group_name_Hall           '-P 1'
loop_
_symmetry_equiv_pos_site_id
_symmetry_equiv_pos_as_xyz
1 x,y,z
2 -x,-y,-z
_cell_length_a                   7.1455(12)
_cell_length_b                   8.2983(14)
_cell_length_c                   10.6337(17)
_cell_angle_alpha                95.565(3)
_cell_angle_beta                 98.152(2)
_cell_angle_gamma                103.957(3)
_cell_volume                     600.059
_chemical_melting_point          '132-133 deg.C'
_cell_formula_units_Z            2
loop_
_atom_site_label
_atom_site_type_symbol
_atom_site_fract_x
_atom_site_fract_y
_atom_site_fract_z
O1 O 0.2935(2) 0.7611(2) 0.06926(12)
N1 N 0.2035(2) 0.95944(18) 0.66458(13)
N2 N 0.22439(18) 0.85005(17) 0.45834(12)
C1 C 0.1748(3) 1.0584(3) 0.88094(18)
H1 H 0.1020 0.9440 0.8770
H2 H 0.1011 1.1317 0.9121
H3 H 0.2973 1.0778 0.9379
C2 C 0.2124(3) 1.0923(2) 0.74968(16)
C3 C 0.2561(3) 1.2554(2) 0.71875(17)
H4 H 0.2586 1.3450 0.7793
C4 C 0.2953(3) 1.2833(2) 0.59969(18)
H5 H 0.3269 1.3921 0.5796
C5 C 0.2878(2) 1.1477(2) 0.50758(16)
C6 C 0.2381(2) 0.9896(2) 0.54731(15)
C7 C 0.3272(3) 1.1624(2) 0.38031(17)
H6 H 0.3636 1.2681 0.3551
C8 C 0.3124(2) 1.0255(2) 0.29645(16)
H7 H 0.3387 1.0374 0.2142
C9 C 0.2567(2) 0.8635(2) 0.33344(15)
C10 C 0.2281(2) 0.7007(2) 0.27206(15)
C11 C 0.1781(3) 0.5908(2) 0.36331(16)
H8 H 0.1510 0.4745 0.3486
C12 C 0.1765(2) 0.6829(2) 0.47519(16)
H9 H 0.1482 0.6410 0.5503
C13 C 0.2533(3) 0.6549(2) 0.14148(16)
C14 C 0.2329(4) 0.4740(3) 0.09618(19)
H10 H 0.2308 0.4589 0.0053
H11 H 0.1133 0.4073 0.1152
H12 H 0.3417 0.4400 0.1390
O2 O 0.3230(3) 0.6798(2) 0.80708(14)
H13 H 0.2875 0.7558 0.7673
H14 H 0.3271 0.6973 0.8891
loop_
_geom_bond_atom_site_label_1
_geom_bond_atom_site_label_2
_geom_bond_site_symmetry_1
_geom_bond_site_symmetry_2
O1 C13 1_555 1_555
N1 C2 1_555 1_555
N2 C6 1_555 1_555
C1 H1 1_555 1_555
H2 C1 1_555 1_555
H3 C1 1_555 1_555
C2 C1 1_555 1_555
C3 C2 1_555 1_555
H4 C3 1_555 1_555
C4 C3 1_555 1_555
H5 C4 1_555 1_555
C5 C4 1_555 1_555
C6 N1 1_555 1_555
C7 C5 1_555 1_555
H6 C7 1_555 1_555
C8 C7 1_555 1_555
H7 C8 1_555 1_555
C9 N2 1_555 1_555
C10 C9 1_555 1_555
C11 C10 1_555 1_555
H8 C11 1_555 1_555
C12 N2 1_555 1_555
H9 C12 1_555 1_555
C13 C10 1_555 1_555
C14 C13 1_555 1_555
H10 C14 1_555 1_555
H11 C14 1_555 1_555
H12 C14 1_555 1_555
O2 H13 1_555 1_555
H14 O2 1_555 1_555
C5 C6 1_555 1_555
C8 C9 1_555 1_555
C11 C12 1_555 1_555

#END
