
#######################################################################
#
#                 Cambridge Crystallographic Data Centre
#                                CCDC 
#
#######################################################################
#
# If this CIF has been generated from an entry in the Cambridge 
# Structural Database, then it will include bibliographic, chemical, 
# crystal, experimental, refinement or atomic coordinate data resulting 
# from the CCDC's data processing and validation procedures.
#
#######################################################################

data_TIJTIP
_chemical_formula_moiety         'C16 H4 N6 O8,C6 H5 Cl1'
_chemical_name_systematic        
'2-(2,4,5,7-Tetranitrofluorene-9-ylidene)propanedinitrile chlorobenzene solvate'
_symmetry_cell_setting           monoclinic
_symmetry_space_group_name_H-M   'P 21/c'
_symmetry_Int_Tables_number      14
_space_group_name_Hall           '-P 2ybc'
loop_
_symmetry_equiv_pos_site_id
_symmetry_equiv_pos_as_xyz
1 x,y,z
2 x,1/2-y,1/2+z
3 -x,-y,-z
4 -x,1/2+y,1/2-z
_cell_length_a                   16.823(2)
_cell_length_b                   8.360(6)
_cell_length_c                   17.461(3)
_cell_angle_alpha                90
_cell_angle_beta                 118.330(10)
_cell_angle_gamma                90
_cell_volume                     2161.6
_exptl_crystal_colour            yellow
_exptl_crystal_description       prism
_cell_formula_units_Z            4
loop_
_atom_site_label
_atom_site_type_symbol
_atom_site_fract_x
_atom_site_fract_y
_atom_site_fract_z
C1 C 0.23854(11) -0.19503(19) 0.34253(10)
H1 H 0.1855(13) -0.230(2) 0.3425(12)
C2 C 0.32228(11) -0.24500(19) 0.40781(10)
C3 C 0.40327(11) -0.18737(19) 0.41742(10)
H2 H 0.4602(13) -0.218(2) 0.4659(12)
C4 C 0.40084(10) -0.07805(18) 0.35642(9)
C5 C 0.34500(10) 0.11195(18) 0.16181(10)
C6 C 0.30495(11) 0.20857(18) 0.08858(10)
H3 H 0.3387(12) 0.248(2) 0.0629(12)
C7 C 0.21337(11) 0.23966(18) 0.05338(9)
C8 C 0.15945(11) 0.17234(19) 0.08505(10)
H4 H 0.0965(13) 0.193(2) 0.0568(12)
C9 C 0.16176(10) -0.01653(18) 0.20435(9)
C10 C 0.23862(10) -0.09306(18) 0.27946(10)
C11 C 0.32020(10) -0.03994(17) 0.28250(9)
C12 C 0.29654(10) 0.05363(17) 0.20241(9)
C13 C 0.20180(10) 0.07749(18) 0.15932(10)
C14 C 0.07282(11) -0.03101(19) 0.18105(10)
C15 C 0.03905(11) -0.1325(2) 0.22607(11)
C16 C 0.00240(11) 0.0503(2) 0.10676(11)
N1 N 0.32456(11) -0.35946(17) 0.47329(9)
N2 N 0.48503(9) 0.01231(17) 0.38111(8)
N3 N 0.43829(9) 0.06086(16) 0.18837(8)
N4 N 0.17001(9) 0.34439(17) -0.02414(8)
N5 N 0.00956(11) -0.2142(2) 0.25905(11)
N6 N -0.05422(10) 0.1107(2) 0.04664(10)
O1 O 0.25449(10) -0.38247(17) 0.47685(9)
O2 O 0.39689(9) -0.42598(17) 0.51972(9)
O3 O 0.55675(8) -0.04650(15) 0.43572(8)
O4 O 0.47786(8) 0.14739(14) 0.35047(8)
O5 O 0.46121(8) -0.07217(14) 0.22242(8)
O6 O 0.48590(7) 0.14971(14) 0.17174(7)
O7 O 0.21897(9) 0.41470(16) -0.04710(8)
O8 O 0.08731(8) 0.35537(18) -0.06039(8)
Cl1 Cl 0.24376(4) 0.32680(6) 0.33292(3)
C17 C 0.23139(12) 0.4516(2) 0.24742(11)
C18 C 0.30763(12) 0.4980(2) 0.24204(11)
H5 H 0.3672(14) 0.463(3) 0.2850(13)
C19 C 0.29692(12) 0.5967(2) 0.17370(12)
H6 H 0.3485(14) 0.631(3) 0.1685(13)
C20 C 0.21124(13) 0.6465(2) 0.11179(12)
H7 H 0.2054(15) 0.714(3) 0.0660(15)
C21 C 0.13567(12) 0.5974(2) 0.11843(12)
H8 H 0.0760(15) 0.629(3) 0.0760(14)
C22 C 0.14494(12) 0.4998(2) 0.18646(12)
H9 H 0.0942(14) 0.468(3) 0.1921(13)
loop_
_geom_bond_atom_site_label_1
_geom_bond_atom_site_label_2
_geom_bond_site_symmetry_1
_geom_bond_site_symmetry_2
C1 H1 1_555 1_555
C2 C1 1_555 1_555
C3 C2 1_555 1_555
H2 C3 1_555 1_555
C4 C3 1_555 1_555
C5 C6 1_555 1_555
C6 H3 1_555 1_555
C7 C6 1_555 1_555
C8 C7 1_555 1_555
H4 C8 1_555 1_555
C9 C10 1_555 1_555
C10 C1 1_555 1_555
C11 C4 1_555 1_555
C12 C5 1_555 1_555
C13 C8 1_555 1_555
C14 C9 1_555 1_555
C15 C14 1_555 1_555
C16 C14 1_555 1_555
N1 C2 1_555 1_555
N2 C4 1_555 1_555
N3 C5 1_555 1_555
N4 C7 1_555 1_555
N5 C15 1_555 1_555
N6 C16 1_555 1_555
O1 N1 1_555 1_555
O2 N1 1_555 1_555
O3 N2 1_555 1_555
O4 N2 1_555 1_555
O5 N3 1_555 1_555
O6 N3 1_555 1_555
O7 N4 1_555 1_555
O8 N4 1_555 1_555
Cl1 C17 1_555 1_555
C17 C18 1_555 1_555
C18 H5 1_555 1_555
C19 C18 1_555 1_555
H6 C19 1_555 1_555
C20 C19 1_555 1_555
H7 C20 1_555 1_555
C21 C20 1_555 1_555
H8 C21 1_555 1_555
C22 C17 1_555 1_555
H9 C22 1_555 1_555
C9 C13 1_555 1_555
C10 C11 1_555 1_555
C11 C12 1_555 1_555
C12 C13 1_555 1_555
C21 C22 1_555 1_555

#END
