
#######################################################################
#
#                 Cambridge Crystallographic Data Centre
#                                CCDC 
#
#######################################################################
#
# If this CIF has been generated from an entry in the Cambridge 
# Structural Database, then it will include bibliographic, chemical, 
# crystal, experimental, refinement or atomic coordinate data resulting 
# from the CCDC's data processing and validation procedures.
#
#######################################################################

data_TIJZIV01
_chemical_compound_source        'fruit of Melicope ellyrana'
_chemical_name_common            
4',5-Dihydroxy-3,3',8-trimethoxy-7-(3-methylbut-2-enyloxy)flavone
_chemical_formula_moiety         'C23 H24 O8'
_chemical_name_systematic        
5-Hydroxy-2-(4-hydroxy-3-methoxyphenyl)-3,8-dimethoxy-7-(3-methylbut-2-enyloxy)-4H-1-benzopyran-4-one
_symmetry_cell_setting           monoclinic
_symmetry_space_group_name_H-M   'P 21/n'
_symmetry_Int_Tables_number      14
_space_group_name_Hall           '-P 2yn'
loop_
_symmetry_equiv_pos_site_id
_symmetry_equiv_pos_as_xyz
1 x,y,z
2 1/2+x,1/2-y,1/2+z
3 -x,-y,-z
4 1/2-x,1/2+y,1/2-z
_cell_length_a                   14.238(4)
_cell_length_b                   11.053(5)
_cell_length_c                   14.426(5)
_cell_angle_alpha                90
_cell_angle_beta                 111.979(18)
_cell_angle_gamma                90
_cell_volume                     2105.26
_exptl_crystal_colour            yellow
_exptl_crystal_description       prism
_cell_formula_units_Z            4
_exptl_crystal_recrystallization_method hexane
loop_
_atom_site_label
_atom_site_type_symbol
_atom_site_fract_x
_atom_site_fract_y
_atom_site_fract_z
O1 O 0.89228(17) 0.3923(2) 0.44099(16)
O2 O 0.65547(19) 0.4142(2) 0.4787(2)
O3 O 0.63618(19) 0.5967(2) 0.34305(19)
O4 O 0.7059(2) 0.7113(3) 0.2249(2)
O5 O 1.02792(19) 0.5804(2) 0.22994(18)
O6 O 1.04877(19) 0.4269(2) 0.38221(19)
O7 O 0.9373(2) -0.0175(3) 0.7492(2)
O8 O 1.0576(2) 0.0509(3) 0.6524(2)
C1 C 0.8175(3) 0.3697(3) 0.4759(3)
C2 C 0.7317(3) 0.4379(3) 0.4447(3)
C3 C 0.7954(3) 0.5524(3) 0.3357(3)
C4 C 0.7154(3) 0.5336(3) 0.3729(3)
C5 C 0.7887(3) 0.6385(4) 0.2618(3)
C6 C 0.8642(3) 0.6486(4) 0.2244(3)
C7 C 0.9503(3) 0.5759(3) 0.2630(3)
C8 C 0.9599(3) 0.4918(3) 0.3375(3)
C9 C 0.8814(3) 0.4793(3) 0.3710(2)
C10 C 0.8455(3) 0.2667(3) 0.5461(3)
C11 C 0.7850(3) 0.2239(4) 0.5956(3)
C12 C 0.6522(4) 0.4982(5) 0.5538(4)
C13 C 0.8165(3) 0.1295(4) 0.6624(3)
C14 C 0.9089(3) 0.0741(4) 0.6817(3)
C15 C 0.9685(3) 0.1134(4) 0.6302(3)
C16 C 0.9375(3) 0.2080(3) 0.5650(3)
C17 C 1.0187(3) 0.6635(4) 0.1501(3)
C18 C 1.1069(3) 0.6438(4) 0.1204(3)
C19 C 1.1036(3) 0.6505(4) 0.0282(3)
C20 C 1.0535(4) 0.3132(5) 0.3396(4)
C21 C 1.1204(3) 0.0803(4) 0.5997(3)
C22 C 1.1957(4) 0.6311(5) 0.0036(4)
C23 C 1.0096(4) 0.6792(5) -0.0598(3)
H1 H 0.6594 0.6862 0.2617
H2 H 0.8579 0.7052 0.1726
H3 H 0.7210 0.2600 0.5832
H4 H 0.7746 0.1024 0.6960
H5 H 1.0031 -0.0544 0.7624
H6 H 0.9800 0.2343 0.5313
H7 H 1.1810 0.6280 0.1803
H8 H 0.7099 0.4858 0.6140
H9 H 0.6531 0.5788 0.5315
H10 H 0.5924 0.4853 0.5670
H11 H 1.1882 0.0574 0.6384
H12 H 1.0978 0.0386 0.5378
H13 H 1.1176 0.1651 0.5880
H14 H 0.9572 0.6473 0.0941
H15 H 1.0177 0.7441 0.1711
H16 H 1.2529 0.6182 0.0635
H17 H 1.1860 0.5628 -0.0388
H18 H 1.2070 0.7009 -0.0295
H19 H 0.9559 0.6968 -0.0379
H20 H 1.0215 0.7470 -0.0942
H21 H 0.9913 0.6114 -0.1037
H22 H 0.9887 0.2748 0.3194
H23 H 1.0701 0.3244 0.2819
H24 H 1.1027 0.2640 0.3863
loop_
_geom_bond_atom_site_label_1
_geom_bond_atom_site_label_2
_geom_bond_site_symmetry_1
_geom_bond_site_symmetry_2
O1 C1 1_555 1_555
O2 C2 1_555 1_555
O3 C4 1_555 1_555
O4 C5 1_555 1_555
O5 C7 1_555 1_555
O6 C8 1_555 1_555
O7 C14 1_555 1_555
O8 C15 1_555 1_555
C1 C2 1_555 1_555
C2 C4 1_555 1_555
C3 C4 1_555 1_555
C5 C3 1_555 1_555
C6 C5 1_555 1_555
C7 C6 1_555 1_555
C8 C7 1_555 1_555
C9 O1 1_555 1_555
C10 C1 1_555 1_555
C11 C10 1_555 1_555
C12 O2 1_555 1_555
C13 C11 1_555 1_555
C14 C13 1_555 1_555
C15 C14 1_555 1_555
C16 C10 1_555 1_555
C17 O5 1_555 1_555
C18 C17 1_555 1_555
C19 C18 1_555 1_555
C20 O6 1_555 1_555
C21 O8 1_555 1_555
C22 C19 1_555 1_555
C23 C19 1_555 1_555
H1 O4 1_555 1_555
H2 C6 1_555 1_555
H3 C11 1_555 1_555
H4 C13 1_555 1_555
H5 O7 1_555 1_555
H6 C16 1_555 1_555
H7 C18 1_555 1_555
H8 C12 1_555 1_555
H9 C12 1_555 1_555
H10 C12 1_555 1_555
H11 C21 1_555 1_555
H12 C21 1_555 1_555
H13 C21 1_555 1_555
H14 C17 1_555 1_555
H15 C17 1_555 1_555
H16 C22 1_555 1_555
H17 C22 1_555 1_555
H18 C22 1_555 1_555
H19 C23 1_555 1_555
H20 C23 1_555 1_555
H21 C23 1_555 1_555
H22 C20 1_555 1_555
H23 C20 1_555 1_555
H24 C20 1_555 1_555
C3 C9 1_555 1_555
C8 C9 1_555 1_555
C15 C16 1_555 1_555

#END
