
#######################################################################
#
#                 Cambridge Crystallographic Data Centre
#                                CCDC 
#
#######################################################################
#
# If this CIF has been generated from an entry in the Cambridge 
# Structural Database, then it will include bibliographic, chemical, 
# crystal, experimental, refinement or atomic coordinate data resulting 
# from the CCDC's data processing and validation procedures.
#
#######################################################################

data_TIKMAE
_chemical_formula_moiety         'C24 H22 O5'
_chemical_name_systematic        
'ethyl 3a-hydroxy-9a-[(4-methylphenyl)methyl]-4,9-dioxo-3a,4,9,9a-tetrahydro-1H-cyclopenta[b]naphthalene-3-carboxylate unknown solvate'
_symmetry_cell_setting           triclinic
_symmetry_space_group_name_H-M   'P -1'
_symmetry_Int_Tables_number      2
_space_group_name_Hall           '-P 1'
loop_
_symmetry_equiv_pos_site_id
_symmetry_equiv_pos_as_xyz
1 x,y,z
2 -x,-y,-z
_cell_length_a                   7.9314(8)
_cell_length_b                   12.7415(14)
_cell_length_c                   12.8927(13)
_cell_angle_alpha                68.671(10)
_cell_angle_beta                 74.110(9)
_cell_angle_gamma                74.113(9)
_cell_volume                     1145.03
_exptl_crystal_colour            colorless
_exptl_crystal_description       plate
_cell_formula_units_Z            2
loop_
_atom_site_label
_atom_site_type_symbol
_atom_site_fract_x
_atom_site_fract_y
_atom_site_fract_z
O1 O 0.46425(17) 0.71947(12) 0.87967(12)
O2 O 0.00713(18) 0.77613(13) 0.61928(12)
O3 O 0.17063(17) 0.63098(11) 0.98404(11)
H1 H 0.260100 0.609515 1.014875
O4 O 0.57767(18) 0.47351(11) 0.86641(13)
O5 O 0.44099(17) 0.34265(11) 0.86062(13)
C1 C 0.4219(2) 0.76380(16) 0.69304(16)
C2 C 0.5873(3) 0.79635(18) 0.64107(18)
H2 H 0.673876 0.782202 0.685361
C3 C 0.6243(3) 0.8490(2) 0.5254(2)
H3 H 0.736998 0.870680 0.490187
C4 C 0.4988(3) 0.8707(2) 0.4600(2)
H4 H 0.525064 0.907452 0.380448
C5 C 0.3352(3) 0.83869(18) 0.51080(18)
H5 H 0.249132 0.853816 0.465878
C6 C 0.2957(2) 0.78450(16) 0.62722(16)
C7 C 0.1149(2) 0.75522(16) 0.67910(17)
C8 C 0.0609(2) 0.70283(15) 0.80806(16)
C9 C 0.2282(2) 0.64470(15) 0.86592(16)
C10 C 0.3812(2) 0.71063(15) 0.81779(16)
C11 C 0.2732(2) 0.52680(15) 0.84773(16)
C12 C 0.1292(2) 0.50264(16) 0.83426(17)
H6 H 0.125987 0.431213 0.828002
C13 C -0.0268(2) 0.60022(16) 0.83009(18)
H7 H -0.113930 0.586806 0.902859
H8 H -0.087748 0.612820 0.767843
C14 C 0.4466(3) 0.44735(16) 0.85979(16)
C15 C 0.6063(3) 0.25702(17) 0.8665(2)
H9 H 0.670470 0.263169 0.919326
H10 H 0.684982 0.269428 0.790549
C16 C 0.5593(3) 0.1428(2) 0.9070(3)
H11 H 0.497497 0.137212 0.853541
H12 H 0.480846 0.131596 0.981911
H13 H 0.668459 0.083601 0.912429
C17 C -0.0731(2) 0.79555(16) 0.85552(17)
H14 H -0.186274 0.811093 0.829217
H15 H -0.099011 0.763884 0.939363
C18 C -0.0142(2) 0.90864(16) 0.82323(17)
C19 C 0.0860(3) 0.92594(17) 0.88654(18)
H16 H 0.122266 0.864577 0.949900
C20 C 0.1341(3) 1.03094(18) 0.85919(19)
H17 H 0.202843 1.040196 0.903991
C21 C 0.0834(3) 1.12257(17) 0.76761(19)
C22 C -0.0129(3) 1.10479(17) 0.70242(19)
H18 H -0.046717 1.165743 0.638067
C23 C -0.0606(3) 1.00013(17) 0.72931(18)
H19 H -0.126134 0.990355 0.682965
C24 C 0.1260(3) 1.23895(19) 0.7426(2)
H20 H 0.015667 1.292603 0.760139
H21 H 0.180112 1.267655 0.662151
H22 H 0.209695 1.232062 0.789338
loop_
_geom_bond_atom_site_label_1
_geom_bond_atom_site_label_2
_geom_bond_site_symmetry_1
_geom_bond_site_symmetry_2
O1 C10 1_555 1_555
O2 C7 1_555 1_555
O3 H1 1_555 1_555
O4 C14 1_555 1_555
O5 C14 1_555 1_555
C1 C2 1_555 1_555
C2 H2 1_555 1_555
C3 C2 1_555 1_555
H3 C3 1_555 1_555
C4 C3 1_555 1_555
H4 C4 1_555 1_555
C5 C4 1_555 1_555
H5 C5 1_555 1_555
C6 C1 1_555 1_555
C7 C6 1_555 1_555
C8 C7 1_555 1_555
C9 O3 1_555 1_555
C10 C1 1_555 1_555
C11 C9 1_555 1_555
C12 C11 1_555 1_555
H6 C12 1_555 1_555
C13 C8 1_555 1_555
H7 C13 1_555 1_555
H8 C13 1_555 1_555
C14 C11 1_555 1_555
C15 O5 1_555 1_555
H9 C15 1_555 1_555
H10 C15 1_555 1_555
C16 C15 1_555 1_555
H11 C16 1_555 1_555
H12 C16 1_555 1_555
H13 C16 1_555 1_555
C17 C8 1_555 1_555
H14 C17 1_555 1_555
H15 C17 1_555 1_555
C18 C17 1_555 1_555
C19 C18 1_555 1_555
H16 C19 1_555 1_555
C20 C19 1_555 1_555
H17 C20 1_555 1_555
C21 C20 1_555 1_555
C22 C21 1_555 1_555
H18 C22 1_555 1_555
C23 C18 1_555 1_555
H19 C23 1_555 1_555
C24 C21 1_555 1_555
H20 C24 1_555 1_555
H21 C24 1_555 1_555
H22 C24 1_555 1_555
C5 C6 1_555 1_555
C8 C9 1_555 1_555
C9 C10 1_555 1_555
C12 C13 1_555 1_555
C22 C23 1_555 1_555

#END
