
#######################################################################
#
#                 Cambridge Crystallographic Data Centre
#                                CCDC 
#
#######################################################################
#
# If this CIF has been generated from an entry in the Cambridge 
# Structural Database, then it will include bibliographic, chemical, 
# crystal, experimental, refinement or atomic coordinate data resulting 
# from the CCDC's data processing and validation procedures.
#
#######################################################################

data_TIKTOY
_chemical_formula_moiety         'C28 H23 F3 I1 N1 O5 S1'
_chemical_name_systematic        
'(4-Methyl-1-((4-methylphenyl)sulfonyl)-5-oxo-4-(2,2,2-trifluoroethyl)pyrrolidin-3-ylidene)(phenyl)methyl 2-iodobenzoate'
_symmetry_cell_setting           triclinic
_symmetry_space_group_name_H-M   'P -1'
_symmetry_Int_Tables_number      2
_space_group_name_Hall           '-P 1'
loop_
_symmetry_equiv_pos_site_id
_symmetry_equiv_pos_as_xyz
1 x,y,z
2 -x,-y,-z
_cell_length_a                   8.0565(5)
_cell_length_b                   9.1351(10)
_cell_length_c                   21.757(2)
_cell_angle_alpha                78.526(9)
_cell_angle_beta                 82.113(7)
_cell_angle_gamma                63.991(10)
_cell_volume                     1408.05
_exptl_crystal_colour            'light colorless'
_exptl_crystal_description       block
_cell_formula_units_Z            2
loop_
_atom_site_label
_atom_site_type_symbol
_atom_site_fract_x
_atom_site_fract_y
_atom_site_fract_z
I1 I 0.95961(10) 0.21785(13) 1.03121(4)
S1 S 1.0856(3) 0.1186(2) 0.66117(10)
F1 F 1.3412(8) 0.4064(7) 0.7000(3)
F2 F 1.3592(8) 0.6153(8) 0.7200(4)
F3 F 1.2141(7) 0.4958(9) 0.7835(3)
O1 O 1.1016(10) 0.4410(8) 0.5962(3)
O2 O 0.6849(6) 0.4972(6) 0.83698(19)
O3 O 0.8898(8) 0.4553(8) 0.9045(3)
O4 O 1.2610(8) 0.0791(8) 0.6283(3)
O5 O 1.0647(7) 0.0128(6) 0.7161(3)
N1 N 1.0212(8) 0.2989(7) 0.6859(3)
C1 C 1.0340(11) 0.4353(9) 0.6481(3)
C2 C 0.9350(9) 0.5844(7) 0.6850(3)
C3 C 0.8641(9) 0.5124(7) 0.7454(3)
C4 C 0.9109(10) 0.3331(8) 0.7446(3)
H1 H 0.9813 0.2629 0.7803
H2 H 0.7996 0.3167 0.7452
C5 C 0.7744(12) 0.7173(10) 0.6454(4)
H3 H 0.6940 0.6709 0.6380
H4 H 0.8239 0.7547 0.6059
H5 H 0.7058 0.8087 0.6677
C6 C 1.0743(10) 0.6563(8) 0.6892(3)
H6 H 1.1120 0.6922 0.6468
H7 H 1.0101 0.7535 0.7095
C7 C 1.2440(10) 0.5452(10) 0.7232(4)
C8 C 0.7597(9) 0.5889(8) 0.7913(3)
C9 C 0.6931(10) 0.7628(8) 0.7994(3)
C10 C 0.8039(10) 0.8204(9) 0.8201(3)
H8 H 0.9256 0.7488 0.8288
C11 C 0.7365(13) 0.9840(9) 0.8281(4)
H9 H 0.8125 1.0217 0.8421
C12 C 0.5593(15) 1.0882(11) 0.8153(4)
H10 H 0.5144 1.1984 0.8199
C13 C 0.4460(14) 1.0333(12) 0.7959(5)
H11 H 0.3239 1.1057 0.7881
C14 C 0.5113(12) 0.8713(10) 0.7877(4)
H12 H 0.4333 0.8346 0.7743
C15 C 0.7588(9) 0.4398(8) 0.8939(3)
C16 C 0.6511(9) 0.3618(8) 0.9378(3)
C17 C 0.7124(9) 0.2656(9) 0.9946(3)
C18 C 0.6053(12) 0.1931(11) 1.0327(4)
H13 H 0.6477 0.1285 1.0710
C19 C 0.4415(13) 0.2159(12) 1.0144(5)
H14 H 0.3741 0.1632 1.0393
C20 C 0.3731(13) 0.3166(13) 0.9593(4)
H15 H 0.2570 0.3370 0.9477
C21 C 0.4788(11) 0.3866(11) 0.9214(4)
H16 H 0.4337 0.4527 0.8836
C22 C 0.9187(10) 0.1597(9) 0.6088(4)
C23 C 0.9430(17) 0.2131(17) 0.5461(5)
H17 H 1.0493 0.2273 0.5306
C24 C 0.8087(19) 0.245(2) 0.5066(5)
H18 H 0.8262 0.2808 0.4641
C25 C 0.6487(14) 0.2271(13) 0.5273(4)
C26 C 0.6244(11) 0.1801(11) 0.5899(4)
H19 H 0.5155 0.1704 0.6052
C27 C 0.7565(11) 0.1462(10) 0.6314(4)
H20 H 0.7364 0.1147 0.6741
C28 C 0.5028(18) 0.2634(18) 0.4830(6)
H21 H 0.4295 0.2045 0.5007
H22 H 0.5611 0.2293 0.4435
H23 H 0.4249 0.3796 0.4764
loop_
_geom_bond_atom_site_label_1
_geom_bond_atom_site_label_2
_geom_bond_site_symmetry_1
_geom_bond_site_symmetry_2
I1 C17 1_555 1_555
S1 O4 1_555 1_555
F1 C7 1_555 1_555
F2 C7 1_555 1_555
F3 C7 1_555 1_555
O1 C1 1_555 1_555
O2 C8 1_555 1_555
O3 C15 1_555 1_555
O5 S1 1_555 1_555
N1 S1 1_555 1_555
C1 N1 1_555 1_555
C2 C1 1_555 1_555
C3 C2 1_555 1_555
C4 N1 1_555 1_555
H1 C4 1_555 1_555
H2 C4 1_555 1_555
C5 C2 1_555 1_555
H3 C5 1_555 1_555
H4 C5 1_555 1_555
H5 C5 1_555 1_555
C6 C2 1_555 1_555
H6 C6 1_555 1_555
H7 C6 1_555 1_555
C7 C6 1_555 1_555
C8 C3 1_555 1_555
C9 C8 1_555 1_555
C10 C9 1_555 1_555
H8 C10 1_555 1_555
C11 C10 1_555 1_555
H9 C11 1_555 1_555
C12 C11 1_555 1_555
H10 C12 1_555 1_555
C13 C12 1_555 1_555
H11 C13 1_555 1_555
C14 C9 1_555 1_555
H12 C14 1_555 1_555
C15 O2 1_555 1_555
C16 C15 1_555 1_555
C17 C16 1_555 1_555
C18 C17 1_555 1_555
H13 C18 1_555 1_555
C19 C18 1_555 1_555
H14 C19 1_555 1_555
C20 C19 1_555 1_555
H15 C20 1_555 1_555
C21 C16 1_555 1_555
H16 C21 1_555 1_555
C22 S1 1_555 1_555
C23 C22 1_555 1_555
H17 C23 1_555 1_555
C24 C23 1_555 1_555
H18 C24 1_555 1_555
C25 C24 1_555 1_555
C26 C25 1_555 1_555
H19 C26 1_555 1_555
C27 C22 1_555 1_555
H20 C27 1_555 1_555
C28 C25 1_555 1_555
H21 C28 1_555 1_555
H22 C28 1_555 1_555
H23 C28 1_555 1_555
C3 C4 1_555 1_555
C13 C14 1_555 1_555
C20 C21 1_555 1_555
C26 C27 1_555 1_555

#END
