
#######################################################################
#
#                 Cambridge Crystallographic Data Centre
#                                CCDC 
#
#######################################################################
#
# If this CIF has been generated from an entry in the Cambridge 
# Structural Database, then it will include bibliographic, chemical, 
# crystal, experimental, refinement or atomic coordinate data resulting 
# from the CCDC's data processing and validation procedures.
#
#######################################################################

data_TIMFOM
_chemical_formula_moiety         'C26 H20 Cl1 N1 O5 S1'
_chemical_name_systematic        
'Ethyl 3-(5-chloro-1-((4-methylphenyl)sulfonyl)-2-oxo-3-phenyl-2,3-dihydro-1H-indol-3-yl)prop-2-ynoate'
_symmetry_cell_setting           monoclinic
_symmetry_space_group_name_H-M   'C 2'
_symmetry_Int_Tables_number      5
_space_group_name_Hall           'C 2y'
loop_
_symmetry_equiv_pos_site_id
_symmetry_equiv_pos_as_xyz
1 x,y,z
2 -x,y,-z
3 1/2+x,1/2+y,z
4 1/2-x,1/2+y,-z
_cell_length_a                   21.442(2)
_cell_length_b                   8.5250(10)
_cell_length_c                   13.487(2)
_cell_angle_alpha                90
_cell_angle_beta                 92.001(12)
_cell_angle_gamma                90
_cell_volume                     2463.83
_exptl_crystal_colour            colorless
_exptl_crystal_description       slice
_cell_formula_units_Z            4
loop_
_atom_site_label
_atom_site_type_symbol
_atom_site_fract_x
_atom_site_fract_y
_atom_site_fract_z
Cl1 Cl 0.29050(11) 0.1025(3) 0.03764(17)
S1 S 0.17083(7) 0.24116(17) 0.52031(11)
O1 O 0.0587(2) 0.3643(5) 0.4048(3)
O2 O 0.23468(19) 0.1966(6) 0.5332(3)
O3 O 0.1492(2) 0.3795(5) 0.5674(3)
O4 O -0.0789(5) 0.2444(15) 0.0542(9)
O5 O -0.0663(6) 0.0291(17) 0.1455(9)
N1 N 0.15951(19) 0.2660(5) 0.3982(3)
C1 C 0.2542(3) 0.1446(8) 0.1453(5)
C2 C 0.1966(3) 0.2264(7) 0.1410(5)
H1 H 0.1777 0.2559 0.0807
C3 C 0.1701(2) 0.2602(6) 0.2296(4)
C4 C 0.1968(3) 0.2169(6) 0.3182(4)
C5 C 0.2529(3) 0.1366(7) 0.3226(5)
H2 H 0.2716 0.1066 0.3830
C6 C 0.2802(3) 0.1027(8) 0.2340(6)
H3 H 0.3180 0.0489 0.2353
C7 C 0.1089(2) 0.3472(6) 0.2449(4)
C8 C 0.1033(3) 0.3290(6) 0.3573(4)
C9 C 0.1124(3) 0.5212(6) 0.2178(4)
C10 C 0.0768(3) 0.5822(8) 0.1411(5)
H4 H 0.0498 0.5183 0.1038
C11 C 0.0815(4) 0.7417(10) 0.1196(7)
H5 H 0.0566 0.7845 0.0687
C12 C 0.1215(5) 0.8343(9) 0.1713(8)
H6 H 0.1251 0.9396 0.1546
C13 C 0.1566(5) 0.7743(9) 0.2481(7)
H7 H 0.1831 0.8392 0.2856
C14 C 0.1527(3) 0.6170(7) 0.2701(5)
H8 H 0.1777 0.5754 0.3213
C15 C 0.1244(3) 0.0827(6) 0.5483(4)
C16 C 0.0677(3) 0.1048(7) 0.5933(4)
H9 H 0.0529 0.2054 0.6051
C17 C 0.0343(3) -0.0230(8) 0.6199(5)
H10 H -0.0035 -0.0072 0.6503
C18 C 0.0535(3) -0.1739(8) 0.6040(5)
C19 C 0.1100(3) -0.1939(7) 0.5572(5)
H11 H 0.1247 -0.2945 0.5454
C20 C 0.1440(3) -0.0664(7) 0.5285(5)
H12 H 0.1808 -0.0815 0.4952
C21 C 0.0193(4) -0.3126(9) 0.6398(6)
H13 H 0.0284 -0.4017 0.5993
H14 H -0.0247 -0.2919 0.6360
H15 H 0.0321 -0.3340 0.7074
C22 C 0.0549(3) 0.2705(6) 0.1967(5)
C23 C 0.0111(3) 0.2076(8) 0.1607(5)
C24 C -0.0470(5) 0.143(2) 0.1169(7)
C25 C -0.1372(6) 0.010(2) 0.1201(9)
H16 H -0.1460 0.0690 0.0599
H17 H -0.1438 -0.1000 0.1033
C26 C -0.1814(6) 0.049(2) 0.1839(8)
H18 H -0.1664 0.0278 0.2505
H19 H -0.2183 -0.0124 0.1698
H20 H -0.1911 0.1581 0.1771
O6? O -0.0359(6) 0.0178(19) 0.0552(13)
O7? O -0.0923(7) 0.149(2) 0.1603(11)
H21? H -0.1506 0.0220 0.0511
H22? H -0.1200 -0.0943 0.1317
loop_
_geom_bond_atom_site_label_1
_geom_bond_atom_site_label_2
_geom_bond_site_symmetry_1
_geom_bond_site_symmetry_2
Cl1 C1 1_555 1_555
S1 O2 1_555 1_555
O1 C8 1_555 1_555
O3 S1 1_555 1_555
O4 C24 1_555 1_555
O5 C24 1_555 1_555
N1 S1 1_555 1_555
C1 C2 1_555 1_555
C2 H1 1_555 1_555
C3 C2 1_555 1_555
C4 N1 1_555 1_555
C5 C4 1_555 1_555
H2 C5 1_555 1_555
C6 C1 1_555 1_555
H3 C6 1_555 1_555
C7 C3 1_555 1_555
C8 N1 1_555 1_555
C9 C7 1_555 1_555
C10 C9 1_555 1_555
H4 C10 1_555 1_555
C11 C10 1_555 1_555
H5 C11 1_555 1_555
C12 C11 1_555 1_555
H6 C12 1_555 1_555
C13 C12 1_555 1_555
H7 C13 1_555 1_555
C14 C9 1_555 1_555
H8 C14 1_555 1_555
C15 S1 1_555 1_555
C16 C15 1_555 1_555
H9 C16 1_555 1_555
C17 C16 1_555 1_555
H10 C17 1_555 1_555
C18 C17 1_555 1_555
C19 C18 1_555 1_555
H11 C19 1_555 1_555
C20 C15 1_555 1_555
H12 C20 1_555 1_555
C21 C18 1_555 1_555
H13 C21 1_555 1_555
H14 C21 1_555 1_555
H15 C21 1_555 1_555
C22 C7 1_555 1_555
C23 C22 1_555 1_555
C24 C23 1_555 1_555
C25 O5 1_555 1_555
H16 C25 1_555 1_555
H17 C25 1_555 1_555
C26 C25 1_555 1_555
H18 C26 1_555 1_555
H19 C26 1_555 1_555
H20 C26 1_555 1_555
C3 C4 1_555 1_555
C5 C6 1_555 1_555
C7 C8 1_555 1_555
C13 C14 1_555 1_555
C19 C20 1_555 1_555

#END
