
#######################################################################
#
#                 Cambridge Crystallographic Data Centre
#                                CCDC 
#
#######################################################################
#
# If this CIF has been generated from an entry in the Cambridge 
# Structural Database, then it will include bibliographic, chemical, 
# crystal, experimental, refinement or atomic coordinate data resulting 
# from the CCDC's data processing and validation procedures.
#
#######################################################################

data_TIMJIK
_chemical_formula_moiety         'C22 H16 Cl1 O1 P1'
_chemical_name_systematic        
'2-(2-(4-Chlorophenyl)vinyl)-1-phenyl-1H-phosphindole 1-oxide'
_symmetry_cell_setting           monoclinic
_symmetry_space_group_name_H-M   'P 21/n'
_symmetry_Int_Tables_number      14
_space_group_name_Hall           '-P 2yn'
loop_
_symmetry_equiv_pos_site_id
_symmetry_equiv_pos_as_xyz
1 x,y,z
2 1/2-x,1/2+y,1/2-z
3 -x,-y,-z
4 1/2+x,1/2-y,1/2+z
_cell_length_a                   6.3504(2)
_cell_length_b                   7.9511(3)
_cell_length_c                   35.8818(12)
_cell_angle_alpha                90
_cell_angle_beta                 94.457(2)
_cell_angle_gamma                90
_cell_volume                     1806.29
_exptl_crystal_colour            yellow
_exptl_crystal_description       platelet
_cell_formula_units_Z            4
loop_
_atom_site_label
_atom_site_type_symbol
_atom_site_fract_x
_atom_site_fract_y
_atom_site_fract_z
Cl1 Cl 0.71929(8) 1.32330(7) 1.050182(13)
P1 P -0.08577(5) 1.02191(4) 0.834086(9)
O1 O -0.24831(15) 1.13360(13) 0.84836(3)
C1 C 0.18431(19) 1.09651(16) 0.83858(4)
C2 C 0.2573(2) 1.10873(17) 0.80421(4)
H1 H 0.3955 1.1481 0.8006
C3 C 0.1094(2) 1.05721(18) 0.77289(4)
C4 C -0.0863(2) 1.00102(17) 0.78397(4)
C5 C -0.2431(2) 0.94463(19) 0.75800(4)
H2 H -0.3739 0.9050 0.7658
C6 C -0.2053(3) 0.9471(2) 0.72019(4)
H3 H -0.3116 0.9100 0.7020
C7 C -0.0134(3) 1.0035(2) 0.70914(4)
H4 H 0.0099 1.0049 0.6833
C8 C 0.1457(3) 1.0580(2) 0.73511(4)
H5 H 0.2772 1.0953 0.7272
C9 C 0.3017(2) 1.13880(16) 0.87335(4)
H6 H 0.4393 1.1840 0.8719
C10 C 0.2340(2) 1.11994(17) 0.90761(4)
H7 H 0.0981 1.0723 0.9095
C11 C 0.3558(2) 1.16796(17) 0.94229(4)
C12 C 0.5622(2) 1.2296(2) 0.94261(4)
H8 H 0.6282 1.2372 0.9198
C13 C 0.6718(2) 1.2796(2) 0.97553(5)
H9 H 0.8109 1.3233 0.9753
C14 C 0.5767(3) 1.2653(2) 1.00882(4)
C15 C 0.3747(3) 1.2032(2) 1.00976(4)
H10 H 0.3112 1.1938 1.0328
C16 C 0.2652(2) 1.1546(2) 0.97646(4)
H11 H 0.1259 1.1115 0.9769
C17 C -0.0857(2) 0.81521(16) 0.85414(4)
C18 C 0.0818(2) 0.70498(17) 0.85007(4)
H12 H 0.1976 0.7395 0.8366
C19 C 0.0801(2) 0.54546(18) 0.86553(4)
H13 H 0.1943 0.4705 0.8627
C20 C -0.0888(3) 0.49557(18) 0.88512(4)
H14 H -0.0906 0.3858 0.8956
C21 C -0.2547(2) 0.60438(19) 0.88957(4)
H15 H -0.3696 0.5693 0.9032
C22 C -0.2541(2) 0.76513(19) 0.87422(4)
H16 H -0.3677 0.8402 0.8774
loop_
_geom_bond_atom_site_label_1
_geom_bond_atom_site_label_2
_geom_bond_site_symmetry_1
_geom_bond_site_symmetry_2
Cl1 C14 1_555 1_555
P1 O1 1_555 1_555
C1 P1 1_555 1_555
C2 C1 1_555 1_555
H1 C2 1_555 1_555
C3 C2 1_555 1_555
C4 P1 1_555 1_555
C5 C4 1_555 1_555
H2 C5 1_555 1_555
C6 C5 1_555 1_555
H3 C6 1_555 1_555
C7 C6 1_555 1_555
H4 C7 1_555 1_555
C8 C3 1_555 1_555
H5 C8 1_555 1_555
C9 C1 1_555 1_555
H6 C9 1_555 1_555
C10 C9 1_555 1_555
H7 C10 1_555 1_555
C11 C10 1_555 1_555
C12 C11 1_555 1_555
H8 C12 1_555 1_555
C13 C12 1_555 1_555
H9 C13 1_555 1_555
C14 C13 1_555 1_555
C15 C14 1_555 1_555
H10 C15 1_555 1_555
C16 C11 1_555 1_555
H11 C16 1_555 1_555
C17 P1 1_555 1_555
C18 C17 1_555 1_555
H12 C18 1_555 1_555
C19 C18 1_555 1_555
H13 C19 1_555 1_555
C20 C19 1_555 1_555
H14 C20 1_555 1_555
C21 C20 1_555 1_555
H15 C21 1_555 1_555
C22 C17 1_555 1_555
H16 C22 1_555 1_555
C3 C4 1_555 1_555
C7 C8 1_555 1_555
C15 C16 1_555 1_555
C21 C22 1_555 1_555

#END
