
#######################################################################
#
#                 Cambridge Crystallographic Data Centre
#                                CCDC 
#
#######################################################################
#
# If this CIF has been generated from an entry in the Cambridge 
# Structural Database, then it will include bibliographic, chemical, 
# crystal, experimental, refinement or atomic coordinate data resulting 
# from the CCDC's data processing and validation procedures.
#
#######################################################################

data_TIMMIN
_chemical_formula_moiety         'C14 H15 N1 O3'
_chemical_name_systematic        
'(E)-Methyl 3-(2-oxopyrrolidin-1-yl)-3-phenylacrylate'
_symmetry_cell_setting           monoclinic
_symmetry_space_group_name_H-M   'P 21/n'
_symmetry_Int_Tables_number      14
_space_group_name_Hall           '-P 2yn'
loop_
_symmetry_equiv_pos_site_id
_symmetry_equiv_pos_as_xyz
1 x,y,z
2 1/2-x,1/2+y,1/2-z
3 -x,-y,-z
4 1/2+x,1/2-y,1/2+z
_cell_length_a                   9.5053(11)
_cell_length_b                   14.4803(18)
_cell_length_c                   9.8588(12)
_cell_angle_alpha                90
_cell_angle_beta                 108.4610(10)
_cell_angle_gamma                90
_cell_volume                     1287.13
_exptl_crystal_colour            colorless
_exptl_crystal_description       BLOCK
_cell_formula_units_Z            4
loop_
_atom_site_label
_atom_site_type_symbol
_atom_site_fract_x
_atom_site_fract_y
_atom_site_fract_z
N1 N 0.59880(16) 0.10625(9) 0.71562(15)
O1 O 0.4673(2) 0.10453(12) 0.87758(16)
O2 O 0.20690(16) 0.19376(11) 0.36924(15)
O3 O 0.09493(16) 0.08898(10) 0.46300(16)
C1 C 0.5829(3) 0.09689(13) 0.8508(2)
C2 C 0.7335(3) 0.07697(16) 0.9549(2)
H1 H 0.7280 0.0289 1.0216
H2 H 0.7762 0.1320 1.0082
C3 C 0.8238(2) 0.04539(15) 0.8615(2)
H3 H 0.8154 -0.0208 0.8459
H4 H 0.9276 0.0614 0.9040
C4 C 0.7549(2) 0.09765(13) 0.7227(2)
H5 H 0.8005 0.1578 0.7256
H6 H 0.7644 0.0633 0.6416
C5 C 0.48500(19) 0.12890(11) 0.58996(17)
C6 C 0.53311(18) 0.17563(11) 0.47811(17)
C7 C 0.5017(2) 0.13643(14) 0.34382(19)
H7 H 0.4496 0.0811 0.3237
C8 C 0.5471(3) 0.17888(18) 0.2395(2)
H8 H 0.5250 0.1526 0.1490
C9 C 0.6253(3) 0.2602(2) 0.2702(3)
H9 H 0.6561 0.2890 0.2001
C10 C 0.6581(3) 0.29885(16) 0.4029(3)
H10 H 0.7115 0.3537 0.4228
C11 C 0.6126(2) 0.25714(12) 0.5077(2)
H11 H 0.6353 0.2838 0.5979
C12 C 0.3441(2) 0.10568(12) 0.57414(19)
H12 H 0.3277 0.0675 0.6435
C13 C 0.2143(2) 0.13524(13) 0.45750(19)
C14 C -0.0457(3) 0.1156(2) 0.3630(3)
H13 H -0.0603 0.1807 0.3711
H14 H -0.1239 0.0823 0.3837
H15 H -0.0468 0.1015 0.2676
loop_
_geom_bond_atom_site_label_1
_geom_bond_atom_site_label_2
_geom_bond_site_symmetry_1
_geom_bond_site_symmetry_2
N1 C1 1_555 1_555
O1 C1 1_555 1_555
O2 C13 1_555 1_555
O3 C13 1_555 1_555
C1 C2 1_555 1_555
C2 H1 1_555 1_555
H2 C2 1_555 1_555
C3 C2 1_555 1_555
H3 C3 1_555 1_555
H4 C3 1_555 1_555
C4 N1 1_555 1_555
H5 C4 1_555 1_555
H6 C4 1_555 1_555
C5 N1 1_555 1_555
C6 C5 1_555 1_555
C7 C6 1_555 1_555
H7 C7 1_555 1_555
C8 C7 1_555 1_555
H8 C8 1_555 1_555
C9 C8 1_555 1_555
H9 C9 1_555 1_555
C10 C9 1_555 1_555
H10 C10 1_555 1_555
C11 C6 1_555 1_555
H11 C11 1_555 1_555
C12 C5 1_555 1_555
H12 C12 1_555 1_555
C13 C12 1_555 1_555
C14 O3 1_555 1_555
H13 C14 1_555 1_555
H14 C14 1_555 1_555
H15 C14 1_555 1_555
C3 C4 1_555 1_555
C10 C11 1_555 1_555

#END
