
#######################################################################
#
#                 Cambridge Crystallographic Data Centre
#                                CCDC 
#
#######################################################################
#
# If this CIF has been generated from an entry in the Cambridge 
# Structural Database, then it will include bibliographic, chemical, 
# crystal, experimental, refinement or atomic coordinate data resulting 
# from the CCDC's data processing and validation procedures.
#
#######################################################################

data_TIMTIS
_chemical_formula_moiety         'C148 H42 Si2,2(C7 H8)'
_chemical_name_systematic        
'1,4-bis(1,2-Dihydro-61-((tri-isopropylsilyl)ethynyl)-1,2-methano-C60-fullerene-61-yl)buta-1,3-diyne toluene solvate'
_symmetry_cell_setting           triclinic
_symmetry_space_group_name_H-M   'P -1'
_symmetry_Int_Tables_number      2
_space_group_name_Hall           '-P 1'
loop_
_symmetry_equiv_pos_site_id
_symmetry_equiv_pos_as_xyz
1 x,y,z
2 -x,-y,-z
_cell_length_a                   10.024(2)
_cell_length_b                   13.840(2)
_cell_length_c                   17.126(2)
_cell_angle_alpha                75.32(1)
_cell_angle_beta                 87.51(1)
_cell_angle_gamma                81.39(1)
_cell_volume                     2272.43
_exptl_crystal_colour            black
_chemical_melting_point          'above 270 deg.C'
_cell_formula_units_Z            1
loop_
_atom_site_label
_atom_site_type_symbol
_atom_site_fract_x
_atom_site_fract_y
_atom_site_fract_z
Si1 Si 0.1291(1) -0.3043(1) 0.3904(1)
C1 C 0.3058(3) -0.0179(2) 0.1677(2)
C2 C 0.1874(2) 0.0485(2) 0.2018(2)
C3 C 0.2008(3) 0.0524(2) 0.2875(2)
C4 C 0.3027(3) -0.0066(2) 0.3372(2)
C5 C 0.4134(3) -0.0692(2) 0.3051(2)
C6 C 0.4175(3) -0.0700(2) 0.2246(2)
C7 C 0.5422(3) -0.0638(2) 0.1804(2)
C8 C 0.5152(3) -0.0008(2) 0.1001(2)
C9 C 0.3719(3) 0.0338(2) 0.0929(2)
C10 C 0.3271(3) 0.1311(2) 0.0501(2)
C11 C 0.2171(3) 0.1937(2) 0.0820(2)
C12 C 0.1564(2) 0.1558(2) 0.1554(2)
C13 C 0.1296(2) 0.2175(2) 0.2118(2)
C14 C 0.1569(3) 0.1539(2) 0.2928(2)
C15 C 0.2102(3) 0.1924(2) 0.3505(2)
C16 C 0.3142(3) 0.1302(2) 0.4036(2)
C17 C 0.3606(3) 0.0333(2) 0.3960(2)
C18 C 0.5043(3) -0.0036(2) 0.4010(2)
C19 C 0.5370(3) -0.0657(2) 0.3451(2)
C20 C 0.6591(3) -0.0646(2) 0.3030(2)
C21 C 0.6617(3) -0.0636(2) 0.2189(2)
C22 C 0.7583(3) 0.0014(2) 0.1782(2)
C23 C 0.7315(3) 0.0622(3) 0.1010(2)
C24 C 0.6078(3) 0.0605(2) 0.0609(2)
C25 C 0.5611(3) 0.1617(2) 0.0149(2)
C26 C 0.4228(3) 0.1965(2) 0.0103(2)
C27 C 0.3738(3) 0.2976(2) 0.0176(2)
C28 C 0.2481(3) 0.2959(2) 0.0619(2)
C29 C 0.2171(3) 0.3567(2) 0.1155(2)
C30 C 0.1563(3) 0.3169(2) 0.1919(2)
C31 C 0.2124(3) 0.3564(2) 0.2528(2)
C32 C 0.2381(3) 0.2953(2) 0.3300(2)
C33 C 0.3621(3) 0.2966(2) 0.3707(2)
C34 C 0.4089(3) 0.1948(2) 0.4162(2)
C35 C 0.5466(3) 0.1591(2) 0.4210(2)
C36 C 0.5953(3) 0.0581(2) 0.4135(2)
C37 C 0.7219(3) 0.0596(2) 0.3695(2)
C38 C 0.7535(3) -0.0001(2) 0.3156(2)
C39 C 0.8153(3) 0.0404(2) 0.2384(2)
C40 C 0.8422(3) 0.1395(3) 0.2182(2)
C41 C 0.8153(3) 0.2027(3) 0.1375(2)
C42 C 0.7611(3) 0.1652(3) 0.0798(2)
C43 C 0.6552(3) 0.2275(3) 0.0267(2)
C44 C 0.6083(3) 0.3246(2) 0.0333(2)
C45 C 0.4641(3) 0.3609(2) 0.0284(2)
C46 C 0.4321(3) 0.4231(2) 0.0848(2)
C47 C 0.3115(3) 0.4215(2) 0.1270(2)
C48 C 0.3080(3) 0.4215(2) 0.2121(2)
C49 C 0.4272(3) 0.4228(2) 0.2511(2)
C50 C 0.4539(3) 0.3596(2) 0.3317(2)
C51 C 0.5978(3) 0.3225(2) 0.3371(2)
C52 C 0.6428(3) 0.2245(2) 0.3808(2)
C53 C 0.7515(3) 0.1628(2) 0.3491(2)
C54 C 0.8100(3) 0.2020(2) 0.2748(2)
C55 C 0.7633(3) 0.3041(2) 0.2293(2)
C56 C 0.7666(3) 0.3041(3) 0.1442(2)
C57 C 0.6644(3) 0.3640(2) 0.0930(2)
C58 C 0.5559(3) 0.4251(2) 0.1249(2)
C59 C 0.5531(3) 0.4247(2) 0.2064(2)
C60 C 0.6589(3) 0.3624(2) 0.2596(2)
C61 C 0.1613(3) -0.0446(2) 0.1747(2)
C62 C 0.1382(3) -0.1318(2) 0.2387(2)
C63 C 0.1296(3) -0.2018(2) 0.2971(2)
C64 C 0.1143(3) -0.2437(2) 0.4784(2)
C65 C 0.0241(4) -0.1416(3) 0.4649(2)
C66 C 0.0716(3) -0.3168(3) 0.5558(2)
C67 C -0.0156(3) -0.3757(2) 0.3857(2)
C68 C 0.0086(4) -0.4335(3) 0.3200(2)
C69 C -0.1513(3) -0.3067(3) 0.3740(2)
C70 C 0.2945(3) -0.3909(2) 0.3918(2)
C71 C 0.3063(3) -0.4832(3) 0.4647(2)
C72 C 0.4185(3) -0.3370(3) 0.3876(3)
C73 C 0.0904(3) -0.0265(2) 0.0995(2)
C74 C 0.0335(2) -0.0092(2) 0.0359(2)
H1 H 0.2032 -0.2310 0.4871
H2 H 0.0235 -0.1167 0.5121
H3 H 0.0568 -0.0943 0.4200
H4 H -0.0658 -0.1505 0.4541
H5 H 0.0659 -0.2840 0.5989
H6 H -0.0145 -0.3353 0.5484
H7 H 0.1373 -0.3761 0.5687
H8 H -0.0185 -0.4246 0.4362
H9 H -0.0655 -0.4697 0.3189
H10 H 0.0161 -0.3865 0.2689
H11 H 0.0903 -0.4800 0.3310
H12 H -0.2216 -0.3462 0.3724
H13 H -0.1673 -0.2757 0.4181
H14 H -0.1504 -0.2556 0.3246
H15 H 0.2980 -0.4150 0.3441
H16 H 0.3906 -0.5252 0.4626
H17 H 0.3014 -0.4606 0.5132
H18 H 0.2337 -0.5209 0.4639
H19 H 0.4989 -0.3840 0.3877
H20 H 0.4175 -0.2821 0.3405
H21 H 0.4165 -0.3117 0.4347
C74A C -0.0335(2) 0.0092(2) -0.0359(2)
C73A C -0.0904(3) 0.0265(2) -0.0995(2)
C61A C -0.1613(3) 0.0446(2) -0.1747(2)
C1A C -0.3058(3) 0.0179(2) -0.1677(2)
C2A C -0.1874(2) -0.0485(2) -0.2018(2)
C3A C -0.2008(3) -0.0524(2) -0.2875(2)
C4A C -0.3027(3) 0.0066(2) -0.3372(2)
C5A C -0.4134(3) 0.0692(2) -0.3051(2)
C6A C -0.4175(3) 0.0700(2) -0.2246(2)
C9A C -0.3719(3) -0.0338(2) -0.0929(2)
C8A C -0.5152(3) 0.0008(2) -0.1001(2)
C7A C -0.5422(3) 0.0638(2) -0.1804(2)
C21A C -0.6617(3) 0.0636(2) -0.2189(2)
C20A C -0.6591(3) 0.0646(2) -0.3030(2)
C19A C -0.5370(3) 0.0657(2) -0.3451(2)
C18A C -0.5043(3) 0.0036(2) -0.4010(2)
C17A C -0.3606(3) -0.0333(2) -0.3960(2)
C16A C -0.3142(3) -0.1302(2) -0.4036(2)
C15A C -0.2102(3) -0.1924(2) -0.3505(2)
C14A C -0.1569(3) -0.1539(2) -0.2928(2)
C13A C -0.1296(2) -0.2175(2) -0.2118(2)
C12A C -0.1564(2) -0.1558(2) -0.1554(2)
C62A C -0.1382(3) 0.1318(2) -0.2387(2)
C63A C -0.1296(3) 0.2018(2) -0.2971(2)
Si1A Si -0.1291(1) 0.3043(1) -0.3904(1)
C64A C -0.1143(3) 0.2437(2) -0.4784(2)
C65A C -0.0241(4) 0.1416(3) -0.4649(2)
H2A H -0.0235 0.1167 -0.5121
H3A H -0.0568 0.0943 -0.4200
H4A H 0.0658 0.1505 -0.4541
C66A C -0.0716(3) 0.3168(3) -0.5558(2)
H5A H -0.0659 0.2840 -0.5989
H6A H 0.0145 0.3353 -0.5484
H7A H -0.1373 0.3761 -0.5687
H1A H -0.2032 0.2310 -0.4871
C67A C 0.0156(3) 0.3757(2) -0.3857(2)
C68A C -0.0086(4) 0.4335(3) -0.3200(2)
H9A H 0.0655 0.4697 -0.3189
H10A H -0.0161 0.3865 -0.2689
H11A H -0.0903 0.4800 -0.3310
C69A C 0.1513(3) 0.3067(3) -0.3740(2)
H12A H 0.2216 0.3462 -0.3724
H13A H 0.1673 0.2757 -0.4181
H14A H 0.1504 0.2556 -0.3246
H8A H 0.0185 0.4246 -0.4362
C70A C -0.2945(3) 0.3909(2) -0.3918(2)
C71A C -0.3063(3) 0.4832(3) -0.4647(2)
H16A H -0.3906 0.5252 -0.4626
H17A H -0.3014 0.4606 -0.5132
H18A H -0.2337 0.5209 -0.4639
C72A C -0.4185(3) 0.3370(3) -0.3876(3)
H19A H -0.4989 0.3840 -0.3877
H20A H -0.4175 0.2821 -0.3405
H21A H -0.4165 0.3117 -0.4347
H15A H -0.2980 0.4150 -0.3441
C11A C -0.2171(3) -0.1937(2) -0.0820(2)
C10A C -0.3271(3) -0.1311(2) -0.0501(2)
C26A C -0.4228(3) -0.1965(2) -0.0103(2)
C25A C -0.5611(3) -0.1617(2) -0.0149(2)
C24A C -0.6078(3) -0.0605(2) -0.0609(2)
C23A C -0.7315(3) -0.0622(3) -0.1010(2)
C22A C -0.7583(3) -0.0014(2) -0.1782(2)
C39A C -0.8153(3) -0.0404(2) -0.2384(2)
C38A C -0.7535(3) 0.0001(2) -0.3156(2)
C37A C -0.7219(3) -0.0596(2) -0.3695(2)
C36A C -0.5953(3) -0.0581(2) -0.4135(2)
C35A C -0.5466(3) -0.1591(2) -0.4210(2)
C34A C -0.4089(3) -0.1948(2) -0.4162(2)
C33A C -0.3621(3) -0.2966(2) -0.3707(2)
C32A C -0.2381(3) -0.2953(2) -0.3300(2)
C31A C -0.2124(3) -0.3564(2) -0.2528(2)
C30A C -0.1563(3) -0.3169(2) -0.1919(2)
C29A C -0.2171(3) -0.3567(2) -0.1155(2)
C28A C -0.2481(3) -0.2959(2) -0.0619(2)
C27A C -0.3738(3) -0.2976(2) -0.0176(2)
C45A C -0.4641(3) -0.3609(2) -0.0284(2)
C44A C -0.6083(3) -0.3246(2) -0.0333(2)
C43A C -0.6552(3) -0.2275(3) -0.0267(2)
C42A C -0.7611(3) -0.1652(3) -0.0798(2)
C41A C -0.8153(3) -0.2027(3) -0.1375(2)
C40A C -0.8422(3) -0.1395(3) -0.2182(2)
C54A C -0.8100(3) -0.2020(2) -0.2748(2)
C53A C -0.7515(3) -0.1628(2) -0.3491(2)
C52A C -0.6428(3) -0.2245(2) -0.3808(2)
C51A C -0.5978(3) -0.3225(2) -0.3371(2)
C50A C -0.4539(3) -0.3596(2) -0.3317(2)
C49A C -0.4272(3) -0.4228(2) -0.2511(2)
C48A C -0.3080(3) -0.4215(2) -0.2121(2)
C47A C -0.3115(3) -0.4215(2) -0.1270(2)
C46A C -0.4321(3) -0.4231(2) -0.0848(2)
C58A C -0.5559(3) -0.4251(2) -0.1249(2)
C57A C -0.6644(3) -0.3640(2) -0.0930(2)
C56A C -0.7666(3) -0.3041(3) -0.1442(2)
C55A C -0.7633(3) -0.3041(2) -0.2293(2)
C60A C -0.6589(3) -0.3624(2) -0.2596(2)
C59A C -0.5531(3) -0.4247(2) -0.2064(2)
C75 C 0.6614(3) 0.6706(3) 0.1988(2)
C76 C 0.7954(4) 0.6668(4) 0.1490(2)
C77 C 0.8797(4) 0.7449(3) 0.1234(2)
C78 C 1.0025(4) 0.7240(3) 0.0832(2)
C79 C 1.0369(4) 0.6299(3) 0.0692(2)
C80 C 0.9531(5) 0.5535(4) 0.0937(3)
C81 C 0.8367(4) 0.5747(3) 0.1330(3)
loop_
_geom_bond_atom_site_label_1
_geom_bond_atom_site_label_2
_geom_bond_site_symmetry_1
_geom_bond_site_symmetry_2
Si1 C63 1_555 1_555
C1 C2 1_555 1_555
C2 C3 1_555 1_555
C3 C4 1_555 1_555
C4 C5 1_555 1_555
C5 C6 1_555 1_555
C6 C1 1_555 1_555
C7 C6 1_555 1_555
C8 C7 1_555 1_555
C9 C1 1_555 1_555
C10 C9 1_555 1_555
C11 C10 1_555 1_555
C12 C2 1_555 1_555
C13 C12 1_555 1_555
C14 C3 1_555 1_555
C15 C14 1_555 1_555
C16 C15 1_555 1_555
C17 C4 1_555 1_555
C18 C17 1_555 1_555
C19 C5 1_555 1_555
C20 C19 1_555 1_555
C21 C7 1_555 1_555
C22 C21 1_555 1_555
C23 C22 1_555 1_555
C24 C8 1_555 1_555
C25 C24 1_555 1_555
C26 C10 1_555 1_555
C27 C26 1_555 1_555
C28 C11 1_555 1_555
C29 C28 1_555 1_555
C30 C13 1_555 1_555
C31 C30 1_555 1_555
C32 C15 1_555 1_555
C33 C32 1_555 1_555
C34 C16 1_555 1_555
C35 C34 1_555 1_555
C36 C18 1_555 1_555
C37 C36 1_555 1_555
C38 C20 1_555 1_555
C39 C22 1_555 1_555
C40 C39 1_555 1_555
C41 C40 1_555 1_555
C42 C23 1_555 1_555
C43 C25 1_555 1_555
C44 C43 1_555 1_555
C45 C27 1_555 1_555
C46 C45 1_555 1_555
C47 C29 1_555 1_555
C48 C31 1_555 1_555
C49 C48 1_555 1_555
C50 C33 1_555 1_555
C51 C50 1_555 1_555
C52 C35 1_555 1_555
C53 C37 1_555 1_555
C54 C40 1_555 1_555
C55 C54 1_555 1_555
C56 C41 1_555 1_555
C57 C44 1_555 1_555
C58 C46 1_555 1_555
C59 C49 1_555 1_555
C60 C51 1_555 1_555
C61 C1 1_555 1_555
C62 C61 1_555 1_555
C63 C62 1_555 1_555
C64 Si1 1_555 1_555
C65 C64 1_555 1_555
C66 C64 1_555 1_555
C67 Si1 1_555 1_555
C68 C67 1_555 1_555
C69 C67 1_555 1_555
C70 Si1 1_555 1_555
C71 C70 1_555 1_555
C72 C70 1_555 1_555
C73 C61 1_555 1_555
C74 C73 1_555 1_555
C75 C76 1_555 1_555
C76 C77 1_555 1_555
C77 C78 1_555 1_555
C78 C79 1_555 1_555
C79 C80 1_555 1_555
C80 C81 1_555 1_555
C81 C76 1_555 1_555
H1 C64 1_555 1_555
H2 C65 1_555 1_555
H3 C65 1_555 1_555
H4 C65 1_555 1_555
H5 C66 1_555 1_555
H6 C66 1_555 1_555
H7 C66 1_555 1_555
H8 C67 1_555 1_555
H9 C68 1_555 1_555
H10 C68 1_555 1_555
H11 C68 1_555 1_555
H12 C69 1_555 1_555
H13 C69 1_555 1_555
H14 C69 1_555 1_555
H15 C70 1_555 1_555
H16 C71 1_555 1_555
H17 C71 1_555 1_555
H18 C71 1_555 1_555
H19 C72 1_555 1_555
H20 C72 1_555 1_555
H21 C72 1_555 1_555
C74A C74 1_555 1_555
C73A C74A 1_555 1_555
C61A C73A 1_555 1_555
C1A C61A 1_555 1_555
C2A C61A 1_555 1_555
C3A C2A 1_555 1_555
C4A C3A 1_555 1_555
C5A C4A 1_555 1_555
C6A C1A 1_555 1_555
C9A C1A 1_555 1_555
C8A C9A 1_555 1_555
C7A C6A 1_555 1_555
C21A C7A 1_555 1_555
C20A C21A 1_555 1_555
C19A C5A 1_555 1_555
C18A C19A 1_555 1_555
C17A C4A 1_555 1_555
C16A C17A 1_555 1_555
C15A C16A 1_555 1_555
C14A C3A 1_555 1_555
C13A C14A 1_555 1_555
C12A C2A 1_555 1_555
C62A C61A 1_555 1_555
C63A C62A 1_555 1_555
Si1A C63A 1_555 1_555
C64A Si1A 1_555 1_555
C65A C64A 1_555 1_555
H2A C65A 1_555 1_555
H3A C65A 1_555 1_555
H4A C65A 1_555 1_555
C66A C64A 1_555 1_555
H5A C66A 1_555 1_555
H6A C66A 1_555 1_555
H7A C66A 1_555 1_555
H1A C64A 1_555 1_555
C67A Si1A 1_555 1_555
C68A C67A 1_555 1_555
H9A C68A 1_555 1_555
H10A C68A 1_555 1_555
H11A C68A 1_555 1_555
C69A C67A 1_555 1_555
H12A C69A 1_555 1_555
H13A C69A 1_555 1_555
H14A C69A 1_555 1_555
H8A C67A 1_555 1_555
C70A Si1A 1_555 1_555
C71A C70A 1_555 1_555
H16A C71A 1_555 1_555
H17A C71A 1_555 1_555
H18A C71A 1_555 1_555
C72A C70A 1_555 1_555
H19A C72A 1_555 1_555
H20A C72A 1_555 1_555
H21A C72A 1_555 1_555
H15A C70A 1_555 1_555
C11A C12A 1_555 1_555
C10A C9A 1_555 1_555
C26A C10A 1_555 1_555
C25A C26A 1_555 1_555
C24A C8A 1_555 1_555
C23A C24A 1_555 1_555
C22A C21A 1_555 1_555
C39A C22A 1_555 1_555
C38A C20A 1_555 1_555
C37A C38A 1_555 1_555
C36A C18A 1_555 1_555
C35A C36A 1_555 1_555
C34A C16A 1_555 1_555
C33A C34A 1_555 1_555
C32A C15A 1_555 1_555
C31A C32A 1_555 1_555
C30A C13A 1_555 1_555
C29A C30A 1_555 1_555
C28A C11A 1_555 1_555
C27A C26A 1_555 1_555
C45A C27A 1_555 1_555
C44A C45A 1_555 1_555
C43A C25A 1_555 1_555
C42A C23A 1_555 1_555
C41A C42A 1_555 1_555
C40A C39A 1_555 1_555
C54A C40A 1_555 1_555
C53A C37A 1_555 1_555
C52A C35A 1_555 1_555
C51A C52A 1_555 1_555
C50A C33A 1_555 1_555
C49A C50A 1_555 1_555
C48A C31A 1_555 1_555
C47A C29A 1_555 1_555
C46A C45A 1_555 1_555
C58A C46A 1_555 1_555
C57A C44A 1_555 1_555
C56A C41A 1_555 1_555
C55A C54A 1_555 1_555
C60A C51A 1_555 1_555
C59A C49A 1_555 1_555
C2 C61 1_555 1_555
C8 C9 1_555 1_555
C11 C12 1_555 1_555
C13 C14 1_555 1_555
C16 C17 1_555 1_555
C18 C19 1_555 1_555
C20 C21 1_555 1_555
C23 C24 1_555 1_555
C25 C26 1_555 1_555
C27 C28 1_555 1_555
C29 C30 1_555 1_555
C31 C32 1_555 1_555
C33 C34 1_555 1_555
C35 C36 1_555 1_555
C37 C38 1_555 1_555
C38 C39 1_555 1_555
C41 C42 1_555 1_555
C42 C43 1_555 1_555
C44 C45 1_555 1_555
C46 C47 1_555 1_555
C47 C48 1_555 1_555
C49 C50 1_555 1_555
C51 C52 1_555 1_555
C52 C53 1_555 1_555
C53 C54 1_555 1_555
C55 C56 1_555 1_555
C55 C60 1_555 1_555
C56 C57 1_555 1_555
C57 C58 1_555 1_555
C58 C59 1_555 1_555
C59 C60 1_555 1_555
C1A C2A 1_555 1_555
C5A C6A 1_555 1_555
C8A C7A 1_555 1_555
C20A C19A 1_555 1_555
C18A C17A 1_555 1_555
C15A C14A 1_555 1_555
C13A C12A 1_555 1_555
C11A C10A 1_555 1_555
C25A C24A 1_555 1_555
C23A C22A 1_555 1_555
C39A C38A 1_555 1_555
C37A C36A 1_555 1_555
C35A C34A 1_555 1_555
C33A C32A 1_555 1_555
C31A C30A 1_555 1_555
C29A C28A 1_555 1_555
C28A C27A 1_555 1_555
C44A C43A 1_555 1_555
C43A C42A 1_555 1_555
C41A C40A 1_555 1_555
C54A C53A 1_555 1_555
C53A C52A 1_555 1_555
C51A C50A 1_555 1_555
C49A C48A 1_555 1_555
C48A C47A 1_555 1_555
C47A C46A 1_555 1_555
C58A C57A 1_555 1_555
C58A C59A 1_555 1_555
C57A C56A 1_555 1_555
C56A C55A 1_555 1_555
C55A C60A 1_555 1_555
C60A C59A 1_555 1_555

#END
