
#######################################################################
#
#                 Cambridge Crystallographic Data Centre
#                                CCDC 
#
#######################################################################
#
# If this CIF has been generated from an entry in the Cambridge 
# Structural Database, then it will include bibliographic, chemical, 
# crystal, experimental, refinement or atomic coordinate data resulting 
# from the CCDC's data processing and validation procedures.
#
#######################################################################

data_TIMYAR
_chemical_formula_moiety         'C27 H23 N1 O6 S2'
_chemical_name_systematic        
'Methyl 5-((1,3-benzothiazol-2-yloxy)(phenyl)methylene)-4-(4-methoxyphenyl)tetrahydrothiophene-3-carboxylate 1,1-dioxide'
_symmetry_cell_setting           monoclinic
_symmetry_space_group_name_H-M   'P 21'
_symmetry_Int_Tables_number      4
_space_group_name_Hall           'P 2yb'
loop_
_symmetry_equiv_pos_site_id
_symmetry_equiv_pos_as_xyz
1 x,y,z
2 -x,1/2+y,-z
_cell_length_a                   10.029(2)
_cell_length_b                   10.377(2)
_cell_length_c                   12.246(3)
_cell_angle_alpha                90
_cell_angle_beta                 104.183(2)
_cell_angle_gamma                90
_cell_volume                     1235.6
_exptl_crystal_colour            colorless
_exptl_crystal_description       Prism
_cell_formula_units_Z            2
loop_
_atom_site_label
_atom_site_type_symbol
_atom_site_fract_x
_atom_site_fract_y
_atom_site_fract_z
S1 S 0.89372(5) 0.49866(5) 0.42456(4)
S2 S 0.52463(6) 0.74178(6) 0.26603(5)
O1 O 0.78189(13) 0.76059(14) 0.39751(11)
O2 O 1.03211(14) 0.54810(14) 0.44748(12)
O3 O 0.81669(15) 0.49015(16) 0.30916(11)
O4 O 0.99298(15) 0.23066(14) 0.75726(12)
O5 O 0.76721(16) 0.23978(18) 0.68126(17)
O6 O 0.99173(17) 0.87015(16) 0.97111(13)
N1 N 0.71169(18) 0.91732(19) 0.26120(15)
C1 C 0.8022(2) 0.57885(19) 0.51139(16)
C2 C 0.81486(19) 0.50501(19) 0.62113(15)
H1 H 0.7224 0.4702 0.6229
C3 C 0.9145(2) 0.38957(19) 0.61958(17)
H2 H 1.0117 0.4179 0.6510
C4 C 0.8952(2) 0.34952(19) 0.49635(17)
H3 H 0.8074 0.3026 0.4686
H4 H 0.9719 0.2942 0.4868
C5 C 0.7419(2) 0.69317(19) 0.48323(16)
C6 C 0.6839(2) 0.8146(2) 0.31258(16)
C7 C 0.5967(2) 0.9418(2) 0.17189(18)
C8 C 0.5897(3) 1.0436(3) 0.0964(2)
H5 H 0.6631 1.1035 0.1047
C9 C 0.4734(3) 1.0551(3) 0.0096(2)
H6 H 0.4675 1.1234 -0.0430
C10 C 0.3649(3) 0.9696(2) -0.00282(19)
H7 H 0.2869 0.9793 -0.0645
C11 C 0.3679(3) 0.8694(3) 0.0735(2)
H8 H 0.2925 0.8121 0.0666
C12 C 0.4867(2) 0.8568(2) 0.16064(17)
C13 C 0.65387(19) 0.76096(19) 0.54503(16)
C14 C 0.6838(2) 0.8870(2) 0.58078(19)
H9 H 0.7556 0.9327 0.5594
C15 C 0.6084(2) 0.9457(2) 0.6478(2)
H10 H 0.6298 1.0315 0.6734
C16 C 0.5020(2) 0.8804(2) 0.6777(2)
H11 H 0.4508 0.9212 0.7238
C17 C 0.4706(2) 0.7555(2) 0.64027(18)
H12 H 0.3974 0.7106 0.6602
C18 C 0.5462(2) 0.6961(2) 0.57373(17)
H13 H 0.5242 0.6107 0.5476
C19 C 0.8644(2) 0.59333(18) 0.72143(16)
C20 C 0.9893(2) 0.65852(19) 0.73544(17)
H14 H 1.0472 0.6401 0.6865
C21 C 1.0298(2) 0.7494(2) 0.81954(17)
H15 H 1.1149 0.7934 0.8282
C22 C 0.9445(2) 0.7763(2) 0.89198(17)
C23 C 0.8225(2) 0.7106(2) 0.88058(17)
H16 H 0.7654 0.7280 0.9303
C24 C 0.7832(2) 0.6186(2) 0.79597(16)
H17 H 0.6997 0.5725 0.7892
C25 C 0.8947(3) 0.9227(2) 1.0262(2)
H18 H 0.8678 0.8565 1.0737
H19 H 0.8133 0.9520 0.9697
H20 H 0.9362 0.9958 1.0730
C26 C 0.8812(2) 0.2787(2) 0.68879(18)
C27 C 0.9707(3) 0.1212(2) 0.82442(19)
H21 H 0.9286 0.0507 0.7745
H22 H 0.9096 0.1465 0.8720
H23 H 1.0590 0.0925 0.8721
loop_
_geom_bond_atom_site_label_1
_geom_bond_atom_site_label_2
_geom_bond_site_symmetry_1
_geom_bond_site_symmetry_2
S1 O2 1_555 1_555
S2 C6 1_555 1_555
O1 C5 1_555 1_555
O3 S1 1_555 1_555
O4 C26 1_555 1_555
O5 C26 1_555 1_555
O6 C22 1_555 1_555
N1 C6 1_555 1_555
C1 S1 1_555 1_555
C2 C1 1_555 1_555
H1 C2 1_555 1_555
C3 C2 1_555 1_555
H2 C3 1_555 1_555
C4 S1 1_555 1_555
H3 C4 1_555 1_555
H4 C4 1_555 1_555
C5 C1 1_555 1_555
C6 O1 1_555 1_555
C7 N1 1_555 1_555
C8 C7 1_555 1_555
H5 C8 1_555 1_555
C9 C8 1_555 1_555
H6 C9 1_555 1_555
C10 C9 1_555 1_555
H7 C10 1_555 1_555
C11 C10 1_555 1_555
H8 C11 1_555 1_555
C12 S2 1_555 1_555
C13 C5 1_555 1_555
C14 C13 1_555 1_555
H9 C14 1_555 1_555
C15 C14 1_555 1_555
H10 C15 1_555 1_555
C16 C15 1_555 1_555
H11 C16 1_555 1_555
C17 C16 1_555 1_555
H12 C17 1_555 1_555
C18 C13 1_555 1_555
H13 C18 1_555 1_555
C19 C2 1_555 1_555
C20 C19 1_555 1_555
H14 C20 1_555 1_555
C21 C20 1_555 1_555
H15 C21 1_555 1_555
C22 C21 1_555 1_555
C23 C22 1_555 1_555
H16 C23 1_555 1_555
C24 C19 1_555 1_555
H17 C24 1_555 1_555
C25 O6 1_555 1_555
H18 C25 1_555 1_555
H19 C25 1_555 1_555
H20 C25 1_555 1_555
C26 C3 1_555 1_555
C27 O4 1_555 1_555
H21 C27 1_555 1_555
H22 C27 1_555 1_555
H23 C27 1_555 1_555
C3 C4 1_555 1_555
C7 C12 1_555 1_555
C11 C12 1_555 1_555
C17 C18 1_555 1_555
C23 C24 1_555 1_555

#END
