
#######################################################################
#
#                 Cambridge Crystallographic Data Centre
#                                CCDC 
#
#######################################################################
#
# If this CIF has been generated from an entry in the Cambridge 
# Structural Database, then it will include bibliographic, chemical, 
# crystal, experimental, refinement or atomic coordinate data resulting 
# from the CCDC's data processing and validation procedures.
#
#######################################################################

data_TINMIO
_chemical_formula_moiety         'C15 H11 N3 O1 S1'
_chemical_name_systematic        
3-(4-Oxo-3-(pyridin-2-yl)-1,3-thiazolidin-2-yl)benzonitrile
_symmetry_cell_setting           monoclinic
_symmetry_space_group_name_H-M   'P 21/c'
_symmetry_Int_Tables_number      14
_space_group_name_Hall           '-P 2ybc'
loop_
_symmetry_equiv_pos_site_id
_symmetry_equiv_pos_as_xyz
1 x,y,z
2 -x,1/2+y,1/2-z
3 -x,-y,-z
4 x,1/2-y,1/2+z
_cell_length_a                   14.4900(13)
_cell_length_b                   7.1977(6)
_cell_length_c                   12.8512(11)
_cell_angle_alpha                90
_cell_angle_beta                 106.620(8)
_cell_angle_gamma                90
_cell_volume                     1284.32
_exptl_crystal_colour            'light yellow'
_exptl_crystal_description       'Cut Block'
_cell_formula_units_Z            4
loop_
_atom_site_label
_atom_site_type_symbol
_atom_site_fract_x
_atom_site_fract_y
_atom_site_fract_z
S1 S -0.27439(17) 0.8697(3) -0.41765(18)
O1 O -0.1725(5) 0.8087(9) -0.1090(5)
N1 N -0.1061(5) 0.3678(11) -0.2786(6)
N2 N -0.5670(6) 0.2168(12) -0.3152(7)
N3 N -0.1932(5) 0.6323(10) -0.2623(6)
C1 C -0.2284(6) 0.6345(11) -0.3804(7)
H1 H -0.1731 0.6115 -0.4107
C2 C -0.2054(6) 0.7890(12) -0.2062(7)
C3 C -0.2683(6) 0.9308(13) -0.2798(7)
H2 H -0.2406 1.0566 -0.2626
H3 H -0.3336 0.9302 -0.2699
C4 C -0.1407(6) 0.4723(11) -0.2131(7)
C5 C -0.0556(6) 0.2186(12) -0.2371(8)
H4 H -0.0312 0.1434 -0.2840
C6 C -0.0363(7) 0.1662(13) -0.1309(8)
H5 H 0.0024 0.0603 -0.1043
C7 C -0.0743(7) 0.2707(14) -0.0632(7)
H6 H -0.0640 0.2352 0.0105
C8 C -0.1276(7) 0.4284(13) -0.1039(7)
H7 H -0.1543 0.5037 -0.0591
C9 C -0.3051(6) 0.4878(11) -0.4245(6)
C10 C -0.3732(6) 0.4421(12) -0.3716(6)
H8 H -0.3710 0.4994 -0.3043
C11 C -0.4446(6) 0.3126(12) -0.4170(7)
C12 C -0.4490(6) 0.2283(12) -0.5174(7)
H9 H -0.4993 0.1438 -0.5501
C13 C -0.3795(6) 0.2701(12) -0.5671(7)
H10 H -0.3803 0.2107 -0.6334
C14 C -0.3080(6) 0.3985(12) -0.5213(7)
H11 H -0.2603 0.4259 -0.5567
C15 C -0.5135(6) 0.2601(13) -0.3617(7)
loop_
_geom_bond_atom_site_label_1
_geom_bond_atom_site_label_2
_geom_bond_site_symmetry_1
_geom_bond_site_symmetry_2
S1 C1 1_555 1_555
O1 C2 1_555 1_555
N1 C4 1_555 1_555
N2 C15 1_555 1_555
N3 C1 1_555 1_555
C1 H1 1_555 1_555
C2 N3 1_555 1_555
C3 S1 1_555 1_555
H2 C3 1_555 1_555
H3 C3 1_555 1_555
C4 N3 1_555 1_555
C5 N1 1_555 1_555
H4 C5 1_555 1_555
C6 C5 1_555 1_555
H5 C6 1_555 1_555
C7 C6 1_555 1_555
H6 C7 1_555 1_555
C8 C4 1_555 1_555
H7 C8 1_555 1_555
C9 C1 1_555 1_555
C10 C9 1_555 1_555
H8 C10 1_555 1_555
C11 C10 1_555 1_555
C12 C11 1_555 1_555
H9 C12 1_555 1_555
C13 C12 1_555 1_555
H10 C13 1_555 1_555
C14 C9 1_555 1_555
H11 C14 1_555 1_555
C15 C11 1_555 1_555
C2 C3 1_555 1_555
C7 C8 1_555 1_555
C13 C14 1_555 1_555

#END
