
#######################################################################
#
#                 Cambridge Crystallographic Data Centre
#                                CCDC 
#
#######################################################################
#
# If this CIF has been generated from an entry in the Cambridge 
# Structural Database, then it will include bibliographic, chemical, 
# crystal, experimental, refinement or atomic coordinate data resulting 
# from the CCDC's data processing and validation procedures.
#
#######################################################################

data_TIPPUG
_chemical_formula_moiety         'C21 H16 S2'
_chemical_name_systematic        2,2'-(methylenedisulfanediyl)dinaphthalene
_symmetry_cell_setting           monoclinic
_symmetry_space_group_name_H-M   'P 21/c'
_symmetry_Int_Tables_number      14
_space_group_name_Hall           '-P 2ybc'
loop_
_symmetry_equiv_pos_site_id
_symmetry_equiv_pos_as_xyz
1 x,y,z
2 -x,1/2+y,1/2-z
3 -x,-y,-z
4 x,1/2-y,1/2+z
_cell_length_a                   16.6265(19)
_cell_length_b                   5.9931(6)
_cell_length_c                   16.6263(19)
_cell_angle_alpha                90
_cell_angle_beta                 104.15
_cell_angle_gamma                90
_cell_volume                     1606.45
_exptl_crystal_colour            'light colorless'
_exptl_crystal_description       BLOCK
_cell_formula_units_Z            4
loop_
_atom_site_label
_atom_site_type_symbol
_atom_site_fract_x
_atom_site_fract_y
_atom_site_fract_z
S1 S 0.32701(4) 1.13343(9) 0.52018(3)
S2 S 0.22289(4) 0.73653(10) 0.47588(3)
C1 C 0.54585(12) 1.0370(3) 0.68124(11)
C2 C 0.46961(12) 1.1218(3) 0.63558(11)
H1 H 0.4523 1.2656 0.6486
C3 C 0.13111(12) 0.5143(3) 0.23811(12)
C4 C 0.41965(12) 1.0021(3) 0.57263(11)
C5 C 0.57188(12) 0.8226(3) 0.66057(12)
C6 C 0.17135(12) 0.6481(3) 0.30618(12)
H2 H 0.1960 0.7851 0.2963
C7 C 0.28156(13) 0.9461(3) 0.43721(12)
H3 H 0.3257 0.8744 0.4156
H4 H 0.2447 1.0297 0.3913
C8 C 0.44478(13) 0.7876(3) 0.55347(12)
H5 H 0.4098 0.7018 0.5109
C9 C 0.09468(12) 0.3092(3) 0.25352(13)
C10 C 0.17534(12) 0.5834(3) 0.38634(12)
C11 C 0.51882(13) 0.7039(3) 0.59574(12)
H6 H 0.5354 0.5608 0.5812
C12 C 0.59747(13) 1.1559(3) 0.74746(12)
H7 H 0.5812 1.3000 0.7613
C13 C 0.13822(13) 0.3797(3) 0.40121(13)
H8 H 0.1405 0.3350 0.4565
C14 C 0.64857(13) 0.7387(3) 0.70686(13)
H9 H 0.6672 0.5972 0.6931
C15 C 0.09938(13) 0.2480(3) 0.33706(13)
H10 H 0.0748 0.1121 0.3483
C16 C 0.12559(13) 0.5772(3) 0.15485(12)
H11 H 0.1493 0.7145 0.1437
C17 C 0.69606(13) 0.8568(4) 0.77067(13)
H12 H 0.7472 0.7966 0.8014
C18 C 0.67009(13) 1.0672(4) 0.79159(13)
H13 H 0.7034 1.1479 0.8368
C19 C 0.05540(14) 0.1758(4) 0.18508(14)
H14 H 0.0314 0.0374 0.1945
C20 C 0.08695(14) 0.4446(4) 0.09047(13)
H15 H 0.0842 0.4898 0.0351
C21 C 0.05138(15) 0.2424(4) 0.10544(14)
H16 H 0.0243 0.1510 0.0602
loop_
_geom_bond_atom_site_label_1
_geom_bond_atom_site_label_2
_geom_bond_site_symmetry_1
_geom_bond_site_symmetry_2
S1 C4 1_555 1_555
S2 C7 1_555 1_555
C1 C2 1_555 1_555
C2 H1 1_555 1_555
C3 C6 1_555 1_555
C4 C2 1_555 1_555
C5 C1 1_555 1_555
C6 H2 1_555 1_555
C7 S1 1_555 1_555
H3 C7 1_555 1_555
H4 C7 1_555 1_555
C8 C4 1_555 1_555
H5 C8 1_555 1_555
C9 C3 1_555 1_555
C10 S2 1_555 1_555
C11 C5 1_555 1_555
H6 C11 1_555 1_555
C12 C1 1_555 1_555
H7 C12 1_555 1_555
C13 C10 1_555 1_555
H8 C13 1_555 1_555
C14 C5 1_555 1_555
H9 C14 1_555 1_555
C15 C9 1_555 1_555
H10 C15 1_555 1_555
C16 C3 1_555 1_555
H11 C16 1_555 1_555
C17 C14 1_555 1_555
H12 C17 1_555 1_555
C18 C12 1_555 1_555
H13 C18 1_555 1_555
C19 C9 1_555 1_555
H14 C19 1_555 1_555
C20 C16 1_555 1_555
H15 C20 1_555 1_555
C21 C19 1_555 1_555
H16 C21 1_555 1_555
C6 C10 1_555 1_555
C8 C11 1_555 1_555
C13 C15 1_555 1_555
C17 C18 1_555 1_555
C20 C21 1_555 1_555

#END
