
#######################################################################
#
#                 Cambridge Crystallographic Data Centre
#                                CCDC 
#
#######################################################################
#
# If this CIF has been generated from an entry in the Cambridge 
# Structural Database, then it will include bibliographic, chemical, 
# crystal, experimental, refinement or atomic coordinate data resulting 
# from the CCDC's data processing and validation procedures.
#
#######################################################################

data_TIPREQ
_chemical_name_common            
(3aS,6aS)-3,6-diphenyl-1,3a,4,6a-tetrahydropentalene
_chemical_formula_moiety         'C20 H18'
_chemical_name_systematic        
(1S,5S)-2,6-diphenylbicyclo(3.3.0)octa-2,5-diene
_symmetry_cell_setting           orthorhombic
_symmetry_space_group_name_H-M   'P 21 21 21'
_symmetry_Int_Tables_number      19
_space_group_name_Hall           'P 2ac 2ab'
loop_
_symmetry_equiv_pos_site_id
_symmetry_equiv_pos_as_xyz
1 x,y,z
2 1/2-x,-y,1/2+z
3 -x,1/2+y,1/2-z
4 1/2+x,1/2-y,-z
_cell_length_a                   5.3176(6)
_cell_length_b                   13.2077(7)
_cell_length_c                   21.0044(17)
_cell_angle_alpha                90
_cell_angle_beta                 90
_cell_angle_gamma                90
_cell_volume                     1475.21
_exptl_crystal_colour            colorless
_exptl_crystal_description       needles
_cell_formula_units_Z            4
_exptl_crystal_recrystallization_method methanol/dichloromethane
loop_
_atom_site_label
_atom_site_type_symbol
_atom_site_fract_x
_atom_site_fract_y
_atom_site_fract_z
C1 C 0.3173(10) 0.1696(3) 0.7762(2)
C2 C 0.2872(11) 0.0724(3) 0.7613(2)
H1 H 0.3683 0.0200 0.7826
C3 C 0.1095(12) 0.0554(3) 0.7067(2)
H2 H -0.0455 0.0242 0.7211
H3 H 0.1855 0.0128 0.6744
C4 C 0.0614(9) 0.1622(3) 0.6811(2)
H4 H -0.1185 0.1731 0.6737
C5 C 0.2110(9) 0.1892(3) 0.6235(2)
C6 C 0.3506(13) 0.2709(3) 0.6336(2)
H5 H 0.4593 0.2971 0.6031
C7 C 0.3191(14) 0.3170(3) 0.6974(2)
H6 H 0.2297 0.3808 0.6948
H7 H 0.4804 0.3279 0.7179
C8 C 0.1620(11) 0.2359(3) 0.7333(2)
H8 H 0.0231 0.2673 0.7567
C9 C 0.4745(9) 0.2097(3) 0.8283(2)
C10 C 0.6793(11) 0.1576(4) 0.8511(2)
H9 H 0.7235 0.0964 0.8323
C11 C 0.8214(12) 0.1938(4) 0.9014(2)
H10 H 0.9592 0.1572 0.9160
C12 C 0.7589(12) 0.2837(4) 0.9298(3)
H11 H 0.8522 0.3073 0.9642
C13 C 0.5615(12) 0.3385(4) 0.9079(2)
H12 H 0.5213 0.4000 0.9269
C14 C 0.4185(11) 0.3026(3) 0.8570(2)
H13 H 0.2843 0.3410 0.8419
C15 C 0.1999(9) 0.1304(3) 0.5640(2)
C16 C 0.0041(10) 0.0634(4) 0.5525(2)
H14 H -0.1203 0.0552 0.5832
C17 C -0.0107(11) 0.0086(4) 0.4966(2)
H15 H -0.1460 -0.0347 0.4900
C18 C 0.1720(12) 0.0175(4) 0.4508(2)
H16 H 0.1647 -0.0215 0.4139
C19 C 0.3659(12) 0.0848(4) 0.4602(2)
H17 H 0.4881 0.0931 0.4289
C20 C 0.3799(11) 0.1400(4) 0.5157(2)
H18 H 0.5126 0.1850 0.5212
loop_
_geom_bond_atom_site_label_1
_geom_bond_atom_site_label_2
_geom_bond_site_symmetry_1
_geom_bond_site_symmetry_2
C1 C2 1_555 1_555
C2 H1 1_555 1_555
C3 C2 1_555 1_555
H2 C3 1_555 1_555
H3 C3 1_555 1_555
C4 C3 1_555 1_555
H4 C4 1_555 1_555
C5 C4 1_555 1_555
C6 C5 1_555 1_555
H5 C6 1_555 1_555
C7 C6 1_555 1_555
H6 C7 1_555 1_555
H7 C7 1_555 1_555
C8 C1 1_555 1_555
H8 C8 1_555 1_555
C9 C1 1_555 1_555
C10 C9 1_555 1_555
H9 C10 1_555 1_555
C11 C10 1_555 1_555
H10 C11 1_555 1_555
C12 C11 1_555 1_555
H11 C12 1_555 1_555
C13 C12 1_555 1_555
H12 C13 1_555 1_555
C14 C9 1_555 1_555
H13 C14 1_555 1_555
C15 C5 1_555 1_555
C16 C15 1_555 1_555
H14 C16 1_555 1_555
C17 C16 1_555 1_555
H15 C17 1_555 1_555
C18 C17 1_555 1_555
H16 C18 1_555 1_555
C19 C18 1_555 1_555
H17 C19 1_555 1_555
C20 C15 1_555 1_555
H18 C20 1_555 1_555
C4 C8 1_555 1_555
C7 C8 1_555 1_555
C13 C14 1_555 1_555
C19 C20 1_555 1_555

#END
