
#######################################################################
#
#                 Cambridge Crystallographic Data Centre
#                                CCDC 
#
#######################################################################
#
# If this CIF has been generated from an entry in the Cambridge 
# Structural Database, then it will include bibliographic, chemical, 
# crystal, experimental, refinement or atomic coordinate data resulting 
# from the CCDC's data processing and validation procedures.
#
#######################################################################

data_TIPWEW
_chemical_formula_moiety         'C25 H22 Cl1 N1 O3'
_chemical_name_systematic        
3-(4-Chlorophenyl)-4-methyl-6-nitro-1,5-diphenylcyclohex-2-en-1-ol
_symmetry_cell_setting           orthorhombic
_symmetry_space_group_name_H-M   'P 21 21 21'
_symmetry_Int_Tables_number      19
_space_group_name_Hall           'P 2ac 2ab'
loop_
_symmetry_equiv_pos_site_id
_symmetry_equiv_pos_as_xyz
1 x,y,z
2 1/2-x,-y,1/2+z
3 1/2+x,1/2-y,-z
4 -x,1/2+y,1/2-z
_cell_length_a                   7.1683(3)
_cell_length_b                   11.3731(7)
_cell_length_c                   26.4386(16)
_cell_angle_alpha                90
_cell_angle_beta                 90
_cell_angle_gamma                90
_cell_volume                     2155.43
_exptl_crystal_colour            'light yellow'
_exptl_crystal_description       block
_chemical_melting_point          '178-180 deg.C'
_cell_formula_units_Z            4
loop_
_atom_site_label
_atom_site_type_symbol
_atom_site_fract_x
_atom_site_fract_y
_atom_site_fract_z
Cl1 Cl 1.59248(14) 0.07115(10) 0.53671(4)
O1 O 0.6078(3) 0.3114(2) 0.72467(11)
H1 H 0.6284 0.2433 0.7332
O2 O 0.5809(5) 0.6006(3) 0.75194(12)
O3 O 0.4050(4) 0.5174(3) 0.69681(12)
N1 N 0.5560(5) 0.5399(3) 0.71483(12)
C1 C 1.0426(5) 0.4471(4) 0.77433(14)
H2 H 1.1083 0.4628 0.7448
C2 C 1.1239(6) 0.4704(4) 0.82012(17)
H3 H 1.2435 0.5020 0.8215
C3 C 1.0292(6) 0.4471(4) 0.86378(17)
H4 H 1.0842 0.4637 0.8948
C4 C 0.8560(7) 0.4000(4) 0.86226(17)
H5 H 0.7924 0.3838 0.8921
C5 C 0.7735(5) 0.3761(4) 0.81557(14)
H6 H 0.6550 0.3430 0.8145
C6 C 0.8652(5) 0.4009(3) 0.77130(13)
C7 C 0.7802(4) 0.3730(3) 0.71974(13)
C8 C 0.9183(5) 0.3026(3) 0.68918(13)
H7 H 0.9735 0.2383 0.7050
C9 C 0.9684(5) 0.3242(3) 0.64156(14)
C10 C 0.8859(4) 0.4238(3) 0.61179(12)
H8 H 0.8584 0.3931 0.5780
C11 C 0.6978(4) 0.4644(3) 0.63483(12)
H9 H 0.6106 0.3984 0.6322
C12 C 0.7297(4) 0.4874(3) 0.69078(13)
H10 H 0.8327 0.5434 0.6944
C13 C 0.6177(4) 0.5650(3) 0.60411(13)
C14 C 0.6476(5) 0.6817(3) 0.61485(15)
H11 H 0.7148 0.7021 0.6436
C15 C 0.5806(6) 0.7686(4) 0.58399(17)
H12 H 0.6010 0.8470 0.5922
C16 C 0.4830(5) 0.7404(4) 0.54083(17)
H13 H 0.4402 0.7993 0.5194
C17 C 0.4499(5) 0.6250(4) 0.52988(16)
H14 H 0.3822 0.6052 0.5011
C18 C 0.5161(4) 0.5376(3) 0.56116(14)
H15 H 0.4922 0.4593 0.5534
C19 C 1.1187(5) 0.2555(3) 0.61645(13)
C20 C 1.2865(5) 0.2349(3) 0.64072(14)
H16 H 1.3022 0.2610 0.6738
C21 C 1.4306(5) 0.1769(3) 0.61719(15)
H17 H 1.5422 0.1633 0.6342
C22 C 1.4077(5) 0.1392(3) 0.56819(14)
C23 C 1.2438(5) 0.1568(3) 0.54296(14)
H18 H 1.2291 0.1298 0.5100
C24 C 1.1006(5) 0.2150(3) 0.56708(13)
H19 H 0.9891 0.2275 0.5499
C25 C 1.0298(5) 0.5225(4) 0.60505(17)
H20 H 0.9838 0.5788 0.5810
H21 H 1.1450 0.4899 0.5929
H22 H 1.0508 0.5606 0.6369
loop_
_geom_bond_atom_site_label_1
_geom_bond_atom_site_label_2
_geom_bond_site_symmetry_1
_geom_bond_site_symmetry_2
Cl1 C22 1_555 1_555
O1 H1 1_555 1_555
O2 N1 1_555 1_555
O3 N1 1_555 1_555
N1 C12 1_555 1_555
C1 H2 1_555 1_555
C2 C1 1_555 1_555
H3 C2 1_555 1_555
C3 C2 1_555 1_555
H4 C3 1_555 1_555
C4 C3 1_555 1_555
H5 C4 1_555 1_555
C5 C4 1_555 1_555
H6 C5 1_555 1_555
C6 C1 1_555 1_555
C7 O1 1_555 1_555
C8 C7 1_555 1_555
H7 C8 1_555 1_555
C9 C8 1_555 1_555
C10 C9 1_555 1_555
H8 C10 1_555 1_555
C11 C10 1_555 1_555
H9 C11 1_555 1_555
C12 C7 1_555 1_555
H10 C12 1_555 1_555
C13 C11 1_555 1_555
C14 C13 1_555 1_555
H11 C14 1_555 1_555
C15 C14 1_555 1_555
H12 C15 1_555 1_555
C16 C15 1_555 1_555
H13 C16 1_555 1_555
C17 C16 1_555 1_555
H14 C17 1_555 1_555
C18 C13 1_555 1_555
H15 C18 1_555 1_555
C19 C9 1_555 1_555
C20 C19 1_555 1_555
H16 C20 1_555 1_555
C21 C20 1_555 1_555
H17 C21 1_555 1_555
C22 C21 1_555 1_555
C23 C22 1_555 1_555
H18 C23 1_555 1_555
C24 C19 1_555 1_555
H19 C24 1_555 1_555
C25 C10 1_555 1_555
H20 C25 1_555 1_555
H21 C25 1_555 1_555
H22 C25 1_555 1_555
C5 C6 1_555 1_555
C6 C7 1_555 1_555
C11 C12 1_555 1_555
C17 C18 1_555 1_555
C23 C24 1_555 1_555

#END
