
#######################################################################
#
#                 Cambridge Crystallographic Data Centre
#                                CCDC 
#
#######################################################################
#
# If this CIF has been generated from an entry in the Cambridge 
# Structural Database, then it will include bibliographic, chemical, 
# crystal, experimental, refinement or atomic coordinate data resulting 
# from the CCDC's data processing and validation procedures.
#
#######################################################################

data_TIRPOC
_chemical_formula_moiety         'C16 H12 Cl2 N6 O5'
_chemical_name_systematic        
11,23-dichloro-2,8,14,17,20-pentaoxa-10,12,22,24,25,26-hexaazatetracyclo[19.3.1.1^3,7^.1^9,13^]heptacosa-1(25),3(27),4,6,9(26),10,12,21,23-nonaene
_symmetry_cell_setting           orthorhombic
_symmetry_space_group_name_H-M   'P n m a'
_symmetry_Int_Tables_number      62
_space_group_name_Hall           '-P 2ac 2n'
loop_
_symmetry_equiv_pos_site_id
_symmetry_equiv_pos_as_xyz
1 x,y,z
2 1/2-x,-y,1/2+z
3 -x,1/2+y,-z
4 1/2+x,1/2-y,1/2-z
5 -x,-y,-z
6 1/2+x,y,1/2-z
7 x,1/2-y,z
8 1/2-x,1/2+y,1/2+z
_cell_length_a                   7.616(3)
_cell_length_b                   15.463(6)
_cell_length_c                   15.464(6)
_cell_angle_alpha                90
_cell_angle_beta                 90
_cell_angle_gamma                90
_cell_volume                     1821.14
_exptl_crystal_colour            colorless
_exptl_crystal_description       rod
_cell_formula_units_Z            4
loop_
_atom_site_label
_atom_site_type_symbol
_atom_site_fract_x
_atom_site_fract_y
_atom_site_fract_z
Cl1 Cl 0.06695(17) 0.35919(7) 0.65003(7)
O1 O 0.1894(3) 0.59334(15) 0.84414(14)
O2 O 0.3551(3) 0.62969(17) 0.56504(15)
O3 O 0.3449(5) 0.7500 0.4329(2)
N1 N 0.2210(4) 0.5016(2) 0.60311(18)
N2 N 0.2834(4) 0.61424(19) 0.70409(17)
N3 N 0.1313(4) 0.48811(18) 0.75035(19)
C1 C 0.1494(5) 0.4614(2) 0.6701(2)
C2 C 0.2842(4) 0.5791(2) 0.6249(2)
C3 C 0.2039(4) 0.5666(2) 0.7621(2)
C4 C 0.2611(4) 0.6745(2) 0.86647(19)
C5 C 0.1842(6) 0.7500 0.8381(3)
H1 H 0.0865 0.7500 0.8020
C6 C 0.4025(4) 0.6724(2) 0.9221(2)
H2 H 0.4493 0.6199 0.9403
C7 C 0.4735(6) 0.7500 0.9504(3)
H3 H 0.5684 0.7500 0.9882
C8 C 0.3515(5) 0.6030(3) 0.4752(2)
H4 H 0.2314 0.5973 0.4551
H5 H 0.4107 0.5479 0.4680
C9 C 0.4450(5) 0.6727(3) 0.4261(2)
H6 H 0.5614 0.6815 0.4500
H7 H 0.4572 0.6562 0.3659
Cl1F Cl 0.06695(17) 1.14081(7) 0.65003(7)
O1F O 0.1894(3) 0.90666(15) 0.84414(14)
O2F O 0.3551(3) 0.87031(17) 0.56504(15)
N1F N 0.2210(4) 0.9984(2) 0.60311(18)
N2F N 0.2834(4) 0.88576(19) 0.70409(17)
N3F N 0.1313(4) 1.01189(18) 0.75035(19)
C1F C 0.1494(5) 1.0386(2) 0.6701(2)
C2F C 0.2842(4) 0.9209(2) 0.6249(2)
C3F C 0.2039(4) 0.9334(2) 0.7621(2)
C4F C 0.2611(4) 0.8255(2) 0.86647(19)
C6F C 0.4025(4) 0.8276(2) 0.9221(2)
H2F H 0.4493 0.8801 0.9403
C8F C 0.3515(5) 0.8970(3) 0.4752(2)
H4F H 0.2314 0.9027 0.4551
H5F H 0.4107 0.9521 0.4680
C9F C 0.4450(5) 0.8273(3) 0.4261(2)
H6F H 0.5614 0.8185 0.4500
H7F H 0.4572 0.8438 0.3659
loop_
_geom_bond_atom_site_label_1
_geom_bond_atom_site_label_2
_geom_bond_site_symmetry_1
_geom_bond_site_symmetry_2
Cl1 C1 1_555 1_555
O1 C3 1_555 1_555
O2 C2 1_555 1_555
O3 C9 1_555 1_555
N1 C1 1_555 1_555
N2 C2 1_555 1_555
N3 C1 1_555 1_555
C2 N1 1_555 1_555
C3 N2 1_555 1_555
C4 O1 1_555 1_555
C5 C4 1_555 1_555
H1 C5 1_555 1_555
C6 C4 1_555 1_555
H2 C6 1_555 1_555
C7 C6 1_555 1_555
H3 C7 1_555 1_555
C8 O2 1_555 1_555
H4 C8 1_555 1_555
H5 C8 1_555 1_555
C9 C8 1_555 1_555
H6 C9 1_555 1_555
H7 C9 1_555 1_555
Cl1F C1F 1_555 1_555
O1F C3F 1_555 1_555
O2F C2F 1_555 1_555
N1F C1F 1_555 1_555
N2F C2F 1_555 1_555
N3F C1F 1_555 1_555
C2F N1F 1_555 1_555
C3F N2F 1_555 1_555
C4F C5 1_555 1_555
C6F C7 1_555 1_555
H2F C6F 1_555 1_555
C8F O2F 1_555 1_555
H4F C8F 1_555 1_555
H5F C8F 1_555 1_555
C9F O3 1_555 1_555
H6F C9F 1_555 1_555
H7F C9F 1_555 1_555
N3 C3 1_555 1_555
O1F C4F 1_555 1_555
N3F C3F 1_555 1_555
C4F C6F 1_555 1_555
C8F C9F 1_555 1_555

#END
