
#######################################################################
#
#                 Cambridge Crystallographic Data Centre
#                                CCDC 
#
#######################################################################
#
# If this CIF has been generated from an entry in the Cambridge 
# Structural Database, then it will include bibliographic, chemical, 
# crystal, experimental, refinement or atomic coordinate data resulting 
# from the CCDC's data processing and validation procedures.
#
#######################################################################

data_TIRRAQ
_chemical_formula_moiety         'C48 H40 N12 O16,C7 H8'
_chemical_name_systematic        
'4,10,16,19,22,25,31,37,43,46,49,52,55,61,67,73-hexadecaoxa-2,12,14,27,29,39,41,54,63,64,66,74-dodecaazaundecacyclo[38.14.7.7^13,28^.1^3,53^.1^5,9^.1^11,15^.1^26,30^.1^32,36^.1^38,42^.1^56,60^.1^68,72^]hexaheptaconta-1,3(63),5(75),6,8,11(74),12,14,26(66),27,29,32(65),33,35,38(64),39,41,53,56(62),57,59,68(76),69,71-tetracosaene toluene unknown solvate'
_symmetry_cell_setting           monoclinic
_symmetry_space_group_name_H-M   'C 2/c'
_symmetry_Int_Tables_number      15
_space_group_name_Hall           '-C 2yn'
loop_
_symmetry_equiv_pos_site_id
_symmetry_equiv_pos_as_xyz
1 x,y,z
2 -x,y,1/2-z
3 1/2+x,1/2+y,z
4 1/2-x,1/2+y,1/2-z
5 -x,-y,-z
6 x,-y,1/2+z
7 1/2-x,1/2-y,-z
8 1/2+x,1/2-y,1/2+z
_cell_length_a                   41.954(11)
_cell_length_b                   18.384(5)
_cell_length_c                   18.203(5)
_cell_angle_alpha                90
_cell_angle_beta                 113.533(2)
_cell_angle_gamma                90
_cell_volume                     12872
_exptl_crystal_colour            colorless
_exptl_crystal_description       Prism
_cell_formula_units_Z            8
loop_
_atom_site_label
_atom_site_type_symbol
_atom_site_fract_x
_atom_site_fract_y
_atom_site_fract_z
O1 O 0.45508(8) 0.83393(16) 0.56766(18)
O2 O 0.37345(8) 1.00022(16) 0.53983(17)
O3 O 0.26641(8) 1.02664(16) 0.57706(18)
O4 O 0.31275(7) 0.86848(14) 0.78582(16)
O5 O 0.30588(7) 0.61017(14) 0.80692(16)
O6 O 0.24979(7) 0.44737(14) 0.60967(16)
O7 O 0.35617(7) 0.43250(15) 0.56915(17)
O8 O 0.44273(7) 0.57557(16) 0.56984(18)
O9 O 0.41728(9) 0.85821(19) 0.7667(2)
O10 O 0.39489(14) 0.7821(3) 0.8714(3)
O11 O 0.42480(14) 0.6382(3) 0.9291(3)
O12 O 0.41837(11) 0.5719(2) 0.78917(19)
O13 O 0.19668(7) 0.87736(16) 0.64504(17)
O14 O 0.13136(8) 0.81083(16) 0.60006(19)
O15 O 0.12714(8) 0.67107(17) 0.68285(19)
O16 O 0.18859(7) 0.60055(15) 0.70049(17)
N1 N 0.43656(10) 0.8428(2) 0.6704(2)
N2 N 0.41414(10) 0.91761(19) 0.5528(2)
N3 N 0.39321(10) 0.9333(2) 0.6561(2)
N4 N 0.29181(9) 0.94853(17) 0.6834(2)
N5 N 0.23043(9) 0.95523(18) 0.6069(2)
N6 N 0.25372(8) 0.86909(17) 0.71373(19)
N7 N 0.24609(8) 0.60824(17) 0.75422(19)
N8 N 0.21795(8) 0.52262(17) 0.64978(19)
N9 N 0.27978(8) 0.52532(16) 0.71377(19)
N10 N 0.38539(9) 0.50006(19) 0.6830(2)
N11 N 0.39949(8) 0.50350(18) 0.5692(2)
N12 N 0.43121(9) 0.57668(19) 0.6821(2)
C1 C 0.43439(11) 0.8652(2) 0.6000(3)
C2 C 0.39460(11) 0.9482(2) 0.5864(3)
C3 C 0.41497(12) 0.8795(2) 0.6952(3)
C4 C 0.35226(12) 1.0378(2) 0.5698(2)
C5 C 0.36343(12) 1.1062(2) 0.6021(3)
H1 H 0.3850 1.1242 0.6078
C6 C 0.34126(14) 1.1468(2) 0.6257(3)
H2 H 0.3480 1.1932 0.6467
C7 C 0.30941(13) 1.1198(2) 0.6185(3)
H3 H 0.2947 1.1476 0.6342
C8 C 0.29995(11) 1.0514(2) 0.5878(2)
C9 C 0.32065(11) 1.0100(2) 0.5621(2)
H4 H 0.3135 0.9642 0.5400
C10 C 0.26336(11) 0.9740(2) 0.6252(2)
C11 C 0.22711(10) 0.9018(2) 0.6534(2)
C12 C 0.28465(10) 0.8959(2) 0.7252(2)
C13 C 0.30780(10) 0.8074(2) 0.8273(2)
C14 C 0.30575(11) 0.8171(2) 0.9001(2)
H5 H 0.3066 0.8633 0.9215
C15 C 0.30237(12) 0.7558(2) 0.9409(3)
H6 H 0.3007 0.7614 0.9900
C16 C 0.30149(11) 0.6869(2) 0.9105(2)
H7 H 0.2991 0.6462 0.9382
C17 C 0.30416(9) 0.68011(19) 0.8383(2)
C18 C 0.30729(9) 0.7390(2) 0.7947(2)
H8 H 0.3090 0.7331 0.7456
C19 C 0.27543(10) 0.58065(19) 0.7566(2)
C20 C 0.21794(11) 0.5756(2) 0.6996(3)
C21 C 0.24957(9) 0.50101(19) 0.6607(2)
C22 C 0.28201(10) 0.4140(2) 0.6243(2)
C23 C 0.29030(11) 0.3516(2) 0.6705(2)
H9 H 0.2751 0.3325 0.6911
C24 C 0.32193(11) 0.3183(2) 0.6853(2)
H10 H 0.3283 0.2771 0.7174
C25 C 0.34406(10) 0.3457(2) 0.6528(2)
H11 H 0.3651 0.3229 0.6624
C26 C 0.33464(10) 0.4064(2) 0.6066(2)
C27 C 0.30318(10) 0.4422(2) 0.5899(2)
H12 H 0.2968 0.4831 0.5571
C28 C 0.38144(10) 0.4807(2) 0.6091(2)
C29 C 0.42393(10) 0.5516(2) 0.6098(2)
C30 C 0.41090(13) 0.5478(3) 0.7157(3)
C31 C 0.46392(10) 0.6380(2) 0.5996(2)
C32 C 0.49907(11) 0.6305(2) 0.6430(3)
H13 H 0.5090 0.5848 0.6584
C33 C 0.51952(11) 0.6931(3) 0.6635(3)
H14 H 0.5434 0.6888 0.6929
C34 C 0.50518(11) 0.7605(2) 0.6411(3)
H15 H 0.5190 0.8020 0.6545
C35 C 0.46981(11) 0.7653(2) 0.5982(3)
C36 C 0.44847(10) 0.7047(2) 0.5770(2)
H16 H 0.4246 0.7090 0.5486
C37 C 0.39244(17) 0.8893(4) 0.7948(3)
H17 H 0.3690 0.8748 0.7601
H18 H 0.3938 0.9420 0.7950
C38 C 0.4016(2) 0.8612(5) 0.8782(4)
H19 H 0.4259 0.8707 0.9113
H20 H 0.3875 0.8848 0.9023
C39 C 0.4001(3) 0.7437(6) 0.9458(6)
H21 H 0.3825 0.7556 0.9658
H22 H 0.4231 0.7513 0.9873
C40 C 0.3954(2) 0.6668(4) 0.9092(8)
H23 H 0.3811 0.6376 0.9286
H24 H 0.3839 0.6697 0.8513
C41 C 0.4202(3) 0.5671(4) 0.9191(4)
H25 H 0.4083 0.5501 0.9518
H26 H 0.4428 0.5439 0.9388
C42 C 0.3998(2) 0.5425(4) 0.8335(3)
H27 H 0.3990 0.4898 0.8301
H28 H 0.3763 0.5612 0.8134
C43 C 0.16534(10) 0.9099(2) 0.5860(3)
H29 H 0.1615 0.8930 0.5326
H30 H 0.1673 0.9625 0.5871
C44 C 0.13608(11) 0.8868(2) 0.6080(3)
H31 H 0.1411 0.9010 0.6629
H32 H 0.1149 0.9111 0.5734
C45 C 0.10458(11) 0.7861(2) 0.6233(3)
H33 H 0.0826 0.8084 0.5897
H34 H 0.1100 0.7997 0.6785
C46 C 0.10175(11) 0.7053(2) 0.6149(3)
H35 H 0.0787 0.6900 0.6091
H36 H 0.1049 0.6906 0.5671
C47 C 0.12916(11) 0.5942(2) 0.6754(3)
H37 H 0.1066 0.5763 0.6389
H38 H 0.1344 0.5720 0.7273
C48 C 0.15601(11) 0.5707(3) 0.6455(3)
H39 H 0.1573 0.5181 0.6444
H40 H 0.1504 0.5891 0.5918
C51 C 0.18823(16) 0.7540(2) 0.4915(3)
C52 C 0.1544(2) 0.7477(4) 0.4362(5)
H47 H 0.1400 0.7140 0.4459
C53 C 0.1415(3) 0.7872(6) 0.3702(5)
H48 H 0.1186 0.7807 0.3343
C54 C 0.1623(5) 0.8386(7) 0.3547(6)
H49 H 0.1535 0.8676 0.3091
C55 C 0.1964(3) 0.8455(4) 0.4086(7)
H50 H 0.2107 0.8793 0.3987
C56 C 0.2094(2) 0.8043(3) 0.4751(5)
H51 H 0.2326 0.8093 0.5102
C57 C 0.2020(2) 0.7089(3) 0.5678(4)
H52 H 0.1886 0.7190 0.5988
H53 H 0.2259 0.7210 0.5986
H54 H 0.2001 0.6581 0.5543
H41? H 0.4028 0.9057 0.9080
H42? H 0.3801 0.8382 0.8737
C49? C 0.4005(5) 0.6882(10) 0.9551(11)
H43? H 0.3767 0.6768 0.9200
H44? H 0.4036 0.6734 1.0087
C50? C 0.4043(8) 0.7726(11) 0.956(2)
H45? H 0.3810 0.7900 0.9240
H46? H 0.4087 0.7863 1.0108
O17? O 0.4264(4) 0.8181(9) 0.9347(9)
loop_
_geom_bond_atom_site_label_1
_geom_bond_atom_site_label_2
_geom_bond_site_symmetry_1
_geom_bond_site_symmetry_2
O1 C1 1_555 1_555
O2 C2 1_555 1_555
O3 C8 1_555 1_555
O4 C12 1_555 1_555
O5 C17 1_555 1_555
O6 C21 1_555 1_555
O7 C26 1_555 1_555
O8 C29 1_555 1_555
O9 C3 1_555 1_555
O10 C38 1_555 1_555
O11 C40 1_555 1_555
O12 C30 1_555 1_555
O13 C11 1_555 1_555
O14 C44 1_555 1_555
O15 C46 1_555 1_555
O16 C20 1_555 1_555
N1 C1 1_555 1_555
N2 C1 1_555 1_555
N3 C2 1_555 1_555
N4 C10 1_555 1_555
N5 C10 1_555 1_555
N6 C11 1_555 1_555
N7 C19 1_555 1_555
N8 C20 1_555 1_555
N9 C19 1_555 1_555
N10 C28 1_555 1_555
N11 C28 1_555 1_555
N12 C29 1_555 1_555
C2 N2 1_555 1_555
C3 N1 1_555 1_555
C4 O2 1_555 1_555
C5 C4 1_555 1_555
H1 C5 1_555 1_555
C6 C5 1_555 1_555
H2 C6 1_555 1_555
C7 C6 1_555 1_555
H3 C7 1_555 1_555
C8 C7 1_555 1_555
C9 C4 1_555 1_555
H4 C9 1_555 1_555
C10 O3 1_555 1_555
C11 N5 1_555 1_555
C12 N4 1_555 1_555
C13 O4 1_555 1_555
C14 C13 1_555 1_555
H5 C14 1_555 1_555
C15 C14 1_555 1_555
H6 C15 1_555 1_555
C16 C15 1_555 1_555
H7 C16 1_555 1_555
C17 C16 1_555 1_555
C18 C13 1_555 1_555
H8 C18 1_555 1_555
C19 O5 1_555 1_555
C20 N7 1_555 1_555
C21 N8 1_555 1_555
C22 O6 1_555 1_555
C23 C22 1_555 1_555
H9 C23 1_555 1_555
C24 C23 1_555 1_555
H10 C24 1_555 1_555
C25 C24 1_555 1_555
H11 C25 1_555 1_555
C26 C25 1_555 1_555
C27 C22 1_555 1_555
H12 C27 1_555 1_555
C28 O7 1_555 1_555
C29 N11 1_555 1_555
C30 N10 1_555 1_555
C31 O8 1_555 1_555
C32 C31 1_555 1_555
H13 C32 1_555 1_555
C33 C32 1_555 1_555
H14 C33 1_555 1_555
C34 C33 1_555 1_555
H15 C34 1_555 1_555
C35 O1 1_555 1_555
C36 C31 1_555 1_555
H16 C36 1_555 1_555
C37 O9 1_555 1_555
H17 C37 1_555 1_555
H18 C37 1_555 1_555
C38 C37 1_555 1_555
H19 C38 1_555 1_555
H20 C38 1_555 1_555
C39 O10 1_555 1_555
H21 C39 1_555 1_555
H22 C39 1_555 1_555
C40 C39 1_555 1_555
H23 C40 1_555 1_555
H24 C40 1_555 1_555
C41 O11 1_555 1_555
H25 C41 1_555 1_555
H26 C41 1_555 1_555
C42 O12 1_555 1_555
H27 C42 1_555 1_555
H28 C42 1_555 1_555
C43 O13 1_555 1_555
H29 C43 1_555 1_555
H30 C43 1_555 1_555
C44 C43 1_555 1_555
H31 C44 1_555 1_555
H32 C44 1_555 1_555
C45 O14 1_555 1_555
H33 C45 1_555 1_555
H34 C45 1_555 1_555
C46 C45 1_555 1_555
H35 C46 1_555 1_555
H36 C46 1_555 1_555
C47 O15 1_555 1_555
H37 C47 1_555 1_555
H38 C47 1_555 1_555
C48 O16 1_555 1_555
H39 C48 1_555 1_555
H40 C48 1_555 1_555
C51 C52 1_555 1_555
C52 H47 1_555 1_555
C53 C52 1_555 1_555
H48 C53 1_555 1_555
C54 C53 1_555 1_555
H49 C54 1_555 1_555
C55 C54 1_555 1_555
H50 C55 1_555 1_555
C56 C51 1_555 1_555
H51 C56 1_555 1_555
C57 C51 1_555 1_555
H52 C57 1_555 1_555
H53 C57 1_555 1_555
H54 C57 1_555 1_555
N3 C3 1_555 1_555
N6 C12 1_555 1_555
N9 C21 1_555 1_555
N12 C30 1_555 1_555
C8 C9 1_555 1_555
C17 C18 1_555 1_555
C26 C27 1_555 1_555
C34 C35 1_555 1_555
C35 C36 1_555 1_555
C41 C42 1_555 1_555
C47 C48 1_555 1_555
C55 C56 1_555 1_555

#END
