
#######################################################################
#
#                 Cambridge Crystallographic Data Centre
#                                CCDC 
#
#######################################################################
#
# If this CIF has been generated from an entry in the Cambridge 
# Structural Database, then it will include bibliographic, chemical, 
# crystal, experimental, refinement or atomic coordinate data resulting 
# from the CCDC's data processing and validation procedures.
#
#######################################################################

data_TIRVOH02
_chemical_name_common            '2-(pyridin-2-ylamino)pyridinium picrate'
_chemical_formula_moiety         'C10 H10 N3 1+,C6 H2 N3 O7 1-'
_chemical_name_systematic        
'2-(pyridin-2-ylamino)pyridinium 2,4,6-trinitrophenolate'
_symmetry_cell_setting           monoclinic
_symmetry_space_group_name_H-M   'P 21/c'
_symmetry_Int_Tables_number      14
_space_group_name_Hall           '-P 2ybc'
loop_
_symmetry_equiv_pos_site_id
_symmetry_equiv_pos_as_xyz
1 x,y,z
2 -x,1/2+y,1/2-z
3 -x,-y,-z
4 x,1/2-y,1/2+z
_cell_length_a                   9.1807(8)
_cell_length_b                   14.5892(12)
_cell_length_c                   13.1649(10)
_cell_angle_alpha                90
_cell_angle_beta                 108.925(2)
_cell_angle_gamma                90
_cell_volume                     1667.98
_exptl_crystal_colour            yellow
_exptl_crystal_description       block
_cell_formula_units_Z            4
loop_
_atom_site_label
_atom_site_type_symbol
_atom_site_fract_x
_atom_site_fract_y
_atom_site_fract_z
O1 O 0.10222(15) 0.54091(9) -0.17771(10)
O2 O -0.06688(18) 0.69273(10) -0.18938(11)
O3 O -0.16715(15) 0.69936(9) -0.06137(11)
O4 O 0.15975(16) 0.63990(10) 0.29479(10)
O5 O 0.35245(15) 0.54601(10) 0.32327(10)
O6 O 0.46259(16) 0.40445(10) 0.03187(11)
O7 O 0.2807(2) 0.39426(15) -0.11952(13)
N1 N -0.06696(18) 0.67256(11) -0.09846(12)
N2 N 0.24186(18) 0.58829(11) 0.26247(12)
N3 N 0.3395(2) 0.42975(12) -0.03160(13)
C1 C 0.1351(2) 0.55224(12) -0.07926(14)
C2 C 0.0569(2) 0.61648(12) -0.02980(14)
C3 C 0.0877(2) 0.62673(12) 0.07851(14)
H1 H 0.0282 0.6674 0.1055
C4 C 0.2068(2) 0.57704(12) 0.14803(14)
C5 C 0.2908(2) 0.51464(13) 0.10980(14)
H2 H 0.3731 0.4814 0.1584
C6 C 0.2538(2) 0.50156(12) 0.00165(14)
N4 N -0.01574(18) 0.88497(10) -0.04563(12)
H3 H 0.079(3) 0.8656(16) -0.0451(18)
N5 N 0.08719(18) 0.86091(11) 0.14029(12)
H4 H 0.075(2) 0.8730(15) 0.2019(18)
N6 N 0.26368(18) 0.82539(11) 0.05248(12)
C7 C -0.1325(2) 0.90766(13) -0.13575(14)
H5 H -0.1166 0.9064 -0.2035
C8 C -0.2720(2) 0.93213(13) -0.12947(15)
H6 H -0.3541 0.9481 -0.1923
C9 C -0.2925(2) 0.93344(13) -0.02863(15)
H7 H -0.3894 0.9507 -0.0230
C10 C -0.1746(2) 0.91021(13) 0.06177(15)
H8 H -0.1889 0.9113 0.1300
C11 C -0.0325(2) 0.88481(12) 0.05260(14)
C12 C 0.2352(2) 0.83475(12) 0.14498(15)
C13 C 0.3446(2) 0.81826(13) 0.24528(15)
H9 H 0.3202 0.8258 0.3096
C14 C 0.4886(2) 0.79074(14) 0.24768(17)
H10 H 0.5662 0.7791 0.3144
C15 C 0.5205(2) 0.77997(14) 0.15200(18)
H11 H 0.6193 0.7604 0.1522
C16 C 0.4057(2) 0.79824(14) 0.05736(17)
H12 H 0.4277 0.7914 -0.0079
loop_
_geom_bond_atom_site_label_1
_geom_bond_atom_site_label_2
_geom_bond_site_symmetry_1
_geom_bond_site_symmetry_2
O1 C1 1_555 1_555
O2 N1 1_555 1_555
O3 N1 1_555 1_555
O4 N2 1_555 1_555
O5 N2 1_555 1_555
O6 N3 1_555 1_555
O7 N3 1_555 1_555
N1 C2 1_555 1_555
N2 C4 1_555 1_555
N3 C6 1_555 1_555
C1 C2 1_555 1_555
C2 C3 1_555 1_555
C3 H1 1_555 1_555
C4 C3 1_555 1_555
C5 C4 1_555 1_555
H2 C5 1_555 1_555
C6 C1 1_555 1_555
N4 H3 1_555 1_555
N5 H4 1_555 1_555
N6 C12 1_555 1_555
C7 N4 1_555 1_555
H5 C7 1_555 1_555
C8 C7 1_555 1_555
H6 C8 1_555 1_555
C9 C8 1_555 1_555
H7 C9 1_555 1_555
C10 C9 1_555 1_555
H8 C10 1_555 1_555
C11 N4 1_555 1_555
C12 N5 1_555 1_555
C13 C12 1_555 1_555
H9 C13 1_555 1_555
C14 C13 1_555 1_555
H10 C14 1_555 1_555
C15 C14 1_555 1_555
H11 C15 1_555 1_555
C16 N6 1_555 1_555
H12 C16 1_555 1_555
C5 C6 1_555 1_555
N5 C11 1_555 1_555
C10 C11 1_555 1_555
C15 C16 1_555 1_555

#END
