
#######################################################################
#
#                 Cambridge Crystallographic Data Centre
#                                CCDC 
#
#######################################################################
#
# If this CIF has been generated from an entry in the Cambridge 
# Structural Database, then it will include bibliographic, chemical, 
# crystal, experimental, refinement or atomic coordinate data resulting 
# from the CCDC's data processing and validation procedures.
#
#######################################################################

data_TIRZIG
_chemical_formula_moiety         'C84 H80 N2 O4 S4'
_chemical_name_systematic        
5,5'-[6,6,12,12-tetrakis(4-hexylphenyl)-6,12-dihydrothieno[3,2-b]thieno[2'',3'':4',5']thieno[2',3':5,6]-s-indaceno[2,1-d]thiene-2,8-diyl]bis(1H-isoindole-1,3(2H)-dione)
_symmetry_cell_setting           monoclinic
_symmetry_space_group_name_H-M   'P 21/c'
_symmetry_Int_Tables_number      14
_space_group_name_Hall           '-P 2ybc'
loop_
_symmetry_equiv_pos_site_id
_symmetry_equiv_pos_as_xyz
1 x,y,z
2 -x,1/2+y,1/2-z
3 -x,-y,-z
4 x,1/2-y,1/2+z
_cell_length_a                   13.5245(6)
_cell_length_b                   24.687(3)
_cell_length_c                   20.6534(9)
_cell_angle_alpha                90
_cell_angle_beta                 102.064(4)
_cell_angle_gamma                90
_cell_volume                     6743.45
_exptl_crystal_colour            yellow
_exptl_crystal_description       plate
_cell_formula_units_Z            4
loop_
_atom_site_label
_atom_site_type_symbol
_atom_site_fract_x
_atom_site_fract_y
_atom_site_fract_z
S1 S 0.26906(16) 0.32538(12) 0.33158(11)
S2 S 0.92046(16) 0.33703(12) 0.66302(11)
S3 S 1.19590(16) 0.31824(12) 0.60450(11)
S4 S 0.54549(16) 0.34249(12) 0.27357(11)
O1 O 1.6153(5) 0.2730(3) 0.6669(3)
O2 O 1.6729(5) 0.2966(3) 0.8918(3)
O3 O -0.2110(5) 0.2990(3) 0.0479(3)
O4 O -0.1466(5) 0.2740(4) 0.2721(3)
N1 N -0.2043(6) 0.2848(4) 0.1592(4)
H1 H -0.267233 0.277853 0.157088
N2 N 1.6689(6) 0.2828(4) 0.7798(4)
H2 H 1.732248 0.276861 0.782285
C1 C 0.9973(6) 0.3777(4) 0.4444(4)
C2 C 0.6624(7) 0.3416(4) 0.4096(4)
C3 C 1.5011(7) 0.2956(5) 0.7401(4)
C4 C 0.5161(6) 0.3353(4) 0.4607(5)
C5 C 0.4857(7) 0.3366(4) 0.3861(5)
C6 C 0.4717(6) 0.3824(4) 0.4958(5)
C7 C -0.0531(6) 0.3064(4) 0.1308(5)
C8 C 0.4161(7) 0.3359(4) 0.2715(5)
C9 C 1.3243(7) 0.3129(4) 0.7297(4)
C10 C 0.5708(7) 0.3413(4) 0.3604(4)
C11 C 0.9080(6) 0.2340(5) 0.4324(5)
H3 H 0.842701 0.239469 0.438763
C12 C 0.1400(7) 0.3177(4) 0.2060(5)
C13 C 0.8335(7) 0.3373(4) 0.4650(5)
C14 C 0.4777(7) 0.3797(5) 0.5633(5)
H4 H 0.509650 0.350355 0.587203
C15 C -0.1640(7) 0.2972(5) 0.1046(5)
C16 C 0.8948(7) 0.3351(4) 0.5776(5)
C17 C 1.5165(7) 0.3023(4) 0.8077(5)
C18 C 1.2217(7) 0.3179(4) 0.6924(4)
C19 C 0.2449(6) 0.3251(4) 0.2465(5)
C20 C 0.4151(8) 0.1812(5) 0.5286(4)
C21 C 0.9502(6) 0.3298(4) 0.4746(4)
C22 C 0.4822(7) 0.2812(5) 0.4866(4)
C23 C 0.9782(6) 0.2753(4) 0.4484(4)
C24 C 1.3425(7) 0.3169(4) 0.8005(5)
H5 H 1.288350 0.323372 0.820757
C25 C 0.8041(7) 0.3386(4) 0.5263(5)
C26 C 0.7022(7) 0.3411(5) 0.5294(5)
H6 H 0.682913 0.343208 0.569994
C27 C 1.1350(7) 0.3240(5) 0.7149(5)
H7 H 1.133041 0.325081 0.759639
C28 C -0.1326(7) 0.2849(5) 0.2170(4)
C29 C 0.0610(7) 0.3061(5) 0.2374(4)
H8 H 0.072310 0.301977 0.283108
C30 C 0.9970(7) 0.3781(5) 0.3759(5)
H9 H 0.969213 0.349100 0.349592
C31 C 0.7649(7) 0.3399(4) 0.4057(5)
H10 H 0.785168 0.340467 0.365328
C32 C 0.3874(7) 0.4649(5) 0.5619(5)
C33 C 1.6274(7) 0.2942(5) 0.8358(5)
C34 C 1.4379(7) 0.3114(5) 0.8392(5)
H11 H 1.448905 0.313709 0.885129
C35 C 0.3316(7) 0.3313(5) 0.2208(5)
H12 H 0.332517 0.332189 0.175904
C36 C 0.5154(7) 0.1888(5) 0.5232(5)
H13 H 0.561156 0.160386 0.533153
C37 C 1.4066(7) 0.3009(5) 0.6994(5)
H14 H 1.397266 0.296787 0.653809
C38 C -0.0345(7) 0.3008(4) 0.1986(5)
C39 C 0.9788(7) 0.3300(4) 0.5502(5)
C40 C 0.3967(7) 0.3338(4) 0.3352(5)
C41 C 0.6309(6) 0.3403(4) 0.4714(5)
C42 C 1.0384(7) 0.4214(5) 0.4807(5)
H15 H 1.039433 0.422411 0.525845
C43 C 0.0238(7) 0.3167(5) 0.0981(5)
H16 H 0.012233 0.319426 0.052267
C44 C 0.4365(7) 0.4205(5) 0.5960(5)
H17 H 0.441754 0.418022 0.641518
C45 C 0.4259(7) 0.4276(4) 0.4612(5)
H18 H 0.422699 0.430904 0.415990
C46 C 1.5977(7) 0.2823(5) 0.7205(5)
C47 C 0.3804(7) 0.2742(5) 0.4910(4)
H19 H 0.334696 0.302578 0.480588
C48 C 1.0670(6) 0.3257(4) 0.6008(4)
C49 C 1.0371(8) 0.4207(5) 0.3481(5)
H20 H 1.035918 0.420045 0.302877
C50 C 1.0788(8) 0.4648(5) 0.4511(5)
H21 H 1.105747 0.494172 0.477050
C51 C 1.0473(7) 0.3284(5) 0.6634(5)
C52 C 0.3489(7) 0.2249(5) 0.5108(5)
H22 H 0.281188 0.220491 0.512309
C53 C 0.1201(7) 0.3228(5) 0.1377(5)
H23 H 0.173511 0.330691 0.117317
C54 C 1.0744(7) 0.2663(5) 0.4369(5)
H24 H 1.123276 0.293282 0.446998
C55 C 1.0799(7) 0.4651(5) 0.3855(5)
C56 C 1.0985(7) 0.2173(5) 0.4103(5)
H25 H 1.163603 0.212372 0.403293
C57 C 1.0287(8) 0.1757(5) 0.3940(5)
C58 C 0.3848(7) 0.4679(5) 0.4956(5)
H26 H 0.354437 0.497801 0.472259
C59 C 0.5474(7) 0.2381(5) 0.5030(4)
H27 H 0.614838 0.242318 0.500566
C60 C 0.3774(8) 0.1258(5) 0.5436(5)
H28 H 0.428437 0.108442 0.577196
H29 H 0.316975 0.130001 0.561405
C61 C 0.3370(7) 0.5061(5) 0.5986(5)
H30 H 0.309307 0.534983 0.568333
H31 H 0.387446 0.521830 0.633880
C62 C 0.3539(8) 0.0898(5) 0.4838(5)
H32 H 0.415067 0.085586 0.466780
H33 H 0.304750 0.108211 0.449982
C63 C 1.4059(8) 0.5652(6) 0.2355(6)
H34 H 1.418956 0.596893 0.263760
H35 H 1.357455 0.575324 0.195779
C64 C 1.2685(8) 0.5389(5) 0.2964(5)
H36 H 1.288580 0.566717 0.329739
H37 H 1.220452 0.555027 0.259986
C65 C 1.1258(9) 0.5109(5) 0.3544(6)
H38 H 1.146961 0.538812 0.387382
H39 H 1.074647 0.526357 0.319292
C66 C 1.2170(8) 0.4940(5) 0.3256(5)
H40 H 1.266359 0.476841 0.360355
H41 H 1.194749 0.467043 0.291447
C67 C 1.3604(8) 0.5210(6) 0.2714(6)
H42 H 1.341877 0.490602 0.241592
H43 H 1.411367 0.508480 0.308674
C68 C 0.3137(9) 0.0344(5) 0.4937(5)
H44 H 0.302945 0.015114 0.451840
H45 H 0.248390 0.038346 0.505586
C69 C 1.5044(8) 0.5474(6) 0.2165(6)
H46 H 1.527339 0.575360 0.190893
H47 H 1.492860 0.514726 0.190785
H48 H 1.554886 0.540870 0.255906
C70 C 0.9317(8) 0.1853(5) 0.4074(5)
H49 H 0.883166 0.158062 0.399038
C71 C 0.2520(8) 0.4816(5) 0.6282(5)
H50 H 0.200390 0.467470 0.592333
H51 H 0.279360 0.451275 0.656114
C72 C 0.3640(9) -0.0606(5) 0.5401(5)
H52 H 0.412599 -0.078163 0.574994
H53 H 0.376941 -0.072842 0.498073
C73 C 0.2025(8) 0.5203(6) 0.6685(5)
H54 H 0.185626 0.553471 0.643501
H55 H 0.139912 0.504332 0.675220
C74 C 0.3803(8) 0.0005(6) 0.5455(6)
H56 H 0.370403 0.012051 0.588586
H57 H 0.450139 0.007926 0.543857
C75 C 0.2671(9) 0.5342(6) 0.7349(6)
H58 H 0.331091 0.548225 0.727985
H59 H 0.281400 0.501012 0.760327
C76 C 1.0489(10) 0.1231(6) 0.3630(7)
H60 H 1.008599 0.122761 0.318303
H61 H 1.119266 0.123374 0.359327
C77 C 0.2230(10) 0.5749(6) 0.7760(6)
H62 H 0.214708 0.609455 0.753258
H63 H 0.156808 0.562604 0.780879
C78 C 0.2572(9) -0.0784(6) 0.5453(7)
H64 H 0.208643 -0.062400 0.509889
H65 H 0.243834 -0.066717 0.587003
H66 H 0.252344 -0.117123 0.542324
C79 C 1.0313(10) 0.0728(6) 0.3933(7)
H67 H 0.963579 0.073590 0.402136
H68 H 1.078315 0.070122 0.435659
C80 C 0.8475(11) -0.0385(6) 0.3602(7)
H69 H 0.860059 -0.062802 0.326567
H70 H 0.832662 -0.003047 0.341582
H71 H 0.790908 -0.051373 0.377218
C81 C 0.2903(12) 0.5820(6) 0.8436(6)
H72 H 0.352420 0.598930 0.839149
H73 H 0.304558 0.547220 0.864248
H74 H 0.256700 0.604344 0.870346
C82 C 0.9396(10) -0.0358(7) 0.4156(6)
H75 H 0.932266 -0.005666 0.444383
H76 H 0.943827 -0.068741 0.441511
C83 C 1.0416(11) 0.0221(7) 0.3534(9)
H77 H 0.988456 0.021842 0.313749
H78 H 1.105949 0.023050 0.339732
C84 C 1.0354(11) -0.0289(7) 0.3914(8)
H79 H 1.043081 -0.059504 0.363464
H80 H 1.091662 -0.029607 0.429247
loop_
_geom_bond_atom_site_label_1
_geom_bond_atom_site_label_2
_geom_bond_site_symmetry_1
_geom_bond_site_symmetry_2
S1 C19 1_555 1_555
S2 C16 1_555 1_555
S3 C18 1_555 1_555
S4 C8 1_555 1_555
O1 C46 1_555 1_555
O2 C33 1_555 1_555
O3 C15 1_555 1_555
O4 C28 1_555 1_555
N1 H1 1_555 1_555
N2 H2 1_555 1_555
C1 C21 1_555 1_555
C2 C10 1_555 1_555
C3 C17 1_555 1_555
C4 C5 1_555 1_555
C5 C10 1_555 1_555
C6 C4 1_555 1_555
C7 C15 1_555 1_555
C8 C35 1_555 1_555
C9 C18 1_555 1_555
C10 S4 1_555 1_555
C11 H3 1_555 1_555
C12 C19 1_555 1_555
C13 C21 1_555 1_555
C14 C6 1_555 1_555
H4 C14 1_555 1_555
C15 N1 1_555 1_555
C16 C25 1_555 1_555
C17 C33 1_555 1_555
C18 C27 1_555 1_555
C19 C35 1_555 1_555
C20 C36 1_555 1_555
C21 C23 1_555 1_555
C22 C4 1_555 1_555
C23 C11 1_555 1_555
C24 C9 1_555 1_555
H5 C24 1_555 1_555
C25 C13 1_555 1_555
C26 C25 1_555 1_555
H6 C26 1_555 1_555
C27 H7 1_555 1_555
C28 N1 1_555 1_555
C29 C12 1_555 1_555
H8 C29 1_555 1_555
C30 C1 1_555 1_555
H9 C30 1_555 1_555
C31 C2 1_555 1_555
H10 C31 1_555 1_555
C32 C44 1_555 1_555
C33 N2 1_555 1_555
C34 C17 1_555 1_555
H11 C34 1_555 1_555
C35 H12 1_555 1_555
C36 H13 1_555 1_555
C37 C3 1_555 1_555
H14 C37 1_555 1_555
C38 C7 1_555 1_555
C39 C16 1_555 1_555
C40 S1 1_555 1_555
C41 C2 1_555 1_555
C42 C1 1_555 1_555
H15 C42 1_555 1_555
C43 C7 1_555 1_555
H16 C43 1_555 1_555
C44 C14 1_555 1_555
H17 C44 1_555 1_555
C45 C6 1_555 1_555
H18 C45 1_555 1_555
C46 N2 1_555 1_555
C47 C22 1_555 1_555
H19 C47 1_555 1_555
C48 S3 1_555 1_555
C49 C30 1_555 1_555
H20 C49 1_555 1_555
C50 C42 1_555 1_555
H21 C50 1_555 1_555
C51 S2 1_555 1_555
C52 C20 1_555 1_555
H22 C52 1_555 1_555
C53 C12 1_555 1_555
H23 C53 1_555 1_555
C54 C23 1_555 1_555
H24 C54 1_555 1_555
C55 C49 1_555 1_555
C56 C54 1_555 1_555
H25 C56 1_555 1_555
C57 C56 1_555 1_555
C58 C32 1_555 1_555
H26 C58 1_555 1_555
C59 C22 1_555 1_555
H27 C59 1_555 1_555
C60 C20 1_555 1_555
H28 C60 1_555 1_555
H29 C60 1_555 1_555
C61 C32 1_555 1_555
H30 C61 1_555 1_555
H31 C61 1_555 1_555
C62 C60 1_555 1_555
H32 C62 1_555 1_555
H33 C62 1_555 1_555
C63 H34 1_555 1_555
H35 C63 1_555 1_555
C64 H36 1_555 1_555
H37 C64 1_555 1_555
C65 C55 1_555 1_555
H38 C65 1_555 1_555
H39 C65 1_555 1_555
C66 C64 1_555 1_555
H40 C66 1_555 1_555
H41 C66 1_555 1_555
C67 C63 1_555 1_555
H42 C67 1_555 1_555
H43 C67 1_555 1_555
C68 C62 1_555 1_555
H44 C68 1_555 1_555
H45 C68 1_555 1_555
C69 C63 1_555 1_555
H46 C69 1_555 1_555
H47 C69 1_555 1_555
H48 C69 1_555 1_555
C70 C11 1_555 1_555
H49 C70 1_555 1_555
C71 C61 1_555 1_555
H50 C71 1_555 1_555
H51 C71 1_555 1_555
C72 H52 1_555 1_555
H53 C72 1_555 1_555
C73 C71 1_555 1_555
H54 C73 1_555 1_555
H55 C73 1_555 1_555
C74 C68 1_555 1_555
H56 C74 1_555 1_555
H57 C74 1_555 1_555
C75 C73 1_555 1_555
H58 C75 1_555 1_555
H59 C75 1_555 1_555
C76 C57 1_555 1_555
H60 C76 1_555 1_555
H61 C76 1_555 1_555
C77 C75 1_555 1_555
H62 C77 1_555 1_555
H63 C77 1_555 1_555
C78 C72 1_555 1_555
H64 C78 1_555 1_555
H65 C78 1_555 1_555
H66 C78 1_555 1_555
C79 C76 1_555 1_555
H67 C79 1_555 1_555
H68 C79 1_555 1_555
C80 H69 1_555 1_555
H70 C80 1_555 1_555
H71 C80 1_555 1_555
C81 C77 1_555 1_555
H72 C81 1_555 1_555
H73 C81 1_555 1_555
H74 C81 1_555 1_555
C82 C80 1_555 1_555
H75 C82 1_555 1_555
H76 C82 1_555 1_555
C83 C79 1_555 1_555
H77 C83 1_555 1_555
H78 C83 1_555 1_555
C84 C82 1_555 1_555
H79 C84 1_555 1_555
H80 C84 1_555 1_555
C3 C46 1_555 1_555
C4 C41 1_555 1_555
C5 C40 1_555 1_555
C8 C40 1_555 1_555
C9 C37 1_555 1_555
C13 C31 1_555 1_555
C21 C39 1_555 1_555
C24 C34 1_555 1_555
C26 C41 1_555 1_555
C27 C51 1_555 1_555
C28 C38 1_555 1_555
C29 C38 1_555 1_555
C36 C59 1_555 1_555
C39 C48 1_555 1_555
C43 C53 1_555 1_555
C45 C58 1_555 1_555
C47 C52 1_555 1_555
C48 C51 1_555 1_555
C50 C55 1_555 1_555
C57 C70 1_555 1_555
C64 C67 1_555 1_555
C65 C66 1_555 1_555
C72 C74 1_555 1_555
C83 C84 1_555 1_555

#END
