
#######################################################################
#
#                 Cambridge Crystallographic Data Centre
#                                CCDC 
#
#######################################################################
#
# If this CIF has been generated from an entry in the Cambridge 
# Structural Database, then it will include bibliographic, chemical, 
# crystal, experimental, refinement or atomic coordinate data resulting 
# from the CCDC's data processing and validation procedures.
#
#######################################################################

data_TISFEI
_chemical_formula_moiety         'C17 H13 N3 O1,H2 O1'
_chemical_name_systematic        
'8-Methyl-2-phenyl-2,5-dihydro-3H-pyrazolo[4,3-c]quinolin-3-one monohydrate'
_symmetry_cell_setting           orthorhombic
_symmetry_space_group_name_H-M   'P b c a'
_symmetry_Int_Tables_number      61
_space_group_name_Hall           '-P 2ac 2ab'
loop_
_symmetry_equiv_pos_site_id
_symmetry_equiv_pos_as_xyz
1 x,y,z
2 1/2-x,-y,1/2+z
3 -x,1/2+y,1/2-z
4 1/2+x,1/2-y,-z
5 -x,-y,-z
6 1/2+x,y,1/2-z
7 x,1/2-y,1/2+z
8 1/2-x,1/2+y,z
_cell_length_a                   12.0115(8)
_cell_length_b                   6.9719(4)
_cell_length_c                   32.585(2)
_cell_angle_alpha                90
_cell_angle_beta                 90
_cell_angle_gamma                90
_cell_volume                     2728.76
_exptl_crystal_colour            yellow
_exptl_crystal_description       lath
_cell_formula_units_Z            8
loop_
_atom_site_label
_atom_site_type_symbol
_atom_site_fract_x
_atom_site_fract_y
_atom_site_fract_z
O1 O 1.12101(19) 0.3215(4) 0.09678(8)
N1 N 0.7959(3) 0.3603(4) 0.02866(10)
H1 H 0.783(3) 0.379(5) 0.0023(12)
N2 N 0.9819(2) 0.3104(4) 0.14745(9)
C1 C 1.0197(3) 0.3250(5) 0.10770(12)
N3 N 0.8641(2) 0.3122(4) 0.15090(10)
C2 C 1.2133(3) 0.3304(6) 0.22253(13)
H2 H 1.2869 0.3716 0.2239
C3 C 0.5963(3) 0.3591(5) 0.03774(12)
H3 H 0.5868 0.3681 0.0095
C4 C 0.7032(3) 0.3527(5) 0.05461(12)
C5 C 0.9002(3) 0.3539(5) 0.04277(12)
H4 H 0.9598 0.3604 0.0246
C6 C 0.9194(3) 0.3379(5) 0.08377(12)
C7 C 0.8301(3) 0.3285(5) 0.11268(12)
C8 C 0.7172(3) 0.3364(5) 0.09725(12)
C9 C 0.4144(3) 0.3315(5) 0.13299(13)
H5 H 0.4357 0.3053 0.1608
H6 H 0.3650 0.2328 0.1235
H7 H 0.3773 0.4533 0.1317
C10 C 0.6222(3) 0.3303(5) 0.12243(12)
H8 H 0.6311 0.3220 0.1507
C11 C 0.5051(3) 0.3519(5) 0.06334(12)
H9 H 0.4341 0.3575 0.0520
C12 C 1.0556(3) 0.1865(6) 0.25412(13)
H10 H 1.0221 0.1321 0.2771
C13 C 0.5166(3) 0.3364(5) 0.10625(12)
C14 C 1.0448(3) 0.2875(5) 0.18415(12)
C15 C 1.1546(3) 0.3509(6) 0.18648(12)
H11 H 1.1883 0.4070 0.1637
C16 C 0.9950(3) 0.2025(5) 0.21796(12)
H12 H 0.9224 0.1570 0.2165
C17 C 1.1639(3) 0.2492(6) 0.25672(13)
H13 H 1.2034 0.2372 0.2811
O2 O 1.2541(2) 0.0730(4) 0.05172(9)
H14 H 1.298(3) -0.007(6) 0.0681(13)
H15 H 1.209(3) 0.146(7) 0.0659(14)
loop_
_geom_bond_atom_site_label_1
_geom_bond_atom_site_label_2
_geom_bond_site_symmetry_1
_geom_bond_site_symmetry_2
O1 C1 1_555 1_555
N1 H1 1_555 1_555
N2 C1 1_555 1_555
C1 C6 1_555 1_555
N3 N2 1_555 1_555
C2 H2 1_555 1_555
C3 H3 1_555 1_555
C4 N1 1_555 1_555
C5 N1 1_555 1_555
H4 C5 1_555 1_555
C6 C5 1_555 1_555
C7 N3 1_555 1_555
C8 C4 1_555 1_555
C9 H5 1_555 1_555
H6 C9 1_555 1_555
H7 C9 1_555 1_555
C10 C8 1_555 1_555
H8 C10 1_555 1_555
C11 C3 1_555 1_555
H9 C11 1_555 1_555
C12 H10 1_555 1_555
C13 C9 1_555 1_555
C14 N2 1_555 1_555
C15 C2 1_555 1_555
H11 C15 1_555 1_555
C16 C12 1_555 1_555
H12 C16 1_555 1_555
C17 C2 1_555 1_555
H13 C17 1_555 1_555
O2 H14 1_555 1_555
H15 O2 1_555 1_555
C3 C4 1_555 1_555
C6 C7 1_555 1_555
C7 C8 1_555 1_555
C10 C13 1_555 1_555
C11 C13 1_555 1_555
C12 C17 1_555 1_555
C14 C15 1_555 1_555
C14 C16 1_555 1_555

#END
