
#######################################################################
#
#                 Cambridge Crystallographic Data Centre
#                                CCDC 
#
#######################################################################
#
# If this CIF has been generated from an entry in the Cambridge 
# Structural Database, then it will include bibliographic, chemical, 
# crystal, experimental, refinement or atomic coordinate data resulting 
# from the CCDC's data processing and validation procedures.
#
#######################################################################

data_TISKIQ
_chemical_formula_moiety         'C15 H16 N2 O2,2(H2 O1)'
_chemical_name_systematic        
'Ethyl (E)-3-(4-((1H-imidazol-1-yl)methyl)phenyl)acrylate dihydrate'
_symmetry_cell_setting           orthorhombic
_symmetry_space_group_name_H-M   'P 21 21 21'
_symmetry_Int_Tables_number      19
_space_group_name_Hall           'P 2ac 2ab'
loop_
_symmetry_equiv_pos_site_id
_symmetry_equiv_pos_as_xyz
1 x,y,z
2 1/2-x,-y,1/2+z
3 -x,1/2+y,1/2-z
4 1/2+x,1/2-y,-z
_cell_length_a                   4.87400(10)
_cell_length_b                   10.5636(3)
_cell_length_c                   30.8767(10)
_cell_angle_alpha                90
_cell_angle_beta                 90
_cell_angle_gamma                90
_cell_volume                     1589.75
_exptl_crystal_colour            colorless
_exptl_crystal_description       plate
_cell_formula_units_Z            4
loop_
_atom_site_label
_atom_site_type_symbol
_atom_site_fract_x
_atom_site_fract_y
_atom_site_fract_z
O1 O 0.6807(4) 0.58535(16) 0.31962(5)
O3 O 0.7722(4) 0.38081(14) 0.32781(5)
N1 N -0.3132(5) 0.12191(19) 0.05523(7)
N2 N -0.3664(4) 0.30912(18) 0.08605(6)
C1 C -0.1210(6) 0.2044(3) 0.03981(9)
H1 H 0.0117 0.1840 0.0193
C2 C -0.1494(6) 0.3193(3) 0.05821(8)
H2 H -0.0432 0.3909 0.0530
C3 C -0.4541(6) 0.1889(3) 0.08277(8)
H3 H -0.6007 0.1568 0.0986
C4 C -0.4669(5) 0.4064(2) 0.11533(8)
H4 H -0.6400 0.3793 0.1277
H5 H -0.4998 0.4836 0.0991
C5 C -0.2654(5) 0.4334(2) 0.15142(7)
C6 C -0.1444(5) 0.3364(2) 0.17446(8)
H6 H -0.1888 0.2530 0.1677
C7 C 0.0403(5) 0.3599(2) 0.20721(7)
H7 H 0.1191 0.2926 0.2221
C8 C 0.1096(5) 0.4828(2) 0.21815(7)
C9 C -0.0149(6) 0.5798(2) 0.19524(9)
H8 H 0.0260 0.6633 0.2023
C10 C -0.1981(6) 0.5554(2) 0.16228(8)
H9 H -0.2770 0.6224 0.1472
C11 C 0.3077(5) 0.5129(2) 0.25230(7)
H10 H 0.3302 0.5983 0.2586
C12 C 0.4566(5) 0.4344(2) 0.27500(7)
H11 H 0.4437 0.3481 0.2693
C13 C 0.6444(5) 0.4780(3) 0.30927(7)
C14 C 0.9553(6) 0.4063(3) 0.36406(9)
H12 H 1.1332 0.3682 0.3588
H13 H 0.9803 0.4968 0.3674
C15 C 0.8346(7) 0.3532(3) 0.40321(10)
H14 H 0.9526 0.3701 0.4274
H15 H 0.8133 0.2634 0.3998
H16 H 0.6584 0.3911 0.4082
O2 O 0.6255(5) -0.34955(19) 0.03683(7)
H17 H 0.603(6) -0.2736(15) 0.0258(9)
H20 H 0.781(5) -0.378(3) 0.0252(11)
O4 O 0.6255(5) -0.09457(17) 0.00442(8)
H18 H 0.632(7) -0.0247(17) 0.0201(8)
H19 H 0.778(5) -0.095(3) -0.0116(11)
loop_
_geom_bond_atom_site_label_1
_geom_bond_atom_site_label_2
_geom_bond_site_symmetry_1
_geom_bond_site_symmetry_2
O1 C13 1_555 1_555
O2 H17 1_555 1_555
O3 C13 1_555 1_555
O4 H18 1_555 1_555
N1 C1 1_555 1_555
N2 C2 1_555 1_555
C1 H1 1_555 1_555
C2 C1 1_555 1_555
H2 C2 1_555 1_555
C3 N1 1_555 1_555
H3 C3 1_555 1_555
C4 N2 1_555 1_555
H4 C4 1_555 1_555
H5 C4 1_555 1_555
C5 C4 1_555 1_555
C6 C5 1_555 1_555
H6 C6 1_555 1_555
C7 C6 1_555 1_555
H7 C7 1_555 1_555
C8 C7 1_555 1_555
C9 C8 1_555 1_555
H8 C9 1_555 1_555
C10 C5 1_555 1_555
H9 C10 1_555 1_555
C11 C8 1_555 1_555
H10 C11 1_555 1_555
C12 C11 1_555 1_555
H11 C12 1_555 1_555
C13 C12 1_555 1_555
C14 O3 1_555 1_555
H12 C14 1_555 1_555
H13 C14 1_555 1_555
C15 C14 1_555 1_555
H14 C15 1_555 1_555
H15 C15 1_555 1_555
H16 C15 1_555 1_555
H19 O4 1_555 1_555
H20 O2 1_555 1_555
N2 C3 1_555 1_555
C9 C10 1_555 1_555

#END
