
#######################################################################
#
#                 Cambridge Crystallographic Data Centre
#                                CCDC 
#
#######################################################################
#
# If this CIF has been generated from an entry in the Cambridge 
# Structural Database, then it will include bibliographic, chemical, 
# crystal, experimental, refinement or atomic coordinate data resulting 
# from the CCDC's data processing and validation procedures.
#
#######################################################################

data_TISNOZ
_chemical_formula_moiety         'C25 H21 Br1 Cl1 N1 O3'
_chemical_name_systematic        
(S)-4-Benzyl-3-((S)-2-(3-bromophenyl)-3-(4-chlorophenyl)propanoyl)oxazolidin-2-one
_symmetry_cell_setting           orthorhombic
_symmetry_space_group_name_H-M   'P 21 21 21'
_symmetry_Int_Tables_number      19
_space_group_name_Hall           'P 2ac 2ab'
loop_
_symmetry_equiv_pos_site_id
_symmetry_equiv_pos_as_xyz
1 x,y,z
2 1/2-x,-y,1/2+z
3 1/2+x,1/2-y,-z
4 -x,1/2+y,1/2-z
_cell_length_a                   6.5668(4)
_cell_length_b                   15.8348(10)
_cell_length_c                   22.0105(12)
_cell_angle_alpha                90
_cell_angle_beta                 90
_cell_angle_gamma                90
_cell_volume                     2288.74
_cell_formula_units_Z            4
loop_
_atom_site_label
_atom_site_type_symbol
_atom_site_fract_x
_atom_site_fract_y
_atom_site_fract_z
C1 C 0.7642(7) -0.0938(2) -0.01464(17)
C2 C 1.0730(8) -0.1614(3) -0.0189(2)
H1 H 1.1368 -0.1586 -0.0586
H2 H 1.1285 -0.2092 0.0032
C3 C 1.1068(6) -0.0803(3) 0.0159(2)
H3 H 1.2198 -0.049 -0.0025
C4 C 1.1436(7) -0.0893(3) 0.0846(2)
H4 H 1.271 -0.119 0.091
H5 H 1.1574 -0.0334 0.1022
C5 C 0.8992(6) 0.0510(3) 0.00967(18)
C6 C 0.6945(6) 0.0921(2) -0.00024(17)
H6 H 0.588 0.0529 0.013
C7 C 0.6770(10) 0.1739(3) 0.03772(19)
H7 H 0.7894 0.2111 0.0276
H8 H 0.5514 0.2027 0.0273
C8 C 0.6669(6) 0.1094(2) -0.06752(18)
C9 C 0.4944(6) 0.0810(3) -0.0974(2)
H9 H 0.3956 0.051 -0.0761
C10 C 0.4685(8) 0.0969(3) -0.1583(2)
C11 C 0.6114(9) 0.1401(3) -0.1919(2)
H10 H 0.5939 0.1488 -0.2333
C12 C 0.7770(10) 0.1693(3) -0.1628(2)
H11 H 0.8731 0.2005 -0.1843
C13 C 0.8081(8) 0.1539(3) -0.1010(2)
H12 H 0.9255 0.1739 -0.0823
C14 C 0.6797(8) 0.1563(3) 0.1048(2)
C15 C 0.8496(10) 0.1726(3) 0.1389(2)
H13 H 0.9621 0.197 0.1202
C16 C 0.8595(9) 0.1537(3) 0.2006(3)
H14 H 0.9768 0.1648 0.2229
C17 C 0.6912(9) 0.1181(3) 0.2280(2)
C18 C 0.5155(8) 0.1032(3) 0.1953(2)
H15 H 0.4011 0.0803 0.214
C19 C 0.5132(8) 0.1230(3) 0.1344(2)
H16 H 0.3945 0.1135 0.1124
C20 C 0.9765(7) -0.1356(3) 0.1174(2)
C21 C 0.9787(9) -0.2209(4) 0.1281(2)
H17 H 1.092 -0.2521 0.1164
C22 C 0.8167(13) -0.2619(3) 0.1559(2)
H18 H 0.8213 -0.3199 0.1625
C23 C 0.6491(10) -0.2156(5) 0.1735(2)
H19 H 0.5384 -0.2421 0.1917
C24 C 0.6471(9) -0.1310(4) 0.1642(2)
H20 H 0.5342 -0.0999 0.1764
C25 C 0.8070(7) -0.0904(3) 0.13738(19)
H21 H 0.8028 -0.0321 0.1324
N1 N 0.9150(4) -0.0363(2) 0.00339(14)
O1 O 0.8555(5) -0.16849(18) -0.02448(14)
O2 O 0.5871(5) -0.08295(19) -0.02061(16)
O3 O 1.0517(5) 0.0897(2) 0.02264(16)
Br1 Br 0.23638(10) 0.05132(7) -0.19750(3)
Cl1 Cl 0.7031(3) 0.09124(10) 0.30439(6)
loop_
_geom_bond_atom_site_label_1
_geom_bond_atom_site_label_2
_geom_bond_site_symmetry_1
_geom_bond_site_symmetry_2
C1 N1 1_555 1_555
C2 H1 1_555 1_555
H2 C2 1_555 1_555
C3 C2 1_555 1_555
H3 C3 1_555 1_555
C4 C3 1_555 1_555
H4 C4 1_555 1_555
H5 C4 1_555 1_555
C5 C6 1_555 1_555
C6 H6 1_555 1_555
C7 C6 1_555 1_555
H7 C7 1_555 1_555
H8 C7 1_555 1_555
C8 C6 1_555 1_555
C9 C8 1_555 1_555
H9 C9 1_555 1_555
C10 C9 1_555 1_555
C11 C10 1_555 1_555
H10 C11 1_555 1_555
C12 C11 1_555 1_555
H11 C12 1_555 1_555
C13 C8 1_555 1_555
H12 C13 1_555 1_555
C14 C7 1_555 1_555
C15 C14 1_555 1_555
H13 C15 1_555 1_555
C16 C15 1_555 1_555
H14 C16 1_555 1_555
C17 C16 1_555 1_555
C18 C17 1_555 1_555
H15 C18 1_555 1_555
C19 C14 1_555 1_555
H16 C19 1_555 1_555
C20 C4 1_555 1_555
C21 C20 1_555 1_555
H17 C21 1_555 1_555
C22 C21 1_555 1_555
H18 C22 1_555 1_555
C23 C22 1_555 1_555
H19 C23 1_555 1_555
C24 C23 1_555 1_555
H20 C24 1_555 1_555
C25 C20 1_555 1_555
H21 C25 1_555 1_555
N1 C3 1_555 1_555
O1 C1 1_555 1_555
O2 C1 1_555 1_555
O3 C5 1_555 1_555
Br1 C10 1_555 1_555
Cl1 C17 1_555 1_555
C2 O1 1_555 1_555
C5 N1 1_555 1_555
C12 C13 1_555 1_555
C18 C19 1_555 1_555
C24 C25 1_555 1_555

#END
