
#######################################################################
#
#                 Cambridge Crystallographic Data Centre
#                                CCDC 
#
#######################################################################
#
# If this CIF has been generated from an entry in the Cambridge 
# Structural Database, then it will include bibliographic, chemical, 
# crystal, experimental, refinement or atomic coordinate data resulting 
# from the CCDC's data processing and validation procedures.
#
#######################################################################

data_TISPAM
_chemical_formula_moiety         'C43 H52 N7 O8 3+,3(Cl1 1-),4(C1 H4 O1),H2 O1'
_chemical_name_systematic        
"4,10-Dimethyl-14,33-dinitrospiro(2,12-dioxa-18,22,25,29-tetra-azahexacyclo(29.2.2.2^3,6^.2^8,11^.2^13,16^.2^22,25^)tritetraconta-3,5,8,10,13,15,31,33,34,38,40,42-dodecaene-7,4'-piperidine)-17,30-dione tris(hydrochloride) methanol solvate monohydrate"
_symmetry_cell_setting           triclinic
_symmetry_space_group_name_H-M   'P 1'
_symmetry_Int_Tables_number      1
_space_group_name_Hall           'P 1'
loop_
_symmetry_equiv_pos_site_id
_symmetry_equiv_pos_as_xyz
1 x,y,z
_cell_length_a                   7.511(4)
_cell_length_b                   10.434(2)
_cell_length_c                   17.801(7)
_cell_angle_alpha                75.47(3)
_cell_angle_beta                 83.10(3)
_cell_angle_gamma                81.33(3)
_cell_volume                     1330.06
_exptl_crystal_colour            colorless
_chemical_melting_point          'above 250deg.C'
_cell_formula_units_Z            1
_chemical_properties_physical    Hygroscopic
loop_
_atom_site_label
_atom_site_type_symbol
_atom_site_fract_x
_atom_site_fract_y
_atom_site_fract_z
Cl1 Cl 0.8667 0.3670 0.6821
Cl2 Cl -0.5126(4) -0.0012(3) 0.9618(2)
Cl3 Cl -0.5037(4) -0.0324(3) 1.6876(2)
C1 C 0.4906(11) 0.4877(7) 0.8314(5)
C2 C 0.4237(11) 0.6349(7) 0.8253(5)
C3 C 0.5577(1) 0.7003(7) 0.8561(4)
N1 N 0.5642(9) 0.6508(6) 0.9401(4)
C4 C 0.7047(9) 0.5741(7) 0.9725(4)
O1 O 0.8423(8) 0.5371(6) 0.9345(4)
C5 C 0.6922(10) 0.5294(7) 1.0592(5)
C6 C 0.8484(10) 0.4910(7) 1.0966(5)
C7 C 0.8436(11) 0.4500(7) 1.1760(5)
C8 C 0.6746(11) 0.4405(7) 1.2228(5)
C9 C 0.5189(10) 0.4771(9) 1.1860(5)
C10 C 0.5250(11) 0.5234(8) 1.1043(5)
N2 N 1.0127(10) 0.4209(7) 1.2125(5)
O2 O 1.1453(10) 0.3826(10) 1.1737(6)
O3 O 1.0167(9) 0.4374(7) 1.2779(4)
O4 O 0.6747(9) 0.3927(7) 1.3019(4)
C11 C 0.5227(11) 0.3365(8) 1.3414(5)
C12 C 0.4330(11) 0.3878(8) 1.4016(5)
C13 C 0.2921(11) 0.3252(8) 1.4432(5)
C14 C 0.2355(11) 0.2142(7) 1.4266(5)
C15 C 0.3340(12) 0.1638(8) 1.3668(5)
C16 C 0.4759(12) 0.2227(9) 1.3251(5)
C17 C 0.4895(14) 0.5100(9) 1.4201(7)
C18 C 0.0715(11) 0.1499(7) 1.4753(4)
C19 C 0.1151(12) 0.0924(7) 1.5605(4)
C20 C -0.0436(14) 0.0408(8) 1.6142(5)
N3 N -0.2058(10) 0.1431(7) 1.6109(4)
C21 C -0.2526(11) 0.2025(8) 1.5286(5)
C22 C -0.0938(11) 0.2578(7) 1.4778(4)
C23 C 0.0190(10) 0.0429(7) 1.4374(4)
C24 C 0.0550(10) -0.0941(7) 1.4697(4)
C25 C 0.0030(11) -0.1891(7) 1.4360(5)
C26 C -0.0845(11) -0.1428(7) 1.3702(4)
C27 C -0.1177(12) -0.0076(8) 1.3340(5)
C28 C -0.0647(12) 0.0839(7) 1.3689(5)
C29 C 0.0338(13) -0.3363(7) 1.4758(5)
O5 O -0.1519(8) -0.2373(6) 1.3392(3)
C30 C -0.1114(11) -0.2262(7) 1.2600(5)
C31 C -0.2491(10) -0.2013(7) 1.2101(4)
C32 C -0.2087(11) -0.1997(7) 1.1319(5)
C33 C -0.0333(10) -0.2223(7) 1.1020(5)
C34 C 0.1023(11) -0.2461(9) 1.1524(5)
C35 C 0.0639(11) -0.2474(9) 1.2297(5)
N4 N -0.4354(10) -0.1733(8) 1.2391(5)
O6 O -0.4717(13) -0.1074(12) 1.2867(7)
O7 O -0.5410(13) -0.2255(16) 1.2172(8)
C36 C 0.0240(10) -0.2245(7) 1.0179(5)
O8 O 0.1700(8) -0.2815(6) 0.9991(3)
N5 N -0.0961(8) -0.1610(6) 0.9660(4)
C37 C -0.0470(11) -0.1457(7) 0.8829(5)
C38 C 0.0928(10) -0.0476(7) 0.8519(4)
C39 C 0.0143(10) 0.0907(7) 0.8615(5)
N6 N 0.1589(9) 0.1732(6) 0.8657(4)
C40 C 0.0736(11) 0.3039(7) 0.8839(5)
C41 C 0.2174(11) 0.3831(8) 0.8933(5)
N7 N 0.3478(9) 0.4105(6) 0.8211(4)
C42 C 0.4235(10) 0.2816(7) 0.8022(5)
C43 C 0.2794(11) 0.2007(7) 0.7920(5)
H1 H 0.5373 0.4481 0.8810
H2 H 0.5869 0.4822 0.7913
H3 H 0.3094 0.6397 0.8556
H4 H 0.4054 0.6801 0.7722
H5 H 0.5224 0.7948 0.8444
H6 H 0.6760 0.6843 0.8305
H7 H 0.4677 0.6734 0.9714
H8 H 0.9643 0.4980 1.0676
H9 H 0.4057 0.4653 1.2167
H10 H 0.4145 0.5526 1.0796
H11 H 0.2297 0.3604 1.4854
H12 H 0.3041 0.0838 1.3564
H13 H 0.5469 0.1860 1.2853
H14 H 0.5901 0.5398 1.3846
H15 H 0.3901 0.5797 1.4149
H16 H 0.5238 0.4877 1.4725
H17 H 0.1518 0.1629 1.5788
H18 H 0.2149 0.0232 1.5627
H19 H -0.0115 0.0125 1.6670
H20 H -0.0750 -0.0348 1.5993
H21 H -0.3515 0.2726 1.5281
H22 H -0.2904 0.1352 1.5081
H23 H -0.1253 0.2938 1.4253
H24 H -0.0601 0.3284 1.4969
H25 H 0.1165 -0.1234 1.5165
H26 H -0.1752 0.0199 1.2861
H27 H -0.0038 0.1771 1.3439
H28 H -0.0068 -0.3899 1.4460
H29 H 0.1597 -0.3629 1.4829
H30 H -0.0344 -0.3482 1.5258
H31 H -0.3047 -0.1816 1.0982
H32 H 0.2245 -0.2641 1.1313
H33 H 0.1603 -0.2656 1.2632
H34 H -0.2055 -0.1270 0.9836
H35 H -0.1523 -0.1150 0.8546
H36 H 0.0034 -0.2306 0.8733
H37 H 0.1346 -0.0453 0.7985
H38 H 0.1949 -0.0763 0.8824
H39 H -0.0679 0.0848 0.9076
H40 H -0.0520 0.1340 0.8173
H41 H -0.0047 0.2856 0.9311
H42 H 0.0034 0.3562 0.8427
H43 H 0.2885 0.3291 0.9337
H44 H 0.1671 0.4637 0.9086
H45 H 0.4924 0.2311 0.8443
H46 H 0.5040 0.2982 0.7556
H47 H 0.2111 0.2502 0.7495
H48 H 0.3323 0.1175 0.7806
O9 O 0.1353(15) 0.0755(11) 1.0378(7)
C44 C 0.1153(34) 0.1165(25) 1.1087(19)
O10 O -0.3797(21) 0.2264(11) 0.9968(8)
C45 C -0.3548(34) 0.1880(20) 1.0749(16)
O11 O 0.4250(11) 0.7834(8) 0.5856(6)
C46 C 0.5377(19) 0.8244(14) 0.5120(8)
O12 O 1.0721(16) 0.5631(8) 0.7323(7)
C47 C 1.0227(17) 0.6936(12) 0.7002(7)
O13 O 0.4740(19) 0.5065(11) 0.6424(7)
loop_
_geom_bond_atom_site_label_1
_geom_bond_atom_site_label_2
_geom_bond_site_symmetry_1
_geom_bond_site_symmetry_2
C1 C2 1_555 1_555
C2 C3 1_555 1_555
C3 N1 1_555 1_555
N1 C4 1_555 1_555
C4 O1 1_555 1_555
C5 C4 1_555 1_555
C6 C5 1_555 1_555
C7 C6 1_555 1_555
C8 C7 1_555 1_555
C9 C8 1_555 1_555
C10 C5 1_555 1_555
N2 C7 1_555 1_555
O2 N2 1_555 1_555
O3 N2 1_555 1_555
O4 C8 1_555 1_555
C11 O4 1_555 1_555
C12 C11 1_555 1_555
C13 C12 1_555 1_555
C14 C13 1_555 1_555
C15 C14 1_555 1_555
C16 C11 1_555 1_555
C17 C12 1_555 1_555
C18 C14 1_555 1_555
C19 C18 1_555 1_555
C20 C19 1_555 1_555
N3 C20 1_555 1_555
C21 N3 1_555 1_555
C22 C18 1_555 1_555
C23 C18 1_555 1_555
C24 C23 1_555 1_555
C25 C24 1_555 1_555
C26 C25 1_555 1_555
C27 C26 1_555 1_555
C28 C23 1_555 1_555
C29 C25 1_555 1_555
O5 C26 1_555 1_555
C30 O5 1_555 1_555
C31 C30 1_555 1_555
C32 C31 1_555 1_555
C33 C32 1_555 1_555
C34 C33 1_555 1_555
C35 C30 1_555 1_555
N4 C31 1_555 1_555
O6 N4 1_555 1_555
O7 N4 1_555 1_555
C36 C33 1_555 1_555
O8 C36 1_555 1_555
N5 C36 1_555 1_555
C37 N5 1_555 1_555
C38 C37 1_555 1_555
C39 C38 1_555 1_555
N6 C39 1_555 1_555
C40 N6 1_555 1_555
C41 C40 1_555 1_555
N7 C1 1_555 1_555
C42 N7 1_555 1_555
C43 N6 1_555 1_555
O9 C44 1_555 1_555
O10 C45 1_555 1_555
O11 C46 1_555 1_555
O12 C47 1_555 1_555
H1 C1 1_555 1_555
H2 C1 1_555 1_555
H3 C2 1_555 1_555
H4 C2 1_555 1_555
H5 C3 1_555 1_555
H6 C3 1_555 1_555
H7 N1 1_555 1_555
H8 C6 1_555 1_555
H9 C9 1_555 1_555
H10 C10 1_555 1_555
H11 C13 1_555 1_555
H12 C15 1_555 1_555
H13 C16 1_555 1_555
H14 C17 1_555 1_555
H15 C17 1_555 1_555
H16 C17 1_555 1_555
H17 C19 1_555 1_555
H18 C19 1_555 1_555
H19 C20 1_555 1_555
H20 C20 1_555 1_555
H21 C21 1_555 1_555
H22 C21 1_555 1_555
H23 C22 1_555 1_555
H24 C22 1_555 1_555
H25 C24 1_555 1_555
H26 C27 1_555 1_555
H27 C28 1_555 1_555
H28 C29 1_555 1_555
H29 C29 1_555 1_555
H30 C29 1_555 1_555
H31 C32 1_555 1_555
H32 C34 1_555 1_555
H33 C35 1_555 1_555
H34 N5 1_555 1_555
H35 C37 1_555 1_555
H36 C37 1_555 1_555
H37 C38 1_555 1_555
H38 C38 1_555 1_555
H39 C39 1_555 1_555
H40 C39 1_555 1_555
H41 C40 1_555 1_555
H42 C40 1_555 1_555
H43 C41 1_555 1_555
H44 C41 1_555 1_555
H45 C42 1_555 1_555
H46 C42 1_555 1_555
H47 C43 1_555 1_555
H48 C43 1_555 1_555
C9 C10 1_555 1_555
C15 C16 1_555 1_555
C21 C22 1_555 1_555
C27 C28 1_555 1_555
C34 C35 1_555 1_555
C41 N7 1_555 1_555
C42 C43 1_555 1_555

#END
