
#######################################################################
#
#                 Cambridge Crystallographic Data Centre
#                                CCDC 
#
#######################################################################
#
# If this CIF has been generated from an entry in the Cambridge 
# Structural Database, then it will include bibliographic, chemical, 
# crystal, experimental, refinement or atomic coordinate data resulting 
# from the CCDC's data processing and validation procedures.
#
#######################################################################

data_TITLUE
_chemical_compound_source        'mangrove fungus (strain No. k38)'
_chemical_formula_moiety         'C18 H20 O6'
_chemical_name_systematic        '(-)-byssochlamic acid'
_symmetry_cell_setting           triclinic
_symmetry_space_group_name_H-M   'P 1'
_symmetry_Int_Tables_number      1
_space_group_name_Hall           'P 1'
loop_
_symmetry_equiv_pos_site_id
_symmetry_equiv_pos_as_xyz
1 x,y,z
_cell_length_a                   7.605(3)
_cell_length_b                   10.241(4)
_cell_length_c                   11.410(4)
_cell_angle_alpha                95.846(7)
_cell_angle_beta                 97.179(6)
_cell_angle_gamma                102.115(6)
_cell_volume                     854.493
_exptl_crystal_colour            colorless
_exptl_crystal_description       Block
_chemical_melting_point          164-165deg.C
_cell_formula_units_Z            2
_exptl_crystal_recrystallization_method ethanol
loop_
_atom_site_label
_atom_site_type_symbol
_atom_site_fract_x
_atom_site_fract_y
_atom_site_fract_z
O1 O 0.6776(6) 0.0691(4) -0.6930(4)
O2 O 0.9228(4) 0.5022(4) -0.6820(3)
O3 O 0.7743(4) 0.2866(3) -0.7167(2)
O4 O 0.6858(5) 0.5427(4) -0.2152(3)
O5 O 0.4898(3) 0.3452(3) -0.2871(2)
O6 O 0.3813(4) 0.1283(4) -0.3595(3)
C1 C 0.7642(6) 0.1011(4) -0.3791(4)
H1 H 0.6596 0.0418 -0.4312
C2 C 0.9216(6) 0.1265(4) -0.4526(4)
H2 H 1.0344 0.1637 -0.3989
H3 H 0.9314 0.0411 -0.4935
C3 C 0.8983(5) 0.2205(4) -0.5424(3)
C4 C 0.9781(4) 0.3504(4) -0.5400(3)
C5 C 1.1230(5) 0.4454(4) -0.4535(3)
H4 H 1.1855 0.5135 -0.4965
H5 H 1.2108 0.3959 -0.4236
C6 C 1.0629(4) 0.5170(4) -0.3470(3)
H6 H 0.9634 0.5581 -0.3763
C7 C 0.9933(5) 0.4168(4) -0.2613(3)
H7 H 1.0634 0.3479 -0.2620
H8 H 1.0166 0.4648 -0.1811
C8 C 0.7968(4) 0.3498(4) -0.2893(3)
C9 C 0.7056(4) 0.2245(4) -0.3351(3)
C10 C 0.8179(8) 0.0236(5) -0.2766(5)
H9 H 0.8613 -0.0528 -0.3092
H10 H 0.9179 0.0821 -0.2219
C11 C 0.6683(10) -0.0261(8) -0.2083(7)
H11 H 0.6268 0.0502 -0.1733
H12 H 0.5668 -0.0833 -0.2628
C12 C 0.7242(11) -0.1033(9) -0.1121(8)
H13 H 0.7838 -0.1699 -0.1437
H14 H 0.6186 -0.1469 -0.0811
H15 H 0.8063 -0.0428 -0.0493
C13 C 0.7707(6) 0.1773(5) -0.6538(4)
C14 C 0.8962(5) 0.3945(5) -0.6499(3)
C15 C 1.2212(6) 0.6285(5) -0.2822(5)
H16 H 1.3099 0.5878 -0.2399
H17 H 1.2796 0.6772 -0.3407
C16 C 1.1663(9) 0.7266(6) -0.1954(6)
H18 H 1.0841 0.7717 -0.2372
H19 H 1.2723 0.7918 -0.1559
H20 H 1.1071 0.6793 -0.1376
C17 C 0.6632(5) 0.4294(5) -0.2590(3)
C18 C 0.5089(5) 0.2204(5) -0.3322(4)
O7 O 0.7239(5) 0.7175(4) 0.4884(3)
O8 O 0.6065(4) 0.4962(3) 0.4806(2)
O9 O 0.4401(5) 0.2886(3) 0.4191(3)
O10 O 0.8087(7) 0.3406(6) -0.0065(4)
O11 O 0.9006(5) 0.5606(6) 0.0619(3)
O12 O 0.8914(6) 0.7730(6) 0.1275(5)
C19 C 0.4899(5) 0.7141(4) 0.2538(4)
H21 H 0.5996 0.7848 0.2834
C20 C 0.5006(4) 0.5994(4) 0.3201(3)
C21 C 0.4165(4) 0.4688(4) 0.2992(3)
C22 C 0.2779(5) 0.3851(4) 0.2029(3)
H22 H 0.2203 0.4444 0.1581
H23 H 0.1849 0.3300 0.2390
C23 C 0.3504(6) 0.2918(5) 0.1149(3)
H24 H 0.4533 0.2655 0.1594
C24 C 0.4207(7) 0.3631(6) 0.0138(4)
H25 H 0.4407 0.2958 -0.0462
H26 H 0.3261 0.4032 -0.0225
C25 C 0.5891(6) 0.4688(7) 0.0456(3)
C26 C 0.6161(6) 0.5996(6) 0.0862(4)
C27 C 0.4846(6) 0.6803(5) 0.1183(4)
H27 H 0.3628 0.6310 0.0834
H28 H 0.5094 0.7637 0.0838
C28 C 0.3247(6) 0.7726(5) 0.2781(5)
H29 H 0.3210 0.8464 0.2316
H30 H 0.2148 0.7035 0.2499
C29 C 0.3230(7) 0.8217(6) 0.4033(6)
H31 H 0.4326 0.8910 0.4319
H32 H 0.3257 0.7480 0.4501
C30 C 0.1588(11) 0.8791(9) 0.4240(8)
H33 H 0.1555 0.9529 0.3788
H34 H 0.1676 0.9104 0.5072
H35 H 0.0496 0.8102 0.3991
C31 C 0.6238(5) 0.6187(5) 0.4360(3)
C32 C 0.4827(5) 0.4026(4) 0.4013(3)
C33 C 0.1995(8) 0.1603(7) 0.0702(6)
H36 H 0.1497 0.1274 0.1386
H37 H 0.1019 0.1834 0.0191
C34 C 0.2601(16) 0.0485(10) 0.0034(11)
H38 H 0.3051 0.0783 -0.0665
H39 H 0.1590 -0.0275 -0.0195
H40 H 0.3549 0.0229 0.0534
C35 C 0.7700(8) 0.4427(9) 0.0302(4)
C36 C 0.8124(8) 0.6590(9) 0.0974(5)
loop_
_geom_bond_atom_site_label_1
_geom_bond_atom_site_label_2
_geom_bond_site_symmetry_1
_geom_bond_site_symmetry_2
O1 C13 1_555 1_555
O2 C14 1_555 1_555
O3 C13 1_555 1_555
O4 C17 1_555 1_555
O5 C17 1_555 1_555
O6 C18 1_555 1_555
O7 C31 1_555 1_555
O8 C31 1_555 1_555
O9 C32 1_555 1_555
O10 C35 1_555 1_555
O11 C35 1_555 1_555
O12 C36 1_555 1_555
C1 H1 1_555 1_555
C2 C1 1_555 1_555
H2 C2 1_555 1_555
H3 C2 1_555 1_555
C3 C2 1_555 1_555
C4 C3 1_555 1_555
C5 C4 1_555 1_555
H4 C5 1_555 1_555
H5 C5 1_555 1_555
C6 C5 1_555 1_555
H6 C6 1_555 1_555
C7 C6 1_555 1_555
H7 C7 1_555 1_555
H8 C7 1_555 1_555
C8 C7 1_555 1_555
C9 C1 1_555 1_555
C10 C1 1_555 1_555
H9 C10 1_555 1_555
H10 C10 1_555 1_555
C11 C10 1_555 1_555
H11 C11 1_555 1_555
H12 C11 1_555 1_555
C12 C11 1_555 1_555
H13 C12 1_555 1_555
H14 C12 1_555 1_555
H15 C12 1_555 1_555
C13 C3 1_555 1_555
C14 O3 1_555 1_555
C15 C6 1_555 1_555
H16 C15 1_555 1_555
H17 C15 1_555 1_555
C16 C15 1_555 1_555
H18 C16 1_555 1_555
H19 C16 1_555 1_555
H20 C16 1_555 1_555
C17 C8 1_555 1_555
C18 O5 1_555 1_555
C19 H21 1_555 1_555
C20 C19 1_555 1_555
C21 C20 1_555 1_555
C22 C21 1_555 1_555
H22 C22 1_555 1_555
H23 C22 1_555 1_555
C23 C22 1_555 1_555
H24 C23 1_555 1_555
C24 C23 1_555 1_555
H25 C24 1_555 1_555
H26 C24 1_555 1_555
C25 C24 1_555 1_555
C26 C25 1_555 1_555
C27 C19 1_555 1_555
H27 C27 1_555 1_555
H28 C27 1_555 1_555
C28 C19 1_555 1_555
H29 C28 1_555 1_555
H30 C28 1_555 1_555
C29 C28 1_555 1_555
H31 C29 1_555 1_555
H32 C29 1_555 1_555
C30 C29 1_555 1_555
H33 C30 1_555 1_555
H34 C30 1_555 1_555
H35 C30 1_555 1_555
C31 C20 1_555 1_555
C32 O8 1_555 1_555
C33 C23 1_555 1_555
H36 C33 1_555 1_555
H37 C33 1_555 1_555
C34 C33 1_555 1_555
H38 C34 1_555 1_555
H39 C34 1_555 1_555
H40 C34 1_555 1_555
C35 C25 1_555 1_555
C36 O11 1_555 1_555
C4 C14 1_555 1_555
C8 C9 1_555 1_555
C9 C18 1_555 1_555
C21 C32 1_555 1_555
C26 C27 1_555 1_555
C26 C36 1_555 1_555

#END
