
#######################################################################
#
#                 Cambridge Crystallographic Data Centre
#                                CCDC 
#
#######################################################################
#
# If this CIF has been generated from an entry in the Cambridge 
# Structural Database, then it will include bibliographic, chemical, 
# crystal, experimental, refinement or atomic coordinate data resulting 
# from the CCDC's data processing and validation procedures.
#
#######################################################################

data_TITQAO
_chemical_formula_moiety         'C17 H10 Cl10 O1'
_chemical_name_systematic        
endo,endo-1,5,6,7,8,12,13,14,15,15-Decachloro-3,10-dimethyl-16-oxapentacyclo(10.2.1.1^3,10^.0^2,11^.0^4,9^)hexadeca-4(9),5,7-triene
_symmetry_cell_setting           orthorhombic
_symmetry_space_group_name_H-M   'P b c a'
_symmetry_Int_Tables_number      61
_space_group_name_Hall           '-P 2ac 2ab'
loop_
_symmetry_equiv_pos_site_id
_symmetry_equiv_pos_as_xyz
1 x,y,z
2 1/2-x,-y,1/2+z
3 1/2+x,1/2-y,-z
4 -x,1/2+y,1/2-z
5 -x,-y,-z
6 1/2+x,y,1/2-z
7 1/2-x,1/2+y,z
8 x,1/2-y,1/2+z
_cell_length_a                   17.216(3)
_cell_length_b                   13.462(3)
_cell_length_c                   17.947(4)
_cell_angle_alpha                90
_cell_angle_beta                 90
_cell_angle_gamma                90
_cell_volume                     4159.43
_exptl_crystal_colour            colorless
_chemical_melting_point          305-307K
_cell_formula_units_Z            8
loop_
_atom_site_label
_atom_site_type_symbol
_atom_site_fract_x
_atom_site_fract_y
_atom_site_fract_z
C1 C 0.4016(2) 0.2595(3) 0.4347(2)
Cl1 Cl 0.4716(1) 0.1885(1) 0.3864(1)
C2 C 0.3579(2) 0.1981(2) 0.4939(2)
C3 C 0.3845(2) 0.1685(2) 0.5749(2)
C4 C 0.4296(3) 0.0735(3) 0.5805(2)
C5 C 0.4094(2) 0.2585(2) 0.6213(2)
C6 C 0.4799(2) 0.2889(2) 0.6508(2)
Cl2 Cl 0.5654(1) 0.2303(1) 0.6266(1)
C7 C 0.4817(2) 0.3708(2) 0.6986(2)
Cl3 Cl 0.5674(1) 0.4045(1) 0.7405(1)
C8 C 0.4139(2) 0.4256(2) 0.7116(2)
Cl4 Cl 0.4165(1) 0.5285(1) 0.7685(1)
C9 C 0.3435(2) 0.3974(2) 0.6783(2)
Cl5 Cl 0.2625(1) 0.4713(1) 0.6889(1)
C10 C 0.3417(2) 0.3123(2) 0.6349(2)
C11 C 0.2766(2) 0.2552(2) 0.5958(2)
C12 C 0.1949(2) 0.2602(3) 0.6262(2)
C13 C 0.2834(2) 0.2584(3) 0.5085(2)
C14 C 0.2926(2) 0.3493(2) 0.4560(2)
Cl6 Cl 0.2038(1) 0.4102(1) 0.4374(1)
C15 C 0.3581(2) 0.4189(2) 0.4835(2)
Cl7 Cl 0.3558(1) 0.5404(1) 0.4438(1)
C16 C 0.4336(2) 0.3577(3) 0.4678(2)
Cl8 Cl 0.5050(1) 0.4175(1) 0.4120(1)
C17 C 0.3306(2) 0.2960(2) 0.3878(2)
Cl9 Cl 0.2739(1) 0.1971(1) 0.3502(1)
Cl10 Cl 0.3537(1) 0.3732(1) 0.3114(1)
O1 O 0.3073(1) 0.1551(2) 0.6058(1)
H1 H 0.3455(19) 0.1360(25) 0.4725(17)
H2 H 0.3965(20) 0.0216(26) 0.5606(19)
H3 H 0.4441(19) 0.0583(24) 0.6305(21)
H4 H 0.4738(20) 0.0762(25) 0.5508(20)
H5 H 0.1958(19) 0.2526(25) 0.6815(22)
H6 H 0.1665(21) 0.2037(27) 0.6060(21)
H7 H 0.1712(21) 0.3214(27) 0.6128(21)
H8 H 0.2411(19) 0.2257(23) 0.4921(17)
H9 H 0.3540(18) 0.4313(23) 0.5346(19)
H10 H 0.4620(18) 0.3471(23) 0.5137(18)
loop_
_geom_bond_atom_site_label_1
_geom_bond_atom_site_label_2
_geom_bond_site_symmetry_1
_geom_bond_site_symmetry_2
C1 Cl1 1_555 1_555
C2 C1 1_555 1_555
C3 C2 1_555 1_555
C4 C3 1_555 1_555
C5 C3 1_555 1_555
C6 C5 1_555 1_555
Cl2 C6 1_555 1_555
C7 C6 1_555 1_555
Cl3 C7 1_555 1_555
C8 C7 1_555 1_555
Cl4 C8 1_555 1_555
C9 C8 1_555 1_555
Cl5 C9 1_555 1_555
C10 C5 1_555 1_555
C11 C10 1_555 1_555
C12 C11 1_555 1_555
C13 C2 1_555 1_555
C14 C13 1_555 1_555
Cl6 C14 1_555 1_555
C15 C14 1_555 1_555
Cl7 C15 1_555 1_555
C16 C1 1_555 1_555
Cl8 C16 1_555 1_555
C17 C1 1_555 1_555
Cl9 C17 1_555 1_555
Cl10 C17 1_555 1_555
O1 C3 1_555 1_555
H1 C2 1_555 1_555
H2 C4 1_555 1_555
H3 C4 1_555 1_555
H4 C4 1_555 1_555
H5 C12 1_555 1_555
H6 C12 1_555 1_555
H7 C12 1_555 1_555
H8 C13 1_555 1_555
H9 C15 1_555 1_555
H10 C16 1_555 1_555
C9 C10 1_555 1_555
C11 C13 1_555 1_555
C11 O1 1_555 1_555
C14 C17 1_555 1_555
C15 C16 1_555 1_555

#END
