
#######################################################################
#
#                 Cambridge Crystallographic Data Centre
#                                CCDC 
#
#######################################################################
#
# If this CIF has been generated from an entry in the Cambridge 
# Structural Database, then it will include bibliographic, chemical, 
# crystal, experimental, refinement or atomic coordinate data resulting 
# from the CCDC's data processing and validation procedures.
#
#######################################################################

data_TITVAU
_chemical_formula_moiety         'C11 H8 F1 N3 O1'
_chemical_name_systematic        N-(4-Fluorophenyl)pyrazine-2-carboxamide
_symmetry_cell_setting           monoclinic
_symmetry_space_group_name_H-M   'P 21/c'
_symmetry_Int_Tables_number      14
_space_group_name_Hall           '-P 2ybc'
loop_
_symmetry_equiv_pos_site_id
_symmetry_equiv_pos_as_xyz
1 x,y,z
2 -x,1/2+y,1/2-z
3 -x,-y,-z
4 x,1/2-y,1/2+z
_cell_length_a                   11.718(2)
_cell_length_b                   5.9726(10)
_cell_length_c                   13.474(2)
_cell_angle_alpha                90
_cell_angle_beta                 91.446(9)
_cell_angle_gamma                90
_cell_volume                     942.704
_exptl_crystal_colour            colorless
_exptl_crystal_description       needle
_chemical_melting_point          '425-426 K'
_cell_formula_units_Z            4
_exptl_crystal_recrystallization_method ethanol
loop_
_atom_site_label
_atom_site_type_symbol
_atom_site_fract_x
_atom_site_fract_y
_atom_site_fract_z
N1 N 0.2843(3) 0.2970(5) 0.3362(2)
C1 C 0.3239(3) 0.5065(6) 0.3350(3)
C2 C 0.2545(3) 0.6889(6) 0.3130(3)
N2 N 0.1433(3) 0.6671(5) 0.2912(2)
C3 C 0.1033(3) 0.4571(6) 0.2925(3)
C4 C 0.1726(3) 0.2757(6) 0.3148(3)
C5 C 0.4491(3) 0.5443(6) 0.3582(3)
O1 O 0.4890(2) 0.7354(4) 0.3572(2)
N3 N 0.5080(2) 0.3561(5) 0.3816(2)
C6 C 0.6249(3) 0.3351(6) 0.4059(3)
C7 C 0.7031(3) 0.5095(6) 0.3982(3)
C8 C 0.8172(3) 0.4743(6) 0.4218(3)
C9 C 0.8527(3) 0.2655(6) 0.4541(3)
F1 F 0.96520(18) 0.2329(3) 0.47752(18)
C10 C 0.7783(3) 0.0905(6) 0.4631(3)
C11 C 0.6638(3) 0.1251(6) 0.4384(3)
H1 H 0.2873 0.8345 0.3135
H2 H 0.0247 0.4319 0.2777
H3 H 0.1398 0.1303 0.3149
H4 H 0.4560 0.2268 0.3762
H5 H 0.6780 0.6532 0.3767
H6 H 0.8707 0.5927 0.4158
H7 H 0.8044 -0.0516 0.4858
H8 H 0.6112 0.0048 0.4435
loop_
_geom_bond_atom_site_label_1
_geom_bond_atom_site_label_2
_geom_bond_site_symmetry_1
_geom_bond_site_symmetry_2
N1 C1 1_555 1_555
C1 C2 1_555 1_555
C2 N2 1_555 1_555
N2 C3 1_555 1_555
C3 C4 1_555 1_555
C4 N1 1_555 1_555
C5 C1 1_555 1_555
O1 C5 1_555 1_555
N3 C5 1_555 1_555
C6 N3 1_555 1_555
C7 C6 1_555 1_555
C8 C7 1_555 1_555
C9 C8 1_555 1_555
F1 C9 1_555 1_555
C10 C9 1_555 1_555
C11 C6 1_555 1_555
H1 C2 1_555 1_555
H2 C3 1_555 1_555
H3 C4 1_555 1_555
H4 N3 1_555 1_555
H5 C7 1_555 1_555
H6 C8 1_555 1_555
H7 C10 1_555 1_555
H8 C11 1_555 1_555
C10 C11 1_555 1_555

#END
