
#######################################################################
#
#                 Cambridge Crystallographic Data Centre
#                                CCDC 
#
#######################################################################
#
# If this CIF has been generated from an entry in the Cambridge 
# Structural Database, then it will include bibliographic, chemical, 
# crystal, experimental, refinement or atomic coordinate data resulting 
# from the CCDC's data processing and validation procedures.
#
#######################################################################

data_TITVUN
_chemical_formula_moiety         'C19 H22 O2 S2'
_chemical_name_systematic        
1',3'-Dioxolane-2'-spiro-6-(3-(1,3-dithian-2-ylidene)hexacyclo(6.5.0.0^2,7^.0^4,12^.0^5,10^.0^9,13^)tridecane)
_symmetry_cell_setting           orthorhombic
_symmetry_space_group_name_H-M   'P 21 21 21'
_symmetry_Int_Tables_number      19
_space_group_name_Hall           'P 2ac 2ab'
loop_
_symmetry_equiv_pos_site_id
_symmetry_equiv_pos_as_xyz
1 x,y,z
2 1/2-x,-y,1/2+z
3 1/2+x,1/2-y,-z
4 -x,1/2+y,1/2-z
_cell_length_a                   7.095(1)
_cell_length_b                   10.208(2)
_cell_length_c                   22.222(5)
_cell_angle_alpha                90
_cell_angle_beta                 90
_cell_angle_gamma                90
_cell_volume                     1609.45
_exptl_crystal_colour            colorless
_cell_formula_units_Z            4
loop_
_atom_site_label
_atom_site_type_symbol
_atom_site_fract_x
_atom_site_fract_y
_atom_site_fract_z
C1 C 1.4787(4) 0.3412(3) 0.2671(1)
C2 C 1.5003(4) 0.3719(3) 0.3352(1)
C3 C 1.4024(4) 0.2798(3) 0.3774(1)
C4 C 1.1996(4) 0.2639(3) 0.3594(1)
C5 C 1.0940(4) 0.3965(3) 0.3507(1)
C6 C 1.2146(4) 0.5153(3) 0.3601(1)
C7 C 1.3957(4) 0.5049(3) 0.3265(1)
C8 C 1.3730(4) 0.4744(3) 0.2587(1)
C9 C 1.1920(5) 0.4000(3) 0.2419(1)
C10 C 1.0241(4) 0.3869(3) 0.2847(1)
C11 C 0.9803(5) 0.2408(4) 0.2792(1)
C12 C 1.1770(5) 0.1966(3) 0.2978(1)
C13 C 1.2958(4) 0.2667(3) 0.2506(1)
O1 O 1.4929(3) 0.1567(2) 0.3790(1)
C14 C 1.6203(6) 0.1559(5) 0.4286(2)
C15 C 1.5703(7) 0.2760(5) 0.4647(2)
O2 O 1.4090(3) 0.3278(3) 0.4379(1)
C16 C 1.1694(4) 0.6172(3) 0.3947(1)
S1 S 0.9649(1) 0.6181(1) 0.4399(1)
C17 C 0.8759(5) 0.7830(4) 0.4291(2)
C18 C 1.0183(6) 0.8876(4) 0.4435(2)
C19 C 1.1833(6) 0.8876(4) 0.4008(2)
S2 S 1.3314(1) 0.7462(1) 0.4064(1)
loop_
_geom_bond_atom_site_label_1
_geom_bond_atom_site_label_2
_geom_bond_site_symmetry_1
_geom_bond_site_symmetry_2
C1 C2 1_555 1_555
C2 C3 1_555 1_555
C3 C4 1_555 1_555
C4 C5 1_555 1_555
C5 C6 1_555 1_555
C6 C7 1_555 1_555
C7 C2 1_555 1_555
C8 C1 1_555 1_555
C9 C8 1_555 1_555
C10 C5 1_555 1_555
C11 C10 1_555 1_555
C12 C4 1_555 1_555
C13 C1 1_555 1_555
O1 C3 1_555 1_555
C14 O1 1_555 1_555
C15 C14 1_555 1_555
O2 C3 1_555 1_555
C16 C6 1_555 1_555
S1 C16 1_555 1_555
C17 S1 1_555 1_555
C18 C17 1_555 1_555
C19 C18 1_555 1_555
S2 C16 1_555 1_555
C7 C8 1_555 1_555
C9 C13 1_555 1_555
C9 C10 1_555 1_555
C11 C12 1_555 1_555
C12 C13 1_555 1_555
C15 O2 1_555 1_555
C19 S2 1_555 1_555

#END
