
#######################################################################
#
#                 Cambridge Crystallographic Data Centre
#                                CCDC 
#
#######################################################################
#
# If this CIF has been generated from an entry in the Cambridge 
# Structural Database, then it will include bibliographic, chemical, 
# crystal, experimental, refinement or atomic coordinate data resulting 
# from the CCDC's data processing and validation procedures.
#
#######################################################################

data_TITZON
_chemical_formula_moiety         'C29 H19 Br1 Cl2 N2 O2'
_chemical_name_systematic        
(1-(4-Bromophenyl)-2,4-bis(4-chlorophenyl)-1H-imidazol-5-yl)(4-methoxyphenyl)methanone
_symmetry_cell_setting           orthorhombic
_symmetry_space_group_name_H-M   'P 21 21 21'
_symmetry_Int_Tables_number      19
_space_group_name_Hall           'P 2ac 2ab'
loop_
_symmetry_equiv_pos_site_id
_symmetry_equiv_pos_as_xyz
1 x,y,z
2 1/2-x,-y,1/2+z
3 -x,1/2+y,1/2-z
4 1/2+x,1/2-y,-z
_cell_length_a                   5.5782(2)
_cell_length_b                   19.1151(7)
_cell_length_c                   23.5307(8)
_cell_angle_alpha                90
_cell_angle_beta                 90
_cell_angle_gamma                90
_cell_volume                     2509.03
_exptl_crystal_colour            colorless
_exptl_crystal_description       block
_chemical_melting_point          '476-478 K'
_cell_formula_units_Z            4
loop_
_atom_site_label
_atom_site_type_symbol
_atom_site_fract_x
_atom_site_fract_y
_atom_site_fract_z
Br1 Br 0.59526(6) 0.689713(15) 0.307835(13)
Cl1 Cl -0.37666(14) 1.03598(4) 0.39671(3)
Cl2 Cl 0.42666(18) 1.21454(4) -0.10200(3)
O1 O 0.8442(4) 0.91017(11) 0.12309(9)
O2 O 0.5220(4) 0.78169(12) -0.11146(9)
N1 N 0.3963(5) 0.95709(11) 0.17596(9)
N2 N 0.2209(4) 1.05521(13) 0.14743(10)
C1 C 0.2395(5) 1.00998(14) 0.18952(13)
C2 C 0.3681(5) 1.03193(15) 0.10448(12)
C3 C 0.4775(5) 0.97023(15) 0.12069(12)
C4 C 0.4400(5) 0.89350(15) 0.20711(11)
C5 C 0.2799(5) 0.83834(15) 0.20274(12)
H1 H 0.1431 0.8419 0.1789
C6 C 0.3226(5) 0.77776(16) 0.23377(13)
H2 H 0.2148 0.7394 0.2314
C7 C 0.5222(5) 0.77378(16) 0.26799(12)
C8 C 0.6824(5) 0.82860(15) 0.27256(12)
H3 H 0.8185 0.8250 0.2967
C9 C 0.6415(5) 0.88894(15) 0.24141(12)
H4 H 0.7508 0.9270 0.2435
C10 C 0.1023(6) 1.01703(14) 0.24246(12)
C11 C 0.1641(5) 0.98467(15) 0.29391(12)
H5 H 0.3068 0.9577 0.2961
C12 C 0.0193(5) 0.99154(17) 0.34173(13)
H6 H 0.0610 0.9692 0.3764
C13 C -0.1870(5) 1.03155(16) 0.33767(13)
C14 C -0.2476(5) 1.06678(16) 0.28851(13)
H7 H -0.3864 1.0955 0.2873
C15 C -0.1032(6) 1.05955(14) 0.24113(12)
H8 H -0.1435 1.0837 0.2072
C16 C 0.3899(6) 1.07498(15) 0.05274(11)
C17 C 0.2089(6) 1.12320(16) 0.04111(13)
H9 H 0.0756 1.1266 0.0661
C18 C 0.2200(6) 1.16627(17) -0.00625(13)
H10 H 0.0959 1.1990 -0.0137
C19 C 0.4140(6) 1.16092(15) -0.04252(12)
C20 C 0.5976(7) 1.11426(15) -0.03140(12)
H11 H 0.7314 1.1115 -0.0563
C21 C 0.5859(6) 1.07141(15) 0.01622(12)
H12 H 0.7123 1.0395 0.0239
C22 C 0.6615(5) 0.92208(15) 0.09590(12)
C23 C 0.6141(6) 0.88797(14) 0.04069(12)
C24 C 0.4063(6) 0.89882(14) 0.00923(12)
H13 H 0.2881 0.9302 0.0231
C25 C 0.3683(5) 0.86487(15) -0.04182(13)
H14 H 0.2262 0.8734 -0.0630
C26 C 0.5389(5) 0.81829(16) -0.06194(12)
C27 C 0.7457(5) 0.80477(16) -0.02992(12)
H15 H 0.8597 0.7715 -0.0430
C28 C 0.7834(5) 0.83946(16) 0.02005(12)
H16 H 0.9255 0.8308 0.0412
C29 C 0.3091(6) 0.79113(19) -0.14463(14)
H17 H 0.3174 0.7616 -0.1786
H18 H 0.2955 0.8403 -0.1560
H19 H 0.1688 0.7779 -0.1220
loop_
_geom_bond_atom_site_label_1
_geom_bond_atom_site_label_2
_geom_bond_site_symmetry_1
_geom_bond_site_symmetry_2
Br1 C7 1_555 1_555
Cl1 C13 1_555 1_555
Cl2 C19 1_555 1_555
O1 C22 1_555 1_555
O2 C26 1_555 1_555
N1 C1 1_555 1_555
N2 C1 1_555 1_555
C1 C10 1_555 1_555
C2 N2 1_555 1_555
C3 N1 1_555 1_555
C4 N1 1_555 1_555
C5 C4 1_555 1_555
H1 C5 1_555 1_555
C6 C5 1_555 1_555
H2 C6 1_555 1_555
C7 C6 1_555 1_555
C8 C7 1_555 1_555
H3 C8 1_555 1_555
C9 C4 1_555 1_555
H4 C9 1_555 1_555
C10 C11 1_555 1_555
C11 H5 1_555 1_555
C12 C11 1_555 1_555
H6 C12 1_555 1_555
C13 C12 1_555 1_555
C14 C13 1_555 1_555
H7 C14 1_555 1_555
C15 C10 1_555 1_555
H8 C15 1_555 1_555
C16 C2 1_555 1_555
C17 C16 1_555 1_555
H9 C17 1_555 1_555
C18 C17 1_555 1_555
H10 C18 1_555 1_555
C19 C18 1_555 1_555
C20 C19 1_555 1_555
H11 C20 1_555 1_555
C21 C16 1_555 1_555
H12 C21 1_555 1_555
C22 C3 1_555 1_555
C23 C22 1_555 1_555
C24 C23 1_555 1_555
H13 C24 1_555 1_555
C25 C24 1_555 1_555
H14 C25 1_555 1_555
C26 C25 1_555 1_555
C27 C26 1_555 1_555
H15 C27 1_555 1_555
C28 C23 1_555 1_555
H16 C28 1_555 1_555
C29 O2 1_555 1_555
H17 C29 1_555 1_555
H18 C29 1_555 1_555
H19 C29 1_555 1_555
C2 C3 1_555 1_555
C8 C9 1_555 1_555
C14 C15 1_555 1_555
C20 C21 1_555 1_555
C27 C28 1_555 1_555

#END
