
#######################################################################
#
#                 Cambridge Crystallographic Data Centre
#                                CCDC 
#
#######################################################################
#
# If this CIF has been generated from an entry in the Cambridge 
# Structural Database, then it will include bibliographic, chemical, 
# crystal, experimental, refinement or atomic coordinate data resulting 
# from the CCDC's data processing and validation procedures.
#
#######################################################################

data_TIVFAF
_chemical_formula_moiety         'C21 H20 N2 O7 S1'
_chemical_name_systematic        
'(5-Carboxymethyl-2-methyl-8-(p-tolylsulfonylamino)-6-quinolyloxy)acetic acid'
_symmetry_cell_setting           monoclinic
_symmetry_space_group_name_H-M   'C 2/c'
_symmetry_Int_Tables_number      15
_space_group_name_Hall           '-C 2yn'
loop_
_symmetry_equiv_pos_site_id
_symmetry_equiv_pos_as_xyz
1 x,y,z
2 -x,y,1/2-z
3 1/2+x,1/2+y,z
4 1/2-x,1/2+y,1/2-z
5 -x,-y,-z
6 x,-y,1/2+z
7 1/2-x,1/2-y,-z
8 1/2+x,1/2-y,1/2+z
_cell_length_a                   25.391(11)
_cell_length_b                   10.362(2)
_cell_length_c                   16.539(2)
_cell_angle_alpha                90
_cell_angle_beta                 111.71(2)
_cell_angle_gamma                90
_cell_volume                     4042.78
_chemical_melting_point          236-238deg.C
_cell_formula_units_Z            8
loop_
_atom_site_label
_atom_site_type_symbol
_atom_site_fract_x
_atom_site_fract_y
_atom_site_fract_z
S1 S 0.4395(1) -0.0078(2) 0.3664(1)
O1 O 0.3459(2) -0.4520(3) 0.4428(3)
O2 O 0.3602(2) -0.6783(5) 0.2587(3)
O3 O 0.3088(2) -0.7462(4) 0.3338(3)
O4 O 0.2300(2) -0.2309(4) 0.3804(3)
O5 O 0.2724(2) -0.3367(4) 0.3031(3)
O6 O 0.4806(2) 0.0898(4) 0.3720(3)
O7 O 0.4043(2) 0.0019(4) 0.4169(2)
N1 N 0.5347(2) -0.3352(4) 0.3656(3)
N2 N 0.4764(2) -0.1405(5) 0.3936(3)
C1 C 0.5660(2) -0.4278(6) 0.3518(3)
C2 C 0.6182(2) -0.3887(6) 0.3357(4)
C3 C 0.5514(3) -0.5599(6) 0.3531(4)
C4 C 0.5054(3) -0.5941(6) 0.3711(4)
C5 C 0.4704(2) -0.4964(6) 0.3871(3)
C6 C 0.4215(2) -0.5239(5) 0.4071(3)
C7 C 0.4007(3) -0.6581(6) 0.4121(4)
C8 C 0.3524(3) -0.6967(6) 0.3313(4)
C9 C 0.3919(2) -0.4193(6) 0.4211(3)
C10 C 0.3120(3) -0.3548(6) 0.4574(4)
C11 C 0.2680(2) -0.3020(6) 0.3752(4)
C12 C 0.4081(2) -0.2915(6) 0.4170(4)
C13 C 0.4552(2) -0.2659(5) 0.3976(3)
C14 C 0.3932(2) -0.0225(6) 0.2560(3)
C15 C 0.3388(3) -0.0661(6) 0.2351(4)
C16 C 0.3044(3) -0.0824(7) 0.1481(4)
C17 C 0.3248(3) -0.0542(6) 0.0825(4)
C18 C 0.2880(3) -0.0775(8) -0.0118(4)
C19 C 0.3790(3) -0.0078(7) 0.1053(4)
C20 C 0.4142(3) 0.0099(7) 0.1917(4)
C21 C 0.4876(2) -0.3692(6) 0.3826(3)
H1 H 0.6373(2) -0.4651(6) 0.3265(4)
H2 H 0.6435(2) -0.3416(6) 0.3858(4)
H3 H 0.6076(2) -0.3340(6) 0.2846(4)
H4 H 0.5769(23) -0.6233(45) 0.3438(33)
H5 H 0.4969(24) -0.6866(46) 0.3704(33)
H6 H 0.4322(23) -0.7202(45) 0.4279(33)
H7 H 0.3882(23) -0.6665(45) 0.4583(34)
H8 H 0.3163(23) -0.6867(44) 0.1996(34)
H9 H 0.3301(23) -0.2828(46) 0.4896(33)
H10 H 0.2885(22) -0.3979(46) 0.4899(32)
H11 H 0.2431(24) -0.3168(47) 0.2611(35)
H12 H 0.3924(23) -0.2165(46) 0.4350(33)
H13 H 0.5047(25) -0.1369(46) 0.3820(34)
H14 H 0.3242(22) -0.0988(45) 0.2772(23)
H15 H 0.2689(23) -0.1203(46) 0.1309(32)
H16 H 0.2513(3) -0.1099(8) -0.0156(4)
H17 H 0.3061(3) -0.1404(8) -0.0364(4)
H18 H 0.2830(3) 0.0028(8) -0.0439(4)
H19 H 0.3975(22) 0.0368(43) 0.0679(34)
H20 H 0.4533(23) 0.0516(44) 0.2093(34)
loop_
_geom_bond_atom_site_label_1
_geom_bond_atom_site_label_2
_geom_bond_site_symmetry_1
_geom_bond_site_symmetry_2
S1 O6 1_555 1_555
O1 C9 1_555 1_555
O2 C8 1_555 1_555
O3 C8 1_555 1_555
O4 C11 1_555 1_555
O5 C11 1_555 1_555
O7 S1 1_555 1_555
N1 C1 1_555 1_555
N2 S1 1_555 1_555
C1 C2 1_555 1_555
C2 H1 1_555 1_555
C3 C1 1_555 1_555
C4 C3 1_555 1_555
C5 C4 1_555 1_555
C6 C5 1_555 1_555
C7 C6 1_555 1_555
C8 C7 1_555 1_555
C9 C6 1_555 1_555
C10 O1 1_555 1_555
C11 C10 1_555 1_555
C12 C9 1_555 1_555
C13 N2 1_555 1_555
C14 S1 1_555 1_555
C15 C14 1_555 1_555
C16 C15 1_555 1_555
C17 C16 1_555 1_555
C18 C17 1_555 1_555
C19 C17 1_555 1_555
C20 C14 1_555 1_555
C21 N1 1_555 1_555
H2 C2 1_555 1_555
H3 C2 1_555 1_555
H4 C3 1_555 1_555
H5 C4 1_555 1_555
H6 C7 1_555 1_555
H7 C7 1_555 1_555
H8 O2 1_555 1_555
H9 C10 1_555 1_555
H10 C10 1_555 1_555
H11 O5 1_555 1_555
H12 C12 1_555 1_555
H13 N2 1_555 1_555
H14 C15 1_555 1_555
H15 C16 1_555 1_555
H16 C18 1_555 1_555
H17 C18 1_555 1_555
H18 C18 1_555 1_555
H19 C19 1_555 1_555
H20 C20 1_555 1_555
C5 C21 1_555 1_555
C12 C13 1_555 1_555
C13 C21 1_555 1_555
C19 C20 1_555 1_555

#END
