
#######################################################################
#
#                 Cambridge Crystallographic Data Centre
#                                CCDC 
#
#######################################################################
#
# If this CIF has been generated from an entry in the Cambridge 
# Structural Database, then it will include bibliographic, chemical, 
# crystal, experimental, refinement or atomic coordinate data resulting 
# from the CCDC's data processing and validation procedures.
#
#######################################################################

data_TIVHIQ
_chemical_formula_moiety         'C21 H16 O1'
_chemical_name_systematic        2,4-Diphenyl-4H-chromene
_symmetry_cell_setting           orthorhombic
_symmetry_space_group_name_H-M   'P n a 21'
_symmetry_Int_Tables_number      33
_space_group_name_Hall           'P 2c -2n'
loop_
_symmetry_equiv_pos_site_id
_symmetry_equiv_pos_as_xyz
1 x,y,z
2 -x,-y,1/2+z
3 1/2+x,1/2-y,z
4 1/2-x,1/2+y,1/2+z
_cell_length_a                   11.473(3)
_cell_length_b                   16.216(5)
_cell_length_c                   8.311(2)
_cell_angle_alpha                90
_cell_angle_beta                 90
_cell_angle_gamma                90
_cell_volume                     1546.23
_exptl_crystal_colour            colorless
_exptl_crystal_description       block
_chemical_melting_point          '112-113 deg.C'
_cell_formula_units_Z            4
loop_
_atom_site_label
_atom_site_type_symbol
_atom_site_fract_x
_atom_site_fract_y
_atom_site_fract_z
O1 O 0.13493(13) 0.21588(9) 0.9042(2)
C1 C 0.05503(18) 0.16274(15) 0.8360(3)
C2 C -0.04160(19) 0.18945(14) 0.7670(3)
H1 H -0.0939 0.1501 0.7294
C3 C -0.0733(2) 0.27848(14) 0.7445(3)
H2 H -0.1477 0.2883 0.7992
C4 C 0.01744(18) 0.33293(15) 0.8217(3)
C5 C 0.11388(19) 0.30023(13) 0.8957(3)
C6 C 0.1964(2) 0.34928(16) 0.9679(3)
H3 H 0.2618 0.3257 1.0153
C7 C 0.1818(2) 0.43288(17) 0.9696(3)
H4 H 0.2371 0.4661 1.0195
C8 C 0.0863(3) 0.46802(17) 0.8982(4)
H5 H 0.0766 0.5250 0.8990
C9 C 0.0047(2) 0.41801(16) 0.8252(3)
H6 H -0.0603 0.4419 0.7771
C10 C 0.0923(2) 0.07631(15) 0.8513(3)
C11 C 0.0356(2) 0.01385(17) 0.7693(4)
H7 H -0.0269 0.0270 0.7029
C12 C 0.0695(3) -0.06748(17) 0.7836(4)
H8 H 0.0284 -0.1084 0.7297
C13 C 0.1628(3) -0.08790(17) 0.8762(4)
H9 H 0.1868 -0.1425 0.8839
C14 C 0.2208(2) -0.02758(18) 0.9575(4)
H10 H 0.2842 -0.0412 1.0220
C15 C 0.1858(2) 0.05388(16) 0.9446(3)
H11 H 0.2266 0.0943 1.0005
C16 C -0.09005(19) 0.29698(13) 0.5662(3)
C17 C -0.1979(2) 0.31664(14) 0.5034(3)
H12 H -0.2612 0.3233 0.5720
C18 C -0.2126(2) 0.32655(16) 0.3401(4)
H13 H -0.2862 0.3381 0.2989
C19 C -0.1195(3) 0.31948(16) 0.2383(3)
H14 H -0.1298 0.3265 0.1281
C20 C -0.0117(2) 0.30217(17) 0.2984(3)
H15 H 0.0519 0.2979 0.2296
C21 C 0.0025(2) 0.29111(15) 0.4610(3)
H16 H 0.0763 0.2794 0.5012
loop_
_geom_bond_atom_site_label_1
_geom_bond_atom_site_label_2
_geom_bond_site_symmetry_1
_geom_bond_site_symmetry_2
O1 C1 1_555 1_555
C1 C2 1_555 1_555
C2 H1 1_555 1_555
C3 C2 1_555 1_555
H2 C3 1_555 1_555
C4 C3 1_555 1_555
C5 O1 1_555 1_555
C6 C5 1_555 1_555
H3 C6 1_555 1_555
C7 C6 1_555 1_555
H4 C7 1_555 1_555
C8 C7 1_555 1_555
H5 C8 1_555 1_555
C9 C4 1_555 1_555
H6 C9 1_555 1_555
C10 C1 1_555 1_555
C11 C10 1_555 1_555
H7 C11 1_555 1_555
C12 C11 1_555 1_555
H8 C12 1_555 1_555
C13 C12 1_555 1_555
H9 C13 1_555 1_555
C14 C13 1_555 1_555
H10 C14 1_555 1_555
C15 C10 1_555 1_555
H11 C15 1_555 1_555
C16 C3 1_555 1_555
C17 C16 1_555 1_555
H12 C17 1_555 1_555
C18 C17 1_555 1_555
H13 C18 1_555 1_555
C19 C18 1_555 1_555
H14 C19 1_555 1_555
C20 C19 1_555 1_555
H15 C20 1_555 1_555
C21 C16 1_555 1_555
H16 C21 1_555 1_555
C4 C5 1_555 1_555
C8 C9 1_555 1_555
C14 C15 1_555 1_555
C20 C21 1_555 1_555

#END
