
#######################################################################
#
#                 Cambridge Crystallographic Data Centre
#                                CCDC 
#
#######################################################################
#
# If this CIF has been generated from an entry in the Cambridge 
# Structural Database, then it will include bibliographic, chemical, 
# crystal, experimental, refinement or atomic coordinate data resulting 
# from the CCDC's data processing and validation procedures.
#
#######################################################################

data_TIVNOD
_chemical_formula_moiety         'C31 H30 B1 N1 O1'
_chemical_name_systematic        
6,6-Dimesityl-6H-5\l^5^,6\l^5^-[2,1]benzazaborolo[3,2-b][1,3]benzoxazole
_symmetry_cell_setting           orthorhombic
_symmetry_space_group_name_H-M   'P 21 21 21'
_symmetry_Int_Tables_number      19
_space_group_name_Hall           'P 2ac 2ab'
loop_
_symmetry_equiv_pos_site_id
_symmetry_equiv_pos_as_xyz
1 x,y,z
2 1/2+x,1/2-y,-z
3 -x,1/2+y,1/2-z
4 1/2-x,-y,1/2+z
_cell_length_a                   8.2008(7)
_cell_length_b                   9.0915(6)
_cell_length_c                   32.588(2)
_cell_angle_alpha                90
_cell_angle_beta                 90
_cell_angle_gamma                90
_cell_volume                     2429.68
_exptl_crystal_colour            colorless
_exptl_crystal_description       block
_cell_formula_units_Z            4
loop_
_atom_site_label
_atom_site_type_symbol
_atom_site_fract_x
_atom_site_fract_y
_atom_site_fract_z
O1 O 0.8597(6) 0.3901(5) 0.77926(13)
N1 N 0.8591(6) 0.5027(5) 0.83990(16)
B1 B 0.7553(9) 0.6115(8) 0.8701(2)
C1 C 0.6064(7) 0.6388(6) 0.8356(2)
C2 C 0.4542(6) 0.7169(6) 0.83789(19)
H1 H 0.4300 0.7732 0.8617
C3 C 0.3441(8) 0.7117(7) 0.8067(2)
H2 H 0.2468 0.7680 0.8086
C4 C 0.3720(10) 0.6215(8) 0.7704(2)
H3 H 0.2959 0.6161 0.7484
C5 C 0.5183(8) 0.5439(7) 0.7702(2)
H4 H 0.5434 0.4825 0.7474
C6 C 0.6246(8) 0.5538(8) 0.8013(2)
C7 C 0.7811(6) 0.4807(6) 0.80565(17)
C8 C 1.0101(8) 0.3583(7) 0.7984(2)
C9 C 1.1357(10) 0.2745(8) 0.7862(2)
H5 H 1.1312 0.2226 0.7609
C10 C 1.2636(10) 0.2656(9) 0.8096(3)
H6 H 1.3540 0.2076 0.8011
C11 C 1.2695(8) 0.3384(7) 0.8459(2)
H7 H 1.3672 0.3299 0.8614
C12 C 1.1464(7) 0.4238(6) 0.86238(19)
H8 H 1.1540 0.4713 0.8883
C13 C 1.0081(7) 0.4329(6) 0.8367(2)
C14 C 0.6599(6) 0.5310(6) 0.90804(17)
C15 C 0.6360(6) 0.3777(5) 0.91317(16)
C16 C 0.5408(6) 0.3271(6) 0.94591(18)
H9 H 0.5291 0.2239 0.9494
C17 C 0.4639(6) 0.4181(6) 0.97306(18)
C18 C 0.4825(6) 0.5681(6) 0.96723(16)
H10 H 0.4283 0.6341 0.9853
C19 C 0.5792(6) 0.6254(6) 0.93541(18)
C20 C 0.5950(7) 0.7920(6) 0.93535(19)
H11 H 0.4982 0.8356 0.9482
H12 H 0.6045 0.8272 0.9070
H13 H 0.6924 0.8207 0.9508
C21 C 0.3611(8) 0.3601(7) 1.00791(19)
H14 H 0.3994 0.2618 1.0156
H15 H 0.2469 0.3545 0.9992
H16 H 0.3703 0.4263 1.0315
C22 C 0.7123(8) 0.2610(5) 0.88617(19)
H17 H 0.6742 0.1636 0.8948
H18 H 0.8313 0.2656 0.8886
H19 H 0.6809 0.2780 0.8575
C23 C 0.8905(7) 0.7361(6) 0.88472(17)
C24 C 0.9212(7) 0.8668(6) 0.86251(19)
C25 C 1.0324(7) 0.9704(6) 0.87670(18)
H20 H 1.0470 1.0584 0.8614
C26 C 1.1227(7) 0.9506(6) 0.91221(19)
C27 C 1.1002(7) 0.8182(6) 0.9328(2)
H21 H 1.1639 0.7986 0.9565
C28 C 0.9886(6) 0.7143(6) 0.91998(17)
C29 C 0.9773(7) 0.5772(6) 0.94745(18)
H22 H 1.0806 0.5637 0.9621
H23 H 0.9554 0.4906 0.9304
H24 H 0.8887 0.5900 0.9673
C30 C 1.2412(8) 1.0641(7) 0.9271(2)
H25 H 1.2641 1.0475 0.9563
H26 H 1.1942 1.1623 0.9235
H27 H 1.3427 1.0566 0.9114
C31 C 0.8270(10) 0.9043(7) 0.8237(2)
H28 H 0.8812 0.9856 0.8095
H29 H 0.7156 0.9334 0.8310
H30 H 0.8234 0.8180 0.8057
loop_
_geom_bond_atom_site_label_1
_geom_bond_atom_site_label_2
_geom_bond_site_symmetry_1
_geom_bond_site_symmetry_2
O1 C7 1_555 1_555
N1 B1 1_555 1_555
B1 C1 1_555 1_555
C1 C2 1_555 1_555
C2 H1 1_555 1_555
C3 C2 1_555 1_555
H2 C3 1_555 1_555
C4 C3 1_555 1_555
H3 C4 1_555 1_555
C5 C4 1_555 1_555
H4 C5 1_555 1_555
C6 C1 1_555 1_555
C7 N1 1_555 1_555
C8 O1 1_555 1_555
C9 C8 1_555 1_555
H5 C9 1_555 1_555
C10 C9 1_555 1_555
H6 C10 1_555 1_555
C11 C10 1_555 1_555
H7 C11 1_555 1_555
C12 C11 1_555 1_555
H8 C12 1_555 1_555
C13 N1 1_555 1_555
C14 B1 1_555 1_555
C15 C14 1_555 1_555
C16 C15 1_555 1_555
H9 C16 1_555 1_555
C17 C16 1_555 1_555
C18 C17 1_555 1_555
H10 C18 1_555 1_555
C19 C14 1_555 1_555
C20 C19 1_555 1_555
H11 C20 1_555 1_555
H12 C20 1_555 1_555
H13 C20 1_555 1_555
C21 C17 1_555 1_555
H14 C21 1_555 1_555
H15 C21 1_555 1_555
H16 C21 1_555 1_555
C22 C15 1_555 1_555
H17 C22 1_555 1_555
H18 C22 1_555 1_555
H19 C22 1_555 1_555
C23 B1 1_555 1_555
C24 C23 1_555 1_555
C25 C24 1_555 1_555
H20 C25 1_555 1_555
C26 C25 1_555 1_555
C27 C26 1_555 1_555
H21 C27 1_555 1_555
C28 C23 1_555 1_555
C29 C28 1_555 1_555
H22 C29 1_555 1_555
H23 C29 1_555 1_555
H24 C29 1_555 1_555
C30 C26 1_555 1_555
H25 C30 1_555 1_555
H26 C30 1_555 1_555
H27 C30 1_555 1_555
C31 C24 1_555 1_555
H28 C31 1_555 1_555
H29 C31 1_555 1_555
H30 C31 1_555 1_555
C5 C6 1_555 1_555
C6 C7 1_555 1_555
C8 C13 1_555 1_555
C12 C13 1_555 1_555
C18 C19 1_555 1_555
C27 C28 1_555 1_555

#END
