
#######################################################################
#
#                 Cambridge Crystallographic Data Centre
#                                CCDC 
#
#######################################################################
#
# If this CIF has been generated from an entry in the Cambridge 
# Structural Database, then it will include bibliographic, chemical, 
# crystal, experimental, refinement or atomic coordinate data resulting 
# from the CCDC's data processing and validation procedures.
#
#######################################################################

data_TIVRIZ
_chemical_formula_moiety         'C8 H13 N1 O2,0.5(H2 O1)'
_chemical_name_systematic        
'1-Azabicyclo(2.2.2)octane-2-carboxylic acid hemihydrate'
_symmetry_cell_setting           monoclinic
_symmetry_space_group_name_H-M   'C 2/c'
_symmetry_Int_Tables_number      15
_space_group_name_Hall           '-C 2yn'
loop_
_symmetry_equiv_pos_site_id
_symmetry_equiv_pos_as_xyz
1 x,y,z
2 -x,y,1/2-z
3 1/2+x,1/2+y,z
4 1/2-x,1/2+y,1/2-z
5 -x,-y,-z
6 x,-y,1/2+z
7 1/2-x,1/2-y,-z
8 1/2+x,1/2-y,1/2+z
_cell_length_a                   7.620(9)
_cell_length_b                   9.975(7)
_cell_length_c                   21.76(4)
_cell_angle_alpha                90
_cell_angle_beta                 97.90(12)
_cell_angle_gamma                90
_cell_volume                     1638.27
_exptl_crystal_colour            colorless
_cell_formula_units_Z            8
loop_
_atom_site_label
_atom_site_type_symbol
_atom_site_fract_x
_atom_site_fract_y
_atom_site_fract_z
N1 N 0.1608(3) 0.0399(2) 0.3346(1)
C1 C 0.0085(4) 0.0977(3) 0.3622(1)
C2 C 0.0591(4) 0.0986(4) 0.4326(1)
C3 C 0.2533(4) 0.0691(3) 0.4491(1)
C4 C 0.2898(5) -0.0727(3) 0.4299(1)
C5 C 0.2109(4) -0.0928(3) 0.3632(1)
C6 C 0.3588(4) 0.1626(3) 0.4138(1)
C7 C 0.3166(4) 0.1324(3) 0.3446(1)
C8 C -0.1638(4) 0.0243(3) 0.3396(2)
O1 O -0.1788(3) -0.0236(2) 0.2855(1)
O2 O -0.2750(3) 0.0189(3) 0.3752(1)
H1 H -0.0093 0.1840 0.3459
H2 H -0.0063 0.0251 0.4499
H3 H 0.0279 0.1707 0.4482
H4 H 0.2863 0.0789 0.4900
H5 H 0.2408 -0.1312 0.4511
H6 H 0.4257 -0.0928 0.4328
H7 H 0.2902 -0.1260 0.3406
H8 H 0.1052 -0.1444 0.3577
H9 H 0.4785 0.1511 0.4263
H10 H 0.3207 0.2627 0.4210
H11 H 0.2848 0.2162 0.3192
H12 H 0.4072 0.0892 0.3285
H13 H 0.1387 0.0219 0.2950
O3 O 0.0000 0.3333(3) 0.2500
H14 H 0.0792 0.3856 0.2644
H14A H -0.0792 0.3856 0.2356
loop_
_geom_bond_atom_site_label_1
_geom_bond_atom_site_label_2
_geom_bond_site_symmetry_1
_geom_bond_site_symmetry_2
N1 C1 1_555 1_555
C1 C2 1_555 1_555
C2 C3 1_555 1_555
C3 C4 1_555 1_555
C4 C5 1_555 1_555
C5 N1 1_555 1_555
C6 C3 1_555 1_555
C7 N1 1_555 1_555
C8 C1 1_555 1_555
O1 C8 1_555 1_555
O2 C8 1_555 1_555
O3 H14 1_555 1_555
H1 C1 1_555 1_555
H2 C2 1_555 1_555
H3 C2 1_555 1_555
H4 C3 1_555 1_555
H5 C4 1_555 1_555
H6 C4 1_555 1_555
H7 C5 1_555 1_555
H8 C5 1_555 1_555
H9 C6 1_555 1_555
H10 C6 1_555 1_555
H11 C7 1_555 1_555
H12 C7 1_555 1_555
H13 N1 1_555 1_555
H14A O3 1_555 1_555
C6 C7 1_555 1_555

#END
