
#######################################################################
#
#                 Cambridge Crystallographic Data Centre
#                                CCDC 
#
#######################################################################
#
# If this CIF has been generated from an entry in the Cambridge 
# Structural Database, then it will include bibliographic, chemical, 
# crystal, experimental, refinement or atomic coordinate data resulting 
# from the CCDC's data processing and validation procedures.
#
#######################################################################

data_TIWDAE
_chemical_formula_moiety         'C18 H21 F1 N3 O3 1+,Cl1 1-,C2 H6 O1'
_chemical_name_systematic        
'8-(3-Ammonio-1-pyrrolidinyl)-1-cyclopropyl-7-fluoro-9-methyl-4-oxo-4H-quinolizine-3-carboxylic acid chloride ethanol solvate'
_chemical_properties_biological  'antibacterial activity'
_symmetry_cell_setting           orthorhombic
_symmetry_space_group_name_H-M   'P 21 21 21'
_symmetry_Int_Tables_number      19
_space_group_name_Hall           'P 2ac 2ab'
loop_
_symmetry_equiv_pos_site_id
_symmetry_equiv_pos_as_xyz
1 x,y,z
2 1/2-x,-y,1/2+z
3 1/2+x,1/2-y,-z
4 -x,1/2+y,1/2-z
_cell_length_a                   10.319(2)
_cell_length_b                   29.785(8)
_cell_length_c                   6.778(2)
_cell_angle_alpha                90
_cell_angle_beta                 90
_cell_angle_gamma                90
_cell_volume                     2083.23
_exptl_crystal_colour            yellow
_chemical_melting_point          '230-232 deg.C (dec)'
_cell_formula_units_Z            4
loop_
_atom_site_label
_atom_site_type_symbol
_atom_site_fract_x
_atom_site_fract_y
_atom_site_fract_z
Cl1 Cl -0.5914(2) -0.26496(7) -0.0170(4)
F1 F -0.5585(5) -0.1009(2) -0.606(1)
O1 O -0.0824(7) 0.1186(2) -0.626(1)
O2 O -0.2971(6) 0.1194(2) -0.6320(9)
O3 O -0.4190(6) 0.0469(2) -0.6063(9)
N1 N -0.3544(6) -0.2117(2) -0.186(1)
N2 N -0.3450(6) -0.1588(2) -0.576(1)
N3 N -0.3074(7) -0.0207(2) -0.606(1)
C1 C -0.184(1) 0.0978(3) -0.620(1)
C2 C -0.191(1) 0.0489(3) -0.610(1)
C3 C -0.309(1) 0.0281(3) -0.607(1)
C4 C -0.075(1) 0.0222(3) -0.598(1)
C5 C -0.076(1) -0.0230(3) -0.590(1)
C6 C 0.0488(9) -0.0463(3) -0.544(2)
C7 C 0.149(1) -0.0543(3) -0.690(2)
C8 C 0.1756(9) -0.0230(3) -0.525(2)
C9 C -0.1937(8) -0.0473(3) -0.608(1)
C10 C -0.2086(8) -0.0936(3) -0.625(1)
C11 C -0.329(1) -0.1141(3) -0.600(1)
C12 C -0.4381(8) -0.0841(3) -0.604(1)
C13 C -0.422(1) -0.0400(3) -0.609(1)
C14 C -0.0929(8) -0.1212(3) -0.695(1)
C15 C -0.2441(8) -0.1898(3) -0.494(1)
C16 C -0.3208(9) -0.2258(3) -0.392(1)
C17 C -0.444(1) -0.2300(3) -0.516(1)
C18 C -0.4718(8) -0.1834(3) -0.583(2)
H1 H -0.4005 -0.1841 -0.1900
H2 H -0.2771 -0.2080 -0.1118
H3 H -0.4069 -0.2341 -0.1262
H4 H 0.0058 0.0372 -0.5944
H5 H 0.0385 -0.0704 -0.4540
H6 H 0.1388 -0.0429 -0.8195
H7 H 0.1908 -0.0826 -0.6943
H8 H 0.2339 -0.0314 -0.4228
H9 H 0.1819 0.0082 -0.5479
H10 H -0.4970 -0.0216 -0.6150
H11 H -0.0923 -0.1225 -0.8350
H12 H -0.0981 -0.1508 -0.6430
H13 H -0.0145 -0.1076 -0.6505
H14 H -0.1927 -0.2021 -0.5961
H15 H -0.1904 -0.1744 -0.4023
H16 H -0.2744 -0.2534 -0.3914
H17 H -0.4301 -0.2491 -0.6261
H18 H -0.5136 -0.2411 -0.4391
H19 H -0.5329 -0.1692 -0.4980
H20 H -0.5049 -0.1833 -0.7142
O4 O -0.438(1) -0.3406(3) 0.239(2)
C19 C -0.299(2) -0.341(1) 0.211(4)
C20 C -0.262(2) -0.360(1) 0.085(4)
H21 H -0.2694 -0.3113 0.1991
H22 H -0.2608 -0.3549 0.3236
H23 H -0.2757 -0.3909 0.0983
H24 H -0.3054 -0.3497 -0.0339
H25 H -0.1711 -0.3542 0.0672
loop_
_geom_bond_atom_site_label_1
_geom_bond_atom_site_label_2
_geom_bond_site_symmetry_1
_geom_bond_site_symmetry_2
F1 C12 1_555 1_555
O1 C1 1_555 1_555
O2 C1 1_555 1_555
O3 C3 1_555 1_555
N1 C16 1_555 1_555
N2 C11 1_555 1_555
N3 C3 1_555 1_555
C1 C2 1_555 1_555
C2 C3 1_555 1_555
C4 C2 1_555 1_555
C5 C4 1_555 1_555
C6 C5 1_555 1_555
C7 C6 1_555 1_555
C8 C6 1_555 1_555
C9 N3 1_555 1_555
C10 C9 1_555 1_555
C11 C10 1_555 1_555
C12 C11 1_555 1_555
C13 N3 1_555 1_555
C14 C10 1_555 1_555
C15 N2 1_555 1_555
C16 C15 1_555 1_555
C17 C16 1_555 1_555
C18 N2 1_555 1_555
H1 N1 1_555 1_555
H2 N1 1_555 1_555
H3 N1 1_555 1_555
H4 C4 1_555 1_555
H5 C6 1_555 1_555
H6 C7 1_555 1_555
H7 C7 1_555 1_555
H8 C8 1_555 1_555
H9 C8 1_555 1_555
H10 C13 1_555 1_555
H11 C14 1_555 1_555
H12 C14 1_555 1_555
H13 C14 1_555 1_555
H14 C15 1_555 1_555
H15 C15 1_555 1_555
H16 C16 1_555 1_555
H17 C17 1_555 1_555
H18 C17 1_555 1_555
H19 C18 1_555 1_555
H20 C18 1_555 1_555
O4 C19 1_555 1_555
C19 C20 1_555 1_555
C20 H23 1_555 1_555
H21 C19 1_555 1_555
H22 C19 1_555 1_555
H24 C20 1_555 1_555
H25 C20 1_555 1_555
C5 C9 1_555 1_555
C7 C8 1_555 1_555
C12 C13 1_555 1_555
C17 C18 1_555 1_555

#END
