
#######################################################################
#
#                 Cambridge Crystallographic Data Centre
#                                CCDC 
#
#######################################################################
#
# If this CIF has been generated from an entry in the Cambridge 
# Structural Database, then it will include bibliographic, chemical, 
# crystal, experimental, refinement or atomic coordinate data resulting 
# from the CCDC's data processing and validation procedures.
#
#######################################################################

data_TIXZOR
_chemical_formula_moiety         'C31 H30 B1 N1 S1,C7 H8'
_chemical_name_systematic        
'10-Mesityl-5,7-dimethyl-9,16a-dihydro-10H-dibenzo[4,5:6,7][1,2]azaborocino[8,1-b][1,3]benzothiazole toluene solvate'
_symmetry_cell_setting           monoclinic
_symmetry_space_group_name_H-M   'C c'
_symmetry_Int_Tables_number      9
_space_group_name_Hall           'C -2yc'
loop_
_symmetry_equiv_pos_site_id
_symmetry_equiv_pos_as_xyz
1 x,y,z
2 x,-y,1/2+z
3 1/2+x,1/2+y,z
4 1/2+x,1/2-y,1/2+z
_cell_length_a                   13.898(5)
_cell_length_b                   32.238(17)
_cell_length_c                   8.756(4)
_cell_angle_alpha                90
_cell_angle_beta                 127.814(19)
_cell_angle_gamma                90
_cell_volume                     3099.25
_exptl_crystal_colour            colorless
_exptl_crystal_description       block
_cell_formula_units_Z            4
loop_
_atom_site_label
_atom_site_type_symbol
_atom_site_fract_x
_atom_site_fract_y
_atom_site_fract_z
N1 N 0.1658(3) 0.14212(12) 0.7393(4)
S1 S 0.32854(10) 0.10630(4) 1.07786(13)
B1 B 0.1613(4) 0.16525(17) 0.5990(6)
C1 C 0.2288(3) 0.20871(14) 0.6483(5)
H1 H 0.1995 0.2241 0.5290
H2 H 0.2169 0.2260 0.7288
C2 C 0.3594(3) 0.19628(14) 0.7577(5)
C3 C 0.4385(3) 0.19105(15) 0.9591(5)
C4 C 0.5567(3) 0.17539(17) 1.0557(5)
C5 C 0.5947(4) 0.16436(17) 0.9455(6)
H3 H 0.6740 0.1532 1.0081
C6 C 0.5180(4) 0.16951(18) 0.7453(6)
C7 C 0.4036(4) 0.18478(15) 0.6545(5)
H4 H 0.3518 0.1878 0.5180
C8 C 0.6433(4) 0.16883(19) 1.2747(5)
H5 H 0.6970 0.1453 1.3055
H6 H 0.5959 0.1632 1.3211
H7 H 0.6925 0.1939 1.3377
C9 C 0.5630(4) 0.15757(19) 0.6289(6)
H8 H 0.6213 0.1347 0.6936
H9 H 0.6028 0.1815 0.6201
H10 H 0.4936 0.1489 0.4986
C10 C 0.0966(3) 0.14729(15) 0.3897(5)
C11 C -0.0157(3) 0.16620(14) 0.2377(5)
C12 C -0.0775(4) 0.15235(15) 0.0475(5)
H11 H -0.1532 0.1647 -0.0526
C13 C -0.0304(4) 0.12080(16) 0.0015(5)
C14 C 0.0796(4) 0.10341(16) 0.1491(5)
H12 H 0.1139 0.0824 0.1197
C15 C 0.1424(3) 0.11603(14) 0.3430(5)
C16 C -0.0690(4) 0.20036(16) 0.2797(6)
H13 H -0.1546 0.2043 0.1683
H14 H -0.0238 0.2261 0.3049
H15 H -0.0635 0.1931 0.3936
C17 C -0.0998(5) 0.10731(18) -0.2071(6)
H16 H -0.0631 0.0820 -0.2127
H17 H -0.0962 0.1293 -0.2806
H18 H -0.1849 0.1019 -0.2629
C18 C 0.2595(4) 0.09282(18) 0.4977(6)
H19 H 0.2998 0.1068 0.6225
H20 H 0.3141 0.0926 0.4621
H21 H 0.2397 0.0642 0.5074
C19 C 0.1314(4) 0.09901(15) 0.7173(5)
C20 C 0.0303(4) 0.07971(16) 0.5515(5)
H22 H -0.0264 0.0954 0.4380
C21 C 0.0146(5) 0.03770(18) 0.5564(7)
H23 H -0.0512 0.0243 0.4422
C22 C 0.0920(4) 0.01434(18) 0.7230(7)
H24 H 0.0772 -0.0144 0.7248
C23 C 0.1910(5) 0.03362(18) 0.8860(7)
H25 H 0.2463 0.0179 0.9999
C24 C 0.2101(4) 0.07577(16) 0.8843(6)
C25 C 0.2283(3) 0.15042(14) 0.9514(5)
H26 H 0.160(3) 0.1463(10) 0.969(4)
C26 C 0.2894(3) 0.19141(14) 1.0425(5)
C27 C 0.2476(3) 0.21287(15) 1.1313(5)
H27 H 0.1778 0.2027 1.1157
C28 C 0.3035(4) 0.24770(16) 1.2391(6)
H28 H 0.2719 0.2616 1.2954
C29 C 0.4049(4) 0.26270(16) 1.2664(5)
H29 H 0.4446 0.2867 1.3436
C30 C 0.4505(4) 0.24272(15) 1.1808(5)
H30 H 0.5207 0.2534 1.1993
C31 C 0.3927(3) 0.20664(15) 1.0664(5)
loop_
_geom_bond_atom_site_label_1
_geom_bond_atom_site_label_2
_geom_bond_site_symmetry_1
_geom_bond_site_symmetry_2
N1 B1 1_555 1_555
S1 C24 1_555 1_555
B1 C1 1_555 1_555
C1 H1 1_555 1_555
H2 C1 1_555 1_555
C2 C1 1_555 1_555
C3 C2 1_555 1_555
C4 C3 1_555 1_555
C5 C4 1_555 1_555
H3 C5 1_555 1_555
C6 C5 1_555 1_555
C7 C2 1_555 1_555
H4 C7 1_555 1_555
C8 C4 1_555 1_555
H5 C8 1_555 1_555
H6 C8 1_555 1_555
H7 C8 1_555 1_555
C9 C6 1_555 1_555
H8 C9 1_555 1_555
H9 C9 1_555 1_555
H10 C9 1_555 1_555
C10 B1 1_555 1_555
C11 C10 1_555 1_555
C12 C11 1_555 1_555
H11 C12 1_555 1_555
C13 C12 1_555 1_555
C14 C13 1_555 1_555
H12 C14 1_555 1_555
C15 C10 1_555 1_555
C16 C11 1_555 1_555
H13 C16 1_555 1_555
H14 C16 1_555 1_555
H15 C16 1_555 1_555
C17 C13 1_555 1_555
H16 C17 1_555 1_555
H17 C17 1_555 1_555
H18 C17 1_555 1_555
C18 C15 1_555 1_555
H19 C18 1_555 1_555
H20 C18 1_555 1_555
H21 C18 1_555 1_555
C19 N1 1_555 1_555
C20 C19 1_555 1_555
H22 C20 1_555 1_555
C21 C20 1_555 1_555
H23 C21 1_555 1_555
C22 C21 1_555 1_555
H24 C22 1_555 1_555
C23 C22 1_555 1_555
H25 C23 1_555 1_555
C24 C19 1_555 1_555
C25 N1 1_555 1_555
H26 C25 1_555 1_555
C26 C25 1_555 1_555
C27 C26 1_555 1_555
H27 C27 1_555 1_555
C28 C27 1_555 1_555
H28 C28 1_555 1_555
C29 C28 1_555 1_555
H29 C29 1_555 1_555
C30 C29 1_555 1_555
H30 C30 1_555 1_555
C31 C3 1_555 1_555
S1 C25 1_555 1_555
C6 C7 1_555 1_555
C14 C15 1_555 1_555
C23 C24 1_555 1_555
C26 C31 1_555 1_555
C30 C31 1_555 1_555

#END
