
#######################################################################
#
#                 Cambridge Crystallographic Data Centre
#                                CCDC 
#
#######################################################################
#
# If this CIF has been generated from an entry in the Cambridge 
# Structural Database, then it will include bibliographic, chemical, 
# crystal, experimental, refinement or atomic coordinate data resulting 
# from the CCDC's data processing and validation procedures.
#
#######################################################################

data_TIYDEM
_chemical_formula_moiety         'C2 H2 Br2 N4 O4'
_chemical_name_systematic        N',2-Dibromo-2,2-dinitroethanimidamide
_symmetry_cell_setting           orthorhombic
_symmetry_space_group_name_H-M   'P b c n'
_symmetry_Int_Tables_number      60
_space_group_name_Hall           '-P 2n 2ab'
loop_
_symmetry_equiv_pos_site_id
_symmetry_equiv_pos_as_xyz
1 x,y,z
2 1/2+x,1/2-y,-z
3 -x,y,1/2-z
4 1/2-x,1/2-y,1/2+z
5 -x,-y,-z
6 1/2-x,1/2+y,z
7 x,-y,1/2+z
8 1/2+x,1/2+y,1/2-z
_cell_length_a                   10.1648(10)
_cell_length_b                   10.6545(10)
_cell_length_c                   14.6781(13)
_cell_angle_alpha                90
_cell_angle_beta                 90
_cell_angle_gamma                90
_cell_volume                     1589.65
_exptl_crystal_colour            colorless
_exptl_crystal_description       rod
_cell_formula_units_Z            8
loop_
_atom_site_label
_atom_site_type_symbol
_atom_site_fract_x
_atom_site_fract_y
_atom_site_fract_z
Br1 Br 0.87077(8) 0.53734(7) 0.84738(5)
N1 N 0.7704(5) 0.5292(5) 0.7402(4)
C1 C 0.7433(7) 0.6372(6) 0.7082(4)
N2 N 0.7787(8) 0.7510(5) 0.7373(4)
H1 H 0.8286 0.7587 0.7860
H2 H 0.7521 0.8183 0.7078
C2 C 0.6633(7) 0.6337(7) 0.6205(5)
Br2 Br 0.52896(11) 0.75595(12) 0.61692(6)
N3 N 0.6045(7) 0.5009(8) 0.6077(5)
O1 O 0.6629(9) 0.4307(6) 0.5578(4)
O2 O 0.5049(7) 0.4789(9) 0.6510(5)
N4 N 0.7550(7) 0.6496(5) 0.5368(4)
O3 O 0.7046(6) 0.6859(5) 0.4668(3)
O4 O 0.8682(5) 0.6220(5) 0.5488(4)
loop_
_geom_bond_atom_site_label_1
_geom_bond_atom_site_label_2
_geom_bond_site_symmetry_1
_geom_bond_site_symmetry_2
Br1 N1 1_555 1_555
N1 C1 1_555 1_555
C1 N2 1_555 1_555
N2 H1 1_555 1_555
H2 N2 1_555 1_555
C2 C1 1_555 1_555
Br2 C2 1_555 1_555
N3 C2 1_555 1_555
O1 N3 1_555 1_555
O2 N3 1_555 1_555
N4 C2 1_555 1_555
O3 N4 1_555 1_555
O4 N4 1_555 1_555

#END
