
#######################################################################
#
#                 Cambridge Crystallographic Data Centre
#                                CCDC 
#
#######################################################################
#
# If this CIF has been generated from an entry in the Cambridge 
# Structural Database, then it will include bibliographic, chemical, 
# crystal, experimental, refinement or atomic coordinate data resulting 
# from the CCDC's data processing and validation procedures.
#
#######################################################################

data_TIYQOJ
_chemical_formula_moiety         'C18 H24 N2 O2,2(C1 H2 Cl2)'
_chemical_name_systematic        
'(3-(2,6-Diisopropylphenyl)-1-methyl-1H-imidazol-3-ium-2-yl)acetate dichloromethane solvate'
_symmetry_cell_setting           triclinic
_symmetry_space_group_name_H-M   'P -1'
_symmetry_Int_Tables_number      2
_space_group_name_Hall           '-P 1'
loop_
_symmetry_equiv_pos_site_id
_symmetry_equiv_pos_as_xyz
1 x,y,z
2 -x,-y,-z
_cell_length_a                   9.7049(2)
_cell_length_b                   10.8957(3)
_cell_length_c                   12.1847(3)
_cell_angle_alpha                107.104(2)
_cell_angle_beta                 102.097(2)
_cell_angle_gamma                99.967(2)
_cell_volume                     1165.51
_exptl_crystal_colour            colorless
_exptl_crystal_description       block
_cell_formula_units_Z            2
loop_
_atom_site_label
_atom_site_type_symbol
_atom_site_fract_x
_atom_site_fract_y
_atom_site_fract_z
Cl1 Cl 0.65232(7) 0.02660(7) 0.45966(6)
Cl2 Cl 0.85253(11) -0.10733(9) 0.35441(7)
C1 C 0.7835(3) 0.0327(3) 0.3795(3)
H1 H 0.7398 0.0404 0.3034
H2 H 0.8629 0.1111 0.4239
N1 N 0.58978(19) -0.20025(17) 0.74926(16)
C2 C 0.7565(2) -0.1989(2) 0.93079(19)
C3 C 0.7022(2) 0.0094(2) 0.91412(19)
O1 O 0.99156(19) -0.25988(17) 0.64332(17)
C4 C 0.7763(2) -0.1845(2) 0.6369(2)
H3 H 0.8328 -0.1108 0.7085
H4 H 0.7709 -0.1533 0.5697
N2 N 0.5077(2) -0.29745(17) 0.55898(16)
O2 O 0.77990(19) -0.41266(16) 0.58149(16)
C5 C 0.6874(2) -0.1273(2) 0.86842(18)
C6 C 0.8572(2) -0.2974(2) 0.61967(19)
C7 C 0.6281(3) 0.0847(2) 0.8434(2)
H5 H 0.5647 0.0195 0.7676
C8 C 0.6283(2) -0.2250(2) 0.64703(18)
C9 C 0.8444(2) -0.1259(2) 1.0468(2)
H6 H 0.8926 -0.1692 1.0919
C10 C 0.7362(3) -0.3480(2) 0.8789(2)
H7 H 0.6971 -0.3752 0.7920
C11 C 0.7918(2) 0.0759(2) 1.0303(2)
H8 H 0.8052 0.1670 1.0643
C12 C 0.8610(2) 0.0087(2) 1.0955(2)
H9 H 0.9195 0.0548 1.1730
C13 C 0.3923(2) -0.3177(2) 0.6062(2)
H10 H 0.2970 -0.3646 0.5637
C14 C 0.4427(2) -0.2573(2) 0.7249(2)
H11 H 0.3892 -0.2542 0.7802
C15 C 0.4994(3) -0.3485(2) 0.4313(2)
H12 H 0.5937 -0.3217 0.4204
H13 H 0.4313 -0.3135 0.3878
H14 H 0.4678 -0.4436 0.4021
C16 C 0.6257(3) -0.4209(3) 0.9253(3)
H15 H 0.5362 -0.3949 0.9086
H16 H 0.6631 -0.3990 1.0099
H17 H 0.6081 -0.5149 0.8864
C17 C 0.5327(3) 0.1595(3) 0.9077(3)
H18 H 0.4643 0.0988 0.9258
H19 H 0.4810 0.1993 0.8572
H20 H 0.5927 0.2274 0.9805
C18 C 0.7378(3) 0.1785(3) 0.8143(3)
H21 H 0.7961 0.1297 0.7730
H22 H 0.7994 0.2455 0.8869
H23 H 0.6873 0.2195 0.7644
C19 C 0.8787(3) -0.3882(3) 0.9038(3)
H24 H 0.9470 -0.3419 0.8738
H25 H 0.8617 -0.4821 0.8649
H26 H 0.9175 -0.3660 0.9883
Cl3 Cl 0.08197(8) 0.67465(7) 0.35120(7)
Cl4 Cl -0.20174(9) 0.50092(10) 0.21578(9)
C20 C -0.0559(3) 0.5427(3) 0.3450(2)
H27 H -0.0905 0.5681 0.4155
H28 H -0.0170 0.4662 0.3438
loop_
_geom_bond_atom_site_label_1
_geom_bond_atom_site_label_2
_geom_bond_site_symmetry_1
_geom_bond_site_symmetry_2
Cl1 C1 1_555 1_555
Cl2 C1 1_555 1_555
C1 H1 1_555 1_555
H2 C1 1_555 1_555
N1 C5 1_555 1_555
C2 C5 1_555 1_555
C3 C5 1_555 1_555
O1 C6 1_555 1_555
C4 H3 1_555 1_555
H4 C4 1_555 1_555
N2 C8 1_555 1_555
O2 C6 1_555 1_555
C6 C4 1_555 1_555
C7 C3 1_555 1_555
H5 C7 1_555 1_555
C8 N1 1_555 1_555
C9 C2 1_555 1_555
H6 C9 1_555 1_555
C10 C2 1_555 1_555
H7 C10 1_555 1_555
C11 C3 1_555 1_555
H8 C11 1_555 1_555
C12 C9 1_555 1_555
H9 C12 1_555 1_555
C13 N2 1_555 1_555
H10 C13 1_555 1_555
C14 N1 1_555 1_555
H11 C14 1_555 1_555
C15 N2 1_555 1_555
H12 C15 1_555 1_555
H13 C15 1_555 1_555
H14 C15 1_555 1_555
C16 C10 1_555 1_555
H15 C16 1_555 1_555
H16 C16 1_555 1_555
H17 C16 1_555 1_555
C17 C7 1_555 1_555
H18 C17 1_555 1_555
H19 C17 1_555 1_555
H20 C17 1_555 1_555
C18 C7 1_555 1_555
H21 C18 1_555 1_555
H22 C18 1_555 1_555
H23 C18 1_555 1_555
C19 C10 1_555 1_555
H24 C19 1_555 1_555
H25 C19 1_555 1_555
H26 C19 1_555 1_555
Cl3 C20 1_555 1_555
Cl4 C20 1_555 1_555
C20 H27 1_555 1_555
H28 C20 1_555 1_555
C4 C8 1_555 1_555
C11 C12 1_555 1_555
C13 C14 1_555 1_555

#END
