
#######################################################################
#
#                 Cambridge Crystallographic Data Centre
#                                CCDC 
#
#######################################################################
#
# If this CIF has been generated from an entry in the Cambridge 
# Structural Database, then it will include bibliographic, chemical, 
# crystal, experimental, refinement or atomic coordinate data resulting 
# from the CCDC's data processing and validation procedures.
#
#######################################################################

data_TOBXIT
_chemical_formula_moiety         'C16 H14 O6'
_chemical_name_systematic        
2-(3,4-Dihydroxyphenyl)-5-hydroxy-7-methoxy-2,3-dihydro-4H-chromen-4-one
_symmetry_cell_setting           orthorhombic
_symmetry_space_group_name_H-M   'P c a 21'
_symmetry_Int_Tables_number      29
_space_group_name_Hall           'P 2c -2ac'
loop_
_symmetry_equiv_pos_site_id
_symmetry_equiv_pos_as_xyz
1 x,y,z
2 -x,-y,1/2+z
3 1/2+x,-y,z
4 1/2-x,y,1/2+z
_cell_length_a                   14.393(3)
_cell_length_b                   5.1629(12)
_cell_length_c                   36.919(9)
_cell_angle_alpha                90
_cell_angle_beta                 90
_cell_angle_gamma                90
_cell_volume                     2743.44
_exptl_crystal_colour            colorless
_exptl_crystal_description       block
_cell_formula_units_Z            8
loop_
_atom_site_label
_atom_site_type_symbol
_atom_site_fract_x
_atom_site_fract_y
_atom_site_fract_z
O1 O 0.6646(4) 0.4877(9) 0.54120(15)
H1 H 0.6603 0.6198 0.5534
O2 O 0.6843(3) 0.1422(10) 0.48975(14)
H2 H 0.6985 0.0404 0.4736
O3 O 0.9718(3) 0.6693(9) 0.42553(10)
O4 O 1.1971(3) 0.1987(9) 0.43452(12)
O5 O 1.2726(4) 0.4426(13) 0.37994(18)
H3 H 1.2657 0.3243 0.3945
O6 O 1.0931(3) 1.0992(11) 0.32471(13)
C1 C 0.7401(4) 0.5037(12) 0.51979(19)
C2 C 0.7541(4) 0.3246(13) 0.49378(17)
C3 C 0.8328(5) 0.3302(14) 0.47223(19)
H4 H 0.8403 0.2115 0.4535
C4 C 0.9021(5) 0.5205(15) 0.4792(2)
C5 C 0.8862(5) 0.7020(16) 0.5047(2)
H5 H 0.9287 0.8352 0.5084
C6 C 0.8063(5) 0.6879(13) 0.5253(2)
H6 H 0.7974 0.8090 0.5436
C7 C 0.9957(5) 0.5436(17) 0.4610(2)
H7 H 1.0327 0.6676 0.4750
C8 C 1.0487(4) 0.3255(14) 0.45618(16)
H8 H 1.0085 0.1886 0.4473
H9 H 1.0717 0.2716 0.4797
C9 C 1.1287(4) 0.3467(13) 0.43133(18)
C10 C 1.1244(5) 0.5398(14) 0.40483(17)
C11 C 1.0449(4) 0.7024(13) 0.40145(15)
C12 C 1.0369(4) 0.8796(13) 0.37439(15)
H10 H 0.9830 0.9779 0.3723
C13 C 1.1076(5) 0.9138(14) 0.35024(18)
C14 C 1.1893(5) 0.7649(14) 0.35198(18)
H11 H 1.2374 0.7907 0.3356
C15 C 1.1959(5) 0.5818(16) 0.3784(2)
C16 C 1.1673(6) 1.140(2) 0.2992(3)
H12 H 1.1489 1.2682 0.2818
H13 H 1.1809 0.9803 0.2870
H14 H 1.2217 1.1984 0.3119
O7 O 1.0879(4) 0.0184(9) 0.55955(15)
H15 H 1.1161 -0.1188 0.5615
O8 O 1.0723(3) -0.3450(10) 0.61119(14)
H16 H 1.0733 -0.4049 0.6318
O9 O 0.7802(3) 0.1765(10) 0.67914(12)
O10 O 0.5576(3) -0.3266(10) 0.66713(12)
O11 O 0.4811(4) -0.1064(14) 0.72310(16)
H17 H 0.4913 -0.2408 0.7119
O12 O 0.6544(3) 0.5535(13) 0.77985(16)
C17 C 1.0074(5) 0.0103(11) 0.5810(2)
C18 C 1.0019(5) -0.1787(12) 0.60821(18)
C19 C 0.9274(5) -0.1860(13) 0.63032(19)
H18 H 0.9216 -0.3170 0.6475
C20 C 0.8580(6) 0.0074(17) 0.6273(3)
C21 C 0.8644(5) 0.1900(15) 0.5992(2)
H19 H 0.8169 0.3097 0.5959
C22 C 0.9395(4) 0.1942(13) 0.57658(18)
H20 H 0.9445 0.3192 0.5586
C23 C 0.7759(4) -0.0277(13) 0.65142(18)
H21 H 0.8088 -0.1520 0.6669
C24 C 0.7051(5) -0.1918(17) 0.6457(2)
H22 H 0.7292 -0.3669 0.6472
H23 H 0.6831 -0.1660 0.6211
C25 C 0.6250(5) -0.1734(14) 0.67006(18)
C26 C 0.6301(5) 0.0105(12) 0.6996(2)
C27 C 0.7082(4) 0.1751(14) 0.70228(17)
C28 C 0.7156(5) 0.3580(14) 0.72935(18)
H24 H 0.7671 0.4659 0.7313
C29 C 0.6416(5) 0.3721(14) 0.75366(18)
C30 C 0.5671(5) 0.2167(15) 0.75203(19)
H25 H 0.5211 0.2271 0.7696
C31 C 0.5593(5) 0.0397(15) 0.7238(2)
C32 C 0.5813(6) 0.600(2) 0.8056(2)
H26 H 0.5991 0.7394 0.8214
H27 H 0.5708 0.4464 0.8196
H28 H 0.5254 0.6461 0.7930
loop_
_geom_bond_atom_site_label_1
_geom_bond_atom_site_label_2
_geom_bond_site_symmetry_1
_geom_bond_site_symmetry_2
O1 H1 1_555 1_555
O2 H2 1_555 1_555
O3 C7 1_555 1_555
O4 C9 1_555 1_555
O5 H3 1_555 1_555
O6 C13 1_555 1_555
C1 O1 1_555 1_555
C2 O2 1_555 1_555
C3 C2 1_555 1_555
H4 C3 1_555 1_555
C4 C3 1_555 1_555
C5 C4 1_555 1_555
H5 C5 1_555 1_555
C6 C1 1_555 1_555
H6 C6 1_555 1_555
C7 C4 1_555 1_555
H7 C7 1_555 1_555
C8 C7 1_555 1_555
H8 C8 1_555 1_555
H9 C8 1_555 1_555
C9 C8 1_555 1_555
C10 C9 1_555 1_555
C11 O3 1_555 1_555
C12 C11 1_555 1_555
H10 C12 1_555 1_555
C13 C12 1_555 1_555
C14 C13 1_555 1_555
H11 C14 1_555 1_555
C15 O5 1_555 1_555
C16 O6 1_555 1_555
H12 C16 1_555 1_555
H13 C16 1_555 1_555
H14 C16 1_555 1_555
O7 H15 1_555 1_555
O8 H16 1_555 1_555
O9 C23 1_555 1_555
O10 C25 1_555 1_555
O11 H17 1_555 1_555
O12 C29 1_555 1_555
C17 O7 1_555 1_555
C18 O8 1_555 1_555
C19 C18 1_555 1_555
H18 C19 1_555 1_555
C20 C19 1_555 1_555
C21 C20 1_555 1_555
H19 C21 1_555 1_555
C22 C17 1_555 1_555
H20 C22 1_555 1_555
C23 C20 1_555 1_555
H21 C23 1_555 1_555
C24 C23 1_555 1_555
H22 C24 1_555 1_555
H23 C24 1_555 1_555
C25 C24 1_555 1_555
C26 C25 1_555 1_555
C27 O9 1_555 1_555
C28 C27 1_555 1_555
H24 C28 1_555 1_555
C29 C28 1_555 1_555
C30 C29 1_555 1_555
H25 C30 1_555 1_555
C31 O11 1_555 1_555
C32 O12 1_555 1_555
H26 C32 1_555 1_555
H27 C32 1_555 1_555
H28 C32 1_555 1_555
C1 C2 1_555 1_555
C5 C6 1_555 1_555
C10 C11 1_555 1_555
C10 C15 1_555 1_555
C14 C15 1_555 1_555
C17 C18 1_555 1_555
C21 C22 1_555 1_555
C26 C27 1_555 1_555
C26 C31 1_555 1_555
C30 C31 1_555 1_555

#END
