
#######################################################################
#
#                 Cambridge Crystallographic Data Centre
#                                CCDC 
#
#######################################################################
#
# If this CIF has been generated from an entry in the Cambridge 
# Structural Database, then it will include bibliographic, chemical, 
# crystal, experimental, refinement or atomic coordinate data resulting 
# from the CCDC's data processing and validation procedures.
#
#######################################################################

data_TOFXUH
_chemical_formula_moiety         'C6 H16 B10'
_chemical_name_systematic        
1,2-(But-2'-ene-1',4'-diyl)-1,2-dicarbadodecaborane
_symmetry_cell_setting           orthorhombic
_symmetry_space_group_name_H-M   'P b c a'
_symmetry_Int_Tables_number      61
_space_group_name_Hall           '-P 2ac 2ab'
loop_
_symmetry_equiv_pos_site_id
_symmetry_equiv_pos_as_xyz
1 x,y,z
2 1/2-x,-y,1/2+z
3 1/2+x,1/2-y,-z
4 -x,1/2+y,1/2-z
5 -x,-y,-z
6 1/2+x,y,1/2-z
7 1/2-x,1/2+y,z
8 x,1/2-y,1/2+z
_cell_length_a                   14.226(4)
_cell_length_b                   18.203(5)
_cell_length_c                   18.339(5)
_cell_angle_alpha                90
_cell_angle_beta                 90
_cell_angle_gamma                90
_cell_volume                     4748.99
_exptl_crystal_colour            colorless
_cell_formula_units_Z            16
loop_
_atom_site_label
_atom_site_type_symbol
_atom_site_fract_x
_atom_site_fract_y
_atom_site_fract_z
C1 C 0.06469(7) 0.75290(6) 0.03955(5)
C2 C -0.05141(7) 0.74718(5) 0.03096(5)
B1 B 0.00760(8) 0.81632(6) -0.01427(6)
B2 B 0.11575(8) 0.77662(7) -0.04159(6)
B3 B 0.11871(8) 0.68468(7) -0.00850(6)
B4 B 0.01266(8) 0.66749(6) 0.03959(6)
B5 B -0.08496(8) 0.76657(7) -0.05626(6)
B6 B 0.02109(8) 0.78381(7) -0.10485(6)
B7 B 0.09036(9) 0.70207(7) -0.10120(6)
B8 B 0.02664(9) 0.63433(7) -0.05053(6)
B9 B -0.08147(8) 0.67461(6) -0.02316(6)
B10 B -0.03405(9) 0.69601(7) -0.11025(6)
C3 C -0.11282(8) 0.76882(7) 0.09531(6)
C4 C -0.0598(1) 0.78958(7) 0.16282(7)
C5 C 0.0328(1) 0.79406(8) 0.16989(7)
C6 C 0.10463(9) 0.77998(7) 0.11166(6)
H1 H 0.0016(9) 0.8705(8) 0.0064(8)
H2 H 0.176(1) 0.8093(8) -0.0379(8)
H3 H 0.182(1) 0.6628(8) 0.0139(8)
H4 H 0.0088(9) 0.6390(8) 0.0883(8)
H5 H -0.153(1) 0.7928(8) -0.0638(8)
H6 H 0.024(1) 0.8222(8) -0.1490(8)
H7 H 0.139(1) 0.6875(8) -0.1439(8)
H8 H 0.035(1) 0.5768(8) -0.0604(8)
H9 H -0.146(1) 0.6477(8) -0.0103(8)
H10 H -0.068(1) 0.6770(8) -0.1588(8)
H11 H -0.156(1) 0.7273(9) 0.1059(9)
H12 H -0.150(1) 0.8114(9) 0.0789(9)
H13 H -0.100(1) 0.800(1) 0.203(1)
H14 H 0.056(1) 0.806(1) 0.214(1)
H15 H 0.149(1) 0.7414(9) 0.1286(8)
H16 H 0.142(1) 0.8262(9) 0.1023(9)
C7 C 0.28621(7) 0.01499(5) 0.18933(5)
C8 C 0.17142(7) 0.02293(5) 0.20381(5)
B11 B 0.22936(8) -0.05309(6) 0.23726(6)
B12 B 0.34139(8) -0.02035(6) 0.26429(7)
B13 B 0.34760(8) 0.07504(6) 0.24286(6)
B14 B 0.23954(8) 0.10090(6) 0.20224(6)
B15 B 0.14283(8) -0.00662(7) 0.28926(7)
B16 B 0.25108(8) -0.03272(7) 0.33035(6)
B17 B 0.32441(8) 0.04659(7) 0.33367(6)
B18 B 0.26128(9) 0.12208(7) 0.29467(6)
B19 B 0.14929(8) 0.08882(7) 0.26770(6)
B20 B 0.20158(9) 0.05529(7) 0.34889(6)
C9 C 0.10450(8) 0.01154(7) 0.14017(6)
C10 C 0.1515(1) -0.00103(7) 0.06821(7)
C11 C 0.2430(1) -0.00711(7) 0.05655(6)
C12 C 0.31964(9) -0.00319(7) 0.11270(6)
H17 H 0.218(1) -0.1035(8) 0.2093(8)
H18 H 0.401(1) -0.0548(8) 0.2528(8)
H19 H 0.411(1) 0.0969(8) 0.2205(7)
H20 H 0.234(1) 0.1353(8) 0.1557(8)
H21 H 0.077(1) -0.0313(8) 0.2963(8)
H22 H 0.256(1) -0.0767(8) 0.3706(8)
H23 H 0.377(1) 0.0542(8) 0.3767(8)
H24 H 0.272(1) 0.1771(8) 0.3117(8)
H25 H 0.087(1) 0.1202(8) 0.2600(8)
H26 H 0.170(1) 0.0694(8) 0.4010(8)
H27 H 0.063(1) 0.0561(9) 0.1365(8)
H28 H 0.065(1) -0.0304(9) 0.1521(9)
H29 H 0.108(1) -0.0068(9) 0.028(1)
H30 H 0.264(1) -0.015(1) 0.008(1)
H31 H 0.369(1) 0.0338(9) 0.0994(9)
H32 H 0.353(1) -0.0520(9) 0.1159(9)
loop_
_geom_bond_atom_site_label_1
_geom_bond_atom_site_label_2
_geom_bond_site_symmetry_1
_geom_bond_site_symmetry_2
C1 C2 1_555 1_555
C2 B1 1_555 1_555
B1 C1 1_555 1_555
B2 C1 1_555 1_555
B3 C1 1_555 1_555
B4 C1 1_555 1_555
B5 C2 1_555 1_555
B6 B1 1_555 1_555
B7 B2 1_555 1_555
B8 B3 1_555 1_555
B9 C2 1_555 1_555
B10 B5 1_555 1_555
C3 C2 1_555 1_555
C4 C3 1_555 1_555
C5 C4 1_555 1_555
C6 C1 1_555 1_555
C7 C8 1_555 1_555
C8 B11 1_555 1_555
B11 C7 1_555 1_555
B12 C7 1_555 1_555
B13 C7 1_555 1_555
B14 C7 1_555 1_555
B15 C8 1_555 1_555
B16 B11 1_555 1_555
B17 B12 1_555 1_555
B18 B13 1_555 1_555
B19 C8 1_555 1_555
B20 B15 1_555 1_555
C9 C8 1_555 1_555
C10 C9 1_555 1_555
C11 C10 1_555 1_555
C12 C7 1_555 1_555
H1 B1 1_555 1_555
H2 B2 1_555 1_555
H3 B3 1_555 1_555
H4 B4 1_555 1_555
H5 B5 1_555 1_555
H6 B6 1_555 1_555
H7 B7 1_555 1_555
H8 B8 1_555 1_555
H9 B9 1_555 1_555
H10 B10 1_555 1_555
H11 C3 1_555 1_555
H12 C3 1_555 1_555
H13 C4 1_555 1_555
H14 C5 1_555 1_555
H15 C6 1_555 1_555
H16 C6 1_555 1_555
H17 B11 1_555 1_555
H18 B12 1_555 1_555
H19 B13 1_555 1_555
H20 B14 1_555 1_555
H21 B15 1_555 1_555
H22 B16 1_555 1_555
H23 B17 1_555 1_555
H24 B18 1_555 1_555
H25 B19 1_555 1_555
H26 B20 1_555 1_555
H27 C9 1_555 1_555
H28 C9 1_555 1_555
H29 C10 1_555 1_555
H30 C11 1_555 1_555
H31 C12 1_555 1_555
H32 C12 1_555 1_555
C2 B4 1_555 1_555
B1 B5 1_555 1_555
B1 B2 1_555 1_555
B2 B6 1_555 1_555
B2 B3 1_555 1_555
B3 B7 1_555 1_555
B3 B4 1_555 1_555
B4 B9 1_555 1_555
B4 B8 1_555 1_555
B5 B9 1_555 1_555
B5 B6 1_555 1_555
B6 B10 1_555 1_555
B6 B7 1_555 1_555
B7 B8 1_555 1_555
B7 B10 1_555 1_555
B8 B9 1_555 1_555
B8 B10 1_555 1_555
B9 B10 1_555 1_555
C5 C6 1_555 1_555
C8 B14 1_555 1_555
B11 B15 1_555 1_555
B11 B12 1_555 1_555
B12 B16 1_555 1_555
B12 B13 1_555 1_555
B13 B17 1_555 1_555
B13 B14 1_555 1_555
B14 B19 1_555 1_555
B14 B18 1_555 1_555
B15 B19 1_555 1_555
B15 B16 1_555 1_555
B16 B20 1_555 1_555
B16 B17 1_555 1_555
B17 B18 1_555 1_555
B17 B20 1_555 1_555
B18 B19 1_555 1_555
B18 B20 1_555 1_555
B19 B20 1_555 1_555
C11 C12 1_555 1_555

#END
