
#######################################################################
#
#                 Cambridge Crystallographic Data Centre
#                                CCDC 
#
#######################################################################
#
# If this CIF has been generated from an entry in the Cambridge 
# Structural Database, then it will include bibliographic, chemical, 
# crystal, experimental, refinement or atomic coordinate data resulting 
# from the CCDC's data processing and validation procedures.
#
#######################################################################

data_TOFXOB
_chemical_name_common            Benzocarborane
_chemical_formula_moiety         'C6 H14 B10'
_chemical_name_systematic        
1,2-(Buta-1',3'-diene-1',4'-diyl)-1,2-dicarbadodecaborane
_symmetry_cell_setting           orthorhombic
_symmetry_space_group_name_H-M   'P c a 21'
_symmetry_Int_Tables_number      29
_space_group_name_Hall           'P 2c -2ac'
loop_
_symmetry_equiv_pos_site_id
_symmetry_equiv_pos_as_xyz
1 x,y,z
2 -x,-y,1/2+z
3 1/2-x,y,1/2+z
4 1/2+x,-y,z
_cell_length_a                   18.1213(9)
_cell_length_b                   8.961(7)
_cell_length_c                   14.165(8)
_cell_angle_alpha                90
_cell_angle_beta                 90
_cell_angle_gamma                90
_cell_volume                     2300.18
_exptl_crystal_colour            colorless
_cell_formula_units_Z            8
loop_
_atom_site_label
_atom_site_type_symbol
_atom_site_fract_x
_atom_site_fract_y
_atom_site_fract_z
C1 C 0.4642(1) 0.4936(3) 0.1181(2)
C2 C 0.4552(1) 0.5062(3) 0.2340(2)
B1 B 0.4599(1) 0.3286(3) 0.1834(2)
B2 B 0.5227(2) 0.3503(3) 0.0878(2)
B3 B 0.5514(2) 0.5412(3) 0.0835(2)
B4 B 0.5083(2) 0.6414(3) 0.1761(2)
B5 B 0.5073(2) 0.3731(3) 0.2896(2)
B6 B 0.5525(1) 0.2732(3) 0.1971(2)
B7 B 0.6095(2) 0.4027(4) 0.1359(2)
B8 B 0.6005(1) 0.5817(3) 0.1900(2)
B9 B 0.5363(1) 0.5621(3) 0.2851(2)
B10 B 0.6000(2) 0.4170(3) 0.2606(2)
C3 C 0.3813(1) 0.5519(3) 0.2672(2)
C4 C 0.3261(1) 0.5784(3) 0.2064(2)
C5 C 0.3343(2) 0.5686(3) 0.1046(2)
C6 C 0.3975(1) 0.5310(3) 0.0629(2)
H1 H 0.405(1) 0.274(3) 0.182(2)
H2 H 0.508(1) 0.292(3) 0.021(2)
H3 H 0.561(1) 0.600(3) 0.019(2)
H4 H 0.484(1) 0.753(3) 0.168(2)
H5 H 0.483(1) 0.331(3) 0.353(2)
H6 H 0.564(1) 0.151(3) 0.206(2)
H7 H 0.663(1) 0.368(3) 0.103(2)
H8 H 0.645(1) 0.666(3) 0.192(2)
H9 H 0.533(1) 0.634(3) 0.348(2)
H10 H 0.646(1) 0.383(3) 0.313(2)
H11 H 0.378(1) 0.561(3) 0.337(2)
H12 H 0.278(2) 0.606(3) 0.229(2)
H13 H 0.287(2) 0.593(3) 0.062(2)
H14 H 0.402(1) 0.526(3) -0.004(2)
C7 C 0.3104(1) 0.0240(2) 0.3668(2)
C8 C 0.3054(1) 0.0531(3) 0.4815(2)
B11 B 0.2992(1) 0.2069(3) 0.4066(2)
B12 B 0.2505(2) 0.1384(3) 0.3074(2)
B13 B 0.2306(2) -0.0548(3) 0.3255(2)
B14 B 0.2674(2) -0.1106(3) 0.4363(2)
B15 B 0.2421(2) 0.1879(3) 0.5081(2)
B16 B 0.2042(1) 0.2421(3) 0.3965(2)
B17 B 0.1617(2) 0.0816(3) 0.3452(2)
B18 B 0.1722(2) -0.0708(3) 0.4255(2)
B19 B 0.2223(2) -0.0045(3) 0.5255(2)
B20 B 0.1565(2) 0.1119(3) 0.4701(2)
C9 C 0.3766(1) 0.0404(3) 0.5333(2)
C10 C 0.4394(2) 0.0101(3) 0.4883(2)
C11 C 0.4434(2) -0.0190(3) 0.3883(2)
C12 C 0.3845(1) -0.0142(3) 0.3303(2)
H15 H 0.348(1) 0.275(3) 0.404(2)
H16 H 0.266(1) 0.174(3) 0.233(2)
H17 H 0.234(1) -0.130(3) 0.268(2)
H18 H 0.295(1) -0.209(3) 0.448(2)
H19 H 0.251(1) 0.263(3) 0.562(2)
H20 H 0.186(1) 0.368(3) 0.384(2)
H21 H 0.114(1) 0.091(3) 0.297(2)
H22 H 0.132(1) -0.168(3) 0.42(2)
H23 H 0.224(1) -0.047(3) 0.597(2)
H24 H 0.104(1) 0.146(3) 0.504(2)
H25 H 0.373(1) 0.057(3) 0.601(2)
H26 H 0.490(2) 0.007(3) 0.530(2)
H27 H 0.493(2) -0.039(3) 0.357(2)
H28 H 0.391(2) -0.031(3) 0.264(2)
loop_
_geom_bond_atom_site_label_1
_geom_bond_atom_site_label_2
_geom_bond_site_symmetry_1
_geom_bond_site_symmetry_2
C1 C2 1_555 1_555
C2 B1 1_555 1_555
B1 C1 1_555 1_555
B2 C1 1_555 1_555
B3 C1 1_555 1_555
B4 C1 1_555 1_555
B5 C2 1_555 1_555
B6 B1 1_555 1_555
B7 B2 1_555 1_555
B8 B3 1_555 1_555
B9 C2 1_555 1_555
B10 B5 1_555 1_555
C3 C2 1_555 1_555
C4 C3 1_555 1_555
C5 C4 1_555 1_555
C6 C1 1_555 1_555
C7 C8 1_555 1_555
C8 B11 1_555 1_555
B11 C7 1_555 1_555
B12 C7 1_555 1_555
B13 C7 1_555 1_555
B14 C7 1_555 1_555
B15 C8 1_555 1_555
B16 B11 1_555 1_555
B17 B12 1_555 1_555
B18 B13 1_555 1_555
B19 C8 1_555 1_555
B20 B15 1_555 1_555
C9 C8 1_555 1_555
C10 C9 1_555 1_555
C11 C10 1_555 1_555
C12 C7 1_555 1_555
H1 B1 1_555 1_555
H2 B2 1_555 1_555
H3 B3 1_555 1_555
H4 B4 1_555 1_555
H5 B5 1_555 1_555
H6 B6 1_555 1_555
H7 B7 1_555 1_555
H8 B8 1_555 1_555
H9 B9 1_555 1_555
H10 B10 1_555 1_555
H11 C3 1_555 1_555
H12 C4 1_555 1_555
H13 C5 1_555 1_555
H14 C6 1_555 1_555
H15 B11 1_555 1_555
H16 B12 1_555 1_555
H17 B13 1_555 1_555
H18 B14 1_555 1_555
H19 B15 1_555 1_555
H20 B16 1_555 1_555
H21 B17 1_555 1_555
H22 B18 1_555 1_555
H23 B19 1_555 1_555
H24 B20 1_555 1_555
H25 C9 1_555 1_555
H26 C10 1_555 1_555
H27 C11 1_555 1_555
H28 C12 1_555 1_555
C2 B4 1_555 1_555
B1 B5 1_555 1_555
B1 B2 1_555 1_555
B2 B6 1_555 1_555
B2 B3 1_555 1_555
B3 B7 1_555 1_555
B3 B4 1_555 1_555
B4 B9 1_555 1_555
B4 B8 1_555 1_555
B5 B9 1_555 1_555
B5 B6 1_555 1_555
B6 B10 1_555 1_555
B6 B7 1_555 1_555
B7 B8 1_555 1_555
B7 B10 1_555 1_555
B8 B9 1_555 1_555
B8 B10 1_555 1_555
B9 B10 1_555 1_555
C5 C6 1_555 1_555
C8 B14 1_555 1_555
B11 B15 1_555 1_555
B11 B12 1_555 1_555
B12 B16 1_555 1_555
B12 B13 1_555 1_555
B13 B17 1_555 1_555
B13 B14 1_555 1_555
B14 B19 1_555 1_555
B14 B18 1_555 1_555
B15 B19 1_555 1_555
B15 B16 1_555 1_555
B16 B20 1_555 1_555
B16 B17 1_555 1_555
B17 B18 1_555 1_555
B17 B20 1_555 1_555
B18 B19 1_555 1_555
B18 B20 1_555 1_555
B19 B20 1_555 1_555
C11 C12 1_555 1_555

#END
