
#######################################################################
#
#                 Cambridge Crystallographic Data Centre
#                                CCDC 
#
#######################################################################
#
# If this CIF has been generated from an entry in the Cambridge 
# Structural Database, then it will include bibliographic, chemical, 
# crystal, experimental, refinement or atomic coordinate data resulting 
# from the CCDC's data processing and validation procedures.
#
#######################################################################

data_TOHSIT
_chemical_name_common            
6,6'-(1,12-Dodecanediylbis(oxy))bis(3,6-dihydro-2H-pyran-3-ol)
_chemical_formula_moiety         'C22 H38 O6'
_chemical_name_systematic        
\a,\a-1,12-bis(2,3-Dideoxy-\a-D-glycero-pent-2-enopyranosyloxy)dodecane
_symmetry_cell_setting           orthorhombic
_symmetry_space_group_name_H-M   'P 21 21 21'
_symmetry_Int_Tables_number      19
_space_group_name_Hall           'P 2ac 2ab'
loop_
_symmetry_equiv_pos_site_id
_symmetry_equiv_pos_as_xyz
1 x,y,z
2 1/2-x,-y,1/2+z
3 -x,1/2+y,1/2-z
4 1/2+x,1/2-y,-z
_cell_length_a                   4.7947(3)
_cell_length_b                   10.1459(8)
_cell_length_c                   44.872(3)
_cell_angle_alpha                90
_cell_angle_beta                 90
_cell_angle_gamma                90
_cell_volume                     2182.87
_exptl_crystal_colour            colorless
_exptl_crystal_description       flake
_cell_formula_units_Z            4
loop_
_atom_site_label
_atom_site_type_symbol
_atom_site_fract_x
_atom_site_fract_y
_atom_site_fract_z
O1 O 0.5633(7) 1.1093(3) 0.28874(6)
O2 O 0.2789(7) 1.0720(3) 0.22598(6)
H1 H 0.4405 1.0430 0.2229
O3 O 0.4629(6) 0.9818(3) 0.33113(5)
O4 O 0.5453(6) 0.0515(3) 0.59568(5)
O5 O 0.4160(6) 0.0962(3) 0.64470(6)
O6 O 0.7199(6) -0.0152(4) 0.70183(6)
H2 H 0.5461 -0.0248 0.7029
C1 C 0.2872(9) 1.1338(5) 0.27884(9)
H3 H 0.2774 1.2238 0.2704
H4 H 0.1593 1.1300 0.2961
C2 C 0.1900(9) 1.0360(5) 0.25550(8)
H5 H -0.0185 1.0363 0.2556
C3 C 0.2827(11) 0.9004(5) 0.26316(9)
H6 H 0.2121 0.8281 0.2520
C4 C 0.4614(11) 0.8774(5) 0.28513(9)
H7 H 0.5090 0.7887 0.2897
C5 C 0.5893(10) 0.9847(4) 0.30280(8)
H8 H 0.7923 0.9649 0.3053
C6 C 0.5969(10) 1.0698(4) 0.35205(8)
H9 H 0.5627 1.1627 0.3464
H10 H 0.8007 1.0542 0.3523
C7 C 0.4723(9) 1.0412(4) 0.38238(8)
H11 H 0.2663 1.0421 0.3808
H12 H 0.5278 1.1117 0.3964
C8 C 0.5664(9) 0.9079(4) 0.39472(8)
H13 H 0.5233 0.8388 0.3798
H14 H 0.7714 0.9098 0.3974
C9 C 0.4319(9) 0.8702(4) 0.42422(8)
H15 H 0.2271 0.8654 0.4216
H16 H 0.4724 0.9391 0.4392
C10 C 0.5398(9) 0.7379(4) 0.43539(8)
H17 H 0.4972 0.6697 0.4203
H18 H 0.7452 0.7431 0.4373
C11 C 0.4190(9) 0.6945(4) 0.46502(8)
H19 H 0.2142 0.6858 0.4630
H20 H 0.4565 0.7634 0.4801
C12 C 0.5381(9) 0.5647(4) 0.47586(8)
H21 H 0.7429 0.5740 0.4778
H22 H 0.5019 0.4965 0.4606
C13 C 0.4216(9) 0.5172(4) 0.50540(8)
H23 H 0.4566 0.5855 0.5207
H24 H 0.2171 0.5068 0.5035
C14 C 0.5435(10) 0.3890(4) 0.51598(8)
H25 H 0.7474 0.3998 0.5184
H26 H 0.5122 0.3210 0.5005
C15 C 0.4213(9) 0.3407(4) 0.54521(8)
H27 H 0.4509 0.4092 0.5606
H28 H 0.2175 0.3293 0.5427
C16 C 0.5440(10) 0.2121(4) 0.55627(8)
H29 H 0.5165 0.1432 0.5409
H30 H 0.7471 0.2233 0.5593
C17 C 0.4127(10) 0.1681(4) 0.58489(8)
H31 H 0.4293 0.2390 0.5999
H32 H 0.2119 0.1505 0.5816
C18 C 0.4172(9) 0.0016(4) 0.62175(8)
H33 H 0.2191 -0.0202 0.6168
C19 C 0.5576(10) -0.1210(4) 0.63065(8)
H34 H 0.5271 -0.1987 0.6193
C20 C 0.7253(10) -0.1260(5) 0.65402(9)
H35 H 0.7996 -0.2086 0.6600
C21 C 0.8008(10) -0.0049(6) 0.67122(9)
H36 H 1.0088 0.0023 0.6708
C22 C 0.6875(10) 0.1162(5) 0.65628(9)
H37 H 0.6826 0.1894 0.6709
H38 H 0.8140 0.1421 0.6399
loop_
_geom_bond_atom_site_label_1
_geom_bond_atom_site_label_2
_geom_bond_site_symmetry_1
_geom_bond_site_symmetry_2
O1 C1 1_555 1_555
O2 H1 1_555 1_555
O3 C5 1_555 1_555
O4 C17 1_555 1_555
O5 C18 1_555 1_555
O6 H2 1_555 1_555
C1 H3 1_555 1_555
H4 C1 1_555 1_555
C2 O2 1_555 1_555
H5 C2 1_555 1_555
C3 C2 1_555 1_555
H6 C3 1_555 1_555
C4 C3 1_555 1_555
H7 C4 1_555 1_555
C5 O1 1_555 1_555
H8 C5 1_555 1_555
C6 O3 1_555 1_555
H9 C6 1_555 1_555
H10 C6 1_555 1_555
C7 C6 1_555 1_555
H11 C7 1_555 1_555
H12 C7 1_555 1_555
C8 C7 1_555 1_555
H13 C8 1_555 1_555
H14 C8 1_555 1_555
C9 C8 1_555 1_555
H15 C9 1_555 1_555
H16 C9 1_555 1_555
C10 C9 1_555 1_555
H17 C10 1_555 1_555
H18 C10 1_555 1_555
C11 C10 1_555 1_555
H19 C11 1_555 1_555
H20 C11 1_555 1_555
C12 C11 1_555 1_555
H21 C12 1_555 1_555
H22 C12 1_555 1_555
C13 C12 1_555 1_555
H23 C13 1_555 1_555
H24 C13 1_555 1_555
C14 C13 1_555 1_555
H25 C14 1_555 1_555
H26 C14 1_555 1_555
C15 C14 1_555 1_555
H27 C15 1_555 1_555
H28 C15 1_555 1_555
C16 C15 1_555 1_555
H29 C16 1_555 1_555
H30 C16 1_555 1_555
C17 C16 1_555 1_555
H31 C17 1_555 1_555
H32 C17 1_555 1_555
C18 O4 1_555 1_555
H33 C18 1_555 1_555
C19 C18 1_555 1_555
H34 C19 1_555 1_555
C20 C19 1_555 1_555
H35 C20 1_555 1_555
C21 O6 1_555 1_555
H36 C21 1_555 1_555
C22 O5 1_555 1_555
H37 C22 1_555 1_555
H38 C22 1_555 1_555
C1 C2 1_555 1_555
C4 C5 1_555 1_555
C20 C21 1_555 1_555
C21 C22 1_555 1_555

#END
