
#######################################################################
#
#                 Cambridge Crystallographic Data Centre
#                                CCDC 
#
#######################################################################
#
# If this CIF has been generated from an entry in the Cambridge 
# Structural Database, then it will include bibliographic, chemical, 
# crystal, experimental, refinement or atomic coordinate data resulting 
# from the CCDC's data processing and validation procedures.
#
#######################################################################

data_TOJNEL
_chemical_formula_moiety         'C18 H20 N6'
_chemical_name_systematic        rac-\a,\b-bis(Benzotriazol-2-yl)hexane
_symmetry_cell_setting           monoclinic
_symmetry_space_group_name_H-M   'P 21/c'
_symmetry_Int_Tables_number      14
_space_group_name_Hall           '-P 2ybc'
loop_
_symmetry_equiv_pos_site_id
_symmetry_equiv_pos_as_xyz
1 x,y,z
2 -x,1/2+y,1/2-z
3 -x,-y,-z
4 x,1/2-y,1/2+z
_cell_length_a                   9.102(2)
_cell_length_b                   9.292(1)
_cell_length_c                   20.257(3)
_cell_angle_alpha                90
_cell_angle_beta                 101.25(1)
_cell_angle_gamma                90
_cell_volume                     1680.33
_exptl_crystal_colour            colorless
_chemical_melting_point          180-183deg.C
_cell_formula_units_Z            4
loop_
_atom_site_label
_atom_site_type_symbol
_atom_site_fract_x
_atom_site_fract_y
_atom_site_fract_z
C1 C -0.4136(2) 0.4260(2) -0.0953(1)
C2 C -0.2804(2) 0.3244(2) -0.0901(1)
C3 C -0.1803(2) 0.3268(2) -0.0199(1)
C4 C -0.0428(2) 0.2278(2) -0.0131(1)
C5 C 0.0668(2) 0.2744(2) -0.0578(1)
C6 C 0.2196(2) 0.2029(2) -0.0394(1)
N1 N -0.3538(2) 0.1705(1) 0.0238(1)
N2 N -0.2672(2) 0.2871(1) 0.0312(1)
N3 N -0.2492(2) 0.3566(1) 0.0900(1)
C7 C -0.3334(2) 0.2769(2) 0.1248(1)
C8 C -0.3606(2) 0.2943(2) 0.1907(1)
C9 C -0.4526(2) 0.1962(2) 0.2122(1)
C10 C -0.5196(2) 0.0816(2) 0.1704(1)
C11 C -0.4950(2) 0.0619(2) 0.1063(1)
C12 C -0.3991(2) 0.1624(2) 0.0839(1)
N4 N 0.0136(2) 0.1102(1) 0.0963(1)
N5 N 0.0298(2) 0.2247(1) 0.0587(1)
N6 N 0.0972(2) 0.3404(1) 0.0894(1)
C13 C 0.1297(2) 0.2977(2) 0.1549(1)
C14 C 0.2004(2) 0.3721(2) 0.2135(1)
C15 C 0.2150(2) 0.2998(2) 0.2733(1)
C16 C 0.1628(2) 0.1568(2) 0.2773(1)
C17 C 0.0947(2) 0.0826(2) 0.2214(1)
C18 C 0.0781(2) 0.1551(2) 0.1590(1)
H1 H -0.4746(2) 0.4211(2) -0.1408(1)
H2 H -0.3775(2) 0.5246(2) -0.0858(1)
H3 H -0.4745(2) 0.3975(2) -0.0625(1)
H4 H -0.2204(2) 0.3524(2) -0.1238(1)
H5 H -0.3175(2) 0.2252(2) -0.1005(1)
H6 H -0.1435(2) 0.4276(2) -0.0105(1)
H7 H -0.0786(2) 0.1284(2) -0.0266(1)
H8 H 0.0225(2) 0.2513(2) -0.1052(1)
H9 H 0.0801(2) 0.3801(2) -0.0544(1)
H10 H 0.2838(2) 0.2371(2) -0.0698(1)
H11 H 0.2079(2) 0.0983(2) -0.0438(1)
H12 H 0.2656(2) 0.2272(2) 0.0071(1)
H13 H -0.3167(2) 0.3710(2) 0.2189(1)
H14 H -0.4724(2) 0.2047(2) 0.2564(1)
H15 H -0.5835(2) 0.0164(2) 0.1874(1)
H16 H -0.5399(2) -0.0149(2) 0.0786(1)
H17 H 0.2361(2) 0.4677(2) 0.2114(1)
H18 H 0.2617(2) 0.3470(2) 0.3135(1)
H19 H 0.1757(2) 0.1113(2) 0.3200(1)
H20 H 0.0600(2) -0.0132(2) 0.2244(1)
loop_
_geom_bond_atom_site_label_1
_geom_bond_atom_site_label_2
_geom_bond_site_symmetry_1
_geom_bond_site_symmetry_2
C1 C2 1_555 1_555
C2 C3 1_555 1_555
C3 C4 1_555 1_555
C4 C5 1_555 1_555
C5 C6 1_555 1_555
C6 H10 1_555 1_555
N1 N2 1_555 1_555
N2 C3 1_555 1_555
N3 N2 1_555 1_555
C7 N3 1_555 1_555
C8 C7 1_555 1_555
C9 C8 1_555 1_555
C10 C9 1_555 1_555
C11 C10 1_555 1_555
C12 N1 1_555 1_555
N4 N5 1_555 1_555
N5 C4 1_555 1_555
N6 N5 1_555 1_555
C13 N6 1_555 1_555
C14 C13 1_555 1_555
C15 C14 1_555 1_555
C16 C15 1_555 1_555
C17 C16 1_555 1_555
C18 N4 1_555 1_555
H1 C1 1_555 1_555
H2 C1 1_555 1_555
H3 C1 1_555 1_555
H4 C2 1_555 1_555
H5 C2 1_555 1_555
H6 C3 1_555 1_555
H7 C4 1_555 1_555
H8 C5 1_555 1_555
H9 C5 1_555 1_555
H11 C6 1_555 1_555
H12 C6 1_555 1_555
H13 C8 1_555 1_555
H14 C9 1_555 1_555
H15 C10 1_555 1_555
H16 C11 1_555 1_555
H17 C14 1_555 1_555
H18 C15 1_555 1_555
H19 C16 1_555 1_555
H20 C17 1_555 1_555
C7 C12 1_555 1_555
C11 C12 1_555 1_555
C13 C18 1_555 1_555
C17 C18 1_555 1_555

#END
