
#######################################################################
#
#                 Cambridge Crystallographic Data Centre
#                                CCDC 
#
#######################################################################
#
# If this CIF has been generated from an entry in the Cambridge 
# Structural Database, then it will include bibliographic, chemical, 
# crystal, experimental, refinement or atomic coordinate data resulting 
# from the CCDC's data processing and validation procedures.
#
#######################################################################

data_TOKDEE
_chemical_formula_moiety         'C22 H19 Cl1 N2 O4 S1'
_chemical_name_systematic        
"ethyl 5''-chloro-1'-methyl-2'',3-dioxo-1'',2''-dihydro-3H-dispiro[1-benzothiophene-2,3'-pyrrolidine-2',3''-indole]-4'-carboxylate"
_symmetry_cell_setting           triclinic
_symmetry_space_group_name_H-M   'P -1'
_symmetry_Int_Tables_number      2
_space_group_name_Hall           '-P 1'
loop_
_symmetry_equiv_pos_site_id
_symmetry_equiv_pos_as_xyz
1 x,y,z
2 -x,-y,-z
_cell_length_a                   10.4678(5)
_cell_length_b                   10.9074(5)
_cell_length_c                   11.5652(5)
_cell_angle_alpha                85.973(2)
_cell_angle_beta                 65.612(2)
_cell_angle_gamma                62.089(2)
_cell_volume                     1050.25
_exptl_crystal_colour            colorless
_exptl_crystal_description       Block
_cell_formula_units_Z            2
loop_
_atom_site_label
_atom_site_type_symbol
_atom_site_fract_x
_atom_site_fract_y
_atom_site_fract_z
Cl1 Cl 0.78453(7) -0.07384(7) 0.27294(5)
S1 S 0.47022(6) 0.40379(5) 0.61542(4)
O1 O 0.24464(18) 0.30234(17) 0.93183(14)
O2 O 0.5511(2) 0.14387(16) 0.96174(13)
O3 O 0.5065(3) 0.6187(2) 0.8095(3)
O4 O 0.2715(3) 0.62165(17) 0.89290(19)
N1 N 0.5579(2) -0.00867(18) 0.83019(16)
H1 H 0.534(3) -0.054(2) 0.886(2)
N2 N 0.7301(2) 0.20503(19) 0.70036(16)
C1 C 0.0252(3) 0.4697(2) 0.8114(2)
H2 H -0.0287 0.4448 0.8874
C2 C -0.0533(3) 0.5469(3) 0.7396(3)
H3 H -0.1613 0.5752 0.7672
C3 C 0.0283(3) 0.5822(3) 0.6265(3)
H4 H -0.0262 0.6340 0.5788
C4 C 0.1878(3) 0.5431(3) 0.5823(2)
H5 H 0.2411 0.5676 0.5058
C5 C 0.2670(2) 0.4661(2) 0.65526(19)
C6 C 0.1862(2) 0.42945(19) 0.76880(18)
C7 C 0.2853(2) 0.34936(19) 0.83467(17)
C8 C 0.4562(2) 0.33081(19) 0.76494(16)
C9 C 0.4971(3) 0.4035(2) 0.84540(19)
H6 H 0.4533 0.3873 0.9344
C10 C 0.6786(3) 0.3230(3) 0.7914(2)
H7 H 0.7241 0.3823 0.7485
H8 H 0.7118 0.2898 0.8595
C11 C 0.5959(2) 0.17760(19) 0.73600(16)
C12 C 0.5630(2) 0.1056(2) 0.85934(18)
C13 C 0.6002(2) -0.03474(19) 0.69931(17)
C14 C 0.6242(2) 0.07240(18) 0.63836(16)
C15 C 0.6818(2) 0.0617(2) 0.50663(17)
H9 H 0.7009 0.1311 0.4639
C16 C 0.7104(2) -0.0557(2) 0.43996(18)
C17 C 0.6825(2) -0.1597(2) 0.5010(2)
H10 H 0.7014 -0.2364 0.4533
C18 C 0.6265(2) -0.1503(2) 0.6330(2)
H11 H 0.6074 -0.2198 0.6755
C19 C 0.8815(3) 0.0837(3) 0.6825(3)
H12 H 0.9067 0.0101 0.6227
H13 H 0.8732 0.0515 0.7634
H14 H 0.9647 0.1094 0.6496
C20 C 0.4289(4) 0.5589(3) 0.8460(3)
C21 C 0.1907(6) 0.7722(3) 0.8925(5)
H15 H 0.1867 0.8208 0.9620
H16 H 0.2502 0.7944 0.8122
C22 C 0.0345(5) 0.8180(3) 0.9074(5)
H17 H -0.0217 0.9186 0.9177
H18 H -0.0205 0.7869 0.9820
H19 H 0.0389 0.7797 0.8328
loop_
_geom_bond_atom_site_label_1
_geom_bond_atom_site_label_2
_geom_bond_site_symmetry_1
_geom_bond_site_symmetry_2
Cl1 C16 1_555 1_555
S1 C5 1_555 1_555
O1 C7 1_555 1_555
O2 C12 1_555 1_555
O3 C20 1_555 1_555
O4 C20 1_555 1_555
N1 H1 1_555 1_555
N2 C10 1_555 1_555
C1 H2 1_555 1_555
C2 C1 1_555 1_555
H3 C2 1_555 1_555
C3 C2 1_555 1_555
H4 C3 1_555 1_555
C4 C3 1_555 1_555
H5 C4 1_555 1_555
C5 C4 1_555 1_555
C6 C1 1_555 1_555
C7 C6 1_555 1_555
C8 S1 1_555 1_555
C9 C8 1_555 1_555
H6 C9 1_555 1_555
C10 C9 1_555 1_555
H7 C10 1_555 1_555
H8 C10 1_555 1_555
C11 N2 1_555 1_555
C12 N1 1_555 1_555
C13 N1 1_555 1_555
C14 C11 1_555 1_555
C15 C14 1_555 1_555
H9 C15 1_555 1_555
C16 C15 1_555 1_555
C17 C16 1_555 1_555
H10 C17 1_555 1_555
C18 C13 1_555 1_555
H11 C18 1_555 1_555
C19 N2 1_555 1_555
H12 C19 1_555 1_555
H13 C19 1_555 1_555
H14 C19 1_555 1_555
C20 C9 1_555 1_555
C21 O4 1_555 1_555
H15 C21 1_555 1_555
H16 C21 1_555 1_555
C22 C21 1_555 1_555
H17 C22 1_555 1_555
H18 C22 1_555 1_555
H19 C22 1_555 1_555
C5 C6 1_555 1_555
C7 C8 1_555 1_555
C8 C11 1_555 1_555
C11 C12 1_555 1_555
C13 C14 1_555 1_555
C17 C18 1_555 1_555

#END
