
#######################################################################
#
#                 Cambridge Crystallographic Data Centre
#                                CCDC 
#
#######################################################################
#
# If this CIF has been generated from an entry in the Cambridge 
# Structural Database, then it will include bibliographic, chemical, 
# crystal, experimental, refinement or atomic coordinate data resulting 
# from the CCDC's data processing and validation procedures.
#
#######################################################################

data_TOKGOP
_chemical_formula_moiety         'C6 H18 N3 O1 P1,C2 H12 B10'
_chemical_name_systematic        'Hexamethylphosphoramide m-dicarbadodecaborane'
_symmetry_cell_setting           monoclinic
_symmetry_space_group_name_H-M   'C c'
_symmetry_Int_Tables_number      9
_space_group_name_Hall           'C -2yc'
loop_
_symmetry_equiv_pos_site_id
_symmetry_equiv_pos_as_xyz
1 x,y,z
2 x,-y,1/2+z
3 1/2+x,1/2+y,z
4 1/2+x,1/2-y,1/2+z
_cell_length_a                   12.867(4)
_cell_length_b                   14.713(8)
_cell_length_c                   11.100(2)
_cell_angle_alpha                90
_cell_angle_beta                 111.41(3)
_cell_angle_gamma                90
_cell_volume                     1956.35
_exptl_crystal_colour            colorless
_cell_formula_units_Z            4
loop_
_atom_site_label
_atom_site_type_symbol
_atom_site_fract_x
_atom_site_fract_y
_atom_site_fract_z
B1 B 0.2570(5) 0.8497(3) 0.4962(5)
B2 B 0.2856(5) 0.7667(4) 0.6201(6)
C1 C 0.1567(4) 0.7772(3) 0.5032(5)
B3 B 0.1162(5) 0.8861(4) 0.4547(6)
B4 B 0.2273(5) 0.9533(4) 0.5586(6)
C2 C 0.3200(3) 0.8768(3) 0.6544(4)
B5 B 0.1636(7) 0.7523(4) 0.6551(8)
B6 B 0.2731(6) 0.8183(4) 0.7581(6)
B7 B 0.2359(4) 0.9335(4) 0.7184(5)
B8 B 0.1051(5) 0.9380(4) 0.5945(6)
B9 B 0.0591(5) 0.8263(5) 0.5525(7)
B10 B 0.1338(5) 0.8551(4) 0.7177(7)
H1 H 0.3095(36) 0.8407(30) 0.4349(43)
H2 H 0.3527(40) 0.7146(32) 0.6245(47)
H3 H 0.1331(38) 0.7343(34) 0.4371(47)
H4 H 0.0707(40) 0.9070(32) 0.3551(50)
H5 H 0.2567(35) 1.0184(31) 0.5326(41)
H6 H 0.4107(41) 0.8909(33) 0.6932(50)
H7 H 0.1329(56) 0.6878(42) 0.6699(64)
H8 H 0.3407(47) 0.8021(39) 0.8580(57)
H9 H 0.2662(42) 0.9814(34) 0.7842(50)
H10 H 0.0295(60) 0.9968(47) 0.5719(65)
H11 H -0.0235(46) 0.8030(38) 0.5201(52)
H12 H 0.1034(47) 0.8546(38) 0.7977(57)
O1 O 0.0900(2) 0.6235(2) 0.2670(3)
P1 P 0.1543(1) 0.6222(1) 0.1807(1)
N1 N 0.2704(4) 0.5631(3) 0.2406(4)
C3 C 0.3446(6) 0.5797(6) 0.3712(6)
C4 C 0.3117(5) 0.4987(5) 0.1772(8)
N2 N 0.0818(4) 0.5786(3) 0.0399(4)
C5 C 0.0917(8) 0.6063(4) -0.0821(6)
C6 C 0.0182(5) 0.4948(4) 0.0307(6)
N3 N 0.1922(3) 0.7259(2) 0.1559(4)
C7 C 0.1087(5) 0.7974(4) 0.1205(6)
C8 C 0.2948(5) 0.7496(4) 0.1374(7)
H13 H 0.3764(39) 0.5220(8) 0.4123(20)
H14 H 0.3032(12) 0.6082(39) 0.4198(17)
H15 H 0.4049(29) 0.6203(33) 0.3707(7)
H16 H 0.3245(46) 0.4412(12) 0.2249(31)
H17 H 0.3822(26) 0.5205(18) 0.1727(51)
H18 H 0.2574(22) 0.4892(30) 0.0894(20)
H19 H 0.0174(9) 0.6076(36) -0.1506(13)
H20 H 0.1391(39) 0.5629(22) -0.1052(28)
H21 H 0.1251(44) 0.6670(17) -0.0722(17)
H22 H -0.0591(9) 0.5042(9) -0.0280(28)
H23 H 0.0194(26) 0.4782(14) 0.1166(8)
H24 H 0.0518(19) 0.4459(7) -0.0028(35)
H25 H 0.1402(1) 0.8524(9) 0.1703(27)
H26 H 0.0436(14) 0.7777(11) 0.1394(35)
H27 H 0.0861(24) 0.8105(19) 0.0278(9)
H28 H 0.2779(7) 0.7666(30) 0.0469(12)
H29 H 0.3454(16) 0.6972(11) 0.1592(42)
H30 H 0.3304(20) 0.8008(20) 0.1936(33)
loop_
_geom_bond_atom_site_label_1
_geom_bond_atom_site_label_2
_geom_bond_site_symmetry_1
_geom_bond_site_symmetry_2
B1 B2 1_555 1_555
B2 C1 1_555 1_555
C1 B1 1_555 1_555
B3 B1 1_555 1_555
B4 B1 1_555 1_555
C2 B1 1_555 1_555
B5 B2 1_555 1_555
B6 B2 1_555 1_555
B7 B4 1_555 1_555
B8 B3 1_555 1_555
B9 C1 1_555 1_555
B10 B5 1_555 1_555
O1 P1 1_555 1_555
P1 N1 1_555 1_555
N1 C3 1_555 1_555
C3 H13 1_555 1_555
C4 N1 1_555 1_555
N2 P1 1_555 1_555
C5 N2 1_555 1_555
C6 N2 1_555 1_555
N3 P1 1_555 1_555
C7 N3 1_555 1_555
C8 N3 1_555 1_555
H1 B1 1_555 1_555
H2 B2 1_555 1_555
H3 C1 1_555 1_555
H4 B3 1_555 1_555
H5 B4 1_555 1_555
H6 C2 1_555 1_555
H7 B5 1_555 1_555
H8 B6 1_555 1_555
H9 B7 1_555 1_555
H10 B8 1_555 1_555
H11 B9 1_555 1_555
H12 B10 1_555 1_555
H14 C3 1_555 1_555
H15 C3 1_555 1_555
H16 C4 1_555 1_555
H17 C4 1_555 1_555
H18 C4 1_555 1_555
H19 C5 1_555 1_555
H20 C5 1_555 1_555
H21 C5 1_555 1_555
H22 C6 1_555 1_555
H23 C6 1_555 1_555
H24 C6 1_555 1_555
H25 C7 1_555 1_555
H26 C7 1_555 1_555
H27 C7 1_555 1_555
H28 C8 1_555 1_555
H29 C8 1_555 1_555
H30 C8 1_555 1_555
B2 C2 1_555 1_555
C1 B5 1_555 1_555
C1 B3 1_555 1_555
B3 B4 1_555 1_555
B3 B9 1_555 1_555
B4 B8 1_555 1_555
B4 C2 1_555 1_555
C2 B6 1_555 1_555
C2 B7 1_555 1_555
B5 B9 1_555 1_555
B5 B6 1_555 1_555
B6 B10 1_555 1_555
B6 B7 1_555 1_555
B7 B8 1_555 1_555
B7 B10 1_555 1_555
B8 B9 1_555 1_555
B8 B10 1_555 1_555
B9 B10 1_555 1_555

#END
