
#######################################################################
#
#                 Cambridge Crystallographic Data Centre
#                                CCDC 
#
#######################################################################
#
# If this CIF has been generated from an entry in the Cambridge 
# Structural Database, then it will include bibliographic, chemical, 
# crystal, experimental, refinement or atomic coordinate data resulting 
# from the CCDC's data processing and validation procedures.
#
#######################################################################

data_TOKGIJ
_chemical_formula_moiety         'C6 H18 N3 O1 P1,C2 H12 B10'
_chemical_name_systematic        'Hexamethylphosphoramide o-dicarbadodecaborane'
_symmetry_cell_setting           triclinic
_symmetry_space_group_name_H-M   'P -1'
_symmetry_Int_Tables_number      2
_space_group_name_Hall           '-P 1'
loop_
_symmetry_equiv_pos_site_id
_symmetry_equiv_pos_as_xyz
1 x,y,z
2 -x,-y,-z
_cell_length_a                   10.662(2)
_cell_length_b                   10.890(2)
_cell_length_c                   17.078(3)
_cell_angle_alpha                90.59(3)
_cell_angle_beta                 91.97(3)
_cell_angle_gamma                92.23(3)
_cell_volume                     1980.11
_exptl_crystal_colour            colorless
_cell_formula_units_Z            4
loop_
_atom_site_label
_atom_site_type_symbol
_atom_site_fract_x
_atom_site_fract_y
_atom_site_fract_z
P1 P -0.2683(1) 0.6214(1) 0.7381(1)
O1 O -0.2853(3) 0.4851(2) 0.7422(2)
N1 N -0.2750(3) 0.6792(4) 0.6492(2)
N2 N -0.1320(3) 0.6653(3) 0.7791(2)
N3 N -0.3813(3) 0.6908(3) 0.7821(2)
C1 C -0.3895(5) 0.6575(5) 0.6002(3)
C2 C -0.1635(5) 0.7048(5) 0.6041(3)
C3 C -0.0242(5) 0.5871(5) 0.7798(3)
C4 C -0.1012(5) 0.7939(5) 0.7987(3)
C5 C -0.4246(5) 0.8139(4) 0.7649(3)
C6 C -0.4173(5) 0.6461(5) 0.8588(3)
H1 H -0.4040(17) 0.7297(12) 0.5678(14)
H2 H -0.4612(7) 0.6428(29) 0.6338(3)
H3 H -0.3800(12) 0.5855(18) 0.5664(13)
H4 H -0.1773(12) 0.7758(19) 0.5706(14)
H5 H -0.1471(18) 0.6330(12) 0.5715(14)
H6 H -0.0913(8) 0.7228(29) 0.6400(3)
H7 H 0.0130(18) 0.5848(24) 0.8331(5)
H8 H 0.0383(14) 0.6202(17) 0.7441(14)
H9 H -0.0515(7) 0.5038(9) 0.7629(18)
H10 H -0.0544(28) 0.7991(5) 0.8491(10)
H11 H -0.1788(5) 0.8387(8) 0.8023(20)
H12 H -0.0496(26) 0.8302(9) 0.7579(10)
H13 H -0.5165(5) 0.8113(7) 0.7601(19)
H14 H -0.3895(25) 0.8422(13) 0.7156(10)
H15 H -0.3966(26) 0.8706(8) 0.8075(10)
H16 H -0.5089(5) 0.6467(28) 0.8624(7)
H17 H -0.3779(24) 0.6996(17) 0.8999(3)
H18 H -0.3894(7) 0.5621(12) 0.8657(8)
P2 P 0.1948(1) 0.2668(1) 0.7623(1)
O2 O 0.0563(3) 0.2816(3) 0.7587(2)
N4 N 0.2260(3) 0.1303(3) 0.7290(2)
N5 N 0.2673(3) 0.3734(3) 0.7116(2)
N6 N 0.2653(3) 0.2838(3) 0.8493(2)
C7 C 0.3534(4) 0.0967(5) 0.7103(3)
C8 C 0.1369(4) 0.0250(4) 0.7337(3)
C9 C 0.2110(5) 0.4107(5) 0.6373(3)
C10 C 0.3983(5) 0.4171(5) 0.7236(3)
C11 C 0.2776(4) 0.1805(4) 0.9026(3)
C12 C 0.2530(5) 0.4011(4) 0.8907(3)
H19 H 0.3514(6) 0.0539(25) 0.6595(9)
H20 H 0.3863(12) 0.0426(23) 0.7509(10)
H21 H 0.4076(8) 0.1712(5) 0.7079(18)
H22 H 0.1290(20) -0.0172(16) 0.6827(5)
H23 H 0.0548(8) 0.0537(5) 0.7481(16)
H24 H 0.1674(14) -0.0320(13) 0.7734(12)
H25 H 0.2168(30) 0.5005(6) 0.6336(9)
H26 H 0.1226(10) 0.3824(29) 0.6339(9)
H27 H 0.2558(21) 0.3743(26) 0.5941(3)
H28 H 0.4024(6) 0.5071(5) 0.7263(19)
H29 H 0.4475(8) 0.3892(25) 0.6799(10)
H30 H 0.4326(10) 0.3843(24) 0.7728(10)
H31 H 0.3467(18) 0.1987(12) 0.9408(11)
H32 H 0.2952(27) 0.1063(7) 0.8726(3)
H33 H 0.1992(10) 0.1671(17) 0.9302(12)
H34 H 0.3298(12) 0.4205(14) 0.9224(14)
H35 H 0.1812(18) 0.3949(10) 0.9250(14)
H36 H 0.2399(29) 0.4664(7) 0.8526(3)
B1 B -0.3497(6) 0.3022(5) 0.9512(4)
B2 B -0.3569(5) 0.1628(5) 0.8967(3)
C13 C -0.2622(4) 0.2844(4) 0.8713(3)
B3 B -0.1942(5) 0.3677(5) 0.9485(3)
B4 B -0.2442(5) 0.2873(5) 1.0324(3)
B5 B -0.3444(5) 0.1603(5) 1.0000(3)
B6 B -0.2554(5) 0.0591(5) 0.9434(3)
B7 B -0.2057(5) 0.1390(5) 0.8599(3)
C14 C -0.1166(4) 0.2604(4) 0.8969(3)
B8 B -0.0926(5) 0.2643(5) 0.9955(3)
B9 B -0.1845(5) 0.1365(5) 1.0276(3)
B10 B -0.0996(5) 0.1237(5) 0.9406(3)
H37 H -0.4241(47) 0.3602(45) 0.9472(28)
H38 H -0.4351(41) 0.1431(38) 0.8590(25)
H39 H -0.2782(40) 0.3305(40) 0.8212(27)
H40 H -0.1671(47) 0.4620(48) 0.9379(30)
H41 H -0.2524(40) 0.3320(39) 1.0888(26)
H42 H -0.4234(45) 0.1295(42) 1.0352(28)
H43 H -0.2773(45) -0.0390(46) 0.9407(28)
H44 H -0.1903(35) 0.1103(34) 0.8031(24)
H45 H -0.0586(39) 0.2911(37) 0.8630(24)
H46 H 0.0007(48) 0.2989(44) 1.0211(29)
H47 H -0.1603(38) 0.0885(37) 1.0818(25)
H48 H -0.0221(43) 0.0740(40) 0.9322(25)
B11 B -0.0837(5) 0.1768(6) 0.5493(4)
B12 B -0.1476(5) 0.3250(6) 0.5520(4)
B13 B -0.1733(6) 0.2303(6) 0.4676(3)
B14 B -0.1964(6) 0.0766(6) 0.4996(4)
B15 B -0.1836(6) 0.0762(5) 0.6035(4)
C15 C -0.1595(4) 0.2261(4) 0.6285(3)
B16 B -0.3275(5) 0.1625(5) 0.4714(3)
B17 B -0.3343(6) 0.0674(6) 0.5557(4)
B18 B -0.3075(5) 0.1615(6) 0.6391(3)
C16 C -0.2807(4) 0.3049(4) 0.6029(3)
B19 B -0.2976(5) 0.3165(5) 0.5045(3)
B20 B -0.3956(5) 0.2157(5) 0.5578(3)
H49 H 0.0191(51) 0.1744(47) 0.5563(30)
H50 H -0.0872(43) 0.4084(42) 0.5606(26)
H51 H -0.1256(48) 0.2573(46) 0.4123(31)
H52 H -0.1606(53) 0.0002(53) 0.4644(34)
H53 H -0.1460(47) 0.0103(46) 0.6429(30)
H54 H -0.1125(41) 0.2482(38) 0.6763(26)
H55 H -0.3858(39) 0.1428(37) 0.4208(25)
H56 H -0.3965(50) -0.0154(49) 0.5579(30)
H57 H -0.3413(37) 0.1517(36) 0.6964(25)
H58 H -0.3005(40) 0.3657(41) 0.6394(26)
H59 H -0.3301(39) 0.3974(40) 0.4820(25)
H60 H -0.4931(44) 0.2387(41) 0.5658(26)
loop_
_geom_bond_atom_site_label_1
_geom_bond_atom_site_label_2
_geom_bond_site_symmetry_1
_geom_bond_site_symmetry_2
P1 O1 1_555 1_555
N1 P1 1_555 1_555
N2 P1 1_555 1_555
N3 P1 1_555 1_555
C1 N1 1_555 1_555
C2 N1 1_555 1_555
C3 N2 1_555 1_555
C4 N2 1_555 1_555
C5 N3 1_555 1_555
C6 N3 1_555 1_555
P2 O2 1_555 1_555
N4 P2 1_555 1_555
N5 P2 1_555 1_555
N6 P2 1_555 1_555
C7 N4 1_555 1_555
C8 N4 1_555 1_555
C9 N5 1_555 1_555
C10 N5 1_555 1_555
C11 N6 1_555 1_555
C12 N6 1_555 1_555
B1 B2 1_555 1_555
B2 C13 1_555 1_555
C13 B1 1_555 1_555
B3 B1 1_555 1_555
B4 B1 1_555 1_555
B5 B1 1_555 1_555
B6 B2 1_555 1_555
B7 B2 1_555 1_555
C14 C13 1_555 1_555
B8 B3 1_555 1_555
B9 B4 1_555 1_555
B10 B6 1_555 1_555
B11 B12 1_555 1_555
B12 B13 1_555 1_555
B13 B11 1_555 1_555
B14 B11 1_555 1_555
B15 B11 1_555 1_555
C15 B11 1_555 1_555
B16 B13 1_555 1_555
B17 B14 1_555 1_555
B18 B15 1_555 1_555
C16 B12 1_555 1_555
B19 B12 1_555 1_555
B20 B16 1_555 1_555
H1 C1 1_555 1_555
H2 C1 1_555 1_555
H3 C1 1_555 1_555
H4 C2 1_555 1_555
H5 C2 1_555 1_555
H6 C2 1_555 1_555
H7 C3 1_555 1_555
H8 C3 1_555 1_555
H9 C3 1_555 1_555
H10 C4 1_555 1_555
H11 C4 1_555 1_555
H12 C4 1_555 1_555
H13 C5 1_555 1_555
H14 C5 1_555 1_555
H15 C5 1_555 1_555
H16 C6 1_555 1_555
H17 C6 1_555 1_555
H18 C6 1_555 1_555
H19 C7 1_555 1_555
H20 C7 1_555 1_555
H21 C7 1_555 1_555
H22 C8 1_555 1_555
H23 C8 1_555 1_555
H24 C8 1_555 1_555
H25 C9 1_555 1_555
H26 C9 1_555 1_555
H27 C9 1_555 1_555
H28 C10 1_555 1_555
H29 C10 1_555 1_555
H30 C10 1_555 1_555
H31 C11 1_555 1_555
H32 C11 1_555 1_555
H33 C11 1_555 1_555
H34 C12 1_555 1_555
H35 C12 1_555 1_555
H36 C12 1_555 1_555
H37 B1 1_555 1_555
H38 B2 1_555 1_555
H39 C13 1_555 1_555
H40 B3 1_555 1_555
H41 B4 1_555 1_555
H42 B5 1_555 1_555
H43 B6 1_555 1_555
H44 B7 1_555 1_555
H45 C14 1_555 1_555
H46 B8 1_555 1_555
H47 B9 1_555 1_555
H48 B10 1_555 1_555
H49 B11 1_555 1_555
H50 B12 1_555 1_555
H51 B13 1_555 1_555
H52 B14 1_555 1_555
H53 B15 1_555 1_555
H54 C15 1_555 1_555
H55 B16 1_555 1_555
H56 B17 1_555 1_555
H57 B18 1_555 1_555
H58 C16 1_555 1_555
H59 B19 1_555 1_555
H60 B20 1_555 1_555
B2 B5 1_555 1_555
C13 B3 1_555 1_555
C13 B7 1_555 1_555
B3 B4 1_555 1_555
B3 C14 1_555 1_555
B4 B5 1_555 1_555
B4 B8 1_555 1_555
B5 B6 1_555 1_555
B5 B9 1_555 1_555
B6 B7 1_555 1_555
B6 B9 1_555 1_555
B7 C14 1_555 1_555
B7 B10 1_555 1_555
C14 B8 1_555 1_555
C14 B10 1_555 1_555
B8 B9 1_555 1_555
B8 B10 1_555 1_555
B9 B10 1_555 1_555
B12 C15 1_555 1_555
B13 B14 1_555 1_555
B13 B19 1_555 1_555
B14 B16 1_555 1_555
B14 B15 1_555 1_555
B15 C15 1_555 1_555
B15 B17 1_555 1_555
C15 C16 1_555 1_555
C15 B18 1_555 1_555
B16 B17 1_555 1_555
B16 B19 1_555 1_555
B17 B18 1_555 1_555
B17 B20 1_555 1_555
B18 C16 1_555 1_555
B18 B20 1_555 1_555
C16 B19 1_555 1_555
C16 B20 1_555 1_555
B19 B20 1_555 1_555

#END
