
#######################################################################
#
#                 Cambridge Crystallographic Data Centre
#                                CCDC 
#
#######################################################################
#
# If this CIF has been generated from an entry in the Cambridge 
# Structural Database, then it will include bibliographic, chemical, 
# crystal, experimental, refinement or atomic coordinate data resulting 
# from the CCDC's data processing and validation procedures.
#
#######################################################################

data_TOKRUI
_chemical_formula_moiety         'C29 H20 N2,0.33(H2 O1)'
_chemical_name_systematic        
'2-(9-Anthryl)-4,5-diphenyl-1H-imidazole hydrate'
_symmetry_cell_setting           monoclinic
_symmetry_space_group_name_H-M   'P 21/n'
_symmetry_Int_Tables_number      14
_space_group_name_Hall           '-P 2yn'
loop_
_symmetry_equiv_pos_site_id
_symmetry_equiv_pos_as_xyz
1 x,y,z
2 1/2-x,1/2+y,1/2-z
3 -x,-y,-z
4 1/2+x,1/2-y,1/2+z
_cell_length_a                   19.548(9)
_cell_length_b                   18.292(8)
_cell_length_c                   21.819(10)
_cell_angle_alpha                90
_cell_angle_beta                 108.996(5)
_cell_angle_gamma                90
_cell_volume                     7376.98
_cell_formula_units_Z            12
loop_
_atom_site_label
_atom_site_type_symbol
_atom_site_fract_x
_atom_site_fract_y
_atom_site_fract_z
C1 C 0.3940(4) -0.2580(3) 1.0190(3)
C2 C 0.3175(3) -0.1803(4) 0.9515(3)
C3 C 0.3046(3) -0.1823(3) 1.0103(3)
C4 C 0.4482(4) -0.3171(4) 1.0412(3)
C5 C 0.5220(4) -0.3018(5) 1.0561(3)
C6 C 0.5485(4) -0.2318(5) 1.0513(3)
H1 H 0.5158 -0.1937 1.0367
C7 C 0.6202(5) -0.2176(6) 1.0670(4)
H2 H 0.6363 -0.1704 1.0640
C8 C 0.6716(6) -0.2772(8) 1.0886(5)
H3 H 0.7208 -0.2679 1.0990
C9 C 0.6487(6) -0.3453(8) 1.0938(5)
H4 H 0.6826 -0.3826 1.1072
C10 C 0.5735(5) -0.3620(6) 1.0791(4)
C11 C 0.5468(7) -0.4322(6) 1.0839(4)
H5 H 0.5798 -0.4704 1.0966
C12 C 0.4739(6) -0.4480(5) 1.0706(4)
C13 C 0.4488(8) -0.5221(6) 1.0754(5)
H6 H 0.4816 -0.5606 1.0875
C14 C 0.3797(9) -0.5338(6) 1.0624(6)
H7 H 0.3642 -0.5802 1.0692
C15 C 0.3267(7) -0.4771(6) 1.0379(5)
H8 H 0.2777 -0.4883 1.0256
C16 C 0.3483(5) -0.4070(5) 1.0324(4)
H9 H 0.3138 -0.3703 1.0181
C17 C 0.4239(5) -0.3895(4) 1.0487(3)
C18 C 0.2832(4) -0.1413(4) 0.8911(3)
C19 C 0.2691(4) -0.1743(5) 0.8310(4)
H10 H 0.2816 -0.2231 0.8290
C20 C 0.2374(6) -0.1368(7) 0.7749(4)
H11 H 0.2296 -0.1602 0.7354
C21 C 0.2167(5) -0.0649(7) 0.7758(5)
H12 H 0.1956 -0.0398 0.7371
C22 C 0.2270(5) -0.0316(5) 0.8321(5)
H13 H 0.2110 0.0161 0.8329
C23 C 0.2620(5) -0.0682(5) 0.8908(4)
H14 H 0.2713 -0.0434 0.9299
C24 C 0.2495(4) -0.1457(4) 1.0317(4)
C25 C 0.1807(4) -0.1356(5) 0.9911(5)
H15 H 0.1673 -0.1492 0.9477
C26 C 0.1291(5) -0.1031(6) 1.0174(7)
H16 H 0.0817 -0.0962 0.9906
C27 C 0.1480(8) -0.0826(7) 1.0795(7)
H17 H 0.1136 -0.0616 1.0952
C28 C 0.2163(7) -0.0920(6) 1.1195(6)
H18 H 0.2291 -0.0774 1.1626
C29 C 0.2675(5) -0.1238(5) 1.0959(4)
H19 H 0.3145 -0.1304 1.1237
N1 N 0.3752(3) -0.2290(3) 0.9576(2)
N2 N 0.3522(3) -0.2317(3) 1.0510(3)
H20 H 0.3541 -0.2431 1.0898
C30 C 0.4690(7) 0.0406(6) 0.8859(6)
H21 H 0.4502 0.0871 0.8873
C31 C 0.4368(7) -0.4782(6) 0.6591(7)
H22 H 0.4275 -0.5282 0.6579
C32 C 0.5414(6) 0.0285(5) 0.9150(6)
H23 H 0.5716 0.0669 0.9349
C33 C 0.4504(6) -0.3720(7) 0.6033(5)
H24 H 0.4528 -0.3494 0.5659
C34 C 0.7747(5) -0.2091(6) 0.9799(5)
H25 H 0.8234 -0.2175 1.0024
C35 C 0.4228(5) -0.0160(5) 0.8541(5)
H26 H 0.3745 -0.0057 0.8320
C36 C 0.4452(6) -0.4374(5) 0.7178(5)
H27 H 0.4455 -0.4610 0.7557
C37 C 0.2249(5) -0.3773(5) 0.7452(5)
H28 H 0.1873 -0.3752 0.7059
C38 C 0.5701(4) -0.0416(4) 0.9150(4)
C39 C 0.4426(6) -0.4435(7) 0.6050(6)
H29 H 0.4409 -0.4712 0.5688
C40 C 0.7473(5) -0.1417(6) 0.9761(4)
H30 H 0.7782 -0.1033 0.9948
C41 C 0.4473(4) -0.0860(4) 0.8548(4)
H31 H 0.4154 -0.1233 0.8352
C42 C 0.2140(5) -0.4079(5) 0.7988(5)
H32 H 0.1683 -0.4252 0.7959
C43 C 0.6438(5) -0.0569(5) 0.9426(4)
H33 H 0.6751 -0.0185 0.9606
C44 C 0.2682(5) -0.4132(5) 0.8554(5)
H34 H 0.2604 -0.4361 0.8906
C45 C 0.7288(5) -0.2672(5) 0.9493(4)
H35 H 0.7480 -0.3139 0.9503
C46 C 0.4549(4) -0.3312(5) 0.6575(4)
H36 H 0.4598 -0.2807 0.6555
C47 C 0.2926(4) -0.3497(4) 0.7503(4)
H37 H 0.3004 -0.3303 0.7137
C48 C 0.6725(4) -0.1262(5) 0.9444(4)
C49 C 0.6571(4) -0.2561(4) 0.9184(3)
H38 H 0.6278 -0.2955 0.8993
C50 C 0.4526(4) -0.3624(4) 0.7162(4)
C51 C 0.5218(4) -0.1016(4) 0.8854(3)
C52 C 0.4183(3) -0.3140(3) 0.8149(3)
C53 C 0.3365(4) -0.3842(4) 0.8613(4)
H39 H 0.3738 -0.3877 0.9007
C54 C 0.6259(4) -0.1847(4) 0.9148(3)
C55 C 0.4585(3) -0.3167(3) 0.7735(3)
C56 C 0.5034(3) -0.2330(4) 0.8501(3)
C57 C 0.5516(3) -0.1722(4) 0.8851(3)
C58 C 0.3489(3) -0.3503(3) 0.8089(3)
N3 N 0.4480(3) -0.2620(3) 0.8622(3)
H40 H 0.4328 -0.2508 0.8938
N4 N 0.5121(3) -0.2645(3) 0.7950(2)
C59 C 0.7660(9) -0.4590(9) 0.8429(7)
H41 H 0.8039 -0.4850 0.8714
C60 C 0.9231(11) -0.1617(13) 0.8935(9)
H42 H 0.9641 -0.1375 0.9195
C61 C 0.8669(9) -0.1197(10) 0.8457(7)
H43 H 0.8732 -0.0706 0.8380
C62 C 0.6470(7) -0.4545(6) 0.7656(6)
H44 H 0.6048 -0.4788 0.7420
C63 C 0.3582(6) -0.0995(6) 0.6146(7)
H45 H 0.3110 -0.0821 0.6025
C64 C 0.7055(10) -0.4937(7) 0.8123(7)
H46 H 0.7003 -0.5429 0.8206
C65 C 0.7751(6) -0.3857(7) 0.8343(5)
C66 C 0.4011(6) -0.0963(6) 0.6752(6)
H47 H 0.3821 -0.0793 0.7065
C67 C 0.9174(7) -0.2362(12) 0.9016(7)
H48 H 0.9548 -0.2614 0.9316
C68 C 0.8053(6) -0.1558(7) 0.8133(4)
H49 H 0.7672 -0.1291 0.7857
C69 C 0.8369(7) -0.3518(9) 0.8676(5)
H50 H 0.8731 -0.3797 0.8963
C70 C 0.8511(5) -0.2764(9) 0.8620(4)
C71 C 0.6175(5) -0.0920(7) 0.4473(5)
H51 H 0.6154 -0.0762 0.4062
C72 C 0.3867(5) -0.1308(5) 0.5680(5)
H52 H 0.3568 -0.1359 0.5252
C73 C 0.6518(5) -0.1550(6) 0.4722(4)
H53 H 0.6729 -0.1829 0.4475
C74 C 0.5853(5) -0.0514(6) 0.4850(5)
H54 H 0.5618 -0.0078 0.4690
C75 C 0.4745(5) -0.1174(4) 0.6948(4)
H55 H 0.5038 -0.1118 0.7377
C76 C 0.7957(5) -0.2315(6) 0.8189(4)
C77 C 0.6547(5) -0.3801(5) 0.7565(4)
H56 H 0.6170 -0.3542 0.7276
C78 C 0.4572(4) -0.1535(4) 0.5849(4)
H57 H 0.4751 -0.1734 0.5539
C79 C 0.6562(4) -0.1788(5) 0.5331(4)
H58 H 0.6809 -0.2218 0.5489
C80 C 0.6742(4) -0.2263(4) 0.7298(3)
C81 C 0.5881(4) -0.0755(4) 0.5464(4)
H59 H 0.5656 -0.0486 0.5706
C82 C 0.7205(4) -0.3432(5) 0.7915(4)
C83 C 0.7307(4) -0.2674(5) 0.7829(3)
C84 C 0.6246(4) -0.1401(4) 0.5717(3)
C85 C 0.6279(4) -0.1697(4) 0.6364(3)
C86 C 0.5022(4) -0.1464(4) 0.6492(4)
C87 C 0.5785(4) -0.1719(4) 0.6700(3)
N5 N 0.6092(3) -0.2081(3) 0.7279(3)
H60 H 0.5894 -0.2169 0.7570
N6 N 0.6895(3) -0.2044(3) 0.6761(2)
O1 O 0.8263(3) -0.2049(3) 0.6616(3)
loop_
_geom_bond_atom_site_label_1
_geom_bond_atom_site_label_2
_geom_bond_site_symmetry_1
_geom_bond_site_symmetry_2
C1 C4 1_555 1_555
C2 C3 1_555 1_555
C3 C24 1_555 1_555
C4 C5 1_555 1_555
C5 C6 1_555 1_555
C6 H1 1_555 1_555
C7 C6 1_555 1_555
H2 C7 1_555 1_555
C8 C7 1_555 1_555
H3 C8 1_555 1_555
C9 C8 1_555 1_555
H4 C9 1_555 1_555
C10 C5 1_555 1_555
C11 C10 1_555 1_555
H5 C11 1_555 1_555
C12 C11 1_555 1_555
C13 C12 1_555 1_555
H6 C13 1_555 1_555
C14 C13 1_555 1_555
H7 C14 1_555 1_555
C15 C14 1_555 1_555
H8 C15 1_555 1_555
C16 C15 1_555 1_555
H9 C16 1_555 1_555
C17 C4 1_555 1_555
C18 C2 1_555 1_555
C19 C18 1_555 1_555
H10 C19 1_555 1_555
C20 C19 1_555 1_555
H11 C20 1_555 1_555
C21 C20 1_555 1_555
H12 C21 1_555 1_555
C22 C21 1_555 1_555
H13 C22 1_555 1_555
C23 C18 1_555 1_555
H14 C23 1_555 1_555
C24 C25 1_555 1_555
C25 H15 1_555 1_555
C26 C25 1_555 1_555
H16 C26 1_555 1_555
C27 C26 1_555 1_555
H17 C27 1_555 1_555
C28 C27 1_555 1_555
H18 C28 1_555 1_555
C29 C24 1_555 1_555
H19 C29 1_555 1_555
N1 C1 1_555 1_555
N2 C1 1_555 1_555
H20 N2 1_555 1_555
C30 H21 1_555 1_555
C31 H22 1_555 1_555
C32 C30 1_555 1_555
H23 C32 1_555 1_555
C33 H24 1_555 1_555
C34 H25 1_555 1_555
C35 C30 1_555 1_555
H26 C35 1_555 1_555
C36 C31 1_555 1_555
H27 C36 1_555 1_555
C37 H28 1_555 1_555
C38 C32 1_555 1_555
C39 C31 1_555 1_555
H29 C39 1_555 1_555
C40 C34 1_555 1_555
H30 C40 1_555 1_555
C41 C35 1_555 1_555
H31 C41 1_555 1_555
C42 C37 1_555 1_555
H32 C42 1_555 1_555
C43 C38 1_555 1_555
H33 C43 1_555 1_555
C44 C42 1_555 1_555
H34 C44 1_555 1_555
C45 C34 1_555 1_555
H35 C45 1_555 1_555
C46 C33 1_555 1_555
H36 C46 1_555 1_555
C47 C37 1_555 1_555
H37 C47 1_555 1_555
C48 C40 1_555 1_555
C49 C45 1_555 1_555
H38 C49 1_555 1_555
C50 C36 1_555 1_555
C51 C38 1_555 1_555
C52 C55 1_555 1_555
C53 C44 1_555 1_555
H39 C53 1_555 1_555
C54 C48 1_555 1_555
C55 C50 1_555 1_555
C56 C57 1_555 1_555
C57 C51 1_555 1_555
C58 C47 1_555 1_555
N3 C52 1_555 1_555
H40 N3 1_555 1_555
N4 C55 1_555 1_555
C59 H41 1_555 1_555
C60 H42 1_555 1_555
C61 C60 1_555 1_555
H43 C61 1_555 1_555
C62 H44 1_555 1_555
C63 H45 1_555 1_555
C64 C59 1_555 1_555
H46 C64 1_555 1_555
C65 C59 1_555 1_555
C66 C63 1_555 1_555
H47 C66 1_555 1_555
C67 C60 1_555 1_555
H48 C67 1_555 1_555
C68 C61 1_555 1_555
H49 C68 1_555 1_555
C69 C65 1_555 1_555
H50 C69 1_555 1_555
C70 C67 1_555 1_555
C71 H51 1_555 1_555
C72 C63 1_555 1_555
H52 C72 1_555 1_555
C73 C71 1_555 1_555
H53 C73 1_555 1_555
C74 C71 1_555 1_555
H54 C74 1_555 1_555
C75 C66 1_555 1_555
H55 C75 1_555 1_555
C76 C68 1_555 1_555
C77 C62 1_555 1_555
H56 C77 1_555 1_555
C78 C72 1_555 1_555
H57 C78 1_555 1_555
C79 C73 1_555 1_555
H58 C79 1_555 1_555
C80 C83 1_555 1_555
C81 C74 1_555 1_555
H59 C81 1_555 1_555
C82 C65 1_555 1_555
C83 C76 1_555 1_555
C84 C79 1_555 1_555
C85 C84 1_555 1_555
C86 C75 1_555 1_555
C87 C85 1_555 1_555
N5 C80 1_555 1_555
H60 N5 1_555 1_555
N6 C80 1_555 1_555
C2 N1 1_555 1_555
C3 N2 1_555 1_555
C9 C10 1_555 1_555
C12 C17 1_555 1_555
C16 C17 1_555 1_555
C22 C23 1_555 1_555
C28 C29 1_555 1_555
C33 C39 1_555 1_555
C41 C51 1_555 1_555
C43 C48 1_555 1_555
C46 C50 1_555 1_555
C49 C54 1_555 1_555
C52 C58 1_555 1_555
C53 C58 1_555 1_555
C54 C57 1_555 1_555
C56 N3 1_555 1_555
C56 N4 1_555 1_555
C62 C64 1_555 1_555
C69 C70 1_555 1_555
C70 C76 1_555 1_555
C77 C82 1_555 1_555
C78 C86 1_555 1_555
C81 C84 1_555 1_555
C82 C83 1_555 1_555
C85 N6 1_555 1_555
C86 C87 1_555 1_555
C87 N5 1_555 1_555

#END
