
#######################################################################
#
#                 Cambridge Crystallographic Data Centre
#                                CCDC 
#
#######################################################################
#
# If this CIF has been generated from an entry in the Cambridge 
# Structural Database, then it will include bibliographic, chemical, 
# crystal, experimental, refinement or atomic coordinate data resulting 
# from the CCDC's data processing and validation procedures.
#
#######################################################################

data_TOLKUC
_chemical_formula_moiety         'C17 H16 N2 O4'
_chemical_name_systematic        
'Methyl 13-methyl-15-oxo-12-oxa-14,16-diazatetracyclo[11.3.1.0^2,11^.0^3,8^]heptadeca-2,4,6,8,10-pentaene-17-carboxylate'
_symmetry_cell_setting           triclinic
_symmetry_space_group_name_H-M   'P -1'
_symmetry_Int_Tables_number      2
_space_group_name_Hall           '-P 1'
loop_
_symmetry_equiv_pos_site_id
_symmetry_equiv_pos_as_xyz
1 x,y,z
2 -x,-y,-z
_cell_length_a                   7.5513(14)
_cell_length_b                   10.3124(19)
_cell_length_c                   10.891(2)
_cell_angle_alpha                109.822(2)
_cell_angle_beta                 97.601(2)
_cell_angle_gamma                106.646(2)
_cell_volume                     739.243
_exptl_crystal_colour            colorless
_exptl_crystal_description       block
_cell_formula_units_Z            2
loop_
_atom_site_label
_atom_site_type_symbol
_atom_site_fract_x
_atom_site_fract_y
_atom_site_fract_z
C1 C 0.3637(2) 0.30293(16) 0.28009(14)
C2 C 0.4059(2) 0.17724(18) 0.27519(16)
H1 H 0.5321 0.1848 0.3013
C3 C 0.2631(3) 0.04578(18) 0.23247(17)
H2 H 0.2920 -0.0371 0.2288
C4 C 0.0705(2) 0.03197(17) 0.19330(15)
C5 C -0.0780(3) -0.10571(19) 0.14740(19)
H3 H -0.0486 -0.1890 0.1413
C6 C -0.2636(3) -0.1187(2) 0.11184(19)
H4 H -0.3607 -0.2100 0.0822
C7 C -0.3073(3) 0.0065(2) 0.12017(18)
H5 H -0.4345 -0.0026 0.0962
C8 C -0.1675(2) 0.14154(19) 0.16260(17)
H6 H -0.2008 0.2226 0.1660
C9 C 0.0270(2) 0.16008(17) 0.20143(14)
C10 C 0.1795(2) 0.29879(16) 0.24843(14)
C11 C 0.1448(2) 0.44121(16) 0.26456(14)
H7 H 0.0339 0.4428 0.3019
C12 C 0.3230(2) 0.57198(16) 0.36180(15)
H8 H 0.3437 0.5639 0.4493
C13 C 0.2619(2) 0.49123(16) 0.08221(14)
C14 C 0.4887(2) 0.55177(16) 0.30064(14)
C15 C 0.6803(2) 0.67532(19) 0.36724(17)
H9 H 0.7119 0.6978 0.4623
H10 H 0.6742 0.7612 0.3534
H11 H 0.7764 0.6454 0.3284
C16 C 0.2989(2) 0.71766(17) 0.38233(16)
C17 C 0.1715(3) 0.88871(19) 0.5042(2)
H12 H 0.2947 0.9659 0.5416
H13 H 0.0969 0.9007 0.5694
H14 H 0.1073 0.8933 0.4245
N1 N 0.11377(18) 0.45944(14) 0.13690(13)
H15 H 0.0018 0.4499 0.0971
N2 N 0.43647(18) 0.51766(14) 0.15767(12)
H16 H 0.5252 0.5137 0.1161
O1 O 0.52174(15) 0.42819(11) 0.32112(10)
O2 O 0.24153(15) 0.49484(13) -0.03150(10)
O3 O 0.3644(2) 0.79729(16) 0.32930(17)
O4 O 0.19471(17) 0.74714(12) 0.47000(11)
loop_
_geom_bond_atom_site_label_1
_geom_bond_atom_site_label_2
_geom_bond_site_symmetry_1
_geom_bond_site_symmetry_2
C1 C2 1_555 1_555
C2 H1 1_555 1_555
C3 C2 1_555 1_555
H2 C3 1_555 1_555
C4 C3 1_555 1_555
C5 C4 1_555 1_555
H3 C5 1_555 1_555
C6 C5 1_555 1_555
H4 C6 1_555 1_555
C7 C6 1_555 1_555
H5 C7 1_555 1_555
C8 C7 1_555 1_555
H6 C8 1_555 1_555
C9 C4 1_555 1_555
C10 C1 1_555 1_555
C11 C10 1_555 1_555
H7 C11 1_555 1_555
C12 C11 1_555 1_555
H8 C12 1_555 1_555
C13 N1 1_555 1_555
C14 C12 1_555 1_555
C15 C14 1_555 1_555
H9 C15 1_555 1_555
H10 C15 1_555 1_555
H11 C15 1_555 1_555
C16 C12 1_555 1_555
C17 H12 1_555 1_555
H13 C17 1_555 1_555
H14 C17 1_555 1_555
N1 C11 1_555 1_555
H15 N1 1_555 1_555
N2 C13 1_555 1_555
H16 N2 1_555 1_555
O1 C1 1_555 1_555
O2 C13 1_555 1_555
O3 C16 1_555 1_555
O4 C16 1_555 1_555
C8 C9 1_555 1_555
C9 C10 1_555 1_555
C14 N2 1_555 1_555
C14 O1 1_555 1_555
C17 O4 1_555 1_555

#END
