
#######################################################################
#
#                 Cambridge Crystallographic Data Centre
#                                CCDC 
#
#######################################################################
#
# If this CIF has been generated from an entry in the Cambridge 
# Structural Database, then it will include bibliographic, chemical, 
# crystal, experimental, refinement or atomic coordinate data resulting 
# from the CCDC's data processing and validation procedures.
#
#######################################################################

data_TOLZAX
_chemical_formula_moiety         'C17 H18 N4 O4'
_chemical_name_systematic        
6-Amino-3-methyl-4-(3,4,5-trimethoxyphenyl)-2,4-dihydropyrano[2,3-c]pyrazole-5-carbonitrile
_symmetry_cell_setting           triclinic
_symmetry_space_group_name_H-M   'P -1'
_symmetry_Int_Tables_number      2
_space_group_name_Hall           '-P 1'
loop_
_symmetry_equiv_pos_site_id
_symmetry_equiv_pos_as_xyz
1 x,y,z
2 -x,-y,-z
_cell_length_a                   7.6168(6)
_cell_length_b                   9.9967(5)
_cell_length_c                   11.7888(6)
_cell_angle_alpha                105.283(5)
_cell_angle_beta                 99.416(5)
_cell_angle_gamma                92.221(5)
_cell_volume                     851.055
_exptl_crystal_colour            colorless
_exptl_crystal_description       Block
_chemical_melting_point          491-493K
_cell_formula_units_Z            2
loop_
_atom_site_label
_atom_site_type_symbol
_atom_site_fract_x
_atom_site_fract_y
_atom_site_fract_z
N1 N 0.2660(2) 0.39361(17) 0.45176(13)
N2 N 0.4190(2) 0.32739(18) 0.44265(15)
C1 C 0.5002(3) 0.3075(2) 0.54703(17)
C2 C 0.3973(3) 0.36369(18) 0.63060(16)
C3 C 0.4095(3) 0.37099(18) 0.76047(15)
H1 H 0.5116 0.4362 0.8064
C4 C 0.2393(3) 0.43016(19) 0.79658(15)
C5 C 0.1121(3) 0.4790(2) 0.72636(16)
O1 O 0.11958(19) 0.47720(15) 0.61077(11)
C6 C 0.2595(3) 0.4131(2) 0.56623(16)
C7 C 0.6670(3) 0.2363(3) 0.5545(2)
H2 H 0.6381 0.1384 0.5413
H3 H 0.7392 0.2738 0.6322
H4 H 0.7317 0.2505 0.4947
C8 C 0.2164(3) 0.44234(19) 0.91550(16)
N3 N 0.1998(2) 0.45179(18) 1.01250(14)
N4 N -0.0360(3) 0.5354(2) 0.75602(17)
C9 C 0.4390(3) 0.22862(19) 0.78092(15)
C10 C 0.3050(3) 0.1214(2) 0.73981(16)
H5 H 0.1912 0.1378 0.7066
C11 C 0.3410(3) -0.0109(2) 0.74832(16)
C12 C 0.5115(3) -0.03574(19) 0.79687(16)
C13 C 0.6430(3) 0.0735(2) 0.84271(17)
C14 C 0.6066(3) 0.20604(19) 0.83509(16)
H6 H 0.6945 0.2797 0.8663
O2 O 0.2197(2) -0.12489(15) 0.71128(13)
C15 C 0.0428(4) -0.1075(3) 0.6622(3)
H7 H -0.0082 -0.0431 0.7213
H8 H -0.0270 -0.1956 0.6379
H9 H 0.0435 -0.0718 0.5942
O3 O 0.5514(2) -0.17034(13) 0.79545(11)
C16 C 0.5144(4) -0.2128(2) 0.89635(19)
H10 H 0.5801 -0.1499 0.9684
H11 H 0.5494 -0.3052 0.8905
H12 H 0.3889 -0.2117 0.8979
O4 O 0.8041(2) 0.04130(15) 0.89463(14)
C17 C 0.9389(3) 0.1526(3) 0.9471(3)
H13 H 0.9602 0.1989 0.8882
H14 H 1.0471 0.1167 0.9763
H15 H 0.9006 0.2176 1.0122
H16 H -0.119(3) 0.569(2) 0.703(2)
H17 H 0.442(3) 0.290(2) 0.365(2)
H18 H -0.072(3) 0.543(2) 0.8274(19)
loop_
_geom_bond_atom_site_label_1
_geom_bond_atom_site_label_2
_geom_bond_site_symmetry_1
_geom_bond_site_symmetry_2
N1 N2 1_555 1_555
N2 C1 1_555 1_555
C1 C2 1_555 1_555
C2 C3 1_555 1_555
C3 H1 1_555 1_555
C4 C3 1_555 1_555
C5 C4 1_555 1_555
O1 C5 1_555 1_555
C6 N1 1_555 1_555
C7 C1 1_555 1_555
H2 C7 1_555 1_555
H3 C7 1_555 1_555
H4 C7 1_555 1_555
C8 C4 1_555 1_555
N3 C8 1_555 1_555
N4 C5 1_555 1_555
C9 C3 1_555 1_555
C10 C9 1_555 1_555
H5 C10 1_555 1_555
C11 C10 1_555 1_555
C12 C11 1_555 1_555
C13 C12 1_555 1_555
C14 C9 1_555 1_555
H6 C14 1_555 1_555
O2 C11 1_555 1_555
C15 O2 1_555 1_555
H7 C15 1_555 1_555
H8 C15 1_555 1_555
H9 C15 1_555 1_555
O3 C12 1_555 1_555
C16 O3 1_555 1_555
H10 C16 1_555 1_555
H11 C16 1_555 1_555
H12 C16 1_555 1_555
O4 C13 1_555 1_555
C17 O4 1_555 1_555
H13 C17 1_555 1_555
H14 C17 1_555 1_555
H15 C17 1_555 1_555
H16 N4 1_555 1_555
H17 N2 1_555 1_555
H18 N4 1_555 1_555
C2 C6 1_555 1_555
O1 C6 1_555 1_555
C13 C14 1_555 1_555

#END
