
#######################################################################
#
#                 Cambridge Crystallographic Data Centre
#                                CCDC 
#
#######################################################################
#
# If this CIF has been generated from an entry in the Cambridge 
# Structural Database, then it will include bibliographic, chemical, 
# crystal, experimental, refinement or atomic coordinate data resulting 
# from the CCDC's data processing and validation procedures.
#
#######################################################################

data_TOMJUC
_chemical_name_common            
1,6-O,O-Diacetyl-(E)-13-(4-methoxyphenyl)britannilactone
_chemical_formula_moiety         'C26 H32 O7'
_chemical_name_systematic        
'4-(4-Acetoxy-3-(4-methoxybenzylidene)-6-methyl-2-oxo-2,3,3a,4,7,7a-hexahydro-1-benzofuran-5-yl)pentyl acetate'
_symmetry_cell_setting           monoclinic
_symmetry_space_group_name_H-M   'P 21'
_symmetry_Int_Tables_number      4
_space_group_name_Hall           'P 2yb'
loop_
_symmetry_equiv_pos_site_id
_symmetry_equiv_pos_as_xyz
1 x,y,z
2 -x,1/2+y,-z
_cell_length_a                   10.7678(6)
_cell_length_b                   21.3071(11)
_cell_length_c                   11.7400(6)
_cell_angle_alpha                90
_cell_angle_beta                 112.179(7)
_cell_angle_gamma                90
_cell_volume                     2494.22
_exptl_crystal_colour            colorless
_exptl_crystal_description       block
_cell_formula_units_Z            4
_exptl_crystal_recrystallization_method ethanol
loop_
_atom_site_label
_atom_site_type_symbol
_atom_site_fract_x
_atom_site_fract_y
_atom_site_fract_z
O1 O -0.4347(6) 0.2126(4) 0.8009(7)
O2 O -0.2447(4) 0.1811(2) 0.7860(4)
O3 O -0.2907(5) 0.4045(4) 0.5368(6)
O4 O -0.1407(5) 0.4054(2) 0.4491(4)
O5 O 0.2810(3) 0.35367(16) 0.6551(3)
O6 O 0.2754(5) 0.4115(3) 1.2641(4)
C1 C -0.2495(7) 0.2375(3) 0.7153(8)
H1 H -0.2297 0.2740 0.7686
H2 H -0.3383 0.2427 0.6521
C2 C -0.1483(6) 0.2314(3) 0.6577(6)
H3 H -0.1616 0.2652 0.5990
H4 H -0.1639 0.1922 0.6124
C3 C -0.0041(5) 0.2328(2) 0.7477(5)
H5 H 0.0111 0.1976 0.8039
H6 H 0.0110 0.2710 0.7958
C4 C 0.0974(5) 0.2295(2) 0.6850(5)
H7 H 0.0741 0.1931 0.6298
C5 C 0.0905(5) 0.2873(2) 0.6074(4)
C6 C 0.1543(4) 0.34655(19) 0.6733(4)
H8 H 0.1733 0.3418 0.7613
C7 C 0.0672(5) 0.4050(2) 0.6248(4)
H9 H 0.1206 0.4430 0.6553
C8 C 0.0034(7) 0.4060(3) 0.4829(5)
H10 H 0.0292 0.4448 0.4529
C9 C 0.0400(7) 0.3505(3) 0.4215(4)
H11 H -0.0221 0.3481 0.3366
H12 H 0.1293 0.3567 0.4217
C10 C 0.0363(6) 0.2896(3) 0.4855(5)
C11 C -0.0539(5) 0.4056(2) 0.6598(5)
C12 C -0.1746(7) 0.4045(3) 0.5480(6)
C13 C -0.0689(5) 0.4051(2) 0.7684(5)
H13 H -0.1576 0.4021 0.7615
C14 C -0.0307(9) 0.2355(4) 0.4016(7)
H14 H -0.0351 0.2000 0.4501
H15 H 0.0202 0.2247 0.3526
H16 H -0.1198 0.2475 0.3487
C15 C 0.2377(6) 0.2191(3) 0.7793(7)
H17 H 0.3009 0.2210 0.7396
H18 H 0.2426 0.1787 0.8168
H19 H 0.2585 0.2512 0.8413
C16 C -0.3449(6) 0.1742(4) 0.8234(6)
C17 C -0.3345(8) 0.1169(5) 0.8949(8)
H20 H -0.2776 0.0874 0.8761
H21 H -0.4221 0.0990 0.8745
H22 H -0.2969 0.1267 0.9810
C18 C 0.0268(5) 0.4083(2) 0.8940(4)
C19 C 0.1571(5) 0.4297(2) 0.9289(5)
H23 H 0.1876 0.4432 0.8687
C20 C 0.2432(6) 0.4315(3) 1.0508(5)
H24 H 0.3308 0.4456 1.0717
C21 C 0.1996(6) 0.4125(3) 1.1412(5)
C22 C 0.0701(7) 0.3914(3) 1.1084(5)
H25 H 0.0401 0.3783 1.1692
C23 C -0.0146(6) 0.3895(3) 0.9887(5)
H26 H -0.1020 0.3754 0.9689
C24 C 0.4116(8) 0.4287(4) 1.3022(7)
H27 H 0.4530 0.4049 1.2567
H28 H 0.4564 0.4202 1.3884
H29 H 0.4180 0.4727 1.2873
C25 C 0.3858(5) 0.3771(3) 0.7452(5)
C26 C 0.5096(6) 0.3771(3) 0.7153(7)
H30 H 0.5515 0.3365 0.7335
H31 H 0.5709 0.4084 0.7638
H32 H 0.4855 0.3862 0.6296
O7 O 0.3763(16) 0.4047(7) 0.8284(13)
O9 O 0.2522(7) 0.8173(3) 0.9312(9)
O10 O 0.4265(4) 0.82344(18) 0.8769(4)
O11 O 0.6587(4) 0.5739(2) 1.0497(3)
O12 O 0.8105(4) 0.5603(2) 0.9660(3)
O13 O 0.7151(3) 0.59928(17) 0.5736(3)
O14 O 0.5123(4) 0.5877(3) 0.4274(3)
O15 O 0.0027(4) 0.5632(2) 0.3726(3)
C27 C 0.4544(8) 0.7578(3) 0.9027(6)
H33 H 0.3776 0.7327 0.8537
H34 H 0.4742 0.7493 0.9889
C28 C 0.5738(7) 0.7421(3) 0.8707(5)
H35 H 0.6073 0.7010 0.9038
H36 H 0.6443 0.7724 0.9098
C29 C 0.5425(6) 0.7420(3) 0.7330(5)
H37 H 0.4818 0.7075 0.6958
H38 H 0.4964 0.7807 0.6980
C30 C 0.6652(6) 0.7357(2) 0.6994(5)
H39 H 0.7292 0.7681 0.7449
C31 C 0.7355(5) 0.6729(2) 0.7347(4)
C32 C 0.6596(4) 0.6163(2) 0.6660(4)
H40 H 0.5645 0.6270 0.6248
C33 C 0.6737(4) 0.5588(2) 0.7503(4)
H41 H 0.6487 0.5208 0.6998
C34 C 0.8178(5) 0.5517(3) 0.8456(5)
H42 H 0.8503 0.5093 0.8401
C35 C 0.9157(5) 0.5987(4) 0.8342(5)
H43 H 0.9396 0.5876 0.7650
H44 H 0.9967 0.5976 0.9080
C36 C 0.8582(5) 0.6644(3) 0.8159(4)
C37 C 0.5912(5) 0.56312(19) 0.8292(4)
C38 C 0.6840(5) 0.5666(2) 0.9590(4)
C39 C 0.4598(5) 0.5632(2) 0.8050(4)
H45 H 0.4383 0.5660 0.8745
C40 C 0.9518(8) 0.7143(5) 0.8934(6)
H46 H 1.0261 0.7192 0.8679
H47 H 0.9844 0.7020 0.9783
H48 H 0.9044 0.7533 0.8833
C41 C 0.6269(9) 0.7489(3) 0.5611(6)
H49 H 0.7063 0.7485 0.5423
H50 H 0.5846 0.7892 0.5411
H51 H 0.5661 0.7171 0.5138
C42 C 0.3250(6) 0.8481(3) 0.8978(6)
C43 C 0.3153(8) 0.9160(3) 0.8801(8)
H52 H 0.3893 0.9359 0.9437
H53 H 0.2326 0.9306 0.8837
H54 H 0.3178 0.9261 0.8013
C44 C 0.3450(5) 0.5598(2) 0.6909(4)
C45 C 0.2185(5) 0.5745(2) 0.6903(4)
H55 H 0.2098 0.5845 0.7640
C46 C 0.1072(5) 0.5745(2) 0.5841(5)
H56 H 0.0242 0.5846 0.5864
C47 C 0.1168(5) 0.5597(2) 0.4730(4)
C48 C 0.2397(5) 0.5429(2) 0.4716(4)
H57 H 0.2472 0.5318 0.3978
C49 C 0.3517(5) 0.5424(2) 0.5792(4)
H58 H 0.4337 0.5302 0.5770
C50 C 0.0053(7) 0.5488(3) 0.2557(5)
H59 H -0.0836 0.5522 0.1941
H60 H 0.0376 0.5067 0.2565
H61 H 0.0638 0.5776 0.2373
C51 C 0.7023(6) 0.5686(4) 0.3770(5)
H62 H 0.7847 0.5918 0.4010
H63 H 0.6471 0.5785 0.2934
H64 H 0.7215 0.5245 0.3841
C52 C 0.6298(5) 0.5859(2) 0.4592(4)
O8? O 0.394(3) 0.3808(13) 0.855(2)
loop_
_geom_bond_atom_site_label_1
_geom_bond_atom_site_label_2
_geom_bond_site_symmetry_1
_geom_bond_site_symmetry_2
O1 C16 1_555 1_555
O2 C1 1_555 1_555
O3 C12 1_555 1_555
O4 C8 1_555 1_555
O5 C6 1_555 1_555
O6 C21 1_555 1_555
C1 H1 1_555 1_555
H2 C1 1_555 1_555
C2 C1 1_555 1_555
H3 C2 1_555 1_555
H4 C2 1_555 1_555
C3 C2 1_555 1_555
H5 C3 1_555 1_555
H6 C3 1_555 1_555
C4 C3 1_555 1_555
H7 C4 1_555 1_555
C5 C4 1_555 1_555
C6 C5 1_555 1_555
H8 C6 1_555 1_555
C7 C6 1_555 1_555
H9 C7 1_555 1_555
C8 C7 1_555 1_555
H10 C8 1_555 1_555
C9 C8 1_555 1_555
H11 C9 1_555 1_555
H12 C9 1_555 1_555
C10 C5 1_555 1_555
C11 C7 1_555 1_555
C12 O4 1_555 1_555
C13 C11 1_555 1_555
H13 C13 1_555 1_555
C14 C10 1_555 1_555
H14 C14 1_555 1_555
H15 C14 1_555 1_555
H16 C14 1_555 1_555
C15 C4 1_555 1_555
H17 C15 1_555 1_555
H18 C15 1_555 1_555
H19 C15 1_555 1_555
C16 O2 1_555 1_555
C17 C16 1_555 1_555
H20 C17 1_555 1_555
H21 C17 1_555 1_555
H22 C17 1_555 1_555
C18 C13 1_555 1_555
C19 C18 1_555 1_555
H23 C19 1_555 1_555
C20 C19 1_555 1_555
H24 C20 1_555 1_555
C21 C20 1_555 1_555
C22 C21 1_555 1_555
H25 C22 1_555 1_555
C23 C18 1_555 1_555
H26 C23 1_555 1_555
C24 O6 1_555 1_555
H27 C24 1_555 1_555
H28 C24 1_555 1_555
H29 C24 1_555 1_555
C25 O5 1_555 1_555
C26 C25 1_555 1_555
H30 C26 1_555 1_555
H31 C26 1_555 1_555
H32 C26 1_555 1_555
O7 C25 1_555 1_555
O9 C42 1_555 1_555
O10 C27 1_555 1_555
O11 C38 1_555 1_555
O12 C34 1_555 1_555
O13 C32 1_555 1_555
O14 C52 1_555 1_555
O15 C47 1_555 1_555
C27 H33 1_555 1_555
H34 C27 1_555 1_555
C28 C27 1_555 1_555
H35 C28 1_555 1_555
H36 C28 1_555 1_555
C29 C28 1_555 1_555
H37 C29 1_555 1_555
H38 C29 1_555 1_555
C30 C29 1_555 1_555
H39 C30 1_555 1_555
C31 C30 1_555 1_555
C32 C31 1_555 1_555
H40 C32 1_555 1_555
C33 C32 1_555 1_555
H41 C33 1_555 1_555
C34 C33 1_555 1_555
H42 C34 1_555 1_555
C35 C34 1_555 1_555
H43 C35 1_555 1_555
H44 C35 1_555 1_555
C36 C31 1_555 1_555
C37 C33 1_555 1_555
C38 O12 1_555 1_555
C39 C37 1_555 1_555
H45 C39 1_555 1_555
C40 C36 1_555 1_555
H46 C40 1_555 1_555
H47 C40 1_555 1_555
H48 C40 1_555 1_555
C41 C30 1_555 1_555
H49 C41 1_555 1_555
H50 C41 1_555 1_555
H51 C41 1_555 1_555
C42 O10 1_555 1_555
C43 C42 1_555 1_555
H52 C43 1_555 1_555
H53 C43 1_555 1_555
H54 C43 1_555 1_555
C44 C39 1_555 1_555
C45 C44 1_555 1_555
H55 C45 1_555 1_555
C46 C45 1_555 1_555
H56 C46 1_555 1_555
C47 C46 1_555 1_555
C48 C47 1_555 1_555
H57 C48 1_555 1_555
C49 C44 1_555 1_555
H58 C49 1_555 1_555
C50 O15 1_555 1_555
H59 C50 1_555 1_555
H60 C50 1_555 1_555
H61 C50 1_555 1_555
C51 H62 1_555 1_555
H63 C51 1_555 1_555
H64 C51 1_555 1_555
C52 O13 1_555 1_555
C9 C10 1_555 1_555
C11 C12 1_555 1_555
C22 C23 1_555 1_555
C35 C36 1_555 1_555
C37 C38 1_555 1_555
C48 C49 1_555 1_555
C51 C52 1_555 1_555

#END
