
#######################################################################
#
#                 Cambridge Crystallographic Data Centre
#                                CCDC 
#
#######################################################################
#
# If this CIF has been generated from an entry in the Cambridge 
# Structural Database, then it will include bibliographic, chemical, 
# crystal, experimental, refinement or atomic coordinate data resulting 
# from the CCDC's data processing and validation procedures.
#
#######################################################################

data_TOMQES
_chemical_formula_moiety         'C76 H39 N1 O11,2.5(C1 D1 Cl3)'
_chemical_name_systematic        
'3,17-dihydroxy-13,32,35-tris(t-butylperoxy)-16-((2,2-dimethoxyethyl)amino)-3,15-epoxy-3,15-demethylene-C60fullerene deuterochloroform solvate'
_symmetry_cell_setting           monoclinic
_symmetry_space_group_name_H-M   'P 21/c'
_symmetry_Int_Tables_number      14
_space_group_name_Hall           '-P 2ybc'
loop_
_symmetry_equiv_pos_site_id
_symmetry_equiv_pos_as_xyz
1 x,y,z
2 -x,1/2+y,1/2-z
3 -x,-y,-z
4 x,1/2-y,1/2+z
_cell_length_a                   15.8341(2)
_cell_length_b                   16.6776(2)
_cell_length_c                   27.5038(4)
_cell_angle_alpha                90
_cell_angle_beta                 124.7090(10)
_cell_angle_gamma                90
_cell_volume                     5970.63
_cell_formula_units_Z            4
_exptl_crystal_recrystallization_method deuterochloroform
loop_
_atom_site_label
_atom_site_type_symbol
_atom_site_fract_x
_atom_site_fract_y
_atom_site_fract_z
O1 O 0.07870(17) 0.57840(12) 0.59804(9)
O2 O 0.13358(19) 0.49284(13) 0.67362(10)
H1 H 0.0778 0.4678 0.6574
O3 O -0.19294(17) 0.63320(14) 0.53220(10)
H2 H -0.1929 0.6179 0.5031
O4 O -0.09063(19) 0.69956(14) 0.38756(11)
O5 O 0.02618(18) 0.60380(14) 0.40718(10)
O6 O 0.31620(17) 0.67670(14) 0.62380(10)
O7 O 0.28885(17) 0.59300(14) 0.60888(11)
O8 O -0.15457(18) 0.84780(17) 0.45472(10)
O9 O -0.2401(2) 0.89895(17) 0.43537(13)
O11 O 0.14640(17) 0.87183(13) 0.51555(10)
O12 O 0.19248(17) 0.79736(13) 0.51092(10)
N1 N -0.1067(2) 0.65150(17) 0.48068(12)
H3 H -0.146(2) 0.6921(16) 0.4531(13)
C1 C 0.0638(3) 0.65532(19) 0.57829(14)
C2 C -0.0423(2) 0.69063(19) 0.54001(14)
C3 C -0.1069(2) 0.68393(19) 0.56867(15)
C4 C -0.0503(3) 0.65341(19) 0.63438(15)
C5 C 0.0374(3) 0.60979(19) 0.66974(15)
C6 C 0.1140(3) 0.57318(19) 0.65881(15)
C7 C 0.2102(3) 0.6206(2) 0.70420(15)
C8 C 0.2712(3) 0.6728(2) 0.69849(15)
C9 C 0.2513(3) 0.7076(2) 0.64046(15)
C10 C 0.1381(2) 0.70847(19) 0.59115(14)
C11 C 0.0842(2) 0.78274(18) 0.55953(13)
C12 C -0.0159(2) 0.77661(18) 0.53529(13)
C13 C -0.0872(2) 0.84685(18) 0.51774(13)
C14 C -0.1376(2) 0.8385(2) 0.55101(14)
C15 C -0.1432(2) 0.7677(2) 0.57405(14)
C16 C -0.1445(2) 0.7696(2) 0.62548(15)
C17 C -0.0890(3) 0.7008(2) 0.66149(15)
C18 C -0.0385(3) 0.7065(2) 0.72284(15)
C19 C 0.0591(3) 0.6670(2) 0.75957(15)
C20 C 0.0963(3) 0.62246(19) 0.73328(15)
C21 C 0.2038(3) 0.6293(2) 0.75439(15)
C22 C 0.2671(3) 0.6810(2) 0.80074(15)
C23 C 0.3374(3) 0.7304(2) 0.79707(15)
C24 C 0.3354(2) 0.7277(2) 0.74580(15)
C25 C 0.3465(2) 0.8006(2) 0.72247(15)
C26 C 0.2870(2) 0.7942(2) 0.65914(15)
C27 C 0.2388(2) 0.8603(2) 0.62578(14)
C28 C 0.1380(2) 0.85879(19) 0.56412(14)
C29 C 0.0788(2) 0.92860(18) 0.56650(14)
C30 C -0.0221(2) 0.92340(19) 0.54617(14)
C31 C -0.0573(3) 0.96436(19) 0.57716(15)
C32 C -0.1289(2) 0.9123(2) 0.57932(15)
C33 C -0.1349(3) 0.9159(2) 0.62774(15)
C34 C -0.1450(3) 0.8415(2) 0.65107(16)
C35 C -0.0864(3) 0.8485(2) 0.71480(16)
C36 C -0.0344(3) 0.7822(2) 0.74961(16)
C37 C 0.0690(3) 0.7910(2) 0.80318(15)
C38 C 0.1261(3) 0.7203(2) 0.80908(14)
C39 C 0.2289(3) 0.7264(2) 0.82918(14)
C40 C 0.2774(3) 0.8037(2) 0.84393(14)
C41 C 0.3456(3) 0.8063(2) 0.82474(15)
C42 C 0.3560(3) 0.8763(2) 0.80168(15)
C43 C 0.3584(3) 0.8733(2) 0.75013(16)
C44 C 0.3056(3) 0.9431(2) 0.71414(15)
C45 C 0.2462(3) 0.9360(2) 0.65326(15)
C46 C 0.1488(3) 0.97673(19) 0.61814(15)
C47 C 0.1134(3) 1.02111(19) 0.64564(16)
C48 C 0.0067(3) 1.01413(19) 0.62463(16)
C49 C 0.0022(3) 1.0161(2) 0.67624(16)
C50 C -0.0686(3) 0.9678(2) 0.67727(16)
C51 C -0.0378(3) 0.9266(2) 0.73124(16)
C52 C 0.0616(3) 0.9353(2) 0.78208(16)
C53 C 0.1159(3) 0.8659(2) 0.81869(15)
C54 C 0.2229(3) 0.8729(2) 0.83932(15)
C55 C 0.2343(3) 0.9459(2) 0.81555(15)
C56 C 0.2999(3) 0.9480(2) 0.79734(15)
C57 C 0.2691(3) 0.9895(2) 0.74332(16)
C58 C 0.1741(3) 1.02681(19) 0.70984(16)
C59 C 0.1062(3) 1.0246(2) 0.72877(16)
C60 C 0.1352(3) 0.9847(2) 0.78027(16)
C61 C -0.0576(3) 0.6040(2) 0.45848(15)
H4 H -0.1088 0.5665 0.4278
H5 H -0.0019 0.5715 0.4913
C62 C -0.0131(3) 0.65425(19) 0.43240(15)
H6 H 0.0426 0.6897 0.4635
C63 C -0.0580(3) 0.7711(2) 0.37451(18)
H7 H -0.1180 0.7995 0.3420
H8 H -0.0116 0.7574 0.3629
H9 H -0.0219 0.8055 0.4096
C64 C 0.1208(3) 0.5639(2) 0.45023(19)
H10 H 0.1428 0.5308 0.4299
H11 H 0.1102 0.5297 0.4753
H12 H 0.1738 0.6039 0.4748
C65 C 0.3846(3) 0.5477(2) 0.63535(17)
C66 C 0.3434(4) 0.4637(3) 0.6135(2)
H13 H 0.3044 0.4464 0.6294
H14 H 0.4008 0.4267 0.6269
H15 H 0.2983 0.4636 0.5702
C67 C 0.4453(3) 0.5539(3) 0.70270(19)
H16 H 0.4030 0.5343 0.7158
H17 H 0.4641 0.6100 0.7147
H18 H 0.5078 0.5213 0.7208
C68 C 0.4456(4) 0.5762(3) 0.6128(2)
H19 H 0.4708 0.6305 0.6274
H20 H 0.4020 0.5765 0.5694
H21 H 0.5040 0.5401 0.6267
C69 C -0.3366(5) 0.8601(5) 0.3901(3)
C70 C -0.3317(9) 0.8334(8) 0.3380(4)
H22 H -0.3164 0.8799 0.3225
H23 H -0.3980 0.8104 0.3067
H24 H -0.2776 0.7931 0.3518
C71 C -0.4131(4) 0.9286(4) 0.3710(3)
H25 H -0.3955 0.9720 0.3542
H26 H -0.4105 0.9486 0.4053
H27 H -0.4826 0.9091 0.3411
C72 C -0.3591(4) 0.7909(4) 0.4169(3)
H28 H -0.3613 0.8107 0.4497
H29 H -0.3049 0.7504 0.4316
H30 H -0.4255 0.7670 0.3867
C77 C 0.2741(3) 0.8187(2) 0.50364(16)
C78 C 0.2337(3) 0.8784(2) 0.45304(19)
H40 H 0.1737 0.8557 0.4169
H41 H 0.2875 0.8897 0.4467
H42 H 0.2141 0.9283 0.4630
C79 C 0.2936(3) 0.7379(2) 0.48663(19)
H43 H 0.2319 0.7205 0.4489
H44 H 0.3105 0.6985 0.5174
H45 H 0.3511 0.7423 0.4826
C80 C 0.3666(3) 0.8486(3) 0.56135(18)
H46 H 0.3889 0.8078 0.5920
H47 H 0.3487 0.8979 0.5729
H48 H 0.4224 0.8597 0.5567
C81 C -0.6830(4) 1.1454(3) 0.2658(2)
Cl1 Cl -0.66351(13) 1.07337(12) 0.31724(8)
Cl2 Cl -0.57358(13) 1.14757(11) 0.26235(8)
Cl3 Cl -0.69679(14) 1.24010(11) 0.28720(9)
C82 C -0.3868(4) 0.6462(3) 0.5297(2)
Cl4 Cl -0.5011(3) 0.6019(3) 0.46948(18)
Cl5 Cl -0.3407(2) 0.5975(2) 0.59223(12)
Cl6 Cl -0.42181(19) 0.74870(16) 0.53629(18)
O10? O -0.2264(5) 0.7989(4) 0.4361(3)
C73? C -0.3281(13) 0.8261(10) 0.3882(9)
C74? C -0.322(2) 0.8465(19) 0.3364(8)
H31? H -0.3034 0.7982 0.3240
H32? H -0.2691 0.8877 0.3486
H33? H -0.3883 0.8666 0.3034
C75? C -0.3599(14) 0.8937(12) 0.4099(13)
H34? H -0.3606 0.8756 0.4436
H35? H -0.4289 0.9118 0.3781
H36? H -0.3112 0.9381 0.4223
C76? C -0.3915(10) 0.7500(9) 0.3757(8)
H37? H -0.3684 0.7079 0.3610
H38? H -0.4643 0.7615 0.3460
H39? H -0.3825 0.7317 0.4123
Cl7? Cl -0.4873(5) 0.6459(6) 0.4634(3)
Cl8? Cl -0.3636(6) 0.5289(5) 0.5494(4)
Cl9? Cl -0.3832(6) 0.6771(8) 0.5873(3)
C83? C -0.578(2) 0.9805(15) 0.4278(10)
Cl10? Cl -0.4720(13) 0.9388(15) 0.4936(9)
Cl11? Cl -0.5921(7) 1.0671(14) 0.4605(6)
C84? C -0.5246(18) 0.9909(14) 0.4740(9)
Cl12? Cl -0.4123(10) 0.9554(4) 0.5239(5)
Cl13? Cl -0.5709(3) 0.9175(4) 0.42237(19)
loop_
_geom_bond_atom_site_label_1
_geom_bond_atom_site_label_2
_geom_bond_site_symmetry_1
_geom_bond_site_symmetry_2
O1 C1 1_555 1_555
O2 H1 1_555 1_555
O3 H2 1_555 1_555
O4 C62 1_555 1_555
O5 C62 1_555 1_555
O6 O7 1_555 1_555
O7 C65 1_555 1_555
O8 O9 1_555 1_555
O9 C69 1_555 1_555
O11 O12 1_555 1_555
O12 C77 1_555 1_555
N1 H3 1_555 1_555
C1 C2 1_555 1_555
C2 N1 1_555 1_555
C3 O3 1_555 1_555
C4 C3 1_555 1_555
C5 C4 1_555 1_555
C6 O1 1_555 1_555
C7 C6 1_555 1_555
C8 C7 1_555 1_555
C9 O6 1_555 1_555
C10 C1 1_555 1_555
C11 C10 1_555 1_555
C12 C2 1_555 1_555
C13 O8 1_555 1_555
C14 C13 1_555 1_555
C15 C3 1_555 1_555
C16 C15 1_555 1_555
C17 C4 1_555 1_555
C18 C17 1_555 1_555
C19 C18 1_555 1_555
C20 C5 1_555 1_555
C21 C7 1_555 1_555
C22 C21 1_555 1_555
C23 C22 1_555 1_555
C24 C8 1_555 1_555
C25 C24 1_555 1_555
C26 C9 1_555 1_555
C27 C26 1_555 1_555
C28 O11 1_555 1_555
C29 C28 1_555 1_555
C30 C13 1_555 1_555
C31 C30 1_555 1_555
C32 C14 1_555 1_555
C33 C32 1_555 1_555
C34 C16 1_555 1_555
C35 C34 1_555 1_555
C36 C18 1_555 1_555
C37 C36 1_555 1_555
C38 C19 1_555 1_555
C39 C22 1_555 1_555
C40 C39 1_555 1_555
C41 C23 1_555 1_555
C42 C41 1_555 1_555
C43 C25 1_555 1_555
C44 C43 1_555 1_555
C45 C27 1_555 1_555
C46 C29 1_555 1_555
C47 C46 1_555 1_555
C48 C31 1_555 1_555
C49 C48 1_555 1_555
C50 C33 1_555 1_555
C51 C35 1_555 1_555
C52 C51 1_555 1_555
C53 C37 1_555 1_555
C54 C40 1_555 1_555
C55 C54 1_555 1_555
C56 C42 1_555 1_555
C57 C44 1_555 1_555
C58 C47 1_555 1_555
C59 C49 1_555 1_555
C60 C52 1_555 1_555
C61 N1 1_555 1_555
H4 C61 1_555 1_555
H5 C61 1_555 1_555
C62 C61 1_555 1_555
H6 C62 1_555 1_555
C63 O4 1_555 1_555
H7 C63 1_555 1_555
H8 C63 1_555 1_555
H9 C63 1_555 1_555
C64 O5 1_555 1_555
H10 C64 1_555 1_555
H11 C64 1_555 1_555
H12 C64 1_555 1_555
C65 C66 1_555 1_555
C66 H13 1_555 1_555
H14 C66 1_555 1_555
H15 C66 1_555 1_555
C67 C65 1_555 1_555
H16 C67 1_555 1_555
H17 C67 1_555 1_555
H18 C67 1_555 1_555
C68 C65 1_555 1_555
H19 C68 1_555 1_555
H20 C68 1_555 1_555
H21 C68 1_555 1_555
C69 C70 1_555 1_555
C70 H22 1_555 1_555
H23 C70 1_555 1_555
H24 C70 1_555 1_555
C71 C69 1_555 1_555
H25 C71 1_555 1_555
H26 C71 1_555 1_555
H27 C71 1_555 1_555
C72 C69 1_555 1_555
H28 C72 1_555 1_555
H29 C72 1_555 1_555
H30 C72 1_555 1_555
C77 C78 1_555 1_555
C78 H40 1_555 1_555
H41 C78 1_555 1_555
H42 C78 1_555 1_555
C79 C77 1_555 1_555
H43 C79 1_555 1_555
H44 C79 1_555 1_555
H45 C79 1_555 1_555
C80 C77 1_555 1_555
H46 C80 1_555 1_555
H47 C80 1_555 1_555
H48 C80 1_555 1_555
C81 Cl1 1_555 1_555
Cl2 C81 1_555 1_555
Cl3 C81 1_555 1_555
C82 Cl4 1_555 1_555
Cl5 C82 1_555 1_555
Cl6 C82 1_555 1_555
O2 C6 1_555 1_555
C2 C3 1_555 1_555
C5 C6 1_555 1_555
C8 C9 1_555 1_555
C9 C10 1_555 1_555
C11 C12 1_555 1_555
C11 C28 1_555 1_555
C12 C13 1_555 1_555
C14 C15 1_555 1_555
C16 C17 1_555 1_555
C19 C20 1_555 1_555
C20 C21 1_555 1_555
C23 C24 1_555 1_555
C25 C26 1_555 1_555
C27 C28 1_555 1_555
C29 C30 1_555 1_555
C31 C32 1_555 1_555
C33 C34 1_555 1_555
C35 C36 1_555 1_555
C37 C38 1_555 1_555
C38 C39 1_555 1_555
C40 C41 1_555 1_555
C42 C43 1_555 1_555
C44 C45 1_555 1_555
C45 C46 1_555 1_555
C47 C48 1_555 1_555
C49 C50 1_555 1_555
C50 C51 1_555 1_555
C52 C53 1_555 1_555
C53 C54 1_555 1_555
C55 C56 1_555 1_555
C55 C60 1_555 1_555
C56 C57 1_555 1_555
C57 C58 1_555 1_555
C58 C59 1_555 1_555
C59 C60 1_555 1_555

#END
