
#######################################################################
#
#                 Cambridge Crystallographic Data Centre
#                                CCDC 
#
#######################################################################
#
# If this CIF has been generated from an entry in the Cambridge 
# Structural Database, then it will include bibliographic, chemical, 
# crystal, experimental, refinement or atomic coordinate data resulting 
# from the CCDC's data processing and validation procedures.
#
#######################################################################

data_TOPPET
_chemical_formula_moiety         'C16 H25 Br1 N2 O4'
_chemical_name_systematic        
'5-Bromo-2,4-dimethoxy-1,3-phenylene-bis(N-t-butyl nitroxide diradical)'
_symmetry_cell_setting           triclinic
_symmetry_space_group_name_H-M   'P -1'
_symmetry_Int_Tables_number      2
_space_group_name_Hall           '-P 1'
loop_
_symmetry_equiv_pos_site_id
_symmetry_equiv_pos_as_xyz
1 x,y,z
2 -x,-y,-z
_cell_length_a                   10.074(1)
_cell_length_b                   11.2037(8)
_cell_length_c                   9.3046(7)
_cell_angle_alpha                96.570(7)
_cell_angle_beta                 91.604(8)
_cell_angle_gamma                63.674(7)
_cell_volume                     934.769
_exptl_crystal_colour            orange
_cell_formula_units_Z            2
loop_
_atom_site_label
_atom_site_type_symbol
_atom_site_fract_x
_atom_site_fract_y
_atom_site_fract_z
Br1 Br 0.58088(6) 0.17578(6) 0.21543(5)
O1 O 0.3359(3) 0.3609(3) 0.4401(3)
O2 O 0.3241(4) 0.5083(3) 0.7553(4)
O3 O 0.6131(3) 0.2256(3) 0.8654(3)
O4 O 0.9634(3) 0.0705(3) 0.7092(4)
N1 N 0.3502(4) 0.3855(4) 0.7403(4)
N2 N 0.8593(4) 0.0356(3) 0.7002(4)
C1 C 0.5888(5) 0.1930(4) 0.4208(4)
C2 C 0.4660(5) 0.2838(4) 0.5019(5)
C3 C 0.4756(4) 0.2933(4) 0.6523(5)
C4 C 0.6062(5) 0.2132(4) 0.7177(4)
C5 C 0.7258(4) 0.1208(4) 0.6331(5)
C6 C 0.7180(5) 0.1088(4) 0.4833(5)
C7 C 0.3241(6) 0.4850(5) 0.4011(6)
C8 C 0.2415(5) 0.3483(5) 0.8037(5)
C9 C 0.0953(6) 0.4186(6) 0.7310(6)
C10 C 0.2248(6) 0.3984(6) 0.9634(6)
C11 C 0.2979(6) 0.1985(6) 0.7818(8)
C12 C 0.6681(6) 0.3193(6) 0.9212(5)
C13 C 0.8885(5) -0.1000(5) 0.7362(5)
C14 C 0.7470(7) -0.1091(7) 0.751(1)
C15 C 0.9708(9) -0.1274(7) 0.8712(8)
C16 C 0.981(1) -0.1998(6) 0.6145(9)
H1 H 0.7997 0.0443 0.4250
H2 H 0.4012 0.4677 0.3335
H3 H 0.2308 0.5319 0.3588
H4 H 0.3323 0.5378 0.4851
H5 H 0.1076 0.3904 0.6299
H6 H 0.0626 0.5127 0.7470
H7 H 0.0239 0.3967 0.7702
H8 H 0.1917 0.4927 0.9753
H9 H 0.1545 0.3778 1.0070
H10 H 0.3176 0.3561 1.0080
H11 H 0.2284 0.1751 0.8225
H12 H 0.3901 0.1574 0.8279
H13 H 0.3108 0.1684 0.6812
H14 H 0.6039 0.4057 0.8953
H15 H 0.6724 0.3226 1.0236
H16 H 0.7646 0.2918 0.8816
H17 H 0.6867 -0.0429 0.8253
H18 H 0.7670 -0.1955 0.7752
H19 H 0.6965 -0.0946 0.6621
H20 H 0.9139 -0.0621 0.9478
H21 H 0.9895 -0.2140 0.8934
H22 H 1.0622 -0.1236 0.8596
H23 H 1.0028 -0.2877 0.6347
H24 H 1.0709 -0.1928 0.6045
H25 H 0.9283 -0.1822 0.5271
loop_
_geom_bond_atom_site_label_1
_geom_bond_atom_site_label_2
_geom_bond_site_symmetry_1
_geom_bond_site_symmetry_2
Br1 C1 1_555 1_555
O1 C2 1_555 1_555
O2 N1 1_555 1_555
O3 C4 1_555 1_555
O4 N2 1_555 1_555
N1 C3 1_555 1_555
N2 C5 1_555 1_555
C1 C2 1_555 1_555
C2 C3 1_555 1_555
C3 C4 1_555 1_555
C4 C5 1_555 1_555
C5 C6 1_555 1_555
C6 C1 1_555 1_555
C7 O1 1_555 1_555
C8 N1 1_555 1_555
C9 C8 1_555 1_555
C10 C8 1_555 1_555
C11 C8 1_555 1_555
C12 O3 1_555 1_555
C13 N2 1_555 1_555
C14 C13 1_555 1_555
C15 C13 1_555 1_555
C16 C13 1_555 1_555
H1 C6 1_555 1_555
H2 C7 1_555 1_555
H3 C7 1_555 1_555
H4 C7 1_555 1_555
H5 C9 1_555 1_555
H6 C9 1_555 1_555
H7 C9 1_555 1_555
H8 C10 1_555 1_555
H9 C10 1_555 1_555
H10 C10 1_555 1_555
H11 C11 1_555 1_555
H12 C11 1_555 1_555
H13 C11 1_555 1_555
H14 C12 1_555 1_555
H15 C12 1_555 1_555
H16 C12 1_555 1_555
H17 C14 1_555 1_555
H18 C14 1_555 1_555
H19 C14 1_555 1_555
H20 C15 1_555 1_555
H21 C15 1_555 1_555
H22 C15 1_555 1_555
H23 C16 1_555 1_555
H24 C16 1_555 1_555
H25 C16 1_555 1_555

#END
