
#######################################################################
#
#                 Cambridge Crystallographic Data Centre
#                                CCDC 
#
#######################################################################
#
# If this CIF has been generated from an entry in the Cambridge 
# Structural Database, then it will include bibliographic, chemical, 
# crystal, experimental, refinement or atomic coordinate data resulting 
# from the CCDC's data processing and validation procedures.
#
#######################################################################

data_TOQMAP
_chemical_formula_moiety         'C31 H33 N5 O2'
_chemical_name_systematic        
13,13-Dimethyl-23-(4-methylphenyl)-3,11-dioxo-2,18,23-triazahexacyclo[17.3.1.0^2,17^.0^4,9^.0^5,16^.0^10,15^]tricosa-10(15),17-diene-4,16-dicarbonitrile
_symmetry_cell_setting           monoclinic
_symmetry_space_group_name_H-M   'P 21/c'
_symmetry_Int_Tables_number      14
_space_group_name_Hall           '-P 2ybc'
loop_
_symmetry_equiv_pos_site_id
_symmetry_equiv_pos_as_xyz
1 x,y,z
2 -x,1/2+y,1/2-z
3 -x,-y,-z
4 x,1/2-y,1/2+z
_cell_length_a                   18.6242(19)
_cell_length_b                   10.3311(7)
_cell_length_c                   29.295(3)
_cell_angle_alpha                90
_cell_angle_beta                 106.496(2)
_cell_angle_gamma                90
_cell_volume                     5404.6
_exptl_crystal_colour            colorless
_exptl_crystal_description       block
_cell_formula_units_Z            8
loop_
_atom_site_label
_atom_site_type_symbol
_atom_site_fract_x
_atom_site_fract_y
_atom_site_fract_z
N1 N 0.80822(19) 0.7252(3) 0.75038(12)
N2 N 0.7415(2) 0.7133(4) 0.80817(12)
N3 N 0.7866(2) 0.9201(4) 0.78881(13)
N4 N 0.8241(3) 0.4286(5) 0.63580(15)
N5 N 0.7399(3) 0.3989(5) 0.84626(16)
O1 O 0.86784(18) 0.7259(3) 0.69308(10)
O2 O 1.07579(18) 0.5333(4) 0.80638(11)
C1 C 0.8430(2) 0.6652(5) 0.72060(15)
C2 C 0.8502(2) 0.5165(4) 0.72258(14)
C3 C 0.7970(3) 0.4521(5) 0.74741(15)
H1 H 0.7455 0.4701 0.7285
C4 C 0.8116(3) 0.5250(5) 0.79562(15)
C5 C 0.7818(2) 0.6618(4) 0.78461(15)
C6 C 0.9318(3) 0.4784(5) 0.75060(15)
H2 H 0.9670 0.5195 0.7357
C7 C 0.9472(2) 0.5253(4) 0.80088(14)
C8 C 1.0270(3) 0.5485(5) 0.82668(15)
C9 C 1.0452(3) 0.5984(6) 0.87651(16)
H3 H 1.0448 0.6922 0.8756
H4 H 1.0955 0.5711 0.8936
C10 C 0.9911(3) 0.5526(6) 0.90409(16)
C11 C 0.9117(3) 0.5841(5) 0.87407(15)
H5 H 0.8764 0.5440 0.8885
H6 H 0.9043 0.6770 0.8744
C12 C 0.8948(2) 0.5399(4) 0.82383(15)
C13 C 0.8079(3) 0.3059(5) 0.74996(18)
H7 H 0.7770 0.2698 0.7685
H8 H 0.7899 0.2709 0.7180
C14 C 0.8877(3) 0.2612(5) 0.7715(2)
H9 H 0.9021 0.2766 0.8056
H10 H 0.8908 0.1688 0.7664
C15 C 0.9414(3) 0.3307(5) 0.75001(18)
H11 H 0.9333 0.3020 0.7174
H12 H 0.9924 0.3085 0.7677
C16 C 0.7947(3) 0.8688(4) 0.74455(15)
H13 H 0.8378 0.9099 0.7375
C17 C 0.7242(3) 0.8969(5) 0.70409(17)
H14 H 0.7183 0.9898 0.6998
H15 H 0.7298 0.8602 0.6748
C18 C 0.6552(3) 0.8414(6) 0.71382(19)
H16 H 0.6111 0.8734 0.6902
H17 H 0.6559 0.7479 0.7111
C19 C 0.6513(3) 0.8778(6) 0.76267(19)
H18 H 0.6117 0.8286 0.7701
H19 H 0.6388 0.9689 0.7630
C20 C 0.7251(3) 0.8522(5) 0.80062(17)
H20 H 0.7207 0.8881 0.8307
C21 C 0.8527(3) 0.9409(5) 0.82671(16)
C22 C 0.9230(3) 0.9313(6) 0.82193(19)
H21 H 0.9294 0.9017 0.7934
C23 C 0.9851(3) 0.9645(6) 0.8586(2)
H22 H 1.0322 0.9577 0.8537
C24 C 0.9804(3) 1.0064(6) 0.90138(19)
C25 C 0.9109(4) 1.0096(9) 0.9067(2)
H23 H 0.9050 1.0330 0.9361
C26 C 0.8486(4) 0.9795(8) 0.8702(2)
H24 H 0.8018 0.9858 0.8755
C27 C 1.0488(4) 1.0425(7) 0.9415(2)
H25 H 1.0349 1.1032 0.9622
H26 H 1.0857 1.0809 0.9284
H27 H 1.0693 0.9662 0.9591
C28 C 0.8350(3) 0.4689(5) 0.67315(18)
C29 C 0.7700(3) 0.4584(5) 0.82500(17)
C30 C 1.0002(3) 0.4085(6) 0.91379(19)
H28 H 0.9638 0.3799 0.9291
H29 H 1.0496 0.3914 0.9341
H30 H 0.9930 0.3629 0.8843
C31 C 1.0075(3) 0.6287(6) 0.95090(16)
H31 H 0.9711 0.6068 0.9672
H32 H 1.0051 0.7198 0.9442
H33 H 1.0567 0.6071 0.9706
N6 N 0.6614(2) 0.4631(3) 0.49735(11)
N7 N 0.7440(2) 0.4865(4) 0.44957(13)
N8 N 0.6524(2) 0.3128(4) 0.43338(12)
N9 N 0.6859(2) 0.5971(4) 0.64849(14)
N10 N 0.8285(3) 0.7850(5) 0.46976(17)
O3 O 0.58265(18) 0.4485(3) 0.54342(11)
O4 O 0.47364(18) 0.8544(3) 0.48396(11)
C32 C 0.6315(2) 0.5083(4) 0.53213(15)
C33 C 0.6624(2) 0.6349(4) 0.55707(14)
C34 C 0.7358(2) 0.6758(4) 0.54720(15)
H34 H 0.7731 0.6081 0.5598
C35 C 0.7175(2) 0.6737(4) 0.49199(14)
C36 C 0.7094(2) 0.5319(4) 0.47773(15)
C37 C 0.6044(3) 0.7450(4) 0.54090(14)
H35 H 0.5572 0.7199 0.5469
C38 C 0.5921(2) 0.7648(4) 0.48832(14)
C39 C 0.5176(3) 0.8205(4) 0.46262(15)
C40 C 0.5000(3) 0.8286(5) 0.40961(15)
H36 H 0.4615 0.8935 0.3980
H37 H 0.4799 0.7460 0.3960
C41 C 0.5681(3) 0.8627(5) 0.39243(15)
C42 C 0.6299(3) 0.7655(5) 0.41346(15)
H38 H 0.6172 0.6840 0.3967
H39 H 0.6760 0.7964 0.4082
C43 C 0.6431(2) 0.7416(4) 0.46553(14)
C44 C 0.7655(3) 0.8015(5) 0.57243(17)
H40 H 0.7813 0.7860 0.6065
H41 H 0.8092 0.8280 0.5630
C45 C 0.7091(3) 0.9108(5) 0.56192(18)
H42 H 0.7019 0.9403 0.5295
H43 H 0.7286 0.9827 0.5831
C46 C 0.6337(3) 0.8700(5) 0.56809(16)
H44 H 0.5976 0.9388 0.5567
H45 H 0.6389 0.8571 0.6017
C47 C 0.6427(3) 0.3263(4) 0.48004(15)
H46 H 0.5905 0.3076 0.4786
C48 C 0.6936(3) 0.2349(5) 0.51495(17)
H47 H 0.6793 0.1463 0.5057
H48 H 0.6875 0.2487 0.5464
C49 C 0.7751(3) 0.2546(6) 0.51693(19)
H49 H 0.8049 0.1846 0.5349
H50 H 0.7929 0.3352 0.5332
C50 C 0.7847(3) 0.2583(6) 0.46672(18)
H51 H 0.8351 0.2861 0.4685
H52 H 0.7777 0.1720 0.4531
C51 C 0.7288(3) 0.3501(5) 0.43484(17)
H53 H 0.7336 0.3417 0.4025
C52 C 0.5950(3) 0.3630(4) 0.39412(16)
C53 C 0.5371(3) 0.4406(5) 0.39900(16)
H54 H 0.5345 0.4620 0.4293
C54 C 0.4830(3) 0.4873(5) 0.35951(17)
H55 H 0.4439 0.5374 0.3638
C55 C 0.4863(3) 0.4604(5) 0.31410(16)
C56 C 0.5434(3) 0.3799(5) 0.30946(18)
H56 H 0.5458 0.3582 0.2791
C57 C 0.5962(3) 0.3313(5) 0.34809(17)
H57 H 0.6333 0.2766 0.3436
C58 C 0.4285(3) 0.5170(6) 0.27139(17)
H58 H 0.3934 0.4509 0.2565
H59 H 0.4531 0.5494 0.2490
H60 H 0.4025 0.5863 0.2816
C59 C 0.6752(2) 0.6111(4) 0.60852(17)
C60 C 0.7803(3) 0.7331(5) 0.47836(17)
C61 C 0.5927(4) 0.9999(5) 0.4083(2)
H61 H 0.6065 1.0046 0.4424
H62 H 0.5523 1.0589 0.3952
H63 H 0.6350 1.0229 0.3974
C62 C 0.5468(4) 0.8550(6) 0.33781(16)
H64 H 0.5074 0.9156 0.3244
H65 H 0.5301 0.7690 0.3277
H66 H 0.5897 0.8757 0.3272
loop_
_geom_bond_atom_site_label_1
_geom_bond_atom_site_label_2
_geom_bond_site_symmetry_1
_geom_bond_site_symmetry_2
N1 C1 1_555 1_555
N2 C5 1_555 1_555
N3 C16 1_555 1_555
N4 C28 1_555 1_555
N5 C29 1_555 1_555
O1 C1 1_555 1_555
O2 C8 1_555 1_555
C1 C2 1_555 1_555
C2 C3 1_555 1_555
C3 H1 1_555 1_555
C4 C3 1_555 1_555
C5 N1 1_555 1_555
C6 C2 1_555 1_555
H2 C6 1_555 1_555
C7 C6 1_555 1_555
C8 C7 1_555 1_555
C9 C8 1_555 1_555
H3 C9 1_555 1_555
H4 C9 1_555 1_555
C10 C9 1_555 1_555
C11 C10 1_555 1_555
H5 C11 1_555 1_555
H6 C11 1_555 1_555
C12 C4 1_555 1_555
C13 C3 1_555 1_555
H7 C13 1_555 1_555
H8 C13 1_555 1_555
C14 C13 1_555 1_555
H9 C14 1_555 1_555
H10 C14 1_555 1_555
C15 C6 1_555 1_555
H11 C15 1_555 1_555
H12 C15 1_555 1_555
C16 N1 1_555 1_555
H13 C16 1_555 1_555
C17 C16 1_555 1_555
H14 C17 1_555 1_555
H15 C17 1_555 1_555
C18 C17 1_555 1_555
H16 C18 1_555 1_555
H17 C18 1_555 1_555
C19 C18 1_555 1_555
H18 C19 1_555 1_555
H19 C19 1_555 1_555
C20 N2 1_555 1_555
H20 C20 1_555 1_555
C21 N3 1_555 1_555
C22 C21 1_555 1_555
H21 C22 1_555 1_555
C23 C22 1_555 1_555
H22 C23 1_555 1_555
C24 C23 1_555 1_555
C25 C24 1_555 1_555
H23 C25 1_555 1_555
C26 C21 1_555 1_555
H24 C26 1_555 1_555
C27 C24 1_555 1_555
H25 C27 1_555 1_555
H26 C27 1_555 1_555
H27 C27 1_555 1_555
C28 C2 1_555 1_555
C29 C4 1_555 1_555
C30 C10 1_555 1_555
H28 C30 1_555 1_555
H29 C30 1_555 1_555
H30 C30 1_555 1_555
C31 C10 1_555 1_555
H31 C31 1_555 1_555
H32 C31 1_555 1_555
H33 C31 1_555 1_555
N6 C32 1_555 1_555
N7 C36 1_555 1_555
N8 C47 1_555 1_555
N9 C59 1_555 1_555
N10 C60 1_555 1_555
O3 C32 1_555 1_555
O4 C39 1_555 1_555
C32 C33 1_555 1_555
C33 C34 1_555 1_555
C34 H34 1_555 1_555
C35 C34 1_555 1_555
C36 N6 1_555 1_555
C37 C33 1_555 1_555
H35 C37 1_555 1_555
C38 C37 1_555 1_555
C39 C38 1_555 1_555
C40 C39 1_555 1_555
H36 C40 1_555 1_555
H37 C40 1_555 1_555
C41 C40 1_555 1_555
C42 C41 1_555 1_555
H38 C42 1_555 1_555
H39 C42 1_555 1_555
C43 C35 1_555 1_555
C44 C34 1_555 1_555
H40 C44 1_555 1_555
H41 C44 1_555 1_555
C45 C44 1_555 1_555
H42 C45 1_555 1_555
H43 C45 1_555 1_555
C46 C37 1_555 1_555
H44 C46 1_555 1_555
H45 C46 1_555 1_555
C47 N6 1_555 1_555
H46 C47 1_555 1_555
C48 C47 1_555 1_555
H47 C48 1_555 1_555
H48 C48 1_555 1_555
C49 C48 1_555 1_555
H49 C49 1_555 1_555
H50 C49 1_555 1_555
C50 C49 1_555 1_555
H51 C50 1_555 1_555
H52 C50 1_555 1_555
C51 N7 1_555 1_555
H53 C51 1_555 1_555
C52 N8 1_555 1_555
C53 C52 1_555 1_555
H54 C53 1_555 1_555
C54 C53 1_555 1_555
H55 C54 1_555 1_555
C55 C54 1_555 1_555
C56 C55 1_555 1_555
H56 C56 1_555 1_555
C57 C52 1_555 1_555
H57 C57 1_555 1_555
C58 C55 1_555 1_555
H58 C58 1_555 1_555
H59 C58 1_555 1_555
H60 C58 1_555 1_555
C59 C33 1_555 1_555
C60 C35 1_555 1_555
C61 C41 1_555 1_555
H61 C61 1_555 1_555
H62 C61 1_555 1_555
H63 C61 1_555 1_555
C62 C41 1_555 1_555
H64 C62 1_555 1_555
H65 C62 1_555 1_555
H66 C62 1_555 1_555
N3 C20 1_555 1_555
C4 C5 1_555 1_555
C7 C12 1_555 1_555
C11 C12 1_555 1_555
C14 C15 1_555 1_555
C19 C20 1_555 1_555
C25 C26 1_555 1_555
N8 C51 1_555 1_555
C35 C36 1_555 1_555
C38 C43 1_555 1_555
C42 C43 1_555 1_555
C45 C46 1_555 1_555
C50 C51 1_555 1_555
C56 C57 1_555 1_555

#END
