
#######################################################################
#
#                 Cambridge Crystallographic Data Centre
#                                CCDC 
#
#######################################################################
#
# If this CIF has been generated from an entry in the Cambridge 
# Structural Database, then it will include bibliographic, chemical, 
# crystal, experimental, refinement or atomic coordinate data resulting 
# from the CCDC's data processing and validation procedures.
#
#######################################################################

data_TORNIX
_chemical_formula_moiety         'C48 H54 N6 O4,1.5(C7 H8),1.5(H2 O1)'
_chemical_name_systematic        
'1,4-bis(9-O-Dihydroquinidinyl)phthalazine toluene solvate sesquihydrate'
_symmetry_cell_setting           orthorhombic
_symmetry_space_group_name_H-M   'P 21 21 2'
_symmetry_Int_Tables_number      18
_space_group_name_Hall           'P 2 2ab'
loop_
_symmetry_equiv_pos_site_id
_symmetry_equiv_pos_as_xyz
1 x,y,z
2 -x,-y,z
3 1/2+x,1/2-y,-z
4 1/2-x,1/2+y,-z
_cell_length_a                   22.701(2)
_cell_length_b                   24.907(2)
_cell_length_c                   8.830(2)
_cell_angle_alpha                90
_cell_angle_beta                 90
_cell_angle_gamma                90
_cell_volume                     4992.6
_exptl_crystal_colour            colorless
_chemical_melting_point          '203-205 deg.C'
_cell_formula_units_Z            4
loop_
_atom_site_label
_atom_site_type_symbol
_atom_site_fract_x
_atom_site_fract_y
_atom_site_fract_z
O5 O 0.6509(3) 0.7828(3) -0.0349(9)
C49 C 0.500(13) 1.000(13) 0.1914(33)
C52 C 0.4873(19) 0.9047(19) -0.0719(63)
C53 C 0.4864(12) 0.9568(12) 0.1866(38)
C59 C 0.4803(12) 0.9172(12) 0.0713(40)
C60 C 0.4891(10) 0.9561(10) -0.0126(27)
C53A C 0.5136(12) 1.0432(12) 0.1866(38)
C59A C 0.5197(12) 1.0828(12) 0.0713(40)
C52A C 0.5127(19) 1.0953(19) -0.0719(63)
C60A C 0.5109(10) 1.0439(10) -0.0126(27)
O1 O 0.5616(4) 0.6296(5) 0.4988(14)
O2 O 0.7977(3) 0.7346(2) 0.7347(6)
O3 O 0.7242(3) 0.8841(2) 0.3393(7)
O4 O 0.4928(4) 0.7363(3) 0.2181(11)
N1 N 0.7861(6) 0.5505(3) 0.5001(9)
N2 N 0.7420(3) 0.7151(3) 1.0473(8)
N3 N 0.7301(3) 0.7654(3) 0.5610(8)
N4 N 0.7104(3) 0.8028(3) 0.4595(8)
N5 N 0.5232(4) 0.9168(4) 0.5670(9)
N6 N 0.6953(4) 0.8894(3) -0.0059(9)
C1 C 0.7665(5) 0.6442(4) 0.6685(9)
C2 C 0.7179(5) 0.6183(4) 0.5952(10)
C3 C 0.6586(5) 0.6385(4) 0.5939(11)
C4 C 0.6171(6) 0.6129(7) 0.5165(17)
C5 C 0.6325(10) 0.5637(6) 0.4344(18)
C6 C 0.6868(7) 0.5449(5) 0.4347(15)
C7 C 0.7308(6) 0.5717(4) 0.5132(12)
C8 C 0.8281(6) 0.5752(4) 0.5632(11)
C9 C 0.8212(5) 0.6248(4) 0.6488(10)
C10 C 0.7571(4) 0.6935(3) 0.7737(9)
C11 C 0.7672(5) 0.6769(4) 0.9400(10)
C12 C 0.8321(5) 0.6616(4) 0.9867(10)
C13 C 0.8368(6) 0.6738(5) 1.1555(11)
C14 C 0.7847(8) 0.6517(5) 1.2368(12)
C15 C 0.7282(6) 0.6872(5) 1.1871(12)
C16 C 0.7863(5) 0.7591(4) 1.0841(12)
C17 C 0.8379(5) 0.7350(5) 1.1761(12)
C18 C 0.8966(7) 0.7620(7) 1.1368(17)
C19 C 0.9028(8) 0.8194(7) 1.1654(22)
C20 C 0.5451(8) 0.6755(8) 0.5768(26)
C21 C 0.7786(4) 0.7732(3) 0.6335(9)
C22 C 0.8149(4) 0.8187(4) 0.6162(10)
C23 C 0.8691(5) 0.8259(4) 0.6927(12)
C24 C 0.9034(5) 0.8692(4) 0.6653(16)
C25 C 0.8836(5) 0.9102(5) 0.5637(15)
C26 C 0.8298(4) 0.9038(4) 0.4927(13)
C27 C 0.7966(4) 0.8566(3) 0.5138(10)
C28 C 0.7422(4) 0.8464(3) 0.4394(9)
C29 C 0.6684(4) 0.8741(4) 0.2646(9)
C30 C 0.6182(4) 0.8883(4) 0.3753(10)
C31 C 0.5656(4) 0.8565(4) 0.3764(10)
C32 C 0.5567(5) 0.8089(5) 0.2839(12)
C33 C 0.5061(6) 0.7824(4) 0.2973(15)
C34 C 0.4622(5) 0.7980(6) 0.4006(15)
C35 C 0.4693(5) 0.8431(5) 0.4817(14)
C36 C 0.5194(4) 0.8738(4) 0.4800(11)
C37 C 0.5722(5) 0.9442(4) 0.5598(11)
C38 C 0.6211(5) 0.9320(4) 0.4696(10)
C39 C 0.6633(4) 0.9121(4) 0.1249(10)
C40 C 0.6813(5) 0.9709(4) 0.1515(11)
C41 C 0.7100(5) 0.9918(4) 0.0034(11)
C42 C 0.6692(5) 0.9762(4) -0.1312(12)
C43 C 0.6694(5) 0.9151(5) -0.1427(11)
C44 C 0.7587(5) 0.9033(4) -0.0002(12)
C45 C 0.7700(5) 0.9653(4) -0.0194(12)
C46 C 0.8195(5) 0.9827(4) 0.0803(15)
C47 C 0.8406(6) 1.0421(5) 0.0531(22)
C48 C 0.5368(7) 0.7169(6) 0.1206(22)
H1 H 0.6491 0.6704 0.6499
H2 H 0.6019 0.5445 0.3824
H3 H 0.6956 0.5128 0.3788
H4 H 0.8671 0.5604 0.5548
H5 H 0.8548 0.6433 0.6888
H6 H 0.7175 0.7061 0.7616
H7 H 0.7462 0.6435 0.9450
H8 H 0.8601 0.6822 0.9296
H9 H 0.8387 0.6241 0.9692
H10 H 0.8726 0.6583 1.1939
H11 H 0.7787 0.6148 1.2094
H12 H 0.7908 0.6543 1.3441
H13 H 0.7195 0.7130 1.2648
H14 H 0.6947 0.6642 1.1726
H15 H 0.8011 0.7744 0.9919
H16 H 0.7673 0.7866 1.1429
H17 H 0.8328 0.7426 1.2818
H18 H 0.9033 0.7561 1.0308
H19 H 0.9264 0.7439 1.1944
H20 H 0.9416 0.8303 1.1356
H21 H 0.8973 0.8267 1.2713
H22 H 0.8741 0.8389 1.1076
H23 H 0.5040 0.6841 0.5665
H24 H 0.5684 0.7043 0.5366
H25 H 0.5543 0.6705 0.6819
H26 H 0.8817 0.7996 0.7653
H27 H 0.9412 0.8724 0.7134
H28 H 0.9073 0.9414 0.5450
H29 H 0.8148 0.9319 0.4290
H30 H 0.6656 0.8374 0.2324
H31 H 0.5866 0.7969 0.2148
H32 H 0.4275 0.7763 0.4122
H33 H 0.4372 0.8546 0.5448
H34 H 0.5754 0.9755 0.6227
H35 H 0.6561 0.9537 0.4726
H36 H 0.6218 0.9139 0.1050
H37 H 0.6471 0.9919 0.1752
H38 H 0.7090 0.9732 0.2333
H39 H 0.7150 1.0300 0.0093
H40 H 0.6841 0.9917 -0.2232
H41 H 0.6299 0.9890 -0.1133
H42 H 0.6922 0.9048 -0.2296
H43 H 0.6296 0.9029 -0.1549
H44 H 0.7740 0.8922 0.0961
H45 H 0.7788 0.8844 -0.0797
H46 H 0.7838 0.9759 -0.1177
H47 H 0.8069 0.9800 0.1838
H48 H 0.8522 0.9590 0.0637
H49 H 0.8723 1.0503 0.1209
H50 H 0.8085 1.0665 0.0706
H51 H 0.8539 1.0455 -0.0496
H52 H 0.5229 0.6847 0.0728
H53 H 0.5722 0.7093 0.1762
H54 H 0.5450 0.7435 0.0447
O6? O 0.5000 1.0000 -0.0940(26)
C50? C 0.4072(10) 0.2218(9) 0.6947(30)
C51? C 0.4502(15) 0.2059(13) 0.7889(41)
C54? C 0.0000 0.0000 0.3219(57)
C55? C 0.0000 0.0000 0.114(12)
C56? C 0.0083(14) 0.0477(14) 0.0521(42)
C57? C -0.0036(15) 0.0434(13) -0.1108(45)
C58? C 0.0000 0.0000 -0.1700(74)
loop_
_geom_bond_atom_site_label_1
_geom_bond_atom_site_label_2
_geom_bond_site_symmetry_1
_geom_bond_site_symmetry_2
O1 C4 1_555 1_555
O2 C10 1_555 1_555
O3 C28 1_555 1_555
O4 C33 1_555 1_555
N1 C7 1_555 1_555
N2 C11 1_555 1_555
N3 N4 1_555 1_555
N4 C28 1_555 1_555
N5 C36 1_555 1_555
N6 C39 1_555 1_555
C1 C2 1_555 1_555
C2 C3 1_555 1_555
C3 C4 1_555 1_555
C4 C5 1_555 1_555
C5 C6 1_555 1_555
C6 C7 1_555 1_555
C7 C2 1_555 1_555
C8 N1 1_555 1_555
C9 C1 1_555 1_555
C10 C1 1_555 1_555
C11 C10 1_555 1_555
C12 C11 1_555 1_555
C13 C12 1_555 1_555
C14 C13 1_555 1_555
C15 N2 1_555 1_555
C16 N2 1_555 1_555
C17 C13 1_555 1_555
C18 C17 1_555 1_555
C19 C18 1_555 1_555
C20 O1 1_555 1_555
C21 O2 1_555 1_555
C22 C21 1_555 1_555
C23 C22 1_555 1_555
C24 C23 1_555 1_555
C25 C24 1_555 1_555
C26 C25 1_555 1_555
C27 C22 1_555 1_555
C28 C27 1_555 1_555
C29 O3 1_555 1_555
C30 C29 1_555 1_555
C31 C30 1_555 1_555
C32 C31 1_555 1_555
C33 C32 1_555 1_555
C34 C33 1_555 1_555
C35 C34 1_555 1_555
C36 C31 1_555 1_555
C37 N5 1_555 1_555
C38 C30 1_555 1_555
C39 C29 1_555 1_555
C40 C39 1_555 1_555
C41 C40 1_555 1_555
C42 C41 1_555 1_555
C43 N6 1_555 1_555
C44 N6 1_555 1_555
C45 C41 1_555 1_555
C46 C45 1_555 1_555
C47 C46 1_555 1_555
C48 O4 1_555 1_555
C49 C53 1_555 1_555
C52 C59 1_555 1_555
C53 C59 1_555 1_555
C59 C60 1_555 1_555
C60 C52 1_555 1_555
H1 C3 1_555 1_555
H2 C5 1_555 1_555
H3 C6 1_555 1_555
H4 C8 1_555 1_555
H5 C9 1_555 1_555
H6 C10 1_555 1_555
H7 C11 1_555 1_555
H8 C12 1_555 1_555
H9 C12 1_555 1_555
H10 C13 1_555 1_555
H11 C14 1_555 1_555
H12 C14 1_555 1_555
H13 C15 1_555 1_555
H14 C15 1_555 1_555
H15 C16 1_555 1_555
H16 C16 1_555 1_555
H17 C17 1_555 1_555
H18 C18 1_555 1_555
H19 C18 1_555 1_555
H20 C19 1_555 1_555
H21 C19 1_555 1_555
H22 C19 1_555 1_555
H23 C20 1_555 1_555
H24 C20 1_555 1_555
H25 C20 1_555 1_555
H26 C23 1_555 1_555
H27 C24 1_555 1_555
H28 C25 1_555 1_555
H29 C26 1_555 1_555
H30 C29 1_555 1_555
H31 C32 1_555 1_555
H32 C34 1_555 1_555
H33 C35 1_555 1_555
H34 C37 1_555 1_555
H35 C38 1_555 1_555
H36 C39 1_555 1_555
H37 C40 1_555 1_555
H38 C40 1_555 1_555
H39 C41 1_555 1_555
H40 C42 1_555 1_555
H41 C42 1_555 1_555
H42 C43 1_555 1_555
H43 C43 1_555 1_555
H44 C44 1_555 1_555
H45 C44 1_555 1_555
H46 C45 1_555 1_555
H47 C46 1_555 1_555
H48 C46 1_555 1_555
H49 C47 1_555 1_555
H50 C47 1_555 1_555
H51 C47 1_555 1_555
H52 C48 1_555 1_555
H53 C48 1_555 1_555
H54 C48 1_555 1_555
C53A C49 1_555 1_555
C59A C53A 1_555 1_555
C52A C59A 1_555 1_555
C60A C59A 1_555 1_555
N3 C21 1_555 1_555
C8 C9 1_555 1_555
C14 C15 1_555 1_555
C16 C17 1_555 1_555
C26 C27 1_555 1_555
C35 C36 1_555 1_555
C37 C38 1_555 1_555
C42 C43 1_555 1_555
C44 C45 1_555 1_555
C52A C60A 1_555 1_555

#END
