
#######################################################################
#
#                 Cambridge Crystallographic Data Centre
#                                CCDC 
#
#######################################################################
#
# If this CIF has been generated from an entry in the Cambridge 
# Structural Database, then it will include bibliographic, chemical, 
# crystal, experimental, refinement or atomic coordinate data resulting 
# from the CCDC's data processing and validation procedures.
#
#######################################################################

data_TOSDIQ
_chemical_name_common            
'dimethylammonium chloride 5,11,17,23-Tetramethyl-2,8,14,20-tetraethyl-4,6,10,12,16,18,22,24-octahydroxycalix(4)arene unknown solvate'
_chemical_formula_moiety         'C40 H48 O8,C2 H8 N1 1+,Cl1 1-'
_chemical_name_systematic        
'dimethylammonium chloride 2,8,14,20-tetraethyl-5,11,17,23-tetramethylpentacyclo[19.3.1.1^3,7^.1^9,13^.1^15,19^]octacosa-1(25),3(28),4,6,9(27),10,12,15(26),16,18,21,23-dodecaene-4,6,10,12,16,18,22,24-octol unknown solvate'
_symmetry_cell_setting           orthorhombic
_symmetry_space_group_name_H-M   'P n a 21'
_symmetry_Int_Tables_number      33
_space_group_name_Hall           'P 2c -2n'
loop_
_symmetry_equiv_pos_site_id
_symmetry_equiv_pos_as_xyz
1 x,y,z
2 -x,-y,1/2+z
3 1/2-x,1/2+y,1/2+z
4 1/2+x,1/2-y,z
_cell_length_a                   22.4355(13)
_cell_length_b                   12.3522(6)
_cell_length_c                   15.3459(7)
_cell_angle_alpha                90
_cell_angle_beta                 90
_cell_angle_gamma                90
_cell_volume                     4252.78
_exptl_crystal_colour            colorless
_exptl_crystal_description       plate
_cell_formula_units_Z            4
loop_
_atom_site_label
_atom_site_type_symbol
_atom_site_fract_x
_atom_site_fract_y
_atom_site_fract_z
Cl1 Cl 0.46706(8) 1.11501(15) 0.64294(12)
O1 O 0.5823(2) 1.2621(3) 0.6351(3)
H1 H 0.5466 1.2418 0.6337
O2 O 0.6168(2) 0.9088(4) 0.9803(3)
H2 H 0.5962 0.8772 1.0182
O3 O 0.5841(2) 1.2000(4) 0.4559(3)
H3 H 0.5843 1.2225 0.5075
O4 O 0.6047(2) 1.1139(4) 0.9197(3)
H4 H 0.6189 1.0592 0.9446
O5 O 0.6112(2) 0.4784(4) 0.6816(3)
H5 H 0.5917 0.4291 0.6569
O6 O 0.6070(2) 0.5598(4) 0.8467(3)
H6 H 0.6166 0.5286 0.8001
O7 O 0.5996(2) 0.8511(4) 0.3230(3)
H7 H 0.5888 0.8824 0.2770
O8 O 0.5865(2) 0.6517(4) 0.4062(3)
H8 H 0.5948 0.7104 0.3813
C1 C 0.7024(3) 0.7943(5) 0.8029(4)
H9 H 0.7334 0.8159 0.7645
C2 C 0.6371(3) 0.8327(5) 0.9190(4)
C3 C 0.6643(3) 0.8973(5) 0.4385(4)
C4 C 0.6939(3) 1.0742(5) 0.7215(4)
H10 H 0.7283 1.0367 0.7018
C5 C 0.5955(3) 1.1896(5) 0.7794(4)
C6 C 0.6282(3) 0.5554(5) 0.6204(4)
C7 C 0.6688(3) 0.7067(5) 0.4990(4)
C8 C 0.7085(3) 0.9829(5) 0.8682(4)
H11 H 0.7009 1.0097 0.9287
C9 C 0.7083(3) 0.6086(5) 0.7303(4)
H12 H 0.6997 0.5341 0.7523
C10 C 0.6751(3) 1.0584(5) 0.8064(4)
C11 C 0.6118(3) 0.7302(5) 0.9133(4)
C12 C 0.6254(3) 1.1185(5) 0.8356(4)
C13 C 0.6838(3) 0.9704(5) 0.4999(4)
H13 H 0.7146 0.9497 0.5390
C14 C 0.6185(3) 0.6443(6) 0.4842(5)
C15 C 0.7556(3) 1.1600(5) 0.5628(4)
H14 H 0.7718 1.0900 0.5834
H15 H 0.7668 1.1686 0.5008
C16 C 0.6336(3) 0.6601(5) 0.8502(4)
C17 C 0.7750(3) 0.9832(5) 0.8554(4)
H16 H 0.7897 1.0585 0.8606
H17 H 0.7841 0.9577 0.7957
C18 C 0.6593(3) 1.0757(5) 0.5067(4)
C19 C 0.6117(3) 1.1005(5) 0.4519(4)
C20 C 0.6781(3) 0.6193(5) 0.6421(5)
C21 C 0.7616(3) 0.7918(5) 0.4334(4)
H18 H 0.7743 0.8240 0.4895
H19 H 0.7778 0.7174 0.4307
C22 C 0.6147(3) 1.1966(5) 0.6947(4)
C23 C 0.6871(3) 1.1580(5) 0.5703(4)
H20 H 0.6728 1.2310 0.5514
C24 C 0.6804(3) 0.6893(5) 0.7959(4)
C25 C 0.6968(3) 0.6939(5) 0.5786(4)
H21 H 0.7304 0.7379 0.5910
C26 C 0.7767(3) 0.6209(5) 0.7265(5)
H22 H 0.7865 0.6922 0.7007
H23 H 0.7926 0.6199 0.7867
C27 C 0.6646(3) 1.1422(5) 0.6639(4)
C28 C 0.6183(3) 0.9272(5) 0.3827(4)
C29 C 0.6941(3) 0.7862(5) 0.4314(4)
H24 H 0.6831 0.7568 0.3729
C30 C 0.5901(3) 1.0267(6) 0.3905(4)
C31 C 0.7832(4) 1.2515(6) 0.6157(5)
H25 H 0.7699 1.3213 0.5924
H26 H 0.8268 1.2471 0.6119
H27 H 0.7709 1.2451 0.6767
C32 C 0.5969(3) 0.5674(5) 0.5429(4)
C33 C 0.6815(3) 0.8688(5) 0.8626(4)
C34 C 0.5448(3) 1.2582(6) 0.8140(5)
H28 H 0.5153 1.2114 0.8423
H29 H 0.5260 1.2972 0.7657
H30 H 0.5603 1.3103 0.8565
C35 C 0.8067(4) 0.5344(6) 0.6748(5)
H31 H 0.7928 0.5373 0.6143
H32 H 0.7972 0.4634 0.6998
H33 H 0.8500 0.5455 0.6763
C36 C 0.7878(4) 0.8570(6) 0.3604(5)
H34 H 0.7783 0.8224 0.3046
H35 H 0.8312 0.8607 0.3673
H36 H 0.7712 0.9303 0.3614
C37 C 0.5632(4) 0.6945(6) 0.9739(5)
H37 H 0.5678 0.7312 1.0301
H38 H 0.5658 0.6160 0.9825
H39 H 0.5244 0.7128 0.9486
C38 C 0.8082(4) 0.9121(6) 0.9209(5)
H40 H 0.8512 0.9173 0.9103
H41 H 0.7954 0.8367 0.9141
H42 H 0.7993 0.9366 0.9802
C39 C 0.5430(3) 0.5024(6) 0.5229(5)
H43 H 0.5549 0.4339 0.4959
H44 H 0.5173 0.5428 0.4828
H45 H 0.5212 0.4877 0.5770
C40 C 0.5372(3) 1.0606(6) 0.3350(5)
H46 H 0.5152 1.1182 0.3648
H47 H 0.5110 0.9982 0.3259
H48 H 0.5515 1.0872 0.2786
C41 C 0.5767(4) 0.8680(7) 0.6770(6)
H49 H 0.6066 0.8146 0.6592
H50 H 0.5456 0.8321 0.7114
H51 H 0.5957 0.9243 0.7122
N1 N 0.5490(6) 0.9187(10) 0.5969(8)
H52 H 0.5262 0.9834 0.6153
H53 H 0.5815 0.9439 0.5583
C42 C 0.5108(5) 0.8516(8) 0.5478(6)
H54 H 0.5178 0.8637 0.4855
H55 H 0.4693 0.8688 0.5617
H56 H 0.5188 0.7756 0.5620
H57? H 0.6076 0.8649 0.6319
H58? H 0.5787 0.8026 0.7130
H59? H 0.5830 0.9319 0.7136
H60? H 0.5259 0.9127 0.5135
H61? H 0.4690 0.8383 0.5329
H62? H 0.5344 0.7868 0.5347
N2? N 0.5152(8) 0.8749(14) 0.6337(11)
H63? H 0.4881 0.8255 0.6655
H64? H 0.5000 0.9493 0.6424
loop_
_geom_bond_atom_site_label_1
_geom_bond_atom_site_label_2
_geom_bond_site_symmetry_1
_geom_bond_site_symmetry_2
O1 H1 1_555 1_555
O2 H2 1_555 1_555
O3 H3 1_555 1_555
O4 H4 1_555 1_555
O5 H5 1_555 1_555
O6 H6 1_555 1_555
O7 H7 1_555 1_555
O8 H8 1_555 1_555
C1 H9 1_555 1_555
C2 O2 1_555 1_555
C3 C13 1_555 1_555
C4 H10 1_555 1_555
C5 C12 1_555 1_555
C6 O5 1_555 1_555
C7 C14 1_555 1_555
C8 H11 1_555 1_555
C9 H12 1_555 1_555
C10 C4 1_555 1_555
C11 C2 1_555 1_555
C12 O4 1_555 1_555
C13 H13 1_555 1_555
C14 O8 1_555 1_555
C15 H14 1_555 1_555
H15 C15 1_555 1_555
C16 O6 1_555 1_555
C17 C8 1_555 1_555
H16 C17 1_555 1_555
H17 C17 1_555 1_555
C18 C13 1_555 1_555
C19 O3 1_555 1_555
C20 C6 1_555 1_555
C21 H18 1_555 1_555
H19 C21 1_555 1_555
C22 O1 1_555 1_555
C23 C15 1_555 1_555
H20 C23 1_555 1_555
C24 C1 1_555 1_555
C25 C7 1_555 1_555
H21 C25 1_555 1_555
C26 C9 1_555 1_555
H22 C26 1_555 1_555
H23 C26 1_555 1_555
C27 C4 1_555 1_555
C28 O7 1_555 1_555
C29 C3 1_555 1_555
H24 C29 1_555 1_555
C30 C19 1_555 1_555
C31 C15 1_555 1_555
H25 C31 1_555 1_555
H26 C31 1_555 1_555
H27 C31 1_555 1_555
C32 C6 1_555 1_555
C33 C1 1_555 1_555
C34 C5 1_555 1_555
H28 C34 1_555 1_555
H29 C34 1_555 1_555
H30 C34 1_555 1_555
C35 C26 1_555 1_555
H31 C35 1_555 1_555
H32 C35 1_555 1_555
H33 C35 1_555 1_555
C36 C21 1_555 1_555
H34 C36 1_555 1_555
H35 C36 1_555 1_555
H36 C36 1_555 1_555
C37 C11 1_555 1_555
H37 C37 1_555 1_555
H38 C37 1_555 1_555
H39 C37 1_555 1_555
C38 C17 1_555 1_555
H40 C38 1_555 1_555
H41 C38 1_555 1_555
H42 C38 1_555 1_555
C39 C32 1_555 1_555
H43 C39 1_555 1_555
H44 C39 1_555 1_555
H45 C39 1_555 1_555
C40 C30 1_555 1_555
H46 C40 1_555 1_555
H47 C40 1_555 1_555
H48 C40 1_555 1_555
C41 H49 1_555 1_555
H50 C41 1_555 1_555
H51 C41 1_555 1_555
N1 C41 1_555 1_555
H52 N1 1_555 1_555
H53 N1 1_555 1_555
C42 N1 1_555 1_555
H54 C42 1_555 1_555
H55 C42 1_555 1_555
H56 C42 1_555 1_555
C2 C33 1_555 1_555
C3 C28 1_555 1_555
C5 C22 1_555 1_555
C7 C29 1_555 1_555
C8 C10 1_555 1_555
C8 C33 1_555 1_555
C9 C20 1_555 1_555
C9 C24 1_555 1_555
C10 C12 1_555 1_555
C11 C16 1_555 1_555
C14 C32 1_555 1_555
C16 C24 1_555 1_555
C18 C19 1_555 1_555
C18 C23 1_555 1_555
C20 C25 1_555 1_555
C21 C29 1_555 1_555
C22 C27 1_555 1_555
C23 C27 1_555 1_555
C28 C30 1_555 1_555

#END
