
#######################################################################
#
#                 Cambridge Crystallographic Data Centre
#                                CCDC 
#
#######################################################################
#
# If this CIF has been generated from an entry in the Cambridge 
# Structural Database, then it will include bibliographic, chemical, 
# crystal, experimental, refinement or atomic coordinate data resulting 
# from the CCDC's data processing and validation procedures.
#
#######################################################################

data_TOSMOF
_chemical_formula_moiety         'C22 H52 N6 4+,4(C1 F3 O3 S1 1-)'
_chemical_name_systematic        
"1,1'-Butane-1,4-diylbis(9-aza-1,5-diazoniacyclododecane) tetrakis(trifluoromethanesulfonate)"
_symmetry_cell_setting           monoclinic
_symmetry_space_group_name_H-M   'P 21/n'
_symmetry_Int_Tables_number      14
_space_group_name_Hall           '-P 2yn'
loop_
_symmetry_equiv_pos_site_id
_symmetry_equiv_pos_as_xyz
1 x,y,z
2 1/2-x,1/2+y,1/2-z
3 -x,-y,-z
4 1/2+x,1/2-y,1/2+z
_cell_length_a                   10.3354(8)
_cell_length_b                   17.2802(9)
_cell_length_c                   11.9040(10)
_cell_angle_alpha                90
_cell_angle_beta                 94.109(10)
_cell_angle_gamma                90
_cell_volume                     2120.56
_exptl_crystal_colour            colorless
_exptl_crystal_description       needle
_cell_formula_units_Z            2
loop_
_atom_site_label
_atom_site_type_symbol
_atom_site_fract_x
_atom_site_fract_y
_atom_site_fract_z
S1 S 0.79238(5) 0.09366(3) 0.69416(4)
O1 O 0.72470(19) 0.16404(11) 0.66766(18)
O2 O 0.7253(2) 0.02633(12) 0.6552(2)
F1 F 0.9994(2) 0.16202(13) 0.6294(2)
F2 F 0.8873(3) 0.1032(2) 0.5000(2)
F3 F 1.0053(2) 0.03886(15) 0.6231(3)
O3 O 0.8506(3) 0.09100(18) 0.80441(19)
C1 C 0.9289(3) 0.09954(19) 0.6077(3)
S2 S 0.16626(6) 0.41861(3) 0.72638(6)
O4 O 0.0885(2) 0.43249(12) 0.81959(17)
O5 O 0.2391(2) 0.34908(14) 0.7363(2)
O6 O 0.2322(2) 0.48454(12) 0.6874(2)
F4 F -0.0396(3) 0.4543(2) 0.5978(3)
F5 F -0.0200(3) 0.33331(17) 0.6364(3)
C2 C 0.0448(4) 0.3974(2) 0.6120(3)
F6 F 0.1016(3) 0.38684(19) 0.5176(2)
N1 N 0.58222(17) 0.33675(9) 0.60150(14)
H1 H 0.533(3) 0.2952(18) 0.625(3)
C3 C 0.4890(2) 0.40051(11) 0.56702(17)
H2 H 0.4508 0.4207 0.6351
H3 H 0.4175 0.3786 0.5170
N2 N 0.5182(2) 0.15005(10) 0.50129(17)
H4 H 0.5669 0.1228 0.4530
H5 H 0.5729 0.1651 0.5617
C4 C 0.4181(3) 0.09680(13) 0.5431(3)
H6 H 0.4623 0.0499 0.5742
H7 H 0.3592 0.0805 0.4782
N3 N 0.4550(2) 0.23917(10) 0.73125(17)
H8 H 0.387(3) 0.2689(19) 0.731(3)
C5 C 0.6656(2) 0.35617(13) 0.70671(19)
H9 H 0.6967 0.4102 0.7023
H10 H 0.7422 0.3216 0.7129
C6 C 0.5492(2) 0.46704(10) 0.50691(18)
H11 H 0.5741 0.4499 0.4321
H12 H 0.6283 0.4851 0.5511
C7 C 0.6588(2) 0.30797(12) 0.50883(18)
H13 H 0.7186 0.2668 0.5384
H14 H 0.7120 0.3509 0.4818
C8 C 0.4127(3) 0.15770(13) 0.7393(2)
H15 H 0.3575 0.1523 0.8035
H16 H 0.4898 0.1243 0.7543
C9 C 0.5728(3) 0.27601(13) 0.41032(19)
H17 H 0.5319 0.3201 0.3682
H18 H 0.6285 0.2486 0.3589
C10 C 0.4668(3) 0.22113(13) 0.4417(2)
H19 H 0.4086 0.2487 0.4908
H20 H 0.4147 0.2055 0.3724
C11 C 0.5894(3) 0.34675(14) 0.8101(2)
H21 H 0.5131 0.3816 0.8031
H22 H 0.6445 0.3630 0.8773
C12 C 0.3371(3) 0.13040(15) 0.6321(3)
H23 H 0.2738 0.0908 0.6527
H24 H 0.2873 0.1748 0.5989
C13 C 0.5428(3) 0.26423(14) 0.82784(19)
H25 H 0.6184 0.2290 0.8363
H26 H 0.4967 0.2616 0.8978
N1B N 0.41778(17) 0.66325(9) 0.39850(14)
H1B H 0.467(3) 0.7048(18) 0.375(3)
C3B C 0.5110(2) 0.59949(11) 0.43298(17)
H2B H 0.5492 0.5793 0.3649
H3B H 0.5825 0.6214 0.4830
N2B N 0.4818(2) 0.84995(10) 0.49871(17)
H4B H 0.4331 0.8772 0.5470
H5B H 0.4271 0.8349 0.4383
C4B C 0.5819(3) 0.90320(13) 0.4569(3)
H6B H 0.5377 0.9501 0.4258
H7B H 0.6408 0.9195 0.5218
N3B N 0.5450(2) 0.76083(10) 0.26875(17)
H8B H 0.613(3) 0.7311(19) 0.269(3)
C5B C 0.3344(2) 0.64383(13) 0.29329(19)
H9B H 0.3033 0.5898 0.2977
H10B H 0.2578 0.6784 0.2871
C6B C 0.4508(2) 0.53296(10) 0.49309(18)
H11B H 0.4259 0.5501 0.5679
H12B H 0.3717 0.5149 0.4489
C7B C 0.3412(2) 0.69203(12) 0.49117(18)
H13B H 0.2814 0.7332 0.4616
H14B H 0.2880 0.6491 0.5182
C8B C 0.5873(3) 0.84230(13) 0.2607(2)
H15B H 0.6425 0.8477 0.1965
H16B H 0.5102 0.8757 0.2457
C9B C 0.4272(3) 0.72399(13) 0.58968(19)
H17B H 0.4681 0.6799 0.6318
H18B H 0.3715 0.7514 0.6411
C10B C 0.5332(3) 0.77887(13) 0.5583(2)
H19B H 0.5914 0.7513 0.5092
H20B H 0.5853 0.7945 0.6276
C11B C 0.4106(3) 0.65325(14) 0.1899(2)
H21B H 0.4869 0.6184 0.1969
H22B H 0.3555 0.6370 0.1227
C12B C 0.6629(3) 0.86960(15) 0.3679(3)
H23B H 0.7262 0.9092 0.3473
H24B H 0.7127 0.8252 0.4011
C13B C 0.4572(3) 0.73577(14) 0.17216(19)
H25B H 0.3816 0.7710 0.1637
H26B H 0.5033 0.7384 0.1022
loop_
_geom_bond_atom_site_label_1
_geom_bond_atom_site_label_2
_geom_bond_site_symmetry_1
_geom_bond_site_symmetry_2
S1 O1 1_555 1_555
O2 S1 1_555 1_555
F1 C1 1_555 1_555
F2 C1 1_555 1_555
F3 C1 1_555 1_555
O3 S1 1_555 1_555
C1 S1 1_555 1_555
S2 O4 1_555 1_555
O5 S2 1_555 1_555
O6 S2 1_555 1_555
F4 C2 1_555 1_555
F5 C2 1_555 1_555
C2 S2 1_555 1_555
F6 C2 1_555 1_555
N1 H1 1_555 1_555
C3 N1 1_555 1_555
H2 C3 1_555 1_555
H3 C3 1_555 1_555
N2 H4 1_555 1_555
H5 N2 1_555 1_555
C4 N2 1_555 1_555
H6 C4 1_555 1_555
H7 C4 1_555 1_555
N3 H8 1_555 1_555
C5 N1 1_555 1_555
H9 C5 1_555 1_555
H10 C5 1_555 1_555
C6 C3 1_555 1_555
H11 C6 1_555 1_555
H12 C6 1_555 1_555
C7 N1 1_555 1_555
H13 C7 1_555 1_555
H14 C7 1_555 1_555
C8 N3 1_555 1_555
H15 C8 1_555 1_555
H16 C8 1_555 1_555
C9 C7 1_555 1_555
H17 C9 1_555 1_555
H18 C9 1_555 1_555
C10 N2 1_555 1_555
H19 C10 1_555 1_555
H20 C10 1_555 1_555
C11 C5 1_555 1_555
H21 C11 1_555 1_555
H22 C11 1_555 1_555
C12 C4 1_555 1_555
H23 C12 1_555 1_555
H24 C12 1_555 1_555
C13 N3 1_555 1_555
H25 C13 1_555 1_555
H26 C13 1_555 1_555
N1B H1B 1_555 1_555
C3B N1B 1_555 1_555
H2B C3B 1_555 1_555
H3B C3B 1_555 1_555
N2B H4B 1_555 1_555
H5B N2B 1_555 1_555
C4B N2B 1_555 1_555
H6B C4B 1_555 1_555
H7B C4B 1_555 1_555
N3B H8B 1_555 1_555
C5B N1B 1_555 1_555
H9B C5B 1_555 1_555
H10B C5B 1_555 1_555
C6B C6 1_555 1_555
H11B C6B 1_555 1_555
H12B C6B 1_555 1_555
C7B N1B 1_555 1_555
H13B C7B 1_555 1_555
H14B C7B 1_555 1_555
C8B N3B 1_555 1_555
H15B C8B 1_555 1_555
H16B C8B 1_555 1_555
C9B C7B 1_555 1_555
H17B C9B 1_555 1_555
H18B C9B 1_555 1_555
C10B N2B 1_555 1_555
H19B C10B 1_555 1_555
H20B C10B 1_555 1_555
C11B C5B 1_555 1_555
H21B C11B 1_555 1_555
H22B C11B 1_555 1_555
C12B C4B 1_555 1_555
H23B C12B 1_555 1_555
H24B C12B 1_555 1_555
C13B N3B 1_555 1_555
H25B C13B 1_555 1_555
H26B C13B 1_555 1_555
C8 C12 1_555 1_555
C9 C10 1_555 1_555
C11 C13 1_555 1_555
C3B C6B 1_555 1_555
C8B C12B 1_555 1_555
C9B C10B 1_555 1_555
C11B C13B 1_555 1_555

#END
