
#######################################################################
#
#                 Cambridge Crystallographic Data Centre
#                                CCDC 
#
#######################################################################
#
# If this CIF has been generated from an entry in the Cambridge 
# Structural Database, then it will include bibliographic, chemical, 
# crystal, experimental, refinement or atomic coordinate data resulting 
# from the CCDC's data processing and validation procedures.
#
#######################################################################

data_TOSTIG
_chemical_formula_moiety         'C6 Cl3 N3 O6,C8 H10'
_chemical_name_systematic        
'1,3,5-trichloro-2,4,6-trinitrobenzene p-xylene'
_symmetry_cell_setting           monoclinic
_symmetry_space_group_name_H-M   'P 2/n'
_symmetry_Int_Tables_number      13
_space_group_name_Hall           '-P 2yac'
loop_
_symmetry_equiv_pos_site_id
_symmetry_equiv_pos_as_xyz
1 x,y,z
2 1/2-x,y,1/2-z
3 -x,-y,-z
4 1/2+x,-y,1/2+z
_cell_length_a                   9.1110(18)
_cell_length_b                   15.338(3)
_cell_length_c                   13.324(3)
_cell_angle_alpha                90
_cell_angle_beta                 96.73(3)
_cell_angle_gamma                90
_cell_volume                     1849.13
_cell_formula_units_Z            4
loop_
_atom_site_label
_atom_site_type_symbol
_atom_site_fract_x
_atom_site_fract_y
_atom_site_fract_z
Cl1 Cl 0.0321(2) 0.56602(12) 0.36953(15)
N1 N 0.2500 0.6507(4) 0.2500
C1 C 0.2500 0.5535(5) 0.2500
O1 O 0.1575(7) 0.6866(3) 0.2014(4)
Cl2 Cl 0.2500 0.26423(14) 0.2500
C2 C 0.1505(6) 0.5104(4) 0.3027(4)
O2 O -0.0721(6) 0.3630(4) 0.3164(5)
N2 N 0.0505(8) 0.3734(4) 0.3599(5)
C3 C 0.1545(6) 0.4227(3) 0.3011(4)
O3 O 0.0966(7) 0.3459(4) 0.4418(4)
C4 C 0.2500 0.3738(5) 0.2500
Cl1A Cl 0.4679(2) 0.56602(12) 0.13047(15)
O1A O 0.3425(7) 0.6866(3) 0.2986(4)
C2A C 0.3495(6) 0.5104(4) 0.1973(4)
O2A O 0.5721(6) 0.3630(4) 0.1836(5)
N2A N 0.4495(8) 0.3734(4) 0.1401(5)
C3A C 0.3455(6) 0.4227(3) 0.1989(4)
O3A O 0.4034(7) 0.3459(4) 0.0582(4)
Cl3 Cl -0.00012(19) 0.87251(12) 0.16278(15)
Cl4 Cl -0.2500 1.17493(14) 0.2500
N3 N -0.0212(7) 1.0663(4) 0.1679(5)
O4 O -0.2092(6) 0.7517(3) 0.3284(4)
N4 N -0.2500 0.7877(4) 0.2500
C5 C -0.2500 0.8841(4) 0.2500
O5 O -0.0392(6) 1.0839(4) 0.0837(5)
C6 C -0.1379(5) 0.9265(3) 0.2090(4)
O6 O 0.0844(6) 1.0814(5) 0.2213(5)
C7 C -0.1397(5) 1.0177(3) 0.2118(4)
C8 C -0.2500 1.0622(5) 0.2500
Cl3A Cl -0.49988(19) 0.87251(12) 0.33722(15)
N3A N -0.4788(7) 1.0663(4) 0.3321(5)
O4A O -0.2908(6) 0.7517(3) 0.1716(4)
O5A O -0.4608(6) 1.0839(4) 0.4163(5)
C6A C -0.3621(5) 0.9265(3) 0.2910(4)
O6A O -0.5844(6) 1.0814(5) 0.2787(5)
C7A C -0.3603(5) 1.0177(3) 0.2882(4)
C9 C 0.0550(12) 0.6815(5) -0.0447(6)
H1 H 0.1294 0.6873 -0.0897
H2 H 0.0869 0.7110 0.0176
H3 H -0.0356 0.7070 -0.0752
C10 C 0.0304(11) 0.5857(5) -0.0239(7)
C11 C -0.0722(10) 0.5631(6) 0.0394(7)
H4 H -0.1248 0.6072 0.0671
C12 C -0.0990(9) 0.4813(8) 0.0624(6)
H5 H -0.1679 0.4700 0.1070
C9B C -0.0550(12) 0.3185(5) 0.0447(6)
H1B H -0.1294 0.3127 0.0897
H2B H -0.0869 0.2890 -0.0176
H3B H 0.0356 0.2930 0.0752
C10B C -0.0304(11) 0.4143(5) 0.0239(7)
C11B C 0.0722(10) 0.4369(6) -0.0394(7)
H4B H 0.1248 0.3928 -0.0671
C12B C 0.0990(9) 0.5187(8) -0.0624(6)
H5B H 0.1679 0.5300 -0.1070
C13 C 0.1260(8) 0.8344(5) 0.4508(6)
H6 H 0.2171 0.8455 0.4234
H7 H 0.0590 0.8046 0.4013
H8 H 0.1450 0.7988 0.5101
C14 C 0.0595(7) 0.9184(4) 0.4777(5)
C15 C 0.1273(7) 0.9962(6) 0.4594(5)
H9 H 0.2151 0.9949 0.4301
C16 C 0.0714(7) 1.0737(5) 0.4824(5)
H10 H 0.1238 1.1240 0.4708
C13B C -0.1260(8) 1.1656(5) 0.5492(6)
H6B H -0.2171 1.1545 0.5766
H7B H -0.0590 1.1954 0.5987
H8B H -0.1450 1.2012 0.4899
C14B C -0.0595(7) 1.0816(4) 0.5223(5)
C15B C -0.1273(7) 1.0038(6) 0.5406(5)
H9B H -0.2151 1.0051 0.5699
C16B C -0.0714(7) 0.9263(5) 0.5176(5)
H10B H -0.1238 0.8760 0.5292
loop_
_geom_bond_atom_site_label_1
_geom_bond_atom_site_label_2
_geom_bond_site_symmetry_1
_geom_bond_site_symmetry_2
Cl1 C2 1_555 1_555
N1 C1 1_555 1_555
C1 C2 1_555 1_555
O1 N1 1_555 1_555
Cl2 C4 1_555 1_555
C2 C3 1_555 1_555
O2 N2 1_555 1_555
N2 C3 1_555 1_555
C3 C4 1_555 1_555
O3 N2 1_555 1_555
C4 C3A 1_555 1_555
Cl3 C6 1_555 1_555
Cl4 C8 1_555 1_555
N3 O5 1_555 1_555
O4 N4 1_555 1_555
N4 C5 1_555 1_555
C5 C6 1_555 1_555
C6 C7 1_555 1_555
O6 N3 1_555 1_555
C7 N3 1_555 1_555
C8 C7 1_555 1_555
C9 H1 1_555 1_555
H2 C9 1_555 1_555
H3 C9 1_555 1_555
C10 C9 1_555 1_555
C11 C10 1_555 1_555
H4 C11 1_555 1_555
C12 C11 1_555 1_555
H5 C12 1_555 1_555
C13 H6 1_555 1_555
H7 C13 1_555 1_555
H8 C13 1_555 1_555
C14 C13 1_555 1_555
C15 C14 1_555 1_555
H9 C15 1_555 1_555
C16 C15 1_555 1_555
H10 C16 1_555 1_555
Cl1A C2A 1_555 1_555
O1A N1 1_555 1_555
C2A C1 1_555 1_555
O2A N2A 1_555 1_555
N2A C3A 1_555 1_555
C3A C2A 1_555 1_555
O3A N2A 1_555 1_555
Cl3A C6A 1_555 1_555
N3A O5A 1_555 1_555
O4A N4 1_555 1_555
C6A C5 1_555 1_555
O6A N3A 1_555 1_555
C7A C8 1_555 1_555
C9B H1B 1_555 1_555
H2B C9B 1_555 1_555
H3B C9B 1_555 1_555
C10B C12 1_555 1_555
C11B C10B 1_555 1_555
H4B C11B 1_555 1_555
C12B C10 1_555 1_555
H5B C12B 1_555 1_555
C13B H6B 1_555 1_555
H7B C13B 1_555 1_555
H8B C13B 1_555 1_555
C14B C16 1_555 1_555
C15B C14B 1_555 1_555
H9B C15B 1_555 1_555
C16B C14 1_555 1_555
H10B C16B 1_555 1_555
N3A C7A 1_555 1_555
C6A C7A 1_555 1_555
C9B C10B 1_555 1_555
C11B C12B 1_555 1_555
C13B C14B 1_555 1_555
C15B C16B 1_555 1_555

#END
