
#######################################################################
#
#                 Cambridge Crystallographic Data Centre
#                                CCDC 
#
#######################################################################
#
# If this CIF has been generated from an entry in the Cambridge 
# Structural Database, then it will include bibliographic, chemical, 
# crystal, experimental, refinement or atomic coordinate data resulting 
# from the CCDC's data processing and validation procedures.
#
#######################################################################

data_TOSWEF
_chemical_formula_moiety         'C39 H44 N4 O1 Se2'
_chemical_name_systematic        
(2,4-bis((3-octyl-3H-1,3-benzoselenazol-2-yl)methylene)-3-oxocyclobutylidene)malononitrile
_symmetry_cell_setting           monoclinic
_symmetry_space_group_name_H-M   'C 2/c'
_symmetry_Int_Tables_number      15
_space_group_name_Hall           '-C 2yn'
loop_
_symmetry_equiv_pos_site_id
_symmetry_equiv_pos_as_xyz
1 x,y,z
2 -x,y,1/2-z
3 1/2+x,1/2+y,z
4 1/2-x,1/2+y,1/2-z
5 -x,-y,-z
6 x,-y,1/2+z
7 1/2-x,1/2-y,-z
8 1/2+x,1/2-y,1/2+z
_cell_length_a                   27.572(3)
_cell_length_b                   9.4876(9)
_cell_length_c                   13.5972(13)
_cell_angle_alpha                90
_cell_angle_beta                 101.349(5)
_cell_angle_gamma                90
_cell_volume                     3487.37
_exptl_crystal_colour            purple
_exptl_crystal_description       plate
_cell_formula_units_Z            4
loop_
_atom_site_label
_atom_site_type_symbol
_atom_site_fract_x
_atom_site_fract_y
_atom_site_fract_z
C1 C 0.58928(8) 1.1466(2) -0.00984(15)
C2 C 0.60300(8) 1.2775(2) -0.04105(16)
H1 H 0.5978 1.3607 -0.0056
C3 C 0.62438(9) 1.2843(2) -0.12474(17)
H2 H 0.6342 1.3728 -0.1470
C4 C 0.63163(8) 1.1621(2) -0.17666(16)
H3 H 0.6464 1.1684 -0.2340
C5 C 0.61766(8) 1.0315(2) -0.14612(15)
H4 H 0.6228 0.9486 -0.1818
C6 C 0.59596(8) 1.0242(2) -0.06242(16)
C7 C 0.55871(8) 0.9161(2) 0.05885(16)
C8 C 0.54113(8) 0.8035(2) 0.10848(15)
H5 H 0.5455 0.7115 0.0841
C9 C 0.51794(8) 0.8136(2) 0.18972(15)
C10 C 0.5000 0.9243(3) 0.2500
C11 C 0.5000 0.7086(3) 0.2500
C12 C 0.5000 0.5613(3) 0.2500
C13 C 0.52616(9) 0.4838(2) 0.18812(17)
C14 C 0.57923(8) 0.7669(2) -0.07896(16)
H6 H 0.5701 0.7850 -0.1520
H7 H 0.5542 0.7024 -0.0607
C15 C 0.62979(9) 0.6952(2) -0.05566(17)
H8 H 0.6287 0.6100 -0.0981
H9 H 0.6547 0.7601 -0.0740
C16 C 0.64637(9) 0.6525(2) 0.05400(18)
H10 H 0.6450 0.7365 0.0966
H11 H 0.6226 0.5825 0.0708
C17 C 0.69733(11) 0.5911(3) 0.0797(2)
H12 H 0.7212 0.6550 0.0567
H13 H 0.6981 0.4992 0.0455
C18 C 0.71196(15) 0.5707(4) 0.1966(3)
H14 H 0.7056 0.6595 0.2302
H15 H 0.6909 0.4964 0.2174
C19 C 0.76596(15) 0.5298(4) 0.2304(3)
H16 H 0.7868 0.6068 0.2123
H17 H 0.7725 0.4446 0.1931
C20 C 0.7815(2) 0.5006(6) 0.3421(4)
H18 H 0.8161 0.4666 0.3555
H19 H 0.7607 0.4235 0.3599
C21 C 0.7780(5) 0.6271(11) 0.4117(10)
H20 H 0.7967 0.7067 0.3923
H21 H 0.7917 0.6007 0.4813
H22 H 0.7433 0.6544 0.4058
N1 N 0.54836(10) 0.4225(2) 0.13900(19)
N2 N 0.57837(7) 0.90135(17) -0.02452(13)
O1 O 0.5000 1.0540(2) 0.2500
Se1 Se 0.559055(8) 1.10671(2) 0.099608(15)
C1A C 0.41072(8) 1.1466(2) 0.50984(15)
C2A C 0.39700(8) 1.2775(2) 0.54105(16)
H1A H 0.4022 1.3607 0.5056
C3A C 0.37562(9) 1.2843(2) 0.62474(17)
H2A H 0.3658 1.3728 0.6470
C4A C 0.36837(8) 1.1621(2) 0.67666(16)
H3A H 0.3536 1.1684 0.7340
C5A C 0.38234(8) 1.0315(2) 0.64612(15)
H4A H 0.3772 0.9486 0.6818
C6A C 0.40404(8) 1.0242(2) 0.56242(16)
C7A C 0.44129(8) 0.9161(2) 0.44115(16)
C8A C 0.45887(8) 0.8035(2) 0.39152(15)
H5A H 0.4545 0.7115 0.4159
C9A C 0.48206(8) 0.8136(2) 0.31028(15)
C13A C 0.47384(9) 0.4838(2) 0.31188(17)
C14A C 0.42077(8) 0.7669(2) 0.57896(16)
H6A H 0.4299 0.7850 0.6520
H7A H 0.4458 0.7024 0.5607
C15A C 0.37021(9) 0.6952(2) 0.55566(17)
H8A H 0.3713 0.6100 0.5981
H9A H 0.3453 0.7601 0.5740
C16A C 0.35363(9) 0.6525(2) 0.44600(18)
H10A H 0.3550 0.7365 0.4034
H11A H 0.3774 0.5825 0.4292
C17A C 0.30267(11) 0.5911(3) 0.4203(2)
H12A H 0.2788 0.6550 0.4433
H13A H 0.3019 0.4992 0.4545
C18A C 0.28804(15) 0.5707(4) 0.3034(3)
H14A H 0.2944 0.6595 0.2698
H15A H 0.3091 0.4964 0.2826
C19A C 0.23404(15) 0.5298(4) 0.2696(3)
H16A H 0.2132 0.6068 0.2877
H17A H 0.2275 0.4446 0.3069
C20A C 0.2185(2) 0.5006(6) 0.1579(4)
H18A H 0.1839 0.4666 0.1445
H19A H 0.2393 0.4235 0.1401
C21A C 0.2220(5) 0.6271(11) 0.0883(10)
H20A H 0.2033 0.7067 0.1077
H21A H 0.2083 0.6007 0.0187
H22A H 0.2567 0.6544 0.0942
N1A N 0.45164(10) 0.4225(2) 0.36100(19)
N2A N 0.42163(7) 0.90135(17) 0.52452(13)
Se1A Se 0.440945(8) 1.10671(2) 0.400392(15)
H23? H 0.7021 0.5484 0.0158
H24? H 0.7191 0.6750 0.0893
C22? C 0.7221(4) 0.4924(12) 0.1557(9)
H25? H 0.7495 0.4421 0.1335
H26? H 0.6987 0.4230 0.1745
C23? C 0.7404(5) 0.5915(13) 0.2380(9)
H27? H 0.7134 0.6571 0.2452
H28? H 0.7676 0.6481 0.2204
C24? C 0.7595(7) 0.516(2) 0.3412(14)
H29? H 0.7330 0.4570 0.3591
H30? H 0.7880 0.4545 0.3365
C25? C 0.7737(14) 0.618(4) 0.413(3)
H31? H 0.8025 0.6688 0.3988
H32? H 0.7824 0.5732 0.4792
H33? H 0.7464 0.6840 0.4125
loop_
_geom_bond_atom_site_label_1
_geom_bond_atom_site_label_2
_geom_bond_site_symmetry_1
_geom_bond_site_symmetry_2
C1 C2 1_555 1_555
C2 H1 1_555 1_555
C3 C2 1_555 1_555
H2 C3 1_555 1_555
C4 C3 1_555 1_555
H3 C4 1_555 1_555
C5 C4 1_555 1_555
H4 C5 1_555 1_555
C6 C1 1_555 1_555
C7 C8 1_555 1_555
C8 H5 1_555 1_555
C9 C8 1_555 1_555
C10 C9 1_555 1_555
C11 C9 1_555 1_555
C12 C11 1_555 1_555
C13 C12 1_555 1_555
C14 H6 1_555 1_555
H7 C14 1_555 1_555
C15 C14 1_555 1_555
H8 C15 1_555 1_555
H9 C15 1_555 1_555
C16 C15 1_555 1_555
H10 C16 1_555 1_555
H11 C16 1_555 1_555
C17 C16 1_555 1_555
H12 C17 1_555 1_555
H13 C17 1_555 1_555
C18 C17 1_555 1_555
H14 C18 1_555 1_555
H15 C18 1_555 1_555
C19 C18 1_555 1_555
H16 C19 1_555 1_555
H17 C19 1_555 1_555
C20 C19 1_555 1_555
H18 C20 1_555 1_555
H19 C20 1_555 1_555
C21 C20 1_555 1_555
H20 C21 1_555 1_555
H21 C21 1_555 1_555
H22 C21 1_555 1_555
N1 C13 1_555 1_555
N2 C6 1_555 1_555
O1 C10 1_555 1_555
Se1 C1 1_555 1_555
C1A C2A 1_555 1_555
C2A H1A 1_555 1_555
C3A C2A 1_555 1_555
H2A C3A 1_555 1_555
C4A C3A 1_555 1_555
H3A C4A 1_555 1_555
C5A C4A 1_555 1_555
H4A C5A 1_555 1_555
C6A C1A 1_555 1_555
C7A C8A 1_555 1_555
C8A H5A 1_555 1_555
C9A C10 1_555 1_555
C13A C12 1_555 1_555
C14A H6A 1_555 1_555
H7A C14A 1_555 1_555
C15A C14A 1_555 1_555
H8A C15A 1_555 1_555
H9A C15A 1_555 1_555
C16A C15A 1_555 1_555
H10A C16A 1_555 1_555
H11A C16A 1_555 1_555
C17A C16A 1_555 1_555
H12A C17A 1_555 1_555
H13A C17A 1_555 1_555
C18A C17A 1_555 1_555
H14A C18A 1_555 1_555
H15A C18A 1_555 1_555
C19A C18A 1_555 1_555
H16A C19A 1_555 1_555
H17A C19A 1_555 1_555
C20A C19A 1_555 1_555
H18A C20A 1_555 1_555
H19A C20A 1_555 1_555
C21A C20A 1_555 1_555
H20A C21A 1_555 1_555
H21A C21A 1_555 1_555
H22A C21A 1_555 1_555
N1A C13A 1_555 1_555
N2A C6A 1_555 1_555
Se1A C1A 1_555 1_555
C5 C6 1_555 1_555
C7 N2 1_555 1_555
C7 Se1 1_555 1_555
C11 C9A 1_555 1_555
C14 N2 1_555 1_555
C5A C6A 1_555 1_555
C7A N2A 1_555 1_555
C7A Se1A 1_555 1_555
C8A C9A 1_555 1_555
C14A N2A 1_555 1_555

#END
