
#######################################################################
#
#                 Cambridge Crystallographic Data Centre
#                                CCDC 
#
#######################################################################
#
# If this CIF has been generated from an entry in the Cambridge 
# Structural Database, then it will include bibliographic, chemical, 
# crystal, experimental, refinement or atomic coordinate data resulting 
# from the CCDC's data processing and validation procedures.
#
#######################################################################

data_TOSZAE
_chemical_name_common            
'10-(8-oxyquinolinato)-phenoxaborin chloroform solvate'
_chemical_formula_moiety         'C21 H14 B1 N1 O2,2(C1 H1 Cl3)'
_chemical_name_systematic        
"2H-spiro[1,3,2-oxazaborolo[5,4,3-ij]quinoline-2,10'-phenoxaborinine] chloroform solvate"
_symmetry_cell_setting           monoclinic
_symmetry_space_group_name_H-M   'P 21/c'
_symmetry_Int_Tables_number      14
_space_group_name_Hall           '-P 2ybc'
loop_
_symmetry_equiv_pos_site_id
_symmetry_equiv_pos_as_xyz
1 x,y,z
2 -x,1/2+y,1/2-z
3 -x,-y,-z
4 x,1/2-y,1/2+z
_cell_length_a                   19.3536(2)
_cell_length_b                   12.1881(2)
_cell_length_c                   20.5126(3)
_cell_angle_alpha                90
_cell_angle_beta                 93.7940(10)
_cell_angle_gamma                90
_cell_volume                     4827.98
_exptl_crystal_colour            yellow
_cell_formula_units_Z            8
_exptl_crystal_recrystallization_method chloroform
_exptl_crystal_preparation       Luminescent
loop_
_atom_site_label
_atom_site_type_symbol
_atom_site_fract_x
_atom_site_fract_y
_atom_site_fract_z
Cl1 Cl 0.04352(3) 0.70119(5) 0.40800(3)
Cl2 Cl 0.12150(3) 0.78973(5) 0.52088(3)
Cl3 Cl 0.18002(3) 0.78960(6) 0.39504(3)
C1 C 0.10333(10) 0.80053(17) 0.43562(11)
H1 H 0.0827 0.8745 0.4260
Cl7 Cl 0.37308(2) 0.62109(3) 0.16655(2)
Cl8 Cl 0.45385(2) 0.57721(4) 0.05579(2)
Cl9 Cl 0.30414(2) 0.56353(4) 0.04135(2)
C3 C 0.37562(7) 0.63032(11) 0.08060(6)
H3 H 0.3732 0.7097 0.0682
C4 C -0.08999(7) 0.56821(10) 0.24767(6)
O1 O -0.19442(5) 0.60943(8) 0.17803(5)
C5 C 0.08059(6) 0.55062(10) 0.18783(6)
C6 C 0.15072(7) 0.57906(11) 0.18849(7)
C7 C -0.08867(7) 0.58476(10) 0.12081(6)
C8 C -0.16030(7) 0.59259(10) 0.23851(6)
O2 O -0.01410(5) 0.43862(8) 0.18296(5)
C9 C 0.05499(6) 0.44258(10) 0.18156(6)
C10 C -0.15966(7) 0.60386(11) 0.12162(6)
C11 C 0.17312(7) 0.38565(12) 0.17608(7)
H4 H 0.2055 0.3279 0.1719
C12 C -0.17555(7) 0.58300(12) 0.35380(7)
H5 H -0.2043 0.5881 0.3895
C13 C 0.10166(7) 0.35814(11) 0.17603(6)
H6 H 0.0866 0.2841 0.1723
C14 C -0.20196(7) 0.62031(12) 0.06436(7)
H7 H -0.2503 0.6319 0.0666
C15 C 0.16545(8) 0.69203(12) 0.19648(8)
H8 H 0.2118 0.7176 0.1968
C16 C -0.06092(7) 0.58548(12) 0.05897(7)
H9 H -0.0126 0.5737 0.0565
C17 C 0.04284(8) 0.72873(12) 0.20260(8)
H10 H 0.0067 0.7800 0.2079
N1 N 0.02807(6) 0.62314(9) 0.19405(6)
C18 C -0.06401(7) 0.55102(12) 0.31252(7)
H11 H -0.0164 0.5337 0.3207
C19 C -0.17275(8) 0.61957(12) 0.00461(7)
H12 H -0.2011 0.6305 -0.0344
C20 C 0.19789(7) 0.49127(12) 0.18183(7)
H13 H 0.2461 0.5053 0.1813
C21 C -0.20335(7) 0.60006(11) 0.29055(7)
H14 H -0.2511 0.6166 0.2826
C22 C 0.11197(8) 0.76493(12) 0.20383(9)
H15 H 0.1220 0.8407 0.2098
C23 C -0.10164(8) 0.60286(12) 0.00152(7)
H16 H -0.0813 0.6034 -0.0394
C24 C -0.10561(8) 0.55845(12) 0.36505(7)
H17 H -0.0864 0.5468 0.4083
B1 B -0.04424(7) 0.55468(12) 0.18669(7)
Cl10 Cl 0.12112(2) 0.38389(3) 0.33629(2)
Cl11 Cl 0.03161(2) 0.39998(4) 0.44392(2)
Cl12 Cl 0.17653(2) 0.45805(4) 0.46350(2)
C25 C 0.11579(7) 0.37162(12) 0.42176(6)
H18 H 0.1272 0.2941 0.4344
Cl13 Cl 0.31831(2) 0.18195(4) 0.03557(3)
Cl14 Cl 0.46000(2) 0.25486(5) 0.04834(3)
Cl15 Cl 0.36629(3) 0.31585(5) 0.14572(2)
C26 C 0.38904(8) 0.21299(13) 0.08990(8)
H19 H 0.4022 0.1452 0.1152
C27 C 0.40854(6) 0.91734(10) 0.12173(6)
C28 C 0.58104(6) 0.94572(10) 0.18156(6)
C29 C 0.29292(7) 0.87883(11) 0.07025(7)
H20 H 0.2451 0.8654 0.0746
O3 O 0.30618(5) 0.89122(8) 0.18377(5)
O4 O 0.48725(5) 1.05846(8) 0.18421(5)
N2 N 0.52852(5) 0.87297(9) 0.18735(5)
C30 C 0.60261(7) 1.13889(11) 0.17541(6)
H21 H 0.5878 1.2132 0.1746
C31 C 0.33799(6) 0.89700(10) 0.12567(6)
C32 C 0.31929(7) 0.88074(12) 0.00901(7)
H22 H 0.2893 0.8686 -0.0289
C33 C 0.65080(7) 0.91667(11) 0.17784(6)
C34 C 0.43281(7) 0.91850(12) 0.05847(6)
H23 H 0.4805 0.9322 0.0538
C35 C 0.38966(8) 0.90044(13) 0.00278(7)
H24 H 0.4078 0.9015 -0.0391
C36 C 0.34334(6) 0.90661(10) 0.24298(6)
C37 C 0.44423(7) 0.93902(11) 0.31319(6)
H25 H 0.4926 0.9518 0.3195
C38 C 0.40510(7) 0.93357(12) 0.36747(6)
H26 H 0.4267 0.9416 0.4101
C39 C 0.54289(7) 0.76644(11) 0.19018(7)
H27 H 0.5067 0.7149 0.1948
C40 C 0.33398(7) 0.91622(12) 0.35897(7)
H28 H 0.3068 0.9139 0.3958
C41 C 0.66483(7) 0.80269(12) 0.17991(7)
H29 H 0.7108 0.7768 0.1769
C42 C 0.41454(6) 0.92629(10) 0.24912(6)
C43 C 0.55598(6) 1.05425(10) 0.18009(6)
C44 C 0.30282(7) 0.90227(11) 0.29662(7)
H30 H 0.2544 0.8899 0.2906
B2 B 0.45665(7) 0.94270(12) 0.18615(7)
C45 C 0.67364(7) 1.11100(12) 0.17178(7)
H31 H 0.7061 1.1689 0.1687
C46 C 0.61146(7) 0.72931(12) 0.18634(7)
H32 H 0.6210 0.6529 0.1882
C47 C 0.69803(7) 1.00451(12) 0.17252(7)
H33 H 0.7460 0.9903 0.1695
Cl4? Cl 0.03964(11) 0.7429(2) 0.44673(14)
Cl5? Cl 0.18068(11) 0.8195(2) 0.45834(15)
Cl6? Cl 0.13430(13) 0.6735(2) 0.35307(11)
C2? C 0.1113(4) 0.7823(7) 0.4054(5)
H2? H 0.0979 0.8472 0.3775
loop_
_geom_bond_atom_site_label_1
_geom_bond_atom_site_label_2
_geom_bond_site_symmetry_1
_geom_bond_site_symmetry_2
Cl1 C1 1_555 1_555
Cl2 C1 1_555 1_555
Cl3 C1 1_555 1_555
C1 H1 1_555 1_555
Cl7 C3 1_555 1_555
Cl8 C3 1_555 1_555
Cl9 C3 1_555 1_555
C3 H3 1_555 1_555
C4 C8 1_555 1_555
O1 C8 1_555 1_555
C5 C6 1_555 1_555
C6 C15 1_555 1_555
C7 C10 1_555 1_555
C8 C21 1_555 1_555
O2 C9 1_555 1_555
C9 C5 1_555 1_555
C10 O1 1_555 1_555
C11 H4 1_555 1_555
C12 H5 1_555 1_555
C13 C9 1_555 1_555
H6 C13 1_555 1_555
C14 C10 1_555 1_555
H7 C14 1_555 1_555
C15 H8 1_555 1_555
C16 C7 1_555 1_555
H9 C16 1_555 1_555
C17 H10 1_555 1_555
N1 C5 1_555 1_555
C18 C4 1_555 1_555
H11 C18 1_555 1_555
C19 C14 1_555 1_555
H12 C19 1_555 1_555
C20 C6 1_555 1_555
H13 C20 1_555 1_555
C21 C12 1_555 1_555
H14 C21 1_555 1_555
C22 C15 1_555 1_555
H15 C22 1_555 1_555
C23 C16 1_555 1_555
H16 C23 1_555 1_555
C24 C12 1_555 1_555
H17 C24 1_555 1_555
B1 C4 1_555 1_555
Cl10 C25 1_555 1_555
Cl11 C25 1_555 1_555
Cl12 C25 1_555 1_555
C25 H18 1_555 1_555
Cl13 C26 1_555 1_555
Cl14 C26 1_555 1_555
Cl15 C26 1_555 1_555
C26 H19 1_555 1_555
C27 C31 1_555 1_555
C28 N2 1_555 1_555
C29 H20 1_555 1_555
O3 C31 1_555 1_555
O4 C43 1_555 1_555
N2 C39 1_555 1_555
C30 H21 1_555 1_555
C31 C29 1_555 1_555
C32 C29 1_555 1_555
H22 C32 1_555 1_555
C33 C28 1_555 1_555
C34 C27 1_555 1_555
H23 C34 1_555 1_555
C35 C32 1_555 1_555
H24 C35 1_555 1_555
C36 O3 1_555 1_555
C37 H25 1_555 1_555
C38 C37 1_555 1_555
H26 C38 1_555 1_555
C39 H27 1_555 1_555
C40 C38 1_555 1_555
H28 C40 1_555 1_555
C41 C33 1_555 1_555
H29 C41 1_555 1_555
C42 C36 1_555 1_555
C43 C28 1_555 1_555
C44 C36 1_555 1_555
H30 C44 1_555 1_555
B2 C27 1_555 1_555
C45 C30 1_555 1_555
H31 C45 1_555 1_555
C46 C39 1_555 1_555
H32 C46 1_555 1_555
C47 C33 1_555 1_555
H33 C47 1_555 1_555
C7 B1 1_555 1_555
O2 B1 1_555 1_555
C11 C13 1_555 1_555
C11 C20 1_555 1_555
C17 N1 1_555 1_555
C17 C22 1_555 1_555
N1 B1 1_555 1_555
C18 C24 1_555 1_555
C19 C23 1_555 1_555
O4 B2 1_555 1_555
N2 B2 1_555 1_555
C30 C43 1_555 1_555
C34 C35 1_555 1_555
C37 C42 1_555 1_555
C40 C44 1_555 1_555
C41 C46 1_555 1_555
C42 B2 1_555 1_555
C45 C47 1_555 1_555

#END
