
#######################################################################
#
#                 Cambridge Crystallographic Data Centre
#                                CCDC 
#
#######################################################################
#
# If this CIF has been generated from an entry in the Cambridge 
# Structural Database, then it will include bibliographic, chemical, 
# crystal, experimental, refinement or atomic coordinate data resulting 
# from the CCDC's data processing and validation procedures.
#
#######################################################################

data_TOTQOK
_chemical_formula_moiety         'C23 H18 N2'
_chemical_name_systematic        
7-methyl-6-phenyl-5,6-dihydrodibenzo[b,h][1,6]naphthyridine
_symmetry_cell_setting           monoclinic
_symmetry_space_group_name_H-M   'P 21/c'
_symmetry_Int_Tables_number      14
_space_group_name_Hall           '-P 2ybc'
loop_
_symmetry_equiv_pos_site_id
_symmetry_equiv_pos_as_xyz
1 x,y,z
2 -x,1/2+y,1/2-z
3 -x,-y,-z
4 x,1/2-y,1/2+z
_cell_length_a                   8.1644(9)
_cell_length_b                   10.1980(11)
_cell_length_c                   21.107(2)
_cell_angle_alpha                90
_cell_angle_beta                 101.1510(10)
_cell_angle_gamma                90
_cell_volume                     1724.2
_exptl_crystal_colour            yellow
_exptl_crystal_description       prismatic
_cell_formula_units_Z            4
loop_
_atom_site_label
_atom_site_type_symbol
_atom_site_fract_x
_atom_site_fract_y
_atom_site_fract_z
N1 N 0.53959(18) 0.92741(15) 0.23298(6)
N2 N 0.33570(17) 1.24726(12) 0.13613(6)
C1 C 0.4123(2) 0.89150(15) 0.17771(7)
H1 H 0.3329 0.8338 0.1935
C2 C 0.31793(18) 1.01310(15) 0.15102(7)
C3 C 0.40568(18) 1.13458(14) 0.15681(7)
C4 C 0.58254(19) 1.13609(14) 0.18768(7)
C5 C 0.64652(19) 1.02856(16) 0.22603(7)
C6 C 0.8111(2) 1.0307(2) 0.25825(8)
H2 H 0.8540 0.9604 0.2843
C7 C 0.9109(2) 1.1356(3) 0.25189(10)
H3 H 1.0215 1.1359 0.2736
C8 C 0.8497(2) 1.2405(2) 0.21391(11)
H4 H 0.9188 1.3112 0.2098
C9 C 0.6860(2) 1.24103(17) 0.18181(9)
H5 H 0.6447 1.3122 0.1561
C10 C 0.15396(19) 1.00933(17) 0.12030(7)
C11 C 0.0779(2) 1.12849(19) 0.09537(7)
C12 C 0.1723(2) 1.24493(17) 0.10524(7)
C13 C 0.0985(3) 1.3654(2) 0.08263(9)
H6 H 0.1603 1.4425 0.0893
C14 C -0.0636(3) 1.3686(3) 0.05095(10)
H7 H -0.1125 1.4482 0.0365
C15 C -0.1561(3) 1.2542(3) 0.04004(11)
H8 H -0.2659 1.2579 0.0176
C16 C -0.0899(2) 1.1383(3) 0.06137(9)
H9 H -0.1549 1.0630 0.0538
C17 C 0.0543(2) 0.8840(2) 0.11215(10)
H10 H 0.1264 0.8114 0.1270
H11 H 0.0055 0.8719 0.0674
H12 H -0.0326 0.8889 0.1369
C18 C 0.48337(18) 0.81491(15) 0.12703(7)
C19 C 0.4940(3) 0.68111(19) 0.13073(11)
H13 H 0.4558 0.6378 0.1638
C20 C 0.5603(4) 0.6092(2) 0.08633(12)
H14 H 0.5644 0.5182 0.0893
C21 C 0.6198(3) 0.6710(2) 0.03800(10)
H15 H 0.6672 0.6229 0.0087
C22 C 0.6092(2) 0.80294(18) 0.03324(9)
H16 H 0.6483 0.8457 0.0002
C23 C 0.5406(2) 0.87481(15) 0.07704(8)
H17 H 0.5330 0.9655 0.0727
H18 H 0.585(2) 0.8630(17) 0.2577(9)
loop_
_geom_bond_atom_site_label_1
_geom_bond_atom_site_label_2
_geom_bond_site_symmetry_1
_geom_bond_site_symmetry_2
N1 C1 1_555 1_555
N2 C3 1_555 1_555
C1 H1 1_555 1_555
C2 C1 1_555 1_555
C3 C2 1_555 1_555
C4 C3 1_555 1_555
C5 N1 1_555 1_555
C6 C5 1_555 1_555
H2 C6 1_555 1_555
C7 C6 1_555 1_555
H3 C7 1_555 1_555
C8 C7 1_555 1_555
H4 C8 1_555 1_555
C9 C4 1_555 1_555
H5 C9 1_555 1_555
C10 C2 1_555 1_555
C11 C10 1_555 1_555
C12 N2 1_555 1_555
C13 C12 1_555 1_555
H6 C13 1_555 1_555
C14 C13 1_555 1_555
H7 C14 1_555 1_555
C15 C14 1_555 1_555
H8 C15 1_555 1_555
C16 C11 1_555 1_555
H9 C16 1_555 1_555
C17 C10 1_555 1_555
H10 C17 1_555 1_555
H11 C17 1_555 1_555
H12 C17 1_555 1_555
C18 C1 1_555 1_555
C19 C18 1_555 1_555
H13 C19 1_555 1_555
C20 C19 1_555 1_555
H14 C20 1_555 1_555
C21 C20 1_555 1_555
H15 C21 1_555 1_555
C22 C21 1_555 1_555
H16 C22 1_555 1_555
C23 C18 1_555 1_555
H17 C23 1_555 1_555
H18 N1 1_555 1_555
C4 C5 1_555 1_555
C8 C9 1_555 1_555
C11 C12 1_555 1_555
C15 C16 1_555 1_555
C22 C23 1_555 1_555

#END
