
#######################################################################
#
#                 Cambridge Crystallographic Data Centre
#                                CCDC 
#
#######################################################################
#
# If this CIF has been generated from an entry in the Cambridge 
# Structural Database, then it will include bibliographic, chemical, 
# crystal, experimental, refinement or atomic coordinate data resulting 
# from the CCDC's data processing and validation procedures.
#
#######################################################################

data_TOVFER
_chemical_formula_moiety         'C23 H30 N3 P1 Se1'
_chemical_name_systematic        
'N-(1,3-di-t-butyl-1,3-dihydro-2H-imidazol-2-ylidene)-P,P-diphenylphosphinoselenoic amide'
_symmetry_cell_setting           tetragonal
_symmetry_space_group_name_H-M   'I 41/a'
_symmetry_Int_Tables_number      88
_space_group_name_Hall           '-I 4ad'
loop_
_symmetry_equiv_pos_site_id
_symmetry_equiv_pos_as_xyz
1 x,y,z
2 3/4-y,1/4+x,1/4+z
3 -x,1/2-y,z
4 1/4+y,1/4-x,1/4+z
5 1/2+x,1/2+y,1/2+z
6 1/4-y,3/4+x,3/4+z
7 1/2-x,-y,1/2+z
8 3/4+y,3/4-x,3/4+z
9 -x,-y,-z
10 1/4+y,3/4-x,3/4-z
11 x,1/2+y,-z
12 3/4-y,3/4+x,3/4-z
13 1/2-x,1/2-y,1/2-z
14 3/4+y,1/4-x,1/4-z
15 1/2+x,y,1/2-z
16 1/4-y,1/4+x,1/4-z
_cell_length_a                   23.7333(3)
_cell_length_b                   23.7333(3)
_cell_length_c                   15.9164(3)
_cell_angle_alpha                90
_cell_angle_beta                 90
_cell_angle_gamma                90
_cell_volume                     8965.22
_exptl_crystal_colour            colorless
_exptl_crystal_description       plates
_cell_formula_units_Z            16
_chemical_properties_physical    Moisture-sensitive
loop_
_atom_site_label
_atom_site_type_symbol
_atom_site_fract_x
_atom_site_fract_y
_atom_site_fract_z
Se1 Se 0.260293(9) 0.734864(9) 0.119971(12)
P1 P 0.271548(18) 0.751641(19) -0.01003(3)
N1 N 0.37222(6) 0.63715(6) -0.03013(9)
N2 N 0.28786(6) 0.60319(6) -0.05397(10)
N3 N 0.30027(6) 0.70434(6) -0.06828(10)
C1 C 0.31797(7) 0.65255(7) -0.05000(11)
C2 C 0.37439(8) 0.57931(8) -0.01844(12)
H1 H 0.4061 0.5586 -0.0033
C3 C 0.32313(8) 0.55866(8) -0.03269(12)
H2 H 0.3127 0.5210 -0.0290
C4 C 0.22731(8) 0.59595(8) -0.07984(12)
C5 C 0.21617(9) 0.53325(9) -0.09599(14)
H3 H 0.2427 0.5193 -0.1365
H4 H 0.1786 0.5285 -0.1171
H5 H 0.2202 0.5127 -0.0444
C6 C 0.21627(9) 0.62783(9) -0.16179(13)
H6 H 0.2237 0.6672 -0.1536
H7 H 0.1777 0.6228 -0.1781
H8 H 0.2405 0.6134 -0.2051
C7 C 0.18947(8) 0.61643(9) -0.00866(14)
H9 H 0.1979 0.5957 0.0416
H10 H 0.1507 0.6106 -0.0237
H11 H 0.1960 0.6558 0.0009
C8 C 0.42278(8) 0.67532(8) -0.02730(12)
C9 C 0.47568(8) 0.63979(9) -0.01496(14)
H12 H 0.4733 0.6200 0.0376
H13 H 0.5082 0.6639 -0.0146
H14 H 0.4789 0.6131 -0.0600
C10 C 0.41679(8) 0.71575(9) 0.04650(13)
H15 H 0.3845 0.7394 0.0379
H16 H 0.4500 0.7387 0.0506
H17 H 0.4121 0.6946 0.0975
C11 C 0.42690(9) 0.70565(11) -0.11139(14)
H18 H 0.4312 0.6785 -0.1556
H19 H 0.4589 0.7304 -0.1109
H20 H 0.3932 0.7272 -0.1207
C12 C 0.20487(8) 0.76952(7) -0.06147(12)
C13 C 0.20347(9) 0.77527(8) -0.14855(13)
H21 H 0.2364 0.7704 -0.1794
C14 C 0.15363(9) 0.78815(9) -0.18980(14)
H22 H 0.1531 0.7914 -0.2480
C15 C 0.10479(9) 0.79607(9) -0.14433(16)
H23 H 0.0714 0.8051 -0.1718
C16 C 0.10556(9) 0.79059(9) -0.05812(16)
H24 H 0.0726 0.7958 -0.0276
C17 C 0.15537(8) 0.77724(8) -0.01627(14)
H25 H 0.1555 0.7735 0.0419
C18 C 0.31180(8) 0.81679(8) -0.02528(12)
C19 C 0.32252(9) 0.85266(8) 0.04182(13)
H26 H 0.3084 0.8439 0.0947
C20 C 0.35412(10) 0.90145(9) 0.03086(15)
H27 H 0.3621 0.9244 0.0767
C21 C 0.37372(10) 0.91579(9) -0.04810(16)
H28 H 0.3947 0.9485 -0.0557
C22 C 0.36194(10) 0.88127(10) -0.11551(15)
H29 H 0.3743 0.8913 -0.1689
C23 C 0.33192(9) 0.83177(9) -0.10468(13)
H30 H 0.3251 0.8084 -0.1505
loop_
_geom_bond_atom_site_label_1
_geom_bond_atom_site_label_2
_geom_bond_site_symmetry_1
_geom_bond_site_symmetry_2
Se1 P1 1_555 1_555
P1 N3 1_555 1_555
N1 C1 1_555 1_555
N2 C1 1_555 1_555
N3 C1 1_555 1_555
C2 N1 1_555 1_555
H1 C2 1_555 1_555
C3 N2 1_555 1_555
H2 C3 1_555 1_555
C4 N2 1_555 1_555
C5 C4 1_555 1_555
H3 C5 1_555 1_555
H4 C5 1_555 1_555
H5 C5 1_555 1_555
C6 C4 1_555 1_555
H6 C6 1_555 1_555
H7 C6 1_555 1_555
H8 C6 1_555 1_555
C7 C4 1_555 1_555
H9 C7 1_555 1_555
H10 C7 1_555 1_555
H11 C7 1_555 1_555
C8 N1 1_555 1_555
C9 C8 1_555 1_555
H12 C9 1_555 1_555
H13 C9 1_555 1_555
H14 C9 1_555 1_555
C10 C8 1_555 1_555
H15 C10 1_555 1_555
H16 C10 1_555 1_555
H17 C10 1_555 1_555
C11 C8 1_555 1_555
H18 C11 1_555 1_555
H19 C11 1_555 1_555
H20 C11 1_555 1_555
C12 P1 1_555 1_555
C13 C12 1_555 1_555
H21 C13 1_555 1_555
C14 C13 1_555 1_555
H22 C14 1_555 1_555
C15 C14 1_555 1_555
H23 C15 1_555 1_555
C16 C15 1_555 1_555
H24 C16 1_555 1_555
C17 C12 1_555 1_555
H25 C17 1_555 1_555
C18 P1 1_555 1_555
C19 C18 1_555 1_555
H26 C19 1_555 1_555
C20 C19 1_555 1_555
H27 C20 1_555 1_555
C21 C20 1_555 1_555
H28 C21 1_555 1_555
C22 C21 1_555 1_555
H29 C22 1_555 1_555
C23 C18 1_555 1_555
H30 C23 1_555 1_555
C2 C3 1_555 1_555
C16 C17 1_555 1_555
C22 C23 1_555 1_555

#END
