
#######################################################################
#
#                 Cambridge Crystallographic Data Centre
#                                CCDC 
#
#######################################################################
#
# If this CIF has been generated from an entry in the Cambridge 
# Structural Database, then it will include bibliographic, chemical, 
# crystal, experimental, refinement or atomic coordinate data resulting 
# from the CCDC's data processing and validation procedures.
#
#######################################################################

data_TOVKUM
_chemical_compound_source        
'Chaetomium globosum 1C51 residing in Epinephelus drummondhayi guts'
_chemical_name_common            'chaetogline A cyclohexane solvate'
_chemical_formula_moiety         'C20 H18 N2 O5,0.5(C6 H12)'
_chemical_name_systematic        
'2-(1-methoxy-1-oxopropan-2-ylidene)-11-methyl-3-oxo-2,5,6,11-tetrahydro-3H-indolizino[8,7-b]indole-5-carboxylic acid cyclohexane solvate'
_symmetry_cell_setting           monoclinic
_symmetry_space_group_name_H-M   'P 21'
_symmetry_Int_Tables_number      4
_space_group_name_Hall           'P 2yb'
loop_
_symmetry_equiv_pos_site_id
_symmetry_equiv_pos_as_xyz
1 x,y,z
2 -x,1/2+y,-z
_cell_length_a                   12.2455(2)
_cell_length_b                   13.1152(2)
_cell_length_c                   12.5043(2)
_cell_angle_alpha                90
_cell_angle_beta                 90.772(1)
_cell_angle_gamma                90
_cell_volume                     2008.04
_exptl_crystal_colour            orange
_exptl_crystal_description       plate
_cell_formula_units_Z            4
_chemical_properties_physical    Oxygen-sensitive
loop_
_atom_site_label
_atom_site_type_symbol
_atom_site_fract_x
_atom_site_fract_y
_atom_site_fract_z
O1 O 0.80239(17) 0.50006(17) 0.0580(2)
H1 H 0.8231 0.4399 0.0476
O2 O 0.63681(18) 0.43091(17) 0.0415(2)
O3 O 0.72461(19) 0.68540(18) 0.25918(17)
O4 O 1.0283(2) 0.9383(2) 0.1276(2)
O5 O 1.0887(3) 0.9050(2) 0.2912(2)
N1 N 0.72893(19) 0.68928(18) 0.07622(18)
N2 N 0.80801(19) 0.74328(18) -0.20461(19)
C1 C 0.6964(2) 0.5044(2) 0.0509(2)
C2 C 0.6472(2) 0.6118(2) 0.0557(2)
H2 H 0.5949 0.6132 0.1164
C3 C 0.5820(2) 0.6353(2) -0.0473(2)
H3 H 0.5429 0.5733 -0.0716
H4 H 0.5271 0.6888 -0.0329
C4 C 0.6578(2) 0.6708(2) -0.1331(2)
C5 C 0.6451(2) 0.6704(2) -0.2464(2)
C6 C 0.5619(2) 0.6362(2) -0.3166(2)
H5 H 0.4965 0.6075 -0.2898
C7 C 0.5778(3) 0.6455(3) -0.4254(3)
H6 H 0.5224 0.6230 -0.4738
C8 C 0.6745(3) 0.6876(2) -0.4661(2)
H7 H 0.6841 0.6908 -0.5413
C9 C 0.7562(3) 0.7246(2) -0.3982(2)
H8 H 0.8205 0.7549 -0.4257
C10 C 0.7403(2) 0.7157(2) -0.2888(2)
C11 C 0.9167(2) 0.7857(3) -0.2166(2)
H9 H 0.9653 0.7579 -0.1610
H10 H 0.9134 0.8600 -0.2097
H11 H 0.9447 0.7678 -0.2872
C12 C 0.7571(2) 0.7161(2) -0.1107(2)
C13 C 0.7938(2) 0.7353(2) -0.0033(2)
C14 C 0.8733(2) 0.7932(2) 0.0442(2)
H12 H 0.9272 0.8315 0.0079
C15 C 0.8618(2) 0.7864(2) 0.1587(2)
C16 C 0.7655(2) 0.7162(2) 0.1764(2)
C17 C 0.9231(2) 0.8284(2) 0.2396(2)
C18 C 0.9033(3) 0.8131(3) 0.3564(3)
H13 H 0.8371 0.7721 0.3656
H14 H 0.8939 0.8794 0.3911
H15 H 0.9658 0.7776 0.3890
C19 C 1.0170(3) 0.8958(2) 0.2101(3)
C20 C 1.1801(5) 0.9711(5) 0.2700(4)
H16 H 1.2316 0.9689 0.3305
H17 H 1.1539 1.0411 0.2599
H18 H 1.2167 0.9483 0.2050
O6 O 0.86264(18) 0.30323(18) 0.0527(2)
O7 O 0.69743(17) 0.23361(17) 0.0546(2)
H19 H 0.6776 0.2946 0.0482
O8 O 0.77666(19) 0.05062(18) 0.26758(17)
O9 O 0.4361(12) -0.1993(11) 0.3017(10)
O10 O 0.4821(2) -0.2129(2) 0.13198(19)
N3 N 0.77098(19) 0.04441(18) 0.08511(19)
N4 N 0.69235(19) -0.01640(18) -0.19709(19)
C21 C 0.8026(2) 0.2291(2) 0.0571(2)
C22 C 0.8523(2) 0.1221(2) 0.0646(2)
H20 H 0.9051 0.1219 0.1263
C23 C 0.9171(2) 0.0974(2) -0.0369(2)
H21 H 0.9555 0.1593 -0.0616
H22 H 0.9725 0.0445 -0.0206
C24 C 0.8407(2) 0.0600(2) -0.1235(2)
C25 C 0.8541(2) 0.0575(2) -0.2359(2)
C26 C 0.9369(2) 0.0908(2) -0.3053(2)
H23 H 1.0017 0.1213 -0.2775
C27 C 0.9222(3) 0.0785(3) -0.4132(3)
H24 H 0.9778 0.1003 -0.4603
C28 C 0.8259(3) 0.0339(3) -0.4559(2)
H25 H 0.8170 0.0282 -0.5313
C29 C 0.7443(2) -0.0014(2) -0.3900(2)
H26 H 0.6802 -0.0325 -0.4186
C30 C 0.7595(2) 0.0102(2) -0.2799(2)
C31 C 0.5837(2) -0.0592(2) -0.2098(2)
H27 H 0.5514 -0.0361 -0.2778
H28 H 0.5379 -0.0367 -0.1507
H29 H 0.5883 -0.1338 -0.2097
C32 C 0.7423(2) 0.0135(2) -0.1024(2)
C33 C 0.7065(2) -0.0037(2) 0.0050(2)
C34 C 0.6291(2) -0.0624(2) 0.0508(2)
H30 H 0.5760 -0.1023 0.0138
C35 C 0.6411(2) -0.0539(2) 0.1654(2)
C36 C 0.7362(2) 0.0191(2) 0.1847(2)
C37 C 0.5828(2) -0.0977(2) 0.2457(2)
C38 C 0.6042(3) -0.0792(3) 0.3635(2)
H31 H 0.6457 -0.0159 0.3727
H32 H 0.6463 -0.1363 0.3934
H33 H 0.5345 -0.0736 0.4006
C39 C 0.4946(3) -0.1709(2) 0.2160(3)
C40 C 0.3268(11) -0.2471(10) 0.2668(12)
H34 H 0.2919 -0.2042 0.2120
H35 H 0.2788 -0.2524 0.3287
H36 H 0.3397 -0.3153 0.2375
C42 C 0.6331(3) 0.3578(4) 0.4217(4)
H40 H 0.5560 0.3442 0.4015
H41 H 0.6365 0.3713 0.4995
C43 C 0.6723(3) 0.4493(3) 0.3629(4)
H42 H 0.6291 0.5096 0.3844
H43 H 0.6610 0.4389 0.2851
C44 C 0.7928(3) 0.4691(3) 0.3860(4)
H44 H 0.8174 0.5274 0.3422
H45 H 0.8025 0.4879 0.4623
C45 C 0.8625(4) 0.3777(3) 0.3622(5)
H46 H 0.8623 0.3658 0.2840
H47 H 0.9386 0.3917 0.3853
C46 C 0.8231(4) 0.2842(4) 0.4171(6)
H48 H 0.8355 0.2917 0.4951
H49 H 0.8663 0.2250 0.3927
C47 C 0.7031(3) 0.2631(3) 0.3961(4)
H50 H 0.6794 0.2051 0.4408
H51 H 0.6920 0.2439 0.3201
O11? O 0.4197(13) -0.1747(11) 0.2939(10)
C41? C 0.3600(11) -0.2766(9) 0.2884(12)
H37? H 0.3201 -0.2817 0.2201
H38? H 0.3085 -0.2812 0.3475
H39? H 0.4131 -0.3323 0.2939
loop_
_geom_bond_atom_site_label_1
_geom_bond_atom_site_label_2
_geom_bond_site_symmetry_1
_geom_bond_site_symmetry_2
O1 H1 1_555 1_555
O2 C1 1_555 1_555
O3 C16 1_555 1_555
O4 C19 1_555 1_555
O5 C19 1_555 1_555
N1 C2 1_555 1_555
N2 C10 1_555 1_555
C1 O1 1_555 1_555
C2 C1 1_555 1_555
H2 C2 1_555 1_555
C3 C2 1_555 1_555
H3 C3 1_555 1_555
H4 C3 1_555 1_555
C4 C3 1_555 1_555
C5 C4 1_555 1_555
C6 C5 1_555 1_555
H5 C6 1_555 1_555
C7 C6 1_555 1_555
H6 C7 1_555 1_555
C8 C7 1_555 1_555
H7 C8 1_555 1_555
C9 C8 1_555 1_555
H8 C9 1_555 1_555
C10 C5 1_555 1_555
C11 N2 1_555 1_555
H9 C11 1_555 1_555
H10 C11 1_555 1_555
H11 C11 1_555 1_555
C12 N2 1_555 1_555
C13 N1 1_555 1_555
C14 C13 1_555 1_555
H12 C14 1_555 1_555
C15 C14 1_555 1_555
C16 N1 1_555 1_555
C17 C15 1_555 1_555
C18 C17 1_555 1_555
H13 C18 1_555 1_555
H14 C18 1_555 1_555
H15 C18 1_555 1_555
C19 C17 1_555 1_555
C20 O5 1_555 1_555
H16 C20 1_555 1_555
H17 C20 1_555 1_555
H18 C20 1_555 1_555
O6 C21 1_555 1_555
O7 H19 1_555 1_555
O8 C36 1_555 1_555
O9 C39 1_555 1_555
O10 C39 1_555 1_555
N3 C22 1_555 1_555
N4 C30 1_555 1_555
C21 O7 1_555 1_555
C22 C21 1_555 1_555
H20 C22 1_555 1_555
C23 C22 1_555 1_555
H21 C23 1_555 1_555
H22 C23 1_555 1_555
C24 C23 1_555 1_555
C25 C24 1_555 1_555
C26 C25 1_555 1_555
H23 C26 1_555 1_555
C27 C26 1_555 1_555
H24 C27 1_555 1_555
C28 C27 1_555 1_555
H25 C28 1_555 1_555
C29 C28 1_555 1_555
H26 C29 1_555 1_555
C30 C25 1_555 1_555
C31 N4 1_555 1_555
H27 C31 1_555 1_555
H28 C31 1_555 1_555
H29 C31 1_555 1_555
C32 N4 1_555 1_555
C33 N3 1_555 1_555
C34 C33 1_555 1_555
H30 C34 1_555 1_555
C35 C34 1_555 1_555
C36 N3 1_555 1_555
C37 C35 1_555 1_555
C38 C37 1_555 1_555
H31 C38 1_555 1_555
H32 C38 1_555 1_555
H33 C38 1_555 1_555
C39 C37 1_555 1_555
C40 O9 1_555 1_555
H34 C40 1_555 1_555
H35 C40 1_555 1_555
H36 C40 1_555 1_555
C42 H40 1_555 1_555
H41 C42 1_555 1_555
C43 C42 1_555 1_555
H42 C43 1_555 1_555
H43 C43 1_555 1_555
C44 C43 1_555 1_555
H44 C44 1_555 1_555
H45 C44 1_555 1_555
C45 C44 1_555 1_555
H46 C45 1_555 1_555
H47 C45 1_555 1_555
C46 C45 1_555 1_555
H48 C46 1_555 1_555
H49 C46 1_555 1_555
C47 C42 1_555 1_555
H50 C47 1_555 1_555
H51 C47 1_555 1_555
C4 C12 1_555 1_555
C9 C10 1_555 1_555
C12 C13 1_555 1_555
C15 C16 1_555 1_555
C24 C32 1_555 1_555
C29 C30 1_555 1_555
C32 C33 1_555 1_555
C35 C36 1_555 1_555
C46 C47 1_555 1_555

#END
