
#######################################################################
#
#                 Cambridge Crystallographic Data Centre
#                                CCDC 
#
#######################################################################
#
# If this CIF has been generated from an entry in the Cambridge 
# Structural Database, then it will include bibliographic, chemical, 
# crystal, experimental, refinement or atomic coordinate data resulting 
# from the CCDC's data processing and validation procedures.
#
#######################################################################

data_TOVPEB
_chemical_formula_moiety         'C24 H22 N2 O2'
_chemical_name_systematic        
(4-anilino-2,3,3a,9a-tetrahydrochromeno[2,3-b]pyrrol-1(4H)-yl)(phenyl)methanone
_symmetry_cell_setting           triclinic
_symmetry_space_group_name_H-M   'P -1'
_symmetry_Int_Tables_number      2
_space_group_name_Hall           '-P 1'
loop_
_symmetry_equiv_pos_site_id
_symmetry_equiv_pos_as_xyz
1 x,y,z
2 -x,-y,-z
_cell_length_a                   9.3408(19)
_cell_length_b                   12.950(3)
_cell_length_c                   16.177(3)
_cell_angle_alpha                88.93(3)
_cell_angle_beta                 89.75(3)
_cell_angle_gamma                84.65(3)
_cell_volume                     1947.95
_exptl_crystal_colour            colorless
_exptl_crystal_description       block
_cell_formula_units_Z            4
loop_
_atom_site_label
_atom_site_type_symbol
_atom_site_fract_x
_atom_site_fract_y
_atom_site_fract_z
O1 O 0.7725(2) 0.03040(17) 0.08306(14)
O2 O 0.6878(2) 0.32051(18) 0.20655(14)
N1 N 1.1427(3) -0.1245(2) 0.19133(16)
H1 H 1.0831 -0.1373 0.2326
N2 N 0.7999(3) 0.1697(2) 0.16738(15)
C1 C 0.9926(3) 0.0421(2) 0.16562(17)
H2 H 1.0701 0.0893 0.1735
C2 C 1.0613(3) -0.0601(2) 0.13040(18)
H3 H 1.1291 -0.0426 0.0853
C3 C 0.9487(3) -0.1211(2) 0.09282(18)
C4 C 0.8762(3) 0.0983(2) 0.11161(19)
H4 H 0.9188 0.1358 0.0643
C5 C 0.9767(4) -0.2268(2) 0.07750(19)
H5 H 1.0674 -0.2612 0.0926
C6 C 0.7310(3) 0.2633(2) 0.14984(19)
C7 C 1.3566(4) -0.0281(3) 0.1845(2)
H6 H 1.3234 0.0072 0.1352
C8 C 0.6478(3) 0.2406(3) 0.0030(2)
H7 H 0.6272 0.1716 0.0158
C9 C 0.7080(3) 0.2994(2) 0.06235(19)
C10 C 0.8754(4) -0.2828(3) 0.0407(2)
H8 H 0.8969 -0.3544 0.0300
C11 C 1.2726(3) -0.0988(2) 0.22339(18)
C12 C 0.7111(4) -0.1290(3) 0.0348(2)
H9 H 0.6192 -0.0957 0.0208
C13 C 0.8140(3) -0.0728(2) 0.07050(18)
C14 C 0.9122(3) 0.0325(2) 0.24804(18)
H10 H 0.8503 -0.0255 0.2472
H11 H 0.9804 0.0213 0.2947
C15 C 0.6179(4) 0.2827(3) -0.0749(2)
H12 H 0.5748 0.2430 -0.1151
C16 C 0.8225(4) 0.1360(2) 0.25474(19)
H13 H 0.7298 0.1277 0.2828
H14 H 0.8746 0.1863 0.2854
C17 C 1.4558(4) -0.1288(3) 0.3282(2)
H15 H 1.4893 -0.1632 0.3777
C18 C 1.3248(4) -0.1492(2) 0.2952(2)
H16 H 1.2700 -0.1983 0.3220
C19 C 0.7427(4) -0.2331(3) 0.0197(2)
H17 H 0.6727 -0.2711 -0.0053
C20 C 0.6501(5) 0.3819(3) -0.0947(2)
H18 H 0.6294 0.4103 -0.1483
C21 C 0.7394(5) 0.3993(3) 0.0424(2)
H19 H 0.7794 0.4401 0.0830
C22 C 1.4875(4) -0.0094(3) 0.2175(2)
H20 H 1.5440 0.0383 0.1902
C23 C 1.5377(4) -0.0588(3) 0.2894(2)
H21 H 1.6275 -0.0449 0.3120
C24 C 0.7127(5) 0.4401(3) -0.0364(3)
H22 H 0.7372 0.5078 -0.0503
O3 O 0.7817(2) 0.54936(16) 0.43359(14)
O4 O 0.9656(3) 0.80800(18) 0.33466(14)
N3 N 0.4609(3) 0.4675(2) 0.27305(15)
H23 H 0.5268 0.4314 0.2426
N4 N 0.8022(3) 0.6928(2) 0.34938(15)
C25 C 0.6080(3) 0.5985(2) 0.32108(18)
H24 H 0.5411 0.6590 0.3021
C26 C 0.8102(3) 0.3797(3) 0.48752(19)
H25 H 0.8953 0.3971 0.5138
C27 C 0.8205(3) 0.7509(2) 0.53300(18)
H26 H 0.8271 0.6775 0.5295
C28 C 0.5177(3) 0.5110(2) 0.34669(18)
H27 H 0.4345 0.5417 0.3800
C29 C 0.2946(4) 0.3679(2) 0.20300(19)
H28 H 0.3705 0.3405 0.1682
C30 C 0.6033(3) 0.4308(2) 0.40053(18)
C31 C 0.8420(3) 0.8111(2) 0.46285(18)
C32 C 0.7210(4) 0.5754(2) 0.25310(19)
H29 H 0.7738 0.5062 0.2619
H30 H 0.6758 0.5783 0.1977
C33 C 0.8754(3) 0.7686(2) 0.37858(19)
C34 C 0.3238(3) 0.4355(2) 0.26665(18)
C35 C 0.7277(3) 0.4538(2) 0.44011(18)
C36 C 0.5620(4) 0.3304(3) 0.4113(2)
H31 H 0.4769 0.3126 0.3853
C37 C 0.7674(4) 0.2813(3) 0.4960(2)
H32 H 0.8241 0.2301 0.5274
C38 C 0.7893(4) 0.7982(3) 0.6086(2)
H33 H 0.7756 0.7569 0.6566
C39 C 0.6990(3) 0.6341(2) 0.39085(18)
H34 H 0.6391 0.6781 0.4305
C40 C 0.1570(4) 0.3410(3) 0.1906(2)
H35 H 0.1395 0.2960 0.1468
C41 C 0.0727(3) 0.4432(3) 0.3042(2)
H36 H -0.0034 0.4683 0.3398
C42 C 0.8211(4) 0.6616(3) 0.26201(19)
H37 H 0.9221 0.6355 0.2507
H38 H 0.7929 0.7206 0.2238
C43 C 0.8367(4) 0.9181(3) 0.4698(2)
H39 H 0.8558 0.9595 0.4227
C44 C 0.0444(4) 0.3780(3) 0.2405(2)
H40 H -0.0502 0.3593 0.2314
C45 C 0.6417(4) 0.2565(3) 0.4587(2)
H41 H 0.6108 0.1890 0.4658
C46 C 0.7782(4) 0.9049(3) 0.6134(2)
H42 H 0.7526 0.9371 0.6644
C47 C 0.8041(5) 0.9652(3) 0.5445(2)
H43 H 0.7995 1.0385 0.5484
C48 C 0.2090(3) 0.4722(3) 0.3171(2)
H44 H 0.2251 0.5177 0.3608
loop_
_geom_bond_atom_site_label_1
_geom_bond_atom_site_label_2
_geom_bond_site_symmetry_1
_geom_bond_site_symmetry_2
O1 C4 1_555 1_555
O2 C6 1_555 1_555
N1 H1 1_555 1_555
N2 C4 1_555 1_555
C1 H2 1_555 1_555
C2 N1 1_555 1_555
H3 C2 1_555 1_555
C3 C2 1_555 1_555
C4 C1 1_555 1_555
H4 C4 1_555 1_555
C5 C3 1_555 1_555
H5 C5 1_555 1_555
C6 N2 1_555 1_555
C7 H6 1_555 1_555
C8 H7 1_555 1_555
C9 C6 1_555 1_555
C10 C5 1_555 1_555
H8 C10 1_555 1_555
C11 N1 1_555 1_555
C12 H9 1_555 1_555
C13 O1 1_555 1_555
C14 C1 1_555 1_555
H10 C14 1_555 1_555
H11 C14 1_555 1_555
C15 C8 1_555 1_555
H12 C15 1_555 1_555
C16 N2 1_555 1_555
H13 C16 1_555 1_555
H14 C16 1_555 1_555
C17 H15 1_555 1_555
C18 C11 1_555 1_555
H16 C18 1_555 1_555
C19 C10 1_555 1_555
H17 C19 1_555 1_555
C20 C15 1_555 1_555
H18 C20 1_555 1_555
C21 C9 1_555 1_555
H19 C21 1_555 1_555
C22 C7 1_555 1_555
H20 C22 1_555 1_555
C23 C17 1_555 1_555
H21 C23 1_555 1_555
C24 C20 1_555 1_555
H22 C24 1_555 1_555
O3 C35 1_555 1_555
O4 C33 1_555 1_555
N3 H23 1_555 1_555
N4 C33 1_555 1_555
C25 H24 1_555 1_555
C26 H25 1_555 1_555
C27 H26 1_555 1_555
C28 N3 1_555 1_555
H27 C28 1_555 1_555
C29 H28 1_555 1_555
C30 C28 1_555 1_555
C31 C27 1_555 1_555
C32 C25 1_555 1_555
H29 C32 1_555 1_555
H30 C32 1_555 1_555
C33 C31 1_555 1_555
C34 N3 1_555 1_555
C35 C26 1_555 1_555
C36 C30 1_555 1_555
H31 C36 1_555 1_555
C37 C26 1_555 1_555
H32 C37 1_555 1_555
C38 C27 1_555 1_555
H33 C38 1_555 1_555
C39 O3 1_555 1_555
H34 C39 1_555 1_555
C40 C29 1_555 1_555
H35 C40 1_555 1_555
C41 H36 1_555 1_555
C42 N4 1_555 1_555
H37 C42 1_555 1_555
H38 C42 1_555 1_555
C43 C31 1_555 1_555
H39 C43 1_555 1_555
C44 C40 1_555 1_555
H40 C44 1_555 1_555
C45 C36 1_555 1_555
H41 C45 1_555 1_555
C46 C38 1_555 1_555
H42 C46 1_555 1_555
C47 C43 1_555 1_555
H43 C47 1_555 1_555
C48 C34 1_555 1_555
H44 C48 1_555 1_555
C1 C2 1_555 1_555
C3 C13 1_555 1_555
C7 C11 1_555 1_555
C8 C9 1_555 1_555
C12 C13 1_555 1_555
C12 C19 1_555 1_555
C14 C16 1_555 1_555
C17 C18 1_555 1_555
C21 C24 1_555 1_555
C22 C23 1_555 1_555
N4 C39 1_555 1_555
C25 C28 1_555 1_555
C25 C39 1_555 1_555
C29 C34 1_555 1_555
C30 C35 1_555 1_555
C32 C42 1_555 1_555
C37 C45 1_555 1_555
C41 C44 1_555 1_555
C41 C48 1_555 1_555
C46 C47 1_555 1_555

#END
