
#######################################################################
#
#                 Cambridge Crystallographic Data Centre
#                                CCDC 
#
#######################################################################
#
# If this CIF has been generated from an entry in the Cambridge 
# Structural Database, then it will include bibliographic, chemical, 
# crystal, experimental, refinement or atomic coordinate data resulting 
# from the CCDC's data processing and validation procedures.
#
#######################################################################

data_TOYCOB
_chemical_formula_moiety         'C21 H18 N4 S1'
_chemical_name_systematic        
1-butyl-2-(2-thienyl)-1H-imidazo[4,5-f][1,10]phenanthroline
_symmetry_cell_setting           triclinic
_symmetry_space_group_name_H-M   'P -1'
_symmetry_Int_Tables_number      2
_space_group_name_Hall           '-P 1'
loop_
_symmetry_equiv_pos_site_id
_symmetry_equiv_pos_as_xyz
1 x,y,z
2 -x,-y,-z
_cell_length_a                   9.7125(19)
_cell_length_b                   9.9228(19)
_cell_length_c                   11.205(2)
_cell_angle_alpha                114.272(2)
_cell_angle_beta                 109.020(3)
_cell_angle_gamma                97.147(3)
_cell_volume                     887.871
_exptl_crystal_colour            colorless
_exptl_crystal_description       block
_cell_formula_units_Z            2
loop_
_atom_site_label
_atom_site_type_symbol
_atom_site_fract_x
_atom_site_fract_y
_atom_site_fract_z
C1 C -0.2222(3) 0.1558(2) 0.3858(2)
H1 H -0.2654 0.0865 0.4091
C2 C -0.1032(2) 0.1301(2) 0.3450(2)
H2 H -0.0678 0.0463 0.3420
C3 C -0.0394(2) 0.2300(2) 0.3095(2)
H3 H 0.0402 0.2146 0.2816
C4 C -0.0938(2) 0.3561(2) 0.31490(18)
C5 C -0.0379(2) 0.4722(2) 0.28201(18)
C6 C -0.0984(2) 0.5931(2) 0.29195(18)
C7 C -0.2204(2) 0.6117(2) 0.33558(18)
C8 C -0.2847(2) 0.7324(2) 0.3473(2)
H4 H -0.2530 0.8032 0.3200
C9 C -0.3942(2) 0.7458(2) 0.3990(2)
H5 H -0.4386 0.8251 0.4070
C10 C -0.4383(2) 0.6381(2) 0.4396(2)
H6 H -0.5101 0.6503 0.4784
C11 C -0.2762(2) 0.5041(2) 0.37369(18)
C12 C -0.2147(2) 0.3739(2) 0.35967(18)
C13 C 0.0809(2) 0.6275(2) 0.22787(18)
C14 C 0.1901(2) 0.6969(2) 0.1899(2)
C15 C 0.2477(2) 0.6311(3) 0.0886(2)
H7 H 0.2247 0.5250 0.0309
C16 C 0.3448(3) 0.7438(3) 0.0837(3)
H8 H 0.3933 0.7201 0.0217
C17 C 0.3608(3) 0.8891(3) 0.1773(3)
H9 H 0.4220 0.9769 0.1880
C18 C 0.1817(2) 0.4018(2) 0.21670(19)
H10 H 0.2145 0.3740 0.2927
H11 H 0.2716 0.4630 0.2219
C19 C 0.1073(2) 0.2548(2) 0.0717(2)
H12 H 0.0094 0.2016 0.0606
H13 H 0.0884 0.2828 -0.0043
C20 C 0.2036(3) 0.1457(3) 0.0548(3)
H14 H 0.2307 0.1261 0.1362
H15 H 0.1429 0.0477 -0.0315
C21 C 0.3476(3) 0.2052(4) 0.0450(4)
H16 H 0.3225 0.2300 -0.0322
H17 H 0.3988 0.1271 0.0271
H18 H 0.4134 0.2966 0.1340
N1 N -0.27766(19) 0.2726(2) 0.39344(18)
N2 N -0.38378(18) 0.5198(2) 0.42615(17)
N3 N 0.07887(17) 0.49527(17) 0.24047(15)
N4 N -0.02378(18) 0.68963(18) 0.25845(16)
S1 S 0.25619(7) 0.89463(6) 0.27412(7)
loop_
_geom_bond_atom_site_label_1
_geom_bond_atom_site_label_2
_geom_bond_site_symmetry_1
_geom_bond_site_symmetry_2
C1 H1 1_555 1_555
C2 C1 1_555 1_555
H2 C2 1_555 1_555
C3 C2 1_555 1_555
H3 C3 1_555 1_555
C4 C3 1_555 1_555
C5 C4 1_555 1_555
C6 C5 1_555 1_555
C7 C6 1_555 1_555
C8 C7 1_555 1_555
H4 C8 1_555 1_555
C9 C8 1_555 1_555
H5 C9 1_555 1_555
C10 C9 1_555 1_555
H6 C10 1_555 1_555
C11 C7 1_555 1_555
C12 C4 1_555 1_555
C13 C14 1_555 1_555
C14 C15 1_555 1_555
C15 H7 1_555 1_555
C16 C15 1_555 1_555
H8 C16 1_555 1_555
C17 C16 1_555 1_555
H9 C17 1_555 1_555
C18 H10 1_555 1_555
H11 C18 1_555 1_555
C19 C18 1_555 1_555
H12 C19 1_555 1_555
H13 C19 1_555 1_555
C20 C19 1_555 1_555
H14 C20 1_555 1_555
H15 C20 1_555 1_555
C21 C20 1_555 1_555
H16 C21 1_555 1_555
H17 C21 1_555 1_555
H18 C21 1_555 1_555
N1 C1 1_555 1_555
N2 C10 1_555 1_555
N3 C5 1_555 1_555
N4 C6 1_555 1_555
S1 C14 1_555 1_555
C11 C12 1_555 1_555
C11 N2 1_555 1_555
C12 N1 1_555 1_555
C13 N3 1_555 1_555
C13 N4 1_555 1_555
C17 S1 1_555 1_555
C18 N3 1_555 1_555

#END
