
#######################################################################
#
#                 Cambridge Crystallographic Data Centre
#                                CCDC 
#
#######################################################################
#
# If this CIF has been generated from an entry in the Cambridge 
# Structural Database, then it will include bibliographic, chemical, 
# crystal, experimental, refinement or atomic coordinate data resulting 
# from the CCDC's data processing and validation procedures.
#
#######################################################################

data_TOYCUH
_chemical_formula_moiety         'C21 H17 Br1 N4 S1,C1 H1 Cl3'
_chemical_name_systematic        
'2-(5-bromo-2-thienyl)-1-butyl-1H-imidazo[4,5-f][1,10]phenanthroline chloroform solvate'
_symmetry_cell_setting           triclinic
_symmetry_space_group_name_H-M   'P -1'
_symmetry_Int_Tables_number      2
_space_group_name_Hall           '-P 1'
loop_
_symmetry_equiv_pos_site_id
_symmetry_equiv_pos_as_xyz
1 x,y,z
2 -x,-y,-z
_cell_length_a                   9.276(3)
_cell_length_b                   10.410(3)
_cell_length_c                   13.153(4)
_cell_angle_alpha                107.382(5)
_cell_angle_beta                 104.667(5)
_cell_angle_gamma                97.372(5)
_cell_volume                     1143.63
_exptl_crystal_colour            colorless
_exptl_crystal_description       block
_cell_formula_units_Z            2
loop_
_atom_site_label
_atom_site_type_symbol
_atom_site_fract_x
_atom_site_fract_y
_atom_site_fract_z
Br1 Br 0.07266(6) 0.78189(5) 0.66271(4)
C1 C 0.3421(6) -0.0843(5) 0.1097(4)
H1 H 0.3271 -0.1501 0.0400
C2 C 0.2444(6) 0.0050(5) 0.1178(4)
H2 H 0.1643 -0.0035 0.0554
C3 C 0.2664(5) 0.1064(5) 0.2183(4)
H3 H 0.2027 0.1684 0.2253
C4 C 0.3868(5) 0.1140(4) 0.3101(3)
C5 C 0.4218(5) 0.2162(4) 0.4180(3)
C6 C 0.5421(5) 0.2205(4) 0.5064(3)
C7 C 0.6389(5) 0.1256(4) 0.4969(3)
C8 C 0.7655(5) 0.1217(4) 0.5805(3)
H4 H 0.7963 0.1896 0.6512
C9 C 0.8429(5) 0.0206(5) 0.5594(4)
H5 H 0.9268 0.0184 0.6148
C10 C 0.7954(5) -0.0807(4) 0.4532(4)
H6 H 0.8468 -0.1521 0.4405
C11 C 0.6033(5) 0.0196(4) 0.3896(3)
C12 C 0.4785(5) 0.0175(4) 0.2969(3)
C13 C 0.4208(5) 0.3856(4) 0.5568(3)
C14 C 0.3736(5) 0.5046(4) 0.6205(3)
C15 C 0.4402(5) 0.6053(4) 0.7227(4)
H7 H 0.5345 0.6086 0.7707
C16 C 0.3520(5) 0.7039(5) 0.7484(4)
H8 H 0.3817 0.7790 0.8149
C17 C 0.2220(5) 0.6780(4) 0.6674(4)
C18 C 0.6329(5) 0.3716(4) 0.7142(3)
H9 H 0.6570 0.2904 0.7302
H10 H 0.5753 0.4126 0.7626
C19 C 0.7803(5) 0.4742(4) 0.7396(3)
H11 H 0.8381 0.4332 0.6914
H12 H 0.7563 0.5555 0.7235
C20 C 0.8766(6) 0.5165(5) 0.8601(4)
H13 H 0.8137 0.5452 0.9078
H14 H 0.9109 0.4369 0.8731
C21 C 1.0132(6) 0.6312(6) 0.8931(4)
H15 H 1.0763 0.6037 0.8464
H16 H 1.0706 0.6516 0.9699
H17 H 0.9801 0.7119 0.8839
N1 N 0.4561(4) -0.0822(4) 0.1952(3)
N2 N 0.6813(4) -0.0802(3) 0.3700(3)
N3 N 0.5386(4) 0.3303(3) 0.5969(3)
N4 N 0.3479(4) 0.3191(3) 0.4490(3)
S1 S 0.20000(13) 0.53142(11) 0.55533(9)
C22 C 0.7176(6) 0.7586(5) 0.1387(4)
H18 H 0.6753 0.8212 0.1893
Cl1 Cl 0.764(3) 0.8580(11) 0.0733(17)
Cl2 Cl 0.5619(10) 0.6196(11) 0.0413(8)
Cl3 Cl 0.846(2) 0.687(2) 0.2034(11)
Cl4? Cl 0.7554(4) 0.6278(2) 0.1867(2)
Cl5? Cl 0.8967(3) 0.8504(3) 0.13913(19)
Cl6? Cl 0.5933(4) 0.7024(5) 0.0039(2)
loop_
_geom_bond_atom_site_label_1
_geom_bond_atom_site_label_2
_geom_bond_site_symmetry_1
_geom_bond_site_symmetry_2
Br1 C17 1_555 1_555
C1 H1 1_555 1_555
C2 C1 1_555 1_555
H2 C2 1_555 1_555
C3 C2 1_555 1_555
H3 C3 1_555 1_555
C4 C3 1_555 1_555
C5 C4 1_555 1_555
C6 C5 1_555 1_555
C7 C6 1_555 1_555
C8 C7 1_555 1_555
H4 C8 1_555 1_555
C9 C8 1_555 1_555
H5 C9 1_555 1_555
C10 C9 1_555 1_555
H6 C10 1_555 1_555
C11 C7 1_555 1_555
C12 C4 1_555 1_555
C13 C14 1_555 1_555
C14 C15 1_555 1_555
C15 H7 1_555 1_555
C16 C15 1_555 1_555
H8 C16 1_555 1_555
C17 C16 1_555 1_555
C18 H9 1_555 1_555
H10 C18 1_555 1_555
C19 C18 1_555 1_555
H11 C19 1_555 1_555
H12 C19 1_555 1_555
C20 C19 1_555 1_555
H13 C20 1_555 1_555
H14 C20 1_555 1_555
C21 C20 1_555 1_555
H15 C21 1_555 1_555
H16 C21 1_555 1_555
H17 C21 1_555 1_555
N1 C1 1_555 1_555
N2 C10 1_555 1_555
N3 C6 1_555 1_555
N4 C5 1_555 1_555
S1 C14 1_555 1_555
C22 H18 1_555 1_555
Cl1 C22 1_555 1_555
Cl2 C22 1_555 1_555
Cl3 C22 1_555 1_555
C11 C12 1_555 1_555
C11 N2 1_555 1_555
C12 N1 1_555 1_555
C13 N3 1_555 1_555
C13 N4 1_555 1_555
C17 S1 1_555 1_555
C18 N3 1_555 1_555

#END
