
#######################################################################
#
#                 Cambridge Crystallographic Data Centre
#                                CCDC 
#
#######################################################################
#
# If this CIF has been generated from an entry in the Cambridge 
# Structural Database, then it will include bibliographic, chemical, 
# crystal, experimental, refinement or atomic coordinate data resulting 
# from the CCDC's data processing and validation procedures.
#
#######################################################################

data_TOYFEU
_chemical_formula_moiety         'C26 H20 N4 O1 S2,C1 H1 Cl3'
_chemical_name_systematic        
"5'-(1-butyl-1H-imidazo[4,5-f][1,10]phenanthrolin-2-yl)-2,2'-bithiophene-5-carbaldehyde chloroform solvate"
_symmetry_cell_setting           monoclinic
_symmetry_space_group_name_H-M   'P 21/c'
_symmetry_Int_Tables_number      14
_space_group_name_Hall           '-P 2ybc'
loop_
_symmetry_equiv_pos_site_id
_symmetry_equiv_pos_as_xyz
1 x,y,z
2 -x,1/2+y,1/2-z
3 -x,-y,-z
4 x,1/2-y,1/2+z
_cell_length_a                   5.2878(14)
_cell_length_b                   33.975(9)
_cell_length_c                   14.927(4)
_cell_angle_alpha                90
_cell_angle_beta                 97.610(5)
_cell_angle_gamma                90
_cell_volume                     2658.06
_exptl_crystal_colour            yellow
_exptl_crystal_description       block
_cell_formula_units_Z            4
loop_
_atom_site_label
_atom_site_type_symbol
_atom_site_fract_x
_atom_site_fract_y
_atom_site_fract_z
C1 C 1.2745(8) 0.28390(11) 0.8700(3)
H1 H 1.3890 0.2633 0.8830
C2 C 1.0635(9) 0.27782(11) 0.8050(3)
H2 H 1.0368 0.2535 0.7766
C3 C 0.8955(8) 0.30828(10) 0.7836(2)
H3 H 0.7549 0.3048 0.7398
C4 C 0.9362(7) 0.34476(10) 0.8279(2)
C5 C 0.7883(7) 0.37982(10) 0.8104(2)
C6 C 0.8491(7) 0.41495(10) 0.8551(2)
C7 C 1.0670(7) 0.41820(10) 0.9231(2)
C8 C 1.1314(7) 0.45300(11) 0.9698(2)
H4 H 1.0314 0.4754 0.9585
C9 C 1.3444(8) 0.45364(11) 1.0327(2)
H5 H 1.3934 0.4765 1.0645
C10 C 1.4862(8) 0.41911(12) 1.0478(2)
H6 H 1.6306 0.4199 1.0907
C11 C 1.2202(7) 0.38465(10) 0.9427(2)
C12 C 1.1568(7) 0.34772(10) 0.8941(2)
C13 C 0.5178(7) 0.42763(11) 0.7625(2)
C14 C 0.4082(7) 0.36030(10) 0.6937(2)
H7 H 0.2337 0.3698 0.6869
H8 H 0.4124 0.3353 0.7252
C15 C 0.4826(8) 0.35350(11) 0.6014(2)
H9 H 0.6546 0.3430 0.6068
H10 H 0.4794 0.3782 0.5688
C16 C 0.2944(10) 0.32413(13) 0.5493(3)
H11 H 0.3158 0.2986 0.5785
H12 H 0.1215 0.3329 0.5531
C17 C 0.3271(12) 0.31960(15) 0.4533(3)
H13 H 0.2995 0.3445 0.4232
H14 H 0.2061 0.3008 0.4255
H15 H 0.4970 0.3106 0.4488
C18 C 0.3057(7) 0.44984(10) 0.7143(2)
C19 C 0.1525(8) 0.44339(12) 0.6345(2)
H16 H 0.1686 0.4217 0.5975
C20 C -0.0316(8) 0.47296(12) 0.6143(2)
H17 H -0.1513 0.4727 0.5627
C21 C -0.0183(7) 0.50184(10) 0.6771(2)
C22 C -0.1850(7) 0.53629(11) 0.6809(2)
C23 C -0.1852(7) 0.56340(11) 0.7464(3)
H18 H -0.0660 0.5637 0.7981
C24 C -0.3813(8) 0.59120(12) 0.7296(3)
H19 H -0.4050 0.6120 0.7682
C25 C -0.5340(7) 0.58421(11) 0.6497(2)
C26 C -0.7550(8) 0.60637(12) 0.6126(3)
H20 H -0.8038 0.6274 0.6464
N1 N 1.3207(6) 0.31745(9) 0.9142(2)
N2 N 1.4312(6) 0.38519(9) 1.00581(19)
N3 N 0.5706(5) 0.38845(8) 0.74995(17)
N4 N 0.6824(5) 0.44437(8) 0.82575(18)
O1 O -0.8820(6) 0.59981(8) 0.5409(2)
S1 S 0.22645(18) 0.49322(3) 0.76325(6)
S2 S -0.4321(2) 0.54381(3) 0.59545(6)
C27 C 0.2920(9) 0.69181(12) 0.9008(3)
H21 H 0.4113 0.6786 0.9471
Cl1 Cl 0.0649(3) 0.65856(5) 0.85453(13)
Cl2 Cl 0.1465(3) 0.73078(4) 0.94998(10)
Cl3 Cl 0.4576(3) 0.70956(6) 0.81645(13)
loop_
_geom_bond_atom_site_label_1
_geom_bond_atom_site_label_2
_geom_bond_site_symmetry_1
_geom_bond_site_symmetry_2
C1 H1 1_555 1_555
C2 C1 1_555 1_555
H2 C2 1_555 1_555
C3 C2 1_555 1_555
H3 C3 1_555 1_555
C4 C3 1_555 1_555
C5 C4 1_555 1_555
C6 C5 1_555 1_555
C7 C6 1_555 1_555
C8 C7 1_555 1_555
H4 C8 1_555 1_555
C9 C8 1_555 1_555
H5 C9 1_555 1_555
C10 C9 1_555 1_555
H6 C10 1_555 1_555
C11 C7 1_555 1_555
C12 C4 1_555 1_555
C13 C18 1_555 1_555
C14 H7 1_555 1_555
H8 C14 1_555 1_555
C15 C14 1_555 1_555
H9 C15 1_555 1_555
H10 C15 1_555 1_555
C16 C15 1_555 1_555
H11 C16 1_555 1_555
H12 C16 1_555 1_555
C17 C16 1_555 1_555
H13 C17 1_555 1_555
H14 C17 1_555 1_555
H15 C17 1_555 1_555
C18 C19 1_555 1_555
C19 H16 1_555 1_555
C20 C19 1_555 1_555
H17 C20 1_555 1_555
C21 C20 1_555 1_555
C22 C21 1_555 1_555
C23 C22 1_555 1_555
H18 C23 1_555 1_555
C24 C23 1_555 1_555
H19 C24 1_555 1_555
C25 C24 1_555 1_555
C26 C25 1_555 1_555
H20 C26 1_555 1_555
N1 C1 1_555 1_555
N2 C10 1_555 1_555
N3 C5 1_555 1_555
N4 C6 1_555 1_555
O1 C26 1_555 1_555
S1 C18 1_555 1_555
S2 C22 1_555 1_555
C27 H21 1_555 1_555
Cl1 C27 1_555 1_555
Cl2 C27 1_555 1_555
Cl3 C27 1_555 1_555
C11 C12 1_555 1_555
C11 N2 1_555 1_555
C12 N1 1_555 1_555
C13 N3 1_555 1_555
C13 N4 1_555 1_555
C14 N3 1_555 1_555
C21 S1 1_555 1_555
C25 S2 1_555 1_555

#END
