
#######################################################################
#
#                 Cambridge Crystallographic Data Centre
#                                CCDC 
#
#######################################################################
#
# If this CIF has been generated from an entry in the Cambridge 
# Structural Database, then it will include bibliographic, chemical, 
# crystal, experimental, refinement or atomic coordinate data resulting 
# from the CCDC's data processing and validation procedures.
#
#######################################################################

data_TOYGOF02
_chemical_formula_moiety         'C7 H11 N2 1+,C7 H4 N1 O4 1-'
_chemical_name_systematic        
'4-(dimethylamino)pyridin-1-ium 3-nitrobenzoate'
_symmetry_cell_setting           monoclinic
_symmetry_space_group_name_H-M   'C 2/c'
_symmetry_Int_Tables_number      15
_space_group_name_Hall           '-C 2yn'
loop_
_symmetry_equiv_pos_site_id
_symmetry_equiv_pos_as_xyz
1 x,y,z
2 -x,y,1/2-z
3 1/2+x,1/2+y,z
4 1/2-x,1/2+y,1/2-z
5 -x,-y,-z
6 x,-y,1/2+z
7 1/2-x,1/2-y,-z
8 1/2+x,1/2-y,1/2+z
_cell_length_a                   28.86(2)
_cell_length_b                   6.791(5)
_cell_length_c                   14.243(10)
_cell_angle_alpha                90
_cell_angle_beta                 95.4097(10)
_cell_angle_gamma                90
_cell_volume                     2779.03
_exptl_crystal_colour            colorless
_exptl_crystal_description       block
_chemical_melting_point          '160-163 deg.C'
_cell_formula_units_Z            8
loop_
_atom_site_label
_atom_site_type_symbol
_atom_site_fract_x
_atom_site_fract_y
_atom_site_fract_z
C1 C 0.40096(5) 0.3197(2) 0.27019(10)
O1 O 0.35699(4) 0.03687(17) 0.22487(9)
C2 C 0.43787(5) 0.2062(2) 0.30903(10)
C3 C 0.47601(5) 0.2981(2) 0.35586(10)
O2 O 0.32886(4) 0.32828(18) 0.17595(10)
C4 C 0.35863(5) 0.2224(2) 0.21897(10)
N1 N 0.51479(5) 0.1768(2) 0.39707(10)
C5 C 0.40357(6) 0.5229(3) 0.28006(13)
O3 O 0.51270(5) -0.0008(2) 0.38680(13)
C6 C 0.47894(6) 0.4990(3) 0.36560(13)
O4 O 0.54797(5) 0.2601(2) 0.43902(12)
C7 C 0.44213(7) 0.6106(3) 0.32754(15)
H1 H 0.4432 0.7469 0.3338
H2 H 0.4361(6) 0.066(3) 0.3009(11)
H3 H 0.3771(7) 0.603(3) 0.2548(13)
H4 H 0.5069(8) 0.555(3) 0.3951(15)
C8 C 0.30883(5) 0.2717(2) 0.43211(10)
N2 N 0.34892(4) 0.2015(2) 0.47438(9)
C9 C 0.27554(5) 0.1472(2) 0.38306(11)
C10 C 0.29662(6) 0.4727(2) 0.43461(12)
N3 N 0.22393(5) 0.4118(2) 0.34901(9)
C11 C 0.23456(5) 0.2205(3) 0.34415(12)
C12 C 0.25495(6) 0.5354(3) 0.39328(13)
C13 C 0.36047(8) -0.0062(3) 0.47001(17)
C14 C 0.38198(7) 0.3280(4) 0.52967(17)
H5 H 0.2125(7) 0.135(3) 0.3161(13)
H6 H 0.2824(7) 0.014(3) 0.3785(13)
H7 H 0.3164(8) 0.561(3) 0.4665(16)
H8 H 0.2434(7) 0.671(3) 0.3931(13)
H9 H 0.3581(8) -0.051(3) 0.4071(19)
H10 H 0.3906(10) -0.028(4) 0.4964(19)
H11 H 0.1924(9) 0.462(4) 0.3231(16)
H12 H 0.3367(9) -0.088(4) 0.5087(18)
H13 H 0.4041(11) 0.247(5) 0.568(2)
H14 H 0.3963(10) 0.410(4) 0.493(2)
H15 H 0.3657(9) 0.408(4) 0.5771(18)
loop_
_geom_bond_atom_site_label_1
_geom_bond_atom_site_label_2
_geom_bond_site_symmetry_1
_geom_bond_site_symmetry_2
C1 C2 1_555 1_555
O1 C4 1_555 1_555
C2 C3 1_555 1_555
C3 N1 1_555 1_555
O2 C4 1_555 1_555
C4 C1 1_555 1_555
N1 O3 1_555 1_555
C5 C1 1_555 1_555
C6 C3 1_555 1_555
O4 N1 1_555 1_555
C7 C5 1_555 1_555
H1 C7 1_555 1_555
H2 C2 1_555 1_555
H3 C5 1_555 1_555
H4 C6 1_555 1_555
C8 N2 1_555 1_555
N2 C13 1_555 1_555
C9 C8 1_555 1_555
C10 C8 1_555 1_555
N3 C11 1_555 1_555
C11 C9 1_555 1_555
C12 C10 1_555 1_555
C13 H9 1_555 1_555
C14 N2 1_555 1_555
H5 C11 1_555 1_555
H6 C9 1_555 1_555
H7 C10 1_555 1_555
H8 C12 1_555 1_555
H10 C13 1_555 1_555
H11 N3 1_555 1_555
H12 C13 1_555 1_555
H13 C14 1_555 1_555
H14 C14 1_555 1_555
H15 C14 1_555 1_555
C6 C7 1_555 1_555
N3 C12 1_555 1_555

#END
