
#######################################################################
#
#                 Cambridge Crystallographic Data Centre
#                                CCDC 
#
#######################################################################
#
# If this CIF has been generated from an entry in the Cambridge 
# Structural Database, then it will include bibliographic, chemical, 
# crystal, experimental, refinement or atomic coordinate data resulting 
# from the CCDC's data processing and validation procedures.
#
#######################################################################

data_TOZPOP
_chemical_formula_moiety         'C20 H21 F1 O6'
_chemical_name_systematic        
3b-Fluoro-6a-isopropyl-8b-methyl-3b,4,4a,7a,7b,8b,9,10-octahydrotrisoxireno[6,7:8a,9:4b,5]phenanthro[1,2-c]furan-1,6(3H,6aH)-dione
_chemical_properties_biological  'cytotoxic activity'
_symmetry_cell_setting           monoclinic
_symmetry_space_group_name_H-M   'P 21'
_symmetry_Int_Tables_number      4
_space_group_name_Hall           'P 2yb'
loop_
_symmetry_equiv_pos_site_id
_symmetry_equiv_pos_as_xyz
1 x,y,z
2 -x,1/2+y,-z
_cell_length_a                   11.1205(7)
_cell_length_b                   6.6473(5)
_cell_length_c                   12.3247(9)
_cell_angle_alpha                90
_cell_angle_beta                 107.037(2)
_cell_angle_gamma                90
_cell_volume                     871.077
_cell_formula_units_Z            2
loop_
_atom_site_label
_atom_site_type_symbol
_atom_site_fract_x
_atom_site_fract_y
_atom_site_fract_z
F1 F 0.57451(12) 0.1617(2) 0.41655(10)
O1 O 0.45591(16) 0.2313(3) -0.04911(13)
O2 O 0.35669(15) 0.0734(3) 0.06067(13)
O3 O 0.77934(14) -0.3255(2) 0.50371(13)
O4 O 0.86601(16) -0.2772(3) 0.72914(14)
O5 O 0.75223(14) 0.2115(2) 0.68339(12)
O6 O 0.94992(14) 0.0744(2) 0.51327(12)
C1 C 1.0482(2) 0.0145(4) 0.8995(2)
H1 H 1.0481 -0.1271 0.8844
H2 H 1.0836 0.0377 0.9795
H3 H 1.0976 0.0832 0.8590
C2 C 0.9134(2) 0.0938(4) 0.86102(19)
H4 H 0.9172 0.2371 0.8804
C3 C 0.8588(2) 0.0792(4) 0.73335(19)
C4 C 0.8391(2) -0.1227(4) 0.6763(2)
C5 C 0.7812(2) -0.1257(4) 0.54870(19)
C6 C 0.6615(2) -0.2376(4) 0.5038(2)
H5 H 0.6227 -0.2899 0.5599
C7 C 0.5729(2) -0.1864(4) 0.3878(2)
H6 H 0.5771 -0.2921 0.3348
H7 H 0.4875 -0.1817 0.3927
C8 C 0.6040(2) 0.0131(4) 0.34295(19)
C9 C 0.5227(2) 0.0610(4) 0.22600(18)
C10 C 0.5611(2) 0.1656(4) 0.15050(19)
C11 C 0.4582(2) 0.1668(4) 0.0426(2)
C12 C 0.3898(2) -0.0058(4) 0.17428(19)
H8 H 0.3838 -0.1514 0.1734
H9 H 0.3353 0.0483 0.2158
C13 C 0.8713(2) 0.2509(4) 0.6614(2)
H10 H 0.9192 0.3666 0.7009
C14 C 0.86834(19) 0.2234(4) 0.54118(18)
H11 H 0.8554 0.3464 0.4954
C15 C 0.8151(2) 0.0399(4) 0.47993(19)
C16 C 0.7444(2) 0.0440(4) 0.35191(18)
C17 C 0.7585(2) 0.2488(4) 0.29797(19)
H12 H 0.7256 0.3541 0.3358
H13 H 0.8470 0.2759 0.3091
C18 C 0.6884(2) 0.2528(4) 0.17013(19)
H14 H 0.6816 0.3903 0.1426
H15 H 0.7349 0.1758 0.1290
C19 C 0.7948(2) -0.1233(4) 0.2899(2)
H16 H 0.8740 -0.0824 0.2808
H17 H 0.7358 -0.1464 0.2167
H18 H 0.8059 -0.2449 0.3337
C20 C 0.8294(3) -0.0073(5) 0.9240(2)
H19 H 0.7457 0.0462 0.8969
H20 H 0.8626 0.0185 1.0039
H21 H 0.8274 -0.1497 0.9108
loop_
_geom_bond_atom_site_label_1
_geom_bond_atom_site_label_2
_geom_bond_site_symmetry_1
_geom_bond_site_symmetry_2
F1 C8 1_555 1_555
O1 C11 1_555 1_555
O2 C11 1_555 1_555
O3 C5 1_555 1_555
O4 C4 1_555 1_555
O5 C3 1_555 1_555
O6 C14 1_555 1_555
C1 H1 1_555 1_555
H2 C1 1_555 1_555
H3 C1 1_555 1_555
C2 C1 1_555 1_555
H4 C2 1_555 1_555
C3 C2 1_555 1_555
C4 C3 1_555 1_555
C5 C4 1_555 1_555
C6 O3 1_555 1_555
H5 C6 1_555 1_555
C7 C6 1_555 1_555
H6 C7 1_555 1_555
H7 C7 1_555 1_555
C8 C7 1_555 1_555
C9 C8 1_555 1_555
C10 C9 1_555 1_555
C11 C10 1_555 1_555
C12 O2 1_555 1_555
H8 C12 1_555 1_555
H9 C12 1_555 1_555
C13 O5 1_555 1_555
H10 C13 1_555 1_555
C14 C13 1_555 1_555
H11 C14 1_555 1_555
C15 O6 1_555 1_555
C16 C8 1_555 1_555
C17 C16 1_555 1_555
H12 C17 1_555 1_555
H13 C17 1_555 1_555
C18 C10 1_555 1_555
H14 C18 1_555 1_555
H15 C18 1_555 1_555
C19 C16 1_555 1_555
H16 C19 1_555 1_555
H17 C19 1_555 1_555
H18 C19 1_555 1_555
C20 C2 1_555 1_555
H19 C20 1_555 1_555
H20 C20 1_555 1_555
H21 C20 1_555 1_555
C3 C13 1_555 1_555
C5 C6 1_555 1_555
C5 C15 1_555 1_555
C9 C12 1_555 1_555
C14 C15 1_555 1_555
C15 C16 1_555 1_555
C17 C18 1_555 1_555

#END
