
#######################################################################
#
#                 Cambridge Crystallographic Data Centre
#                                CCDC 
#
#######################################################################
#
# If this CIF has been generated from an entry in the Cambridge 
# Structural Database, then it will include bibliographic, chemical, 
# crystal, experimental, refinement or atomic coordinate data resulting 
# from the CCDC's data processing and validation procedures.
#
#######################################################################

data_TPBUTR11
_chemical_name_common            tetraphenylbutatriene
_chemical_formula_moiety         'C28 H20'
_chemical_name_systematic        
1,1',1'',1'''-(butatriene-1,1,4,4-tetrayl)tetrabenzene
_symmetry_cell_setting           triclinic
_symmetry_space_group_name_H-M   'P -1'
_symmetry_Int_Tables_number      2
_space_group_name_Hall           '-P 1'
loop_
_symmetry_equiv_pos_site_id
_symmetry_equiv_pos_as_xyz
1 x,y,z
2 -x,-y,-z
_cell_length_a                   9.9154(12)
_cell_length_b                   10.0178(12)
_cell_length_c                   10.4437(12)
_cell_angle_alpha                92.162(5)
_cell_angle_beta                 104.822(5)
_cell_angle_gamma                105.321(4)
_cell_volume                     961.028
_exptl_crystal_colour            yellow
_exptl_crystal_description       needle
_cell_formula_units_Z            2
loop_
_atom_site_label
_atom_site_type_symbol
_atom_site_fract_x
_atom_site_fract_y
_atom_site_fract_z
C1 C 0.32626(13) 0.34828(12) 0.46111(12)
C2 C 0.27494(13) 0.44871(13) 0.50219(12)
C3 C 0.22503(13) 0.54427(13) 0.53220(12)
C4 C 0.17287(13) 0.65042(12) 0.55728(12)
C5 C 0.32727(13) 0.33376(13) 0.31945(12)
C6 C 0.33644(15) 0.44932(13) 0.24743(13)
H1 H 0.346809 0.537909 0.290987
C7 C 0.33059(16) 0.43619(15) 0.11379(14)
H2 H 0.337330 0.515821 0.066561
C8 C 0.31499(15) 0.30795(15) 0.04802(13)
H3 H 0.311134 0.299418 -0.043837
C9 C 0.30505(14) 0.19215(14) 0.11768(13)
H4 H 0.293516 0.103732 0.073097
C10 C 0.31186(13) 0.20477(13) 0.25210(13)
H5 H 0.305997 0.124938 0.299002
C11 C 0.37570(13) 0.25289(12) 0.55540(12)
C12 C 0.49295(14) 0.20256(13) 0.54969(12)
H6 H 0.540931 0.227593 0.482506
C13 C 0.53996(14) 0.11627(13) 0.64136(13)
H7 H 0.621691 0.085061 0.638180
C14 C 0.46834(15) 0.07536(13) 0.73751(13)
H8 H 0.499083 0.014295 0.798587
C15 C 0.35145(15) 0.12428(13) 0.74382(13)
H9 H 0.301884 0.096322 0.809371
C16 C 0.30643(14) 0.21388(13) 0.65492(12)
H10 H 0.228068 0.248928 0.661724
C17 C 0.11297(13) 0.72245(13) 0.44439(12)
C18 C 0.05889(14) 0.65353(13) 0.31451(13)
H11 H 0.055283 0.558325 0.299831
C19 C 0.01067(14) 0.72253(14) 0.20736(13)
H12 H -0.025666 0.674444 0.119921
C20 C 0.01519(14) 0.86157(14) 0.22710(13)
H13 H -0.016964 0.909091 0.153431
C21 C 0.06703(14) 0.93068(13) 0.35529(13)
H14 H 0.069143 1.025548 0.369331
C22 C 0.11576(13) 0.86243(13) 0.46300(13)
H15 H 0.151376 0.911031 0.550212
C23 C 0.18425(13) 0.69890(12) 0.69649(12)
C24 C 0.07240(14) 0.74048(13) 0.72988(13)
H16 H -0.012799 0.739123 0.662073
C25 C 0.08486(15) 0.78362(13) 0.86109(13)
H17 H 0.007116 0.809236 0.882960
C26 C 0.21021(15) 0.78964(13) 0.96068(13)
H18 H 0.219255 0.820856 1.050328
C27 C 0.32230(14) 0.74970(13) 0.92836(13)
H19 H 0.408735 0.754491 0.996061
C28 C 0.30886(14) 0.70287(13) 0.79788(13)
H20 H 0.385045 0.673225 0.777227
loop_
_geom_bond_atom_site_label_1
_geom_bond_atom_site_label_2
_geom_bond_site_symmetry_1
_geom_bond_site_symmetry_2
C1 C2 1_555 1_555
C2 C3 1_555 1_555
C3 C4 1_555 1_555
C4 C17 1_555 1_555
C5 C1 1_555 1_555
C6 C5 1_555 1_555
H1 C6 1_555 1_555
C7 C6 1_555 1_555
H2 C7 1_555 1_555
C8 C7 1_555 1_555
H3 C8 1_555 1_555
C9 C8 1_555 1_555
H4 C9 1_555 1_555
C10 C5 1_555 1_555
H5 C10 1_555 1_555
C11 C1 1_555 1_555
C12 C11 1_555 1_555
H6 C12 1_555 1_555
C13 C12 1_555 1_555
H7 C13 1_555 1_555
C14 C13 1_555 1_555
H8 C14 1_555 1_555
C15 C14 1_555 1_555
H9 C15 1_555 1_555
C16 C11 1_555 1_555
H10 C16 1_555 1_555
C17 C18 1_555 1_555
C18 H11 1_555 1_555
C19 C18 1_555 1_555
H12 C19 1_555 1_555
C20 C19 1_555 1_555
H13 C20 1_555 1_555
C21 C20 1_555 1_555
H14 C21 1_555 1_555
C22 C17 1_555 1_555
H15 C22 1_555 1_555
C23 C4 1_555 1_555
C24 C23 1_555 1_555
H16 C24 1_555 1_555
C25 C24 1_555 1_555
H17 C25 1_555 1_555
C26 C25 1_555 1_555
H18 C26 1_555 1_555
C27 C26 1_555 1_555
H19 C27 1_555 1_555
C28 C23 1_555 1_555
H20 C28 1_555 1_555
C9 C10 1_555 1_555
C15 C16 1_555 1_555
C21 C22 1_555 1_555
C27 C28 1_555 1_555

#END
