
#######################################################################
#
#                 Cambridge Crystallographic Data Centre
#                                CCDC 
#
#######################################################################
#
# If this CIF has been generated from an entry in the Cambridge 
# Structural Database, then it will include bibliographic, chemical, 
# crystal, experimental, refinement or atomic coordinate data resulting 
# from the CCDC's data processing and validation procedures.
#
#######################################################################

data_TPTRAZ01
_chemical_formula_moiety         'C21 H15 N3'
_chemical_name_systematic        sym-Triphenyl-triazine
_symmetry_cell_setting           monoclinic
_symmetry_space_group_name_H-M   'P 21/c'
_symmetry_Int_Tables_number      14
_space_group_name_Hall           '-P 2ybc'
loop_
_symmetry_equiv_pos_site_id
_symmetry_equiv_pos_as_xyz
1 x,y,z
2 -x,1/2+y,1/2-z
3 -x,-y,-z
4 x,1/2-y,1/2+z
_cell_length_a                   10.958(1)
_cell_length_b                   3.9113(2)
_cell_length_c                   35.921(3)
_cell_angle_alpha                90
_cell_angle_beta                 90.96(1)
_cell_angle_gamma                90
_cell_volume                     1539.36
_cell_formula_units_Z            4
loop_
_atom_site_label
_atom_site_type_symbol
_atom_site_fract_x
_atom_site_fract_y
_atom_site_fract_z
N1 N 0.5149(1) 0.4635(3) 0.09428(3)
C1 C 0.8943(1) 0.5620(5) 0.09210(4)
N2 N 0.3301(1) 0.4740(3) 0.12752(3)
C2 C 0.9565(1) 0.7120(5) 0.12156(4)
N3 N 0.5137(1) 0.6642(3) 0.15650(3)
C3 C 0.8930(1) 0.8263(1) 0.15198(4)
C4 C 0.3945(1) 0.4127(4) 0.09706(4)
C5 C 0.7672(1) 0.7923(4) 0.15311(4)
C6 C 0.3935(1) 0.6009(4) 0.15647(4)
C7 C 0.5700(1) 0.5889(4) 0.12491(4)
C8 C 0.3288(1) 0.2778(4) 0.06384(4)
C9 C 0.2085(1) 0.1688(5) 0.06612(4)
C10 C 0.1480(1) 0.0437(5) 0.03494(5)
C11 C 0.2057(1) 0.0308(5) 0.00104(4)
C12 C 0.3247(1) 0.1372(5) -0.00143(4)
C13 C 0.3866(1) 0.2594(5) 0.02978(4)
C14 C 0.3265(1) 0.6701(4) 0.19122(4)
C15 C 0.3848(1) 0.8253(4) 0.22147(4)
C16 C 0.3229(1) 0.8799(4) 0.25429(4)
C17 C 0.2025(1) 0.7836(5) 0.25694(4)
C18 C 0.1436(1) 0.6321(5) 0.22699(4)
C19 C 0.2042(1) 0.5737(4) 0.19430(4)
C20 C 0.7042(1) 0.6384(4) 0.12357(4)
C21 C 0.7686(1) 0.5256(4) 0.09292(4)
H1 H 0.169(2) 0.178(5) 0.0895(5)
H2 H 0.063(2) -0.032(6) 0.0364(6)
H3 H 0.162(2) -0.069(6) -0.0208(6)
H4 H 0.363(2) 0.128(6) -0.0260(7)
H5 H 0.468(2) 0.348(5) 0.0282(5)
H6 H 0.467(2) 0.891(4) 0.2198(5)
H7 H 0.368(2) 0.984(5) 0.2749(6)
H8 H 0.158(2) 0.818(5) 0.2811(6)
H9 H 0.058(2) 0.562(5) 0.2288(6)
H10 H 0.167(2) 0.457(5) 0.1739(5)
H11 H 0.724(2) 0.418(5) 0.0720(5)
H12 H 0.940(2) 0.488(5) 0.0694(6)
H13 H 1.047(2) 0.725(5) 0.1198(5)
H14 H 0.937(2) 0.934(5) 0.1732(5)
H15 H 0.721(2) 0.880(5) 0.1745(5)
loop_
_geom_bond_atom_site_label_1
_geom_bond_atom_site_label_2
_geom_bond_site_symmetry_1
_geom_bond_site_symmetry_2
N1 C4 1_555 1_555
C1 C2 1_555 1_555
N2 C4 1_555 1_555
C2 C3 1_555 1_555
N3 C6 1_555 1_555
C3 C5 1_555 1_555
C4 C8 1_555 1_555
C5 C20 1_555 1_555
C6 N2 1_555 1_555
C7 N1 1_555 1_555
C8 C9 1_555 1_555
C9 C10 1_555 1_555
C10 C11 1_555 1_555
C11 C12 1_555 1_555
C12 C13 1_555 1_555
C13 C8 1_555 1_555
C14 C6 1_555 1_555
C15 C14 1_555 1_555
C16 C15 1_555 1_555
C17 C16 1_555 1_555
C18 C17 1_555 1_555
C19 C14 1_555 1_555
C20 C7 1_555 1_555
C21 C1 1_555 1_555
H1 C9 1_555 1_555
H2 C10 1_555 1_555
H3 C11 1_555 1_555
H4 C12 1_555 1_555
H5 C13 1_555 1_555
H6 C15 1_555 1_555
H7 C16 1_555 1_555
H8 C17 1_555 1_555
H9 C18 1_555 1_555
H10 C19 1_555 1_555
H11 C21 1_555 1_555
H12 C1 1_555 1_555
H13 C2 1_555 1_555
H14 C3 1_555 1_555
H15 C5 1_555 1_555
N3 C7 1_555 1_555
C18 C19 1_555 1_555
C20 C21 1_555 1_555

#END
