
#######################################################################
#
#                 Cambridge Crystallographic Data Centre
#                                CCDC 
#
#######################################################################
#
# If this CIF has been generated from an entry in the Cambridge 
# Structural Database, then it will include bibliographic, chemical, 
# crystal, experimental, refinement or atomic coordinate data resulting 
# from the CCDC's data processing and validation procedures.
#
#######################################################################

data_TREHAL14
_chemical_formula_moiety         'C12 H22 O11,2(H2 O1)'
_chemical_name_systematic        'trehalose dihydrate'
_symmetry_cell_setting           orthorhombic
_symmetry_space_group_name_H-M   'P 21 21 21'
_symmetry_Int_Tables_number      19
_space_group_name_Hall           'P 2ac 2ab'
loop_
_symmetry_equiv_pos_site_id
_symmetry_equiv_pos_as_xyz
1 x,y,z
2 1/2-x,-y,1/2+z
3 -x,1/2+y,1/2-z
4 1/2+x,1/2-y,-z
_cell_length_a                   7.5341(4)
_cell_length_b                   12.1764(7)
_cell_length_c                   17.7886(10)
_cell_angle_alpha                90
_cell_angle_beta                 90
_cell_angle_gamma                90
_cell_volume                     1631.89
_exptl_crystal_colour            colorless
_exptl_crystal_description       block
_cell_formula_units_Z            4
loop_
_atom_site_label
_atom_site_type_symbol
_atom_site_fract_x
_atom_site_fract_y
_atom_site_fract_z
O1 O 0.50156(4) 0.54654(2) 0.714624(16)
O2 O 0.06080(4) 0.62758(3) 0.647388(18)
H1 H 0.0142(12) 0.5701(7) 0.6543(5)
O3 O 0.19579(5) 0.83058(3) 0.711632(18)
H2 H 0.1084(12) 0.8434(6) 0.6829(4)
O4 O 0.57780(5) 0.84153(3) 0.716099(19)
H3 H 0.5247(13) 0.8943(7) 0.7245(5)
O5 O 0.68654(5) 0.64805(3) 0.846538(17)
H4 H 0.6102(15) 0.6016(8) 0.8552(5)
O6 O 0.39666(4) 0.57048(2) 0.591324(16)
O7 O 0.38035(4) 0.39117(2) 0.544659(16)
O8 O 0.63237(5) 0.63121(3) 0.480373(19)
H5 H 0.5674(13) 0.6829(7) 0.4948(5)
O9 O 0.39720(5) 0.59187(3) 0.356648(18)
H6 H 0.3071(12) 0.6147(6) 0.3380(4)
O10 O 0.06488(5) 0.48917(3) 0.401566(19)
H7 H 0.0356(13) 0.5394(7) 0.4251(5)
O11 O 0.06564(5) 0.26187(3) 0.577692(18)
H8 H 0.1523(12) 0.2312(7) 0.5976(5)
C1 C 0.35161(6) 0.54497(3) 0.66632(2)
H9 H 0.3029(10) 0.4725(5) 0.6702(4)
C2 C 0.21787(6) 0.63157(3) 0.69135(2)
H10 H 0.1893(10) 0.6180(6) 0.7426(4)
C3 C 0.30499(6) 0.74432(3) 0.68378(2)
H11 H 0.3359(9) 0.7575(5) 0.6328(4)
C4 C 0.47471(6) 0.74588(3) 0.73055(2)
H12 H 0.4413(10) 0.7462(5) 0.7818(4)
C5 C 0.59726(6) 0.64889(3) 0.71361(2)
H13 H 0.6539(9) 0.6586(5) 0.6652(4)
C6 C 0.74595(6) 0.63845(4) 0.77102(2)
H14 H 0.8012(10) 0.5691(6) 0.7633(4)
H15 H 0.8311(9) 0.6964(6) 0.7629(4)
C7 C 0.48513(6) 0.48604(3) 0.55095(2)
H16 H 0.5879(10) 0.4656(5) 0.5756(4)
C8 C 0.52740(6) 0.53468(3) 0.47353(2)
H17 H 0.5966(11) 0.4839(6) 0.4470(4)
C9 C 0.35609(6) 0.55839(3) 0.43146(2)
H18 H 0.2944(9) 0.6177(5) 0.4586(4)
C10 C 0.23461(6) 0.45836(3) 0.43052(2)
H19 H 0.2807(9) 0.4045(5) 0.3963(3)
C11 C 0.21243(6) 0.40905(3) 0.50892(2)
H20 H 0.1451(9) 0.4568(5) 0.5402(4)
C12 C 0.12043(6) 0.29862(3) 0.50538(2)
H21 H 0.0171(10) 0.3036(5) 0.4763(4)
H22 H 0.2048(10) 0.2470(6) 0.4795(4)
O12 O 0.89667(6) 0.42937(3) 0.65290(2)
H23 H 0.9485(13) 0.3817(7) 0.6310(5)
H24 H 0.8563(13) 0.4040(7) 0.6919(6)
O13 O 0.98039(5) 0.66624(3) 0.499287(19)
H25 H 0.8754(14) 0.6566(7) 0.4973(5)
H26 H 1.0116(13) 0.6526(7) 0.5420(5)
loop_
_geom_bond_atom_site_label_1
_geom_bond_atom_site_label_2
_geom_bond_site_symmetry_1
_geom_bond_site_symmetry_2
O1 C1 1_555 1_555
O2 H1 1_555 1_555
O3 H2 1_555 1_555
O4 H3 1_555 1_555
O5 H4 1_555 1_555
O6 C1 1_555 1_555
O7 C7 1_555 1_555
O8 H5 1_555 1_555
O9 H6 1_555 1_555
O10 H7 1_555 1_555
O11 H8 1_555 1_555
C1 H9 1_555 1_555
C2 O2 1_555 1_555
H10 C2 1_555 1_555
C3 O3 1_555 1_555
H11 C3 1_555 1_555
C4 O4 1_555 1_555
H12 C4 1_555 1_555
C5 O1 1_555 1_555
H13 C5 1_555 1_555
C6 O5 1_555 1_555
H14 C6 1_555 1_555
H15 C6 1_555 1_555
C7 O6 1_555 1_555
H16 C7 1_555 1_555
C8 O8 1_555 1_555
H17 C8 1_555 1_555
C9 O9 1_555 1_555
H18 C9 1_555 1_555
C10 O10 1_555 1_555
H19 C10 1_555 1_555
C11 O7 1_555 1_555
H20 C11 1_555 1_555
C12 O11 1_555 1_555
H21 C12 1_555 1_555
H22 C12 1_555 1_555
O12 H23 1_555 1_555
H24 O12 1_555 1_555
O13 H25 1_555 1_555
H26 O13 1_555 1_555
C1 C2 1_555 1_555
C2 C3 1_555 1_555
C3 C4 1_555 1_555
C4 C5 1_555 1_555
C5 C6 1_555 1_555
C7 C8 1_555 1_555
C8 C9 1_555 1_555
C9 C10 1_555 1_555
C10 C11 1_555 1_555
C11 C12 1_555 1_555

#END
