
#######################################################################
#
#                 Cambridge Crystallographic Data Centre
#                                CCDC 
#
#######################################################################
#
# If this CIF has been generated from an entry in the Cambridge 
# Structural Database, then it will include bibliographic, chemical, 
# crystal, experimental, refinement or atomic coordinate data resulting 
# from the CCDC's data processing and validation procedures.
#
#######################################################################

data_TUBREP
_chemical_formula_moiety         'C25 H25 Cl1 N2 O4'
_chemical_name_systematic        
't-Butyl 7-(4-chlorophenyl)-3,5-dioxo-4-phenyl-4,10-diazatricyclo[5.2.1.0^2,6^]decane-1-carboxylate'
_symmetry_cell_setting           orthorhombic
_symmetry_space_group_name_H-M   'P 21 21 21'
_symmetry_Int_Tables_number      19
_space_group_name_Hall           'P 2ac 2ab'
loop_
_symmetry_equiv_pos_site_id
_symmetry_equiv_pos_as_xyz
1 x,y,z
2 1/2-x,-y,1/2+z
3 1/2+x,1/2-y,-z
4 -x,1/2+y,1/2-z
_cell_length_a                   10.7804(15)
_cell_length_b                   13.6644(19)
_cell_length_c                   30.322(4)
_cell_angle_alpha                90
_cell_angle_beta                 90
_cell_angle_gamma                90
_cell_volume                     4466.66
_exptl_crystal_colour            colorless
_exptl_crystal_description       Prism
_cell_formula_units_Z            8
_exptl_crystal_recrystallization_method dichloromethane/hexane
loop_
_atom_site_label
_atom_site_type_symbol
_atom_site_fract_x
_atom_site_fract_y
_atom_site_fract_z
Cl1 Cl 0.45153(8) 0.52339(6) 0.83142(3)
N1 N 0.1992(2) 0.18582(17) 0.69051(8)
H1 H 0.278(3) 0.181(2) 0.6818(10)
N2 N 0.3309(2) 0.29132(17) 0.60349(8)
O1 O 0.36711(19) 0.42218(15) 0.64972(7)
O2 O 0.2317(2) 0.17881(16) 0.55886(7)
O3 O 0.21775(18) 0.02078(15) 0.63477(7)
O4 O 0.01273(18) 0.03782(15) 0.61787(7)
C1 C 0.0039(3) -0.0486(2) 0.58806(11)
C2 C 0.0826(3) -0.0291(2) 0.54764(10)
H2 H 0.1705 -0.0309 0.5558
H3 H 0.0622 0.0355 0.5356
H4 H 0.0659 -0.0793 0.5253
C3 C 0.0397(3) -0.1417(2) 0.61212(11)
H5 H -0.0087 -0.1471 0.6394
H6 H 0.1283 -0.1399 0.6193
H7 H 0.0225 -0.1983 0.5932
C4 C -0.1338(3) -0.0500(3) 0.57674(13)
H8 H -0.1553 0.0096 0.5605
H9 H -0.1826 -0.0532 0.6040
H10 H -0.1521 -0.1074 0.5585
C5 C 0.1215(3) 0.0657(2) 0.63504(10)
C6 C 0.1072(3) 0.1661(2) 0.65565(10)
C7 C -0.0133(3) 0.1861(2) 0.68028(10)
H11 H -0.0384 0.1293 0.6985
H12 H -0.0814 0.2029 0.6597
C8 C 0.0230(3) 0.2747(2) 0.70935(10)
H13 H -0.0258 0.3335 0.7014
H14 H 0.0107 0.2602 0.7410
C9 C 0.1619(3) 0.2891(2) 0.69855(9)
C10 C 0.2336(3) 0.3426(2) 0.73359(9)
C11 C 0.3602(3) 0.3279(2) 0.73942(10)
H15 H 0.4015 0.2801 0.7221
C12 C 0.4273(3) 0.3817(2) 0.76996(10)
H16 H 0.5138 0.3710 0.7736
C13 C 0.3663(3) 0.4507(2) 0.79487(10)
C14 C 0.2403(3) 0.4658(2) 0.79117(10)
H17 H 0.1992 0.5118 0.8096
C15 C 0.1747(3) 0.4121(2) 0.75986(10)
H18 H 0.0882 0.4230 0.7564
C16 C 0.1670(3) 0.3369(2) 0.65125(9)
H19 H 0.1116 0.3953 0.6488
C17 C 0.1237(3) 0.2519(2) 0.62147(9)
H20 H 0.0447 0.2675 0.6057
C18 C 0.2293(3) 0.2340(2) 0.59018(10)
C19 C 0.2986(3) 0.3590(2) 0.63628(9)
C20 C 0.4514(3) 0.2833(2) 0.58395(9)
C21 C 0.5092(3) 0.3643(2) 0.56516(10)
H21 H 0.4684 0.4259 0.5644
C22 C 0.6272(3) 0.3539(2) 0.54756(10)
H22 H 0.6679 0.4087 0.5348
C23 C 0.6857(3) 0.2639(3) 0.54849(11)
H23 H 0.7665 0.2571 0.5364
C24 C 0.6275(3) 0.1835(3) 0.56696(12)
H24 H 0.6683 0.1219 0.5676
C25 C 0.5091(3) 0.1932(2) 0.58452(11)
H25 H 0.4681 0.1381 0.5968
Cl2 Cl 0.70625(7) 0.83402(5) 0.28292(3)
N3 N 0.8701(2) 0.46820(18) 0.14043(7)
H26 H 0.937(4) 0.502(3) 0.1371(12)
N4 N 0.5913(2) 0.40264(18) 0.12443(8)
O5 O 0.53906(19) 0.48323(16) 0.18842(7)
O6 O 0.68841(19) 0.30970(16) 0.07136(7)
O7 O 0.97838(19) 0.39440(15) 0.06130(7)
O8 O 0.97040(18) 0.23953(14) 0.08883(6)
C26 C 1.0250(3) 0.1900(2) 0.04959(9)
C27 C 0.9346(3) 0.1992(2) 0.01135(10)
H27 H 0.9266 0.2682 0.0030
H28 H 0.8533 0.1738 0.0203
H29 H 0.9655 0.1616 -0.0139
C28 C 1.0342(3) 0.0843(2) 0.06472(10)
H30 H 0.9519 0.0608 0.0733
H31 H 1.0905 0.0801 0.0900
H32 H 1.0664 0.0439 0.0406
C29 C 1.1517(3) 0.2315(2) 0.03907(11)
H33 H 1.2027 0.2317 0.0658
H34 H 1.1427 0.2986 0.0281
H35 H 1.1917 0.1912 0.0164
C30 C 0.9521(2) 0.3363(2) 0.08977(9)
C31 C 0.9004(2) 0.3635(2) 0.13462(10)
C32 C 0.9928(3) 0.3392(2) 0.17198(9)
H36 H 0.9870 0.2696 0.1808
H37 H 1.0792 0.3541 0.1632
C33 C 0.9486(3) 0.4073(2) 0.20917(9)
H38 H 1.0144 0.4542 0.2177
H39 H 0.9227 0.3696 0.2355
C34 C 0.8364(3) 0.4609(2) 0.18770(9)
C35 C 0.8041(3) 0.5553(2) 0.21035(9)
C36 C 0.8250(3) 0.6461(2) 0.19088(10)
H40 H 0.8575 0.6493 0.1618
C37 C 0.7987(3) 0.7325(2) 0.21355(10)
H41 H 0.8143 0.7942 0.2003
C38 C 0.7496(3) 0.7272(2) 0.25559(10)
C39 C 0.7284(3) 0.6374(2) 0.27599(10)
H42 H 0.6956 0.6347 0.3050
C40 C 0.7560(3) 0.5520(2) 0.25325(10)
H43 H 0.7421 0.4905 0.2670
C41 C 0.7286(3) 0.3841(2) 0.18452(9)
H44 H 0.7172 0.3465 0.2125
C42 C 0.7726(2) 0.3187(2) 0.14592(9)
H45 H 0.7770 0.2477 0.1538
C43 C 0.6832(3) 0.3399(2) 0.10868(10)
C44 C 0.6091(3) 0.4300(2) 0.16837(10)
C45 C 0.5017(3) 0.4490(2) 0.09621(10)
C46 C 0.5431(3) 0.5206(2) 0.06745(10)
H46 H 0.6284 0.5380 0.0665
C47 C 0.4578(3) 0.5668(2) 0.03981(11)
H47 H 0.4846 0.6164 0.0200
C48 C 0.3335(3) 0.5402(2) 0.04138(10)
H48 H 0.2755 0.5713 0.0224
C49 C 0.2935(3) 0.4690(2) 0.07034(10)
H49 H 0.2082 0.4517 0.0713
C50 C 0.3774(3) 0.4223(2) 0.09819(10)
H50 H 0.3502 0.3732 0.1181
loop_
_geom_bond_atom_site_label_1
_geom_bond_atom_site_label_2
_geom_bond_site_symmetry_1
_geom_bond_site_symmetry_2
Cl1 C13 1_555 1_555
N1 H1 1_555 1_555
N2 C18 1_555 1_555
O1 C19 1_555 1_555
O2 C18 1_555 1_555
O3 C5 1_555 1_555
O4 C1 1_555 1_555
C1 C2 1_555 1_555
C2 H2 1_555 1_555
H3 C2 1_555 1_555
H4 C2 1_555 1_555
C3 C1 1_555 1_555
H5 C3 1_555 1_555
H6 C3 1_555 1_555
H7 C3 1_555 1_555
C4 C1 1_555 1_555
H8 C4 1_555 1_555
H9 C4 1_555 1_555
H10 C4 1_555 1_555
C5 O4 1_555 1_555
C6 N1 1_555 1_555
C7 C6 1_555 1_555
H11 C7 1_555 1_555
H12 C7 1_555 1_555
C8 C7 1_555 1_555
H13 C8 1_555 1_555
H14 C8 1_555 1_555
C9 N1 1_555 1_555
C10 C9 1_555 1_555
C11 C10 1_555 1_555
H15 C11 1_555 1_555
C12 C11 1_555 1_555
H16 C12 1_555 1_555
C13 C12 1_555 1_555
C14 C13 1_555 1_555
H17 C14 1_555 1_555
C15 C10 1_555 1_555
H18 C15 1_555 1_555
C16 C9 1_555 1_555
H19 C16 1_555 1_555
C17 C6 1_555 1_555
H20 C17 1_555 1_555
C18 C17 1_555 1_555
C19 N2 1_555 1_555
C20 N2 1_555 1_555
C21 C20 1_555 1_555
H21 C21 1_555 1_555
C22 C21 1_555 1_555
H22 C22 1_555 1_555
C23 C22 1_555 1_555
H23 C23 1_555 1_555
C24 C23 1_555 1_555
H24 C24 1_555 1_555
C25 C20 1_555 1_555
H25 C25 1_555 1_555
Cl2 C38 1_555 1_555
N3 H26 1_555 1_555
N4 C43 1_555 1_555
O5 C44 1_555 1_555
O6 C43 1_555 1_555
O7 C30 1_555 1_555
O8 C26 1_555 1_555
C26 C27 1_555 1_555
C27 H27 1_555 1_555
H28 C27 1_555 1_555
H29 C27 1_555 1_555
C28 C26 1_555 1_555
H30 C28 1_555 1_555
H31 C28 1_555 1_555
H32 C28 1_555 1_555
C29 C26 1_555 1_555
H33 C29 1_555 1_555
H34 C29 1_555 1_555
H35 C29 1_555 1_555
C30 O8 1_555 1_555
C31 N3 1_555 1_555
C32 C31 1_555 1_555
H36 C32 1_555 1_555
H37 C32 1_555 1_555
C33 C32 1_555 1_555
H38 C33 1_555 1_555
H39 C33 1_555 1_555
C34 N3 1_555 1_555
C35 C34 1_555 1_555
C36 C35 1_555 1_555
H40 C36 1_555 1_555
C37 C36 1_555 1_555
H41 C37 1_555 1_555
C38 C37 1_555 1_555
C39 C38 1_555 1_555
H42 C39 1_555 1_555
C40 C35 1_555 1_555
H43 C40 1_555 1_555
C41 C34 1_555 1_555
H44 C41 1_555 1_555
C42 C31 1_555 1_555
H45 C42 1_555 1_555
C43 C42 1_555 1_555
C44 N4 1_555 1_555
C45 N4 1_555 1_555
C46 C45 1_555 1_555
H46 C46 1_555 1_555
C47 C46 1_555 1_555
H47 C47 1_555 1_555
C48 C47 1_555 1_555
H48 C48 1_555 1_555
C49 C48 1_555 1_555
H49 C49 1_555 1_555
C50 C45 1_555 1_555
H50 C50 1_555 1_555
C5 C6 1_555 1_555
C8 C9 1_555 1_555
C14 C15 1_555 1_555
C16 C17 1_555 1_555
C16 C19 1_555 1_555
C24 C25 1_555 1_555
C30 C31 1_555 1_555
C33 C34 1_555 1_555
C39 C40 1_555 1_555
C41 C42 1_555 1_555
C41 C44 1_555 1_555
C49 C50 1_555 1_555

#END
