
#######################################################################
#
#                 Cambridge Crystallographic Data Centre
#                                CCDC 
#
#######################################################################
#
# If this CIF has been generated from an entry in the Cambridge 
# Structural Database, then it will include bibliographic, chemical, 
# crystal, experimental, refinement or atomic coordinate data resulting 
# from the CCDC's data processing and validation procedures.
#
#######################################################################

data_TUCCOL
_chemical_formula_moiety         'C20 H13 N3'
_chemical_name_systematic        
2,5-diphenylcyclopent-3-ene-1,1,3-tricarbonitrile
_symmetry_cell_setting           orthorhombic
_symmetry_space_group_name_H-M   'P 21 21 21'
_symmetry_Int_Tables_number      19
_space_group_name_Hall           'P 2ac 2ab'
loop_
_symmetry_equiv_pos_site_id
_symmetry_equiv_pos_as_xyz
1 x,y,z
2 1/2-x,-y,1/2+z
3 1/2+x,1/2-y,-z
4 -x,1/2+y,1/2-z
_cell_length_a                   6.0874(2)
_cell_length_b                   12.7059(4)
_cell_length_c                   21.2990(14)
_cell_angle_alpha                90
_cell_angle_beta                 90
_cell_angle_gamma                90
_cell_volume                     1647.39
_exptl_crystal_colour            colorless
_exptl_crystal_description       plate
_cell_formula_units_Z            4
_exptl_crystal_recrystallization_method 'dichloromethane/petroleum ether'
loop_
_atom_site_label
_atom_site_type_symbol
_atom_site_fract_x
_atom_site_fract_y
_atom_site_fract_z
N1 N 0.2143(6) 0.1170(3) 0.24362(16)
C1 C 0.6412(5) 0.1200(2) 0.24452(14)
C2 C 0.4002(6) 0.1199(2) 0.24512(15)
C3 C 0.5988(6) 0.1780(3) 0.36114(13)
C4 C 0.7695(6) 0.2868(2) 0.21081(14)
C5 C 0.7376(6) 0.1838(2) 0.30208(13)
H1 H 0.8821 0.1541 0.3120
C6 C 0.5789(6) 0.1703(3) 0.12760(13)
C7 C 0.7734(6) 0.2886(2) 0.27306(15)
H2 H 0.7962 0.3496 0.2963
C8 C 0.7092(5) 0.0086(2) 0.24513(15)
C9 C 0.7281(6) 0.1784(2) 0.18432(13)
H3 H 0.8704 0.1477 0.1731
C10 C 0.4298(8) 0.2476(3) 0.37105(18)
H4 H 0.4019 0.3003 0.3418
C11 C 0.6101(8) 0.0896(3) 0.08517(15)
H5 H 0.7252 0.0424 0.0906
N2 N 0.7573(6) -0.0777(2) 0.24479(17)
C12 C 0.4072(7) 0.2395(3) 0.11857(16)
H6 H 0.3856 0.2941 0.1470
C13 C 0.6399(7) 0.1011(3) 0.40532(16)
H7 H 0.7549 0.0538 0.3996
C14 C 0.8220(7) 0.3719(3) 0.16938(16)
N3 N 0.8654(7) 0.4379(3) 0.13477(16)
C15 C 0.2671(8) 0.2292(4) 0.06814(18)
H8 H 0.1515 0.2762 0.0627
C16 C 0.3015(9) 0.2400(4) 0.4241(2)
H9 H 0.1865 0.2871 0.4301
C17 C 0.4681(10) 0.0794(4) 0.0341(2)
H10 H 0.4882 0.0249 0.0055
C18 C 0.3409(8) 0.1644(4) 0.46773(19)
H11 H 0.2544 0.1601 0.5036
C19 C 0.2993(9) 0.1491(4) 0.02604(19)
H12 H 0.2059 0.1421 -0.0083
C20 C 0.5079(9) 0.0950(3) 0.45848(19)
H13 H 0.5341 0.0427 0.4881
loop_
_geom_bond_atom_site_label_1
_geom_bond_atom_site_label_2
_geom_bond_site_symmetry_1
_geom_bond_site_symmetry_2
N1 C2 1_555 1_555
C1 C2 1_555 1_555
C3 C5 1_555 1_555
C4 C7 1_555 1_555
C5 C1 1_555 1_555
H1 C5 1_555 1_555
C6 C9 1_555 1_555
C7 C5 1_555 1_555
H2 C7 1_555 1_555
C8 C1 1_555 1_555
C9 C1 1_555 1_555
H3 C9 1_555 1_555
C10 C3 1_555 1_555
H4 C10 1_555 1_555
C11 C6 1_555 1_555
H5 C11 1_555 1_555
N2 C8 1_555 1_555
C12 C6 1_555 1_555
H6 C12 1_555 1_555
C13 C3 1_555 1_555
H7 C13 1_555 1_555
C14 C4 1_555 1_555
N3 C14 1_555 1_555
C15 C12 1_555 1_555
H8 C15 1_555 1_555
C16 C10 1_555 1_555
H9 C16 1_555 1_555
C17 C11 1_555 1_555
H10 C17 1_555 1_555
C18 C16 1_555 1_555
H11 C18 1_555 1_555
C19 C15 1_555 1_555
H12 C19 1_555 1_555
C20 C13 1_555 1_555
H13 C20 1_555 1_555
C4 C9 1_555 1_555
C17 C19 1_555 1_555
C18 C20 1_555 1_555

#END
