
#######################################################################
#
#                 Cambridge Crystallographic Data Centre
#                                CCDC 
#
#######################################################################
#
# If this CIF has been generated from an entry in the Cambridge 
# Structural Database, then it will include bibliographic, chemical, 
# crystal, experimental, refinement or atomic coordinate data resulting 
# from the CCDC's data processing and validation procedures.
#
#######################################################################

data_TUCFEE
_chemical_formula_moiety         'C24 H10 B1 F10 N1'
_chemical_name_systematic        
bis(pentafluorophenyl)((2-(pyridin-1-ium-2-yl)phenyl)methyl)borate
_symmetry_cell_setting           monoclinic
_symmetry_space_group_name_H-M   'P 21/n'
_symmetry_Int_Tables_number      14
_space_group_name_Hall           '-P 2yn'
loop_
_symmetry_equiv_pos_site_id
_symmetry_equiv_pos_as_xyz
1 x,y,z
2 1/2-x,1/2+y,1/2-z
3 -x,-y,-z
4 1/2+x,1/2-y,1/2+z
_cell_length_a                   9.3053(3)
_cell_length_b                   12.5046(5)
_cell_length_c                   17.6816(7)
_cell_angle_alpha                90
_cell_angle_beta                 95.201(2)
_cell_angle_gamma                90
_cell_volume                     2048.94
_exptl_crystal_colour            colorless
_exptl_crystal_description       block
_cell_formula_units_Z            4
loop_
_atom_site_label
_atom_site_type_symbol
_atom_site_fract_x
_atom_site_fract_y
_atom_site_fract_z
B1 B 1.0277(2) 0.56031(14) 0.25079(11)
N1 N 1.11808(13) 0.50961(10) 0.32536(7)
F1 F 1.22057(12) 0.60022(8) 0.12415(6)
F2 F 1.23356(14) 0.48253(10) 0.00143(7)
F3 F 1.07786(16) 0.29755(10) -0.01755(7)
F4 F 0.90409(16) 0.23814(9) 0.08956(7)
F5 F 0.88791(12) 0.35448(8) 0.21380(6)
F6 F 0.86513(10) 0.44965(9) 0.37281(6)
F7 F 0.58592(11) 0.46870(11) 0.38747(6)
F8 F 0.41468(11) 0.58859(11) 0.28923(8)
F9 F 0.52926(12) 0.68693(10) 0.17072(7)
F10 F 0.80887(11) 0.66944(9) 0.15414(6)
C1 C 1.08662(18) 0.68189(12) 0.24942(9)
H1 H 1.1920 0.6821 0.2453
H2 H 1.0390 0.7206 0.2051
C2 C 1.05318(18) 0.73553(13) 0.32189(10)
C3 C 0.9942(2) 0.83721(14) 0.32459(12)
H3 H 0.9779 0.8775 0.2791
C4 C 0.9587(3) 0.88089(16) 0.39214(12)
H4 H 0.9186 0.9508 0.3925
C5 C 0.9807(2) 0.82428(16) 0.45893(12)
H5 H 0.9551 0.8544 0.5052
C6 C 1.0404(2) 0.72308(14) 0.45796(11)
H6 H 1.0568 0.6836 0.5038
C7 C 1.07665(17) 0.67875(13) 0.38974(10)
C8 C 1.14050(17) 0.57067(12) 0.38911(9)
C9 C 1.22282(19) 0.53076(14) 0.45225(10)
H7 H 1.2414 0.5743 0.4961
C10 C 1.2778(2) 0.42850(15) 0.45192(11)
H8 H 1.3334 0.4010 0.4953
C11 C 1.25104(19) 0.36683(14) 0.38773(10)
H9 H 1.2859 0.2955 0.3865
C12 C 1.17324(18) 0.41005(13) 0.32570(10)
H10 H 1.1575 0.3680 0.2810
C13 C 1.05053(17) 0.48603(12) 0.17592(9)
C14 C 1.13813(19) 0.51121(13) 0.11914(10)
C15 C 1.1490(2) 0.45066(15) 0.05459(10)
C16 C 1.0704(2) 0.35824(15) 0.04443(10)
C17 C 0.9820(2) 0.32840(14) 0.09883(11)
C18 C 0.9740(2) 0.39137(13) 0.16189(10)
C19 C 0.85446(17) 0.56247(13) 0.26418(9)
C20 C 0.78810(18) 0.51247(13) 0.32162(10)
C21 C 0.64311(18) 0.52042(15) 0.33063(10)
C22 C 0.55619(18) 0.57988(15) 0.28038(11)
C23 C 0.61407(19) 0.62923(14) 0.22127(11)
C24 C 0.75975(19) 0.61986(14) 0.21446(10)
loop_
_geom_bond_atom_site_label_1
_geom_bond_atom_site_label_2
_geom_bond_site_symmetry_1
_geom_bond_site_symmetry_2
B1 N1 1_555 1_555
N1 C8 1_555 1_555
F1 C14 1_555 1_555
F2 C15 1_555 1_555
F3 C16 1_555 1_555
F4 C17 1_555 1_555
F5 C18 1_555 1_555
F6 C20 1_555 1_555
F7 C21 1_555 1_555
F8 C22 1_555 1_555
F9 C23 1_555 1_555
F10 C24 1_555 1_555
C1 B1 1_555 1_555
H1 C1 1_555 1_555
H2 C1 1_555 1_555
C2 C1 1_555 1_555
C3 C2 1_555 1_555
H3 C3 1_555 1_555
C4 C3 1_555 1_555
H4 C4 1_555 1_555
C5 C4 1_555 1_555
H5 C5 1_555 1_555
C6 C5 1_555 1_555
H6 C6 1_555 1_555
C7 C2 1_555 1_555
C8 C7 1_555 1_555
C9 C8 1_555 1_555
H7 C9 1_555 1_555
C10 C9 1_555 1_555
H8 C10 1_555 1_555
C11 C10 1_555 1_555
H9 C11 1_555 1_555
C12 N1 1_555 1_555
H10 C12 1_555 1_555
C13 B1 1_555 1_555
C14 C13 1_555 1_555
C15 C14 1_555 1_555
C16 C15 1_555 1_555
C17 C16 1_555 1_555
C18 C13 1_555 1_555
C19 B1 1_555 1_555
C20 C19 1_555 1_555
C21 C20 1_555 1_555
C22 C21 1_555 1_555
C23 C22 1_555 1_555
C24 C19 1_555 1_555
C6 C7 1_555 1_555
C11 C12 1_555 1_555
C17 C18 1_555 1_555
C23 C24 1_555 1_555

#END
