
#######################################################################
#
#                 Cambridge Crystallographic Data Centre
#                                CCDC 
#
#######################################################################
#
# If this CIF has been generated from an entry in the Cambridge 
# Structural Database, then it will include bibliographic, chemical, 
# crystal, experimental, refinement or atomic coordinate data resulting 
# from the CCDC's data processing and validation procedures.
#
#######################################################################

data_TUCTER
_chemical_formula_moiety         'C21 H14 F1 I1 N2 O4'
_chemical_name_systematic        
'Dimethyl 9-fluoro-6-iodo-5-phenylpyrazolo[5,1-a]isoquinoline-1,2-dicarboxylate'
_symmetry_cell_setting           monoclinic
_symmetry_space_group_name_H-M   'P 21/c'
_symmetry_Int_Tables_number      14
_space_group_name_Hall           '-P 2ybc'
loop_
_symmetry_equiv_pos_site_id
_symmetry_equiv_pos_as_xyz
1 x,y,z
2 -x,1/2+y,1/2-z
3 -x,-y,-z
4 x,1/2-y,1/2+z
_cell_length_a                   7.810(3)
_cell_length_b                   14.767(5)
_cell_length_c                   16.732(6)
_cell_angle_alpha                90
_cell_angle_beta                 100.634(5)
_cell_angle_gamma                90
_cell_volume                     1896.57
_exptl_crystal_colour            colorless
_exptl_crystal_description       block
_cell_formula_units_Z            4
loop_
_atom_site_label
_atom_site_type_symbol
_atom_site_fract_x
_atom_site_fract_y
_atom_site_fract_z
F1 F 0.7446(4) 1.17180(15) 0.68065(13)
I1 I 0.44804(3) 1.181933(16) 0.270470(14)
N1 N 0.6963(4) 0.94138(18) 0.38260(14)
N2 N 0.7342(4) 0.85550(19) 0.36145(16)
O1 O 0.9654(5) 0.7726(2) 0.58671(18)
O2 O 0.9677(5) 0.9104(2) 0.63405(17)
O3 O 0.7848(5) 0.6608(2) 0.4498(2)
O4 O 0.9921(4) 0.7116(2) 0.3880(2)
C1 C 0.5769(5) 0.9702(2) 0.23958(17)
C2 C 0.4108(6) 0.9632(3) 0.1964(2)
H1 H 0.3161 0.9740 0.2216
C3 C 0.3843(7) 0.9399(3) 0.1141(2)
H2 H 0.2718 0.9366 0.0840
C4 C 0.5235(9) 0.9221(3) 0.0778(2)
H3 H 0.5053 0.9059 0.0232
C5 C 0.6894(8) 0.9278(3) 0.1213(3)
H4 H 0.7836 0.9153 0.0963
C6 C 0.7170(6) 0.9522(3) 0.2022(2)
H5 H 0.8300 0.9565 0.2316
C7 C 0.6084(4) 1.0019(2) 0.32583(17)
C8 C 0.5669(4) 1.0830(2) 0.35322(19)
C9 C 0.6103(4) 1.1076(2) 0.43841(19)
C10 C 0.5608(5) 1.1896(2) 0.4690(2)
H6 H 0.4961 1.2305 0.4334
C11 C 0.6038(5) 1.2116(3) 0.5491(2)
H7 H 0.5687 1.2663 0.5685
C12 C 0.7010(5) 1.1504(3) 0.6007(2)
C13 C 0.7530(5) 1.0688(2) 0.57624(19)
H8 H 0.8174 1.0292 0.6134
C14 C 0.7075(4) 1.0455(2) 0.49393(18)
C15 C 0.7527(4) 0.9591(2) 0.46413(17)
C16 C 0.8347(4) 0.8791(2) 0.49663(18)
C17 C 0.9257(5) 0.8587(3) 0.5797(2)
C18 C 1.0503(7) 0.7412(3) 0.6657(3)
H9 H 1.0733 0.6775 0.6631
H10 H 0.9760 0.7519 0.7044
H11 H 1.1580 0.7732 0.6820
C19 C 0.8159(5) 0.8195(2) 0.4303(2)
C20 C 0.8652(5) 0.7216(3) 0.4270(2)
C21 C 1.0476(8) 0.6196(3) 0.3765(4)
H12 H 1.1430 0.6205 0.3476
H13 H 0.9524 0.5861 0.3457
H14 H 1.0843 0.5913 0.4285
loop_
_geom_bond_atom_site_label_1
_geom_bond_atom_site_label_2
_geom_bond_site_symmetry_1
_geom_bond_site_symmetry_2
F1 C12 1_555 1_555
I1 C8 1_555 1_555
N1 N2 1_555 1_555
N2 C19 1_555 1_555
O1 C17 1_555 1_555
O2 C17 1_555 1_555
O3 C20 1_555 1_555
O4 C20 1_555 1_555
C1 C2 1_555 1_555
C2 H1 1_555 1_555
C3 C2 1_555 1_555
H2 C3 1_555 1_555
C4 C3 1_555 1_555
H3 C4 1_555 1_555
C5 C4 1_555 1_555
H4 C5 1_555 1_555
C6 C1 1_555 1_555
H5 C6 1_555 1_555
C7 N1 1_555 1_555
C8 C7 1_555 1_555
C9 C8 1_555 1_555
C10 C9 1_555 1_555
H6 C10 1_555 1_555
C11 C10 1_555 1_555
H7 C11 1_555 1_555
C12 C11 1_555 1_555
C13 C12 1_555 1_555
H8 C13 1_555 1_555
C14 C9 1_555 1_555
C15 N1 1_555 1_555
C16 C15 1_555 1_555
C17 C16 1_555 1_555
C18 O1 1_555 1_555
H9 C18 1_555 1_555
H10 C18 1_555 1_555
H11 C18 1_555 1_555
C19 C16 1_555 1_555
C20 C19 1_555 1_555
C21 O4 1_555 1_555
H12 C21 1_555 1_555
H13 C21 1_555 1_555
H14 C21 1_555 1_555
C1 C7 1_555 1_555
C5 C6 1_555 1_555
C13 C14 1_555 1_555
C14 C15 1_555 1_555

#END
