
#######################################################################
#
#                 Cambridge Crystallographic Data Centre
#                                CCDC 
#
#######################################################################
#
# If this CIF has been generated from an entry in the Cambridge 
# Structural Database, then it will include bibliographic, chemical, 
# crystal, experimental, refinement or atomic coordinate data resulting 
# from the CCDC's data processing and validation procedures.
#
#######################################################################

data_TUCWEV
_chemical_formula_moiety         'C19 H15 O1 P1,H2 O1'
_chemical_name_systematic        
'1-phenyl-1,2,5,6-tetrahydroindeno[6,7,1-cde]phosphindole 1-oxide monohydrate'
_symmetry_cell_setting           monoclinic
_symmetry_space_group_name_H-M   'C 2/c'
_symmetry_Int_Tables_number      15
_space_group_name_Hall           '-C 2yn'
loop_
_symmetry_equiv_pos_site_id
_symmetry_equiv_pos_as_xyz
1 x,y,z
2 -x,y,1/2-z
3 1/2+x,1/2+y,z
4 1/2-x,1/2+y,1/2-z
5 -x,-y,-z
6 x,-y,1/2+z
7 1/2-x,1/2-y,-z
8 1/2+x,1/2-y,1/2+z
_cell_length_a                   14.5181(6)
_cell_length_b                   9.0445(4)
_cell_length_c                   22.9130(9)
_cell_angle_alpha                90
_cell_angle_beta                 105.5400(10)
_cell_angle_gamma                90
_cell_volume                     2898.7
_exptl_crystal_colour            colorless
_exptl_crystal_description       block
_cell_formula_units_Z            8
loop_
_atom_site_label
_atom_site_type_symbol
_atom_site_fract_x
_atom_site_fract_y
_atom_site_fract_z
P1 P 0.05761(2) 0.53580(3) 0.37481(2)
O1 O 0.08930(7) 0.38058(10) 0.36917(4)
C1 C -0.08882(10) 0.92042(15) 0.55865(6)
H1 H -0.1304 0.8845 0.5835
H2 H -0.0999 1.0277 0.5514
C2 C -0.10878(9) 0.83651(14) 0.49907(6)
C3 C -0.02415(9) 0.76423(14) 0.49735(6)
C4 C -0.01626(9) 0.68004(14) 0.44824(6)
C5 C 0.07204(9) 0.61360(14) 0.44895(6)
C6 C 0.11672(9) 0.66074(14) 0.33549(6)
C7 C 0.19904(9) 0.61198(14) 0.32079(6)
H3 H 0.2215 0.5140 0.3305
C8 C 0.24823(10) 0.70694(16) 0.29188(6)
H4 H 0.3042 0.6739 0.2818
C9 C 0.21513(11) 0.84986(16) 0.27782(6)
H5 H 0.2486 0.9144 0.2580
C10 C 0.01933(10) 0.88882(15) 0.59112(6)
H6 H 0.0568 0.9817 0.5974
H7 H 0.0260 0.8411 0.6309
C11 C 0.05321(9) 0.78571(14) 0.54860(6)
C12 C 0.13888(9) 0.71789(15) 0.54985(6)
H8 H 0.1919 0.7284 0.5844
C13 C 0.14842(9) 0.63200(15) 0.49951(6)
H9 H 0.2080 0.5869 0.5008
C14 C -0.07221(9) 0.56991(15) 0.34848(6)
H10 H -0.0886 0.6223 0.3091
H11 H -0.1080 0.4756 0.3437
C15 C -0.09590(9) 0.66486(14) 0.39713(6)
C16 C -0.18692(10) 0.81977(15) 0.44995(6)
H12 H -0.2458 0.8656 0.4500
C17 C -0.18009(9) 0.73346(15) 0.39866(6)
H13 H -0.2347 0.7234 0.3651
C18 C 0.13359(11) 0.89983(16) 0.29244(7)
H14 H 0.1115 0.9980 0.2827
C19 C 0.08447(10) 0.80524(15) 0.32146(6)
H15 H 0.0289 0.8390 0.3318
O2 O 0.05210(9) 0.25350(14) 0.25899(5)
H16 H 0.0617(17) 0.295(3) 0.2957(11)
loop_
_geom_bond_atom_site_label_1
_geom_bond_atom_site_label_2
_geom_bond_site_symmetry_1
_geom_bond_site_symmetry_2
P1 O1 1_555 1_555
C1 H1 1_555 1_555
H2 C1 1_555 1_555
C2 C1 1_555 1_555
C3 C2 1_555 1_555
C4 C3 1_555 1_555
C5 P1 1_555 1_555
C6 P1 1_555 1_555
C7 C6 1_555 1_555
H3 C7 1_555 1_555
C8 C7 1_555 1_555
H4 C8 1_555 1_555
C9 C8 1_555 1_555
H5 C9 1_555 1_555
C10 C1 1_555 1_555
H6 C10 1_555 1_555
H7 C10 1_555 1_555
C11 C3 1_555 1_555
C12 C11 1_555 1_555
H8 C12 1_555 1_555
C13 C5 1_555 1_555
H9 C13 1_555 1_555
C14 P1 1_555 1_555
H10 C14 1_555 1_555
H11 C14 1_555 1_555
C15 C4 1_555 1_555
C16 C2 1_555 1_555
H12 C16 1_555 1_555
C17 C15 1_555 1_555
H13 C17 1_555 1_555
C18 C9 1_555 1_555
H14 C18 1_555 1_555
C19 C6 1_555 1_555
H15 C19 1_555 1_555
O2 H16 1_555 1_555
C4 C5 1_555 1_555
C10 C11 1_555 1_555
C12 C13 1_555 1_555
C14 C15 1_555 1_555
C16 C17 1_555 1_555
C18 C19 1_555 1_555

#END
