
#######################################################################
#
#                 Cambridge Crystallographic Data Centre
#                                CCDC 
#
#######################################################################
#
# If this CIF has been generated from an entry in the Cambridge 
# Structural Database, then it will include bibliographic, chemical, 
# crystal, experimental, refinement or atomic coordinate data resulting 
# from the CCDC's data processing and validation procedures.
#
#######################################################################

data_TUDQOA
_chemical_formula_moiety         '2(C12 H28 N1 1+),C4 H4 O4,C4 H2 O4 2-'
_chemical_name_systematic        
'bis(tributylammonium) but-2-enedioate but-2-enedioic acid'
_symmetry_cell_setting           triclinic
_symmetry_space_group_name_H-M   'P -1'
_symmetry_Int_Tables_number      2
_space_group_name_Hall           '-P 1'
loop_
_symmetry_equiv_pos_site_id
_symmetry_equiv_pos_as_xyz
1 x,y,z
2 -x,-y,-z
_cell_length_a                   8.2964(5)
_cell_length_b                   9.7320(5)
_cell_length_c                   12.3997(6)
_cell_angle_alpha                76.979(5)
_cell_angle_beta                 71.192(5)
_cell_angle_gamma                85.493(5)
_cell_volume                     923.314
_exptl_crystal_colour            colorless
_exptl_crystal_description       needle
_chemical_melting_point          '363 K'
_cell_formula_units_Z            1
_exptl_crystal_recrystallization_method 
'Re-crystallisation from solvent: Ethanol'
loop_
_atom_site_label
_atom_site_type_symbol
_atom_site_fract_x
_atom_site_fract_y
_atom_site_fract_z
N1 N 0.2941(2) -0.00356(19) 0.26093(16)
H1 H 0.2394 -0.0902 0.2912
C1 C 0.4648(3) -0.0323(2) 0.18054(19)
H2 H 0.5241 0.0586 0.1415
H3 H 0.4483 -0.0747 0.1194
C2 C 0.5781(3) -0.1292(3) 0.2392(2)
H4 H 0.5114 -0.2114 0.2927
H5 H 0.6191 -0.0783 0.2859
C3 C 0.1903(3) 0.0860(3) 0.1924(2)
H6 H 0.1928 0.0428 0.1269
H7 H 0.2438 0.1800 0.1588
C4 C 0.3801(3) 0.1941(2) 0.3326(2)
H8 H 0.3028 0.2674 0.3068
H9 H 0.4875 0.1962 0.2673
C5 C 0.2985(3) 0.0507(2) 0.36410(19)
H10 H 0.3619 -0.0177 0.4078
H11 H 0.1805 0.0562 0.4164
C6 C 0.0076(4) 0.1049(3) 0.2627(3)
H12 H 0.0034 0.1570 0.3236
H13 H -0.0444 0.0113 0.3020
C7 C 0.7292(4) -0.1799(3) 0.1498(3)
H14 H 0.7940 -0.0972 0.0955
H15 H 0.6875 -0.2315 0.1039
C8 C 0.4171(5) 0.2258(3) 0.4368(3)
H16 H 0.4913 0.1503 0.4637
H17 H 0.3089 0.2250 0.5012
C9 C -0.0949(4) 0.1860(3) 0.1853(4)
H18 H -0.0812 0.1383 0.1202
H19 H -0.2171 0.1832 0.2315
C10 C 0.5033(6) 0.3673(4) 0.4093(4)
H20 H 0.6079 0.3704 0.3431
H21 H 0.5316 0.3794 0.4775
H22 H 0.4262 0.4432 0.3896
C11 C 0.8475(5) -0.2758(4) 0.2056(4)
H23 H 0.9383 -0.3114 0.1452
H24 H 0.7827 -0.3554 0.2625
H25 H 0.8977 -0.2225 0.2451
C12 C -0.0413(5) 0.3378(4) 0.1357(4)
H26 H 0.0739 0.3416 0.0799
H27 H -0.0424 0.3830 0.1990
H28 H -0.1206 0.3874 0.0959
O1 O 0.1827(2) -0.26650(17) 0.31746(15)
O2 O 0.0332(3) -0.2404(2) 0.49370(18)
C13 C 0.0878(3) -0.3121(2) 0.4213(2)
C14 C 0.0429(3) -0.4662(3) 0.4482(2)
H29 H 0.0790 -0.5160 0.3867
O1A O -0.1827(2) -0.73350(17) 0.68254(15)
O2A O -0.0332(3) -0.7596(2) 0.50630(18)
C13A C -0.0878(3) -0.6879(2) 0.5787(2)
C14A C -0.0429(3) -0.5338(3) 0.5518(2)
H29A H -0.0790 -0.4840 0.6133
O3 O 0.3197(3) -0.42064(19) 0.17688(15)
H30 H 0.2581 -0.3680 0.2192
O4 O 0.3204(3) -0.23259(19) 0.03395(16)
C15 C 0.4632(3) -0.4390(3) -0.0153(2)
H31 H 0.4784 -0.4038 -0.0958
C16 C 0.3595(3) -0.3547(3) 0.0673(2)
O3A O 0.6803(3) -0.57936(19) -0.17688(15)
H30A H 0.7419 -0.6320 -0.2192
O4A O 0.6796(3) -0.76741(19) -0.03395(16)
C15A C 0.5368(3) -0.5610(3) 0.0153(2)
H31A H 0.5216 -0.5962 0.0958
C16A C 0.6405(3) -0.6453(3) -0.0673(2)
loop_
_geom_bond_atom_site_label_1
_geom_bond_atom_site_label_2
_geom_bond_site_symmetry_1
_geom_bond_site_symmetry_2
N1 H1 1_555 1_555
C1 N1 1_555 1_555
H2 C1 1_555 1_555
H3 C1 1_555 1_555
C2 C1 1_555 1_555
H4 C2 1_555 1_555
H5 C2 1_555 1_555
C3 N1 1_555 1_555
H6 C3 1_555 1_555
H7 C3 1_555 1_555
C4 H8 1_555 1_555
H9 C4 1_555 1_555
C5 N1 1_555 1_555
H10 C5 1_555 1_555
H11 C5 1_555 1_555
C6 C3 1_555 1_555
H12 C6 1_555 1_555
H13 C6 1_555 1_555
C7 C2 1_555 1_555
H14 C7 1_555 1_555
H15 C7 1_555 1_555
C8 C4 1_555 1_555
H16 C8 1_555 1_555
H17 C8 1_555 1_555
C9 C6 1_555 1_555
H18 C9 1_555 1_555
H19 C9 1_555 1_555
C10 C8 1_555 1_555
H20 C10 1_555 1_555
H21 C10 1_555 1_555
H22 C10 1_555 1_555
C11 C7 1_555 1_555
H23 C11 1_555 1_555
H24 C11 1_555 1_555
H25 C11 1_555 1_555
C12 C9 1_555 1_555
H26 C12 1_555 1_555
H27 C12 1_555 1_555
H28 C12 1_555 1_555
O1 C13 1_555 1_555
O2 C13 1_555 1_555
C13 C14 1_555 1_555
C14 H29 1_555 1_555
O3 H30 1_555 1_555
O4 C16 1_555 1_555
C15 H31 1_555 1_555
C16 O3 1_555 1_555
O1A C13A 1_555 1_555
O2A C13A 1_555 1_555
C13A C14A 1_555 1_555
C14A C14 1_555 1_555
H29A C14A 1_555 1_555
O3A H30A 1_555 1_555
O4A C16A 1_555 1_555
C15A C15 1_555 1_555
H31A C15A 1_555 1_555
C16A O3A 1_555 1_555
C4 C5 1_555 1_555
C15 C16 1_555 1_555
C15A C16A 1_555 1_555

#END
