
#######################################################################
#
#                 Cambridge Crystallographic Data Centre
#                                CCDC 
#
#######################################################################
#
# If this CIF has been generated from an entry in the Cambridge 
# Structural Database, then it will include bibliographic, chemical, 
# crystal, experimental, refinement or atomic coordinate data resulting 
# from the CCDC's data processing and validation procedures.
#
#######################################################################

data_TUDVIZ
_chemical_formula_moiety         'C15 H15 I1 N1 O1 1+,C7 H7 O3 S1 1-,C1 H2 Cl2'
_chemical_name_systematic        
'(2-(N-methoxyethanimidoyl)phenyl)(phenyl)iodonium 4-methylbenzenesulfonate dichloromethane unknown solvate'
_symmetry_cell_setting           monoclinic
_symmetry_space_group_name_H-M   'P 21/n'
_symmetry_Int_Tables_number      14
_space_group_name_Hall           '-P 2yn'
loop_
_symmetry_equiv_pos_site_id
_symmetry_equiv_pos_as_xyz
1 x,y,z
2 1/2-x,1/2+y,1/2-z
3 -x,-y,-z
4 1/2+x,1/2-y,1/2+z
_cell_length_a                   15.5469(11)
_cell_length_b                   9.7594(7)
_cell_length_c                   16.0703(12)
_cell_angle_alpha                90
_cell_angle_beta                 90.8540(10)
_cell_angle_gamma                90
_cell_volume                     2438.05
_exptl_crystal_colour            colorless
_exptl_crystal_description       prismatic
_cell_formula_units_Z            4
_exptl_crystal_recrystallization_method dichloromethane-ether
loop_
_atom_site_label
_atom_site_type_symbol
_atom_site_fract_x
_atom_site_fract_y
_atom_site_fract_z
I1 I 0.71357(2) 0.95515(2) 0.57200(2)
N1 N 0.60136(17) 0.7603(3) 0.53536(16)
O1 O 0.58626(15) 0.6310(2) 0.56893(14)
C1 C 0.63354(19) 1.0179(3) 0.47032(18)
C2 C 0.6447(2) 1.1481(3) 0.4384(2)
H1 H 0.6850 1.2090 0.4635
C3 C 0.5965(2) 1.1894(3) 0.3693(2)
H2 H 0.6029 1.2793 0.3476
C4 C 0.5394(2) 1.0991(3) 0.3324(2)
H3 H 0.5075 1.1265 0.2844
C5 C 0.52818(19) 0.9695(3) 0.36451(19)
H4 H 0.4881 0.9093 0.3384
C6 C 0.57452(19) 0.9247(3) 0.43469(18)
C7 C 0.5591(2) 0.7859(3) 0.46824(19)
C8 C 0.4999(2) 0.6875(3) 0.4256(2)
H5 H 0.5241 0.6606 0.3721
H6 H 0.4438 0.7310 0.4162
H7 H 0.4928 0.6060 0.4605
C9 C 0.6412(2) 0.6122(4) 0.6405(2)
H8 H 0.7014 0.6209 0.6240
H9 H 0.6317 0.5209 0.6639
H10 H 0.6281 0.6819 0.6823
C10 C 0.78997(19) 1.1339(3) 0.57772(18)
C11 C 0.8597(2) 1.1465(3) 0.52584(19)
H11 H 0.8715 1.0791 0.4849
C12 C 0.9118(2) 1.2613(4) 0.5357(2)
H12 H 0.9599 1.2737 0.5007
C13 C 0.8941(2) 1.3571(4) 0.5961(2)
H13 H 0.9305 1.4348 0.6024
C14 C 0.8244(2) 1.3423(3) 0.6474(2)
H14 H 0.8130 1.4094 0.6886
C15 C 0.7709(2) 1.2286(3) 0.63870(19)
H15 H 0.7227 1.2166 0.6736
Cl1 Cl 0.20345(8) 0.99193(16) 0.91522(10)
Cl2 Cl 0.38141(8) 0.94384(12) 0.88237(9)
C16 C 0.2964(3) 0.9186(5) 0.9499(2)
H16 H 0.2870 0.8190 0.9572
H17 H 0.3119 0.9576 1.0050
S1 S 0.89072(5) 0.77127(8) 0.67611(5)
O2 O 0.82315(13) 0.8685(2) 0.69822(13)
O3 O 0.89688(14) 0.6577(2) 0.73426(15)
O4 O 0.88501(15) 0.7286(2) 0.58982(14)
C17 C 0.98845(19) 0.8642(3) 0.68618(17)
C18 C 0.9878(2) 1.0056(3) 0.6819(2)
H18 H 0.9347 1.0533 0.6773
C19 C 1.0648(2) 1.0781(3) 0.6845(2)
H19 H 1.0636 1.1752 0.6807
C20 C 1.1424(2) 1.0123(4) 0.6923(2)
C21 C 1.1418(2) 0.8702(4) 0.6964(2)
H20 H 1.1950 0.8227 0.7011
C22 C 1.0665(2) 0.7961(3) 0.6938(2)
H21 H 1.0679 0.6989 0.6972
C23 C 1.2254(2) 1.0916(4) 0.6946(2)
H22 H 1.2490 1.0962 0.6384
H23 H 1.2667 1.0457 0.7318
H24 H 1.2146 1.1846 0.7149
loop_
_geom_bond_atom_site_label_1
_geom_bond_atom_site_label_2
_geom_bond_site_symmetry_1
_geom_bond_site_symmetry_2
I1 C1 1_555 1_555
N1 O1 1_555 1_555
O1 C9 1_555 1_555
C1 C2 1_555 1_555
C2 H1 1_555 1_555
C3 C2 1_555 1_555
H2 C3 1_555 1_555
C4 C3 1_555 1_555
H3 C4 1_555 1_555
C5 C4 1_555 1_555
H4 C5 1_555 1_555
C6 C1 1_555 1_555
C7 N1 1_555 1_555
C8 C7 1_555 1_555
H5 C8 1_555 1_555
H6 C8 1_555 1_555
H7 C8 1_555 1_555
C9 H8 1_555 1_555
H9 C9 1_555 1_555
H10 C9 1_555 1_555
C10 I1 1_555 1_555
C11 C10 1_555 1_555
H11 C11 1_555 1_555
C12 C11 1_555 1_555
H12 C12 1_555 1_555
C13 C12 1_555 1_555
H13 C13 1_555 1_555
C14 C13 1_555 1_555
H14 C14 1_555 1_555
C15 C10 1_555 1_555
H15 C15 1_555 1_555
Cl1 C16 1_555 1_555
Cl2 C16 1_555 1_555
C16 H16 1_555 1_555
H17 C16 1_555 1_555
S1 O2 1_555 1_555
O3 S1 1_555 1_555
O4 S1 1_555 1_555
C17 S1 1_555 1_555
C18 C17 1_555 1_555
H18 C18 1_555 1_555
C19 C18 1_555 1_555
H19 C19 1_555 1_555
C20 C19 1_555 1_555
C21 C20 1_555 1_555
H20 C21 1_555 1_555
C22 C17 1_555 1_555
H21 C22 1_555 1_555
C23 C20 1_555 1_555
H22 C23 1_555 1_555
H23 C23 1_555 1_555
H24 C23 1_555 1_555
C5 C6 1_555 1_555
C6 C7 1_555 1_555
C14 C15 1_555 1_555
C21 C22 1_555 1_555

#END
