
#######################################################################
#
#                 Cambridge Crystallographic Data Centre
#                                CCDC 
#
#######################################################################
#
# If this CIF has been generated from an entry in the Cambridge 
# Structural Database, then it will include bibliographic, chemical, 
# crystal, experimental, refinement or atomic coordinate data resulting 
# from the CCDC's data processing and validation procedures.
#
#######################################################################

data_TUDXUM
_chemical_formula_moiety         'C16 H19 N1 O2 S2'
_chemical_name_systematic        
7-(Diethylamino)-3-(1,3-dithiolan-2-yl)-2H-chromen-2-one
_symmetry_cell_setting           monoclinic
_symmetry_space_group_name_H-M   'P 21/c'
_symmetry_Int_Tables_number      14
_space_group_name_Hall           '-P 2ybc'
loop_
_symmetry_equiv_pos_site_id
_symmetry_equiv_pos_as_xyz
1 x,y,z
2 -x,1/2+y,1/2-z
3 -x,-y,-z
4 x,1/2-y,1/2+z
_cell_length_a                   13.8684(11)
_cell_length_b                   8.5880(5)
_cell_length_c                   13.3036(9)
_cell_angle_alpha                90
_cell_angle_beta                 91.422(5)
_cell_angle_gamma                90
_cell_volume                     1583.99
_exptl_crystal_colour            orange
_exptl_crystal_description       block
_cell_formula_units_Z            4
loop_
_atom_site_label
_atom_site_type_symbol
_atom_site_fract_x
_atom_site_fract_y
_atom_site_fract_z
C1 C -0.2455(6) 0.0729(9) 0.1304(5)
H1 H -0.2641 0.0013 0.0780
H2 H -0.2910 0.0675 0.1834
H3 H -0.1825 0.0460 0.1563
C2 C -0.2437(5) 0.2362(7) 0.0884(5)
H4 H -0.3075 0.2614 0.0615
H5 H -0.2294 0.3082 0.1429
C3 C -0.1931(7) 0.0718(8) -0.1283(6)
H6 H -0.1255 0.0513 -0.1346
H7 H -0.2253 0.0578 -0.1924
H8 H -0.2197 0.0011 -0.0804
C4 C -0.2068(5) 0.2330(7) -0.0939(5)
H9 H -0.1724 0.3026 -0.1379
H10 H -0.2748 0.2588 -0.0997
C5 C -0.0757(4) 0.2761(6) 0.0317(4)
C6 C -0.0404(5) 0.2858(7) 0.1326(4)
H11 H -0.0834 0.2774 0.1848
C7 C 0.0567(4) 0.3073(7) 0.1549(4)
H12 H 0.0780 0.3119 0.2217
C8 C 0.1228(4) 0.3221(6) 0.0783(3)
C9 C 0.0877(4) 0.3125(6) -0.0194(3)
C10 C -0.0080(4) 0.2898(6) -0.0442(4)
H13 H -0.0279 0.2836 -0.1114
C11 C 0.2238(4) 0.3448(6) 0.0956(3)
H14 H 0.2483 0.3505 0.1612
C12 C 0.2845(4) 0.3583(5) 0.0176(3)
C13 C 0.2474(4) 0.3491(6) -0.0847(4)
C14 C 0.3928(4) 0.3818(6) 0.0275(3)
C15 C 0.4822(5) 0.2904(6) 0.2027(4)
H15 H 0.5518 0.3003 0.2075
H16 H 0.4583 0.2767 0.2700
C16 C 0.4556(5) 0.1496(6) 0.1390(4)
H17 H 0.3913 0.1141 0.1547
H18 H 0.5006 0.0654 0.1528
N1 N -0.1736(4) 0.2598(6) 0.0095(3)
O1 O 0.1508(3) 0.3257(4) -0.0988(2)
O2 O 0.2938(3) 0.3595(5) -0.1599(3)
S1 S 0.45974(12) 0.20472(16) 0.00882(10)
S2 S 0.43163(11) 0.46257(15) 0.14826(10)
loop_
_geom_bond_atom_site_label_1
_geom_bond_atom_site_label_2
_geom_bond_site_symmetry_1
_geom_bond_site_symmetry_2
C1 H1 1_555 1_555
H2 C1 1_555 1_555
H3 C1 1_555 1_555
C2 C1 1_555 1_555
H4 C2 1_555 1_555
H5 C2 1_555 1_555
C3 H6 1_555 1_555
H7 C3 1_555 1_555
H8 C3 1_555 1_555
C4 C3 1_555 1_555
H9 C4 1_555 1_555
H10 C4 1_555 1_555
C5 C6 1_555 1_555
C6 H11 1_555 1_555
C7 C6 1_555 1_555
H12 C7 1_555 1_555
C8 C7 1_555 1_555
C9 C8 1_555 1_555
C10 C5 1_555 1_555
H13 C10 1_555 1_555
C11 C8 1_555 1_555
H14 C11 1_555 1_555
C12 C11 1_555 1_555
C13 C12 1_555 1_555
C14 C12 1_555 1_555
C15 H15 1_555 1_555
H16 C15 1_555 1_555
C16 C15 1_555 1_555
H17 C16 1_555 1_555
H18 C16 1_555 1_555
N1 C2 1_555 1_555
O1 C9 1_555 1_555
O2 C13 1_555 1_555
S1 C14 1_555 1_555
S2 C14 1_555 1_555
C4 N1 1_555 1_555
C5 N1 1_555 1_555
C9 C10 1_555 1_555
C13 O1 1_555 1_555
C15 S2 1_555 1_555
C16 S1 1_555 1_555

#END
