
#######################################################################
#
#                 Cambridge Crystallographic Data Centre
#                                CCDC 
#
#######################################################################
#
# If this CIF has been generated from an entry in the Cambridge 
# Structural Database, then it will include bibliographic, chemical, 
# crystal, experimental, refinement or atomic coordinate data resulting 
# from the CCDC's data processing and validation procedures.
#
#######################################################################

data_TUFBUT
_chemical_formula_moiety         'C30 H28 Cl1 N5 O2'
_chemical_name_systematic        
2-(6-chloropyridazin-3-yl)-3',6'-bis(ethylamino)-2',7'-dimethylspiro[isoindole-1,9'-xanthen]-3(2H)-one
_symmetry_cell_setting           monoclinic
_symmetry_space_group_name_H-M   'P 21/c'
_symmetry_Int_Tables_number      14
_space_group_name_Hall           '-P 2ybc'
loop_
_symmetry_equiv_pos_site_id
_symmetry_equiv_pos_as_xyz
1 x,y,z
2 -x,1/2+y,1/2-z
3 -x,-y,-z
4 x,1/2-y,1/2+z
_cell_length_a                   9.127(8)
_cell_length_b                   18.037(15)
_cell_length_c                   16.392(13)
_cell_angle_alpha                90
_cell_angle_beta                 101.72(2)
_cell_angle_gamma                90
_cell_volume                     2642.25
_exptl_crystal_colour            yellow
_cell_formula_units_Z            4
loop_
_atom_site_label
_atom_site_type_symbol
_atom_site_fract_x
_atom_site_fract_y
_atom_site_fract_z
Cl1 Cl 0.2640(2) 0.13358(10) 0.54460(11)
N1 N 0.3266(6) 0.1006(3) 0.4034(4)
N2 N 0.3560(5) 0.0545(3) 0.3427(3)
N3 N 0.3862(5) -0.0597(3) 0.2865(3)
N4 N 0.9435(6) 0.1557(3) 0.2811(3)
H1 H 1.0215 0.1368 0.3126
N5 N -0.0902(6) 0.1396(3) 0.0334(3)
H2 H -0.1782 0.1244 0.0367
O1 O 0.3870(5) -0.1790(2) 0.3403(3)
O2 O 0.4280(5) 0.13384(19) 0.1576(2)
C1 C 0.3018(7) 0.0709(4) 0.4721(4)
C2 C 0.3025(7) -0.0058(4) 0.4888(4)
H3 H 0.2836 -0.0243 0.5386
C3 C 0.3327(6) -0.0516(4) 0.4275(4)
H4 H 0.3369 -0.1028 0.4346
C4 C 0.3568(6) -0.0192(4) 0.3544(4)
C5 C 0.4041(7) -0.1368(4) 0.2854(5)
C6 C 0.4448(7) -0.1531(4) 0.2044(4)
C7 C 0.4765(7) -0.2208(4) 0.1715(5)
H5 H 0.4746 -0.2643 0.2017
C8 C 0.5102(8) -0.2225(4) 0.0946(5)
H6 H 0.5361 -0.2671 0.0729
C9 C 0.5061(7) -0.1577(5) 0.0484(4)
H7 H 0.5258 -0.1599 -0.0051
C10 C 0.4734(6) -0.0903(4) 0.0800(4)
H8 H 0.4719 -0.0471 0.0489
C11 C 0.4426(6) -0.0885(3) 0.1597(4)
C12 C 0.4140(7) -0.0207(3) 0.2095(4)
C13 C 0.5527(7) 0.0265(3) 0.2286(4)
C14 C 0.5556(7) 0.0985(4) 0.2017(3)
C15 C 0.6820(7) 0.1418(3) 0.2168(3)
H9 H 0.6788 0.1901 0.1967
C16 C 0.8148(7) 0.1129(4) 0.2625(4)
C17 C 0.8194(7) 0.0393(4) 0.2934(4)
C18 C 0.9602(7) 0.0064(4) 0.3425(4)
H10 H 1.0389 0.0425 0.3492
H11 H 0.9877 -0.0360 0.3135
H12 H 0.9445 -0.0086 0.3962
C19 C 0.6888(7) -0.0002(3) 0.2743(3)
H13 H 0.6907 -0.0488 0.2932
C20 C 0.9534(8) 0.2290(4) 0.2511(4)
H14 H 0.8843 0.2604 0.2731
H15 H 0.9226 0.2288 0.1909
C21 C 1.1109(8) 0.2623(4) 0.2749(4)
H16 H 1.1102 0.3116 0.2527
H17 H 1.1798 0.2322 0.2523
H18 H 1.1413 0.2641 0.3344
C22 C 0.2799(7) 0.0233(3) 0.1665(3)
C23 C 0.2945(7) 0.0956(4) 0.1417(4)
C24 C 0.1731(7) 0.1355(3) 0.0983(3)
H19 H 0.1862 0.1840 0.0820
C25 C 0.0308(8) 0.1027(4) 0.0789(4)
C26 C 0.0107(7) 0.0300(4) 0.1064(4)
C27 C 0.1364(7) -0.0076(3) 0.1478(3)
H20 H 0.1246 -0.0563 0.1641
C28 C -0.1403(6) -0.0069(3) 0.0868(3)
H21 H -0.2133 0.0275 0.0580
H22 H -0.1680 -0.0222 0.1376
H23 H -0.1360 -0.0494 0.0521
C29 C -0.0785(9) 0.2048(5) -0.0217(6)
H24 H 0.0229 0.2072 -0.0311
H25 H -0.1447 0.1967 -0.0752
C30 C -0.1134(11) 0.2719(5) 0.0094(5)
H26 H -0.1014 0.3106 -0.0288
H27 H -0.0479 0.2808 0.0622
H28 H -0.2152 0.2710 0.0166
loop_
_geom_bond_atom_site_label_1
_geom_bond_atom_site_label_2
_geom_bond_site_symmetry_1
_geom_bond_site_symmetry_2
Cl1 C1 1_555 1_555
N1 N2 1_555 1_555
N2 C4 1_555 1_555
N3 C4 1_555 1_555
N4 H1 1_555 1_555
N5 H2 1_555 1_555
O1 C5 1_555 1_555
O2 C14 1_555 1_555
C1 N1 1_555 1_555
C2 C1 1_555 1_555
H3 C2 1_555 1_555
C3 C2 1_555 1_555
H4 C3 1_555 1_555
C4 C3 1_555 1_555
C5 N3 1_555 1_555
C6 C5 1_555 1_555
C7 C6 1_555 1_555
H5 C7 1_555 1_555
C8 C7 1_555 1_555
H6 C8 1_555 1_555
C9 C8 1_555 1_555
H7 C9 1_555 1_555
C10 C9 1_555 1_555
H8 C10 1_555 1_555
C11 C6 1_555 1_555
C12 N3 1_555 1_555
C13 C12 1_555 1_555
C14 C13 1_555 1_555
C15 C14 1_555 1_555
H9 C15 1_555 1_555
C16 N4 1_555 1_555
C17 C16 1_555 1_555
C18 C17 1_555 1_555
H10 C18 1_555 1_555
H11 C18 1_555 1_555
H12 C18 1_555 1_555
C19 C13 1_555 1_555
H13 C19 1_555 1_555
C20 N4 1_555 1_555
H14 C20 1_555 1_555
H15 C20 1_555 1_555
C21 C20 1_555 1_555
H16 C21 1_555 1_555
H17 C21 1_555 1_555
H18 C21 1_555 1_555
C22 C12 1_555 1_555
C23 O2 1_555 1_555
C24 C23 1_555 1_555
H19 C24 1_555 1_555
C25 N5 1_555 1_555
C26 C25 1_555 1_555
C27 C22 1_555 1_555
H20 C27 1_555 1_555
C28 C26 1_555 1_555
H21 C28 1_555 1_555
H22 C28 1_555 1_555
H23 C28 1_555 1_555
C29 N5 1_555 1_555
H24 C29 1_555 1_555
H25 C29 1_555 1_555
C30 C29 1_555 1_555
H26 C30 1_555 1_555
H27 C30 1_555 1_555
H28 C30 1_555 1_555
C10 C11 1_555 1_555
C11 C12 1_555 1_555
C15 C16 1_555 1_555
C17 C19 1_555 1_555
C22 C23 1_555 1_555
C24 C25 1_555 1_555
C26 C27 1_555 1_555

#END
