
#######################################################################
#
#                 Cambridge Crystallographic Data Centre
#                                CCDC 
#
#######################################################################
#
# If this CIF has been generated from an entry in the Cambridge 
# Structural Database, then it will include bibliographic, chemical, 
# crystal, experimental, refinement or atomic coordinate data resulting 
# from the CCDC's data processing and validation procedures.
#
#######################################################################

data_TUFCAY
_chemical_formula_moiety         'C14 H10 N2 O2 S1'
_chemical_name_systematic        
3-Benzoyl-7-methyl-5H-thiazolo(3,2-a)pyrimidine-5-one
_symmetry_cell_setting           monoclinic
_symmetry_space_group_name_H-M   'P 21/n'
_symmetry_Int_Tables_number      14
_space_group_name_Hall           '-P 2yn'
loop_
_symmetry_equiv_pos_site_id
_symmetry_equiv_pos_as_xyz
1 x,y,z
2 1/2-x,1/2+y,1/2-z
3 -x,-y,-z
4 1/2+x,1/2-y,1/2+z
_cell_length_a                   4.926(1)
_cell_length_b                   9.791(2)
_cell_length_c                   25.576(5)
_cell_angle_alpha                90
_cell_angle_beta                 93.27(3)
_cell_angle_gamma                90
_cell_volume                     1231.53
_chemical_melting_point          449-452K
_cell_formula_units_Z            4
loop_
_atom_site_label
_atom_site_type_symbol
_atom_site_fract_x
_atom_site_fract_y
_atom_site_fract_z
S1 S 0.35242(13) 0.27832(6) 0.00997(2)
N1 N 0.02055(36) 0.31736(18) 0.08224(6)
N2 N 0.25021(41) 0.51801(19) 0.05629(8)
O1 O -0.33618(34) 0.32282(17) 0.13533(6)
O2 O -0.29372(38) -0.00378(18) 0.07829(7)
C1 C 0.17781(48) 0.14220(25) 0.03449(9)
C2 C 0.01333(46) 0.17597(21) 0.07209(8)
C3 C -0.15471(47) 0.38665(22) 0.11536(8)
C4 C -0.08593(54) 0.52721(24) 0.12057(10)
C5 C 0.11035(51) 0.58605(23) 0.09288(9)
C6 C 0.19961(45) 0.38744(22) 0.05289(8)
C7 C 0.18944(77) 0.73240(30) 0.10031(14)
C8 C -0.13916(47) 0.07308(22) 0.10267(9)
C9 C -0.07026(46) 0.05676(21) 0.15961(9)
C10 C 0.14181(53) 0.12686(28) 0.18501(9)
C11 C 0.20525(64) 0.10265(33) 0.23790(11)
C12 C 0.05944(64) 0.00938(34) 0.26463(11)
C13 C -0.15023(64) -0.06106(31) 0.23942(11)
C14 C -0.21877(57) -0.03733(26) 0.18730(10)
H1 H 0.2191(58) 0.0545(27) 0.0232(11)
H2 H -0.1770(57) 0.5792(27) 0.1433(11)
H3 H 0.1657(56) 0.7884(28) 0.0701(12)
H4 H 0.1052(60) 0.7712(28) 0.1219(12)
H5 H 0.3953(67) 0.7438(26) 0.1050(11)
H6 H 0.2557(56) 0.1932(27) 0.1662(11)
H7 H 0.3559(57) 0.1494(30) 0.2552(11)
H8 H 0.1032(55) -0.0156(27) 0.2990(12)
H9 H -0.2624(59) -0.1235(28) 0.2584(11)
H10 H -0.3712(58) -0.0825(27) 0.1681(11)
loop_
_geom_bond_atom_site_label_1
_geom_bond_atom_site_label_2
_geom_bond_site_symmetry_1
_geom_bond_site_symmetry_2
S1 C1 1_555 1_555
N1 C2 1_555 1_555
N2 C5 1_555 1_555
O1 C3 1_555 1_555
O2 C8 1_555 1_555
C1 C2 1_555 1_555
C2 C8 1_555 1_555
C3 N1 1_555 1_555
C4 C3 1_555 1_555
C5 C4 1_555 1_555
C6 S1 1_555 1_555
C7 C5 1_555 1_555
C8 C9 1_555 1_555
C9 C10 1_555 1_555
C10 C11 1_555 1_555
C11 C12 1_555 1_555
C12 C13 1_555 1_555
C13 C14 1_555 1_555
C14 C9 1_555 1_555
H1 C1 1_555 1_555
H2 C4 1_555 1_555
H3 C7 1_555 1_555
H4 C7 1_555 1_555
H5 C7 1_555 1_555
H6 C10 1_555 1_555
H7 C11 1_555 1_555
H8 C12 1_555 1_555
H9 C13 1_555 1_555
H10 C14 1_555 1_555
N1 C6 1_555 1_555
N2 C6 1_555 1_555

#END
