
#######################################################################
#
#                 Cambridge Crystallographic Data Centre
#                                CCDC 
#
#######################################################################
#
# If this CIF has been generated from an entry in the Cambridge 
# Structural Database, then it will include bibliographic, chemical, 
# crystal, experimental, refinement or atomic coordinate data resulting 
# from the CCDC's data processing and validation procedures.
#
#######################################################################

data_TUFCUU
_chemical_formula_moiety         'C22 H20 N2 O4,C4 H8 O1'
_chemical_name_systematic        
"4,4'-(1,4-phenylenebis(nitrilomethylylidene))bis(2-methoxyphenol) tetrahydrofuran solvate"
_symmetry_cell_setting           monoclinic
_symmetry_space_group_name_H-M   'P 21/c'
_symmetry_Int_Tables_number      14
_space_group_name_Hall           '-P 2ybc'
loop_
_symmetry_equiv_pos_site_id
_symmetry_equiv_pos_as_xyz
1 x,y,z
2 -x,1/2+y,1/2-z
3 -x,-y,-z
4 x,1/2-y,1/2+z
_cell_length_a                   13.2363(9)
_cell_length_b                   11.7650(8)
_cell_length_c                   17.6353(9)
_cell_angle_alpha                90
_cell_angle_beta                 103.2810(10)
_cell_angle_gamma                90
_cell_volume                     2672.81
_cell_formula_units_Z            4
loop_
_atom_site_label
_atom_site_type_symbol
_atom_site_fract_x
_atom_site_fract_y
_atom_site_fract_z
O1 O 0.06217(15) 0.34439(16) 0.18641(11)
O2 O -0.05483(18) 0.53189(19) 0.16787(13)
O3 O 0.45358(17) 1.57240(18) 0.83135(12)
H1 H 0.521(4) 1.582(4) 0.841(2)
O4 O 0.58461(15) 1.42111(18) 0.79202(13)
N1 N 0.13553(17) 0.7971(2) 0.40008(13)
N2 N 0.33754(17) 1.13198(19) 0.61093(12)
C1 C -0.1076(3) 0.6355(3) 0.1468(2)
H2 H -0.165(3) 0.612(3) 0.105(2)
H3 H -0.143(3) 0.664(4) 0.182(3)
H4 H -0.064(4) 0.699(4) 0.150(2)
C2 C 0.1862(2) 0.7064(2) 0.39368(17)
H5 H 0.248(3) 0.694(3) 0.4290(19)
C3 C 0.2866(2) 1.2148(3) 0.63029(16)
H6 H 0.212(3) 1.216(3) 0.6028(18)
C4 C 0.6558(3) 1.3418(3) 0.7736(3)
H7 H 0.724(3) 1.372(3) 0.8033(18)
H8 H 0.639(3) 1.276(4) 0.795(2)
C5 C 0.0897(2) 0.4332(2) 0.23595(16)
C6 C 0.0303(2) 0.5331(2) 0.22824(15)
C7 C 0.0601(2) 0.6227(3) 0.27865(17)
H9 H 0.029(3) 0.701(4) 0.270(2)
C8 C 0.1507(2) 0.6146(2) 0.33875(16)
C9 C 0.2094(2) 0.5157(3) 0.34489(19)
H10 H 0.277(3) 0.509(3) 0.3832(19)
C10 C 0.1795(2) 0.4263(3) 0.29391(19)
H11 H 0.228(3) 0.357(3) 0.299(2)
C11 C 0.1876(2) 0.8799(2) 0.45469(15)
C12 C 0.1347(2) 0.9305(2) 0.50471(16)
H12 H 0.057(3) 0.896(4) 0.518(2)
C13 C 0.1817(2) 1.0132(2) 0.55725(15)
H13 H 0.138(3) 1.035(3) 0.597(2)
C14 C 0.2832(2) 1.0481(2) 0.55924(14)
C15 C 0.3364(2) 0.9967(2) 0.50878(16)
H14 H 0.408(3) 1.018(3) 0.5073(19)
C16 C 0.2892(2) 0.9141(2) 0.45672(16)
H15 H 0.323(2) 0.884(3) 0.4195(19)
C17 C 0.4155(2) 1.4855(2) 0.78296(15)
C18 C 0.4819(2) 1.4040(2) 0.76090(15)
C19 C 0.4406(2) 1.3161(2) 0.71138(15)
H16 H 0.491(3) 1.248(3) 0.691(2)
C20 C 0.3330(2) 1.3066(2) 0.68307(16)
C21 C 0.2686(2) 1.3869(3) 0.70544(19)
H17 H 0.196(3) 1.383(3) 0.6896(17)
C22 C 0.3099(2) 1.4750(3) 0.75492(19)
H18 H 0.264(3) 1.530(4) 0.781(2)
H19 H -0.021(3) 0.350(3) 0.151(2)
H20 H 0.664(5) 1.264(6) 0.705(4)
O5 O 0.5788(2) 0.3694(3) 0.50586(18)
C23 C 0.4907(4) 0.3032(5) 0.5085(3)
H21 H 0.4483 0.3409 0.5407
H22 H 0.5116 0.2272 0.5307
C24 C 0.4300(5) 0.2931(6) 0.4246(4)
H23 H 0.3557 0.3100 0.4205
H24 H 0.4361 0.2153 0.4047
C25 C 0.4776(4) 0.3800(5) 0.3781(3)
H25 H 0.4776 0.3512 0.3254
H26 H 0.4397 0.4532 0.3734
C26 C 0.5871(4) 0.3928(6) 0.4269(3)
H27 H 0.6344 0.3380 0.4102
H28 H 0.6133 0.4708 0.4226
loop_
_geom_bond_atom_site_label_1
_geom_bond_atom_site_label_2
_geom_bond_site_symmetry_1
_geom_bond_site_symmetry_2
O1 C5 1_555 1_555
O2 C1 1_555 1_555
O3 H1 1_555 1_555
O4 C4 1_555 1_555
N1 C2 1_555 1_555
N2 C3 1_555 1_555
C1 H2 1_555 1_555
H3 C1 1_555 1_555
H4 C1 1_555 1_555
C2 H5 1_555 1_555
C3 H6 1_555 1_555
C4 H7 1_555 1_555
H8 C4 1_555 1_555
C5 C6 1_555 1_555
C6 O2 1_555 1_555
C7 C6 1_555 1_555
H9 C7 1_555 1_555
C8 C2 1_555 1_555
C9 C8 1_555 1_555
H10 C9 1_555 1_555
C10 C5 1_555 1_555
H11 C10 1_555 1_555
C11 N1 1_555 1_555
C12 C11 1_555 1_555
H12 C12 1_555 1_555
C13 C12 1_555 1_555
H13 C13 1_555 1_555
C14 N2 1_555 1_555
C15 C14 1_555 1_555
H14 C15 1_555 1_555
C16 C11 1_555 1_555
H15 C16 1_555 1_555
C17 O3 1_555 1_555
C18 O4 1_555 1_555
C19 C18 1_555 1_555
H16 C19 1_555 1_555
C20 C3 1_555 1_555
C21 C20 1_555 1_555
H17 C21 1_555 1_555
C22 C17 1_555 1_555
H18 C22 1_555 1_555
H19 O1 1_555 1_555
H20 C4 1_555 1_555
O5 C23 1_555 1_555
C23 H21 1_555 1_555
H22 C23 1_555 1_555
C24 C23 1_555 1_555
H23 C24 1_555 1_555
H24 C24 1_555 1_555
C25 C24 1_555 1_555
H25 C25 1_555 1_555
H26 C25 1_555 1_555
C26 O5 1_555 1_555
H27 C26 1_555 1_555
H28 C26 1_555 1_555
C7 C8 1_555 1_555
C9 C10 1_555 1_555
C13 C14 1_555 1_555
C15 C16 1_555 1_555
C17 C18 1_555 1_555
C19 C20 1_555 1_555
C21 C22 1_555 1_555
C25 C26 1_555 1_555

#END
