
#######################################################################
#
#                 Cambridge Crystallographic Data Centre
#                                CCDC 
#
#######################################################################
#
# If this CIF has been generated from an entry in the Cambridge 
# Structural Database, then it will include bibliographic, chemical, 
# crystal, experimental, refinement or atomic coordinate data resulting 
# from the CCDC's data processing and validation procedures.
#
#######################################################################

data_TUFRES
_chemical_name_common            'Klysimplexin A'
_chemical_formula_moiety         'C26 H42 O7'
_chemical_name_systematic        
'3-Acetoxy-5-hydroxy-6-isopropyl-3,9,13-trimethyl-12-oxo-15-oxatricyclo[6.6.1.0^2,7^]pentadec-9-yl butyrate'
_chemical_properties_biological  
'tested for cytotoxic activity against human tumour cell lines'
_symmetry_cell_setting           monoclinic
_symmetry_space_group_name_H-M   'P 21'
_symmetry_Int_Tables_number      4
_space_group_name_Hall           'P 2yb'
loop_
_symmetry_equiv_pos_site_id
_symmetry_equiv_pos_as_xyz
1 x,y,z
2 -x,1/2+y,-z
_cell_length_a                   10.100(2)
_cell_length_b                   10.467(2)
_cell_length_c                   12.442(3)
_cell_angle_alpha                90
_cell_angle_beta                 95.11(3)
_cell_angle_gamma                90
_cell_volume                     1310.1
_exptl_crystal_colour            colorless
_exptl_crystal_description       plate
_chemical_melting_point          165-172deg.C
_cell_formula_units_Z            2
_exptl_crystal_recrystallization_method acetone
loop_
_atom_site_label
_atom_site_type_symbol
_atom_site_fract_x
_atom_site_fract_y
_atom_site_fract_z
O1 O 0.71075(17) 0.91579(18) 0.68279(16)
O2 O 0.5408(3) 1.0072(3) 0.5807(3)
O3 O 0.4745(2) 0.6313(2) 0.9009(2)
O4 O 0.74395(16) 0.68274(16) 0.83196(14)
O5 O 1.14441(16) 0.91650(16) 0.81325(16)
O6 O 1.0253(2) 1.0992(2) 0.8139(2)
O7 O 1.22341(18) 0.53528(17) 0.80680(18)
H1 H 1.3010 0.5519 0.8270
C1 C 0.9206(2) 0.7398(2) 0.7321(2)
H2 H 0.9397 0.7909 0.6693
C2 C 0.7742(2) 0.6991(3) 0.7225(2)
H3 H 0.7700 0.6142 0.6891
C3 C 0.6718(2) 0.7837(3) 0.6560(2)
C4 C 0.5300(3) 0.7565(3) 0.6859(3)
H4 H 0.4682 0.7871 0.6274
H5 H 0.5191 0.6646 0.6899
C5 C 0.4896(3) 0.8147(3) 0.7916(3)
H6 H 0.5311 0.8980 0.8010
H7 H 0.3942 0.8278 0.7844
C6 C 0.5252(3) 0.7373(3) 0.8926(3)
C7 C 0.6069(3) 0.7960(3) 0.9866(3)
H8 H 0.5527 0.8650 1.0127
C8 C 0.7352(3) 0.8596(3) 0.9541(3)
H9 H 0.7120 0.9273 0.9026
H10 H 0.7825 0.8978 1.0174
C9 C 0.8264(2) 0.7632(3) 0.9040(2)
H11 H 0.8729 0.7111 0.9610
C10 C 0.9276(2) 0.8243(2) 0.8345(2)
H12 H 0.8932 0.9088 0.8125
C11 C 1.0679(2) 0.8438(2) 0.8892(2)
C12 C 1.1436(2) 0.7186(2) 0.8992(2)
H13 H 1.2335 0.7352 0.9302
H14 H 1.1014 0.6628 0.9482
C13 C 1.1493(2) 0.6514(2) 0.7923(2)
H15 H 1.1932 0.7073 0.7433
C14 C 1.0105(2) 0.6187(2) 0.7413(2)
H16 H 0.9708 0.5594 0.7902
C15 C 0.6828(3) 0.7582(4) 0.5378(2)
H17 H 0.6295 0.8188 0.4954
H18 H 0.6519 0.6733 0.5204
H19 H 0.7739 0.7662 0.5225
C16 C 0.6345(4) 0.7053(5) 1.0808(3)
H20 H 0.5520 0.6726 1.1022
H21 H 0.6806 0.7501 1.1402
H22 H 0.6884 0.6357 1.0596
C17 C 1.0710(3) 0.9122(3) 0.9969(2)
H23 H 1.1614 0.9307 1.0226
H24 H 1.0317 0.8587 1.0481
H25 H 1.0217 0.9905 0.9881
C18 C 1.0110(3) 0.5510(3) 0.6313(3)
H26 H 0.9221 0.5630 0.5943
C19 C 1.1082(4) 0.6062(4) 0.5579(3)
H27 H 1.1973 0.5851 0.5856
H28 H 1.0983 0.6974 0.5548
H29 H 1.0906 0.5711 0.4868
C20 C 1.0317(5) 0.4055(4) 0.6439(4)
H30 H 1.0102 0.3645 0.5755
H31 H 0.9751 0.3730 0.6955
H32 H 1.1228 0.3884 0.6684
C21 C 0.6391(3) 1.0156(3) 0.6431(3)
C22 C 0.6927(4) 1.1376(4) 0.6936(5)
H33 H 0.7144 1.1216 0.7699
H34 H 0.7755 1.1569 0.6630
C23 C 0.6140(6) 1.2464(7) 0.6840(7)
H35 H 0.6070 1.2702 0.6084
H36 H 0.5256 1.2207 0.7003
C24 C 0.6436(7) 1.3557(6) 0.7415(7)
H37 H 0.7373 1.3721 0.7435
H38 H 0.6188 1.3456 0.8137
H39 H 0.5955 1.4261 0.7075
C25 C 1.1093(3) 1.0345(3) 0.7775(3)
C26 C 1.1894(4) 1.0710(4) 0.6875(3)
H40 H 1.1670 1.0161 0.6268
H41 H 1.2822 1.0623 0.7106
H42 H 1.1706 1.1580 0.6672
loop_
_geom_bond_atom_site_label_1
_geom_bond_atom_site_label_2
_geom_bond_site_symmetry_1
_geom_bond_site_symmetry_2
O1 C3 1_555 1_555
O2 C21 1_555 1_555
O3 C6 1_555 1_555
O4 C2 1_555 1_555
O5 C11 1_555 1_555
O6 C25 1_555 1_555
O7 H1 1_555 1_555
C1 H2 1_555 1_555
C2 C1 1_555 1_555
H3 C2 1_555 1_555
C3 C2 1_555 1_555
C4 C3 1_555 1_555
H4 C4 1_555 1_555
H5 C4 1_555 1_555
C5 C4 1_555 1_555
H6 C5 1_555 1_555
H7 C5 1_555 1_555
C6 C5 1_555 1_555
C7 C6 1_555 1_555
H8 C7 1_555 1_555
C8 C7 1_555 1_555
H9 C8 1_555 1_555
H10 C8 1_555 1_555
C9 O4 1_555 1_555
H11 C9 1_555 1_555
C10 C1 1_555 1_555
H12 C10 1_555 1_555
C11 C10 1_555 1_555
C12 C11 1_555 1_555
H13 C12 1_555 1_555
H14 C12 1_555 1_555
C13 O7 1_555 1_555
H15 C13 1_555 1_555
C14 C1 1_555 1_555
H16 C14 1_555 1_555
C15 C3 1_555 1_555
H17 C15 1_555 1_555
H18 C15 1_555 1_555
H19 C15 1_555 1_555
C16 C7 1_555 1_555
H20 C16 1_555 1_555
H21 C16 1_555 1_555
H22 C16 1_555 1_555
C17 C11 1_555 1_555
H23 C17 1_555 1_555
H24 C17 1_555 1_555
H25 C17 1_555 1_555
C18 C14 1_555 1_555
H26 C18 1_555 1_555
C19 C18 1_555 1_555
H27 C19 1_555 1_555
H28 C19 1_555 1_555
H29 C19 1_555 1_555
C20 C18 1_555 1_555
H30 C20 1_555 1_555
H31 C20 1_555 1_555
H32 C20 1_555 1_555
C21 O1 1_555 1_555
C22 C21 1_555 1_555
H33 C22 1_555 1_555
H34 C22 1_555 1_555
C23 C22 1_555 1_555
H35 C23 1_555 1_555
H36 C23 1_555 1_555
C24 C23 1_555 1_555
H37 C24 1_555 1_555
H38 C24 1_555 1_555
H39 C24 1_555 1_555
C25 O5 1_555 1_555
C26 C25 1_555 1_555
H40 C26 1_555 1_555
H41 C26 1_555 1_555
H42 C26 1_555 1_555
C8 C9 1_555 1_555
C9 C10 1_555 1_555
C12 C13 1_555 1_555
C13 C14 1_555 1_555

#END
