
#######################################################################
#
#                 Cambridge Crystallographic Data Centre
#                                CCDC 
#
#######################################################################
#
# If this CIF has been generated from an entry in the Cambridge 
# Structural Database, then it will include bibliographic, chemical, 
# crystal, experimental, refinement or atomic coordinate data resulting 
# from the CCDC's data processing and validation procedures.
#
#######################################################################

data_TUGHUA01
_chemical_formula_moiety         'C12 H28 N1 1+,C2 Cl3 O2 1-'
_chemical_name_systematic        'tri-n-butylammonium  trichloroacetate'
_symmetry_cell_setting           triclinic
_symmetry_space_group_name_H-M   'P -1'
_symmetry_Int_Tables_number      2
_space_group_name_Hall           '-P 1'
loop_
_symmetry_equiv_pos_site_id
_symmetry_equiv_pos_as_xyz
1 x,y,z
2 -x,-y,-z
_cell_length_a                   9.6704(3)
_cell_length_b                   10.5407(4)
_cell_length_c                   19.7334(9)
_cell_angle_alpha                98.677(4)
_cell_angle_beta                 101.665(4)
_cell_angle_gamma                98.350(3)
_cell_volume                     1915.04
_exptl_crystal_colour            colorless
_exptl_crystal_description       rod
_chemical_melting_point          '355 K'
_cell_formula_units_Z            4
loop_
_atom_site_label
_atom_site_type_symbol
_atom_site_fract_x
_atom_site_fract_y
_atom_site_fract_z
Cl1 Cl 0.38614(12) 0.17657(11) 0.64502(6)
Cl2 Cl 0.09193(14) 0.12929(11) 0.57271(9)
Cl3 Cl 0.1921(2) 0.31942(19) 0.69918(7)
O1 O 0.1655(2) 0.4208(2) 0.56618(13)
O2 O 0.3692(3) 0.3621(3) 0.55234(17)
C1 C 0.2619(3) 0.3564(3) 0.57553(15)
C2 C 0.2365(3) 0.2511(3) 0.62202(17)
Cl4 Cl 0.0400(3) 0.3866(3) 0.1244(4)
Cl5 Cl -0.2291(12) 0.4039(6) 0.1569(6)
Cl6 Cl -0.1935(12) 0.4267(6) 0.0198(5)
O3 O -0.1092(2) 0.12642(18) 0.06277(13)
C3 C -0.2020(3) 0.1938(3) 0.06240(16)
C4 C -0.1458(3) 0.3443(3) 0.09101(17)
O4 O -0.3308(3) 0.1612(2) 0.0403(2)
C5 C 0.3673(3) 0.1394(3) 0.40139(19)
H1 H 0.3635 0.1365 0.3512
H2 H 0.3152 0.2073 0.4168
N1 N 0.7480(3) 0.3488(2) 0.46991(13)
H3 H 0.7764 0.4309 0.4614
C6 C 0.5226(3) 0.1752(3) 0.44198(17)
H4 H 0.5271 0.1751 0.4920
H5 H 0.5760 0.1094 0.4252
C7 C 0.5918(3) 0.3077(3) 0.43336(15)
H6 H 0.5823 0.3078 0.3830
H7 H 0.5390 0.3728 0.4514
C8 C 0.8440(3) 0.2652(3) 0.4426(2)
H8 H 0.9435 0.3024 0.4673
H9 H 0.8211 0.1784 0.4540
C9 C 0.8341(4) 0.2505(4) 0.3664(2)
H10 H 0.8414 0.3367 0.3531
H11 H 0.7404 0.1987 0.3409
C10 C 0.7808(5) 0.3601(3) 0.54801(19)
H12 H 0.7466 0.2749 0.5588
H13 H 0.8852 0.3803 0.5658
C11 C 0.9534(5) 0.1834(5) 0.3450(3)
H14 H 1.0457 0.2422 0.3652
H15 H 0.9557 0.1047 0.3658
C12 C 0.2935(4) 0.0087(4) 0.4115(2)
H16 H 0.3420 -0.0595 0.3943
H17 H 0.1942 -0.0089 0.3855
H18 H 0.2972 0.0109 0.4612
C13 C 0.7196(5) 0.4543(4) 0.5846(2)
H19 H 0.6148 0.4282 0.5727
H20 H 0.7436 0.5386 0.5706
C14 C 0.7783(7) 0.4677(5) 0.6661(2)
H21 H 0.7659 0.3817 0.6796
H22 H 0.8806 0.5067 0.6799
C15 C 0.6937(6) 0.5506(5) 0.7000(2)
H23 H 0.7191 0.6394 0.6930
H24 H 0.7136 0.5491 0.7501
H25 H 0.5924 0.5185 0.6795
C16 C 0.9389(9) 0.1475(9) 0.2710(4)
H26 H 0.8509 0.0847 0.2508
H27 H 1.0202 0.1088 0.2622
H28 H 0.9359 0.2244 0.2497
N2 N 0.2377(3) 0.1308(2) -0.03377(12)
H35 H 0.2019 0.0432 -0.0390
C18 C 0.0345(3) 0.1488(3) -0.13122(19)
H36 H 0.0057 0.0537 -0.1409
H37 H 0.0989 0.1722 -0.1617
C19 C 0.2512(5) 0.1113(5) 0.0915(2)
H38 H 0.2480 0.0172 0.0788
H39 H 0.1529 0.1261 0.0894
C20 C -0.0988(4) 0.2118(4) -0.1475(3)
H40 H -0.1644 0.1856 -0.1182
H41 H -0.0699 0.3070 -0.1357
C21 C 0.4051(4) 0.2792(3) -0.0838(2)
H42 H 0.3266 0.3217 -0.1035
H43 H 0.4515 0.3287 -0.0365
C22 C 0.3449(3) 0.1412(3) -0.07886(17)
H44 H 0.2991 0.0928 -0.1265
H45 H 0.4246 0.0992 -0.0600
C23 C 0.1120(3) 0.1942(3) -0.05552(18)
H46 H 0.1450 0.2888 -0.0472
H47 H 0.0443 0.1769 -0.0257
C24 C 0.3109(6) 0.1768(4) 0.0429(2)
H48 H 0.4122 0.1687 0.0492
H49 H 0.3078 0.2698 0.0552
C25 C 0.5128(4) 0.2808(4) -0.1295(2)
H50 H 0.4674 0.2266 -0.1758
H51 H 0.5933 0.2421 -0.1082
C26 C 0.5702(5) 0.4173(5) -0.1392(3)
H52 H 0.4943 0.4503 -0.1676
H53 H 0.6491 0.4145 -0.1625
H54 H 0.6039 0.4744 -0.0935
C27 C 0.3438(7) 0.1631(5) 0.1666(2)
H55 H 0.3714 0.2577 0.1712
H56 H 0.2803 0.1491 0.1987
C28 C 0.4743(6) 0.1137(7) 0.1941(3)
H57 H 0.4699 0.0269 0.1682
H58 H 0.4825 0.1105 0.2436
H59 H 0.5572 0.1717 0.1887
C29 C -0.1757(5) 0.1724(6) -0.2239(3)
H60 H -0.1117 0.1999 -0.2531
H61 H -0.2594 0.2136 -0.2323
H62 H -0.2056 0.0784 -0.2356
Cl7? Cl -0.131(3) 0.4170(8) 0.0190(8)
Cl8? Cl 0.018(2) 0.3682(13) 0.1529(11)
Cl9? Cl -0.268(3) 0.4082(8) 0.1327(19)
H29? H 0.6896 0.3284 0.5595
H30? H 0.8429 0.2969 0.5586
H31? H 0.7229 0.3789 0.6597
H32? H 0.8656 0.4709 0.7020
C17? C 0.8447(18) 0.4702(13) 0.5948(7)
H33? H 0.8253 0.5469 0.5745
H34? H 0.9488 0.4742 0.6070
H63? H 0.3900 0.2467 0.0436
H64? H 0.2414 0.2185 0.0635
H65? H 0.3497 0.2570 0.1810
H66? H 0.2564 0.1150 0.1771
C30? C 0.3600(11) 0.1155(10) 0.0845(5)
H67? H 0.4622 0.1200 0.0852
H68? H 0.3131 0.0239 0.0685
loop_
_geom_bond_atom_site_label_1
_geom_bond_atom_site_label_2
_geom_bond_site_symmetry_1
_geom_bond_site_symmetry_2
Cl1 C2 1_555 1_555
Cl2 C2 1_555 1_555
Cl3 C2 1_555 1_555
O1 C1 1_555 1_555
O2 C1 1_555 1_555
C1 C2 1_555 1_555
Cl4 C4 1_555 1_555
Cl5 C4 1_555 1_555
Cl6 C4 1_555 1_555
O3 C3 1_555 1_555
C3 C4 1_555 1_555
O4 C3 1_555 1_555
C5 H1 1_555 1_555
H2 C5 1_555 1_555
N1 H3 1_555 1_555
C6 C5 1_555 1_555
H4 C6 1_555 1_555
H5 C6 1_555 1_555
C7 N1 1_555 1_555
H6 C7 1_555 1_555
H7 C7 1_555 1_555
C8 N1 1_555 1_555
H8 C8 1_555 1_555
H9 C8 1_555 1_555
C9 C8 1_555 1_555
H10 C9 1_555 1_555
H11 C9 1_555 1_555
C10 N1 1_555 1_555
H12 C10 1_555 1_555
H13 C10 1_555 1_555
C11 C9 1_555 1_555
H14 C11 1_555 1_555
H15 C11 1_555 1_555
C12 C5 1_555 1_555
H16 C12 1_555 1_555
H17 C12 1_555 1_555
H18 C12 1_555 1_555
C13 C10 1_555 1_555
H19 C13 1_555 1_555
H20 C13 1_555 1_555
C14 C13 1_555 1_555
H21 C14 1_555 1_555
H22 C14 1_555 1_555
C15 C14 1_555 1_555
H23 C15 1_555 1_555
H24 C15 1_555 1_555
H25 C15 1_555 1_555
C16 C11 1_555 1_555
H26 C16 1_555 1_555
H27 C16 1_555 1_555
H28 C16 1_555 1_555
N2 H35 1_555 1_555
C18 H36 1_555 1_555
H37 C18 1_555 1_555
C19 H38 1_555 1_555
H39 C19 1_555 1_555
C20 C18 1_555 1_555
H40 C20 1_555 1_555
H41 C20 1_555 1_555
C21 H42 1_555 1_555
H43 C21 1_555 1_555
C22 N2 1_555 1_555
H44 C22 1_555 1_555
H45 C22 1_555 1_555
C23 N2 1_555 1_555
H46 C23 1_555 1_555
H47 C23 1_555 1_555
C24 N2 1_555 1_555
H48 C24 1_555 1_555
H49 C24 1_555 1_555
C25 C21 1_555 1_555
H50 C25 1_555 1_555
H51 C25 1_555 1_555
C26 C25 1_555 1_555
H52 C26 1_555 1_555
H53 C26 1_555 1_555
H54 C26 1_555 1_555
C27 C19 1_555 1_555
H55 C27 1_555 1_555
H56 C27 1_555 1_555
C28 C27 1_555 1_555
H57 C28 1_555 1_555
H58 C28 1_555 1_555
H59 C28 1_555 1_555
C29 C20 1_555 1_555
H60 C29 1_555 1_555
H61 C29 1_555 1_555
H62 C29 1_555 1_555
C6 C7 1_555 1_555
C18 C23 1_555 1_555
C19 C24 1_555 1_555
C21 C22 1_555 1_555

#END
