
#######################################################################
#
#                 Cambridge Crystallographic Data Centre
#                                CCDC 
#
#######################################################################
#
# If this CIF has been generated from an entry in the Cambridge 
# Structural Database, then it will include bibliographic, chemical, 
# crystal, experimental, refinement or atomic coordinate data resulting 
# from the CCDC's data processing and validation procedures.
#
#######################################################################

data_TUGSUL
_chemical_formula_moiety         'C7 H9 N2 O4 1+,N1 O3 1-'
_chemical_name_systematic        
'1,3-bis(carboxymethyl)-1H-imidazol-3-ium nitrate'
_symmetry_cell_setting           triclinic
_symmetry_space_group_name_H-M   'P -1'
_symmetry_Int_Tables_number      2
_space_group_name_Hall           '-P 1'
loop_
_symmetry_equiv_pos_site_id
_symmetry_equiv_pos_as_xyz
1 x,y,z
2 -x,-y,-z
_cell_length_a                   5.009(4)
_cell_length_b                   10.465(5)
_cell_length_c                   11.263(3)
_cell_angle_alpha                62.840(10)
_cell_angle_beta                 78.36(2)
_cell_angle_gamma                78.16(3)
_cell_volume                     510.144
_exptl_crystal_colour            white
_exptl_crystal_description       block
_cell_formula_units_Z            2
loop_
_atom_site_label
_atom_site_type_symbol
_atom_site_fract_x
_atom_site_fract_y
_atom_site_fract_z
O1 O 0.3767(12) 0.0487(5) 0.3441(6)
H1 H 0.2517 0.0290 0.3208
O2 O 0.2195(11) 0.2743(6) 0.2145(6)
O3 O 0.2160(12) 0.7136(6) -0.0021(6)
O4 O 0.3017(13) 0.9334(6) -0.0605(6)
H2 H 0.1731 0.9581 -0.1046
N1 N 0.5545(12) 0.3776(6) 0.3021(7)
N2 N 0.5478(12) 0.6049(6) 0.1952(7)
C1 C 0.3723(15) 0.1891(7) 0.2900(8)
C2 C 0.5955(16) 0.2252(7) 0.3316(9)
H3 H 0.6020 0.1671 0.4273
H4 H 0.7699 0.2027 0.2846
C3 C 0.421(2) 0.4357(9) 0.3852(9)
H5 H 0.3434 0.3858 0.4734
C4 C 0.4198(19) 0.5755(9) 0.3188(9)
H6 H 0.3427 0.6433 0.3521
C5 C 0.6325(15) 0.4816(8) 0.1848(8)
H7 H 0.7283 0.4706 0.1095
C6 C 0.5661(17) 0.7481(8) 0.0861(9)
H8 H 0.7383 0.7474 0.0285
H9 H 0.5645 0.8162 0.1225
C7 C 0.3350(16) 0.7954(8) 0.0057(8)
O5 O -0.0285(12) 0.0305(6) 0.7523(6)
O6 O 0.1972(15) 0.2071(6) 0.6872(7)
O7 O -0.0148(16) 0.1942(7) 0.5509(7)
N3 N 0.0535(14) 0.1448(7) 0.6617(8)
loop_
_geom_bond_atom_site_label_1
_geom_bond_atom_site_label_2
_geom_bond_site_symmetry_1
_geom_bond_site_symmetry_2
O1 H1 1_555 1_555
O2 C1 1_555 1_555
O3 C7 1_555 1_555
O4 H2 1_555 1_555
N1 C2 1_555 1_555
N2 C4 1_555 1_555
C1 O1 1_555 1_555
C2 C1 1_555 1_555
H3 C2 1_555 1_555
H4 C2 1_555 1_555
C3 N1 1_555 1_555
H5 C3 1_555 1_555
C4 C3 1_555 1_555
H6 C4 1_555 1_555
C5 N1 1_555 1_555
H7 C5 1_555 1_555
C6 N2 1_555 1_555
H8 C6 1_555 1_555
H9 C6 1_555 1_555
C7 O4 1_555 1_555
O5 N3 1_555 1_555
O6 N3 1_555 1_555
O7 N3 1_555 1_555
N2 C5 1_555 1_555
C6 C7 1_555 1_555

#END
