
#######################################################################
#
#                 Cambridge Crystallographic Data Centre
#                                CCDC 
#
#######################################################################
#
# If this CIF has been generated from an entry in the Cambridge 
# Structural Database, then it will include bibliographic, chemical, 
# crystal, experimental, refinement or atomic coordinate data resulting 
# from the CCDC's data processing and validation procedures.
#
#######################################################################

data_TUHNER
_chemical_formula_moiety         'C27 H23 F6 N3 O6'
_chemical_name_systematic        
'diethyl 2-amino-3-cyano-5-nitro-4,6-bis(4-(trifluoromethyl)phenyl)cyclohex-1-ene-1,3-dicarboxylate'
_symmetry_cell_setting           monoclinic
_symmetry_space_group_name_H-M   'P 21/c'
_symmetry_Int_Tables_number      14
_space_group_name_Hall           '-P 2ybc'
loop_
_symmetry_equiv_pos_site_id
_symmetry_equiv_pos_as_xyz
1 x,y,z
2 -x,1/2+y,1/2-z
3 -x,-y,-z
4 x,1/2-y,1/2+z
_cell_length_a                   14.988(2)
_cell_length_b                   19.924(3)
_cell_length_c                   9.3987(13)
_cell_angle_alpha                90
_cell_angle_beta                 99.427(5)
_cell_angle_gamma                90
_cell_volume                     2768.74
_cell_formula_units_Z            4
loop_
_atom_site_label
_atom_site_type_symbol
_atom_site_fract_x
_atom_site_fract_y
_atom_site_fract_z
F1 F 0.4547(2) 0.75742(16) 0.3543(4)
F2 F 1.3339(2) 0.83467(18) 0.5526(6)
F3 F 1.3287(2) 0.9360(2) 0.5195(5)
F4 F 0.54894(17) 0.68160(14) 0.3618(3)
F5 F 0.4802(2) 0.6946(2) 0.5312(4)
O1 O 0.70754(15) 0.91772(11) 1.0711(2)
N1 N 0.8721(3) 0.86201(16) 1.1241(3)
C1 C 1.1242(2) 0.95055(14) 0.7835(3)
H1 H 1.1111 0.9867 0.8392
C2 C 0.6572(2) 0.88201(18) 0.5444(4)
H2 H 0.6563 0.9271 0.5183
C3 C 0.5912(3) 0.8396(2) 0.4760(4)
H3 H 0.5464 0.8563 0.4046
O2 O 0.8793(3) 0.90623(17) 0.4342(3)
O3 O 0.90705(19) 0.99366(15) 0.5668(3)
O4 O 0.66752(14) 0.96121(11) 0.8503(2)
C4 C 0.5867(2) 0.98857(19) 0.8940(4)
H4 H 0.6028 1.0184 0.9758
H5 H 0.5494 0.9527 0.9218
C5 C 0.5372(3) 1.0259(2) 0.7695(5)
H6 H 0.5730 1.0632 0.7475
H7 H 0.4809 1.0420 0.7928
H8 H 0.5254 0.9966 0.6874
N2 N 0.9700(2) 0.73611(13) 0.8558(3)
O5 O 1.09248(16) 0.83002(11) 1.0933(3)
O6 O 1.05212(17) 0.93692(11) 1.0924(2)
F6 F 1.38345(19) 0.8976(2) 0.7152(5)
C6 C 1.2275(2) 0.89359(16) 0.6581(3)
C7 C 1.2070(2) 0.94688(16) 0.7403(3)
H9 H 1.2496 0.9805 0.7666
C8 C 1.05972(18) 0.90128(13) 0.7455(3)
C9 C 1.1636(2) 0.84464(16) 0.6177(4)
H10 H 1.1768 0.8089 0.5610
C10 C 1.0807(2) 0.84826(15) 0.6605(3)
H11 H 1.0380 0.8149 0.6325
N3 N 0.89361(17) 0.93425(16) 0.5488(3)
C11 C 0.6581(2) 0.74936(17) 0.6164(4)
H12 H 0.6592 0.7041 0.6407
C12 C 0.7235(2) 0.79162(16) 0.6851(3)
H13 H 0.7682 0.7747 0.7563
C13 C 0.7228(2) 0.92557(14) 0.9491(3)
C14 C 0.96771(19) 0.79027(14) 0.8919(3)
C15 C 1.2502(4) 0.8510(4) 1.1375(8)
H14 H 1.2517 0.8162 1.0673
H15 H 1.3036 0.8483 1.2094
H16 H 1.2480 0.8940 1.0909
C16 C 1.3160(3) 0.8906(2) 0.6102(6)
C17 C 0.96934(18) 0.90723(13) 0.7961(3)
H17 H 0.9629 0.9539 0.8255
C18 C 0.88869(18) 0.89113(13) 0.6813(3)
H18 H 0.8912 0.8437 0.6547
C19 C 0.79709(18) 0.90543(14) 0.7284(3)
H19 H 0.7799 0.9515 0.6992
C20 C 0.72423(19) 0.85890(14) 0.6503(3)
C21 C 0.5910(2) 0.77346(18) 0.5120(3)
C22 C 0.5190(3) 0.7278(2) 0.4418(5)
C23 C 0.80127(19) 0.90116(13) 0.8915(3)
C24 C 0.87278(19) 0.87562(13) 0.9832(3)
C25 C 0.96208(18) 0.86199(12) 0.9298(3)
C26 C 1.0415(2) 0.88181(15) 1.0482(3)
C27 C 1.1708(3) 0.8427(3) 1.2054(5)
H20 H 1.1608 0.8829 1.2587
H21 H 1.1795 0.8053 1.2724
H22 H 0.919(2) 0.8516(17) 1.172(4)
H23 H 0.820(3) 0.8700(19) 1.154(4)
loop_
_geom_bond_atom_site_label_1
_geom_bond_atom_site_label_2
_geom_bond_site_symmetry_1
_geom_bond_site_symmetry_2
F1 C22 1_555 1_555
F2 C16 1_555 1_555
F3 C16 1_555 1_555
F4 C22 1_555 1_555
F5 C22 1_555 1_555
O1 C13 1_555 1_555
N1 C24 1_555 1_555
C1 H1 1_555 1_555
C2 H2 1_555 1_555
C3 C2 1_555 1_555
H3 C3 1_555 1_555
O2 N3 1_555 1_555
O3 N3 1_555 1_555
O4 C4 1_555 1_555
C4 H4 1_555 1_555
H5 C4 1_555 1_555
C5 C4 1_555 1_555
H6 C5 1_555 1_555
H7 C5 1_555 1_555
H8 C5 1_555 1_555
N2 C14 1_555 1_555
O5 C26 1_555 1_555
O6 C26 1_555 1_555
F6 C16 1_555 1_555
C6 C7 1_555 1_555
C7 C1 1_555 1_555
H9 C7 1_555 1_555
C8 C1 1_555 1_555
C9 C6 1_555 1_555
H10 C9 1_555 1_555
C10 C8 1_555 1_555
H11 C10 1_555 1_555
N3 C18 1_555 1_555
C11 H12 1_555 1_555
C12 C11 1_555 1_555
H13 C12 1_555 1_555
C13 O4 1_555 1_555
C14 C25 1_555 1_555
C15 H14 1_555 1_555
H15 C15 1_555 1_555
H16 C15 1_555 1_555
C16 C6 1_555 1_555
C17 C8 1_555 1_555
H17 C17 1_555 1_555
C18 C17 1_555 1_555
H18 C18 1_555 1_555
C19 C18 1_555 1_555
H19 C19 1_555 1_555
C20 C2 1_555 1_555
C21 C3 1_555 1_555
C22 C21 1_555 1_555
C23 C13 1_555 1_555
C24 C23 1_555 1_555
C25 C17 1_555 1_555
C26 C25 1_555 1_555
C27 O5 1_555 1_555
H20 C27 1_555 1_555
H21 C27 1_555 1_555
H22 N1 1_555 1_555
H23 N1 1_555 1_555
C9 C10 1_555 1_555
C11 C21 1_555 1_555
C12 C20 1_555 1_555
C15 C27 1_555 1_555
C19 C20 1_555 1_555
C19 C23 1_555 1_555
C24 C25 1_555 1_555

#END
