
#######################################################################
#
#                 Cambridge Crystallographic Data Centre
#                                CCDC 
#
#######################################################################
#
# If this CIF has been generated from an entry in the Cambridge 
# Structural Database, then it will include bibliographic, chemical, 
# crystal, experimental, refinement or atomic coordinate data resulting 
# from the CCDC's data processing and validation procedures.
#
#######################################################################

data_TUHPET
_chemical_formula_moiety         'C25 H22 N4 O5'
_chemical_name_systematic        
"ethyl 2'-amino-1'-benzyl-6'-methyl-2,5',7'-trioxo-1,1',2,5',6',7'-hexahydrospiro[indole-3,4'-pyrrolo[3,4-b]pyridine]-3'-carboxylate"
_symmetry_cell_setting           monoclinic
_symmetry_space_group_name_H-M   'P 21/c'
_symmetry_Int_Tables_number      14
_space_group_name_Hall           '-P 2ybc'
loop_
_symmetry_equiv_pos_site_id
_symmetry_equiv_pos_as_xyz
1 x,y,z
2 -x,1/2+y,1/2-z
3 -x,-y,-z
4 x,1/2-y,1/2+z
_cell_length_a                   11.2746(13)
_cell_length_b                   22.526(3)
_cell_length_c                   8.9915(11)
_cell_angle_alpha                90
_cell_angle_beta                 100.844(4)
_cell_angle_gamma                90
_cell_volume                     2242.81
_cell_formula_units_Z            4
loop_
_atom_site_label
_atom_site_type_symbol
_atom_site_fract_x
_atom_site_fract_y
_atom_site_fract_z
C1 C 0.6640(2) 0.18972(13) 0.2439(3)
H1 H 0.5817 0.1895 0.2450
C2 C 0.7398(3) 0.22657(14) 0.3405(4)
H2 H 0.7084 0.2509 0.4071
C3 C 0.8618(3) 0.22762(14) 0.3394(4)
H3 H 0.9126 0.2530 0.4039
C4 C 0.9075(2) 0.19120(14) 0.2429(4)
H4 H 0.9899 0.1914 0.2423
C5 C 0.8321(2) 0.15416(12) 0.1463(3)
H5 H 0.8641 0.1295 0.0807
C6 C 0.70961(19) 0.15314(10) 0.1456(3)
C7 C 0.6304(2) 0.11563(11) 0.0272(3)
H6 H 0.6111 0.1384 -0.0657
H7 H 0.6762 0.0811 0.0066
C8 C 0.51212(18) 0.04427(10) 0.1550(3)
C9 C 0.40501(18) 0.02465(10) 0.1913(3)
C10 C 0.4050(2) -0.03072(11) 0.2717(3)
C11 C 0.2825(3) -0.09909(17) 0.3753(5)
H8 H 0.3055 -0.0923 0.4834
H9 H 0.3333 -0.1301 0.3465
C12 C 0.1504(3) -0.11638(19) 0.3340(5)
H10 H 0.1015 -0.0853 0.3639
H11 H 0.1372 -0.1525 0.3853
H12 H 0.1288 -0.1223 0.2265
C13 C 0.17313(18) 0.02686(10) 0.0811(3)
C14 C 0.28821(18) 0.06079(10) 0.1621(3)
C15 C 0.24743(19) 0.08019(10) 0.3062(3)
C16 C 0.3113(2) 0.10757(12) 0.4326(3)
H13 H 0.3912 0.1190 0.4371
C17 C 0.2541(3) 0.11760(15) 0.5526(3)
H14 H 0.2954 0.1364 0.6390
C18 C 0.1364(3) 0.10008(17) 0.5462(4)
H15 H 0.0997 0.1072 0.6288
C19 C 0.0715(2) 0.07214(15) 0.4198(3)
H16 H -0.0081 0.0603 0.4159
C20 C 0.1288(2) 0.06256(12) 0.3007(3)
C21 C 0.2152(2) 0.15447(11) -0.0085(3)
C22 C 0.30728(18) 0.11181(10) 0.0635(3)
C23 C 0.41201(18) 0.12591(10) 0.0251(3)
C24 C 0.3946(2) 0.18080(11) -0.0727(3)
C25 C 0.2145(3) 0.24241(13) -0.1808(4)
H17 H 0.2725 0.2632 -0.2269
H18 H 0.1793 0.2693 -0.1186
H19 H 0.1523 0.2264 -0.2582
N1 N 0.51757(15) 0.09540(9) 0.0686(2)
N2 N 0.61763(16) 0.01592(9) 0.2005(2)
H20 H 0.6202 -0.0158 0.2543
H21 H 0.6825 0.0295 0.1756
N3 N 0.08701(16) 0.03294(9) 0.1641(2)
H22 H 0.0143 0.0201 0.1367
N4 N 0.27393(17) 0.19449(9) -0.0882(2)
O1 O 0.49067(16) -0.06341(8) 0.3150(2)
O2 O 0.29429(15) -0.04503(8) 0.2920(2)
O3 O 0.16231(13) 0.00178(7) -0.04144(19)
O4 O 0.10897(15) 0.15675(9) -0.0043(2)
O5 O 0.46618(17) 0.20819(9) -0.1287(2)
loop_
_geom_bond_atom_site_label_1
_geom_bond_atom_site_label_2
_geom_bond_site_symmetry_1
_geom_bond_site_symmetry_2
C1 H1 1_555 1_555
C2 C1 1_555 1_555
H2 C2 1_555 1_555
C3 C2 1_555 1_555
H3 C3 1_555 1_555
C4 C3 1_555 1_555
H4 C4 1_555 1_555
C5 C4 1_555 1_555
H5 C5 1_555 1_555
C6 C1 1_555 1_555
C7 C6 1_555 1_555
H6 C7 1_555 1_555
H7 C7 1_555 1_555
C8 C9 1_555 1_555
C9 C10 1_555 1_555
C10 O1 1_555 1_555
C11 H8 1_555 1_555
H9 C11 1_555 1_555
C12 C11 1_555 1_555
H10 C12 1_555 1_555
H11 C12 1_555 1_555
H12 C12 1_555 1_555
C13 C14 1_555 1_555
C14 C9 1_555 1_555
C15 C14 1_555 1_555
C16 C15 1_555 1_555
H13 C16 1_555 1_555
C17 C16 1_555 1_555
H14 C17 1_555 1_555
C18 C17 1_555 1_555
H15 C18 1_555 1_555
C19 C18 1_555 1_555
H16 C19 1_555 1_555
C20 C15 1_555 1_555
C21 C22 1_555 1_555
C22 C14 1_555 1_555
C23 C22 1_555 1_555
C24 C23 1_555 1_555
C25 H17 1_555 1_555
H18 C25 1_555 1_555
H19 C25 1_555 1_555
N1 C7 1_555 1_555
N2 C8 1_555 1_555
H20 N2 1_555 1_555
H21 N2 1_555 1_555
N3 C13 1_555 1_555
H22 N3 1_555 1_555
N4 C21 1_555 1_555
O2 C10 1_555 1_555
O3 C13 1_555 1_555
O4 C21 1_555 1_555
O5 C24 1_555 1_555
C5 C6 1_555 1_555
C8 N1 1_555 1_555
C11 O2 1_555 1_555
C19 C20 1_555 1_555
C20 N3 1_555 1_555
C23 N1 1_555 1_555
C24 N4 1_555 1_555
C25 N4 1_555 1_555

#END
