
#######################################################################
#
#                 Cambridge Crystallographic Data Centre
#                                CCDC 
#
#######################################################################
#
# If this CIF has been generated from an entry in the Cambridge 
# Structural Database, then it will include bibliographic, chemical, 
# crystal, experimental, refinement or atomic coordinate data resulting 
# from the CCDC's data processing and validation procedures.
#
#######################################################################

data_TUHSOF
_chemical_compound_source        'roots of Aconitum racemulosum FRANCH'
_chemical_name_common            'Racemulosine A chloroform solvate'
_chemical_formula_moiety         'C25 H33 N1 O6,C1 H1 Cl3'
_chemical_name_systematic        
'(2\a,7\a,13S)-6-methoxyhetisane-2,7,13-triol 7,13-diacetate chloroform solvate'
_chemical_properties_biological  
'Source plant used as a folk medicine to treat fever and rheumatism. Racemulosine A shows moderate activity against platelet aggregation induced by PAF'
_symmetry_cell_setting           monoclinic
_symmetry_space_group_name_H-M   'P 21'
_symmetry_Int_Tables_number      4
_space_group_name_Hall           'P 2yb'
loop_
_symmetry_equiv_pos_site_id
_symmetry_equiv_pos_as_xyz
1 x,y,z
2 -x,1/2+y,-z
_cell_length_a                   10.5004(2)
_cell_length_b                   11.5990(2)
_cell_length_c                   11.6645(2)
_cell_angle_alpha                90
_cell_angle_beta                 106.14(1)
_cell_angle_gamma                90
_cell_volume                     1364.67
_exptl_crystal_colour            colorless
_exptl_crystal_description       column
_chemical_melting_point          '286-288 deg.C'
_cell_formula_units_Z            2
_exptl_crystal_recrystallization_method 'petroleum ether/acetone'
loop_
_atom_site_label
_atom_site_type_symbol
_atom_site_fract_x
_atom_site_fract_y
_atom_site_fract_z
N1 N 0.4097(3) 0.0847(3) 0.8862(2)
O1 O 0.5430(3) -0.2030(2) 0.9901(2)
H1 H 0.5642 -0.2568 1.0371
O2 O 0.1985(2) 0.1489(3) 0.7888(2)
O3 O 0.3871(2) 0.2783(2) 0.7270(2)
O4 O 0.2231(3) 0.3528(3) 0.5806(2)
O5 O 0.7653(2) -0.0517(2) 0.8464(2)
O6 O 0.8682(4) 0.0476(4) 1.0109(3)
C1 C 0.4822(4) -0.1918(3) 0.7753(3)
H2 H 0.5769 -0.1992 0.7868
H3 H 0.4379 -0.2370 0.7056
C2 C 0.4483(4) -0.2422(4) 0.8833(3)
H4 H 0.4549 -0.3264 0.8798
C3 C 0.3079(4) -0.2117(4) 0.8831(4)
H5 H 0.2964 -0.2331 0.9600
H6 H 0.2476 -0.2589 0.8233
C4 C 0.2656(4) -0.0864(4) 0.8592(3)
C5 C 0.2964(3) -0.0387(3) 0.7445(3)
H7 H 0.2318 -0.0602 0.6693
C6 C 0.3088(3) 0.0913(3) 0.7691(3)
C7 C 0.3630(3) 0.1619(3) 0.6821(3)
H8 H 0.2973 0.1632 0.6038
C8 C 0.4931(3) 0.1124(3) 0.6690(3)
C9 C 0.4717(3) -0.0156(3) 0.6370(3)
H9 H 0.3932 -0.0247 0.5688
C10 C 0.4437(3) -0.0665(3) 0.7507(3)
C11 C 0.5959(3) -0.0594(4) 0.6033(3)
H10 H 0.6202 -0.1351 0.6378
H11 H 0.5757 -0.0665 0.5172
C12 C 0.7116(3) 0.0230(4) 0.6482(3)
H12 H 0.7937 -0.0111 0.6394
C13 C 0.7257(3) 0.0536(3) 0.7790(3)
H13 H 0.7955 0.1117 0.8056
C14 C 0.5923(3) 0.1024(3) 0.7931(3)
H14 H 0.6059 0.1772 0.8336
C15 C 0.5468(3) 0.1819(4) 0.5798(3)
H15 H 0.4851 0.1771 0.5007
H16 H 0.5562 0.2624 0.6033
C16 C 0.6799(3) 0.1334(4) 0.5778(3)
C17 C 0.7581(4) 0.1813(5) 0.5208(4)
H17 H 0.8385 0.1468 0.5223
H18 H 0.7329 0.2496 0.4788
C18 C 0.1173(4) -0.0821(5) 0.8543(4)
H19 H 0.0693 -0.1372 0.7970
H20 H 0.0833 -0.0062 0.8314
H21 H 0.1071 -0.1003 0.9316
C19 C 0.3472(3) 0.0033(4) 0.9530(3)
H22 H 0.2890 0.0445 0.9904
H23 H 0.4146 -0.0359 1.0145
C20 C 0.5169(3) 0.0206(3) 0.8528(3)
H24 H 0.5758 -0.0193 0.9212
C21 C 0.0815(3) 0.1494(4) 0.6881(4)
H25 H 0.0116 0.1902 0.7089
H26 H 0.0540 0.0715 0.6668
H27 H 0.1012 0.1868 0.6216
C22 C 0.3077(3) 0.3635(3) 0.6729(3)
C23 C 0.3444(5) 0.4729(4) 0.7431(4)
H28 H 0.2870 0.5340 0.7040
H29 H 0.4346 0.4924 0.7483
H30 H 0.3349 0.4620 0.8219
C24 C 0.8361(3) -0.0434(4) 0.9619(3)
C25 C 0.8676(4) -0.1565(5) 1.0167(4)
H31 H 0.9179 -0.1475 1.0986
H32 H 0.9186 -0.1994 0.9747
H33 H 0.7869 -0.1972 1.0130
C26 C 1.1124(7) 0.0490(7) 1.2633(6)
H34 H 1.0462 0.0590 1.1860
Cl1 Cl 1.0411(3) -0.0242(3) 1.3563(2)
Cl2 Cl 1.1594(4) 0.1843(3) 1.3248(4)
Cl3 Cl 1.2402(5) -0.0407(8) 1.2434(4)
Cl4? Cl 1.162(4) -0.086(2) 1.295(3)
Cl5? Cl 1.240(2) 0.082(3) 1.230(2)
loop_
_geom_bond_atom_site_label_1
_geom_bond_atom_site_label_2
_geom_bond_site_symmetry_1
_geom_bond_site_symmetry_2
N1 C6 1_555 1_555
O1 H1 1_555 1_555
O2 C6 1_555 1_555
O3 C7 1_555 1_555
O4 C22 1_555 1_555
O5 C13 1_555 1_555
O6 C24 1_555 1_555
C1 H2 1_555 1_555
H3 C1 1_555 1_555
C2 O1 1_555 1_555
H4 C2 1_555 1_555
C3 C2 1_555 1_555
H5 C3 1_555 1_555
H6 C3 1_555 1_555
C4 C3 1_555 1_555
C5 C4 1_555 1_555
H7 C5 1_555 1_555
C6 C5 1_555 1_555
C7 C6 1_555 1_555
H8 C7 1_555 1_555
C8 C7 1_555 1_555
C9 C8 1_555 1_555
H9 C9 1_555 1_555
C10 C1 1_555 1_555
C11 C9 1_555 1_555
H10 C11 1_555 1_555
H11 C11 1_555 1_555
C12 C11 1_555 1_555
H12 C12 1_555 1_555
C13 C12 1_555 1_555
H13 C13 1_555 1_555
C14 C8 1_555 1_555
H14 C14 1_555 1_555
C15 C8 1_555 1_555
H15 C15 1_555 1_555
H16 C15 1_555 1_555
C16 C12 1_555 1_555
C17 C16 1_555 1_555
H17 C17 1_555 1_555
H18 C17 1_555 1_555
C18 C4 1_555 1_555
H19 C18 1_555 1_555
H20 C18 1_555 1_555
H21 C18 1_555 1_555
C19 N1 1_555 1_555
H22 C19 1_555 1_555
H23 C19 1_555 1_555
C20 N1 1_555 1_555
H24 C20 1_555 1_555
C21 O2 1_555 1_555
H25 C21 1_555 1_555
H26 C21 1_555 1_555
H27 C21 1_555 1_555
C22 O3 1_555 1_555
C23 C22 1_555 1_555
H28 C23 1_555 1_555
H29 C23 1_555 1_555
H30 C23 1_555 1_555
C24 O5 1_555 1_555
C25 C24 1_555 1_555
H31 C25 1_555 1_555
H32 C25 1_555 1_555
H33 C25 1_555 1_555
C26 H34 1_555 1_555
Cl1 C26 1_555 1_555
Cl2 C26 1_555 1_555
Cl3 C26 1_555 1_555
C1 C2 1_555 1_555
C4 C19 1_555 1_555
C5 C10 1_555 1_555
C9 C10 1_555 1_555
C10 C20 1_555 1_555
C13 C14 1_555 1_555
C14 C20 1_555 1_555
C15 C16 1_555 1_555

#END
