
#######################################################################
#
#                 Cambridge Crystallographic Data Centre
#                                CCDC 
#
#######################################################################
#
# If this CIF has been generated from an entry in the Cambridge 
# Structural Database, then it will include bibliographic, chemical, 
# crystal, experimental, refinement or atomic coordinate data resulting 
# from the CCDC's data processing and validation procedures.
#
#######################################################################

data_TUHZAZ
_chemical_formula_moiety         'C30 H31 N1 O2 S1'
_chemical_name_systematic        
N-(2-(3-cyclohexylidene-2,2-diphenylcyclopropylidene)ethyl)-4-methylbenzenesulfonamide
_symmetry_cell_setting           monoclinic
_symmetry_space_group_name_H-M   'P 21/n'
_symmetry_Int_Tables_number      14
_space_group_name_Hall           '-P 2yn'
loop_
_symmetry_equiv_pos_site_id
_symmetry_equiv_pos_as_xyz
1 x,y,z
2 1/2-x,1/2+y,1/2-z
3 -x,-y,-z
4 1/2+x,1/2-y,1/2+z
_cell_length_a                   8.5768(9)
_cell_length_b                   10.2978(11)
_cell_length_c                   28.986(3)
_cell_angle_alpha                90
_cell_angle_beta                 90.183(2)
_cell_angle_gamma                90
_cell_volume                     2560.09
_exptl_crystal_colour            colorless
_exptl_crystal_description       prismatic
_cell_formula_units_Z            4
loop_
_atom_site_label
_atom_site_type_symbol
_atom_site_fract_x
_atom_site_fract_y
_atom_site_fract_z
S1 S 0.07314(6) 0.70863(4) 0.00142(2)
N1 N 0.2079(2) 0.61436(16) 0.02100(6)
O1 O 0.14561(19) 0.82301(13) -0.01544(5)
O2 O -0.01687(18) 0.63113(13) -0.02954(4)
C1 C 0.3206(2) 0.66090(19) 0.05514(7)
H1 H 0.3402 0.7524 0.0497
H2 H 0.4181 0.6149 0.0509
C2 C 0.2685(2) 0.64364(17) 0.10387(6)
H3 H 0.2222 0.7134 0.1189
C3 C 0.28579(19) 0.53360(17) 0.12622(6)
C4 C 0.23881(19) 0.45811(16) 0.16860(6)
C5 C 0.32482(19) 0.40135(17) 0.12811(6)
C6 C 0.38426(19) 0.29452(17) 0.10985(6)
C7 C 0.3703(3) 0.16579(19) 0.13312(7)
H4 H 0.3065 0.1746 0.1605
H5 H 0.4729 0.1363 0.1426
C8 C 0.2980(3) 0.0665(2) 0.10125(9)
H6 H 0.1897 0.0890 0.0958
H7 H 0.3008 -0.0181 0.1159
C9 C 0.3824(3) 0.0594(2) 0.05551(9)
H8 H 0.4876 0.0277 0.0605
H9 H 0.3291 -0.0013 0.0353
C10 C 0.3888(3) 0.1900(2) 0.03284(8)
H10 H 0.2839 0.2170 0.0247
H11 H 0.4486 0.1835 0.0046
C11 C 0.4620(2) 0.2919(2) 0.06374(7)
H12 H 0.5720 0.2731 0.0677
H13 H 0.4526 0.3765 0.0493
C12 C 0.06743(19) 0.43112(17) 0.17385(6)
C13 C -0.0115(2) 0.3541(2) 0.14275(7)
H14 H 0.0421 0.3169 0.1183
C14 C -0.1690(2) 0.3317(3) 0.14747(9)
H15 H -0.2207 0.2789 0.1264
C15 C -0.2491(3) 0.3864(3) 0.18284(11)
H16 H -0.3555 0.3714 0.1859
C16 C -0.1729(3) 0.4635(3) 0.21390(9)
H17 H -0.2277 0.5010 0.2381
C17 C -0.0153(2) 0.4861(2) 0.20954(7)
H18 H 0.0356 0.5388 0.2308
C18 C 0.32800(19) 0.47927(17) 0.21255(6)
C19 C 0.3940(2) 0.59687(19) 0.22303(7)
H19 H 0.3863 0.6648 0.2020
C20 C 0.4717(3) 0.6163(2) 0.26423(8)
H20 H 0.5155 0.6969 0.2708
C21 C 0.4842(3) 0.5179(3) 0.29519(7)
H21 H 0.5349 0.5313 0.3232
C22 C 0.4221(3) 0.3993(3) 0.28507(8)
H22 H 0.4326 0.3313 0.3060
C23 C 0.3439(2) 0.3797(2) 0.24400(7)
H23 H 0.3015 0.2986 0.2375
C24 C -0.0492(2) 0.75320(17) 0.04726(6)
C25 C -0.0746(2) 0.88191(17) 0.05736(7)
H24 H -0.0245 0.9465 0.0406
C26 C -0.1745(2) 0.9141(2) 0.09236(7)
H25 H -0.1927 1.0013 0.0988
C27 C -0.2484(2) 0.8208(2) 0.11830(7)
C28 C -0.2217(3) 0.6922(2) 0.10741(8)
H26 H -0.2714 0.6276 0.1243
C29 C -0.1238(3) 0.65781(19) 0.07241(7)
H27 H -0.1075 0.5707 0.0655
C30 C -0.3544(3) 0.8570(3) 0.15736(10)
H28 H -0.4606 0.8400 0.1487
H29 H -0.3423 0.9476 0.1643
H30 H -0.3281 0.8065 0.1841
H31 H 0.173(2) 0.5443(16) 0.0263(7)
loop_
_geom_bond_atom_site_label_1
_geom_bond_atom_site_label_2
_geom_bond_site_symmetry_1
_geom_bond_site_symmetry_2
S1 N1 1_555 1_555
N1 C1 1_555 1_555
O1 S1 1_555 1_555
O2 S1 1_555 1_555
C1 H1 1_555 1_555
H2 C1 1_555 1_555
C2 C1 1_555 1_555
H3 C2 1_555 1_555
C3 C2 1_555 1_555
C4 C3 1_555 1_555
C5 C3 1_555 1_555
C6 C5 1_555 1_555
C7 C6 1_555 1_555
H4 C7 1_555 1_555
H5 C7 1_555 1_555
C8 C7 1_555 1_555
H6 C8 1_555 1_555
H7 C8 1_555 1_555
C9 C8 1_555 1_555
H8 C9 1_555 1_555
H9 C9 1_555 1_555
C10 C9 1_555 1_555
H10 C10 1_555 1_555
H11 C10 1_555 1_555
C11 C6 1_555 1_555
H12 C11 1_555 1_555
H13 C11 1_555 1_555
C12 C4 1_555 1_555
C13 C12 1_555 1_555
H14 C13 1_555 1_555
C14 C13 1_555 1_555
H15 C14 1_555 1_555
C15 C14 1_555 1_555
H16 C15 1_555 1_555
C16 C15 1_555 1_555
H17 C16 1_555 1_555
C17 C12 1_555 1_555
H18 C17 1_555 1_555
C18 C4 1_555 1_555
C19 C18 1_555 1_555
H19 C19 1_555 1_555
C20 C19 1_555 1_555
H20 C20 1_555 1_555
C21 C20 1_555 1_555
H21 C21 1_555 1_555
C22 C21 1_555 1_555
H22 C22 1_555 1_555
C23 C18 1_555 1_555
H23 C23 1_555 1_555
C24 S1 1_555 1_555
C25 C24 1_555 1_555
H24 C25 1_555 1_555
C26 C25 1_555 1_555
H25 C26 1_555 1_555
C27 C26 1_555 1_555
C28 C27 1_555 1_555
H26 C28 1_555 1_555
C29 C24 1_555 1_555
H27 C29 1_555 1_555
C30 C27 1_555 1_555
H28 C30 1_555 1_555
H29 C30 1_555 1_555
H30 C30 1_555 1_555
H31 N1 1_555 1_555
C4 C5 1_555 1_555
C10 C11 1_555 1_555
C16 C17 1_555 1_555
C22 C23 1_555 1_555
C28 C29 1_555 1_555

#END
