
#######################################################################
#
#                 Cambridge Crystallographic Data Centre
#                                CCDC 
#
#######################################################################
#
# If this CIF has been generated from an entry in the Cambridge 
# Structural Database, then it will include bibliographic, chemical, 
# crystal, experimental, refinement or atomic coordinate data resulting 
# from the CCDC's data processing and validation procedures.
#
#######################################################################

data_TUKVUQ
_chemical_formula_moiety         'C18 H17 N2 O3 P1 S1'
_chemical_name_systematic        
O-(3,4-Dimethylphenyl)-phenylthiophosphonylaminoisomaleicamide
_symmetry_cell_setting           monoclinic
_symmetry_space_group_name_H-M   'P 21/c'
_symmetry_Int_Tables_number      14
_space_group_name_Hall           '-P 2ybc'
loop_
_symmetry_equiv_pos_site_id
_symmetry_equiv_pos_as_xyz
1 x,y,z
2 -x,1/2+y,1/2-z
3 -x,-y,-z
4 x,1/2-y,1/2+z
_cell_length_a                   10.726(3)
_cell_length_b                   10.248(2)
_cell_length_c                   17.454(5)
_cell_angle_alpha                90
_cell_angle_beta                 104.01(2)
_cell_angle_gamma                90
_cell_volume                     1861.47
_cell_formula_units_Z            4
loop_
_atom_site_label
_atom_site_type_symbol
_atom_site_fract_x
_atom_site_fract_y
_atom_site_fract_z
P1 P 0.7442(2) 0.0825(2) 0.44175(9)
S1 S 0.8222(2) 0.0205(2) 0.5460(1)
O1 O 0.6542(4) 0.2075(4) 0.4330(3)
O2 O 1.0032(4) 0.0998(5) 0.2904(3)
O3 O 1.1451(6) 0.0510(8) 0.2186(4)
N1 N 0.8600(5) 0.1213(6) 0.3969(3)
N2 N 0.8223(5) 0.1826(6) 0.3239(3)
C1 C 0.8942(6) 0.1735(7) 0.2771(4)
C2 C 0.8767(7) 0.2368(8) 0.2014(4)
C3 C 0.9721(7) 0.2020(8) 0.1696(4)
C4 C 1.0527(7) 0.1120(9) 0.2239(5)
C5 C 0.6372(6) -0.0260(7) 0.3783(4)
C6 C 0.5099(7) 0.0017(8) 0.3454(5)
C7 C 0.4339(7) -0.0883(9) 0.2937(5)
C8 C 0.4831(8) -0.2041(9) 0.2771(5)
C9 C 0.6089(8) -0.235(1) 0.3113(6)
C10 C 0.6870(7) -0.1457(8) 0.3618(5)
C11 C 0.6796(7) 0.3185(7) 0.4828(5)
C12 C 0.7661(9) 0.4084(8) 0.4705(6)
C13 C 0.7783(9) 0.5242(8) 0.5254(7)
C14 C 0.704(1) 0.526(1) 0.5784(6)
C15 C 0.621(1) 0.442(1) 0.5885(8)
C16 C 0.6083(9) 0.3314(8) 0.5380(5)
C17 C 0.874(1) 0.622(1) 0.513(1)
C18 C 0.735(2) 0.658(1) 0.6327(9)
loop_
_geom_bond_atom_site_label_1
_geom_bond_atom_site_label_2
_geom_bond_site_symmetry_1
_geom_bond_site_symmetry_2
P1 S1 1_555 1_555
O1 P1 1_555 1_555
O2 C1 1_555 1_555
O3 C4 1_555 1_555
N1 P1 1_555 1_555
N2 N1 1_555 1_555
C1 N2 1_555 1_555
C2 C1 1_555 1_555
C3 C2 1_555 1_555
C4 O2 1_555 1_555
C5 P1 1_555 1_555
C6 C5 1_555 1_555
C7 C6 1_555 1_555
C8 C7 1_555 1_555
C9 C8 1_555 1_555
C10 C5 1_555 1_555
C11 O1 1_555 1_555
C12 C11 1_555 1_555
C13 C12 1_555 1_555
C14 C13 1_555 1_555
C15 C14 1_555 1_555
C16 C11 1_555 1_555
C17 C13 1_555 1_555
C18 C14 1_555 1_555
C3 C4 1_555 1_555
C9 C10 1_555 1_555
C15 C16 1_555 1_555

#END
