
#######################################################################
#
#                 Cambridge Crystallographic Data Centre
#                                CCDC 
#
#######################################################################
#
# If this CIF has been generated from an entry in the Cambridge 
# Structural Database, then it will include bibliographic, chemical, 
# crystal, experimental, refinement or atomic coordinate data resulting 
# from the CCDC's data processing and validation procedures.
#
#######################################################################

data_TUKYEF
_chemical_formula_moiety         'C21 H23 N1 O4'
_chemical_name_systematic        
N-(4-ethoxyphenyl)-3-(2,3,4,5-tetrahydro-1,6-benzodioxocin-8-yl)acrylamide
_symmetry_cell_setting           monoclinic
_symmetry_space_group_name_H-M   'C 2/c'
_symmetry_Int_Tables_number      15
_space_group_name_Hall           '-C 2yn'
loop_
_symmetry_equiv_pos_site_id
_symmetry_equiv_pos_as_xyz
1 x,y,z
2 -x,y,1/2-z
3 1/2+x,1/2+y,z
4 1/2-x,1/2+y,1/2-z
5 -x,-y,-z
6 x,-y,1/2+z
7 1/2-x,1/2-y,-z
8 1/2+x,1/2-y,1/2+z
_cell_length_a                   26.838(5)
_cell_length_b                   9.9597(16)
_cell_length_c                   18.698(3)
_cell_angle_alpha                90
_cell_angle_beta                 133.339(4)
_cell_angle_gamma                90
_cell_volume                     3635.03
_cell_formula_units_Z            8
loop_
_atom_site_label
_atom_site_type_symbol
_atom_site_fract_x
_atom_site_fract_y
_atom_site_fract_z
O1 O 1.04315(9) 0.39860(16) 1.19096(13)
O2 O 0.39287(10) 0.28583(18) 0.19626(13)
O3 O 0.41672(10) 0.55668(18) 0.26765(14)
O4 O 0.75238(9) 0.51584(18) 0.77374(13)
N1 N 0.78951(11) 0.3011(2) 0.81461(15)
H1 H 0.7787 0.2186 0.7963
C1 C 0.85443(15) 0.3279(2) 0.9106(2)
C2 C 0.98282(15) 0.3738(2) 1.0972(2)
C3 C 0.68451(14) 0.3454(3) 0.6520(2)
H2 H 0.6829 0.2545 0.6391
C4 C 0.92453(15) 0.3897(3) 1.0796(2)
H3 H 0.9278 0.4163 1.1304
C5 C 0.50185(15) 0.2291(3) 0.3480(2)
H4 H 0.4953 0.1429 0.3236
C6 C 0.63350(14) 0.4226(3) 0.5813(2)
H5 H 0.6370 0.5125 0.5977
C7 C 0.45096(14) 0.3245(3) 0.28850(19)
C8 C 0.52218(15) 0.4826(3) 0.4193(2)
H6 H 0.5287 0.5691 0.4433
C9 C 0.56159(14) 0.2590(3) 0.44200(19)
H7 H 0.5952 0.1936 0.4801
C10 C 0.57234(14) 0.3864(3) 0.48092(19)
C11 C 1.10528(14) 0.3883(3) 1.2116(2)
H8 H 1.1027 0.4448 1.1669
H9 H 1.1124 0.2962 1.2034
C12 C 0.91258(17) 0.3130(3) 0.9287(2)
H10 H 0.9091 0.2868 0.8777
C13 C 0.97717(15) 0.3358(3) 1.0215(2)
H11 H 1.0162 0.3253 1.0320
C14 C 0.74392(14) 0.3962(3) 0.7506(2)
C15 C 0.46297(14) 0.4540(3) 0.3237(2)
C16 C 1.16323(14) 0.4330(3) 1.3159(2)
H12 H 1.1548 0.5229 1.3238
H13 H 1.2053 0.4307 1.3308
H14 H 1.1666 0.3740 1.3597
C17 C 0.86088(15) 0.3666(3) 0.9871(2)
H15 H 0.8218 0.3775 0.9764
C18 C 0.32696(14) 0.3351(3) 0.1552(2)
H16 H 0.3326 0.3851 0.2049
H17 H 0.2968 0.2598 0.1349
C19 C 0.29548(15) 0.4241(3) 0.0684(2)
H18 H 0.2463 0.4257 0.0273
H19 H 0.3038 0.3846 0.0299
C20 C 0.39770(15) 0.5811(3) 0.1755(2)
H20 H 0.4203 0.5167 0.1668
H21 H 0.4120 0.6705 0.1754
C21 C 0.32152(15) 0.5681(3) 0.0931(2)
H22 H 0.3076 0.6099 0.0348
H23 H 0.2999 0.6171 0.1105
loop_
_geom_bond_atom_site_label_1
_geom_bond_atom_site_label_2
_geom_bond_site_symmetry_1
_geom_bond_site_symmetry_2
O1 C2 1_555 1_555
O2 C7 1_555 1_555
O3 C15 1_555 1_555
O4 C14 1_555 1_555
N1 H1 1_555 1_555
C1 N1 1_555 1_555
C2 C4 1_555 1_555
C3 H2 1_555 1_555
C4 H3 1_555 1_555
C5 H4 1_555 1_555
C6 C3 1_555 1_555
H5 C6 1_555 1_555
C7 C5 1_555 1_555
C8 H6 1_555 1_555
C9 C5 1_555 1_555
H7 C9 1_555 1_555
C10 C6 1_555 1_555
C11 O1 1_555 1_555
H8 C11 1_555 1_555
H9 C11 1_555 1_555
C12 C1 1_555 1_555
H10 C12 1_555 1_555
C13 C2 1_555 1_555
H11 C13 1_555 1_555
C14 N1 1_555 1_555
C15 C7 1_555 1_555
C16 C11 1_555 1_555
H12 C16 1_555 1_555
H13 C16 1_555 1_555
H14 C16 1_555 1_555
C17 C1 1_555 1_555
H15 C17 1_555 1_555
C18 O2 1_555 1_555
H16 C18 1_555 1_555
H17 C18 1_555 1_555
C19 C18 1_555 1_555
H18 C19 1_555 1_555
H19 C19 1_555 1_555
C20 O3 1_555 1_555
H20 C20 1_555 1_555
H21 C20 1_555 1_555
C21 C19 1_555 1_555
H22 C21 1_555 1_555
H23 C21 1_555 1_555
C3 C14 1_555 1_555
C4 C17 1_555 1_555
C8 C10 1_555 1_555
C8 C15 1_555 1_555
C9 C10 1_555 1_555
C12 C13 1_555 1_555
C20 C21 1_555 1_555

#END
