
#######################################################################
#
#                 Cambridge Crystallographic Data Centre
#                                CCDC 
#
#######################################################################
#
# If this CIF has been generated from an entry in the Cambridge 
# Structural Database, then it will include bibliographic, chemical, 
# crystal, experimental, refinement or atomic coordinate data resulting 
# from the CCDC's data processing and validation procedures.
#
#######################################################################

data_TUNWOQ
_chemical_formula_moiety         
'C80 H104 O12,C8 H18 N2 2+,2(F6 P1 1-),C2 H3 N1,C4 H10 O1'
_chemical_name_systematic        
'6,13,19,26,32,39,45,52-Octa-n-butoxy-3,16,29,42-tetraoxanonacyclo[46.4.0.0^5,10^.0^9,14^.0^18,23^.0^22,27^.0^31,36^.0^35,40^.0^44,49^]dopentaconta-1(52),5,7,9,11,13,18,20,22,24,26,31,33,35,37,39,44,46,48,50-icosaene 1,4-dimethyl-1,4-diazoniabicyclo[2.2.2]octane bis(hexafluorophosphate) acetonitrile diethyl ether solvate'
_symmetry_cell_setting           monoclinic
_symmetry_space_group_name_H-M   'P 2/c'
_symmetry_Int_Tables_number      13
_space_group_name_Hall           '-P 2yc'
loop_
_symmetry_equiv_pos_site_id
_symmetry_equiv_pos_as_xyz
1 x,y,z
2 -x,y,1/2-z
3 -x,-y,-z
4 x,-y,1/2+z
_cell_length_a                   15.9874(6)
_cell_length_b                   18.0758(4)
_cell_length_c                   18.1871(6)
_cell_angle_alpha                90
_cell_angle_beta                 107.850(4)
_cell_angle_gamma                90
_cell_volume                     5002.8
_exptl_crystal_colour            colorless
_exptl_crystal_description       block
_cell_formula_units_Z            2
_exptl_crystal_recrystallization_method 
'diethyl ether into 1:1 DCM/acetonitrile'
loop_
_atom_site_label
_atom_site_type_symbol
_atom_site_fract_x
_atom_site_fract_y
_atom_site_fract_z
O1 O 0.89351(17) 0.25277(11) -0.05041(12)
O2 O 1.09762(18) 0.18098(15) -0.04170(15)
O3 O 1.0000 0.00309(15) 0.2500
O4 O 0.7826(3) -0.03160(17) 0.1323(3)
O5 O 0.71353(18) 0.38147(15) -0.09206(19)
O6 O 1.0000 0.48495(14) 0.2500
O7 O 1.17694(16) 0.47262(14) 0.18148(14)
C1 C 1.0571(2) 0.05173(16) 0.09991(17)
H1 H 1.0884 0.0228 0.1416
C2 C 1.1027(2) 0.09477(18) 0.06323(18)
H2 H 1.1638 0.0954 0.0806
C3 C 1.0565(2) 0.13823(16) -0.00119(17)
C4 C 0.9660(2) 0.13928(15) -0.02592(16)
C5 C 0.8268(3) 0.09675(19) -0.0074(2)
H3 H 0.7956 0.1260 -0.0487
C6 C 0.7812(3) 0.0561(2) 0.0314(3)
H4 H 0.7202 0.0583 0.0165
C7 C 0.8274(3) 0.01072(19) 0.0941(3)
C8 C 0.9170(3) 0.00614(15) 0.11598(19)
C9 C 0.9651(2) 0.04982(15) 0.07683(16)
C10 C 0.9189(2) 0.09562(15) 0.01326(16)
C11 C 0.9638(3) -0.04191(16) 0.18235(18)
H5 H 0.9233 -0.0778 0.1920
H6 H 1.0106 -0.0686 0.1703
C12 C 0.7066(6) -0.0120(4) 0.1400(7)
H7 H 0.6650 -0.0062 0.0888
H8 H 0.7137 0.0361 0.1648
C13 C 0.6688(8) -0.0616(7) 0.1834(9)
H9 H 0.6141 -0.0395 0.1848
H10 H 0.6535 -0.1067 0.1533
C14 C 0.7067(9) -0.0790(12) 0.2457(6)
H11 H 0.7221 -0.0345 0.2768
H12 H 0.7611 -0.1024 0.2452
C15 C 0.6556(10) -0.1352(14) 0.2884(8)
H13 H 0.6934 -0.1465 0.3393
H14 H 0.6407 -0.1800 0.2589
H15 H 0.6030 -0.1119 0.2919
C16 C 1.1920(3) 0.1830(2) -0.0185(2)
H16 H 1.2154 0.1331 -0.0115
H17 H 1.2145 0.2092 0.0302
C17 C 1.2196(4) 0.2219(3) -0.0803(4)
H18 H 1.2833 0.2244 -0.0633
H19 H 1.2023 0.1912 -0.1262
C18 C 1.1866(4) 0.2960(3) -0.1027(4)
H20 H 1.2042 0.3281 -0.0578
H21 H 1.1229 0.2947 -0.1210
C19 C 1.2201(4) 0.3284(3) -0.1656(4)
H22 H 1.1962 0.3771 -0.1787
H23 H 1.2021 0.2973 -0.2106
H24 H 1.2831 0.3312 -0.1474
C20 C 0.9188(2) 0.19168(17) -0.08864(17)
H25 H 0.9572 0.2079 -0.1177
H26 H 0.8675 0.1681 -0.1238
C21 C 0.8688(2) 0.31817(18) -0.09675(19)
H27 H 0.8116 0.3119 -0.1349
H28 H 0.9115 0.3293 -0.1232
C22 C 0.8661(2) 0.37908(16) -0.04098(19)
C23 C 0.7873(2) 0.40649(17) -0.0378(2)
C24 C 0.7851(2) 0.45806(18) 0.0198(2)
H29 H 0.7314 0.4768 0.0213
C25 C 0.8607(2) 0.48057(16) 0.0730(2)
H30 H 0.8576 0.5135 0.1114
C26 C 1.0238(2) 0.47841(15) 0.12822(18)
C27 C 1.1032(2) 0.44975(17) 0.12530(19)
C28 C 1.1051(2) 0.39876(17) 0.06639(18)
H31 H 1.1586 0.3803 0.0644
C29 C 1.0295(2) 0.37670(16) 0.01293(17)
H32 H 1.0324 0.3430 -0.0249
C30 C 0.9459(2) 0.40368(15) 0.01312(17)
C31 C 0.9444(2) 0.45524(15) 0.07182(19)
C32 C 1.0214(2) 0.52894(15) 0.1926(2)
H33 H 1.0781 0.5525 0.2145
H34 H 0.9774 0.5671 0.1736
C33 C 1.2616(2) 0.4478(2) 0.1777(2)
H35 H 1.2678 0.4593 0.1276
H36 H 1.2669 0.3946 0.1853
C34 C 1.3318(3) 0.4869(3) 0.2406(3)
H37 H 1.3887 0.4748 0.2349
H38 H 1.3235 0.5399 0.2331
C35 C 1.3334(3) 0.4683(3) 0.3215(3)
H39 H 1.3391 0.4152 0.3286
H40 H 1.2779 0.4829 0.3284
C36 C 1.4073(4) 0.5056(4) 0.3826(4)
H41 H 1.4045 0.4922 0.4329
H42 H 1.4018 0.5583 0.3764
H43 H 1.4626 0.4901 0.3775
C37 C 0.6287(3) 0.3950(3) -0.0830(4)
H44 H 0.5839 0.3879 -0.1323
H45 H 0.6258 0.4460 -0.0675
C38 C 0.6106(5) 0.3471(4) -0.0266(5)
H46 H 0.5532 0.3593 -0.0223
H47 H 0.6537 0.3562 0.0232
C39 C 0.6122(7) 0.2625(4) -0.0467(7)
H48 H 0.6629 0.2518 -0.0636
H49 H 0.6161 0.2328 -0.0014
C40 C 0.5302(14) 0.2447(10) -0.1091(12)
H50 H 0.5297 0.1930 -0.1215
H51 H 0.5275 0.2735 -0.1542
H52 H 0.4804 0.2560 -0.0922
O1A O 1.10649(17) 0.25277(11) 0.55041(12)
O2A O 0.90238(18) 0.18098(15) 0.54170(15)
O4A O 1.2174(3) -0.03160(17) 0.3677(3)
O5A O 1.28647(18) 0.38147(15) 0.59206(19)
O7A O 0.82306(16) 0.47262(14) 0.31852(14)
C1A C 0.9429(2) 0.05173(16) 0.40009(17)
H1A H 0.9116 0.0228 0.3584
C2A C 0.8973(2) 0.09477(18) 0.43677(18)
H2A H 0.8362 0.0954 0.4194
C3A C 0.9435(2) 0.13823(16) 0.50119(17)
C4A C 1.0340(2) 0.13928(15) 0.52592(16)
C5A C 1.1732(3) 0.09675(19) 0.5074(2)
H3A H 1.2044 0.1260 0.5487
C6A C 1.2188(3) 0.0561(2) 0.4686(3)
H4A H 1.2798 0.0583 0.4835
C7A C 1.1726(3) 0.01072(19) 0.4059(3)
C8A C 1.0830(3) 0.00614(15) 0.38402(19)
C9A C 1.0349(2) 0.04982(15) 0.42317(16)
C10A C 1.0811(2) 0.09562(15) 0.48674(16)
C11A C 1.0362(3) -0.04191(16) 0.31765(18)
H5A H 1.0767 -0.0778 0.3080
H6A H 0.9894 -0.0686 0.3297
C12A C 1.2934(6) -0.0120(4) 0.3600(7)
H7A H 1.3350 -0.0062 0.4112
H8A H 1.2863 0.0361 0.3352
C13A C 1.3312(8) -0.0616(7) 0.3166(9)
H9A H 1.3859 -0.0395 0.3152
H10A H 1.3465 -0.1067 0.3467
C14A C 1.2933(9) -0.0790(12) 0.2543(6)
H11A H 1.2779 -0.0345 0.2232
H12A H 1.2389 -0.1024 0.2548
C15A C 1.3444(10) -0.1352(14) 0.2116(8)
H13A H 1.3066 -0.1465 0.1607
H14A H 1.3593 -0.1800 0.2411
H15A H 1.3970 -0.1119 0.2081
C16A C 0.8080(3) 0.1830(2) 0.5185(2)
H16A H 0.7846 0.1331 0.5115
H17A H 0.7855 0.2092 0.4698
C17A C 0.7804(4) 0.2219(3) 0.5803(4)
H18A H 0.7167 0.2244 0.5633
H19A H 0.7977 0.1912 0.6262
C18A C 0.8134(4) 0.2960(3) 0.6027(4)
H20A H 0.7958 0.3281 0.5578
H21A H 0.8771 0.2947 0.6210
C19A C 0.7799(4) 0.3284(3) 0.6656(4)
H22A H 0.8038 0.3771 0.6787
H23A H 0.7979 0.2973 0.7106
H24A H 0.7169 0.3312 0.6474
C20A C 1.0812(2) 0.19168(17) 0.58864(17)
H25A H 1.0428 0.2079 0.6177
H26A H 1.1325 0.1681 0.6238
C21A C 1.1312(2) 0.31817(18) 0.59675(19)
H27A H 1.1884 0.3119 0.6349
H28A H 1.0885 0.3293 0.6232
C22A C 1.1339(2) 0.37908(16) 0.54098(19)
C23A C 1.2127(2) 0.40649(17) 0.5378(2)
C24A C 1.2149(2) 0.45806(18) 0.4802(2)
H29A H 1.2686 0.4768 0.4787
C25A C 1.1393(2) 0.48057(16) 0.4270(2)
H30A H 1.1424 0.5135 0.3886
C26A C 0.9762(2) 0.47841(15) 0.37178(18)
C27A C 0.8968(2) 0.44975(17) 0.37470(19)
C28A C 0.8949(2) 0.39876(17) 0.43361(18)
H31A H 0.8414 0.3803 0.4356
C29A C 0.9705(2) 0.37670(16) 0.48707(17)
H32A H 0.9676 0.3430 0.5249
C30A C 1.0541(2) 0.40368(15) 0.48688(17)
C31A C 1.0556(2) 0.45524(15) 0.42818(19)
C32A C 0.9786(2) 0.52894(15) 0.3074(2)
H33A H 0.9219 0.5525 0.2855
H34A H 1.0226 0.5671 0.3264
C33A C 0.7384(2) 0.4478(2) 0.3223(2)
H35A H 0.7322 0.4593 0.3724
H36A H 0.7331 0.3946 0.3147
C34A C 0.6682(3) 0.4869(3) 0.2594(3)
H37A H 0.6113 0.4748 0.2651
H38A H 0.6765 0.5399 0.2669
C35A C 0.6666(3) 0.4683(3) 0.1785(3)
H39A H 0.6609 0.4152 0.1714
H40A H 0.7221 0.4829 0.1716
C36A C 0.5927(4) 0.5056(4) 0.1174(4)
H41A H 0.5955 0.4922 0.0671
H42A H 0.5982 0.5583 0.1236
H43A H 0.5374 0.4901 0.1225
C37A C 1.3713(3) 0.3950(3) 0.5830(4)
H44A H 1.4161 0.3879 0.6323
H45A H 1.3742 0.4460 0.5675
C38A C 1.3894(5) 0.3471(4) 0.5266(5)
H46A H 1.4468 0.3593 0.5223
H47A H 1.3463 0.3562 0.4768
C39A C 1.3878(7) 0.2625(4) 0.5467(7)
H48A H 1.3371 0.2518 0.5636
H49A H 1.3839 0.2328 0.5014
C40A C 1.4698(14) 0.2447(10) 0.6091(12)
H50A H 1.4703 0.1930 0.6215
H51A H 1.4725 0.2735 0.6542
H52A H 1.5196 0.2560 0.5922
N1 N 0.9327(2) 0.25572(14) 0.19033(17)
C41 C 0.9533(4) 0.17866(18) 0.2208(2)
H53 H 0.9506 0.1448 0.1787
H54 H 0.9109 0.1627 0.2459
C42 C 1.0111(3) 0.2856(2) 0.1720(2)
H55 H 0.9951 0.3300 0.1408
H56 H 1.0326 0.2494 0.1428
C43 C 0.9166(3) 0.3037(2) 0.2521(2)
H57 H 0.8591 0.2935 0.2572
H58 H 0.9192 0.3555 0.2391
C44 C 0.8537(4) 0.2573(3) 0.1192(3)
H59 H 0.8646 0.2267 0.0799
H60 H 0.8429 0.3072 0.1006
H61 H 0.8033 0.2390 0.1316
N1A N 1.0673(2) 0.25572(14) 0.30967(17)
C41A C 1.0467(4) 0.17866(18) 0.2792(2)
H53A H 1.0494 0.1448 0.3213
H54A H 1.0891 0.1627 0.2541
C42A C 0.9889(3) 0.2856(2) 0.3280(2)
H55A H 1.0049 0.3300 0.3592
H56A H 0.9674 0.2494 0.3572
C43A C 1.0834(3) 0.3037(2) 0.2479(2)
H57A H 1.1409 0.2935 0.2428
H58A H 1.0808 0.3555 0.2609
C44A C 1.1463(4) 0.2573(3) 0.3808(3)
H59A H 1.1354 0.2267 0.4201
H60A H 1.1571 0.3072 0.3994
H61A H 1.1967 0.2390 0.3684
P1 P 0.69096(7) 0.20179(6) 0.26487(7)
F1 F 0.7702(4) 0.2445(3) 0.3255(4)
F2 F 0.7627(4) 0.1545(3) 0.2424(4)
F3 F 0.6137(4) 0.1645(3) 0.2028(5)
F4 F 0.6270(4) 0.2589(4) 0.2836(5)
F5 F 0.7012(6) 0.2600(5) 0.2017(5)
F6 F 0.6862(4) 0.1425(5) 0.3257(4)
C45 C 0.4686(11) 0.0969(9) 0.4989(9)
C46 C 0.5048(9) 0.0900(8) 0.4615(9)
C47 C 0.5458(17) 0.0727(18) 0.386(2)
C48 C 0.5750(10) -0.0078(8) 0.3693(9)
O8 O 0.538(3) 0.0681(17) 0.417(3)
C49 C 0.5836(4) 0.3532(4) 0.4279(4)
C50 C 0.5197(6) 0.2969(6) 0.3886(8)
H62 H 0.5154 0.2599 0.4251
H63 H 0.5385 0.2742 0.3486
H64 H 0.4634 0.3196 0.3663
N2 N 0.6327(5) 0.3939(4) 0.4567(4)
F7? F 0.7932(9) 0.2105(8) 0.3145(10)
F8? F 0.698(2) 0.1691(13) 0.1923(14)
F9? F 0.5852(8) 0.1998(13) 0.2377(10)
F10? F 0.6961(16) 0.2738(9) 0.2243(15)
F11? F 0.698(2) 0.1212(14) 0.2941(15)
O9? O 0.550(3) 0.104(2) 0.458(2)
F12? F 0.6757(11) 0.2314(15) 0.3431(8)
loop_
_geom_bond_atom_site_label_1
_geom_bond_atom_site_label_2
_geom_bond_site_symmetry_1
_geom_bond_site_symmetry_2
O1 C20 1_555 1_555
O2 C3 1_555 1_555
O3 C11 1_555 1_555
O4 C7 1_555 1_555
O5 C23 1_555 1_555
O6 C32 1_555 1_555
O7 C27 1_555 1_555
C1 H1 1_555 1_555
C2 C1 1_555 1_555
H2 C2 1_555 1_555
C3 C2 1_555 1_555
C4 C3 1_555 1_555
C5 H3 1_555 1_555
C6 C5 1_555 1_555
H4 C6 1_555 1_555
C7 C6 1_555 1_555
C8 C7 1_555 1_555
C9 C1 1_555 1_555
C10 C4 1_555 1_555
C11 C8 1_555 1_555
H5 C11 1_555 1_555
H6 C11 1_555 1_555
C12 O4 1_555 1_555
H7 C12 1_555 1_555
H8 C12 1_555 1_555
C13 C12 1_555 1_555
H9 C13 1_555 1_555
H10 C13 1_555 1_555
C14 C13 1_555 1_555
H11 C14 1_555 1_555
H12 C14 1_555 1_555
C15 C14 1_555 1_555
H13 C15 1_555 1_555
H14 C15 1_555 1_555
H15 C15 1_555 1_555
C16 O2 1_555 1_555
H16 C16 1_555 1_555
H17 C16 1_555 1_555
C17 C16 1_555 1_555
H18 C17 1_555 1_555
H19 C17 1_555 1_555
C18 C17 1_555 1_555
H20 C18 1_555 1_555
H21 C18 1_555 1_555
C19 C18 1_555 1_555
H22 C19 1_555 1_555
H23 C19 1_555 1_555
H24 C19 1_555 1_555
C20 C4 1_555 1_555
H25 C20 1_555 1_555
H26 C20 1_555 1_555
C21 O1 1_555 1_555
H27 C21 1_555 1_555
H28 C21 1_555 1_555
C22 C21 1_555 1_555
C23 C22 1_555 1_555
C24 C23 1_555 1_555
H29 C24 1_555 1_555
C25 C24 1_555 1_555
H30 C25 1_555 1_555
C26 C27 1_555 1_555
C27 C28 1_555 1_555
C28 H31 1_555 1_555
C29 C28 1_555 1_555
H32 C29 1_555 1_555
C30 C22 1_555 1_555
C31 C25 1_555 1_555
C32 C26 1_555 1_555
H33 C32 1_555 1_555
H34 C32 1_555 1_555
C33 O7 1_555 1_555
H35 C33 1_555 1_555
H36 C33 1_555 1_555
C34 C33 1_555 1_555
H37 C34 1_555 1_555
H38 C34 1_555 1_555
C35 C34 1_555 1_555
H39 C35 1_555 1_555
H40 C35 1_555 1_555
C36 C35 1_555 1_555
H41 C36 1_555 1_555
H42 C36 1_555 1_555
H43 C36 1_555 1_555
C37 O5 1_555 1_555
H44 C37 1_555 1_555
H45 C37 1_555 1_555
C38 C37 1_555 1_555
H46 C38 1_555 1_555
H47 C38 1_555 1_555
C39 C38 1_555 1_555
H48 C39 1_555 1_555
H49 C39 1_555 1_555
C40 C39 1_555 1_555
H50 C40 1_555 1_555
H51 C40 1_555 1_555
H52 C40 1_555 1_555
N1 C41 1_555 1_555
C41 H53 1_555 1_555
H54 C41 1_555 1_555
C42 N1 1_555 1_555
H55 C42 1_555 1_555
H56 C42 1_555 1_555
C43 N1 1_555 1_555
H57 C43 1_555 1_555
H58 C43 1_555 1_555
C44 N1 1_555 1_555
H59 C44 1_555 1_555
H60 C44 1_555 1_555
H61 C44 1_555 1_555
P1 F1 1_555 1_555
F2 P1 1_555 1_555
F3 P1 1_555 1_555
F4 P1 1_555 1_555
F5 P1 1_555 1_555
F6 P1 1_555 1_555
C45 C46 1_555 1_555
C46 O8 1_555 1_555
C47 C48 1_555 1_555
O8 C47 1_555 1_555
C49 C50 1_555 1_555
C50 H62 1_555 1_555
H63 C50 1_555 1_555
H64 C50 1_555 1_555
N2 C49 1_555 1_555
O1A C20A 1_555 1_555
O2A C3A 1_555 1_555
O4A C7A 1_555 1_555
O5A C23A 1_555 1_555
O7A C27A 1_555 1_555
C1A H1A 1_555 1_555
C2A C1A 1_555 1_555
H2A C2A 1_555 1_555
C3A C2A 1_555 1_555
C4A C3A 1_555 1_555
C5A H3A 1_555 1_555
C6A C5A 1_555 1_555
H4A C6A 1_555 1_555
C7A C6A 1_555 1_555
C8A C7A 1_555 1_555
C9A C1A 1_555 1_555
C10A C4A 1_555 1_555
C11A O3 1_555 1_555
H5A C11A 1_555 1_555
H6A C11A 1_555 1_555
C12A O4A 1_555 1_555
H7A C12A 1_555 1_555
H8A C12A 1_555 1_555
C13A C12A 1_555 1_555
H9A C13A 1_555 1_555
H10A C13A 1_555 1_555
C14A C13A 1_555 1_555
H11A C14A 1_555 1_555
H12A C14A 1_555 1_555
C15A C14A 1_555 1_555
H13A C15A 1_555 1_555
H14A C15A 1_555 1_555
H15A C15A 1_555 1_555
C16A O2A 1_555 1_555
H16A C16A 1_555 1_555
H17A C16A 1_555 1_555
C17A C16A 1_555 1_555
H18A C17A 1_555 1_555
H19A C17A 1_555 1_555
C18A C17A 1_555 1_555
H20A C18A 1_555 1_555
H21A C18A 1_555 1_555
C19A C18A 1_555 1_555
H22A C19A 1_555 1_555
H23A C19A 1_555 1_555
H24A C19A 1_555 1_555
C20A C4A 1_555 1_555
H25A C20A 1_555 1_555
H26A C20A 1_555 1_555
C21A O1A 1_555 1_555
H27A C21A 1_555 1_555
H28A C21A 1_555 1_555
C22A C21A 1_555 1_555
C23A C22A 1_555 1_555
C24A C23A 1_555 1_555
H29A C24A 1_555 1_555
C25A C24A 1_555 1_555
H30A C25A 1_555 1_555
C26A C27A 1_555 1_555
C27A C28A 1_555 1_555
C28A H31A 1_555 1_555
C29A C28A 1_555 1_555
H32A C29A 1_555 1_555
C30A C22A 1_555 1_555
C31A C25A 1_555 1_555
C32A O6 1_555 1_555
H33A C32A 1_555 1_555
H34A C32A 1_555 1_555
C33A O7A 1_555 1_555
H35A C33A 1_555 1_555
H36A C33A 1_555 1_555
C34A C33A 1_555 1_555
H37A C34A 1_555 1_555
H38A C34A 1_555 1_555
C35A C34A 1_555 1_555
H39A C35A 1_555 1_555
H40A C35A 1_555 1_555
C36A C35A 1_555 1_555
H41A C36A 1_555 1_555
H42A C36A 1_555 1_555
H43A C36A 1_555 1_555
C37A O5A 1_555 1_555
H44A C37A 1_555 1_555
H45A C37A 1_555 1_555
C38A C37A 1_555 1_555
H46A C38A 1_555 1_555
H47A C38A 1_555 1_555
C39A C38A 1_555 1_555
H48A C39A 1_555 1_555
H49A C39A 1_555 1_555
C40A C39A 1_555 1_555
H50A C40A 1_555 1_555
H51A C40A 1_555 1_555
H52A C40A 1_555 1_555
N1A C41A 1_555 1_555
C41A C41 1_555 1_555
H53A C41A 1_555 1_555
H54A C41A 1_555 1_555
C42A C43 1_555 1_555
H55A C42A 1_555 1_555
H56A C42A 1_555 1_555
C43A C42 1_555 1_555
H57A C43A 1_555 1_555
H58A C43A 1_555 1_555
C44A N1A 1_555 1_555
H59A C44A 1_555 1_555
H60A C44A 1_555 1_555
H61A C44A 1_555 1_555
C5 C10 1_555 1_555
C8 C9 1_555 1_555
C9 C10 1_555 1_555
C26 C31 1_555 1_555
C29 C30 1_555 1_555
C30 C31 1_555 1_555
C5A C10A 1_555 1_555
C8A C9A 1_555 1_555
C8A C11A 1_555 1_555
C9A C10A 1_555 1_555
C26A C31A 1_555 1_555
C26A C32A 1_555 1_555
C29A C30A 1_555 1_555
C30A C31A 1_555 1_555
N1A C42A 1_555 1_555
N1A C43A 1_555 1_555

#END
