
#######################################################################
#
#                 Cambridge Crystallographic Data Centre
#                                CCDC 
#
#######################################################################
#
# If this CIF has been generated from an entry in the Cambridge 
# Structural Database, then it will include bibliographic, chemical, 
# crystal, experimental, refinement or atomic coordinate data resulting 
# from the CCDC's data processing and validation procedures.
#
#######################################################################

data_TUPBUC
_chemical_name_common            
'4-((11,17-Dihydroxy-3,20-dioxopregn-4-en-21-yl)oxy)-4-oxobutanoic acid hydrate'
_chemical_formula_moiety         'C25 H34 O8,H2 O1'
_chemical_name_systematic        
'21-(3-Carboxypropanoyl)-11\b,17-dihydroxypregn-4-ene-3,20-dione monohydrate'
_symmetry_cell_setting           orthorhombic
_symmetry_space_group_name_H-M   'P 21 21 21'
_symmetry_Int_Tables_number      19
_space_group_name_Hall           'P 2ac 2ab'
loop_
_symmetry_equiv_pos_site_id
_symmetry_equiv_pos_as_xyz
1 x,y,z
2 1/2-x,-y,1/2+z
3 -x,1/2+y,1/2-z
4 1/2+x,1/2-y,-z
_cell_length_a                   7.2672(15)
_cell_length_b                   16.606(3)
_cell_length_c                   20.009(4)
_cell_angle_alpha                90
_cell_angle_beta                 90
_cell_angle_gamma                90
_cell_volume                     2414.67
_exptl_crystal_colour            colorless
_exptl_crystal_description       prism
_cell_formula_units_Z            4
_exptl_crystal_recrystallization_method ethanol
loop_
_atom_site_label
_atom_site_type_symbol
_atom_site_fract_x
_atom_site_fract_y
_atom_site_fract_z
O1 O -0.0416(3) 0.95164(11) 1.23851(7)
O2 O -0.0242(3) 1.00698(11) 0.89550(9)
H1 H -0.1156 1.0337 0.9049
O3 O 0.0626(3) 0.71841(10) 0.80452(8)
H2 H 0.0723 0.6798 0.7792
O4 O 0.2230(3) 0.83520(14) 0.67050(8)
O5 O -0.1210(3) 0.82035(12) 0.62841(8)
O6 O 0.0212(3) 0.72295(11) 0.57042(8)
O7 O 0.0666(3) 0.85527(12) 0.34091(8)
H3 H 0.0474 0.8889 0.3117
O8 O -0.1085(3) 0.93713(12) 0.40118(10)
C1 C -0.1098(3) 0.96647(15) 1.06144(10)
H6 H -0.1831 0.9991 1.0313
H7 H -0.1630 0.9129 1.0624
C2 C -0.1196(4) 1.00276(15) 1.13148(11)
H8 H -0.0803 1.0585 1.1299
H9 H -0.2459 1.0015 1.1472
C3 C -0.0006(4) 0.95744(14) 1.17876(10)
C4 C 0.1676(4) 0.92345(15) 1.15279(11)
H10 H 0.2477 0.8984 1.1825
C5 C 0.2140(3) 0.92622(13) 1.08788(10)
C6 C 0.4020(3) 0.90065(16) 1.06572(11)
H11 H 0.4626 0.8727 1.1022
H12 H 0.4742 0.9481 1.0552
C7 C 0.3970(3) 0.84573(15) 1.00483(10)
H13 H 0.3440 0.7943 1.0174
H14 H 0.5217 0.8361 0.9895
C8 C 0.2841(3) 0.88213(12) 0.94764(10)
H15 H 0.3439 0.9315 0.9320
C9 C 0.2692(3) 0.82262(13) 0.88998(10)
H16 H 0.2057 0.7750 0.9074
C10 C 0.4473(4) 0.79267(17) 0.85697(12)
H17 H 0.5027 0.7497 0.8829
H18 H 0.5355 0.8361 0.8522
C11 C 0.3832(4) 0.76156(16) 0.78761(12)
H19 H 0.4528 0.7874 0.7522
H20 H 0.4011 0.7038 0.7844
C12 C 0.1772(3) 0.78255(13) 0.78154(10)
C13 C 0.1533(3) 0.85407(12) 0.83136(9)
C14 C 0.2382(4) 0.93041(13) 0.80015(11)
H21 H 0.2240 0.9748 0.8304
H22 H 0.1768 0.9424 0.7589
H23 H 0.3666 0.9215 0.7917
C15 C -0.0418(3) 0.86831(17) 0.85699(10)
H24 H -0.0955 0.8170 0.8694
H25 H -0.1155 0.8907 0.8211
C16 C -0.0500(3) 0.92549(15) 0.91754(11)
H26 H -0.1738 0.9216 0.9367
C17 C 0.0888(3) 0.90217(12) 0.97298(9)
H27 H 0.0421 0.8512 0.9908
C18 C 0.0874(3) 0.96102(12) 1.03428(9)
C19 C 0.1631(4) 1.04641(13) 1.01880(11)
H28 H 0.1587 1.0787 1.0586
H29 H 0.0893 1.0710 0.9846
H30 H 0.2881 1.0423 1.0036
C20 C 0.1216(4) 0.80295(14) 0.70948(10)
C21 C -0.0732(4) 0.78122(19) 0.68959(11)
H31 H -0.0833 0.7233 0.6841
H32 H -0.1578 0.7976 0.7245
C22 C -0.0565(3) 0.78637(15) 0.57212(11)
C23 C -0.1019(4) 0.83901(14) 0.51351(10)
H33 H -0.0684 0.8941 0.5241
H34 H -0.2337 0.8375 0.5060
C24 C -0.0045(4) 0.81402(14) 0.45007(11)
H35 H 0.1253 0.8064 0.4595
H36 H -0.0540 0.7629 0.4349
C25 C -0.0252(4) 0.87517(15) 0.39558(11)
O9 O 0.0883(3) 0.57919(13) 0.73352(10)
H4 H 0.0463 0.5672 0.6951
H5 H 0.2019 0.5690 0.7392
loop_
_geom_bond_atom_site_label_1
_geom_bond_atom_site_label_2
_geom_bond_site_symmetry_1
_geom_bond_site_symmetry_2
O1 C3 1_555 1_555
O2 H1 1_555 1_555
O3 H2 1_555 1_555
O4 C20 1_555 1_555
O5 C21 1_555 1_555
O6 C22 1_555 1_555
O7 H3 1_555 1_555
O8 C25 1_555 1_555
O9 H4 1_555 1_555
H5 O9 1_555 1_555
C1 H6 1_555 1_555
H7 C1 1_555 1_555
C2 C1 1_555 1_555
H8 C2 1_555 1_555
H9 C2 1_555 1_555
C3 C2 1_555 1_555
C4 C3 1_555 1_555
H10 C4 1_555 1_555
C5 C4 1_555 1_555
C6 C5 1_555 1_555
H11 C6 1_555 1_555
H12 C6 1_555 1_555
C7 C6 1_555 1_555
H13 C7 1_555 1_555
H14 C7 1_555 1_555
C8 C7 1_555 1_555
H15 C8 1_555 1_555
C9 C8 1_555 1_555
H16 C9 1_555 1_555
C10 C9 1_555 1_555
H17 C10 1_555 1_555
H18 C10 1_555 1_555
C11 C10 1_555 1_555
H19 C11 1_555 1_555
H20 C11 1_555 1_555
C12 O3 1_555 1_555
C13 C9 1_555 1_555
C14 C13 1_555 1_555
H21 C14 1_555 1_555
H22 C14 1_555 1_555
H23 C14 1_555 1_555
C15 C13 1_555 1_555
H24 C15 1_555 1_555
H25 C15 1_555 1_555
C16 O2 1_555 1_555
H26 C16 1_555 1_555
C17 C8 1_555 1_555
H27 C17 1_555 1_555
C18 C1 1_555 1_555
C19 C18 1_555 1_555
H28 C19 1_555 1_555
H29 C19 1_555 1_555
H30 C19 1_555 1_555
C20 C12 1_555 1_555
C21 C20 1_555 1_555
H31 C21 1_555 1_555
H32 C21 1_555 1_555
C22 O5 1_555 1_555
C23 C22 1_555 1_555
H33 C23 1_555 1_555
H34 C23 1_555 1_555
C24 C23 1_555 1_555
H35 C24 1_555 1_555
H36 C24 1_555 1_555
C25 O7 1_555 1_555
C5 C18 1_555 1_555
C11 C12 1_555 1_555
C12 C13 1_555 1_555
C15 C16 1_555 1_555
C16 C17 1_555 1_555
C17 C18 1_555 1_555
C24 C25 1_555 1_555

#END
