
#######################################################################
#
#                 Cambridge Crystallographic Data Centre
#                                CCDC 
#
#######################################################################
#
# If this CIF has been generated from an entry in the Cambridge 
# Structural Database, then it will include bibliographic, chemical, 
# crystal, experimental, refinement or atomic coordinate data resulting 
# from the CCDC's data processing and validation procedures.
#
#######################################################################

data_TUPGOB
_chemical_name_common            Prasugrel
_chemical_formula_moiety         'C20 H20 F1 N1 O3 S1'
_chemical_name_systematic        
'5-[(2-cyclopropylcarbonyl)(2-fluorophenyl)methyl]-4,5,6,7-tetrahydrothieno[3,2-c]pyridin-2-yl acetate'
_chemical_properties_biological  
'Recently approved for clinical use in combination with aspirin for preventing blockages in the arteries in patients with acute coronary syndromes'
_symmetry_cell_setting           triclinic
_symmetry_space_group_name_H-M   'P -1'
_symmetry_Int_Tables_number      2
_space_group_name_Hall           '-P 1'
loop_
_symmetry_equiv_pos_site_id
_symmetry_equiv_pos_as_xyz
1 x,y,z
2 -x,-y,-z
_cell_length_a                   7.910(2)
_cell_length_b                   9.943(3)
_cell_length_c                   12.450(4)
_cell_angle_alpha                112.938(5)
_cell_angle_beta                 90.644(5)
_cell_angle_gamma                92.591(6)
_cell_volume                     900.39
_exptl_crystal_colour            colorless
_exptl_crystal_description       block
_cell_formula_units_Z            2
loop_
_atom_site_label
_atom_site_type_symbol
_atom_site_fract_x
_atom_site_fract_y
_atom_site_fract_z
S1 S 0.98277(19) 0.7094(2) 0.12388(13)
F1 F 0.8924(5) 0.9710(5) -0.3950(4)
C1 C 1.4971(8) 0.5727(9) 0.2034(6)
H1 H 1.5091 0.5806 0.2825
H2 H 1.5907 0.6251 0.1861
H3 H 1.4953 0.4716 0.1514
C2 C 1.3386(8) 0.6352(8) 0.1886(5)
C3 C 1.1688(7) 0.6812(7) 0.0487(5)
C4 C 1.1564(7) 0.7042(6) -0.0503(5)
H4 H 1.2443 0.6929 -0.1016
C5 C 0.9935(7) 0.7477(6) -0.0677(4)
C6 C 0.8868(7) 0.7542(7) 0.0175(4)
C7 C 0.7093(7) 0.8012(8) 0.0226(5)
H5 H 0.6854 0.8667 0.1014
H6 H 0.6301 0.7167 -0.0004
C8 C 0.6913(7) 0.8786(7) -0.0600(5)
H7 H 0.5732 0.8971 -0.0675
H8 H 0.7554 0.9719 -0.0289
C9 C 0.9400(7) 0.7866(7) -0.1670(5)
H9 H 0.9894 0.8825 -0.1555
H10 H 0.9814 0.7164 -0.2392
C10 C 0.7071(7) 0.8485(6) -0.2608(5)
H11 H 0.7532 0.9498 -0.2343
C11 C 0.7730(6) 0.7596(6) -0.3819(4)
C12 C 0.8627(7) 0.8249(6) -0.4420(5)
C13 C 0.9202(7) 0.7512(7) -0.5530(5)
H12 H 0.9813 0.8007 -0.5910
C14 C 0.8856(8) 0.6067(8) -0.6044(5)
H13 H 0.9245 0.5550 -0.6787
C15 C 0.7937(9) 0.5342(8) -0.5491(6)
H14 H 0.7685 0.4341 -0.5863
C16 C 0.7382(9) 0.6108(7) -0.4370(5)
H15 H 0.6771 0.5613 -0.3990
C17 C 0.5147(7) 0.8444(7) -0.2809(5)
C18 C 0.4630(8) 0.9356(7) -0.3427(5)
H16 H 0.5474 1.0094 -0.3454
C19 C 0.2829(9) 0.9711(9) -0.3429(6)
H17 H 0.2054 0.9357 -0.2987
H18 H 0.2590 1.0659 -0.3429
C20 C 0.3480(9) 0.8650(9) -0.4476(6)
H19 H 0.3651 0.8935 -0.5130
H20 H 0.3115 0.7632 -0.4688
N1 N 0.7541(5) 0.7875(5) -0.1760(4)
O1 O 1.2404(8) 0.6812(10) 0.2594(4)
O2 O 1.3121(5) 0.6278(5) 0.0798(3)
O3 O 0.4151(5) 0.7686(5) -0.2536(4)
loop_
_geom_bond_atom_site_label_1
_geom_bond_atom_site_label_2
_geom_bond_site_symmetry_1
_geom_bond_site_symmetry_2
S1 C3 1_555 1_555
F1 C12 1_555 1_555
C1 H1 1_555 1_555
H2 C1 1_555 1_555
H3 C1 1_555 1_555
C2 C1 1_555 1_555
C3 C4 1_555 1_555
C4 H4 1_555 1_555
C5 C4 1_555 1_555
C6 S1 1_555 1_555
C7 C6 1_555 1_555
H5 C7 1_555 1_555
H6 C7 1_555 1_555
C8 C7 1_555 1_555
H7 C8 1_555 1_555
H8 C8 1_555 1_555
C9 C5 1_555 1_555
H9 C9 1_555 1_555
H10 C9 1_555 1_555
C10 H11 1_555 1_555
C11 C10 1_555 1_555
C12 C11 1_555 1_555
C13 C12 1_555 1_555
H12 C13 1_555 1_555
C14 C13 1_555 1_555
H13 C14 1_555 1_555
C15 C14 1_555 1_555
H14 C15 1_555 1_555
C16 C11 1_555 1_555
H15 C16 1_555 1_555
C17 C10 1_555 1_555
C18 C17 1_555 1_555
H16 C18 1_555 1_555
C19 C18 1_555 1_555
H17 C19 1_555 1_555
H18 C19 1_555 1_555
C20 C18 1_555 1_555
H19 C20 1_555 1_555
H20 C20 1_555 1_555
N1 C8 1_555 1_555
O1 C2 1_555 1_555
O2 C2 1_555 1_555
O3 C17 1_555 1_555
C3 O2 1_555 1_555
C5 C6 1_555 1_555
C9 N1 1_555 1_555
C10 N1 1_555 1_555
C15 C16 1_555 1_555
C19 C20 1_555 1_555

#END
