
#######################################################################
#
#                 Cambridge Crystallographic Data Centre
#                                CCDC 
#
#######################################################################
#
# If this CIF has been generated from an entry in the Cambridge 
# Structural Database, then it will include bibliographic, chemical, 
# crystal, experimental, refinement or atomic coordinate data resulting 
# from the CCDC's data processing and validation procedures.
#
#######################################################################

data_TUQPOK
_chemical_formula_moiety         '2(C1 H6 N3 1+),C10 H6 O6 S2 2-,C7 H5 N1'
_chemical_name_systematic        
'bis(Guanidinium) 2,6-naphthalenedisulfonate benzonitrile clathrate'
_symmetry_cell_setting           triclinic
_symmetry_space_group_name_H-M   'P -1'
_symmetry_Int_Tables_number      2
_space_group_name_Hall           '-P 1'
loop_
_symmetry_equiv_pos_site_id
_symmetry_equiv_pos_as_xyz
1 x,y,z
2 -x,-y,-z
_cell_length_a                   7.2679(5)
_cell_length_b                   7.4098(5)
_cell_length_c                   12.6938(9)
_cell_angle_alpha                83.344(1)
_cell_angle_beta                 88.186(1)
_cell_angle_gamma                61.872(1)
_cell_volume                     598.602
_exptl_crystal_colour            colorless
_chemical_melting_point          599-603K
_cell_formula_units_Z            1
loop_
_atom_site_label
_atom_site_type_symbol
_atom_site_fract_x
_atom_site_fract_y
_atom_site_fract_z
C7 C 0.1454(4) 0.4873(4) 0.4252(2)
C8 C -0.0466(4) 0.5102(4) 0.3939(2)
H11 H -0.0776(4) 0.5181(4) 0.3208(2)
C9 C 0.1913(5) 0.4784(4) 0.5318(2)
H12 H 0.3220(5) 0.4646(4) 0.5530(2)
C10 C 0.2979(8) 0.4633(7) 0.3507(4)
N4 N 0.4254(8) 0.4415(8) 0.2911(5)
C9A C -0.1913(5) 0.5216(4) 0.4682(2)
C7A C -0.1454(4) 0.5127(4) 0.5748(2)
C8A C 0.0466(4) 0.4898(4) 0.6061(2)
H11A H 0.0776(4) 0.4819(4) 0.6792(2)
C10A C -0.2979(8) 0.5367(7) 0.6493(4)
N4A N -0.4254(8) 0.5585(8) 0.7089(5)
H12A H -0.3220(5) 0.5354(4) 0.4470(2)
S1 S 0.11148(8) 0.06358(8) 0.16913(4)
O1 O 0.2251(2) 0.1814(2) 0.14803(11)
O2 O -0.1037(2) 0.1753(2) 0.12919(11)
O3 O 0.2233(2) -0.1412(2) 0.13460(12)
C1 C 0.1003(3) 0.0260(3) 0.3094(2)
C2 C 0.2845(3) -0.0371(3) 0.3708(2)
H1 H 0.4113(3) -0.0612(3) 0.3371(2)
C3 C 0.2783(3) -0.0629(3) 0.4788(2)
H2 H 0.4016(3) -0.1037(3) 0.5197(2)
C4 C -0.0822(3) 0.0570(3) 0.3571(2)
H3 H -0.2036(3) 0.0970(3) 0.3146(2)
C5 C 0.0918(3) -0.0301(3) 0.5312(2)
C4A C 0.0822(3) -0.0570(3) 0.6429(2)
C1A C -0.1003(3) -0.0260(3) 0.6906(2)
S1A S -0.11148(8) -0.06358(8) 0.83087(4)
O1A O -0.2251(2) -0.1814(2) 0.85197(11)
O2A O 0.1037(2) -0.1753(2) 0.87081(11)
O3A O -0.2233(2) 0.1412(2) 0.86540(12)
C2A C -0.2845(3) 0.0371(3) 0.6292(2)
H1A H -0.4113(3) 0.0612(3) 0.6629(2)
C3A C -0.2783(3) 0.0629(3) 0.5212(2)
H2A H -0.4016(3) 0.1037(3) 0.4803(2)
C5A C -0.0918(3) 0.0301(3) 0.4688(2)
H3A H 0.2036(3) -0.0970(3) 0.6854(2)
C6 C -0.2220(3) 0.7332(3) 0.1100(2)
N1 N -0.0156(3) 0.6364(3) 0.10658(14)
H4 H 0.0518(3) 0.5017(3) 0.10714(14)
H5 H 0.0541(3) 0.7069(3) 0.10377(14)
N2 N -0.3265(3) 0.6268(3) 0.1142(2)
H6 H -0.2589(3) 0.4920(3) 0.1148(2)
H7 H -0.4636(3) 0.6908(3) 0.1165(2)
N3 N -0.3239(3) 0.9358(3) 0.11142(14)
H8 H -0.4608(3) 0.9993(3) 0.11518(14)
H9 H -0.2545(3) 1.0066(3) 0.10860(14)
H10? H 0.2461(4) 0.4776(4) 0.3734(2)
loop_
_geom_bond_atom_site_label_1
_geom_bond_atom_site_label_2
_geom_bond_site_symmetry_1
_geom_bond_site_symmetry_2
S1 O1 1_555 1_555
O2 S1 1_555 1_555
O3 S1 1_555 1_555
C1 S1 1_555 1_555
C2 C1 1_555 1_555
H1 C2 1_555 1_555
C3 C2 1_555 1_555
H2 C3 1_555 1_555
C4 C1 1_555 1_555
H3 C4 1_555 1_555
C5 C3 1_555 1_555
C6 N1 1_555 1_555
N1 H4 1_555 1_555
H5 N1 1_555 1_555
N2 C6 1_555 1_555
H6 N2 1_555 1_555
H7 N2 1_555 1_555
N3 C6 1_555 1_555
H8 N3 1_555 1_555
H9 N3 1_555 1_555
C7 C8 1_555 1_555
C8 H11 1_555 1_555
C9 C7 1_555 1_555
H12 C9 1_555 1_555
C10 C7 1_555 1_555
N4 C10 1_555 1_555
C4A C5 1_555 1_555
C1A C4A 1_555 1_555
S1A C1A 1_555 1_555
O1A S1A 1_555 1_555
O2A S1A 1_555 1_555
O3A S1A 1_555 1_555
C2A C1A 1_555 1_555
H1A C2A 1_555 1_555
C3A C2A 1_555 1_555
H2A C3A 1_555 1_555
C5A C4 1_555 1_555
H3A C4A 1_555 1_555
C9A C8 1_555 1_555
C7A C9A 1_555 1_555
C8A C9 1_555 1_555
H11A C8A 1_555 1_555
C10A C7A 1_555 1_555
N4A C10A 1_555 1_555
H12A C9A 1_555 1_555
C5 C5A 1_555 1_555
C3A C5A 1_555 1_555
C7A C8A 1_555 1_555

#END
