
#######################################################################
#
#                 Cambridge Crystallographic Data Centre
#                                CCDC 
#
#######################################################################
#
# If this CIF has been generated from an entry in the Cambridge 
# Structural Database, then it will include bibliographic, chemical, 
# crystal, experimental, refinement or atomic coordinate data resulting 
# from the CCDC's data processing and validation procedures.
#
#######################################################################

data_TURKEY
_chemical_formula_moiety         'C14 H16 O2'
_chemical_name_systematic        
8-Methyl-1,2,3,4,4a,10b-hexahydro-6H-benzo[c]chromen-6-one
_symmetry_cell_setting           monoclinic
_symmetry_space_group_name_H-M   'P 21/n'
_symmetry_Int_Tables_number      14
_space_group_name_Hall           '-P 2yn'
loop_
_symmetry_equiv_pos_site_id
_symmetry_equiv_pos_as_xyz
1 x,y,z
2 1/2-x,1/2+y,1/2-z
3 -x,-y,-z
4 1/2+x,1/2-y,1/2+z
_cell_length_a                   9.4814(11)
_cell_length_b                   6.1821(6)
_cell_length_c                   18.619(2)
_cell_angle_alpha                90
_cell_angle_beta                 98.373(7)
_cell_angle_gamma                90
_cell_volume                     1079.72
_exptl_crystal_colour            colorless
_exptl_crystal_description       Block
_cell_formula_units_Z            4
loop_
_atom_site_label
_atom_site_type_symbol
_atom_site_fract_x
_atom_site_fract_y
_atom_site_fract_z
O1 O 0.40281(13) 0.74129(17) 0.69570(6)
O2 O 0.39450(14) 0.93020(19) 0.59468(7)
C1 C 0.55547(18) 0.6310(3) 0.60797(9)
C2 C 0.57991(18) 0.4288(3) 0.64164(9)
C3 C 0.50473(19) 0.3769(3) 0.70583(9)
H1 H 0.4088 0.3161 0.6869
C4 C 0.4477(2) 0.7800(3) 0.63086(9)
C5 C 0.62375(19) 0.6909(3) 0.54937(9)
H2 H 0.6055 0.8290 0.5276
C6 C 0.71798(19) 0.5509(3) 0.52258(9)
C7 C 0.67110(19) 0.2872(3) 0.61293(9)
H3 H 0.6877 0.1474 0.6336
C8 C 0.48299(19) 0.5866(3) 0.74499(9)
H4 H 0.5785 0.6501 0.7633
C9 C 0.73824(19) 0.3468(3) 0.55458(9)
H5 H 0.7995 0.2464 0.5359
C10 C 0.4978(2) 0.1809(3) 0.82374(10)
H6 H 0.4042 0.1154 0.8054
H7 H 0.5505 0.0790 0.8589
C11 C 0.5815(2) 0.2163(3) 0.76045(9)
H8 H 0.6777 0.2720 0.7792
H9 H 0.5928 0.0765 0.7360
C12 C 0.4747(2) 0.3936(3) 0.86211(10)
H10 H 0.4154 0.3672 0.9008
H11 H 0.5678 0.4515 0.8851
C13 C 0.7972(2) 0.6171(3) 0.46161(10)
H12 H 0.7518 0.7453 0.4373
H13 H 0.7950 0.4984 0.4266
H14 H 0.8963 0.6508 0.4812
C14 C 0.4013(2) 0.5589(3) 0.80838(10)
H15 H 0.3030 0.5100 0.7904
H16 H 0.3953 0.6995 0.8331
loop_
_geom_bond_atom_site_label_1
_geom_bond_atom_site_label_2
_geom_bond_site_symmetry_1
_geom_bond_site_symmetry_2
O1 C4 1_555 1_555
O2 C4 1_555 1_555
C1 C2 1_555 1_555
C2 C3 1_555 1_555
C3 H1 1_555 1_555
C4 C1 1_555 1_555
C5 C1 1_555 1_555
H2 C5 1_555 1_555
C6 C5 1_555 1_555
C7 C2 1_555 1_555
H3 C7 1_555 1_555
C8 O1 1_555 1_555
H4 C8 1_555 1_555
C9 C6 1_555 1_555
H5 C9 1_555 1_555
C10 H6 1_555 1_555
H7 C10 1_555 1_555
C11 C3 1_555 1_555
H8 C11 1_555 1_555
H9 C11 1_555 1_555
C12 C10 1_555 1_555
H10 C12 1_555 1_555
H11 C12 1_555 1_555
C13 C6 1_555 1_555
H12 C13 1_555 1_555
H13 C13 1_555 1_555
H14 C13 1_555 1_555
C14 C8 1_555 1_555
H15 C14 1_555 1_555
H16 C14 1_555 1_555
C3 C8 1_555 1_555
C7 C9 1_555 1_555
C10 C11 1_555 1_555
C12 C14 1_555 1_555

#END
