
#######################################################################
#
#                 Cambridge Crystallographic Data Centre
#                                CCDC 
#
#######################################################################
#
# If this CIF has been generated from an entry in the Cambridge 
# Structural Database, then it will include bibliographic, chemical, 
# crystal, experimental, refinement or atomic coordinate data resulting 
# from the CCDC's data processing and validation procedures.
#
#######################################################################

data_TUTGIZ
_chemical_name_common            
'icosakis(Diaminomethaniminium) tris(N,N,N-triethylethanaminium) undecakis(5-carboxy-1,3,5-trimethylcyclohexane-1,3-dicarboxylate) 3,5-dicarboxy-1,3,5-trimethylcyclohexane-1-carboxylate heptadecahydrate'
_chemical_formula_moiety         
'11(C12 H16 O6 2-),3(C8 H20 N1 1+),20(C1 H6 N3 1+),17(H2 O1),C12 H17 O6 1-'
_chemical_name_systematic        
'icosakis(Guanidinium) tris(tetraethylammonium) undecakis(5-carboxy-1,3,5-trimethylcyclohexane-1,3-dicarboxylate) 3,5-dicarboxy-1,3,5-trimethylcyclohexane-1-carboxylate heptadecahydrate'
_symmetry_cell_setting           tetragonal
_symmetry_space_group_name_H-M   'P 42/n'
_symmetry_Int_Tables_number      86
_space_group_name_Hall           '-P 4bc'
loop_
_symmetry_equiv_pos_site_id
_symmetry_equiv_pos_as_xyz
1 x,y,z
2 1/2-x,1/2-y,z
3 -y,1/2+x,1/2+z
4 1/2+y,-x,1/2+z
5 -x,-y,-z
6 1/2+x,1/2+y,-z
7 y,1/2-x,1/2-z
8 1/2-y,x,1/2-z
_cell_length_a                   23.08290(10)
_cell_length_b                   23.08290(10)
_cell_length_c                   24.5301(2)
_cell_angle_alpha                90
_cell_angle_beta                 90
_cell_angle_gamma                90
_cell_volume                     13070.1
_exptl_crystal_colour            colorless
_exptl_crystal_description       block
_chemical_melting_point          '278.5-279.2 deg.C'
_cell_formula_units_Z            2
loop_
_atom_site_label
_atom_site_type_symbol
_atom_site_fract_x
_atom_site_fract_y
_atom_site_fract_z
O1 O -0.11321(10) 0.26884(9) 0.59399(8)
O2 O -0.17910(8) 0.29006(8) 0.53117(8)
H1 H -0.1810 0.2932 0.4946
O3 O 0.01381(9) 0.28813(9) 0.42743(9)
O4 O -0.05896(8) 0.30091(8) 0.48625(8)
O5 O -0.12926(11) 0.28529(12) 0.35885(10)
O6 O -0.18422(9) 0.29874(10) 0.43234(9)
C1 C -0.16573(12) 0.18361(13) 0.47334(12)
H2 H -0.2039 0.2024 0.4783
H3 H -0.1727 0.1413 0.4718
C2 C -0.12938(13) 0.19607(12) 0.52487(11)
C3 C -0.06437(12) 0.18328(12) 0.51420(11)
H4 H -0.0586 0.1409 0.5175
H5 H -0.0417 0.2018 0.5437
C4 C -0.03789(12) 0.20282(12) 0.45898(11)
C5 C -0.07787(12) 0.18445(13) 0.41147(11)
H6 H -0.0624 0.2012 0.3773
H7 H -0.0762 0.1418 0.4079
C6 C -0.14188(12) 0.20252(14) 0.41699(12)
C7 C -0.13888(13) 0.25627(12) 0.55115(12)
C8 C -0.02742(12) 0.26887(12) 0.45712(11)
C9 C -0.15061(13) 0.26686(16) 0.40183(13)
C10 C -0.15087(16) 0.15393(13) 0.57018(13)
H8 H -0.1285 0.1605 0.6036
H9 H -0.1456 0.1138 0.5581
H10 H -0.1920 0.1610 0.5774
C11 C 0.02053(13) 0.17162(13) 0.45177(13)
H11 H 0.0468 0.1828 0.4814
H12 H 0.0376 0.1826 0.4167
H13 H 0.0144 0.1296 0.4527
C12 C -0.17656(14) 0.1686(2) 0.37293(14)
H14 H -0.2175 0.1795 0.3748
H15 H -0.1727 0.1269 0.3795
H16 H -0.1613 0.1780 0.3367
O7 O 0.23335(10) 0.32812(11) 0.59210(11)
O8 O 0.25377(10) 0.42073(11) 0.59645(10)
H17 H 0.2633 0.4511 0.5753
O9 O 0.27982(11) 0.50457(10) 0.53816(11)
O10 O 0.28309(10) 0.52086(9) 0.44873(10)
O11 O 0.20469(9) 0.39054(11) 0.48484(10)
O12 O 0.21586(9) 0.41803(9) 0.39729(8)
C13 C 0.30629(12) 0.32564(11) 0.48968(12)
H18 H 0.3396 0.3003 0.4811
H19 H 0.2723 0.3002 0.4954
C14 C 0.31945(12) 0.35671(12) 0.54443(12)
C15 C 0.35874(12) 0.41051(11) 0.53541(11)
H20 H 0.3553 0.4354 0.5681
H21 H 0.3993 0.3968 0.5339
C16 C 0.34836(12) 0.44927(11) 0.48475(12)
C17 C 0.34120(11) 0.41066(11) 0.43393(12)
H22 H 0.3787 0.3916 0.4262
H23 H 0.3318 0.4357 0.4024
C18 C 0.29402(12) 0.36356(11) 0.43898(12)
C19 C 0.26433(13) 0.36828(13) 0.57810(13)
C20 C 0.29848(13) 0.49339(12) 0.49025(13)
C21 C 0.23326(12) 0.39231(12) 0.44028(12)
C22 C 0.35393(12) 0.31379(13) 0.58156(12)
H24 H 0.3626 0.3325 0.6165
H25 H 0.3902 0.3030 0.5635
H26 H 0.3306 0.2790 0.5880
C23 C 0.40303(13) 0.48774(13) 0.47731(14)
H27 H 0.3983 0.5121 0.4449
H28 H 0.4372 0.4630 0.4729
H29 H 0.4081 0.5124 0.5095
C24 C 0.29660(16) 0.32514(14) 0.38733(14)
H30 H 0.2896 0.3491 0.3550
H31 H 0.2669 0.2949 0.3897
H32 H 0.3349 0.3071 0.3846
O13 O 0.01213(16) 0.66240(16) 0.30541(15)
O14 O -0.07243(17) 0.6231(2) 0.28568(16)
H33 H -0.0864 0.5887 0.2745
O15 O -0.07868(16) 0.43899(16) 0.23538(16)
O16 O -0.11102(17) 0.52807(17) 0.25520(18)
C25 C 0.0641(3) 0.5849(3) 0.2191(2)
H34 H 0.0865 0.6005 0.2502
H35 H 0.0859 0.5945 0.1855
C26 C 0.0057(2) 0.6173(3) 0.2169(2)
C27 C -0.0360(5) 0.5864(4) 0.1793(4)
H36 H -0.0259 0.5976 0.1415
H37 H -0.0752 0.6020 0.1866
C28 C -0.0406(3) 0.5189(4) 0.1807(3)
C29 C 0.0212(4) 0.4925(4) 0.1809(3)
H38 H 0.0180 0.4502 0.1868
H39 H 0.0388 0.4986 0.1445
C30 C 0.0624(2) 0.5180(3) 0.2246(2)
C31 C -0.0172(2) 0.6335(2) 0.2741(2)
C32 C -0.0784(2) 0.4932(2) 0.2282(2)
C33 C 0.0439(2) 0.4980(2) 0.2825(2)
C34 C 0.0166(3) 0.6781(2) 0.1900(2)
H40 H 0.0440 0.7001 0.2124
H41 H -0.0200 0.6992 0.1875
H42 H 0.0328 0.6727 0.1534
C35 C -0.0741(3) 0.4979(3) 0.1285(4)
H43 H -0.0541 0.5119 0.0958
H44 H -0.1137 0.5132 0.1292
H45 H -0.0754 0.4555 0.1280
C36 C 0.1241(3) 0.4939(3) 0.2138(2)
H46 H 0.1415 0.5144 0.1829
H47 H 0.1217 0.4524 0.2054
H48 H 0.1482 0.4996 0.2463
O21 O 0.01793(18) 0.53494(16) 0.31248(15)
O22 O 0.0581(5) 0.4489(4) 0.3004(4)
C49 C -0.00784(13) 0.30937(13) 0.20378(13)
N1 N -0.01829(14) 0.33281(12) 0.25245(12)
H64 H -0.0003 0.3196 0.2815
H65 H -0.0432 0.3615 0.2555
N2 N 0.02978(11) 0.26615(11) 0.19997(11)
H66 H 0.0364 0.2497 0.1682
H67 H 0.0482 0.2539 0.2292
N3 N -0.03601(11) 0.32836(13) 0.15986(12)
H68 H -0.0297 0.3122 0.1279
H69 H -0.0609 0.3571 0.1628
C50 C 0.07687(13) 0.33469(12) 0.56574(12)
N4 N 0.02138(12) 0.32968(18) 0.57617(12)
H70 H 0.0080 0.3381 0.6088
H71 H -0.0025 0.3179 0.5505
N5 N 0.11284(11) 0.35249(12) 0.60482(10)
H72 H 0.0993 0.3608 0.6374
H73 H 0.1501 0.3559 0.5980
N6 N 0.09765(12) 0.32112(11) 0.51642(11)
H74 H 0.0740 0.3088 0.4908
H75 H 0.1349 0.3246 0.5096
C51 C -0.03034(13) 0.44560(13) 0.43051(13)
N7 N 0.00716(12) 0.41124(12) 0.40469(12)
H76 H 0.0291 0.4253 0.3785
H77 H 0.0099 0.3745 0.4138
N8 N -0.06222(11) 0.42523(11) 0.47151(10)
H78 H -0.0858 0.4485 0.4893
H79 H -0.0597 0.3885 0.4809
N9 N -0.03434(12) 0.50120(11) 0.41650(12)
H80 H -0.0580 0.5244 0.4343
H81 H -0.0133 0.5148 0.3894
C52 C 0.14360(13) 0.57352(13) 0.39784(12)
N10 N 0.14365(11) 0.51893(11) 0.38004(10)
H82 H 0.1704 0.4946 0.3914
H83 H 0.1169 0.5072 0.3570
N11 N 0.10360(11) 0.61069(11) 0.37976(10)
H84 H 0.1040 0.6469 0.3909
H85 H 0.0769 0.5989 0.3567
N12 N 0.18380(11) 0.59143(11) 0.43266(11)
H86 H 0.2106 0.5673 0.4441
H87 H 0.1836 0.6275 0.4443
C53 C 0.16541(16) 0.55734(18) 0.63270(14)
N13 N 0.16794(17) 0.50145(17) 0.64458(15)
H88 H 0.1918 0.4787 0.6266
H89 H 0.1457 0.4871 0.6704
N14 N 0.12989(15) 0.59197(16) 0.65992(13)
H90 H 0.1286 0.6292 0.6521
H91 H 0.1076 0.5778 0.6858
N15 N 0.19875(11) 0.57905(13) 0.59383(11)
H92 H 0.2227 0.5563 0.5758
H93 H 0.1970 0.6162 0.5860
N16 N -0.2500 0.2500 0.71821(14)
C54 C -0.1976(2) 0.23750(17) 0.75450(16)
H94 H -0.1903 0.2721 0.7774
H95 H -0.2078 0.2053 0.7793
C55 C -0.1415(2) 0.2219(3) 0.7255(3)
H96 H -0.1111 0.2149 0.7526
H97 H -0.1299 0.2539 0.7016
H98 H -0.1474 0.1868 0.7037
C56 C -0.23793(18) 0.3025(3) 0.68203(17)
H99 H -0.2052 0.2930 0.6575
H100 H -0.2724 0.3096 0.6589
C57 C -0.2234(2) 0.3583(2) 0.7124(3)
H101 H -0.2160 0.3893 0.6860
H102 H -0.1889 0.3522 0.7348
H103 H -0.2561 0.3691 0.7357
C54A C -0.3024(2) 0.26250(17) 0.75450(16)
H94A H -0.3097 0.2279 0.7774
H95A H -0.2922 0.2947 0.7793
C55A C -0.3585(2) 0.2781(3) 0.7255(3)
H96A H -0.3889 0.2851 0.7526
H97A H -0.3701 0.2461 0.7016
H98A H -0.3526 0.3132 0.7037
C56A C -0.26207(18) 0.1975(3) 0.68203(17)
H99A H -0.2948 0.2070 0.6575
H100A H -0.2276 0.1904 0.6589
C57A C -0.2766(2) 0.1417(2) 0.7124(3)
H101A H -0.2840 0.1107 0.6860
H102A H -0.3111 0.1478 0.7348
H103A H -0.2439 0.1309 0.7357
N17 N 0.2500 0.2500 0.7500
C58 C 0.19768(15) 0.24441(18) 0.71232(14)
H104 H 0.1957 0.2793 0.6889
H105 H 0.2037 0.2106 0.6881
C59 C 0.13981(17) 0.2373(2) 0.7411(2)
H106 H 0.1088 0.2339 0.7140
H107 H 0.1326 0.2711 0.7643
H108 H 0.1407 0.2023 0.7637
C58A C 0.30232(15) 0.25559(18) 0.71232(14)
C58F C 0.24441(18) 0.30232(15) 0.78768(14)
C58G C 0.25559(18) 0.19768(15) 0.78768(14)
H104A H 0.3043 0.2207 0.6889
H104F H 0.2793 0.3043 0.8111
H104G H 0.2207 0.1957 0.8111
H105A H 0.2963 0.2894 0.6881
H105F H 0.2106 0.2963 0.8119
H105G H 0.2894 0.2037 0.8119
C59A C 0.36019(17) 0.2627(2) 0.7411(2)
C59F C 0.2373(2) 0.36019(17) 0.7589(2)
C59G C 0.2627(2) 0.13981(17) 0.7589(2)
H106A H 0.3912 0.2661 0.7140
H106F H 0.2339 0.3912 0.7860
H106G H 0.2661 0.1088 0.7860
H107A H 0.3674 0.2289 0.7643
H107F H 0.2711 0.3674 0.7357
H107G H 0.2289 0.1326 0.7357
H108A H 0.3593 0.2977 0.7637
H108F H 0.2023 0.3593 0.7363
H108G H 0.2977 0.1407 0.7363
O25 O 0.10994(13) 0.46127(11) 0.49577(11)
H109 H 0.1398 0.4392 0.4921
H110 H 0.1185 0.4762 0.4644
O26 O 0.06671(11) 0.27640(10) 0.32547(9)
H111 H 0.0499 0.2804 0.3560
H112 H 0.0892 0.3050 0.3311
O27 O 0.14111(9) 0.36997(9) 0.32201(9)
H113 H 0.1642 0.3851 0.3454
H114 H 0.1149 0.3952 0.3154
O31 O 0.0097(4) 0.7612(4) 0.3419(4)
H115 H 0.0106 0.7268 0.3295
H116 H 0.0398 0.7524 0.3608
O17? O -0.00113(17) 0.58885(17) 0.32806(15)
O18? O -0.08733(19) 0.5865(2) 0.28788(18)
O19? O -0.10127(17) 0.42242(17) 0.19151(17)
O20? O -0.13164(18) 0.5042(2) 0.22983(19)
C37? C 0.0571(3) 0.5607(4) 0.2263(3)
H49? H 0.0792 0.5753 0.1946
H50? H 0.0795 0.5702 0.2596
C38? C -0.0022(3) 0.5929(3) 0.2288(3)
C39? C -0.0412(5) 0.5723(3) 0.1798(5)
H51? H -0.0806 0.5878 0.1859
H52? H -0.0261 0.5908 0.1463
C40? C -0.0469(4) 0.5074(4) 0.1684(4)
C41? C 0.0133(5) 0.4779(4) 0.1728(4)
H53? H 0.0071 0.4355 0.1736
H54? H 0.0351 0.4869 0.1391
C42? C 0.0517(3) 0.4939(3) 0.2217(3)
C43? C -0.0325(2) 0.5874(2) 0.2855(2)
C44? C -0.0934(3) 0.4741(3) 0.1998(3)
C45? C 0.0268(2) 0.4694(3) 0.2760(2)
C46? C 0.0095(3) 0.6586(3) 0.2228(3)
H55? H 0.0289 0.6660 0.1879
H56? H 0.0343 0.6717 0.2527
H57? H -0.0273 0.6797 0.2239
C47? C -0.0674(4) 0.5032(4) 0.1085(3)
H58? H -0.0770 0.4629 0.0999
H59? H -0.0365 0.5166 0.0843
H60? H -0.1018 0.5275 0.1035
C48? C 0.1133(3) 0.4691(3) 0.2125(3)
H61? H 0.1112 0.4268 0.2100
H62? H 0.1383 0.4799 0.2432
H63? H 0.1294 0.4848 0.1787
O23? O -0.02679(15) 0.46330(17) 0.27969(16)
O24? O 0.0616(6) 0.4614(6) 0.3158(5)
O28? O 0.2576(4) 0.2020(4) 0.2363(3)
O29? O 0.2831(2) 0.1539(2) 0.24298(19)
O30? O 0.2217(4) 0.2207(4) 0.2225(4)
loop_
_geom_bond_atom_site_label_1
_geom_bond_atom_site_label_2
_geom_bond_site_symmetry_1
_geom_bond_site_symmetry_2
O1 C7 1_555 1_555
O2 H1 1_555 1_555
O3 C8 1_555 1_555
O4 C8 1_555 1_555
O5 C9 1_555 1_555
O6 C9 1_555 1_555
C1 H2 1_555 1_555
H3 C1 1_555 1_555
C2 C1 1_555 1_555
C3 C2 1_555 1_555
H4 C3 1_555 1_555
H5 C3 1_555 1_555
C4 C3 1_555 1_555
C5 C4 1_555 1_555
H6 C5 1_555 1_555
H7 C5 1_555 1_555
C6 C1 1_555 1_555
C7 O2 1_555 1_555
C8 C4 1_555 1_555
C9 C6 1_555 1_555
C10 C2 1_555 1_555
H8 C10 1_555 1_555
H9 C10 1_555 1_555
H10 C10 1_555 1_555
C11 C4 1_555 1_555
H11 C11 1_555 1_555
H12 C11 1_555 1_555
H13 C11 1_555 1_555
C12 C6 1_555 1_555
H14 C12 1_555 1_555
H15 C12 1_555 1_555
H16 C12 1_555 1_555
O7 C19 1_555 1_555
O8 H17 1_555 1_555
O9 C20 1_555 1_555
O10 C20 1_555 1_555
O11 C21 1_555 1_555
O12 C21 1_555 1_555
C13 H18 1_555 1_555
H19 C13 1_555 1_555
C14 C13 1_555 1_555
C15 C14 1_555 1_555
H20 C15 1_555 1_555
H21 C15 1_555 1_555
C16 C15 1_555 1_555
C17 C16 1_555 1_555
H22 C17 1_555 1_555
H23 C17 1_555 1_555
C18 C13 1_555 1_555
C19 O8 1_555 1_555
C20 C16 1_555 1_555
C21 C18 1_555 1_555
C22 C14 1_555 1_555
H24 C22 1_555 1_555
H25 C22 1_555 1_555
H26 C22 1_555 1_555
C23 C16 1_555 1_555
H27 C23 1_555 1_555
H28 C23 1_555 1_555
H29 C23 1_555 1_555
C24 C18 1_555 1_555
H30 C24 1_555 1_555
H31 C24 1_555 1_555
H32 C24 1_555 1_555
O13 C31 1_555 1_555
O14 H33 1_555 1_555
O15 C32 1_555 1_555
O16 C32 1_555 1_555
C25 H34 1_555 1_555
H35 C25 1_555 1_555
C26 C25 1_555 1_555
C27 C26 1_555 1_555
H36 C27 1_555 1_555
H37 C27 1_555 1_555
C28 C27 1_555 1_555
C29 C28 1_555 1_555
H38 C29 1_555 1_555
H39 C29 1_555 1_555
C30 C25 1_555 1_555
C31 O14 1_555 1_555
C32 C28 1_555 1_555
C33 C30 1_555 1_555
C34 C26 1_555 1_555
H40 C34 1_555 1_555
H41 C34 1_555 1_555
H42 C34 1_555 1_555
C35 C28 1_555 1_555
H43 C35 1_555 1_555
H44 C35 1_555 1_555
H45 C35 1_555 1_555
C36 C30 1_555 1_555
H46 C36 1_555 1_555
H47 C36 1_555 1_555
H48 C36 1_555 1_555
O21 C33 1_555 1_555
O22 C33 1_555 1_555
C49 N1 1_555 1_555
N1 H64 1_555 1_555
H65 N1 1_555 1_555
N2 C49 1_555 1_555
H66 N2 1_555 1_555
H67 N2 1_555 1_555
N3 C49 1_555 1_555
H68 N3 1_555 1_555
H69 N3 1_555 1_555
C50 N4 1_555 1_555
N4 H70 1_555 1_555
H71 N4 1_555 1_555
N5 C50 1_555 1_555
H72 N5 1_555 1_555
H73 N5 1_555 1_555
N6 C50 1_555 1_555
H74 N6 1_555 1_555
H75 N6 1_555 1_555
C51 N7 1_555 1_555
N7 H76 1_555 1_555
H77 N7 1_555 1_555
N8 C51 1_555 1_555
H78 N8 1_555 1_555
H79 N8 1_555 1_555
N9 C51 1_555 1_555
H80 N9 1_555 1_555
H81 N9 1_555 1_555
C52 N10 1_555 1_555
N10 H82 1_555 1_555
H83 N10 1_555 1_555
N11 C52 1_555 1_555
H84 N11 1_555 1_555
H85 N11 1_555 1_555
N12 C52 1_555 1_555
H86 N12 1_555 1_555
H87 N12 1_555 1_555
C53 N13 1_555 1_555
N13 H88 1_555 1_555
H89 N13 1_555 1_555
N14 C53 1_555 1_555
H90 N14 1_555 1_555
H91 N14 1_555 1_555
N15 C53 1_555 1_555
H92 N15 1_555 1_555
H93 N15 1_555 1_555
N16 C54 1_555 1_555
C54 H94 1_555 1_555
H95 C54 1_555 1_555
C55 C54 1_555 1_555
H96 C55 1_555 1_555
H97 C55 1_555 1_555
H98 C55 1_555 1_555
C56 N16 1_555 1_555
H99 C56 1_555 1_555
H100 C56 1_555 1_555
C57 C56 1_555 1_555
H101 C57 1_555 1_555
H102 C57 1_555 1_555
H103 C57 1_555 1_555
N17 C58 1_555 1_555
C58 H104 1_555 1_555
H105 C58 1_555 1_555
C59 C58 1_555 1_555
H106 C59 1_555 1_555
H107 C59 1_555 1_555
H108 C59 1_555 1_555
O25 H109 1_555 1_555
H110 O25 1_555 1_555
O26 H111 1_555 1_555
H112 O26 1_555 1_555
O27 H113 1_555 1_555
H114 O27 1_555 1_555
O31 H115 1_555 1_555
H116 O31 1_555 1_555
C54A N16 1_555 1_555
H94A C54A 1_555 1_555
H95A C54A 1_555 1_555
C55A C54A 1_555 1_555
H96A C55A 1_555 1_555
H97A C55A 1_555 1_555
H98A C55A 1_555 1_555
C56A N16 1_555 1_555
H99A C56A 1_555 1_555
H100A C56A 1_555 1_555
C57A C56A 1_555 1_555
H101A C57A 1_555 1_555
H102A C57A 1_555 1_555
H103A C57A 1_555 1_555
C58A N17 1_555 1_555
C58F N17 1_555 1_555
C58G N17 1_555 1_555
H104A C58A 1_555 1_555
H104F C58F 1_555 1_555
H104G C58G 1_555 1_555
H105A C58A 1_555 1_555
H105F C58F 1_555 1_555
H105G C58G 1_555 1_555
C59A C58A 1_555 1_555
C59F C58F 1_555 1_555
C59G C58G 1_555 1_555
H106A C59A 1_555 1_555
H106F C59F 1_555 1_555
H106G C59G 1_555 1_555
H107A C59A 1_555 1_555
H107F C59F 1_555 1_555
H107G C59G 1_555 1_555
H108A C59A 1_555 1_555
H108F C59F 1_555 1_555
H108G C59G 1_555 1_555
C2 C7 1_555 1_555
C5 C6 1_555 1_555
C14 C19 1_555 1_555
C17 C18 1_555 1_555
C26 C31 1_555 1_555
C29 C30 1_555 1_555

#END
