
#######################################################################
#
#                 Cambridge Crystallographic Data Centre
#                                CCDC 
#
#######################################################################
#
# If this CIF has been generated from an entry in the Cambridge 
# Structural Database, then it will include bibliographic, chemical, 
# crystal, experimental, refinement or atomic coordinate data resulting 
# from the CCDC's data processing and validation procedures.
#
#######################################################################

data_TUVBUI
_chemical_formula_moiety         'C26 H32 N2 O3'
_chemical_name_systematic        
'4-(1H-Imidazol-1-yl)phenyl 4-(decyloxy)benzoate'
_symmetry_cell_setting           triclinic
_symmetry_space_group_name_H-M   'P -1'
_symmetry_Int_Tables_number      2
_space_group_name_Hall           '-P 1'
loop_
_symmetry_equiv_pos_site_id
_symmetry_equiv_pos_as_xyz
1 x,y,z
2 -x,-y,-z
_cell_length_a                   6.938(4)
_cell_length_b                   12.758(8)
_cell_length_c                   13.766(9)
_cell_angle_alpha                85.627(9)
_cell_angle_beta                 81.205(9)
_cell_angle_gamma                81.976(9)
_cell_volume                     1190.5
_cell_formula_units_Z            2
loop_
_atom_site_label
_atom_site_type_symbol
_atom_site_fract_x
_atom_site_fract_y
_atom_site_fract_z
O1 O 1.1241(4) 0.9242(2) 0.0710(2)
O2 O 1.0152(4) 1.0470(2) 0.18223(19)
O3 O 0.3497(4) 0.7634(2) 0.3177(2)
N1 N 1.5657(5) 1.3323(3) 0.0691(3)
N2 N 1.7172(7) 1.4750(3) 0.0660(3)
C1 C 1.5619(7) 1.4281(4) 0.1080(3)
H1 H 1.4652 1.4567 0.1568
C2 C 1.8217(6) 1.4069(4) -0.0022(3)
H2 H 1.9369 1.4187 -0.0433
C3 C 1.7292(7) 1.3206(3) 0.0009(3)
H3 H 1.7705 1.2624 -0.0374
C4 C 1.4259(6) 1.2574(3) 0.0956(3)
C5 C 1.2289(6) 1.2929(3) 0.1223(3)
H4 H 1.1852 1.3652 0.1224
C6 C 1.0966(5) 1.2200(3) 0.1488(3)
H5 H 0.9642 1.2437 0.1677
C7 C 1.4886(5) 1.1499(3) 0.0947(3)
H6 H 1.6212 1.1259 0.0766
C8 C 1.3552(6) 1.0773(3) 0.1207(3)
H7 H 1.3983 1.0049 0.1201
C9 C 1.1596(6) 1.1128(3) 0.1473(3)
C10 C 1.0061(7) 0.9560(4) 0.1383(3)
C11 C 0.8359(6) 0.9045(3) 0.1869(3)
C12 C 0.7203(6) 0.9390(3) 0.2726(3)
H8 H 0.7507 0.9964 0.3025
C13 C 0.5600(6) 0.8891(3) 0.3143(3)
H9 H 0.4837 0.9127 0.3720
C14 C 0.5139(6) 0.8040(3) 0.2696(3)
C15 C 0.6258(6) 0.7685(3) 0.1842(3)
H10 H 0.5955 0.7111 0.1543
C16 C 0.7851(5) 0.8202(3) 0.1437(3)
H11 H 0.8601 0.7972 0.0855
C17 C 0.2914(5) 0.6755(3) 0.2789(3)
H12 H 0.3933 0.6152 0.2802
H13 H 0.2698 0.6923 0.2111
C18 C 0.1014(5) 0.6491(3) 0.3419(3)
H14 H 0.1216 0.6394 0.4104
H15 H -0.0014 0.7082 0.3363
C19 C 0.0356(5) 0.5504(3) 0.3116(3)
H16 H 0.1391 0.4918 0.3177
H17 H 0.0186 0.5603 0.2427
C20 C -0.1538(5) 0.5205(3) 0.3705(3)
H18 H -0.1420 0.5178 0.4399
H19 H -0.2602 0.5756 0.3588
C21 C -0.2067(5) 0.4163(3) 0.3467(3)
H20 H -0.1017 0.3612 0.3605
H21 H -0.2123 0.4183 0.2766
C22 C -0.3984(5) 0.3850(3) 0.4008(3)
H22 H -0.3941 0.3841 0.4710
H23 H -0.5041 0.4392 0.3859
C23 C -0.4471(6) 0.2796(3) 0.3775(3)
H24 H -0.3453 0.2251 0.3964
H25 H -0.4422 0.2790 0.3067
C24 C -0.6435(6) 0.2498(3) 0.4257(3)
H26 H -0.6500 0.2524 0.4963
H27 H -0.7455 0.3031 0.4052
C25 C -0.6880(7) 0.1466(3) 0.4052(3)
H28 H -0.5896 0.0932 0.4290
H29 H -0.6732 0.1426 0.3343
C26 C -0.8860(6) 0.1173(4) 0.4474(3)
H30 H -0.9040 0.1205 0.5177
H31 H -0.8954 0.0467 0.4308
H32 H -0.9858 0.1660 0.4208
loop_
_geom_bond_atom_site_label_1
_geom_bond_atom_site_label_2
_geom_bond_site_symmetry_1
_geom_bond_site_symmetry_2
O1 C10 1_555 1_555
O2 C9 1_555 1_555
O3 C14 1_555 1_555
N1 C1 1_555 1_555
N2 C1 1_555 1_555
C1 H1 1_555 1_555
C2 N2 1_555 1_555
H2 C2 1_555 1_555
C3 N1 1_555 1_555
H3 C3 1_555 1_555
C4 N1 1_555 1_555
C5 C4 1_555 1_555
H4 C5 1_555 1_555
C6 C5 1_555 1_555
H5 C6 1_555 1_555
C7 C4 1_555 1_555
H6 C7 1_555 1_555
C8 C7 1_555 1_555
H7 C8 1_555 1_555
C9 C6 1_555 1_555
C10 O2 1_555 1_555
C11 C10 1_555 1_555
C12 C11 1_555 1_555
H8 C12 1_555 1_555
C13 C12 1_555 1_555
H9 C13 1_555 1_555
C14 C13 1_555 1_555
C15 C14 1_555 1_555
H10 C15 1_555 1_555
C16 C11 1_555 1_555
H11 C16 1_555 1_555
C17 O3 1_555 1_555
H12 C17 1_555 1_555
H13 C17 1_555 1_555
C18 C17 1_555 1_555
H14 C18 1_555 1_555
H15 C18 1_555 1_555
C19 C18 1_555 1_555
H16 C19 1_555 1_555
H17 C19 1_555 1_555
C20 C19 1_555 1_555
H18 C20 1_555 1_555
H19 C20 1_555 1_555
C21 C20 1_555 1_555
H20 C21 1_555 1_555
H21 C21 1_555 1_555
C22 C21 1_555 1_555
H22 C22 1_555 1_555
H23 C22 1_555 1_555
C23 C22 1_555 1_555
H24 C23 1_555 1_555
H25 C23 1_555 1_555
C24 C23 1_555 1_555
H26 C24 1_555 1_555
H27 C24 1_555 1_555
C25 C24 1_555 1_555
H28 C25 1_555 1_555
H29 C25 1_555 1_555
C26 C25 1_555 1_555
H30 C26 1_555 1_555
H31 C26 1_555 1_555
H32 C26 1_555 1_555
C2 C3 1_555 1_555
C8 C9 1_555 1_555
C15 C16 1_555 1_555

#END
