
#######################################################################
#
#                 Cambridge Crystallographic Data Centre
#                                CCDC 
#
#######################################################################
#
# If this CIF has been generated from an entry in the Cambridge 
# Structural Database, then it will include bibliographic, chemical, 
# crystal, experimental, refinement or atomic coordinate data resulting 
# from the CCDC's data processing and validation procedures.
#
#######################################################################

data_TUVCIW
_chemical_formula_moiety         'C12 H14 Cl1 N1 O3'
_chemical_name_systematic        
'(S)-(-)-3-(Acetylamino)-3-(4-chlorophenyl)propionic acid methyl ester'
_symmetry_cell_setting           monoclinic
_symmetry_space_group_name_H-M   'P 21'
_symmetry_Int_Tables_number      4
_space_group_name_Hall           'P 2yb'
loop_
_symmetry_equiv_pos_site_id
_symmetry_equiv_pos_as_xyz
1 x,y,z
2 -x,1/2+y,-z
_cell_length_a                   5.0460(10)
_cell_length_b                   8.3460(17)
_cell_length_c                   15.246(3)
_cell_angle_alpha                90
_cell_angle_beta                 95.30(3)
_cell_angle_gamma                90
_cell_volume                     639.324
_exptl_crystal_colour            colorless
_exptl_crystal_description       rod
_chemical_melting_point          '127-129 deg.C'
_cell_formula_units_Z            2
loop_
_atom_site_label
_atom_site_type_symbol
_atom_site_fract_x
_atom_site_fract_y
_atom_site_fract_z
Cl1 Cl -0.1808(2) -0.96117(12) -0.34545(6)
O1 O -0.7441(4) -0.7658(3) -0.79718(15)
O2 O -0.3829(6) -1.0984(4) -0.91987(16)
O3 O -0.0162(6) -1.2441(3) -0.89385(15)
N1 N -0.3108(6) -0.8245(3) -0.78304(18)
C1 C -0.4423(7) -0.5723(4) -0.8476(2)
H1 H -0.6013 -0.5112 -0.8625
H2 H -0.3551 -0.5923 -0.8999
H3 H -0.3251 -0.5133 -0.8063
C2 C -0.5129(6) -0.7285(3) -0.80741(17)
C3 C -0.3417(6) -0.9796(4) -0.74244(19)
C4 C -0.1530(7) -1.1021(4) -0.7753(2)
H4 H 0.0269 -1.0609 -0.7649
H5 H -0.1628 -1.1987 -0.7404
C5 C -0.2022(7) -1.1463(4) -0.8704(2)
C6 C -0.0323(11) -1.2936(5) -0.9852(3)
H6 H 0.1131 -1.3642 -0.9939
H7 H -0.0230 -1.2011 -1.0222
H8 H -0.1976 -1.3484 -1.0000
C7 C -0.3061(5) -0.9700(4) -0.64220(18)
C8 C -0.1074(7) -0.8779(4) -0.5990(2)
H9 H 0.0017 -0.8166 -0.6317
C9 C -0.0675(8) -0.8752(4) -0.5080(2)
H10 H 0.0684 -0.8136 -0.4798
C10 C -0.2300(7) -0.9643(4) -0.4598(2)
C11 C -0.4288(8) -1.0538(4) -0.5011(2)
H11 H -0.5396 -1.1131 -0.4679
C12 C -0.4676(7) -1.0573(4) -0.5914(2)
H12 H -0.6043 -1.1194 -0.6188
H13 H -0.534(6) -1.017(3) -0.7632(18)
H14 H -0.177(8) -0.797(4) -0.796(2)
loop_
_geom_bond_atom_site_label_1
_geom_bond_atom_site_label_2
_geom_bond_site_symmetry_1
_geom_bond_site_symmetry_2
Cl1 C10 1_555 1_555
O1 C2 1_555 1_555
O2 C5 1_555 1_555
O3 C5 1_555 1_555
N1 C2 1_555 1_555
C1 H1 1_555 1_555
H2 C1 1_555 1_555
H3 C1 1_555 1_555
C2 C1 1_555 1_555
C3 N1 1_555 1_555
C4 C3 1_555 1_555
H4 C4 1_555 1_555
H5 C4 1_555 1_555
C5 C4 1_555 1_555
C6 O3 1_555 1_555
H6 C6 1_555 1_555
H7 C6 1_555 1_555
H8 C6 1_555 1_555
C7 C3 1_555 1_555
C8 C7 1_555 1_555
H9 C8 1_555 1_555
C9 C8 1_555 1_555
H10 C9 1_555 1_555
C10 C9 1_555 1_555
C11 C10 1_555 1_555
H11 C11 1_555 1_555
C12 C7 1_555 1_555
H12 C12 1_555 1_555
H13 C3 1_555 1_555
H14 N1 1_555 1_555
C11 C12 1_555 1_555

#END
