
#######################################################################
#
#                 Cambridge Crystallographic Data Centre
#                                CCDC 
#
#######################################################################
#
# If this CIF has been generated from an entry in the Cambridge 
# Structural Database, then it will include bibliographic, chemical, 
# crystal, experimental, refinement or atomic coordinate data resulting 
# from the CCDC's data processing and validation procedures.
#
#######################################################################

data_TUVCOC
_chemical_formula_moiety         'C14 H15 N1 O4'
_chemical_name_systematic        
'(Z)-3-(Diacetylamino)-3-phenylacrylic acid methyl ester'
_symmetry_cell_setting           orthorhombic
_symmetry_space_group_name_H-M   'P b c a'
_symmetry_Int_Tables_number      61
_space_group_name_Hall           '-P 2ac 2ab'
loop_
_symmetry_equiv_pos_site_id
_symmetry_equiv_pos_as_xyz
1 x,y,z
2 1/2+x,y,1/2-z
3 x,1/2-y,1/2+z
4 1/2-x,1/2+y,z
5 -x,-y,-z
6 1/2-x,-y,1/2+z
7 -x,1/2+y,1/2-z
8 1/2+x,1/2-y,-z
_cell_length_a                   11.756(2)
_cell_length_b                   7.7350(15)
_cell_length_c                   29.301(6)
_cell_angle_alpha                90
_cell_angle_beta                 90
_cell_angle_gamma                90
_cell_volume                     2664.42
_exptl_crystal_colour            colorless
_exptl_crystal_description       rod
_cell_formula_units_Z            8
loop_
_atom_site_label
_atom_site_type_symbol
_atom_site_fract_x
_atom_site_fract_y
_atom_site_fract_z
O1 O 0.44768(16) 0.1217(3) 0.36803(6)
O2 O 0.67438(18) -0.2356(3) 0.38996(8)
O3 O 0.3685(2) -0.1526(5) 0.46090(8)
O4 O 0.18172(17) -0.1560(3) 0.45040(7)
N1 N 0.49085(17) -0.1597(3) 0.37783(7)
C1 C 0.5875(2) 0.0682(4) 0.42465(10)
H1 H 0.5882 0.1917 0.4277
H2 H 0.6623 0.0285 0.4167
H3 H 0.5647 0.0169 0.4531
C2 C 0.5058(2) 0.0178(4) 0.38829(9)
C3 C 0.5438(3) -0.4662(4) 0.37991(11)
H4 H 0.6096 -0.5378 0.3842
H5 H 0.5118 -0.4879 0.3503
H6 H 0.4883 -0.4923 0.4030
C4 C 0.5771(3) -0.2817(4) 0.38337(10)
C5 C 0.3815(2) -0.2075(4) 0.35971(9)
C6 C 0.2899(2) -0.2030(4) 0.38667(10)
H7 H 0.2200 -0.2253 0.3730
C7 C 0.2888(3) -0.1661(4) 0.43586(10)
C8 C 0.1648(3) -0.1257(6) 0.49868(10)
H8 H 0.0848 -0.1207 0.5051
H9 H 0.1998 -0.0182 0.5071
H10 H 0.1987 -0.2182 0.5158
C9 C 0.3753(2) -0.2476(4) 0.31038(9)
C10 C 0.4630(2) -0.1962(4) 0.28147(9)
H11 H 0.5270 -0.1417 0.2933
C11 C 0.4546(3) -0.2263(4) 0.23487(9)
H12 H 0.5137 -0.1928 0.2157
C12 C 0.3597(3) -0.3055(4) 0.21674(10)
H13 H 0.3533 -0.3220 0.1854
C13 C 0.2741(3) -0.3599(4) 0.24566(10)
H14 H 0.2106 -0.4158 0.2338
C14 C 0.2819(2) -0.3321(4) 0.29197(10)
H15 H 0.2240 -0.3704 0.3111
loop_
_geom_bond_atom_site_label_1
_geom_bond_atom_site_label_2
_geom_bond_site_symmetry_1
_geom_bond_site_symmetry_2
O1 C2 1_555 1_555
O2 C4 1_555 1_555
O3 C7 1_555 1_555
O4 C7 1_555 1_555
N1 C2 1_555 1_555
C1 H1 1_555 1_555
H2 C1 1_555 1_555
H3 C1 1_555 1_555
C2 C1 1_555 1_555
C3 H4 1_555 1_555
H5 C3 1_555 1_555
H6 C3 1_555 1_555
C4 N1 1_555 1_555
C5 N1 1_555 1_555
C6 C5 1_555 1_555
H7 C6 1_555 1_555
C7 C6 1_555 1_555
C8 O4 1_555 1_555
H8 C8 1_555 1_555
H9 C8 1_555 1_555
H10 C8 1_555 1_555
C9 C5 1_555 1_555
C10 C9 1_555 1_555
H11 C10 1_555 1_555
C11 C10 1_555 1_555
H12 C11 1_555 1_555
C12 C11 1_555 1_555
H13 C12 1_555 1_555
C13 C12 1_555 1_555
H14 C13 1_555 1_555
C14 C9 1_555 1_555
H15 C14 1_555 1_555
C3 C4 1_555 1_555
C13 C14 1_555 1_555

#END
