
#######################################################################
#
#                 Cambridge Crystallographic Data Centre
#                                CCDC 
#
#######################################################################
#
# If this CIF has been generated from an entry in the Cambridge 
# Structural Database, then it will include bibliographic, chemical, 
# crystal, experimental, refinement or atomic coordinate data resulting 
# from the CCDC's data processing and validation procedures.
#
#######################################################################

data_TUVDAQ
_chemical_formula_moiety         'C42 H26 N8,2(C2 H6 O1 S1)'
_chemical_name_systematic        
'2,3,7,8-tetrakis(1H-indol-3-yl)pyrazino[2,3-g]quinoxaline dimethyl sulfoxide solvate'
_symmetry_cell_setting           triclinic
_symmetry_space_group_name_H-M   'P -1'
_symmetry_Int_Tables_number      2
_space_group_name_Hall           '-P 1'
loop_
_symmetry_equiv_pos_site_id
_symmetry_equiv_pos_as_xyz
1 x,y,z
2 -x,-y,-z
_cell_length_a                   10.748(2)
_cell_length_b                   11.091(2)
_cell_length_c                   19.448(4)
_cell_angle_alpha                91.83(3)
_cell_angle_beta                 93.22(3)
_cell_angle_gamma                114.31(3)
_cell_volume                     2105.56
_cell_formula_units_Z            2
loop_
_atom_site_label
_atom_site_type_symbol
_atom_site_fract_x
_atom_site_fract_y
_atom_site_fract_z
N1 N 0.47135(18) 0.7321(2) 0.03644(10)
H1 H 0.4174 0.7574 0.0577
N2 N 0.85370(19) 0.8770(2) 0.25055(9)
H2 H 0.8474 0.8851 0.2942
N3 N 0.79328(17) 0.58569(17) -0.02295(8)
N4 N 0.95240(17) 0.64903(17) 0.10401(8)
C1 C 0.8580(2) 0.6909(2) 0.09195(10)
C2 C 0.7687(2) 0.6544(2) 0.02815(10)
C3 C 0.8972(2) 0.5460(2) -0.01168(10)
C4 C 0.9734(2) 0.5719(2) 0.05286(10)
C5 C 1.0758(2) 0.5266(2) 0.06474(10)
C6 C 0.6486(2) 0.6815(2) 0.01711(11)
C7 C 0.5622(2) 0.6555(2) -0.04615(11)
C8 C 0.5643(3) 0.6058(2) -0.11335(12)
H5 H 0.6354 0.5836 -0.1248
C9 C 0.4602(3) 0.5905(3) -0.16190(13)
H6 H 0.4615 0.5576 -0.2063
C10 C 0.3528(3) 0.6234(3) -0.14605(14)
H7 H 0.2827 0.6101 -0.1797
C11 C 0.3488(3) 0.6753(3) -0.08122(14)
H8 H 0.2790 0.7003 -0.0709
C12 C 0.4537(2) 0.6890(2) -0.03172(12)
C13 C 0.5861(2) 0.7284(2) 0.06457(12)
H9 H 0.6195 0.7542 0.1103
C14 C 0.8512(2) 0.7852(2) 0.14657(11)
C15 C 0.8825(2) 0.9222(2) 0.13927(11)
C16 C 0.9103(3) 1.0041(3) 0.08459(13)
H10 H 0.9074 0.9694 0.0401
C17 C 0.9418(3) 1.1355(3) 0.09628(17)
H11 H 0.9603 1.1902 0.0595
C18 C 0.9469(3) 1.1892(3) 0.16288(19)
H12 H 0.9709 1.2796 0.1699
C19 C 0.9170(3) 1.1107(3) 0.21795(15)
H13 H 0.9180 1.1463 0.2620
C20 C 0.8850(2) 0.9766(2) 0.20631(12)
C21 C 0.8340(2) 0.7623(2) 0.21429(11)
H14 H 0.8120 0.6806 0.2332
N1A N 1.52865(18) 0.2679(2) -0.03644(10)
H1A H 1.5826 0.2426 -0.0577
N2A N 1.14630(19) 0.1230(2) -0.25055(9)
H2A H 1.1526 0.1149 -0.2942
N3A N 1.20672(17) 0.41431(17) 0.02295(8)
N4A N 1.04760(17) 0.35097(17) -0.10401(8)
C1A C 1.1420(2) 0.3091(2) -0.09195(10)
C2A C 1.2313(2) 0.3456(2) -0.02815(10)
C3A C 1.1028(2) 0.4540(2) 0.01168(10)
C4A C 1.0266(2) 0.4281(2) -0.05286(10)
C5A C 0.9242(2) 0.4734(2) -0.06474(10)
C6A C 1.3514(2) 0.3185(2) -0.01711(11)
C7A C 1.4378(2) 0.3445(2) 0.04615(11)
C8A C 1.4357(3) 0.3942(2) 0.11335(12)
H5A H 1.3646 0.4164 0.1248
C9A C 1.5398(3) 0.4095(3) 0.16190(13)
H6A H 1.5385 0.4424 0.2063
C10A C 1.6472(3) 0.3766(3) 0.14605(14)
H7A H 1.7173 0.3899 0.1797
C11A C 1.6512(3) 0.3247(3) 0.08122(14)
H8A H 1.7210 0.2997 0.0709
C12A C 1.5463(2) 0.3110(2) 0.03172(12)
C13A C 1.4139(2) 0.2716(2) -0.06457(12)
H9A H 1.3805 0.2458 -0.1103
C14A C 1.1488(2) 0.2148(2) -0.14657(11)
C15A C 1.1175(2) 0.0778(2) -0.13927(11)
C16A C 1.0897(3) -0.0041(3) -0.08459(13)
H10A H 1.0926 0.0306 -0.0401
C17A C 1.0582(3) -0.1355(3) -0.09628(17)
H11A H 1.0397 -0.1902 -0.0595
C18A C 1.0531(3) -0.1892(3) -0.16288(19)
H12A H 1.0291 -0.2796 -0.1699
C19A C 1.0830(3) -0.1107(3) -0.21795(15)
H13A H 1.0820 -0.1463 -0.2620
C20A C 1.1150(2) 0.0234(2) -0.20631(12)
C21A C 1.1660(2) 0.2377(2) -0.21429(11)
H14A H 1.1880 0.3194 -0.2332
N5 N 0.4381(2) 0.7424(2) 0.25515(10)
H3 H 0.4113 0.7535 0.2143
N6 N 0.27867(18) 0.80977(19) 0.50391(10)
H4 H 0.1994 0.8035 0.4887
N7 N 0.73105(16) 0.89752(17) 0.53492(8)
N8 N 0.79103(16) 0.90651(17) 0.39582(8)
C22 C 0.6322(2) 0.8603(2) 0.48504(10)
C23 C 0.6638(2) 0.85458(19) 0.41341(10)
C24 C 0.89498(19) 0.95770(19) 0.44698(9)
C25 C 0.86421(19) 0.9436(2) 0.51784(10)
C26 C 0.9697(2) 0.9859(2) 0.56988(10)
C27 C 0.4958(2) 0.8330(2) 0.50559(11)
C28 C 0.4542(2) 0.8187(2) 0.57576(11)
C29 C 0.5160(2) 0.8156(2) 0.63970(11)
H15 H 0.6066 0.8263 0.6440
C30 C 0.4408(3) 0.7963(3) 0.69718(13)
H16 H 0.4812 0.7921 0.7400
C31 C 0.3077(3) 0.7834(3) 0.69214(14)
H17 H 0.2607 0.7721 0.7319
C32 C 0.2425(2) 0.7866(3) 0.63020(14)
H18 H 0.1523 0.7771 0.6268
C33 C 0.3186(2) 0.8050(2) 0.57214(13)
C34 C 0.3828(2) 0.8258(2) 0.46517(12)
H19 H 0.3795 0.8312 0.4175
C35 C 0.5570(2) 0.7866(2) 0.35727(10)
C36 C 0.4550(2) 0.6519(2) 0.35331(11)
C37 C 0.4196(3) 0.5485(3) 0.39875(15)
H20 H 0.4644 0.5615 0.4425
C38 C 0.3156(3) 0.4265(3) 0.37627(19)
H21 H 0.2913 0.3565 0.4051
C39 C 0.2476(4) 0.4078(3) 0.3112(2)
H22 H 0.1774 0.3256 0.2978
C40 C 0.2809(3) 0.5067(3) 0.26654(16)
H23 H 0.2362 0.4929 0.2228
C41 C 0.3837(2) 0.6280(3) 0.28885(12)
C42 C 0.5413(2) 0.8357(3) 0.29627(12)
H24 H 0.5938 0.9213 0.2842
N5A N 1.5619(2) 1.2576(2) 0.74485(10)
H3A H 1.5887 1.2465 0.7857
N6A N 1.72133(18) 1.19023(19) 0.49609(10)
H4A H 1.8006 1.1965 0.5113
N7A N 1.26895(16) 1.10248(17) 0.46508(8)
N8A N 1.20897(16) 1.09349(17) 0.60418(8)
C22A C 1.3678(2) 1.1397(2) 0.51496(10)
C23A C 1.3362(2) 1.14542(19) 0.58659(10)
C24A C 1.10502(19) 1.04230(19) 0.55302(9)
C25A C 1.13579(19) 1.0564(2) 0.48216(10)
C26A C 1.0303(2) 1.0141(2) 0.43012(10)
C27A C 1.5042(2) 1.1670(2) 0.49441(11)
C28A C 1.5458(2) 1.1813(2) 0.42424(11)
C29A C 1.4840(2) 1.1844(2) 0.36030(11)
H15A H 1.3934 1.1737 0.3560
C30A C 1.5592(3) 1.2037(3) 0.30282(13)
H16A H 1.5188 1.2079 0.2600
C31A C 1.6923(3) 1.2166(3) 0.30786(14)
H17A H 1.7393 1.2279 0.2681
C32A C 1.7575(2) 1.2134(3) 0.36980(14)
H18A H 1.8477 1.2229 0.3732
C33A C 1.6814(2) 1.1950(2) 0.42786(13)
C34A C 1.6172(2) 1.1742(2) 0.53483(12)
H19A H 1.6205 1.1688 0.5825
C35A C 1.4430(2) 1.2134(2) 0.64273(10)
C36A C 1.5450(2) 1.3481(2) 0.64669(11)
C37A C 1.5804(3) 1.4515(3) 0.60125(15)
H20A H 1.5356 1.4385 0.5575
C38A C 1.6844(3) 1.5735(3) 0.62373(19)
H21A H 1.7087 1.6435 0.5949
C39A C 1.7524(4) 1.5922(3) 0.6888(2)
H22A H 1.8226 1.6744 0.7022
C40A C 1.7191(3) 1.4933(3) 0.73346(16)
H23A H 1.7638 1.5071 0.7772
C41A C 1.6163(2) 1.3720(3) 0.71115(12)
C42A C 1.4587(2) 1.1643(3) 0.70373(12)
H24A H 1.4062 1.0787 0.7158
S1 S 0.35545(15) 0.97694(17) 0.14611(9)
O1 O 0.3234(3) 0.8066(3) 0.13196(16)
C43 C 0.2112(6) 0.9157(6) 0.2126(3)
H25 H 0.2516 0.9112 0.2572
H26 H 0.1432 0.8295 0.1971
H27 H 0.1691 0.9769 0.2157
C44 C 0.2598(7) 0.9865(7) 0.0719(4)
H28 H 0.3185 1.0153 0.0348
H29 H 0.2208 1.0486 0.0811
H30 H 0.1878 0.9007 0.0592
S2 S 0.92040(15) 0.57104(15) 0.43845(11)
O2 O 0.9939(4) 0.7039(4) 0.4775(2)
C45 C 0.7696(6) 0.5562(7) 0.4210(4)
H31 H 0.7334 0.5741 0.4622
H32 H 0.7136 0.4675 0.4027
H33 H 0.7699 0.6179 0.3874
C46 C 1.0102(9) 0.5474(9) 0.3828(5)
H34 H 1.0982 0.5617 0.4042
H35 H 1.0217 0.6081 0.3471
H36 H 0.9654 0.4581 0.3632
C47? C 0.2313(9) 0.9750(9) 0.1895(5)
C48? C 0.3617(12) 1.0398(12) 0.1051(6)
C49? C 0.7771(9) 0.5578(10) 0.3788(5)
C50? C 0.9847(12) 0.5833(13) 0.3402(6)
H37? H 0.1694 0.9176 0.2200
H38? H 0.1997 1.0405 0.1754
H39? H 0.3209 1.0182 0.2129
H40? H 0.3972 1.0344 0.0614
H41? H 0.4345 1.0669 0.1409
H42? H 0.3224 1.1035 0.1040
H43? H 0.7219 0.5863 0.4065
H44? H 0.7675 0.4715 0.3911
H45? H 0.7476 0.5541 0.3309
H46? H 1.0820 0.6295 0.3385
H47? H 0.9407 0.5773 0.2950
H48? H 0.9629 0.4957 0.3552
O3? O 0.3728(5) 0.8599(5) 0.1372(2)
O4? O 1.0128(7) 0.7260(7) 0.4408(4)
S3? S 0.23800(17) 0.88730(16) 0.12098(10)
S4? S 0.9333(3) 0.6600(3) 0.39167(16)
loop_
_geom_bond_atom_site_label_1
_geom_bond_atom_site_label_2
_geom_bond_site_symmetry_1
_geom_bond_site_symmetry_2
N1 H1 1_555 1_555
N2 H2 1_555 1_555
N3 C2 1_555 1_555
N4 C1 1_555 1_555
N5 H3 1_555 1_555
N6 H4 1_555 1_555
N7 C22 1_555 1_555
N8 C23 1_555 1_555
C1 C2 1_555 1_555
C2 C6 1_555 1_555
C3 N3 1_555 1_555
C4 N4 1_555 1_555
C5 C4 1_555 1_555
C6 C7 1_555 1_555
C7 C8 1_555 1_555
C8 H5 1_555 1_555
C9 C8 1_555 1_555
H6 C9 1_555 1_555
C10 C9 1_555 1_555
H7 C10 1_555 1_555
C11 C10 1_555 1_555
H8 C11 1_555 1_555
C12 N1 1_555 1_555
C13 N1 1_555 1_555
H9 C13 1_555 1_555
C14 C1 1_555 1_555
C15 C14 1_555 1_555
C16 C15 1_555 1_555
H10 C16 1_555 1_555
C17 C16 1_555 1_555
H11 C17 1_555 1_555
C18 C17 1_555 1_555
H12 C18 1_555 1_555
C19 C18 1_555 1_555
H13 C19 1_555 1_555
C20 N2 1_555 1_555
C21 N2 1_555 1_555
H14 C21 1_555 1_555
C22 C23 1_555 1_555
C23 C35 1_555 1_555
C24 N8 1_555 1_555
C25 N7 1_555 1_555
C26 C25 1_555 1_555
C27 C22 1_555 1_555
C28 C27 1_555 1_555
C29 C28 1_555 1_555
H15 C29 1_555 1_555
C30 C29 1_555 1_555
H16 C30 1_555 1_555
C31 C30 1_555 1_555
H17 C31 1_555 1_555
C32 C31 1_555 1_555
H18 C32 1_555 1_555
C33 N6 1_555 1_555
C34 N6 1_555 1_555
H19 C34 1_555 1_555
C35 C36 1_555 1_555
C36 C37 1_555 1_555
C37 H20 1_555 1_555
C38 C37 1_555 1_555
H21 C38 1_555 1_555
C39 C38 1_555 1_555
H22 C39 1_555 1_555
C40 C39 1_555 1_555
H23 C40 1_555 1_555
C41 N5 1_555 1_555
C42 N5 1_555 1_555
H24 C42 1_555 1_555
S1 O1 1_555 1_555
C43 S1 1_555 1_555
H25 C43 1_555 1_555
H26 C43 1_555 1_555
H27 C43 1_555 1_555
C44 S1 1_555 1_555
H28 C44 1_555 1_555
H29 C44 1_555 1_555
H30 C44 1_555 1_555
S2 O2 1_555 1_555
C45 S2 1_555 1_555
H31 C45 1_555 1_555
H32 C45 1_555 1_555
H33 C45 1_555 1_555
C46 S2 1_555 1_555
H34 C46 1_555 1_555
H35 C46 1_555 1_555
H36 C46 1_555 1_555
N1A H1A 1_555 1_555
N2A H2A 1_555 1_555
N3A C2A 1_555 1_555
N4A C1A 1_555 1_555
N5A H3A 1_555 1_555
N6A H4A 1_555 1_555
N7A C22A 1_555 1_555
N8A C23A 1_555 1_555
C1A C2A 1_555 1_555
C2A C6A 1_555 1_555
C3A C5 1_555 1_555
C4A N4A 1_555 1_555
C5A C3 1_555 1_555
C6A C7A 1_555 1_555
C7A C8A 1_555 1_555
C8A H5A 1_555 1_555
C9A C8A 1_555 1_555
H6A C9A 1_555 1_555
C10A C9A 1_555 1_555
H7A C10A 1_555 1_555
C11A C10A 1_555 1_555
H8A C11A 1_555 1_555
C12A N1A 1_555 1_555
C13A N1A 1_555 1_555
H9A C13A 1_555 1_555
C14A C1A 1_555 1_555
C15A C14A 1_555 1_555
C16A C15A 1_555 1_555
H10A C16A 1_555 1_555
C17A C16A 1_555 1_555
H11A C17A 1_555 1_555
C18A C17A 1_555 1_555
H12A C18A 1_555 1_555
C19A C18A 1_555 1_555
H13A C19A 1_555 1_555
C20A N2A 1_555 1_555
C21A N2A 1_555 1_555
H14A C21A 1_555 1_555
C22A C23A 1_555 1_555
C23A C35A 1_555 1_555
C24A C26 1_555 1_555
C25A N7A 1_555 1_555
C26A C24 1_555 1_555
C27A C22A 1_555 1_555
C28A C27A 1_555 1_555
C29A C28A 1_555 1_555
H15A C29A 1_555 1_555
C30A C29A 1_555 1_555
H16A C30A 1_555 1_555
C31A C30A 1_555 1_555
H17A C31A 1_555 1_555
C32A C31A 1_555 1_555
H18A C32A 1_555 1_555
C33A N6A 1_555 1_555
C34A N6A 1_555 1_555
H19A C34A 1_555 1_555
C35A C36A 1_555 1_555
C36A C37A 1_555 1_555
C37A H20A 1_555 1_555
C38A C37A 1_555 1_555
H21A C38A 1_555 1_555
C39A C38A 1_555 1_555
H22A C39A 1_555 1_555
C40A C39A 1_555 1_555
H23A C40A 1_555 1_555
C41A N5A 1_555 1_555
C42A N5A 1_555 1_555
H24A C42A 1_555 1_555
C3 C4 1_555 1_555
C6 C13 1_555 1_555
C7 C12 1_555 1_555
C11 C12 1_555 1_555
C14 C21 1_555 1_555
C15 C20 1_555 1_555
C19 C20 1_555 1_555
C24 C25 1_555 1_555
C27 C34 1_555 1_555
C28 C33 1_555 1_555
C32 C33 1_555 1_555
C35 C42 1_555 1_555
C36 C41 1_555 1_555
C40 C41 1_555 1_555
N3A C3A 1_555 1_555
N8A C24A 1_555 1_555
C3A C4A 1_555 1_555
C4A C5A 1_555 1_555
C6A C13A 1_555 1_555
C7A C12A 1_555 1_555
C11A C12A 1_555 1_555
C14A C21A 1_555 1_555
C15A C20A 1_555 1_555
C19A C20A 1_555 1_555
C24A C25A 1_555 1_555
C25A C26A 1_555 1_555
C27A C34A 1_555 1_555
C28A C33A 1_555 1_555
C32A C33A 1_555 1_555
C35A C42A 1_555 1_555
C36A C41A 1_555 1_555
C40A C41A 1_555 1_555

#END
