
#######################################################################
#
#                 Cambridge Crystallographic Data Centre
#                                CCDC 
#
#######################################################################
#
# If this CIF has been generated from an entry in the Cambridge 
# Structural Database, then it will include bibliographic, chemical, 
# crystal, experimental, refinement or atomic coordinate data resulting 
# from the CCDC's data processing and validation procedures.
#
#######################################################################

data_TUVLUR
_chemical_formula_moiety         'C21 H19 F6 N1 O3'
_chemical_name_systematic        
(2R,2\aR)-4-Benzyl-2-(1-(3,5-bis(trifluoromethyl)phenyl)ethoxy)morpholin-3-one
_symmetry_cell_setting           orthorhombic
_symmetry_space_group_name_H-M   'P 21 21 21'
_symmetry_Int_Tables_number      19
_space_group_name_Hall           'P 2ac 2ab'
loop_
_symmetry_equiv_pos_site_id
_symmetry_equiv_pos_as_xyz
1 x,y,z
2 1/2-x,-y,1/2+z
3 1/2+x,1/2-y,-z
4 -x,1/2+y,1/2-z
_cell_length_a                   12.644(2)
_cell_length_b                   17.879(2)
_cell_length_c                   9.382(1)
_cell_angle_alpha                90
_cell_angle_beta                 90
_cell_angle_gamma                90
_cell_volume                     2120.91
_exptl_crystal_colour            colorless
_exptl_crystal_description       'irregular block'
_cell_formula_units_Z            4
loop_
_atom_site_label
_atom_site_type_symbol
_atom_site_fract_x
_atom_site_fract_y
_atom_site_fract_z
C1 C 1.0951(9) 0.5040(6) -0.1936(13)
F1 F 1.1037(15) 0.4318(8) -0.2095(17)
F2 F 1.0480(16) 0.5317(10) -0.3123(18)
F3 F 1.1921(14) 0.5302(12) -0.2101(20)
C2 C 1.0857(10) 0.6371(8) 0.2721(20)
F7 F 1.0256(10) 0.6950(7) 0.3165(14)
F8 F 1.1793(10) 0.6613(8) 0.2408(16)
F9 F 1.1015(14) 0.5936(9) 0.3930(15)
O1 O 0.7026(6) 0.3463(4) 0.2053(7)
O2 O 0.7464(5) 0.4297(3) 0.0276(7)
O3 O 0.8699(6) 0.3103(5) -0.0946(10)
N1 N 0.7245(7) 0.2474(4) -0.0175(10)
C3 C 0.7767(8) 0.3641(5) 0.0971(11)
H1 H 0.8452(8) 0.3733(5) 0.1429(11)
C4 C 0.7922(8) 0.3059(5) -0.0134(11)
C5 C 0.6320(8) 0.2419(6) 0.0781(12)
H2 H 0.6466(8) 0.2063(6) 0.1536(12)
H3 H 0.5712(8) 0.2242(6) 0.0249(12)
C6 C 0.6079(9) 0.3179(6) 0.1422(13)
H4 H 0.5832(9) 0.3518(6) 0.0687(13)
H5 H 0.5530(9) 0.3132(6) 0.2139(13)
C7 C 0.7698(7) 0.4986(6) 0.1094(12)
H6 H 0.7584(7) 0.4896(6) 0.2113(12)
C8 C 0.6946(9) 0.5580(6) 0.0572(16)
H7 H 0.6231(9) 0.5424(6) 0.0749(16)
H8 H 0.7046(9) 0.5654(6) -0.0432(16)
H9 H 0.7082(9) 0.6040(6) 0.1068(16)
C9 C 0.8841(7) 0.5211(5) 0.0834(10)
C10 C 0.9389(7) 0.5000(5) -0.0379(10)
H10 H 0.9068(7) 0.4686(5) -0.1041(10)
C11 C 1.0388(8) 0.5247(5) -0.0612(10)
C12 C 1.0892(9) 0.5726(6) 0.0403(13)
H11 H 1.1575(9) 0.5904(6) 0.0251(13)
C13 C 1.0340(8) 0.5917(6) 0.1607(12)
C14 C 0.9332(8) 0.5664(6) 0.1819(12)
H12 H 0.8971(8) 0.5801(6) 0.2642(12)
C15 C 0.7447(9) 0.1829(5) -0.1116(13)
H13 H 0.7279(9) 0.1373(5) -0.0605(13)
H14 H 0.8194(9) 0.1816(5) -0.1350(13)
C16 C 0.6830(9) 0.1851(6) -0.2449(12)
C17 C 0.5988(13) 0.1372(9) -0.2639(16)
H15 H 0.5801(13) 0.1043(9) -0.1915(16)
C18 C 0.5412(16) 0.1376(13) -0.3910(22)
H16 H 0.4862(16) 0.1038(13) -0.4046(22)
C19 C 0.5662(18) 0.1879(16) -0.4951(18)
H17 H 0.5274(18) 0.1887(16) -0.5793(18)
C20 C 0.6472(17) 0.2367(10) -0.4766(16)
H18 H 0.6627(17) 0.2716(10) -0.5471(16)
C21 C 0.7051(13) 0.2348(7) -0.3560(16)
H19 H 0.7617(13) 0.2677(7) -0.3465(16)
F4? F 1.0609(15) 0.4390(9) -0.2506(19)
F5? F 1.0960(19) 0.5535(12) -0.2896(21)
F6? F 1.2017(14) 0.4904(13) -0.1623(22)
F10? F 1.1044(19) 0.7066(11) 0.2300(35)
F11? F 1.1750(16) 0.6112(16) 0.3186(27)
F12? F 1.0419(23) 0.6466(13) 0.3933(20)
loop_
_geom_bond_atom_site_label_1
_geom_bond_atom_site_label_2
_geom_bond_site_symmetry_1
_geom_bond_site_symmetry_2
C1 F1 1_555 1_555
F2 C1 1_555 1_555
F3 C1 1_555 1_555
C2 F7 1_555 1_555
F8 C2 1_555 1_555
F9 C2 1_555 1_555
O1 C3 1_555 1_555
O2 C3 1_555 1_555
O3 C4 1_555 1_555
N1 C4 1_555 1_555
C3 H1 1_555 1_555
C4 C3 1_555 1_555
C5 N1 1_555 1_555
H2 C5 1_555 1_555
H3 C5 1_555 1_555
C6 O1 1_555 1_555
H4 C6 1_555 1_555
H5 C6 1_555 1_555
C7 O2 1_555 1_555
H6 C7 1_555 1_555
C8 C7 1_555 1_555
H7 C8 1_555 1_555
H8 C8 1_555 1_555
H9 C8 1_555 1_555
C9 C7 1_555 1_555
C10 C9 1_555 1_555
H10 C10 1_555 1_555
C11 C1 1_555 1_555
C12 C11 1_555 1_555
H11 C12 1_555 1_555
C13 C2 1_555 1_555
C14 C9 1_555 1_555
H12 C14 1_555 1_555
C15 N1 1_555 1_555
H13 C15 1_555 1_555
H14 C15 1_555 1_555
C16 C15 1_555 1_555
C17 C16 1_555 1_555
H15 C17 1_555 1_555
C18 C17 1_555 1_555
H16 C18 1_555 1_555
C19 C18 1_555 1_555
H17 C19 1_555 1_555
C20 C19 1_555 1_555
H18 C20 1_555 1_555
C21 C16 1_555 1_555
H19 C21 1_555 1_555
C5 C6 1_555 1_555
C10 C11 1_555 1_555
C12 C13 1_555 1_555
C13 C14 1_555 1_555
C20 C21 1_555 1_555

#END
