
#######################################################################
#
#                 Cambridge Crystallographic Data Centre
#                                CCDC 
#
#######################################################################
#
# If this CIF has been generated from an entry in the Cambridge 
# Structural Database, then it will include bibliographic, chemical, 
# crystal, experimental, refinement or atomic coordinate data resulting 
# from the CCDC's data processing and validation procedures.
#
#######################################################################

data_TUVPOR
_chemical_formula_moiety         'C30 H23 N1 O3,0.5(C7 H8)'
_chemical_name_systematic        
'1,16-dimethyl-19-(2-methylphenyl)-19-azahexacyclo[14.5.1.0^2,15^.0^3,8^.0^9,14^.0^17,21^]docosa-2(15),3,5,7,9,11,13-heptaene-18,20,22-trione toluene solvate'
_symmetry_cell_setting           triclinic
_symmetry_space_group_name_H-M   'P -1'
_symmetry_Int_Tables_number      2
_space_group_name_Hall           '-P 1'
loop_
_symmetry_equiv_pos_site_id
_symmetry_equiv_pos_as_xyz
1 x,y,z
2 -x,-y,-z
_cell_length_a                   10.3368(10)
_cell_length_b                   11.1632(11)
_cell_length_c                   12.0626(11)
_cell_angle_alpha                115.035(2)
_cell_angle_beta                 98.760(2)
_cell_angle_gamma                94.132(2)
_cell_volume                     1231.87
_exptl_crystal_colour            colorless
_exptl_crystal_description       block
_cell_formula_units_Z            2
loop_
_atom_site_label
_atom_site_type_symbol
_atom_site_fract_x
_atom_site_fract_y
_atom_site_fract_z
O1 O -0.04860(13) 0.92812(13) 0.27999(13)
O2 O 0.24334(13) 0.71441(14) 0.55543(13)
O3 O 0.48470(12) 0.87767(13) 0.34881(12)
C1 C 0.03810(18) 0.86758(17) 0.29701(17)
C2 C 0.04836(17) 0.78409(18) 0.37109(17)
C3 C 0.18313(17) 0.86342(17) 0.46227(17)
H1 H 0.1676 0.9408 0.5378
C4 C 0.26934(17) 0.77773(18) 0.49953(16)
C5 C 0.39178(17) 0.85937(17) 0.39214(16)
C6 C 0.26175(17) 0.91252(17) 0.38639(16)
H2 H 0.2774 1.0125 0.4247
C7 C 0.17014(18) 0.85386(17) 0.25272(16)
C8 C 0.15275(17) 0.70085(17) 0.19782(16)
C9 C 0.08106(16) 0.65996(17) 0.26588(16)
C10 C 0.04861(16) 0.52116(18) 0.23651(16)
C11 C -0.02019(17) 0.47594(19) 0.30759(18)
H3 H -0.0472 0.5394 0.3787
C12 C -0.04882(18) 0.3421(2) 0.27589(18)
H4 H -0.0957 0.3137 0.3246
C13 C -0.00906(18) 0.24786(19) 0.17220(19)
H5 H -0.0292 0.1552 0.1501
C14 C 0.05888(17) 0.28881(18) 0.10236(18)
H6 H 0.0862 0.2235 0.0326
C15 C 0.08960(16) 0.42530(17) 0.13102(16)
C16 C 0.16467(17) 0.46859(17) 0.05820(16)
C17 C 0.21177(18) 0.37613(19) -0.04389(17)
H7 H 0.1890 0.2831 -0.0692
C18 C 0.2892(2) 0.4173(2) -0.10702(19)
H8 H 0.3199 0.3532 -0.1752
C19 C 0.3233(2) 0.5531(2) -0.0717(2)
H9 H 0.3773 0.5814 -0.1159
C20 C 0.2798(2) 0.6461(2) 0.02617(18)
H10 H 0.3041 0.7385 0.0494
C21 C 0.19929(17) 0.60715(17) 0.09325(16)
C22 C -0.06608(18) 0.7793(2) 0.43418(18)
H11 H -0.0894 0.8693 0.4748
H12 H -0.0405 0.7469 0.4970
H13 H -0.1426 0.7188 0.3717
C23 C 0.1957(2) 0.92915(19) 0.17737(18)
H14 H 0.1446 0.8792 0.0918
H15 H 0.2903 0.9392 0.1758
H16 H 0.1688 1.0177 0.2157
N1 N 0.38737(14) 0.78314(14) 0.45855(13)
C24 C 0.4970(7) 0.7220(7) 0.4889(4)
C25 C 0.5229(3) 0.6031(3) 0.3987(4)
C26 C 0.6277(2) 0.5465(2) 0.4334(4)
H17 H 0.6491 0.4664 0.3734
C27 C 0.7008(2) 0.6050(3) 0.5539(4)
H18 H 0.7723 0.5652 0.5758
C28 C 0.6710(2) 0.7212(3) 0.6432(3)
H19 H 0.7210 0.7604 0.7263
C29 C 0.5675(3) 0.7799(4) 0.6103(3)
H20 H 0.5454 0.8592 0.6708
C30 C 0.4369(2) 0.5364(2) 0.2708(2)
H21 H 0.3436 0.5345 0.2777
H22 H 0.4549 0.4447 0.2273
H23 H 0.4558 0.5864 0.2236
C31 C 0.4339(3) 1.0022(4) -0.0625(3)
C32 C 0.5033(4) 1.1193(3) 0.0365(4)
H24 H 0.4786 1.2033 0.0474
C33 C 0.6090(4) 1.1134(4) 0.1195(3)
H25 H 0.6565 1.1935 0.1872
C34 C 0.6452(4) 0.9905(5) 0.1035(4)
H26 H 0.7174 0.9865 0.1602
C35 C 0.5758(5) 0.8735(4) 0.0045(5)
H27 H 0.6005 0.7894 -0.0064
C36 C 0.4701(4) 0.8793(3) -0.0785(4)
H28 H 0.4226 0.7993 -0.1462
C37 C 0.3184(7) 1.0101(7) -0.1512(7)
H29 H 0.2549 1.0592 -0.1037
H30 H 0.2749 0.9195 -0.2105
H31 H 0.3505 1.0567 -0.1971
C31A C 0.5661(3) 0.9978(4) 0.0625(3)
C32A C 0.4967(4) 0.8807(3) -0.0365(4)
H24A H 0.5214 0.7967 -0.0474
C33A C 0.3910(4) 0.8866(4) -0.1195(3)
H25A H 0.3435 0.8065 -0.1872
C34A C 0.3548(4) 1.0095(5) -0.1035(4)
H26A H 0.2826 1.0135 -0.1602
C35A C 0.4242(5) 1.1265(4) -0.0045(5)
H27A H 0.3995 1.2106 0.0064
C36A C 0.5299(4) 1.1207(3) 0.0785(4)
H28A H 0.5774 1.2007 0.1462
C37A C 0.6816(7) 0.9899(7) 0.1512(7)
H29A H 0.7451 0.9408 0.1037
H30A H 0.7251 1.0805 0.2105
H31A H 0.6495 0.9433 0.1971
C38? C 0.488(6) 0.703(6) 0.4742(19)
C39? C 0.563(2) 0.738(2) 0.5929(16)
C40? C 0.6658(18) 0.666(2) 0.6057(16)
H32? H 0.7132 0.6834 0.6861
C41? C 0.696(2) 0.571(2) 0.4997(17)
H33? H 0.7661 0.5218 0.5071
C42? C 0.627(2) 0.545(2) 0.3831(18)
H34? H 0.6522 0.4804 0.3113
C43? C 0.522(2) 0.609(2) 0.3678(17)
H35? H 0.4740 0.5898 0.2869
C44? C 0.5203(15) 0.8367(15) 0.7050(13)
H36? H 0.5135 0.9203 0.6978
H37? H 0.5853 0.8543 0.7804
H38? H 0.4338 0.8000 0.7105
loop_
_geom_bond_atom_site_label_1
_geom_bond_atom_site_label_2
_geom_bond_site_symmetry_1
_geom_bond_site_symmetry_2
O1 C1 1_555 1_555
O2 C4 1_555 1_555
O3 C5 1_555 1_555
C1 C2 1_555 1_555
C2 C3 1_555 1_555
C3 H1 1_555 1_555
C4 C3 1_555 1_555
C5 C6 1_555 1_555
C6 C3 1_555 1_555
H2 C6 1_555 1_555
C7 C1 1_555 1_555
C8 C7 1_555 1_555
C9 C2 1_555 1_555
C10 C9 1_555 1_555
C11 C10 1_555 1_555
H3 C11 1_555 1_555
C12 C11 1_555 1_555
H4 C12 1_555 1_555
C13 C12 1_555 1_555
H5 C13 1_555 1_555
C14 C13 1_555 1_555
H6 C14 1_555 1_555
C15 C10 1_555 1_555
C16 C15 1_555 1_555
C17 C16 1_555 1_555
H7 C17 1_555 1_555
C18 C17 1_555 1_555
H8 C18 1_555 1_555
C19 C18 1_555 1_555
H9 C19 1_555 1_555
C20 C19 1_555 1_555
H10 C20 1_555 1_555
C21 C8 1_555 1_555
C22 C2 1_555 1_555
H11 C22 1_555 1_555
H12 C22 1_555 1_555
H13 C22 1_555 1_555
C23 C7 1_555 1_555
H14 C23 1_555 1_555
H15 C23 1_555 1_555
H16 C23 1_555 1_555
N1 C4 1_555 1_555
C24 N1 1_555 1_555
C25 C24 1_555 1_555
C26 C25 1_555 1_555
H17 C26 1_555 1_555
C27 C26 1_555 1_555
H18 C27 1_555 1_555
C28 C27 1_555 1_555
H19 C28 1_555 1_555
C29 C24 1_555 1_555
H20 C29 1_555 1_555
C30 C25 1_555 1_555
H21 C30 1_555 1_555
H22 C30 1_555 1_555
H23 C30 1_555 1_555
C31 C32 1_555 1_555
C32 H24 1_555 1_555
C33 C32 1_555 1_555
H25 C33 1_555 1_555
C34 C33 1_555 1_555
H26 C34 1_555 1_555
C35 C34 1_555 1_555
H27 C35 1_555 1_555
C36 C31 1_555 1_555
H28 C36 1_555 1_555
C37 C31 1_555 1_555
H29 C37 1_555 1_555
H30 C37 1_555 1_555
H31 C37 1_555 1_555
C31A C32A 1_555 1_555
C32A H24A 1_555 1_555
C33A C32A 1_555 1_555
H25A C33A 1_555 1_555
C34A C33A 1_555 1_555
H26A C34A 1_555 1_555
C35A C34A 1_555 1_555
H27A C35A 1_555 1_555
C36A C31A 1_555 1_555
H28A C36A 1_555 1_555
C37A C31A 1_555 1_555
H29A C37A 1_555 1_555
H30A C37A 1_555 1_555
H31A C37A 1_555 1_555
C5 N1 1_555 1_555
C6 C7 1_555 1_555
C8 C9 1_555 1_555
C14 C15 1_555 1_555
C16 C21 1_555 1_555
C20 C21 1_555 1_555
C28 C29 1_555 1_555
C35 C36 1_555 1_555
C35A C36A 1_555 1_555

#END
