
#######################################################################
#
#                 Cambridge Crystallographic Data Centre
#                                CCDC 
#
#######################################################################
#
# If this CIF has been generated from an entry in the Cambridge 
# Structural Database, then it will include bibliographic, chemical, 
# crystal, experimental, refinement or atomic coordinate data resulting 
# from the CCDC's data processing and validation procedures.
#
#######################################################################

data_TUVQOS
_chemical_formula_moiety         'C31 H23 N1 O3'
_chemical_name_systematic        
11-(2-methylphenyl)-1,8-diphenyl-14-oxa-11-azatetracyclo[6.5.1.0^2,7^.0^9,13^]tetradeca-2,4,6-triene-10,12-dione
_symmetry_cell_setting           orthorhombic
_symmetry_space_group_name_H-M   'P c a 21'
_symmetry_Int_Tables_number      29
_space_group_name_Hall           'P 2c -2ac'
loop_
_symmetry_equiv_pos_site_id
_symmetry_equiv_pos_as_xyz
1 x,y,z
2 -x,-y,1/2+z
3 1/2-x,y,1/2+z
4 1/2+x,-y,z
_cell_length_a                   7.9417(5)
_cell_length_b                   18.8238(11)
_cell_length_c                   15.5691(9)
_cell_angle_alpha                90
_cell_angle_beta                 90
_cell_angle_gamma                90
_cell_volume                     2327.47
_exptl_crystal_colour            colorless
_exptl_crystal_description       prism
_cell_formula_units_Z            4
loop_
_atom_site_label
_atom_site_type_symbol
_atom_site_fract_x
_atom_site_fract_y
_atom_site_fract_z
O1 O 0.49696(15) 0.37080(6) 0.65586(8)
O2 O 0.61845(18) 0.18620(7) 0.48045(9)
O3 O 0.16154(16) 0.17775(7) 0.65724(10)
N1 N 0.39065(19) 0.16640(7) 0.56842(10)
C1 C 0.6066(2) 0.32103(8) 0.61172(11)
C2 C 0.4740(2) 0.28564(9) 0.55029(11)
H1 H 0.4544 0.3154 0.4980
C3 C 0.5091(2) 0.20892(9) 0.52649(12)
C4 C 0.2744(2) 0.20471(9) 0.61658(12)
C5 C 0.3159(2) 0.28314(8) 0.60787(11)
H2 H 0.2203 0.3100 0.5815
C6 C 0.3804(2) 0.32041(8) 0.69253(11)
C7 C 0.5005(2) 0.26830(9) 0.73507(11)
C8 C 0.6426(2) 0.26785(8) 0.68269(11)
C9 C 0.7756(2) 0.22254(9) 0.69814(12)
H3 H 0.8703 0.2210 0.6609
C10 C 0.7660(2) 0.17911(9) 0.77051(13)
H4 H 0.8570 0.1483 0.7838
C11 C 0.6249(3) 0.18018(9) 0.82374(12)
H5 H 0.6219 0.1505 0.8730
C12 C 0.4878(2) 0.22432(9) 0.80568(12)
H6 H 0.3898 0.2240 0.8406
C13 C 0.7554(2) 0.35879(8) 0.57319(11)
C14 C 0.8210(2) 0.41809(9) 0.61505(13)
H7 H 0.7690 0.4350 0.6661
C15 C 0.9621(2) 0.45269(10) 0.58268(14)
H8 H 1.0051 0.4935 0.6111
C16 C 1.0402(2) 0.42780(10) 0.50903(12)
H9 H 1.1369 0.4513 0.4872
C17 C 0.9766(2) 0.36841(10) 0.46722(12)
H10 H 1.0300 0.3514 0.4167
C18 C 0.8345(2) 0.33366(9) 0.49921(12)
H11 H 0.7917 0.2929 0.4706
C19 C 0.2499(2) 0.35574(9) 0.74771(11)
C20 C 0.2676(2) 0.42632(9) 0.77298(12)
H12 H 0.3617 0.4533 0.7541
C21 C 0.1466(2) 0.45732(9) 0.82627(12)
H13 H 0.1587 0.5054 0.8436
C22 C 0.0090(2) 0.41828(10) 0.85398(12)
H14 H -0.0724 0.4395 0.8906
C23 C -0.0098(2) 0.34813(10) 0.82808(12)
H15 H -0.1050 0.3215 0.8462
C24 C 0.1107(2) 0.31689(9) 0.77560(12)
H16 H 0.0983 0.2687 0.7586
C25 C 0.3929(2) 0.08941(9) 0.56702(14)
C26 C 0.3225(3) 0.05470(10) 0.49688(14)
C27 C 0.3221(3) -0.01929(11) 0.49941(16)
H17 H 0.2723 -0.0448 0.4533
C28 C 0.3922(3) -0.05657(11) 0.56701(17)
H18 H 0.3906 -0.1070 0.5666
C29 C 0.4642(3) -0.02091(11) 0.63484(16)
H19 H 0.5146 -0.0465 0.6807
C30 C 0.4624(3) 0.05319(10) 0.63558(15)
H20 H 0.5086 0.0785 0.6828
C31 C 0.2490(4) 0.09520(12) 0.42334(16)
H21 H 0.1955 0.0621 0.3832
H22 H 0.3386 0.1213 0.3937
H23 H 0.1648 0.1288 0.4449
C32? C 0.359(4) 0.0977(7) 0.5282(13)
C33? C 0.391(3) 0.0464(10) 0.5911(13)
C34? C 0.358(4) -0.0243(10) 0.5689(13)
H24? H 0.3813 -0.0608 0.6094
C35? C 0.293(4) -0.0425(11) 0.4901(14)
H25? H 0.2659 -0.0907 0.4787
C36? C 0.267(3) 0.0074(10) 0.4278(12)
H26? H 0.2365 -0.0057 0.3710
C37? C 0.289(4) 0.0782(10) 0.4512(14)
H27? H 0.2529 0.1142 0.4126
C38? C 0.464(4) 0.0647(14) 0.6768(14)
H28? H 0.5720 0.0891 0.6687
H29? H 0.4821 0.0211 0.7100
H30? H 0.3864 0.0959 0.7079
loop_
_geom_bond_atom_site_label_1
_geom_bond_atom_site_label_2
_geom_bond_site_symmetry_1
_geom_bond_site_symmetry_2
O1 C1 1_555 1_555
O2 C3 1_555 1_555
O3 C4 1_555 1_555
N1 C3 1_555 1_555
C1 C2 1_555 1_555
C2 H1 1_555 1_555
C3 C2 1_555 1_555
C4 N1 1_555 1_555
C5 C2 1_555 1_555
H2 C5 1_555 1_555
C6 O1 1_555 1_555
C7 C6 1_555 1_555
C8 C1 1_555 1_555
C9 C8 1_555 1_555
H3 C9 1_555 1_555
C10 C9 1_555 1_555
H4 C10 1_555 1_555
C11 C10 1_555 1_555
H5 C11 1_555 1_555
C12 C7 1_555 1_555
H6 C12 1_555 1_555
C13 C1 1_555 1_555
C14 C13 1_555 1_555
H7 C14 1_555 1_555
C15 C14 1_555 1_555
H8 C15 1_555 1_555
C16 C15 1_555 1_555
H9 C16 1_555 1_555
C17 C16 1_555 1_555
H10 C17 1_555 1_555
C18 C13 1_555 1_555
H11 C18 1_555 1_555
C19 C6 1_555 1_555
C20 C19 1_555 1_555
H12 C20 1_555 1_555
C21 C20 1_555 1_555
H13 C21 1_555 1_555
C22 C21 1_555 1_555
H14 C22 1_555 1_555
C23 C22 1_555 1_555
H15 C23 1_555 1_555
C24 C19 1_555 1_555
H16 C24 1_555 1_555
C25 N1 1_555 1_555
C26 C25 1_555 1_555
C27 C26 1_555 1_555
H17 C27 1_555 1_555
C28 C27 1_555 1_555
H18 C28 1_555 1_555
C29 C28 1_555 1_555
H19 C29 1_555 1_555
C30 C25 1_555 1_555
H20 C30 1_555 1_555
C31 C26 1_555 1_555
H21 C31 1_555 1_555
H22 C31 1_555 1_555
H23 C31 1_555 1_555
C4 C5 1_555 1_555
C5 C6 1_555 1_555
C7 C8 1_555 1_555
C11 C12 1_555 1_555
C17 C18 1_555 1_555
C23 C24 1_555 1_555
C29 C30 1_555 1_555

#END
