
#######################################################################
#
#                 Cambridge Crystallographic Data Centre
#                                CCDC 
#
#######################################################################
#
# If this CIF has been generated from an entry in the Cambridge 
# Structural Database, then it will include bibliographic, chemical, 
# crystal, experimental, refinement or atomic coordinate data resulting 
# from the CCDC's data processing and validation procedures.
#
#######################################################################

data_TUVTIO
_chemical_formula_moiety         'C34 H38 B1 N1 Si1'
_chemical_name_systematic        
6,6-Dimesityl-3-((trimethylsilyl)ethynyl)-6H-5\l^5^,6\l^5^-pyrido[1,2-b][2,1]benzazaborole
_symmetry_cell_setting           monoclinic
_symmetry_space_group_name_H-M   'P 21/c'
_symmetry_Int_Tables_number      14
_space_group_name_Hall           '-P 2ybc'
loop_
_symmetry_equiv_pos_site_id
_symmetry_equiv_pos_as_xyz
1 x,y,z
2 -x,1/2+y,1/2-z
3 -x,-y,-z
4 x,1/2-y,1/2+z
_cell_length_a                   13.160(2)
_cell_length_b                   21.360(3)
_cell_length_c                   10.8191(17)
_cell_angle_alpha                90
_cell_angle_beta                 105.673(2)
_cell_angle_gamma                90
_cell_volume                     2928.15
_exptl_crystal_colour            colorless
_exptl_crystal_description       thin
_cell_formula_units_Z            4
loop_
_atom_site_label
_atom_site_type_symbol
_atom_site_fract_x
_atom_site_fract_y
_atom_site_fract_z
Si1 Si 0.67826(10) 0.18716(6) 1.22267(11)
B1 B 0.2112(3) 0.40845(16) 0.8237(3)
N1 N 0.26787(19) 0.33807(11) 0.8386(2)
C1 C 0.3519(2) 0.31857(13) 0.9311(3)
H1 H 0.3886 0.3480 0.9931
C2 C 0.3870(2) 0.25741(14) 0.9396(3)
C3 C 0.3303(3) 0.21520(15) 0.8476(4)
H2 H 0.3520 0.1727 0.8499
C4 C 0.2434(3) 0.23494(15) 0.7542(3)
H3 H 0.2048 0.2061 0.6923
C5 C 0.2119(3) 0.29685(14) 0.7501(3)
C6 C 0.1227(3) 0.32767(15) 0.6634(3)
C7 C 0.0532(3) 0.30171(18) 0.5545(4)
H4 H 0.0616 0.2597 0.5300
C8 C -0.0274(3) 0.3383(2) 0.4836(4)
H5 H -0.0759 0.3213 0.4097
C9 C -0.0386(3) 0.3997(2) 0.5188(3)
H6 H -0.0949 0.4244 0.4690
C10 C 0.0315(3) 0.42533(17) 0.6258(3)
H7 H 0.0240 0.4679 0.6471
C11 C 0.1131(2) 0.38957(14) 0.7028(3)
C12 C 0.4792(3) 0.23842(15) 1.0370(3)
C13 C 0.5565(3) 0.21967(16) 1.1136(4)
C14 C 0.7965(6) 0.2342(4) 1.1738(8)
H8 H 0.7812 0.2363 1.0801
H9 H 0.8634 0.2123 1.2088
H10 H 0.8016 0.2767 1.2090
C15 C 0.6939(8) 0.1088(4) 1.1996(10)
H11 H 0.6373 0.0854 1.2218
H12 H 0.7624 0.0950 1.2543
H13 H 0.6911 0.1012 1.1094
C16 C 0.6949(9) 0.2122(6) 1.3846(10)
H14 H 0.6415 0.1921 1.4192
H15 H 0.6869 0.2578 1.3866
H16 H 0.7655 0.2004 1.4367
C17 C 0.1992(2) 0.41931(13) 0.9695(3)
C18 C 0.1094(2) 0.40115(14) 1.0082(3)
C19 C 0.1056(3) 0.40865(16) 1.1347(3)
H17 H 0.0436 0.3963 1.1573
C20 C 0.1887(3) 0.43335(16) 1.2285(3)
C21 C 0.2769(3) 0.45006(15) 1.1924(3)
H18 H 0.3358 0.4661 1.2559
C22 C 0.2842(2) 0.44452(14) 1.0663(3)
C23 C 0.0115(3) 0.37393(19) 0.9164(4)
H19 H -0.0371 0.3594 0.9647
H20 H 0.0314 0.3386 0.8699
H21 H -0.0232 0.4062 0.8549
C24 C 0.1823(4) 0.4411(2) 1.3653(4)
H22 H 0.2527 0.4504 1.4212
H23 H 0.1559 0.4024 1.3939
H24 H 0.1343 0.4757 1.3694
C25 C 0.3865(3) 0.46803(16) 1.0447(3)
H25 H 0.4441 0.4616 1.1228
H26 H 0.3800 0.5128 1.0239
H27 H 0.4017 0.4449 0.9735
C26 C 0.2727(2) 0.46382(13) 0.7690(3)
C27 C 0.2453(2) 0.52684(14) 0.7857(3)
C28 C 0.2984(3) 0.57607(15) 0.7474(3)
H28 H 0.2792 0.6177 0.7624
C29 C 0.3778(3) 0.56702(16) 0.6886(3)
C30 C 0.3989(3) 0.50616(15) 0.6627(3)
H29 H 0.4502 0.4986 0.6173
C31 C 0.3484(2) 0.45515(14) 0.6998(3)
C32 C 0.1592(3) 0.54526(16) 0.8475(4)
H30 H 0.1243 0.5834 0.8068
H31 H 0.1903 0.5529 0.9393
H32 H 0.1073 0.5114 0.8364
C33 C 0.4418(4) 0.62081(19) 0.6592(4)
H33 H 0.3952 0.6566 0.6282
H34 H 0.4757 0.6081 0.5929
H35 H 0.4959 0.6327 0.7372
C34 C 0.3788(3) 0.39145(16) 0.6615(4)
H36 H 0.4245 0.3963 0.6040
H37 H 0.3150 0.3684 0.6171
H38 H 0.4166 0.3683 0.7383
C35? C 0.7751(8) 0.2376(4) 1.2588(10)
C36? C 0.7103(7) 0.1108(4) 1.1477(8)
C37? C 0.6408(7) 0.1591(4) 1.3781(9)
H39? H 0.7823 0.2541 1.3452
H40? H 0.7603 0.2721 1.1967
H41? H 0.8409 0.2169 1.2560
H42? H 0.6611 0.0780 1.1579
H43? H 0.7827 0.0980 1.1907
H44? H 0.7034 0.1174 1.0562
H45? H 0.5737 0.1364 1.3535
H46? H 0.6337 0.1956 1.4302
H47? H 0.6962 0.1315 1.4282
loop_
_geom_bond_atom_site_label_1
_geom_bond_atom_site_label_2
_geom_bond_site_symmetry_1
_geom_bond_site_symmetry_2
Si1 C13 1_555 1_555
B1 N1 1_555 1_555
N1 C1 1_555 1_555
C1 H1 1_555 1_555
C2 C1 1_555 1_555
C3 C2 1_555 1_555
H2 C3 1_555 1_555
C4 C3 1_555 1_555
H3 C4 1_555 1_555
C5 N1 1_555 1_555
C6 C5 1_555 1_555
C7 C6 1_555 1_555
H4 C7 1_555 1_555
C8 C7 1_555 1_555
H5 C8 1_555 1_555
C9 C8 1_555 1_555
H6 C9 1_555 1_555
C10 C9 1_555 1_555
H7 C10 1_555 1_555
C11 B1 1_555 1_555
C12 C2 1_555 1_555
C13 C12 1_555 1_555
C14 Si1 1_555 1_555
H8 C14 1_555 1_555
H9 C14 1_555 1_555
H10 C14 1_555 1_555
C15 Si1 1_555 1_555
H11 C15 1_555 1_555
H12 C15 1_555 1_555
H13 C15 1_555 1_555
C16 Si1 1_555 1_555
H14 C16 1_555 1_555
H15 C16 1_555 1_555
H16 C16 1_555 1_555
C17 B1 1_555 1_555
C18 C17 1_555 1_555
C19 C18 1_555 1_555
H17 C19 1_555 1_555
C20 C19 1_555 1_555
C21 C20 1_555 1_555
H18 C21 1_555 1_555
C22 C17 1_555 1_555
C23 C18 1_555 1_555
H19 C23 1_555 1_555
H20 C23 1_555 1_555
H21 C23 1_555 1_555
C24 C20 1_555 1_555
H22 C24 1_555 1_555
H23 C24 1_555 1_555
H24 C24 1_555 1_555
C25 C22 1_555 1_555
H25 C25 1_555 1_555
H26 C25 1_555 1_555
H27 C25 1_555 1_555
C26 B1 1_555 1_555
C27 C26 1_555 1_555
C28 C27 1_555 1_555
H28 C28 1_555 1_555
C29 C28 1_555 1_555
C30 C29 1_555 1_555
H29 C30 1_555 1_555
C31 C26 1_555 1_555
C32 C27 1_555 1_555
H30 C32 1_555 1_555
H31 C32 1_555 1_555
H32 C32 1_555 1_555
C33 C29 1_555 1_555
H33 C33 1_555 1_555
H34 C33 1_555 1_555
H35 C33 1_555 1_555
C34 C31 1_555 1_555
H36 C34 1_555 1_555
H37 C34 1_555 1_555
H38 C34 1_555 1_555
C4 C5 1_555 1_555
C6 C11 1_555 1_555
C10 C11 1_555 1_555
C21 C22 1_555 1_555
C30 C31 1_555 1_555

#END
