
#######################################################################
#
#                 Cambridge Crystallographic Data Centre
#                                CCDC 
#
#######################################################################
#
# If this CIF has been generated from an entry in the Cambridge 
# Structural Database, then it will include bibliographic, chemical, 
# crystal, experimental, refinement or atomic coordinate data resulting 
# from the CCDC's data processing and validation procedures.
#
#######################################################################

data_TUVTUA
_chemical_formula_moiety         'C23 H8 B1 F10 N1'
_chemical_name_systematic        
6,6-bis(pentafluorophenyl)-6H-5\l^5^,6\l^5^-pyrido[1,2-b][2,1]benzazaborole
_symmetry_cell_setting           monoclinic
_symmetry_space_group_name_H-M   'P 21/n'
_symmetry_Int_Tables_number      14
_space_group_name_Hall           '-P 2yn'
loop_
_symmetry_equiv_pos_site_id
_symmetry_equiv_pos_as_xyz
1 x,y,z
2 1/2-x,1/2+y,1/2-z
3 -x,-y,-z
4 1/2+x,1/2-y,1/2+z
_cell_length_a                   9.5920(2)
_cell_length_b                   13.1877(2)
_cell_length_c                   15.6344(3)
_cell_angle_alpha                90
_cell_angle_beta                 104.3860(10)
_cell_angle_gamma                90
_cell_volume                     1915.68
_exptl_crystal_description       block
_cell_formula_units_Z            4
loop_
_atom_site_label
_atom_site_type_symbol
_atom_site_fract_x
_atom_site_fract_y
_atom_site_fract_z
N1 N 0.69247(13) 0.23251(10) -0.14679(8)
B1 B 0.59149(18) 0.32331(14) -0.12811(11)
F1 F 0.73020(10) 0.35381(8) 0.06164(6)
F2 F 0.63375(11) 0.29089(9) 0.19713(6)
F3 F 0.38700(12) 0.18063(9) 0.17051(7)
F4 F 0.23042(11) 0.14365(9) 0.00306(7)
F5 F 0.32235(10) 0.20823(8) -0.13454(6)
F6 F 0.57742(12) 0.27819(8) -0.31987(7)
F7 F 0.37977(14) 0.34663(9) -0.45748(7)
F8 F 0.15674(12) 0.46334(10) -0.43446(8)
F9 F 0.14164(12) 0.51143(10) -0.26765(9)
F10 F 0.33958(12) 0.44481(9) -0.12854(7)
C1 C 0.65790(19) 0.13425(13) -0.16052(11)
H1 H 0.5633 0.1124 -0.1612
C2 C 0.7572(2) 0.06471(14) -0.17362(12)
H2 H 0.7317 -0.0047 -0.1837
C3 C 0.8953(2) 0.09756(15) -0.17187(12)
H3 H 0.9651 0.0506 -0.1813
C4 C 0.93146(18) 0.19808(14) -0.15651(11)
H4 H 1.0263 0.2208 -0.1544
C5 C 0.82767(16) 0.26581(12) -0.14415(9)
C6 C 0.83922(16) 0.37424(12) -0.12668(9)
C7 C 0.95755(17) 0.43642(14) -0.12432(11)
H5 H 1.0438 0.4093 -0.1344
C8 C 0.94667(19) 0.53793(14) -0.10713(12)
H6 H 1.0256 0.5818 -0.1061
C9 C 0.82070(19) 0.57660(14) -0.09122(11)
H7 H 0.8150 0.6467 -0.0784
C10 C 0.70349(18) 0.51459(13) -0.09375(11)
H8 H 0.6180 0.5423 -0.0830
C11 C 0.71059(15) 0.41194(12) -0.11200(9)
C12 C 0.52983(16) 0.28701(12) -0.04448(10)
C13 C 0.60403(16) 0.30378(12) 0.04284(10)
C14 C 0.55722(17) 0.27095(13) 0.11450(10)
C15 C 0.43195(18) 0.21564(13) 0.10148(11)
C16 C 0.35414(17) 0.19609(13) 0.01659(11)
C17 C 0.40416(16) 0.23139(13) -0.05316(10)
C18 C 0.46657(16) 0.35460(12) -0.21628(10)
C19 C 0.47002(18) 0.33416(13) -0.30266(11)
C20 C 0.3685(2) 0.36973(14) -0.37606(11)
C21 C 0.25775(19) 0.42929(15) -0.36451(12)
C22 C 0.24988(18) 0.45338(15) -0.28041(13)
C23 C 0.35333(17) 0.41679(13) -0.20907(11)
loop_
_geom_bond_atom_site_label_1
_geom_bond_atom_site_label_2
_geom_bond_site_symmetry_1
_geom_bond_site_symmetry_2
N1 B1 1_555 1_555
B1 C11 1_555 1_555
F1 C13 1_555 1_555
F2 C14 1_555 1_555
F3 C15 1_555 1_555
F4 C16 1_555 1_555
F5 C17 1_555 1_555
F6 C19 1_555 1_555
F7 C20 1_555 1_555
F8 C21 1_555 1_555
F9 C22 1_555 1_555
F10 C23 1_555 1_555
C1 N1 1_555 1_555
H1 C1 1_555 1_555
C2 C1 1_555 1_555
H2 C2 1_555 1_555
C3 C2 1_555 1_555
H3 C3 1_555 1_555
C4 C3 1_555 1_555
H4 C4 1_555 1_555
C5 N1 1_555 1_555
C6 C5 1_555 1_555
C7 C6 1_555 1_555
H5 C7 1_555 1_555
C8 C7 1_555 1_555
H6 C8 1_555 1_555
C9 C8 1_555 1_555
H7 C9 1_555 1_555
C10 C9 1_555 1_555
H8 C10 1_555 1_555
C11 C6 1_555 1_555
C12 B1 1_555 1_555
C13 C12 1_555 1_555
C14 C13 1_555 1_555
C15 C14 1_555 1_555
C16 C15 1_555 1_555
C17 C12 1_555 1_555
C18 B1 1_555 1_555
C19 C18 1_555 1_555
C20 C19 1_555 1_555
C21 C20 1_555 1_555
C22 C21 1_555 1_555
C23 C18 1_555 1_555
C4 C5 1_555 1_555
C10 C11 1_555 1_555
C16 C17 1_555 1_555
C22 C23 1_555 1_555

#END
