
#######################################################################
#
#                 Cambridge Crystallographic Data Centre
#                                CCDC 
#
#######################################################################
#
# If this CIF has been generated from an entry in the Cambridge 
# Structural Database, then it will include bibliographic, chemical, 
# crystal, experimental, refinement or atomic coordinate data resulting 
# from the CCDC's data processing and validation procedures.
#
#######################################################################

data_TUVTOU
_chemical_formula_moiety         'C23 H18 B1 N1'
_chemical_name_systematic        
6,6-Diphenyl-6H-5\l^5^,6\l^5^-pyrido[1,2-b][2,1]benzazaborole
_symmetry_cell_setting           triclinic
_symmetry_space_group_name_H-M   'P -1'
_symmetry_Int_Tables_number      2
_space_group_name_Hall           '-P 1'
loop_
_symmetry_equiv_pos_site_id
_symmetry_equiv_pos_as_xyz
1 x,y,z
2 -x,-y,-z
_cell_length_a                   9.0519(15)
_cell_length_b                   9.1725(16)
_cell_length_c                   12.263(2)
_cell_angle_alpha                74.459(2)
_cell_angle_beta                 79.441(2)
_cell_angle_gamma                61.063(2)
_cell_volume                     856.746
_exptl_crystal_description       block
_cell_formula_units_Z            2
loop_
_atom_site_label
_atom_site_type_symbol
_atom_site_fract_x
_atom_site_fract_y
_atom_site_fract_z
B1 B 0.6694(3) 0.8177(3) 0.25844(18)
N1 N 0.7338(2) 0.6612(2) 0.36673(14)
C1 C 0.8311(2) 0.7285(2) 0.17287(15)
C2 C 0.8677(3) 0.7894(3) 0.06178(17)
H1 H 0.7881 0.8965 0.0229
C3 C 1.0178(3) 0.6976(3) 0.00613(17)
H2 H 1.0405 0.7409 -0.0711
C4 C 1.1372(3) 0.5411(3) 0.06219(18)
H3 H 1.2417 0.4788 0.0236
C5 C 1.1032(2) 0.4768(2) 0.17382(17)
H4 H 1.1829 0.3702 0.2132
C6 C 0.9495(2) 0.5723(2) 0.22675(15)
C7 C 0.8865(2) 0.5299(2) 0.34318(16)
C8 C 0.9594(2) 0.3808(2) 0.42400(17)
H5 H 1.0660 0.2906 0.4073
C9 C 0.8755(3) 0.3654(3) 0.52841(17)
H6 H 0.9235 0.2636 0.5842
C10 C 0.7218(3) 0.4974(3) 0.55243(18)
H7 H 0.6637 0.4874 0.6247
C11 C 0.6533(3) 0.6437(3) 0.47089(17)
H8 H 0.5474 0.7346 0.4876
C12 C 0.6664(2) 0.9875(2) 0.27624(16)
C13 C 0.6073(3) 1.1354(2) 0.19207(18)
H9 H 0.5623 1.1364 0.1275
C14 C 0.6121(3) 1.2811(3) 0.1997(2)
H10 H 0.5709 1.3796 0.1406
C15 C 0.6762(3) 1.2841(3) 0.2924(2)
H11 H 0.6809 1.3835 0.2971
C16 C 0.7331(3) 1.1416(3) 0.3776(2)
H12 H 0.7768 1.1422 0.4422
C17 C 0.7270(2) 0.9961(3) 0.36964(18)
H13 H 0.7656 0.8992 0.4301
C18 C 0.4897(2) 0.8482(2) 0.22772(15)
C19 C 0.4768(3) 0.7597(3) 0.15649(17)
H14 H 0.5766 0.6851 0.1200
C20 C 0.3218(3) 0.7779(3) 0.13767(19)
H15 H 0.3171 0.7160 0.0886
C21 C 0.1757(3) 0.8838(3) 0.18881(19)
H16 H 0.0700 0.8946 0.1763
C22 C 0.1835(3) 0.9758(3) 0.25942(19)
H17 H 0.0828 1.0509 0.2949
C23 C 0.3386(2) 0.9572(2) 0.27767(17)
H18 H 0.3423 1.0209 0.3259
loop_
_geom_bond_atom_site_label_1
_geom_bond_atom_site_label_2
_geom_bond_site_symmetry_1
_geom_bond_site_symmetry_2
B1 N1 1_555 1_555
N1 C7 1_555 1_555
C1 B1 1_555 1_555
C2 C1 1_555 1_555
H1 C2 1_555 1_555
C3 C2 1_555 1_555
H2 C3 1_555 1_555
C4 C3 1_555 1_555
H3 C4 1_555 1_555
C5 C4 1_555 1_555
H4 C5 1_555 1_555
C6 C1 1_555 1_555
C7 C6 1_555 1_555
C8 C7 1_555 1_555
H5 C8 1_555 1_555
C9 C8 1_555 1_555
H6 C9 1_555 1_555
C10 C9 1_555 1_555
H7 C10 1_555 1_555
C11 N1 1_555 1_555
H8 C11 1_555 1_555
C12 B1 1_555 1_555
C13 C12 1_555 1_555
H9 C13 1_555 1_555
C14 C13 1_555 1_555
H10 C14 1_555 1_555
C15 C14 1_555 1_555
H11 C15 1_555 1_555
C16 C15 1_555 1_555
H12 C16 1_555 1_555
C17 C12 1_555 1_555
H13 C17 1_555 1_555
C18 B1 1_555 1_555
C19 C18 1_555 1_555
H14 C19 1_555 1_555
C20 C19 1_555 1_555
H15 C20 1_555 1_555
C21 C20 1_555 1_555
H16 C21 1_555 1_555
C22 C21 1_555 1_555
H17 C22 1_555 1_555
C23 C18 1_555 1_555
H18 C23 1_555 1_555
C5 C6 1_555 1_555
C10 C11 1_555 1_555
C16 C17 1_555 1_555
C22 C23 1_555 1_555

#END
