
#######################################################################
#
#                 Cambridge Crystallographic Data Centre
#                                CCDC 
#
#######################################################################
#
# If this CIF has been generated from an entry in the Cambridge 
# Structural Database, then it will include bibliographic, chemical, 
# crystal, experimental, refinement or atomic coordinate data resulting 
# from the CCDC's data processing and validation procedures.
#
#######################################################################

data_TUVVEN
_chemical_formula_moiety         'C31 H25 F3 N2 O3 S1'
_chemical_name_systematic        
4-(4-methoxyphenyl)-1-((4-methylphenyl)sulfonyl)-6-phenyl-2-(4-(trifluoromethyl)phenyl)-1,6-dihydropyrimidine
_symmetry_cell_setting           triclinic
_symmetry_space_group_name_H-M   'P -1'
_symmetry_Int_Tables_number      2
_space_group_name_Hall           '-P 1'
loop_
_symmetry_equiv_pos_site_id
_symmetry_equiv_pos_as_xyz
1 x,y,z
2 -x,-y,-z
_cell_length_a                   8.1822(8)
_cell_length_b                   10.6108(10)
_cell_length_c                   15.5882(15)
_cell_angle_alpha                81.6970(10)
_cell_angle_beta                 88.0240(10)
_cell_angle_gamma                78.0910(10)
_cell_volume                     1310.34
_exptl_crystal_colour            'pale yellow'
_exptl_crystal_description       needle
_cell_formula_units_Z            2
loop_
_atom_site_label
_atom_site_type_symbol
_atom_site_fract_x
_atom_site_fract_y
_atom_site_fract_z
C1 C 0.77318(16) 0.21038(12) 0.25304(8)
N1 N 0.78976(13) 0.13748(10) 0.33784(7)
C2 C 0.89683(16) 0.00449(12) 0.34137(8)
H1 H 0.9354 -0.0254 0.4025
C3 C 1.04808(17) 0.01120(13) 0.28520(9)
H2 H 1.1499 -0.0493 0.2987
C4 C 1.03871(16) 0.10326(12) 0.21578(8)
N2 N 0.88590(14) 0.19083(10) 0.19486(7)
C5 C 0.61461(16) 0.30292(12) 0.22839(8)
C6 C 0.61897(17) 0.41193(13) 0.16644(9)
H3 H 0.7232 0.4302 0.1456
C7 C 0.47192(18) 0.49283(13) 0.13566(9)
H4 H 0.4746 0.5673 0.0941
C8 C 0.31966(17) 0.46420(13) 0.16608(9)
C9 C 0.31419(17) 0.35681(13) 0.22761(8)
H5 H 0.2098 0.3382 0.2480
C10 C 0.46160(16) 0.27696(13) 0.25916(8)
H6 H 0.4584 0.2041 0.3020
C11 C 0.16177(18) 0.55223(14) 0.13197(10)
F1 F 0.02509(10) 0.50296(9) 0.15262(7)
F2 F 0.13528(11) 0.66700(8) 0.16337(6)
F3 F 0.16357(11) 0.58195(9) 0.04550(6)
S1 S 0.77234(4) 0.21345(3) 0.42530(2)
O1 O 0.61138(11) 0.29728(9) 0.42289(6)
O2 O 0.81538(12) 0.11232(9) 0.49733(6)
C12 C 0.92210(16) 0.31234(13) 0.41484(8)
C13 C 0.87397(17) 0.44285(13) 0.38138(9)
H7 H 0.7626 0.4778 0.3624
C14 C 0.99096(18) 0.52127(14) 0.37604(9)
H8 H 0.9590 0.6106 0.3529
C15 C 1.15431(18) 0.47178(14) 0.40390(9)
C16 C 1.19903(17) 0.34002(14) 0.43749(9)
H9 H 1.3100 0.3051 0.4571
C17 C 1.08494(17) 0.25972(13) 0.44270(8)
H10 H 1.1170 0.1700 0.4649
C18 C 1.2821(2) 0.55635(15) 0.39650(10)
H11 H 1.3649 0.5301 0.3521
H12 H 1.3379 0.5466 0.4524
H13 H 1.2267 0.6474 0.3801
C19 C 0.78878(16) -0.08699(12) 0.31816(8)
C20 C 0.65665(17) -0.11038(13) 0.37327(9)
H14 H 0.6353 -0.0687 0.4237
C21 C 0.55646(18) -0.19357(14) 0.35518(9)
H15 H 0.4675 -0.2092 0.3933
C22 C 0.58618(19) -0.25404(14) 0.28135(10)
H16 H 0.5174 -0.3110 0.2687
C23 C 0.71613(19) -0.23116(14) 0.22631(10)
H17 H 0.7365 -0.2725 0.1757
C24 C 0.81742(18) -0.14782(13) 0.24464(9)
H18 H 0.9066 -0.1327 0.2065
C25 C 1.17629(16) 0.12140(12) 0.15390(8)
C26 C 1.33767(17) 0.04845(13) 0.16694(9)
H19 H 1.3589 -0.0182 0.2153
C27 C 1.46836(17) 0.06987(13) 0.11173(9)
H20 H 1.5772 0.0183 0.1222
C28 C 1.43918(17) 0.16772(13) 0.04062(9)
C29 C 1.27808(17) 0.24038(13) 0.02570(9)
H21 H 1.2569 0.3064 -0.0230
C30 C 1.14866(17) 0.21740(13) 0.08108(9)
H22 H 1.0392 0.2674 0.0696
O3 O 1.55941(12) 0.19809(9) -0.01685(6)
C31 C 1.72686(17) 0.12647(14) -0.00088(10)
H23 H 1.7657 0.1435 0.0543
H24 H 1.8001 0.1537 -0.0479
H25 H 1.7292 0.0332 0.0019
loop_
_geom_bond_atom_site_label_1
_geom_bond_atom_site_label_2
_geom_bond_site_symmetry_1
_geom_bond_site_symmetry_2
C1 N1 1_555 1_555
N1 C2 1_555 1_555
C2 H1 1_555 1_555
C3 C2 1_555 1_555
H2 C3 1_555 1_555
C4 C3 1_555 1_555
N2 C1 1_555 1_555
C5 C1 1_555 1_555
C6 C5 1_555 1_555
H3 C6 1_555 1_555
C7 C6 1_555 1_555
H4 C7 1_555 1_555
C8 C7 1_555 1_555
C9 C8 1_555 1_555
H5 C9 1_555 1_555
C10 C5 1_555 1_555
H6 C10 1_555 1_555
C11 C8 1_555 1_555
F1 C11 1_555 1_555
F2 C11 1_555 1_555
F3 C11 1_555 1_555
S1 N1 1_555 1_555
O1 S1 1_555 1_555
O2 S1 1_555 1_555
C12 S1 1_555 1_555
C13 C12 1_555 1_555
H7 C13 1_555 1_555
C14 C13 1_555 1_555
H8 C14 1_555 1_555
C15 C14 1_555 1_555
C16 C15 1_555 1_555
H9 C16 1_555 1_555
C17 C12 1_555 1_555
H10 C17 1_555 1_555
C18 C15 1_555 1_555
H11 C18 1_555 1_555
H12 C18 1_555 1_555
H13 C18 1_555 1_555
C19 C2 1_555 1_555
C20 C19 1_555 1_555
H14 C20 1_555 1_555
C21 C20 1_555 1_555
H15 C21 1_555 1_555
C22 C21 1_555 1_555
H16 C22 1_555 1_555
C23 C22 1_555 1_555
H17 C23 1_555 1_555
C24 C19 1_555 1_555
H18 C24 1_555 1_555
C25 C4 1_555 1_555
C26 C25 1_555 1_555
H19 C26 1_555 1_555
C27 C26 1_555 1_555
H20 C27 1_555 1_555
C28 C27 1_555 1_555
C29 C28 1_555 1_555
H21 C29 1_555 1_555
C30 C25 1_555 1_555
H22 C30 1_555 1_555
O3 C28 1_555 1_555
C31 O3 1_555 1_555
H23 C31 1_555 1_555
H24 C31 1_555 1_555
H25 C31 1_555 1_555
C4 N2 1_555 1_555
C9 C10 1_555 1_555
C16 C17 1_555 1_555
C23 C24 1_555 1_555
C29 C30 1_555 1_555

#END
