
#######################################################################
#
#                 Cambridge Crystallographic Data Centre
#                                CCDC 
#
#######################################################################
#
# If this CIF has been generated from an entry in the Cambridge 
# Structural Database, then it will include bibliographic, chemical, 
# crystal, experimental, refinement or atomic coordinate data resulting 
# from the CCDC's data processing and validation procedures.
#
#######################################################################

data_TUWTAH
_chemical_formula_moiety         'C32 H28 Br1 N1 O4 S1'
_chemical_name_systematic        
3-(3-(4-Bromophenyl)-1-oxo-1-phenylpentan-2-yl)-2-((4-methylphenyl)sulfonyl)isoindolin-1-one
_symmetry_cell_setting           monoclinic
_symmetry_space_group_name_H-M   'P 21'
_symmetry_Int_Tables_number      4
_space_group_name_Hall           'P 2yb'
loop_
_symmetry_equiv_pos_site_id
_symmetry_equiv_pos_as_xyz
1 x,y,z
2 -x,1/2+y,-z
_cell_length_a                   10.8388(13)
_cell_length_b                   6.2131(8)
_cell_length_c                   20.914(3)
_cell_angle_alpha                90
_cell_angle_beta                 95.304(7)
_cell_angle_gamma                90
_cell_volume                     1402.37
_exptl_crystal_colour            colorless
_exptl_crystal_description       block
_cell_formula_units_Z            2
loop_
_atom_site_label
_atom_site_type_symbol
_atom_site_fract_x
_atom_site_fract_y
_atom_site_fract_z
Br1 Br 1.26772(3) 0.38231(12) 0.96498(2)
C1 C 0.4993(3) -0.1104(8) 0.81005(18)
H1 H 0.5680 -0.2006 0.8113
C2 C 0.3979(4) -0.1620(9) 0.8433(2)
H2 H 0.3998 -0.2875 0.8676
C3 C 0.2956(4) -0.0331(9) 0.8412(2)
H3 H 0.2293 -0.0713 0.8641
C4 C 0.2900(4) 0.1517(8) 0.8057(2)
H4 H 0.2202 0.2394 0.8036
C5 C 0.3904(3) 0.2045(7) 0.77311(19)
C6 C 0.4062(3) 0.3899(8) 0.73157(16)
C7 C 0.5906(3) 0.1719(6) 0.73601(17)
H5 H 0.5995 0.0764 0.6994
C8 C 0.4951(3) 0.0764(6) 0.77562(18)
C9 C 0.7232(3) 0.2160(6) 0.77063(17)
H6 H 0.7554 0.3496 0.7535
C10 C 0.7311(3) 0.2325(6) 0.84449(17)
H7 H 0.7020 0.0951 0.8606
C11 C 0.8647(3) 0.2628(7) 0.87287(18)
C12 C 0.9281(4) 0.4501(7) 0.8611(2)
H8 H 0.8893 0.5551 0.8347
C13 C 1.0475(4) 0.4838(8) 0.8877(2)
H9 H 1.0894 0.6092 0.8787
C14 C 1.1038(3) 0.3310(8) 0.92746(19)
C15 C 1.0444(3) 0.1434(8) 0.93938(19)
H10 H 1.0839 0.0384 0.9655
C16 C 0.9251(3) 0.1118(7) 0.91211(18)
H11 H 0.8844 -0.0154 0.9205
C17 C 0.6491(3) 0.4097(8) 0.86880(16)
H12 H 0.6897 0.5477 0.8651
H13 H 0.5712 0.4139 0.8419
C18 C 0.6226(4) 0.3751(12) 0.93861(19)
H14 H 0.5862 0.2357 0.9430
H15 H 0.5664 0.4839 0.9508
H16 H 0.6987 0.3840 0.9659
C19 C 0.8071(3) 0.0290(6) 0.75401(18)
C20 C 0.9200(3) 0.0642(7) 0.71950(18)
C21 C 0.9451(3) 0.2544(7) 0.6889(2)
H17 H 0.8910 0.3701 0.6903
C22 C 1.0499(4) 0.2747(8) 0.6561(2)
H18 H 1.0660 0.4031 0.6357
C23 C 1.1303(4) 0.1029(10) 0.6541(2)
H19 H 1.2002 0.1155 0.6317
C24 C 1.1081(3) -0.0849(10) 0.6847(2)
H20 H 1.1635 -0.1990 0.6840
C25 C 1.0028(3) -0.1049(9) 0.71659(17)
H21 H 0.9870 -0.2345 0.7366
C26 C 0.4407(3) 0.4270(7) 0.58718(17)
C27 C 0.3497(4) 0.5759(7) 0.5700(2)
H22 H 0.3521 0.7112 0.5891
C28 C 0.2544(4) 0.5222(10) 0.5239(2)
H23 H 0.1938 0.6237 0.5116
C29 C 0.2480(4) 0.3215(10) 0.4962(2)
C30 C 0.3399(4) 0.1759(8) 0.51427(19)
H24 H 0.3367 0.0400 0.4956
C31 C 0.4364(3) 0.2251(7) 0.55912(19)
H25 H 0.4980 0.1243 0.5704
C32 C 0.1424(4) 0.2652(11) 0.4464(3)
H26 H 0.1556 0.3332 0.4064
H27 H 0.0656 0.3149 0.4606
H28 H 0.1389 0.1120 0.4406
N1 N 0.5271(2) 0.3734(6) 0.71140(12)
O1 O 0.3342(2) 0.5325(5) 0.71450(14)
O2 O 0.7810(2) -0.1515(5) 0.77048(13)
O3 O 0.67291(18) 0.3860(6) 0.62888(10)
O4 O 0.5630(3) 0.7193(4) 0.65415(14)
S1 S 0.56264(9) 0.49242(16) 0.64473(5)
loop_
_geom_bond_atom_site_label_1
_geom_bond_atom_site_label_2
_geom_bond_site_symmetry_1
_geom_bond_site_symmetry_2
Br1 C14 1_555 1_555
C1 H1 1_555 1_555
C2 C1 1_555 1_555
H2 C2 1_555 1_555
C3 C2 1_555 1_555
H3 C3 1_555 1_555
C4 C3 1_555 1_555
H4 C4 1_555 1_555
C5 C4 1_555 1_555
C6 C5 1_555 1_555
C7 H5 1_555 1_555
C8 C1 1_555 1_555
C9 C7 1_555 1_555
H6 C9 1_555 1_555
C10 C9 1_555 1_555
H7 C10 1_555 1_555
C11 C10 1_555 1_555
C12 C11 1_555 1_555
H8 C12 1_555 1_555
C13 C12 1_555 1_555
H9 C13 1_555 1_555
C14 C13 1_555 1_555
C15 C14 1_555 1_555
H10 C15 1_555 1_555
C16 C11 1_555 1_555
H11 C16 1_555 1_555
C17 C10 1_555 1_555
H12 C17 1_555 1_555
H13 C17 1_555 1_555
C18 C17 1_555 1_555
H14 C18 1_555 1_555
H15 C18 1_555 1_555
H16 C18 1_555 1_555
C19 C9 1_555 1_555
C20 C19 1_555 1_555
C21 C20 1_555 1_555
H17 C21 1_555 1_555
C22 C21 1_555 1_555
H18 C22 1_555 1_555
C23 C22 1_555 1_555
H19 C23 1_555 1_555
C24 C23 1_555 1_555
H20 C24 1_555 1_555
C25 C20 1_555 1_555
H21 C25 1_555 1_555
C26 C27 1_555 1_555
C27 H22 1_555 1_555
C28 C27 1_555 1_555
H23 C28 1_555 1_555
C29 C28 1_555 1_555
C30 C29 1_555 1_555
H24 C30 1_555 1_555
C31 C26 1_555 1_555
H25 C31 1_555 1_555
C32 C29 1_555 1_555
H26 C32 1_555 1_555
H27 C32 1_555 1_555
H28 C32 1_555 1_555
N1 C6 1_555 1_555
O1 C6 1_555 1_555
O2 C19 1_555 1_555
O3 S1 1_555 1_555
O4 S1 1_555 1_555
S1 C26 1_555 1_555
C5 C8 1_555 1_555
C7 C8 1_555 1_555
C7 N1 1_555 1_555
C15 C16 1_555 1_555
C24 C25 1_555 1_555
C30 C31 1_555 1_555
N1 S1 1_555 1_555

#END
