
#######################################################################
#
#                 Cambridge Crystallographic Data Centre
#                                CCDC 
#
#######################################################################
#
# If this CIF has been generated from an entry in the Cambridge 
# Structural Database, then it will include bibliographic, chemical, 
# crystal, experimental, refinement or atomic coordinate data resulting 
# from the CCDC's data processing and validation procedures.
#
#######################################################################

data_TUWWOX
_chemical_formula_moiety         'C5 H9 F2 N1 O1'
_chemical_name_systematic        2-Fluoro-N-(2-fluoroethyl)propionamide
_symmetry_cell_setting           monoclinic
_symmetry_space_group_name_H-M   'P 21'
_symmetry_Int_Tables_number      4
_space_group_name_Hall           'P 2yb'
loop_
_symmetry_equiv_pos_site_id
_symmetry_equiv_pos_as_xyz
1 x,y,z
2 -x,1/2+y,-z
_cell_length_a                   4.5366(9)
_cell_length_b                   16.608(3)
_cell_length_c                   5.103(1)
_cell_angle_alpha                90
_cell_angle_beta                 113.94(3)
_cell_angle_gamma                90
_cell_volume                     351.403
_exptl_crystal_colour            colorless
_cell_formula_units_Z            2
_exptl_crystal_recrystallization_method dichloromethane
loop_
_atom_site_label
_atom_site_type_symbol
_atom_site_fract_x
_atom_site_fract_y
_atom_site_fract_z
O1 O 0.4789(9) 0.1130(2) -0.1041(6)
N1 N 0.5161(9) 0.12698(19) 0.3495(7)
F1 F 0.1332(8) 0.0050(2) 0.2957(6)
F2 F 0.3035(12) 0.2914(3) 0.2276(17)
C1 C 0.3407(16) -0.0574(3) -0.0096(13)
H1 H 0.1965 -0.1020 -0.0375
H2 H 0.5413 -0.0684 0.1496
H3 H 0.3790 -0.0495 -0.1795
C2 C 0.1918(12) 0.0176(3) 0.0510(9)
C3 C 0.4145(10) 0.0913(2) 0.0968(8)
C4 C 0.7241(12) 0.1978(3) 0.4192(11)
C5 C 0.562(2) 0.2700(4) 0.4658(18)
H4 H 0.4936 0.2596 0.6196
H5 H 0.7145 0.3144 0.5247
H6 H 0.479(12) 0.107(3) 0.493(12)
H7 H -0.026(13) 0.025(4) -0.124(11)
H8 H 0.839(19) 0.204(5) 0.320(16)
H9 H 0.91(2) 0.180(5) 0.595(16)
loop_
_geom_bond_atom_site_label_1
_geom_bond_atom_site_label_2
_geom_bond_site_symmetry_1
_geom_bond_site_symmetry_2
O1 C3 1_555 1_555
N1 C3 1_555 1_555
F1 C2 1_555 1_555
F2 C5 1_555 1_555
C1 H1 1_555 1_555
H2 C1 1_555 1_555
H3 C1 1_555 1_555
C2 C1 1_555 1_555
C3 C2 1_555 1_555
C4 N1 1_555 1_555
C5 C4 1_555 1_555
H4 C5 1_555 1_555
H5 C5 1_555 1_555
H6 N1 1_555 1_555
H7 C2 1_555 1_555
H8 C4 1_555 1_555
H9 C4 1_555 1_555

#END
