
#######################################################################
#
#                 Cambridge Crystallographic Data Centre
#                                CCDC 
#
#######################################################################
#
# If this CIF has been generated from an entry in the Cambridge 
# Structural Database, then it will include bibliographic, chemical, 
# crystal, experimental, refinement or atomic coordinate data resulting 
# from the CCDC's data processing and validation procedures.
#
#######################################################################

data_TUWYAM
_chemical_formula_moiety         'C27 H21 Cl1 N2'
_chemical_name_systematic        
10-Chloro-3-methyl-8-phenyl-5,6,7,14-tetrahydroindolo[3',2':6,7]cyclohepta[1,2-b]quinoline
_symmetry_cell_setting           triclinic
_symmetry_space_group_name_H-M   'P -1'
_symmetry_Int_Tables_number      2
_space_group_name_Hall           '-P 1'
loop_
_symmetry_equiv_pos_site_id
_symmetry_equiv_pos_as_xyz
1 x,y,z
2 -x,-y,-z
_cell_length_a                   10.1826(8)
_cell_length_b                   12.3918(7)
_cell_length_c                   16.3825(8)
_cell_angle_alpha                91.6260(10)
_cell_angle_beta                 95.7180(10)
_cell_angle_gamma                94.9660(10)
_cell_volume                     2047.72
_exptl_crystal_colour            yellow
_exptl_crystal_description       plate
_cell_formula_units_Z            4
loop_
_atom_site_label
_atom_site_type_symbol
_atom_site_fract_x
_atom_site_fract_y
_atom_site_fract_z
C1 C 0.53636(11) 1.01438(9) 0.89463(7)
C2 C 0.67166(12) 1.04746(10) 0.89964(7)
H1 H 0.7360 0.9962 0.9008
C3 C 0.70837(13) 1.15759(10) 0.90278(8)
H2 H 0.7999 1.1819 0.9061
C4 C 0.61484(13) 1.23536(10) 0.90128(8)
C5 C 0.48119(13) 1.20116(10) 0.89517(7)
H3 H 0.4174 1.2528 0.8932
C6 C 0.43992(12) 1.08948(9) 0.89184(7)
C7 C 0.31235(11) 1.02941(9) 0.88592(7)
C8 C 0.18532(12) 1.08237(9) 0.88062(8)
H4 H 0.1866 1.1349 0.8362
H5 H 0.1816 1.1239 0.9327
C9 C 0.05932(12) 1.00585(9) 0.86447(7)
H6 H 0.0534 0.9746 0.8078
H7 H -0.0185 1.0476 0.8688
C10 C 0.05500(11) 0.91336(9) 0.92493(7)
H8 H 0.1035 0.9398 0.9781
H9 H -0.0384 0.8935 0.9345
C11 C 0.11398(11) 0.81338(9) 0.89586(7)
C12 C 0.25023(11) 0.81912(9) 0.87905(7)
C13 C 0.33542(11) 0.92094(9) 0.88581(7)
C14 C 0.66179(15) 1.35428(11) 0.90611(10)
H10 H 0.5852 1.3971 0.9047
H11 H 0.7118 1.3718 0.8594
H12 H 0.7190 1.3713 0.9574
C15 C 0.04111(11) 0.71425(9) 0.88662(7)
C16 C 0.10255(11) 0.62109(9) 0.86121(7)
C17 C 0.03270(11) 0.51739(9) 0.84668(7)
H13 H -0.0581 0.5065 0.8557
C18 C 0.09703(12) 0.43308(9) 0.81956(7)
C19 C 0.23150(12) 0.44547(9) 0.80504(7)
H14 H 0.2736 0.3856 0.7857
C20 C 0.30052(11) 0.54509(9) 0.81918(7)
H15 H 0.3914 0.5541 0.8099
C21 C 0.23818(11) 0.63529(9) 0.84752(7)
C22 C -0.10172(11) 0.69911(9) 0.90107(7)
C23 C -0.19909(12) 0.72868(10) 0.84224(7)
H16 H -0.1742 0.7627 0.7941
C24 C -0.33265(12) 0.70875(10) 0.85345(8)
H17 H -0.3986 0.7278 0.8125
C25 C -0.36944(12) 0.66114(10) 0.92434(8)
H18 H -0.4605 0.6486 0.9325
C26 C -0.27310(12) 0.63196(10) 0.98322(8)
H19 H -0.2981 0.5993 1.0318
C27 C -0.13984(12) 0.65029(10) 0.97143(7)
H20 H -0.0743 0.6293 1.0118
Cl1 Cl 0.00959(3) 0.30636(2) 0.801921(19)
N1 N 0.47090(9) 0.91304(8) 0.89046(6)
H41 H 0.5090 0.8520 0.8907
N2 N 0.31001(9) 0.73325(8) 0.85721(6)
C28 C 1.34235(12) 0.22427(10) 0.66392(7)
C29 C 1.47266(13) 0.26648(12) 0.68826(8)
H21 H 1.5347 0.2241 0.7165
C30 C 1.50720(15) 0.37253(13) 0.66938(9)
H22 H 1.5949 0.4032 0.6860
C31 C 1.41833(15) 0.43728(12) 0.62658(9)
C32 C 1.28993(14) 0.39417(11) 0.60266(8)
H23 H 1.2290 0.4365 0.5733
C33 C 1.25016(13) 0.28698(10) 0.62210(7)
C34 C 1.12623(12) 0.22220(10) 0.60817(7)
C35 C 1.00423(12) 0.26439(10) 0.56756(8)
H24 H 1.0256 0.2951 0.5148
H25 H 0.9803 0.3246 0.6026
C36 C 0.88375(12) 0.18316(10) 0.55042(8)
H26 H 0.8994 0.1315 0.5060
H27 H 0.8063 0.2220 0.5309
C37 C 0.85172(11) 0.11969(9) 0.62612(7)
H28 H 0.8784 0.1665 0.6760
H29 H 0.7548 0.1011 0.6231
C38 C 0.92044(11) 0.01723(9) 0.63359(7)
C39 C 1.06270(11) 0.02089(9) 0.64362(7)
C40 C 1.14694(11) 0.12240(10) 0.64098(7)
C41 C 1.46313(19) 0.55286(13) 0.60809(11)
H30 H 1.3890 0.5866 0.5794
H31 H 1.5361 0.5531 0.5733
H32 H 1.4933 0.5938 0.6596
C42 C 0.84955(11) -0.08304(9) 0.63033(7)
C43 C 0.91841(11) -0.17834(9) 0.63876(7)
C44 C 0.85241(12) -0.28404(10) 0.63267(7)
H33 H 0.7588 -0.2943 0.6212
C45 C 0.92496(12) -0.37114(10) 0.64352(8)
C46 C 1.06383(12) -0.35957(10) 0.66084(8)
H34 H 1.1117 -0.4217 0.6682
C47 C 1.12894(12) -0.25801(10) 0.66702(7)
H35 H 1.2225 -0.2497 0.6793
C48 C 1.05847(11) -0.16492(9) 0.65535(7)
C49 C 0.70183(11) -0.09561(9) 0.61777(7)
C50 C 0.62688(12) -0.08388(10) 0.68357(7)
H36 H 0.6698 -0.0674 0.7372
C51 C 0.48909(12) -0.09623(11) 0.67087(8)
H37 H 0.4381 -0.0882 0.7158
C52 C 0.42647(12) -0.12021(11) 0.59289(8)
H38 H 0.3324 -0.1277 0.5842
C53 C 0.50054(12) -0.13336(11) 0.52753(8)
H39 H 0.4573 -0.1506 0.4741
C54 C 0.63796(12) -0.12138(10) 0.53986(7)
H40 H 0.6885 -0.1308 0.4949
Cl2 Cl 0.84338(3) -0.50061(3) 0.63614(3)
N3 N 1.27805(10) 0.12437(9) 0.67412(6)
H42 H 1.3143 0.0699 0.6980
N4 N 1.12848(9) -0.06589(8) 0.65732(6)
loop_
_geom_bond_atom_site_label_1
_geom_bond_atom_site_label_2
_geom_bond_site_symmetry_1
_geom_bond_site_symmetry_2
C1 C2 1_555 1_555
C2 H1 1_555 1_555
C3 C2 1_555 1_555
H2 C3 1_555 1_555
C4 C3 1_555 1_555
C5 C4 1_555 1_555
H3 C5 1_555 1_555
C6 C1 1_555 1_555
C7 C6 1_555 1_555
C8 C7 1_555 1_555
H4 C8 1_555 1_555
H5 C8 1_555 1_555
C9 C8 1_555 1_555
H6 C9 1_555 1_555
H7 C9 1_555 1_555
C10 C9 1_555 1_555
H8 C10 1_555 1_555
H9 C10 1_555 1_555
C11 C10 1_555 1_555
C12 C11 1_555 1_555
C13 C7 1_555 1_555
C14 C4 1_555 1_555
H10 C14 1_555 1_555
H11 C14 1_555 1_555
H12 C14 1_555 1_555
C15 C11 1_555 1_555
C16 C15 1_555 1_555
C17 C16 1_555 1_555
H13 C17 1_555 1_555
C18 C17 1_555 1_555
C19 C18 1_555 1_555
H14 C19 1_555 1_555
C20 C19 1_555 1_555
H15 C20 1_555 1_555
C21 C16 1_555 1_555
C22 C15 1_555 1_555
C23 C22 1_555 1_555
H16 C23 1_555 1_555
C24 C23 1_555 1_555
H17 C24 1_555 1_555
C25 C24 1_555 1_555
H18 C25 1_555 1_555
C26 C25 1_555 1_555
H19 C26 1_555 1_555
C27 C22 1_555 1_555
H20 C27 1_555 1_555
C28 C29 1_555 1_555
C29 H21 1_555 1_555
C30 C29 1_555 1_555
H22 C30 1_555 1_555
C31 C30 1_555 1_555
C32 C31 1_555 1_555
H23 C32 1_555 1_555
C33 C28 1_555 1_555
C34 C33 1_555 1_555
C35 C34 1_555 1_555
H24 C35 1_555 1_555
H25 C35 1_555 1_555
C36 C35 1_555 1_555
H26 C36 1_555 1_555
H27 C36 1_555 1_555
C37 C36 1_555 1_555
H28 C37 1_555 1_555
H29 C37 1_555 1_555
C38 C37 1_555 1_555
C39 C38 1_555 1_555
C40 C34 1_555 1_555
C41 C31 1_555 1_555
H30 C41 1_555 1_555
H31 C41 1_555 1_555
H32 C41 1_555 1_555
C42 C38 1_555 1_555
C43 C42 1_555 1_555
C44 C43 1_555 1_555
H33 C44 1_555 1_555
C45 C44 1_555 1_555
C46 C45 1_555 1_555
H34 C46 1_555 1_555
C47 C46 1_555 1_555
H35 C47 1_555 1_555
C48 C43 1_555 1_555
C49 C42 1_555 1_555
C50 C49 1_555 1_555
H36 C50 1_555 1_555
C51 C50 1_555 1_555
H37 C51 1_555 1_555
C52 C51 1_555 1_555
H38 C52 1_555 1_555
C53 C52 1_555 1_555
H39 C53 1_555 1_555
C54 C49 1_555 1_555
H40 C54 1_555 1_555
Cl1 C18 1_555 1_555
Cl2 C45 1_555 1_555
N1 C1 1_555 1_555
H41 N1 1_555 1_555
N2 C12 1_555 1_555
N3 C28 1_555 1_555
H42 N3 1_555 1_555
N4 C39 1_555 1_555
C5 C6 1_555 1_555
C12 C13 1_555 1_555
C13 N1 1_555 1_555
C20 C21 1_555 1_555
C21 N2 1_555 1_555
C26 C27 1_555 1_555
C32 C33 1_555 1_555
C39 C40 1_555 1_555
C40 N3 1_555 1_555
C47 C48 1_555 1_555
C48 N4 1_555 1_555
C53 C54 1_555 1_555

#END
