
#######################################################################
#
#                 Cambridge Crystallographic Data Centre
#                                CCDC 
#
#######################################################################
#
# If this CIF has been generated from an entry in the Cambridge 
# Structural Database, then it will include bibliographic, chemical, 
# crystal, experimental, refinement or atomic coordinate data resulting 
# from the CCDC's data processing and validation procedures.
#
#######################################################################

data_TUXMIJ
_chemical_formula_moiety         'C14 H25 N2 1+,C24 H20 B1 1-'
_chemical_name_systematic        
'3-(Dec-4-en-1-yl)-1-methyl-1H-imidazol-3-ium tetraphenylborate'
_symmetry_cell_setting           monoclinic
_symmetry_space_group_name_H-M   'P 21/c'
_symmetry_Int_Tables_number      14
_space_group_name_Hall           '-P 2ybc'
loop_
_symmetry_equiv_pos_site_id
_symmetry_equiv_pos_as_xyz
1 x,y,z
2 -x,1/2+y,1/2-z
3 -x,-y,-z
4 x,1/2-y,1/2+z
_cell_length_a                   18.1597(8)
_cell_length_b                   35.5151(11)
_cell_length_c                   21.3555(7)
_cell_angle_alpha                90
_cell_angle_beta                 111.634(5)
_cell_angle_gamma                90
_cell_volume                     12802.9
_exptl_crystal_colour            colorless
_exptl_crystal_description       prism
_cell_formula_units_Z            16
loop_
_atom_site_label
_atom_site_type_symbol
_atom_site_fract_x
_atom_site_fract_y
_atom_site_fract_z
B1 B 0.3460(4) 0.24671(15) 0.2904(3)
C1 C 0.2939(3) 0.22053(13) 0.2273(2)
C2 C 0.3258(3) 0.18927(13) 0.2062(2)
H1 H 0.3781 0.1815 0.2324
C3 C 0.2828(3) 0.16913(13) 0.1476(2)
H2 H 0.3072 0.1486 0.1343
C4 C 0.2063(3) 0.17855(14) 0.1092(2)
H3 H 0.1768 0.1642 0.0705
C5 C 0.1730(3) 0.20927(14) 0.1279(2)
H4 H 0.1204 0.2166 0.1015
C6 C 0.2167(3) 0.22967(12) 0.1858(2)
H5 H 0.1924 0.2509 0.1973
C7 C 0.2945(3) 0.26383(12) 0.3332(2)
C8 C 0.3175(3) 0.29661(13) 0.3718(2)
H6 H 0.3615 0.3104 0.3699
C9 C 0.2785(3) 0.31009(14) 0.4134(2)
H7 H 0.2957 0.3326 0.4385
C10 C 0.2152(3) 0.29018(14) 0.4173(2)
H8 H 0.1885 0.299 0.4453
C11 C 0.1904(3) 0.25738(14) 0.3805(2)
H9 H 0.1467 0.2436 0.3831
C12 C 0.2300(3) 0.24473(13) 0.3396(2)
H10 H 0.2125 0.2221 0.3148
C13 C 0.4150(3) 0.22197(13) 0.3472(2)
C14 C 0.4907(3) 0.23507(14) 0.3839(2)
H11 H 0.5053 0.2594 0.374
C15 C 0.5461(3) 0.21409(16) 0.4346(2)
H12 H 0.5973 0.2242 0.4581
C16 C 0.5275(3) 0.17864(16) 0.4509(2)
H13 H 0.5654 0.1641 0.4851
C17 C 0.4526(3) 0.16489(14) 0.4164(2)
H14 H 0.4381 0.1408 0.4276
C18 C 0.3978(3) 0.18585(13) 0.3651(2)
H15 H 0.347 0.1754 0.3414
C19 C 0.3803(3) 0.27994(13) 0.2558(2)
C20 C 0.4465(3) 0.27402(13) 0.2376(2)
H16 H 0.4749 0.251 0.2503
C21 C 0.4721(3) 0.30059(14) 0.2018(2)
H17 H 0.5178 0.2957 0.1915
C22 C 0.4310(3) 0.33406(14) 0.1812(2)
H18 H 0.4478 0.3522 0.1566
C23 C 0.3656(3) 0.34049(13) 0.1971(2)
H19 H 0.3365 0.3632 0.1831
C24 C 0.3414(3) 0.31407(13) 0.2336(2)
H20 H 0.2959 0.3195 0.2439
B2 B 0.8479(3) 0.24253(14) 0.2848(3)
C25 C 0.8957(3) 0.26701(13) 0.3515(2)
C26 C 0.8659(3) 0.30038(13) 0.3678(2)
H21 H 0.8177 0.3102 0.3368
C27 C 0.9041(3) 0.31970(13) 0.4278(2)
H22 H 0.8817 0.3422 0.4368
C28 C 0.9741(3) 0.30644(15) 0.4740(2)
H23 H 1.0001 0.3197 0.5148
C29 C 1.0066(3) 0.27340(15) 0.4605(2)
H24 H 1.0553 0.2639 0.4916
C30 C 0.9664(3) 0.25461(14) 0.4006(2)
H25 H 0.9884 0.2317 0.3925
C31 C 0.9070(3) 0.21843(13) 0.2579(2)
C32 C 0.9771(3) 0.23479(13) 0.2572(2)
H26 H 0.9932 0.2584 0.2787
C33 C 1.0239(3) 0.21780(14) 0.2264(2)
H27 H 1.0712 0.2298 0.2278
C34 C 1.0027(3) 0.18395(15) 0.1942(2)
H28 H 1.0344 0.1727 0.1724
C35 C 0.9344(3) 0.16632(14) 0.1936(2)
H29 H 0.9193 0.1426 0.1719
C36 C 0.8881(3) 0.18341(13) 0.2247(2)
H30 H 0.8413 0.1709 0.2234
C37 C 0.7999(3) 0.26862(13) 0.2195(2)
C38 C 0.8267(3) 0.30413(13) 0.2083(2)
H31 H 0.8704 0.3152 0.2431
C39 C 0.7916(3) 0.32350(14) 0.1485(2)
H32 H 0.8112 0.3476 0.143
C40 C 0.7280(3) 0.30799(15) 0.0964(2)
H33 H 0.7043 0.3212 0.0551
C41 C 0.6995(3) 0.27327(15) 0.1052(2)
H34 H 0.6556 0.2624 0.0704
C42 C 0.7358(3) 0.25441(14) 0.1659(2)
H35 H 0.7157 0.2304 0.171
C43 C 0.7855(3) 0.21637(13) 0.3057(2)
C44 C 0.8069(3) 0.18102(13) 0.3373(2)
H36 H 0.8576 0.1709 0.3436
C45 C 0.7554(3) 0.16026(14) 0.3597(2)
H37 H 0.7708 0.1362 0.3795
C46 C 0.6828(3) 0.17486(15) 0.3530(2)
H38 H 0.6483 0.161 0.3687
C47 C 0.6599(3) 0.20970(14) 0.3235(2)
H39 H 0.6099 0.22 0.319
C48 C 0.7109(3) 0.22944(14) 0.3004(2)
H40 H 0.694 0.2533 0.2799
B3 B 0.7072(3) 0.43067(15) 0.5045(3)
C49 C 0.7023(3) 0.42847(13) 0.5801(2)
C50 C 0.6883(3) 0.46055(13) 0.6121(2)
H41 H 0.6819 0.4841 0.5896
C51 C 0.6835(3) 0.45934(14) 0.6759(2)
H42 H 0.6728 0.4816 0.6956
C52 C 0.6945(3) 0.42547(15) 0.7102(2)
H43 H 0.6904 0.4242 0.7533
C53 C 0.7115(3) 0.39340(14) 0.6812(2)
H44 H 0.7202 0.3701 0.7048
C54 C 0.7157(3) 0.39523(13) 0.6173(2)
H45 H 0.7283 0.373 0.5986
C55 C 0.6768(3) 0.39224(13) 0.4611(2)
C56 C 0.6132(3) 0.37128(13) 0.4661(2)
H46 H 0.5931 0.3781 0.4997
C57 C 0.5785(3) 0.34093(13) 0.4236(2)
H47 H 0.5353 0.3277 0.4282
C58 C 0.6080(3) 0.33059(13) 0.3751(2)
H48 H 0.5851 0.31 0.3461
C59 C 0.6704(3) 0.34998(13) 0.3685(2)
H49 H 0.6911 0.3425 0.3356
C60 C 0.7032(3) 0.38070(12) 0.4104(2)
H50 H 0.7451 0.3943 0.4042
C61 C 0.8008(3) 0.44062(13) 0.5174(2)
C62 C 0.8588(3) 0.41322(14) 0.5246(2)
H51 H 0.8436 0.3875 0.5221
C63 C 0.9375(3) 0.42155(16) 0.5354(2)
H52 H 0.9742 0.402 0.5382
C64 C 0.9610(3) 0.45836(16) 0.5417(2)
H53 H 1.0144 0.4645 0.5488
C65 C 0.9077(3) 0.48653(15) 0.5380(2)
H54 H 0.9245 0.5121 0.5435
C66 C 0.8291(3) 0.47753(14) 0.5262(2)
H55 H 0.7932 0.4974 0.524
C67 C 0.6467(3) 0.46240(13) 0.4582(2)
C68 C 0.6596(3) 0.48295(13) 0.4066(2)
H56 H 0.7094 0.4806 0.4018
C69 C 0.6029(3) 0.50646(13) 0.3625(2)
H57 H 0.6145 0.5197 0.3286
C70 C 0.5304(3) 0.51067(14) 0.3676(2)
H58 H 0.4917 0.5269 0.3378
C71 C 0.5144(3) 0.49086(13) 0.4169(2)
H59 H 0.4642 0.4933 0.4208
C72 C 0.5713(3) 0.46739(13) 0.4606(2)
H60 H 0.5585 0.454 0.4937
B4 B 0.7944(3) 0.56231(15) -0.0079(3)
C73 C 0.8507(3) 0.53030(12) 0.0440(2)
C74 C 0.9255(3) 0.52155(12) 0.0437(2)
H61 H 0.9409 0.5324 0.0098
C75 C 0.9782(3) 0.49796(13) 0.0904(2)
H62 H 1.0282 0.4928 0.0876
C76 C 0.9587(3) 0.48177(13) 0.1415(2)
H63 H 0.995 0.4659 0.1744
C77 C 0.8846(3) 0.48955(13) 0.1428(2)
H64 H 0.869 0.4783 0.1763
C78 C 0.8327(3) 0.51359(12) 0.0957(2)
H65 H 0.7829 0.5189 0.0989
C79 C 0.8330(3) 0.60155(12) 0.0317(2)
C80 C 0.8092(3) 0.61676(12) 0.0818(2)
H66 H 0.7638 0.6065 0.0875
C81 C 0.8490(3) 0.64601(13) 0.1235(2)
H67 H 0.8306 0.6554 0.1568
C82 C 0.9160(3) 0.66172(13) 0.1167(2)
H68 H 0.9439 0.6816 0.1454
C83 C 0.9407(3) 0.64783(13) 0.0679(2)
H69 H 0.9863 0.6582 0.0625
C84 C 0.8996(3) 0.61856(12) 0.0259(2)
H70 H 0.9177 0.6098 -0.008
C85 C 0.8004(3) 0.55743(13) -0.0828(2)
C86 C 0.8056(3) 0.58697(13) -0.1234(2)
H71 H 0.807 0.612 -0.1073
C87 C 0.8089(3) 0.58147(14) -0.1871(2)
H72 H 0.8133 0.6024 -0.2132
C88 C 0.8056(3) 0.54535(15) -0.2119(2)
H73 H 0.8089 0.5413 -0.2547
C89 C 0.7977(3) 0.51510(14) -0.1741(2)
H74 H 0.7936 0.4902 -0.1915
C90 C 0.7957(3) 0.52137(13) -0.1104(2)
H75 H 0.791 0.5003 -0.0847
C91 C 0.7004(3) 0.55834(13) -0.0192(2)
C92 C 0.6495(3) 0.58900(13) -0.0301(2)
H76 H 0.6701 0.6136 -0.0303
C93 C 0.5696(3) 0.58516(14) -0.0407(2)
H77 H 0.5371 0.6069 -0.0471
C94 C 0.5373(3) 0.54965(15) -0.0421(2)
H78 H 0.4828 0.5469 -0.0491
C95 C 0.5850(3) 0.51857(15) -0.0331(2)
H79 H 0.5635 0.4941 -0.034
C96 C 0.6647(3) 0.52272(14) -0.0226(2)
H80 H 0.6964 0.5008 -0.0176
N1 N 0.2918(2) 0.28430(10) 0.04402(18)
N2 N 0.3832(2) 0.24381(11) 0.05278(18)
C97 C 0.2222(3) 0.30254(14) 0.0510(2)
H81 H 0.2103 0.2904 0.0874
H82 H 0.1765 0.3001 0.0087
H83 H 0.2335 0.3293 0.0615
C98 C 0.3296(3) 0.29631(14) 0.0018(2)
H84 H 0.318 0.3182 -0.0256
C99 C 0.3862(3) 0.27061(14) 0.0074(2)
H85 H 0.4218 0.2709 -0.0159
C100 C 0.3256(3) 0.25262(13) 0.0741(2)
H86 H 0.3109 0.2386 0.1055
C101 C 0.4301(3) 0.20890(13) 0.0701(2)
H87 H 0.4259 0.1957 0.028
H88 H 0.4077 0.1921 0.0955
C102 C 0.5159(3) 0.21586(14) 0.1112(3)
H89 H 0.5212 0.2274 0.1549
H90 H 0.5387 0.2334 0.0871
C103 C 0.5606(3) 0.17783(14) 0.1234(3)
H91 H 0.5532 0.1662 0.0794
H92 H 0.618 0.1826 0.1471
C104 C 0.5334(3) 0.15097(16) 0.1638(3)
H93 H 0.5489 0.1565 0.2104
C105 C 0.4906(3) 0.12053(15) 0.1425(3)
H94 H 0.4812 0.106 0.1761
C106 C 0.4544(3) 0.10573(14) 0.0715(2)
H95 H 0.4782 0.081 0.0688
H96 H 0.4667 0.1232 0.0406
C107 C 0.3643(3) 0.10138(14) 0.0487(2)
H97 H 0.3524 0.0859 0.0824
H98 H 0.3407 0.1266 0.0481
C108 C 0.3250(3) 0.08347(14) -0.0202(2)
H99 H 0.3465 0.0578 -0.0194
H100 H 0.3378 0.0984 -0.054
C109 C 0.2349(3) 0.08123(14) -0.0409(2)
H101 H 0.2137 0.1066 -0.0384
H102 H 0.2219 0.0647 -0.0091
C110 C 0.1953(3) 0.06562(15) -0.1134(2)
H103 H 0.1378 0.0644 -0.1253
H104 H 0.2158 0.0404 -0.1157
H105 H 0.2072 0.0823 -0.145
N3 N 0.8142(3) 0.23060(12) 0.03245(19)
N4 N 0.8947(2) 0.27747(11) 0.06795(18)
C111 C 0.7697(3) 0.19668(15) 0.0325(3)
H106 H 0.7961 0.1828 0.0745
H107 H 0.767 0.1808 -0.0058
H108 H 0.716 0.2035 0.0288
C112 C 0.8087(3) 0.25182(16) -0.0228(2)
H109 H 0.7765 0.2465 -0.0683
C113 C 0.8572(3) 0.28145(16) -0.0006(3)
H110 H 0.8643 0.3015 -0.0273
C114 C 0.8670(3) 0.24679(14) 0.0864(2)
H111 H 0.8824 0.2377 0.1313
C115 C 0.9511(3) 0.30382(13) 0.1132(2)
H112 H 0.9581 0.2976 0.1602
H113 H 0.9291 0.3296 0.1037
C116 C 1.0322(3) 0.30312(14) 0.1063(2)
H114 H 1.0562 0.2778 0.1182
H115 H 1.0258 0.3086 0.0592
C117 C 1.0858(3) 0.33245(14) 0.1529(2)
H116 H 1.1353 0.3342 0.1436
H117 H 1.0592 0.3573 0.1427
C118 C 1.1070(3) 0.32393(14) 0.2273(3)
H118 H 1.142 0.3035 0.2455
C119 C 1.0809(3) 0.34257(14) 0.2692(3)
H119 H 1.0987 0.3336 0.3142
C120 C 1.0266(3) 0.37617(15) 0.2535(2)
H120 H 0.9819 0.372 0.2103
H121 H 1.0559 0.3988 0.2485
C121 C 0.9942(3) 0.38298(13) 0.3096(2)
H122 H 0.962 0.3609 0.312
H123 H 1.0394 0.3848 0.3531
C122 C 0.9436(3) 0.41845(14) 0.3000(2)
H124 H 0.9752 0.4406 0.297
H125 H 0.8976 0.4165 0.257
C123 C 0.9139(3) 0.42449(15) 0.3572(2)
H126 H 0.8798 0.403 0.3583
H127 H 0.9599 0.4247 0.4003
C124 C 0.8678(3) 0.46047(15) 0.3514(2)
H128 H 0.8509 0.4626 0.3898
H129 H 0.8211 0.4602 0.3095
H130 H 0.9014 0.482 0.3511
N5 N 0.4329(2) 0.42261(11) 0.29371(18)
N6 N 0.5233(2) 0.43218(10) 0.25327(19)
C125 C 0.3928(3) 0.41104(14) 0.3390(2)
H131 H 0.361 0.3885 0.321
H132 H 0.3582 0.4314 0.3426
H133 H 0.4325 0.4055 0.3837
C126 C 0.3963(3) 0.43898(12) 0.2308(2)
H134 H 0.3417 0.445 0.2093
C127 C 0.4544(3) 0.44469(13) 0.2062(2)
H135 H 0.448 0.4555 0.1638
C128 C 0.5088(3) 0.41892(13) 0.3059(2)
H136 H 0.5469 0.4085 0.3457
C129 C 0.6015(3) 0.43233(13) 0.2468(2)
H137 H 0.6438 0.432 0.2922
H138 H 0.6074 0.4557 0.2238
C130 C 0.6112(3) 0.39874(13) 0.2073(2)
H139 H 0.5702 0.3994 0.1613
H140 H 0.6038 0.3753 0.2295
C131 C 0.6941(3) 0.39879(14) 0.2031(2)
H141 H 0.735 0.3982 0.2492
H142 H 0.7004 0.3759 0.1791
C132 C 0.7064(3) 0.43306(14) 0.1669(3)
H143 H 0.7283 0.4544 0.1943
C133 C 0.6906(3) 0.43744(14) 0.1016(2)
H144 H 0.6989 0.4619 0.0874
C134 C 0.6608(3) 0.40789(13) 0.0473(2)
H145 H 0.6035 0.4118 0.0218
H146 H 0.6678 0.3826 0.0683
C135 C 0.7051(3) 0.40960(14) -0.0012(2)
H147 H 0.68 0.3918 -0.0387
H148 H 0.6993 0.4352 -0.0207
C136 C 0.7933(3) 0.40027(14) 0.0310(2)
H149 H 0.8127 0.4075 0.0792
H150 H 0.8003 0.3727 0.0287
C137 C 0.8434(3) 0.42014(13) -0.0026(2)
H151 H 0.8184 0.4168 -0.052
H152 H 0.8446 0.4474 0.0071
C138 C 0.9278(3) 0.40535(13) 0.0214(3)
H153 H 0.9573 0.4188 -0.0019
H154 H 0.927 0.3784 0.0114
H155 H 0.9534 0.4093 0.07
N7 N 1.0677(2) 0.57278(10) 0.20568(19)
N8 N 0.9758(2) 0.56341(10) 0.2448(2)
C139 C 1.1074(3) 0.58241(13) 0.1589(2)
H156 H 1.1154 0.5595 0.1367
H157 H 1.1588 0.5941 0.1839
H158 H 1.0744 0.6001 0.1249
C140 C 1.1051(3) 0.56006(13) 0.2710(2)
H159 H 1.1603 0.5563 0.2942
C141 C 1.0464(3) 0.55401(14) 0.2951(2)
H160 H 1.053 0.545 0.3387
C142 C 0.9906(3) 0.57443(13) 0.1909(2)
H161 H 0.9522 0.5822 0.149
C143 C 0.8963(3) 0.56114(14) 0.2478(2)
H162 H 0.8884 0.5358 0.2636
H163 H 0.8559 0.5649 0.2021
C144 C 0.8853(3) 0.59038(15) 0.2946(3)
H164 H 0.9025 0.6153 0.2842
H165 H 0.9182 0.584 0.3418
C145 C 0.7965(3) 0.5920(2) 0.2860(4)
H166 H 0.7907 0.6096 0.3199
H167 H 0.7653 0.6022 0.2408
C146 C 0.7647(5) 0.5561(2) 0.2934(4)
H168 H 0.7849 0.5454 0.3372
C147 C 0.7103(4) 0.5362(2) 0.2463(4)
H169 H 0.6983 0.5124 0.2602
C148 C 0.6651(4) 0.54638(19) 0.1739(3)
H170 H 0.6744 0.5266 0.145
H171 H 0.6867 0.5703 0.1639
C149 C 0.5747(4) 0.55101(18) 0.1546(3)
H172 H 0.5507 0.5582 0.1065
H173 H 0.552 0.5264 0.1598
C150 C 0.5521(4) 0.57982(17) 0.1958(3)
H174 H 0.5804 0.6036 0.1956
H175 H 0.5696 0.5709 0.243
C151 C 0.4643(5) 0.5877(2) 0.1706(3)
H176 H 0.4474 0.597 0.1237
H177 H 0.4548 0.6081 0.1983
C152 C 0.4127(4) 0.5545(2) 0.1718(3)
H178 H 0.357 0.5623 0.1546
H179 H 0.4276 0.5454 0.2181
H180 H 0.4201 0.5343 0.1434
C153? C 0.6651(4) 0.54638(19) 0.1739(3)
C154? C 0.7965(3) 0.5920(2) 0.2860(4)
C155? C 0.743(2) 0.6022(9) 0.2344(17)
C156? C 0.6832(19) 0.5908(9) 0.1776(16)
H181? H 0.6788 0.5335 0.1386
H182? H 0.691 0.5336 0.2178
H183? H 0.7822 0.5664 0.2958
H184? H 0.7937 0.6085 0.3225
H185? H 0.7447 0.629 0.2335
H186? H 0.6542 0.6078 0.1428
loop_
_geom_bond_atom_site_label_1
_geom_bond_atom_site_label_2
_geom_bond_site_symmetry_1
_geom_bond_site_symmetry_2
B1 C1 1_555 1_555
C1 C2 1_555 1_555
C2 H1 1_555 1_555
C3 C2 1_555 1_555
H2 C3 1_555 1_555
C4 C3 1_555 1_555
H3 C4 1_555 1_555
C5 C4 1_555 1_555
H4 C5 1_555 1_555
C6 C1 1_555 1_555
H5 C6 1_555 1_555
C7 B1 1_555 1_555
C8 C7 1_555 1_555
H6 C8 1_555 1_555
C9 C8 1_555 1_555
H7 C9 1_555 1_555
C10 C9 1_555 1_555
H8 C10 1_555 1_555
C11 C10 1_555 1_555
H9 C11 1_555 1_555
C12 C7 1_555 1_555
H10 C12 1_555 1_555
C13 B1 1_555 1_555
C14 C13 1_555 1_555
H11 C14 1_555 1_555
C15 C14 1_555 1_555
H12 C15 1_555 1_555
C16 C15 1_555 1_555
H13 C16 1_555 1_555
C17 C16 1_555 1_555
H14 C17 1_555 1_555
C18 C13 1_555 1_555
H15 C18 1_555 1_555
C19 B1 1_555 1_555
C20 C19 1_555 1_555
H16 C20 1_555 1_555
C21 C20 1_555 1_555
H17 C21 1_555 1_555
C22 C21 1_555 1_555
H18 C22 1_555 1_555
C23 C22 1_555 1_555
H19 C23 1_555 1_555
C24 C19 1_555 1_555
H20 C24 1_555 1_555
B2 C25 1_555 1_555
C25 C26 1_555 1_555
C26 H21 1_555 1_555
C27 C26 1_555 1_555
H22 C27 1_555 1_555
C28 C27 1_555 1_555
H23 C28 1_555 1_555
C29 C28 1_555 1_555
H24 C29 1_555 1_555
C30 C25 1_555 1_555
H25 C30 1_555 1_555
C31 B2 1_555 1_555
C32 C31 1_555 1_555
H26 C32 1_555 1_555
C33 C32 1_555 1_555
H27 C33 1_555 1_555
C34 C33 1_555 1_555
H28 C34 1_555 1_555
C35 C34 1_555 1_555
H29 C35 1_555 1_555
C36 C31 1_555 1_555
H30 C36 1_555 1_555
C37 B2 1_555 1_555
C38 C37 1_555 1_555
H31 C38 1_555 1_555
C39 C38 1_555 1_555
H32 C39 1_555 1_555
C40 C39 1_555 1_555
H33 C40 1_555 1_555
C41 C40 1_555 1_555
H34 C41 1_555 1_555
C42 C37 1_555 1_555
H35 C42 1_555 1_555
C43 B2 1_555 1_555
C44 C43 1_555 1_555
H36 C44 1_555 1_555
C45 C44 1_555 1_555
H37 C45 1_555 1_555
C46 C45 1_555 1_555
H38 C46 1_555 1_555
C47 C46 1_555 1_555
H39 C47 1_555 1_555
C48 C43 1_555 1_555
H40 C48 1_555 1_555
B3 C49 1_555 1_555
C49 C50 1_555 1_555
C50 H41 1_555 1_555
C51 C50 1_555 1_555
H42 C51 1_555 1_555
C52 C51 1_555 1_555
H43 C52 1_555 1_555
C53 C52 1_555 1_555
H44 C53 1_555 1_555
C54 C49 1_555 1_555
H45 C54 1_555 1_555
C55 B3 1_555 1_555
C56 C55 1_555 1_555
H46 C56 1_555 1_555
C57 C56 1_555 1_555
H47 C57 1_555 1_555
C58 C57 1_555 1_555
H48 C58 1_555 1_555
C59 C58 1_555 1_555
H49 C59 1_555 1_555
C60 C55 1_555 1_555
H50 C60 1_555 1_555
C61 B3 1_555 1_555
C62 C61 1_555 1_555
H51 C62 1_555 1_555
C63 C62 1_555 1_555
H52 C63 1_555 1_555
C64 C63 1_555 1_555
H53 C64 1_555 1_555
C65 C64 1_555 1_555
H54 C65 1_555 1_555
C66 C61 1_555 1_555
H55 C66 1_555 1_555
C67 B3 1_555 1_555
C68 C67 1_555 1_555
H56 C68 1_555 1_555
C69 C68 1_555 1_555
H57 C69 1_555 1_555
C70 C69 1_555 1_555
H58 C70 1_555 1_555
C71 C70 1_555 1_555
H59 C71 1_555 1_555
C72 C67 1_555 1_555
H60 C72 1_555 1_555
B4 C73 1_555 1_555
C73 C74 1_555 1_555
C74 H61 1_555 1_555
C75 C74 1_555 1_555
H62 C75 1_555 1_555
C76 C75 1_555 1_555
H63 C76 1_555 1_555
C77 C76 1_555 1_555
H64 C77 1_555 1_555
C78 C73 1_555 1_555
H65 C78 1_555 1_555
C79 B4 1_555 1_555
C80 C79 1_555 1_555
H66 C80 1_555 1_555
C81 C80 1_555 1_555
H67 C81 1_555 1_555
C82 C81 1_555 1_555
H68 C82 1_555 1_555
C83 C82 1_555 1_555
H69 C83 1_555 1_555
C84 C79 1_555 1_555
H70 C84 1_555 1_555
C85 B4 1_555 1_555
C86 C85 1_555 1_555
H71 C86 1_555 1_555
C87 C86 1_555 1_555
H72 C87 1_555 1_555
C88 C87 1_555 1_555
H73 C88 1_555 1_555
C89 C88 1_555 1_555
H74 C89 1_555 1_555
C90 C85 1_555 1_555
H75 C90 1_555 1_555
C91 B4 1_555 1_555
C92 C91 1_555 1_555
H76 C92 1_555 1_555
C93 C92 1_555 1_555
H77 C93 1_555 1_555
C94 C93 1_555 1_555
H78 C94 1_555 1_555
C95 C94 1_555 1_555
H79 C95 1_555 1_555
C96 C91 1_555 1_555
H80 C96 1_555 1_555
N1 C97 1_555 1_555
N2 C99 1_555 1_555
C97 H81 1_555 1_555
H82 C97 1_555 1_555
H83 C97 1_555 1_555
C98 N1 1_555 1_555
H84 C98 1_555 1_555
C99 C98 1_555 1_555
H85 C99 1_555 1_555
C100 N1 1_555 1_555
H86 C100 1_555 1_555
C101 N2 1_555 1_555
H87 C101 1_555 1_555
H88 C101 1_555 1_555
C102 C101 1_555 1_555
H89 C102 1_555 1_555
H90 C102 1_555 1_555
C103 C102 1_555 1_555
H91 C103 1_555 1_555
H92 C103 1_555 1_555
C104 C103 1_555 1_555
H93 C104 1_555 1_555
C105 C104 1_555 1_555
H94 C105 1_555 1_555
C106 C105 1_555 1_555
H95 C106 1_555 1_555
H96 C106 1_555 1_555
C107 C106 1_555 1_555
H97 C107 1_555 1_555
H98 C107 1_555 1_555
C108 C107 1_555 1_555
H99 C108 1_555 1_555
H100 C108 1_555 1_555
C109 C108 1_555 1_555
H101 C109 1_555 1_555
H102 C109 1_555 1_555
C110 C109 1_555 1_555
H103 C110 1_555 1_555
H104 C110 1_555 1_555
H105 C110 1_555 1_555
N3 C111 1_555 1_555
N4 C113 1_555 1_555
C111 H106 1_555 1_555
H107 C111 1_555 1_555
H108 C111 1_555 1_555
C112 N3 1_555 1_555
H109 C112 1_555 1_555
C113 C112 1_555 1_555
H110 C113 1_555 1_555
C114 N3 1_555 1_555
H111 C114 1_555 1_555
C115 N4 1_555 1_555
H112 C115 1_555 1_555
H113 C115 1_555 1_555
C116 C115 1_555 1_555
H114 C116 1_555 1_555
H115 C116 1_555 1_555
C117 C116 1_555 1_555
H116 C117 1_555 1_555
H117 C117 1_555 1_555
C118 C117 1_555 1_555
H118 C118 1_555 1_555
C119 C118 1_555 1_555
H119 C119 1_555 1_555
C120 C119 1_555 1_555
H120 C120 1_555 1_555
H121 C120 1_555 1_555
C121 C120 1_555 1_555
H122 C121 1_555 1_555
H123 C121 1_555 1_555
C122 C121 1_555 1_555
H124 C122 1_555 1_555
H125 C122 1_555 1_555
C123 C122 1_555 1_555
H126 C123 1_555 1_555
H127 C123 1_555 1_555
C124 C123 1_555 1_555
H128 C124 1_555 1_555
H129 C124 1_555 1_555
H130 C124 1_555 1_555
N5 C125 1_555 1_555
N6 C127 1_555 1_555
C125 H131 1_555 1_555
H132 C125 1_555 1_555
H133 C125 1_555 1_555
C126 N5 1_555 1_555
H134 C126 1_555 1_555
C127 C126 1_555 1_555
H135 C127 1_555 1_555
C128 N5 1_555 1_555
H136 C128 1_555 1_555
C129 N6 1_555 1_555
H137 C129 1_555 1_555
H138 C129 1_555 1_555
C130 C129 1_555 1_555
H139 C130 1_555 1_555
H140 C130 1_555 1_555
C131 C130 1_555 1_555
H141 C131 1_555 1_555
H142 C131 1_555 1_555
C132 C131 1_555 1_555
H143 C132 1_555 1_555
C133 C132 1_555 1_555
H144 C133 1_555 1_555
C134 C133 1_555 1_555
H145 C134 1_555 1_555
H146 C134 1_555 1_555
C135 C134 1_555 1_555
H147 C135 1_555 1_555
H148 C135 1_555 1_555
C136 C135 1_555 1_555
H149 C136 1_555 1_555
H150 C136 1_555 1_555
C137 C136 1_555 1_555
H151 C137 1_555 1_555
H152 C137 1_555 1_555
C138 C137 1_555 1_555
H153 C138 1_555 1_555
H154 C138 1_555 1_555
H155 C138 1_555 1_555
N7 C139 1_555 1_555
N8 C141 1_555 1_555
C139 H156 1_555 1_555
H157 C139 1_555 1_555
H158 C139 1_555 1_555
C140 N7 1_555 1_555
H159 C140 1_555 1_555
C141 C140 1_555 1_555
H160 C141 1_555 1_555
C142 N7 1_555 1_555
H161 C142 1_555 1_555
C143 N8 1_555 1_555
H162 C143 1_555 1_555
H163 C143 1_555 1_555
C144 C143 1_555 1_555
H164 C144 1_555 1_555
H165 C144 1_555 1_555
C145 C144 1_555 1_555
H166 C145 1_555 1_555
H167 C145 1_555 1_555
C146 C145 1_555 1_555
H168 C146 1_555 1_555
C147 C146 1_555 1_555
H169 C147 1_555 1_555
C148 C147 1_555 1_555
H170 C148 1_555 1_555
H171 C148 1_555 1_555
C149 C148 1_555 1_555
H172 C149 1_555 1_555
H173 C149 1_555 1_555
C150 C149 1_555 1_555
H174 C150 1_555 1_555
H175 C150 1_555 1_555
C151 C150 1_555 1_555
H176 C151 1_555 1_555
H177 C151 1_555 1_555
C152 C151 1_555 1_555
H178 C152 1_555 1_555
H179 C152 1_555 1_555
H180 C152 1_555 1_555
C5 C6 1_555 1_555
C11 C12 1_555 1_555
C17 C18 1_555 1_555
C23 C24 1_555 1_555
C29 C30 1_555 1_555
C35 C36 1_555 1_555
C41 C42 1_555 1_555
C47 C48 1_555 1_555
C53 C54 1_555 1_555
C59 C60 1_555 1_555
C65 C66 1_555 1_555
C71 C72 1_555 1_555
C77 C78 1_555 1_555
C83 C84 1_555 1_555
C89 C90 1_555 1_555
C95 C96 1_555 1_555
N2 C100 1_555 1_555
N4 C114 1_555 1_555
N6 C128 1_555 1_555
N8 C142 1_555 1_555

#END
