
#######################################################################
#
#                 Cambridge Crystallographic Data Centre
#                                CCDC 
#
#######################################################################
#
# If this CIF has been generated from an entry in the Cambridge 
# Structural Database, then it will include bibliographic, chemical, 
# crystal, experimental, refinement or atomic coordinate data resulting 
# from the CCDC's data processing and validation procedures.
#
#######################################################################

data_TUXROV
_chemical_formula_moiety         'C20 H21 Br1 O5'
_chemical_name_systematic        
5-bromo-2,14-dihydroxy-9-methyl-12,17-dioxahexacyclo[11.5.2.1^3,7^.0^1,11^.0^10,21^.0^14,18^]henicosa-3(21),4,6-trien-19-one
_symmetry_cell_setting           orthorhombic
_symmetry_space_group_name_H-M   'P 21 21 21'
_symmetry_Int_Tables_number      19
_space_group_name_Hall           'P 2ac 2ab'
loop_
_symmetry_equiv_pos_site_id
_symmetry_equiv_pos_as_xyz
1 x,y,z
2 1/2-x,-y,1/2+z
3 -x,1/2+y,1/2-z
4 1/2+x,1/2-y,-z
_cell_length_a                   8.1977(19)
_cell_length_b                   12.821(3)
_cell_length_c                   17.153(4)
_cell_angle_alpha                90
_cell_angle_beta                 90
_cell_angle_gamma                90
_cell_volume                     1802.83
_exptl_crystal_colour            colorless
_exptl_crystal_description       Prism
_cell_formula_units_Z            4
loop_
_atom_site_label
_atom_site_type_symbol
_atom_site_fract_x
_atom_site_fract_y
_atom_site_fract_z
Br1 Br 0.58325(3) -0.026409(19) 0.418784(17)
O1 O 0.5085(2) 0.60955(13) 0.49947(9)
O2 O 0.29823(19) 0.54379(13) 0.33332(10)
O3 O 0.6286(3) 0.36821(14) 0.28280(10)
O4 O 0.85300(19) 0.48248(14) 0.36384(9)
O5 O 0.5610(2) 0.75280(13) 0.31827(10)
H1 H 0.4935 0.7939 0.2979
C1 C 0.5730(3) 0.19052(17) 0.39289(14)
H2 H 0.5612 0.1702 0.3399
C2 C 0.5871(3) 0.11617(17) 0.45084(15)
C3 C 0.5996(3) 0.14099(18) 0.52921(14)
H3 H 0.6064 0.0880 0.5678
C4 C 0.6019(3) 0.24564(19) 0.54940(14)
C5 C 0.6033(4) 0.29964(19) 0.62810(14)
H4 H 0.7153 0.3032 0.6496
H5 H 0.5319 0.2631 0.6658
C6 C 0.5369(3) 0.41046(19) 0.60945(13)
H6 H 0.4151 0.4063 0.6082
C7 C 0.5971(3) 0.43022(17) 0.52519(13)
H7 H 0.7124 0.4554 0.5273
C8 C 0.5950(3) 0.32241(17) 0.49081(13)
C9 C 0.5765(3) 0.29693(16) 0.41361(14)
C10 C 0.5389(3) 0.38155(18) 0.35426(13)
H8 H 0.4209 0.3741 0.3407
C11 C 0.5609(3) 0.49363(16) 0.38648(12)
C12 C 0.4994(3) 0.50280(17) 0.47270(13)
H9 H 0.3826 0.4804 0.4743
C13 C 0.5817(3) 0.67841(16) 0.44364(13)
H10 H 0.5904 0.7497 0.4669
C14 C 0.7523(3) 0.63957(17) 0.42281(17)
H11 H 0.8037 0.6875 0.3848
H12 H 0.8213 0.6372 0.4701
C15 C 0.7372(3) 0.5313(2) 0.38783(12)
C16 C 0.4675(3) 0.57207(18) 0.33605(14)
H13 H 0.5134 0.5719 0.2820
C17 C 0.4778(3) 0.68409(19) 0.37053(14)
C18 C 0.2983(3) 0.7115(2) 0.38439(15)
H14 H 0.2666 0.6979 0.4391
H15 H 0.2766 0.7856 0.3720
C19 C 0.2080(3) 0.6397(2) 0.32891(16)
H16 H 0.0936 0.6295 0.3458
H17 H 0.2086 0.6680 0.2752
C20 C 0.5843(4) 0.49452(18) 0.66826(13)
H18 H 0.5448 0.4748 0.7201
H19 H 0.5352 0.5611 0.6529
H20 H 0.7033 0.5016 0.6695
H21 H 0.724(3) 0.379(2) 0.2940(17)
loop_
_geom_bond_atom_site_label_1
_geom_bond_atom_site_label_2
_geom_bond_site_symmetry_1
_geom_bond_site_symmetry_2
Br1 C2 1_555 1_555
O1 C12 1_555 1_555
O2 C16 1_555 1_555
O3 C10 1_555 1_555
O4 C15 1_555 1_555
O5 H1 1_555 1_555
C1 H2 1_555 1_555
C2 C1 1_555 1_555
C3 C2 1_555 1_555
H3 C3 1_555 1_555
C4 C3 1_555 1_555
C5 C4 1_555 1_555
H4 C5 1_555 1_555
H5 C5 1_555 1_555
C6 C5 1_555 1_555
H6 C6 1_555 1_555
C7 C6 1_555 1_555
H7 C7 1_555 1_555
C8 C4 1_555 1_555
C9 C1 1_555 1_555
C10 C9 1_555 1_555
H8 C10 1_555 1_555
C11 C10 1_555 1_555
C12 C7 1_555 1_555
H9 C12 1_555 1_555
C13 O1 1_555 1_555
H10 C13 1_555 1_555
C14 C13 1_555 1_555
H11 C14 1_555 1_555
H12 C14 1_555 1_555
C15 C11 1_555 1_555
C16 C11 1_555 1_555
H13 C16 1_555 1_555
C17 O5 1_555 1_555
C18 C17 1_555 1_555
H14 C18 1_555 1_555
H15 C18 1_555 1_555
C19 O2 1_555 1_555
H16 C19 1_555 1_555
H17 C19 1_555 1_555
C20 C6 1_555 1_555
H18 C20 1_555 1_555
H19 C20 1_555 1_555
H20 C20 1_555 1_555
H21 O3 1_555 1_555
C7 C8 1_555 1_555
C8 C9 1_555 1_555
C11 C12 1_555 1_555
C13 C17 1_555 1_555
C14 C15 1_555 1_555
C16 C17 1_555 1_555
C18 C19 1_555 1_555

#END
