
#######################################################################
#
#                 Cambridge Crystallographic Data Centre
#                                CCDC 
#
#######################################################################
#
# If this CIF has been generated from an entry in the Cambridge 
# Structural Database, then it will include bibliographic, chemical, 
# crystal, experimental, refinement or atomic coordinate data resulting 
# from the CCDC's data processing and validation procedures.
#
#######################################################################

data_TUXSOW
_chemical_formula_moiety         'C18 H8 S4'
_chemical_name_systematic        
thieno[3',2':5,6][1]benzothieno[3,2-b]thieno[3,2-f][1]benzothiophene
_symmetry_cell_setting           monoclinic
_symmetry_space_group_name_H-M   'P 21/c'
_symmetry_Int_Tables_number      14
_space_group_name_Hall           '-P 2ybc'
loop_
_symmetry_equiv_pos_site_id
_symmetry_equiv_pos_as_xyz
1 x,y,z
2 -x,1/2+y,1/2-z
3 -x,-y,-z
4 x,1/2-y,1/2+z
_cell_length_a                   5.91290(10)
_cell_length_b                   7.8545(2)
_cell_length_c                   31.0943(8)
_cell_angle_alpha                90
_cell_angle_beta                 91.5270(10)
_cell_angle_gamma                90
_cell_volume                     1443.6
_exptl_crystal_colour            yellow
_exptl_crystal_description       BLOCK
_cell_formula_units_Z            4
loop_
_atom_site_label
_atom_site_type_symbol
_atom_site_fract_x
_atom_site_fract_y
_atom_site_fract_z
S1 S 0.7679(2) 0.4026(2) 0.45015(4)
S2 S 0.46611(17) 0.46151(15) 0.27932(3)
S3 S 1.03580(17) 0.23769(15) 0.22529(3)
S4 S 0.7233(3) 0.2806(2) 0.05494(4)
C1 C 1.0302(10) 0.3053(8) 0.45617(17)
C2 C 1.1196(9) 0.2576(7) 0.41861(15)
C3 C 0.9765(7) 0.2988(6) 0.38180(13)
C4 C 0.7745(8) 0.3816(6) 0.39474(13)
C5 C 0.6094(8) 0.4336(6) 0.36510(14)
C6 C 0.6492(7) 0.4059(5) 0.32211(13)
C7 C 0.8503(6) 0.3254(5) 0.30794(13)
C8 C 1.0132(7) 0.2703(6) 0.33834(13)
C9 C 0.8469(6) 0.3156(5) 0.26214(13)
C10 C 0.6569(6) 0.3824(5) 0.24269(13)
C11 C 0.6520(7) 0.3748(5) 0.19661(13)
C12 C 0.8524(7) 0.2935(5) 0.18270(13)
C13 C 0.8903(7) 0.2619(6) 0.13962(14)
C14 C 0.7236(8) 0.3134(6) 0.11038(13)
C15 C 0.5227(7) 0.3961(6) 0.12277(14)
C16 C 0.4890(7) 0.4273(6) 0.16638(14)
C17 C 0.3772(9) 0.4312(7) 0.08622(16)
C18 C 0.4599(10) 0.3780(8) 0.04932(16)
H1 H 1.086(10) 0.299(8) 0.4843(18)
H2 H 1.259(9) 0.196(7) 0.4172(16)
H3 H 0.467(10) 0.488(8) 0.3720(18)
H4 H 1.140(8) 0.209(6) 0.3269(14)
H5 H 1.015(7) 0.205(5) 0.1299(12)
H6 H 0.365(8) 0.464(6) 0.1742(14)
H7 H 0.242(8) 0.472(6) 0.0874(14)
H8 H 0.396(10) 0.383(8) 0.0218(19)
loop_
_geom_bond_atom_site_label_1
_geom_bond_atom_site_label_2
_geom_bond_site_symmetry_1
_geom_bond_site_symmetry_2
S1 C1 1_555 1_555
S2 C6 1_555 1_555
S3 C9 1_555 1_555
S4 C14 1_555 1_555
C1 C2 1_555 1_555
C2 C3 1_555 1_555
C3 C4 1_555 1_555
C4 S1 1_555 1_555
C5 C4 1_555 1_555
C6 C5 1_555 1_555
C7 C6 1_555 1_555
C8 C3 1_555 1_555
C9 C7 1_555 1_555
C10 S2 1_555 1_555
C11 C10 1_555 1_555
C12 S3 1_555 1_555
C13 C12 1_555 1_555
C14 C13 1_555 1_555
C15 C14 1_555 1_555
C16 C11 1_555 1_555
C17 C15 1_555 1_555
C18 S4 1_555 1_555
H1 C1 1_555 1_555
H2 C2 1_555 1_555
H3 C5 1_555 1_555
H4 C8 1_555 1_555
H5 C13 1_555 1_555
H6 C16 1_555 1_555
H7 C17 1_555 1_555
H8 C18 1_555 1_555
C7 C8 1_555 1_555
C9 C10 1_555 1_555
C11 C12 1_555 1_555
C15 C16 1_555 1_555
C17 C18 1_555 1_555

#END
