
#######################################################################
#
#                 Cambridge Crystallographic Data Centre
#                                CCDC 
#
#######################################################################
#
# If this CIF has been generated from an entry in the Cambridge 
# Structural Database, then it will include bibliographic, chemical, 
# crystal, experimental, refinement or atomic coordinate data resulting 
# from the CCDC's data processing and validation procedures.
#
#######################################################################

data_TUXWUE
_chemical_formula_moiety         'C16 H16 N1 O5'
_chemical_name_systematic        
'Ethyl 4-(3,4-methylenedioxyphenyl)-6-methyl-2-oxo-1,2,3,4-tetrahydropyridine-5-carboxylate'
_symmetry_cell_setting           monoclinic
_symmetry_space_group_name_H-M   'C 2/c'
_symmetry_Int_Tables_number      15
_space_group_name_Hall           '-C 2yn'
loop_
_symmetry_equiv_pos_site_id
_symmetry_equiv_pos_as_xyz
1 x,y,z
2 -x,y,1/2-z
3 1/2+x,1/2+y,z
4 1/2-x,1/2+y,1/2-z
5 -x,-y,-z
6 x,-y,1/2+z
7 1/2-x,1/2-y,-z
8 1/2+x,1/2-y,1/2+z
_cell_length_a                   18.520(2)
_cell_length_b                   7.8910(1)
_cell_length_c                   21.728(3)
_cell_angle_alpha                90
_cell_angle_beta                 104.77(1)
_cell_angle_gamma                90
_cell_volume                     3070.44
_exptl_crystal_colour            colorless
_chemical_melting_point          '145-146 deg.C'
_cell_formula_units_Z            8
loop_
_atom_site_label
_atom_site_type_symbol
_atom_site_fract_x
_atom_site_fract_y
_atom_site_fract_z
O1 O 0.2171(1) 0.8389(2) 0.3567(1)
O2 O 0.1050(1) 0.9752(3) 0.3150(1)
O3 O 0.2027(1) 0.9245(2) 0.0239(1)
N1 N 0.1708(1) 0.6499(2) 0.0265(1)
C1 C 0.1619(2) 0.9460(4) 0.3708(1)
C2 C 0.1238(1) 0.8805(3) 0.2682(1)
C3 C 0.0848(1) 0.8605(3) 0.2066(1)
C4 C 0.1135(1) 0.7510(3) 0.1683(1)
C5 C 0.1806(1) 0.6709(3) 0.1943(1)
C6 C 0.2207(2) 0.6956(3) 0.2572(1)
C7 C 0.1903(1) 0.8002(3) 0.2930(1)
C8 C 0.1595(2) 0.8175(3) 0.0354(1)
C9 C 0.0907(1) 0.8585(3) 0.0553(1)
C10 C 0.0702(1) 0.7268(3) 0.0996(1)
C11 C 0.0781(1) 0.5492(3) 0.0745(1)
C12 C 0.1269(1) 0.5183(3) 0.0398(1)
C13 C 0.1430(2) 0.3517(3) 0.0125(1)
C14 C 0.0352(1) 0.4103(3) 0.0928(1)
O4 O -0.0117(10) 0.4819(14) 0.1240(10)
O5 O 0.0417(10) 0.2573(6) 0.0906(9)
C15 C -0.0443(7) 0.3477(16) 0.1539(9)
C16 C -0.1117(7) 0.4241(17) 0.1691(8)
O6? O -0.0136(7) 0.4593(11) 0.1257(7)
O7? O 0.0377(8) 0.2650(7) 0.0749(8)
C17? C -0.0615(7) 0.3336(10) 0.1440(6)
C18? C -0.0964(10) 0.4210(20) 0.1904(8)
loop_
_geom_bond_atom_site_label_1
_geom_bond_atom_site_label_2
_geom_bond_site_symmetry_1
_geom_bond_site_symmetry_2
O1 C1 1_555 1_555
O2 C1 1_555 1_555
O3 C8 1_555 1_555
N1 C8 1_555 1_555
C2 O2 1_555 1_555
C3 C2 1_555 1_555
C4 C3 1_555 1_555
C5 C4 1_555 1_555
C6 C5 1_555 1_555
C7 O1 1_555 1_555
C8 C9 1_555 1_555
C9 C10 1_555 1_555
C10 C4 1_555 1_555
C11 C10 1_555 1_555
C12 N1 1_555 1_555
C13 C12 1_555 1_555
C14 C11 1_555 1_555
O4 C14 1_555 1_555
O5 C14 1_555 1_555
C15 O4 1_555 1_555
C16 C15 1_555 1_555
C2 C7 1_555 1_555
C6 C7 1_555 1_555
C11 C12 1_555 1_555

#END
