
#######################################################################
#
#                 Cambridge Crystallographic Data Centre
#                                CCDC 
#
#######################################################################
#
# If this CIF has been generated from an entry in the Cambridge 
# Structural Database, then it will include bibliographic, chemical, 
# crystal, experimental, refinement or atomic coordinate data resulting 
# from the CCDC's data processing and validation procedures.
#
#######################################################################

data_TUXYOA
_chemical_formula_moiety         'H12 Mg1 O6 2+,2(C6 H2 N3 O8 1-),2(H2 O1)'
_chemical_name_systematic        'Hexa-aqua-magnesium bis(styphnate) dihydrate'
_symmetry_cell_setting           triclinic
_symmetry_space_group_name_H-M   'P -1'
_symmetry_Int_Tables_number      2
_space_group_name_Hall           '-P 1'
loop_
_symmetry_equiv_pos_site_id
_symmetry_equiv_pos_as_xyz
1 x,y,z
2 -x,-y,-z
_cell_length_a                   7.889(1)
_cell_length_b                   8.821(2)
_cell_length_c                   10.433(2)
_cell_angle_alpha                77.47(1)
_cell_angle_beta                 70.96(2)
_cell_angle_gamma                66.74(1)
_cell_volume                     627.266
_cell_formula_units_Z            1
loop_
_atom_site_label
_atom_site_type_symbol
_atom_site_fract_x
_atom_site_fract_y
_atom_site_fract_z
Mg1 Mg 0.5000 0.5000 0.0000
O9 O 0.3847(3) 0.7376(2) 0.0467(2)
O10 O 0.4672(3) 0.4255(3) 0.2088(2)
O11 O 0.2319(3) 0.4948(3) 0.0290(3)
O9A O 0.6153(3) 0.2624(2) -0.0467(2)
O10A O 0.5328(3) 0.5745(3) -0.2088(2)
O11A O 0.7681(3) 0.5052(3) -0.0290(3)
O1 O 0.1815(3) 0.7151(3) 0.3098(2)
O2 O 0.2563(4) 0.4648(3) 0.5055(2)
O3 O 0.1552(5) 0.5379(4) 0.7045(3)
O4 O -0.4415(3) 0.9534(3) 0.8416(2)
O5 O -0.5552(3) 1.1581(3) 0.6999(2)
O6 O -0.3836(3) 1.1704(2) 0.4477(2)
O7 O -0.2232(3) 1.0803(3) 0.1964(2)
O8 O 0.0753(3) 1.0224(3) 0.1747(2)
N1 N 0.1477(4) 0.5598(3) 0.5857(2)
N2 N -0.4325(3) 1.0208(3) 0.7255(2)
N3 N -0.0834(3) 1.0199(3) 0.2415(2)
C1 C 0.0423(4) 0.7835(3) 0.4029(2)
C2 C 0.0102(4) 0.7155(3) 0.5445(3)
C3 C -0.1437(4) 0.7919(3) 0.6446(2)
C4 C -0.2797(4) 0.9439(3) 0.6150(2)
C5 C -0.2611(3) 1.0220(3) 0.4804(2)
C6 C -0.1038(3) 0.9406(3) 0.3800(2)
O12 O 0.1327(3) 0.2682(3) -0.0582(2)
loop_
_geom_bond_atom_site_label_1
_geom_bond_atom_site_label_2
_geom_bond_site_symmetry_1
_geom_bond_site_symmetry_2
Mg1 O9 1_555 1_555
O1 C1 1_555 1_555
O2 N1 1_555 1_555
O3 N1 1_555 1_555
O4 N2 1_555 1_555
O5 N2 1_555 1_555
O6 C5 1_555 1_555
O7 N3 1_555 1_555
O8 N3 1_555 1_555
O10 Mg1 1_555 1_555
O11 Mg1 1_555 1_555
N1 C2 1_555 1_555
N2 C4 1_555 1_555
N3 C6 1_555 1_555
C1 C2 1_555 1_555
C2 C3 1_555 1_555
C3 C4 1_555 1_555
C4 C5 1_555 1_555
C5 C6 1_555 1_555
C6 C1 1_555 1_555
O9A Mg1 1_555 1_555
O10A Mg1 1_555 1_555
O11A Mg1 1_555 1_555

#END
