
#######################################################################
#
#                 Cambridge Crystallographic Data Centre
#                                CCDC 
#
#######################################################################
#
# If this CIF has been generated from an entry in the Cambridge 
# Structural Database, then it will include bibliographic, chemical, 
# crystal, experimental, refinement or atomic coordinate data resulting 
# from the CCDC's data processing and validation procedures.
#
#######################################################################

data_TUYCUN
_chemical_formula_moiety         'C20 H20 F3 N1'
_chemical_name_systematic        
2-t-Butyl-3-phenyl-1-(trifluoromethyl)-1,2-dihydroisoquinoline
_symmetry_cell_setting           monoclinic
_symmetry_space_group_name_H-M   'P 21/n'
_symmetry_Int_Tables_number      14
_space_group_name_Hall           '-P 2yn'
loop_
_symmetry_equiv_pos_site_id
_symmetry_equiv_pos_as_xyz
1 x,y,z
2 1/2-x,1/2+y,1/2-z
3 -x,-y,-z
4 1/2+x,1/2-y,1/2+z
_cell_length_a                   13.121(7)
_cell_length_b                   7.656(4)
_cell_length_c                   17.780(9)
_cell_angle_alpha                90
_cell_angle_beta                 108.121(6)
_cell_angle_gamma                90
_cell_volume                     1697.49
_exptl_crystal_colour            orange
_exptl_crystal_description       block
_cell_formula_units_Z            4
loop_
_atom_site_label
_atom_site_type_symbol
_atom_site_fract_x
_atom_site_fract_y
_atom_site_fract_z
N1 N 0.75434(11) 0.76528(17) 0.03814(8)
F1 F 0.62898(10) 1.03621(16) 0.07741(8)
F2 F 0.54763(9) 0.79001(19) 0.05346(8)
F3 F 0.60792(10) 0.88528(18) 0.17183(8)
C1 C 0.73474(14) 0.7777(2) 0.11462(11)
H1 H 0.7251 0.6582 0.1310
C2 C 0.82574(14) 0.8582(2) 0.18053(10)
C3 C 0.84790(18) 0.8118(3) 0.25839(12)
H2 H 0.8067 0.7268 0.2727
C4 C 0.9318(2) 0.8914(4) 0.31618(13)
H3 H 0.9468 0.8602 0.3691
C5 C 0.9923(2) 1.0170(4) 0.29431(14)
H4 H 1.0480 1.0714 0.3328
C6 C 0.97151(17) 1.0620(3) 0.21752(13)
H5 H 1.0130 1.1474 0.2038
C7 C 0.88838(15) 0.9821(2) 0.15826(11)
C8 C 0.86414(14) 1.0210(2) 0.07479(11)
H6 H 0.8925 1.1218 0.0600
C9 C 0.80266(13) 0.9176(2) 0.01830(10)
C10 C 0.79503(14) 0.5902(2) 0.02167(11)
C11 C 0.89976(17) 0.5443(3) 0.08587(15)
H7 H 0.9288 0.4390 0.0715
H8 H 0.8860 0.5273 0.1353
H9 H 0.9502 0.6379 0.0911
C12 C 0.70949(18) 0.4532(3) 0.01707(14)
H10 H 0.7298 0.3451 -0.0016
H11 H 0.6423 0.4919 -0.0188
H12 H 0.7023 0.4360 0.0687
C13 C 0.8151(2) 0.5916(3) -0.05800(15)
H13 H 0.8705 0.6746 -0.0568
H14 H 0.7504 0.6238 -0.0986
H15 H 0.8372 0.4774 -0.0690
C14 C 0.63002(15) 0.8730(3) 0.10385(12)
C15 C 0.76949(14) 0.9718(2) -0.06552(11)
C16 C 0.84016(17) 1.0593(3) -0.09760(12)
H16 H 0.9110 1.0766 -0.0668
C17 C 0.8059(2) 1.1194(3) -0.17362(14)
H17 H 0.8536 1.1784 -0.1939
C18 C 0.7023(2) 1.0942(4) -0.22049(14)
H18 H 0.6797 1.1360 -0.2722
C19 C 0.6321(2) 1.0068(4) -0.19068(13)
H19 H 0.5619 0.9878 -0.2225
C20 C 0.66485(16) 0.9469(3) -0.11391(12)
H20 H 0.6163 0.8890 -0.0942
loop_
_geom_bond_atom_site_label_1
_geom_bond_atom_site_label_2
_geom_bond_site_symmetry_1
_geom_bond_site_symmetry_2
N1 C1 1_555 1_555
F1 C14 1_555 1_555
F2 C14 1_555 1_555
F3 C14 1_555 1_555
C1 H1 1_555 1_555
C2 C1 1_555 1_555
C3 C2 1_555 1_555
H2 C3 1_555 1_555
C4 C3 1_555 1_555
H3 C4 1_555 1_555
C5 C4 1_555 1_555
H4 C5 1_555 1_555
C6 C5 1_555 1_555
H5 C6 1_555 1_555
C7 C2 1_555 1_555
C8 C7 1_555 1_555
H6 C8 1_555 1_555
C9 N1 1_555 1_555
C10 N1 1_555 1_555
C11 C10 1_555 1_555
H7 C11 1_555 1_555
H8 C11 1_555 1_555
H9 C11 1_555 1_555
C12 C10 1_555 1_555
H10 C12 1_555 1_555
H11 C12 1_555 1_555
H12 C12 1_555 1_555
C13 C10 1_555 1_555
H13 C13 1_555 1_555
H14 C13 1_555 1_555
H15 C13 1_555 1_555
C14 C1 1_555 1_555
C15 C9 1_555 1_555
C16 C15 1_555 1_555
H16 C16 1_555 1_555
C17 C16 1_555 1_555
H17 C17 1_555 1_555
C18 C17 1_555 1_555
H18 C18 1_555 1_555
C19 C18 1_555 1_555
H19 C19 1_555 1_555
C20 C15 1_555 1_555
H20 C20 1_555 1_555
C6 C7 1_555 1_555
C8 C9 1_555 1_555
C19 C20 1_555 1_555

#END
