
#######################################################################
#
#                 Cambridge Crystallographic Data Centre
#                                CCDC 
#
#######################################################################
#
# If this CIF has been generated from an entry in the Cambridge 
# Structural Database, then it will include bibliographic, chemical, 
# crystal, experimental, refinement or atomic coordinate data resulting 
# from the CCDC's data processing and validation procedures.
#
#######################################################################

data_TUYMOR
_chemical_formula_moiety         'C18 H17 I1 O3'
_chemical_name_systematic        
3-ethoxy-2-iodo-1-(4-methoxyphenyl)-3-phenylprop-2-en-1-one
_symmetry_cell_setting           orthorhombic
_symmetry_space_group_name_H-M   'P 21 21 21'
_symmetry_Int_Tables_number      19
_space_group_name_Hall           'P 2ac 2ab'
loop_
_symmetry_equiv_pos_site_id
_symmetry_equiv_pos_as_xyz
1 x,y,z
2 1/2-x,-y,1/2+z
3 -x,1/2+y,1/2-z
4 1/2+x,1/2-y,-z
_cell_length_a                   8.1054(6)
_cell_length_b                   10.9725(8)
_cell_length_c                   19.2549(14)
_cell_angle_alpha                90
_cell_angle_beta                 90
_cell_angle_gamma                90
_cell_volume                     1712.46
_exptl_crystal_colour            colorless
_exptl_crystal_description       block
_cell_formula_units_Z            4
loop_
_atom_site_label
_atom_site_type_symbol
_atom_site_fract_x
_atom_site_fract_y
_atom_site_fract_z
C1 C 0.5991(7) -0.3756(5) 0.0509(3)
H1 H 0.6812 -0.3687 0.0152
H2 H 0.5199 -0.4366 0.0380
H3 H 0.6509 -0.3984 0.0938
C2 C 0.6093(5) -0.1624(4) 0.0769(2)
C3 C 0.5212(5) -0.0543(4) 0.0823(2)
H4 H 0.4077 -0.0541 0.0752
C4 C 0.6014(5) 0.0518(4) 0.0980(2)
H5 H 0.5420 0.1242 0.1005
C5 C 0.7705(5) 0.0533(4) 0.1104(2)
C6 C 0.8554(5) -0.0562(4) 0.1066(2)
H6 H 0.9681 -0.0570 0.1157
C7 C 0.7773(5) -0.1640(4) 0.0898(2)
H7 H 0.8366 -0.2365 0.0871
C8 C 0.8519(5) 0.1709(3) 0.1233(2)
C9 C 1.0370(4) 0.1717(3) 0.13315(19)
C10 C 1.1176(5) 0.1569(4) 0.1922(2)
C11 C 1.0319(5) 0.1378(4) 0.2603(2)
C12 C 0.9040(5) 0.2126(5) 0.2806(2)
H8 H 0.8720 0.2769 0.2522
C13 C 0.8228(6) 0.1932(5) 0.3427(3)
H9 H 0.7365 0.2442 0.3558
C14 C 0.8688(6) 0.0995(5) 0.3849(3)
H10 H 0.8133 0.0858 0.4265
C15 C 0.9975(7) 0.0252(5) 0.3660(3)
H11 H 1.0295 -0.0381 0.3951
C16 C 1.0797(6) 0.0438(4) 0.3041(2)
H12 H 1.1671 -0.0067 0.2918
C17 C 1.3800(6) 0.2163(6) 0.2396(3)
H13 H 1.4910 0.1839 0.2430
H14 H 1.3297 0.2112 0.2852
C18 C 1.3881(10) 0.3461(6) 0.2180(4)
H15 H 1.4309 0.3512 0.1716
H16 H 1.4593 0.3900 0.2490
H17 H 1.2796 0.3809 0.2194
I1 I 1.15941(3) 0.19969(3) 0.038992(14)
O1 O 0.5183(4) -0.2623(3) 0.05933(18)
O2 O 0.7760(4) 0.2665(3) 0.1218(2)
O3 O 1.2862(3) 0.1433(3) 0.19139(16)
loop_
_geom_bond_atom_site_label_1
_geom_bond_atom_site_label_2
_geom_bond_site_symmetry_1
_geom_bond_site_symmetry_2
C1 H1 1_555 1_555
H2 C1 1_555 1_555
H3 C1 1_555 1_555
C2 C3 1_555 1_555
C3 H4 1_555 1_555
C4 C3 1_555 1_555
H5 C4 1_555 1_555
C5 C4 1_555 1_555
C6 C5 1_555 1_555
H6 C6 1_555 1_555
C7 C2 1_555 1_555
H7 C7 1_555 1_555
C8 C5 1_555 1_555
C9 C8 1_555 1_555
C10 C9 1_555 1_555
C11 C10 1_555 1_555
C12 C11 1_555 1_555
H8 C12 1_555 1_555
C13 C12 1_555 1_555
H9 C13 1_555 1_555
C14 C13 1_555 1_555
H10 C14 1_555 1_555
C15 C14 1_555 1_555
H11 C15 1_555 1_555
C16 C11 1_555 1_555
H12 C16 1_555 1_555
C17 H13 1_555 1_555
H14 C17 1_555 1_555
C18 C17 1_555 1_555
H15 C18 1_555 1_555
H16 C18 1_555 1_555
H17 C18 1_555 1_555
I1 C9 1_555 1_555
O1 C1 1_555 1_555
O2 C8 1_555 1_555
O3 C10 1_555 1_555
C2 O1 1_555 1_555
C6 C7 1_555 1_555
C15 C16 1_555 1_555
C17 O3 1_555 1_555

#END
