
#######################################################################
#
#                 Cambridge Crystallographic Data Centre
#                                CCDC 
#
#######################################################################
#
# If this CIF has been generated from an entry in the Cambridge 
# Structural Database, then it will include bibliographic, chemical, 
# crystal, experimental, refinement or atomic coordinate data resulting 
# from the CCDC's data processing and validation procedures.
#
#######################################################################

data_TUZGUS
_chemical_formula_moiety         'C26 H24 N6 O4,C4 H8 O1'
_chemical_name_systematic        
"N,N'-1,4-Phenylenebis(3-oxo-2-(phenylhydrazono)butanamide) tetrahydrofuran solvate"
_symmetry_cell_setting           monoclinic
_symmetry_space_group_name_H-M   'C 2/c'
_symmetry_Int_Tables_number      15
_space_group_name_Hall           '-C 2yn'
loop_
_symmetry_equiv_pos_site_id
_symmetry_equiv_pos_as_xyz
1 x,y,z
2 -x,y,1/2-z
3 1/2+x,1/2+y,z
4 1/2-x,1/2+y,1/2-z
5 -x,-y,-z
6 x,-y,1/2+z
7 1/2-x,1/2-y,-z
8 1/2+x,1/2-y,1/2+z
_cell_length_a                   20.397(3)
_cell_length_b                   6.7384(7)
_cell_length_c                   21.441(3)
_cell_angle_alpha                90
_cell_angle_beta                 113.159(3)
_cell_angle_gamma                90
_cell_volume                     2709.45
_exptl_crystal_colour            colorless
_exptl_crystal_description       Prism
_cell_formula_units_Z            4
loop_
_atom_site_label
_atom_site_type_symbol
_atom_site_fract_x
_atom_site_fract_y
_atom_site_fract_z
O1 O 0.41648(4) 0.69297(13) -0.12901(4)
O2 O 0.46265(4) 0.80292(12) 0.07716(4)
N1 N 0.59212(4) 0.80351(13) 0.08503(5)
N2 N 0.56604(4) 0.76438(12) 0.02022(5)
N3 N 0.37429(4) 0.74308(13) -0.02689(5)
C1 C 0.66662(5) 0.80582(15) 0.12194(6)
C2 C 0.71270(6) 0.72440(16) 0.09514(6)
H1 H 0.6947 0.6694 0.0508
C3 C 0.78552(6) 0.72511(17) 0.13457(7)
H2 H 0.8175 0.6698 0.1169
C4 C 0.81218(6) 0.80523(17) 0.19925(7)
H3 H 0.8620 0.8037 0.2258
C5 C 0.76598(6) 0.88761(17) 0.22513(6)
H4 H 0.7842 0.9434 0.2694
C6 C 0.69289(6) 0.88886(17) 0.18649(6)
H5 H 0.6612 0.9461 0.2041
C7 C 0.49681(5) 0.74951(14) -0.01548(5)
C8 C 0.47872(5) 0.71302(15) -0.08829(6)
C9 C 0.53869(6) 0.70572(17) -0.11247(6)
H6 H 0.5196 0.6729 -0.1609
H7 H 0.5732 0.6042 -0.0869
H8 H 0.5623 0.8353 -0.1053
C10 C 0.44314(5) 0.76804(14) 0.01567(5)
C11 C 0.31340(5) 0.75001(14) -0.01080(5)
C12 C 0.31564(5) 0.72809(15) 0.05476(5)
H9 H 0.3601 0.7133 0.0921
C13 C 0.25251(5) 0.72807(15) 0.06495(5)
H10 H 0.2542 0.7128 0.1096
H11 H 0.5617(7) 0.823(2) 0.1054(7)
H12 H 0.3683(8) 0.723(2) -0.0702(5)
O1F O 0.08352(4) 0.80703(13) 0.12901(4)
O2F O 0.03735(4) 0.69708(12) -0.07716(4)
N1F N -0.09212(4) 0.69649(13) -0.08503(5)
N2F N -0.06604(4) 0.73562(12) -0.02022(5)
N3F N 0.12571(4) 0.75692(13) 0.02689(5)
C1F C -0.16662(5) 0.69418(15) -0.12194(6)
C2F C -0.21270(6) 0.77560(16) -0.09514(6)
H1F H -0.1947 0.8306 -0.0508
C3F C -0.28552(6) 0.77489(17) -0.13457(7)
H2F H -0.3175 0.8302 -0.1169
C4F C -0.31218(6) 0.69477(17) -0.19925(7)
H3F H -0.3620 0.6963 -0.2258
C5F C -0.26598(6) 0.61239(17) -0.22513(6)
H4F H -0.2842 0.5566 -0.2694
C6F C -0.19289(6) 0.61114(17) -0.18649(6)
H5F H -0.1612 0.5539 -0.2041
C7F C 0.00319(5) 0.75049(14) 0.01548(5)
C8F C 0.02128(5) 0.78698(15) 0.08829(6)
C9F C -0.03869(6) 0.79428(17) 0.11247(6)
H6F H -0.0196 0.8271 0.1609
H7F H -0.0732 0.8958 0.0869
H8F H -0.0623 0.6647 0.1053
C10F C 0.05686(5) 0.73196(14) -0.01567(5)
C11F C 0.18660(5) 0.74999(14) 0.01080(5)
C12F C 0.18436(5) 0.77191(15) -0.05476(5)
H9F H 0.1399 0.7867 -0.0921
C13F C 0.24749(5) 0.77193(15) -0.06495(5)
H10F H 0.2458 0.7872 -0.1096
H11F H -0.0617(7) 0.677(2) -0.1054(7)
H12F H 0.1317(8) 0.777(2) 0.0702(5)
O3? O 0.52498(9) 0.5835(3) 0.26888(8)
C14? C 0.45699(15) 0.6716(4) 0.25303(14)
H13? H 0.4419 0.6491 0.2896
H14? H 0.4224 0.6132 0.2126
C15? C 0.4631(4) 0.8959(9) 0.2441(4)
H15? H 0.4545 0.9714 0.2781
H16? H 0.4302 0.9369 0.2000
C16? C 0.5402(4) 0.9189(8) 0.2524(4)
H17? H 0.5691 0.9762 0.2955
H18? H 0.5427 1.0023 0.2171
C17? C 0.56465(15) 0.7129(4) 0.24413(14)
H19? H 0.5557 0.6822 0.1978
H20? H 0.6148 0.7001 0.2709
loop_
_geom_bond_atom_site_label_1
_geom_bond_atom_site_label_2
_geom_bond_site_symmetry_1
_geom_bond_site_symmetry_2
O1 C8 1_555 1_555
O2 C10 1_555 1_555
N1 N2 1_555 1_555
N2 C7 1_555 1_555
N3 C10 1_555 1_555
C1 N1 1_555 1_555
C2 C1 1_555 1_555
H1 C2 1_555 1_555
C3 C2 1_555 1_555
H2 C3 1_555 1_555
C4 C3 1_555 1_555
H3 C4 1_555 1_555
C5 C4 1_555 1_555
H4 C5 1_555 1_555
C6 C1 1_555 1_555
H5 C6 1_555 1_555
C7 C8 1_555 1_555
C8 C9 1_555 1_555
C9 H6 1_555 1_555
H7 C9 1_555 1_555
H8 C9 1_555 1_555
C10 C7 1_555 1_555
C11 N3 1_555 1_555
C12 C11 1_555 1_555
H9 C12 1_555 1_555
C13 C12 1_555 1_555
H10 C13 1_555 1_555
H11 N1 1_555 1_555
H12 N3 1_555 1_555
O1F C8F 1_555 1_555
O2F C10F 1_555 1_555
N1F N2F 1_555 1_555
N2F C7F 1_555 1_555
N3F C10F 1_555 1_555
C1F N1F 1_555 1_555
C2F C1F 1_555 1_555
H1F C2F 1_555 1_555
C3F C2F 1_555 1_555
H2F C3F 1_555 1_555
C4F C3F 1_555 1_555
H3F C4F 1_555 1_555
C5F C4F 1_555 1_555
H4F C5F 1_555 1_555
C6F C1F 1_555 1_555
H5F C6F 1_555 1_555
C7F C8F 1_555 1_555
C8F C9F 1_555 1_555
C9F H6F 1_555 1_555
H7F C9F 1_555 1_555
H8F C9F 1_555 1_555
C10F C7F 1_555 1_555
C11F C13 1_555 1_555
C12F C11F 1_555 1_555
H9F C12F 1_555 1_555
C13F C11 1_555 1_555
H10F C13F 1_555 1_555
H11F N1F 1_555 1_555
H12F N3F 1_555 1_555
C5 C6 1_555 1_555
N3F C11F 1_555 1_555
C5F C6F 1_555 1_555
C12F C13F 1_555 1_555

#END
