
#######################################################################
#
#                 Cambridge Crystallographic Data Centre
#                                CCDC 
#
#######################################################################
#
# If this CIF has been generated from an entry in the Cambridge 
# Structural Database, then it will include bibliographic, chemical, 
# crystal, experimental, refinement or atomic coordinate data resulting 
# from the CCDC's data processing and validation procedures.
#
#######################################################################

data_TUZWIU
_chemical_formula_moiety         'C82 H96 N4 O10'
_chemical_name_systematic        
7,13,21,27-Tetraphenyl-29,30,31,32-tetrakis((pentylcarbamoyl)methoxy)-2,3,16,17-tetrahomo-3,17-dioxacalix[4]arene
_symmetry_cell_setting           triclinic
_symmetry_space_group_name_H-M   'P -1'
_symmetry_Int_Tables_number      2
_space_group_name_Hall           '-P 1'
loop_
_symmetry_equiv_pos_site_id
_symmetry_equiv_pos_as_xyz
1 x,y,z
2 -x,-y,-z
_cell_length_a                   9.975(4)
_cell_length_b                   11.684(3)
_cell_length_c                   16.593(5)
_cell_angle_alpha                86.654(14)
_cell_angle_beta                 80.36(2)
_cell_angle_gamma                74.92(2)
_cell_volume                     1840.69
_exptl_crystal_colour            colorless
_exptl_crystal_description       block
_chemical_melting_point          246deg.C
_cell_formula_units_Z            1
_exptl_crystal_recrystallization_method acetonitrile/methanol
loop_
_atom_site_label
_atom_site_type_symbol
_atom_site_fract_x
_atom_site_fract_y
_atom_site_fract_z
O1 O 0.6670(6) 0.5108(4) 0.0648(3)
O2 O 0.9114(6) 0.5894(6) -0.1005(3)
O3 O 0.1407(6) 0.7431(4) -0.0305(3)
O4 O -0.2306(7) 0.8619(5) 0.0198(3)
O5 O 0.3297(6) 0.7792(4) 0.0979(3)
N1 N 0.7371(12) 0.5004(9) -0.0991(5)
N2 N -0.0614(10) 0.7753(7) 0.0972(5)
C1 C 0.4603(11) 0.6700(7) 0.3898(5)
C2 C 0.5462(10) 0.6427(7) 0.4504(5)
H1 H 0.6387 0.5982 0.4376
C3 C 0.4935(13) 0.6820(8) 0.5298(5)
H2 H 0.5512 0.6619 0.5698
C4 C 0.3588(15) 0.7496(9) 0.5506(6)
H3 H 0.3258 0.7778 0.6034
C5 C 0.2734(11) 0.7747(7) 0.4914(6)
H4 H 0.1803 0.8178 0.5047
C6 C 0.3255(11) 0.7360(7) 0.4121(5)
H5 H 0.2666 0.7556 0.3728
C7 C 0.5166(9) 0.6278(7) 0.3047(4)
C8 C 0.4732(8) 0.6977(6) 0.2386(4)
H6 H 0.4086 0.7708 0.2482
C9 C 0.5240(9) 0.6614(7) 0.1580(4)
C10 C 0.6175(8) 0.5488(7) 0.1451(4)
C11 C 0.6639(8) 0.4763(7) 0.2107(4)
C12 C 0.6098(8) 0.5185(7) 0.2890(4)
H7 H 0.6378 0.4708 0.3331
C13 C 0.4757(10) 0.7411(7) 0.0883(5)
H8 H 0.5147 0.8094 0.0852
H9 H 0.5107 0.6987 0.0374
C14 C 0.7861(9) 0.5534(7) 0.0273(4)
H10 H 0.8685 0.5066 0.0487
H11 H 0.7709 0.6346 0.0440
C15 C 0.8170(12) 0.5503(8) -0.0630(5)
C16 C 0.7260(12) 0.5369(11) -0.2014(8)
H12 H 0.6368 0.5353 -0.2166
H13 H 0.7493 0.6112 -0.2186
C17 C 0.8270(14) 0.4439(11) -0.2244(9)
H14 H 0.8001 0.3698 -0.2137
H15 H 0.9134 0.4407 -0.2038
C18 C 0.8286(13) 0.4961(14) -0.3309(6)
H16 H 0.8606 0.4278 -0.3661
H17 H 0.7329 0.5352 -0.3384
C19 C 0.912(3) 0.573(2) -0.3559(12)
H18 H 0.8501 0.6298 -0.3872
H19 H 0.9025 0.6130 -0.3047
C20 C 1.011(2) 0.587(2) -0.3848(16)
H20 H 1.0346 0.6453 -0.3553
H21 H 1.0040 0.6145 -0.4400
H22 H 1.0819 0.5139 -0.3850
C21 C 0.5962(10) 0.8768(7) -0.2282(5)
C22 C 0.5929(10) 0.9088(7) -0.3102(5)
H23 H 0.5153 0.9056 -0.3334
C23 C 0.7019(13) 0.9449(10) -0.3577(6)
H24 H 0.6972 0.9653 -0.4123
C24 C 0.8190(14) 0.9514(10) -0.3247(7)
H25 H 0.8929 0.9751 -0.3571
C25 C 0.8240(11) 0.9225(9) -0.2443(6)
H26 H 0.9017 0.9270 -0.2217
C26 C 0.7145(10) 0.8865(7) -0.1957(5)
H27 H 0.7192 0.8685 -0.1408
C27 C 0.4809(8) 0.8389(7) -0.1753(4)
C28 C 0.4100(9) 0.7673(6) -0.2064(4)
H28 H 0.4378 0.7438 -0.2606
C29 C 0.2992(9) 0.7294(6) -0.1598(4)
C30 C 0.2549(8) 0.7719(6) -0.0813(5)
C31 C 0.3240(9) 0.8424(6) -0.0459(4)
C32 C 0.4357(8) 0.8746(6) -0.0947(4)
H29 H 0.4821 0.9218 -0.0727
C33 C 0.2822(8) 0.8762(6) 0.0429(4)
H30 H 0.1805 0.9037 0.0551
H31 H 0.3211 0.9413 0.0523
C34 C 0.0068(9) 0.8143(7) -0.0464(5)
H32 H 0.0143 0.8943 -0.0612
H33 H -0.0191 0.7821 -0.0924
C35 C -0.1090(11) 0.8186(7) 0.0284(6)
C36 C -0.1595(10) 0.7773(9) 0.1741(5)
H34 H -0.2552 0.8003 0.1627
H35 H -0.1435 0.6983 0.1984
C37 C -0.1420(12) 0.8618(11) 0.2336(6)
H36 H -0.0447 0.8437 0.2418
H37 H -0.1678 0.9424 0.2124
C38 C -0.2386(14) 0.8499(15) 0.3164(8)
H38 H -0.2222 0.7660 0.3300
H39 H -0.3352 0.8769 0.3067
C39 C -0.229(2) 0.905(2) 0.3836(13)
H40 H -0.3087 0.9004 0.4251
H41 H -0.2388 0.9886 0.3698
C40 C -0.1112(19) 0.8647(16) 0.4166(10)
H42 H -0.1136 0.9136 0.4616
H43 H -0.1047 0.7846 0.4357
H44 H -0.0311 0.8669 0.3760
C41 C 0.7660(8) 0.3568(6) 0.1936(4)
H45 H 0.7994 0.3241 0.2438
H46 H 0.8465 0.3668 0.1547
H47 H 0.656(9) 0.507(8) -0.066(5)
H48 H 0.033(7) 0.744(5) 0.098(4)
C29A C 0.7008(9) 0.2706(6) 0.1598(4)
C28A C 0.5900(9) 0.2327(6) 0.2064(4)
C27A C 0.5191(8) 0.1611(7) 0.1753(4)
C21A C 0.4038(10) 0.1232(7) 0.2282(5)
C22A C 0.4071(10) 0.0912(7) 0.3102(5)
H23A H 0.4847 0.0944 0.3334
C23A C 0.2981(13) 0.0551(10) 0.3577(6)
H24A H 0.3028 0.0347 0.4123
C24A C 0.1810(14) 0.0486(10) 0.3247(7)
H25A H 0.1071 0.0249 0.3571
C25A C 0.1760(11) 0.0775(9) 0.2443(6)
H26A H 0.0983 0.0730 0.2217
C26A C 0.2855(10) 0.1135(7) 0.1957(5)
H27A H 0.2808 0.1315 0.1408
C32A C 0.5643(8) 0.1254(6) 0.0947(4)
C31A C 0.6760(9) 0.1576(6) 0.0459(4)
C30A C 0.7451(8) 0.2281(6) 0.0813(5)
O3A O 0.8593(6) 0.2569(4) 0.0305(3)
C34A C 0.9932(9) 0.1857(7) 0.0464(5)
H32A H 0.9857 0.1057 0.0612
H33A H 1.0191 0.2179 0.0924
C35A C 1.1090(11) 0.1814(7) -0.0284(6)
O4A O 1.2306(7) 0.1381(5) -0.0198(3)
N2A N 1.0614(10) 0.2247(7) -0.0972(5)
C36A C 1.1595(10) 0.2227(9) -0.1741(5)
H34A H 1.2552 0.1997 -0.1627
H35A H 1.1435 0.3017 -0.1984
C37A C 1.1420(12) 0.1382(11) -0.2336(6)
H36A H 1.0447 0.1563 -0.2418
H37A H 1.1678 0.0576 -0.2124
C38A C 1.2386(14) 0.1501(15) -0.3164(8)
H38A H 1.2222 0.2340 -0.3300
H39A H 1.3352 0.1231 -0.3067
C39A C 1.229(2) 0.095(2) -0.3836(13)
H40A H 1.3087 0.0996 -0.4251
H41A H 1.2388 0.0114 -0.3698
C40A C 1.1112(19) 0.1353(16) -0.4166(10)
H42A H 1.1136 0.0864 -0.4616
H43A H 1.1047 0.2154 -0.4357
H44A H 1.0311 0.1331 -0.3760
H48A H 0.967(7) 0.256(5) -0.098(4)
C33A C 0.7178(8) 0.1238(6) -0.0429(4)
O5A O 0.6703(6) 0.2208(4) -0.0979(3)
C13A C 0.5243(10) 0.2589(7) -0.0883(5)
C9A C 0.4760(9) 0.3386(7) -0.1580(4)
C8A C 0.5268(8) 0.3023(6) -0.2386(4)
C7A C 0.4834(9) 0.3722(7) -0.3047(4)
C1A C 0.5397(11) 0.3300(7) -0.3898(5)
C2A C 0.4538(10) 0.3573(7) -0.4504(5)
H1A H 0.3613 0.4018 -0.4376
C3A C 0.5065(13) 0.3180(8) -0.5298(5)
H2A H 0.4488 0.3381 -0.5698
C4A C 0.6412(15) 0.2504(9) -0.5506(6)
H3A H 0.6742 0.2222 -0.6034
C5A C 0.7266(11) 0.2253(7) -0.4914(6)
H4A H 0.8197 0.1822 -0.5047
C6A C 0.6745(11) 0.2640(7) -0.4121(5)
H5A H 0.7334 0.2444 -0.3728
C12A C 0.3902(8) 0.4815(7) -0.2890(4)
C11A C 0.3361(8) 0.5237(7) -0.2107(4)
C10A C 0.3825(8) 0.4512(7) -0.1451(4)
O1A O 0.3330(6) 0.4892(4) -0.0648(3)
C14A C 0.2139(9) 0.4466(7) -0.0273(4)
H10A H 0.1315 0.4934 -0.0487
H11A H 0.2291 0.3654 -0.0440
C15A C 0.1830(12) 0.4497(8) 0.0630(5)
O2A O 0.0886(6) 0.4106(6) 0.1005(3)
N1A N 0.2629(12) 0.4996(9) 0.0991(5)
C16A C 0.2740(12) 0.4631(11) 0.2014(8)
H12A H 0.3632 0.4647 0.2166
H13A H 0.2507 0.3888 0.2186
C17A C 0.1730(14) 0.5561(11) 0.2244(9)
H14A H 0.1999 0.6302 0.2137
H15A H 0.0866 0.5593 0.2038
C18A C 0.1714(13) 0.5039(14) 0.3309(6)
H16A H 0.1394 0.5722 0.3661
H17A H 0.2671 0.4648 0.3384
C19A C 0.088(3) 0.427(2) 0.3559(12)
H18A H 0.1499 0.3702 0.3872
H19A H 0.0975 0.3870 0.3047
C20A C -0.011(2) 0.413(2) 0.3848(16)
H20A H -0.0346 0.3547 0.3553
H21A H -0.0040 0.3855 0.4400
H22A H -0.0819 0.4861 0.3850
H47A H 0.344(9) 0.493(8) 0.066(5)
C41A C 0.2340(8) 0.6432(6) -0.1936(4)
H45A H 0.2006 0.6759 -0.2438
H46A H 0.1535 0.6332 -0.1547
H7A H 0.3622 0.5292 -0.3331
H6A H 0.5914 0.2292 -0.2482
H8A H 0.4853 0.1906 -0.0852
H9A H 0.4893 0.3013 -0.0374
H30A H 0.8195 0.0963 -0.0551
H31A H 0.6789 0.0587 -0.0523
H29A H 0.5179 0.0782 0.0727
H28A H 0.5622 0.2562 0.2606
loop_
_geom_bond_atom_site_label_1
_geom_bond_atom_site_label_2
_geom_bond_site_symmetry_1
_geom_bond_site_symmetry_2
O1 C10 1_555 1_555
O2 C15 1_555 1_555
O3 C30 1_555 1_555
O4 C35 1_555 1_555
O5 C13 1_555 1_555
N1 C15 1_555 1_555
N2 C35 1_555 1_555
C1 C2 1_555 1_555
C2 H1 1_555 1_555
C3 C2 1_555 1_555
H2 C3 1_555 1_555
C4 C3 1_555 1_555
H3 C4 1_555 1_555
C5 C4 1_555 1_555
H4 C5 1_555 1_555
C6 C1 1_555 1_555
H5 C6 1_555 1_555
C7 C1 1_555 1_555
C8 C7 1_555 1_555
H6 C8 1_555 1_555
C9 C8 1_555 1_555
C10 C9 1_555 1_555
C11 C10 1_555 1_555
C12 C7 1_555 1_555
H7 C12 1_555 1_555
C13 C9 1_555 1_555
H8 C13 1_555 1_555
H9 C13 1_555 1_555
C14 O1 1_555 1_555
H10 C14 1_555 1_555
H11 C14 1_555 1_555
C15 C14 1_555 1_555
C16 N1 1_555 1_555
H12 C16 1_555 1_555
H13 C16 1_555 1_555
C17 C16 1_555 1_555
H14 C17 1_555 1_555
H15 C17 1_555 1_555
C18 C17 1_555 1_555
H16 C18 1_555 1_555
H17 C18 1_555 1_555
C19 C18 1_555 1_555
H18 C19 1_555 1_555
H19 C19 1_555 1_555
C20 C19 1_555 1_555
H20 C20 1_555 1_555
H21 C20 1_555 1_555
H22 C20 1_555 1_555
C21 C22 1_555 1_555
C22 H23 1_555 1_555
C23 C22 1_555 1_555
H24 C23 1_555 1_555
C24 C23 1_555 1_555
H25 C24 1_555 1_555
C25 C24 1_555 1_555
H26 C25 1_555 1_555
C26 C21 1_555 1_555
H27 C26 1_555 1_555
C27 C21 1_555 1_555
C28 C27 1_555 1_555
H28 C28 1_555 1_555
C29 C28 1_555 1_555
C30 C29 1_555 1_555
C31 C30 1_555 1_555
C32 C27 1_555 1_555
H29 C32 1_555 1_555
C33 O5 1_555 1_555
H30 C33 1_555 1_555
H31 C33 1_555 1_555
C34 O3 1_555 1_555
H32 C34 1_555 1_555
H33 C34 1_555 1_555
C35 C34 1_555 1_555
C36 N2 1_555 1_555
H34 C36 1_555 1_555
H35 C36 1_555 1_555
C37 C36 1_555 1_555
H36 C37 1_555 1_555
H37 C37 1_555 1_555
C38 C37 1_555 1_555
H38 C38 1_555 1_555
H39 C38 1_555 1_555
C39 C38 1_555 1_555
H40 C39 1_555 1_555
H41 C39 1_555 1_555
C40 C39 1_555 1_555
H42 C40 1_555 1_555
H43 C40 1_555 1_555
H44 C40 1_555 1_555
C41 C11 1_555 1_555
H45 C41 1_555 1_555
H46 C41 1_555 1_555
H47 N1 1_555 1_555
H48 N2 1_555 1_555
C29A C41 1_555 1_555
C28A C29A 1_555 1_555
C27A C28A 1_555 1_555
C21A C27A 1_555 1_555
C22A C21A 1_555 1_555
H23A C22A 1_555 1_555
C23A C22A 1_555 1_555
H24A C23A 1_555 1_555
C24A C23A 1_555 1_555
H25A C24A 1_555 1_555
C25A C24A 1_555 1_555
H26A C25A 1_555 1_555
C26A C21A 1_555 1_555
H27A C26A 1_555 1_555
C32A C27A 1_555 1_555
C31A C32A 1_555 1_555
C30A C29A 1_555 1_555
O3A C30A 1_555 1_555
C34A O3A 1_555 1_555
H32A C34A 1_555 1_555
H33A C34A 1_555 1_555
C35A C34A 1_555 1_555
O4A C35A 1_555 1_555
N2A C35A 1_555 1_555
C36A N2A 1_555 1_555
H34A C36A 1_555 1_555
H35A C36A 1_555 1_555
C37A C36A 1_555 1_555
H36A C37A 1_555 1_555
H37A C37A 1_555 1_555
C38A C37A 1_555 1_555
H38A C38A 1_555 1_555
H39A C38A 1_555 1_555
C39A C38A 1_555 1_555
H40A C39A 1_555 1_555
H41A C39A 1_555 1_555
C40A C39A 1_555 1_555
H42A C40A 1_555 1_555
H43A C40A 1_555 1_555
H44A C40A 1_555 1_555
H48A N2A 1_555 1_555
C33A C31A 1_555 1_555
O5A C33A 1_555 1_555
C13A O5A 1_555 1_555
C9A C13A 1_555 1_555
C8A C9A 1_555 1_555
C7A C8A 1_555 1_555
C1A C7A 1_555 1_555
C2A C1A 1_555 1_555
H1A C2A 1_555 1_555
C3A C2A 1_555 1_555
H2A C3A 1_555 1_555
C4A C3A 1_555 1_555
H3A C4A 1_555 1_555
C5A C4A 1_555 1_555
H4A C5A 1_555 1_555
C6A C1A 1_555 1_555
H5A C6A 1_555 1_555
C12A C7A 1_555 1_555
C11A C12A 1_555 1_555
C10A C9A 1_555 1_555
O1A C10A 1_555 1_555
C14A O1A 1_555 1_555
H10A C14A 1_555 1_555
H11A C14A 1_555 1_555
C15A C14A 1_555 1_555
O2A C15A 1_555 1_555
N1A C15A 1_555 1_555
C16A N1A 1_555 1_555
H12A C16A 1_555 1_555
H13A C16A 1_555 1_555
C17A C16A 1_555 1_555
H14A C17A 1_555 1_555
H15A C17A 1_555 1_555
C18A C17A 1_555 1_555
H16A C18A 1_555 1_555
H17A C18A 1_555 1_555
C19A C18A 1_555 1_555
H18A C19A 1_555 1_555
H19A C19A 1_555 1_555
C20A C19A 1_555 1_555
H20A C20A 1_555 1_555
H21A C20A 1_555 1_555
H22A C20A 1_555 1_555
H47A N1A 1_555 1_555
C41A C29 1_555 1_555
H45A C41A 1_555 1_555
H46A C41A 1_555 1_555
H7A C12A 1_555 1_555
H6A C8A 1_555 1_555
H8A C13A 1_555 1_555
H9A C13A 1_555 1_555
H30A C33A 1_555 1_555
H31A C33A 1_555 1_555
H29A C32A 1_555 1_555
H28A C28A 1_555 1_555
C5 C6 1_555 1_555
C11 C12 1_555 1_555
C25 C26 1_555 1_555
C31 C32 1_555 1_555
C31 C33 1_555 1_555
C25A C26A 1_555 1_555
C31A C30A 1_555 1_555
C5A C6A 1_555 1_555
C11A C10A 1_555 1_555
C11A C41A 1_555 1_555

#END
