
#######################################################################
#
#                 Cambridge Crystallographic Data Centre
#                                CCDC 
#
#######################################################################
#
# If this CIF has been generated from an entry in the Cambridge 
# Structural Database, then it will include bibliographic, chemical, 
# crystal, experimental, refinement or atomic coordinate data resulting 
# from the CCDC's data processing and validation procedures.
#
#######################################################################

data_TUZYUI
_chemical_formula_moiety         'C16 H14 O2 S10'
_chemical_name_systematic        
2-[4,5-bis(ethylthio)-1,3-dithiol-2-ylidene]-5-(4,5-ethylenedithio-1,3-dithiol-2-ylidene)-1,3,4,6-tetrathiapentalene
_symmetry_cell_setting           triclinic
_symmetry_space_group_name_H-M   'P -1'
_symmetry_Int_Tables_number      2
_space_group_name_Hall           '-P 1'
loop_
_symmetry_equiv_pos_site_id
_symmetry_equiv_pos_as_xyz
1 x,y,z
2 -x,-y,-z
_cell_length_a                   12.435(6)
_cell_length_b                   12.457(5)
_cell_length_c                   7.639(3)
_cell_angle_alpha                93.32(4)
_cell_angle_beta                 104.85(4)
_cell_angle_gamma                83.52(4)
_cell_volume                     1135.96
_exptl_crystal_colour            red
_exptl_crystal_description       prismatic
_cell_formula_units_Z            2
loop_
_atom_site_label
_atom_site_type_symbol
_atom_site_fract_x
_atom_site_fract_y
_atom_site_fract_z
S1 S 1.4292(2) -0.0638(2) 0.7137(4)
S2 S 1.2743(3) 0.0077(2) 0.2998(4)
S3 S 1.3112(2) 0.1328(2) 0.8520(3)
S4 S 1.1793(2) 0.1971(2) 0.4921(4)
S5 S 1.1407(2) 0.2816(2) 1.0385(3)
S6 S 1.0036(2) 0.3502(2) 0.6764(3)
S7 S 0.9435(2) 0.3585(2) 1.2029(3)
S8 S 0.8059(2) 0.4270(2) 0.8398(3)
S9 S 0.7672(2) 0.4948(2) 1.3916(4)
S10 S 0.6279(2) 0.5675(2) 1.0310(4)
O1 O 0.6178(6) 0.6052(5) 1.5442(9)
O2 O 0.4833(5) 0.6774(5) 1.1965(9)
C1 C 1.286(1) -0.173(1) 0.831(2)
C2 C 1.083(2) -0.074(1) 0.290(2)
C3 C 1.393(1) -0.1293(9) 0.887(2)
C4 C 1.134(1) -0.010(1) 0.198(2)
C5 C 1.3254(7) 0.0438(7) 0.669(1)
C6 C 1.2644(8) 0.0717(7) 0.504(1)
C7 C 1.1936(8) 0.2084(7) 0.725(1)
C8 C 1.1213(8) 0.2684(7) 0.802(1)
C9 C 1.0034(8) 0.3349(7) 1.020(1)
C10 C 0.9429(8) 0.3672(7) 0.861(1)
C11 C 0.8238(8) 0.4346(8) 1.076(1)
C12 C 0.7499(8) 0.4916(8) 1.156(1)
C13 C 0.6419(8) 0.5793(7) 1.380(1)
C14 C 0.5824(8) 0.6119(8) 1.224(1)
C15 C 0.513(1) 0.668(1) 1.515(2)
C16 C 0.469(1) 0.723(1) 1.362(2)
H1 H 0.4565 0.6114 1.5100
H2 H 0.5082 0.7107 1.6171
H3 H 0.5046 0.7880 1.3863
H4 H 0.3903 0.7411 1.3509
H5 H 1.2526 -0.1865 0.9296
H6 H 1.2298 -0.1274 0.7485
H7 H 1.2898 -0.2439 0.7660
H8 H 1.0956 -0.0522 0.4161
H9 H 1.0007 -0.0693 0.2432
H10 H 1.1086 -0.1490 0.2834
H11 H 1.4453 -0.1904 0.9315
H12 H 1.3864 -0.0821 0.9871
H13 H 1.0886 0.0598 0.1802
H14 H 1.1259 -0.0424 0.0761
loop_
_geom_bond_atom_site_label_1
_geom_bond_atom_site_label_2
_geom_bond_site_symmetry_1
_geom_bond_site_symmetry_2
S1 C3 1_555 1_555
S2 C4 1_555 1_555
S3 C5 1_555 1_555
S4 C6 1_555 1_555
S5 C8 1_555 1_555
S6 C8 1_555 1_555
S7 C9 1_555 1_555
S8 C10 1_555 1_555
S9 C12 1_555 1_555
S10 C12 1_555 1_555
O1 C13 1_555 1_555
O2 C14 1_555 1_555
C1 C3 1_555 1_555
C2 C4 1_555 1_555
C3 H11 1_555 1_555
C4 H13 1_555 1_555
C5 S1 1_555 1_555
C6 S2 1_555 1_555
C7 S3 1_555 1_555
C8 C7 1_555 1_555
C9 S5 1_555 1_555
C10 S6 1_555 1_555
C11 S7 1_555 1_555
C12 C11 1_555 1_555
C13 S9 1_555 1_555
C14 S10 1_555 1_555
C15 O1 1_555 1_555
C16 O2 1_555 1_555
H1 C15 1_555 1_555
H2 C15 1_555 1_555
H3 C16 1_555 1_555
H4 C16 1_555 1_555
H5 C1 1_555 1_555
H6 C1 1_555 1_555
H7 C1 1_555 1_555
H8 C2 1_555 1_555
H9 C2 1_555 1_555
H10 C2 1_555 1_555
H12 C3 1_555 1_555
H14 C4 1_555 1_555
S4 C7 1_555 1_555
S8 C11 1_555 1_555
C5 C6 1_555 1_555
C9 C10 1_555 1_555
C13 C14 1_555 1_555
C15 C16 1_555 1_555

#END
