
#######################################################################
#
#                 Cambridge Crystallographic Data Centre
#                                CCDC 
#
#######################################################################
#
# If this CIF has been generated from an entry in the Cambridge 
# Structural Database, then it will include bibliographic, chemical, 
# crystal, experimental, refinement or atomic coordinate data resulting 
# from the CCDC's data processing and validation procedures.
#
#######################################################################

data_TUZZET
_chemical_formula_moiety         'C16 H14 O2 S10,C16 H14 O2 S10 1+,As1 F6 1-'
_chemical_name_systematic        
'bis(2-[4,5-bis(ethylthio)-1,3-dithiol-2-ylidene]-5-(4,5-ethylenedithio-1,3-dithiol-2-ylidene)-1,3,4,6-tetrathiapentalene) hexafluoroarsenate'
_symmetry_cell_setting           monoclinic
_symmetry_space_group_name_H-M   'C 2/c'
_symmetry_Int_Tables_number      15
_space_group_name_Hall           '-C 2yn'
loop_
_symmetry_equiv_pos_site_id
_symmetry_equiv_pos_as_xyz
1 x,y,z
2 -x,y,1/2-z
3 1/2+x,1/2+y,z
4 1/2-x,1/2+y,1/2-z
5 -x,-y,-z
6 x,-y,1/2+z
7 1/2-x,1/2-y,-z
8 1/2+x,1/2-y,1/2+z
_cell_length_a                   24.656(1)
_cell_length_b                   5.73(8)
_cell_length_c                   34.87(6)
_cell_angle_alpha                90
_cell_angle_beta                 103(2)
_cell_angle_gamma                90
_cell_volume                     4800.13
_exptl_crystal_colour            black
_exptl_crystal_description       needle
_cell_formula_units_Z            4
loop_
_atom_site_label
_atom_site_type_symbol
_atom_site_fract_x
_atom_site_fract_y
_atom_site_fract_z
S1 S 0.27126(8) -0.1186(5) 0.64846(6)
S2 S 0.14250(9) -0.1089(5) 0.66431(5)
S3 S 0.23457(7) 0.2829(5) 0.59348(5)
S4 S 0.12140(8) 0.2909(4) 0.60680(5)
S5 S 0.20511(8) 0.7337(4) 0.53530(5)
S6 S 0.09115(7) 0.7391(4) 0.55071(5)
S7 S 0.17597(7) 1.1620(5) 0.48199(5)
S8 S 0.06258(7) 1.1710(4) 0.49845(5)
S9 S 0.14296(7) 1.5999(4) 0.42333(5)
S10 S 0.03055(7) 1.6106(5) 0.44074(5)
O1 O 0.1093(2) 1.927(1) 0.3686(1)
O2 O 0.0012(2) 1.944(1) 0.3876(1)
C1 C 0.3114(4) 0.247(3) 0.6997(2)
C2 C 0.1619(4) 0.240(3) 0.7214(2)
C3 C 0.3276(3) 0.077(2) 0.6712(2)
C4 C 0.1172(3) 0.093(2) 0.6961(2)
C5 C 0.2196(3) 0.081(2) 0.6276(2)
C6 C 0.1677(3) 0.086(2) 0.6339(2)
C7 C 0.1696(3) 0.424(2) 0.5838(2)
C8 C 0.1578(3) 0.606(2) 0.5602(2)
C9 C 0.1590(2) 0.945(1) 0.5123(2)
C10 C 0.1079(3) 0.951(2) 0.5196(2)
C11 C 0.1103(3) 1.293(2) 0.4734(2)
C12 C 0.0960(2) 1.480(2) 0.4489(2)
C13 C 0.0944(3) 1.793(2) 0.3966(2)
C14 C 0.0437(3) 1.798(2) 0.4048(2)
C15 C 0.0600(3) 2.023(2) 0.3423(2)
C16 C 0.0198(3) 2.112(2) 0.3630(2)
H1 H 0.3198 0.1839 0.7253
H2 H 0.3340 0.3901 0.7004
H3 H 0.2742 0.2875 0.6913
H4 H 0.1600 0.2419 0.7477
H5 H 0.1967 0.1981 0.7177
H6 H 0.1555 0.4065 0.7117
H7 H 0.3593 -0.0111 0.6851
H8 H 0.3399 0.1652 0.6509
H9 H 0.0888 0.1923 0.6808
H10 H 0.1000 0.0077 0.7142
H11 H 0.0707 2.1375 0.3255
H12 H 0.0417 1.8968 0.3249
H13 H -0.0106 2.1841 0.3454
H14 H 0.0390 2.2410 0.3803
As1 As 0.0000 0.4998(3) 0.2500
F1 F 0.0021(3) 0.498(2) 0.2985(1)
F2 F -0.0489(3) 0.292(2) 0.2438(3)
F3 F -0.0477(4) 0.709(2) 0.2443(3)
F1A F -0.0021(3) 0.498(2) 0.2015(1)
F2A F 0.0489(3) 0.292(2) 0.2562(3)
F3A F 0.0477(4) 0.709(2) 0.2557(3)
loop_
_geom_bond_atom_site_label_1
_geom_bond_atom_site_label_2
_geom_bond_site_symmetry_1
_geom_bond_site_symmetry_2
As1 F1 1_555 1_555
S1 C3 1_555 1_555
S2 C4 1_555 1_555
S3 C5 1_555 1_555
S4 C6 1_555 1_555
S5 C8 1_555 1_555
S6 C8 1_555 1_555
S7 C9 1_555 1_555
S8 C10 1_555 1_555
S9 C12 1_555 1_555
S10 C12 1_555 1_555
F2 As1 1_555 1_555
F3 As1 1_555 1_555
O1 C13 1_555 1_555
O2 C14 1_555 1_555
C1 C3 1_555 1_555
C2 C4 1_555 1_555
C3 H7 1_555 1_555
C4 H9 1_555 1_555
C5 S1 1_555 1_555
C6 S2 1_555 1_555
C7 S3 1_555 1_555
C8 C7 1_555 1_555
C9 S5 1_555 1_555
C10 S6 1_555 1_555
C11 S7 1_555 1_555
C12 C11 1_555 1_555
C13 S9 1_555 1_555
C14 S10 1_555 1_555
C15 O1 1_555 1_555
C16 O2 1_555 1_555
H1 C1 1_555 1_555
H2 C1 1_555 1_555
H3 C1 1_555 1_555
H4 C2 1_555 1_555
H5 C2 1_555 1_555
H6 C2 1_555 1_555
H8 C3 1_555 1_555
H10 C4 1_555 1_555
H11 C15 1_555 1_555
H12 C15 1_555 1_555
H13 C16 1_555 1_555
H14 C16 1_555 1_555
F1A As1 1_555 1_555
F2A As1 1_555 1_555
F3A As1 1_555 1_555
S4 C7 1_555 1_555
S8 C11 1_555 1_555
C5 C6 1_555 1_555
C9 C10 1_555 1_555
C13 C14 1_555 1_555
C15 C16 1_555 1_555

#END
