
#######################################################################
#
#                 Cambridge Crystallographic Data Centre
#                                CCDC 
#
#######################################################################
#
# If this CIF has been generated from an entry in the Cambridge 
# Structural Database, then it will include bibliographic, chemical, 
# crystal, experimental, refinement or atomic coordinate data resulting 
# from the CCDC's data processing and validation procedures.
#
#######################################################################

data_UBECAI
_chemical_formula_moiety         'C22 H20 N2 O7'
_chemical_name_systematic        
2-(3-hydroxypropyl)-5-((2-(3-hydroxypropyl)-1,3-dioxo-2,3-dihydro-1H-isoindol-5-yl)oxy)-1H-isoindole-1,3(2H)-dione
_symmetry_cell_setting           monoclinic
_symmetry_space_group_name_H-M   'C 2/c'
_symmetry_Int_Tables_number      15
_space_group_name_Hall           '-C 2yn'
loop_
_symmetry_equiv_pos_site_id
_symmetry_equiv_pos_as_xyz
1 x,y,z
2 -x,y,1/2-z
3 1/2+x,1/2+y,z
4 1/2-x,1/2+y,1/2-z
5 -x,-y,-z
6 x,-y,1/2+z
7 1/2-x,1/2-y,-z
8 1/2+x,1/2-y,1/2+z
_cell_length_a                   16.6850(5)
_cell_length_b                   5.0270(2)
_cell_length_c                   22.8630(7)
_cell_angle_alpha                90
_cell_angle_beta                 96.020(2)
_cell_angle_gamma                90
_cell_volume                     1907.07
_exptl_crystal_colour            colorless
_exptl_crystal_description       block
_cell_formula_units_Z            4
_exptl_crystal_recrystallization_method chloroform/n-hexane
_exptl_crystal_preparation       ', Luminescent'
loop_
_atom_site_label
_atom_site_type_symbol
_atom_site_fract_x
_atom_site_fract_y
_atom_site_fract_z
C1 C 0.44248(9) 0.2177(3) 0.21494(7)
C2 C 0.46475(10) 0.4305(4) 0.18194(7)
H1 H 0.5185 0.4829 0.1845
C3 C 0.40764(10) 0.5660(3) 0.14512(7)
H2 H 0.4218 0.7095 0.1227
C4 C 0.32878(9) 0.4803(3) 0.14291(6)
C5 C 0.30724(9) 0.2669(3) 0.17603(6)
C6 C 0.36331(10) 0.1294(3) 0.21296(7)
H3 H 0.3490 -0.0143 0.2353
C7 C 0.21816(10) 0.2311(3) 0.16454(7)
C8 C 0.25512(10) 0.5832(3) 0.10879(7)
C9 C 0.10760(9) 0.4607(4) 0.09976(8)
H4 H 0.1014 0.6351 0.0817
H5 H 0.0739 0.4547 0.1318
C10 C 0.07865(10) 0.2522(4) 0.05468(7)
H6 H 0.0822 0.0789 0.0735
H7 H 0.0223 0.2854 0.0416
C11 C 0.12500(11) 0.2443(4) 0.00183(8)
H8 H 0.1819 0.2210 0.0144
H9 H 0.1071 0.0941 -0.0228
N1 N 0.19183(8) 0.4251(3) 0.12366(6)
O1 O 0.5000 0.0730(3) 0.2500
O2 O 0.17539(7) 0.0735(3) 0.18599(6)
O3 O 0.24777(7) 0.7674(3) 0.07437(6)
O4 O 0.11342(8) 0.4828(3) -0.03103(7)
H10 H 0.1574 0.5458 -0.0365
C1A C 0.55752(9) 0.2177(3) 0.28506(7)
C2A C 0.53525(10) 0.4305(4) 0.31806(7)
H1A H 0.4815 0.4829 0.3155
C3A C 0.59236(10) 0.5660(3) 0.35488(7)
H2A H 0.5782 0.7095 0.3773
C4A C 0.67122(9) 0.4803(3) 0.35709(6)
C5A C 0.69276(9) 0.2669(3) 0.32397(6)
C6A C 0.63669(10) 0.1294(3) 0.28704(7)
H3A H 0.6510 -0.0143 0.2647
C7A C 0.78184(10) 0.2311(3) 0.33546(7)
C8A C 0.74488(10) 0.5832(3) 0.39121(7)
C9A C 0.89240(9) 0.4607(4) 0.40024(8)
H4A H 0.8986 0.6351 0.4183
H5A H 0.9261 0.4547 0.3682
C10A C 0.92135(10) 0.2522(4) 0.44532(7)
H6A H 0.9178 0.0789 0.4265
H7A H 0.9777 0.2854 0.4584
C11A C 0.87500(11) 0.2443(4) 0.49817(8)
H8A H 0.8181 0.2210 0.4856
H9A H 0.8929 0.0941 0.5228
N1A N 0.80817(8) 0.4251(3) 0.37634(6)
O2A O 0.82461(7) 0.0735(3) 0.31401(6)
O3A O 0.75223(7) 0.7674(3) 0.42563(6)
O4A O 0.88658(8) 0.4828(3) 0.53103(7)
H10A H 0.8426 0.5458 0.5365
loop_
_geom_bond_atom_site_label_1
_geom_bond_atom_site_label_2
_geom_bond_site_symmetry_1
_geom_bond_site_symmetry_2
C1 C2 1_555 1_555
C2 H1 1_555 1_555
C3 C2 1_555 1_555
H2 C3 1_555 1_555
C4 C3 1_555 1_555
C5 C4 1_555 1_555
C6 C1 1_555 1_555
H3 C6 1_555 1_555
C7 C5 1_555 1_555
C8 C4 1_555 1_555
C9 H4 1_555 1_555
H5 C9 1_555 1_555
C10 C9 1_555 1_555
H6 C10 1_555 1_555
H7 C10 1_555 1_555
C11 C10 1_555 1_555
H8 C11 1_555 1_555
H9 C11 1_555 1_555
N1 C7 1_555 1_555
O1 C1 1_555 1_555
O2 C7 1_555 1_555
O3 C8 1_555 1_555
O4 C11 1_555 1_555
H10 O4 1_555 1_555
C1A O1 1_555 1_555
C2A C1A 1_555 1_555
H1A C2A 1_555 1_555
C3A C2A 1_555 1_555
H2A C3A 1_555 1_555
C4A C3A 1_555 1_555
C5A C4A 1_555 1_555
C6A C1A 1_555 1_555
H3A C6A 1_555 1_555
C7A C5A 1_555 1_555
C8A C4A 1_555 1_555
C9A H4A 1_555 1_555
H5A C9A 1_555 1_555
C10A C9A 1_555 1_555
H6A C10A 1_555 1_555
H7A C10A 1_555 1_555
C11A C10A 1_555 1_555
H8A C11A 1_555 1_555
H9A C11A 1_555 1_555
N1A C7A 1_555 1_555
O2A C7A 1_555 1_555
O3A C8A 1_555 1_555
O4A C11A 1_555 1_555
H10A O4A 1_555 1_555
C5 C6 1_555 1_555
C8 N1 1_555 1_555
C9 N1 1_555 1_555
C5A C6A 1_555 1_555
C8A N1A 1_555 1_555
C9A N1A 1_555 1_555

#END
