
#######################################################################
#
#                 Cambridge Crystallographic Data Centre
#                                CCDC 
#
#######################################################################
#
# If this CIF has been generated from an entry in the Cambridge 
# Structural Database, then it will include bibliographic, chemical, 
# crystal, experimental, refinement or atomic coordinate data resulting 
# from the CCDC's data processing and validation procedures.
#
#######################################################################

data_UBEDIO
_chemical_formula_moiety         'C23 H33 N1 O4,H2 O1'
_chemical_name_systematic        
'N-(9-Ethoxy-1,8-dihydroxy-21a-methyl-1,2,3,3a,4,5,6,10b,11,12,12a-dodecahydrobenzo[3,4]cyclohepta[1,2-e]inden-6-yl)acetamide monohydrate'
_symmetry_cell_setting           triclinic
_symmetry_space_group_name_H-M   'P 1'
_symmetry_Int_Tables_number      1
_space_group_name_Hall           'P 1'
loop_
_symmetry_equiv_pos_site_id
_symmetry_equiv_pos_as_xyz
1 x,y,z
_cell_length_a                   7.040(1)
_cell_length_b                   9.048(2)
_cell_length_c                   9.687(2)
_cell_angle_alpha                62.69(1)
_cell_angle_beta                 75.89(1)
_cell_angle_gamma                84.71(1)
_cell_volume                     531.585
_exptl_crystal_colour            colorless
_exptl_crystal_description       plate
_cell_formula_units_Z            1
loop_
_atom_site_label
_atom_site_type_symbol
_atom_site_fract_x
_atom_site_fract_y
_atom_site_fract_z
O1 O 1.1225(7) 0.6319(6) 0.1625(6)
O2 O 1.2584(7) 0.9334(7) -0.0570(6)
O3 O 0.7359(9) 1.4027(7) -0.3269(7)
O4 O -0.1876(8) 0.6295(7) 0.7726(7)
N1 N 0.5461(9) 1.1906(8) -0.1149(7)
C1 C 0.7967(10) 0.7409(9) 0.2292(9)
C2 C 0.9913(11) 0.7569(9) 0.1421(8)
C3 C 1.0664(10) 0.9138(8) 0.0252(8)
C4 C 0.9490(11) 1.0486(10) -0.0071(9)
C5 C 0.7480(10) 1.0326(9) 0.0740(8)
C6 C 0.6293(12) 1.1874(9) 0.0128(9)
C7 C 0.4605(12) 1.2173(10) 0.1327(9)
C8 C 0.4949(12) 1.1309(10) 0.3013(10)
C9 C 0.4262(10) 0.9477(9) 0.3980(8)
C10 C 0.4608(10) 0.8565(9) 0.2922(9)
C11 C 0.6769(10) 0.8794(9) 0.1960(9)
C12 C 0.3945(11) 0.6702(9) 0.3947(8)
C13 C 0.1775(10) 0.6504(9) 0.4835(9)
C14 C 0.1385(10) 0.7426(9) 0.5848(8)
C15 C 0.2068(11) 0.9280(9) 0.4763(9)
C16 C 0.1207(12) 1.0102(10) 0.5848(10)
C17 C -0.0819(13) 0.9145(11) 0.6839(11)
C18 C -0.0815(12) 0.7703(10) 0.6384(10)
C19 C 1.0551(12) 0.4630(10) 0.2682(10)
C20 C 0.9515(13) 0.3901(11) 0.1974(13)
C21 C 0.6133(11) 1.2917(9) -0.2727(9)
C22 C 0.5251(12) 1.2588(10) -0.3811(10)
C23 C 0.2277(12) 0.6540(11) 0.7277(9)
H1 H 0.747 0.637 0.310
H2 H 1.001 1.153 -0.084
H3 H 0.721 1.283 -0.037
H4 H 0.499 0.892 0.482
H5 H 0.378 0.908 0.215
H6 H 0.137 0.972 0.390
H7 H -0.144 0.807 0.548
H8 H 1.315 0.846 -0.018
H9 H 0.460(13) 1.088(11) -0.068(10)
H10 H 0.449 1.336 0.099
H11 H 0.338 1.176 0.132
H12 H 0.428 1.191 0.359
H13 H 0.634 1.137 0.295
H14 H 0.414 0.616 0.326
H15 H 0.475 0.615 0.472
H16 H 0.095 0.694 0.407
H17 H 0.144 0.533 0.551
H18 H 0.368 0.662 0.693
H19 H 0.186 0.539 0.783
H20 H 0.185 0.704 0.798
H21 H 0.101 1.128 0.522
H22 H 0.206 0.997 0.655
H23 H -0.092 0.871 0.797
H24 H -0.190 0.987 0.655
H25 H -0.250 0.583 0.741
H26 H 0.968 0.460 0.364
H27 H 1.167 0.395 0.299
H28 H 1.044 0.369 0.118
H29 H 0.856 0.466 0.149
H30 H 0.887 0.288 0.279
H31 H 0.611 1.302 -0.485
H32 H 0.401 1.313 -0.388
H33 H 0.506 1.141 -0.340
O5 O 0.5440(8) 0.6963(8) -0.0056(7)
H34 H 0.652(15) 0.645(12) -0.080(12)
H35 H 0.667(13) 0.741(10) 0.001(10)
loop_
_geom_bond_atom_site_label_1
_geom_bond_atom_site_label_2
_geom_bond_site_symmetry_1
_geom_bond_site_symmetry_2
O1 C2 1_555 1_555
O2 C3 1_555 1_555
O3 C21 1_555 1_555
O4 C18 1_555 1_555
N1 C6 1_555 1_555
C1 C2 1_555 1_555
C2 C3 1_555 1_555
C3 C4 1_555 1_555
C4 C5 1_555 1_555
C5 C6 1_555 1_555
C6 C7 1_555 1_555
C7 C8 1_555 1_555
C8 C9 1_555 1_555
C9 C10 1_555 1_555
C10 C11 1_555 1_555
C11 C1 1_555 1_555
C12 C10 1_555 1_555
C13 C12 1_555 1_555
C14 C13 1_555 1_555
C15 C9 1_555 1_555
C16 C15 1_555 1_555
C17 C16 1_555 1_555
C18 C14 1_555 1_555
C19 O1 1_555 1_555
C20 C19 1_555 1_555
C21 N1 1_555 1_555
C22 C21 1_555 1_555
C23 C14 1_555 1_555
O5 H34 1_555 1_555
H1 C1 1_555 1_555
H2 C4 1_555 1_555
H3 C6 1_555 1_555
H4 C9 1_555 1_555
H5 C10 1_555 1_555
H6 C15 1_555 1_555
H7 C18 1_555 1_555
H8 O2 1_555 1_555
H9 N1 1_555 1_555
H10 C7 1_555 1_555
H11 C7 1_555 1_555
H12 C8 1_555 1_555
H13 C8 1_555 1_555
H14 C12 1_555 1_555
H15 C12 1_555 1_555
H16 C13 1_555 1_555
H17 C13 1_555 1_555
H18 C23 1_555 1_555
H19 C23 1_555 1_555
H20 C23 1_555 1_555
H21 C16 1_555 1_555
H22 C16 1_555 1_555
H23 C17 1_555 1_555
H24 C17 1_555 1_555
H25 O4 1_555 1_555
H26 C19 1_555 1_555
H27 C19 1_555 1_555
H28 C20 1_555 1_555
H29 C20 1_555 1_555
H30 C20 1_555 1_555
H31 C22 1_555 1_555
H32 C22 1_555 1_555
H33 C22 1_555 1_555
H35 O5 1_555 1_555
C5 C11 1_555 1_555
C14 C15 1_555 1_555
C17 C18 1_555 1_555

#END
