
#######################################################################
#
#                 Cambridge Crystallographic Data Centre
#                                CCDC 
#
#######################################################################
#
# If this CIF has been generated from an entry in the Cambridge 
# Structural Database, then it will include bibliographic, chemical, 
# crystal, experimental, refinement or atomic coordinate data resulting 
# from the CCDC's data processing and validation procedures.
#
#######################################################################

data_UBITIK
_chemical_formula_moiety         'C22 H18 N2 O2 S1'
_chemical_name_systematic        
1-((4-Methylphenyl)sulfonyl)-2,3-diphenylaziridine-2-carbonitrile
_symmetry_cell_setting           monoclinic
_symmetry_space_group_name_H-M   'P 21/c'
_symmetry_Int_Tables_number      14
_space_group_name_Hall           '-P 2ybc'
loop_
_symmetry_equiv_pos_site_id
_symmetry_equiv_pos_as_xyz
1 x,y,z
2 -x,1/2+y,1/2-z
3 -x,-y,-z
4 x,1/2-y,1/2+z
_cell_length_a                   15.8247(19)
_cell_length_b                   6.2154(7)
_cell_length_c                   23.3144(19)
_cell_angle_alpha                90
_cell_angle_beta                 122.007(5)
_cell_angle_gamma                90
_cell_volume                     1944.54
_cell_formula_units_Z            4
loop_
_atom_site_label
_atom_site_type_symbol
_atom_site_fract_x
_atom_site_fract_y
_atom_site_fract_z
C1 C 0.3971(2) 0.5541(5) 0.77484(14)
C2 C 0.4560(2) 0.3753(5) 0.78253(14)
H1 H 0.4302 0.2593 0.7529
C3 C 0.5560(2) 0.3782(5) 0.83703(13)
H2 H 0.5968 0.2611 0.8436
C4 C 0.5951(2) 0.5509(5) 0.88098(14)
C5 C 0.5330(2) 0.7277(5) 0.87110(14)
H3 H 0.5589 0.8435 0.9008
C6 C 0.4323(2) 0.7331(5) 0.81699(14)
H4 H 0.3916 0.8507 0.8099
C7 C 0.7012(2) 0.5541(4) 0.93753(13)
H5 H 0.7152 0.4279 0.9649
H6 H 0.7133 0.6800 0.9647
H7 H 0.7434 0.5566 0.9195
C8 C 0.20904(17) 0.2211(4) 0.75367(13)
H8 H 0.2181 0.1371 0.7217
C9 C 0.25317(19) 0.1217(4) 0.82417(13)
C10 C 0.21187(19) -0.0677(4) 0.83132(13)
H9 H 0.1575 -0.1298 0.7934
C11 C 0.25065(19) -0.1645(5) 0.89392(13)
H10 H 0.2228 -0.2911 0.8978
C12 C 0.3310(2) -0.0719(4) 0.95059(14)
H11 H 0.3579 -0.1367 0.9927
C13 C 0.3724(2) 0.1238(5) 0.94404(15)
H12 H 0.4264 0.1871 0.9819
C14 C 0.3317(2) 0.2199(5) 0.88073(14)
H13 H 0.3571 0.3496 0.8765
C15 C 0.12171(17) 0.3685(4) 0.72283(13)
C16 C 0.08065(18) 0.4310(4) 0.76415(13)
C17 C 0.0470(2) 0.3730(5) 0.64863(14)
C18 C 0.0286(2) 0.1992(5) 0.60636(14)
H14 H 0.0641 0.0721 0.6239
C19 C -0.04337(19) 0.2146(5) 0.53748(13)
H15 H -0.0566 0.0973 0.5092
C20 C -0.09497(17) 0.4053(4) 0.51151(13)
H16 H -0.1425 0.4157 0.4655
C21 C -0.0767(2) 0.5814(5) 0.55325(15)
H17 H -0.1120 0.7087 0.5353
C22 C -0.00499(18) 0.5664(5) 0.62223(13)
H18 H 0.0082 0.6839 0.6505
N1 N 0.04665(17) 0.4759(4) 0.79492(11)
N2 N 0.22579(14) 0.4529(4) 0.75429(11)
O1 O 0.25675(13) 0.4035(3) 0.65754(9)
O2 O 0.23384(13) 0.7660(3) 0.69127(9)
S1 S 0.27061(5) 0.54986(11) 0.70954(3)
loop_
_geom_bond_atom_site_label_1
_geom_bond_atom_site_label_2
_geom_bond_site_symmetry_1
_geom_bond_site_symmetry_2
C1 C2 1_555 1_555
C2 H1 1_555 1_555
C3 C2 1_555 1_555
H2 C3 1_555 1_555
C4 C3 1_555 1_555
C5 C4 1_555 1_555
H3 C5 1_555 1_555
C6 C1 1_555 1_555
H4 C6 1_555 1_555
C7 C4 1_555 1_555
H5 C7 1_555 1_555
H6 C7 1_555 1_555
H7 C7 1_555 1_555
C8 H8 1_555 1_555
C9 C8 1_555 1_555
C10 C9 1_555 1_555
H9 C10 1_555 1_555
C11 C10 1_555 1_555
H10 C11 1_555 1_555
C12 C11 1_555 1_555
H11 C12 1_555 1_555
C13 C12 1_555 1_555
H12 C13 1_555 1_555
C14 C9 1_555 1_555
H13 C14 1_555 1_555
C15 C8 1_555 1_555
C16 C15 1_555 1_555
C17 C15 1_555 1_555
C18 C17 1_555 1_555
H14 C18 1_555 1_555
C19 C18 1_555 1_555
H15 C19 1_555 1_555
C20 C19 1_555 1_555
H16 C20 1_555 1_555
C21 C20 1_555 1_555
H17 C21 1_555 1_555
C22 C17 1_555 1_555
H18 C22 1_555 1_555
N1 C16 1_555 1_555
N2 C8 1_555 1_555
O1 S1 1_555 1_555
O2 S1 1_555 1_555
S1 C1 1_555 1_555
C5 C6 1_555 1_555
C13 C14 1_555 1_555
C15 N2 1_555 1_555
C21 C22 1_555 1_555
N2 S1 1_555 1_555

#END
