
#######################################################################
#
#                 Cambridge Crystallographic Data Centre
#                                CCDC 
#
#######################################################################
#
# If this CIF has been generated from an entry in the Cambridge 
# Structural Database, then it will include bibliographic, chemical, 
# crystal, experimental, refinement or atomic coordinate data resulting 
# from the CCDC's data processing and validation procedures.
#
#######################################################################

data_UBUBAW
_chemical_formula_moiety         'C18 H3 B1 F15 N1,C6 H6'
_chemical_name_systematic        
'tris(Pentafluorophenyl)borane-ammonia benzene solvate'
_symmetry_cell_setting           monoclinic
_symmetry_space_group_name_H-M   'P 21/c'
_symmetry_Int_Tables_number      14
_space_group_name_Hall           '-P 2ybc'
loop_
_symmetry_equiv_pos_site_id
_symmetry_equiv_pos_as_xyz
1 x,y,z
2 -x,1/2+y,1/2-z
3 -x,-y,-z
4 x,1/2-y,1/2+z
_cell_length_a                   13.6490(7)
_cell_length_b                   18.1910(9)
_cell_length_c                   17.9196(9)
_cell_angle_alpha                90
_cell_angle_beta                 90.4740(10)
_cell_angle_gamma                90
_cell_volume                     4449.09
_exptl_crystal_colour            colorless
_exptl_crystal_description       block
_cell_formula_units_Z            8
loop_
_atom_site_label
_atom_site_type_symbol
_atom_site_fract_x
_atom_site_fract_y
_atom_site_fract_z
N1 N 0.76961(9) 0.26624(6) 0.76700(7)
H1 H 0.7070(14) 0.2780(10) 0.7834(10)
H2 H 0.7772(12) 0.2904(10) 0.7249(10)
H3 H 0.8130(13) 0.2849(10) 0.8000(10)
B1 B 0.78116(11) 0.17718(8) 0.75951(8)
C1 C 0.88359(10) 0.16138(7) 0.71535(7)
C2 C 0.89436(10) 0.11106(7) 0.65742(8)
C3 C 0.98253(10) 0.09721(7) 0.62229(8)
C4 C 1.06552(10) 0.13412(8) 0.64507(8)
C5 C 1.05959(10) 0.18394(7) 0.70273(8)
C6 C 0.97053(10) 0.19640(7) 0.73571(7)
C7 C 0.78190(9) 0.14829(7) 0.84617(7)
C8 C 0.85520(10) 0.10808(7) 0.88140(8)
C9 C 0.85086(10) 0.08608(8) 0.95528(8)
C10 C 0.76977(11) 0.10249(8) 0.99713(8)
C11 C 0.69401(10) 0.14170(8) 0.96480(8)
C12 C 0.70263(10) 0.16398(7) 0.89175(8)
C13 C 0.68516(9) 0.14884(7) 0.71187(7)
C14 C 0.65161(10) 0.18562(7) 0.64883(7)
C15 C 0.57154(10) 0.16454(8) 0.60653(7)
C16 C 0.52089(10) 0.10216(8) 0.62629(8)
C17 C 0.55204(10) 0.06230(7) 0.68704(8)
C18 C 0.63193(10) 0.08591(7) 0.72829(7)
F1 F 0.81793(6) 0.07120(5) 0.63253(5)
F2 F 0.98769(6) 0.04871(5) 0.56608(5)
F3 F 1.15173(6) 0.12241(5) 0.61101(5)
F4 F 1.14086(6) 0.22023(4) 0.72522(5)
F5 F 0.97002(6) 0.24524(4) 0.79322(4)
F6 F 0.93682(6) 0.08768(5) 0.84481(5)
F7 F 0.92557(6) 0.04897(5) 0.98642(5)
F8 F 0.76368(6) 0.08064(5) 1.06826(4)
F9 F 0.61363(6) 0.15698(5) 1.00442(4)
F10 F 0.62645(6) 0.20352(4) 0.86297(4)
F11 F 0.70001(6) 0.24667(4) 0.62477(4)
F12 F 0.54102(6) 0.20391(5) 0.54707(4)
F13 F 0.44151(6) 0.08106(5) 0.58685(5)
F14 F 0.50349(6) 0.00098(5) 0.70625(5)
F15 F 0.65736(6) 0.04302(4) 0.78654(4)
N2 N 0.28612(9) 0.26422(6) 0.03981(7)
H4 H 0.3465(13) 0.2776(9) 0.0241(9)
H5 H 0.2766(13) 0.2852(10) 0.0842(11)
H6 H 0.2421(13) 0.2848(9) 0.0082(10)
B2 B 0.27379(11) 0.17490(8) 0.04166(8)
C19 C 0.36874(9) 0.14081(7) 0.08601(7)
C20 C 0.40137(10) 0.06989(8) 0.07184(7)
C21 C 0.48294(10) 0.03861(8) 0.10483(8)
C22 C 0.53693(10) 0.07883(9) 0.15568(8)
C23 C 0.50531(10) 0.14808(8) 0.17474(8)
C24 C 0.42315(10) 0.17703(7) 0.14036(7)
C25 C 0.27651(9) 0.15113(7) -0.04668(7)
C26 C 0.35583(10) 0.17167(7) -0.09013(7)
C27 C 0.36678(10) 0.15362(8) -0.16437(8)
C28 C 0.29549(10) 0.11227(8) -0.19900(7)
C29 C 0.21534(10) 0.08969(8) -0.15886(8)
C30 C 0.20709(10) 0.10915(7) -0.08451(8)
C31 C 0.16980(10) 0.15824(7) 0.08347(7)
C32 C 0.08369(10) 0.19288(7) 0.06053(7)
C33 C -0.00639(10) 0.18238(7) 0.09263(8)
C34 C -0.01462(10) 0.13456(8) 0.15202(8)
C35 C 0.06740(10) 0.09803(7) 0.17746(7)
C36 C 0.15689(10) 0.11017(7) 0.14309(8)
F16 F 0.34977(6) 0.02647(4) 0.02479(5)
F17 F 0.50831(7) -0.03091(5) 0.08927(5)
F18 F 0.61818(6) 0.05077(5) 0.18735(5)
F19 F 0.55440(6) 0.18665(5) 0.22751(5)
F20 F 0.39524(6) 0.24527(4) 0.16329(5)
F21 F 0.12712(6) 0.08415(5) -0.04958(5)
F22 F 0.14522(6) 0.04921(5) -0.19250(5)
F23 F 0.30397(6) 0.09415(5) -0.27144(4)
F24 F 0.44515(6) 0.17590(5) -0.20286(5)
F25 F 0.42879(6) 0.21246(5) -0.05895(4)
F26 F 0.23233(6) 0.07144(5) 0.17131(5)
F27 F 0.06052(6) 0.05219(5) 0.23569(4)
F28 F -0.10133(6) 0.12480(5) 0.18541(5)
F29 F -0.08638(6) 0.21883(5) 0.06801(5)
F30 F 0.08657(6) 0.24068(4) 0.00196(4)
C37 C 0.69770(13) 0.12526(10) 0.42268(10)
H7 H 0.6329(14) 0.1344(10) 0.4370(11)
C38 C 0.71765(13) 0.07359(9) 0.36811(9)
H8 H 0.6662(14) 0.0481(11) 0.3453(11)
C39 C 0.81314(13) 0.06166(8) 0.34611(9)
H9 H 0.8270(13) 0.0268(10) 0.3090(11)
C40 C 0.88868(12) 0.10119(9) 0.37867(9)
H10 H 0.9571(14) 0.0937(11) 0.3627(11)
C41 C 0.86886(13) 0.15248(9) 0.43348(9)
H11 H 0.9224(13) 0.1797(10) 0.4552(10)
C42 C 0.77361(13) 0.16462(9) 0.45547(9)
H12 H 0.7602(13) 0.2016(11) 0.4933(11)
C43 C 0.27332(13) 0.16635(9) 0.33693(9)
H13 H 0.2786(13) 0.2025(11) 0.2961(11)
C44 C 0.35744(13) 0.13230(10) 0.36271(10)
H14 H 0.4189(14) 0.1444(10) 0.3415(11)
C45 C 0.35224(14) 0.08246(10) 0.42063(9)
H15 H 0.4098(14) 0.0599(11) 0.4389(11)
C46 C 0.26305(14) 0.06632(9) 0.45308(9)
H16 H 0.2584(13) 0.0327(11) 0.4913(11)
C47 C 0.17848(13) 0.10088(9) 0.42728(9)
H17 H 0.1182(14) 0.0891(10) 0.4496(10)
C48 C 0.18411(12) 0.15087(9) 0.36927(9)
H18 H 0.1235(14) 0.1757(10) 0.3518(10)
loop_
_geom_bond_atom_site_label_1
_geom_bond_atom_site_label_2
_geom_bond_site_symmetry_1
_geom_bond_site_symmetry_2
N1 H1 1_555 1_555
H2 N1 1_555 1_555
H3 N1 1_555 1_555
B1 N1 1_555 1_555
C1 B1 1_555 1_555
C2 C1 1_555 1_555
C3 C2 1_555 1_555
C4 C3 1_555 1_555
C5 C4 1_555 1_555
C6 C1 1_555 1_555
C7 B1 1_555 1_555
C8 C7 1_555 1_555
C9 C8 1_555 1_555
C10 C9 1_555 1_555
C11 C10 1_555 1_555
C12 C7 1_555 1_555
C13 B1 1_555 1_555
C14 C13 1_555 1_555
C15 C14 1_555 1_555
C16 C15 1_555 1_555
C17 C16 1_555 1_555
C18 C13 1_555 1_555
F1 C2 1_555 1_555
F2 C3 1_555 1_555
F3 C4 1_555 1_555
F4 C5 1_555 1_555
F5 C6 1_555 1_555
F6 C8 1_555 1_555
F7 C9 1_555 1_555
F8 C10 1_555 1_555
F9 C11 1_555 1_555
F10 C12 1_555 1_555
F11 C14 1_555 1_555
F12 C15 1_555 1_555
F13 C16 1_555 1_555
F14 C17 1_555 1_555
F15 C18 1_555 1_555
N2 H4 1_555 1_555
H5 N2 1_555 1_555
H6 N2 1_555 1_555
B2 N2 1_555 1_555
C19 B2 1_555 1_555
C20 C19 1_555 1_555
C21 C20 1_555 1_555
C22 C21 1_555 1_555
C23 C22 1_555 1_555
C24 C19 1_555 1_555
C25 B2 1_555 1_555
C26 C25 1_555 1_555
C27 C26 1_555 1_555
C28 C27 1_555 1_555
C29 C28 1_555 1_555
C30 C25 1_555 1_555
C31 B2 1_555 1_555
C32 C31 1_555 1_555
C33 C32 1_555 1_555
C34 C33 1_555 1_555
C35 C34 1_555 1_555
C36 C31 1_555 1_555
F16 C20 1_555 1_555
F17 C21 1_555 1_555
F18 C22 1_555 1_555
F19 C23 1_555 1_555
F20 C24 1_555 1_555
F21 C30 1_555 1_555
F22 C29 1_555 1_555
F23 C28 1_555 1_555
F24 C27 1_555 1_555
F25 C26 1_555 1_555
F26 C36 1_555 1_555
F27 C35 1_555 1_555
F28 C34 1_555 1_555
F29 C33 1_555 1_555
F30 C32 1_555 1_555
C37 H7 1_555 1_555
C38 C37 1_555 1_555
H8 C38 1_555 1_555
C39 C38 1_555 1_555
H9 C39 1_555 1_555
C40 C39 1_555 1_555
H10 C40 1_555 1_555
C41 C40 1_555 1_555
H11 C41 1_555 1_555
C42 C37 1_555 1_555
H12 C42 1_555 1_555
C43 H13 1_555 1_555
C44 C43 1_555 1_555
H14 C44 1_555 1_555
C45 C44 1_555 1_555
H15 C45 1_555 1_555
C46 C45 1_555 1_555
H16 C46 1_555 1_555
C47 C46 1_555 1_555
H17 C47 1_555 1_555
C48 C43 1_555 1_555
H18 C48 1_555 1_555
C5 C6 1_555 1_555
C11 C12 1_555 1_555
C17 C18 1_555 1_555
C23 C24 1_555 1_555
C29 C30 1_555 1_555
C35 C36 1_555 1_555
C41 C42 1_555 1_555
C47 C48 1_555 1_555

#END
