
#######################################################################
#
#                 Cambridge Crystallographic Data Centre
#                                CCDC 
#
#######################################################################
#
# If this CIF has been generated from an entry in the Cambridge 
# Structural Database, then it will include bibliographic, chemical, 
# crystal, experimental, refinement or atomic coordinate data resulting 
# from the CCDC's data processing and validation procedures.
#
#######################################################################

data_UBUGUT
_chemical_formula_moiety         'C20 H34 O2'
_chemical_name_systematic        2-Hydroxynephthenol
_symmetry_cell_setting           orthorhombic
_symmetry_space_group_name_H-M   'P 21 21 21'
_symmetry_Int_Tables_number      19
_space_group_name_Hall           'P 2ac 2ab'
loop_
_symmetry_equiv_pos_site_id
_symmetry_equiv_pos_as_xyz
1 x,y,z
2 1/2-x,-y,1/2+z
3 -x,1/2+y,1/2-z
4 1/2+x,1/2-y,-z
_cell_length_a                   8.9360(10)
_cell_length_b                   9.8350(10)
_cell_length_c                   22.334(2)
_cell_angle_alpha                90
_cell_angle_beta                 90
_cell_angle_gamma                90
_cell_volume                     1962.84
_exptl_crystal_colour            colorless
_exptl_crystal_description       block
_cell_formula_units_Z            4
loop_
_atom_site_label
_atom_site_type_symbol
_atom_site_fract_x
_atom_site_fract_y
_atom_site_fract_z
O1 O 0.0721(2) 0.8475(2) 0.27089(10)
H1 H 0.0247(2) 0.7726(2) 0.27238(10)
O2 O 0.0396(2) 0.6085(2) 0.21933(10)
H2 H 0.0061(2) 0.5276(2) 0.22031(10)
C1 C 0.2604(3) 0.7471(2) 0.20632(11)
H3 H 0.2107(3) 0.8167(2) 0.17532(11)
C2 C 0.1929(3) 0.6038(3) 0.19930(12)
H4 H 0.2554(3) 0.5278(3) 0.22838(12)
C3 C 0.1992(3) 0.5586(3) 0.13483(12)
H5 H 0.1786(3) 0.6270(3) 0.10525(12)
C4 C 0.2308(3) 0.4353(3) 0.11423(12)
C5 C 0.2298(4) 0.4076(3) 0.04712(12)
H6 H 0.2177(4) 0.4931(3) 0.02698(12)
H7 H 0.1444(4) 0.3524(3) 0.03759(12)
C6 C 0.3716(4) 0.3417(4) 0.02209(15)
H8 H 0.3658(4) 0.3377(4) -0.02079(15)
H9 H 0.3753(4) 0.2501(4) 0.03687(15)
C7 C 0.5164(4) 0.4123(3) 0.03818(14)
H10 H 0.5418(4) 0.4104(3) 0.07994(14)
C8 C 0.6108(4) 0.4777(3) 0.00344(12)
C9 C 0.7529(4) 0.5374(3) 0.02819(14)
H11 H 0.8357(4) 0.5021(3) 0.00559(14)
H12 H 0.7635(4) 0.5067(3) 0.06877(14)
C10 C 0.7589(4) 0.6937(3) 0.02867(13)
H13 H 0.7558(4) 0.7252(3) -0.01200(13)
H14 H 0.8504(4) 0.7250(3) 0.04648(13)
C11 C 0.6314(3) 0.7546(3) 0.06271(12)
H15 H 0.5366(3) 0.7536(3) 0.04250(12)
C12 C 0.6313(3) 0.8046(3) 0.11731(11)
C13 C 0.4842(3) 0.8457(3) 0.14614(12)
H16 H 0.4102(3) 0.8575(3) 0.11542(12)
H17 H 0.4954(3) 0.9303(3) 0.16706(12)
C14 C 0.4281(2) 0.7380(2) 0.19025(11)
H18 H 0.4464(2) 0.6505(2) 0.17259(11)
H19 H 0.4866(2) 0.7441(2) 0.22621(11)
C15 C 0.2296(3) 0.8140(3) 0.26809(12)
C16 C 0.3086(3) 0.9497(3) 0.27384(14)
H20 H 0.2893(3) 0.9878(3) 0.31265(14)
H21 H 0.4144(3) 0.9382(3) 0.26859(14)
H22 H 0.2708(3) 1.0098(3) 0.24352(14)
C17 C 0.2673(4) 0.7213(3) 0.32089(12)
H23 H 0.2471(4) 0.7680(3) 0.35778(12)
H24 H 0.2068(4) 0.6408(3) 0.31865(12)
H25 H 0.3711(4) 0.6966(3) 0.31931(12)
C18 C 0.2650(4) 0.3154(3) 0.15334(13)
H26 H 0.2628(4) 0.3431(3) 0.19455(13)
H27 H 0.1930(4) 0.2444(3) 0.14703(13)
H28 H 0.3631(4) 0.2825(3) 0.14353(13)
C19 C 0.5877(5) 0.4994(4) -0.06257(13)
H29 H 0.4931(5) 0.4607(4) -0.07369(13)
H30 H 0.5881(5) 0.5946(4) -0.07209(13)
H31 H 0.6664(5) 0.4546(4) -0.08416(13)
C20 C 0.7680(3) 0.8130(3) 0.15621(13)
H32 H 0.8538(3) 0.7846(3) 0.13361(13)
H33 H 0.7820(3) 0.9049(3) 0.16957(13)
H34 H 0.7557(3) 0.7545(3) 0.19025(13)
loop_
_geom_bond_atom_site_label_1
_geom_bond_atom_site_label_2
_geom_bond_site_symmetry_1
_geom_bond_site_symmetry_2
O1 H1 1_555 1_555
O2 H2 1_555 1_555
C1 H3 1_555 1_555
C2 O2 1_555 1_555
H4 C2 1_555 1_555
C3 C2 1_555 1_555
H5 C3 1_555 1_555
C4 C3 1_555 1_555
C5 C4 1_555 1_555
H6 C5 1_555 1_555
H7 C5 1_555 1_555
C6 C5 1_555 1_555
H8 C6 1_555 1_555
H9 C6 1_555 1_555
C7 C6 1_555 1_555
H10 C7 1_555 1_555
C8 C7 1_555 1_555
C9 C8 1_555 1_555
H11 C9 1_555 1_555
H12 C9 1_555 1_555
C10 C9 1_555 1_555
H13 C10 1_555 1_555
H14 C10 1_555 1_555
C11 C10 1_555 1_555
H15 C11 1_555 1_555
C12 C11 1_555 1_555
C13 C12 1_555 1_555
H16 C13 1_555 1_555
H17 C13 1_555 1_555
C14 C1 1_555 1_555
H18 C14 1_555 1_555
H19 C14 1_555 1_555
C15 O1 1_555 1_555
C16 C15 1_555 1_555
H20 C16 1_555 1_555
H21 C16 1_555 1_555
H22 C16 1_555 1_555
C17 C15 1_555 1_555
H23 C17 1_555 1_555
H24 C17 1_555 1_555
H25 C17 1_555 1_555
C18 C4 1_555 1_555
H26 C18 1_555 1_555
H27 C18 1_555 1_555
H28 C18 1_555 1_555
C19 C8 1_555 1_555
H29 C19 1_555 1_555
H30 C19 1_555 1_555
H31 C19 1_555 1_555
C20 C12 1_555 1_555
H32 C20 1_555 1_555
H33 C20 1_555 1_555
H34 C20 1_555 1_555
C1 C2 1_555 1_555
C1 C15 1_555 1_555
C13 C14 1_555 1_555

#END
