
#######################################################################
#
#                 Cambridge Crystallographic Data Centre
#                                CCDC 
#
#######################################################################
#
# If this CIF has been generated from an entry in the Cambridge 
# Structural Database, then it will include bibliographic, chemical, 
# crystal, experimental, refinement or atomic coordinate data resulting 
# from the CCDC's data processing and validation procedures.
#
#######################################################################

data_UBUGAC
_chemical_formula_moiety         'C23 H22 N2 O1'
_chemical_name_systematic        
2-(((4-(2-(4-(dimethylamino)phenyl)vinyl)phenyl)imino)methyl)phenol
_symmetry_cell_setting           orthorhombic
_symmetry_space_group_name_H-M   'P 21 21 21'
_symmetry_Int_Tables_number      19
_space_group_name_Hall           'P 2ac 2ab'
loop_
_symmetry_equiv_pos_site_id
_symmetry_equiv_pos_as_xyz
1 x,y,z
2 1/2-x,-y,1/2+z
3 -x,1/2+y,1/2-z
4 1/2+x,1/2-y,-z
_cell_length_a                   6.3110(5)
_cell_length_b                   7.8319(6)
_cell_length_c                   38.261(3)
_cell_angle_alpha                90
_cell_angle_beta                 90
_cell_angle_gamma                90
_cell_volume                     1891.13
_cell_formula_units_Z            4
loop_
_atom_site_label
_atom_site_type_symbol
_atom_site_fract_x
_atom_site_fract_y
_atom_site_fract_z
N1 N 1.7056(10) 0.5127(7) 0.38822(15)
N2 N 0.7409(12) 0.5361(8) 0.10898(17)
O1 O 1.7083(10) 0.3501(7) 0.44802(13)
H1 H 1.6658 0.3756 0.4284
C1 C 1.8661(15) 0.6044(10) 0.3992(2)
H2 H 1.9214 0.6900 0.3850
C2 C 1.9597(14) 0.5723(9) 0.4341(2)
C3 C 1.8804(14) 0.4483(10) 0.4563(2)
C4 C 1.9814(16) 0.4171(11) 0.4884(2)
H3 H 1.9289 0.3339 0.5034
C5 C 2.1599(18) 0.5108(12) 0.4976(2)
H4 H 2.2276 0.4891 0.5188
C6 C 2.2351(18) 0.6322(14) 0.4763(2)
H5 H 2.3548 0.6940 0.4827
C7 C 2.1321(16) 0.6672(12) 0.4438(2)
H6 H 2.1820 0.7537 0.4293
C8 C 1.6261(13) 0.5311(9) 0.35366(19)
C9 C 1.4301(14) 0.4561(10) 0.3470(2)
H7 H 1.3611 0.3995 0.3651
C10 C 1.3340(13) 0.4625(10) 0.31447(19)
H8 H 1.2030 0.4105 0.3112
C11 C 1.4325(13) 0.5471(10) 0.2862(2)
C12 C 1.6310(13) 0.6215(9) 0.29311(19)
H9 H 1.7006 0.6779 0.2751
C13 C 1.7295(13) 0.6143(9) 0.32635(19)
H10 H 1.8614 0.6643 0.3299
C14 C 1.3349(14) 0.5657(9) 0.25183(18)
H11 H 1.4163 0.6198 0.2349
C15 C 1.1430(13) 0.5140(9) 0.24193(19)
H12 H 1.0638 0.4596 0.2591
C16 C 1.0387(13) 0.5302(9) 0.20804(18)
C17 C 0.8480(12) 0.4507(9) 0.20191(19)
H13 H 0.7844 0.3928 0.2204
C18 C 0.7462(13) 0.4514(9) 0.17033(19)
H14 H 0.6193 0.3923 0.1678
C19 C 0.8306(13) 0.5400(9) 0.14163(19)
C20 C 1.0231(13) 0.6233(10) 0.1472(2)
H15 H 1.0848 0.6832 0.1288
C21 C 1.1263(13) 0.6194(9) 0.17969(19)
H16 H 1.2544 0.6765 0.1825
C22 C 0.5232(14) 0.4814(13) 0.1046(2)
H17 H 0.5055 0.3700 0.1147
H18 H 0.4892 0.4774 0.0802
H19 H 0.4307 0.5607 0.1162
C23 C 0.8306(16) 0.6302(11) 0.07960(18)
H20 H 0.8095 0.7503 0.0831
H21 H 0.7618 0.5955 0.0584
H22 H 0.9795 0.6066 0.0780
loop_
_geom_bond_atom_site_label_1
_geom_bond_atom_site_label_2
_geom_bond_site_symmetry_1
_geom_bond_site_symmetry_2
N1 C1 1_555 1_555
N2 C19 1_555 1_555
O1 H1 1_555 1_555
C1 H2 1_555 1_555
C2 C1 1_555 1_555
C3 O1 1_555 1_555
C4 C3 1_555 1_555
H3 C4 1_555 1_555
C5 C4 1_555 1_555
H4 C5 1_555 1_555
C6 C5 1_555 1_555
H5 C6 1_555 1_555
C7 C2 1_555 1_555
H6 C7 1_555 1_555
C8 N1 1_555 1_555
C9 C8 1_555 1_555
H7 C9 1_555 1_555
C10 C9 1_555 1_555
H8 C10 1_555 1_555
C11 C10 1_555 1_555
C12 C11 1_555 1_555
H9 C12 1_555 1_555
C13 C8 1_555 1_555
H10 C13 1_555 1_555
C14 C11 1_555 1_555
H11 C14 1_555 1_555
C15 C14 1_555 1_555
H12 C15 1_555 1_555
C16 C15 1_555 1_555
C17 C16 1_555 1_555
H13 C17 1_555 1_555
C18 C17 1_555 1_555
H14 C18 1_555 1_555
C19 C18 1_555 1_555
C20 C19 1_555 1_555
H15 C20 1_555 1_555
C21 C16 1_555 1_555
H16 C21 1_555 1_555
C22 N2 1_555 1_555
H17 C22 1_555 1_555
H18 C22 1_555 1_555
H19 C22 1_555 1_555
C23 N2 1_555 1_555
H20 C23 1_555 1_555
H21 C23 1_555 1_555
H22 C23 1_555 1_555
C2 C3 1_555 1_555
C6 C7 1_555 1_555
C12 C13 1_555 1_555
C20 C21 1_555 1_555

#END
