
#######################################################################
#
#                 Cambridge Crystallographic Data Centre
#                                CCDC 
#
#######################################################################
#
# If this CIF has been generated from an entry in the Cambridge 
# Structural Database, then it will include bibliographic, chemical, 
# crystal, experimental, refinement or atomic coordinate data resulting 
# from the CCDC's data processing and validation procedures.
#
#######################################################################

data_UBUHAD
_chemical_formula_moiety         'C23 H28 O8'
_chemical_name_systematic        
4-hydroxy-1-(7-methoxy-6-(3,4,5-trimethoxyphenyl)-1,3-benzodioxol-5-yl)-2,3-dimethylbutan-1-one
_symmetry_cell_setting           triclinic
_symmetry_space_group_name_H-M   'P 1'
_symmetry_Int_Tables_number      1
_space_group_name_Hall           'P 1'
loop_
_symmetry_equiv_pos_site_id
_symmetry_equiv_pos_as_xyz
1 x,y,z
_cell_length_a                   10.6222(6)
_cell_length_b                   14.5924(8)
_cell_length_c                   14.8889(9)
_cell_angle_alpha                95.368(3)
_cell_angle_beta                 99.501(2)
_cell_angle_gamma                105.234(2)
_cell_volume                     2173.34
_exptl_crystal_colour            colorless
_exptl_crystal_description       block
_cell_formula_units_Z            4
loop_
_atom_site_label
_atom_site_type_symbol
_atom_site_fract_x
_atom_site_fract_y
_atom_site_fract_z
O1 O 0.9521(5) -0.0777(3) 0.3298(3)
O2 O 0.3033(5) -0.1518(3) 0.3185(4)
H1 H 0.2303 -0.1919 0.3186
O3 O 0.7813(4) -0.1482(3) 0.4340(3)
O4 O 0.6021(4) 0.2114(3) 0.2953(3)
O5 O 0.5281(4) 0.3324(3) 0.6540(3)
O6 O 0.6907(4) 0.2764(3) 0.7333(3)
O7 O 0.8262(4) 0.1492(3) 0.6377(3)
O8 O 0.9816(5) 0.1000(3) 0.2850(3)
C1 C 0.8953(8) -0.1224(4) 0.2395(5)
H2 H 0.8013 -0.1562 0.2358
H3 H 0.9424 -0.1685 0.2217
H4 H 0.9023 -0.0740 0.1979
C2 C 0.8796(6) -0.0210(4) 0.3629(4)
C3 C 0.8989(6) 0.0725(4) 0.3443(4)
C4 C 0.8370(5) 0.1339(4) 0.3883(4)
H5 H 0.8509 0.1984 0.3766
C5 C 0.7549(5) 0.0984(4) 0.4492(4)
C6 C 0.6914(6) 0.1635(3) 0.4970(4)
C7 C 0.5924(6) 0.1985(3) 0.4529(4)
C8 C 0.5404(5) 0.1750(3) 0.3505(4)
C9 C 0.3994(6) 0.1086(4) 0.3175(4)
H6 H 0.3500 0.1145 0.3684
C10 C 0.4140(6) 0.0066(4) 0.3081(5)
H7 H 0.4686 0.0014 0.3679
C11 C 0.2812(6) -0.0647(4) 0.2999(5)
H8 H 0.2319 -0.0426 0.3444
H9 H 0.2280 -0.0724 0.2371
C12 C 0.7955(5) -0.0556(4) 0.4225(4)
C13 C 0.7064(8) -0.1862(5) 0.4982(6)
H10 H 0.7494 -0.1518 0.5599
H11 H 0.7009 -0.2544 0.4970
H12 H 0.6165 -0.1790 0.4825
C14 C 0.7349(5) 0.0061(4) 0.4678(4)
H13 H 0.6810 -0.0164 0.5106
C15 C 0.4877(8) -0.0156(5) 0.2355(5)
H14 H 0.4934 -0.0816 0.2349
H15 H 0.5776 0.0289 0.2488
H16 H 0.4405 -0.0087 0.1753
C16 C 0.3222(7) 0.1334(5) 0.2333(5)
H17 H 0.3234 0.2009 0.2440
H18 H 0.2300 0.0926 0.2209
H19 H 0.3631 0.1227 0.1803
C17 C 0.5289(6) 0.2562(4) 0.4999(4)
H20 H 0.4582 0.2773 0.4691
C18 C 0.5754(6) 0.2791(4) 0.5914(4)
C19 C 0.6200(6) 0.3465(4) 0.7382(4)
H21 H 0.5723 0.3398 0.7900
H22 H 0.6828 0.4118 0.7485
C20 C 0.6707(5) 0.2450(3) 0.6391(3)
C21 C 0.7321(5) 0.1876(3) 0.5960(4)
C22 C 0.9285(6) 0.2123(4) 0.7095(4)
H23 H 0.9668 0.2724 0.6869
H24 H 0.9984 0.1814 0.7275
H25 H 0.8898 0.2261 0.7628
C23 C 0.9935(7) 0.1915(4) 0.2567(5)
H26 H 0.9058 0.1949 0.2267
H27 H 1.0542 0.2015 0.2133
H28 H 1.0288 0.2414 0.3105
O9 O 1.2232(4) 0.8825(3) 0.9494(3)
H29 H 1.2670 0.9380 0.9755
O10 O 0.5904(4) 0.8562(3) 0.9556(3)
O11 O 0.9260(4) 0.5448(3) 0.9670(3)
O12 O 0.9886(4) 0.4352(3) 0.6211(3)
O13 O 0.8425(4) 0.5006(3) 0.5348(3)
O14 O 0.7051(4) 0.6310(2) 0.6156(3)
O15 O 0.5694(4) 0.6762(3) 0.9948(3)
O16 O 0.7355(4) 0.9280(2) 0.8366(3)
C24 C 1.2707(6) 0.8143(4) 0.9945(4)
H30 H 1.2724 0.8270 1.0612
H31 H 1.3628 0.8193 0.9861
C25 C 1.1806(5) 0.7126(4) 0.9553(4)
H32 H 1.1894 0.6994 0.8898
C26 C 1.0327(5) 0.7065(3) 0.9551(3)
H33 H 1.0056 0.7492 0.9117
C27 C 0.9534(6) 0.6055(4) 0.9175(4)
C28 C 0.9167(5) 0.5785(3) 0.8143(4)
C29 C 0.8291(5) 0.6191(3) 0.7630(4)
C30 C 0.7627(5) 0.6804(4) 0.8090(4)
C31 C 0.6934(6) 0.6450(4) 0.8768(4)
H34 H 0.6848 0.5809 0.8883
C32 C 0.6361(6) 0.7041(4) 0.9281(4)
C33 C 0.6529(5) 0.7983(4) 0.9121(4)
C34 C 0.6540(7) 0.8946(4) 1.0491(4)
H35 H 0.6426 0.8429 1.0871
H36 H 0.6139 0.9432 1.0718
H37 H 0.7492 0.9241 1.0522
C35 C 0.7930(5) 0.5920(3) 0.6641(3)
C36 C 0.8532(6) 0.5316(4) 0.6274(4)
C37 C 0.9421(5) 0.4924(3) 0.6786(4)
C38 C 0.9753(5) 0.5125(3) 0.7740(4)
H38 H 1.0333 0.4841 0.8096
C39 C 0.9028(6) 0.4227(4) 0.5341(4)
H39 H 0.8334 0.3603 0.5240
H40 H 0.9540 0.4239 0.4842
C40 C 0.5909(7) 0.5627(5) 0.5591(6)
H41 H 0.6193 0.5244 0.5130
H42 H 0.5319 0.5966 0.5280
H43 H 0.5432 0.5204 0.5974
C41 C 0.5603(7) 0.5809(4) 1.0162(5)
H44 H 0.5205 0.5344 0.9603
H45 H 0.5046 0.5673 1.0624
H46 H 0.6495 0.5762 1.0405
C42 C 0.7214(6) 0.8332(4) 0.8454(4)
C43 C 0.7976(8) 0.9661(4) 0.7664(5)
H47 H 0.8918 0.9680 0.7797
H48 H 0.7901 1.0313 0.7632
H49 H 0.7542 0.9256 0.7073
C44 C 0.7759(5) 0.7748(4) 0.7929(4)
H50 H 0.8217 0.7992 0.7467
C45 C 1.0063(7) 0.7387(4) 1.0499(4)
H51 H 0.9101 0.7253 1.0467
H52 H 1.0488 0.8077 1.0678
H53 H 1.0430 0.7036 1.0957
C46 C 1.2331(6) 0.6409(4) 1.0077(5)
H54 H 1.3283 0.6526 1.0079
H55 H 1.1852 0.5755 0.9777
H56 H 1.2195 0.6487 1.0712
O17 O -0.1790(5) 0.3679(3) 0.3342(3)
H57 H -0.2455 0.3194 0.3225
O18 O 0.3721(6) 0.4006(3) 0.2881(4)
O19 O 0.0630(5) 0.7178(3) 0.3016(3)
O20 O 0.2724(4) 0.3427(3) 0.4303(3)
O21 O 0.4159(6) 0.5860(3) 0.2594(3)
O22 O 0.3103(4) 0.6373(2) 0.6431(3)
O23 O 0.1790(4) 0.7684(3) 0.7370(3)
O24 O 0.0261(4) 0.8316(3) 0.6564(3)
C47 C -0.1531(8) 0.4005(4) 0.2534(4)
H58 H -0.2355 0.4086 0.2173
H59 H -0.1249 0.3523 0.2165
C48 C -0.0448(7) 0.4957(4) 0.2717(5)
H60 H 0.0329 0.4878 0.3150
C49 C -0.0933(6) 0.5766(4) 0.3202(4)
H61 H -0.1309 0.5532 0.3739
C50 C 0.0257(5) 0.6642(3) 0.3549(4)
C51 C 0.0804(6) 0.6895(3) 0.4571(4)
C52 C 0.1769(5) 0.6518(3) 0.5017(4)
C53 C 0.2381(5) 0.5877(3) 0.4517(4)
C54 C 0.3046(6) 0.6215(4) 0.3825(4)
H62 H 0.3159 0.6861 0.3721
C55 C 0.3550(7) 0.5608(4) 0.3280(4)
C56 C 0.3384(7) 0.4651(4) 0.3451(4)
C57 C 0.5057(8) 0.4144(5) 0.3036(7)
H63 H 0.5507 0.4823 0.3036
H64 H 0.5281 0.3751 0.2549
H65 H 0.5348 0.3957 0.3633
C58 C -0.2007(7) 0.6057(5) 0.2550(5)
H66 H -0.2264 0.6570 0.2881
H67 H -0.2788 0.5500 0.2337
H68 H -0.1648 0.6286 0.2020
C59 C 0.2297(5) 0.4965(4) 0.4723(4)
H69 H 0.1917 0.4755 0.5228
C60 C 0.2785(6) 0.4341(3) 0.4172(4)
C61 C 0.2138(7) 0.3073(4) 0.5030(5)
H70 H 0.2669 0.3442 0.5617
H71 H 0.2107 0.2396 0.5024
H72 H 0.1233 0.3137 0.4955
C62 C 0.4537(8) 0.6860(5) 0.2488(5)
H73 H 0.3736 0.7070 0.2320
H74 H 0.5060 0.6953 0.2002
H75 H 0.5074 0.7239 0.3069
C63 C 0.2182(5) 0.6762(4) 0.6004(4)
C64 C 0.4175(7) 0.7038(4) 0.7102(5)
H76 H 0.4584 0.7592 0.6817
H77 H 0.4846 0.6716 0.7318
H78 H 0.3821 0.7256 0.7624
C65 C 0.1586(5) 0.7362(3) 0.6430(4)
C66 C 0.1173(6) 0.8440(4) 0.7409(4)
H79 H 0.0699 0.8417 0.7929
H80 H 0.1853 0.9070 0.7499
C67 C 0.0697(5) 0.7750(4) 0.5955(4)
C68 C 0.0242(6) 0.7528(4) 0.5020(4)
H81 H -0.0406 0.7785 0.4700
C69 C -0.0001(8) 0.5181(5) 0.1841(5)
H82 H 0.0238 0.4632 0.1559
H83 H 0.0776 0.5747 0.1974
H84 H -0.0724 0.5310 0.1418
O25 O 0.7176(4) 0.3807(2) 0.9433(3)
H85 H 0.7666 0.4365 0.9640
O26 O 0.1314(5) 0.3554(3) 0.9884(4)
O27 O 0.4439(4) 0.0388(2) 0.9707(3)
O28 O 0.0948(4) 0.1689(3) 1.0130(3)
O29 O 0.2434(4) 0.4232(3) 0.8511(3)
O30 O 0.2072(4) 0.1280(3) 0.6226(3)
O31 O 0.4815(4) -0.0741(2) 0.6205(3)
O32 O 0.3396(4) -0.0051(3) 0.5372(3)
C70 C 0.7778(6) 0.3138(4) 0.9795(4)
H86 H 0.7932 0.3251 1.0475
H87 H 0.8650 0.3217 0.9612
C71 C 0.6884(5) 0.2114(4) 0.9440(4)
H88 H 0.6868 0.1989 0.8766
C72 C 0.5448(5) 0.2010(3) 0.9558(3)
H89 H 0.5089 0.2432 0.9156
C73 C 0.4644(5) 0.0993(4) 0.9195(4)
C74 C 0.4215(5) 0.0723(3) 0.8173(4)
C75 C 0.3315(5) 0.1127(3) 0.7663(4)
C76 C 0.2671(5) 0.1739(3) 0.8163(4)
C77 C 0.2793(6) 0.2687(4) 0.8016(4)
H90 H 0.3194 0.2932 0.7530
C78 C 0.2312(6) 0.3273(4) 0.8597(4)
C79 C 0.1709(6) 0.2933(4) 0.9295(4)
C80 C 0.2246(10) 0.3878(5) 1.0762(6)
H91 H 0.2295 0.3323 1.1076
H92 H 0.1940 0.4325 1.1145
H93 H 0.3129 0.4202 1.0654
C81 C 0.7532(6) 0.1417(4) 0.9903(5)
H94 H 0.7490 0.1481 1.0557
H95 H 0.8464 0.1564 0.9837
H96 H 0.7059 0.0759 0.9611
C82 C 0.1558(6) 0.1986(4) 0.9433(4)
C83 C 0.0665(7) 0.0690(4) 1.0208(5)
H97 H 0.0161 0.0312 0.9619
H98 H 0.0138 0.0548 1.0686
H99 H 0.1501 0.0524 1.0374
C84 C 0.2040(6) 0.1383(3) 0.8860(4)
H100 H 0.1933 0.0734 0.8951
C85 C 0.2953(8) 0.4598(4) 0.7770(5)
H101 H 0.3891 0.4609 0.7846
H102 H 0.2879 0.5252 0.7752
H103 H 0.2452 0.4190 0.7194
C86 C 0.2953(6) 0.0876(3) 0.6692(4)
C87 C 0.0940(7) 0.0612(5) 0.5613(5)
H104 H 0.1243 0.0291 0.5118
H105 H 0.0328 0.0960 0.5348
H106 H 0.0479 0.0133 0.5956
C88 C 0.3527(6) 0.0260(4) 0.6297(4)
C89 C 0.4406(5) -0.0145(3) 0.6794(4)
C90 C 0.3914(6) -0.0867(4) 0.5351(4)
H107 H 0.3185 -0.1468 0.5279
H108 H 0.4382 -0.0896 0.4831
C91 C 0.4756(5) 0.0053(3) 0.7754(4)
H109 H 0.5325 -0.0246 0.8102
C92 C 0.5302(7) 0.2313(4) 1.0536(4)
H110 H 0.4357 0.2139 1.0570
H111 H 0.5684 0.3009 1.0701
H112 H 0.5772 0.1987 1.0965
loop_
_geom_bond_atom_site_label_1
_geom_bond_atom_site_label_2
_geom_bond_site_symmetry_1
_geom_bond_site_symmetry_2
O1 C1 1_555 1_555
O2 H1 1_555 1_555
O3 C12 1_555 1_555
O4 C8 1_555 1_555
O5 C18 1_555 1_555
O6 C19 1_555 1_555
O7 C21 1_555 1_555
O8 C3 1_555 1_555
C1 H2 1_555 1_555
H3 C1 1_555 1_555
H4 C1 1_555 1_555
C2 O1 1_555 1_555
C3 C2 1_555 1_555
C4 C3 1_555 1_555
H5 C4 1_555 1_555
C5 C4 1_555 1_555
C6 C5 1_555 1_555
C7 C6 1_555 1_555
C8 C7 1_555 1_555
C9 C8 1_555 1_555
H6 C9 1_555 1_555
C10 C9 1_555 1_555
H7 C10 1_555 1_555
C11 O2 1_555 1_555
H8 C11 1_555 1_555
H9 C11 1_555 1_555
C12 C2 1_555 1_555
C13 O3 1_555 1_555
H10 C13 1_555 1_555
H11 C13 1_555 1_555
H12 C13 1_555 1_555
C14 C5 1_555 1_555
H13 C14 1_555 1_555
C15 C10 1_555 1_555
H14 C15 1_555 1_555
H15 C15 1_555 1_555
H16 C15 1_555 1_555
C16 C9 1_555 1_555
H17 C16 1_555 1_555
H18 C16 1_555 1_555
H19 C16 1_555 1_555
C17 C7 1_555 1_555
H20 C17 1_555 1_555
C18 C17 1_555 1_555
C19 O5 1_555 1_555
H21 C19 1_555 1_555
H22 C19 1_555 1_555
C20 O6 1_555 1_555
C21 C6 1_555 1_555
C22 O7 1_555 1_555
H23 C22 1_555 1_555
H24 C22 1_555 1_555
H25 C22 1_555 1_555
C23 O8 1_555 1_555
H26 C23 1_555 1_555
H27 C23 1_555 1_555
H28 C23 1_555 1_555
O9 H29 1_555 1_555
O10 C33 1_555 1_555
O11 C27 1_555 1_555
O12 C37 1_555 1_555
O13 C36 1_555 1_555
O14 C35 1_555 1_555
O15 C32 1_555 1_555
O16 C42 1_555 1_555
C24 O9 1_555 1_555
H30 C24 1_555 1_555
H31 C24 1_555 1_555
C25 C24 1_555 1_555
H32 C25 1_555 1_555
C26 C25 1_555 1_555
H33 C26 1_555 1_555
C27 C26 1_555 1_555
C28 C27 1_555 1_555
C29 C28 1_555 1_555
C30 C29 1_555 1_555
C31 C30 1_555 1_555
H34 C31 1_555 1_555
C32 C31 1_555 1_555
C33 C32 1_555 1_555
C34 O10 1_555 1_555
H35 C34 1_555 1_555
H36 C34 1_555 1_555
H37 C34 1_555 1_555
C35 C29 1_555 1_555
C36 C35 1_555 1_555
C37 C36 1_555 1_555
C38 C28 1_555 1_555
H38 C38 1_555 1_555
C39 O12 1_555 1_555
H39 C39 1_555 1_555
H40 C39 1_555 1_555
C40 O14 1_555 1_555
H41 C40 1_555 1_555
H42 C40 1_555 1_555
H43 C40 1_555 1_555
C41 O15 1_555 1_555
H44 C41 1_555 1_555
H45 C41 1_555 1_555
H46 C41 1_555 1_555
C42 C33 1_555 1_555
C43 O16 1_555 1_555
H47 C43 1_555 1_555
H48 C43 1_555 1_555
H49 C43 1_555 1_555
C44 C30 1_555 1_555
H50 C44 1_555 1_555
C45 C26 1_555 1_555
H51 C45 1_555 1_555
H52 C45 1_555 1_555
H53 C45 1_555 1_555
C46 C25 1_555 1_555
H54 C46 1_555 1_555
H55 C46 1_555 1_555
H56 C46 1_555 1_555
O17 H57 1_555 1_555
O18 C56 1_555 1_555
O19 C50 1_555 1_555
O20 C60 1_555 1_555
O21 C55 1_555 1_555
O22 C63 1_555 1_555
O23 C65 1_555 1_555
O24 C66 1_555 1_555
C47 O17 1_555 1_555
H58 C47 1_555 1_555
H59 C47 1_555 1_555
C48 C47 1_555 1_555
H60 C48 1_555 1_555
C49 C48 1_555 1_555
H61 C49 1_555 1_555
C50 C49 1_555 1_555
C51 C50 1_555 1_555
C52 C51 1_555 1_555
C53 C52 1_555 1_555
C54 C53 1_555 1_555
H62 C54 1_555 1_555
C55 C54 1_555 1_555
C56 C55 1_555 1_555
C57 O18 1_555 1_555
H63 C57 1_555 1_555
H64 C57 1_555 1_555
H65 C57 1_555 1_555
C58 C49 1_555 1_555
H66 C58 1_555 1_555
H67 C58 1_555 1_555
H68 C58 1_555 1_555
C59 C53 1_555 1_555
H69 C59 1_555 1_555
C60 C56 1_555 1_555
C61 O20 1_555 1_555
H70 C61 1_555 1_555
H71 C61 1_555 1_555
H72 C61 1_555 1_555
C62 O21 1_555 1_555
H73 C62 1_555 1_555
H74 C62 1_555 1_555
H75 C62 1_555 1_555
C63 C52 1_555 1_555
C64 O22 1_555 1_555
H76 C64 1_555 1_555
H77 C64 1_555 1_555
H78 C64 1_555 1_555
C65 C63 1_555 1_555
C66 O23 1_555 1_555
H79 C66 1_555 1_555
H80 C66 1_555 1_555
C67 O24 1_555 1_555
C68 C51 1_555 1_555
H81 C68 1_555 1_555
C69 C48 1_555 1_555
H82 C69 1_555 1_555
H83 C69 1_555 1_555
H84 C69 1_555 1_555
O25 H85 1_555 1_555
O26 C79 1_555 1_555
O27 C73 1_555 1_555
O28 C82 1_555 1_555
O29 C78 1_555 1_555
O30 C86 1_555 1_555
O31 C89 1_555 1_555
O32 C88 1_555 1_555
C70 O25 1_555 1_555
H86 C70 1_555 1_555
H87 C70 1_555 1_555
C71 C70 1_555 1_555
H88 C71 1_555 1_555
C72 C71 1_555 1_555
H89 C72 1_555 1_555
C73 C72 1_555 1_555
C74 C73 1_555 1_555
C75 C74 1_555 1_555
C76 C75 1_555 1_555
C77 C76 1_555 1_555
H90 C77 1_555 1_555
C78 C77 1_555 1_555
C79 C78 1_555 1_555
C80 O26 1_555 1_555
H91 C80 1_555 1_555
H92 C80 1_555 1_555
H93 C80 1_555 1_555
C81 C71 1_555 1_555
H94 C81 1_555 1_555
H95 C81 1_555 1_555
H96 C81 1_555 1_555
C82 C79 1_555 1_555
C83 O28 1_555 1_555
H97 C83 1_555 1_555
H98 C83 1_555 1_555
H99 C83 1_555 1_555
C84 C76 1_555 1_555
H100 C84 1_555 1_555
C85 O29 1_555 1_555
H101 C85 1_555 1_555
H102 C85 1_555 1_555
H103 C85 1_555 1_555
C86 C75 1_555 1_555
C87 O30 1_555 1_555
H104 C87 1_555 1_555
H105 C87 1_555 1_555
H106 C87 1_555 1_555
C88 C86 1_555 1_555
C89 C88 1_555 1_555
C90 O31 1_555 1_555
H107 C90 1_555 1_555
H108 C90 1_555 1_555
C91 C74 1_555 1_555
H109 C91 1_555 1_555
C92 C72 1_555 1_555
H110 C92 1_555 1_555
H111 C92 1_555 1_555
H112 C92 1_555 1_555
C10 C11 1_555 1_555
C12 C14 1_555 1_555
C18 C20 1_555 1_555
C20 C21 1_555 1_555
O13 C39 1_555 1_555
C37 C38 1_555 1_555
C42 C44 1_555 1_555
C59 C60 1_555 1_555
C65 C67 1_555 1_555
C67 C68 1_555 1_555
O32 C90 1_555 1_555
C82 C84 1_555 1_555
C89 C91 1_555 1_555

#END
