
#######################################################################
#
#                 Cambridge Crystallographic Data Centre
#                                CCDC 
#
#######################################################################
#
# If this CIF has been generated from an entry in the Cambridge 
# Structural Database, then it will include bibliographic, chemical, 
# crystal, experimental, refinement or atomic coordinate data resulting 
# from the CCDC's data processing and validation procedures.
#
#######################################################################

data_UCEKIZ
_chemical_formula_moiety         'C34 H30 Cl2 N6'
_chemical_name_systematic        
5,5'-bis(4-chlorophenyl)-3,3'-bis(4-isopropylphenyl)-3H,3'H-4,4'-bi-1,2,3-triazole
_symmetry_cell_setting           monoclinic
_symmetry_space_group_name_H-M   'C 2/c'
_symmetry_Int_Tables_number      15
_space_group_name_Hall           '-C 2yn'
loop_
_symmetry_equiv_pos_site_id
_symmetry_equiv_pos_as_xyz
1 x,y,z
2 -x,y,1/2-z
3 1/2+x,1/2+y,z
4 1/2-x,1/2+y,1/2-z
5 -x,-y,-z
6 x,-y,1/2+z
7 1/2-x,1/2-y,-z
8 1/2+x,1/2-y,1/2+z
_cell_length_a                   14.415(4)
_cell_length_b                   16.688(5)
_cell_length_c                   12.739(4)
_cell_angle_alpha                90
_cell_angle_beta                 97.053(6)
_cell_angle_gamma                90
_cell_volume                     3041.27
_exptl_crystal_colour            colorless
_exptl_crystal_description       ribbon
_cell_formula_units_Z            4
loop_
_atom_site_label
_atom_site_type_symbol
_atom_site_fract_x
_atom_site_fract_y
_atom_site_fract_z
C1 C 0.1455(3) 0.0598(2) 0.5005(3)
H1 H 0.1605 0.0898 0.5665
H2 H 0.1836 0.0111 0.5030
H3 H 0.0791 0.0452 0.4918
C2 C 0.1656(3) 0.1104(2) 0.4097(3)
H4 H 0.2338 0.1233 0.4209
C3 C 0.1472(3) 0.0651(2) 0.3049(3)
H5 H 0.1857 0.0166 0.3083
H6 H 0.1632 0.0995 0.2473
H7 H 0.0810 0.0503 0.2918
C4 C 0.1134(3) 0.1897(2) 0.4013(2)
C5 C 0.0173(2) 0.1939(2) 0.4034(2)
H8 H -0.0163 0.1462 0.4141
C6 C -0.0303(2) 0.2653(2) 0.3904(2)
H9 H -0.0961 0.2668 0.3911
C7 C 0.0183(2) 0.3346(2) 0.3765(2)
C8 C 0.1137(2) 0.3331(2) 0.3751(2)
H10 H 0.1473 0.3812 0.3664
C9 C 0.1598(2) 0.2603(2) 0.3864(2)
H11 H 0.2254 0.2588 0.3838
C10 C -0.0273(2) 0.46927(19) 0.2942(2)
C11 C -0.0830(2) 0.5281(2) 0.3277(2)
C12 C -0.1066(2) 0.6067(2) 0.2799(2)
C13 C -0.1444(2) 0.6129(2) 0.1748(2)
H12 H -0.1559 0.5657 0.1335
C14 C -0.1655(2) 0.6868(2) 0.1295(3)
H13 H -0.1926 0.6908 0.0579
C15 C -0.1468(3) 0.7542(2) 0.1894(3)
C16 C -0.1078(2) 0.7501(2) 0.2935(3)
H14 H -0.0943 0.7976 0.3336
C17 C -0.0887(2) 0.6757(2) 0.3384(3)
H15 H -0.0629 0.6719 0.4106
N1 N -0.02983(17) 0.40950(16) 0.36679(19)
N2 N -0.08493(18) 0.43051(18) 0.44119(19)
N3 N -0.11663(18) 0.50286(18) 0.4183(2)
Cl1 Cl -0.17262(9) 0.84753(7) 0.13273(9)
C1A C -0.1455(3) 0.0598(2) -0.0005(3)
H1A H -0.1605 0.0898 -0.0665
H2A H -0.1836 0.0111 -0.0030
H3A H -0.0791 0.0452 0.0082
C2A C -0.1656(3) 0.1104(2) 0.0903(3)
H4A H -0.2338 0.1233 0.0791
C3A C -0.1472(3) 0.0651(2) 0.1951(3)
H5A H -0.1857 0.0166 0.1917
H6A H -0.1632 0.0995 0.2527
H7A H -0.0810 0.0503 0.2082
C4A C -0.1134(3) 0.1897(2) 0.0987(2)
C5A C -0.0173(2) 0.1939(2) 0.0966(2)
H8A H 0.0163 0.1462 0.0859
C6A C 0.0303(2) 0.2653(2) 0.1096(2)
H9A H 0.0961 0.2668 0.1089
C7A C -0.0183(2) 0.3346(2) 0.1235(2)
C8A C -0.1137(2) 0.3331(2) 0.1249(2)
H10A H -0.1473 0.3812 0.1336
C9A C -0.1598(2) 0.2603(2) 0.1136(2)
H11A H -0.2254 0.2588 0.1162
C10A C 0.0273(2) 0.46927(19) 0.2058(2)
C11A C 0.0830(2) 0.5281(2) 0.1723(2)
C12A C 0.1066(2) 0.6067(2) 0.2201(2)
C13A C 0.1444(2) 0.6129(2) 0.3252(2)
H12A H 0.1559 0.5657 0.3665
C14A C 0.1655(2) 0.6868(2) 0.3705(3)
H13A H 0.1926 0.6908 0.4421
C15A C 0.1468(3) 0.7542(2) 0.3106(3)
C16A C 0.1078(2) 0.7501(2) 0.2065(3)
H14A H 0.0943 0.7976 0.1664
C17A C 0.0887(2) 0.6757(2) 0.1616(3)
H15A H 0.0629 0.6719 0.0894
N1A N 0.02983(17) 0.40950(16) 0.13321(19)
N2A N 0.08493(18) 0.43051(18) 0.05881(19)
N3A N 0.11663(18) 0.50286(18) 0.0817(2)
Cl1A Cl 0.17262(9) 0.84753(7) 0.36727(9)
loop_
_geom_bond_atom_site_label_1
_geom_bond_atom_site_label_2
_geom_bond_site_symmetry_1
_geom_bond_site_symmetry_2
C1 H1 1_555 1_555
H2 C1 1_555 1_555
H3 C1 1_555 1_555
C2 C1 1_555 1_555
H4 C2 1_555 1_555
C3 C2 1_555 1_555
H5 C3 1_555 1_555
H6 C3 1_555 1_555
H7 C3 1_555 1_555
C4 C2 1_555 1_555
C5 C4 1_555 1_555
H8 C5 1_555 1_555
C6 C5 1_555 1_555
H9 C6 1_555 1_555
C7 C6 1_555 1_555
C8 C7 1_555 1_555
H10 C8 1_555 1_555
C9 C4 1_555 1_555
H11 C9 1_555 1_555
C10 C11 1_555 1_555
C11 C12 1_555 1_555
C12 C13 1_555 1_555
C13 H12 1_555 1_555
C14 C13 1_555 1_555
H13 C14 1_555 1_555
C15 C14 1_555 1_555
C16 C15 1_555 1_555
H14 C16 1_555 1_555
C17 C12 1_555 1_555
H15 C17 1_555 1_555
N1 C7 1_555 1_555
N2 N1 1_555 1_555
N3 C11 1_555 1_555
Cl1 C15 1_555 1_555
C1A H1A 1_555 1_555
H2A C1A 1_555 1_555
H3A C1A 1_555 1_555
C2A C1A 1_555 1_555
H4A C2A 1_555 1_555
C3A C2A 1_555 1_555
H5A C3A 1_555 1_555
H6A C3A 1_555 1_555
H7A C3A 1_555 1_555
C4A C2A 1_555 1_555
C5A C4A 1_555 1_555
H8A C5A 1_555 1_555
C6A C5A 1_555 1_555
H9A C6A 1_555 1_555
C7A C6A 1_555 1_555
C8A C7A 1_555 1_555
H10A C8A 1_555 1_555
C9A C4A 1_555 1_555
H11A C9A 1_555 1_555
C10A C10 1_555 1_555
C11A C10A 1_555 1_555
C12A C11A 1_555 1_555
C13A C12A 1_555 1_555
H12A C13A 1_555 1_555
C14A C13A 1_555 1_555
H13A C14A 1_555 1_555
C15A C14A 1_555 1_555
C16A C15A 1_555 1_555
H14A C16A 1_555 1_555
C17A C12A 1_555 1_555
H15A C17A 1_555 1_555
N1A C7A 1_555 1_555
N2A N1A 1_555 1_555
N3A C11A 1_555 1_555
Cl1A C15A 1_555 1_555
C8 C9 1_555 1_555
C10 N1 1_555 1_555
C16 C17 1_555 1_555
N2 N3 1_555 1_555
C8A C9A 1_555 1_555
C10A N1A 1_555 1_555
C16A C17A 1_555 1_555
N2A N3A 1_555 1_555

#END
