
#######################################################################
#
#                 Cambridge Crystallographic Data Centre
#                                CCDC 
#
#######################################################################
#
# If this CIF has been generated from an entry in the Cambridge 
# Structural Database, then it will include bibliographic, chemical, 
# crystal, experimental, refinement or atomic coordinate data resulting 
# from the CCDC's data processing and validation procedures.
#
#######################################################################

data_UCEKEV
_chemical_formula_moiety         'C34 H32 N6'
_chemical_name_systematic        
3,3'-bis(4-isopropylphenyl)-5,5'-diphenyl-3H,3'H-4,4'-bi-1,2,3-triazole
_symmetry_cell_setting           tetragonal
_symmetry_space_group_name_H-M   'P 41 21 2'
_symmetry_Int_Tables_number      92
_space_group_name_Hall           'P 4abw 2nw'
loop_
_symmetry_equiv_pos_site_id
_symmetry_equiv_pos_as_xyz
1 x,y,z
2 -x,-y,1/2+z
3 1/2-y,1/2+x,1/4+z
4 1/2+y,1/2-x,3/4+z
5 1/2-x,1/2+y,1/4-z
6 1/2+x,1/2-y,3/4-z
7 y,x,-z
8 -y,-x,1/2-z
_cell_length_a                   9.0751(2)
_cell_length_b                   9.0751(2)
_cell_length_c                   34.9812(6)
_cell_angle_alpha                90
_cell_angle_beta                 90
_cell_angle_gamma                90
_cell_volume                     2880.96
_exptl_crystal_colour            colorless
_exptl_crystal_description       polyhedral
_cell_formula_units_Z            4
loop_
_atom_site_label
_atom_site_type_symbol
_atom_site_fract_x
_atom_site_fract_y
_atom_site_fract_z
C1 C 1.1074(3) 0.7699(3) -0.03045(6)
H1 H 1.0509 0.8566 -0.0302
C2 C 1.2285(3) 0.7606(3) -0.05440(7)
H2 H 1.2538 0.8411 -0.0700
C3 C 1.3112(3) 0.6350(3) -0.05553(7)
H3 H 1.3927 0.6281 -0.0720
C4 C 1.2742(3) 0.5195(3) -0.03243(7)
H4 H 1.3309 0.4329 -0.0331
C5 C 1.1542(3) 0.5279(3) -0.00803(6)
H5 H 1.1308 0.4478 0.0079
C6 C 1.0684(2) 0.6547(2) -0.00707(5)
C7 C 0.9443(2) 0.6677(2) 0.01977(5)
C8 C 0.8099(2) 0.7367(2) 0.01607(4)
N1 N 0.9542(2) 0.6123(2) 0.05590(4)
N2 N 0.8336(2) 0.6449(2) 0.07472(4)
N3 N 0.74441(19) 0.72062(19) 0.05089(4)
C9 C 0.6074(2) 0.7783(3) 0.06422(5)
C10 C 0.598(2) 0.871(2) 0.0940(4)
H6 H 0.6823 0.8881 0.1088
C11 C 0.470(2) 0.943(3) 0.1036(6)
H7 H 0.4725 1.0031 0.1255
C12 C 0.3458(10) 0.9351(8) 0.0856(2)
C13 C 0.3468(11) 0.8360(9) 0.0548(2)
H8 H 0.2601 0.8253 0.0403
C14 C 0.4700(18) 0.7522(18) 0.0445(4)
H9 H 0.4636 0.6806 0.0252
C15 C 0.2118(8) 1.0253(9) 0.0960(2)
H10 H 0.2388 1.0833 0.1189
C16 C 0.1710(9) 1.1277(10) 0.0676(4)
H11 H 0.0852 1.1824 0.0761
H12 H 0.1477 1.0759 0.0441
H13 H 0.2519 1.1953 0.0631
C17 C 0.0752(9) 0.9283(9) 0.1076(3)
H14 H 0.1039 0.8597 0.1275
H15 H 0.0407 0.8739 0.0855
H16 H -0.0031 0.9915 0.1169
C1F C 0.7699(3) 1.1074(3) 0.03045(6)
H1F H 0.8566 1.0509 0.0302
C2F C 0.7606(3) 1.2285(3) 0.05440(7)
H2F H 0.8411 1.2538 0.0700
C3F C 0.6350(3) 1.3112(3) 0.05553(7)
H3F H 0.6281 1.3927 0.0720
C4F C 0.5195(3) 1.2742(3) 0.03243(7)
H4F H 0.4329 1.3309 0.0331
C5F C 0.5279(3) 1.1542(3) 0.00803(6)
H5F H 0.4478 1.1308 -0.0079
C6F C 0.6547(2) 1.0684(2) 0.00707(5)
C7F C 0.6677(2) 0.9443(2) -0.01977(5)
C8F C 0.7367(2) 0.8099(2) -0.01607(4)
N1F N 0.6123(2) 0.9542(2) -0.05590(4)
N2F N 0.6449(2) 0.8336(2) -0.07472(4)
N3F N 0.72062(19) 0.74441(19) -0.05089(4)
C9F C 0.7783(3) 0.6074(2) -0.06422(5)
C10F C 0.871(2) 0.598(2) -0.0940(4)
H6F H 0.8881 0.6823 -0.1088
C11F C 0.943(3) 0.470(2) -0.1036(6)
H7F H 1.0031 0.4725 -0.1255
C12F C 0.9351(8) 0.3458(10) -0.0856(2)
C13F C 0.8360(9) 0.3468(11) -0.0548(2)
H8F H 0.8253 0.2601 -0.0403
C14F C 0.7522(18) 0.4700(18) -0.0445(4)
H9F H 0.6806 0.4636 -0.0252
C15F C 1.0253(9) 0.2118(8) -0.0960(2)
H10F H 1.0833 0.2388 -0.1189
C16F C 1.1277(10) 0.1710(9) -0.0676(4)
H11F H 1.1824 0.0852 -0.0761
H12F H 1.0759 0.1477 -0.0441
H13F H 1.1953 0.2519 -0.0631
C17F C 0.9283(9) 0.0752(9) -0.1076(3)
H14F H 0.8597 0.1039 -0.1275
H15F H 0.8739 0.0407 -0.0855
H16F H 0.9915 -0.0031 -0.1169
C18? C 0.6139(18) 0.8753(15) 0.0960(3)
H17? H 0.7042 0.9033 0.1070
C19? C 0.481(2) 0.927(3) 0.1100(7)
H18? H 0.4778 0.9931 0.1306
C20? C 0.3450(9) 0.8740(9) 0.0917(2)
C21? C 0.3515(12) 0.7757(11) 0.0621(3)
H19? H 0.2654 0.7357 0.0513
C22? C 0.492(2) 0.737(3) 0.0483(6)
H20? H 0.4985 0.6772 0.0264
C23? C 0.1966(7) 0.9364(13) 0.1043(2)
H21? H 0.1322 0.8484 0.1041
C24? C 0.1900(8) 0.9811(10) 0.1425(2)
H22? H 0.0923 1.0187 0.1480
H23? H 0.2623 1.0579 0.1469
H24? H 0.2108 0.8977 0.1590
C25? C 0.1333(12) 1.0293(16) 0.0728(4)
H25? H 0.1468 0.9795 0.0485
H26? H 0.1832 1.1238 0.0722
H27? H 0.0290 1.0446 0.0774
loop_
_geom_bond_atom_site_label_1
_geom_bond_atom_site_label_2
_geom_bond_site_symmetry_1
_geom_bond_site_symmetry_2
C1 H1 1_555 1_555
C2 C1 1_555 1_555
H2 C2 1_555 1_555
C3 C2 1_555 1_555
H3 C3 1_555 1_555
C4 C3 1_555 1_555
H4 C4 1_555 1_555
C5 C4 1_555 1_555
H5 C5 1_555 1_555
C6 C1 1_555 1_555
C7 C6 1_555 1_555
C8 C7 1_555 1_555
N1 C7 1_555 1_555
N2 N1 1_555 1_555
N3 C8 1_555 1_555
C9 N3 1_555 1_555
C10 C9 1_555 1_555
H6 C10 1_555 1_555
C11 C10 1_555 1_555
H7 C11 1_555 1_555
C12 C11 1_555 1_555
C13 C12 1_555 1_555
H8 C13 1_555 1_555
C14 C9 1_555 1_555
H9 C14 1_555 1_555
C15 C12 1_555 1_555
H10 C15 1_555 1_555
C16 C15 1_555 1_555
H11 C16 1_555 1_555
H12 C16 1_555 1_555
H13 C16 1_555 1_555
C17 C15 1_555 1_555
H14 C17 1_555 1_555
H15 C17 1_555 1_555
H16 C17 1_555 1_555
C1F H1F 1_555 1_555
C2F C1F 1_555 1_555
H2F C2F 1_555 1_555
C3F C2F 1_555 1_555
H3F C3F 1_555 1_555
C4F C3F 1_555 1_555
H4F C4F 1_555 1_555
C5F C4F 1_555 1_555
H5F C5F 1_555 1_555
C6F C1F 1_555 1_555
C7F C6F 1_555 1_555
C8F C8 1_555 1_555
N1F C7F 1_555 1_555
N2F N1F 1_555 1_555
N3F C8F 1_555 1_555
C9F N3F 1_555 1_555
C10F C9F 1_555 1_555
H6F C10F 1_555 1_555
C11F C10F 1_555 1_555
H7F C11F 1_555 1_555
C12F C11F 1_555 1_555
C13F C12F 1_555 1_555
H8F C13F 1_555 1_555
C14F C9F 1_555 1_555
H9F C14F 1_555 1_555
C15F C12F 1_555 1_555
H10F C15F 1_555 1_555
C16F C15F 1_555 1_555
H11F C16F 1_555 1_555
H12F C16F 1_555 1_555
H13F C16F 1_555 1_555
C17F C15F 1_555 1_555
H14F C17F 1_555 1_555
H15F C17F 1_555 1_555
H16F C17F 1_555 1_555
C5 C6 1_555 1_555
N2 N3 1_555 1_555
C13 C14 1_555 1_555
C5F C6F 1_555 1_555
C7F C8F 1_555 1_555
N2F N3F 1_555 1_555
C13F C14F 1_555 1_555

#END
