
#######################################################################
#
#                 Cambridge Crystallographic Data Centre
#                                CCDC 
#
#######################################################################
#
# If this CIF has been generated from an entry in the Cambridge 
# Structural Database, then it will include bibliographic, chemical, 
# crystal, experimental, refinement or atomic coordinate data resulting 
# from the CCDC's data processing and validation procedures.
#
#######################################################################

data_UCEZAF
_chemical_formula_moiety         'C124 H120 N10 O12,C1 H2 Cl2'
_chemical_name_systematic        
'(2s,8s,22s,23s)-2,8,22,23-Tetrakis(3,5-di-tert-butylbenzyl)-4,6,10,16,17,19,20,21-octaoxa-11(2,3,6),15(6,2,3)-bis(5,7-dioxo-6,7-dihydro-5H-pyrrolo[3,4-b]pyrazina)-5,18(2,3)-diquinoxalina-1,9(1,2,4,5),3(1,4,2,5),7(1,4,5,2),13(1,4)-pentabenzenahexacyclo[7.7.3.11,9.13,7.13,15.17,11]tricosaphane dichloromethane solvate'
_symmetry_cell_setting           monoclinic
_symmetry_space_group_name_H-M   'P 21'
_symmetry_Int_Tables_number      4
_space_group_name_Hall           'P 2yb'
loop_
_symmetry_equiv_pos_site_id
_symmetry_equiv_pos_as_xyz
1 x,y,z
2 -x,1/2+y,-z
_cell_length_a                   14.2720(6)
_cell_length_b                   24.8574(11)
_cell_length_c                   18.3511(9)
_cell_angle_alpha                90
_cell_angle_beta                 108.598(2)
_cell_angle_gamma                90
_cell_volume                     6170.35
_exptl_crystal_colour            colorless
_exptl_crystal_description       cube
_cell_formula_units_Z            2
loop_
_atom_site_label
_atom_site_type_symbol
_atom_site_fract_x
_atom_site_fract_y
_atom_site_fract_z
O1 O 0.9760(14) 0.2699(8) 0.1217(10)
O2 O 1.083(2) 0.2630(12) 0.3860(15)
O3 O 0.7009(10) 0.3104(7) 0.3348(7)
O4 O 0.7673(10) 0.1868(7) 0.5349(8)
O5 O 0.7477(9) 0.0797(7) 0.5382(7)
O6 O 0.7020(14) -0.0520(8) 0.3367(11)
O7 O 0.958(3) -0.0174(14) 0.1235(19)
O8 O 1.0777(14) -0.0010(8) 0.3847(10)
O9 O 0.6314(12) -0.0593(7) 0.1880(11)
O10 O 0.5299(11) 0.0709(7) -0.0195(7)
O11 O 0.5191(13) 0.1740(8) -0.0224(9)
O12 O 0.6363(9) 0.3100(6) 0.1740(8)
N1 N 1.0445(9) 0.2615(8) 0.2490(9)
C1 C 1.0164(12) 0.2629(9) 0.3166(6)
C2 C 0.9133(12) 0.2735(10) 0.2944(10)
C3 C 0.8777(9) 0.2787(10) 0.2131(10)
C4 C 0.9588(12) 0.2712(9) 0.1850(7)
N2 N 0.7884(10) 0.2985(9) 0.1695(9)
N3 N 0.8578(11) 0.2978(8) 0.3334(9)
N4 N 0.9157(10) 0.1881(8) 0.5322(11)
N5 N 0.9182(12) 0.0746(9) 0.5315(14)
N6 N 1.0369(19) -0.0093(11) 0.2539(14)
N7 N 0.7920(13) -0.0351(11) 0.1747(11)
N8 N 0.8583(12) -0.0265(9) 0.3408(10)
N9 N 0.6793(11) 0.0713(9) -0.0208(14)
N10 N 0.7016(13) 0.1843(8) -0.0220(13)
C5 C 0.7345(12) 0.3039(11) 0.2149(9)
C6 C 0.7649(12) 0.3026(10) 0.2958(9)
C7 C 0.6584(18) 0.2681(10) 0.3639(14)
C8 C 0.7261(17) 0.2502(10) 0.4389(12)
H1 H 0.7872 0.2674 0.4644
C9 C 0.6899(15) 0.2037(10) 0.4699(11)
C10 C 0.8463(15) 0.1545(8) 0.5333(16)
C11 C 0.9970(8) 0.1612(7) 0.5269(9)
C12 C 1.0800(12) 0.1881(6) 0.5219(12)
H2 H 1.0799 0.2263 0.5188
C13 C 1.1633(9) 0.1593(8) 0.5214(11)
H3 H 1.2200 0.1777 0.5179
C14 C 1.1635(9) 0.1035(8) 0.5259(10)
H4 H 1.2204 0.0838 0.5256
C15 C 1.0805(12) 0.0765(6) 0.5310(12)
H5 H 1.0807 0.0383 0.5341
C16 C 0.9973(9) 0.1053(7) 0.5315(11)
C17 C 0.8373(12) 0.0965(8) 0.5346(13)
C18 C 0.6701(10) -0.0087(6) 0.3686(8)
C19 C 0.7308(9) 0.0140(7) 0.4365(8)
H6 H 0.7944 -0.0008 0.4614
C20 C 0.6984(10) 0.0583(7) 0.4680(7)
C21 C 0.6054(11) 0.0800(6) 0.4316(8)
C22 C 0.5447(9) 0.0573(7) 0.3637(8)
H7 H 0.4812 0.0721 0.3389
C23 C 0.5771(10) 0.0130(7) 0.3322(7)
C24 C 0.9780(19) -0.0132(10) 0.1972(14)
C25 C 0.8883(13) -0.0263(10) 0.2176(12)
C26 C 0.7293(12) -0.0427(9) 0.2125(9)
C27 C 0.7696(12) -0.0424(9) 0.2962(9)
C28 C 0.9166(16) -0.0254(10) 0.2939(12)
C29 C 1.017(2) -0.0099(12) 0.3238(16)
C30 C 0.5805(13) -0.0136(7) 0.1532(9)
C31 C 0.5846(12) 0.0069(7) 0.0838(9)
H8 H 0.6265 -0.0094 0.0590
C32 C 0.5275(13) 0.0512(7) 0.0508(7)
C33 C 0.4662(12) 0.0750(6) 0.0871(8)
C34 C 0.4620(13) 0.0545(7) 0.1565(9)
H9 H 0.4201 0.0708 0.1813
C35 C 0.5192(15) 0.0102(8) 0.1895(8)
C36 C 0.6076(15) 0.1039(9) -0.0206(16)
C37 C 0.7686(9) 0.0894(7) -0.0237(9)
C38 C 0.8534(12) 0.0613(6) -0.0225(12)
H10 H 0.8525 0.0232 -0.0246
C39 C 0.9395(9) 0.0892(8) -0.0182(13)
H11 H 0.9974 0.0701 -0.0175
C40 C 0.9408(10) 0.1451(8) -0.0151(11)
H12 H 0.9995 0.1642 -0.0122
C41 C 0.8560(13) 0.1731(6) -0.0162(13)
H13 H 0.8568 0.2113 -0.0140
C42 C 0.7700(10) 0.1452(7) -0.0206(12)
C43 C 0.6162(17) 0.1620(10) -0.018(3)
C44 C 0.4508(11) 0.2021(7) 0.1498(9)
H14 H 0.4063 0.1880 0.1739
C45 C 0.4598(13) 0.1775(7) 0.0843(9)
C46 C 0.5249(14) 0.1982(8) 0.0490(8)
C47 C 0.5809(12) 0.2436(8) 0.0791(9)
H15 H 0.6253 0.2577 0.0549
C48 C 0.5718(11) 0.2682(6) 0.1445(8)
C49 C 0.5068(11) 0.2474(6) 0.1799(7)
C50 C 1.1485(17) 0.2415(6) 0.2488(11)
H16 H 1.1602 0.2542 0.2013
H17 H 1.2001 0.2574 0.2932
C51 C 1.1570(10) 0.1824(6) 0.2528(7)
C52 C 1.1880(13) 0.1535(7) 0.3212(6)
H18 H 1.2105 0.1720 0.3689
C53 C 1.1861(15) 0.0976(7) 0.3197(7)
H19 H 1.2072 0.0779 0.3665
C54 C 1.1532(13) 0.0706(6) 0.2498(9)
C55 C 1.1223(14) 0.0995(7) 0.1814(7)
H20 H 1.0998 0.0810 0.1336
C56 C 1.1242(13) 0.1554(7) 0.1829(6)
H21 H 1.1030 0.1751 0.1362
C57 C 1.144(3) 0.0054(15) 0.266(2)
H22 H 1.1687 -0.0157 0.2297
H23 H 1.1849 -0.0036 0.3187
C58 C 0.5734(19) 0.2503(10) 0.3303(14)
C59 C 0.5435(14) 0.2045(8) 0.3682(10)
H24 H 0.4782 0.1910 0.3467
C60 C 0.6065(15) 0.1795(8) 0.4348(11)
C61 C 0.5710(16) 0.1264(12) 0.4735(12)
H25 H 0.6088 0.1250 0.5297
C62 C 0.5063(13) -0.0111(9) 0.2702(12)
H26 H 0.5313 -0.0488 0.2729
C63 C 0.4041(17) 0.1351(11) 0.0506(13)
H27 H 0.3948 0.1366 -0.0057
C64 C 0.4929(13) 0.2723(9) 0.2525(11)
H28 H 0.5103 0.3111 0.2501
C65 C 0.4620(16) 0.1307(12) 0.4627(12)
H29 H 0.4438 0.1686 0.4673
H30 H 0.4230 0.1174 0.4111
C66 C 0.4420(16) 0.0991(8) 0.5203(8)
C67 C 0.4167(17) 0.0453(8) 0.5048(8)
H31 H 0.4121 0.0306 0.4560
C68 C 0.3981(15) 0.0132(6) 0.5606(9)
C69 C 0.4048(14) 0.0348(7) 0.6320(8)
H32 H 0.3921 0.0128 0.6701
C70 C 0.4301(14) 0.0885(7) 0.6475(7)
C71 C 0.4487(15) 0.1207(6) 0.5917(9)
H33 H 0.4661 0.1574 0.6024
C72 C 0.4439(14) 0.1185(8) 0.7246(9)
C73 C 0.4177(14) 0.0778(8) 0.7777(9)
H34 H 0.3492 0.0660 0.7543
H35 H 0.4252 0.0947 0.8274
H36 H 0.4620 0.0467 0.7852
C74 C 0.3841(14) 0.1705(8) 0.7023(9)
H37 H 0.4098 0.1916 0.6679
H38 H 0.3895 0.1914 0.7487
H39 H 0.3145 0.1616 0.6761
C75 C 0.5496(14) 0.1347(8) 0.7708(9)
H40 H 0.5911 0.1025 0.7841
H41 H 0.5495 0.1531 0.8180
H42 H 0.5759 0.1589 0.7399
C76 C 0.3765(18) -0.0472(8) 0.5382(13)
C77 C 0.4586(18) -0.0784(8) 0.5200(13)
H43 H 0.4383 -0.1160 0.5087
H44 H 0.5191 -0.0770 0.5643
H45 H 0.4711 -0.0623 0.4752
C78 C 0.2820(18) -0.0494(8) 0.4690(13)
H46 H 0.2945 -0.0333 0.4242
H47 H 0.2294 -0.0294 0.4807
H48 H 0.2617 -0.0870 0.4578
C79 C 0.3569(18) -0.0723(8) 0.6081(13)
H49 H 0.3043 -0.0522 0.6198
H50 H 0.4174 -0.0708 0.6524
H51 H 0.3365 -0.1098 0.5968
C80 C 0.3006(17) 0.1259(14) 0.0609(13)
H52 H 0.3097 0.1021 0.1058
H53 H 0.2767 0.1610 0.0735
C81 C 0.2232(13) 0.1029(8) -0.0038(7)
C82 C 0.2105(17) 0.0487(8) 0.0093(8)
H54 H 0.2437 0.0334 0.0582
C83 C 0.1494(15) 0.0170(7) -0.0490(9)
C84 C 0.1008(12) 0.0395(7) -0.1204(8)
H55 H 0.0590 0.0178 -0.1602
C85 C 0.1135(12) 0.0936(7) -0.1336(6)
C86 C 0.1746(12) 0.1253(6) -0.0754(8)
H56 H 0.1832 0.1624 -0.0844
C87 C 0.1039(17) -0.0229(10) -0.0025(12)
C88 C 0.0574(17) -0.0242(10) 0.0620(12)
H57 H -0.0044 -0.0036 0.0463
H58 H 0.1032 -0.0082 0.1086
H59 H 0.0436 -0.0615 0.0724
C89 C 0.2005(17) -0.0550(10) 0.0220(12)
H60 H 0.2463 -0.0390 0.0686
H61 H 0.2302 -0.0542 -0.0193
H62 H 0.1867 -0.0923 0.0325
C90 C 0.0323(17) -0.0479(10) -0.0753(12)
H63 H 0.0186 -0.0852 -0.0649
H64 H 0.0621 -0.0470 -0.1166
H65 H -0.0295 -0.0273 -0.0910
C91 C 0.0612(14) 0.1221(9) -0.2114(9)
C92 C -0.0503(14) 0.1216(9) -0.2251(9)
H66 H -0.0734 0.0844 -0.2271
H67 H -0.0843 0.1396 -0.2739
H68 H -0.0645 0.1406 -0.1830
C93 C 0.0839(14) 0.0900(9) -0.2749(9)
H69 H 0.1555 0.0895 -0.2654
H70 H 0.0511 0.1069 -0.3248
H71 H 0.0597 0.0531 -0.2752
C94 C 0.0965(14) 0.1802(9) -0.2123(9)
H72 H 0.0833 0.2005 -0.1708
H73 H 0.0610 0.1968 -0.2618
H74 H 0.1676 0.1804 -0.2048
C95 C 0.3967(14) -0.0199(3) 0.2620(14)
H75 H 0.3556 0.0010 0.2173
H76 H 0.3842 -0.0056 0.3084
C96 C 0.3869(16) 0.2732(10) 0.2520(15)
H77 H 0.3427 0.2801 0.1991
H78 H 0.3696 0.2375 0.2683
C97 C 0.3848(15) 0.2997(7) 0.3787(9)
H79 H 0.4117 0.2655 0.3973
C98 C 0.3589(16) 0.3353(8) 0.4275(7)
C99 C 0.3196(18) 0.3853(8) 0.4003(10)
H80 H 0.3019 0.4097 0.4336
C100 C 0.3061(17) 0.3998(7) 0.3244(10)
C101 C 0.3320(15) 0.3640(8) 0.2757(7)
H81 H 0.3228 0.3738 0.2239
C102 C 0.3714(15) 0.3141(7) 0.3029(8)
C103 C 0.3839(17) 0.3198(10) 0.5133(9)
C104 C 0.4937(17) 0.3104(10) 0.5557(9)
H82 H 0.5028 0.3010 0.6094
H83 H 0.5309 0.3432 0.5539
H84 H 0.5179 0.2809 0.5311
C105 C 0.3259(17) 0.2685(10) 0.5162(9)
H85 H 0.2549 0.2756 0.4937
H86 H 0.3402 0.2571 0.5698
H87 H 0.3453 0.2400 0.4871
C106 C 0.3462(17) 0.3658(10) 0.5518(9)
H88 H 0.2758 0.3719 0.5247
H89 H 0.3834 0.3987 0.5500
H90 H 0.3553 0.3565 0.6055
C107 C 0.2517(14) 0.4534(8) 0.2939(10)
C108 C 0.3155(14) 0.4991(8) 0.3398(10)
H91 H 0.3239 0.4945 0.3945
H92 H 0.2831 0.5336 0.3221
H93 H 0.3804 0.4985 0.3321
C109 C 0.1476(14) 0.4573(8) 0.3003(10)
H94 H 0.1069 0.4278 0.2714
H95 H 0.1179 0.4918 0.2792
H96 H 0.1514 0.4547 0.3545
C110 C 0.2460(14) 0.4579(8) 0.2094(10)
H97 H 0.3130 0.4589 0.2058
H98 H 0.2108 0.4910 0.1875
H99 H 0.2105 0.4268 0.1810
C111 C 0.3638(16) -0.0795(3) 0.2514(17)
C112 C 0.2904(14) -0.0949(5) 0.2815(17)
H100 H 0.2426 -0.0694 0.2855
C113 C 0.2865(17) -0.1472(6) 0.3059(17)
C114 C 0.3561(19) -0.1844(5) 0.3002(16)
H101 H 0.3535 -0.2203 0.3170
C115 C 0.4333(18) -0.1167(4) 0.2458(17)
H102 H 0.4837 -0.1062 0.2252
C116 C 0.4295(18) -0.1691(4) 0.2701(16)
C117 C 0.1853(15) -0.1673(10) 0.3109(13)
C118 C 0.0983(15) -0.1401(10) 0.2492(13)
H103 H 0.1026 -0.1010 0.2564
H104 H 0.0357 -0.1530 0.2540
H105 H 0.1013 -0.1490 0.1979
C119 C 0.1824(15) -0.1518(10) 0.3917(13)
H106 H 0.1880 -0.1126 0.3979
H107 H 0.2377 -0.1690 0.4309
H108 H 0.1199 -0.1638 0.3976
C120 C 0.1766(15) -0.2290(10) 0.3011(13)
H109 H 0.1140 -0.2411 0.3070
H110 H 0.2318 -0.2463 0.3403
H111 H 0.1784 -0.2388 0.2499
C121 C 0.4844(17) -0.2107(9) 0.2378(13)
C122 C 0.5894(17) -0.2180(9) 0.2964(13)
H112 H 0.6239 -0.1834 0.3049
H113 H 0.6265 -0.2440 0.2761
H114 H 0.5840 -0.2314 0.3451
C123 C 0.4929(17) -0.1941(9) 0.1587(13)
H115 H 0.4266 -0.1913 0.1210
H116 H 0.5311 -0.2212 0.1416
H117 H 0.5262 -0.1592 0.1635
C124 C 0.4267(17) -0.2645(9) 0.2293(13)
H118 H 0.4230 -0.2755 0.2796
H119 H 0.4609 -0.2923 0.2096
H120 H 0.3597 -0.2596 0.1934
Cl1? Cl 0.9251(15) 0.1292(11) 0.2863(11)
Cl2? Cl 0.727(2) 0.1208(14) 0.2666(14)
loop_
_geom_bond_atom_site_label_1
_geom_bond_atom_site_label_2
_geom_bond_site_symmetry_1
_geom_bond_site_symmetry_2
O1 C4 1_555 1_555
O2 C1 1_555 1_555
O3 C6 1_555 1_555
O4 C9 1_555 1_555
O5 C17 1_555 1_555
O6 C18 1_555 1_555
O7 C24 1_555 1_555
O8 C29 1_555 1_555
O9 C26 1_555 1_555
O10 C32 1_555 1_555
O11 C43 1_555 1_555
O12 C5 1_555 1_555
N1 C1 1_555 1_555
C1 C2 1_555 1_555
C2 C3 1_555 1_555
C3 C4 1_555 1_555
C4 N1 1_555 1_555
N2 C3 1_555 1_555
N3 C2 1_555 1_555
N4 C10 1_555 1_555
N5 C16 1_555 1_555
N6 C24 1_555 1_555
N7 C25 1_555 1_555
N8 C27 1_555 1_555
N9 C36 1_555 1_555
N10 C42 1_555 1_555
C5 N2 1_555 1_555
C6 N3 1_555 1_555
C7 O3 1_555 1_555
C8 C7 1_555 1_555
H1 C8 1_555 1_555
C9 C8 1_555 1_555
C10 O4 1_555 1_555
C11 N4 1_555 1_555
C12 C11 1_555 1_555
H2 C12 1_555 1_555
C13 C12 1_555 1_555
H3 C13 1_555 1_555
C14 C13 1_555 1_555
H4 C14 1_555 1_555
C15 C14 1_555 1_555
H5 C15 1_555 1_555
C16 C11 1_555 1_555
C17 N5 1_555 1_555
C18 C19 1_555 1_555
C19 H6 1_555 1_555
C20 O5 1_555 1_555
C21 C20 1_555 1_555
C22 C21 1_555 1_555
H7 C22 1_555 1_555
C23 C18 1_555 1_555
C24 C25 1_555 1_555
C25 C28 1_555 1_555
C26 N7 1_555 1_555
C27 O6 1_555 1_555
C28 N8 1_555 1_555
C29 N6 1_555 1_555
C30 O9 1_555 1_555
C31 C30 1_555 1_555
H8 C31 1_555 1_555
C32 C31 1_555 1_555
C33 C32 1_555 1_555
C34 C33 1_555 1_555
H9 C34 1_555 1_555
C35 C30 1_555 1_555
C36 O10 1_555 1_555
C37 N9 1_555 1_555
C38 C37 1_555 1_555
H10 C38 1_555 1_555
C39 C38 1_555 1_555
H11 C39 1_555 1_555
C40 C39 1_555 1_555
H12 C40 1_555 1_555
C41 C40 1_555 1_555
H13 C41 1_555 1_555
C42 C37 1_555 1_555
C43 N10 1_555 1_555
C44 H14 1_555 1_555
C45 C44 1_555 1_555
C46 O11 1_555 1_555
C47 C46 1_555 1_555
H15 C47 1_555 1_555
C48 O12 1_555 1_555
C49 C44 1_555 1_555
C50 N1 1_555 1_555
H16 C50 1_555 1_555
H17 C50 1_555 1_555
C51 C50 1_555 1_555
C52 C51 1_555 1_555
H18 C52 1_555 1_555
C53 C52 1_555 1_555
H19 C53 1_555 1_555
C54 C53 1_555 1_555
C55 C54 1_555 1_555
H20 C55 1_555 1_555
C56 C51 1_555 1_555
H21 C56 1_555 1_555
C57 N6 1_555 1_555
H22 C57 1_555 1_555
H23 C57 1_555 1_555
C58 C7 1_555 1_555
C59 C58 1_555 1_555
H24 C59 1_555 1_555
C60 C9 1_555 1_555
C61 C21 1_555 1_555
H25 C61 1_555 1_555
C62 C23 1_555 1_555
H26 C62 1_555 1_555
C63 C33 1_555 1_555
H27 C63 1_555 1_555
C64 C49 1_555 1_555
H28 C64 1_555 1_555
C65 C61 1_555 1_555
H29 C65 1_555 1_555
H30 C65 1_555 1_555
C66 C65 1_555 1_555
C67 C66 1_555 1_555
H31 C67 1_555 1_555
C68 C67 1_555 1_555
C69 C68 1_555 1_555
H32 C69 1_555 1_555
C70 C69 1_555 1_555
C71 C66 1_555 1_555
H33 C71 1_555 1_555
C72 C70 1_555 1_555
C73 C72 1_555 1_555
H34 C73 1_555 1_555
H35 C73 1_555 1_555
H36 C73 1_555 1_555
C74 C72 1_555 1_555
H37 C74 1_555 1_555
H38 C74 1_555 1_555
H39 C74 1_555 1_555
C75 C72 1_555 1_555
H40 C75 1_555 1_555
H41 C75 1_555 1_555
H42 C75 1_555 1_555
C76 C68 1_555 1_555
C77 C76 1_555 1_555
H43 C77 1_555 1_555
H44 C77 1_555 1_555
H45 C77 1_555 1_555
C78 C76 1_555 1_555
H46 C78 1_555 1_555
H47 C78 1_555 1_555
H48 C78 1_555 1_555
C79 C76 1_555 1_555
H49 C79 1_555 1_555
H50 C79 1_555 1_555
H51 C79 1_555 1_555
C80 C63 1_555 1_555
H52 C80 1_555 1_555
H53 C80 1_555 1_555
C81 C80 1_555 1_555
C82 C81 1_555 1_555
H54 C82 1_555 1_555
C83 C82 1_555 1_555
C84 C83 1_555 1_555
H55 C84 1_555 1_555
C85 C84 1_555 1_555
C86 C81 1_555 1_555
H56 C86 1_555 1_555
C87 C83 1_555 1_555
C88 C87 1_555 1_555
H57 C88 1_555 1_555
H58 C88 1_555 1_555
H59 C88 1_555 1_555
C89 C87 1_555 1_555
H60 C89 1_555 1_555
H61 C89 1_555 1_555
H62 C89 1_555 1_555
C90 C87 1_555 1_555
H63 C90 1_555 1_555
H64 C90 1_555 1_555
H65 C90 1_555 1_555
C91 C85 1_555 1_555
C92 C91 1_555 1_555
H66 C92 1_555 1_555
H67 C92 1_555 1_555
H68 C92 1_555 1_555
C93 C91 1_555 1_555
H69 C93 1_555 1_555
H70 C93 1_555 1_555
H71 C93 1_555 1_555
C94 C91 1_555 1_555
H72 C94 1_555 1_555
H73 C94 1_555 1_555
H74 C94 1_555 1_555
C95 C62 1_555 1_555
H75 C95 1_555 1_555
H76 C95 1_555 1_555
C96 C64 1_555 1_555
H77 C96 1_555 1_555
H78 C96 1_555 1_555
C97 H79 1_555 1_555
C98 C97 1_555 1_555
C99 C98 1_555 1_555
H80 C99 1_555 1_555
C100 C99 1_555 1_555
C101 C100 1_555 1_555
H81 C101 1_555 1_555
C102 C96 1_555 1_555
C103 C98 1_555 1_555
C104 C103 1_555 1_555
H82 C104 1_555 1_555
H83 C104 1_555 1_555
H84 C104 1_555 1_555
C105 C103 1_555 1_555
H85 C105 1_555 1_555
H86 C105 1_555 1_555
H87 C105 1_555 1_555
C106 C103 1_555 1_555
H88 C106 1_555 1_555
H89 C106 1_555 1_555
H90 C106 1_555 1_555
C107 C100 1_555 1_555
C108 C107 1_555 1_555
H91 C108 1_555 1_555
H92 C108 1_555 1_555
H93 C108 1_555 1_555
C109 C107 1_555 1_555
H94 C109 1_555 1_555
H95 C109 1_555 1_555
H96 C109 1_555 1_555
C110 C107 1_555 1_555
H97 C110 1_555 1_555
H98 C110 1_555 1_555
H99 C110 1_555 1_555
C111 C95 1_555 1_555
C112 C111 1_555 1_555
H100 C112 1_555 1_555
C113 C112 1_555 1_555
C114 C113 1_555 1_555
H101 C114 1_555 1_555
C115 C111 1_555 1_555
H102 C115 1_555 1_555
C116 C114 1_555 1_555
C117 C113 1_555 1_555
C118 C117 1_555 1_555
H103 C118 1_555 1_555
H104 C118 1_555 1_555
H105 C118 1_555 1_555
C119 C117 1_555 1_555
H106 C119 1_555 1_555
H107 C119 1_555 1_555
H108 C119 1_555 1_555
C120 C117 1_555 1_555
H109 C120 1_555 1_555
H110 C120 1_555 1_555
H111 C120 1_555 1_555
C121 C116 1_555 1_555
C122 C121 1_555 1_555
H112 C122 1_555 1_555
H113 C122 1_555 1_555
H114 C122 1_555 1_555
C123 C121 1_555 1_555
H115 C123 1_555 1_555
H116 C123 1_555 1_555
H117 C123 1_555 1_555
C124 C121 1_555 1_555
H118 C124 1_555 1_555
H119 C124 1_555 1_555
H120 C124 1_555 1_555
C5 C6 1_555 1_555
C10 C17 1_555 1_555
C15 C16 1_555 1_555
C19 C20 1_555 1_555
C22 C23 1_555 1_555
C26 C27 1_555 1_555
C28 C29 1_555 1_555
C34 C35 1_555 1_555
C35 C62 1_555 1_555
C36 C43 1_555 1_555
C41 C42 1_555 1_555
C45 C46 1_555 1_555
C45 C63 1_555 1_555
C47 C48 1_555 1_555
C48 C49 1_555 1_555
C54 C57 1_555 1_555
C55 C56 1_555 1_555
C58 C64 1_555 1_555
C59 C60 1_555 1_555
C60 C61 1_555 1_555
C70 C71 1_555 1_555
C85 C86 1_555 1_555
C97 C102 1_555 1_555
C101 C102 1_555 1_555
C115 C116 1_555 1_555

#END
