
#######################################################################
#
#                 Cambridge Crystallographic Data Centre
#                                CCDC 
#
#######################################################################
#
# If this CIF has been generated from an entry in the Cambridge 
# Structural Database, then it will include bibliographic, chemical, 
# crystal, experimental, refinement or atomic coordinate data resulting 
# from the CCDC's data processing and validation procedures.
#
#######################################################################

data_UCIFOD
_chemical_formula_moiety         'C19 H14 Cl1 N1'
_chemical_name_systematic        
12-Chloro-7,8-dihydro-6H-benzo[c]pyrido[1,2,3-lm]carbazole
_symmetry_cell_setting           monoclinic
_symmetry_space_group_name_H-M   'P 21/c'
_symmetry_Int_Tables_number      14
_space_group_name_Hall           '-P 2ybc'
loop_
_symmetry_equiv_pos_site_id
_symmetry_equiv_pos_as_xyz
1 x,y,z
2 -x,1/2+y,1/2-z
3 -x,-y,-z
4 x,1/2-y,1/2+z
_cell_length_a                   15.161(8)
_cell_length_b                   4.746(2)
_cell_length_c                   20.732(10)
_cell_angle_alpha                90
_cell_angle_beta                 108.051(7)
_cell_angle_gamma                90
_cell_volume                     1418.33
_exptl_crystal_colour            colorless
_exptl_crystal_description       block
_cell_formula_units_Z            4
loop_
_atom_site_label
_atom_site_type_symbol
_atom_site_fract_x
_atom_site_fract_y
_atom_site_fract_z
C1 C 0.2260(2) 1.2851(7) 0.19699(17)
H1 H 0.2846 1.3582 0.2186
C2 C 0.1521(3) 1.3656(8) 0.21701(17)
C3 C 0.0632(3) 1.2637(9) 0.1867(2)
H2 H 0.0142 1.3206 0.2017
C4 C 0.0493(3) 1.0802(9) 0.1347(2)
H3 H -0.0105 1.0142 0.1137
C5 C 0.1214(3) 0.9846(8) 0.11111(18)
C6 C 0.2131(2) 1.0911(8) 0.14354(17)
C7 C 0.1050(3) 0.7901(8) 0.05640(19)
H4 H 0.0447 0.7270 0.0359
C8 C 0.1730(3) 0.6927(8) 0.03279(18)
C9 C 0.1627(3) 0.4862(8) -0.02432(19)
H5 H 0.1021 0.5078 -0.0577
H6 H 0.1677 0.2953 -0.0068
C10 C 0.2382(4) 0.5378(9) -0.0578(2)
H7 H 0.2341 0.3922 -0.0914
H8 H 0.2266 0.7174 -0.0812
C11 C 0.3360(3) 0.5395(8) -0.0080(2)
H9 H 0.3528 0.3512 0.0098
H10 H 0.3797 0.5984 -0.0310
C12 C 0.2627(3) 0.8009(8) 0.06547(18)
C13 C 0.2852(2) 0.9924(7) 0.11858(17)
C14 C 0.3832(3) 1.0467(8) 0.13372(18)
C15 C 0.4141(3) 0.8804(9) 0.0882(2)
C16 C 0.5060(3) 0.8828(10) 0.0884(2)
H11 H 0.5252 0.7714 0.0583
C17 C 0.5671(3) 1.0537(11) 0.1341(2)
H12 H 0.6289 1.0565 0.1352
C18 C 0.5390(3) 1.2246(10) 0.1791(2)
H13 H 0.5818 1.3406 0.2093
C19 C 0.4480(3) 1.2214(9) 0.17887(19)
H14 H 0.4295 1.3357 0.2088
Cl1 Cl 0.17029(7) 1.6030(3) 0.28389(5)
N1 N 0.3398(2) 0.7324(6) 0.04720(16)
loop_
_geom_bond_atom_site_label_1
_geom_bond_atom_site_label_2
_geom_bond_site_symmetry_1
_geom_bond_site_symmetry_2
C1 H1 1_555 1_555
C2 C1 1_555 1_555
C3 C2 1_555 1_555
H2 C3 1_555 1_555
C4 C3 1_555 1_555
H3 C4 1_555 1_555
C5 C4 1_555 1_555
C6 C1 1_555 1_555
C7 C5 1_555 1_555
H4 C7 1_555 1_555
C8 C7 1_555 1_555
C9 C8 1_555 1_555
H5 C9 1_555 1_555
H6 C9 1_555 1_555
C10 C9 1_555 1_555
H7 C10 1_555 1_555
H8 C10 1_555 1_555
C11 C10 1_555 1_555
H9 C11 1_555 1_555
H10 C11 1_555 1_555
C12 C8 1_555 1_555
C13 C6 1_555 1_555
C14 C13 1_555 1_555
C15 C14 1_555 1_555
C16 C15 1_555 1_555
H11 C16 1_555 1_555
C17 C16 1_555 1_555
H12 C17 1_555 1_555
C18 C17 1_555 1_555
H13 C18 1_555 1_555
C19 C14 1_555 1_555
H14 C19 1_555 1_555
Cl1 C2 1_555 1_555
N1 C11 1_555 1_555
C5 C6 1_555 1_555
C12 C13 1_555 1_555
C12 N1 1_555 1_555
C15 N1 1_555 1_555
C18 C19 1_555 1_555

#END
