
#######################################################################
#
#                 Cambridge Crystallographic Data Centre
#                                CCDC 
#
#######################################################################
#
# If this CIF has been generated from an entry in the Cambridge 
# Structural Database, then it will include bibliographic, chemical, 
# crystal, experimental, refinement or atomic coordinate data resulting 
# from the CCDC's data processing and validation procedures.
#
#######################################################################

data_UCIPUU
_chemical_formula_moiety         'C14 H11 N1 O4'
_chemical_name_systematic        
1-methyl-3-(4-oxo-4H-1-benzopyran-5-yl)pyrrolidine-2,5-dione
_symmetry_cell_setting           monoclinic
_symmetry_space_group_name_H-M   'P 21/m'
_symmetry_Int_Tables_number      11
_space_group_name_Hall           '-P 2yb'
loop_
_symmetry_equiv_pos_site_id
_symmetry_equiv_pos_as_xyz
1 x,y,z
2 -x,1/2+y,-z
3 -x,-y,-z
4 x,1/2-y,z
_cell_length_a                   8.4519(4)
_cell_length_b                   6.8822(3)
_cell_length_c                   10.8607(5)
_cell_angle_alpha                90
_cell_angle_beta                 112.056(2)
_cell_angle_gamma                90
_cell_volume                     585.509
_exptl_crystal_colour            colorless
_exptl_crystal_description       block
_cell_formula_units_Z            2
loop_
_atom_site_label
_atom_site_type_symbol
_atom_site_fract_x
_atom_site_fract_y
_atom_site_fract_z
C1 C 0.3571(5) 0.2500 0.0590(4)
C2 C 0.1761(6) 0.2500 0.0322(4)
C3 C 0.0616(7) 0.2500 -0.1075(5)
H1 H -0.0559 0.2500 -0.1294
C4 C 0.1213(8) 0.2500 -0.2015(5)
H2 H 0.0430 0.2500 -0.2887
C5 C 0.4063(6) 0.2500 -0.0527(4)
C6 C 0.5720(7) 0.2500 -0.0412(6)
H3 H 0.6002 0.2500 -0.1161
C7 C 0.6965(7) 0.2500 0.0840(6)
H4 H 0.8107 0.2500 0.0939
C8 C 0.6548(5) 0.2500 0.1959(5)
H5 H 0.7413 0.2500 0.2799
C9 C 0.4881(5) 0.2500 0.1845(4)
C10 C 0.4526(6) 0.2500 0.3129(4)
H6 H 0.5644 0.2500 0.3860
O1 O 0.1173(4) 0.2500 0.1211(3)
O2 O 0.2900(6) 0.2500 -0.1821(3)
C11 C 0.3561(6) 0.0934(12) 0.3404(4)
N1 N 0.2572(12) 0.2078(12) 0.4134(9)
C12 C 0.2596(12) 0.1087(13) 0.4093(8)
O3 O 0.1730(5) 0.0315(8) 0.4617(4)
O4 O 0.3692(7) -0.0418(8) 0.3285(5)
C11C C 0.3561(6) 0.4066(12) 0.3404(4)
N1C N 0.2572(12) 0.2922(12) 0.4134(9)
C12C C 0.2596(12) 0.3913(13) 0.4093(8)
O3C O 0.1730(5) 0.4685(8) 0.4617(4)
O4C O 0.3692(7) 0.5418(8) 0.3285(5)
C13? C 0.1730(5) 0.0315(8) 0.4617(4)
loop_
_geom_bond_atom_site_label_1
_geom_bond_atom_site_label_2
_geom_bond_site_symmetry_1
_geom_bond_site_symmetry_2
C1 C2 1_555 1_555
C2 C3 1_555 1_555
C3 H1 1_555 1_555
C4 C3 1_555 1_555
H2 C4 1_555 1_555
C5 C1 1_555 1_555
C6 C5 1_555 1_555
H3 C6 1_555 1_555
C7 C6 1_555 1_555
H4 C7 1_555 1_555
C8 C7 1_555 1_555
H5 C8 1_555 1_555
C9 C1 1_555 1_555
C10 C9 1_555 1_555
H6 C10 1_555 1_555
O1 C2 1_555 1_555
O2 C4 1_555 1_555
C11 C10 1_555 1_555
N1 C11 1_555 1_555
C12 C11 1_555 1_555
O3 N1 1_555 1_555
O4 C11 1_555 1_555
C11C C10 1_555 1_555
N1C N1 1_555 1_555
C12C N1 1_555 1_555
O3C N1C 1_555 1_555
O4C C11C 1_555 1_555
C5 O2 1_555 1_555
C8 C9 1_555 1_555
N1 C12 1_555 1_555
C12 O3 1_555 1_555
C12 N1C 1_555 1_555
C11C N1C 1_555 1_555
C11C C12C 1_555 1_555
N1C C12C 1_555 1_555
C12C O3C 1_555 1_555

#END
