
#######################################################################
#
#                 Cambridge Crystallographic Data Centre
#                                CCDC 
#
#######################################################################
#
# If this CIF has been generated from an entry in the Cambridge 
# Structural Database, then it will include bibliographic, chemical, 
# crystal, experimental, refinement or atomic coordinate data resulting 
# from the CCDC's data processing and validation procedures.
#
#######################################################################

data_UCIPIG
_chemical_formula_moiety         'C17 H15 Br2 N1'
_chemical_name_systematic        
cis-7-Bromo-4-(4-bromophenyl)-1,2,3,3a,4,8b-hexahydrocyclopent(b)indole
_symmetry_cell_setting           triclinic
_symmetry_space_group_name_H-M   'P 1'
_symmetry_Int_Tables_number      1
_space_group_name_Hall           'P 1'
loop_
_symmetry_equiv_pos_site_id
_symmetry_equiv_pos_as_xyz
1 x,y,z
_cell_length_a                   8.371(1)
_cell_length_b                   12.564(2)
_cell_length_c                   13.862(2)
_cell_angle_alpha                86.99(1)
_cell_angle_beta                 81.07(1)
_cell_angle_gamma                89.91(1)
_cell_volume                     1438.22
_exptl_crystal_colour            colorless
_chemical_melting_point          151-153deg.C
_cell_formula_units_Z            4
_exptl_crystal_recrystallization_method n-hexane
loop_
_atom_site_label
_atom_site_type_symbol
_atom_site_fract_x
_atom_site_fract_y
_atom_site_fract_z
Br1 Br 0.919(3) -0.356(2) 0.774(2)
Br2 Br 1.094(3) 0.333(2) 1.234(2)
N1 N 0.916(4) 0.101(3) 0.889(2)
C1 C 0.908(4) -0.217(3) 0.811(2)
C2 C 0.919(4) -0.189(3) 0.912(2)
C3 C 0.892(4) -0.131(3) 0.741(2)
C4 C 0.923(4) -0.080(3) 0.945(3)
C5 C 0.889(4) -0.029(3) 0.768(2)
C6 C 0.912(4) -0.003(3) 0.867(2)
C7 C 0.959(4) 0.137(3) 0.973(2)
C8 C 0.902(4) 0.241(3) 0.996(2)
C9 C 0.914(4) 0.295(3) 1.069(2)
C10 C 1.039(4) 0.252(3) 1.129(2)
C11 C 1.101(4) 0.160(3) 1.120(2)
C12 C 1.075(4) 0.092(3) 1.037(2)
C13 C 0.785(4) 0.277(3) 0.923(2)
C14 C 0.822(4) 0.194(3) 0.844(2)
C15 C 0.913(5) 0.248(3) 0.753(3)
C16 C 0.958(4) 0.358(3) 0.792(2)
C17 C 0.816(4) 0.380(3) 0.870(3)
H1 H 0.9232 -0.2456 0.9592
H2 H 0.8843 -0.1456 0.6749
H3 H 0.9324 -0.0628 1.0098
H4 H 0.8716 0.0273 0.7223
H5 H 0.8516 0.3561 1.0849
H6 H 1.1665 0.1335 1.1658
H7 H 1.1274 0.0258 1.0257
H8 H 0.6752 0.2712 0.9543
H9 H 0.7229 0.1663 0.8299
H10 H 1.0074 0.2093 0.7291
H11 H 0.8473 0.2574 0.7036
H12 H 1.0556 0.3528 0.8188
H13 H 0.9690 0.4122 0.7408
H14 H 0.7243 0.4034 0.8421
H15 H 0.8430 0.4326 0.9122
Br3 Br 0.706(3) 0.738(2) 1.515(2)
Br4 Br 0.533(3) 0.048(2) 1.055(2)
N2 N 0.729(4) 0.277(3) 1.388(2)
C18 C 0.713(4) 0.591(3) 1.478(3)
C19 C 0.700(4) 0.576(3) 1.384(3)
C20 C 0.733(4) 0.513(3) 1.543(2)
C21 C 0.716(4) 0.475(2) 1.357(2)
C22 C 0.722(4) 0.405(2) 1.517(2)
C23 C 0.720(4) 0.384(3) 1.421(2)
C24 C 0.671(4) 0.235(2) 1.308(2)
C25 C 0.741(4) 0.136(2) 1.291(2)
C26 C 0.560(4) 0.278(3) 1.250(2)
C27 C 0.517(4) 0.230(3) 1.185(2)
C28 C 0.589(4) 0.118(3) 1.155(2)
C29 C 0.680(4) 0.077(3) 1.212(2)
C30 C 0.851(4) 0.113(3) 1.365(2)
C31 C 0.821(4) 0.203(3) 1.441(2)
C32 C 0.730(4) 0.140(3) 1.528(2)
C33 C 0.678(4) 0.032(3) 1.506(2)
C34 C 0.803(4) 0.005(3) 1.425(2)
H16 H 0.6814 0.6338 1.3399
H17 H 0.7551 0.5292 1.6062
H18 H 0.7261 0.4637 1.2891
H19 H 0.7167 0.3481 1.5652
H20 H 0.5189 0.3472 1.2619
H21 H 0.4360 0.2600 1.1514
H22 H 0.7107 0.0049 1.2044
H23 H 0.9614 0.1126 1.3344
H24 H 0.9185 0.2337 1.4548
H25 H 0.7980 0.1327 1.5771
H26 H 0.6364 0.1793 1.5527
H27 H 0.6768 -0.0174 1.5609
H28 H 0.5737 0.0332 1.4869
H29 H 0.7620 -0.0446 1.3851
H30 H 0.8943 -0.0254 1.4493
Br5 Br 0.239(3) 0.238(2) 1.518(2)
Br6 Br 0.639(3) -0.447(2) 1.050(2)
N3 N 0.286(4) -0.217(3) 1.398(2)
C35 C 0.241(4) 0.093(3) 1.483(2)
C36 C 0.307(4) 0.083(3) 1.375(3)
C37 C 0.204(4) 0.006(3) 1.547(2)
C38 C 0.309(4) -0.035(3) 1.351(2)
C39 C 0.224(4) -0.089(3) 1.509(2)
C40 C 0.280(4) -0.124(3) 1.419(2)
C41 C 0.518(4) -0.221(3) 1.253(2)
C42 C 0.388(4) -0.255(3) 1.316(2)
C43 C 0.328(4) -0.354(3) 1.298(2)
C44 C 0.401(4) -0.407(2) 1.210(2)
C45 C 0.533(4) -0.371(2) 1.155(2)
C46 C 0.585(4) -0.269(3) 1.176(3)
C47 C 0.185(4) -0.303(3) 1.439(2)
C48 C 0.181(3) -0.389(3) 1.366(2)
C49 C 0.198(4) -0.500(3) 1.423(3)
C50 C 0.174(3) -0.479(3) 1.535(2)
C51 C 0.248(4) -0.360(3) 1.524(2)
H31 H 0.3426 0.1405 1.3298
H32 H 0.1657 0.0126 1.6151
H33 H 0.3317 -0.0502 1.2836
H34 H 0.1915 -0.1460 1.5557
H35 H 0.5655 -0.1551 1.2654
H36 H 0.3508 -0.4690 1.1919
H37 H 0.6714 -0.2352 1.1325
H38 H 0.0782 -0.2778 1.4596
H39 H 0.0869 -0.3852 1.3359
H40 H 0.1173 -0.5477 1.4098
H41 H 0.3019 -0.5285 1.4026
H42 H 0.0640 -0.4808 1.5645
H43 H 0.2345 -0.5266 1.5706
H44 H 0.3629 -0.3628 1.5117
H45 H 0.2148 -0.3243 1.5826
Br7 Br 0.390(3) -0.856(2) 0.770(2)
Br8 Br -0.013(3) -0.172(2) 1.237(2)
N4 N 0.339(4) -0.395(2) 0.896(2)
C52 C 0.378(4) -0.716(3) 0.810(2)
C53 C 0.345(4) -0.688(3) 0.902(2)
C54 C 0.404(4) -0.634(3) 0.738(2)
C55 C 0.404(4) -0.523(3) 0.757(2)
C56 C 0.331(4) -0.597(3) 0.935(2)
C57 C 0.352(4) -0.509(2) 0.856(2)
C58 C 0.119(4) -0.421(3) 1.045(2)
C59 C 0.028(4) -0.351(3) 1.118(2)
C60 C 0.099(4) -0.252(3) 1.132(2)
C61 C 0.232(4) -0.195(3) 1.067(2)
C62 C 0.305(4) -0.253(3) 1.003(2)
C63 C 0.254(4) -0.358(3) 0.981(2)
C64 C 0.448(4) -0.314(3) 0.838(2)
C65 C 0.457(4) -0.226(3) 0.917(2)
C66 C 0.447(4) -0.116(3) 0.867(2)
C67 C 0.377(5) -0.143(3) 0.778(2)
C68 C 0.387(3) -0.249(3) 0.752(2)
H46 H 0.3296 -0.7457 0.9500
H47 H 0.4235 -0.6525 0.6719
H48 H 0.4353 -0.4670 0.7090
H49 H 0.3089 -0.5854 1.0032
H50 H 0.0961 -0.4939 1.0392
H51 H -0.0737 -0.3730 1.1537
H52 H 0.2604 -0.1232 1.0734
H53 H 0.5523 -0.3425 0.8172
H54 H 0.5552 -0.2330 0.9428
H55 H 0.3788 -0.0705 0.9070
H56 H 0.5515 -0.0845 0.8498
H57 H 0.2653 -0.1247 0.7891
H58 H 0.4308 -0.1005 0.7241
H59 H 0.4606 -0.2554 0.6935
H60 H 0.2835 -0.2748 0.7438
loop_
_geom_bond_atom_site_label_1
_geom_bond_atom_site_label_2
_geom_bond_site_symmetry_1
_geom_bond_site_symmetry_2
Br1 C1 1_555 1_555
Br2 C10 1_555 1_555
Br3 C18 1_555 1_555
Br4 C28 1_555 1_555
Br5 C35 1_555 1_555
Br6 C45 1_555 1_555
Br7 C52 1_555 1_555
Br8 C60 1_555 1_555
N1 C6 1_555 1_555
N2 C23 1_555 1_555
N3 C40 1_555 1_555
N4 C57 1_555 1_555
C1 C2 1_555 1_555
C2 C4 1_555 1_555
C3 C1 1_555 1_555
C4 C6 1_555 1_555
C5 C3 1_555 1_555
C6 C5 1_555 1_555
C7 N1 1_555 1_555
C8 C7 1_555 1_555
C9 C8 1_555 1_555
C10 C9 1_555 1_555
C11 C10 1_555 1_555
C12 C7 1_555 1_555
C13 C8 1_555 1_555
C14 N1 1_555 1_555
C15 C14 1_555 1_555
C16 C15 1_555 1_555
C17 C13 1_555 1_555
C18 C19 1_555 1_555
C19 C21 1_555 1_555
C20 C18 1_555 1_555
C21 C23 1_555 1_555
C22 C20 1_555 1_555
C23 C22 1_555 1_555
C24 N2 1_555 1_555
C25 C24 1_555 1_555
C26 C24 1_555 1_555
C27 C26 1_555 1_555
C28 C27 1_555 1_555
C29 C25 1_555 1_555
C30 C25 1_555 1_555
C31 N2 1_555 1_555
C32 C31 1_555 1_555
C33 C32 1_555 1_555
C34 C30 1_555 1_555
C35 C36 1_555 1_555
C36 C38 1_555 1_555
C37 C35 1_555 1_555
C38 C40 1_555 1_555
C39 C37 1_555 1_555
C40 C39 1_555 1_555
C41 C42 1_555 1_555
C42 N3 1_555 1_555
C43 C42 1_555 1_555
C44 C43 1_555 1_555
C45 C44 1_555 1_555
C46 C41 1_555 1_555
C47 N3 1_555 1_555
C48 C43 1_555 1_555
C49 C48 1_555 1_555
C50 C49 1_555 1_555
C51 C47 1_555 1_555
C52 C53 1_555 1_555
C53 C56 1_555 1_555
C54 C52 1_555 1_555
C55 C54 1_555 1_555
C56 C57 1_555 1_555
C57 C55 1_555 1_555
C58 C59 1_555 1_555
C59 C60 1_555 1_555
C60 C61 1_555 1_555
C61 C62 1_555 1_555
C62 C63 1_555 1_555
C63 N4 1_555 1_555
C64 N4 1_555 1_555
C65 C62 1_555 1_555
C66 C65 1_555 1_555
C67 C66 1_555 1_555
C68 C64 1_555 1_555
H1 C2 1_555 1_555
H2 C3 1_555 1_555
H3 C4 1_555 1_555
H4 C5 1_555 1_555
H5 C9 1_555 1_555
H6 C11 1_555 1_555
H7 C12 1_555 1_555
H8 C13 1_555 1_555
H9 C14 1_555 1_555
H10 C15 1_555 1_555
H11 C15 1_555 1_555
H12 C16 1_555 1_555
H13 C16 1_555 1_555
H14 C17 1_555 1_555
H15 C17 1_555 1_555
H16 C19 1_555 1_555
H17 C20 1_555 1_555
H18 C21 1_555 1_555
H19 C22 1_555 1_555
H20 C26 1_555 1_555
H21 C27 1_555 1_555
H22 C29 1_555 1_555
H23 C30 1_555 1_555
H24 C31 1_555 1_555
H25 C32 1_555 1_555
H26 C32 1_555 1_555
H27 C33 1_555 1_555
H28 C33 1_555 1_555
H29 C34 1_555 1_555
H30 C34 1_555 1_555
H31 C36 1_555 1_555
H32 C37 1_555 1_555
H33 C38 1_555 1_555
H34 C39 1_555 1_555
H35 C41 1_555 1_555
H36 C44 1_555 1_555
H37 C46 1_555 1_555
H38 C47 1_555 1_555
H39 C48 1_555 1_555
H40 C49 1_555 1_555
H41 C49 1_555 1_555
H42 C50 1_555 1_555
H43 C50 1_555 1_555
H44 C51 1_555 1_555
H45 C51 1_555 1_555
H46 C53 1_555 1_555
H47 C54 1_555 1_555
H48 C55 1_555 1_555
H49 C56 1_555 1_555
H50 C58 1_555 1_555
H51 C59 1_555 1_555
H52 C61 1_555 1_555
H53 C64 1_555 1_555
H54 C65 1_555 1_555
H55 C66 1_555 1_555
H56 C66 1_555 1_555
H57 C67 1_555 1_555
H58 C67 1_555 1_555
H59 C68 1_555 1_555
H60 C68 1_555 1_555
C11 C12 1_555 1_555
C13 C14 1_555 1_555
C16 C17 1_555 1_555
C28 C29 1_555 1_555
C30 C31 1_555 1_555
C33 C34 1_555 1_555
C45 C46 1_555 1_555
C47 C48 1_555 1_555
C50 C51 1_555 1_555
C58 C63 1_555 1_555
C64 C65 1_555 1_555
C67 C68 1_555 1_555

#END
