
#######################################################################
#
#                 Cambridge Crystallographic Data Centre
#                                CCDC 
#
#######################################################################
#
# If this CIF has been generated from an entry in the Cambridge 
# Structural Database, then it will include bibliographic, chemical, 
# crystal, experimental, refinement or atomic coordinate data resulting 
# from the CCDC's data processing and validation procedures.
#
#######################################################################

data_UCIQED
_chemical_formula_moiety         'C19 H21 N1 O2'
_chemical_name_systematic        
anti-N-(2-Methyl-1-p-tolyl-3-oxo-3-phenylpropyl)acetamide
_symmetry_cell_setting           monoclinic
_symmetry_space_group_name_H-M   'P 21/c'
_symmetry_Int_Tables_number      14
_space_group_name_Hall           '-P 2ybc'
loop_
_symmetry_equiv_pos_site_id
_symmetry_equiv_pos_as_xyz
1 x,y,z
2 -x,1/2+y,1/2-z
3 -x,-y,-z
4 x,1/2-y,1/2+z
_cell_length_a                   9.0281(13)
_cell_length_b                   18.951(3)
_cell_length_c                   10.1736(15)
_cell_angle_alpha                90.00
_cell_angle_beta                 108.428(3)
_cell_angle_gamma                90.00
_cell_volume                     1651.36
_exptl_crystal_colour            white
_chemical_melting_point          170deg.C
_cell_formula_units_Z            4
_exptl_crystal_recrystallization_method 'ethyl acetate/60-80 petroleum ether'
loop_
_atom_site_label
_atom_site_type_symbol
_atom_site_fract_x
_atom_site_fract_y
_atom_site_fract_z
C1 C 0.2780(5) 0.4803(2) 1.3558(4)
C2 C 0.3567(4) 0.54303(18) 1.3552(4)
C3 C 0.4036(3) 0.56086(15) 1.2436(3)
C4 C 0.3698(3) 0.51612(14) 1.1301(3)
C5 C 0.2452(4) 0.43494(17) 1.2436(3)
C6 C 0.2913(3) 0.45241(14) 1.1290(3)
C7 C 0.2628(3) 0.40503(13) 1.0062(3)
C8 C 0.1494(3) 0.34366(13) 0.9875(3)
C9 C -0.0160(3) 0.37374(16) 0.9275(3)
C10 C 0.1821(3) 0.28739(13) 0.8911(2)
C11 C 0.4330(3) 0.25029(13) 0.8680(2)
C12 C 0.5959(3) 0.22435(17) 0.9408(3)
C13 C 0.0687(3) 0.22610(13) 0.8681(3)
C14 C -0.0505(3) 0.21809(15) 0.7427(3)
C15 C -0.1528(3) 0.16109(14) 0.7212(3)
C16 C -0.1413(3) 0.11135(14) 0.8240(3)
C17 C -0.0223(3) 0.12016(14) 0.9502(3)
C18 C 0.0809(3) 0.17608(14) 0.9721(3)
C19 C -0.2520(4) 0.04991(18) 0.7983(4)
O1 O 0.3243(3) 0.41779(11) 0.9184(2)
O2 O 0.3866(2) 0.25916(10) 0.74120(18)
N1 N 0.3435(2) 0.26289(12) 0.9485(2)
H1 H 0.256(5) 0.465(2) 1.439(4)
H2 H 0.388(5) 0.574(2) 1.434(4)
H3 H 0.464(4) 0.6057(18) 1.242(3)
H4 H 0.397(3) 0.5292(15) 1.050(3)
H5 H 0.198(5) 0.389(2) 1.248(4)
H6 H 0.162(3) 0.3214(17) 1.074(3)
H7 H -0.041(4) 0.4078(18) 0.987(3)
H8 H -0.099(4) 0.3381(17) 0.915(3)
H9 H -0.032(4) 0.3921(17) 0.835(3)
H10 H 0.175(3) 0.3090(15) 0.803(3)
H11 H 0.671(5) 0.255(2) 0.922(4)
H12 H 0.613(4) 0.2196(17) 1.037(4)
H13 H 0.607(4) 0.177(2) 0.899(4)
H14 H -0.054(4) 0.2520(17) 0.668(3)
H15 H -0.236(3) 0.1572(15) 0.629(3)
H16 H -0.020(4) 0.0863(17) 1.024(3)
H17 H 0.167(3) 0.1805(16) 1.060(3)
H18 H -0.329(6) 0.052(3) 0.846(5)
H19 H -0.303(7) 0.046(3) 0.706(6)
H20 H -0.202(7) 0.004(3) 0.835(6)
H21 H 0.378(4) 0.2542(17) 1.035(4)
loop_
_geom_bond_atom_site_label_1
_geom_bond_atom_site_label_2
_geom_bond_site_symmetry_1
_geom_bond_site_symmetry_2
C1 C2 1_555 1_555
C2 C3 1_555 1_555
C3 C4 1_555 1_555
C4 C6 1_555 1_555
C5 C1 1_555 1_555
C6 C5 1_555 1_555
C7 C6 1_555 1_555
C8 C7 1_555 1_555
C9 C8 1_555 1_555
C10 C8 1_555 1_555
C11 C12 1_555 1_555
C12 H11 1_555 1_555
C13 C10 1_555 1_555
C14 C13 1_555 1_555
C15 C14 1_555 1_555
C16 C15 1_555 1_555
C17 C16 1_555 1_555
C18 C13 1_555 1_555
C19 C16 1_555 1_555
O1 C7 1_555 1_555
O2 C11 1_555 1_555
N1 C10 1_555 1_555
H1 C1 1_555 1_555
H2 C2 1_555 1_555
H3 C3 1_555 1_555
H4 C4 1_555 1_555
H5 C5 1_555 1_555
H6 C8 1_555 1_555
H7 C9 1_555 1_555
H8 C9 1_555 1_555
H9 C9 1_555 1_555
H10 C10 1_555 1_555
H12 C12 1_555 1_555
H13 C12 1_555 1_555
H14 C14 1_555 1_555
H15 C15 1_555 1_555
H16 C17 1_555 1_555
H17 C18 1_555 1_555
H18 C19 1_555 1_555
H19 C19 1_555 1_555
H20 C19 1_555 1_555
H21 N1 1_555 1_555
C11 N1 1_555 1_555
C17 C18 1_555 1_555

#END
