
#######################################################################
#
#                 Cambridge Crystallographic Data Centre
#                                CCDC 
#
#######################################################################
#
# If this CIF has been generated from an entry in the Cambridge 
# Structural Database, then it will include bibliographic, chemical, 
# crystal, experimental, refinement or atomic coordinate data resulting 
# from the CCDC's data processing and validation procedures.
#
#######################################################################

data_UCIRAC
_chemical_formula_moiety         'C48 H76 Li4 N6 O3 Si2'
_chemical_name_systematic        
'bis(\m-N^1^-phenyl-N^2^-{phenyl[(trimethylsilyl)imino]methyl}ethane-1,2-bis(aminido))-tris(diethyl ether)-tetra-lithium(i) unknown solvate'
_symmetry_cell_setting           triclinic
_symmetry_space_group_name_H-M   'P -1'
_symmetry_Int_Tables_number      2
_space_group_name_Hall           '-P 1'
loop_
_symmetry_equiv_pos_site_id
_symmetry_equiv_pos_as_xyz
1 x,y,z
2 -x,-y,-z
_cell_length_a                   13.979(4)
_cell_length_b                   18.939(5)
_cell_length_c                   22.465(6)
_cell_angle_alpha                101.682(6)
_cell_angle_beta                 107.720(6)
_cell_angle_gamma                94.808(6)
_cell_volume                     5480.19
_exptl_crystal_colour            colorless
_exptl_crystal_description       block
_cell_formula_units_Z            4
loop_
_atom_site_label
_atom_site_type_symbol
_atom_site_fract_x
_atom_site_fract_y
_atom_site_fract_z
O1 O 0.2177(3) 0.59477(19) 0.09602(18)
C1 C 0.2364(9) 0.6611(6) 0.0162(4)
H1 H 0.2802 0.6998 0.0528
H2 H 0.1975 0.6829 -0.0176
H3 H 0.2785 0.6290 -0.0006
C2 C 0.1639(5) 0.6170(6) 0.0382(4)
H4 H 0.1125 0.6467 0.0469
H5 H 0.1279 0.5732 0.0035
C3 C 0.2332(6) 0.5240(3) 0.1095(6)
H6 H 0.2642 0.5301 0.1565
H7 H 0.2810 0.5033 0.0885
C4 C 0.1337(8) 0.4716(3) 0.0852(5)
H8 H 0.0819 0.4961 0.0985
H9 H 0.1436 0.4288 0.1033
H10 H 0.1115 0.4562 0.0381
O2 O 0.7214(4) 0.7353(2) 0.0444(2)
C5 C 0.7357(9) 0.6093(3) 0.0522(5)
H11 H 0.7717 0.6292 0.0983
H12 H 0.7641 0.5666 0.0365
H13 H 0.6633 0.5950 0.0451
C6 C 0.7478(9) 0.6672(3) 0.0158(4)
H14 H 0.8191 0.6754 0.0165
H15 H 0.7035 0.6499 -0.0297
C7 C 0.7533(8) 0.7964(3) 0.0216(4)
H16 H 0.7085 0.7924 -0.0229
H17 H 0.8236 0.7949 0.0209
C8 C 0.7494(9) 0.8685(2) 0.0641(5)
H18 H 0.6824 0.8677 0.0694
H19 H 0.7616 0.9083 0.0441
H20 H 0.8019 0.8763 0.1063
Si1 Si 0.39654(11) 0.65874(7) 0.33090(6)
Si2 Si 0.14975(11) 0.77804(7) 0.18853(8)
Li1 Li 0.4209(6) 0.7804(4) 0.2505(4)
Li2 Li 0.3150(7) 0.6704(4) 0.1671(4)
Li3 Li 0.4897(6) 0.7320(4) 0.1385(4)
Li4 Li 0.6169(8) 0.7411(5) 0.0839(4)
O3 O 0.4987(3) 0.86293(16) 0.32396(15)
N1 N 0.4912(3) 0.66519(18) 0.05528(17)
N2 N 0.4651(3) 0.64182(17) 0.17275(17)
N3 N 0.4168(3) 0.67150(17) 0.26197(16)
N4 N 0.6171(3) 0.80991(18) 0.16468(18)
N5 N 0.4105(3) 0.81492(17) 0.16101(17)
N6 N 0.2679(3) 0.77411(17) 0.17988(16)
C9 C 0.4367(4) 0.6043(3) -0.0603(2)
H21 H 0.4315 0.5572 -0.0519
C10 C 0.4178(5) 0.6098(3) -0.1221(3)
H22 H 0.4017 0.5665 -0.1554
C11 C 0.4210(5) 0.6753(5) -0.1377(3)
H23 H 0.4068 0.6782 -0.1812
C12 C 0.4461(5) 0.7390(4) -0.0877(3)
H24 H 0.4482 0.7856 -0.0972
C13 C 0.4674(4) 0.7336(3) -0.0250(3)
H25 H 0.4852 0.7771 0.0083
C14 C 0.4638(4) 0.6660(3) -0.0086(2)
C15 C 0.4785(4) 0.5928(2) 0.0659(2)
H26 H 0.5172 0.5619 0.0438
H27 H 0.4058 0.5711 0.0466
C16 C 0.5142(4) 0.5926(2) 0.1366(2)
H28 H 0.4989 0.5424 0.1413
H29 H 0.5889 0.6079 0.1547
C17 C 0.4693(3) 0.6329(2) 0.2296(2)
C18 C 0.5322(5) 0.5797(3) 0.2578(2)
C19 C 0.6360(5) 0.5999(3) 0.2842(2)
H30 H 0.6664 0.6467 0.2843
C20 C 0.6976(6) 0.5513(5) 0.3112(3)
H31 H 0.7693 0.5650 0.3297
C21 C 0.6518(9) 0.4841(5) 0.3102(4)
H32 H 0.6928 0.4511 0.3281
C22 C 0.5495(8) 0.4631(4) 0.2845(4)
H33 H 0.5197 0.4161 0.2845
C23 C 0.4887(5) 0.5111(3) 0.2580(2)
H34 H 0.4172 0.4968 0.2399
C24 C 0.5079(4) 0.6484(3) 0.3972(2)
H35 H 0.5305 0.6018 0.3844
H36 H 0.4887 0.6493 0.4358
H37 H 0.5632 0.6886 0.4064
C25 C 0.2962(4) 0.5797(3) 0.3151(2)
H38 H 0.2394 0.5795 0.2765
H39 H 0.2720 0.5837 0.3521
H40 H 0.3245 0.5342 0.3084
C26 C 0.3469(4) 0.7408(3) 0.3621(3)
H41 H 0.4038 0.7798 0.3878
H42 H 0.3073 0.7289 0.3890
H43 H 0.3032 0.7572 0.3259
C27 C 0.7537(4) 0.7495(3) 0.2104(3)
H44 H 0.7148 0.7047 0.1830
C28 C 0.8488(5) 0.7490(3) 0.2530(3)
H45 H 0.8747 0.7044 0.2551
C29 C 0.9044(5) 0.8129(4) 0.2917(3)
H46 H 0.9701 0.8127 0.3206
C30 C 0.8696(5) 0.8760(3) 0.2904(3)
H47 H 0.9097 0.9197 0.3193
C31 C 0.7765(4) 0.8789(3) 0.2480(3)
H48 H 0.7543 0.9248 0.2465
C32 C 0.7131(5) 0.8142(3) 0.2066(3)
C33 C 0.5765(4) 0.8787(2) 0.1719(3)
H49 H 0.6112 0.9131 0.1544
H50 H 0.5908 0.9008 0.2182
C34 C 0.4657(4) 0.8678(2) 0.1380(3)
H51 H 0.4519 0.8498 0.0912
H52 H 0.4407 0.9151 0.1451
C35 C 0.3161(4) 0.8191(2) 0.1559(2)
C36 C 0.2615(3) 0.8734(2) 0.1231(2)
C37 C 0.2547(4) 0.9407(3) 0.1571(3)
H53 H 0.2875 0.9541 0.2025
C38 C 0.2027(4) 0.9889(3) 0.1282(3)
H54 H 0.1980 1.0347 0.1530
C39 C 0.1581(5) 0.9707(3) 0.0640(3)
H55 H 0.1233 1.0047 0.0433
C40 C 0.1618(5) 0.9039(4) 0.0280(3)
H56 H 0.1269 0.8909 -0.0171
C41 C 0.2162(5) 0.8560(3) 0.0572(3)
H57 H 0.2226 0.8110 0.0320
C42 C 0.1536(4) 0.8524(3) 0.2580(3)
H58 H 0.2092 0.8499 0.2962
H59 H 0.0889 0.8468 0.2664
H60 H 0.1646 0.8998 0.2479
C43 C 0.0443(4) 0.7879(3) 0.1175(3)
H61 H 0.0574 0.8362 0.1094
H62 H -0.0202 0.7828 0.1263
H63 H 0.0402 0.7500 0.0796
C44 C 0.1108(4) 0.6896(3) 0.2051(3)
H64 H 0.1034 0.6497 0.1679
H65 H 0.0458 0.6903 0.2132
H66 H 0.1628 0.6823 0.2430
C45 C 0.6447(4) 0.8058(3) 0.3426(3)
H67 H 0.6118 0.7683 0.3574
H68 H 0.7182 0.8141 0.3651
H69 H 0.6312 0.7894 0.2961
C46 C 0.6047(5) 0.8729(3) 0.3561(3)
H70 H 0.6189 0.8896 0.4031
H71 H 0.6391 0.9111 0.3420
C47 C 0.4573(5) 0.9299(3) 0.3358(3)
H72 H 0.3898 0.9248 0.3028
H73 H 0.5022 0.9702 0.3312
C48 C 0.4461(5) 0.9497(3) 0.4017(3)
H74 H 0.4025 0.9098 0.4070
H75 H 0.4154 0.9943 0.4061
H76 H 0.5132 0.9580 0.4348
O4 O 0.6561(3) 0.2600(2) 0.44334(16)
C57 C 0.6554(10) 0.3325(3) 0.4795(4)
H97 H 0.7237 0.3541 0.5107
H98 H 0.6060 0.3314 0.5030
C58 C 0.6239(9) 0.3752(7) 0.4282(5)
H99 H 0.6819 0.3878 0.4144
H100 H 0.6014 0.4200 0.4458
H101 H 0.5681 0.3453 0.3912
C59 C 0.5864(6) 0.1944(4) 0.4335(6)
H102 H 0.5505 0.1729 0.3871
H103 H 0.5356 0.2045 0.4554
C60 C 0.6555(8) 0.1441(7) 0.4634(5)
H104 H 0.6875 0.1210 0.4329
H105 H 0.6153 0.1064 0.4738
H106 H 0.7081 0.1725 0.5028
O5 O 0.9164(3) 0.1053(2) 0.20039(18)
C61 C 0.7729(6) 0.1708(5) 0.1684(5)
H107 H 0.7411 0.1711 0.2018
H108 H 0.7222 0.1751 0.1287
H109 H 0.8285 0.2119 0.1829
C62 C 0.8146(5) 0.0997(4) 0.1558(4)
H110 H 0.7694 0.0596 0.1606
H111 H 0.8160 0.0879 0.1111
C63 C 0.9421(10) 0.0358(4) 0.2131(4)
H112 H 0.8866 0.0105 0.2235
H113 H 1.0048 0.0446 0.2509
C64 C 0.9587(9) -0.0124(4) 0.1555(5)
H114 H 0.9294 0.0058 0.1171
H115 H 0.9259 -0.0626 0.1485
H116 H 1.0318 -0.0116 0.1637
Si3 Si 1.25845(10) 0.16113(7) 0.37470(6)
Si4 Si 1.10827(11) 0.27624(7) 0.19754(6)
Li5 Li 1.1110(6) 0.2841(4) 0.3615(4)
Li6 Li 1.0093(6) 0.1759(4) 0.2752(4)
Li7 Li 0.8970(6) 0.2378(4) 0.3566(3)
Li8 Li 0.7615(6) 0.2503(4) 0.4037(4)
O6 O 1.1966(3) 0.3645(2) 0.43246(17)
N7 N 0.7587(3) 0.16855(16) 0.32961(17)
N8 N 0.9708(3) 0.14937(16) 0.35980(17)
N9 N 1.1341(3) 0.17449(16) 0.36132(15)
N10 N 0.8903(3) 0.32044(17) 0.42976(18)
N11 N 0.9566(3) 0.31559(17) 0.31871(16)
N12 N 1.0544(3) 0.27784(17) 0.25674(15)
C65 C 0.6205(4) 0.2294(3) 0.2859(2)
H117 H 0.6644 0.2746 0.3063
C66 C 0.5204(5) 0.2306(3) 0.2519(3)
H118 H 0.4969 0.2758 0.2490
C67 C 0.4552(4) 0.1661(4) 0.2224(3)
H119 H 0.3855 0.1659 0.2002
C68 C 0.4924(5) 0.1022(3) 0.2256(3)
H120 H 0.4480 0.0573 0.2043
C69 C 0.5916(4) 0.1008(3) 0.2585(3)
H121 H 0.6143 0.0550 0.2587
C70 C 0.6609(4) 0.1645(2) 0.2919(2)
C71 C 0.7910(3) 0.0982(2) 0.3301(2)
H122 H 0.7893 0.0741 0.2862
H123 H 0.7429 0.0671 0.3421
C72 C 0.8957(3) 0.1043(2) 0.3761(2)
H124 H 0.8969 0.1263 0.4203
H125 H 0.9145 0.0549 0.3752
C73 C 1.0642(4) 0.1379(2) 0.37869(19)
C74 C 1.0962(3) 0.0836(2) 0.4196(2)
C75 C 1.1137(3) 0.0156(2) 0.3927(2)
H126 H 1.1051 0.0025 0.3481
C76 C 1.1432(4) -0.0331(3) 0.4297(3)
H127 H 1.1566 -0.0793 0.4109
C77 C 1.1532(5) -0.0154(4) 0.4930(4)
H128 H 1.1731 -0.0493 0.5187
C78 C 1.1341(4) 0.0529(5) 0.5209(3)
H129 H 1.1417 0.0654 0.5654
C79 C 1.1045(4) 0.1021(3) 0.4838(2)
H130 H 1.0899 0.1480 0.5022
C80 C 1.2715(4) 0.0806(2) 0.3152(2)
H131 H 1.2543 0.0356 0.3274
H132 H 1.3417 0.0847 0.3149
H133 H 1.2254 0.0794 0.2722
C81 C 1.3308(3) 0.1516(3) 0.4571(2)
H134 H 1.3299 0.1948 0.4893
H135 H 1.4013 0.1470 0.4599
H136 H 1.2992 0.1080 0.4652
C82 C 1.3263(4) 0.2435(2) 0.3629(2)
H137 H 1.2857 0.2553 0.3232
H138 H 1.3925 0.2337 0.3597
H139 H 1.3363 0.2848 0.3995
C83 C 0.9053(4) 0.2717(3) 0.5212(3)
H140 H 0.8868 0.2241 0.4934
C84 C 0.9222(5) 0.2791(4) 0.5853(3)
H141 H 0.9128 0.2368 0.6008
C85 C 0.9530(5) 0.3470(5) 0.6287(3)
H142 H 0.9643 0.3521 0.6734
C86 C 0.9663(5) 0.4064(4) 0.6039(3)
H143 H 0.9897 0.4533 0.6326
C87 C 0.9472(4) 0.4004(3) 0.5396(3)
H144 H 0.9563 0.4433 0.5248
C88 C 0.9143(4) 0.3322(3) 0.4945(3)
C89 C 0.9109(4) 0.3858(2) 0.4079(2)
H145 H 0.9826 0.4087 0.4306
H146 H 0.8670 0.4213 0.4185
C90 C 0.8914(4) 0.3673(2) 0.3367(2)
H147 H 0.8192 0.3456 0.3141
H148 H 0.9044 0.4125 0.3229
C91 C 0.9925(3) 0.3235(2) 0.2724(2)
C92 C 0.9655(4) 0.3834(2) 0.2376(2)
C93 C 0.8715(4) 0.3781(3) 0.1941(2)
H149 H 0.8222 0.3364 0.1855
C94 C 0.8468(5) 0.4332(4) 0.1619(3)
H150 H 0.7818 0.4286 0.1305
C95 C 0.9173(6) 0.4938(3) 0.1762(3)
H151 H 0.9006 0.5324 0.1555
C96 C 1.0104(5) 0.4993(3) 0.2195(3)
H152 H 1.0591 0.5416 0.2289
C97 C 1.0355(4) 0.4446(2) 0.2499(2)
H153 H 1.1018 0.4488 0.2798
C98 C 1.0274(4) 0.2916(3) 0.1202(2)
H154 H 0.9641 0.2567 0.1036
H155 H 1.0638 0.2849 0.0890
H156 H 1.0115 0.3414 0.1272
C99 C 1.2293(4) 0.3417(3) 0.2232(3)
H157 H 1.2145 0.3918 0.2291
H158 H 1.2619 0.3322 0.1900
H159 H 1.2751 0.3352 0.2638
C100 C 1.1407(4) 0.1826(2) 0.1784(2)
H160 H 1.1888 0.1735 0.2170
H161 H 1.1715 0.1786 0.1443
H162 H 1.0787 0.1467 0.1638
C101 C 1.3467(6) 0.4478(4) 0.4370(4)
H163 H 1.3741 0.4488 0.4829
H164 H 1.3673 0.4954 0.4302
H165 H 1.3733 0.4101 0.4124
C102 C 1.2351(6) 0.4312(3) 0.4152(3)
H166 H 1.2086 0.4241 0.3678
H167 H 1.2083 0.4735 0.4345
C103 C 1.2057(5) 0.3781(3) 0.4977(3)
H168 H 1.1638 0.4156 0.5075
H169 H 1.2774 0.3969 0.5245
C104 C 1.1715(5) 0.3101(3) 0.5129(3)
H170 H 1.1000 0.2924 0.4871
H171 H 1.1788 0.3198 0.5588
H172 H 1.2130 0.2731 0.5030
C49? C 0.1710(14) 0.6479(7) 0.0024(4)
H77? H 0.2089 0.6897 0.0378
H78? H 0.0995 0.6542 -0.0136
H79? H 0.1999 0.6445 -0.0326
C50? C 0.1782(4) 0.5784(4) 0.0263(2)
H80? H 0.1100 0.5485 0.0109
H81? H 0.2234 0.5497 0.0083
C51? C 0.1618(8) 0.5228(4) 0.0850(7)
H82? H 0.1441 0.4972 0.0391
H83? H 0.0978 0.5275 0.0946
C52? C 0.2241(12) 0.4782(4) 0.1270(7)
H84? H 0.2930 0.4822 0.1244
H85? H 0.1919 0.4269 0.1120
H86? H 0.2275 0.4967 0.1717
C53? C 0.810(2) 0.6320(12) 0.0651(15)
H87? H 0.8540 0.6740 0.0978
H88? H 0.8477 0.6090 0.0382
H89? H 0.7871 0.5966 0.0862
C54? C 0.7180(17) 0.6572(4) 0.0232(13)
H90? H 0.7165 0.6451 -0.0221
H91? H 0.6551 0.6312 0.0253
C55? C 0.750(2) 0.7359(8) -0.0124(9)
H92? H 0.6940 0.7075 -0.0511
H93? H 0.8110 0.7123 -0.0096
C56? C 0.771(2) 0.8134(11) -0.0191(12)
H94? H 0.7414 0.8457 0.0078
H95? H 0.7404 0.8147 -0.0642
H96? H 0.8448 0.8300 -0.0054
C105? C 0.6785(9) 0.3875(6) 0.4530(7)
H173? H 0.7313 0.3968 0.4952
H174? H 0.6443 0.4303 0.4498
H175? H 0.7098 0.3777 0.4191
C106? C 0.6014(7) 0.3218(4) 0.4448(7)
H176? H 0.5745 0.3284 0.4812
H177? H 0.5440 0.3145 0.4042
C107? C 0.6239(11) 0.2052(4) 0.4729(5)
H178? H 0.5566 0.2117 0.4771
H179? H 0.6731 0.2104 0.5164
C108? C 0.6179(10) 0.1300(6) 0.4311(6)
H180? H 0.5786 0.1280 0.3863
H181? H 0.5846 0.0931 0.4463
H182? H 0.6867 0.1203 0.4338
C109? C 0.8293(7) 0.1438(7) 0.1904(4)
H183? H 0.8444 0.1880 0.2260
H184? H 0.7699 0.1119 0.1911
C110? C 0.8035(9) 0.1657(7) 0.1268(5)
H185? H 0.8019 0.2184 0.1343
H186? H 0.7367 0.1393 0.0982
H187? H 0.8551 0.1538 0.1067
C111? C 0.8941(7) 0.0265(2) 0.1791(6)
H188? H 0.8738 0.0118 0.1316
H189? H 0.8365 0.0085 0.1919
C112? C 0.9862(9) -0.0077(4) 0.2085(7)
H190? H 1.0481 0.0205 0.2083
H191? H 0.9784 -0.0580 0.1836
H192? H 0.9911 -0.0079 0.2529
loop_
_geom_bond_atom_site_label_1
_geom_bond_atom_site_label_2
_geom_bond_site_symmetry_1
_geom_bond_site_symmetry_2
O1 C2 1_555 1_555
C1 H1 1_555 1_555
H2 C1 1_555 1_555
H3 C1 1_555 1_555
C2 C1 1_555 1_555
H4 C2 1_555 1_555
H5 C2 1_555 1_555
C3 O1 1_555 1_555
H6 C3 1_555 1_555
H7 C3 1_555 1_555
C4 C3 1_555 1_555
H8 C4 1_555 1_555
H9 C4 1_555 1_555
H10 C4 1_555 1_555
O2 C6 1_555 1_555
C5 H11 1_555 1_555
H12 C5 1_555 1_555
H13 C5 1_555 1_555
C6 C5 1_555 1_555
H14 C6 1_555 1_555
H15 C6 1_555 1_555
C7 O2 1_555 1_555
H16 C7 1_555 1_555
H17 C7 1_555 1_555
C8 C7 1_555 1_555
H18 C8 1_555 1_555
H19 C8 1_555 1_555
H20 C8 1_555 1_555
Si1 N3 1_555 1_555
Si2 N6 1_555 1_555
Li1 O3 1_555 1_555
Li2 O1 1_555 1_555
Li3 N1 1_555 1_555
Li4 O2 1_555 1_555
O3 C46 1_555 1_555
N1 Li4 1_555 1_555
N2 Li2 1_555 1_555
N3 Li1 1_555 1_555
N4 Li3 1_555 1_555
N5 Li1 1_555 1_555
N6 Li1 1_555 1_555
C9 H21 1_555 1_555
C10 C9 1_555 1_555
H22 C10 1_555 1_555
C11 C10 1_555 1_555
H23 C11 1_555 1_555
C12 C11 1_555 1_555
H24 C12 1_555 1_555
C13 C12 1_555 1_555
H25 C13 1_555 1_555
C14 N1 1_555 1_555
C15 N1 1_555 1_555
H26 C15 1_555 1_555
H27 C15 1_555 1_555
C16 N2 1_555 1_555
H28 C16 1_555 1_555
H29 C16 1_555 1_555
C17 N2 1_555 1_555
C18 C17 1_555 1_555
C19 C18 1_555 1_555
H30 C19 1_555 1_555
C20 C19 1_555 1_555
H31 C20 1_555 1_555
C21 C20 1_555 1_555
H32 C21 1_555 1_555
C22 C21 1_555 1_555
H33 C22 1_555 1_555
C23 C18 1_555 1_555
H34 C23 1_555 1_555
C24 Si1 1_555 1_555
H35 C24 1_555 1_555
H36 C24 1_555 1_555
H37 C24 1_555 1_555
C25 Si1 1_555 1_555
H38 C25 1_555 1_555
H39 C25 1_555 1_555
H40 C25 1_555 1_555
C26 Si1 1_555 1_555
H41 C26 1_555 1_555
H42 C26 1_555 1_555
H43 C26 1_555 1_555
C27 H44 1_555 1_555
C28 C27 1_555 1_555
H45 C28 1_555 1_555
C29 C28 1_555 1_555
H46 C29 1_555 1_555
C30 C29 1_555 1_555
H47 C30 1_555 1_555
C31 C30 1_555 1_555
H48 C31 1_555 1_555
C32 N4 1_555 1_555
C33 N4 1_555 1_555
H49 C33 1_555 1_555
H50 C33 1_555 1_555
C34 N5 1_555 1_555
H51 C34 1_555 1_555
H52 C34 1_555 1_555
C35 N5 1_555 1_555
C36 C35 1_555 1_555
C37 C36 1_555 1_555
H53 C37 1_555 1_555
C38 C37 1_555 1_555
H54 C38 1_555 1_555
C39 C38 1_555 1_555
H55 C39 1_555 1_555
C40 C39 1_555 1_555
H56 C40 1_555 1_555
C41 C36 1_555 1_555
H57 C41 1_555 1_555
C42 Si2 1_555 1_555
H58 C42 1_555 1_555
H59 C42 1_555 1_555
H60 C42 1_555 1_555
C43 Si2 1_555 1_555
H61 C43 1_555 1_555
H62 C43 1_555 1_555
H63 C43 1_555 1_555
C44 Si2 1_555 1_555
H64 C44 1_555 1_555
H65 C44 1_555 1_555
H66 C44 1_555 1_555
C45 H67 1_555 1_555
H68 C45 1_555 1_555
H69 C45 1_555 1_555
C46 C45 1_555 1_555
H70 C46 1_555 1_555
H71 C46 1_555 1_555
C47 O3 1_555 1_555
H72 C47 1_555 1_555
H73 C47 1_555 1_555
C48 C47 1_555 1_555
H74 C48 1_555 1_555
H75 C48 1_555 1_555
H76 C48 1_555 1_555
O4 C57 1_555 1_555
C57 H97 1_555 1_555
H98 C57 1_555 1_555
C58 C57 1_555 1_555
H99 C58 1_555 1_555
H100 C58 1_555 1_555
H101 C58 1_555 1_555
C59 O4 1_555 1_555
H102 C59 1_555 1_555
H103 C59 1_555 1_555
C60 C59 1_555 1_555
H104 C60 1_555 1_555
H105 C60 1_555 1_555
H106 C60 1_555 1_555
O5 C62 1_555 1_555
C61 H107 1_555 1_555
H108 C61 1_555 1_555
H109 C61 1_555 1_555
C62 C61 1_555 1_555
H110 C62 1_555 1_555
H111 C62 1_555 1_555
C63 O5 1_555 1_555
H112 C63 1_555 1_555
H113 C63 1_555 1_555
C64 C63 1_555 1_555
H114 C64 1_555 1_555
H115 C64 1_555 1_555
H116 C64 1_555 1_555
Si3 N9 1_555 1_555
Si4 N12 1_555 1_555
Li5 O6 1_555 1_555
Li6 O5 1_555 1_555
Li7 N7 1_555 1_555
Li8 O4 1_555 1_555
O6 C102 1_555 1_555
N7 Li8 1_555 1_555
N8 Li6 1_555 1_555
N9 Li5 1_555 1_555
N10 Li7 1_555 1_555
N11 Li5 1_555 1_555
N12 Li5 1_555 1_555
C65 H117 1_555 1_555
C66 C65 1_555 1_555
H118 C66 1_555 1_555
C67 C66 1_555 1_555
H119 C67 1_555 1_555
C68 C67 1_555 1_555
H120 C68 1_555 1_555
C69 C68 1_555 1_555
H121 C69 1_555 1_555
C70 N7 1_555 1_555
C71 N7 1_555 1_555
H122 C71 1_555 1_555
H123 C71 1_555 1_555
C72 N8 1_555 1_555
H124 C72 1_555 1_555
H125 C72 1_555 1_555
C73 N8 1_555 1_555
C74 C73 1_555 1_555
C75 C74 1_555 1_555
H126 C75 1_555 1_555
C76 C75 1_555 1_555
H127 C76 1_555 1_555
C77 C76 1_555 1_555
H128 C77 1_555 1_555
C78 C77 1_555 1_555
H129 C78 1_555 1_555
C79 C74 1_555 1_555
H130 C79 1_555 1_555
C80 Si3 1_555 1_555
H131 C80 1_555 1_555
H132 C80 1_555 1_555
H133 C80 1_555 1_555
C81 Si3 1_555 1_555
H134 C81 1_555 1_555
H135 C81 1_555 1_555
H136 C81 1_555 1_555
C82 Si3 1_555 1_555
H137 C82 1_555 1_555
H138 C82 1_555 1_555
H139 C82 1_555 1_555
C83 H140 1_555 1_555
C84 C83 1_555 1_555
H141 C84 1_555 1_555
C85 C84 1_555 1_555
H142 C85 1_555 1_555
C86 C85 1_555 1_555
H143 C86 1_555 1_555
C87 C86 1_555 1_555
H144 C87 1_555 1_555
C88 N10 1_555 1_555
C89 N10 1_555 1_555
H145 C89 1_555 1_555
H146 C89 1_555 1_555
C90 N11 1_555 1_555
H147 C90 1_555 1_555
H148 C90 1_555 1_555
C91 N11 1_555 1_555
C92 C91 1_555 1_555
C93 C92 1_555 1_555
H149 C93 1_555 1_555
C94 C93 1_555 1_555
H150 C94 1_555 1_555
C95 C94 1_555 1_555
H151 C95 1_555 1_555
C96 C95 1_555 1_555
H152 C96 1_555 1_555
C97 C92 1_555 1_555
H153 C97 1_555 1_555
C98 Si4 1_555 1_555
H154 C98 1_555 1_555
H155 C98 1_555 1_555
H156 C98 1_555 1_555
C99 Si4 1_555 1_555
H157 C99 1_555 1_555
H158 C99 1_555 1_555
H159 C99 1_555 1_555
C100 Si4 1_555 1_555
H160 C100 1_555 1_555
H161 C100 1_555 1_555
H162 C100 1_555 1_555
C101 H163 1_555 1_555
H164 C101 1_555 1_555
H165 C101 1_555 1_555
C102 C101 1_555 1_555
H166 C102 1_555 1_555
H167 C102 1_555 1_555
C103 O6 1_555 1_555
H168 C103 1_555 1_555
H169 C103 1_555 1_555
C104 C103 1_555 1_555
H170 C104 1_555 1_555
H171 C104 1_555 1_555
H172 C104 1_555 1_555
Li2 N3 1_555 1_555
Li2 N6 1_555 1_555
Li3 N2 1_555 1_555
Li3 N5 1_555 1_555
Li4 N4 1_555 1_555
N3 C17 1_555 1_555
N6 C35 1_555 1_555
C9 C14 1_555 1_555
C13 C14 1_555 1_555
C15 C16 1_555 1_555
C22 C23 1_555 1_555
C27 C32 1_555 1_555
C31 C32 1_555 1_555
C33 C34 1_555 1_555
C40 C41 1_555 1_555
Li6 N9 1_555 1_555
Li6 N12 1_555 1_555
Li7 N8 1_555 1_555
Li7 N11 1_555 1_555
Li8 N10 1_555 1_555
N9 C73 1_555 1_555
N12 C91 1_555 1_555
C65 C70 1_555 1_555
C69 C70 1_555 1_555
C71 C72 1_555 1_555
C78 C79 1_555 1_555
C83 C88 1_555 1_555
C87 C88 1_555 1_555
C89 C90 1_555 1_555
C96 C97 1_555 1_555

#END
