
#######################################################################
#
#                 Cambridge Crystallographic Data Centre
#                                CCDC 
#
#######################################################################
#
# If this CIF has been generated from an entry in the Cambridge 
# Structural Database, then it will include bibliographic, chemical, 
# crystal, experimental, refinement or atomic coordinate data resulting 
# from the CCDC's data processing and validation procedures.
#
#######################################################################

data_UCITUY
_chemical_formula_moiety         'C16 H19 N1 O6'
_chemical_name_systematic        
'Diethyl (2Z,5Z)-5-((N-methyl-1H-pyrrol-2-yl)methylidene)-2-hydroxy-4-oxohex-2-enedioate'
_symmetry_cell_setting           triclinic
_symmetry_space_group_name_H-M   'P -1'
_symmetry_Int_Tables_number      2
_space_group_name_Hall           '-P 1'
loop_
_symmetry_equiv_pos_site_id
_symmetry_equiv_pos_as_xyz
1 x,y,z
2 -x,-y,-z
_cell_length_a                   9.1149(6)
_cell_length_b                   9.5692(7)
_cell_length_c                   10.4084(6)
_cell_angle_alpha                75.458(5)
_cell_angle_beta                 70.092(6)
_cell_angle_gamma                70.295(7)
_cell_volume                     794.026
_exptl_crystal_colour            yellow/orange
_exptl_crystal_description       prism
_cell_formula_units_Z            2
_chemical_properties_physical    Air-sensitive,Light-sensitive
_exptl_crystal_recrystallization_method ethanol
loop_
_atom_site_label
_atom_site_type_symbol
_atom_site_fract_x
_atom_site_fract_y
_atom_site_fract_z
O1 O 0.60847(13) 0.30044(14) 0.12479(11)
O2 O 0.38246(11) 0.38360(10) 0.29199(9)
O3 O 0.63857(13) 0.09959(10) 0.41096(11)
O4 O 0.76310(14) -0.06115(11) 0.59999(11)
H1 H 0.704(4) -0.031(4) 0.533(3)
O5 O 0.93725(14) 0.14110(13) 0.71720(12)
O6 O 0.90241(12) -0.09082(11) 0.78643(10)
N1 N 0.63578(13) 0.75113(12) 0.27648(11)
C1 C 0.73020(18) 0.75387(16) 0.36351(16)
H2 H 0.6736 0.7301 0.4590
H3 H 0.7451 0.8521 0.3472
H4 H 0.8342 0.6812 0.3418
C2 C 0.57237(17) 0.87304(15) 0.19295(14)
H5 H 0.5911(15) 0.9765(14) 0.1892(13)
C3 C 0.49819(18) 0.82965(17) 0.11937(15)
H6 H 0.447(2) 0.896(2) 0.0491(19)
C4 C 0.51708(17) 0.67607(16) 0.15950(13)
H7 H 0.4784(18) 0.6146(17) 0.1221(15)
C5 C 0.60346(15) 0.62622(14) 0.25895(12)
C6 C 0.65382(14) 0.48171(14) 0.33709(12)
H8 H 0.7138(19) 0.4771(17) 0.4031(16)
C7 C 0.62992(14) 0.35130(14) 0.33179(12)
C8 C 0.67954(15) 0.20885(14) 0.41964(13)
C9 C 0.76919(15) 0.19185(14) 0.51682(13)
H9 H 0.805(2) 0.270(2) 0.5270(17)
C10 C 0.80293(15) 0.05944(14) 0.60093(13)
C11 C 0.88920(15) 0.04314(15) 0.70690(13)
C12 C 0.54292(15) 0.34060(14) 0.23612(13)
C13 C 0.28179(17) 0.38405(16) 0.20861(14)
H10 H 0.3029 0.2836 0.1901
H11 H 0.3040 0.4501 0.1212
C14 C 0.10991(18) 0.4392(2) 0.29187(18)
H12 H 0.0380 0.4442 0.2405
H13 H 0.0920 0.5374 0.3115
H14 H 0.0893 0.3714 0.3771
C15 C 0.97461(18) -0.11184(17) 0.89789(14)
H15 H 0.9089 -0.0391 0.9599
H16 H 1.0827 -0.0979 0.8601
C16 C 0.98299(19) -0.26830(19) 0.97485(15)
H17 H 0.8765 -0.2831 1.0066
H18 H 1.0230 -0.2824 1.0527
H19 H 1.0548 -0.3395 0.9145
loop_
_geom_bond_atom_site_label_1
_geom_bond_atom_site_label_2
_geom_bond_site_symmetry_1
_geom_bond_site_symmetry_2
O1 C12 1_555 1_555
O2 C12 1_555 1_555
O3 C8 1_555 1_555
O4 H1 1_555 1_555
O5 C11 1_555 1_555
O6 C11 1_555 1_555
N1 C1 1_555 1_555
C1 H2 1_555 1_555
H3 C1 1_555 1_555
H4 C1 1_555 1_555
C2 N1 1_555 1_555
H5 C2 1_555 1_555
C3 C2 1_555 1_555
H6 C3 1_555 1_555
C4 C3 1_555 1_555
H7 C4 1_555 1_555
C5 N1 1_555 1_555
C6 C5 1_555 1_555
H8 C6 1_555 1_555
C7 C6 1_555 1_555
C8 C7 1_555 1_555
C9 C8 1_555 1_555
H9 C9 1_555 1_555
C10 O4 1_555 1_555
C11 C10 1_555 1_555
C12 C7 1_555 1_555
C13 O2 1_555 1_555
H10 C13 1_555 1_555
H11 C13 1_555 1_555
C14 C13 1_555 1_555
H12 C14 1_555 1_555
H13 C14 1_555 1_555
H14 C14 1_555 1_555
C15 O6 1_555 1_555
H15 C15 1_555 1_555
H16 C15 1_555 1_555
C16 C15 1_555 1_555
H17 C16 1_555 1_555
H18 C16 1_555 1_555
H19 C16 1_555 1_555
C4 C5 1_555 1_555
C9 C10 1_555 1_555

#END
