
#######################################################################
#
#                 Cambridge Crystallographic Data Centre
#                                CCDC 
#
#######################################################################
#
# If this CIF has been generated from an entry in the Cambridge 
# Structural Database, then it will include bibliographic, chemical, 
# crystal, experimental, refinement or atomic coordinate data resulting 
# from the CCDC's data processing and validation procedures.
#
#######################################################################

data_UCIVOU
_chemical_formula_moiety         'C46 H46 O2 S2'
_chemical_name_systematic        
8,16-bis(octyloxy)acenaphtho[1,2-b]acenaphtho[1',2':4,5]thieno[2,3-f][1]benzothiophene
_symmetry_cell_setting           triclinic
_symmetry_space_group_name_H-M   'P -1'
_symmetry_Int_Tables_number      2
_space_group_name_Hall           '-P 1'
loop_
_symmetry_equiv_pos_site_id
_symmetry_equiv_pos_as_xyz
1 x,y,z
2 -x,-y,-z
_cell_length_a                   13.0940(7)
_cell_length_b                   14.5388(8)
_cell_length_c                   20.6868(12)
_cell_angle_alpha                76.383(2)
_cell_angle_beta                 82.5890(10)
_cell_angle_gamma                80.352(2)
_cell_volume                     3756.83
_exptl_crystal_colour            colorless
_exptl_crystal_description       block
_cell_formula_units_Z            4
loop_
_atom_site_label
_atom_site_type_symbol
_atom_site_fract_x
_atom_site_fract_y
_atom_site_fract_z
S1 S 0.50672(9) 0.22451(9) 0.09697(6)
S2 S 0.61309(9) -0.19325(8) 0.05795(6)
O1 O 0.7333(2) -0.0288(2) -0.00912(14)
O2 O 0.3932(2) 0.0544(2) 0.17105(15)
C1 C 0.6456(3) -0.0036(3) 0.0320(2)
C2 C 0.6164(3) 0.0895(3) 0.0410(2)
C3 C 0.6608(3) 0.1757(3) 0.0118(2)
C4 C 0.7441(3) 0.2103(3) -0.0382(2)
C5 C 0.8179(4) 0.1744(3) -0.0816(2)
H1 H 0.8241 0.1105 -0.0839
C6 C 0.8853(4) 0.2347(4) -0.1232(3)
H2 H 0.9365 0.2093 -0.1522
C7 C 0.8774(4) 0.3297(4) -0.1221(3)
H3 H 0.9233 0.3675 -0.1497
C8 C 0.8003(4) 0.3694(4) -0.0793(3)
C9 C 0.7788(5) 0.4668(4) -0.0734(3)
H4 H 0.8194 0.5110 -0.0995
C10 C 0.7000(5) 0.4957(4) -0.0301(3)
H5 H 0.6882 0.5597 -0.0276
C11 C 0.6346(4) 0.4328(4) 0.0117(3)
H6 H 0.5809 0.4545 0.0409
C12 C 0.6536(4) 0.3386(4) 0.0072(2)
C13 C 0.7369(4) 0.3086(4) -0.0381(3)
C14 C 0.6090(3) 0.2516(3) 0.0376(2)
C15 C 0.5293(3) 0.1063(3) 0.0878(2)
C16 C 0.4722(3) 0.0352(3) 0.1224(2)
C17 C 0.4990(3) -0.0564(3) 0.1116(2)
C18 C 0.4558(3) -0.1432(3) 0.1403(2)
C19 C 0.3710(3) -0.1790(3) 0.1900(2)
C20 C 0.2958(3) -0.1434(3) 0.2339(2)
H7 H 0.2878 -0.0793 0.2359
C21 C 0.2310(4) -0.2053(4) 0.2760(3)
H8 H 0.1801 -0.1809 0.3057
C22 C 0.2398(4) -0.2997(4) 0.2749(3)
H9 H 0.1949 -0.3378 0.3032
C23 C 0.3167(4) -0.3401(4) 0.2311(3)
C24 C 0.3396(4) -0.4367(4) 0.2253(3)
H10 H 0.2998 -0.4816 0.2514
C25 C 0.4201(5) -0.4643(4) 0.1816(3)
H11 H 0.4334 -0.5283 0.1789
C26 C 0.4838(4) -0.4002(4) 0.1403(3)
H12 H 0.5383 -0.4212 0.1113
C27 C 0.4627(4) -0.3056(3) 0.1443(2)
C28 C 0.3796(3) -0.2772(3) 0.1896(2)
C29 C 0.5076(3) -0.2189(3) 0.1153(2)
C30 C 0.5871(3) -0.0743(3) 0.0652(2)
C31 C 0.8264(3) -0.0531(4) 0.0252(2)
H13 H 0.8130 -0.0956 0.0682
H14 H 0.8460 0.0045 0.0331
C32 C 0.9131(4) -0.1001(4) -0.0145(3)
H15 H 0.9774 -0.1003 0.0042
H16 H 0.9176 -0.0616 -0.0597
C33 C 0.9063(4) -0.1998(4) -0.0182(3)
H17 H 0.8432 -0.1996 -0.0382
H18 H 0.8998 -0.2381 0.0270
C34 C 0.9959(4) -0.2474(4) -0.0567(3)
H19 H 1.0019 -0.2077 -0.1014
H20 H 1.0583 -0.2460 -0.0364
C35 C 0.9979(5) -0.3437(5) -0.0635(4)
H21 H 0.9365 -0.3449 -0.0848
H22 H 0.9902 -0.3834 -0.0188
C36 C 1.0869(5) -0.3903(5) -0.0999(4)
H23 H 1.0926 -0.3507 -0.1446
H24 H 1.1479 -0.3858 -0.0794
C37 C 1.0972(7) -0.4856(6) -0.1075(5)
H25 H 1.0842 -0.5243 -0.0630
H26 H 1.0397 -0.4882 -0.1320
C38 C 1.1843(7) -0.5343(6) -0.1369(5)
H27 H 1.1717 -0.5977 -0.1363
H28 H 1.2430 -0.5380 -0.1125
H29 H 1.1985 -0.5009 -0.1823
C39 C 0.2986(4) 0.1021(4) 0.1469(3)
H30 H 0.2652 0.0584 0.1307
H31 H 0.3122 0.1547 0.1097
C40 C 0.2296(6) 0.1386(5) 0.1983(4)
H32 H 0.1590 0.1366 0.1896
H33 H 0.2418 0.0938 0.2404
C41 C 0.2324(8) 0.2298(5) 0.2083(4)
H34 H 0.2160 0.2749 0.1671
H35 H 0.3038 0.2330 0.2143
C42 C 0.1663(8) 0.2653(6) 0.2630(4)
H36 H 0.1087 0.2284 0.2733
H37 H 0.2068 0.2449 0.3012
C43 C 0.1229(8) 0.3569(6) 0.2635(4)
H38 H 0.0754 0.3755 0.2288
H39 H 0.1786 0.3955 0.2487
C44 C 0.0658(6) 0.3884(5) 0.3228(4)
H40 H 0.0091 0.3506 0.3358
H41 H 0.1127 0.3658 0.3576
C45 C 0.0235(10) 0.4773(6) 0.3290(6)
H42 H -0.0272 0.4993 0.2964
H43 H 0.0786 0.5167 0.3142
C46 C -0.0252(7) 0.5013(5) 0.3880(4)
H44 H -0.0497 0.5687 0.3798
H45 H 0.0235 0.4853 0.4212
H46 H -0.0830 0.4665 0.4037
S3 S -0.00600(8) 0.25591(8) 0.57165(6)
S4 S 0.11467(8) -0.00824(8) 0.36938(6)
O3 O 0.23281(19) -0.01021(17) 0.48632(13)
O4 O -0.1185(2) 0.26658(17) 0.44863(14)
C47 C 0.1433(3) 0.0553(3) 0.4808(2)
C48 C 0.1102(3) 0.1137(3) 0.52617(19)
C49 C 0.1507(3) 0.1191(3) 0.5860(2)
C50 C 0.2336(3) 0.0681(3) 0.6283(2)
C51 C 0.3075(3) -0.0099(3) 0.6305(2)
H47 H 0.3143 -0.0462 0.5983
C52 C 0.3747(3) -0.0353(3) 0.6830(3)
H48 H 0.4258 -0.0882 0.6839
C53 C 0.3669(4) 0.0151(4) 0.7320(3)
H49 H 0.4129 -0.0033 0.7650
C54 C 0.2894(4) 0.0949(3) 0.7324(2)
C55 C 0.2671(4) 0.1523(4) 0.7803(2)
H50 H 0.3085 0.1407 0.8155
C56 C 0.1847(4) 0.2252(4) 0.7753(2)
H51 H 0.1714 0.2615 0.8078
C57 C 0.1198(4) 0.2470(3) 0.7231(2)
H52 H 0.0641 0.2963 0.7212
C58 C 0.1407(3) 0.1939(3) 0.6750(2)
C59 C 0.2247(3) 0.1182(3) 0.6808(2)
C60 C 0.0963(3) 0.1906(3) 0.6145(2)
C61 C 0.0217(3) 0.1840(3) 0.5130(2)
C62 C -0.0356(3) 0.1945(3) 0.4591(2)
C63 C -0.0044(3) 0.1334(3) 0.4151(2)
C64 C -0.0450(3) 0.1258(3) 0.3555(2)
C65 C -0.1284(3) 0.1751(3) 0.3130(2)
C66 C -0.2044(3) 0.2524(3) 0.3097(2)
H53 H -0.2121 0.2898 0.3413
C67 C -0.2716(4) 0.2754(3) 0.2578(3)
H54 H -0.3246 0.3269 0.2567
C68 C -0.2608(4) 0.2242(4) 0.2098(3)
H55 H -0.3063 0.2414 0.1766
C69 C -0.1820(4) 0.1454(4) 0.2092(2)
C70 C -0.1602(4) 0.0843(4) 0.1637(3)
H56 H -0.2017 0.0941 0.1288
C71 C -0.0795(4) 0.0111(4) 0.1700(2)
H57 H -0.0670 -0.0272 0.1387
C72 C -0.0147(3) -0.0085(3) 0.2219(2)
H58 H 0.0401 -0.0586 0.2249
C73 C -0.0334(3) 0.0478(3) 0.2684(2)
C74 C -0.1168(3) 0.1238(3) 0.2610(2)
C75 C 0.0102(3) 0.0536(3) 0.3280(2)
C76 C 0.0854(3) 0.0631(3) 0.4287(2)
C77 C 0.3244(3) 0.0331(3) 0.4556(2)
H59 H 0.3397 0.0751 0.4821
H60 H 0.3119 0.0708 0.4113
C78 C 0.4140(3) -0.0440(3) 0.4513(2)
H61 H 0.4169 -0.0878 0.4946
H62 H 0.4776 -0.0154 0.4418
C79 C 0.4107(3) -0.1011(3) 0.3990(2)
H63 H 0.4130 -0.0586 0.3551
H64 H 0.3455 -0.1270 0.4066
C80 C 0.5002(3) -0.1822(3) 0.4002(2)
H65 H 0.5649 -0.1557 0.3938
H66 H 0.4968 -0.2245 0.4441
C81 C 0.5027(3) -0.2405(3) 0.3485(3)
H67 H 0.4364 -0.2640 0.3531
H68 H 0.5103 -0.1990 0.3045
C82 C 0.5883(4) -0.3244(3) 0.3525(3)
H69 H 0.5804 -0.3660 0.3965
H70 H 0.6545 -0.3009 0.3482
C83 C 0.5917(5) -0.3829(4) 0.3006(3)
H71 H 0.5240 -0.4028 0.3030
H72 H 0.6042 -0.3422 0.2567
C84 C 0.6702(7) -0.4674(4) 0.3071(4)
H73 H 0.6671 -0.4999 0.2722
H74 H 0.6574 -0.5094 0.3497
H75 H 0.7379 -0.4486 0.3037
C85 C -0.2139(3) 0.2408(3) 0.4855(3)
H76 H -0.2015 0.2087 0.5312
H77 H -0.2415 0.1975 0.4653
C86 C -0.2891(4) 0.3291(4) 0.4850(3)
H78 H -0.3565 0.3115 0.5042
H79 H -0.2961 0.3627 0.4390
C87 C -0.2594(5) 0.3962(4) 0.5226(3)
H80 H -0.2459 0.3606 0.5673
H81 H -0.1949 0.4180 0.5007
C88 C -0.3374(6) 0.4808(5) 0.5280(4)
H82 H -0.3528 0.5155 0.4834
H83 H -0.4012 0.4593 0.5514
C89 C -0.3045(8) 0.5472(6) 0.5631(5)
H84 H -0.2554 0.5845 0.5335
H85 H -0.2695 0.5106 0.6017
C90 C -0.4123(9) 0.6251(9) 0.5895(8)
H86 H -0.4638 0.6464 0.5573
H87 H -0.4448 0.5993 0.6334
C91 C -0.3599(14) 0.6842(10) 0.5896(13)
H88 H -0.3367 0.7181 0.5453
H89 H -0.3021 0.6610 0.6169
C92 C -0.4639(9) 0.7453(7) 0.6272(6)
H90 H -0.4411 0.7940 0.6438
H91 H -0.4956 0.7019 0.6637
H92 H -0.5136 0.7743 0.5954
loop_
_geom_bond_atom_site_label_1
_geom_bond_atom_site_label_2
_geom_bond_site_symmetry_1
_geom_bond_site_symmetry_2
S1 C14 1_555 1_555
S2 C29 1_555 1_555
O1 C1 1_555 1_555
O2 C16 1_555 1_555
C1 C2 1_555 1_555
C2 C3 1_555 1_555
C3 C4 1_555 1_555
C4 C5 1_555 1_555
C5 H1 1_555 1_555
C6 C5 1_555 1_555
H2 C6 1_555 1_555
C7 C6 1_555 1_555
H3 C7 1_555 1_555
C8 C7 1_555 1_555
C9 C8 1_555 1_555
H4 C9 1_555 1_555
C10 C9 1_555 1_555
H5 C10 1_555 1_555
C11 C10 1_555 1_555
H6 C11 1_555 1_555
C12 C11 1_555 1_555
C13 C4 1_555 1_555
C14 C3 1_555 1_555
C15 S1 1_555 1_555
C16 C15 1_555 1_555
C17 C16 1_555 1_555
C18 C17 1_555 1_555
C19 C18 1_555 1_555
C20 C19 1_555 1_555
H7 C20 1_555 1_555
C21 C20 1_555 1_555
H8 C21 1_555 1_555
C22 C21 1_555 1_555
H9 C22 1_555 1_555
C23 C22 1_555 1_555
C24 C23 1_555 1_555
H10 C24 1_555 1_555
C25 C24 1_555 1_555
H11 C25 1_555 1_555
C26 C25 1_555 1_555
H12 C26 1_555 1_555
C27 C26 1_555 1_555
C28 C19 1_555 1_555
C29 C18 1_555 1_555
C30 S2 1_555 1_555
C31 O1 1_555 1_555
H13 C31 1_555 1_555
H14 C31 1_555 1_555
C32 C31 1_555 1_555
H15 C32 1_555 1_555
H16 C32 1_555 1_555
C33 C32 1_555 1_555
H17 C33 1_555 1_555
H18 C33 1_555 1_555
C34 C33 1_555 1_555
H19 C34 1_555 1_555
H20 C34 1_555 1_555
C35 C34 1_555 1_555
H21 C35 1_555 1_555
H22 C35 1_555 1_555
C36 C35 1_555 1_555
H23 C36 1_555 1_555
H24 C36 1_555 1_555
C37 C36 1_555 1_555
H25 C37 1_555 1_555
H26 C37 1_555 1_555
C38 C37 1_555 1_555
H27 C38 1_555 1_555
H28 C38 1_555 1_555
H29 C38 1_555 1_555
C39 O2 1_555 1_555
H30 C39 1_555 1_555
H31 C39 1_555 1_555
C40 C39 1_555 1_555
H32 C40 1_555 1_555
H33 C40 1_555 1_555
C41 C40 1_555 1_555
H34 C41 1_555 1_555
H35 C41 1_555 1_555
C42 C41 1_555 1_555
H36 C42 1_555 1_555
H37 C42 1_555 1_555
C43 C42 1_555 1_555
H38 C43 1_555 1_555
H39 C43 1_555 1_555
C44 C43 1_555 1_555
H40 C44 1_555 1_555
H41 C44 1_555 1_555
C45 C44 1_555 1_555
H42 C45 1_555 1_555
H43 C45 1_555 1_555
C46 C45 1_555 1_555
H44 C46 1_555 1_555
H45 C46 1_555 1_555
H46 C46 1_555 1_555
S3 C60 1_555 1_555
S4 C75 1_555 1_555
O3 C47 1_555 1_555
O4 C62 1_555 1_555
C47 C48 1_555 1_555
C48 C49 1_555 1_555
C49 C50 1_555 1_555
C50 C51 1_555 1_555
C51 H47 1_555 1_555
C52 C51 1_555 1_555
H48 C52 1_555 1_555
C53 C52 1_555 1_555
H49 C53 1_555 1_555
C54 C53 1_555 1_555
C55 C54 1_555 1_555
H50 C55 1_555 1_555
C56 C55 1_555 1_555
H51 C56 1_555 1_555
C57 C56 1_555 1_555
H52 C57 1_555 1_555
C58 C57 1_555 1_555
C59 C50 1_555 1_555
C60 C49 1_555 1_555
C61 S3 1_555 1_555
C62 C61 1_555 1_555
C63 C62 1_555 1_555
C64 C63 1_555 1_555
C65 C64 1_555 1_555
C66 C65 1_555 1_555
H53 C66 1_555 1_555
C67 C66 1_555 1_555
H54 C67 1_555 1_555
C68 C67 1_555 1_555
H55 C68 1_555 1_555
C69 C68 1_555 1_555
C70 C69 1_555 1_555
H56 C70 1_555 1_555
C71 C70 1_555 1_555
H57 C71 1_555 1_555
C72 C71 1_555 1_555
H58 C72 1_555 1_555
C73 C72 1_555 1_555
C74 C65 1_555 1_555
C75 C64 1_555 1_555
C76 S4 1_555 1_555
C77 O3 1_555 1_555
H59 C77 1_555 1_555
H60 C77 1_555 1_555
C78 C77 1_555 1_555
H61 C78 1_555 1_555
H62 C78 1_555 1_555
C79 C78 1_555 1_555
H63 C79 1_555 1_555
H64 C79 1_555 1_555
C80 C79 1_555 1_555
H65 C80 1_555 1_555
H66 C80 1_555 1_555
C81 C80 1_555 1_555
H67 C81 1_555 1_555
H68 C81 1_555 1_555
C82 C81 1_555 1_555
H69 C82 1_555 1_555
H70 C82 1_555 1_555
C83 C82 1_555 1_555
H71 C83 1_555 1_555
H72 C83 1_555 1_555
C84 C83 1_555 1_555
H73 C84 1_555 1_555
H74 C84 1_555 1_555
H75 C84 1_555 1_555
C85 O4 1_555 1_555
H76 C85 1_555 1_555
H77 C85 1_555 1_555
C86 C85 1_555 1_555
H78 C86 1_555 1_555
H79 C86 1_555 1_555
C87 C86 1_555 1_555
H80 C87 1_555 1_555
H81 C87 1_555 1_555
C88 C87 1_555 1_555
H82 C88 1_555 1_555
H83 C88 1_555 1_555
C89 C88 1_555 1_555
H84 C89 1_555 1_555
H85 C89 1_555 1_555
C90 C89 1_555 1_555
H86 C90 1_555 1_555
H87 C90 1_555 1_555
C91 C90 1_555 1_555
H88 C91 1_555 1_555
H89 C91 1_555 1_555
C92 C91 1_555 1_555
H90 C92 1_555 1_555
H91 C92 1_555 1_555
H92 C92 1_555 1_555
C1 C30 1_555 1_555
C2 C15 1_555 1_555
C8 C13 1_555 1_555
C12 C13 1_555 1_555
C12 C14 1_555 1_555
C17 C30 1_555 1_555
C23 C28 1_555 1_555
C27 C28 1_555 1_555
C27 C29 1_555 1_555
C47 C76 1_555 1_555
C48 C61 1_555 1_555
C54 C59 1_555 1_555
C58 C59 1_555 1_555
C58 C60 1_555 1_555
C63 C76 1_555 1_555
C69 C74 1_555 1_555
C73 C74 1_555 1_555
C73 C75 1_555 1_555

#END
