
#######################################################################
#
#                 Cambridge Crystallographic Data Centre
#                                CCDC 
#
#######################################################################
#
# If this CIF has been generated from an entry in the Cambridge 
# Structural Database, then it will include bibliographic, chemical, 
# crystal, experimental, refinement or atomic coordinate data resulting 
# from the CCDC's data processing and validation procedures.
#
#######################################################################

data_UCIXEK
_chemical_formula_moiety         'C28 H33 N3 O4 S1'
_chemical_name_systematic        
"Dimethyl 1,3-di-n-butyl-1'-phenyl-2',3'-dihydrospiro(benzimidazoline-2,3'-pyrrole)-2'-thione-4',5'-dicarboxylate"
_symmetry_cell_setting           monoclinic
_symmetry_space_group_name_H-M   'P 21/n'
_symmetry_Int_Tables_number      14
_space_group_name_Hall           '-P 2yn'
loop_
_symmetry_equiv_pos_site_id
_symmetry_equiv_pos_as_xyz
1 x,y,z
2 1/2-x,1/2+y,1/2-z
3 -x,-y,-z
4 1/2+x,1/2-y,1/2+z
_cell_length_a                   10.1747(18)
_cell_length_b                   20.817(4)
_cell_length_c                   13.993(3)
_cell_angle_alpha                90
_cell_angle_beta                 108.821(3)
_cell_angle_gamma                90
_cell_volume                     2805.34
_chemical_melting_point          122-123deg.C
_cell_formula_units_Z            4
loop_
_atom_site_label
_atom_site_type_symbol
_atom_site_fract_x
_atom_site_fract_y
_atom_site_fract_z
S1 S 0.06628(7) 1.04773(4) 0.23007(6)
N1 N 0.3380(2) 1.02198(9) 0.29057(16)
N2 N 0.1200(2) 0.89280(10) 0.28625(15)
N3 N 0.1407(2) 0.91122(10) 0.13243(15)
O1 O 0.5550(2) 0.84607(10) 0.3122(2)
O2 O 0.3437(2) 0.80301(9) 0.25922(17)
O3 O 0.6552(2) 0.98973(12) 0.41516(18)
O4 O 0.61421(19) 0.98855(10) 0.24758(17)
C1 C 0.2030(2) 1.00248(12) 0.25514(19)
C2 C 0.2052(2) 0.92738(12) 0.23849(18)
C3 C 0.3598(2) 0.91366(12) 0.27746(19)
C4 C 0.4283(2) 0.96924(12) 0.30168(19)
C5 C -0.0056(2) 0.87702(11) 0.2136(2)
C6 C 0.0061(2) 0.88887(11) 0.1185(2)
C7 C -0.1016(3) 0.87621(13) 0.0320(2)
H1 H -0.0936 0.8834 -0.0315
C8 C -0.2246(3) 0.85192(15) 0.0434(3)
H2 H -0.2994 0.8429 -0.0140
C9 C -0.2371(3) 0.84126(15) 0.1354(3)
H3 H -0.3205 0.8256 0.1399
C10 C -0.1270(3) 0.85338(13) 0.2238(2)
H4 H -0.1354 0.8458 0.2871
C11 C 0.3832(2) 1.08707(11) 0.3162(2)
C12 C 0.4272(3) 1.12320(14) 0.2504(2)
H5 H 0.4284 1.1058 0.1895
C13 C 0.4697(4) 1.18576(16) 0.2754(3)
H6 H 0.4992 1.2106 0.2310
C14 C 0.4687(4) 1.21119(15) 0.3648(3)
H7 H 0.4981 1.2532 0.3815
C15 C 0.4245(4) 1.17497(17) 0.4297(3)
H8 H 0.4233 1.1926 0.4905
C16 C 0.3812(3) 1.11216(14) 0.4058(2)
H9 H 0.3513 1.0875 0.4502
C17 C 0.4314(3) 0.85160(13) 0.2845(2)
C18 C 0.4043(4) 0.73975(15) 0.2677(4)
H10 H 0.4726 0.7390 0.2338
H11 H 0.3330 0.7089 0.2373
H12 H 0.4476 0.7293 0.3377
C19 C 0.5815(3) 0.98265(13) 0.3311(2)
C20 C 0.7574(3) 1.00440(18) 0.2591(3)
H13 H 0.7682 1.0502 0.2602
H14 H 0.7816 0.9868 0.2036
H15 H 0.8172 0.9866 0.3213
C21 C 0.1377(3) 0.90108(14) 0.3922(2)
H16 H 0.0580 0.9238 0.3989
H17 H 0.2193 0.9273 0.4228
C22 C 0.1536(4) 0.83778(17) 0.4484(2)
H18 H 0.0791 0.8092 0.4119
H19 H 0.2407 0.8180 0.4501
C23 C 0.1514(6) 0.8451(2) 0.5546(3)
H20 H 0.1823 0.8053 0.5908
H21 H 0.2166 0.8785 0.5880
C24 C 0.0131(7) 0.8616(3) 0.5604(5)
H22 H 0.0201 0.8693 0.6295
H23 H -0.0498 0.8266 0.5343
H24 H -0.0208 0.8995 0.5213
C25 C 0.1831(3) 0.94316(14) 0.0546(2)
H25 H 0.2265 0.9837 0.0813
H26 H 0.1008 0.9527 -0.0020
C26 C 0.2816(4) 0.9055(2) 0.0168(3)
H27 H 0.3077 0.9317 -0.0315
H28 H 0.3652 0.8973 0.0732
C27 C 0.2297(5) 0.8455(2) -0.0299(4)
H29 H 0.1444 0.8535 -0.0848
H30 H 0.2069 0.8186 0.0192
C28 C 0.3303(6) 0.8079(3) -0.0722(4)
H31 H 0.2830 0.7714 -0.1097
H32 H 0.4089 0.7936 -0.0173
H33 H 0.3613 0.8354 -0.1157
loop_
_geom_bond_atom_site_label_1
_geom_bond_atom_site_label_2
_geom_bond_site_symmetry_1
_geom_bond_site_symmetry_2
S1 C1 1_555 1_555
N1 C1 1_555 1_555
N2 C2 1_555 1_555
N3 C2 1_555 1_555
O1 C17 1_555 1_555
O2 C17 1_555 1_555
O3 C19 1_555 1_555
O4 C19 1_555 1_555
C1 C2 1_555 1_555
C2 C3 1_555 1_555
C3 C4 1_555 1_555
C4 N1 1_555 1_555
C5 N2 1_555 1_555
C6 N3 1_555 1_555
C7 C6 1_555 1_555
H1 C7 1_555 1_555
C8 C7 1_555 1_555
H2 C8 1_555 1_555
C9 C8 1_555 1_555
H3 C9 1_555 1_555
C10 C5 1_555 1_555
H4 C10 1_555 1_555
C11 N1 1_555 1_555
C12 C11 1_555 1_555
H5 C12 1_555 1_555
C13 C12 1_555 1_555
H6 C13 1_555 1_555
C14 C13 1_555 1_555
H7 C14 1_555 1_555
C15 C14 1_555 1_555
H8 C15 1_555 1_555
C16 C11 1_555 1_555
H9 C16 1_555 1_555
C17 C3 1_555 1_555
C18 O2 1_555 1_555
H10 C18 1_555 1_555
H11 C18 1_555 1_555
H12 C18 1_555 1_555
C19 C4 1_555 1_555
C20 O4 1_555 1_555
H13 C20 1_555 1_555
H14 C20 1_555 1_555
H15 C20 1_555 1_555
C21 N2 1_555 1_555
H16 C21 1_555 1_555
H17 C21 1_555 1_555
C22 C21 1_555 1_555
H18 C22 1_555 1_555
H19 C22 1_555 1_555
C23 C22 1_555 1_555
H20 C23 1_555 1_555
H21 C23 1_555 1_555
C24 C23 1_555 1_555
H22 C24 1_555 1_555
H23 C24 1_555 1_555
H24 C24 1_555 1_555
C25 N3 1_555 1_555
H25 C25 1_555 1_555
H26 C25 1_555 1_555
C26 C25 1_555 1_555
H27 C26 1_555 1_555
H28 C26 1_555 1_555
C27 C26 1_555 1_555
H29 C27 1_555 1_555
H30 C27 1_555 1_555
C28 C27 1_555 1_555
H31 C28 1_555 1_555
H32 C28 1_555 1_555
H33 C28 1_555 1_555
C5 C6 1_555 1_555
C9 C10 1_555 1_555
C15 C16 1_555 1_555

#END
