
#######################################################################
#
#                 Cambridge Crystallographic Data Centre
#                                CCDC 
#
#######################################################################
#
# If this CIF has been generated from an entry in the Cambridge 
# Structural Database, then it will include bibliographic, chemical, 
# crystal, experimental, refinement or atomic coordinate data resulting 
# from the CCDC's data processing and validation procedures.
#
#######################################################################

data_UCOCOH
_chemical_formula_moiety         'C26 H22 Cl1 N1 O4 S1'
_chemical_name_systematic        
'7-(4-chlorophenyl)-4-((4-methylphenyl)sulfonyl)-5-phenyl-3a,4,7,7a-tetrahydrofuro[3,2-b]pyridin-2(3H)-one unknown solvate'
_symmetry_cell_setting           monoclinic
_symmetry_space_group_name_H-M   'C 2/c'
_symmetry_Int_Tables_number      15
_space_group_name_Hall           '-C 2yn'
loop_
_symmetry_equiv_pos_site_id
_symmetry_equiv_pos_as_xyz
1 x,y,z
2 -x,y,1/2-z
3 1/2+x,1/2+y,z
4 1/2-x,1/2+y,1/2-z
5 -x,-y,-z
6 x,-y,1/2+z
7 1/2-x,1/2-y,-z
8 1/2+x,1/2-y,1/2+z
_cell_length_a                   22.1581(10)
_cell_length_b                   25.2375(12)
_cell_length_c                   10.6695(5)
_cell_angle_alpha                90
_cell_angle_beta                 108.244(3)
_cell_angle_gamma                90
_cell_volume                     5666.62
_exptl_crystal_colour            colorless
_exptl_crystal_description       bar
_cell_formula_units_Z            8
loop_
_atom_site_label
_atom_site_type_symbol
_atom_site_fract_x
_atom_site_fract_y
_atom_site_fract_z
S1 S 0.13212(7) 0.35405(5) 0.93554(15)
O1 O 0.1530(2) 0.46679(16) 0.5778(5)
N1 N 0.1201(2) 0.37248(18) 0.7807(5)
C1 C 0.3787(3) 0.4466(2) 0.5739(7)
Cl1 Cl 0.44120(8) 0.46151(8) 0.5130(2)
O2 O 0.0620(3) 0.4763(2) 0.4195(5)
C2 C 0.3382(3) 0.4336(3) 0.7546(6)
H1 H 0.3444 0.4333 0.8449
O3 O 0.1213(2) 0.29929(17) 0.9345(5)
C3 C 0.2800(2) 0.4225(2) 0.6692(5)
O4 O 0.0957(2) 0.3899(2) 0.9873(5)
C4 C 0.2694(3) 0.4242(2) 0.5351(6)
H2 H 0.2289 0.4181 0.4772
C5 C 0.3201(3) 0.4353(2) 0.4855(6)
H3 H 0.3140 0.4350 0.3952
C6 C 0.2266(2) 0.4064(2) 0.7254(5)
H4 H 0.248(3) 0.403(2) 0.816(7)
C7 C 0.1780(3) 0.4496(2) 0.7147(6)
H5 H 0.1979 0.4796 0.7707
C8 C 0.1192(2) 0.4299(2) 0.7532(5)
H6 H 0.1168 0.4496 0.8307
C9 C 0.1441(2) 0.3382(2) 0.6993(5)
C10 C 0.1948(3) 0.3558(2) 0.6672(6)
H7 H 0.2099 0.3366 0.6089
C11 C 0.0626(3) 0.4448(3) 0.6340(7)
H8 H 0.0356 0.4143 0.6024
H9 H 0.0375 0.4724 0.6573
C12 C 0.0898(3) 0.4642(2) 0.5303(6)
C13 C 0.1093(3) 0.2881(2) 0.6466(6)
C14 C 0.0453(3) 0.2844(3) 0.6189(8)
H10 H 0.0226 0.3136 0.6327
C15 C 0.0129(4) 0.2377(3) 0.5704(9)
H11 H -0.0305 0.2348 0.5580
C16 C 0.0456(5) 0.1961(3) 0.5412(10)
H12 H 0.0241 0.1654 0.5042
C17 C 0.1105(5) 0.1995(3) 0.5666(12)
H13 H 0.144(6) 0.171(4) 0.556(11)
C18 C 0.1433(4) 0.2453(2) 0.6248(8)
H14 H 0.1874 0.2467 0.6484
C19 C 0.2129(3) 0.3649(2) 1.0154(5)
C20 C 0.2348(3) 0.4148(2) 1.0697(6)
H15 H 0.196(3) 0.442(2) 1.061(7)
C21 C 0.2987(3) 0.4235(2) 1.1144(5)
H16 H 0.3133 0.4569 1.1464
C22 C 0.3430(3) 0.3844(3) 1.1141(6)
C23 C 0.3195(3) 0.3350(3) 1.0617(7)
H17 H 0.3478 0.3083 1.0580
C24 C 0.2561(3) 0.3253(2) 1.0162(7)
H18 H 0.2416 0.2917 0.9851
C25 C 0.4141(4) 0.3958(4) 1.1613(10)
H19 H 0.4367 0.3655 1.1445
H20 H 0.4276 0.4031 1.2542
H21 H 0.4228 0.4259 1.1148
C26 C 0.3896(3) 0.4457(3) 0.7079(6)
H22 H 0.4297 0.4529 0.7663
loop_
_geom_bond_atom_site_label_1
_geom_bond_atom_site_label_2
_geom_bond_site_symmetry_1
_geom_bond_site_symmetry_2
S1 N1 1_555 1_555
O1 C7 1_555 1_555
N1 C8 1_555 1_555
C1 Cl1 1_555 1_555
O2 C12 1_555 1_555
C2 H1 1_555 1_555
O3 S1 1_555 1_555
C3 C2 1_555 1_555
O4 S1 1_555 1_555
C4 C3 1_555 1_555
H2 C4 1_555 1_555
C5 C1 1_555 1_555
H3 C5 1_555 1_555
C6 C3 1_555 1_555
H4 C6 1_555 1_555
C7 C6 1_555 1_555
H5 C7 1_555 1_555
C8 C7 1_555 1_555
H6 C8 1_555 1_555
C9 N1 1_555 1_555
C10 C6 1_555 1_555
H7 C10 1_555 1_555
C11 C8 1_555 1_555
H8 C11 1_555 1_555
H9 C11 1_555 1_555
C12 O1 1_555 1_555
C13 C9 1_555 1_555
C14 C13 1_555 1_555
H10 C14 1_555 1_555
C15 C14 1_555 1_555
H11 C15 1_555 1_555
C16 C15 1_555 1_555
H12 C16 1_555 1_555
C17 C16 1_555 1_555
H13 C17 1_555 1_555
C18 C13 1_555 1_555
H14 C18 1_555 1_555
C19 S1 1_555 1_555
C20 C19 1_555 1_555
H15 C20 1_555 1_555
C21 C20 1_555 1_555
H16 C21 1_555 1_555
C22 C21 1_555 1_555
C23 C22 1_555 1_555
H17 C23 1_555 1_555
C24 C19 1_555 1_555
H18 C24 1_555 1_555
C25 C22 1_555 1_555
H19 C25 1_555 1_555
H20 C25 1_555 1_555
H21 C25 1_555 1_555
C26 C1 1_555 1_555
H22 C26 1_555 1_555
C2 C26 1_555 1_555
C4 C5 1_555 1_555
C9 C10 1_555 1_555
C11 C12 1_555 1_555
C17 C18 1_555 1_555
C23 C24 1_555 1_555

#END
