
#######################################################################
#
#                 Cambridge Crystallographic Data Centre
#                                CCDC 
#
#######################################################################
#
# If this CIF has been generated from an entry in the Cambridge 
# Structural Database, then it will include bibliographic, chemical, 
# crystal, experimental, refinement or atomic coordinate data resulting 
# from the CCDC's data processing and validation procedures.
#
#######################################################################

data_UCOHIG
_chemical_formula_moiety         'C66 H42 B2 N8,C4 H10 O1'
_chemical_name_systematic        
"6,6'-[diazenediyl]bis(3,9,9c-triphenyl-8b,9b,9d-triaza-9c-boratricyclopenta[cd,gh,kl]phenalen-8b-ium-9c-uide) diethyl ether solvate"
_symmetry_cell_setting           triclinic
_symmetry_space_group_name_H-M   'P -1'
_symmetry_Int_Tables_number      2
_space_group_name_Hall           '-P 1'
loop_
_symmetry_equiv_pos_site_id
_symmetry_equiv_pos_as_xyz
1 x,y,z
2 -x,-y,-z
_cell_length_a                   10.042(3)
_cell_length_b                   11.702(3)
_cell_length_c                   12.797(4)
_cell_angle_alpha                67.171(14)
_cell_angle_beta                 89.13(3)
_cell_angle_gamma                81.91(3)
_cell_volume                     1370.92
_exptl_crystal_colour            red
_exptl_crystal_description       prism
_cell_formula_units_Z            1
loop_
_atom_site_label
_atom_site_type_symbol
_atom_site_fract_x
_atom_site_fract_y
_atom_site_fract_z
C1 C 0.7512(4) 0.2961(4) 0.1093(3)
C2 C 0.6819(5) 0.3695(4) 0.0018(3)
H1 H 0.6805 0.4568 -0.0397
C3 C 0.6180(5) 0.2915(4) -0.0306(3)
H2 H 0.5640 0.3154 -0.0981
C4 C 0.6471(4) 0.1679(4) 0.0554(3)
C5 C 0.5927(4) 0.0555(3) 0.0807(3)
C6 C 0.6004(4) -0.0340(3) 0.1958(3)
C7 C 0.5245(4) -0.1294(3) 0.2629(3)
H3 H 0.4604 -0.1639 0.2345
C8 C 0.5593(4) -0.1624(4) 0.3741(3)
H4 H 0.5245 -0.2246 0.4365
C9 C 0.6575(4) -0.0876(3) 0.3814(3)
C10 C 0.7128(4) -0.0617(3) 0.4702(3)
C11 C 0.7754(4) 0.0484(3) 0.4390(3)
C12 C 0.7947(4) 0.1291(4) 0.4963(3)
H5 H 0.7904 0.1084 0.5756
C13 C 0.8202(4) 0.2401(4) 0.4175(4)
H6 H 0.8371 0.3104 0.4322
C14 C 0.8174(4) 0.2333(4) 0.3086(3)
C15 C 0.8037(4) 0.3261(4) 0.1956(3)
C16 C 0.6962(4) -0.1336(3) 0.5915(3)
C17 C 0.5745(4) -0.1743(4) 0.6320(3)
H7 H 0.5000 -0.1570 0.5806
C18 C 0.5620(6) -0.2393(4) 0.7460(4)
H8 H 0.4800 -0.2697 0.7729
C19 C 0.6688(8) -0.2608(5) 0.8220(4)
H9 H 0.6597 -0.3047 0.9011
C20 C 0.7870(6) -0.2184(6) 0.7824(5)
H10 H 0.8598 -0.2319 0.8345
C21 C 0.8018(5) -0.1570(5) 0.6696(4)
H11 H 0.8854 -0.1297 0.6435
C22 C 0.8300(6) 0.4593(4) 0.1674(6)
C23 C 0.7248(5) 0.5584(5) 0.1280(6)
H12 H 0.6377 0.5436 0.1133
C24 C 0.7471(6) 0.6790(4) 0.1101(5)
H13 H 0.6752 0.7468 0.0831
C25 C 0.8745(6) 0.7006(4) 0.1316(6)
H14 H 0.8898 0.7831 0.1193
C26 C 0.9797(5) 0.6015(5) 0.1710(7)
H15 H 1.0668 0.6162 0.1857
C27 C 0.9574(5) 0.4808(4) 0.1889(7)
H16 H 1.0293 0.4131 0.2159
N1 N 0.7320(3) 0.1755(3) 0.1331(2)
N2 N 0.6816(3) -0.0171(3) 0.2717(2)
N3 N 0.7984(3) 0.1139(3) 0.3285(2)
B1 B 0.7920(5) 0.0633(4) 0.2356(4)
N4 N 0.5180(3) 0.0525(3) -0.0102(2)
C28 C 0.9324(7) -0.0074(9) 0.2057(7)
C29 C 0.9924(10) -0.1177(10) 0.2913(5)
H17 H 0.9532 -0.1481 0.3632
C30 C 1.1099(11) -0.1834(8) 0.2717(6)
H18 H 1.1510 -0.2588 0.3301
C31 C 1.1673(8) -0.1389(7) 0.1665(7)
H19 H 1.2476 -0.1839 0.1531
C32 C 1.1072(8) -0.0287(6) 0.0809(7)
H20 H 1.1464 0.0017 0.0090
C33 C 0.9897(7) 0.0371(6) 0.1005(7)
H21 H 0.9487 0.1124 0.0421
C1A C 0.2488(4) -0.2961(4) -0.1093(3)
C2A C 0.3181(5) -0.3695(4) -0.0018(3)
H1A H 0.3195 -0.4568 0.0397
C3A C 0.3820(5) -0.2915(4) 0.0306(3)
H2A H 0.4360 -0.3154 0.0981
C4A C 0.3529(4) -0.1679(4) -0.0554(3)
C5A C 0.4073(4) -0.0555(3) -0.0807(3)
C6A C 0.3996(4) 0.0340(3) -0.1958(3)
C7A C 0.4755(4) 0.1294(3) -0.2629(3)
H3A H 0.5396 0.1639 -0.2345
C8A C 0.4407(4) 0.1624(4) -0.3741(3)
H4A H 0.4755 0.2246 -0.4365
C9A C 0.3425(4) 0.0876(3) -0.3814(3)
C10A C 0.2872(4) 0.0617(3) -0.4702(3)
C11A C 0.2246(4) -0.0484(3) -0.4390(3)
C12A C 0.2053(4) -0.1291(4) -0.4963(3)
H5A H 0.2096 -0.1084 -0.5756
C13A C 0.1798(4) -0.2401(4) -0.4175(4)
H6A H 0.1629 -0.3104 -0.4322
C14A C 0.1826(4) -0.2333(4) -0.3086(3)
C15A C 0.1963(4) -0.3261(4) -0.1956(3)
C16A C 0.3038(4) 0.1336(3) -0.5915(3)
C17A C 0.4255(4) 0.1743(4) -0.6320(3)
H7A H 0.5000 0.1570 -0.5806
C18A C 0.4380(6) 0.2393(4) -0.7460(4)
H8A H 0.5200 0.2697 -0.7729
C19A C 0.3312(8) 0.2608(5) -0.8220(4)
H9A H 0.3403 0.3047 -0.9011
C20A C 0.2130(6) 0.2184(6) -0.7824(5)
H10A H 0.1402 0.2319 -0.8345
C21A C 0.1982(5) 0.1570(5) -0.6696(4)
H11A H 0.1146 0.1297 -0.6435
C22A C 0.1700(6) -0.4593(4) -0.1674(6)
C23A C 0.2752(5) -0.5584(5) -0.1280(6)
H12A H 0.3623 -0.5436 -0.1133
C24A C 0.2529(6) -0.6790(4) -0.1101(5)
H13A H 0.3248 -0.7468 -0.0831
C25A C 0.1255(6) -0.7006(4) -0.1316(6)
H14A H 0.1102 -0.7831 -0.1193
C26A C 0.0203(5) -0.6015(5) -0.1710(7)
H15A H -0.0668 -0.6162 -0.1857
C27A C 0.0426(5) -0.4808(4) -0.1889(7)
H16A H -0.0293 -0.4131 -0.2159
N1A N 0.2680(3) -0.1755(3) -0.1331(2)
N2A N 0.3184(3) 0.0171(3) -0.2717(2)
N3A N 0.2016(3) -0.1139(3) -0.3285(2)
B1A B 0.2080(5) -0.0633(4) -0.2356(4)
N4A N 0.4820(3) -0.0525(3) 0.0102(2)
C28A C 0.0676(7) 0.0074(9) -0.2057(7)
C29A C 0.0076(10) 0.1177(10) -0.2913(5)
H17A H 0.0468 0.1481 -0.3632
C30A C -0.1099(11) 0.1834(8) -0.2717(6)
H18A H -0.1510 0.2588 -0.3301
C31A C -0.1673(8) 0.1389(7) -0.1665(7)
H19A H -0.2476 0.1839 -0.1531
C32A C -0.1072(8) 0.0287(6) -0.0809(7)
H20A H -0.1464 -0.0017 -0.0090
C33A C 0.0103(7) -0.0371(6) -0.1005(7)
H21A H 0.0513 -0.1124 -0.0421
C34? C 0.8210(8) 0.4530(5) 0.1782(6)
C35? C 0.7473(8) 0.5227(7) 0.2318(6)
H22? H 0.6836 0.4863 0.2858
C36? C 0.7670(8) 0.6457(6) 0.2065(7)
H23? H 0.7167 0.6934 0.2431
C37? C 0.8602(9) 0.6990(5) 0.1276(7)
H24? H 0.8736 0.7831 0.1103
C38? C 0.9338(7) 0.6292(6) 0.0740(6)
H25? H 0.9975 0.6657 0.0201
C39? C 0.9142(7) 0.5062(6) 0.0993(6)
H26? H 0.9645 0.4586 0.0627
C40? C 0.9349(8) -0.0138(11) 0.2287(8)
C41? C 0.9607(13) -0.1431(11) 0.2868(9)
H27? H 0.8957 -0.1861 0.3353
C42? C 1.0816(14) -0.2095(7) 0.2740(11)
H28? H 1.0992 -0.2979 0.3137
C43? C 1.1767(10) -0.1466(10) 0.2030(10)
H29? H 1.2594 -0.1919 0.1942
C44? C 1.1510(8) -0.0173(10) 0.1449(10)
H30? H 1.2160 0.0258 0.0964
C45? C 1.0301(9) 0.0491(8) 0.1578(9)
H31? H 1.0124 0.1375 0.1181
H32? H -0.0551 0.5655 0.5179
H33? H -0.0421 0.4915 0.4353
H34? H 0.0071 0.4202 0.5659
C46? C 0.0000 0.5000 0.5000
C47? C 0.1354(14) 0.5342(11) 0.4712(12)
H35? H 0.1238 0.6170 0.4070
H36? H 0.1726 0.5463 0.5368
C48? C 0.337(2) 0.503(2) 0.3867(15)
H37? H 0.3079 0.5904 0.3322
H38? H 0.3660 0.4527 0.3417
C49? C 0.455(2) 0.5042(17) 0.4513(19)
H39? H 0.4424 0.5800 0.4679
H40? H 0.5348 0.5032 0.4070
H41? H 0.4655 0.4300 0.5227
O1? O 0.2289(11) 0.4601(14) 0.4436(13)
loop_
_geom_bond_atom_site_label_1
_geom_bond_atom_site_label_2
_geom_bond_site_symmetry_1
_geom_bond_site_symmetry_2
C1 C2 1_555 1_555
C2 H1 1_555 1_555
C3 C2 1_555 1_555
H2 C3 1_555 1_555
C4 C3 1_555 1_555
C5 C4 1_555 1_555
C6 C5 1_555 1_555
C7 C6 1_555 1_555
H3 C7 1_555 1_555
C8 C7 1_555 1_555
H4 C8 1_555 1_555
C9 C8 1_555 1_555
C10 C9 1_555 1_555
C11 C10 1_555 1_555
C12 C11 1_555 1_555
H5 C12 1_555 1_555
C13 C12 1_555 1_555
H6 C13 1_555 1_555
C14 C13 1_555 1_555
C15 C1 1_555 1_555
C16 C10 1_555 1_555
C17 C16 1_555 1_555
H7 C17 1_555 1_555
C18 C17 1_555 1_555
H8 C18 1_555 1_555
C19 C18 1_555 1_555
H9 C19 1_555 1_555
C20 C19 1_555 1_555
H10 C20 1_555 1_555
C21 C16 1_555 1_555
H11 C21 1_555 1_555
C22 C15 1_555 1_555
C23 C22 1_555 1_555
H12 C23 1_555 1_555
C24 C23 1_555 1_555
H13 C24 1_555 1_555
C25 C24 1_555 1_555
H14 C25 1_555 1_555
C26 C25 1_555 1_555
H15 C26 1_555 1_555
C27 C22 1_555 1_555
H16 C27 1_555 1_555
N1 C1 1_555 1_555
N2 C6 1_555 1_555
N3 C11 1_555 1_555
B1 N1 1_555 1_555
N4 C5 1_555 1_555
C28 B1 1_555 1_555
C29 C28 1_555 1_555
H17 C29 1_555 1_555
C30 C29 1_555 1_555
H18 C30 1_555 1_555
C31 C30 1_555 1_555
H19 C31 1_555 1_555
C32 C31 1_555 1_555
H20 C32 1_555 1_555
C33 C28 1_555 1_555
H21 C33 1_555 1_555
C1A C2A 1_555 1_555
C2A H1A 1_555 1_555
C3A C2A 1_555 1_555
H2A C3A 1_555 1_555
C4A C3A 1_555 1_555
C5A C4A 1_555 1_555
C6A C5A 1_555 1_555
C7A C6A 1_555 1_555
H3A C7A 1_555 1_555
C8A C7A 1_555 1_555
H4A C8A 1_555 1_555
C9A C8A 1_555 1_555
C10A C9A 1_555 1_555
C11A C10A 1_555 1_555
C12A C11A 1_555 1_555
H5A C12A 1_555 1_555
C13A C12A 1_555 1_555
H6A C13A 1_555 1_555
C14A C13A 1_555 1_555
C15A C1A 1_555 1_555
C16A C10A 1_555 1_555
C17A C16A 1_555 1_555
H7A C17A 1_555 1_555
C18A C17A 1_555 1_555
H8A C18A 1_555 1_555
C19A C18A 1_555 1_555
H9A C19A 1_555 1_555
C20A C19A 1_555 1_555
H10A C20A 1_555 1_555
C21A C16A 1_555 1_555
H11A C21A 1_555 1_555
C22A C15A 1_555 1_555
C23A C22A 1_555 1_555
H12A C23A 1_555 1_555
C24A C23A 1_555 1_555
H13A C24A 1_555 1_555
C25A C24A 1_555 1_555
H14A C25A 1_555 1_555
C26A C25A 1_555 1_555
H15A C26A 1_555 1_555
C27A C22A 1_555 1_555
H16A C27A 1_555 1_555
N1A C1A 1_555 1_555
N2A C6A 1_555 1_555
N3A C11A 1_555 1_555
B1A N1A 1_555 1_555
N4A N4 1_555 1_555
C28A B1A 1_555 1_555
C29A C28A 1_555 1_555
H17A C29A 1_555 1_555
C30A C29A 1_555 1_555
H18A C30A 1_555 1_555
C31A C30A 1_555 1_555
H19A C31A 1_555 1_555
C32A C31A 1_555 1_555
H20A C32A 1_555 1_555
C33A C28A 1_555 1_555
H21A C33A 1_555 1_555
C4 N1 1_555 1_555
C9 N2 1_555 1_555
C14 C15 1_555 1_555
C14 N3 1_555 1_555
C20 C21 1_555 1_555
C26 C27 1_555 1_555
N2 B1 1_555 1_555
N3 B1 1_555 1_555
C32 C33 1_555 1_555
C4A N1A 1_555 1_555
C5A N4A 1_555 1_555
C9A N2A 1_555 1_555
C14A C15A 1_555 1_555
C14A N3A 1_555 1_555
C20A C21A 1_555 1_555
C26A C27A 1_555 1_555
N2A B1A 1_555 1_555
N3A B1A 1_555 1_555
C32A C33A 1_555 1_555

#END
