
#######################################################################
#
#                 Cambridge Crystallographic Data Centre
#                                CCDC 
#
#######################################################################
#
# If this CIF has been generated from an entry in the Cambridge 
# Structural Database, then it will include bibliographic, chemical, 
# crystal, experimental, refinement or atomic coordinate data resulting 
# from the CCDC's data processing and validation procedures.
#
#######################################################################

data_UCOHEC
_chemical_formula_moiety         'C28 H21 B1 N4 O1,C1 H4 O1'
_chemical_name_systematic        
'(7,12-diphenyl-16,17,18-triazatetracyclo[11.2.1.1^3,6^.1^8,11^]octadeca-1,3,5,7,9,11,13(16),14-octaen-2-aminato)-(methanolato)-boron methanol solvate'
_symmetry_cell_setting           triclinic
_symmetry_space_group_name_H-M   'P -1'
_symmetry_Int_Tables_number      2
_space_group_name_Hall           '-P 1'
loop_
_symmetry_equiv_pos_site_id
_symmetry_equiv_pos_as_xyz
1 x,y,z
2 -x,-y,-z
_cell_length_a                   7.8983(3)
_cell_length_b                   12.549
_cell_length_c                   13.6404(11)
_cell_angle_alpha                108.00(3)
_cell_angle_beta                 102.59(3)
_cell_angle_gamma                105.43(4)
_cell_volume                     1171.13
_exptl_crystal_colour            orange
_exptl_crystal_description       prism
_cell_formula_units_Z            2
loop_
_atom_site_label
_atom_site_type_symbol
_atom_site_fract_x
_atom_site_fract_y
_atom_site_fract_z
O1 O 0.22071(11) 0.01473(7) 0.21836(6)
N1 N 0.54986(13) 0.11666(8) 0.23588(7)
N2 N 0.81499(14) 0.03791(9) 0.43928(8)
H1 H 0.8277 0.0421 0.5062
H2 H 0.8838 0.0085 0.4040
N3 N 0.44462(13) 0.15678(8) 0.39129(8)
N4 N 0.35554(13) 0.23270(9) 0.25584(8)
C1 C 0.27451(16) 0.50270(11) 0.52007(10)
H3 H 0.3422 0.5348 0.4797
C2 C 0.68625(15) 0.08534(10) 0.28829(9)
C3 C 0.57210(16) 0.27422(11) 0.04260(10)
C4 C 0.29163(16) 0.30155(10) 0.42414(9)
C5 C 0.60175(16) 0.15903(10) 0.16169(9)
C6 C 0.38681(15) 0.23137(10) 0.46135(9)
C7 C 0.26288(17) 0.38933(11) 0.27212(10)
H4 H 0.2098 0.4483 0.2956
C8 C 0.22952(16) 0.38121(10) 0.50199(9)
C9 C 0.12552(17) 0.53210(11) 0.65690(10)
H5 H 0.0919 0.5836 0.7103
C10 C 0.63973(19) 0.39679(12) 0.06353(10)
H6 H 0.6409 0.4536 0.1289
C11 C 0.12988(17) 0.33660(11) 0.56258(10)
H7 H 0.0969 0.2541 0.5510
C12 C 0.28965(16) 0.30678(11) 0.32228(10)
C13 C 0.47708(16) 0.23959(10) 0.56750(9)
H8 H 0.4604 0.2824 0.6333
C14 C 0.77323(16) 0.14322(10) 0.15992(9)
H9 H 0.8403 0.1603 0.1133
C15 C 0.69013(15) 0.07655(10) 0.39081(9)
C16 C 0.22135(17) 0.57695(11) 0.59637(10)
H10 H 0.2511 0.6591 0.6070
C17 C 0.59290(16) 0.17448(10) 0.55799(9)
H11 H 0.6700 0.1647 0.6161
C18 C 0.39641(17) 0.27232(11) 0.17753(9)
C19 C 0.51200(16) 0.23026(10) 0.12318(9)
C20 C 0.57653(15) 0.12472(10) 0.44629(9)
C21 C 0.82490(16) 0.09886(10) 0.23762(9)
H12 H 0.9342 0.0805 0.2543
C22 C 0.07849(17) 0.41156(12) 0.63953(10)
H13 H 0.0110 0.3802 0.6803
C23 C 0.7051(2) 0.43607(13) -0.01036(12)
H14 H 0.7508 0.5195 0.0047
C24 C 0.32641(18) 0.36876(12) 0.18532(10)
H15 H 0.3249 0.4107 0.1381
C25 C 0.7042(2) 0.35418(13) -0.10624(11)
H16 H 0.7494 0.3815 -0.1566
C26 C 0.12781(18) -0.01952(12) 0.10560(10)
H17 H 0.0616 0.0345 0.0966
H18 H 0.0388 -0.1021 0.0753
H19 H 0.2191 -0.0146 0.0671
C27 C 0.57153(18) 0.19288(12) -0.05445(10)
H20 H 0.5256 0.1093 -0.0702
C28 C 0.6372(2) 0.23263(13) -0.12817(11)
H21 H 0.6361 0.1763 -0.1937
B1 B 0.38455(18) 0.12507(12) 0.27103(10)
O2 O 0.02942(12) -0.08890(8) 0.32395(7)
H22 H 0.0989 -0.0507 0.2980
C29 C -0.1153(2) -0.19005(13) 0.23744(12)
H23 H -0.1982 -0.2335 0.2676
H24 H -0.0613 -0.2434 0.1970
H25 H -0.1862 -0.1629 0.1881
loop_
_geom_bond_atom_site_label_1
_geom_bond_atom_site_label_2
_geom_bond_site_symmetry_1
_geom_bond_site_symmetry_2
O1 C26 1_555 1_555
N1 C2 1_555 1_555
N2 H1 1_555 1_555
H2 N2 1_555 1_555
N3 C6 1_555 1_555
N4 C12 1_555 1_555
C1 H3 1_555 1_555
C2 C15 1_555 1_555
C3 C10 1_555 1_555
C4 C6 1_555 1_555
C5 N1 1_555 1_555
C6 C13 1_555 1_555
C7 H4 1_555 1_555
C8 C1 1_555 1_555
C9 H5 1_555 1_555
C10 H6 1_555 1_555
C11 C8 1_555 1_555
H7 C11 1_555 1_555
C12 C4 1_555 1_555
C13 H8 1_555 1_555
C14 C5 1_555 1_555
H9 C14 1_555 1_555
C15 N2 1_555 1_555
C16 C1 1_555 1_555
H10 C16 1_555 1_555
C17 C13 1_555 1_555
H11 C17 1_555 1_555
C18 N4 1_555 1_555
C19 C3 1_555 1_555
C20 N3 1_555 1_555
C21 C2 1_555 1_555
H12 C21 1_555 1_555
C22 C9 1_555 1_555
H13 C22 1_555 1_555
C23 C10 1_555 1_555
H14 C23 1_555 1_555
C24 C7 1_555 1_555
H15 C24 1_555 1_555
C25 C23 1_555 1_555
H16 C25 1_555 1_555
C26 H17 1_555 1_555
H18 C26 1_555 1_555
H19 C26 1_555 1_555
C27 C3 1_555 1_555
H20 C27 1_555 1_555
C28 C25 1_555 1_555
H21 C28 1_555 1_555
B1 O1 1_555 1_555
O2 H22 1_555 1_555
C29 O2 1_555 1_555
H23 C29 1_555 1_555
H24 C29 1_555 1_555
H25 C29 1_555 1_555
N1 B1 1_555 1_555
N3 B1 1_555 1_555
N4 B1 1_555 1_555
C4 C8 1_555 1_555
C5 C19 1_555 1_555
C7 C12 1_555 1_555
C9 C16 1_555 1_555
C11 C22 1_555 1_555
C14 C21 1_555 1_555
C15 C20 1_555 1_555
C17 C20 1_555 1_555
C18 C19 1_555 1_555
C18 C24 1_555 1_555
C27 C28 1_555 1_555

#END
