
#######################################################################
#
#                 Cambridge Crystallographic Data Centre
#                                CCDC 
#
#######################################################################
#
# If this CIF has been generated from an entry in the Cambridge 
# Structural Database, then it will include bibliographic, chemical, 
# crystal, experimental, refinement or atomic coordinate data resulting 
# from the CCDC's data processing and validation procedures.
#
#######################################################################

data_UCUPOY
_chemical_formula_moiety         'C16 H14 I1 N3 O2'
_chemical_name_systematic        
'Methyl 5-amino-1-benzyl-4-iodo-1H-benzimidazole-6-carboxylate'
_symmetry_cell_setting           monoclinic
_symmetry_space_group_name_H-M   'P 21/c'
_symmetry_Int_Tables_number      14
_space_group_name_Hall           '-P 2ybc'
loop_
_symmetry_equiv_pos_site_id
_symmetry_equiv_pos_as_xyz
1 x,y,z
2 -x,1/2+y,1/2-z
3 -x,-y,-z
4 x,1/2-y,1/2+z
_cell_length_a                   10.2926(2)
_cell_length_b                   6.8747(1)
_cell_length_c                   22.0059(4)
_cell_angle_alpha                90
_cell_angle_beta                 97.9162(8)
_cell_angle_gamma                90
_cell_volume                     1542.27
_exptl_crystal_colour            colorless
_exptl_crystal_description       needle
_chemical_melting_point          167-169deg.C
_cell_formula_units_Z            4
_exptl_crystal_recrystallization_method hexane/tetrahydrofuran
loop_
_atom_site_label
_atom_site_type_symbol
_atom_site_fract_x
_atom_site_fract_y
_atom_site_fract_z
I1 I 0.03373(3) 0.26457(4) 0.317738(12)
O1 O -0.2684(2) 0.2714(3) 0.52145(15)
O2 O -0.1180(2) 0.2448(3) 0.60370(14)
N1 N 0.3003(3) 0.2283(4) 0.42698(16)
N2 N 0.3236(2) 0.1962(4) 0.52977(13)
N3 N -0.1809(3) 0.2779(4) 0.41129(17)
C1 C 0.3821(3) 0.2029(5) 0.47825(17)
C2 C 0.0840(3) 0.2236(4) 0.54269(15)
C3 C -0.0398(3) 0.2474(3) 0.50958(16)
C4 C -0.0576(3) 0.2629(3) 0.44415(17)
C5 C 0.0539(3) 0.2564(4) 0.41331(16)
C6 C 0.1774(3) 0.2366(4) 0.44677(16)
C7 C 0.1905(3) 0.2178(4) 0.51068(15)
C8 C 0.3864(3) 0.1485(5) 0.59114(14)
C9 C 0.3888(3) 0.3165(5) 0.63624(14)
C10 C 0.4650(3) 0.4780(4) 0.62927(13)
C11 C 0.4724(3) 0.6290(5) 0.67130(16)
C12 C 0.4008(3) 0.6207(6) 0.71996(16)
C13 C 0.3239(3) 0.4603(6) 0.72638(14)
C14 C 0.3191(3) 0.3094(6) 0.68584(16)
C15 C -0.1542(3) 0.2559(4) 0.54359(19)
C16 C -0.2215(4) 0.2519(5) 0.6419(2)
H1 H -0.1907 0.2886 0.3674
H2 H -0.2569 0.2794 0.4321
H3 H 0.4723 0.1906 0.4789
H4 H 0.0951 0.2119 0.5852
H5 H 0.4758 0.1075 0.5890
H6 H 0.3405 0.0396 0.6065
H7 H 0.5118 0.4855 0.5961
H8 H 0.5255 0.7359 0.6668
H9 H 0.4046 0.7224 0.7480
H10 H 0.2746 0.4547 0.7587
H11 H 0.2685 0.2005 0.6916
H12 H -0.1840 0.2714 0.6839
H13 H -0.2693 0.1316 0.6383
H14 H -0.2799 0.3574 0.6289
loop_
_geom_bond_atom_site_label_1
_geom_bond_atom_site_label_2
_geom_bond_site_symmetry_1
_geom_bond_site_symmetry_2
I1 C5 1_555 1_555
O1 C15 1_555 1_555
O2 C15 1_555 1_555
N1 C1 1_555 1_555
N2 C1 1_555 1_555
N3 C4 1_555 1_555
C1 H3 1_555 1_555
C2 C3 1_555 1_555
C3 C4 1_555 1_555
C4 C5 1_555 1_555
C5 C6 1_555 1_555
C6 N1 1_555 1_555
C7 N2 1_555 1_555
C8 N2 1_555 1_555
C9 C8 1_555 1_555
C10 C9 1_555 1_555
C11 C10 1_555 1_555
C12 C11 1_555 1_555
C13 C12 1_555 1_555
C14 C9 1_555 1_555
C15 C3 1_555 1_555
C16 O2 1_555 1_555
H1 N3 1_555 1_555
H2 N3 1_555 1_555
H4 C2 1_555 1_555
H5 C8 1_555 1_555
H6 C8 1_555 1_555
H7 C10 1_555 1_555
H8 C11 1_555 1_555
H9 C12 1_555 1_555
H10 C13 1_555 1_555
H11 C14 1_555 1_555
H12 C16 1_555 1_555
H13 C16 1_555 1_555
H14 C16 1_555 1_555
C2 C7 1_555 1_555
C6 C7 1_555 1_555
C13 C14 1_555 1_555

#END
