
#######################################################################
#
#                 Cambridge Crystallographic Data Centre
#                                CCDC 
#
#######################################################################
#
# If this CIF has been generated from an entry in the Cambridge 
# Structural Database, then it will include bibliographic, chemical, 
# crystal, experimental, refinement or atomic coordinate data resulting 
# from the CCDC's data processing and validation procedures.
#
#######################################################################

data_UCUYOJ
_chemical_formula_moiety         'C34 H34'
_chemical_name_systematic        
1,2,3,6,7,8-hexamethyl-9,10-bis(3-methylphenyl)phenanthrene
_symmetry_cell_setting           orthorhombic
_symmetry_space_group_name_H-M   'P 21 21 21'
_symmetry_Int_Tables_number      19
_space_group_name_Hall           'P 2ac 2ab'
loop_
_symmetry_equiv_pos_site_id
_symmetry_equiv_pos_as_xyz
1 x,y,z
2 1/2-x,-y,1/2+z
3 -x,1/2+y,1/2-z
4 1/2+x,1/2-y,-z
_cell_length_a                   7.2192(9)
_cell_length_b                   12.2678(16)
_cell_length_c                   27.633(3)
_cell_angle_alpha                90
_cell_angle_beta                 90
_cell_angle_gamma                90
_cell_volume                     2447.28
_exptl_crystal_colour            colorless
_cell_formula_units_Z            4
loop_
_atom_site_label
_atom_site_type_symbol
_atom_site_fract_x
_atom_site_fract_y
_atom_site_fract_z
C1 C 0.6969(6) 0.5473(3) 0.63209(14)
C2 C 0.7735(6) 0.4482(3) 0.62081(15)
C3 C 0.7031(6) 0.3480(3) 0.64272(14)
C4 C 0.7915(6) 0.2433(3) 0.63802(14)
C5 C 0.6972(6) 0.1483(3) 0.65059(15)
C6 C 0.5214(6) 0.1546(3) 0.67299(14)
C7 C 0.4462(6) 0.2555(3) 0.68191(14)
H1 H 0.3314 0.2594 0.6987
C8 C 0.5315(6) 0.3534(3) 0.66737(14)
C9 C 0.4496(5) 0.4587(3) 0.67891(13)
C10 C 0.2781(6) 0.4661(3) 0.70358(15)
H2 H 0.2154 0.4009 0.7123
C11 C 0.1994(6) 0.5647(3) 0.71536(14)
C12 C 0.2974(6) 0.6626(3) 0.70592(14)
C13 C 0.4717(6) 0.6579(3) 0.68368(14)
C14 C 0.5413(5) 0.5563(3) 0.66580(13)
C15 C 0.7514(6) 0.6448(3) 0.60312(14)
C16 C 0.6245(6) 0.6893(3) 0.57038(14)
H3 H 0.5056 0.6571 0.5670
C17 C 0.6705(7) 0.7805(3) 0.54269(15)
H4 H 0.5824 0.8106 0.5209
C18 C 0.8421(6) 0.8266(3) 0.54686(15)
H5 H 0.8730 0.8879 0.5274
C19 C 0.9723(6) 0.7851(3) 0.57915(15)
C20 C 0.9241(6) 0.6937(3) 0.60647(15)
H6 H 1.0128 0.6639 0.6281
C21 C 1.1601(6) 0.8367(4) 0.58414(18)
H7 H 1.1498 0.9033 0.6035
H8 H 1.2084 0.8548 0.5520
H9 H 1.2446 0.7857 0.6002
C22 C 0.9048(7) 0.4396(3) 0.57879(16)
C23 C 1.0924(7) 0.4677(4) 0.5820(2)
H10 H 1.1388 0.4964 0.6115
C24 C 1.2121(8) 0.4547(4) 0.5433(2)
H11 H 1.3391 0.4741 0.5459
C25 C 1.1428(8) 0.4140(4) 0.5023(3)
H12 H 1.2255 0.4041 0.4759
C26 C 0.9583(10) 0.3850(4) 0.49545(18)
C27 C 0.8379(8) 0.4002(4) 0.53572(17)
H13 H 0.7102 0.3828 0.5327
C28 C 0.8837(10) 0.3463(6) 0.4503(2)
H14 H 0.8301 0.4076 0.4324
H15 H 0.7874 0.2920 0.4568
H16 H 0.9829 0.3131 0.4311
C29 C 0.9934(6) 0.2332(4) 0.62247(17)
H17 H 1.0504 0.1709 0.6390
H18 H 1.0601 0.3000 0.6311
H19 H 0.9996 0.2221 0.5874
C30 C 0.7753(6) 0.0362(3) 0.64052(17)
H20 H 0.8878 0.0431 0.6209
H21 H 0.6834 -0.0072 0.6230
H22 H 0.8054 0.0003 0.6712
C31 C 0.4182(6) 0.0536(3) 0.68818(17)
H23 H 0.2992 0.0743 0.7025
H24 H 0.4919 0.0135 0.7120
H25 H 0.3965 0.0073 0.6598
C32 C 0.0129(6) 0.5666(4) 0.73965(17)
H26 H -0.0277 0.4917 0.7461
H27 H -0.0771 0.6027 0.7185
H28 H 0.0219 0.6066 0.7703
C33 C 0.2121(6) 0.7695(3) 0.72100(15)
H29 H 0.2452 0.7851 0.7547
H30 H 0.0771 0.7650 0.7180
H31 H 0.2587 0.8279 0.7001
C34 C 0.5846(6) 0.7611(3) 0.68287(15)
H32 H 0.5545 0.8030 0.6537
H33 H 0.7167 0.7427 0.6827
H34 H 0.5560 0.8047 0.7116
loop_
_geom_bond_atom_site_label_1
_geom_bond_atom_site_label_2
_geom_bond_site_symmetry_1
_geom_bond_site_symmetry_2
C1 C2 1_555 1_555
C2 C3 1_555 1_555
C3 C4 1_555 1_555
C4 C5 1_555 1_555
C5 C6 1_555 1_555
C6 C7 1_555 1_555
C7 H1 1_555 1_555
C8 C3 1_555 1_555
C9 C8 1_555 1_555
C10 C9 1_555 1_555
H2 C10 1_555 1_555
C11 C10 1_555 1_555
C12 C11 1_555 1_555
C13 C12 1_555 1_555
C14 C1 1_555 1_555
C15 C1 1_555 1_555
C16 C15 1_555 1_555
H3 C16 1_555 1_555
C17 C16 1_555 1_555
H4 C17 1_555 1_555
C18 C17 1_555 1_555
H5 C18 1_555 1_555
C19 C18 1_555 1_555
C20 C15 1_555 1_555
H6 C20 1_555 1_555
C21 C19 1_555 1_555
H7 C21 1_555 1_555
H8 C21 1_555 1_555
H9 C21 1_555 1_555
C22 C2 1_555 1_555
C23 C22 1_555 1_555
H10 C23 1_555 1_555
C24 C23 1_555 1_555
H11 C24 1_555 1_555
C25 C24 1_555 1_555
H12 C25 1_555 1_555
C26 C25 1_555 1_555
C27 C22 1_555 1_555
H13 C27 1_555 1_555
C28 C26 1_555 1_555
H14 C28 1_555 1_555
H15 C28 1_555 1_555
H16 C28 1_555 1_555
C29 C4 1_555 1_555
H17 C29 1_555 1_555
H18 C29 1_555 1_555
H19 C29 1_555 1_555
C30 C5 1_555 1_555
H20 C30 1_555 1_555
H21 C30 1_555 1_555
H22 C30 1_555 1_555
C31 C6 1_555 1_555
H23 C31 1_555 1_555
H24 C31 1_555 1_555
H25 C31 1_555 1_555
C32 C11 1_555 1_555
H26 C32 1_555 1_555
H27 C32 1_555 1_555
H28 C32 1_555 1_555
C33 C12 1_555 1_555
H29 C33 1_555 1_555
H30 C33 1_555 1_555
H31 C33 1_555 1_555
C34 C13 1_555 1_555
H32 C34 1_555 1_555
H33 C34 1_555 1_555
H34 C34 1_555 1_555
C7 C8 1_555 1_555
C9 C14 1_555 1_555
C13 C14 1_555 1_555
C19 C20 1_555 1_555
C26 C27 1_555 1_555

#END
