
#######################################################################
#
#                 Cambridge Crystallographic Data Centre
#                                CCDC 
#
#######################################################################
#
# If this CIF has been generated from an entry in the Cambridge 
# Structural Database, then it will include bibliographic, chemical, 
# crystal, experimental, refinement or atomic coordinate data resulting 
# from the CCDC's data processing and validation procedures.
#
#######################################################################

data_UDADOV
_chemical_formula_moiety         'C23 H18 Br1 N1 O1'
_chemical_name_systematic        
1-(4-bromophenyl)-3-phenyl-1,3,4,9-tetrahydropyrano[3,4-b]indole
_symmetry_cell_setting           orthorhombic
_symmetry_space_group_name_H-M   'P n a 21'
_symmetry_Int_Tables_number      33
_space_group_name_Hall           'P 2c -2n'
loop_
_symmetry_equiv_pos_site_id
_symmetry_equiv_pos_as_xyz
1 x,y,z
2 -x,-y,1/2+z
3 1/2+x,1/2-y,z
4 1/2-x,1/2+y,1/2+z
_cell_length_a                   20.360(4)
_cell_length_b                   11.524(2)
_cell_length_c                   7.7862(14)
_cell_angle_alpha                90
_cell_angle_beta                 90
_cell_angle_gamma                90
_cell_volume                     1826.87
_exptl_crystal_colour            colorless
_exptl_crystal_description       block
_cell_formula_units_Z            4
_exptl_crystal_recrystallization_method Dichloromethane/Hexane
loop_
_atom_site_label
_atom_site_type_symbol
_atom_site_fract_x
_atom_site_fract_y
_atom_site_fract_z
Br1 Br 1.197804(17) 0.43459(3) 0.06378(8)
C1 C 0.96227(17) 1.0172(2) -0.0114(4)
C2 C 0.99010(19) 1.1277(2) -0.0312(5)
H1 H 1.0287 1.1395 -0.0927
C3 C 0.95677(17) 1.2180(2) 0.0461(6)
H2 H 0.9726 1.2931 0.0320
C4 C 0.90071(19) 1.2014(3) 0.1437(6)
H3 H 0.8809 1.2648 0.1963
C5 C 0.87349(19) 1.0913(3) 0.1645(5)
H4 H 0.8356 1.0805 0.2291
C6 C 0.90515(15) 0.9969(2) 0.0848(5)
C7 C 0.89096(14) 0.8748(2) 0.0706(5)
C8 C 0.93927(15) 0.8284(2) -0.0260(4)
C9 C 0.94173(15) 0.7034(2) -0.0828(4)
H5 H 0.9326 0.6990 -0.2062
C10 C 0.83267(15) 0.8047(3) 0.1297(5)
H6 H 0.7927 0.8502 0.1205
H7 H 0.8382 0.7811 0.2484
C11 C 0.82912(14) 0.6978(2) 0.0118(4)
H8 H 0.8194 0.7247 -0.1049
C12 C 0.77790(14) 0.6095(2) 0.0612(6)
C13 C 0.79068(16) 0.4917(3) 0.0578(8)
H9 H 0.8324 0.4653 0.0285
C14 C 0.7419(2) 0.4129(3) 0.0979(7)
H10 H 0.7513 0.3339 0.0960
C15 C 0.6797(2) 0.4493(4) 0.1404(7)
H11 H 0.6471 0.3954 0.1661
C16 C 0.6662(2) 0.5645(4) 0.1446(7)
H12 H 0.6244 0.5904 0.1731
C17 C 0.71550(19) 0.6431(3) 0.1059(6)
H13 H 0.7059 0.7220 0.1103
C18 C 1.00579(15) 0.6419(2) -0.0449(4)
C19 C 1.04606(15) 0.6725(2) 0.0896(5)
H14 H 1.0349 0.7357 0.1579
C20 C 1.10305(17) 0.6109(3) 0.1254(5)
H15 H 1.1299 0.6320 0.2168
C21 C 1.11889(15) 0.5178(3) 0.0224(4)
C22 C 1.08022(17) 0.4863(3) -0.1149(5)
H16 H 1.0923 0.4245 -0.1850
C23 C 1.02347(17) 0.5474(2) -0.1470(5)
H17 H 0.9966 0.5254 -0.2379
N1 N 0.98356(15) 0.9120(2) -0.0769(4)
H18 H 1.0181 0.9009 -0.1382
O1 O 0.89214(10) 0.64092(14) 0.0093(3)
loop_
_geom_bond_atom_site_label_1
_geom_bond_atom_site_label_2
_geom_bond_site_symmetry_1
_geom_bond_site_symmetry_2
Br1 C21 1_555 1_555
C1 C2 1_555 1_555
C2 H1 1_555 1_555
C3 C2 1_555 1_555
H2 C3 1_555 1_555
C4 C3 1_555 1_555
H3 C4 1_555 1_555
C5 C4 1_555 1_555
H4 C5 1_555 1_555
C6 C1 1_555 1_555
C7 C6 1_555 1_555
C8 C7 1_555 1_555
C9 C8 1_555 1_555
H5 C9 1_555 1_555
C10 C7 1_555 1_555
H6 C10 1_555 1_555
H7 C10 1_555 1_555
C11 C10 1_555 1_555
H8 C11 1_555 1_555
C12 C11 1_555 1_555
C13 C12 1_555 1_555
H9 C13 1_555 1_555
C14 C13 1_555 1_555
H10 C14 1_555 1_555
C15 C14 1_555 1_555
H11 C15 1_555 1_555
C16 C15 1_555 1_555
H12 C16 1_555 1_555
C17 C12 1_555 1_555
H13 C17 1_555 1_555
C18 C9 1_555 1_555
C19 C18 1_555 1_555
H14 C19 1_555 1_555
C20 C19 1_555 1_555
H15 C20 1_555 1_555
C21 C20 1_555 1_555
C22 C21 1_555 1_555
H16 C22 1_555 1_555
C23 C18 1_555 1_555
H17 C23 1_555 1_555
N1 C1 1_555 1_555
H18 N1 1_555 1_555
O1 C9 1_555 1_555
C5 C6 1_555 1_555
C8 N1 1_555 1_555
C11 O1 1_555 1_555
C16 C17 1_555 1_555
C22 C23 1_555 1_555

#END
