
#######################################################################
#
#                 Cambridge Crystallographic Data Centre
#                                CCDC 
#
#######################################################################
#
# If this CIF has been generated from an entry in the Cambridge 
# Structural Database, then it will include bibliographic, chemical, 
# crystal, experimental, refinement or atomic coordinate data resulting 
# from the CCDC's data processing and validation procedures.
#
#######################################################################

data_UDAGAH
_chemical_formula_moiety         'C18 H28 O3'
_chemical_name_systematic        
4-(2-Carboxyethyl)-8-isopropyl-4,7-dimethylbicyclo(5.3.0)dec-1(10)-en-3-one
_symmetry_cell_setting           triclinic
_symmetry_space_group_name_H-M   'P -1'
_symmetry_Int_Tables_number      2
_space_group_name_Hall           '-P 1'
loop_
_symmetry_equiv_pos_site_id
_symmetry_equiv_pos_as_xyz
1 x,y,z
2 -x,-y,-z
_cell_length_a                   5.8018(12)
_cell_length_b                   10.268(2)
_cell_length_c                   14.586(3)
_cell_angle_alpha                101.169(4)
_cell_angle_beta                 91.973(4)
_cell_angle_gamma                98.580(4)
_cell_volume                     841.134
_exptl_crystal_colour            colorless
_exptl_crystal_description       block
_chemical_melting_point          135.7-137.3deg.C
_cell_formula_units_Z            2
_exptl_crystal_recrystallization_method 'hexanes/ethyl acetate'
loop_
_atom_site_label
_atom_site_type_symbol
_atom_site_fract_x
_atom_site_fract_y
_atom_site_fract_z
O1 O 0.6169(2) 0.02480(12) 0.11186(9)
O2 O -0.0124(2) 0.39594(12) 0.07155(9)
O3 O 0.2421(2) 0.41215(12) -0.03742(9)
H1 H 0.1690 0.4721 -0.0474
C1 C 0.2516(3) -0.18465(15) 0.18249(12)
C2 C 0.2365(3) -0.09403(17) 0.11387(13)
H2 H 0.0823 -0.0659 0.1140
H3 H 0.2570 -0.1425 0.0506
C3 C 0.4239(3) 0.02798(16) 0.14051(12)
C4 C 0.2080(3) 0.22272(17) 0.15189(14)
H4 H 0.0645 0.1598 0.1287
H5 H 0.1634 0.2982 0.1960
C5 C 0.3102(3) 0.27599(17) 0.06999(13)
H6 H 0.4676 0.3258 0.0891
H7 H 0.3236 0.2003 0.0190
C6 C 0.1628(3) 0.36644(15) 0.03529(13)
C7 C 0.3649(3) 0.15067(15) 0.20666(12)
C8 C 0.2188(3) 0.10793(17) 0.28574(13)
H8 H 0.2228 0.1874 0.3357
H9 H 0.0562 0.0799 0.2608
C9 C 0.2913(3) -0.00477(16) 0.32970(12)
H10 H 0.2512 0.0105 0.3952
H11 H 0.4616 0.0021 0.3296
C10 C 0.1823(3) -0.14885(15) 0.28241(12)
C11 C 0.2866(3) -0.25472(16) 0.32940(12)
H12 H 0.4471 -0.2125 0.3540
C12 C 0.3124(3) -0.36929(17) 0.24663(14)
H13 H 0.4558 -0.4063 0.2557
H14 H 0.1783 -0.4418 0.2390
C13 C 0.3221(3) -0.30318(16) 0.16452(13)
H15 H 0.3728 -0.3413 0.1063
C14 C 0.5875(3) 0.24461(17) 0.24866(14)
H16 H 0.6786 0.2707 0.1987
H17 H 0.6784 0.1988 0.2855
H18 H 0.5474 0.3242 0.2885
C15 C -0.0855(3) -0.1685(2) 0.28089(15)
H19 H -0.1424 -0.1011 0.2518
H20 H -0.1339 -0.1595 0.3445
H21 H -0.1493 -0.2574 0.2454
C16 C 0.1662(3) -0.30505(19) 0.41057(14)
H22 H 0.0054 -0.3487 0.3875
C17 C 0.1497(5) -0.1945(2) 0.49508(16)
H23 H 0.0687 -0.1270 0.4760
H24 H 0.3056 -0.1532 0.5210
H25 H 0.0643 -0.2327 0.5421
C18 C 0.2932(5) -0.4107(3) 0.4423(2)
H26 H 0.3037 -0.4822 0.3891
H27 H 0.2073 -0.4477 0.4897
H28 H 0.4492 -0.3693 0.4681
loop_
_geom_bond_atom_site_label_1
_geom_bond_atom_site_label_2
_geom_bond_site_symmetry_1
_geom_bond_site_symmetry_2
O1 C3 1_555 1_555
O2 C6 1_555 1_555
O3 H1 1_555 1_555
C1 C2 1_555 1_555
C2 H2 1_555 1_555
H3 C2 1_555 1_555
C3 C2 1_555 1_555
C4 H4 1_555 1_555
H5 C4 1_555 1_555
C5 C4 1_555 1_555
H6 C5 1_555 1_555
H7 C5 1_555 1_555
C6 O3 1_555 1_555
C7 C3 1_555 1_555
C8 C7 1_555 1_555
H8 C8 1_555 1_555
H9 C8 1_555 1_555
C9 C8 1_555 1_555
H10 C9 1_555 1_555
H11 C9 1_555 1_555
C10 C1 1_555 1_555
C11 C10 1_555 1_555
H12 C11 1_555 1_555
C12 C11 1_555 1_555
H13 C12 1_555 1_555
H14 C12 1_555 1_555
C13 C1 1_555 1_555
H15 C13 1_555 1_555
C14 C7 1_555 1_555
H16 C14 1_555 1_555
H17 C14 1_555 1_555
H18 C14 1_555 1_555
C15 C10 1_555 1_555
H19 C15 1_555 1_555
H20 C15 1_555 1_555
H21 C15 1_555 1_555
C16 C11 1_555 1_555
H22 C16 1_555 1_555
C17 C16 1_555 1_555
H23 C17 1_555 1_555
H24 C17 1_555 1_555
H25 C17 1_555 1_555
C18 C16 1_555 1_555
H26 C18 1_555 1_555
H27 C18 1_555 1_555
H28 C18 1_555 1_555
C4 C7 1_555 1_555
C5 C6 1_555 1_555
C9 C10 1_555 1_555
C12 C13 1_555 1_555

#END
