
#######################################################################
#
#                 Cambridge Crystallographic Data Centre
#                                CCDC 
#
#######################################################################
#
# If this CIF has been generated from an entry in the Cambridge 
# Structural Database, then it will include bibliographic, chemical, 
# crystal, experimental, refinement or atomic coordinate data resulting 
# from the CCDC's data processing and validation procedures.
#
#######################################################################

data_UDENOJ
_chemical_formula_moiety         'C25 H18 N2 O1'
_chemical_name_systematic        3-(2-methylphenyl)-2H-[1,8'-biquinolin]-2-one
_symmetry_cell_setting           orthorhombic
_symmetry_space_group_name_H-M   'P 21 21 21'
_symmetry_Int_Tables_number      19
_space_group_name_Hall           'P 2ac 2ab'
loop_
_symmetry_equiv_pos_site_id
_symmetry_equiv_pos_as_xyz
1 x,y,z
2 1/2-x,-y,1/2+z
3 -x,1/2+y,1/2-z
4 1/2+x,1/2-y,-z
_cell_length_a                   9.1112(4)
_cell_length_b                   11.0761(4)
_cell_length_c                   18.4010(7)
_cell_angle_alpha                90
_cell_angle_beta                 90
_cell_angle_gamma                90
_cell_volume                     1856.97
_exptl_crystal_colour            colorless
_exptl_crystal_description       block
_cell_formula_units_Z            4
loop_
_atom_site_label
_atom_site_type_symbol
_atom_site_fract_x
_atom_site_fract_y
_atom_site_fract_z
O1 O 0.6551(3) 0.4513(2) 0.46329(12)
C1 C 0.8397(4) 0.2627(3) 0.36604(17)
N1 N 0.7110(3) 0.4323(2) 0.58317(13)
N2 N 0.8805(3) 0.6387(3) 0.56981(14)
C2 C 0.8218(5) 0.2057(4) 0.29871(19)
H1 H 0.8736 0.2348 0.2575
C3 C 0.6546(4) 0.0624(4) 0.3503(2)
H2 H 0.5916 -0.0053 0.3449
C4 C 0.7291(4) 0.1069(4) 0.2917(2)
H3 H 0.7172 0.0697 0.2455
C5 C 0.6715(4) 0.1164(3) 0.41726(19)
H4 H 0.6203 0.0849 0.4581
C6 C 0.7630(3) 0.2172(3) 0.42607(17)
C7 C 0.7763(3) 0.2713(3) 0.49979(16)
C8 C 0.8383(3) 0.2119(3) 0.55562(17)
H5 H 0.8819 0.1355 0.5466
C9 C 0.8413(3) 0.2588(3) 0.62780(16)
C10 C 0.9088(4) 0.1977(3) 0.68587(19)
H6 H 0.9535 0.1215 0.6776
C11 C 0.9108(4) 0.2468(4) 0.75416(19)
H7 H 0.9579 0.2050 0.7927
C12 C 0.8440(4) 0.3577(4) 0.76719(18)
H8 H 0.8450 0.3908 0.8148
C13 C 0.7763(4) 0.4199(3) 0.71161(17)
H9 H 0.7304 0.4953 0.7209
C14 C 0.7755(3) 0.3713(3) 0.64133(16)
C15 C 0.7107(3) 0.3906(3) 0.51167(16)
C16 C 0.6464(3) 0.5492(3) 0.59474(16)
C17 C 0.5027(4) 0.5585(3) 0.61326(18)
H10 H 0.4452 0.4875 0.6187
C18 C 0.4380(4) 0.6723(3) 0.6245(2)
H11 H 0.3375 0.6776 0.6378
C19 C 0.5180(4) 0.7739(3) 0.61636(19)
H12 H 0.4729 0.8503 0.6236
C20 C 0.6680(4) 0.7681(3) 0.59715(16)
C21 C 0.7348(4) 0.6533(3) 0.58682(15)
C22 C 0.9570(4) 0.7393(4) 0.56270(17)
H13 H 1.0582 0.7318 0.5513
C23 C 0.9004(5) 0.8563(4) 0.5707(2)
H14 H 0.9620 0.9246 0.5642
C24 C 0.7579(5) 0.8705(3) 0.58758(19)
H15 H 0.7180 0.9492 0.5931
C25 C 0.9407(4) 0.3680(4) 0.3730(2)
H16 H 0.9901 0.3822 0.3265
H17 H 1.0142 0.3512 0.4106
H18 H 0.8842 0.4399 0.3865
loop_
_geom_bond_atom_site_label_1
_geom_bond_atom_site_label_2
_geom_bond_site_symmetry_1
_geom_bond_site_symmetry_2
O1 C15 1_555 1_555
C1 C2 1_555 1_555
N1 C14 1_555 1_555
N2 C21 1_555 1_555
C2 H1 1_555 1_555
C3 H2 1_555 1_555
C4 C2 1_555 1_555
H3 C4 1_555 1_555
C5 C3 1_555 1_555
H4 C5 1_555 1_555
C6 C1 1_555 1_555
C7 C6 1_555 1_555
C8 C7 1_555 1_555
H5 C8 1_555 1_555
C9 C8 1_555 1_555
C10 C9 1_555 1_555
H6 C10 1_555 1_555
C11 C10 1_555 1_555
H7 C11 1_555 1_555
C12 C11 1_555 1_555
H8 C12 1_555 1_555
C13 C12 1_555 1_555
H9 C13 1_555 1_555
C14 C9 1_555 1_555
C15 N1 1_555 1_555
C16 N1 1_555 1_555
C17 C16 1_555 1_555
H10 C17 1_555 1_555
C18 C17 1_555 1_555
H11 C18 1_555 1_555
C19 C18 1_555 1_555
H12 C19 1_555 1_555
C20 C19 1_555 1_555
C21 C16 1_555 1_555
C22 N2 1_555 1_555
H13 C22 1_555 1_555
C23 C22 1_555 1_555
H14 C23 1_555 1_555
C24 C20 1_555 1_555
H15 C24 1_555 1_555
C25 C1 1_555 1_555
H16 C25 1_555 1_555
H17 C25 1_555 1_555
H18 C25 1_555 1_555
C3 C4 1_555 1_555
C5 C6 1_555 1_555
C7 C15 1_555 1_555
C13 C14 1_555 1_555
C20 C21 1_555 1_555
C23 C24 1_555 1_555

#END
