
#######################################################################
#
#                 Cambridge Crystallographic Data Centre
#                                CCDC 
#
#######################################################################
#
# If this CIF has been generated from an entry in the Cambridge 
# Structural Database, then it will include bibliographic, chemical, 
# crystal, experimental, refinement or atomic coordinate data resulting 
# from the CCDC's data processing and validation procedures.
#
#######################################################################

data_UDEPOI
_chemical_formula_moiety         'C16 H27 N1 O5 S1'
_chemical_name_systematic        
1-((4S)-4-Isopropyl-2-oxo-1,3-oxazolidin-3-yl)-(2S,3R)-3-hydroxy-2-(methylthio)-4,4-dimethylheptane-1,5-dione
_symmetry_cell_setting           monoclinic
_symmetry_space_group_name_H-M   'P 21'
_symmetry_Int_Tables_number      4
_space_group_name_Hall           'P 2yb'
loop_
_symmetry_equiv_pos_site_id
_symmetry_equiv_pos_as_xyz
1 x,y,z
2 -x,1/2+y,-z
_cell_length_a                   9.7280(10)
_cell_length_b                   9.3870(10)
_cell_length_c                   10.3640(10)
_cell_angle_alpha                90
_cell_angle_beta                 96.680(10)
_cell_angle_gamma                90
_cell_volume                     939.982
_exptl_crystal_colour            colorless
_exptl_crystal_description       needle
_cell_formula_units_Z            2
_exptl_crystal_recrystallization_method hexane/dichloromethane
loop_
_atom_site_label
_atom_site_type_symbol
_atom_site_fract_x
_atom_site_fract_y
_atom_site_fract_z
S1 S 0.6993(2) 0.7349 0.6880(2)
C1 C 0.6682(7) 0.3602(11) 0.5603(7)
N1 N 0.6560(6) 0.3675(7) 0.6940(5)
C2 C 0.5788(6) 0.2489(9) 0.7381(6)
H1 H 0.6339(6) 0.2049(9) 0.8101(6)
C3 C 0.5722(8) 0.1504(10) 0.6192(8)
H2 H 0.6342(8) 0.0713(10) 0.6360(8)
H3 H 0.4799(8) 0.1146(10) 0.5977(8)
O1 O 0.61450(5) 0.2349(8) 0.5160(4)
O2 O 0.7132(5) 0.4438(7) 0.4912(4)
C4 C 0.4377(8) 0.2883(11) 0.7791(7)
H4 H 0.4534(8) 0.3522(11) 0.8517(7)
C5 C 0.3462(9) 0.3650(16) 0.6712(10)
H5 H 0.2588(9) 0.3891(16) 0.7000(10)
H6 H 0.3311(9) 0.3041(16) 0.5965(10)
H7 H 0.3922(9) 0.4504(16) 0.6488(10)
C6 C 0.3694(11) 0.1521(15) 0.8242(10)
H8 H 0.4307(11) 0.1086(15) 0.8923(10)
H9 H 0.3519(11) 0.0867(15) 0.7530(10)
H10 H 0.2838(11) 0.1760(15) 0.8564(10)
C7 C 0.7240(7) 0.4656(9) 0.7814(6)
O3 O 0.7064(6) 0.4554(6) 0.8955(4)
C8 C 0.8086(7) 0.5824(8) 0.7320(6)
H11 H 0.8395(7) 0.5475(8) 0.6532(6)
C9 C 0.9398(8) 0.6073(8) 0.8276(7)
H12 H 0.9142(8) 0.6328(8) 0.9112(7)
O4 O 1.0083(6) 0.4714(7) 0.8328(6)
H13 H 1.015(11) 0.451(13) 0.921(11)
C10 C 1.0373(7) 0.7209(9) 0.7789(6)
C11 C 1.0621(8) 0.6939(10) 0.6392(7)
H14 H 0.9758(8) 0.6975(10) 0.5840(7)
H15 H 1.1029(8) 0.6014(10) 0.6334(7)
H16 H 1.1237(8) 0.7649(10) 0.6121(7)
C12 C 1.1776(8) 0.7132(13) 0.8668(9)
H17 H 1.2396(8) 0.7831(13) 0.8385(9)
H18 H 1.2175(8) 0.6201(13) 0.8618(9)
H19 H 1.1622(8) 0.7327(43) 0.9549(9)
C13 C 0.9836(8) 0.8699(10) 0.8023(8)
O5 O 0.9385(6) 0.8971(7) 0.9052(6)
C14 C 0.9978(9) 0.9853(9) 0.7038(9)
H20 H 1.0906(9) 0.9856(9) 0.6809(9)
H21 H 0.9363(9) 0.9637(9) 0.6270(9)
C15 C 0.9601(10) 1.1329(11) 0.7497(11)
H22 H 0.9692(10) 1.2030(11) 0.6838(11)
H23 H 1.0226(10) 1.1550(11) 0.8257(11)
H24 H 0.8668(10) 1.1329(11) 0.7714(11)
C16 C 0.6297(9) 0.7782(12) 0.8342(9)
H25 H 0.5695(9) 0.8592(12) 0.8207(9)
H26 H 0.7032(9) 0.7992(12) 0.9016(9)
H27 H 0.5781(9) 0.6977(12) 0.8592(9)
loop_
_geom_bond_atom_site_label_1
_geom_bond_atom_site_label_2
_geom_bond_site_symmetry_1
_geom_bond_site_symmetry_2
S1 C8 1_555 1_555
C1 N1 1_555 1_555
N1 C2 1_555 1_555
C2 H1 1_555 1_555
C3 C2 1_555 1_555
H2 C3 1_555 1_555
H3 C3 1_555 1_555
O1 C1 1_555 1_555
O2 C1 1_555 1_555
C4 C2 1_555 1_555
H4 C4 1_555 1_555
C5 C4 1_555 1_555
H5 C5 1_555 1_555
H6 C5 1_555 1_555
H7 C5 1_555 1_555
C6 C4 1_555 1_555
H8 C6 1_555 1_555
H9 C6 1_555 1_555
H10 C6 1_555 1_555
C7 N1 1_555 1_555
O3 C7 1_555 1_555
C8 C7 1_555 1_555
H11 C8 1_555 1_555
C9 C8 1_555 1_555
H12 C9 1_555 1_555
O4 C9 1_555 1_555
H13 O4 1_555 1_555
C10 C9 1_555 1_555
C11 C10 1_555 1_555
H14 C11 1_555 1_555
H15 C11 1_555 1_555
H16 C11 1_555 1_555
C12 C10 1_555 1_555
H17 C12 1_555 1_555
H18 C12 1_555 1_555
H19 C12 1_555 1_555
C13 C10 1_555 1_555
O5 C13 1_555 1_555
C14 C13 1_555 1_555
H20 C14 1_555 1_555
H21 C14 1_555 1_555
C15 C14 1_555 1_555
H22 C15 1_555 1_555
H23 C15 1_555 1_555
H24 C15 1_555 1_555
C16 S1 1_555 1_555
H25 C16 1_555 1_555
H26 C16 1_555 1_555
H27 C16 1_555 1_555
C3 O1 1_555 1_555

#END
