
#######################################################################
#
#                 Cambridge Crystallographic Data Centre
#                                CCDC 
#
#######################################################################
#
# If this CIF has been generated from an entry in the Cambridge 
# Structural Database, then it will include bibliographic, chemical, 
# crystal, experimental, refinement or atomic coordinate data resulting 
# from the CCDC's data processing and validation procedures.
#
#######################################################################

data_UDEQUP01
_chemical_formula_moiety         'C8 H8 S4,C6 Cl4 O2'
_chemical_name_systematic        
"4,4'-Dimethyl-1,1',3,3'-tetrathiafulvalene 2,3,5,6-tetrachloro-p-benzoquinone"
_symmetry_cell_setting           triclinic
_symmetry_space_group_name_H-M   'P -1'
_symmetry_Int_Tables_number      2
_space_group_name_Hall           '-P 1'
loop_
_symmetry_equiv_pos_site_id
_symmetry_equiv_pos_as_xyz
1 x,y,z
2 -x,-y,-z
_cell_length_a                   7.678(1)
_cell_length_b                   8.521(1)
_cell_length_c                   7.285(4)
_cell_angle_alpha                103.89(2)
_cell_angle_beta                 91.91(2)
_cell_angle_gamma                95.90(1)
_cell_volume                     459.397
_cell_formula_units_Z            1
loop_
_atom_site_label
_atom_site_type_symbol
_atom_site_fract_x
_atom_site_fract_y
_atom_site_fract_z
S1 S 0.23791(7) 0.51871(7) 0.38486(8)
S2 S 0.41867(7) 0.23798(7) 0.41787(8)
C1 C 0.4285(2) 0.4491(2) 0.4588(3)
C2 C 0.1233(3) 0.3253(3) 0.3044(3)
C3 C 0.2021(3) 0.1979(3) 0.3194(3)
C4 C 0.1258(4) 0.0242(3) 0.2625(4)
C1A C 0.5715(2) 0.5509(2) 0.5412(3)
S1A S 0.76209(7) 0.48129(7) 0.61514(8)
C2A C 0.8767(3) 0.6747(3) 0.6956(3)
C3A C 0.7979(3) 0.8021(3) 0.6806(3)
S2A S 0.58133(7) 0.76202(7) 0.58213(8)
C4A C 0.8742(4) 0.9758(3) 0.7375(4)
O1 O 0.2717(2) 0.6981(2) -0.0688(2)
Cl1 Cl 0.12552(7) 0.35784(7) -0.18310(8)
Cl2 Cl 0.59553(8) 0.87850(6) 0.12182(9)
C5 C 0.3739(3) 0.6078(2) -0.0334(3)
C6 C 0.3326(2) 0.4287(2) -0.0863(3)
C7 C 0.5505(3) 0.6717(2) 0.0598(3)
C7A C 0.4495(3) 0.3283(2) -0.0598(3)
Cl2A Cl 0.40447(8) 0.12150(6) -0.12182(9)
C5A C 0.6261(3) 0.3922(2) 0.0334(3)
O1A O 0.7283(2) 0.3019(2) 0.0688(2)
C6A C 0.6674(2) 0.5713(2) 0.0863(3)
Cl1A Cl 0.87448(7) 0.64216(7) 0.18310(8)
loop_
_geom_bond_atom_site_label_1
_geom_bond_atom_site_label_2
_geom_bond_site_symmetry_1
_geom_bond_site_symmetry_2
S1 C1 1_555 1_555
S2 C1 1_555 1_555
C1 C1A 1_555 1_555
C2 S1 1_555 1_555
C3 S2 1_555 1_555
C4 C3 1_555 1_555
O1 C5 1_555 1_555
Cl1 C6 1_555 1_555
Cl2 C7 1_555 1_555
C5 C6 1_555 1_555
C6 C7A 1_555 1_555
C7 C5 1_555 1_555
C1A S1A 1_555 1_555
S1A C2A 1_555 1_555
C2A C3A 1_555 1_555
C3A S2A 1_555 1_555
S2A C1A 1_555 1_555
C4A C3A 1_555 1_555
C7A Cl2A 1_555 1_555
C5A C7A 1_555 1_555
O1A C5A 1_555 1_555
C6A C7 1_555 1_555
Cl1A C6A 1_555 1_555
C2 C3 1_555 1_555
C5A C6A 1_555 1_555

#END
