
#######################################################################
#
#                 Cambridge Crystallographic Data Centre
#                                CCDC 
#
#######################################################################
#
# If this CIF has been generated from an entry in the Cambridge 
# Structural Database, then it will include bibliographic, chemical, 
# crystal, experimental, refinement or atomic coordinate data resulting 
# from the CCDC's data processing and validation procedures.
#
#######################################################################

data_UDIGOF
_chemical_formula_moiety         'C36 H28 N2 P1 1+,I1 1-,H2 O1'
_chemical_name_systematic        
"(R)-1-(2'-(Diphenylphosphino)-1,1'-binaphthalen-2-yl)-3-methyl-1H-imidazol-3-ium iodide monohydrate"
_symmetry_cell_setting           orthorhombic
_symmetry_space_group_name_H-M   'P 21 21 21'
_symmetry_Int_Tables_number      19
_space_group_name_Hall           'P 2ac 2ab'
loop_
_symmetry_equiv_pos_site_id
_symmetry_equiv_pos_as_xyz
1 x,y,z
2 1/2-x,-y,1/2+z
3 -x,1/2+y,1/2-z
4 1/2+x,1/2-y,-z
_cell_length_a                   9.6940(6)
_cell_length_b                   16.1252(10)
_cell_length_c                   19.7229(12)
_cell_angle_alpha                90
_cell_angle_beta                 90
_cell_angle_gamma                90
_cell_volume                     3083.04
_exptl_crystal_colour            colorless
_exptl_crystal_description       prismatic
_cell_formula_units_Z            4
loop_
_atom_site_label
_atom_site_type_symbol
_atom_site_fract_x
_atom_site_fract_y
_atom_site_fract_z
I1 I 0.70232(6) 0.85659(5) 0.96359(4)
P1 P 0.91728(14) 0.42930(9) 0.86823(7)
N1 N 0.7755(4) 0.6239(3) 0.8713(2)
N2 N 0.6399(5) 0.6019(3) 0.9544(3)
C1 C 0.7688(6) 0.6125(4) 0.9385(3)
H1 H 0.8430 0.6122 0.9684
C2 C 0.5597(6) 0.6073(4) 0.8968(4)
H2 H 0.4643 0.6025 0.8941
C3 C 0.6464(7) 0.6207(4) 0.8458(3)
H3 H 0.6224 0.6267 0.8004
C4 C 0.5883(8) 0.5862(6) 1.0241(4)
H4 H 0.6604 0.5618 1.0508
H5 H 0.5111 0.5490 1.0221
H6 H 0.5600 0.6376 1.0443
C5 C 0.9065(5) 0.6364(3) 0.8371(3)
C6 C 0.9948(6) 0.6975(4) 0.8635(3)
H7 H 0.9639 0.7325 0.8978
C7 C 1.1221(6) 0.7057(4) 0.8396(3)
H8 H 1.1804 0.7453 0.8584
C8 C 1.1705(5) 0.6555(3) 0.7863(3)
C9 C 1.3083(6) 0.6602(4) 0.7622(3)
H9 H 1.3683 0.6995 0.7801
C10 C 1.3528(6) 0.6079(4) 0.7136(3)
H10 H 1.4434 0.6117 0.6984
C11 C 1.2659(6) 0.5483(4) 0.6856(3)
H11 H 1.2986 0.5125 0.6523
C12 C 1.1328(6) 0.5425(3) 0.7072(3)
H12 H 1.0750 0.5034 0.6874
C13 C 1.0805(5) 0.5936(3) 0.7582(2)
C14 C 0.9446(5) 0.5858(3) 0.7846(2)
C15 C 0.8491(5) 0.5226(3) 0.7555(2)
C16 C 0.7795(5) 0.5420(3) 0.6943(2)
C17 C 0.7925(6) 0.6179(3) 0.6606(3)
H13 H 0.8508 0.6580 0.6787
C18 C 0.7231(6) 0.6350(4) 0.6025(3)
H14 H 0.7362 0.6855 0.5806
C19 C 0.6323(6) 0.5767(4) 0.5759(3)
H15 H 0.5840 0.5890 0.5364
C20 C 0.6132(5) 0.5032(4) 0.6061(3)
H16 H 0.5523 0.4649 0.5873
C21 C 0.6852(5) 0.4835(3) 0.6664(2)
C22 C 0.6702(6) 0.4053(3) 0.6989(3)
H17 H 0.6126 0.3654 0.6800
C23 C 0.7388(6) 0.3882(3) 0.7571(3)
H18 H 0.7267 0.3370 0.7780
C24 C 0.8295(5) 0.4477(3) 0.7870(2)
C25 C 0.8394(5) 0.3314(3) 0.8977(2)
C26 C 0.7034(7) 0.3346(5) 0.9159(3)
H19 H 0.6541 0.3836 0.9104
C27 C 0.6380(7) 0.2649(6) 0.9428(3)
H20 H 0.5450 0.2668 0.9543
C28 C 0.7128(9) 0.1933(5) 0.9522(4)
H21 H 0.6707 0.1464 0.9702
C29 C 0.8493(8) 0.1914(4) 0.9350(4)
H22 H 0.9000 0.1432 0.9418
C30 C 0.9128(6) 0.2604(4) 0.9076(3)
H23 H 1.0057 0.2583 0.8959
C31 C 1.0880(6) 0.3975(4) 0.8402(3)
C32 C 1.1119(7) 0.3498(4) 0.7832(4)
H24 H 1.0379 0.3308 0.7575
C33 C 1.2465(10) 0.3299(6) 0.7638(6)
H25 H 1.2631 0.2994 0.7246
C34 C 1.3539(9) 0.3565(8) 0.8037(7)
H26 H 1.4433 0.3404 0.7928
C35 C 1.3330(10) 0.4051(8) 0.8582(8)
H27 H 1.4081 0.4247 0.8828
C36 C 1.1993(7) 0.4266(5) 0.8781(4)
H28 H 1.1849 0.4597 0.9161
O1 O 0.8732(9) 0.7143(5) 0.0660(4)
H29 H 0.952(4) 0.707(5) 0.050(4)
H30 H 0.841(8) 0.747(4) 0.037(3)
loop_
_geom_bond_atom_site_label_1
_geom_bond_atom_site_label_2
_geom_bond_site_symmetry_1
_geom_bond_site_symmetry_2
P1 C24 1_555 1_555
N1 C1 1_555 1_555
N2 C1 1_555 1_555
C1 H1 1_555 1_555
C2 N2 1_555 1_555
H2 C2 1_555 1_555
C3 N1 1_555 1_555
H3 C3 1_555 1_555
C4 N2 1_555 1_555
H4 C4 1_555 1_555
H5 C4 1_555 1_555
H6 C4 1_555 1_555
C5 N1 1_555 1_555
C6 C5 1_555 1_555
H7 C6 1_555 1_555
C7 C6 1_555 1_555
H8 C7 1_555 1_555
C8 C7 1_555 1_555
C9 C8 1_555 1_555
H9 C9 1_555 1_555
C10 C9 1_555 1_555
H10 C10 1_555 1_555
C11 C10 1_555 1_555
H11 C11 1_555 1_555
C12 C11 1_555 1_555
H12 C12 1_555 1_555
C13 C8 1_555 1_555
C14 C5 1_555 1_555
C15 C14 1_555 1_555
C16 C15 1_555 1_555
C17 C16 1_555 1_555
H13 C17 1_555 1_555
C18 C17 1_555 1_555
H14 C18 1_555 1_555
C19 C18 1_555 1_555
H15 C19 1_555 1_555
C20 C19 1_555 1_555
H16 C20 1_555 1_555
C21 C16 1_555 1_555
C22 C21 1_555 1_555
H17 C22 1_555 1_555
C23 C22 1_555 1_555
H18 C23 1_555 1_555
C24 C15 1_555 1_555
C25 P1 1_555 1_555
C26 C25 1_555 1_555
H19 C26 1_555 1_555
C27 C26 1_555 1_555
H20 C27 1_555 1_555
C28 C27 1_555 1_555
H21 C28 1_555 1_555
C29 C28 1_555 1_555
H22 C29 1_555 1_555
C30 C25 1_555 1_555
H23 C30 1_555 1_555
C31 P1 1_555 1_555
C32 C31 1_555 1_555
H24 C32 1_555 1_555
C33 C32 1_555 1_555
H25 C33 1_555 1_555
C34 C33 1_555 1_555
H26 C34 1_555 1_555
C35 C34 1_555 1_555
H27 C35 1_555 1_555
C36 C31 1_555 1_555
H28 C36 1_555 1_555
O1 H29 1_555 1_555
H30 O1 1_555 1_555
C2 C3 1_555 1_555
C12 C13 1_555 1_555
C13 C14 1_555 1_555
C20 C21 1_555 1_555
C23 C24 1_555 1_555
C29 C30 1_555 1_555
C35 C36 1_555 1_555

#END
