
#######################################################################
#
#                 Cambridge Crystallographic Data Centre
#                                CCDC 
#
#######################################################################
#
# If this CIF has been generated from an entry in the Cambridge 
# Structural Database, then it will include bibliographic, chemical, 
# crystal, experimental, refinement or atomic coordinate data resulting 
# from the CCDC's data processing and validation procedures.
#
#######################################################################

data_UDODAV
_chemical_formula_moiety         'C31 H35 N1 O3 S1,C2 H6 O1'
_chemical_name_systematic        
'5-[(3,5-di-t-butyl-4-hydroxyphenyl)(2-hydroxyphenyl)methyl]-5-methyl-2-phenyl-1,3-thiazol-4(5H)-one ethanol solvate'
_symmetry_cell_setting           monoclinic
_symmetry_space_group_name_H-M   'P 21'
_symmetry_Int_Tables_number      4
_space_group_name_Hall           'P 2yb'
loop_
_symmetry_equiv_pos_site_id
_symmetry_equiv_pos_as_xyz
1 x,y,z
2 -x,1/2+y,-z
_cell_length_a                   10.365(3)
_cell_length_b                   9.836(2)
_cell_length_c                   14.719(4)
_cell_angle_alpha                90
_cell_angle_beta                 91.611(9)
_cell_angle_gamma                90
_cell_volume                     1500.01
_exptl_crystal_colour            colorless
_exptl_crystal_description       block
_cell_formula_units_Z            2
loop_
_atom_site_label
_atom_site_type_symbol
_atom_site_fract_x
_atom_site_fract_y
_atom_site_fract_z
S1 S 0.24422(5) 0.45975(6) 0.62410(4)
O1 O 0.21624(17) 0.70900(19) 0.71517(12)
H1 H 0.193(3) 0.782(4) 0.682(2)
O2 O 0.74903(16) 0.41525(18) 0.84989(13)
H2 H 0.776(3) 0.455(3) 0.8122(17)
O3 O 0.08293(18) 0.19225(19) 0.77268(13)
N1 N 0.18953(19) 0.1993(2) 0.63812(14)
C1 C 0.6980(3) 0.2264(3) 0.68997(19)
H3 H 0.7656 0.2901 0.7102
H4 H 0.6444 0.2688 0.6419
H5 H 0.7379 0.1437 0.6664
C2 C 0.6135(2) 0.1896(2) 0.77060(17)
C3 C 0.5464(2) 0.3193(2) 0.80458(15)
C4 C 0.4127(2) 0.3327(2) 0.79798(16)
H6 H 0.3632 0.2587 0.7745
C5 C 0.3485(2) 0.4498(3) 0.82438(14)
C6 C 0.2010(2) 0.4609(3) 0.81497(14)
H7 H 0.1675 0.3926 0.8588
C7 C 0.1448(2) 0.4153(2) 0.71973(15)
C8 C 0.2505(2) 0.2903(2) 0.59087(16)
C9 C 0.3269(2) 0.2540(2) 0.51193(16)
C10 C 0.4343(2) 0.3318(3) 0.49046(17)
H8 H 0.4557 0.4103 0.5253
C11 C 0.5100(3) 0.2945(3) 0.41828(18)
H9 H 0.5852 0.3453 0.4052
C12 C 0.4755(3) 0.1831(3) 0.36523(18)
H10 H 0.5265 0.1586 0.3151
C13 C 0.2941(3) 0.1405(3) 0.45881(18)
H11 H 0.2217 0.0863 0.4735
C14 C 0.3674(3) 0.1075(3) 0.38483(19)
H12 H 0.3434 0.0325 0.3474
C15 C 0.1515(2) 0.5964(3) 0.84803(17)
C16 C 0.1635(2) 0.7174(3) 0.79890(16)
C17 C 0.1241(2) 0.8411(3) 0.83506(18)
H13 H 0.1326 0.9225 0.8010
C18 C 0.0728(2) 0.8448(3) 0.9203(2)
H14 H 0.0454 0.9292 0.9445
C19 C 0.0604(2) 0.7274(3) 0.97126(19)
H15 H 0.0252 0.7306 1.0301
C20 C 0.1006(2) 0.6045(3) 0.93440(17)
H16 H 0.0930 0.5238 0.9693
C21 C 0.4217(2) 0.5549(2) 0.86241(15)
H17 H 0.3787 0.6347 0.8817
C22 C 0.5559(2) 0.5479(2) 0.87346(15)
C23 C 0.6314(2) 0.6667(2) 0.91866(16)
C24 C 0.5423(2) 0.7852(3) 0.94265(18)
H18 H 0.4773 0.7535 0.9848
H19 H 0.4994 0.8197 0.8871
H20 H 0.5935 0.8581 0.9713
C25 C 0.7330(2) 0.7263(3) 0.85442(19)
H21 H 0.6908 0.7521 0.7966
H22 H 0.7994 0.6577 0.8434
H23 H 0.7731 0.8066 0.8827
C26 C 0.6956(3) 0.6183(3) 1.00847(18)
H24 H 0.7419 0.6943 1.0375
H25 H 0.7565 0.5449 0.9961
H26 H 0.6293 0.5849 1.0491
C27 C 0.6160(2) 0.4291(2) 0.84301(15)
C28 C 0.6962(3) 0.1224(3) 0.8467(2)
H27 H 0.7373 0.0405 0.8230
H28 H 0.6411 0.0976 0.8971
H29 H 0.7628 0.1863 0.8683
C29 C 0.5156(2) 0.0818(3) 0.73687(19)
H30 H 0.4649 0.1182 0.6852
H31 H 0.4579 0.0585 0.7861
H32 H 0.5619 0.0002 0.7178
C30 C 0.1350(2) 0.2580(2) 0.71475(17)
C31 C 0.0057(2) 0.4666(3) 0.70212(16)
H33 H -0.0295 0.4262 0.6458
H34 H 0.0061 0.5658 0.6964
H35 H -0.0480 0.4402 0.7530
O4 O 0.15128(19) 0.9176(2) 0.60879(14)
H36 H 0.168(3) 1.005(4) 0.619(2)
C32 C -0.0775(3) 0.9093(3) 0.6446(2)
H37 H -0.0651 0.8298 0.6841
H38 H -0.1638 0.9061 0.6159
H39 H -0.0686 0.9924 0.6810
C33 C 0.0218(3) 0.9086(3) 0.5729(2)
H40 H 0.0127 0.8239 0.5370
H41 H 0.0054 0.9861 0.5313
loop_
_geom_bond_atom_site_label_1
_geom_bond_atom_site_label_2
_geom_bond_site_symmetry_1
_geom_bond_site_symmetry_2
S1 C7 1_555 1_555
O1 H1 1_555 1_555
O2 H2 1_555 1_555
O3 C30 1_555 1_555
N1 C8 1_555 1_555
C1 H3 1_555 1_555
H4 C1 1_555 1_555
H5 C1 1_555 1_555
C2 C1 1_555 1_555
C3 C2 1_555 1_555
C4 C3 1_555 1_555
H6 C4 1_555 1_555
C5 C4 1_555 1_555
C6 C5 1_555 1_555
H7 C6 1_555 1_555
C7 C6 1_555 1_555
C8 S1 1_555 1_555
C9 C8 1_555 1_555
C10 C9 1_555 1_555
H8 C10 1_555 1_555
C11 C10 1_555 1_555
H9 C11 1_555 1_555
C12 C11 1_555 1_555
H10 C12 1_555 1_555
C13 C9 1_555 1_555
H11 C13 1_555 1_555
C14 C12 1_555 1_555
H12 C14 1_555 1_555
C15 C6 1_555 1_555
C16 O1 1_555 1_555
C17 C16 1_555 1_555
H13 C17 1_555 1_555
C18 C17 1_555 1_555
H14 C18 1_555 1_555
C19 C18 1_555 1_555
H15 C19 1_555 1_555
C20 C15 1_555 1_555
H16 C20 1_555 1_555
C21 C5 1_555 1_555
H17 C21 1_555 1_555
C22 C21 1_555 1_555
C23 C22 1_555 1_555
C24 C23 1_555 1_555
H18 C24 1_555 1_555
H19 C24 1_555 1_555
H20 C24 1_555 1_555
C25 C23 1_555 1_555
H21 C25 1_555 1_555
H22 C25 1_555 1_555
H23 C25 1_555 1_555
C26 C23 1_555 1_555
H24 C26 1_555 1_555
H25 C26 1_555 1_555
H26 C26 1_555 1_555
C27 O2 1_555 1_555
C28 C2 1_555 1_555
H27 C28 1_555 1_555
H28 C28 1_555 1_555
H29 C28 1_555 1_555
C29 C2 1_555 1_555
H30 C29 1_555 1_555
H31 C29 1_555 1_555
H32 C29 1_555 1_555
C30 N1 1_555 1_555
C31 C7 1_555 1_555
H33 C31 1_555 1_555
H34 C31 1_555 1_555
H35 C31 1_555 1_555
O4 H36 1_555 1_555
C32 H37 1_555 1_555
H38 C32 1_555 1_555
H39 C32 1_555 1_555
C33 O4 1_555 1_555
H40 C33 1_555 1_555
H41 C33 1_555 1_555
C3 C27 1_555 1_555
C7 C30 1_555 1_555
C13 C14 1_555 1_555
C15 C16 1_555 1_555
C19 C20 1_555 1_555
C22 C27 1_555 1_555
C32 C33 1_555 1_555

#END
