
#######################################################################
#
#                 Cambridge Crystallographic Data Centre
#                                CCDC 
#
#######################################################################
#
# If this CIF has been generated from an entry in the Cambridge 
# Structural Database, then it will include bibliographic, chemical, 
# crystal, experimental, refinement or atomic coordinate data resulting 
# from the CCDC's data processing and validation procedures.
#
#######################################################################

data_UDOJIJ
_chemical_formula_moiety         'C29 H38 O4'
_chemical_name_systematic        
'10-hydroxy-2,4a,6a,9,12b,14a-hexamethyl-11-oxo-1,2,3,4,4a,5,6,6a,11,12b,13,14,14a,14b-tetradecahydropicene-2-carboxylic acid'
_symmetry_cell_setting           monoclinic
_symmetry_space_group_name_H-M   'P 21'
_symmetry_Int_Tables_number      4
_space_group_name_Hall           'P 2yb'
loop_
_symmetry_equiv_pos_site_id
_symmetry_equiv_pos_as_xyz
1 x,y,z
2 -x,1/2+y,-z
_cell_length_a                   6.85160(10)
_cell_length_b                   13.1533(2)
_cell_length_c                   13.6525(2)
_cell_angle_alpha                90
_cell_angle_beta                 99.6060(10)
_cell_angle_gamma                90
_cell_volume                     1213.13
_exptl_crystal_colour            red
_exptl_crystal_description       cubic
_cell_formula_units_Z            2
loop_
_atom_site_label
_atom_site_type_symbol
_atom_site_fract_x
_atom_site_fract_y
_atom_site_fract_z
O1 O -0.5862(2) 0.68218(12) 0.47780(14)
H1 H -0.638(4) 0.647(2) 0.423(2)
O2 O -0.0898(2) -0.02671(12) 0.69144(11)
H2 H -0.216(4) -0.022(2) 0.6752(18)
O3 O -0.5340(2) 0.50477(12) 0.39656(11)
O4 O -0.1777(2) -0.03489(13) 0.84173(11)
C1 C -0.4403(3) 0.62029(15) 0.52493(17)
C2 C -0.3325(3) 0.64411(16) 0.61358(18)
C3 C -0.1856(3) 0.57053(15) 0.65892(15)
C4 C -0.1438(3) 0.48001(15) 0.60508(14)
C5 C 0.0424(3) 0.41924(14) 0.64502(14)
C6 C 0.0315(3) 0.31135(15) 0.60191(15)
H3 H -0.1011 0.2851 0.6011
H4 H 0.0534 0.3149 0.5336
C7 C 0.1800(3) 0.23623(16) 0.65839(15)
H5 H 0.3128 0.2556 0.6499
H6 H 0.1541 0.1689 0.6303
C8 C 0.1692(3) 0.23258(15) 0.76979(14)
C9 C 0.3195(3) 0.15224(16) 0.82259(14)
H7 H 0.4467 0.1741 0.8059
C10 C 0.2959(3) 0.04184(15) 0.78230(15)
H8 H 0.2404 0.0461 0.7123
H9 H 0.4278 0.0136 0.7866
C11 C 0.1710(3) -0.03625(16) 0.82942(15)
C12 C -0.0495(3) -0.03037(15) 0.79128(16)
C13 C -0.4164(3) 0.52490(17) 0.47465(15)
C14 C -0.2583(3) 0.45794(17) 0.51713(14)
H10 H -0.2347 0.3988 0.4836
C15 C 0.0927(3) 0.42182(14) 0.75813(14)
C16 C 0.2285(3) 0.34061(14) 0.81480(15)
C17 C 0.2135(3) -0.02737(16) 0.94283(15)
H11 H 0.1150 -0.0663 0.9702
H12 H 0.3418 -0.0574 0.9671
C18 C 0.2124(3) 0.08111(16) 0.98063(15)
H13 H 0.2465 0.0804 1.0525
H14 H 0.0794 0.1082 0.9637
C19 C 0.3561(3) 0.15253(16) 0.93865(15)
C20 C 0.5686(3) 0.11437(18) 0.97602(17)
H15 H 0.5907 0.1104 1.0472
H16 H 0.6618 0.1607 0.9552
H17 H 0.5852 0.0482 0.9488
C21 C 0.3451(3) 0.25981(17) 0.98363(15)
H18 H 0.3068 0.2521 1.0485
H19 H 0.4774 0.2884 0.9940
C22 C 0.2057(3) 0.33700(15) 0.92508(15)
H20 H 0.2327 0.4039 0.9542
H21 H 0.0701 0.3195 0.9299
C23 C 0.2315(4) -0.14382(17) 0.79928(18)
H22 H 0.1547 -0.1939 0.8271
H23 H 0.3695 -0.1546 0.8239
H24 H 0.2076 -0.1496 0.7282
C24 C -0.0475(3) 0.21040(15) 0.77987(16)
H25 H -0.1259 0.2704 0.7634
H26 H -0.0537 0.1907 0.8470
H27 H -0.0977 0.1563 0.7355
C25 C 0.4455(3) 0.37149(17) 0.80930(17)
H28 H 0.4692 0.3637 0.7424
H29 H 0.5348 0.3287 0.8527
H30 H 0.4664 0.4411 0.8294
C26 C 0.0304(3) 0.50246(15) 0.80553(16)
H31 H 0.0702 0.5080 0.8738
C27 C -0.0944(3) 0.57963(16) 0.75499(16)
H32 H -0.1142 0.6388 0.7893
C28 C -0.3699(4) 0.7402(2) 0.6664(2)
H33 H -0.4450 0.7864 0.6203
H34 H -0.2458 0.7711 0.6940
H35 H -0.4428 0.7249 0.7188
C29 C 0.2102(3) 0.47902(18) 0.60311(16)
H36 H 0.1707 0.4897 0.5331
H37 H 0.3305 0.4402 0.6147
H38 H 0.2314 0.5435 0.6361
loop_
_geom_bond_atom_site_label_1
_geom_bond_atom_site_label_2
_geom_bond_site_symmetry_1
_geom_bond_site_symmetry_2
O1 H1 1_555 1_555
O2 H2 1_555 1_555
O3 C13 1_555 1_555
O4 C12 1_555 1_555
C1 O1 1_555 1_555
C2 C1 1_555 1_555
C3 C2 1_555 1_555
C4 C3 1_555 1_555
C5 C4 1_555 1_555
C6 C5 1_555 1_555
H3 C6 1_555 1_555
H4 C6 1_555 1_555
C7 C6 1_555 1_555
H5 C7 1_555 1_555
H6 C7 1_555 1_555
C8 C7 1_555 1_555
C9 C8 1_555 1_555
H7 C9 1_555 1_555
C10 C9 1_555 1_555
H8 C10 1_555 1_555
H9 C10 1_555 1_555
C11 C10 1_555 1_555
C12 O2 1_555 1_555
C13 C1 1_555 1_555
C14 C4 1_555 1_555
H10 C14 1_555 1_555
C15 C5 1_555 1_555
C16 C8 1_555 1_555
C17 C11 1_555 1_555
H11 C17 1_555 1_555
H12 C17 1_555 1_555
C18 C17 1_555 1_555
H13 C18 1_555 1_555
H14 C18 1_555 1_555
C19 C9 1_555 1_555
C20 C19 1_555 1_555
H15 C20 1_555 1_555
H16 C20 1_555 1_555
H17 C20 1_555 1_555
C21 C19 1_555 1_555
H18 C21 1_555 1_555
H19 C21 1_555 1_555
C22 C16 1_555 1_555
H20 C22 1_555 1_555
H21 C22 1_555 1_555
C23 C11 1_555 1_555
H22 C23 1_555 1_555
H23 C23 1_555 1_555
H24 C23 1_555 1_555
C24 C8 1_555 1_555
H25 C24 1_555 1_555
H26 C24 1_555 1_555
H27 C24 1_555 1_555
C25 C16 1_555 1_555
H28 C25 1_555 1_555
H29 C25 1_555 1_555
H30 C25 1_555 1_555
C26 C15 1_555 1_555
H31 C26 1_555 1_555
C27 C3 1_555 1_555
H32 C27 1_555 1_555
C28 C2 1_555 1_555
H33 C28 1_555 1_555
H34 C28 1_555 1_555
H35 C28 1_555 1_555
C29 C5 1_555 1_555
H36 C29 1_555 1_555
H37 C29 1_555 1_555
H38 C29 1_555 1_555
C11 C12 1_555 1_555
C13 C14 1_555 1_555
C15 C16 1_555 1_555
C18 C19 1_555 1_555
C21 C22 1_555 1_555
C26 C27 1_555 1_555

#END
