
#######################################################################
#
#                 Cambridge Crystallographic Data Centre
#                                CCDC 
#
#######################################################################
#
# If this CIF has been generated from an entry in the Cambridge 
# Structural Database, then it will include bibliographic, chemical, 
# crystal, experimental, refinement or atomic coordinate data resulting 
# from the CCDC's data processing and validation procedures.
#
#######################################################################

data_UDOXAN01
_chemical_formula_moiety         'C33 H37 N1 O12'
_chemical_name_systematic        
cis-5,8,11,14,21,24,27,30,34,42-decaoxa-44-azapentacyclo[16.14.11.1^36,40^.0^4,31^.0^15,20^]tetratetraconta-1,3,15,17,19,31,36(44),37,39-nonaene-35,41-dione
_symmetry_cell_setting           monoclinic
_symmetry_space_group_name_H-M   'P 21/n'
_symmetry_Int_Tables_number      14
_space_group_name_Hall           '-P 2yn'
loop_
_symmetry_equiv_pos_site_id
_symmetry_equiv_pos_as_xyz
1 x,y,z
2 1/2-x,1/2+y,1/2-z
3 -x,-y,-z
4 1/2+x,1/2-y,1/2+z
_cell_length_a                   18.588(3)
_cell_length_b                   7.3111(11)
_cell_length_c                   23.438(4)
_cell_angle_alpha                90
_cell_angle_beta                 109.717(15)
_cell_angle_gamma                90
_cell_volume                     2998.45
_exptl_crystal_colour            colorless
_exptl_crystal_description       plate
_cell_formula_units_Z            4
_exptl_crystal_recrystallization_method pentane/acetone
loop_
_atom_site_label
_atom_site_type_symbol
_atom_site_fract_x
_atom_site_fract_y
_atom_site_fract_z
O1 O 0.03872(16) 0.8862(4) 0.88472(12)
O2 O -0.09702(16) 0.8436(4) 0.77568(12)
O3 O -0.18049(16) 0.5519(4) 0.69162(13)
O4 O 0.01629(16) 0.4334(4) 0.77620(12)
O5 O 0.05585(16) 0.7977(4) 0.99694(12)
O6 O 0.12989(15) 0.5319(4) 1.09921(12)
O7 O 0.21833(15) 0.3440(4) 1.03931(12)
O8 O 0.12977(15) 0.3869(4) 0.87850(12)
O9 O 0.38771(16) 0.7421(4) 1.02045(13)
O10 O 0.49284(17) 0.8476(4) 1.09242(14)
O11 O 0.37062(16) 0.5615(4) 0.83601(12)
O12 O 0.47223(17) 0.5314(4) 0.80444(14)
N1 N 0.45792(19) 0.6825(4) 0.94403(15)
C1 C 0.1123(2) 0.8605(5) 0.92258(18)
C2 C 0.1222(2) 0.8166(5) 0.98349(18)
C3 C 0.1948(2) 0.7949(5) 1.02443(18)
H1 H 0.2011 0.7641 1.0652
C4 C 0.2597(2) 0.8172(6) 1.0073(2)
C5 C 0.2504(2) 0.8573(5) 0.94779(18)
H2 H 0.2939 0.8699 0.9356
C6 C 0.1764(2) 0.8798(5) 0.90482(19)
H3 H 0.1704 0.9080 0.8639
C7 C 0.0889(2) 0.4498(5) 0.77387(19)
C8 C 0.1501(2) 0.4266(5) 0.82853(19)
C9 C 0.2244(2) 0.4467(5) 0.82934(19)
H4 H 0.2653 0.4331 0.8666
C10 C 0.2410(2) 0.4865(5) 0.77672(18)
C11 C 0.1805(3) 0.5097(6) 0.72302(19)
H5 H 0.1905 0.5365 0.6867
C12 C 0.1044(3) 0.4938(6) 0.7217(2)
H6 H 0.0635 0.5135 0.6848
C13 C 0.0311(2) 0.9543(6) 0.82545(18)
H7 H 0.0478 0.8593 0.8025
H8 H 0.0642 1.0629 0.8292
C14 C -0.0506(2) 1.0051(6) 0.7921(2)
H9 H -0.0699 1.0840 0.8181
H10 H -0.0539 1.0749 0.7551
C15 C -0.1626(3) 0.8724(6) 0.7243(2)
H11 H -0.1473 0.8999 0.6886
H12 H -0.1919 0.9780 0.7313
C16 C -0.2117(2) 0.7035(6) 0.7123(2)
H13 H -0.2207 0.6687 0.7502
H14 H -0.2618 0.7332 0.6817
C17 C -0.1185(2) 0.4631(6) 0.7370(2)
H15 H -0.1294 0.3307 0.7376
H16 H -0.1129 0.5143 0.7774
C18 C -0.0447(2) 0.4907(6) 0.72369(19)
H17 H -0.0453 0.4171 0.6881
H18 H -0.0385 0.6211 0.7150
C19 C 0.0578(2) 0.8025(6) 1.05861(18)
H19 H 0.0132 0.8728 1.0606
H20 H 0.1045 0.8682 1.0834
C20 C 0.0570(2) 0.6176(6) 1.08553(19)
H21 H 0.0441 0.6296 1.1230
H22 H 0.0174 0.5409 1.0566
C21 C 0.1287(2) 0.3382(5) 1.09688(19)
H23 H 0.0845 0.2961 1.0621
H24 H 0.1233 0.2881 1.1345
C22 C 0.2014(2) 0.2717(6) 1.09012(17)
H25 H 0.2442 0.3026 1.1275
H26 H 0.1991 0.1367 1.0867
C23 C 0.1575(2) 0.3308(6) 0.98332(18)
H27 H 0.1173 0.4218 0.9814
H28 H 0.1345 0.2071 0.9782
C24 C 0.1920(2) 0.3681(6) 0.93470(17)
H29 H 0.2227 0.4818 0.9440
H30 H 0.2257 0.2658 0.9322
C25 C 0.3382(2) 0.7878(6) 1.0537(2)
H31 H 0.3561 0.9004 1.0778
H32 H 0.3369 0.6872 1.0817
C26 C 0.4607(3) 0.7864(6) 1.0428(2)
C27 C 0.3216(2) 0.5019(6) 0.77710(18)
H33 H 0.3391 0.3818 0.7674
H34 H 0.3239 0.5908 0.7459
C28 C 0.4445(2) 0.5766(5) 0.8426(2)
C29 C 0.5013(2) 0.7437(5) 0.99867(19)
C30 C 0.5791(2) 0.7771(6) 1.0135(2)
H35 H 0.6078 0.8249 1.0522
C31 C 0.6138(2) 0.7403(6) 0.9717(2)
H36 H 0.6670 0.7614 0.9810
C32 C 0.5703(2) 0.6721(6) 0.9156(2)
H37 H 0.5929 0.6435 0.8859
C33 C 0.4928(2) 0.6465(5) 0.90406(19)
loop_
_geom_bond_atom_site_label_1
_geom_bond_atom_site_label_2
_geom_bond_site_symmetry_1
_geom_bond_site_symmetry_2
O1 C1 1_555 1_555
O2 C14 1_555 1_555
O3 C16 1_555 1_555
O4 C7 1_555 1_555
O5 C2 1_555 1_555
O6 C20 1_555 1_555
O7 C22 1_555 1_555
O8 C8 1_555 1_555
O9 C25 1_555 1_555
O10 C26 1_555 1_555
O11 C27 1_555 1_555
O12 C28 1_555 1_555
N1 C29 1_555 1_555
C1 C2 1_555 1_555
C2 C3 1_555 1_555
C3 H1 1_555 1_555
C4 C3 1_555 1_555
C5 C4 1_555 1_555
H2 C5 1_555 1_555
C6 C1 1_555 1_555
H3 C6 1_555 1_555
C7 C8 1_555 1_555
C8 C9 1_555 1_555
C9 H4 1_555 1_555
C10 C9 1_555 1_555
C11 C10 1_555 1_555
H5 C11 1_555 1_555
C12 C7 1_555 1_555
H6 C12 1_555 1_555
C13 O1 1_555 1_555
H7 C13 1_555 1_555
H8 C13 1_555 1_555
C14 C13 1_555 1_555
H9 C14 1_555 1_555
H10 C14 1_555 1_555
C15 O2 1_555 1_555
H11 C15 1_555 1_555
H12 C15 1_555 1_555
C16 C15 1_555 1_555
H13 C16 1_555 1_555
H14 C16 1_555 1_555
C17 O3 1_555 1_555
H15 C17 1_555 1_555
H16 C17 1_555 1_555
C18 O4 1_555 1_555
H17 C18 1_555 1_555
H18 C18 1_555 1_555
C19 O5 1_555 1_555
H19 C19 1_555 1_555
H20 C19 1_555 1_555
C20 C19 1_555 1_555
H21 C20 1_555 1_555
H22 C20 1_555 1_555
C21 O6 1_555 1_555
H23 C21 1_555 1_555
H24 C21 1_555 1_555
C22 C21 1_555 1_555
H25 C22 1_555 1_555
H26 C22 1_555 1_555
C23 O7 1_555 1_555
H27 C23 1_555 1_555
H28 C23 1_555 1_555
C24 O8 1_555 1_555
H29 C24 1_555 1_555
H30 C24 1_555 1_555
C25 C4 1_555 1_555
H31 C25 1_555 1_555
H32 C25 1_555 1_555
C26 O9 1_555 1_555
C27 C10 1_555 1_555
H33 C27 1_555 1_555
H34 C27 1_555 1_555
C28 O11 1_555 1_555
C29 C26 1_555 1_555
C30 C29 1_555 1_555
H35 C30 1_555 1_555
C31 C30 1_555 1_555
H36 C31 1_555 1_555
C32 C31 1_555 1_555
H37 C32 1_555 1_555
C33 N1 1_555 1_555
C5 C6 1_555 1_555
C11 C12 1_555 1_555
C17 C18 1_555 1_555
C23 C24 1_555 1_555
C28 C33 1_555 1_555
C32 C33 1_555 1_555

#END
