
#######################################################################
#
#                 Cambridge Crystallographic Data Centre
#                                CCDC 
#
#######################################################################
#
# If this CIF has been generated from an entry in the Cambridge 
# Structural Database, then it will include bibliographic, chemical, 
# crystal, experimental, refinement or atomic coordinate data resulting 
# from the CCDC's data processing and validation procedures.
#
#######################################################################

data_UDUDIH
_chemical_formula_moiety         'C60 H60 Cl6 O6'
_chemical_name_systematic        
1,2,7,8,13,14-hexabutoxy-4,5,10,11,16,17-hexachlorotribenzeno[a,g,m]coronene
_symmetry_cell_setting           monoclinic
_symmetry_space_group_name_H-M   'P 21/c'
_symmetry_Int_Tables_number      14
_space_group_name_Hall           '-P 2ybc'
loop_
_symmetry_equiv_pos_site_id
_symmetry_equiv_pos_as_xyz
1 x,y,z
2 -x,1/2+y,1/2-z
3 -x,-y,-z
4 x,1/2-y,1/2+z
_cell_length_a                   13.2555(16)
_cell_length_b                   12.7977(15)
_cell_length_c                   30.540(4)
_cell_angle_alpha                90
_cell_angle_beta                 93.4440(10)
_cell_angle_gamma                90
_cell_volume                     5171.45
_exptl_crystal_colour            yellow
_exptl_crystal_description       block
_cell_formula_units_Z            4
_exptl_crystal_recrystallization_method cyclohexane
loop_
_atom_site_label
_atom_site_type_symbol
_atom_site_fract_x
_atom_site_fract_y
_atom_site_fract_z
Cl1 Cl 1.06031(3) 0.74960(4) 0.177671(17)
Cl2 Cl 0.94885(3) 0.94020(4) 0.221827(14)
Cl3 Cl 0.22491(3) 1.27638(3) 0.086217(14)
Cl4 Cl 0.12488(3) 1.20075(3) -0.005840(14)
Cl5 Cl 0.41835(3) 0.42439(3) -0.161689(13)
Cl6 Cl 0.60862(3) 0.30642(3) -0.116178(14)
O1 O 0.58812(8) 0.92628(9) 0.19331(3)
O2 O 0.43213(8) 1.02694(9) 0.15669(4)
O3 O 0.27848(8) 0.91571(9) -0.07039(3)
O4 O 0.34258(8) 0.74632(9) -0.10377(3)
O5 O 0.76258(8) 0.46699(9) 0.00662(4)
O6 O 0.85478(8) 0.55268(9) 0.07568(4)
C1 C 0.93612(12) 0.78120(15) 0.16203(6)
C2 C 0.88680(12) 0.86137(15) 0.18259(5)
C3 C 0.78713(12) 0.88219(14) 0.17068(5)
H1 H 0.7536 0.9371 0.1848
C4 C 0.73399(11) 0.82339(13) 0.13784(5)
C5 C 0.63106(11) 0.85149(12) 0.12336(5)
C6 C 0.56823(12) 0.91080(13) 0.14903(5)
C7 C 0.48423(11) 0.96151(12) 0.12998(5)
C8 C 0.45796(11) 0.95180(12) 0.08463(5)
C9 C 0.38092(11) 1.01608(12) 0.06166(5)
C10 C 0.34415(12) 1.10795(12) 0.08084(5)
H2 H 0.3727 1.1299 0.1086
C11 C 0.26827(12) 1.16630(13) 0.06039(5)
C12 C 0.22746(12) 1.13577(13) 0.01928(5)
C13 C 0.26845(11) 1.05252(12) -0.00176(5)
H3 H 0.2443 1.0367 -0.0309
C14 C 0.34531(11) 0.98963(12) 0.01847(5)
C15 C 0.38689(11) 0.89782(12) -0.00312(5)
C16 C 0.35106(11) 0.86235(12) -0.04489(5)
C17 C 0.38787(11) 0.77250(12) -0.06338(5)
C18 C 0.46376(11) 0.71077(12) -0.04186(5)
C19 C 0.49749(11) 0.61097(12) -0.05948(5)
C20 C 0.44801(12) 0.56467(13) -0.09690(5)
H4 H 0.3903 0.5983 -0.1104
C21 C 0.48059(12) 0.47279(13) -0.11444(5)
C22 C 0.56261(12) 0.42049(12) -0.09403(5)
C23 C 0.60902(11) 0.46036(12) -0.05620(5)
H5 H 0.6623 0.4218 -0.0416
C24 C 0.58010(11) 0.55684(12) -0.03825(5)
C25 C 0.63197(11) 0.60177(12) 0.00096(5)
C26 C 0.72050(11) 0.55744(13) 0.02181(5)
C27 C 0.76735(11) 0.60108(13) 0.05915(5)
C28 C 0.73133(11) 0.69182(13) 0.07842(5)
C29 C 0.78473(11) 0.74483(13) 0.11552(5)
C30 C 0.88686(12) 0.72512(14) 0.12852(6)
H6 H 0.9224 0.6723 0.1140
C31 C 0.64098(11) 0.73644(12) 0.05916(5)
C32 C 0.59331(11) 0.82151(12) 0.08101(5)
C33 C 0.50683(11) 0.87245(12) 0.06131(5)
C34 C 0.46775(11) 0.84044(12) 0.01821(5)
C35 C 0.50727(11) 0.74846(12) -0.00128(5)
C36 C 0.59343(11) 0.69428(12) 0.01981(5)
C37 C 0.58466(13) 0.83269(13) 0.21986(5)
H7 H 0.6401 0.7846 0.2131
H8 H 0.5195 0.7960 0.2140
C38 C 0.59628(13) 0.86698(14) 0.26727(5)
H9 H 0.5818 0.8068 0.2863
H10 H 0.5456 0.9218 0.2723
C39 C 0.70076(13) 0.90905(15) 0.28073(6)
H11 H 0.7190 0.9638 0.2597
H12 H 0.7508 0.8519 0.2794
C40 C 0.70574(16) 0.95479(16) 0.32684(6)
H13 H 0.6610 1.0156 0.3276
H14 H 0.7753 0.9762 0.3351
H15 H 0.6842 0.9020 0.3475
C41 C 0.35608(12) 0.97683(13) 0.18103(6)
H16 H 0.3867 0.9206 0.1997
H17 H 0.3034 0.9456 0.1607
C42 C 0.31002(12) 1.05924(13) 0.20925(5)
H18 H 0.2778 1.1137 0.1901
H19 H 0.3643 1.0930 0.2279
C43 C 0.23159(12) 1.01400(14) 0.23836(6)
H20 H 0.2652 0.9643 0.2593
H21 H 0.1808 0.9745 0.2199
C44 C 0.17779(13) 1.09737(15) 0.26385(6)
H22 H 0.2272 1.1344 0.2833
H23 H 0.1271 1.0643 0.2813
H24 H 0.1445 1.1471 0.2433
C45 C 0.17710(11) 0.87584(13) -0.06655(5)
H25 H 0.1568 0.8842 -0.0361
H26 H 0.1744 0.8006 -0.0741
C46 C 0.10654(11) 0.93699(13) -0.09774(5)
H27 H 0.1191 0.9175 -0.1283
H28 H 0.1206 1.0126 -0.0942
C47 C -0.00379(12) 0.91596(15) -0.08933(6)
H29 H -0.0185 0.9447 -0.0603
H30 H -0.0152 0.8395 -0.0885
C48 C -0.07640(13) 0.96443(15) -0.12446(6)
H31 H -0.0643 1.0399 -0.1259
H32 H -0.1462 0.9517 -0.1170
H33 H -0.0652 0.9328 -0.1530
C49 C 0.38867(13) 0.79449(14) -0.14032(5)
H34 H 0.4559 0.7634 -0.1442
H35 H 0.3972 0.8705 -0.1352
C50 C 0.31907(14) 0.77518(15) -0.18060(6)
H36 H 0.3053 0.6993 -0.1831
H37 H 0.2539 0.8109 -0.1768
C51 C 0.36121(14) 0.81276(16) -0.22267(6)
H38 H 0.4234 0.7731 -0.2280
H39 H 0.3796 0.8875 -0.2196
C52 C 0.28528(17) 0.79922(17) -0.26187(6)
H40 H 0.2651 0.7257 -0.2644
H41 H 0.3164 0.8209 -0.2887
H42 H 0.2256 0.8424 -0.2577
C53 C 0.85714(14) 0.47908(15) -0.01426(7)
H43 H 0.9117 0.4792 0.0079
H44 H 0.8572 0.5453 -0.0290
C54 C 0.8739(3) 0.3971(3) -0.04535(14)
H45 H 0.9437 0.4027 -0.0549
H46 H 0.8270 0.4069 -0.0715
C55 C 0.8586(3) 0.2887(3) -0.02686(15)
H47 H 0.7895 0.2835 -0.0164
H48 H 0.9073 0.2775 -0.0014
C56 C 0.8731(12) 0.2040(8) -0.0610(3)
H49 H 0.8257 0.2154 -0.0864
H50 H 0.8604 0.1353 -0.0481
H51 H 0.9425 0.2066 -0.0703
C57 C 0.83744(12) 0.47054(14) 0.10681(6)
H52 H 0.7968 0.4139 0.0924
H53 H 0.8001 0.4984 0.1314
C58 C 0.93906(12) 0.42892(14) 0.12366(6)
H54 H 0.9803 0.4870 0.1365
H55 H 0.9748 0.3997 0.0989
C59 C 0.92799(13) 0.34460(14) 0.15813(6)
H56 H 0.8919 0.3742 0.1827
H57 H 0.8862 0.2871 0.1451
C60 C 1.02852(15) 0.30038(17) 0.17598(7)
H58 H 1.0640 0.2692 0.1519
H59 H 1.0166 0.2468 0.1980
H60 H 1.0698 0.3566 0.1895
H61? H 0.9046 0.5169 0.0047
H62? H 0.8468 0.5168 -0.0413
C61? C 0.8973(3) 0.3680(4) -0.02274(19)
H63? H 0.9588 0.3757 -0.0393
H64? H 0.9191 0.3377 0.0061
C62? C 0.8301(4) 0.2876(4) -0.0468(2)
H65? H 0.8055 0.3175 -0.0754
H66? H 0.7705 0.2749 -0.0296
C63? C 0.8809(14) 0.1826(10) -0.0552(4)
H67? H 0.9353 0.1928 -0.0751
H68? H 0.8309 0.1339 -0.0684
H69? H 0.9092 0.1539 -0.0273
loop_
_geom_bond_atom_site_label_1
_geom_bond_atom_site_label_2
_geom_bond_site_symmetry_1
_geom_bond_site_symmetry_2
Cl1 C1 1_555 1_555
Cl2 C2 1_555 1_555
Cl3 C11 1_555 1_555
Cl4 C12 1_555 1_555
Cl5 C21 1_555 1_555
Cl6 C22 1_555 1_555
O1 C6 1_555 1_555
O2 C7 1_555 1_555
O3 C16 1_555 1_555
O4 C17 1_555 1_555
O5 C26 1_555 1_555
O6 C27 1_555 1_555
C1 C2 1_555 1_555
C2 C3 1_555 1_555
C3 H1 1_555 1_555
C4 C3 1_555 1_555
C5 C4 1_555 1_555
C6 C5 1_555 1_555
C7 C6 1_555 1_555
C8 C7 1_555 1_555
C9 C8 1_555 1_555
C10 C9 1_555 1_555
H2 C10 1_555 1_555
C11 C10 1_555 1_555
C12 C11 1_555 1_555
C13 C12 1_555 1_555
H3 C13 1_555 1_555
C14 C9 1_555 1_555
C15 C14 1_555 1_555
C16 C15 1_555 1_555
C17 C16 1_555 1_555
C18 C17 1_555 1_555
C19 C18 1_555 1_555
C20 C19 1_555 1_555
H4 C20 1_555 1_555
C21 C20 1_555 1_555
C22 C21 1_555 1_555
C23 C22 1_555 1_555
H5 C23 1_555 1_555
C24 C19 1_555 1_555
C25 C24 1_555 1_555
C26 C25 1_555 1_555
C27 C26 1_555 1_555
C28 C27 1_555 1_555
C29 C4 1_555 1_555
C30 C1 1_555 1_555
H6 C30 1_555 1_555
C31 C28 1_555 1_555
C32 C5 1_555 1_555
C33 C8 1_555 1_555
C34 C15 1_555 1_555
C35 C18 1_555 1_555
C36 C25 1_555 1_555
C37 O1 1_555 1_555
H7 C37 1_555 1_555
H8 C37 1_555 1_555
C38 C37 1_555 1_555
H9 C38 1_555 1_555
H10 C38 1_555 1_555
C39 C38 1_555 1_555
H11 C39 1_555 1_555
H12 C39 1_555 1_555
C40 C39 1_555 1_555
H13 C40 1_555 1_555
H14 C40 1_555 1_555
H15 C40 1_555 1_555
C41 O2 1_555 1_555
H16 C41 1_555 1_555
H17 C41 1_555 1_555
C42 C41 1_555 1_555
H18 C42 1_555 1_555
H19 C42 1_555 1_555
C43 C42 1_555 1_555
H20 C43 1_555 1_555
H21 C43 1_555 1_555
C44 C43 1_555 1_555
H22 C44 1_555 1_555
H23 C44 1_555 1_555
H24 C44 1_555 1_555
C45 O3 1_555 1_555
H25 C45 1_555 1_555
H26 C45 1_555 1_555
C46 C45 1_555 1_555
H27 C46 1_555 1_555
H28 C46 1_555 1_555
C47 C46 1_555 1_555
H29 C47 1_555 1_555
H30 C47 1_555 1_555
C48 C47 1_555 1_555
H31 C48 1_555 1_555
H32 C48 1_555 1_555
H33 C48 1_555 1_555
C49 O4 1_555 1_555
H34 C49 1_555 1_555
H35 C49 1_555 1_555
C50 C49 1_555 1_555
H36 C50 1_555 1_555
H37 C50 1_555 1_555
C51 C50 1_555 1_555
H38 C51 1_555 1_555
H39 C51 1_555 1_555
C52 C51 1_555 1_555
H40 C52 1_555 1_555
H41 C52 1_555 1_555
H42 C52 1_555 1_555
C53 O5 1_555 1_555
H43 C53 1_555 1_555
H44 C53 1_555 1_555
C54 C53 1_555 1_555
H45 C54 1_555 1_555
H46 C54 1_555 1_555
C55 C54 1_555 1_555
H47 C55 1_555 1_555
H48 C55 1_555 1_555
C56 C55 1_555 1_555
H49 C56 1_555 1_555
H50 C56 1_555 1_555
H51 C56 1_555 1_555
C57 O6 1_555 1_555
H52 C57 1_555 1_555
H53 C57 1_555 1_555
C58 C57 1_555 1_555
H54 C58 1_555 1_555
H55 C58 1_555 1_555
C59 C58 1_555 1_555
H56 C59 1_555 1_555
H57 C59 1_555 1_555
C60 C59 1_555 1_555
H58 C60 1_555 1_555
H59 C60 1_555 1_555
H60 C60 1_555 1_555
C13 C14 1_555 1_555
C23 C24 1_555 1_555
C28 C29 1_555 1_555
C29 C30 1_555 1_555
C31 C32 1_555 1_555
C31 C36 1_555 1_555
C32 C33 1_555 1_555
C33 C34 1_555 1_555
C34 C35 1_555 1_555
C35 C36 1_555 1_555

#END
