
#######################################################################
#
#                 Cambridge Crystallographic Data Centre
#                                CCDC 
#
#######################################################################
#
# If this CIF has been generated from an entry in the Cambridge 
# Structural Database, then it will include bibliographic, chemical, 
# crystal, experimental, refinement or atomic coordinate data resulting 
# from the CCDC's data processing and validation procedures.
#
#######################################################################

data_UDUPIT
_chemical_formula_moiety         'C15 H8 Br1 N1 O4,C3 H7 N1 O1'
_chemical_name_systematic        
'4-(5-Bromo-1,3-dioxoisoindolin-2-yl)benzoic acid N,N-dimethylformamide solvate'
_symmetry_cell_setting           triclinic
_symmetry_space_group_name_H-M   'P -1'
_symmetry_Int_Tables_number      2
_space_group_name_Hall           '-P 1'
loop_
_symmetry_equiv_pos_site_id
_symmetry_equiv_pos_as_xyz
1 x,y,z
2 -x,-y,-z
_cell_length_a                   5.9686(9)
_cell_length_b                   8.3214(12)
_cell_length_c                   19.058(3)
_cell_angle_alpha                101.231(2)
_cell_angle_beta                 93.417(3)
_cell_angle_gamma                107.273(2)
_cell_volume                     879.562
_exptl_crystal_colour            colorless
_exptl_crystal_description       block
_cell_formula_units_Z            2
loop_
_atom_site_label
_atom_site_type_symbol
_atom_site_fract_x
_atom_site_fract_y
_atom_site_fract_z
Br1 Br -0.43214(7) 0.20856(4) 0.48540(2)
O1 O -0.1509(4) 0.8323(3) 0.37081(13)
O2 O 0.3821(4) 0.5901(3) 0.26776(14)
O3 O 0.7047(4) 1.3643(3) 0.17597(14)
H1 H 0.7489 1.4260 0.1475
O4 O 0.3495(4) 1.3123(3) 0.11588(13)
N1 N 0.1307(4) 0.7455(3) 0.30854(14)
C1 C -0.0493(5) 0.7278(4) 0.35266(16)
C2 C -0.0781(5) 0.5619(4) 0.37446(16)
C3 C -0.2363(5) 0.4823(4) 0.41681(17)
H2 H -0.3506 0.5283 0.4351
C4 C -0.2140(6) 0.3285(4) 0.43040(17)
C5 C -0.0431(6) 0.2596(4) 0.40437(17)
H3 H -0.0324 0.1581 0.4156
C6 C 0.1121(6) 0.3415(4) 0.36169(17)
H4 H 0.2279 0.2968 0.3438
C7 C 0.0890(5) 0.4929(4) 0.34652(16)
C8 C 0.2262(6) 0.6062(4) 0.30239(18)
C9 C 0.2166(5) 0.8872(4) 0.27445(16)
C10 C 0.0590(5) 0.9331(4) 0.23213(16)
H5 H -0.1025 0.8760 0.2275
C11 C 0.1456(5) 1.0653(4) 0.19680(16)
H6 H 0.0410 1.0969 0.1684
C12 C 0.3859(5) 1.1507(4) 0.20329(15)
C13 C 0.5403(5) 1.1039(4) 0.24672(17)
H7 H 0.7019 1.1609 0.2517
C14 C 0.4556(5) 0.9732(4) 0.28260(17)
H8 H 0.5595 0.9436 0.3121
C15 C 0.4749(5) 1.2844(4) 0.16040(17)
O5 O -0.1165(4) 0.5819(3) 0.09856(14)
N2 N 0.2246(4) 0.7231(4) 0.06190(15)
C16 C 0.0984(6) 0.6147(4) 0.09704(18)
H9 H 0.1766 0.5586 0.1226
C17 C 0.1156(6) 0.8105(5) 0.0182(2)
H10 H -0.0530 0.7689 0.0173
H11 H 0.1554 0.7881 -0.0300
H12 H 0.1721 0.9325 0.0384
C18 C 0.4768(7) 0.7532(7) 0.0622(3)
H13 H 0.5272 0.6866 0.0920
H14 H 0.5599 0.8736 0.0808
H15 H 0.5102 0.7193 0.0138
loop_
_geom_bond_atom_site_label_1
_geom_bond_atom_site_label_2
_geom_bond_site_symmetry_1
_geom_bond_site_symmetry_2
Br1 C4 1_555 1_555
O1 C1 1_555 1_555
O2 C8 1_555 1_555
O3 H1 1_555 1_555
O4 C15 1_555 1_555
N1 C1 1_555 1_555
C1 C2 1_555 1_555
C2 C3 1_555 1_555
C3 H2 1_555 1_555
C4 C3 1_555 1_555
C5 C4 1_555 1_555
H3 C5 1_555 1_555
C6 C5 1_555 1_555
H4 C6 1_555 1_555
C7 C2 1_555 1_555
C8 N1 1_555 1_555
C9 N1 1_555 1_555
C10 C9 1_555 1_555
H5 C10 1_555 1_555
C11 C10 1_555 1_555
H6 C11 1_555 1_555
C12 C11 1_555 1_555
C13 C12 1_555 1_555
H7 C13 1_555 1_555
C14 C9 1_555 1_555
H8 C14 1_555 1_555
C15 O3 1_555 1_555
O5 C16 1_555 1_555
N2 C16 1_555 1_555
C16 H9 1_555 1_555
C17 N2 1_555 1_555
H10 C17 1_555 1_555
H11 C17 1_555 1_555
H12 C17 1_555 1_555
C18 N2 1_555 1_555
H13 C18 1_555 1_555
H14 C18 1_555 1_555
H15 C18 1_555 1_555
C6 C7 1_555 1_555
C7 C8 1_555 1_555
C12 C15 1_555 1_555
C13 C14 1_555 1_555

#END
