
#######################################################################
#
#                 Cambridge Crystallographic Data Centre
#                                CCDC 
#
#######################################################################
#
# If this CIF has been generated from an entry in the Cambridge 
# Structural Database, then it will include bibliographic, chemical, 
# crystal, experimental, refinement or atomic coordinate data resulting 
# from the CCDC's data processing and validation procedures.
#
#######################################################################

data_UDUSAN
_chemical_compound_source        'Aglaia cordata'
_chemical_formula_moiety         'C26 H32 O9'
_chemical_name_systematic        'Aglacin A'
_chemical_properties_biological  'no cytotoxic or insecticidal activity'
_symmetry_cell_setting           orthorhombic
_symmetry_space_group_name_H-M   'P 21 21 21'
_symmetry_Int_Tables_number      19
_space_group_name_Hall           'P 2ac 2ab'
loop_
_symmetry_equiv_pos_site_id
_symmetry_equiv_pos_as_xyz
1 x,y,z
2 1/2-x,-y,1/2+z
3 -x,1/2+y,1/2-z
4 1/2+x,1/2-y,-z
_cell_length_a                   9.5896(6)
_cell_length_b                   12.3842(11)
_cell_length_c                   21.1146(14)
_cell_angle_alpha                90
_cell_angle_beta                 90
_cell_angle_gamma                90
_cell_volume                     2507.56
_exptl_crystal_colour            colorless
_exptl_crystal_description       prism
_chemical_melting_point          155-156deg.C
_cell_formula_units_Z            4
_exptl_crystal_recrystallization_method methanol
loop_
_atom_site_label
_atom_site_type_symbol
_atom_site_fract_x
_atom_site_fract_y
_atom_site_fract_z
O1 O 0.0623(2) -0.14026(11) -0.08630(8)
O2 O 0.15885(14) -0.80957(10) -0.06013(6)
O3 O 0.01586(14) -0.79449(9) -0.17269(5)
O4 O -0.09721(13) -0.60084(9) -0.20963(5)
O5 O 0.00585(12) -0.40029(10) 0.02831(5)
O6 O 0.1470(2) -0.48330(19) 0.09682(8)
O7 O -0.48055(16) -0.31253(16) -0.27734(7)
O8 O -0.65507(14) -0.38580(13) -0.18931(7)
O9 O -0.56357(13) -0.47392(13) -0.08213(6)
C1 C 0.06294(16) -0.51979(13) -0.06048(7)
C2 C 0.11594(17) -0.61874(13) -0.04044(7)
H1 H 0.1641 -0.6221 -0.0023
C3 C 0.09920(17) -0.71188(13) -0.07539(7)
C4 C 0.02244(17) -0.70811(13) -0.13202(7)
C5 C -0.03416(17) -0.60947(13) -0.15121(7)
C6 C -0.01622(15) -0.51385(13) -0.11646(7)
C7 C 0.10382(18) -0.41942(14) -0.02372(8)
H2 H 0.1981 -0.4285 -0.0066
C8 C 0.10081(19) -0.32300(14) -0.06710(8)
H3 H 0.1707 -0.3343 -0.1003
C9 C 0.1206(3) -0.21016(16) -0.04061(10)
H4 H 0.0729 -0.2026 -0.0003
H5 H 0.2188 -0.1946 -0.0345
C10 C 0.2670(2) -0.81049(18) -0.01411(11)
H6 H 0.3055 -0.8819 -0.0111
H7 H 0.2297 -0.7896 0.0263
H8 H 0.3388 -0.7607 -0.0264
C11 C -0.0419(3) -0.89345(16) -0.14904(11)
H9 H -0.0493 -0.9447 -0.1830
H10 H -0.1328 -0.8799 -0.1317
H11 H 0.0177 -0.9220 -0.1166
C12 C -0.2217(2) -0.66320(18) -0.21924(11)
H12 H -0.2928 -0.6181 -0.2373
H13 H -0.2535 -0.6911 -0.1793
H14 H -0.2022 -0.7221 -0.2475
C13 C 0.0427(2) -0.43207(18) 0.08625(9)
C14 C -0.0633(3) -0.4012(2) 0.13490(9)
H15 H -0.0434 -0.4379 0.1739
H16 H -0.1545 -0.4212 0.1203
H17 H -0.0600 -0.3246 0.1417
C15 C -0.22755(17) -0.40822(13) -0.15828(8)
C16 C -0.27796(18) -0.36332(14) -0.21379(8)
H18 H -0.2159 -0.3376 -0.2441
C17 C -0.4204(2) -0.35642(16) -0.22456(8)
C18 C -0.51378(18) -0.39439(15) -0.17969(8)
C19 C -0.46399(18) -0.44001(15) -0.12396(8)
C20 C -0.32115(17) -0.44679(14) -0.11355(8)
H19 H -0.2880 -0.4774 -0.0763
C21 C -0.07267(17) -0.40715(13) -0.14340(7)
H20 H -0.0232 -0.3933 -0.1832
C22 C -0.04007(18) -0.31286(13) -0.09857(8)
H21 H -0.1110 -0.3126 -0.0652
C23 C -0.0326(3) -0.19878(15) -0.12626(10)
H22 H 0.0016 -0.2008 -0.1695
H23 H -0.1239 -0.1651 -0.1260
C24 C -0.3947(3) -0.2823(3) -0.32771(12)
H24 H -0.4512 -0.2642 -0.3637
H25 H -0.3339 -0.3411 -0.3384
H26 H -0.3400 -0.2207 -0.3156
C25 C -0.7135(3) -0.4763(3) -0.22024(14)
H27 H -0.8119 -0.4652 -0.2258
H28 H -0.6984 -0.5398 -0.1950
H29 H -0.6701 -0.4854 -0.2608
C26 C -0.5199(2) -0.53591(17) -0.03018(9)
H30 H -0.5992 -0.5544 -0.0046
H31 H -0.4548 -0.4950 -0.0053
H32 H -0.4757 -0.6007 -0.0450
loop_
_geom_bond_atom_site_label_1
_geom_bond_atom_site_label_2
_geom_bond_site_symmetry_1
_geom_bond_site_symmetry_2
O1 C9 1_555 1_555
O2 C3 1_555 1_555
O3 C4 1_555 1_555
O4 C5 1_555 1_555
O5 C7 1_555 1_555
O6 C13 1_555 1_555
O7 C17 1_555 1_555
O8 C18 1_555 1_555
O9 C19 1_555 1_555
C1 C2 1_555 1_555
C2 H1 1_555 1_555
C3 C2 1_555 1_555
C4 C3 1_555 1_555
C5 C4 1_555 1_555
C6 C1 1_555 1_555
C7 C1 1_555 1_555
H2 C7 1_555 1_555
C8 C7 1_555 1_555
H3 C8 1_555 1_555
C9 C8 1_555 1_555
H4 C9 1_555 1_555
H5 C9 1_555 1_555
C10 O2 1_555 1_555
H6 C10 1_555 1_555
H7 C10 1_555 1_555
H8 C10 1_555 1_555
C11 O3 1_555 1_555
H9 C11 1_555 1_555
H10 C11 1_555 1_555
H11 C11 1_555 1_555
C12 O4 1_555 1_555
H12 C12 1_555 1_555
H13 C12 1_555 1_555
H14 C12 1_555 1_555
C13 O5 1_555 1_555
C14 C13 1_555 1_555
H15 C14 1_555 1_555
H16 C14 1_555 1_555
H17 C14 1_555 1_555
C15 C16 1_555 1_555
C16 H18 1_555 1_555
C17 C16 1_555 1_555
C18 C17 1_555 1_555
C19 C18 1_555 1_555
C20 C15 1_555 1_555
H19 C20 1_555 1_555
C21 C6 1_555 1_555
H20 C21 1_555 1_555
C22 C8 1_555 1_555
H21 C22 1_555 1_555
C23 O1 1_555 1_555
H22 C23 1_555 1_555
H23 C23 1_555 1_555
C24 O7 1_555 1_555
H24 C24 1_555 1_555
H25 C24 1_555 1_555
H26 C24 1_555 1_555
C25 O8 1_555 1_555
H27 C25 1_555 1_555
H28 C25 1_555 1_555
H29 C25 1_555 1_555
C26 O9 1_555 1_555
H30 C26 1_555 1_555
H31 C26 1_555 1_555
H32 C26 1_555 1_555
C5 C6 1_555 1_555
C15 C21 1_555 1_555
C19 C20 1_555 1_555
C21 C22 1_555 1_555
C22 C23 1_555 1_555

#END
