
#######################################################################
#
#                 Cambridge Crystallographic Data Centre
#                                CCDC 
#
#######################################################################
#
# If this CIF has been generated from an entry in the Cambridge 
# Structural Database, then it will include bibliographic, chemical, 
# crystal, experimental, refinement or atomic coordinate data resulting 
# from the CCDC's data processing and validation procedures.
#
#######################################################################

data_UFEBIS01
_chemical_formula_moiety         'C64 H82 N4 O2'
_chemical_name_systematic        
5,8,15,18-Tetraoctyl-5,8,15,18-tetrahydroindolo[3,2-a]indolo[3',2':5,6]quinolino[3,2-i]acridine-10,20-dione
_symmetry_cell_setting           triclinic
_symmetry_space_group_name_H-M   'P -1'
_symmetry_Int_Tables_number      2
_space_group_name_Hall           '-P 1'
loop_
_symmetry_equiv_pos_site_id
_symmetry_equiv_pos_as_xyz
1 x,y,z
2 -x,-y,-z
_cell_length_a                   8.958(6)
_cell_length_b                   10.065(5)
_cell_length_c                   15.398(8)
_cell_angle_alpha                100.358(17)
_cell_angle_beta                 100.19(2)
_cell_angle_gamma                90.81(2)
_cell_volume                     1342.64
_cell_formula_units_Z            1
loop_
_atom_site_label
_atom_site_type_symbol
_atom_site_fract_x
_atom_site_fract_y
_atom_site_fract_z
C1 C 0.4103(2) 0.40999(18) 0.29514(12)
C2 C 0.3567(2) 0.47381(19) 0.22289(14)
H1 H 0.2750 0.5297 0.2241
C3 C 0.4279(3) 0.4515(2) 0.15044(15)
H2 H 0.3944 0.4929 0.1016
C4 C 0.5496(3) 0.3679(2) 0.14885(14)
H3 H 0.5956 0.3538 0.0985
C5 C 0.6041(2) 0.3053(2) 0.21982(12)
H4 H 0.6860 0.2499 0.2173
C6 C 0.5355(2) 0.32548(17) 0.29577(12)
C7 C 0.55557(19) 0.27817(16) 0.38140(11)
C8 C 0.65963(19) 0.19434(16) 0.42616(11)
C9 C 0.63394(19) 0.16593(16) 0.50944(11)
C10 C 0.5130(2) 0.22413(19) 0.54834(12)
H5 H 0.4974 0.2045 0.6029
C11 C 0.4187(2) 0.30866(18) 0.50714(12)
H6 H 0.3412 0.3483 0.5342
C12 C 0.4397(2) 0.33475(17) 0.42482(12)
C13 C 0.7919(2) 0.14302(17) 0.39097(12)
C14 C 0.8981(2) 0.07078(16) 0.44891(11)
C15 C 0.86319(19) 0.04118(17) 0.52916(11)
C16 C 1.0318(2) 0.03027(17) 0.42087(12)
H7 H 1.0522 0.0511 0.3676
C17 C 0.2284(2) 0.49570(18) 0.39713(13)
H8 H 0.2259 0.5753 0.3696
H9 H 0.2469 0.5262 0.4617
C18 C 0.0750(2) 0.42093(19) 0.36879(14)
H10 H 0.0662 0.3577 0.4085
H11 H 0.0673 0.3694 0.3084
C19 C -0.0552(2) 0.5165(2) 0.37099(14)
H12 H -0.1478 0.4653 0.3710
H13 H -0.0341 0.5829 0.4262
C20 C -0.0795(2) 0.5892(2) 0.29169(16)
H14 H 0.0129 0.6418 0.2933
H15 H -0.0954 0.5218 0.2369
C21 C -0.2106(2) 0.6824(2) 0.28707(15)
H16 H -0.1936 0.7533 0.3400
H17 H -0.3036 0.6317 0.2869
C22 C -0.2291(3) 0.7464(3) 0.20307(17)
H18 H -0.1373 0.8004 0.2057
H19 H -0.2380 0.6745 0.1510
C23 C -0.3607(3) 0.8330(3) 0.18954(18)
H20 H -0.3533 0.9047 0.2416
H21 H -0.4533 0.7791 0.1851
C24 C -0.3707(4) 0.8954(3) 0.10617(19)
H22 H -0.2797 0.9494 0.1102
H23 H -0.4566 0.9514 0.1015
H24 H -0.3823 0.8250 0.0540
C25 C 0.6840(2) 0.02919(17) 0.63122(11)
H25 H 0.7190 -0.0618 0.6298
H26 H 0.5740 0.0235 0.6226
C26 C 0.7452(2) 0.11306(18) 0.72276(12)
H27 H 0.6890 0.1946 0.7313
H28 H 0.8509 0.1396 0.7261
C27 C 0.7320(3) 0.0337(2) 0.79757(13)
H29 H 0.7360 0.0970 0.8535
H30 H 0.6339 -0.0151 0.7836
C28 C 0.8558(3) -0.0662(2) 0.81044(13)
H31 H 0.8423 -0.1374 0.7577
H32 H 0.9536 -0.0201 0.8155
C29 C 0.8568(3) -0.1292(2) 0.89217(14)
H33 H 0.7638 -0.1843 0.8838
H34 H 0.8576 -0.0578 0.9438
C30 C 0.9916(3) -0.2164(2) 0.91192(14)
H35 H 0.9878 -0.2908 0.8617
H36 H 1.0847 -0.1627 0.9173
C31 C 0.9954(3) -0.2721(2) 0.99573(16)
H37 H 0.9042 -0.3287 0.9895
H38 H 0.9953 -0.1979 1.0456
C32 C 1.1326(3) -0.3543(3) 1.01703(19)
H39 H 1.1306 -0.4307 0.9694
H40 H 1.1309 -0.3852 1.0723
H41 H 1.2234 -0.2991 1.0229
N1 N 0.35414(17) 0.41566(15) 0.37324(10)
N2 N 0.72892(17) 0.08231(14) 0.55593(9)
O1 O 0.82028(16) 0.15954(16) 0.31817(9)
C1A C 1.5897(2) -0.40999(18) 0.70486(12)
C2A C 1.6433(2) -0.47381(19) 0.77711(14)
H1A H 1.7250 -0.5297 0.7759
C3A C 1.5721(3) -0.4515(2) 0.84956(15)
H2A H 1.6056 -0.4929 0.8984
C4A C 1.4504(3) -0.3679(2) 0.85115(14)
H3A H 1.4044 -0.3538 0.9015
C5A C 1.3959(2) -0.3053(2) 0.78018(12)
H4A H 1.3140 -0.2499 0.7827
C6A C 1.4645(2) -0.32548(17) 0.70423(12)
C7A C 1.44443(19) -0.27817(16) 0.61860(11)
C8A C 1.34037(19) -0.19434(16) 0.57384(11)
C9A C 1.36606(19) -0.16593(16) 0.49056(11)
C10A C 1.4870(2) -0.22413(19) 0.45166(12)
H5A H 1.5026 -0.2045 0.3971
C11A C 1.5813(2) -0.30866(18) 0.49286(12)
H6A H 1.6588 -0.3483 0.4658
C12A C 1.5603(2) -0.33475(17) 0.57518(12)
C13A C 1.2081(2) -0.14302(17) 0.60903(12)
C14A C 1.1019(2) -0.07078(16) 0.55109(11)
C15A C 1.13681(19) -0.04118(17) 0.47084(11)
C16A C 0.9682(2) -0.03027(17) 0.57913(12)
H7A H 0.9478 -0.0511 0.6324
C17A C 1.7716(2) -0.49570(18) 0.60287(13)
H8A H 1.7741 -0.5753 0.6304
H9A H 1.7531 -0.5262 0.5383
C18A C 1.9250(2) -0.42093(19) 0.63121(14)
H10A H 1.9338 -0.3577 0.5915
H11A H 1.9327 -0.3694 0.6916
C19A C 2.0552(2) -0.5165(2) 0.62901(14)
H12A H 2.1478 -0.4653 0.6290
H13A H 2.0341 -0.5829 0.5738
C20A C 2.0795(2) -0.5892(2) 0.70831(16)
H14A H 1.9871 -0.6418 0.7067
H15A H 2.0954 -0.5218 0.7631
C21A C 2.2106(2) -0.6824(2) 0.71293(15)
H16A H 2.1936 -0.7533 0.6600
H17A H 2.3036 -0.6317 0.7131
C22A C 2.2291(3) -0.7464(3) 0.79693(17)
H18A H 2.1373 -0.8004 0.7943
H19A H 2.2380 -0.6745 0.8490
C23A C 2.3607(3) -0.8330(3) 0.81046(18)
H20A H 2.3533 -0.9047 0.7584
H21A H 2.4533 -0.7791 0.8149
C24A C 2.3707(4) -0.8954(3) 0.89383(19)
H22A H 2.2797 -0.9494 0.8898
H23A H 2.4566 -0.9514 0.8985
H24A H 2.3823 -0.8250 0.9460
C25A C 1.3160(2) -0.02919(17) 0.36878(11)
H25A H 1.2810 0.0618 0.3702
H26A H 1.4260 -0.0235 0.3774
C26A C 1.2548(2) -0.11306(18) 0.27724(12)
H27A H 1.3110 -0.1946 0.2687
H28A H 1.1491 -0.1396 0.2739
C27A C 1.2680(3) -0.0337(2) 0.20243(13)
H29A H 1.2640 -0.0970 0.1465
H30A H 1.3661 0.0151 0.2164
C28A C 1.1442(3) 0.0662(2) 0.18956(13)
H31A H 1.1577 0.1374 0.2423
H32A H 1.0464 0.0201 0.1845
C29A C 1.1432(3) 0.1292(2) 0.10783(14)
H33A H 1.2362 0.1843 0.1162
H34A H 1.1424 0.0578 0.0562
C30A C 1.0084(3) 0.2164(2) 0.08808(14)
H35A H 1.0122 0.2908 0.1383
H36A H 0.9153 0.1627 0.0827
C31A C 1.0046(3) 0.2721(2) 0.00427(16)
H37A H 1.0958 0.3287 0.0105
H38A H 1.0047 0.1979 -0.0456
C32A C 0.8674(3) 0.3543(3) -0.01703(19)
H39A H 0.8694 0.4307 0.0306
H40A H 0.8691 0.3852 -0.0723
H41A H 0.7766 0.2991 -0.0229
N1A N 1.64586(17) -0.41566(15) 0.62676(10)
N2A N 1.27108(17) -0.08231(14) 0.44407(9)
O1A O 1.17972(16) -0.15954(16) 0.68183(9)
loop_
_geom_bond_atom_site_label_1
_geom_bond_atom_site_label_2
_geom_bond_site_symmetry_1
_geom_bond_site_symmetry_2
C1 C2 1_555 1_555
C2 H1 1_555 1_555
C3 C2 1_555 1_555
H2 C3 1_555 1_555
C4 C3 1_555 1_555
H3 C4 1_555 1_555
C5 C4 1_555 1_555
H4 C5 1_555 1_555
C6 C1 1_555 1_555
C7 C6 1_555 1_555
C8 C7 1_555 1_555
C9 C8 1_555 1_555
C10 C9 1_555 1_555
H5 C10 1_555 1_555
C11 C10 1_555 1_555
H6 C11 1_555 1_555
C12 C7 1_555 1_555
C13 C8 1_555 1_555
C14 C13 1_555 1_555
C15 C14 1_555 1_555
C16 C14 1_555 1_555
H7 C16 1_555 1_555
C17 H8 1_555 1_555
H9 C17 1_555 1_555
C18 C17 1_555 1_555
H10 C18 1_555 1_555
H11 C18 1_555 1_555
C19 C18 1_555 1_555
H12 C19 1_555 1_555
H13 C19 1_555 1_555
C20 C19 1_555 1_555
H14 C20 1_555 1_555
H15 C20 1_555 1_555
C21 C20 1_555 1_555
H16 C21 1_555 1_555
H17 C21 1_555 1_555
C22 C21 1_555 1_555
H18 C22 1_555 1_555
H19 C22 1_555 1_555
C23 C22 1_555 1_555
H20 C23 1_555 1_555
H21 C23 1_555 1_555
C24 C23 1_555 1_555
H22 C24 1_555 1_555
H23 C24 1_555 1_555
H24 C24 1_555 1_555
C25 H25 1_555 1_555
H26 C25 1_555 1_555
C26 C25 1_555 1_555
H27 C26 1_555 1_555
H28 C26 1_555 1_555
C27 C26 1_555 1_555
H29 C27 1_555 1_555
H30 C27 1_555 1_555
C28 C27 1_555 1_555
H31 C28 1_555 1_555
H32 C28 1_555 1_555
C29 C28 1_555 1_555
H33 C29 1_555 1_555
H34 C29 1_555 1_555
C30 C29 1_555 1_555
H35 C30 1_555 1_555
H36 C30 1_555 1_555
C31 C30 1_555 1_555
H37 C31 1_555 1_555
H38 C31 1_555 1_555
C32 C31 1_555 1_555
H39 C32 1_555 1_555
H40 C32 1_555 1_555
H41 C32 1_555 1_555
N1 C1 1_555 1_555
N2 C9 1_555 1_555
O1 C13 1_555 1_555
C1A C2A 1_555 1_555
C2A H1A 1_555 1_555
C3A C2A 1_555 1_555
H2A C3A 1_555 1_555
C4A C3A 1_555 1_555
H3A C4A 1_555 1_555
C5A C4A 1_555 1_555
H4A C5A 1_555 1_555
C6A C1A 1_555 1_555
C7A C6A 1_555 1_555
C8A C7A 1_555 1_555
C9A C8A 1_555 1_555
C10A C9A 1_555 1_555
H5A C10A 1_555 1_555
C11A C10A 1_555 1_555
H6A C11A 1_555 1_555
C12A C7A 1_555 1_555
C13A C8A 1_555 1_555
C14A C13A 1_555 1_555
C15A C16 1_555 1_555
C16A C15 1_555 1_555
H7A C16A 1_555 1_555
C17A H8A 1_555 1_555
H9A C17A 1_555 1_555
C18A C17A 1_555 1_555
H10A C18A 1_555 1_555
H11A C18A 1_555 1_555
C19A C18A 1_555 1_555
H12A C19A 1_555 1_555
H13A C19A 1_555 1_555
C20A C19A 1_555 1_555
H14A C20A 1_555 1_555
H15A C20A 1_555 1_555
C21A C20A 1_555 1_555
H16A C21A 1_555 1_555
H17A C21A 1_555 1_555
C22A C21A 1_555 1_555
H18A C22A 1_555 1_555
H19A C22A 1_555 1_555
C23A C22A 1_555 1_555
H20A C23A 1_555 1_555
H21A C23A 1_555 1_555
C24A C23A 1_555 1_555
H22A C24A 1_555 1_555
H23A C24A 1_555 1_555
H24A C24A 1_555 1_555
C25A H25A 1_555 1_555
H26A C25A 1_555 1_555
C26A C25A 1_555 1_555
H27A C26A 1_555 1_555
H28A C26A 1_555 1_555
C27A C26A 1_555 1_555
H29A C27A 1_555 1_555
H30A C27A 1_555 1_555
C28A C27A 1_555 1_555
H31A C28A 1_555 1_555
H32A C28A 1_555 1_555
C29A C28A 1_555 1_555
H33A C29A 1_555 1_555
H34A C29A 1_555 1_555
C30A C29A 1_555 1_555
H35A C30A 1_555 1_555
H36A C30A 1_555 1_555
C31A C30A 1_555 1_555
H37A C31A 1_555 1_555
H38A C31A 1_555 1_555
C32A C31A 1_555 1_555
H39A C32A 1_555 1_555
H40A C32A 1_555 1_555
H41A C32A 1_555 1_555
N1A C1A 1_555 1_555
N2A C9A 1_555 1_555
O1A C13A 1_555 1_555
C5 C6 1_555 1_555
C11 C12 1_555 1_555
C12 N1 1_555 1_555
C15 N2 1_555 1_555
C17 N1 1_555 1_555
C25 N2 1_555 1_555
C5A C6A 1_555 1_555
C11A C12A 1_555 1_555
C12A N1A 1_555 1_555
C14A C15A 1_555 1_555
C14A C16A 1_555 1_555
C15A N2A 1_555 1_555
C17A N1A 1_555 1_555
C25A N2A 1_555 1_555

#END
