
#######################################################################
#
#                 Cambridge Crystallographic Data Centre
#                                CCDC 
#
#######################################################################
#
# If this CIF has been generated from an entry in the Cambridge 
# Structural Database, then it will include bibliographic, chemical, 
# crystal, experimental, refinement or atomic coordinate data resulting 
# from the CCDC's data processing and validation procedures.
#
#######################################################################

data_UFECUD
_chemical_formula_moiety         'C15 H9 Cl2 N1 O2'
_chemical_name_systematic        
N-(2,3-Dichlorophenyl)-1,2,3,4-tetrahydroisoquinoline-1,3-dione
_symmetry_cell_setting           monoclinic
_symmetry_space_group_name_H-M   'P 21/c'
_symmetry_Int_Tables_number      14
_space_group_name_Hall           '-P 2ybc'
loop_
_symmetry_equiv_pos_site_id
_symmetry_equiv_pos_as_xyz
1 x,y,z
2 x,1/2-y,1/2+z
3 -x,-y,-z
4 -x,1/2+y,1/2-z
_cell_length_a                   15.6702(8)
_cell_length_b                   6.1560(5)
_cell_length_c                   14.5889(7)
_cell_angle_alpha                90
_cell_angle_beta                 112.236(4)
_cell_angle_gamma                90
_cell_volume                     1302.67
_exptl_crystal_colour            colorless
_exptl_crystal_description       prism
_chemical_melting_point          471-473K
_cell_formula_units_Z            4
_exptl_crystal_recrystallization_method 'ethyl acetate/hexane'
loop_
_atom_site_label
_atom_site_type_symbol
_atom_site_fract_x
_atom_site_fract_y
_atom_site_fract_z
Cl1 Cl 0.23957(5) 0.39980(12) 0.61118(6)
Cl2 Cl 0.37167(5) 0.46466(14) 0.49537(5)
N1 N 0.26384(13) 0.7203(3) 0.76998(15)
O1 O 0.36347(14) 0.4587(4) 0.85483(17)
O2 O 0.16720(14) 0.9913(4) 0.68980(16)
C1 C 0.29209(18) 0.5527(4) 0.83976(19)
C2 C 0.22926(19) 0.4909(4) 0.8906(2)
H1 H 0.2665 0.4651 0.9599
H2 H 0.1999 0.3544 0.8628
C3 C 0.10494(19) 0.6249(5) 0.9445(2)
H3 H 0.1186 0.5118 0.9902
C4 C 0.03460(19) 0.7662(5) 0.9364(2)
H4 H 0.0006 0.7473 0.9761
C5 C 0.0141(2) 0.9361(5) 0.8698(2)
H5 H -0.0336 1.0313 0.8647
C6 C 0.06419(17) 0.9646(5) 0.8110(2)
H6 H 0.0507 1.0796 0.7664
C7 C 0.18721(16) 0.8548(4) 0.75383(18)
C8 C 0.13555(15) 0.8206(4) 0.81842(17)
C9 C 0.15579(16) 0.6493(4) 0.88512(19)
C10 C 0.31925(15) 0.7597(4) 0.71221(18)
C11 C 0.31480(16) 0.6159(4) 0.63733(18)
C12 C 0.37232(17) 0.6471(4) 0.58559(18)
C13 C 0.43133(18) 0.8229(5) 0.6068(2)
H7 H 0.4695 0.8440 0.5719
C14 C 0.43348(18) 0.9662(5) 0.6795(2)
H8 H 0.4728 1.0854 0.6930
C15 C 0.37803(18) 0.9364(4) 0.7333(2)
H9 H 0.3803 1.0338 0.7829
loop_
_geom_bond_atom_site_label_1
_geom_bond_atom_site_label_2
_geom_bond_site_symmetry_1
_geom_bond_site_symmetry_2
Cl1 C11 1_555 1_555
Cl2 C12 1_555 1_555
N1 C1 1_555 1_555
O1 C1 1_555 1_555
O2 C7 1_555 1_555
C1 C2 1_555 1_555
C2 H1 1_555 1_555
H2 C2 1_555 1_555
C3 H3 1_555 1_555
C4 C3 1_555 1_555
H4 C4 1_555 1_555
C5 C4 1_555 1_555
H5 C5 1_555 1_555
C6 C5 1_555 1_555
H6 C6 1_555 1_555
C7 N1 1_555 1_555
C8 C6 1_555 1_555
C9 C2 1_555 1_555
C10 N1 1_555 1_555
C11 C10 1_555 1_555
C12 C11 1_555 1_555
C13 C12 1_555 1_555
H7 C13 1_555 1_555
C14 C13 1_555 1_555
H8 C14 1_555 1_555
C15 C10 1_555 1_555
H9 C15 1_555 1_555
C3 C9 1_555 1_555
C7 C8 1_555 1_555
C8 C9 1_555 1_555
C14 C15 1_555 1_555

#END
