
#######################################################################
#
#                 Cambridge Crystallographic Data Centre
#                                CCDC 
#
#######################################################################
#
# If this CIF has been generated from an entry in the Cambridge 
# Structural Database, then it will include bibliographic, chemical, 
# crystal, experimental, refinement or atomic coordinate data resulting 
# from the CCDC's data processing and validation procedures.
#
#######################################################################

data_UFESOO
_chemical_name_common            
"(11-((Acetyl(ethyl)amino)methyl)-5,8,12,13-tetramethoxy-11-methyl-3b,5,6,6a,8,9,10,11,11a,12-decahydro-12aH-3a,6-ethanobenzo[4,5]furo[3',2':7,8]cycloocta[1,2-d][1,3]dioxol-12a-yl)methyl acetate"
_chemical_formula_moiety         'C30 H47 N1 O10'
_chemical_name_systematic        
4\a,9\b,13\b,14'\b-Tetramethoxy-10\a-acetoxymethylene-16,17,18,19-nor-7\b-methyl-7\a-(N-acetyl-N-ethylaminomethyl)-10\b,11\b-dioxymethylene-tax-2-en-14\b-acetal
_symmetry_cell_setting           monoclinic
_symmetry_space_group_name_H-M   'P 21'
_symmetry_Int_Tables_number      4
_space_group_name_Hall           'P 2yb'
loop_
_symmetry_equiv_pos_site_id
_symmetry_equiv_pos_as_xyz
1 x,y,z
2 -x,1/2+y,-z
_cell_length_a                   10.2534(2)
_cell_length_b                   17.7842(3)
_cell_length_c                   17.5937(3)
_cell_angle_alpha                90
_cell_angle_beta                 106.588(1)
_cell_angle_gamma                90
_cell_volume                     3074.67
_exptl_crystal_colour            colorless
_exptl_crystal_description       block
_chemical_melting_point          '173-175 deg.C'
_cell_formula_units_Z            4
_exptl_crystal_recrystallization_method cyclohexane/acetone
loop_
_atom_site_label
_atom_site_type_symbol
_atom_site_fract_x
_atom_site_fract_y
_atom_site_fract_z
O1 O 0.04140(19) 0.48561(12) 0.68713(10)
O2 O 0.1920(2) 0.57938(12) 0.70376(11)
O3 O 0.34020(19) 0.64576(12) 0.62061(12)
O4 O 0.0639(3) 0.34395(15) 0.44249(15)
O5 O -0.07121(17) 0.58830(11) 0.57213(11)
O6 O -0.0091(2) 0.36339(12) 0.58671(13)
O7 O 0.1020(4) 0.25399(16) 0.5975(2)
O8 O 0.4991(2) 0.67752(16) 0.55487(16)
O9 O 0.5728(2) 0.46706(18) 0.65785(17)
O10 O -0.4886(3) 0.4767(2) 0.39609(18)
N1 N -0.3973(2) 0.58088(18) 0.35780(15)
C1 C 0.2805(2) 0.56382(17) 0.51179(16)
H1 H 0.2793 0.6051 0.4747
C2 C 0.2144(3) 0.49702(18) 0.46330(15)
H2 H 0.2721 0.4650 0.4463
C3 C 0.0840(3) 0.47843(17) 0.44193(14)
C4 C 0.0438(3) 0.40726(19) 0.39132(16)
H3 H 0.1059 0.4024 0.3584
C5 C -0.0999(4) 0.4083(2) 0.3366(2)
H4 H -0.1298 0.3570 0.3232
H5 H -0.1003 0.4339 0.2879
C6 C -0.1998(3) 0.4473(2) 0.3732(2)
H6 H -0.2897 0.4470 0.3355
H7 H -0.2047 0.4197 0.4199
C7 C -0.1571(3) 0.52815(19) 0.39633(15)
C8 C -0.0205(2) 0.52762(16) 0.46491(13)
H8 H 0.0150 0.5789 0.4658
C9 C -0.0366(2) 0.51551(15) 0.54962(13)
H9 H -0.1142 0.4819 0.5452
C10 C 0.0876(2) 0.48460(15) 0.61630(13)
C11 C 0.2179(2) 0.53663(16) 0.64037(14)
C12 C 0.3570(3) 0.49688(19) 0.67337(16)
H10 H 0.3417 0.4488 0.6954
H11 H 0.4128 0.5270 0.7165
C13 C 0.4365(3) 0.4833(2) 0.61285(18)
H12 H 0.3985 0.4393 0.5805
C14 C 0.4302(3) 0.55048(19) 0.55885(17)
H13 H 0.4872 0.5428 0.5233
C15 C 0.2309(2) 0.59627(16) 0.58014(15)
H14 H 0.1456 0.6241 0.5596
C16 C 0.4625(3) 0.6245(2) 0.6028(2)
H15 H 0.5363 0.6177 0.6519
C17 C 0.1309(3) 0.5299(2) 0.74438(16)
H16 H 0.0819 0.5575 0.7751
H17 H 0.1991 0.4987 0.7802
C18 C 0.1203(3) 0.40276(16) 0.60772(17)
H18 H 0.1653 0.3966 0.5665
H19 H 0.1795 0.3835 0.6572
C19 C -0.1273(3) 0.5709(2) 0.32613(18)
H20 H -0.2085 0.5728 0.2823
H21 H -0.0570 0.5452 0.3102
H22 H -0.0980 0.6212 0.3425
C20 C -0.2688(3) 0.5702(2) 0.42182(16)
H23 H -0.2886 0.5426 0.4648
H24 H -0.2341 0.6192 0.4422
C21 C -0.4161(4) 0.6531(3) 0.3178(2)
H25 H -0.4844 0.6479 0.2670
H26 H -0.3315 0.6676 0.3076
C22 C -0.4601(5) 0.7159(3) 0.3651(3)
H27 H -0.4694 0.7622 0.3359
H28 H -0.3927 0.7219 0.4153
H29 H -0.5458 0.7030 0.3735
C23 C 0.0847(6) 0.2755(3) 0.4071(3)
H30 H 0.0983 0.2358 0.4455
H31 H 0.1635 0.2798 0.3882
H32 H 0.0064 0.2645 0.3634
C24 C -0.1658(3) 0.5920(2) 0.61758(19)
H33 H -0.1806 0.6436 0.6288
H34 H -0.1301 0.5652 0.6665
H35 H -0.2504 0.5698 0.5881
C25 C -0.0013(5) 0.2893(2) 0.5800(2)
C26 C -0.1401(6) 0.2548(3) 0.5487(3)
H36 H -0.1314 0.2014 0.5440
H37 H -0.1847 0.2758 0.4976
H38 H -0.1930 0.2653 0.5846
C27 C 0.5283(5) 0.7488(3) 0.5923(4)
H39 H 0.5524 0.7836 0.5569
H40 H 0.6028 0.7439 0.6397
H41 H 0.4495 0.7669 0.6057
C28 C 0.6392(4) 0.4157(3) 0.6205(4)
H42 H 0.7302 0.4074 0.6536
H43 H 0.6423 0.4358 0.5704
H44 H 0.5904 0.3690 0.6121
C29 C -0.4993(3) 0.5315(3) 0.35326(19)
C30 C -0.6353(4) 0.5445(4) 0.2917(3)
H45 H -0.6976 0.5054 0.2955
H46 H -0.6228 0.5440 0.2397
H47 H -0.6714 0.5923 0.3010
O11 O 0.81035(18) 0.32084(13) 0.80187(10)
O12 O 0.95214(19) 0.22764(13) 0.79431(11)
O13 O 1.18747(18) 0.17120(11) 0.88482(12)
O14 O 1.0714(3) 0.49172(15) 1.02431(16)
O15 O 0.82075(17) 0.23515(11) 0.93160(11)
O16 O 0.8503(2) 0.45567(12) 0.88314(14)
O17 O 0.9387(4) 0.56361(15) 0.8561(2)
O18 O 1.4149(2) 0.14810(13) 0.94880(13)
O19 O 1.3678(2) 0.34982(13) 0.82499(13)
O20 O 0.5698(3) 0.38670(17) 1.07986(17)
N2 N 0.6935(2) 0.28671(17) 1.13684(13)
C31 C 1.2298(2) 0.26449(16) 0.98306(14)
H48 H 1.2684 0.2277 1.0249
C32 C 1.2082(2) 0.33541(16) 1.02235(14)
H49 H 1.2816 0.3684 1.0346
C33 C 1.0999(2) 0.35856(16) 1.04249(15)
C34 C 1.1103(3) 0.43479(19) 1.08366(18)
H50 H 1.2057 0.4431 1.1133
C35 C 1.0249(4) 0.4422(2) 1.1411(2)
H51 H 1.0734 0.4199 1.1916
H52 H 1.0110 0.4951 1.1501
C36 C 0.8876(3) 0.4039(2) 1.10949(19)
H53 H 0.8376 0.4277 1.0602
H54 H 0.8356 0.4103 1.1472
C37 C 0.9030(3) 0.31979(17) 1.09505(14)
C38 C 0.9729(2) 0.30898(16) 1.02731(14)
H55 H 1.0082 0.2575 1.0343
C39 C 0.8731(2) 0.31017(15) 0.94191(14)
H56 H 0.7979 0.3441 0.9420
C40 C 0.9277(2) 0.33227(16) 0.87006(14)
C41 C 1.0372(2) 0.27729(15) 0.85196(14)
C42 C 1.1409(3) 0.31396(17) 0.81348(15)
H57 H 1.1575 0.2793 0.7747
H58 H 1.1001 0.3589 0.7854
C43 C 1.2769(2) 0.33506(16) 0.87175(15)
H59 H 1.2653 0.3812 0.8995
C44 C 1.3315(2) 0.27303(16) 0.93316(15)
H60 H 1.4236 0.2844 0.9665
C45 C 1.1151(2) 0.22455(15) 0.91926(14)
H61 H 1.0523 0.1989 0.9434
C46 C 1.3235(3) 0.19590(17) 0.89604(16)
H62 H 1.3446 0.1985 0.8452
C47 C 0.8467(3) 0.2734(2) 0.74924(17)
H63 H 0.8776 0.3022 0.7108
H64 H 0.7697 0.2429 0.7210
C48 C 0.9621(3) 0.41513(17) 0.86768(17)
H65 H 1.0466 0.4266 0.9077
H66 H 0.9716 0.4285 0.8161
C49 C 0.9955(3) 0.2799(2) 1.16887(17)
H67 H 0.9570 0.2850 1.2124
H68 H 1.0843 0.3023 1.1828
H69 H 1.0025 0.2275 1.1574
C50 C 0.7605(3) 0.28192(19) 1.07368(15)
H70 H 0.7026 0.3055 1.0263
H71 H 0.7702 0.2294 1.0615
C51 C 0.6988(3) 0.2179(3) 1.1840(2)
H72 H 0.6909 0.2315 1.2359
H73 H 0.7866 0.1940 1.1916
C52 C 0.5892(5) 0.1629(3) 1.1465(4)
H74 H 0.5973 0.1195 1.1800
H75 H 0.5981 0.1479 1.0958
H76 H 0.5019 0.1859 1.1396
C53 C 1.1345(8) 0.5614(3) 1.0476(4)
H77 H 1.1043 0.5969 1.0050
H78 H 1.2314 0.5557 1.0603
H79 H 1.1108 0.5794 1.0933
C54 C 0.6829(3) 0.2247(2) 0.88712(19)
H80 H 0.6613 0.1720 0.8846
H81 H 0.6692 0.2438 0.8344
H82 H 0.6247 0.2511 0.9123
C55 C 0.8543(4) 0.5308(2) 0.8769(3)
C56 C 0.7396(6) 0.5662(3) 0.8991(5)
H83 H 0.7440 0.6198 0.8938
H84 H 0.7454 0.5537 0.9531
H85 H 0.6551 0.5479 0.8648
C57 C 1.4126(4) 0.0730(2) 0.9180(3)
H86 H 1.4764 0.0422 0.9559
H87 H 1.4370 0.0743 0.8693
H88 H 1.3228 0.0523 0.9084
C58 C 1.4735(3) 0.4004(2) 0.8623(2)
H89 H 1.5316 0.4082 0.8288
H90 H 1.5257 0.3797 0.9121
H91 H 1.4348 0.4476 0.8713
C59 C 0.5976(3) 0.3408(2) 1.1326(2)
C60 C 0.5257(5) 0.3428(4) 1.1971(3)
H92 H 0.4619 0.3836 1.1873
H93 H 0.5916 0.3497 1.2478
H94 H 0.4783 0.2962 1.1971
loop_
_geom_bond_atom_site_label_1
_geom_bond_atom_site_label_2
_geom_bond_site_symmetry_1
_geom_bond_site_symmetry_2
O1 C10 1_555 1_555
O2 C11 1_555 1_555
O3 C15 1_555 1_555
O4 C4 1_555 1_555
O5 C9 1_555 1_555
O6 C18 1_555 1_555
O7 C25 1_555 1_555
O8 C16 1_555 1_555
O9 C13 1_555 1_555
O10 C29 1_555 1_555
N1 C20 1_555 1_555
C1 H1 1_555 1_555
C2 C1 1_555 1_555
H2 C2 1_555 1_555
C3 C2 1_555 1_555
C4 C3 1_555 1_555
H3 C4 1_555 1_555
C5 C4 1_555 1_555
H4 C5 1_555 1_555
H5 C5 1_555 1_555
C6 C5 1_555 1_555
H6 C6 1_555 1_555
H7 C6 1_555 1_555
C7 C6 1_555 1_555
C8 C3 1_555 1_555
H8 C8 1_555 1_555
C9 C8 1_555 1_555
H9 C9 1_555 1_555
C10 C9 1_555 1_555
C11 C10 1_555 1_555
C12 C11 1_555 1_555
H10 C12 1_555 1_555
H11 C12 1_555 1_555
C13 C12 1_555 1_555
H12 C13 1_555 1_555
C14 C1 1_555 1_555
H13 C14 1_555 1_555
C15 C1 1_555 1_555
H14 C15 1_555 1_555
C16 O3 1_555 1_555
H15 C16 1_555 1_555
C17 O1 1_555 1_555
H16 C17 1_555 1_555
H17 C17 1_555 1_555
C18 C10 1_555 1_555
H18 C18 1_555 1_555
H19 C18 1_555 1_555
C19 C7 1_555 1_555
H20 C19 1_555 1_555
H21 C19 1_555 1_555
H22 C19 1_555 1_555
C20 C7 1_555 1_555
H23 C20 1_555 1_555
H24 C20 1_555 1_555
C21 N1 1_555 1_555
H25 C21 1_555 1_555
H26 C21 1_555 1_555
C22 C21 1_555 1_555
H27 C22 1_555 1_555
H28 C22 1_555 1_555
H29 C22 1_555 1_555
C23 O4 1_555 1_555
H30 C23 1_555 1_555
H31 C23 1_555 1_555
H32 C23 1_555 1_555
C24 O5 1_555 1_555
H33 C24 1_555 1_555
H34 C24 1_555 1_555
H35 C24 1_555 1_555
C25 O6 1_555 1_555
C26 C25 1_555 1_555
H36 C26 1_555 1_555
H37 C26 1_555 1_555
H38 C26 1_555 1_555
C27 O8 1_555 1_555
H39 C27 1_555 1_555
H40 C27 1_555 1_555
H41 C27 1_555 1_555
C28 O9 1_555 1_555
H42 C28 1_555 1_555
H43 C28 1_555 1_555
H44 C28 1_555 1_555
C29 N1 1_555 1_555
C30 C29 1_555 1_555
H45 C30 1_555 1_555
H46 C30 1_555 1_555
H47 C30 1_555 1_555
O11 C40 1_555 1_555
O12 C41 1_555 1_555
O13 C45 1_555 1_555
O14 C34 1_555 1_555
O15 C39 1_555 1_555
O16 C48 1_555 1_555
O17 C55 1_555 1_555
O18 C46 1_555 1_555
O19 C43 1_555 1_555
O20 C59 1_555 1_555
N2 C50 1_555 1_555
C31 H48 1_555 1_555
C32 C31 1_555 1_555
H49 C32 1_555 1_555
C33 C32 1_555 1_555
C34 C33 1_555 1_555
H50 C34 1_555 1_555
C35 C34 1_555 1_555
H51 C35 1_555 1_555
H52 C35 1_555 1_555
C36 C35 1_555 1_555
H53 C36 1_555 1_555
H54 C36 1_555 1_555
C37 C36 1_555 1_555
C38 C33 1_555 1_555
H55 C38 1_555 1_555
C39 C38 1_555 1_555
H56 C39 1_555 1_555
C40 C39 1_555 1_555
C41 C40 1_555 1_555
C42 C41 1_555 1_555
H57 C42 1_555 1_555
H58 C42 1_555 1_555
C43 C42 1_555 1_555
H59 C43 1_555 1_555
C44 C31 1_555 1_555
H60 C44 1_555 1_555
C45 C31 1_555 1_555
H61 C45 1_555 1_555
C46 O13 1_555 1_555
H62 C46 1_555 1_555
C47 O11 1_555 1_555
H63 C47 1_555 1_555
H64 C47 1_555 1_555
C48 C40 1_555 1_555
H65 C48 1_555 1_555
H66 C48 1_555 1_555
C49 C37 1_555 1_555
H67 C49 1_555 1_555
H68 C49 1_555 1_555
H69 C49 1_555 1_555
C50 C37 1_555 1_555
H70 C50 1_555 1_555
H71 C50 1_555 1_555
C51 N2 1_555 1_555
H72 C51 1_555 1_555
H73 C51 1_555 1_555
C52 C51 1_555 1_555
H74 C52 1_555 1_555
H75 C52 1_555 1_555
H76 C52 1_555 1_555
C53 O14 1_555 1_555
H77 C53 1_555 1_555
H78 C53 1_555 1_555
H79 C53 1_555 1_555
C54 O15 1_555 1_555
H80 C54 1_555 1_555
H81 C54 1_555 1_555
H82 C54 1_555 1_555
C55 O16 1_555 1_555
C56 C55 1_555 1_555
H83 C56 1_555 1_555
H84 C56 1_555 1_555
H85 C56 1_555 1_555
C57 O18 1_555 1_555
H86 C57 1_555 1_555
H87 C57 1_555 1_555
H88 C57 1_555 1_555
C58 O19 1_555 1_555
H89 C58 1_555 1_555
H90 C58 1_555 1_555
H91 C58 1_555 1_555
C59 N2 1_555 1_555
C60 C59 1_555 1_555
H92 C60 1_555 1_555
H93 C60 1_555 1_555
H94 C60 1_555 1_555
O2 C17 1_555 1_555
C7 C8 1_555 1_555
C11 C15 1_555 1_555
C13 C14 1_555 1_555
C14 C16 1_555 1_555
O12 C47 1_555 1_555
C37 C38 1_555 1_555
C41 C45 1_555 1_555
C43 C44 1_555 1_555
C44 C46 1_555 1_555

#END
