
#######################################################################
#
#                 Cambridge Crystallographic Data Centre
#                                CCDC 
#
#######################################################################
#
# If this CIF has been generated from an entry in the Cambridge 
# Structural Database, then it will include bibliographic, chemical, 
# crystal, experimental, refinement or atomic coordinate data resulting 
# from the CCDC's data processing and validation procedures.
#
#######################################################################

data_UFIGUO
_chemical_formula_moiety         'C25 H22 Br1 N3 O4'
_chemical_name_systematic        
9-bromo-2-t-butyl-3-ethoxy-5-(2-nitrophenyl)-5H-[1]benzopyrano[3,4-b]pyridine-1-carbonitrile
_symmetry_cell_setting           monoclinic
_symmetry_space_group_name_H-M   'P 21/c'
_symmetry_Int_Tables_number      14
_space_group_name_Hall           '-P 2ybc'
loop_
_symmetry_equiv_pos_site_id
_symmetry_equiv_pos_as_xyz
1 x,y,z
2 -x,1/2+y,1/2-z
3 -x,-y,-z
4 x,1/2-y,1/2+z
_cell_length_a                   6.8547(15)
_cell_length_b                   15.209(3)
_cell_length_c                   23.124(5)
_cell_angle_alpha                90
_cell_angle_beta                 98.52
_cell_angle_gamma                90
_cell_volume                     2384.14
_exptl_crystal_colour            colorless
_exptl_crystal_description       block
_cell_formula_units_Z            4
loop_
_atom_site_label
_atom_site_type_symbol
_atom_site_fract_x
_atom_site_fract_y
_atom_site_fract_z
Br1 Br 1.66625(15) 0.12422(8) 0.19872(5)
C1 C 1.1069(12) 0.1874(5) 0.1140(3)
C2 C 1.2941(14) 0.1906(6) 0.1479(3)
H1 H 1.3369 0.2418 0.1677
C3 C 1.4166(13) 0.1164(7) 0.1519(3)
C4 C 1.3566(15) 0.0395(7) 0.1231(4)
H2 H 1.4343 -0.0108 0.1285
C5 C 1.1786(16) 0.0384(6) 0.0859(4)
H3 H 1.1412 -0.0118 0.0642
C6 C 1.0558(14) 0.1108(5) 0.0807(3)
C7 C 0.8416(13) 0.1909(5) 0.0125(3)
H4 H 0.9505 0.2076 -0.0083
C8 C 0.6542(14) 0.1816(5) -0.0300(3)
C9 C 0.5045(15) 0.1262(6) -0.0149(4)
H5 H 0.5251 0.0970 0.0208
C10 C 0.3261(17) 0.1139(7) -0.0520(4)
H6 H 0.2296 0.0778 -0.0404
C11 C 0.2933(18) 0.1544(7) -0.1046(4)
H7 H 0.1752 0.1457 -0.1294
C12 C 0.4367(19) 0.2088(7) -0.1213(4)
H8 H 0.4151 0.2381 -0.1570
C13 C 0.6144(17) 0.2193(5) -0.0837(4)
C14 C 0.8179(13) 0.2596(5) 0.0600(3)
C15 C 0.9562(12) 0.2583(5) 0.1096(3)
C16 C 0.9257(13) 0.3177(5) 0.1539(3)
C17 C 1.0479(16) 0.3050(7) 0.2105(4)
C18 C 0.7742(14) 0.3832(6) 0.1448(4)
C19 C 0.735(3) 0.4547(9) 0.1869(6)
C20 C 0.906(2) 0.4636(8) 0.2423(5)
H9 H 0.8834 0.5154 0.2641
H10 H 1.0319 0.4680 0.2290
H11 H 0.9046 0.4128 0.2668
C21 C 0.551(2) 0.4357(9) 0.2116(6)
H12 H 0.4666 0.4862 0.2068
H13 H 0.5838 0.4221 0.2524
H14 H 0.4850 0.3865 0.1915
C22 C 0.721(3) 0.5433(9) 0.1612(6)
H15 H 0.6043 0.5471 0.1326
H16 H 0.8349 0.5547 0.1428
H17 H 0.7135 0.5860 0.1914
C23 C 0.6496(18) 0.3736(6) 0.0915(4)
O1 O 0.457(2) 0.4126(9) 0.0872(7)
C24 C 0.321(3) 0.3913(17) 0.0391(12)
H18 H 0.2753 0.3314 0.0421
H19 H 0.3796 0.3967 0.0035
C25 C 0.155(3) 0.4546(12) 0.0385(8)
H20 H 0.1104 0.4543 0.0760
H21 H 0.0480 0.4375 0.0089
H22 H 0.1983 0.5126 0.0302
N1 N 0.7607(19) 0.2771(7) -0.1041(4)
N2 N 1.1382(17) 0.2859(7) 0.2533(4)
N3 N 0.6663(12) 0.3143(5) 0.0502(3)
O2 O 0.8827(9) 0.1074(3) 0.0411(2)
O3 O 0.8651(19) 0.3201(6) -0.0721(4)
O4 O 0.772(2) 0.2805(9) -0.1543(5)
O5? O 0.528(4) 0.4428(15) 0.0739(10)
C26? C 0.384(4) 0.4407(18) 0.0139(12)
H23? H 0.3212 0.4974 0.0052
H24? H 0.4522 0.4236 -0.0181
C27? C 0.245(5) 0.377(2) 0.0247(15)
H25? H 0.1850 0.3940 0.0578
H26? H 0.3107 0.3213 0.0325
H27? H 0.1458 0.3713 -0.0090
loop_
_geom_bond_atom_site_label_1
_geom_bond_atom_site_label_2
_geom_bond_site_symmetry_1
_geom_bond_site_symmetry_2
Br1 C3 1_555 1_555
C1 C2 1_555 1_555
C2 H1 1_555 1_555
C3 C2 1_555 1_555
C4 C3 1_555 1_555
H2 C4 1_555 1_555
C5 C4 1_555 1_555
H3 C5 1_555 1_555
C6 C1 1_555 1_555
C7 H4 1_555 1_555
C8 C7 1_555 1_555
C9 C8 1_555 1_555
H5 C9 1_555 1_555
C10 C9 1_555 1_555
H6 C10 1_555 1_555
C11 C10 1_555 1_555
H7 C11 1_555 1_555
C12 C11 1_555 1_555
H8 C12 1_555 1_555
C13 C8 1_555 1_555
C14 C7 1_555 1_555
C15 C1 1_555 1_555
C16 C15 1_555 1_555
C17 C16 1_555 1_555
C18 C16 1_555 1_555
C19 C18 1_555 1_555
C20 C19 1_555 1_555
H9 C20 1_555 1_555
H10 C20 1_555 1_555
H11 C20 1_555 1_555
C21 C19 1_555 1_555
H12 C21 1_555 1_555
H13 C21 1_555 1_555
H14 C21 1_555 1_555
C22 C19 1_555 1_555
H15 C22 1_555 1_555
H16 C22 1_555 1_555
H17 C22 1_555 1_555
C23 C18 1_555 1_555
O1 C23 1_555 1_555
C24 O1 1_555 1_555
H18 C24 1_555 1_555
H19 C24 1_555 1_555
C25 C24 1_555 1_555
H20 C25 1_555 1_555
H21 C25 1_555 1_555
H22 C25 1_555 1_555
N1 C13 1_555 1_555
N2 C17 1_555 1_555
N3 C14 1_555 1_555
O2 C6 1_555 1_555
O3 N1 1_555 1_555
O4 N1 1_555 1_555
C5 C6 1_555 1_555
C7 O2 1_555 1_555
C12 C13 1_555 1_555
C14 C15 1_555 1_555
C23 N3 1_555 1_555

#END
