
#######################################################################
#
#                 Cambridge Crystallographic Data Centre
#                                CCDC 
#
#######################################################################
#
# If this CIF has been generated from an entry in the Cambridge 
# Structural Database, then it will include bibliographic, chemical, 
# crystal, experimental, refinement or atomic coordinate data resulting 
# from the CCDC's data processing and validation procedures.
#
#######################################################################

data_UFIHID
_chemical_formula_moiety         'C25 H16 Br1 N1 O2'
_chemical_name_systematic        
8-bromo-4-(4-methylphenyl)-2-phenyl-4H-furo[2,3-c][1]benzopyran-1-carbonitrile
_symmetry_cell_setting           monoclinic
_symmetry_space_group_name_H-M   'P 21/c'
_symmetry_Int_Tables_number      14
_space_group_name_Hall           '-P 2ybc'
loop_
_symmetry_equiv_pos_site_id
_symmetry_equiv_pos_as_xyz
1 x,y,z
2 -x,1/2+y,1/2-z
3 -x,-y,-z
4 x,1/2-y,1/2+z
_cell_length_a                   5.3424(18)
_cell_length_b                   19.837(6)
_cell_length_c                   19.534(6)
_cell_angle_alpha                90
_cell_angle_beta                 103.226(10)
_cell_angle_gamma                90
_cell_volume                     2015.25
_exptl_crystal_colour            yellow
_exptl_crystal_description       block
_cell_formula_units_Z            4
loop_
_atom_site_label
_atom_site_type_symbol
_atom_site_fract_x
_atom_site_fract_y
_atom_site_fract_z
Br1 Br 1.4730(2) 1.25310(5) 0.26571(6)
C1 C 0.2349(16) 0.9044(4) 0.3056(4)
H1 H 0.2411 0.8846 0.2629
C2 C 0.0792(16) 0.8763(4) 0.3458(5)
H2 H -0.0191 0.8384 0.3299
C3 C 0.0707(16) 0.9050(5) 0.4095(5)
H3 H -0.0306 0.8860 0.4374
C4 C 0.2097(16) 0.9606(5) 0.4311(4)
H4 H 0.2043 0.9797 0.4742
C5 C 0.3606(13) 0.9899(4) 0.3905(3)
H5 H 0.4495 1.0295 0.4056
C6 C 0.3806(13) 0.9607(4) 0.3274(3)
C7 C 0.5377(13) 0.9907(4) 0.2843(3)
C8 C 0.7129(13) 1.0421(4) 0.2938(3)
C9 C 0.7845(15) 1.0841(4) 0.3528(4)
C10 C 0.4435(19) 0.8957(6) 0.0429(5)
H6 H 0.3084 0.9258 0.0286
C11 C 0.4160(18) 0.8295(8) 0.0196(4)
H7 H 0.2623 0.8149 -0.0093
C12 C 0.621(3) 0.7857(5) 0.0398(5)
C13 C 0.585(2) 0.7144(5) 0.0125(5)
H8 H 0.7388 0.6995 -0.0003
H9 H 0.4437 0.7128 -0.0279
H10 H 0.5491 0.6854 0.0485
C14 C 0.8411(18) 0.8078(6) 0.0812(5)
H11 H 0.9804 0.7787 0.0940
C15 C 0.8618(17) 0.8730(6) 0.1046(4)
H12 H 1.0153 0.8874 0.1337
C16 C 0.665(2) 0.9169(4) 0.0864(4)
C17 C 0.6924(16) 0.9901(5) 0.1121(3)
H13 H 0.5515 1.0165 0.0835
C18 C 0.6857(15) 0.9986(4) 0.1893(3)
C19 C 0.8103(13) 1.0468(4) 0.2307(3)
C20 C 0.9897(13) 1.0895(4) 0.2060(3)
C21 C 1.1175(14) 1.1442(4) 0.2419(4)
H14 H 1.0882 1.1563 0.2854
C22 C 1.2876(15) 1.1806(3) 0.2134(4)
C23 C 1.3247(16) 1.1654(5) 0.1478(5)
H15 H 1.4363 1.1913 0.1284
C24 C 1.1981(16) 1.1125(5) 0.1112(4)
H16 H 1.2223 1.1024 0.0667
C25 C 1.0337(14) 1.0738(4) 0.1401(4)
N1 N 0.8462(15) 1.1185(4) 0.4010(4)
O1 O 0.5200(8) 0.9630(2) 0.2187(2)
O2 O 0.9312(10) 1.0177(3) 0.1034(2)
loop_
_geom_bond_atom_site_label_1
_geom_bond_atom_site_label_2
_geom_bond_site_symmetry_1
_geom_bond_site_symmetry_2
Br1 C22 1_555 1_555
C1 H1 1_555 1_555
C2 C1 1_555 1_555
H2 C2 1_555 1_555
C3 C2 1_555 1_555
H3 C3 1_555 1_555
C4 C3 1_555 1_555
H4 C4 1_555 1_555
C5 C4 1_555 1_555
H5 C5 1_555 1_555
C6 C1 1_555 1_555
C7 C6 1_555 1_555
C8 C7 1_555 1_555
C9 C8 1_555 1_555
C10 H6 1_555 1_555
C11 C10 1_555 1_555
H7 C11 1_555 1_555
C12 C11 1_555 1_555
C13 C12 1_555 1_555
H8 C13 1_555 1_555
H9 C13 1_555 1_555
H10 C13 1_555 1_555
C14 C12 1_555 1_555
H11 C14 1_555 1_555
C15 C14 1_555 1_555
H12 C15 1_555 1_555
C16 C10 1_555 1_555
C17 C16 1_555 1_555
H13 C17 1_555 1_555
C18 C17 1_555 1_555
C19 C8 1_555 1_555
C20 C19 1_555 1_555
C21 C20 1_555 1_555
H14 C21 1_555 1_555
C22 C21 1_555 1_555
C23 C22 1_555 1_555
H15 C23 1_555 1_555
C24 C23 1_555 1_555
H16 C24 1_555 1_555
C25 C20 1_555 1_555
N1 C9 1_555 1_555
O1 C7 1_555 1_555
O2 C17 1_555 1_555
C5 C6 1_555 1_555
C15 C16 1_555 1_555
C18 C19 1_555 1_555
C18 O1 1_555 1_555
C24 C25 1_555 1_555
C25 O2 1_555 1_555

#END
