
#######################################################################
#
#                 Cambridge Crystallographic Data Centre
#                                CCDC 
#
#######################################################################
#
# If this CIF has been generated from an entry in the Cambridge 
# Structural Database, then it will include bibliographic, chemical, 
# crystal, experimental, refinement or atomic coordinate data resulting 
# from the CCDC's data processing and validation procedures.
#
#######################################################################

data_UFINUU
_chemical_formula_moiety         '2(C6 H11 N2 1+),C2 H1 N9 2-'
_chemical_name_systematic        
"bis(1,2,3-Trimethyl-1H-imidazol-3-ium) 5,5'-iminobistetrazol-1-ide"
_symmetry_cell_setting           monoclinic
_symmetry_space_group_name_H-M   'P 21/c'
_symmetry_Int_Tables_number      14
_space_group_name_Hall           '-P 2ybc'
loop_
_symmetry_equiv_pos_site_id
_symmetry_equiv_pos_as_xyz
1 x,y,z
2 -x,1/2+y,1/2-z
3 -x,-y,-z
4 x,1/2-y,1/2+z
_cell_length_a                   17.5869(3)
_cell_length_b                   12.8757(2)
_cell_length_c                   21.9203(6)
_cell_angle_alpha                90
_cell_angle_beta                 125.0580(10)
_cell_angle_gamma                90
_cell_volume                     4063.15
_exptl_crystal_colour            colorless
_exptl_crystal_description       block
_cell_formula_units_Z            8
_exptl_crystal_recrystallization_method 'ethyl acetate/methanol'
loop_
_atom_site_label
_atom_site_type_symbol
_atom_site_fract_x
_atom_site_fract_y
_atom_site_fract_z
N1 N 0.11772(17) 0.1159(2) 0.34310(14)
N2 N 0.14832(19) 0.1143(2) 0.41562(14)
N3 N 0.23861(18) 0.1077(2) 0.45714(14)
N4 N 0.27206(17) 0.1057(2) 0.41464(14)
N5 N 0.19000(18) 0.1085(2) 0.28034(15)
H1 H 0.137(3) 0.107(3) 0.238(2)
N6 N 0.35288(17) 0.0893(2) 0.32888(14)
N7 N 0.39460(17) 0.0816(2) 0.29265(15)
N8 N 0.33264(18) 0.0852(2) 0.22108(15)
N9 N 0.24657(18) 0.0950(2) 0.20572(15)
C1 C 0.1951(2) 0.1098(2) 0.34538(16)
C2 C 0.2630(2) 0.0977(2) 0.27345(16)
N10 N 0.00603(17) 0.6134(2) 0.34648(14)
N11 N 0.03860(18) 0.6354(2) 0.41803(14)
N12 N 0.12821(18) 0.6488(2) 0.45679(14)
N13 N 0.15935(17) 0.6363(2) 0.41250(13)
N14 N 0.07536(17) 0.5946(2) 0.28140(13)
H2 H 0.0215 0.5795 0.2421
N15 N 0.23608(17) 0.5711(2) 0.32795(14)
N16 N 0.28129(18) 0.5845(2) 0.29483(15)
N17 N 0.22269(19) 0.6151(2) 0.22584(15)
N18 N 0.13706(18) 0.6250(2) 0.21119(14)
C3 C 0.08176(19) 0.6147(2) 0.34611(15)
C4 C 0.1494(2) 0.5970(2) 0.27534(15)
N19 N 0.41453(18) 0.8704(2) 0.46681(14)
N20 N 0.4093(2) 0.8418(2) 0.36743(15)
C5 C 0.3573(2) 0.8505(2) 0.39343(18)
C6 C 0.5015(2) 0.8567(3) 0.4261(2)
H3 H 0.5523 0.8548 0.4233
C7 C 0.5040(2) 0.8743(2) 0.4870(2)
H4 H 0.5569 0.8869 0.5346
C8 C 0.2554(2) 0.8396(3) 0.3509(2)
H5 H 0.2300 0.8280 0.2993
H6 H 0.2294 0.9020 0.3558
H7 H 0.2406 0.7818 0.3700
C9 C 0.3748(3) 0.8259(3) 0.2900(2)
H8 H 0.3344 0.7666 0.2707
H9 H 0.4262 0.8143 0.2866
H10 H 0.3411 0.8863 0.2615
C10 C 0.3859(3) 0.8854(3) 0.5169(2)
H11 H 0.3536 0.9503 0.5059
H12 H 0.4398 0.8859 0.5676
H13 H 0.3455 0.8297 0.5103
N21 N 0.4703(2) 0.3609(2) 0.4278(2)
N22 N 0.58595(19) 0.3723(2) 0.41848(16)
C11 C 0.4941(3) 0.3576(3) 0.3797(2)
C12 C 0.6203(2) 0.3873(2) 0.49168(19)
H14 H 0.6820 0.3997 0.5305
C13 C 0.5484(3) 0.3806(3) 0.4970(2)
H15 H 0.5512 0.3881 0.5404
C14 C 0.4307(3) 0.3411(4) 0.2985(2)
H16 H 0.3959 0.4034 0.2750
H17 H 0.3888 0.2853 0.2884
H18 H 0.4662 0.3237 0.2792
C15 C 0.6412(3) 0.3760(4) 0.3878(2)
H19 H 0.6351 0.3114 0.3635
H20 H 0.7053 0.3873 0.4275
H21 H 0.6195 0.4317 0.3524
C16 C 0.3762(3) 0.3486(3) 0.4086(4)
H22 H 0.3353 0.3969 0.3699
H23 H 0.3765 0.3618 0.4518
H24 H 0.3550 0.2790 0.3915
N23 N 0.00343(18) 0.37681(19) 0.42998(14)
N24 N 0.1376(2) 0.3775(2) 0.44866(16)
C17 C 0.0465(2) 0.3697(2) 0.39610(17)
C18 C 0.1521(2) 0.3909(2) 0.51744(19)
H25 H 0.2091 0.3988 0.5631
C19 C 0.0687(2) 0.3904(2) 0.50538(18)
H26 H 0.0567 0.3978 0.5413
C20 C 0.0019(3) 0.3544(3) 0.31563(19)
H27 H -0.0320 0.2902 0.3001
H28 H 0.0486 0.3523 0.3060
H29 H -0.0400 0.4108 0.2884
C21 C 0.2113(3) 0.3742(3) 0.4367(2)
H30 H 0.2015 0.3159 0.4055
H31 H 0.2704 0.3672 0.4838
H32 H 0.2104 0.4372 0.4128
C22 C -0.0975(2) 0.3737(3) 0.39233(19)
H33 H -0.1246 0.4363 0.3641
H34 H -0.1111 0.3679 0.4288
H35 H -0.1228 0.3149 0.3595
N25 N -0.06472(19) 0.3796(2) 0.00253(15)
N26 N 0.08003(19) 0.3655(2) 0.09075(15)
C23 C -0.0041(2) 0.3744(2) 0.07690(17)
C24 C 0.0739(3) 0.3643(3) 0.0258(2)
H36 H 0.1229 0.3586 0.0209
C25 C -0.0159(3) 0.3729(2) -0.02934(19)
H37 H -0.0412 0.3742 -0.0800
C26 C -0.0259(3) 0.3805(3) 0.1321(2)
H38 H -0.0191 0.4509 0.1490
H39 H 0.0158 0.3365 0.1737
H40 H -0.0887 0.3580 0.1098
C27 C 0.1672(3) 0.3547(3) 0.1652(2)
H41 H 0.1687 0.4049 0.1982
H42 H 0.2188 0.3660 0.1621
H43 H 0.1709 0.2861 0.1838
C28 C -0.1655(3) 0.3872(3) -0.0384(2)
H44 H -0.1889 0.3269 -0.0285
H45 H -0.1927 0.3916 -0.0908
H46 H -0.1812 0.4483 -0.0227
loop_
_geom_bond_atom_site_label_1
_geom_bond_atom_site_label_2
_geom_bond_site_symmetry_1
_geom_bond_site_symmetry_2
N1 N2 1_555 1_555
N2 N3 1_555 1_555
N3 N4 1_555 1_555
N4 C1 1_555 1_555
N5 H1 1_555 1_555
N6 N7 1_555 1_555
N7 N8 1_555 1_555
N8 N9 1_555 1_555
N9 C2 1_555 1_555
C1 N1 1_555 1_555
C2 N5 1_555 1_555
N10 N11 1_555 1_555
N11 N12 1_555 1_555
N12 N13 1_555 1_555
N13 C3 1_555 1_555
N14 H2 1_555 1_555
N15 N16 1_555 1_555
N16 N17 1_555 1_555
N17 N18 1_555 1_555
N18 C4 1_555 1_555
C3 N10 1_555 1_555
C4 N14 1_555 1_555
N19 C5 1_555 1_555
N20 C5 1_555 1_555
C5 C8 1_555 1_555
C6 N20 1_555 1_555
H3 C6 1_555 1_555
C7 N19 1_555 1_555
H4 C7 1_555 1_555
C8 H5 1_555 1_555
H6 C8 1_555 1_555
H7 C8 1_555 1_555
C9 N20 1_555 1_555
H8 C9 1_555 1_555
H9 C9 1_555 1_555
H10 C9 1_555 1_555
C10 N19 1_555 1_555
H11 C10 1_555 1_555
H12 C10 1_555 1_555
H13 C10 1_555 1_555
N21 C11 1_555 1_555
N22 C11 1_555 1_555
C11 C14 1_555 1_555
C12 N22 1_555 1_555
H14 C12 1_555 1_555
C13 N21 1_555 1_555
H15 C13 1_555 1_555
C14 H16 1_555 1_555
H17 C14 1_555 1_555
H18 C14 1_555 1_555
C15 N22 1_555 1_555
H19 C15 1_555 1_555
H20 C15 1_555 1_555
H21 C15 1_555 1_555
C16 N21 1_555 1_555
H22 C16 1_555 1_555
H23 C16 1_555 1_555
H24 C16 1_555 1_555
N23 C17 1_555 1_555
N24 C17 1_555 1_555
C17 C20 1_555 1_555
C18 N24 1_555 1_555
H25 C18 1_555 1_555
C19 N23 1_555 1_555
H26 C19 1_555 1_555
C20 H27 1_555 1_555
H28 C20 1_555 1_555
H29 C20 1_555 1_555
C21 N24 1_555 1_555
H30 C21 1_555 1_555
H31 C21 1_555 1_555
H32 C21 1_555 1_555
C22 N23 1_555 1_555
H33 C22 1_555 1_555
H34 C22 1_555 1_555
H35 C22 1_555 1_555
N25 C23 1_555 1_555
N26 C23 1_555 1_555
C23 C26 1_555 1_555
C24 N26 1_555 1_555
H36 C24 1_555 1_555
C25 N25 1_555 1_555
H37 C25 1_555 1_555
C26 H38 1_555 1_555
H39 C26 1_555 1_555
H40 C26 1_555 1_555
C27 N26 1_555 1_555
H41 C27 1_555 1_555
H42 C27 1_555 1_555
H43 C27 1_555 1_555
C28 N25 1_555 1_555
H44 C28 1_555 1_555
H45 C28 1_555 1_555
H46 C28 1_555 1_555
N5 C1 1_555 1_555
N6 C2 1_555 1_555
N14 C3 1_555 1_555
N15 C4 1_555 1_555
C6 C7 1_555 1_555
C12 C13 1_555 1_555
C18 C19 1_555 1_555
C24 C25 1_555 1_555

#END
