
#######################################################################
#
#                 Cambridge Crystallographic Data Centre
#                                CCDC 
#
#######################################################################
#
# If this CIF has been generated from an entry in the Cambridge 
# Structural Database, then it will include bibliographic, chemical, 
# crystal, experimental, refinement or atomic coordinate data resulting 
# from the CCDC's data processing and validation procedures.
#
#######################################################################

data_UFOHIG
_chemical_formula_moiety         'C30 H43 N6 1+,Cl1 O4 1-,H2 O1'
_chemical_name_systematic        
'1-((3,5-Dimethylpyrazol-2-ium-1-yl)methyl)-3,5-bis((3,5-dimethylpyrazol-1-yl)methyl)-2,4,6-triethylbenzene perchlorate monohydrate'
_symmetry_cell_setting           monoclinic
_symmetry_space_group_name_H-M   'P 21/c'
_symmetry_Int_Tables_number      14
_space_group_name_Hall           '-P 2ybc'
loop_
_symmetry_equiv_pos_site_id
_symmetry_equiv_pos_as_xyz
1 x,y,z
2 -x,1/2+y,1/2-z
3 -x,-y,-z
4 x,1/2-y,1/2+z
_cell_length_a                   8.9653(1)
_cell_length_b                   19.4149(3)
_cell_length_c                   18.4104(2)
_cell_angle_alpha                90
_cell_angle_beta                 90.086(1)
_cell_angle_gamma                90
_cell_volume                     3204.52
_exptl_crystal_colour            colorless
_exptl_crystal_description       'rectangular plates'
_cell_formula_units_Z            4
loop_
_atom_site_label
_atom_site_type_symbol
_atom_site_fract_x
_atom_site_fract_y
_atom_site_fract_z
O1 O 0.0868(2) 0.2949(1) 0.4834(1)
Cl1 Cl -0.3759(1) 0.0561(1) 0.3473(1)
O2 O -0.3946(2) 0.0866(2) 0.2780(1)
O3 O -0.3849(3) -0.0163(1) 0.3430(2)
O4 O -0.4942(3) 0.0801(1) 0.3924(2)
O5 O -0.2350(2) 0.0773(1) 0.3782(1)
N1 N -0.1731(2) 0.4139(1) 0.3636(1)
N2 N -0.0426(2) 0.3773(1) 0.3692(1)
N3 N 0.0478(2) 0.3571(1) 0.6836(1)
N4 N 0.1343(2) 0.3611(1) 0.6224(1)
N5 N -0.1333(2) 0.1374(1) 0.5328(1)
N6 N 0.0008(2) 0.1691(1) 0.5241(1)
C1 C -0.2796(2) 0.2945(1) 0.4752(1)
C2 C -0.2548(2) 0.3658(1) 0.4834(1)
C3 C -0.1991(2) 0.3930(1) 0.5489(1)
C4 C -0.1778(2) 0.3485(1) 0.6086(1)
C5 C -0.2097(2) 0.2778(1) 0.6025(1)
C6 C -0.2573(2) 0.2511(1) 0.5350(1)
C7 C -0.3316(2) 0.2649(1) 0.4034(1)
C8 C -0.5017(3) 0.2595(2) 0.3981(1)
C9 C -0.2895(2) 0.4132(1) 0.4200(1)
C10 C 0.0299(2) 0.3898(1) 0.3069(1)
C11 C -0.0533(3) 0.4341(1) 0.2628(1)
C12 C -0.1827(3) 0.4482(1) 0.2997(1)
C13 C 0.1768(3) 0.3562(2) 0.2907(1)
C14 C -0.3198(3) 0.4880(1) 0.2793(1)
C15 C -0.1661(3) 0.4695(1) 0.5553(1)
C16 C -0.3011(3) 0.5106(1) 0.5834(2)
C17 C -0.1112(2) 0.3754(1) 0.6792(1)
C18 C 0.2726(2) 0.3466(1) 0.6450(1)
C19 C 0.2748(2) 0.3337(1) 0.7195(1)
C20 C 0.1301(2) 0.3412(1) 0.7434(1)
C21 C 0.3995(3) 0.3474(2) 0.5916(2)
C22 C 0.0641(3) 0.3344(2) 0.8181(1)
C23 C -0.1975(2) 0.2301(1) 0.6678(1)
C24 C -0.3482(3) 0.2231(1) 0.7070(1)
C25 C -0.2778(2) 0.1741(1) 0.5269(1)
C26 C 0.1100(2) 0.1249(1) 0.5421(1)
C27 C 0.0431(2) 0.0631(1) 0.5628(1)
C28 C -0.1100(2) 0.0725(1) 0.5564(1)
C29 C 0.2709(3) 0.1451(1) 0.5388(2)
C30 C -0.2372(3) 0.0250(1) 0.5716(1)
loop_
_geom_bond_atom_site_label_1
_geom_bond_atom_site_label_2
_geom_bond_site_symmetry_1
_geom_bond_site_symmetry_2
Cl1 O2 1_555 1_555
O3 Cl1 1_555 1_555
O4 Cl1 1_555 1_555
O5 Cl1 1_555 1_555
N1 N2 1_555 1_555
N2 C10 1_555 1_555
N3 N4 1_555 1_555
N4 C18 1_555 1_555
N5 N6 1_555 1_555
N6 C26 1_555 1_555
C1 C2 1_555 1_555
C2 C3 1_555 1_555
C3 C4 1_555 1_555
C4 C5 1_555 1_555
C5 C6 1_555 1_555
C6 C1 1_555 1_555
C7 C1 1_555 1_555
C8 C7 1_555 1_555
C9 N1 1_555 1_555
C10 C11 1_555 1_555
C11 C12 1_555 1_555
C12 N1 1_555 1_555
C13 C10 1_555 1_555
C14 C12 1_555 1_555
C15 C3 1_555 1_555
C16 C15 1_555 1_555
C17 N3 1_555 1_555
C18 C19 1_555 1_555
C19 C20 1_555 1_555
C20 N3 1_555 1_555
C21 C18 1_555 1_555
C22 C20 1_555 1_555
C23 C5 1_555 1_555
C24 C23 1_555 1_555
C25 N5 1_555 1_555
C26 C27 1_555 1_555
C27 C28 1_555 1_555
C28 N5 1_555 1_555
C29 C26 1_555 1_555
C30 C28 1_555 1_555
C2 C9 1_555 1_555
C4 C17 1_555 1_555
C6 C25 1_555 1_555

#END
