
#######################################################################
#
#                 Cambridge Crystallographic Data Centre
#                                CCDC 
#
#######################################################################
#
# If this CIF has been generated from an entry in the Cambridge 
# Structural Database, then it will include bibliographic, chemical, 
# crystal, experimental, refinement or atomic coordinate data resulting 
# from the CCDC's data processing and validation procedures.
#
#######################################################################

data_UFONUZ
_chemical_formula_moiety         'C28 H28 Br2 N4 O8,C2 H4 Cl2'
_chemical_name_systematic        
'5,7,12,13b,13c,14-Hexahydro-1,4-dibromo-8,11-dimethoxy-13b,13c-bis(ethoxycarbonyl)-6H,13H-5a,6a,12a,13a-tetra-azabenzo[5,6]azuleno[2,1,8-ija]benzo[f]azulene-6,13-dione 1,2-dichloroethane solvate'
_symmetry_cell_setting           monoclinic
_symmetry_space_group_name_H-M   'P 21/c'
_symmetry_Int_Tables_number      14
_space_group_name_Hall           '-P 2ybc'
loop_
_symmetry_equiv_pos_site_id
_symmetry_equiv_pos_as_xyz
1 x,y,z
2 -x,1/2+y,1/2-z
3 -x,-y,-z
4 x,1/2-y,1/2+z
_cell_length_a                   12.7790(17)
_cell_length_b                   21.565(3)
_cell_length_c                   12.2544(16)
_cell_angle_alpha                90
_cell_angle_beta                 107.014(2)
_cell_angle_gamma                90
_cell_volume                     3229.25
_exptl_crystal_colour            colorless
_exptl_crystal_description       irregular
_chemical_melting_point          '288-290 deg.C'
_cell_formula_units_Z            4
_exptl_crystal_recrystallization_method 1,2-dichloroethane
loop_
_atom_site_label
_atom_site_type_symbol
_atom_site_fract_x
_atom_site_fract_y
_atom_site_fract_z
Br1 Br 1.11466(4) 0.56313(2) 0.51170(4)
Br2 Br 1.12454(4) 0.78891(2) 0.16022(4)
C1 C 0.9229(4) 0.3596(2) 0.0474(4)
H1 H 0.9037 0.3387 -0.0249
H2 H 0.9177 0.3312 0.1059
H3 H 0.9964 0.3750 0.0646
C2 C 0.8578(6) 0.5946(3) -0.3544(5)
H4 H 0.9354 0.5877 -0.3328
H5 H 0.8405 0.6313 -0.4006
H6 H 0.8207 0.5597 -0.3972
C3 C 0.8537(3) 0.4555(2) -0.0348(4)
C4 C 0.9109(3) 0.4533(2) -0.1136(4)
H7 H 0.9546 0.4191 -0.1158
C5 C 0.9042(3) 0.5010(2) -0.1890(4)
H8 H 0.9437 0.4990 -0.2417
C6 C 0.8390(3) 0.5524(2) -0.1878(3)
C7 C 0.7821(3) 0.55591(18) -0.1061(3)
C8 C 0.7890(3) 0.50672(19) -0.0298(3)
C9 C 0.7242(3) 0.50617(18) 0.0553(3)
H9 H 0.6470 0.5033 0.0139
H10 H 0.7435 0.4693 0.1021
C10 C 0.7081(3) 0.61164(18) -0.1082(3)
H11 H 0.7161 0.6403 -0.1662
H12 H 0.6327 0.5975 -0.1308
C11 C 0.8169(3) 0.56182(19) 0.2355(3)
C12 C 0.8088(3) 0.69010(18) 0.0340(3)
C13 C 0.6950(3) 0.62033(18) 0.0931(3)
C14 C 0.5689(3) 0.6179(2) 0.0641(4)
C15 C 0.4025(4) 0.6718(3) -0.0217(5)
H13 H 0.3761 0.6957 -0.0914
H14 H 0.3715 0.6304 -0.0362
C16 C 0.3677(4) 0.7003(3) 0.0668(6)
H15 H 0.3799 0.6724 0.1303
H16 H 0.2912 0.7100 0.0387
H17 H 0.4086 0.7377 0.0909
C17 C 0.7549(3) 0.66375(18) 0.1955(3)
C18 C 0.6784(3) 0.7033(2) 0.2441(4)
C19 C 0.5763(4) 0.7060(3) 0.3749(5)
H18 H 0.5166 0.7266 0.3192
H19 H 0.6209 0.7374 0.4237
C21 C 0.532(2) 0.6623(8) 0.445(2)
H25 H 0.4787 0.6355 0.3954
H26 H 0.4974 0.6855 0.4920
H27 H 0.5902 0.6379 0.4925
C22 C 0.9051(3) 0.64166(19) 0.3760(3)
H28 H 0.9202 0.6095 0.4338
H29 H 0.8802 0.6780 0.4078
C23 C 0.9073(3) 0.74171(18) 0.2175(3)
H30 H 0.8822 0.7609 0.2769
H31 H 0.9232 0.7746 0.1707
C24 C 1.0108(3) 0.65767(18) 0.3497(3)
C25 C 1.1080(3) 0.62614(19) 0.4008(3)
C26 C 1.2043(3) 0.6400(2) 0.3775(4)
H32 H 1.2676 0.6174 0.4111
C27 C 1.2053(3) 0.6879(2) 0.3032(4)
H33 H 1.2696 0.6981 0.2864
C28 C 1.1106(3) 0.7207(2) 0.2540(3)
C29 C 1.0120(3) 0.70602(18) 0.2726(3)
N1 N 0.7408(2) 0.56042(14) 0.1306(3)
N2 N 0.7289(2) 0.64525(14) -0.0004(2)
N3 N 0.8176(2) 0.62065(14) 0.2785(3)
N4 N 0.8199(2) 0.70304(14) 0.1469(3)
O1 O 0.8545(2) 0.40681(15) 0.0427(3)
O2 O 0.8266(3) 0.60169(14) -0.2638(3)
O3 O 0.8716(2) 0.51827(13) 0.2838(2)
O4 O 0.8584(2) 0.71464(13) -0.0244(2)
O5 O 0.5214(2) 0.57538(16) 0.0894(3)
O6 O 0.5230(2) 0.66786(15) 0.0109(3)
O7 O 0.6572(3) 0.75605(16) 0.2195(3)
O8 O 0.6424(2) 0.67124(15) 0.3166(3)
Cl1 Cl 0.42307(12) 0.62207(8) 0.68660(14)
Cl2 Cl 0.56801(13) 0.49308(10) 0.67416(16)
C30 C 0.3947(4) 0.5460(3) 0.7224(5)
H34 H 0.4347 0.5381 0.8015
H35 H 0.3172 0.5426 0.7150
C31 C 0.4240(4) 0.4989(3) 0.6507(5)
H36 H 0.3892 0.5090 0.5711
H37 H 0.3962 0.4590 0.6660
H20? H 0.5025 0.7108 0.3290
H21? H 0.6082 0.7470 0.3995
C20? C 0.597(5) 0.6711(15) 0.486(2)
H22? H 0.5851 0.6276 0.4701
H23? H 0.5474 0.6857 0.5259
H24? H 0.6708 0.6779 0.5315
loop_
_geom_bond_atom_site_label_1
_geom_bond_atom_site_label_2
_geom_bond_site_symmetry_1
_geom_bond_site_symmetry_2
Br1 C25 1_555 1_555
Br2 C28 1_555 1_555
Cl1 C30 1_555 1_555
Cl2 C31 1_555 1_555
C1 H1 1_555 1_555
H2 C1 1_555 1_555
H3 C1 1_555 1_555
C2 H4 1_555 1_555
H5 C2 1_555 1_555
H6 C2 1_555 1_555
C3 C4 1_555 1_555
C4 H7 1_555 1_555
C5 C4 1_555 1_555
H8 C5 1_555 1_555
C6 C5 1_555 1_555
C7 C6 1_555 1_555
C8 C3 1_555 1_555
C9 C8 1_555 1_555
H9 C9 1_555 1_555
H10 C9 1_555 1_555
C10 C7 1_555 1_555
H11 C10 1_555 1_555
H12 C10 1_555 1_555
C11 N1 1_555 1_555
C12 N2 1_555 1_555
C13 C14 1_555 1_555
C14 O5 1_555 1_555
C15 H13 1_555 1_555
H14 C15 1_555 1_555
C16 C15 1_555 1_555
H15 C16 1_555 1_555
H16 C16 1_555 1_555
H17 C16 1_555 1_555
C17 C13 1_555 1_555
C18 C17 1_555 1_555
C19 H18 1_555 1_555
H19 C19 1_555 1_555
C21 C19 1_555 1_555
H25 C21 1_555 1_555
H26 C21 1_555 1_555
H27 C21 1_555 1_555
C22 H28 1_555 1_555
H29 C22 1_555 1_555
C23 H30 1_555 1_555
H31 C23 1_555 1_555
C24 C22 1_555 1_555
C25 C24 1_555 1_555
C26 C25 1_555 1_555
H32 C26 1_555 1_555
C27 C26 1_555 1_555
H33 C27 1_555 1_555
C28 C27 1_555 1_555
C29 C23 1_555 1_555
C30 H34 1_555 1_555
H35 C30 1_555 1_555
C31 C30 1_555 1_555
H36 C31 1_555 1_555
H37 C31 1_555 1_555
N1 C9 1_555 1_555
N2 C10 1_555 1_555
N3 C11 1_555 1_555
N4 C12 1_555 1_555
O1 C1 1_555 1_555
O2 C2 1_555 1_555
O3 C11 1_555 1_555
O4 C12 1_555 1_555
O6 C14 1_555 1_555
O7 C18 1_555 1_555
O8 C18 1_555 1_555
C3 O1 1_555 1_555
C6 O2 1_555 1_555
C7 C8 1_555 1_555
C13 N1 1_555 1_555
C13 N2 1_555 1_555
C15 O6 1_555 1_555
C17 N3 1_555 1_555
C17 N4 1_555 1_555
C19 O8 1_555 1_555
C22 N3 1_555 1_555
C23 N4 1_555 1_555
C24 C29 1_555 1_555
C28 C29 1_555 1_555

#END
