
#######################################################################
#
#                 Cambridge Crystallographic Data Centre
#                                CCDC 
#
#######################################################################
#
# If this CIF has been generated from an entry in the Cambridge 
# Structural Database, then it will include bibliographic, chemical, 
# crystal, experimental, refinement or atomic coordinate data resulting 
# from the CCDC's data processing and validation procedures.
#
#######################################################################

data_UFOSAL
_chemical_formula_moiety         'C14 H12 N2 O1'
_chemical_name_systematic        2-Anilinoisoindolin-1-one
_symmetry_cell_setting           triclinic
_symmetry_space_group_name_H-M   'P -1'
_symmetry_Int_Tables_number      2
_space_group_name_Hall           '-P 1'
loop_
_symmetry_equiv_pos_site_id
_symmetry_equiv_pos_as_xyz
1 x,y,z
2 -x,-y,-z
_cell_length_a                   7.9913(6)
_cell_length_b                   8.5028(8)
_cell_length_c                   9.1547(8)
_cell_angle_alpha                77.853(8)
_cell_angle_beta                 87.484(7)
_cell_angle_gamma                76.172(7)
_cell_volume                     590.482
_exptl_crystal_colour            colorless
_exptl_crystal_description       block
_cell_formula_units_Z            2
loop_
_atom_site_label
_atom_site_type_symbol
_atom_site_fract_x
_atom_site_fract_y
_atom_site_fract_z
O1 O 0.46961(13) 0.85113(14) 0.16711(13)
N1 N 0.23929(16) 1.07351(17) 0.15495(18)
N2 N 0.32408(19) 1.19762(18) 0.0976(2)
H1 H 0.379(2) 1.181(2) 0.010(2)
C1 C 0.1825(2) 0.6569(2) 0.2537(2)
H2 H 0.2869 0.5794 0.2553
C2 C 0.0305(2) 0.6082(2) 0.2857(3)
H3 H 0.0319 0.4960 0.3101
C3 C -0.1243(2) 0.7239(3) 0.2820(3)
H4 H -0.2257 0.6883 0.3031
C4 C -0.1314(2) 0.8913(2) 0.2477(3)
H5 H -0.2359 0.9686 0.2467
C5 C 0.0206(2) 0.9413(2) 0.2150(2)
C6 C 0.17503(19) 0.8241(2) 0.21900(19)
C7 C 0.31479(19) 0.9094(2) 0.17870(19)
C8 C 0.0532(2) 1.1110(2) 0.1717(2)
H6 H -0.0046 1.1717 0.0786
H7 H 0.0169 1.1739 0.2492
C9 C 0.4320(2) 1.23567(18) 0.1963(2)
C10 C 0.4145(2) 1.2018(2) 0.3491(2)
H8 H 0.3337 1.1440 0.3929
C11 C 0.5179(3) 1.2543(3) 0.4372(2)
H9 H 0.5065 1.2306 0.5406
C12 C 0.6365(3) 1.3406(3) 0.3746(3)
H10 H 0.7046 1.3761 0.4346
C13 C 0.6534(2) 1.3739(2) 0.2228(3)
H11 H 0.7333 1.4329 0.1793
C14 C 0.5535(2) 1.32096(19) 0.1337(2)
H12 H 0.5677 1.3427 0.0306
loop_
_geom_bond_atom_site_label_1
_geom_bond_atom_site_label_2
_geom_bond_site_symmetry_1
_geom_bond_site_symmetry_2
O1 C7 1_555 1_555
N1 N2 1_555 1_555
N2 H1 1_555 1_555
C1 H2 1_555 1_555
C2 C1 1_555 1_555
H3 C2 1_555 1_555
C3 C2 1_555 1_555
H4 C3 1_555 1_555
C4 C3 1_555 1_555
H5 C4 1_555 1_555
C5 C4 1_555 1_555
C6 C1 1_555 1_555
C7 N1 1_555 1_555
C8 N1 1_555 1_555
H6 C8 1_555 1_555
H7 C8 1_555 1_555
C9 N2 1_555 1_555
C10 C9 1_555 1_555
H8 C10 1_555 1_555
C11 C10 1_555 1_555
H9 C11 1_555 1_555
C12 C11 1_555 1_555
H10 C12 1_555 1_555
C13 C12 1_555 1_555
H11 C13 1_555 1_555
C14 C9 1_555 1_555
H12 C14 1_555 1_555
C5 C6 1_555 1_555
C5 C8 1_555 1_555
C6 C7 1_555 1_555
C13 C14 1_555 1_555

#END
