
#######################################################################
#
#                 Cambridge Crystallographic Data Centre
#                                CCDC 
#
#######################################################################
#
# If this CIF has been generated from an entry in the Cambridge 
# Structural Database, then it will include bibliographic, chemical, 
# crystal, experimental, refinement or atomic coordinate data resulting 
# from the CCDC's data processing and validation procedures.
#
#######################################################################

data_UFOVUJ
_chemical_formula_moiety         'C20 H18 O4'
_chemical_name_systematic        
'benzyl 4-(4-acetylphenyl)-3-methyl-4-oxobut-2-enoate'
_symmetry_cell_setting           monoclinic
_symmetry_space_group_name_H-M   'C 2/c'
_symmetry_Int_Tables_number      15
_space_group_name_Hall           '-C 2yn'
loop_
_symmetry_equiv_pos_site_id
_symmetry_equiv_pos_as_xyz
1 x,y,z
2 -x,y,1/2-z
3 1/2+x,1/2+y,z
4 1/2-x,1/2+y,1/2-z
5 -x,-y,-z
6 x,-y,1/2+z
7 1/2-x,1/2-y,-z
8 1/2+x,1/2-y,1/2+z
_cell_length_a                   22.7223(19)
_cell_length_b                   5.7888(4)
_cell_length_c                   25.159(2)
_cell_angle_alpha                90
_cell_angle_beta                 95.416(8)
_cell_angle_gamma                90
_cell_volume                     3294.51
_exptl_crystal_colour            yellow
_exptl_crystal_description       needle
_cell_formula_units_Z            8
loop_
_atom_site_label
_atom_site_type_symbol
_atom_site_fract_x
_atom_site_fract_y
_atom_site_fract_z
O1 O 0.11259(7) 0.8458(3) 0.21633(7)
O2 O 0.36558(8) 0.1640(2) 0.16171(7)
O3 O 0.47640(8) 0.8605(3) 0.08831(8)
O4 O 0.39238(6) 0.9989(3) 0.04781(6)
C1 C 0.07481(12) 0.4683(5) 0.21019(13)
H1 H 0.063035 0.409408 0.175130
H2 H 0.041370 0.537729 0.224580
H3 H 0.089579 0.344067 0.232953
C2 C 0.12180(10) 0.6440(4) 0.20699(9)
C3 C 0.18100(9) 0.5715(3) 0.19210(8)
C4 C 0.22826(9) 0.7229(3) 0.20104(8)
H4 H 0.222305 0.866507 0.216196
C5 C 0.28362(9) 0.6645(3) 0.18792(7)
H5 H 0.314690 0.768673 0.193998
C6 C 0.29328(9) 0.4498(3) 0.16553(7)
C7 C 0.24599(10) 0.2995(3) 0.15593(8)
H6 H 0.251852 0.156556 0.140418
C8 C 0.19079(10) 0.3584(3) 0.16891(9)
H7 H 0.159603 0.255263 0.162187
C9 C 0.35367(9) 0.3678(3) 0.15644(8)
C10 C 0.40019(9) 0.5304(3) 0.14091(8)
C11 C 0.38361(9) 0.6990(3) 0.10695(8)
H8 H 0.343200 0.719696 0.098605
C12 C 0.42320(10) 0.8559(3) 0.08136(9)
C13 C 0.42683(11) 1.1537(4) 0.01902(10)
H9 H 0.447151 1.067676 -0.006837
H10 H 0.456364 1.228451 0.043565
C14 C 0.38782(10) 1.3323(4) -0.00909(8)
C15 C 0.32918(11) 1.3617(4) -0.00155(10)
H11 H 0.311088 1.262870 0.021083
C16 C 0.29718(12) 1.5369(4) -0.02739(11)
H12 H 0.257488 1.555101 -0.022086
C17 C 0.32265(14) 1.6838(5) -0.06054(11)
H13 H 0.300756 1.802607 -0.077620
C18 C 0.38063(15) 1.6549(5) -0.06843(11)
H14 H 0.398331 1.754627 -0.091148
C19 C 0.41329(13) 1.4803(5) -0.04324(10)
H15 H 0.452772 1.461727 -0.049245
C20 C 0.46189(11) 0.4700(4) 0.16210(11)
H16 H 0.465125 0.473791 0.200409
H17 H 0.488898 0.579552 0.149205
H18 H 0.471300 0.317859 0.150295
loop_
_geom_bond_atom_site_label_1
_geom_bond_atom_site_label_2
_geom_bond_site_symmetry_1
_geom_bond_site_symmetry_2
O1 C2 1_555 1_555
O2 C9 1_555 1_555
O3 C12 1_555 1_555
O4 C12 1_555 1_555
C1 H1 1_555 1_555
H2 C1 1_555 1_555
H3 C1 1_555 1_555
C2 C1 1_555 1_555
C3 C2 1_555 1_555
C4 C3 1_555 1_555
H4 C4 1_555 1_555
C5 C4 1_555 1_555
H5 C5 1_555 1_555
C6 C5 1_555 1_555
C7 C6 1_555 1_555
H6 C7 1_555 1_555
C8 C3 1_555 1_555
H7 C8 1_555 1_555
C9 C6 1_555 1_555
C10 C9 1_555 1_555
C11 C10 1_555 1_555
H8 C11 1_555 1_555
C12 C11 1_555 1_555
C13 O4 1_555 1_555
H9 C13 1_555 1_555
H10 C13 1_555 1_555
C14 C13 1_555 1_555
C15 C14 1_555 1_555
H11 C15 1_555 1_555
C16 C15 1_555 1_555
H12 C16 1_555 1_555
C17 C16 1_555 1_555
H13 C17 1_555 1_555
C18 C17 1_555 1_555
H14 C18 1_555 1_555
C19 C14 1_555 1_555
H15 C19 1_555 1_555
C20 C10 1_555 1_555
H16 C20 1_555 1_555
H17 C20 1_555 1_555
H18 C20 1_555 1_555
C7 C8 1_555 1_555
C18 C19 1_555 1_555

#END
