
#######################################################################
#
#                 Cambridge Crystallographic Data Centre
#                                CCDC 
#
#######################################################################
#
# If this CIF has been generated from an entry in the Cambridge 
# Structural Database, then it will include bibliographic, chemical, 
# crystal, experimental, refinement or atomic coordinate data resulting 
# from the CCDC's data processing and validation procedures.
#
#######################################################################

data_UFUCUT
_chemical_formula_moiety         'C26 H23 N3 O4'
_chemical_name_systematic        
"3,4-bis(7',8'-Dimethoxyquinolin-5'-yl)pyrrole unknown solvate"
_symmetry_cell_setting           monoclinic
_symmetry_space_group_name_H-M   'P 21/c'
_symmetry_Int_Tables_number      14
_space_group_name_Hall           '-P 2ybc'
loop_
_symmetry_equiv_pos_site_id
_symmetry_equiv_pos_as_xyz
1 x,y,z
2 x,1/2-y,1/2+z
3 -x,-y,-z
4 -x,1/2+y,1/2-z
_cell_length_a                   8.12680(10)
_cell_length_b                   21.0119(4)
_cell_length_c                   18.7505(3)
_cell_angle_alpha                90
_cell_angle_beta                 95.1067(8)
_cell_angle_gamma                90
_cell_volume                     3189.12
_exptl_crystal_colour            colorless
_exptl_crystal_description       block
_chemical_melting_point          242-245deg.C
_cell_formula_units_Z            4
loop_
_atom_site_label
_atom_site_type_symbol
_atom_site_fract_x
_atom_site_fract_y
_atom_site_fract_z
O1 O 0.63691(17) -0.02233(8) 0.78096(8)
O2 O 0.14679(17) 0.19390(8) 0.74882(8)
O3 O 0.96024(17) -0.05186(7) 0.80124(7)
O4 O 0.34956(16) 0.26100(7) 0.67143(7)
N1 N 0.59495(19) 0.17987(7) 1.07314(7)
N2 N 1.16430(18) 0.00935(7) 0.90249(8)
N3 N 0.65604(19) 0.29483(8) 0.72679(8)
C1 C 0.6966(2) 0.13381(8) 1.05068(8)
C2 C 0.6837(2) 0.13359(8) 0.97681(8)
C3 C 0.5670(2) 0.18255(8) 0.95415(8)
C4 C 0.5167(2) 0.20962(8) 1.01501(9)
C5 C 1.2598(2) 0.03729(9) 0.9524(1)
C6 C 0.8054(3) 0.30983(12) 0.75350(11)
C7 C 1.2083(2) 0.08444(9) 0.99838(9)
C8 C 0.8743(3) 0.29207(13) 0.82199(12)
C9 C 1.0453(2) 0.10225(8) 0.99192(8)
C10 C 0.7809(2) 0.2566(1) 0.8644(1)
C11 C 0.7621(2) 0.08764(8) 0.93047(8)
C12 C 0.5122(2) 0.20271(8) 0.87958(8)
C13 C 0.6660(2) 0.05728(9) 0.87643(9)
C14 C 0.3568(2) 0.18836(9) 0.85012(9)
C15 C 0.7303(2) 0.01040(9) 0.83311(9)
C16 C 0.3001(2) 0.20768(9) 0.78043(9)
C17 C 0.8967(2) -0.00452(8) 0.84185(9)
C18 C 0.4005(2) 0.24328(9) 0.74036(9)
C19 C 0.9887(4) -0.03251(14) 0.73118(12)
C20 C 0.0542(3) 0.14607(14) 0.78192(14)
C21 C 0.2357(3) 0.31270(15) 0.66735(16)
C22 C 0.9339(2) 0.07270(7) 0.94067(8)
C23 C 0.6190(2) 0.23867(8) 0.83870(8)
C24 C 1.0012(2) 0.02609(8) 0.89576(8)
C25 C 0.5609(2) 0.25902(8) 0.76871(9)
C27 C 0.4610(6) -0.0092(2) 0.7740(3)
H1 H 0.7685(2) 0.10500(8) 1.08241(8)
H2 H 0.4358(2) 0.24536(8) 1.01655(9)
H3 H 1.3784(2) 0.02412(9) 0.9585(1)
H4 H 0.8752(3) 0.33568(12) 0.72306(11)
H5 H 1.2886(2) 0.10467(9) 1.03507(9)
H6 H 0.9893(3) 0.30504(13) 0.83939(12)
H7 H 1.0058(2) 0.13621(8) 1.02364(8)
H8 H 0.8271(2) 0.2434(1) 0.9134(1)
H9 H 0.5467(2) 0.06900(9) 0.86774(9)
H10 H 0.2814(2) 0.16342(9) 0.87889(9)
H11 H 1.0345(4) -0.06904(14) 0.70506(12)
H12 H 1.0694(4) 0.00351(14) 0.73377(12)
H13 H 0.8823(4) -0.01832(14) 0.70515(12)
H14 H -0.0553(3) 0.14040(14) 0.75384(14)
H15 H 0.0369(3) 0.15944(14) 0.83189(14)
H16 H 0.1164(3) 0.10495(14) 0.78320(14)
H17 H 0.2036(3) 0.32323(15) 0.61598(16)
H18 H 0.2886(3) 0.35068(15) 0.69201(16)
H19 H 0.1351(3) 0.30047(15) 0.69119(16)
H23 H 0.4060(6) -0.0357(2) 0.7345(3)
H24 H 0.4133(6) -0.0197(2) 0.8199(3)
H25 H 0.4424(6) 0.0369(2) 0.7628(3)
H26 H 0.59334(19) 0.18943(7) 1.12528(7)
C26? C 0.4696(6) -0.0344(3) 0.7954(3)
H20? H 0.4118(6) -0.0583(3) 0.7544(3)
H21? H 0.4686(6) -0.0602(3) 0.8401(3)
H22? H 0.4115(6) 0.0070(3) 0.8016(3)
loop_
_geom_bond_atom_site_label_1
_geom_bond_atom_site_label_2
_geom_bond_site_symmetry_1
_geom_bond_site_symmetry_2
O1 C15 1_555 1_555
O2 C16 1_555 1_555
O3 C17 1_555 1_555
O4 C18 1_555 1_555
N1 C1 1_555 1_555
N2 C5 1_555 1_555
N3 C6 1_555 1_555
C1 C2 1_555 1_555
C2 C3 1_555 1_555
C3 C4 1_555 1_555
C4 N1 1_555 1_555
C5 C7 1_555 1_555
C6 C8 1_555 1_555
C7 C9 1_555 1_555
C8 C10 1_555 1_555
C9 C22 1_555 1_555
C10 C23 1_555 1_555
C11 C2 1_555 1_555
C12 C3 1_555 1_555
C13 C11 1_555 1_555
C14 C12 1_555 1_555
C15 C13 1_555 1_555
C16 C14 1_555 1_555
C17 C15 1_555 1_555
C18 C16 1_555 1_555
C19 O3 1_555 1_555
C20 O2 1_555 1_555
C21 O4 1_555 1_555
C22 C11 1_555 1_555
C23 C12 1_555 1_555
C24 N2 1_555 1_555
C25 N3 1_555 1_555
C27 O1 1_555 1_555
H1 C1 1_555 1_555
H2 C4 1_555 1_555
H3 C5 1_555 1_555
H4 C6 1_555 1_555
H5 C7 1_555 1_555
H6 C8 1_555 1_555
H7 C9 1_555 1_555
H8 C10 1_555 1_555
H9 C13 1_555 1_555
H10 C14 1_555 1_555
H11 C19 1_555 1_555
H12 C19 1_555 1_555
H13 C19 1_555 1_555
H14 C20 1_555 1_555
H15 C20 1_555 1_555
H16 C20 1_555 1_555
H17 C21 1_555 1_555
H18 C21 1_555 1_555
H19 C21 1_555 1_555
H23 C27 1_555 1_555
H24 C27 1_555 1_555
H25 C27 1_555 1_555
H26 N1 1_555 1_555
C17 C24 1_555 1_555
C18 C25 1_555 1_555
C22 C24 1_555 1_555
C23 C25 1_555 1_555

#END
