
#######################################################################
#
#                 Cambridge Crystallographic Data Centre
#                                CCDC 
#
#######################################################################
#
# If this CIF has been generated from an entry in the Cambridge 
# Structural Database, then it will include bibliographic, chemical, 
# crystal, experimental, refinement or atomic coordinate data resulting 
# from the CCDC's data processing and validation procedures.
#
#######################################################################

data_UGACUD
_chemical_formula_moiety         'C27 H34 B1 Br2 N2 S3'
_chemical_name_systematic        
'2,2-dibromo-4,6-bis(2,6-di-isopropylphenyl)-2,4,5,6-tetrahydro-2H,5H-[1,3,2]dithiaborolo[4,5-d]imidazole-5-thione radical'
_symmetry_cell_setting           orthorhombic
_symmetry_space_group_name_H-M   'P n m a'
_symmetry_Int_Tables_number      62
_space_group_name_Hall           '-P 2ac 2n'
loop_
_symmetry_equiv_pos_site_id
_symmetry_equiv_pos_as_xyz
1 x,y,z
2 1/2-x,-y,1/2+z
3 -x,1/2+y,-z
4 1/2+x,1/2-y,1/2-z
5 -x,-y,-z
6 1/2+x,y,1/2-z
7 x,1/2-y,z
8 1/2-x,1/2+y,1/2+z
_cell_length_a                   11.5767(6)
_cell_length_b                   17.8070(9)
_cell_length_c                   15.3595(9)
_cell_angle_alpha                90
_cell_angle_beta                 90
_cell_angle_gamma                90
_cell_volume                     3166.3
_exptl_crystal_colour            'blue purple'
_exptl_crystal_description       plate
_chemical_melting_point          '215-216 deg.C'
_cell_formula_units_Z            4
_exptl_crystal_recrystallization_method toluene
loop_
_atom_site_label
_atom_site_type_symbol
_atom_site_fract_x
_atom_site_fract_y
_atom_site_fract_z
B1 B 0.3674(5) 0.2500 0.5496(5)
Br1 Br 0.4020(6) 0.2500 0.6761(4)
Br2 Br 0.2007(3) 0.2500 0.5103(3)
S1 S 0.83403(13) 0.2500 0.34083(11)
S2 S 0.43906(10) 0.33877(6) 0.50249(8)
N1 N 0.6469(2) 0.31199(15) 0.41903(18)
C1 C 0.7110(4) 0.2500 0.3915(3)
C2 C 0.5486(3) 0.28913(19) 0.4593(2)
C3 C 0.6830(3) 0.38903(18) 0.4100(2)
C4 C 0.6369(3) 0.4308(2) 0.3414(3)
C5 C 0.6720(4) 0.5055(2) 0.3364(3)
H1 H 0.6433 0.5357 0.2920
C6 C 0.7480(4) 0.5353(2) 0.3954(3)
H2 H 0.7713 0.5851 0.3902
C7 C 0.7895(4) 0.4921(2) 0.4617(3)
H3 H 0.8402 0.5135 0.5016
C8 C 0.7590(4) 0.4178(2) 0.4716(2)
C9 C 0.8019(4) 0.3706(3) 0.5475(3)
H4 H 0.7879 0.3177 0.5334
C10 C 0.7333(6) 0.3894(4) 0.6296(3)
H5 H 0.7608 0.3593 0.6772
H6 H 0.7429 0.4416 0.6434
H7 H 0.6529 0.3790 0.6199
C11 C 0.9309(5) 0.3805(4) 0.5633(4)
H8 H 0.9725 0.3684 0.5111
H9 H 0.9464 0.4316 0.5794
H10 H 0.9551 0.3476 0.6094
C12 C 0.5559(4) 0.3972(2) 0.2746(3)
H11 H 0.5294 0.3488 0.2973
C13 C 0.4501(5) 0.4454(4) 0.2596(5)
H12 H 0.4014 0.4220 0.2169
H13 H 0.4083 0.4508 0.3132
H14 H 0.4735 0.4940 0.2391
C14 C 0.6186(6) 0.3823(4) 0.1899(4)
H15 H 0.5657 0.3610 0.1485
H16 H 0.6489 0.4285 0.1674
H17 H 0.6808 0.3477 0.2000
S2F S 0.43906(10) 0.16123(6) 0.50249(8)
N1F N 0.6469(2) 0.18801(15) 0.41903(18)
C2F C 0.5486(3) 0.21087(19) 0.4593(2)
C3F C 0.6830(3) 0.11097(18) 0.4100(2)
C4F C 0.6369(3) 0.0692(2) 0.3414(3)
C5F C 0.6720(4) -0.0055(2) 0.3364(3)
H1F H 0.6433 -0.0357 0.2920
C6F C 0.7480(4) -0.0353(2) 0.3954(3)
H2F H 0.7713 -0.0851 0.3902
C7F C 0.7895(4) 0.0079(2) 0.4617(3)
H3F H 0.8402 -0.0135 0.5016
C8F C 0.7590(4) 0.0822(2) 0.4716(2)
C9F C 0.8019(4) 0.1294(3) 0.5475(3)
H4F H 0.7879 0.1823 0.5334
C10F C 0.7333(6) 0.1106(4) 0.6296(3)
H5F H 0.7608 0.1407 0.6772
H6F H 0.7429 0.0584 0.6434
H7F H 0.6529 0.1210 0.6199
C11F C 0.9309(5) 0.1195(4) 0.5633(4)
H8F H 0.9725 0.1316 0.5111
H9F H 0.9464 0.0684 0.5794
H10F H 0.9551 0.1524 0.6094
C12F C 0.5559(4) 0.1028(2) 0.2746(3)
H11F H 0.5294 0.1512 0.2973
C13F C 0.4501(5) 0.0546(4) 0.2596(5)
H12F H 0.4014 0.0780 0.2169
H13F H 0.4083 0.0492 0.3132
H14F H 0.4735 0.0060 0.2391
C14F C 0.6186(6) 0.1177(4) 0.1899(4)
H15F H 0.5657 0.1390 0.1485
H16F H 0.6489 0.0715 0.1674
H17F H 0.6808 0.1523 0.2000
Br3? Br 0.2007(4) 0.2500 0.5352(5)
Br4? Br 0.3648(10) 0.2500 0.6788(5)
loop_
_geom_bond_atom_site_label_1
_geom_bond_atom_site_label_2
_geom_bond_site_symmetry_1
_geom_bond_site_symmetry_2
B1 Br1 1_555 1_555
Br2 B1 1_555 1_555
S1 C1 1_555 1_555
S2 B1 1_555 1_555
N1 C1 1_555 1_555
C1 N1F 1_555 1_555
C2 S2 1_555 1_555
C3 N1 1_555 1_555
C4 C3 1_555 1_555
C5 C4 1_555 1_555
H1 C5 1_555 1_555
C6 C5 1_555 1_555
H2 C6 1_555 1_555
C7 C6 1_555 1_555
H3 C7 1_555 1_555
C8 C3 1_555 1_555
C9 C8 1_555 1_555
H4 C9 1_555 1_555
C10 C9 1_555 1_555
H5 C10 1_555 1_555
H6 C10 1_555 1_555
H7 C10 1_555 1_555
C11 C9 1_555 1_555
H8 C11 1_555 1_555
H9 C11 1_555 1_555
H10 C11 1_555 1_555
C12 C4 1_555 1_555
H11 C12 1_555 1_555
C13 C12 1_555 1_555
H12 C13 1_555 1_555
H13 C13 1_555 1_555
H14 C13 1_555 1_555
C14 C12 1_555 1_555
H15 C14 1_555 1_555
H16 C14 1_555 1_555
H17 C14 1_555 1_555
S2F B1 1_555 1_555
N1F C2F 1_555 1_555
C2F C2 1_555 1_555
C3F N1F 1_555 1_555
C4F C3F 1_555 1_555
C5F C4F 1_555 1_555
H1F C5F 1_555 1_555
C6F C5F 1_555 1_555
H2F C6F 1_555 1_555
C7F C6F 1_555 1_555
H3F C7F 1_555 1_555
C8F C3F 1_555 1_555
C9F C8F 1_555 1_555
H4F C9F 1_555 1_555
C10F C9F 1_555 1_555
H5F C10F 1_555 1_555
H6F C10F 1_555 1_555
H7F C10F 1_555 1_555
C11F C9F 1_555 1_555
H8F C11F 1_555 1_555
H9F C11F 1_555 1_555
H10F C11F 1_555 1_555
C12F C4F 1_555 1_555
H11F C12F 1_555 1_555
C13F C12F 1_555 1_555
H12F C13F 1_555 1_555
H13F C13F 1_555 1_555
H14F C13F 1_555 1_555
C14F C12F 1_555 1_555
H15F C14F 1_555 1_555
H16F C14F 1_555 1_555
H17F C14F 1_555 1_555
N1 C2 1_555 1_555
C7 C8 1_555 1_555
S2F C2F 1_555 1_555
C7F C8F 1_555 1_555

#END
