
#######################################################################
#
#                 Cambridge Crystallographic Data Centre
#                                CCDC 
#
#######################################################################
#
# If this CIF has been generated from an entry in the Cambridge 
# Structural Database, then it will include bibliographic, chemical, 
# crystal, experimental, refinement or atomic coordinate data resulting 
# from the CCDC's data processing and validation procedures.
#
#######################################################################

data_UGAFOA
_chemical_formula_moiety         'C23 H18 O4'
_chemical_name_systematic        
4'-ethenyl-4'-(furan-2-yl)-2'-phenyl-3H-spiro[1-benzofuran-2,3'-oxolan]-3-one
_symmetry_cell_setting           monoclinic
_symmetry_space_group_name_H-M   'P 21/c'
_symmetry_Int_Tables_number      14
_space_group_name_Hall           '-P 2ybc'
loop_
_symmetry_equiv_pos_site_id
_symmetry_equiv_pos_as_xyz
1 x,y,z
2 -x,1/2+y,1/2-z
3 -x,-y,-z
4 x,1/2-y,1/2+z
_cell_length_a                   12.007(3)
_cell_length_b                   16.355(4)
_cell_length_c                   9.2733(12)
_cell_angle_alpha                90
_cell_angle_beta                 103.052(6)
_cell_angle_gamma                90
_cell_volume                     1773.99
_exptl_crystal_colour            colorless
_exptl_crystal_description       'prism frag'
_cell_formula_units_Z            4
loop_
_atom_site_label
_atom_site_type_symbol
_atom_site_fract_x
_atom_site_fract_y
_atom_site_fract_z
O1 O 0.69809(8) 0.52942(5) 0.22742(9)
O2 O 0.70735(8) 0.62419(6) -0.02834(10)
O3 O 0.82643(8) 0.70457(5) 0.42219(10)
O4 O 0.93040(10) 0.47345(7) 0.33520(12)
C1 C 0.76126(11) 0.60437(8) 0.22577(14)
C2 C 0.87099(11) 0.58566(8) 0.16408(14)
C3 C 0.82519(12) 0.60341(9) -0.00473(14)
H1 H 0.8684 0.6491 -0.0359
H2 H 0.8348 0.5545 -0.0636
C4 C 0.69227(11) 0.66104(8) 0.10525(13)
H3 H 0.7278 0.7166 0.1154
C5 C 0.77981(11) 0.63947(8) 0.38298(14)
C6 C 0.72818(11) 0.58073(8) 0.46550(14)
C7 C 0.71779(11) 0.57836(9) 0.61280(14)
H4 H 0.7469 0.6214 0.6796
C8 C 0.66416(12) 0.51179(9) 0.65813(15)
H5 H 0.6560 0.5087 0.7575
C9 C 0.62156(12) 0.44865(9) 0.55888(16)
H6 H 0.5857 0.4031 0.5931
C10 C 0.63011(12) 0.45054(8) 0.41187(16)
H7 H 0.6008 0.4077 0.3449
C11 C 0.68344(11) 0.51800(8) 0.36810(14)
C12 C 0.90686(11) 0.49876(8) 0.19212(14)
C13 C 0.91673(12) 0.43680(8) 0.10090(15)
H8 H 0.9034 0.4389 -0.0040
C14 C 0.95111(14) 0.36724(10) 0.1925(2)
H9 H 0.9661 0.3140 0.1606
C15 C 0.95814(14) 0.39130(12) 0.3320(2)
H10 H 0.9791 0.3571 0.4166
C16 C 0.56735(11) 0.66847(8) 0.10517(14)
C17 C 0.53213(12) 0.72585(8) 0.19710(15)
H11 H 0.5866 0.7609 0.2571
C18 C 0.41726(13) 0.73160(8) 0.20075(16)
H12 H 0.3936 0.7698 0.2650
C19 C 0.33718(12) 0.68175(9) 0.11092(16)
H13 H 0.2585 0.6867 0.1118
C20 C 0.37228(12) 0.62446(9) 0.01953(15)
H14 H 0.3175 0.5901 -0.0417
C21 C 0.48672(12) 0.61743(8) 0.01770(14)
H15 H 0.5104 0.5776 -0.0436
C22 C 0.96670(12) 0.64571(9) 0.22401(16)
H16 H 0.9479 0.7022 0.2142
C23 C 1.07296(13) 0.62734(11) 0.28810(18)
H17 H 1.0960 0.5717 0.3005
H18 H 1.1267 0.6697 0.3220
loop_
_geom_bond_atom_site_label_1
_geom_bond_atom_site_label_2
_geom_bond_site_symmetry_1
_geom_bond_site_symmetry_2
O1 C1 1_555 1_555
O2 C3 1_555 1_555
O3 C5 1_555 1_555
O4 C12 1_555 1_555
C1 C2 1_555 1_555
C2 C3 1_555 1_555
C3 H1 1_555 1_555
H2 C3 1_555 1_555
C4 O2 1_555 1_555
H3 C4 1_555 1_555
C5 C1 1_555 1_555
C6 C5 1_555 1_555
C7 C6 1_555 1_555
H4 C7 1_555 1_555
C8 C7 1_555 1_555
H5 C8 1_555 1_555
C9 C8 1_555 1_555
H6 C9 1_555 1_555
C10 C9 1_555 1_555
H7 C10 1_555 1_555
C11 O1 1_555 1_555
C12 C2 1_555 1_555
C13 C12 1_555 1_555
H8 C13 1_555 1_555
C14 C13 1_555 1_555
H9 C14 1_555 1_555
C15 O4 1_555 1_555
H10 C15 1_555 1_555
C16 C4 1_555 1_555
C17 C16 1_555 1_555
H11 C17 1_555 1_555
C18 C17 1_555 1_555
H12 C18 1_555 1_555
C19 C18 1_555 1_555
H13 C19 1_555 1_555
C20 C19 1_555 1_555
H14 C20 1_555 1_555
C21 C16 1_555 1_555
H15 C21 1_555 1_555
C22 C2 1_555 1_555
H16 C22 1_555 1_555
C23 C22 1_555 1_555
H17 C23 1_555 1_555
H18 C23 1_555 1_555
C1 C4 1_555 1_555
C6 C11 1_555 1_555
C10 C11 1_555 1_555
C14 C15 1_555 1_555
C20 C21 1_555 1_555

#END
