
#######################################################################
#
#                 Cambridge Crystallographic Data Centre
#                                CCDC 
#
#######################################################################
#
# If this CIF has been generated from an entry in the Cambridge 
# Structural Database, then it will include bibliographic, chemical, 
# crystal, experimental, refinement or atomic coordinate data resulting 
# from the CCDC's data processing and validation procedures.
#
#######################################################################

data_UGASON
_chemical_formula_moiety         'C24 H26 N2 O3'
_chemical_name_systematic        
't-butyl 4-(4-methylphenyl)-3-oxo-4,4a,5,6-tetrahydrobenzo[h]cinnoline-2(3H)-carboxylate'
_symmetry_cell_setting           monoclinic
_symmetry_space_group_name_H-M   'P 21'
_symmetry_Int_Tables_number      4
_space_group_name_Hall           'P 2yb'
loop_
_symmetry_equiv_pos_site_id
_symmetry_equiv_pos_as_xyz
1 x,y,z
2 -x,1/2+y,-z
_cell_length_a                   10.2146(4)
_cell_length_b                   11.7243(5)
_cell_length_c                   10.2644(4)
_cell_angle_alpha                90
_cell_angle_beta                 119.315(2)
_cell_angle_gamma                90
_cell_volume                     1071.84
_exptl_crystal_colour            colorless
_exptl_crystal_description       block
_cell_formula_units_Z            2
loop_
_atom_site_label
_atom_site_type_symbol
_atom_site_fract_x
_atom_site_fract_y
_atom_site_fract_z
O1 O 0.51785(18) 0.53011(16) 0.70596(18)
O2 O 0.8880(3) 0.67390(19) 0.8621(2)
O3 O 0.7885(2) 0.55960(15) 0.96592(17)
N1 N 0.75445(19) 0.51352(16) 0.73905(18)
N2 N 0.85416(19) 0.49060(15) 0.68470(18)
C1 C 0.5999(2) 0.49599(19) 0.6607(2)
C2 C 0.5434(2) 0.43657(18) 0.5117(2)
H1 H 0.455095 0.389122 0.494938
C3 C 0.6632(2) 0.35490(17) 0.5165(2)
H2 H 0.675384 0.292406 0.587836
C4 C 0.6181(2) 0.29868(19) 0.3665(2)
H3 H 0.527348 0.251351 0.335663
H4 H 0.594262 0.357971 0.289390
C5 C 0.7463(3) 0.22447(18) 0.3799(2)
H5 H 0.766171 0.162946 0.453392
H6 H 0.717072 0.188550 0.282183
C6 C 0.8861(2) 0.29345(17) 0.4286(2)
C7 C 0.9883(3) 0.26756(18) 0.3788(3)
H7 H 0.967137 0.206253 0.310856
C8 C 1.1181(3) 0.3289(2) 0.4261(3)
H8 H 1.185266 0.310099 0.390291
C9 C 1.1517(3) 0.4184(2) 0.5265(3)
H9 H 1.242253 0.460247 0.560352
C10 C 1.0526(2) 0.44596(19) 0.5763(3)
H10 H 1.075537 0.507064 0.644917
C11 C 0.9188(2) 0.38538(17) 0.5274(2)
C12 C 0.8120(2) 0.41565(16) 0.5803(2)
C13 C 0.4871(2) 0.52503(19) 0.3876(2)
C14 C 0.5646(3) 0.62538(19) 0.4004(2)
H11 H 0.656550 0.639733 0.489144
C15 C 0.5103(3) 0.7052(2) 0.2857(3)
H12 H 0.565656 0.773181 0.297485
C16 C 0.3766(3) 0.6873(2) 0.1542(3)
C17 C 0.2997(3) 0.5857(3) 0.1406(3)
H13 H 0.209113 0.570398 0.050847
C18 C 0.3533(3) 0.5069(3) 0.2555(3)
H14 H 0.297773 0.439125 0.244050
C19 C 0.3171(4) 0.7758(3) 0.0317(3)
H15 H 0.344047 0.852058 0.075978
H16 H 0.207620 0.769264 -0.027253
H17 H 0.361085 0.763347 -0.033288
C20 C 0.8179(3) 0.5929(2) 0.8620(2)
C21 C 0.8192(3) 0.6340(2) 1.0956(3)
C22 C 0.9854(4) 0.6523(4) 1.1891(4)
H18 H 1.037363 0.578877 1.207626
H19 H 1.007487 0.687004 1.284625
H20 H 1.019918 0.703069 1.136230
C23 C 0.7618(5) 0.5607(3) 1.1782(4)
H21 H 0.655046 0.544198 1.112697
H22 H 0.774798 0.601362 1.267210
H23 H 0.818345 0.489021 1.208336
C24 C 0.7288(5) 0.7409(3) 1.0395(4)
H24 H 0.771145 0.788798 0.991047
H25 H 0.731266 0.782475 1.123467
H26 H 0.624710 0.721472 0.967125
loop_
_geom_bond_atom_site_label_1
_geom_bond_atom_site_label_2
_geom_bond_site_symmetry_1
_geom_bond_site_symmetry_2
O1 C1 1_555 1_555
O2 C20 1_555 1_555
O3 C20 1_555 1_555
N1 N2 1_555 1_555
N2 C12 1_555 1_555
C1 N1 1_555 1_555
C2 C1 1_555 1_555
H1 C2 1_555 1_555
C3 C2 1_555 1_555
H2 C3 1_555 1_555
C4 C3 1_555 1_555
H3 C4 1_555 1_555
H4 C4 1_555 1_555
C5 C4 1_555 1_555
H5 C5 1_555 1_555
H6 C5 1_555 1_555
C6 C5 1_555 1_555
C7 C6 1_555 1_555
H7 C7 1_555 1_555
C8 C7 1_555 1_555
H8 C8 1_555 1_555
C9 C8 1_555 1_555
H9 C9 1_555 1_555
C10 C9 1_555 1_555
H10 C10 1_555 1_555
C11 C6 1_555 1_555
C12 C3 1_555 1_555
C13 C2 1_555 1_555
C14 C13 1_555 1_555
H11 C14 1_555 1_555
C15 C14 1_555 1_555
H12 C15 1_555 1_555
C16 C15 1_555 1_555
C17 C16 1_555 1_555
H13 C17 1_555 1_555
C18 C13 1_555 1_555
H14 C18 1_555 1_555
C19 C16 1_555 1_555
H15 C19 1_555 1_555
H16 C19 1_555 1_555
H17 C19 1_555 1_555
C20 N1 1_555 1_555
C21 O3 1_555 1_555
C22 C21 1_555 1_555
H18 C22 1_555 1_555
H19 C22 1_555 1_555
H20 C22 1_555 1_555
C23 C21 1_555 1_555
H21 C23 1_555 1_555
H22 C23 1_555 1_555
H23 C23 1_555 1_555
C24 C21 1_555 1_555
H24 C24 1_555 1_555
H25 C24 1_555 1_555
H26 C24 1_555 1_555
C10 C11 1_555 1_555
C11 C12 1_555 1_555
C17 C18 1_555 1_555

#END
