
#######################################################################
#
#                 Cambridge Crystallographic Data Centre
#                                CCDC 
#
#######################################################################
#
# If this CIF has been generated from an entry in the Cambridge 
# Structural Database, then it will include bibliographic, chemical, 
# crystal, experimental, refinement or atomic coordinate data resulting 
# from the CCDC's data processing and validation procedures.
#
#######################################################################

data_UGECEP
_chemical_formula_moiety         'C27 H45 N1 O3 Si1'
_chemical_name_systematic        
8,8-Dimethyl-11-(((triisopropylsilyl)oxy)methyl)-14-vinyl-7,9-dioxatetracyclo[9.2.1.0^2,6^.0^2,10^]tetradecane-5-carbonitrile
_symmetry_cell_setting           triclinic
_symmetry_space_group_name_H-M   'P -1'
_symmetry_Int_Tables_number      2
_space_group_name_Hall           '-P 1'
loop_
_symmetry_equiv_pos_site_id
_symmetry_equiv_pos_as_xyz
1 x,y,z
2 -x,-y,-z
_cell_length_a                   7.9680(16)
_cell_length_b                   11.498(2)
_cell_length_c                   15.381(3)
_cell_angle_alpha                103.76(3)
_cell_angle_beta                 97.93(3)
_cell_angle_gamma                97.76(3)
_cell_volume                     1334.83
_exptl_crystal_colour            colorless
_exptl_crystal_description       block-shaped
_chemical_melting_point          87-88deg.C
_cell_formula_units_Z            2
_exptl_crystal_recrystallization_method hexanes
loop_
_atom_site_label
_atom_site_type_symbol
_atom_site_fract_x
_atom_site_fract_y
_atom_site_fract_z
Si1 Si 0.40138(12) 0.29665(7) 0.11603(6)
O1 O 0.5266(3) 0.88242(17) 0.38580(14)
O2 O 0.5889(3) 0.74370(17) 0.26171(14)
O3 O 0.5206(3) 0.40091(17) 0.20300(14)
N1 N 0.9947(4) 0.9477(2) 0.6231(2)
C1 C 0.6525(4) 0.7184(2) 0.4168(2)
C2 C 0.6812(4) 0.8571(2) 0.4303(2)
H1 H 0.7864 0.8890 0.4086
C3 C 0.4937(4) 0.8374(3) 0.2895(2)
C4 C 0.5904(4) 0.6566(3) 0.3149(2)
H2 H 0.4739 0.6055 0.3045
C5 C 0.7243(4) 0.5772(3) 0.2893(2)
C6 C 0.7496(4) 0.5315(3) 0.3764(2)
H3 H 0.6354 0.4966 0.3879
C7 C 0.8115(4) 0.6619(3) 0.4400(2)
H4 H 0.8417 0.6645 0.5058
C8 C 0.9619(4) 0.7085(3) 0.3996(2)
H5 H 1.0665 0.6773 0.4196
H6 H 0.9872 0.7985 0.4169
C9 C 0.8977(4) 0.6576(3) 0.2963(2)
H7 H 0.8835 0.7242 0.2667
H8 H 0.9789 0.6094 0.2676
C10 C 0.5208(4) 0.7016(3) 0.4784(2)
H9 H 0.5311 0.6285 0.5007
H10 H 0.4025 0.6919 0.4446
C11 C 0.5600(4) 0.8165(3) 0.5585(2)
H11 H 0.6136 0.7983 0.6147
H12 H 0.4531 0.8481 0.5693
C12 C 0.6853(4) 0.9097(3) 0.5307(2)
H13 H 0.6414 0.9884 0.5398
C13 C 0.3034(4) 0.7938(3) 0.2623(2)
H14 H 0.2691 0.7284 0.2904
H15 H 0.2738 0.7633 0.1959
H16 H 0.2429 0.8613 0.2827
C14 C 0.5613(5) 0.9366(3) 0.2468(2)
H17 H 0.5003 1.0052 0.2621
H18 H 0.5426 0.9043 0.1805
H19 H 0.6847 0.9642 0.2701
C15 C 0.6687(4) 0.4820(3) 0.2005(2)
H20 H 0.6435 0.5216 0.1508
H21 H 0.7631 0.4361 0.1879
C16 C 0.8686(4) 0.4422(3) 0.3770(2)
H22 H 0.9888 0.4712 0.3862
C17 C 0.8159(5) 0.3261(3) 0.3655(2)
H23 H 0.6963 0.2949 0.3562
H24 H 0.8971 0.2729 0.3665
C18 C 0.8591(5) 0.9308(3) 0.5823(2)
C19 C 0.5369(4) 0.2041(3) 0.0475(2)
H25 H 0.4567 0.1340 0.0034
C20 C 0.6389(5) 0.2714(3) -0.0085(2)
H26 H 0.7164 0.3429 0.0322
H27 H 0.5590 0.2974 -0.0516
H28 H 0.7064 0.2171 -0.0421
C21 C 0.6578(5) 0.1505(3) 0.1076(2)
H29 H 0.7224 0.0987 0.0697
H30 H 0.5901 0.1019 0.1393
H31 H 0.7382 0.2167 0.1524
C22 C 0.2741(4) 0.2013(3) 0.1746(2)
H32 H 0.3616 0.1748 0.2154
C23 C 0.1684(5) 0.2698(3) 0.2378(3)
H33 H 0.0715 0.2909 0.2015
H34 H 0.2409 0.3443 0.2774
H35 H 0.1246 0.2184 0.2750
C24 C 0.1648(6) 0.0833(4) 0.1127(3)
H36 H 0.1107 0.0360 0.1498
H37 H 0.2383 0.0357 0.0781
H38 H 0.0755 0.1026 0.0706
C25 C 0.2768(4) 0.3757(3) 0.0423(2)
H39 H 0.3646 0.4259 0.0194
C26 C 0.1790(5) 0.4648(3) 0.0948(3)
H40 H 0.1390 0.5166 0.0570
H41 H 0.2551 0.5154 0.1503
H42 H 0.0798 0.4197 0.1110
C27 C 0.1608(5) 0.2905(4) -0.0419(3)
H43 H 0.0704 0.2398 -0.0235
H44 H 0.2291 0.2384 -0.0770
H45 H 0.1081 0.3384 -0.0795
loop_
_geom_bond_atom_site_label_1
_geom_bond_atom_site_label_2
_geom_bond_site_symmetry_1
_geom_bond_site_symmetry_2
Si1 O3 1_555 1_555
O1 C2 1_555 1_555
O2 C3 1_555 1_555
O3 C15 1_555 1_555
N1 C18 1_555 1_555
C1 C2 1_555 1_555
C2 H1 1_555 1_555
C3 O1 1_555 1_555
C4 O2 1_555 1_555
H2 C4 1_555 1_555
C5 C4 1_555 1_555
C6 C5 1_555 1_555
H3 C6 1_555 1_555
C7 C1 1_555 1_555
H4 C7 1_555 1_555
C8 C7 1_555 1_555
H5 C8 1_555 1_555
H6 C8 1_555 1_555
C9 C5 1_555 1_555
H7 C9 1_555 1_555
H8 C9 1_555 1_555
C10 C1 1_555 1_555
H9 C10 1_555 1_555
H10 C10 1_555 1_555
C11 C10 1_555 1_555
H11 C11 1_555 1_555
H12 C11 1_555 1_555
C12 C2 1_555 1_555
H13 C12 1_555 1_555
C13 C3 1_555 1_555
H14 C13 1_555 1_555
H15 C13 1_555 1_555
H16 C13 1_555 1_555
C14 C3 1_555 1_555
H17 C14 1_555 1_555
H18 C14 1_555 1_555
H19 C14 1_555 1_555
C15 C5 1_555 1_555
H20 C15 1_555 1_555
H21 C15 1_555 1_555
C16 C6 1_555 1_555
H22 C16 1_555 1_555
C17 C16 1_555 1_555
H23 C17 1_555 1_555
H24 C17 1_555 1_555
C18 C12 1_555 1_555
C19 Si1 1_555 1_555
H25 C19 1_555 1_555
C20 C19 1_555 1_555
H26 C20 1_555 1_555
H27 C20 1_555 1_555
H28 C20 1_555 1_555
C21 C19 1_555 1_555
H29 C21 1_555 1_555
H30 C21 1_555 1_555
H31 C21 1_555 1_555
C22 Si1 1_555 1_555
H32 C22 1_555 1_555
C23 C22 1_555 1_555
H33 C23 1_555 1_555
H34 C23 1_555 1_555
H35 C23 1_555 1_555
C24 C22 1_555 1_555
H36 C24 1_555 1_555
H37 C24 1_555 1_555
H38 C24 1_555 1_555
C25 Si1 1_555 1_555
H39 C25 1_555 1_555
C26 C25 1_555 1_555
H40 C26 1_555 1_555
H41 C26 1_555 1_555
H42 C26 1_555 1_555
C27 C25 1_555 1_555
H43 C27 1_555 1_555
H44 C27 1_555 1_555
H45 C27 1_555 1_555
C1 C4 1_555 1_555
C6 C7 1_555 1_555
C8 C9 1_555 1_555
C11 C12 1_555 1_555

#END
