
#######################################################################
#
#                 Cambridge Crystallographic Data Centre
#                                CCDC 
#
#######################################################################
#
# If this CIF has been generated from an entry in the Cambridge 
# Structural Database, then it will include bibliographic, chemical, 
# crystal, experimental, refinement or atomic coordinate data resulting 
# from the CCDC's data processing and validation procedures.
#
#######################################################################

data_UGEQEE
_chemical_formula_moiety         'C11 H12 O4'
_chemical_name_systematic        
8-hydroxy-3-methoxy-3-methyl-3,4-dihydro-1H-isochromen-1-one
_symmetry_cell_setting           monoclinic
_symmetry_space_group_name_H-M   'P 21/c'
_symmetry_Int_Tables_number      14
_space_group_name_Hall           '-P 2ybc'
loop_
_symmetry_equiv_pos_site_id
_symmetry_equiv_pos_as_xyz
1 x,y,z
2 -x,1/2+y,1/2-z
3 -x,-y,-z
4 x,1/2-y,1/2+z
_cell_length_a                   7.9244(6)
_cell_length_b                   11.9119(10)
_cell_length_c                   10.5151(8)
_cell_angle_alpha                90
_cell_angle_beta                 93.3120(10)
_cell_angle_gamma                90
_cell_volume                     990.911
_cell_formula_units_Z            4
loop_
_atom_site_label
_atom_site_type_symbol
_atom_site_fract_x
_atom_site_fract_y
_atom_site_fract_z
O1 O 0.70468(17) 0.33657(12) 0.16959(13)
O2 O 0.89456(18) 0.43781(13) 0.07903(13)
O3 O 1.0056(2) 0.63023(13) 0.18094(15)
H1 H 0.9979 0.5818 0.1255
O4 O 0.45625(17) 0.41316(12) 0.23998(13)
C1 C 0.8119(3) 0.42449(17) 0.1728(2)
C2 C 0.8281(2) 0.49634(17) 0.28517(19)
C3 C 0.9242(3) 0.59536(18) 0.2839(2)
C4 C 0.9386(3) 0.66253(18) 0.3917(2)
H2 H 1.0018 0.7283 0.3913
C5 C 0.8593(3) 0.63176(19) 0.4993(2)
H3 H 0.8688 0.6775 0.5711
C6 C 0.7647(3) 0.53299(19) 0.5026(2)
H4 H 0.7119 0.5133 0.5761
C7 C 0.7499(2) 0.46458(17) 0.3965(2)
C8 C 0.6588(3) 0.35495(18) 0.39520(19)
H5 H 0.5727 0.3570 0.4571
H6 H 0.7379 0.2957 0.4199
C9 C 0.5772(3) 0.32897(18) 0.2656(2)
C10 C 0.5096(3) 0.21061(19) 0.2537(2)
H7 H 0.4237 0.1997 0.3133
H8 H 0.5999 0.1582 0.2716
H9 H 0.4621 0.1987 0.1687
C11 C 0.3614(3) 0.4080(2) 0.1207(2)
H10 H 0.4371 0.3984 0.0534
H11 H 0.2987 0.4763 0.1074
H12 H 0.2846 0.3456 0.1209
loop_
_geom_bond_atom_site_label_1
_geom_bond_atom_site_label_2
_geom_bond_site_symmetry_1
_geom_bond_site_symmetry_2
O1 C1 1_555 1_555
O2 C1 1_555 1_555
O3 H1 1_555 1_555
O4 C9 1_555 1_555
C1 C2 1_555 1_555
C2 C3 1_555 1_555
C3 O3 1_555 1_555
C4 C3 1_555 1_555
H2 C4 1_555 1_555
C5 C4 1_555 1_555
H3 C5 1_555 1_555
C6 C5 1_555 1_555
H4 C6 1_555 1_555
C7 C2 1_555 1_555
C8 C7 1_555 1_555
H5 C8 1_555 1_555
H6 C8 1_555 1_555
C9 O1 1_555 1_555
C10 C9 1_555 1_555
H7 C10 1_555 1_555
H8 C10 1_555 1_555
H9 C10 1_555 1_555
C11 O4 1_555 1_555
H10 C11 1_555 1_555
H11 C11 1_555 1_555
H12 C11 1_555 1_555
C6 C7 1_555 1_555
C8 C9 1_555 1_555

#END
