
#######################################################################
#
#                 Cambridge Crystallographic Data Centre
#                                CCDC 
#
#######################################################################
#
# If this CIF has been generated from an entry in the Cambridge 
# Structural Database, then it will include bibliographic, chemical, 
# crystal, experimental, refinement or atomic coordinate data resulting 
# from the CCDC's data processing and validation procedures.
#
#######################################################################

data_UGIFOH
_chemical_name_common            'Cyclopamine C methanol solvate'
_chemical_formula_moiety         'C27 H41 N1 O2,2(C1 H4 O1)'
_chemical_name_systematic        
'11,12-Didehydro-12,13-dihydro-17,23-epoxyveratraman-3-ol methanol solvate'
_chemical_properties_biological  'moderate cytotoxicity in HepG2 and A549 cells'
_symmetry_cell_setting           orthorhombic
_symmetry_space_group_name_H-M   'P 21 21 21'
_symmetry_Int_Tables_number      19
_space_group_name_Hall           'P 2ac 2ab'
loop_
_symmetry_equiv_pos_site_id
_symmetry_equiv_pos_as_xyz
1 x,y,z
2 1/2+x,1/2-y,-z
3 -x,1/2+y,1/2-z
4 1/2-x,-y,1/2+z
_cell_length_a                   12.9958(2)
_cell_length_b                   14.3877(2)
_cell_length_c                   14.9956(2)
_cell_angle_alpha                90
_cell_angle_beta                 90
_cell_angle_gamma                90
_cell_volume                     2803.87
_exptl_crystal_colour            colorless
_exptl_crystal_description       block
_cell_formula_units_Z            4
loop_
_atom_site_label
_atom_site_type_symbol
_atom_site_fract_x
_atom_site_fract_y
_atom_site_fract_z
N1 N 0.48867(8) 0.63062(7) -0.27496(7)
O1 O 0.54708(8) 0.48874(7) 0.61662(6)
H1 H 0.5210 0.5277 0.6517
O2 O 0.52356(7) 0.53718(6) -0.05303(6)
C1 C 0.43433(11) 0.57069(9) 0.39786(8)
H2 H 0.4367 0.6320 0.3680
H3 H 0.3611 0.5546 0.4076
C2 C 0.48796(11) 0.57847(9) 0.48866(8)
H4 H 0.5597 0.5997 0.4799
H5 H 0.4520 0.6252 0.5257
C3 C 0.48811(10) 0.48526(9) 0.53671(8)
H6 H 0.4157 0.4677 0.5516
C4 C 0.53521(11) 0.41000(9) 0.47834(8)
H7 H 0.6100 0.4218 0.4726
H8 H 0.5264 0.3491 0.5082
C5 C 0.48846(10) 0.40484(9) 0.38620(8)
C6 C 0.45448(12) 0.32450(9) 0.35318(9)
H9 H 0.4553 0.2722 0.3918
C7 C 0.41469(13) 0.30954(9) 0.25951(9)
H10 H 0.3392 0.3006 0.2608
H11 H 0.4465 0.2532 0.2335
C8 C 0.44126(10) 0.39393(8) 0.20311(8)
H12 H 0.5176 0.3943 0.1945
C9 C 0.41281(9) 0.48206(8) 0.25457(8)
H13 H 0.3419 0.4720 0.2785
C10 C 0.48302(9) 0.49731(8) 0.33570(8)
C11 C 0.40322(9) 0.55309(8) 0.18088(8)
H14 H 0.4090 0.6184 0.1890
C12 C 0.38554(9) 0.51161(8) 0.10304(8)
C13 C 0.35456(10) 0.55205(9) 0.01441(8)
H15 H 0.2813 0.5335 0.0048
C14 C 0.39155(10) 0.40633(8) 0.11126(8)
H16 H 0.3205 0.3796 0.1119
C15 C 0.45209(12) 0.36544(9) 0.03350(8)
H17 H 0.5257 0.3819 0.0401
H18 H 0.4465 0.2968 0.0350
C16 C 0.41290(11) 0.40104(9) -0.05602(9)
H19 H 0.3410 0.3800 -0.0646
H20 H 0.4551 0.3738 -0.1044
C17 C 0.41680(10) 0.50779(9) -0.06301(8)
C18 C 0.35594(13) 0.65833(9) 0.01452(9)
H21 H 0.3135 0.6814 0.0638
H22 H 0.3284 0.6814 -0.0421
H23 H 0.4268 0.6803 0.0220
C19 C 0.59100(10) 0.52938(9) 0.30736(9)
H24 H 0.6360 0.5316 0.3597
H25 H 0.5866 0.5914 0.2806
H26 H 0.6192 0.4856 0.2637
C20 C 0.38019(9) 0.54546(9) -0.15676(8)
H27 H 0.3161 0.5830 -0.1483
C21 C 0.36065(10) 0.47214(9) -0.22888(8)
H28 H 0.3370 0.5027 -0.2835
H29 H 0.3079 0.4285 -0.2082
H30 H 0.4246 0.4383 -0.2411
C22 C 0.46882(10) 0.61106(8) -0.18071(8)
H31 H 0.4586 0.6713 -0.1486
C23 C 0.56001(10) 0.56107(8) -0.13992(8)
H32 H 0.5743 0.5030 -0.1744
C24 C 0.65431(10) 0.62216(9) -0.14054(9)
H33 H 0.7139 0.5883 -0.1154
H34 H 0.6423 0.6786 -0.1042
C25 C 0.67534(10) 0.64896(9) -0.23831(9)
H35 H 0.6927 0.5911 -0.2720
C26 C 0.57959(11) 0.69226(9) -0.28076(9)
H36 H 0.5640 0.7518 -0.2505
H37 H 0.5940 0.7060 -0.3442
C27 C 0.76577(11) 0.71610(11) -0.24645(11)
H38 H 0.7813 0.7266 -0.3096
H39 H 0.8262 0.6895 -0.2168
H40 H 0.7479 0.7753 -0.2182
H41 H 0.4338(13) 0.6611(12) -0.2971(11)
O3 O 0.20038(12) 0.12051(12) 0.32309(8)
H42 H 0.1475 0.0928 0.3412
C28 C 0.27816(14) 0.11369(15) 0.38762(12)
H43 H 0.3438 0.1335 0.3617
H44 H 0.2838 0.0491 0.4078
H45 H 0.2612 0.1537 0.4384
O4 O 0.66071(11) 0.27609(10) 0.82757(9)
H46 H 0.6728 0.3125 0.7851
C29 C 0.70348(14) 0.31168(12) 0.90553(12)
H47 H 0.6832 0.3769 0.9124
H48 H 0.7786 0.3074 0.9023
H49 H 0.6787 0.2758 0.9568
loop_
_geom_bond_atom_site_label_1
_geom_bond_atom_site_label_2
_geom_bond_site_symmetry_1
_geom_bond_site_symmetry_2
N1 C22 1_555 1_555
O1 H1 1_555 1_555
O2 C17 1_555 1_555
C1 H2 1_555 1_555
H3 C1 1_555 1_555
C2 C1 1_555 1_555
H4 C2 1_555 1_555
H5 C2 1_555 1_555
C3 O1 1_555 1_555
H6 C3 1_555 1_555
C4 C3 1_555 1_555
H7 C4 1_555 1_555
H8 C4 1_555 1_555
C5 C4 1_555 1_555
C6 C5 1_555 1_555
H9 C6 1_555 1_555
C7 C6 1_555 1_555
H10 C7 1_555 1_555
H11 C7 1_555 1_555
C8 C7 1_555 1_555
H12 C8 1_555 1_555
C9 C8 1_555 1_555
H13 C9 1_555 1_555
C10 C1 1_555 1_555
C11 C9 1_555 1_555
H14 C11 1_555 1_555
C12 C11 1_555 1_555
C13 C12 1_555 1_555
H15 C13 1_555 1_555
C14 C8 1_555 1_555
H16 C14 1_555 1_555
C15 C14 1_555 1_555
H17 C15 1_555 1_555
H18 C15 1_555 1_555
C16 C15 1_555 1_555
H19 C16 1_555 1_555
H20 C16 1_555 1_555
C17 C13 1_555 1_555
C18 C13 1_555 1_555
H21 C18 1_555 1_555
H22 C18 1_555 1_555
H23 C18 1_555 1_555
C19 C10 1_555 1_555
H24 C19 1_555 1_555
H25 C19 1_555 1_555
H26 C19 1_555 1_555
C20 C17 1_555 1_555
H27 C20 1_555 1_555
C21 C20 1_555 1_555
H28 C21 1_555 1_555
H29 C21 1_555 1_555
H30 C21 1_555 1_555
C22 C20 1_555 1_555
H31 C22 1_555 1_555
C23 O2 1_555 1_555
H32 C23 1_555 1_555
C24 C23 1_555 1_555
H33 C24 1_555 1_555
H34 C24 1_555 1_555
C25 C24 1_555 1_555
H35 C25 1_555 1_555
C26 N1 1_555 1_555
H36 C26 1_555 1_555
H37 C26 1_555 1_555
C27 C25 1_555 1_555
H38 C27 1_555 1_555
H39 C27 1_555 1_555
H40 C27 1_555 1_555
H41 N1 1_555 1_555
O3 H42 1_555 1_555
C28 O3 1_555 1_555
H43 C28 1_555 1_555
H44 C28 1_555 1_555
H45 C28 1_555 1_555
O4 H46 1_555 1_555
C29 O4 1_555 1_555
H47 C29 1_555 1_555
H48 C29 1_555 1_555
H49 C29 1_555 1_555
C2 C3 1_555 1_555
C5 C10 1_555 1_555
C9 C10 1_555 1_555
C12 C14 1_555 1_555
C16 C17 1_555 1_555
C22 C23 1_555 1_555
C25 C26 1_555 1_555

#END
