
#######################################################################
#
#                 Cambridge Crystallographic Data Centre
#                                CCDC 
#
#######################################################################
#
# If this CIF has been generated from an entry in the Cambridge 
# Structural Database, then it will include bibliographic, chemical, 
# crystal, experimental, refinement or atomic coordinate data resulting 
# from the CCDC's data processing and validation procedures.
#
#######################################################################

data_UGIFIB
_chemical_name_common            '7S-Hydroxycyclopamine C methanol solvate'
_chemical_formula_moiety         'C27 H41 N1 O3,C1 H4 O1'
_chemical_name_systematic        
'11,12-Didehydro-12,13-dihydro-17,23-epoxyveratraman-3,7-diol methanol solvate'
_symmetry_cell_setting           orthorhombic
_symmetry_space_group_name_H-M   'P 21 21 21'
_symmetry_Int_Tables_number      19
_space_group_name_Hall           'P 2ac 2ab'
loop_
_symmetry_equiv_pos_site_id
_symmetry_equiv_pos_as_xyz
1 x,y,z
2 1/2+x,1/2-y,-z
3 -x,1/2+y,1/2-z
4 1/2-x,-y,1/2+z
_cell_length_a                   10.06890(10)
_cell_length_b                   14.9365(2)
_cell_length_c                   18.3281(2)
_cell_angle_alpha                90
_cell_angle_beta                 90
_cell_angle_gamma                90
_cell_volume                     2756.44
_exptl_crystal_colour            colorless
_exptl_crystal_description       block
_cell_formula_units_Z            4
loop_
_atom_site_label
_atom_site_type_symbol
_atom_site_fract_x
_atom_site_fract_y
_atom_site_fract_z
N1 N 0.15106(15) 0.50126(10) 0.14062(8)
H1 H 0.170(2) 0.5364(16) 0.1097(14)
O1 O 0.20289(17) -0.38873(10) 0.00834(8)
H2 H 0.1753 -0.4008 -0.0338
O2 O 0.61846(12) -0.06663(8) 0.13121(7)
H3 H 0.6627 -0.0309 0.1569
O3 O 0.20167(12) 0.26272(8) 0.13679(7)
C1 C 0.2609(2) -0.14447(12) -0.03529(10)
H4 H 0.2124 -0.1019 -0.0669
H5 H 0.3528 -0.1494 -0.0542
C2 C 0.1941(2) -0.23625(13) -0.04037(10)
H6 H 0.1003 -0.2314 -0.0248
H7 H 0.1956 -0.2573 -0.0916
C3 C 0.26613(19) -0.30303(12) 0.00785(10)
H8 H 0.3591 -0.3102 -0.0105
C4 C 0.2709(2) -0.27012(13) 0.08671(10)
H9 H 0.1800 -0.2710 0.1072
H10 H 0.3261 -0.3117 0.1159
C5 C 0.32705(18) -0.17642(12) 0.09345(9)
C6 C 0.42450(18) -0.15877(12) 0.14064(9)
H11 H 0.4602 -0.2080 0.1669
C7 C 0.48313(17) -0.06784(12) 0.15609(9)
H12 H 0.4827 -0.0581 0.2101
C8 C 0.39655(16) 0.00346(11) 0.12083(9)
H13 H 0.3125 0.0057 0.1499
C9 C 0.35711(16) -0.02410(11) 0.04349(9)
H14 H 0.4402 -0.0405 0.0168
C10 C 0.26570(17) -0.10642(12) 0.04310(9)
C11 C 0.30830(17) 0.06354(12) 0.01279(9)
H15 H 0.2495 0.0690 -0.0275
C12 C 0.35899(16) 0.13258(12) 0.04995(9)
C13 C 0.34433(16) 0.23104(12) 0.03401(9)
H16 H 0.4286 0.2510 0.0102
C14 C 0.44443(16) 0.10037(11) 0.11316(9)
H17 H 0.5397 0.1003 0.0977
C15 C 0.42922(19) 0.15926(12) 0.18071(9)
H18 H 0.5000 0.1445 0.2162
H19 H 0.3425 0.1470 0.2041
C16 C 0.43782(18) 0.25837(12) 0.16061(10)
H20 H 0.5263 0.2709 0.1394
H21 H 0.4283 0.2949 0.2054
C17 C 0.32984(16) 0.28575(11) 0.10555(9)
C18 C 0.23242(18) 0.24817(12) -0.02022(10)
H22 H 0.2522 0.2176 -0.0663
H23 H 0.2243 0.3127 -0.0290
H24 H 0.1488 0.2252 -0.0003
C19 C 0.12423(19) -0.08218(14) 0.06849(12)
H25 H 0.1286 -0.0523 0.1160
H26 H 0.0710 -0.1369 0.0728
H27 H 0.0830 -0.0420 0.0328
C20 C 0.32496(17) 0.38981(11) 0.08939(9)
H28 H 0.3342 0.3987 0.0356
C21 C 0.42873(18) 0.44814(13) 0.12761(12)
H29 H 0.4180 0.5105 0.1121
H30 H 0.5179 0.4272 0.1147
H31 H 0.4167 0.4440 0.1806
C22 C 0.18097(17) 0.41240(11) 0.11100(9)
H32 H 0.1222 0.4015 0.0679
C23 C 0.15067(17) 0.34254(11) 0.16846(9)
H33 H 0.2006 0.3566 0.2142
C24 C 0.00409(19) 0.33921(13) 0.18444(10)
H34 H -0.0138 0.2958 0.2241
H35 H -0.0452 0.3198 0.1404
C25 C -0.04125(18) 0.43340(13) 0.20754(10)
H36 H -0.0018 0.4471 0.2564
C26 C 0.00584(18) 0.50468(12) 0.15339(10)
H37 H -0.0409 0.4961 0.1064
H38 H -0.0181 0.5646 0.1723
C27 C -0.1921(2) 0.43729(16) 0.21429(12)
H39 H -0.2191 0.4978 0.2287
H40 H -0.2216 0.3943 0.2513
H41 H -0.2325 0.4222 0.1672
O4 O 0.74253(17) 0.04665(10) 0.22583(9)
H42 H 0.7705 0.0299 0.2668
C28 C 0.8073(3) 0.1251(2) 0.20540(17)
H43 H 0.8163 0.1644 0.2479
H44 H 0.7557 0.1557 0.1675
H45 H 0.8957 0.1105 0.1864
loop_
_geom_bond_atom_site_label_1
_geom_bond_atom_site_label_2
_geom_bond_site_symmetry_1
_geom_bond_site_symmetry_2
N1 H1 1_555 1_555
O1 H2 1_555 1_555
O2 H3 1_555 1_555
O3 C17 1_555 1_555
C1 H4 1_555 1_555
H5 C1 1_555 1_555
C2 C1 1_555 1_555
H6 C2 1_555 1_555
H7 C2 1_555 1_555
C3 O1 1_555 1_555
H8 C3 1_555 1_555
C4 C3 1_555 1_555
H9 C4 1_555 1_555
H10 C4 1_555 1_555
C5 C4 1_555 1_555
C6 C5 1_555 1_555
H11 C6 1_555 1_555
C7 O2 1_555 1_555
H12 C7 1_555 1_555
C8 C7 1_555 1_555
H13 C8 1_555 1_555
C9 C8 1_555 1_555
H14 C9 1_555 1_555
C10 C1 1_555 1_555
C11 C9 1_555 1_555
H15 C11 1_555 1_555
C12 C11 1_555 1_555
C13 C12 1_555 1_555
H16 C13 1_555 1_555
C14 C8 1_555 1_555
H17 C14 1_555 1_555
C15 C14 1_555 1_555
H18 C15 1_555 1_555
H19 C15 1_555 1_555
C16 C15 1_555 1_555
H20 C16 1_555 1_555
H21 C16 1_555 1_555
C17 C13 1_555 1_555
C18 C13 1_555 1_555
H22 C18 1_555 1_555
H23 C18 1_555 1_555
H24 C18 1_555 1_555
C19 C10 1_555 1_555
H25 C19 1_555 1_555
H26 C19 1_555 1_555
H27 C19 1_555 1_555
C20 C17 1_555 1_555
H28 C20 1_555 1_555
C21 C20 1_555 1_555
H29 C21 1_555 1_555
H30 C21 1_555 1_555
H31 C21 1_555 1_555
C22 N1 1_555 1_555
H32 C22 1_555 1_555
C23 O3 1_555 1_555
H33 C23 1_555 1_555
C24 C23 1_555 1_555
H34 C24 1_555 1_555
H35 C24 1_555 1_555
C25 C24 1_555 1_555
H36 C25 1_555 1_555
C26 N1 1_555 1_555
H37 C26 1_555 1_555
H38 C26 1_555 1_555
C27 C25 1_555 1_555
H39 C27 1_555 1_555
H40 C27 1_555 1_555
H41 C27 1_555 1_555
O4 H42 1_555 1_555
C28 O4 1_555 1_555
H43 C28 1_555 1_555
H44 C28 1_555 1_555
H45 C28 1_555 1_555
C2 C3 1_555 1_555
C5 C10 1_555 1_555
C6 C7 1_555 1_555
C9 C10 1_555 1_555
C12 C14 1_555 1_555
C16 C17 1_555 1_555
C20 C22 1_555 1_555
C22 C23 1_555 1_555
C25 C26 1_555 1_555

#END
