
#######################################################################
#
#                 Cambridge Crystallographic Data Centre
#                                CCDC 
#
#######################################################################
#
# If this CIF has been generated from an entry in the Cambridge 
# Structural Database, then it will include bibliographic, chemical, 
# crystal, experimental, refinement or atomic coordinate data resulting 
# from the CCDC's data processing and validation procedures.
#
#######################################################################

data_UGORUE
_chemical_formula_moiety         'C34 H29 N1 O6'
_chemical_name_systematic        
2-(4,5-bis(2,3-dimethoxyphenyl)-5H-chromeno[4,3-b]pyridin-2-yl)phenol
_symmetry_cell_setting           monoclinic
_symmetry_space_group_name_H-M   'P 21/c'
_symmetry_Int_Tables_number      14
_space_group_name_Hall           '-P 2ybc'
loop_
_symmetry_equiv_pos_site_id
_symmetry_equiv_pos_as_xyz
1 x,y,z
2 -x,1/2+y,1/2-z
3 -x,-y,-z
4 x,1/2-y,1/2+z
_cell_length_a                   12.2594(18)
_cell_length_b                   16.619(2)
_cell_length_c                   14.727(2)
_cell_angle_alpha                90
_cell_angle_beta                 113.610(2)
_cell_angle_gamma                90
_cell_volume                     2749.3
_chemical_melting_point          '223.7-225.2 deg.C'
_cell_formula_units_Z            4
_exptl_crystal_recrystallization_method dimethylformamide
loop_
_atom_site_label
_atom_site_type_symbol
_atom_site_fract_x
_atom_site_fract_y
_atom_site_fract_z
N1 N 0.16946(19) 0.52714(12) 1.06550(17)
O1 O 0.05114(18) 0.62786(12) 1.12219(16)
H1 H 0.0694 0.5836 1.1080
O2 O 0.19891(16) 0.28698(10) 1.01100(15)
O3 O 0.13927(19) 0.51307(11) 0.72851(15)
O4 O 0.2180(2) 0.47128(13) 0.59062(17)
O5 O 0.39027(16) 0.19982(11) 0.96393(15)
O6 O 0.59865(19) 0.14193(13) 1.09754(17)
C1 C 0.1925(2) 0.58444(15) 1.0111(2)
C2 C 0.2388(2) 0.56426(16) 0.9419(2)
H2 H 0.2494 0.6040 0.9017
C3 C 0.2691(2) 0.48517(16) 0.9324(2)
C4 C 0.2508(2) 0.42647(15) 0.9930(2)
C5 C 0.1983(2) 0.45011(15) 1.0569(2)
C6 C 0.1656(2) 0.66802(15) 1.0297(2)
C7 C 0.0973(2) 0.68630(16) 1.0837(2)
C8 C 0.0758(3) 0.76516(17) 1.1012(2)
H3 H 0.0300 0.7760 1.1371
C9 C 0.1212(3) 0.82775(18) 1.0665(2)
H4 H 0.1061 0.8806 1.0786
C10 C 0.1890(3) 0.81167(17) 1.0137(3)
H5 H 0.2205 0.8538 0.9902
C11 C 0.2104(3) 0.73291(17) 0.9954(2)
H6 H 0.2560 0.7229 0.9591
C12 C 0.1700(2) 0.38896(16) 1.1157(2)
C13 C 0.1733(2) 0.30863(16) 1.0905(2)
C14 C 0.1429(3) 0.24808(17) 1.1408(2)
H7 H 0.1459 0.1945 1.1238
C15 C 0.1082(3) 0.2676(2) 1.2158(3)
H8 H 0.0869 0.2271 1.2491
C16 C 0.1049(3) 0.3468(2) 1.2419(3)
H9 H 0.0817 0.3596 1.2931
C17 C 0.1357(3) 0.40658(18) 1.1929(2)
H10 H 0.1337 0.4599 1.2114
C18 C 0.3180(2) 0.46379(15) 0.8573(2)
C19 C 0.2500(3) 0.47682(15) 0.7576(2)
C20 C 0.2933(3) 0.45662(16) 0.6861(2)
C21 C 0.4056(3) 0.42325(18) 0.7158(3)
H11 H 0.4350 0.4092 0.6688
C22 C 0.4738(3) 0.41084(19) 0.8151(3)
H12 H 0.5495 0.3887 0.8347
C23 C 0.4313(3) 0.43089(18) 0.8854(2)
H13 H 0.4785 0.4225 0.9521
C24 C 0.0421(3) 0.4593(2) 0.6968(3)
H14 H 0.0406 0.4296 0.6405
H15 H -0.0307 0.4891 0.6789
H16 H 0.0502 0.4227 0.7496
C25 C 0.2547(4) 0.4456(3) 0.5150(3)
H17 H 0.3252 0.4743 0.5211
H18 H 0.1924 0.4563 0.4513
H19 H 0.2711 0.3890 0.5217
C26 C 0.2829(2) 0.33875(15) 0.9916(2)
H20 H 0.2768 0.3264 0.9246
C27 C 0.4075(2) 0.31613(15) 1.0634(2)
C28 C 0.4551(2) 0.24438(16) 1.0469(2)
C29 C 0.5638(3) 0.21624(18) 1.1172(2)
C30 C 0.6253(3) 0.2620(2) 1.2005(2)
H21 H 0.6981 0.2440 1.2470
C31 C 0.5794(3) 0.3337(2) 1.2150(3)
H22 H 0.6222 0.3645 1.2706
C32 C 0.4710(3) 0.36067(17) 1.1480(2)
H23 H 0.4401 0.4089 1.1595
C33 C 0.4408(3) 0.1890(2) 0.8928(3)
H24 H 0.4757 0.2386 0.8844
H25 H 0.3797 0.1729 0.8306
H26 H 0.5011 0.1481 0.9156
C34 C 0.6997(3) 0.1061(2) 1.1739(3)
H27 H 0.7685 0.1392 1.1868
H28 H 0.7132 0.0536 1.1530
H29 H 0.6854 0.1013 1.2331
loop_
_geom_bond_atom_site_label_1
_geom_bond_atom_site_label_2
_geom_bond_site_symmetry_1
_geom_bond_site_symmetry_2
N1 C1 1_555 1_555
O1 H1 1_555 1_555
O2 C13 1_555 1_555
O3 C19 1_555 1_555
O4 C20 1_555 1_555
O5 C28 1_555 1_555
O6 C29 1_555 1_555
C1 C2 1_555 1_555
C2 H2 1_555 1_555
C3 C2 1_555 1_555
C4 C3 1_555 1_555
C5 N1 1_555 1_555
C6 C1 1_555 1_555
C7 O1 1_555 1_555
C8 C7 1_555 1_555
H3 C8 1_555 1_555
C9 C8 1_555 1_555
H4 C9 1_555 1_555
C10 C9 1_555 1_555
H5 C10 1_555 1_555
C11 C6 1_555 1_555
H6 C11 1_555 1_555
C12 C5 1_555 1_555
C13 C12 1_555 1_555
C14 C13 1_555 1_555
H7 C14 1_555 1_555
C15 C14 1_555 1_555
H8 C15 1_555 1_555
C16 C15 1_555 1_555
H9 C16 1_555 1_555
C17 C12 1_555 1_555
H10 C17 1_555 1_555
C18 C3 1_555 1_555
C19 C18 1_555 1_555
C20 C19 1_555 1_555
C21 C20 1_555 1_555
H11 C21 1_555 1_555
C22 C21 1_555 1_555
H12 C22 1_555 1_555
C23 C18 1_555 1_555
H13 C23 1_555 1_555
C24 O3 1_555 1_555
H14 C24 1_555 1_555
H15 C24 1_555 1_555
H16 C24 1_555 1_555
C25 O4 1_555 1_555
H17 C25 1_555 1_555
H18 C25 1_555 1_555
H19 C25 1_555 1_555
C26 O2 1_555 1_555
H20 C26 1_555 1_555
C27 C26 1_555 1_555
C28 C27 1_555 1_555
C29 C28 1_555 1_555
C30 C29 1_555 1_555
H21 C30 1_555 1_555
C31 C30 1_555 1_555
H22 C31 1_555 1_555
C32 C27 1_555 1_555
H23 C32 1_555 1_555
C33 O5 1_555 1_555
H24 C33 1_555 1_555
H25 C33 1_555 1_555
H26 C33 1_555 1_555
C34 O6 1_555 1_555
H27 C34 1_555 1_555
H28 C34 1_555 1_555
H29 C34 1_555 1_555
C4 C5 1_555 1_555
C4 C26 1_555 1_555
C6 C7 1_555 1_555
C10 C11 1_555 1_555
C16 C17 1_555 1_555
C22 C23 1_555 1_555
C31 C32 1_555 1_555

#END
