
#######################################################################
#
#                 Cambridge Crystallographic Data Centre
#                                CCDC 
#
#######################################################################
#
# If this CIF has been generated from an entry in the Cambridge 
# Structural Database, then it will include bibliographic, chemical, 
# crystal, experimental, refinement or atomic coordinate data resulting 
# from the CCDC's data processing and validation procedures.
#
#######################################################################

data_UGOWAP
_chemical_formula_moiety         'C26 H24 F1 N1 O8 S2'
_chemical_name_systematic        
'(S,E)-Ethyl 6-fluoro-5-(4-nitrophenyl)-6,6-bis(phenylsulfonyl)hex-2-enoate'
_symmetry_cell_setting           monoclinic
_symmetry_space_group_name_H-M   'P 21'
_symmetry_Int_Tables_number      4
_space_group_name_Hall           'P 2yb'
loop_
_symmetry_equiv_pos_site_id
_symmetry_equiv_pos_as_xyz
1 x,y,z
2 -x,1/2+y,-z
_cell_length_a                   13.3126(8)
_cell_length_b                   15.0787(8)
_cell_length_c                   14.0844(8)
_cell_angle_alpha                90
_cell_angle_beta                 114.021(3)
_cell_angle_gamma                90
_cell_volume                     2582.41
_exptl_crystal_colour            colorless
_exptl_crystal_description       prism
_cell_formula_units_Z            4
loop_
_atom_site_label
_atom_site_type_symbol
_atom_site_fract_x
_atom_site_fract_y
_atom_site_fract_z
S1 S 1.03294(4) 0.62381(17) 0.42553(3)
S2 S 1.14285(4) 0.44231(17) 0.45518(4)
F1 F 1.13445(10) 0.55747(19) 0.31521(10)
N1 N 0.98544(16) 0.2167(2) 0.00271(16)
O1 O 1.02168(18) 0.2367(2) -0.06167(17)
O2 O 0.95365(18) 0.1432(2) 0.01193(16)
O3 O 0.5912(9) 0.5223(8) -0.0732(9)
O4 O 0.66718(14) 0.5897(2) -0.16681(12)
O5 O 1.04129(13) 0.6980(2) 0.36565(11)
O6 O 0.93020(12) 0.6041(2) 0.43172(12)
O7 O 1.07251(16) 0.4195(2) 0.50563(13)
O8 O 1.24725(14) 0.4828(2) 0.51202(14)
C1 C 1.06317(15) 0.5254(2) 0.35649(14)
C2 C 0.95444(15) 0.4945(2) 0.26966(14)
H1 H 0.9067 0.4723 0.3030
C3 C 0.96767(15) 0.4200(2) 0.20250(14)
C4 C 0.92106(17) 0.3378(2) 0.20213(16)
H2 H 0.8857 0.3272 0.2468
C5 C 0.92611(18) 0.2707(2) 0.13635(17)
H3 H 0.8945 0.2149 0.1361
C6 C 0.97777(16) 0.2876(2) 0.07226(15)
C7 C 1.02514(16) 0.3684(2) 0.07047(15)
H4 H 1.0609 0.3779 0.0260
C8 C 1.01927(17) 0.4350(2) 0.13502(15)
H5 H 1.0501 0.4909 0.1337
C9 C 0.89388(16) 0.5726(2) 0.19790(15)
H6 H 0.8708 0.6147 0.2381
H7 H 0.9457 0.6033 0.1759
C10 C 0.79575(17) 0.5464(2) 0.10372(15)
H8 H 0.7433 0.5096 0.1127
C11 C 0.77782(17) 0.5713(2) 0.00930(15)
H9 H 0.8332 0.6019 -0.0024
C12 C 0.67287(18) 0.5524(2) -0.07927(17)
C13 C 0.5615(2) 0.5830(3) -0.25624(19)
H10 H 0.5559 0.6310 -0.3051
H11 H 0.5022 0.5910 -0.2327
C14 C 0.5464(3) 0.4979(3) -0.3105(2)
H12 H 0.6094 0.4863 -0.3268
H13 H 0.4802 0.5001 -0.3743
H14 H 0.5398 0.4510 -0.2663
C15 C 1.13410(16) 0.6347(2) 0.55233(14)
C16 C 1.11862(19) 0.5942(2) 0.63395(16)
H15 H 1.0555 0.5599 0.6217
C17 C 1.1991(2) 0.6056(2) 0.73471(17)
H16 H 1.1911 0.5786 0.7914
C18 C 1.2899(2) 0.6567(2) 0.75008(19)
H17 H 1.3437 0.6642 0.8180
C19 C 1.3044(2) 0.6969(2) 0.67004(18)
H18 H 1.3673 0.7317 0.6834
C20 C 1.22578(17) 0.6867(2) 0.56776(17)
H19 H 1.2347 0.7141 0.5117
C21 C 1.16703(16) 0.3474(2) 0.39425(16)
C22 C 1.22603(18) 0.3527(2) 0.33322(19)
H20 H 1.2495 0.4079 0.3188
C23 C 1.2502(2) 0.2746(3) 0.2934(2)
H21 H 1.2881 0.2764 0.2498
C24 C 1.2173(2) 0.1944(2) 0.3194(2)
H22 H 1.2339 0.1416 0.2935
C25 C 1.1615(3) 0.1903(2) 0.3817(2)
H23 H 1.1418 0.1349 0.3995
C26 C 1.1337(2) 0.2669(2) 0.4190(2)
H24 H 1.0931 0.2645 0.4601
S3 S 0.31989(4) 0.51256(17) 0.08409(4)
S4 S 0.46974(5) 0.35788(17) 0.08529(4)
F2 F 0.51939(10) 0.52878(19) 0.09741(9)
N2 N 0.50758(18) 0.7730(2) 0.49563(16)
O9 O 0.5382(2) 0.8450(2) 0.47477(16)
O10 O 0.47931(17) 0.7625(2) 0.56655(14)
O11 O 0.76361(16) 0.3624(2) 0.61758(14)
O12 O 0.90672(17) 0.4543(2) 0.65472(13)
O13 O 0.28440(16) 0.5136(2) -0.02680(12)
O14 O 0.26750(14) 0.4573(2) 0.13259(18)
O15 O 0.44152(17) 0.2994(2) 0.15065(13)
O16 O 0.57658(14) 0.3534(2) 0.08336(13)
C27 C 0.46497(15) 0.4741(2) 0.13750(15)
C28 C 0.52110(15) 0.4681(2) 0.25739(14)
H25 H 0.4845 0.4198 0.2789
C29 C 0.51344(15) 0.5510(2) 0.31460(14)
C30 C 0.55798(18) 0.6316(2) 0.30257(16)
H26 H 0.5904 0.6363 0.2546
C31 C 0.55504(18) 0.7052(2) 0.36052(16)
H27 H 0.5837 0.7599 0.3514
C32 C 0.50897(17) 0.6961(2) 0.43207(14)
C33 C 0.46491(17) 0.6174(2) 0.44678(15)
H28 H 0.4336 0.6131 0.4956
C34 C 0.46783(17) 0.5444(2) 0.38793(14)
H29 H 0.4388 0.4900 0.3974
C35 C 0.64576(16) 0.4431(2) 0.29651(15)
H30 H 0.6545 0.3929 0.2562
H31 H 0.6873 0.4935 0.2872
C36 C 0.68874(17) 0.4186(2) 0.40951(16)
H32 H 0.6455 0.3799 0.4296
C37 C 0.78127(18) 0.4463(2) 0.48263(15)
H33 H 0.8266 0.4859 0.4665
C38 C 0.81362(18) 0.4150(2) 0.59021(17)
C39 C 0.9451 0.4294 0.7650
H34 H 1.0240 0.4278 0.7964
H35 H 0.9185 0.3712 0.7704
C40 C 0.9053 0.4935 0.8202
H36 H 0.9308 0.4767 0.8919
H37 H 0.9327 0.5515 0.8154
H38 H 0.8264 0.4944 0.7893
C41 C 0.31619(15) 0.6237(2) 0.12054(14)
C42 C 0.34561(19) 0.6908(2) 0.06906(18)
H39 H 0.3751 0.6774 0.0204
C43 C 0.3305(2) 0.7771(2) 0.0911(2)
H40 H 0.3500 0.8235 0.0573
C44 C 0.2871(2) 0.7963(2) 0.1623(2)
H41 H 0.2774 0.8558 0.1767
C45 C 0.25786(19) 0.7294(2) 0.21267(19)
H42 H 0.2282 0.7434 0.2610
C46 C 0.27205(16) 0.6420(2) 0.19233(16)
H43 H 0.2523 0.5958 0.2262
C47 C 0.37062(17) 0.3476(2) -0.04271(15)
C48 C 0.2734(2) 0.3037(2) -0.06130(19)
H44 H 0.2594 0.2801 -0.0061
C49 C 0.1965(2) 0.2951(2) -0.1638(2)
H45 H 0.1300 0.2649 -0.1785
C50 C 0.2184(2) 0.3312(2) -0.2436(2)
H46 H 0.1658 0.3261 -0.3125
C51 C 0.3156(2) 0.3745(2) -0.22389(17)
H47 H 0.3289 0.3985 -0.2793
C52 C 0.39433(18) 0.3832(2) -0.12289(16)
H48 H 0.4615 0.4121 -0.1089
C53? C 1.0252 0.4952 0.8292
H49? H 0.9787 0.3718 0.7760
H50? H 0.8839 0.4270 0.7844
H51? H 1.0504 0.4792 0.9011
H52? H 1.0866 0.4970 0.8099
H53? H 0.9910 0.5526 0.8184
O17? O 0.6128(10) 0.4949(8) -0.0757(12)
loop_
_geom_bond_atom_site_label_1
_geom_bond_atom_site_label_2
_geom_bond_site_symmetry_1
_geom_bond_site_symmetry_2
S1 O5 1_555 1_555
S2 O7 1_555 1_555
F1 C1 1_555 1_555
N1 O1 1_555 1_555
O2 N1 1_555 1_555
O3 C12 1_555 1_555
O4 C12 1_555 1_555
O6 S1 1_555 1_555
O8 S2 1_555 1_555
C1 S1 1_555 1_555
C2 C1 1_555 1_555
H1 C2 1_555 1_555
C3 C2 1_555 1_555
C4 C3 1_555 1_555
H2 C4 1_555 1_555
C5 C4 1_555 1_555
H3 C5 1_555 1_555
C6 N1 1_555 1_555
C7 C6 1_555 1_555
H4 C7 1_555 1_555
C8 C3 1_555 1_555
H5 C8 1_555 1_555
C9 C2 1_555 1_555
H6 C9 1_555 1_555
H7 C9 1_555 1_555
C10 C9 1_555 1_555
H8 C10 1_555 1_555
C11 C10 1_555 1_555
H9 C11 1_555 1_555
C12 C11 1_555 1_555
C13 O4 1_555 1_555
H10 C13 1_555 1_555
H11 C13 1_555 1_555
C14 C13 1_555 1_555
H12 C14 1_555 1_555
H13 C14 1_555 1_555
H14 C14 1_555 1_555
C15 S1 1_555 1_555
C16 C15 1_555 1_555
H15 C16 1_555 1_555
C17 C16 1_555 1_555
H16 C17 1_555 1_555
C18 C17 1_555 1_555
H17 C18 1_555 1_555
C19 C18 1_555 1_555
H18 C19 1_555 1_555
C20 C15 1_555 1_555
H19 C20 1_555 1_555
C21 S2 1_555 1_555
C22 C21 1_555 1_555
H20 C22 1_555 1_555
C23 C22 1_555 1_555
H21 C23 1_555 1_555
C24 C23 1_555 1_555
H22 C24 1_555 1_555
C25 C24 1_555 1_555
H23 C25 1_555 1_555
C26 C21 1_555 1_555
H24 C26 1_555 1_555
S3 O13 1_555 1_555
S4 O15 1_555 1_555
F2 C27 1_555 1_555
N2 O9 1_555 1_555
O10 N2 1_555 1_555
O11 C38 1_555 1_555
O12 C38 1_555 1_555
O14 S3 1_555 1_555
O16 S4 1_555 1_555
C27 S3 1_555 1_555
C28 C27 1_555 1_555
H25 C28 1_555 1_555
C29 C28 1_555 1_555
C30 C29 1_555 1_555
H26 C30 1_555 1_555
C31 C30 1_555 1_555
H27 C31 1_555 1_555
C32 N2 1_555 1_555
C33 C32 1_555 1_555
H28 C33 1_555 1_555
C34 C29 1_555 1_555
H29 C34 1_555 1_555
C35 C28 1_555 1_555
H30 C35 1_555 1_555
H31 C35 1_555 1_555
C36 C35 1_555 1_555
H32 C36 1_555 1_555
C37 C36 1_555 1_555
H33 C37 1_555 1_555
C38 C37 1_555 1_555
C39 O12 1_555 1_555
H34 C39 1_555 1_555
H35 C39 1_555 1_555
C40 C39 1_555 1_555
H36 C40 1_555 1_555
H37 C40 1_555 1_555
H38 C40 1_555 1_555
C41 S3 1_555 1_555
C42 C41 1_555 1_555
H39 C42 1_555 1_555
C43 C42 1_555 1_555
H40 C43 1_555 1_555
C44 C43 1_555 1_555
H41 C44 1_555 1_555
C45 C44 1_555 1_555
H42 C45 1_555 1_555
C46 C41 1_555 1_555
H43 C46 1_555 1_555
C47 S4 1_555 1_555
C48 C47 1_555 1_555
H44 C48 1_555 1_555
C49 C48 1_555 1_555
H45 C49 1_555 1_555
C50 C49 1_555 1_555
H46 C50 1_555 1_555
C51 C50 1_555 1_555
H47 C51 1_555 1_555
C52 C47 1_555 1_555
H48 C52 1_555 1_555
S2 C1 1_555 1_555
C5 C6 1_555 1_555
C7 C8 1_555 1_555
C19 C20 1_555 1_555
C25 C26 1_555 1_555
S4 C27 1_555 1_555
C31 C32 1_555 1_555
C33 C34 1_555 1_555
C45 C46 1_555 1_555
C51 C52 1_555 1_555

#END
