
#######################################################################
#
#                 Cambridge Crystallographic Data Centre
#                                CCDC 
#
#######################################################################
#
# If this CIF has been generated from an entry in the Cambridge 
# Structural Database, then it will include bibliographic, chemical, 
# crystal, experimental, refinement or atomic coordinate data resulting 
# from the CCDC's data processing and validation procedures.
#
#######################################################################

data_UGUBEF
_chemical_formula_moiety         'C74 H56 N4'
_chemical_name_systematic        
4,4',4'',4'''-Ethene-1,1,2,2-tetrayltetrakis(N,N-diphenylaniline)
_symmetry_cell_setting           triclinic
_symmetry_space_group_name_H-M   'P -1'
_symmetry_Int_Tables_number      2
_space_group_name_Hall           '-P 1'
loop_
_symmetry_equiv_pos_site_id
_symmetry_equiv_pos_as_xyz
1 x,y,z
2 -x,-y,-z
_cell_length_a                   10.6440(18)
_cell_length_b                   14.262(4)
_cell_length_c                   18.828(3)
_cell_angle_alpha                94.179(17)
_cell_angle_beta                 95.469(14)
_cell_angle_gamma                108.415(19)
_cell_volume                     2683.38
_exptl_crystal_colour            green
_exptl_crystal_description       needle
_cell_formula_units_Z            2
_exptl_crystal_preparation       Luminescent
loop_
_atom_site_label
_atom_site_type_symbol
_atom_site_fract_x
_atom_site_fract_y
_atom_site_fract_z
N1 N 0.6185(5) 0.8963(3) 0.6946(3)
N2 N 0.1233(4) 0.4348(3) 0.8155(2)
N3 N 0.3630(5) 0.5790(3) 0.2010(2)
N4 N -0.0611(4) 0.1164(3) 0.3359(2)
C1 C 0.3005(5) 0.5568(3) 0.4996(3)
C2 C 0.2155(5) 0.4746(4) 0.5223(3)
C3 C 0.3873(5) 0.6449(4) 0.5496(3)
C4 C 0.4471(5) 0.6351(4) 0.6173(3)
H1 H 0.4349 0.5706 0.6315
C5 C 0.5243(5) 0.7185(4) 0.6643(3)
H2 H 0.5649 0.7109 0.7097
C6 C 0.5401(5) 0.8123(4) 0.6434(3)
C7 C 0.4881(6) 0.8239(4) 0.5766(3)
H3 H 0.5046 0.8884 0.5616
C8 C 0.4102(5) 0.7397(4) 0.5302(3)
H4 H 0.3725 0.7482 0.4843
C9 C 0.1894(4) 0.4657(4) 0.5984(3)
C10 C 0.1892(4) 0.3795(4) 0.6302(3)
H5 H 0.2025 0.3262 0.6021
C11 C 0.1702(5) 0.3706(4) 0.7008(3)
H6 H 0.1735 0.3123 0.7214
C12 C 0.1464(5) 0.4462(4) 0.7424(3)
C13 C 0.1421(5) 0.5299(4) 0.7125(3)
H7 H 0.1236 0.5810 0.7404
C14 C 0.1649(4) 0.5410(4) 0.6409(3)
H8 H 0.1637 0.6002 0.6211
C15 C 0.3147(5) 0.5654(4) 0.4218(3)
C16 C 0.4428(5) 0.5918(4) 0.3998(3)
H9 H 0.5194 0.6058 0.4342
C17 C 0.4570(5) 0.5972(4) 0.3272(3)
H10 H 0.5436 0.6139 0.3126
C18 C 0.3483(5) 0.5790(4) 0.2766(3)
C19 C 0.2223(5) 0.5543(4) 0.2980(3)
H11 H 0.1462 0.5408 0.2633
C20 C 0.2062(5) 0.5491(4) 0.3708(3)
H12 H 0.1194 0.5342 0.3851
C21 C 0.1441(5) 0.3809(3) 0.4730(3)
C22 C 0.0083(5) 0.3321(4) 0.4757(3)
H13 H -0.0378 0.3592 0.5080
C23 C -0.0597(5) 0.2451(4) 0.4320(3)
H14 H -0.1522 0.2136 0.4339
C24 C 0.0065(5) 0.2037(4) 0.3856(3)
C25 C 0.1436(5) 0.2509(4) 0.3821(3)
H15 H 0.1898 0.2239 0.3498
C26 C 0.2098(5) 0.3383(3) 0.4275(3)
H16 H 0.3028 0.3693 0.4269
C27 C 0.5830(6) 0.8990(4) 0.7650(3)
C28 C 0.4506(6) 0.8708(4) 0.7786(3)
H17 H 0.3808 0.8474 0.7397
C29 C 0.4201(7) 0.8765(5) 0.8481(4)
H18 H 0.3293 0.8566 0.8566
C30 C 0.5185(8) 0.9102(4) 0.9049(4)
H19 H 0.4963 0.9147 0.9524
C31 C 0.6505(8) 0.9379(4) 0.8927(3)
H20 H 0.7196 0.9610 0.9319
C32 C 0.6824(6) 0.9320(4) 0.8227(3)
H21 H 0.7733 0.9509 0.8146
C33 C 0.6813(5) 0.9899(4) 0.6691(3)
C34 C 0.6238(5) 1.0633(4) 0.6713(3)
H22 H 0.5402 1.0516 0.6890
C35 C 0.6861(6) 1.1544(4) 0.6480(3)
H23 H 0.6463 1.2053 0.6509
C36 C 0.8059(6) 1.1714(4) 0.6205(3)
H24 H 0.8474 1.2328 0.6027
C37 C 0.8634(7) 1.0993(5) 0.6191(4)
H25 H 0.9461 1.1114 0.6002
C38 C 0.8062(6) 1.0088(5) 0.6442(3)
H26 H 0.8503 0.9604 0.6446
C39 C 0.1574(6) 0.5207(4) 0.8671(3)
C40 C 0.0576(7) 0.5338(4) 0.9057(4)
H27 H -0.0316 0.4902 0.8945
C41 C 0.0892(10) 0.6101(5) 0.9597(4)
H28 H 0.0216 0.6192 0.9862
C42 C 0.2184(10) 0.6737(5) 0.9758(4)
H29 H 0.2396 0.7258 1.0139
C43 C 0.3170(8) 0.6622(5) 0.9370(4)
H30 H 0.4055 0.7070 0.9479
C44 C 0.2871(6) 0.5847(4) 0.8814(3)
H31 H 0.3543 0.5764 0.8543
C45 C 0.0666(5) 0.3416(4) 0.8398(3)
C46 C 0.1077(5) 0.3247(4) 0.9080(3)
H32 H 0.1762 0.3760 0.9376
C47 C 0.0516(6) 0.2356(4) 0.9341(3)
H33 H 0.0818 0.2252 0.9810
C48 C -0.0495(6) 0.1607(4) 0.8915(3)
H34 H -0.0903 0.0993 0.9096
C49 C -0.0902(6) 0.1756(4) 0.8234(3)
H35 H -0.1581 0.1237 0.7940
C50 C -0.0336(5) 0.2657(4) 0.7962(3)
H36 H -0.0626 0.2755 0.7489
C51 C 0.3520(5) 0.4889(4) 0.1599(3)
C52 C 0.3758(5) 0.4902(4) 0.0871(3)
H37 H 0.3978 0.5504 0.0653
C53 C 0.3660(6) 0.4015(5) 0.0491(3)
H38 H 0.3821 0.4016 0.0003
C54 C 0.3346(7) 0.3141(5) 0.0781(4)
H39 H 0.3316 0.2547 0.0506
C55 C 0.3066(6) 0.3129(5) 0.1487(4)
H40 H 0.2795 0.2515 0.1688
C56 C 0.3179(6) 0.4004(4) 0.1901(3)
H41 H 0.3024 0.3994 0.2389
C57 C 0.4396(6) 0.6723(4) 0.1800(3)
C58 C 0.3857(6) 0.7466(4) 0.1751(3)
H42 H 0.2979 0.7359 0.1870
C59 C 0.4550(7) 0.8372(4) 0.1535(3)
H43 H 0.4141 0.8873 0.1498
C60 C 0.5839(6) 0.8549(4) 0.1371(3)
H44 H 0.6323 0.9169 0.1221
C61 C 0.6408(6) 0.7811(5) 0.1428(4)
H45 H 0.7297 0.7929 0.1323
C62 C 0.5711(6) 0.6900(4) 0.1636(3)
H46 H 0.6115 0.6396 0.1668
C63 C -0.0581(5) 0.1247(4) 0.2617(3)
C64 C -0.0526(6) 0.2126(4) 0.2361(4)
H47 H -0.0497 0.2676 0.2686
C65 C -0.0513(6) 0.2238(5) 0.1638(4)
H48 H -0.0469 0.2859 0.1471
C66 C -0.0566(6) 0.1429(6) 0.1155(4)
H49 H -0.0593 0.1486 0.0655
C67 C -0.0579(7) 0.0560(6) 0.1411(4)
H50 H -0.0587 0.0015 0.1086
C68 C -0.0582(6) 0.0452(5) 0.2148(3)
H51 H -0.0586 -0.0158 0.2322
C69 C -0.1444(5) 0.0299(4) 0.3620(3)
C70 C -0.2522(5) -0.0374(4) 0.3157(3)
H52 H -0.2730 -0.0234 0.2682
C71 C -0.3275(6) -0.1249(4) 0.3406(3)
H53 H -0.3969 -0.1724 0.3088
C72 C -0.3033(6) -0.1436(4) 0.4101(3)
H54 H -0.3558 -0.2034 0.4264
C73 C -0.2039(6) -0.0763(4) 0.4555(4)
H55 H -0.1898 -0.0879 0.5042
C74 C -0.1227(6) 0.0092(5) 0.4317(4)
H56 H -0.0513 0.0542 0.4638
loop_
_geom_bond_atom_site_label_1
_geom_bond_atom_site_label_2
_geom_bond_site_symmetry_1
_geom_bond_site_symmetry_2
N1 C6 1_555 1_555
N2 C12 1_555 1_555
N3 C18 1_555 1_555
N4 C24 1_555 1_555
C1 C2 1_555 1_555
C2 C9 1_555 1_555
C3 C1 1_555 1_555
C4 C3 1_555 1_555
H1 C4 1_555 1_555
C5 C4 1_555 1_555
H2 C5 1_555 1_555
C6 C5 1_555 1_555
C7 C6 1_555 1_555
H3 C7 1_555 1_555
C8 C3 1_555 1_555
H4 C8 1_555 1_555
C9 C10 1_555 1_555
C10 H5 1_555 1_555
C11 C10 1_555 1_555
H6 C11 1_555 1_555
C12 C11 1_555 1_555
C13 C12 1_555 1_555
H7 C13 1_555 1_555
C14 C9 1_555 1_555
H8 C14 1_555 1_555
C15 C1 1_555 1_555
C16 C15 1_555 1_555
H9 C16 1_555 1_555
C17 C16 1_555 1_555
H10 C17 1_555 1_555
C18 C17 1_555 1_555
C19 C18 1_555 1_555
H11 C19 1_555 1_555
C20 C15 1_555 1_555
H12 C20 1_555 1_555
C21 C2 1_555 1_555
C22 C21 1_555 1_555
H13 C22 1_555 1_555
C23 C22 1_555 1_555
H14 C23 1_555 1_555
C24 C23 1_555 1_555
C25 C24 1_555 1_555
H15 C25 1_555 1_555
C26 C21 1_555 1_555
H16 C26 1_555 1_555
C27 N1 1_555 1_555
C28 C27 1_555 1_555
H17 C28 1_555 1_555
C29 C28 1_555 1_555
H18 C29 1_555 1_555
C30 C29 1_555 1_555
H19 C30 1_555 1_555
C31 C30 1_555 1_555
H20 C31 1_555 1_555
C32 C27 1_555 1_555
H21 C32 1_555 1_555
C33 N1 1_555 1_555
C34 C33 1_555 1_555
H22 C34 1_555 1_555
C35 C34 1_555 1_555
H23 C35 1_555 1_555
C36 C35 1_555 1_555
H24 C36 1_555 1_555
C37 C36 1_555 1_555
H25 C37 1_555 1_555
C38 C33 1_555 1_555
H26 C38 1_555 1_555
C39 N2 1_555 1_555
C40 C39 1_555 1_555
H27 C40 1_555 1_555
C41 C40 1_555 1_555
H28 C41 1_555 1_555
C42 C41 1_555 1_555
H29 C42 1_555 1_555
C43 C42 1_555 1_555
H30 C43 1_555 1_555
C44 C39 1_555 1_555
H31 C44 1_555 1_555
C45 N2 1_555 1_555
C46 C45 1_555 1_555
H32 C46 1_555 1_555
C47 C46 1_555 1_555
H33 C47 1_555 1_555
C48 C47 1_555 1_555
H34 C48 1_555 1_555
C49 C48 1_555 1_555
H35 C49 1_555 1_555
C50 C45 1_555 1_555
H36 C50 1_555 1_555
C51 N3 1_555 1_555
C52 C51 1_555 1_555
H37 C52 1_555 1_555
C53 C52 1_555 1_555
H38 C53 1_555 1_555
C54 C53 1_555 1_555
H39 C54 1_555 1_555
C55 C54 1_555 1_555
H40 C55 1_555 1_555
C56 C51 1_555 1_555
H41 C56 1_555 1_555
C57 N3 1_555 1_555
C58 C57 1_555 1_555
H42 C58 1_555 1_555
C59 C58 1_555 1_555
H43 C59 1_555 1_555
C60 C59 1_555 1_555
H44 C60 1_555 1_555
C61 C60 1_555 1_555
H45 C61 1_555 1_555
C62 C57 1_555 1_555
H46 C62 1_555 1_555
C63 N4 1_555 1_555
C64 C63 1_555 1_555
H47 C64 1_555 1_555
C65 C64 1_555 1_555
H48 C65 1_555 1_555
C66 C65 1_555 1_555
H49 C66 1_555 1_555
C67 C66 1_555 1_555
H50 C67 1_555 1_555
C68 C63 1_555 1_555
H51 C68 1_555 1_555
C69 N4 1_555 1_555
C70 C69 1_555 1_555
H52 C70 1_555 1_555
C71 C70 1_555 1_555
H53 C71 1_555 1_555
C72 C71 1_555 1_555
H54 C72 1_555 1_555
C73 C72 1_555 1_555
H55 C73 1_555 1_555
C74 C69 1_555 1_555
H56 C74 1_555 1_555
C7 C8 1_555 1_555
C13 C14 1_555 1_555
C19 C20 1_555 1_555
C25 C26 1_555 1_555
C31 C32 1_555 1_555
C37 C38 1_555 1_555
C43 C44 1_555 1_555
C49 C50 1_555 1_555
C55 C56 1_555 1_555
C61 C62 1_555 1_555
C67 C68 1_555 1_555
C73 C74 1_555 1_555

#END
