
#######################################################################
#
#                 Cambridge Crystallographic Data Centre
#                                CCDC 
#
#######################################################################
#
# If this CIF has been generated from an entry in the Cambridge 
# Structural Database, then it will include bibliographic, chemical, 
# crystal, experimental, refinement or atomic coordinate data resulting 
# from the CCDC's data processing and validation procedures.
#
#######################################################################

data_UGUGOS
_chemical_formula_moiety         'C10 H18 N2 O4 S2,2(H2 O1)'
_chemical_name_systematic        
"trans-S,S'-(But-2-ene-1,4-diyl)-bis(L-cysteine) dihydrate"
_symmetry_cell_setting           monoclinic
_symmetry_space_group_name_H-M   'P 21'
_symmetry_Int_Tables_number      4
_space_group_name_Hall           'P 2yb'
loop_
_symmetry_equiv_pos_site_id
_symmetry_equiv_pos_as_xyz
1 x,y,z
2 -x,1/2+y,-z
_cell_length_a                   11.672(4)
_cell_length_b                   5.3982(19)
_cell_length_c                   12.413(4)
_cell_angle_alpha                90
_cell_angle_beta                 105.020(5)
_cell_angle_gamma                90
_cell_volume                     755.395
_exptl_crystal_colour            colorless
_exptl_crystal_description       prism
_cell_formula_units_Z            2
loop_
_atom_site_label
_atom_site_type_symbol
_atom_site_fract_x
_atom_site_fract_y
_atom_site_fract_z
S1 S 0.98558(8) 0.4300(2) 1.10310(7)
S2 S 0.45673(9) 0.1031(2) 0.85490(8)
O1 O 0.6590(3) 0.2498(7) 0.6583(2)
O2 O 0.5305(3) -0.0490(7) 0.5978(3)
O3 O 0.8327(3) -0.1955(6) 1.2887(2)
O4 O 1.0023(2) -0.1342(5) 1.4161(2)
N1 N 0.3428(3) 0.2090(7) 0.5987(2)
H1 H 0.2838 0.3031 0.6086
H2 H 0.3398 0.0613 0.6298
H3 H 0.3359 0.1902 0.5261
N2 N 1.0210(3) 0.3356(6) 1.3602(2)
H4 H 1.0007 0.3545 1.4240
H5 H 1.0254 0.4834 1.3298
H6 H 1.0913 0.2608 1.3735
C1 C 0.5569(4) 0.1601(10) 0.6329(3)
C2 C 0.4582(3) 0.3297(8) 0.6518(3)
H7 H 0.4622 0.4892 0.6153
C3 C 0.4690(3) 0.3735(8) 0.7745(3)
H8 H 0.4079 0.4901 0.7811
H9 H 0.5451 0.4508 0.8071
C4 C 0.6099(3) 0.0045(8) 0.9034(3)
H10 H 0.6131 -0.1543 0.9406
H11 H 0.6430 -0.0166 0.8399
C5 C 0.6824(3) 0.1883(8) 0.9819(3)
H12 H 0.6677 0.2036 1.0517
C6 C 0.7645(3) 0.3291(8) 0.9611(3)
H13 H 0.7823 0.3120 0.8926
C7 C 0.8319(3) 0.5170(8) 1.0413(3)
H14 H 0.7925 0.5408 1.1004
H15 H 0.8302 0.6738 1.0028
C8 C 0.9649(3) 0.1480(7) 1.1733(3)
H16 H 0.9037 0.0508 1.1233
H17 H 1.0379 0.0531 1.1881
C9 C 0.9306(3) 0.1825(7) 1.2825(3)
H18 H 0.8539 0.2673 1.2674
C10 C 0.9195(3) -0.0686(9) 1.3333(3)
O5 O 0.2479(3) 0.2084(8) 0.3453(3)
H21 H 0.297(3) 0.345(5) 0.351(4)
H22 H 0.277(4) 0.051(4) 0.340(4)
O6 O 0.7661(3) 0.2056(7) 0.4830(3)
H19 H 0.8416(16) 0.266(7) 0.512(3)
H20 H 0.728(4) 0.178(12) 0.539(3)
loop_
_geom_bond_atom_site_label_1
_geom_bond_atom_site_label_2
_geom_bond_site_symmetry_1
_geom_bond_site_symmetry_2
S1 C7 1_555 1_555
S2 C3 1_555 1_555
O1 C1 1_555 1_555
O2 C1 1_555 1_555
O3 C10 1_555 1_555
O4 C10 1_555 1_555
N1 H1 1_555 1_555
H2 N1 1_555 1_555
H3 N1 1_555 1_555
N2 H4 1_555 1_555
H5 N2 1_555 1_555
H6 N2 1_555 1_555
C1 C2 1_555 1_555
C2 N1 1_555 1_555
H7 C2 1_555 1_555
C3 C2 1_555 1_555
H8 C3 1_555 1_555
H9 C3 1_555 1_555
C4 S2 1_555 1_555
H10 C4 1_555 1_555
H11 C4 1_555 1_555
C5 C4 1_555 1_555
H12 C5 1_555 1_555
C6 C5 1_555 1_555
H13 C6 1_555 1_555
C7 C6 1_555 1_555
H14 C7 1_555 1_555
H15 C7 1_555 1_555
C8 S1 1_555 1_555
H16 C8 1_555 1_555
H17 C8 1_555 1_555
C9 N2 1_555 1_555
H18 C9 1_555 1_555
C10 C9 1_555 1_555
O5 H21 1_555 1_555
O6 H19 1_555 1_555
H20 O6 1_555 1_555
H22 O5 1_555 1_555
C8 C9 1_555 1_555

#END
