
#######################################################################
#
#                 Cambridge Crystallographic Data Centre
#                                CCDC 
#
#######################################################################
#
# If this CIF has been generated from an entry in the Cambridge 
# Structural Database, then it will include bibliographic, chemical, 
# crystal, experimental, refinement or atomic coordinate data resulting 
# from the CCDC's data processing and validation procedures.
#
#######################################################################

data_UGUGUY
_chemical_formula_moiety         'C8 H2 N6 O12'
_chemical_name_systematic        1,2,3,4,5,7-Hexanitrocubane
_symmetry_cell_setting           orthorhombic
_symmetry_space_group_name_H-M   'P n m a'
_symmetry_Int_Tables_number      62
_space_group_name_Hall           '-P 2ac 2n'
loop_
_symmetry_equiv_pos_site_id
_symmetry_equiv_pos_as_xyz
1 x,y,z
2 1/2+x,y,1/2-z
3 x,1/2-y,z
4 1/2-x,1/2+y,1/2+z
5 -x,-y,-z
6 1/2-x,-y,1/2+z
7 -x,1/2+y,-z
8 1/2+x,1/2-y,1/2-z
_cell_length_a                   13.936(2)
_cell_length_b                   10.8870(19)
_cell_length_c                   8.4833(14)
_cell_angle_alpha                90
_cell_angle_beta                 90
_cell_angle_gamma                90
_cell_volume                     1287.1
_exptl_crystal_colour            orange
_exptl_crystal_description       plate
_cell_formula_units_Z            4
_exptl_crystal_recrystallization_method 'nitric acid/sulfuric acid'
loop_
_atom_site_label
_atom_site_type_symbol
_atom_site_fract_x
_atom_site_fract_y
_atom_site_fract_z
C1 C 0.33820(19) 0.2500 1.0939(3)
N1 N 0.3347(2) 0.2500 1.2689(3)
O1 O 0.4094(2) 0.2500 1.3397(3)
O2 O 0.2542(2) 0.2500 1.3251(3)
C2 C 0.29000(12) 0.14906(14) 0.98930(18)
N2 N 0.24031(12) 0.03958(13) 1.05379(18)
O3 O 0.27462(14) -0.00370(15) 1.17313(19)
O4 O 0.17065(13) 0.00225(15) 0.9865(2)
C3 C 0.24530(16) 0.2500 0.8802(3)
N3 N 0.14369(16) 0.2500 0.8305(3)
O5 O 0.12710(16) 0.2500 0.6895(3)
O6 O 0.08567(15) 0.2500 0.9385(3)
C4 C 0.33648(18) 0.2500 0.7732(3)
H1 H 0.336(2) 0.2500 0.658(3)
C5 C 0.38139(12) 0.14914(14) 0.88278(18)
N4 N 0.43102(11) 0.03600(15) 0.8312(2)
O7 O 0.4809(6) 0.0462(8) 0.7150(7)
O8 O 0.4202(5) -0.0520(6) 0.9158(7)
C6 C 0.42940(19) 0.2500 0.9894(3)
H2 H 0.4926(19) 0.2500 1.021(3)
C2B C 0.29000(12) 0.35094(14) 0.98930(18)
C5B C 0.38139(12) 0.35086(14) 0.88278(18)
N2B N 0.24031(12) 0.46042(13) 1.05379(18)
O3B O 0.27462(14) 0.50370(15) 1.17313(19)
O4B O 0.17065(13) 0.49775(15) 0.9865(2)
N4B N 0.43102(11) 0.46400(15) 0.8312(2)
O7B O 0.4809(6) 0.4538(8) 0.7150(7)
O8B O 0.4202(5) 0.5520(6) 0.9158(7)
O9? O 0.5027(10) 0.0394(12) 0.7631(17)
O10? O 0.3923(6) -0.0640(8) 0.8610(9)
loop_
_geom_bond_atom_site_label_1
_geom_bond_atom_site_label_2
_geom_bond_site_symmetry_1
_geom_bond_site_symmetry_2
C1 N1 1_555 1_555
N1 O1 1_555 1_555
O2 N1 1_555 1_555
C2 C1 1_555 1_555
N2 C2 1_555 1_555
O3 N2 1_555 1_555
O4 N2 1_555 1_555
C3 C2 1_555 1_555
N3 C3 1_555 1_555
O5 N3 1_555 1_555
O6 N3 1_555 1_555
C4 C3 1_555 1_555
H1 C4 1_555 1_555
C5 C2 1_555 1_555
N4 C5 1_555 1_555
O7 N4 1_555 1_555
O8 N4 1_555 1_555
C6 C1 1_555 1_555
H2 C6 1_555 1_555
C2B C1 1_555 1_555
C5B C4 1_555 1_555
N2B C2B 1_555 1_555
O3B N2B 1_555 1_555
O4B N2B 1_555 1_555
N4B C5B 1_555 1_555
O7B N4B 1_555 1_555
O8B N4B 1_555 1_555
C3 C2B 1_555 1_555
C4 C5 1_555 1_555
C5 C6 1_555 1_555
C6 C5B 1_555 1_555
C2B C5B 1_555 1_555

#END
