
#######################################################################
#
#                 Cambridge Crystallographic Data Centre
#                                CCDC 
#
#######################################################################
#
# If this CIF has been generated from an entry in the Cambridge 
# Structural Database, then it will include bibliographic, chemical, 
# crystal, experimental, refinement or atomic coordinate data resulting 
# from the CCDC's data processing and validation procedures.
#
#######################################################################

data_UGULIT
_chemical_formula_moiety         '2(C7 H10 N1 1+),C8 H3 N1 O6 2-,H2 O1'
_chemical_name_systematic        
'bis(Benzylammonium) 4-nitrophthalate monohydrate'
_symmetry_cell_setting           monoclinic
_symmetry_space_group_name_H-M   'P c'
_symmetry_Int_Tables_number      7
_space_group_name_Hall           'P -2yc'
loop_
_symmetry_equiv_pos_site_id
_symmetry_equiv_pos_as_xyz
1 x,y,z
2 x,-y,1/2+z
_cell_length_a                   17.3360(19)
_cell_length_b                   9.4133(8)
_cell_length_c                   14.5066(16)
_cell_angle_alpha                90
_cell_angle_beta                 112.104(2)
_cell_angle_gamma                90
_cell_volume                     2193.32
_exptl_crystal_colour            colorless
_exptl_crystal_description       block
_chemical_melting_point          '128-129 deg.C'
_cell_formula_units_Z            4
loop_
_atom_site_label
_atom_site_type_symbol
_atom_site_fract_x
_atom_site_fract_y
_atom_site_fract_z
N1 N 0.71359(19) 0.0422(4) 0.0326(3)
H1 H 0.7237 -0.0180 0.0831
H2 H 0.7612 0.0812 0.0354
H3 H 0.6904 -0.0044 -0.0246
C1 C 0.6574(3) 0.1529(5) 0.0388(4)
H4 H 0.6574 0.2288 -0.0065
H5 H 0.6792 0.1918 0.1057
C2 C 0.5696(2) 0.1078(5) 0.0154(3)
C3 C 0.5483(3) -0.0282(5) 0.0332(4)
H6 H 0.5901 -0.0957 0.0593
C4 C 0.4674(3) -0.0656(6) 0.0132(4)
H7 H 0.4545 -0.1580 0.0250
C5 C 0.4062(3) 0.0323(8) -0.0241(4)
H8 H 0.3510 0.0069 -0.0385
C6 C 0.4254(3) 0.1677(7) -0.0403(4)
H9 H 0.3834 0.2351 -0.0646
C7 C 0.5070(3) 0.2054(6) -0.0209(4)
H10 H 0.5195 0.2981 -0.0326
N2 N -0.1287(2) 0.7282(4) 0.0709(3)
H11 H -0.1231 0.8131 0.0471
H12 H -0.1821 0.7130 0.0600
H13 H -0.1106 0.6614 0.0405
C8 C -0.0787(3) 0.7236(6) 0.1800(4)
H14 H -0.0981 0.7976 0.2126
H15 H -0.0876 0.6329 0.2061
C9 C 0.0113(3) 0.7431(5) 0.2035(3)
C10 C 0.0571(4) 0.6401(6) 0.1815(4)
H16 H 0.0304 0.5590 0.1480
C11 C 0.1406(4) 0.6529(8) 0.2073(5)
H17 H 0.1710 0.5800 0.1937
C12 C 0.1795(4) 0.7739(10) 0.2534(5)
H18 H 0.2366 0.7844 0.2706
C13 C 0.1360(4) 0.8771(7) 0.2739(5)
H19 H 0.1626 0.9596 0.3053
C14 C 0.0521(3) 0.8617(6) 0.2487(4)
H20 H 0.0223 0.9348 0.2630
N3 N 0.6728(2) 0.4577(5) 0.7339(3)
H21 H 0.6600 0.4498 0.6687
H22 H 0.7268 0.4397 0.7660
H23 H 0.6617 0.5455 0.7480
C15 C 0.6256(3) 0.3600(6) 0.7641(5)
H24 H 0.6381 0.3744 0.8344
H25 H 0.6440 0.2651 0.7563
C16 C 0.5327(3) 0.3663(6) 0.7104(4)
C17 C 0.4881(4) 0.2599(7) 0.7315(4)
H26 H 0.5156 0.1859 0.7735
C18 C 0.4021(5) 0.2625(9) 0.6905(6)
H27 H 0.3716 0.1911 0.7055
C19 C 0.3630(4) 0.3678(10) 0.6293(6)
H28 H 0.3051 0.3687 0.6021
C20 C 0.4056(4) 0.4745(8) 0.6055(4)
H29 H 0.3774 0.5466 0.5622
C21 C 0.4922(3) 0.4729(6) 0.6473(4)
H30 H 0.5223 0.5447 0.6323
N4 N -0.1554(2) 0.7277(4) 0.7893(3)
H31 H -0.1609 0.6751 0.7362
H32 H -0.2042 0.7663 0.7818
H33 H -0.1381 0.6731 0.8434
C22 C -0.0948(3) 0.8394(5) 0.8000(4)
H34 H -0.0977 0.9074 0.8489
H35 H -0.1097 0.8888 0.7370
C23 C -0.0071(3) 0.7874(5) 0.8312(4)
C24 C 0.0449(3) 0.7940(5) 0.9288(4)
H36 H 0.0248 0.8243 0.9766
C25 C 0.1274(3) 0.7556(6) 0.9564(4)
H37 H 0.1633 0.7622 1.0227
C26 C 0.1566(3) 0.7080(6) 0.8864(5)
H38 H 0.2119 0.6801 0.9055
C27 C 0.1057(3) 0.7016(6) 0.7905(5)
H39 H 0.1260 0.6715 0.7429
C28 C 0.0234(3) 0.7394(5) 0.7626(4)
H40 H -0.0120 0.7322 0.6961
N5 N 0.3388(2) 0.6146(5) 0.8030(3)
O1 O 0.66677(18) 0.9617(3) 0.8293(2)
O2 O 0.68416(16) 0.7480(3) 0.7767(2)
O3 O 0.70152(18) 0.7299(3) 1.0014(2)
O4 O 0.64524(18) 0.5252(4) 1.0150(3)
O5 O 0.3391(2) 0.5232(5) 0.8599(3)
O6 O 0.2765(2) 0.6568(5) 0.7376(3)
C29 C 0.6460(2) 0.8354(5) 0.8091(3)
C30 C 0.6440(3) 0.6446(6) 0.9743(3)
C31 C 0.5680(2) 0.7836(4) 0.8176(3)
C32 C 0.5659(2) 0.6850(4) 0.8878(3)
C33 C 0.4904(2) 0.6300(5) 0.8813(3)
H41 H 0.4884 0.5607 0.9260
C34 C 0.4192(2) 0.6769(5) 0.8098(3)
C35 C 0.4187(2) 0.7796(5) 0.7426(3)
H42 H 0.3690 0.8127 0.6955
C36 C 0.4943(2) 0.8323(5) 0.7469(3)
H43 H 0.4957 0.9014 0.7016
N6 N 0.1999(3) 0.1385(6) 1.0562(4)
O7 O -0.12569(19) 0.5219(3) 0.9331(2)
O8 O -0.17441(18) 0.3398(3) 0.8339(2)
O9 O -0.14935(17) 0.1891(3) 1.0310(2)
O10 O -0.09479(19) -0.0131(3) 1.0115(3)
O11 O 0.2121(2) 0.0370(5) 1.1105(4)
O12 O 0.2529(2) 0.1915(5) 1.0300(3)
C37 C -0.1197(3) 0.3996(5) 0.9038(3)
C38 C -0.0957(3) 0.1179(5) 1.0144(3)
C39 C -0.0373(2) 0.3279(5) 0.9502(3)
C40 C -0.0254(2) 0.1956(5) 0.9977(3)
C41 C 0.0526(3) 0.1343(5) 1.0343(3)
H44 H 0.0612 0.0473 1.0670
C42 C 0.1180(2) 0.2052(6) 1.0214(3)
C43 C 0.1081(3) 0.3330(6) 0.9743(4)
H45 H 0.1525 0.3778 0.9651
C44 C 0.0303(3) 0.3935(5) 0.9407(4)
H46 H 0.0229 0.4822 0.9104
O13 O 0.80817(17) 0.4304(3) 0.1120(2)
H47 H 0.7580 0.4554 0.0801
H48 H 0.8182 0.3567 0.0845
O14 O 0.75952(19) 0.0792(3) 0.7314(2)
H49 H 0.7306 0.0413 0.7609
H50 H 0.7797 0.1566 0.7609
loop_
_geom_bond_atom_site_label_1
_geom_bond_atom_site_label_2
_geom_bond_site_symmetry_1
_geom_bond_site_symmetry_2
N1 H1 1_555 1_555
H2 N1 1_555 1_555
H3 N1 1_555 1_555
C1 N1 1_555 1_555
H4 C1 1_555 1_555
H5 C1 1_555 1_555
C2 C1 1_555 1_555
C3 C2 1_555 1_555
H6 C3 1_555 1_555
C4 C3 1_555 1_555
H7 C4 1_555 1_555
C5 C4 1_555 1_555
H8 C5 1_555 1_555
C6 C5 1_555 1_555
H9 C6 1_555 1_555
C7 C2 1_555 1_555
H10 C7 1_555 1_555
N2 H11 1_555 1_555
H12 N2 1_555 1_555
H13 N2 1_555 1_555
C8 N2 1_555 1_555
H14 C8 1_555 1_555
H15 C8 1_555 1_555
C9 C8 1_555 1_555
C10 C9 1_555 1_555
H16 C10 1_555 1_555
C11 C10 1_555 1_555
H17 C11 1_555 1_555
C12 C11 1_555 1_555
H18 C12 1_555 1_555
C13 C12 1_555 1_555
H19 C13 1_555 1_555
C14 C9 1_555 1_555
H20 C14 1_555 1_555
N3 H21 1_555 1_555
H22 N3 1_555 1_555
H23 N3 1_555 1_555
C15 N3 1_555 1_555
H24 C15 1_555 1_555
H25 C15 1_555 1_555
C16 C15 1_555 1_555
C17 C16 1_555 1_555
H26 C17 1_555 1_555
C18 C17 1_555 1_555
H27 C18 1_555 1_555
C19 C18 1_555 1_555
H28 C19 1_555 1_555
C20 C19 1_555 1_555
H29 C20 1_555 1_555
C21 C16 1_555 1_555
H30 C21 1_555 1_555
N4 H31 1_555 1_555
H32 N4 1_555 1_555
H33 N4 1_555 1_555
C22 N4 1_555 1_555
H34 C22 1_555 1_555
H35 C22 1_555 1_555
C23 C22 1_555 1_555
C24 C23 1_555 1_555
H36 C24 1_555 1_555
C25 C24 1_555 1_555
H37 C25 1_555 1_555
C26 C25 1_555 1_555
H38 C26 1_555 1_555
C27 C26 1_555 1_555
H39 C27 1_555 1_555
C28 C23 1_555 1_555
H40 C28 1_555 1_555
N5 O5 1_555 1_555
O1 C29 1_555 1_555
O2 C29 1_555 1_555
O3 C30 1_555 1_555
O4 C30 1_555 1_555
O6 N5 1_555 1_555
C29 C31 1_555 1_555
C30 C32 1_555 1_555
C31 C32 1_555 1_555
C32 C33 1_555 1_555
C33 H41 1_555 1_555
C34 N5 1_555 1_555
C35 C34 1_555 1_555
H42 C35 1_555 1_555
C36 C31 1_555 1_555
H43 C36 1_555 1_555
N6 O11 1_555 1_555
O7 C37 1_555 1_555
O8 C37 1_555 1_555
O9 C38 1_555 1_555
O10 C38 1_555 1_555
O12 N6 1_555 1_555
C37 C39 1_555 1_555
C38 C40 1_555 1_555
C39 C40 1_555 1_555
C40 C41 1_555 1_555
C41 H44 1_555 1_555
C42 N6 1_555 1_555
C43 C42 1_555 1_555
H45 C43 1_555 1_555
C44 C39 1_555 1_555
H46 C44 1_555 1_555
O13 H47 1_555 1_555
H48 O13 1_555 1_555
O14 H49 1_555 1_555
H50 O14 1_555 1_555
C6 C7 1_555 1_555
C13 C14 1_555 1_555
C20 C21 1_555 1_555
C27 C28 1_555 1_555
C33 C34 1_555 1_555
C35 C36 1_555 1_555
C41 C42 1_555 1_555
C43 C44 1_555 1_555

#END
