
#######################################################################
#
#                 Cambridge Crystallographic Data Centre
#                                CCDC 
#
#######################################################################
#
# If this CIF has been generated from an entry in the Cambridge 
# Structural Database, then it will include bibliographic, chemical, 
# crystal, experimental, refinement or atomic coordinate data resulting 
# from the CCDC's data processing and validation procedures.
#
#######################################################################

data_UGUNER
_chemical_formula_moiety         
'C12 H24 O6,C8 H14 N2 2+,C2 H8 N1 1+,3(Cl1 O4 1-)'
_chemical_name_systematic        
'N,N-dimethylbenzene-1,4-diaminium dimethylammonium 18-crown-6 triperchlorate'
_symmetry_cell_setting           monoclinic
_symmetry_space_group_name_H-M   'P 21/c'
_symmetry_Int_Tables_number      14
_space_group_name_Hall           '-P 2ybc'
loop_
_symmetry_equiv_pos_site_id
_symmetry_equiv_pos_as_xyz
1 x,y,z
2 -x,1/2+y,1/2-z
3 -x,-y,-z
4 x,1/2-y,1/2+z
_cell_length_a                   13.873(6)
_cell_length_b                   13.705(6)
_cell_length_c                   22.129(7)
_cell_angle_alpha                90
_cell_angle_beta                 126.950(17)
_cell_angle_gamma                90
_cell_volume                     3362.37
_cell_formula_units_Z            4
loop_
_atom_site_label
_atom_site_type_symbol
_atom_site_fract_x
_atom_site_fract_y
_atom_site_fract_z
O1 O 0.44016(14) -0.82230(11) -0.19973(9)
O2 O 0.56868(13) -0.83093(10) -0.04357(8)
O3 O 0.68923(14) -1.00159(10) 0.04100(9)
O4 O 0.58228(13) -1.17723(10) -0.04042(8)
O5 O 0.44156(14) -1.18797(11) -0.19783(9)
O6 O 0.34515(14) -1.00809(10) -0.27269(9)
C1 C 0.4295(2) -0.74628(16) -0.15974(13)
H1 H 0.3622 -0.7609 -0.1572
H2 H 0.4122 -0.6835 -0.1866
C2 C 0.5453(2) -0.73898(15) -0.08145(13)
H3 H 0.6123 -0.7227 -0.0840
H4 H 0.5392 -0.6866 -0.0531
C3 C 0.6724(2) -0.82716(15) 0.03433(12)
H5 H 0.6681 -0.7686 0.0588
H6 H 0.7468 -0.8230 0.0377
C4 C 0.6757(2) -0.91779(16) 0.07409(12)
H7 H 0.7440 -0.9141 0.1286
H8 H 0.6000 -0.9232 0.0691
C5 C 0.6928(2) -1.09040(16) 0.07680(12)
H9 H 0.6214 -1.0940 0.0767
H10 H 0.7660 -1.0915 0.1300
C6 C 0.6937(2) -1.17651(16) 0.03485(13)
H11 H 0.7627 -1.1714 0.0327
H12 H 0.7021 -1.2378 0.0613
C7 C 0.5625(2) -1.26832(15) -0.07859(13)
H13 H 0.5647 -1.3228 -0.0484
H14 H 0.6268 -1.2791 -0.0847
C8 C 0.4423(2) -1.26497(16) -0.15432(13)
H15 H 0.4262 -1.3279 -0.1808
H16 H 0.3782 -1.2540 -0.1481
C9 C 0.3296(2) -1.18104(16) -0.27144(13)
H17 H 0.2628 -1.1722 -0.2674
H18 H 0.3147 -1.2417 -0.3002
C10 C 0.3351(2) -1.09540(16) -0.31165(13)
H19 H 0.4056 -1.1017 -0.3123
H20 H 0.2612 -1.0930 -0.3646
C11 C 0.3439(2) -0.92226(16) -0.31007(13)
H21 H 0.2755 -0.9251 -0.3645
H22 H 0.4196 -0.9180 -0.3051
C12 C 0.3317(2) -0.83440(16) -0.27471(13)
H23 H 0.3169 -0.7756 -0.3052
H24 H 0.2624 -0.8430 -0.2731
N1 N 0.55339(16) -1.00345(12) -0.12177(10)
H25 H 0.5445 -0.9455 -0.1076
H26 H 0.5712 -1.0480 -0.0872
H27 H 0.4852 -1.0200 -0.1660
N2 N 0.93756(16) -0.98916(12) -0.14608(10)
H28 H 0.9244 -1.0365 -0.1791
C13 C 0.65143(19) -0.99842(14) -0.12938(12)
C14 C 0.6758(2) -1.07943(16) -0.15577(14)
H29 H 0.6297 -1.1374 -0.1687
C15 C 0.7681(2) -1.07482(16) -0.16310(14)
H30 H 0.7861 -1.1294 -0.1812
C16 C 0.83322(18) -0.98977(14) -0.14364(12)
C17 C 0.80960(19) -0.90926(15) -0.11736(12)
H31 H 0.8558 -0.8514 -0.1045
C18 C 0.71765(19) -0.91366(15) -0.10984(12)
H32 H 0.7003 -0.8590 -0.0914
C19 C 1.0496(2) -1.01682(17) -0.06968(13)
H33 H 1.0397 -1.0822 -0.0562
H34 H 1.0634 -0.9697 -0.0319
H35 H 1.1188 -1.0165 -0.0711
C20 C 0.9549(2) -0.89480(16) -0.17312(14)
H36 H 0.8792 -0.8764 -0.2214
H37 H 1.0181 -0.9030 -0.1799
H38 H 0.9787 -0.8435 -0.1357
Cl1 Cl 1.00727(5) -0.30122(4) -0.00015(3)
O7 O 0.94541(16) -0.38369(13) -0.04888(11)
O8 O 1.11328(17) -0.28087(13) 0.00299(11)
O9 O 1.04570(17) -0.32221(13) 0.07506(10)
O10 O 0.93011(17) -0.21745(14) -0.02826(12)
Cl2 Cl 0.34503(5) -0.50838(4) -0.12218(3)
O11 O 0.2376(2) -0.53051(18) -0.19533(12)
O12 O 0.32918(17) -0.41727(12) -0.09638(12)
O13 O 0.4447(2) -0.50053(12) -0.12568(14)
O14 O 0.36713(17) -0.58520(12) -0.07163(10)
Cl3 Cl -0.00700(5) -0.21418(4) -0.22050(3)
O15 O 0.10187(15) -0.27036(12) -0.18521(10)
O16 O -0.08394(18) -0.23312(16) -0.29984(11)
O17 O -0.0655(2) -0.23841(16) -0.18673(16)
O18 O 0.02317(15) -0.11174(12) -0.20750(10)
C21 C 0.0104(3) -0.4847(2) -0.15566(18)
H39 H -0.0358 -0.4404 -0.1990
H40 H -0.0397 -0.5052 -0.1404
H41 H 0.0349 -0.5421 -0.1698
N3 N 0.11861(19) -0.43394(16) -0.09217(12)
H42 H 0.0950 -0.3796 -0.0798
H43 H 0.1640 -0.4133 -0.1074
C22 C 0.1945(3) -0.4960(2) -0.02404(18)
H44 H 0.2649 -0.4587 0.0161
H45 H 0.2215 -0.5535 -0.0365
H46 H 0.1474 -0.5170 -0.0066
loop_
_geom_bond_atom_site_label_1
_geom_bond_atom_site_label_2
_geom_bond_site_symmetry_1
_geom_bond_site_symmetry_2
O1 C1 1_555 1_555
O2 C2 1_555 1_555
O3 C4 1_555 1_555
O4 C6 1_555 1_555
O5 C8 1_555 1_555
O6 C10 1_555 1_555
C1 H1 1_555 1_555
H2 C1 1_555 1_555
C2 C1 1_555 1_555
H3 C2 1_555 1_555
H4 C2 1_555 1_555
C3 O2 1_555 1_555
H5 C3 1_555 1_555
H6 C3 1_555 1_555
C4 C3 1_555 1_555
H7 C4 1_555 1_555
H8 C4 1_555 1_555
C5 O3 1_555 1_555
H9 C5 1_555 1_555
H10 C5 1_555 1_555
C6 C5 1_555 1_555
H11 C6 1_555 1_555
H12 C6 1_555 1_555
C7 O4 1_555 1_555
H13 C7 1_555 1_555
H14 C7 1_555 1_555
C8 C7 1_555 1_555
H15 C8 1_555 1_555
H16 C8 1_555 1_555
C9 O5 1_555 1_555
H17 C9 1_555 1_555
H18 C9 1_555 1_555
C10 C9 1_555 1_555
H19 C10 1_555 1_555
H20 C10 1_555 1_555
C11 O6 1_555 1_555
H21 C11 1_555 1_555
H22 C11 1_555 1_555
C12 O1 1_555 1_555
H23 C12 1_555 1_555
H24 C12 1_555 1_555
N1 H25 1_555 1_555
H26 N1 1_555 1_555
H27 N1 1_555 1_555
N2 H28 1_555 1_555
C13 N1 1_555 1_555
C14 C13 1_555 1_555
H29 C14 1_555 1_555
C15 C14 1_555 1_555
H30 C15 1_555 1_555
C16 N2 1_555 1_555
C17 C16 1_555 1_555
H31 C17 1_555 1_555
C18 C13 1_555 1_555
H32 C18 1_555 1_555
C19 N2 1_555 1_555
H33 C19 1_555 1_555
H34 C19 1_555 1_555
H35 C19 1_555 1_555
C20 N2 1_555 1_555
H36 C20 1_555 1_555
H37 C20 1_555 1_555
H38 C20 1_555 1_555
Cl1 O7 1_555 1_555
O8 Cl1 1_555 1_555
O9 Cl1 1_555 1_555
O10 Cl1 1_555 1_555
Cl2 O11 1_555 1_555
O12 Cl2 1_555 1_555
O13 Cl2 1_555 1_555
O14 Cl2 1_555 1_555
Cl3 O15 1_555 1_555
O16 Cl3 1_555 1_555
O17 Cl3 1_555 1_555
O18 Cl3 1_555 1_555
C21 H39 1_555 1_555
H40 C21 1_555 1_555
H41 C21 1_555 1_555
N3 C21 1_555 1_555
H42 N3 1_555 1_555
H43 N3 1_555 1_555
C22 N3 1_555 1_555
H44 C22 1_555 1_555
H45 C22 1_555 1_555
H46 C22 1_555 1_555
C11 C12 1_555 1_555
C15 C16 1_555 1_555
C17 C18 1_555 1_555

#END
