
#######################################################################
#
#                 Cambridge Crystallographic Data Centre
#                                CCDC 
#
#######################################################################
#
# If this CIF has been generated from an entry in the Cambridge 
# Structural Database, then it will include bibliographic, chemical, 
# crystal, experimental, refinement or atomic coordinate data resulting 
# from the CCDC's data processing and validation procedures.
#
#######################################################################

data_UHAHIU
_chemical_formula_moiety         'C16 H12 Cl2 N6 O1'
_chemical_name_systematic        
1-(1',3'-Dimethyl-5'-chloropyrazol-4'-carbonyl)-3-(2'-chlorophenyl)-5-amino-4-cyanopyrazole
_symmetry_cell_setting           triclinic
_symmetry_space_group_name_H-M   'P -1'
_symmetry_Int_Tables_number      2
_space_group_name_Hall           '-P 1'
loop_
_symmetry_equiv_pos_site_id
_symmetry_equiv_pos_as_xyz
1 x,y,z
2 -x,-y,-z
_cell_length_a                   8.6712(8)
_cell_length_b                   9.5091(10)
_cell_length_c                   11.2170(11)
_cell_angle_alpha                71.531(2)
_cell_angle_beta                 84.683(2)
_cell_angle_gamma                74.099(2)
_cell_volume                     843.68
_exptl_crystal_colour            colorless
_chemical_melting_point          196-198deg.C
_cell_formula_units_Z            2
_exptl_crystal_recrystallization_method 'ethyl acetate'
loop_
_atom_site_label
_atom_site_type_symbol
_atom_site_fract_x
_atom_site_fract_y
_atom_site_fract_z
Cl1 Cl 0.44393(9) 0.43890(9) 0.19367(7)
Cl2 Cl -0.02182(11) 0.81942(10) 0.57652(9)
N1 N 0.2468(3) 0.6975(2) 0.29543(19)
N2 N 0.3177(2) 0.8096(2) 0.21796(18)
N3 N 0.2416(3) 0.5228(3) 0.0075(2)
N4 N 0.1522(3) 0.6441(3) -0.0819(2)
N5 N 0.4409(3) 1.0000(3) 0.2328(2)
H1 H 0.4596 1.0263 0.1532
H2 H 0.4695 1.0457 0.2788
N6 N 0.3946(3) 0.8885(3) 0.5989(2)
O1 O 0.3530(3) 0.9534(2) 0.01911(17)
C1 C 0.0789(3) 0.6296(3) 0.5979(3)
C2 C 0.0314(4) 0.5174(4) 0.6938(3)
H3 H -0.0504 0.5448 0.7484
C3 C 0.1040(4) 0.3663(4) 0.7091(3)
H4 H 0.0717 0.2909 0.7742
C4 C 0.2249(4) 0.3251(4) 0.6286(3)
H5 H 0.2736 0.2220 0.6385
C5 C 0.2732(4) 0.4367(3) 0.5336(3)
H6 H 0.3555 0.4084 0.4798
C6 C 0.2007(3) 0.5922(3) 0.5163(2)
C7 C 0.2545(3) 0.7064(3) 0.4088(2)
C8 C 0.3269(3) 0.8241(3) 0.4088(2)
C9 C 0.3677(3) 0.8888(3) 0.2849(2)
C10 C 0.3197(3) 0.8383(3) 0.0873(2)
C11 C 0.2742(3) 0.7278(3) 0.0412(2)
C12 C 0.3148(3) 0.5691(3) 0.0818(2)
C13 C 0.1741(3) 0.7679(3) -0.0633(2)
C14 C 0.0937(4) 0.9232(3) -0.1459(3)
H7 H 0.0334 0.9134 -0.2091
H8 H 0.1732 0.9766 -0.1856
H9 H 0.0228 0.9799 -0.0964
C15 C 0.2507(4) 0.3673(4) 0.0086(4)
H10 H 0.3174 0.2952 0.0767
H11 H 0.2956 0.3529 -0.0695
H12 H 0.1450 0.3513 0.0192
C16 C 0.3633(3) 0.8605(3) 0.5144(2)
loop_
_geom_bond_atom_site_label_1
_geom_bond_atom_site_label_2
_geom_bond_site_symmetry_1
_geom_bond_site_symmetry_2
Cl1 C12 1_555 1_555
Cl2 C1 1_555 1_555
N1 N2 1_555 1_555
N2 C9 1_555 1_555
N3 N4 1_555 1_555
N4 C13 1_555 1_555
N5 H1 1_555 1_555
H2 N5 1_555 1_555
N6 C16 1_555 1_555
O1 C10 1_555 1_555
C1 C2 1_555 1_555
C2 H3 1_555 1_555
C3 C2 1_555 1_555
H4 C3 1_555 1_555
C4 C3 1_555 1_555
H5 C4 1_555 1_555
C5 C4 1_555 1_555
H6 C5 1_555 1_555
C6 C1 1_555 1_555
C7 N1 1_555 1_555
C8 C7 1_555 1_555
C9 N5 1_555 1_555
C10 N2 1_555 1_555
C11 C10 1_555 1_555
C12 N3 1_555 1_555
C13 C11 1_555 1_555
C14 C13 1_555 1_555
H7 C14 1_555 1_555
H8 C14 1_555 1_555
H9 C14 1_555 1_555
C15 N3 1_555 1_555
H10 C15 1_555 1_555
H11 C15 1_555 1_555
H12 C15 1_555 1_555
C16 C8 1_555 1_555
C5 C6 1_555 1_555
C6 C7 1_555 1_555
C8 C9 1_555 1_555
C11 C12 1_555 1_555

#END
