
#######################################################################
#
#                 Cambridge Crystallographic Data Centre
#                                CCDC 
#
#######################################################################
#
# If this CIF has been generated from an entry in the Cambridge 
# Structural Database, then it will include bibliographic, chemical, 
# crystal, experimental, refinement or atomic coordinate data resulting 
# from the CCDC's data processing and validation procedures.
#
#######################################################################

data_UHALAQ01
_chemical_formula_moiety         'C6 H16 N1 1+,C5 H10 O2 P1 S2 1-'
_chemical_name_systematic        
'N,N-Diethylethanaminium 5,5-dimethyl-1,3,2-dioxaphosphinane-2-thiolate 2-sulfide'
_symmetry_cell_setting           orthorhombic
_symmetry_space_group_name_H-M   'P b c a'
_symmetry_Int_Tables_number      61
_space_group_name_Hall           '-P 2ac 2ab'
loop_
_symmetry_equiv_pos_site_id
_symmetry_equiv_pos_as_xyz
1 x,y,z
2 1/2-x,-y,1/2+z
3 1/2+x,1/2-y,-z
4 -x,1/2+y,1/2-z
5 -x,-y,-z
6 1/2+x,y,1/2-z
7 1/2-x,1/2+y,z
8 x,1/2-y,1/2+z
_cell_length_a                   13.208(5)
_cell_length_b                   12.343(5)
_cell_length_c                   19.933(5)
_cell_angle_alpha                90
_cell_angle_beta                 90
_cell_angle_gamma                90
_cell_volume                     3249.6
_cell_formula_units_Z            8
_exptl_crystal_recrystallization_method n-hexane/toluene
loop_
_atom_site_label
_atom_site_type_symbol
_atom_site_fract_x
_atom_site_fract_y
_atom_site_fract_z
P1 P 0.03380(8) 0.22500(8) 0.63410(5)
S1 S -0.08884(9) 0.14294(11) 0.65508(6)
S2 S 0.07299(9) 0.24823(9) 0.54001(5)
O1 O 0.0322(2) 0.3420(2) 0.66965(13)
O2 O 0.1311(2) 0.1708(2) 0.66988(12)
C7 C 0.0333(3) 0.3420(3) 0.7424(2)
H17 H -0.0260(3) 0.3042(3) 0.7589(2)
H18 H 0.0304(3) 0.4161(3) 0.7585(2)
C8 C 0.1278(3) 0.2878(3) 0.7695(2)
C9 C 0.1332(3) 0.1726(3) 0.7427(2)
H19 H 0.1951(3) 0.1386(3) 0.7583(2)
H20 H 0.0765(3) 0.1312(3) 0.7599(2)
C10 C 0.1195(4) 0.2828(4) 0.8460(2)
H21 H 0.1788(4) 0.2486(4) 0.8641(2)
H22 H 0.0606(4) 0.2418(4) 0.8583(2)
H23 H 0.1139(4) 0.3550(4) 0.8637(2)
C11 C 0.2217(3) 0.3514(4) 0.7499(2)
H24 H 0.2807(3) 0.3159(4) 0.7675(2)
H25 H 0.2174(3) 0.4233(4) 0.7680(2)
H26 H 0.2264(3) 0.3551(4) 0.7019(2)
N1 N 0.2437(3) 0.0506(3) 0.5344(2)
H1 H 0.2014(3) 0.1042(3) 0.5486(2)
C1 C 0.3593(5) 0.0156(5) 0.4361(3)
H2 H 0.3909(5) 0.0508(5) 0.3986(3)
H3 H 0.3166(5) -0.0419(5) 0.4202(3)
H4 H 0.4105(5) -0.0138(5) 0.4651(3)
C2 C 0.2976(4) 0.0950(4) 0.4737(2)
H5 H 0.2475(4) 0.1253(4) 0.4435(2)
H6 H 0.3413(4) 0.1537(4) 0.4880(2)
C3 C 0.3737(4) 0.1184(4) 0.6161(3)
H7 H 0.4151(4) 0.0946(4) 0.6529(3)
H8 H 0.3305(4) 0.1762(4) 0.6308(3)
H9 H 0.4162(4) 0.1436(4) 0.5803(3)
C4 C 0.3105(3) 0.0261(4) 0.5919(2)
H10 H 0.3552(3) -0.0329(4) 0.5792(2)
H11 H 0.2689(3) 0.0008(4) 0.6288(2)
C5 C 0.1039(4) -0.0732(4) 0.5696(3)
H12 H 0.0644(4) -0.1339(4) 0.5547(3)
H13 H 0.0599(4) -0.0131(4) 0.5788(3)
H14 H 0.1400(4) -0.0925(4) 0.6096(3)
C6 C 0.1772(3) -0.0424(4) 0.5163(2)
H15 H 0.1400(3) -0.0242(4) 0.4759(2)
H16 H 0.2195(3) -0.1046(4) 0.5062(2)
loop_
_geom_bond_atom_site_label_1
_geom_bond_atom_site_label_2
_geom_bond_site_symmetry_1
_geom_bond_site_symmetry_2
P1 S1 1_555 1_555
S2 P1 1_555 1_555
N1 H1 1_555 1_555
O1 P1 1_555 1_555
O2 P1 1_555 1_555
C1 H2 1_555 1_555
H3 C1 1_555 1_555
H4 C1 1_555 1_555
C2 N1 1_555 1_555
H5 C2 1_555 1_555
H6 C2 1_555 1_555
C3 H7 1_555 1_555
H8 C3 1_555 1_555
H9 C3 1_555 1_555
C4 N1 1_555 1_555
H10 C4 1_555 1_555
H11 C4 1_555 1_555
C5 H12 1_555 1_555
H13 C5 1_555 1_555
H14 C5 1_555 1_555
C6 N1 1_555 1_555
H15 C6 1_555 1_555
H16 C6 1_555 1_555
C7 O1 1_555 1_555
H17 C7 1_555 1_555
H18 C7 1_555 1_555
C8 C7 1_555 1_555
C9 O2 1_555 1_555
H19 C9 1_555 1_555
H20 C9 1_555 1_555
C10 C8 1_555 1_555
H21 C10 1_555 1_555
H22 C10 1_555 1_555
H23 C10 1_555 1_555
C11 C8 1_555 1_555
H24 C11 1_555 1_555
H25 C11 1_555 1_555
H26 C11 1_555 1_555
C1 C2 1_555 1_555
C3 C4 1_555 1_555
C5 C6 1_555 1_555
C8 C9 1_555 1_555

#END
