
#######################################################################
#
#                 Cambridge Crystallographic Data Centre
#                                CCDC 
#
#######################################################################
#
# If this CIF has been generated from an entry in the Cambridge 
# Structural Database, then it will include bibliographic, chemical, 
# crystal, experimental, refinement or atomic coordinate data resulting 
# from the CCDC's data processing and validation procedures.
#
#######################################################################

data_UHANUN
_chemical_formula_moiety         'C30 H33 N3 O3,C6 H14'
_chemical_name_systematic        
'1,3,5-tris(4-Isopropylphenyl)-1,3,5-triazinane-2,4,6-trione hexane solvate'
_symmetry_cell_setting           triclinic
_symmetry_space_group_name_H-M   'P -1'
_symmetry_Int_Tables_number      2
_space_group_name_Hall           '-P 1'
loop_
_symmetry_equiv_pos_site_id
_symmetry_equiv_pos_as_xyz
1 x,y,z
2 -x,-y,-z
_cell_length_a                   11.5136(10)
_cell_length_b                   11.5146(10)
_cell_length_c                   11.5136(10)
_cell_angle_alpha                95.2830(10)
_cell_angle_beta                 95.2780(10)
_cell_angle_gamma                95.2710(10)
_cell_volume                     1505.71
_cell_formula_units_Z            2
loop_
_atom_site_label
_atom_site_type_symbol
_atom_site_fract_x
_atom_site_fract_y
_atom_site_fract_z
C1 C 0.7501(2) 0.4148(2) 0.0850(2)
C2 C 0.8467(3) 0.4944(3) 0.0834(3)
H1 H 0.9119 0.4946 0.1375
C3 C 0.6532(3) 0.4170(3) 0.0058(3)
H2 H 0.5877 0.3634 0.0061
C4 C 0.6542(3) 0.4993(3) -0.0738(3)
H3 H 0.5880 0.5013 -0.1261
C5 C 0.7499(4) 0.5783(3) -0.0784(3)
C6 C 0.8457(3) 0.5738(3) 0.0006(3)
H4 H 0.9120 0.6259 -0.0017
C7 C 0.7483(7) 0.6683(4) -0.1678(4)
H5 H 0.6637 0.6706 -0.1656
C8 C 0.7310(7) 0.6218(5) -0.2848(4)
H6 H 0.7283 0.6844 -0.3342
H7 H 0.6583 0.5722 -0.2983
H8 H 0.7944 0.5767 -0.3025
N1 N 0.82982(19) 0.1706(2) 0.25022(19)
N2 N 0.74997(19) 0.3297(2) 0.17046(19)
N3 N 0.6704(2) 0.25000(19) 0.3298(2)
C9 C 0.8331(2) 0.2500(2) 0.1668(2)
C10 C 0.7501(2) 0.1668(2) 0.3333(2)
C11 C 0.6666(2) 0.3332(2) 0.2496(2)
O1 O 0.5957(2) 0.4039(2) 0.2500(2)
O2 O 0.7501(2) 0.0960(2) 0.4041(2)
O3 O 0.9042(2) 0.2501(2) 0.0961(2)
C12 C 0.9150(2) 0.0850(2) 0.2500(2)
C13 C 0.9939(3) 0.0829(3) 0.3467(3)
H9 H 0.9933 0.1364 0.4122
C14 C 0.9169(3) 0.0059(3) 0.1536(3)
H10 H 0.8631 0.0061 0.0883
C15 C 1.0783(3) -0.0785(3) 0.2500(4)
C16 C 0.9992(3) -0.0740(3) 0.1542(4)
H11 H 1.0011 -0.1262 0.0879
C17 C 1.0744(3) 0.0007(3) 0.3459(3)
H12 H 1.1271 -0.0009 0.4119
C18 C 0.5851(2) 0.2500(2) 0.4151(2)
C19 C 0.5059(3) 0.1531(3) 0.4170(3)
H13 H 0.5065 0.0877 0.3634
C20 C 0.5830(3) 0.3466(3) 0.4939(3)
H14 H 0.6365 0.4121 0.4934
C21 C 0.4259(3) 0.1539(3) 0.4988(3)
H15 H 0.3734 0.0879 0.5005
C22 C 0.5008(3) 0.3456(4) 0.5740(3)
H16 H 0.4991 0.4116 0.6266
C23 C 0.4217(3) 0.2500(4) 0.5783(3)
C24 C 1.1220(5) -0.2841(4) 0.2316(7)
H17 H 1.1842 -0.3333 0.2227
H18 H 1.0675 -0.2963 0.1623
H19 H 1.0822 -0.3034 0.2981
C25 C 1.2841(4) -0.1221(5) 0.2687(7)
H20 H 1.3319 -0.1823 0.2906
H21 H 1.2924 -0.0595 0.3309
H22 H 1.3087 -0.0926 0.1987
C26 C 1.1679(4) -0.1684(4) 0.2486(7)
H23 H 1.1702 -0.1664 0.1639
C27 C 0.3777(5) 0.2687(7) 0.7842(4)
H24 H 0.3150 0.2623 0.8335
H25 H 0.4197 0.3454 0.8000
H26 H 0.4301 0.2106 0.7999
C28 C 0.2154(4) 0.2315(7) 0.6220(5)
H27 H 0.1660 0.2351 0.6848
H28 H 0.2015 0.1555 0.5785
H29 H 0.1979 0.2904 0.5709
C29 C 0.3321(4) 0.2513(7) 0.6679(4)
H30 H 0.3299 0.3359 0.6657
C30 C 0.7688(7) 0.7849(4) -0.1213(5)
H31 H 0.7671 0.8345 -0.1839
H32 H 0.8442 0.7977 -0.0766
H33 H 0.7092 0.8029 -0.0713
C31? C 0.533(2) 0.0891(13) -0.003(2)
H34? H 0.5734 0.1510 -0.0405
H35? H 0.4695 0.1216 0.0347
C32? C 0.988(2) 0.487(2) 0.4055(12)
H36? H 0.9692 0.5172 0.3310
H37? H 1.0450 0.4310 0.3944
C33? C 0.961(2) 0.4162(16) 0.5075(16)
H38? H 1.0238 0.3752 0.4788
H39? H 0.9130 0.3615 0.5472
C34? C 0.517(2) 0.008(2) 0.0946(13)
H40? H 0.4578 0.0610 0.1094
H41? H 0.5399 -0.0240 0.1672
C35? C 0.9066(9) 0.4400(18) 0.4321(15)
H42? H 0.8476 0.4912 0.4524
H43? H 0.8730 0.3737 0.3774
C36? C 0.5950(9) 0.0573(17) 0.0639(16)
H44? H 0.6346 0.1187 0.1212
H45? H 0.6502 0.0077 0.0316
loop_
_geom_bond_atom_site_label_1
_geom_bond_atom_site_label_2
_geom_bond_site_symmetry_1
_geom_bond_site_symmetry_2
C1 C2 1_555 1_555
C2 H1 1_555 1_555
C3 C1 1_555 1_555
H2 C3 1_555 1_555
C4 C3 1_555 1_555
H3 C4 1_555 1_555
C5 C4 1_555 1_555
C6 C2 1_555 1_555
H4 C6 1_555 1_555
C7 C5 1_555 1_555
H5 C7 1_555 1_555
C8 C7 1_555 1_555
H6 C8 1_555 1_555
H7 C8 1_555 1_555
H8 C8 1_555 1_555
N1 C9 1_555 1_555
N2 C1 1_555 1_555
N3 C10 1_555 1_555
C9 N2 1_555 1_555
C10 N1 1_555 1_555
C11 N2 1_555 1_555
O1 C11 1_555 1_555
O2 C10 1_555 1_555
O3 C9 1_555 1_555
C12 N1 1_555 1_555
C13 C12 1_555 1_555
H9 C13 1_555 1_555
C14 C12 1_555 1_555
H10 C14 1_555 1_555
C15 C16 1_555 1_555
C16 C14 1_555 1_555
H11 C16 1_555 1_555
C17 C13 1_555 1_555
H12 C17 1_555 1_555
C18 N3 1_555 1_555
C19 C18 1_555 1_555
H13 C19 1_555 1_555
C20 C18 1_555 1_555
H14 C20 1_555 1_555
C21 C19 1_555 1_555
H15 C21 1_555 1_555
C22 C20 1_555 1_555
H16 C22 1_555 1_555
C23 C21 1_555 1_555
C24 H17 1_555 1_555
H18 C24 1_555 1_555
H19 C24 1_555 1_555
C25 H20 1_555 1_555
H21 C25 1_555 1_555
H22 C25 1_555 1_555
C26 C15 1_555 1_555
H23 C26 1_555 1_555
C27 H24 1_555 1_555
H25 C27 1_555 1_555
H26 C27 1_555 1_555
C28 H27 1_555 1_555
H28 C28 1_555 1_555
H29 C28 1_555 1_555
C29 C23 1_555 1_555
H30 C29 1_555 1_555
C30 C7 1_555 1_555
H31 C30 1_555 1_555
H32 C30 1_555 1_555
H33 C30 1_555 1_555
C5 C6 1_555 1_555
N3 C11 1_555 1_555
C15 C17 1_555 1_555
C22 C23 1_555 1_555
C24 C26 1_555 1_555
C25 C26 1_555 1_555
C27 C29 1_555 1_555
C28 C29 1_555 1_555

#END
