
#######################################################################
#
#                 Cambridge Crystallographic Data Centre
#                                CCDC 
#
#######################################################################
#
# If this CIF has been generated from an entry in the Cambridge 
# Structural Database, then it will include bibliographic, chemical, 
# crystal, experimental, refinement or atomic coordinate data resulting 
# from the CCDC's data processing and validation procedures.
#
#######################################################################

data_UHAWIL
_chemical_formula_moiety         'C9 H10 O3,C6 H4 Cl1 N3 O4'
_chemical_name_systematic        
'3-ethoxy-4-hydroxybenzaldehyde 2-chloro-4,6-dinitroaniline'
_symmetry_cell_setting           triclinic
_symmetry_space_group_name_H-M   'P -1'
_symmetry_Int_Tables_number      2
_space_group_name_Hall           '-P 1'
loop_
_symmetry_equiv_pos_site_id
_symmetry_equiv_pos_as_xyz
1 x,y,z
2 -x,-y,-z
_cell_length_a                   10.84(2)
_cell_length_b                   13.109(13)
_cell_length_c                   13.594(14)
_cell_angle_alpha                116.230(13)
_cell_angle_beta                 103.76(2)
_cell_angle_gamma                94.61(3)
_cell_volume                     1644.49
_exptl_crystal_colour            yellow
_exptl_crystal_description       block
_chemical_melting_point          '387.68 K'
_cell_formula_units_Z            4
loop_
_atom_site_label
_atom_site_type_symbol
_atom_site_fract_x
_atom_site_fract_y
_atom_site_fract_z
Cl1 Cl 0.30201(3) 1.14435(3) 0.44809(3)
C1 C 0.06736(13) 0.87747(12) 0.42768(11)
C2 C -0.04333(13) 0.85728(12) 0.33930(11)
H1 H -0.1141 0.7976 0.3150
C3 C 0.17941(13) 0.96723(12) 0.46793(11)
C4 C -0.04513(13) 0.92823(12) 0.28885(11)
C5 C 0.06130(14) 1.01693(12) 0.32174(11)
H2 H 0.0582 1.0629 0.2855
C6 C 0.16964(13) 1.03488(12) 0.40778(12)
O1 O -0.16178(12) 0.97426(11) 0.15433(10)
O2 O -0.03057(11) 0.71554(10) 0.43171(10)
O3 O 0.15309(11) 0.81938(11) 0.56254(10)
O4 O -0.25423(11) 0.83217(12) 0.17087(11)
N1 N 0.06358(12) 0.79914(11) 0.47769(10)
N2 N -0.16183(12) 0.90994(11) 0.19836(10)
N3 N 0.28649(12) 0.99159(11) 0.55317(10)
H3 H 0.2925 0.9517 0.5894
H4 H 0.3498 1.0473 0.5721
Cl2 Cl 0.60631(4) 0.65673(3) 0.21215(3)
C7 C 0.42021(15) 0.38270(13) 0.28019(12)
H5 H 0.3831 0.3263 0.2947
C8 C 0.35451(14) 0.39833(12) 0.18811(12)
C9 C 0.60030(14) 0.53752(13) 0.32929(12)
H6 H 0.6824 0.5832 0.3765
C10 C 0.40729(14) 0.48357(12) 0.16265(11)
C11 C 0.54101(14) 0.45225(13) 0.34931(12)
C12 C 0.53451(14) 0.55178(12) 0.23878(12)
O5 O 0.19724(12) 0.23657(10) 0.13109(11)
O6 O 0.55683(13) 0.35877(11) 0.45981(10)
O7 O 0.16078(13) 0.33880(12) 0.04303(12)
O8 O 0.71809(12) 0.49848(12) 0.50674(10)
N4 N 0.34907(13) 0.50095(11) 0.07515(11)
H7 H 0.2739 0.4590 0.0290
H8 H 0.3866 0.5541 0.0648
N5 N 0.22826(14) 0.31915(11) 0.11539(11)
N6 N 0.60971(14) 0.43502(12) 0.44495(11)
O9 O 0.44455(10) 0.89253(9) 0.32930(9)
H9 H 0.4354 0.9241 0.2885
C13 C 0.12418(13) 0.69616(12) 0.16079(11)
H10 H 0.0529 0.6806 0.0986
C14 C 0.23065(13) 0.78366(12) 0.19549(11)
C15 C 0.33835(13) 0.74113(12) 0.34781(11)
H11 H 0.4095 0.7564 0.4100
C16 C 0.12409(13) 0.63081(12) 0.21973(11)
C17 C 0.33896(13) 0.80636(12) 0.28986(11)
C18 C 0.23089(14) 0.65300(12) 0.31237(12)
H12 H 0.2306 0.6092 0.3506
C19 C 0.12762(13) 0.83638(12) 0.05504(11)
H13 H 0.0513 0.8413 0.0809
H14 H 0.1138 0.7596 -0.0097
C20 C 0.14924(14) 0.92818(13) 0.01890(12)
H15 H 0.1695 1.0040 0.0847
H16 H 0.0719 0.9207 -0.0379
H17 H 0.2201 0.9183 -0.0131
O10 O 0.24113(9) 0.85522(9) 0.14755(8)
O11 O -0.09458(10) 0.52233(10) 0.11718(9)
C21 C 0.01016(14) 0.54261(12) 0.18869(12)
H18 H 0.0177 0.4980 0.2264
C22 C 0.47568(13) 0.14664(12) 0.05965(12)
H19 H 0.3943 0.0972 0.0180
C23 C 0.67409(13) 0.21981(12) 0.22167(11)
H20 H 0.7247 0.2172 0.2858
C24 C 0.64268(13) 0.29900(12) 0.08877(11)
C25 C 0.71887(13) 0.29802(12) 0.18840(11)
C26 C 0.52236(13) 0.22293(12) 0.02467(12)
H21 H 0.4733 0.2231 -0.0414
C27 C 0.55095(13) 0.14429(12) 0.15730(12)
C28 C 0.92117(14) 0.38571(13) 0.34520(12)
H22 H 0.8723 0.3726 0.3912
H23 H 0.9778 0.4623 0.3918
C29 C 0.49566(14) 0.06291(12) 0.18997(12)
H24 H 0.4131 0.0176 0.1439
C30 C 1.00260(15) 0.29419(14) 0.31030(13)
H25 H 0.9470 0.2181 0.2693
H26 H 1.0646 0.3018 0.3780
H27 H 1.0476 0.3049 0.2616
O12 O 0.68232(10) 0.37403(9) 0.05374(9)
H28 H 0.7542 0.4139 0.0973
O13 O 0.54739(11) 0.04855(10) 0.27214(9)
O14 O 0.83247(10) 0.38109(9) 0.24451(8)
loop_
_geom_bond_atom_site_label_1
_geom_bond_atom_site_label_2
_geom_bond_site_symmetry_1
_geom_bond_site_symmetry_2
Cl1 C6 1_555 1_555
C1 C2 1_555 1_555
C2 H1 1_555 1_555
C3 C1 1_555 1_555
C4 C2 1_555 1_555
C5 C4 1_555 1_555
H2 C5 1_555 1_555
C6 C3 1_555 1_555
O1 N2 1_555 1_555
O2 N1 1_555 1_555
O3 N1 1_555 1_555
O4 N2 1_555 1_555
N1 C1 1_555 1_555
N2 C4 1_555 1_555
N3 C3 1_555 1_555
H3 N3 1_555 1_555
H4 N3 1_555 1_555
Cl2 C12 1_555 1_555
C7 H5 1_555 1_555
C8 C7 1_555 1_555
C9 H6 1_555 1_555
C10 C8 1_555 1_555
C11 C7 1_555 1_555
C12 C9 1_555 1_555
O5 N5 1_555 1_555
O6 N6 1_555 1_555
O7 N5 1_555 1_555
O8 N6 1_555 1_555
N4 C10 1_555 1_555
H7 N4 1_555 1_555
H8 N4 1_555 1_555
N5 C8 1_555 1_555
N6 C11 1_555 1_555
O9 H9 1_555 1_555
C13 H10 1_555 1_555
C14 C13 1_555 1_555
C15 H11 1_555 1_555
C16 C13 1_555 1_555
C17 O9 1_555 1_555
C18 C15 1_555 1_555
H12 C18 1_555 1_555
C19 H13 1_555 1_555
H14 C19 1_555 1_555
C20 C19 1_555 1_555
H15 C20 1_555 1_555
H16 C20 1_555 1_555
H17 C20 1_555 1_555
O10 C14 1_555 1_555
O11 C21 1_555 1_555
C21 C16 1_555 1_555
H18 C21 1_555 1_555
C22 H19 1_555 1_555
C23 H20 1_555 1_555
C24 C25 1_555 1_555
C25 C23 1_555 1_555
C26 C22 1_555 1_555
H21 C26 1_555 1_555
C27 C22 1_555 1_555
C28 H22 1_555 1_555
H23 C28 1_555 1_555
C29 C27 1_555 1_555
H24 C29 1_555 1_555
C30 C28 1_555 1_555
H25 C30 1_555 1_555
H26 C30 1_555 1_555
H27 C30 1_555 1_555
O12 C24 1_555 1_555
H28 O12 1_555 1_555
O13 C29 1_555 1_555
O14 C25 1_555 1_555
C5 C6 1_555 1_555
C9 C11 1_555 1_555
C10 C12 1_555 1_555
C14 C17 1_555 1_555
C15 C17 1_555 1_555
C16 C18 1_555 1_555
C19 O10 1_555 1_555
C23 C27 1_555 1_555
C24 C26 1_555 1_555
C28 O14 1_555 1_555

#END
