
#######################################################################
#
#                 Cambridge Crystallographic Data Centre
#                                CCDC 
#
#######################################################################
#
# If this CIF has been generated from an entry in the Cambridge 
# Structural Database, then it will include bibliographic, chemical, 
# crystal, experimental, refinement or atomic coordinate data resulting 
# from the CCDC's data processing and validation procedures.
#
#######################################################################

data_UHOMOU
_chemical_formula_moiety         'C15 H22 B10 O1'
_chemical_name_systematic        
1-(4-Methoxyphenyl)-2-phenyl-1,2-dicarba-closo-dodecaborane
_symmetry_cell_setting           monoclinic
_symmetry_space_group_name_H-M   'P 21/n'
_symmetry_Int_Tables_number      14
_space_group_name_Hall           '-P 2yn'
loop_
_symmetry_equiv_pos_site_id
_symmetry_equiv_pos_as_xyz
1 x,y,z
2 1/2-x,1/2+y,1/2-z
3 -x,-y,-z
4 1/2+x,1/2-y,1/2+z
_cell_length_a                   11.1331(12)
_cell_length_b                   39.613(4)
_cell_length_c                   17.004(2)
_cell_angle_alpha                90
_cell_angle_beta                 98.36(1)
_cell_angle_gamma                90
_cell_volume                     7419.34
_exptl_crystal_colour            colorless
_chemical_melting_point          '374.7 K'
_cell_formula_units_Z            16
loop_
_atom_site_label
_atom_site_type_symbol
_atom_site_fract_x
_atom_site_fract_y
_atom_site_fract_z
O1 O 0.66520(11) 0.58501(3) 0.92717(7)
C1 C 0.56561(14) 0.68942(4) 1.13465(9)
C2 C 0.67463(14) 0.70883(4) 1.20248(9)
B1 B 0.60601(17) 0.73073(5) 1.11996(11)
H1 H 0.6554 0.7387 1.0702
B2 B 0.45254(17) 0.71751(5) 1.10262(12)
H2 H 0.3992 0.7171 1.0415
B3 B 0.43311(17) 0.68619(5) 1.17421(11)
H3 H 0.3668 0.6650 1.1605
B4 B 0.57545(17) 0.68030(5) 1.23487(11)
H4 H 0.6048 0.6551 1.2606
B5 B 0.63434(17) 0.74978(5) 1.21533(11)
H5 H 0.7015 0.7708 1.2288
B6 B 0.49346(17) 0.75585(5) 1.15368(12)
H6 H 0.4669 0.7810 1.1263
B7 B 0.38532(18) 0.72828(5) 1.18802(12)
H7 H 0.2870 0.7352 1.1838
B8 B 0.46165(18) 0.70480(5) 1.26981(12)
H8 H 0.4138 0.6959 1.3196
B9 B 0.61565(18) 0.71847(5) 1.28704(12)
H9 H 0.6700 0.7186 1.3479
B10 B 0.49791(18) 0.74833(5) 1.25747(12)
H10 H 0.4737 0.7684 1.2988
C3 C 0.60251(14) 0.66238(4) 1.08143(9)
C4 C 0.65500(15) 0.66991(4) 1.01400(10)
H11 H 0.6744 0.6927 1.0036
C5 C 0.67964(16) 0.64473(4) 0.96165(10)
H12 H 0.7169 0.6502 0.9165
C6 C 0.64960(15) 0.61160(4) 0.97582(10)
C7 C 0.59843(15) 0.60371(4) 1.04310(10)
H13 H 0.5794 0.5809 1.0535
C8 C 0.57512(15) 0.62867(4) 1.09481(10)
H14 H 0.5397 0.6229 1.1406
C9 C 0.7150(2) 0.59229(5) 0.85680(12)
H15 H 0.6644 0.6091 0.8253
H16 H 0.7176 0.5716 0.8256
H17 H 0.7975 0.6012 0.8709
C10 C 0.80605(14) 0.69935(4) 1.20616(9)
C11 C 0.88269(16) 0.71921(5) 1.16810(10)
H18 H 0.8506 0.7378 1.1367
C12 C 1.00573(17) 0.71203(6) 1.17570(11)
H19 H 1.0577 0.7258 1.1497
C13 C 1.05310(17) 0.68485(5) 1.22099(12)
H20 H 1.1372 0.6798 1.2257
C14 C 0.97737(17) 0.66511(5) 1.25940(12)
H21 H 1.0098 0.6465 1.2909
C15 C 0.85453(16) 0.67223(4) 1.25220(11)
H22 H 0.8031 0.6585 1.2789
O2 O 0.20520(11) 0.51412(3) 0.55036(7)
C16 C 0.18939(14) 0.60333(4) 0.80897(9)
C17 C 0.19109(15) 0.58646(4) 0.90294(9)
B11 B 0.31592(17) 0.60835(5) 0.88069(11)
H23 H 0.4054 0.5961 0.8767
B12 B 0.25898(18) 0.64191(5) 0.81651(12)
H24 H 0.3116 0.6523 0.7706
B13 B 0.09878(18) 0.63839(5) 0.79855(12)
H25 H 0.0450 0.6465 0.7408
B14 B 0.05818(17) 0.60246(5) 0.85148(11)
H26 H -0.0216 0.5863 0.8283
B15 B 0.26123(18) 0.61370(5) 0.97290(12)
H27 H 0.3151 0.6054 1.0305
B16 B 0.30364(19) 0.64925(5) 0.91994(12)
H28 H 0.3858 0.6646 0.9425
B17 B 0.16812(19) 0.66802(5) 0.86924(12)
H29 H 0.1603 0.6959 0.8587
B18 B 0.04253(19) 0.64329(5) 0.89014(12)
H30 H -0.0488 0.6547 0.8931
B19 B 0.10075(18) 0.60989(5) 0.95470(12)
H31 H 0.0482 0.5991 1.0001
B20 B 0.16953(19) 0.65056(5) 0.96572(12)
H32 H 0.1625 0.6670 1.0185
C18 C 0.19648(15) 0.57971(4) 0.74070(9)
C19 C 0.30668(15) 0.56793(4) 0.72328(10)
H33 H 0.3794 0.5750 0.7554
C20 C 0.31374(16) 0.54619(4) 0.66035(10)
H34 H 0.3905 0.5385 0.6496
C21 C 0.20821(16) 0.53573(4) 0.61318(10)
C22 C 0.09695(16) 0.54799(4) 0.62822(10)
H35 H 0.0246 0.5415 0.5950
C23 C 0.09113(16) 0.56955(4) 0.69123(10)
H36 H 0.0144 0.5776 0.7012
C24 C 0.31799(17) 0.49912(5) 0.53774(11)
H37 H 0.3745 0.5168 0.5265
H38 H 0.3038 0.4835 0.4926
H39 H 0.3528 0.4867 0.5855
C25 C 0.20187(15) 0.54877(4) 0.91430(9)
C26 C 0.31511(17) 0.53325(4) 0.92931(11)
H40 H 0.3867 0.5463 0.9290
C27 C 0.32392(18) 0.49886(5) 0.94473(12)
H41 H 0.4015 0.4884 0.9544
C28 C 0.22084(18) 0.47985(5) 0.94612(11)
H42 H 0.2274 0.4564 0.9574
C29 C 0.10817(18) 0.49482(5) 0.93114(11)
H43 H 0.0370 0.4816 0.9316
C30 C 0.09851(16) 0.52922(4) 0.91538(10)
H44 H 0.0206 0.5395 0.9053
O3 O 0.39535(11) 0.25918(3) 0.11836(7)
C31 C 0.34684(14) 0.35293(4) 0.36379(9)
C32 C 0.36969(15) 0.33895(4) 0.46135(9)
B21 B 0.47049(18) 0.36705(5) 0.42890(11)
H45 H 0.5662 0.3601 0.4228
B22 B 0.38436(18) 0.39490(5) 0.36137(12)
H46 H 0.4233 0.4070 0.3111
B23 B 0.23094(17) 0.38145(5) 0.35165(12)
H47 H 0.1677 0.3846 0.2946
B24 B 0.22439(17) 0.34567(5) 0.41307(11)
H48 H 0.1579 0.3247 0.3965
B25 B 0.42185(18) 0.37137(5) 0.52332(12)
H49 H 0.4855 0.3678 0.5801
B26 B 0.43012(19) 0.40722(5) 0.46147(12)
H50 H 0.4992 0.4276 0.4774
B27 B 0.27970(19) 0.41626(5) 0.41358(12)
H51 H 0.2485 0.4426 0.3980
B28 B 0.18081(19) 0.38547(5) 0.44560(12)
H52 H 0.0840 0.3914 0.4511
B29 B 0.26879(18) 0.35800(5) 0.51372(12)
H53 H 0.2308 0.3456 0.5640
B30 B 0.30394(19) 0.40185(5) 0.51391(12)
H54 H 0.2891 0.4188 0.5644
C33 C 0.36415(15) 0.32824(4) 0.29934(9)
C34 C 0.47842(16) 0.31825(4) 0.28474(10)
H55 H 0.5483 0.3273 0.3165
C35 C 0.49335(16) 0.29544(4) 0.22512(11)
H56 H 0.5725 0.2891 0.2163
C36 C 0.39218(16) 0.28200(4) 0.17838(10)
C37 C 0.27724(16) 0.29195(4) 0.19153(10)
H57 H 0.2076 0.2831 0.1592
C38 C 0.26320(15) 0.31460(4) 0.25127(10)
H58 H 0.1839 0.3210 0.2598
C39 C 0.51076(18) 0.24550(5) 0.10796(12)
H59 H 0.5632 0.2636 0.0932
H60 H 0.4997 0.2284 0.0658
H61 H 0.5485 0.2351 0.1577
C40 C 0.41217(15) 0.30323(4) 0.47851(9)
C41 C 0.53531(16) 0.29603(4) 0.49641(10)
H62 H 0.5930 0.3136 0.4947
C42 C 0.57506(16) 0.26359(5) 0.51678(10)
H63 H 0.6595 0.2590 0.5291
C43 C 0.49142(17) 0.23788(4) 0.51908(10)
H64 H 0.5182 0.2156 0.5328
C44 C 0.36878(17) 0.24475(4) 0.50134(10)
H65 H 0.3114 0.2271 0.5030
C45 C 0.32885(16) 0.27726(4) 0.48110(10)
H66 H 0.2444 0.2818 0.4690
O4 O 0.81961(11) 0.33073(3) 0.48993(7)
C46 C 0.71131(14) 0.43456(4) 0.69724(9)
C47 C 0.82012(14) 0.45460(4) 0.76462(9)
B31 B 0.74961(17) 0.47611(5) 0.68208(11)
H67 H 0.7983 0.4842 0.6321
B32 B 0.59678(17) 0.46218(5) 0.66519(12)
H68 H 0.5432 0.4615 0.6041
B33 B 0.57961(17) 0.43081(5) 0.73716(11)
H69 H 0.5145 0.4093 0.7239
B34 B 0.72251(17) 0.42559(5) 0.79736(11)
H70 H 0.7533 0.4005 0.8231
B35 B 0.77789(18) 0.49553(5) 0.77703(12)
H71 H 0.8440 0.5168 0.7898
B36 B 0.63557(17) 0.50085(5) 0.71595(12)
H72 H 0.6072 0.5258 0.6884
B37 B 0.52938(18) 0.47284(5) 0.75099(12)
H73 H 0.4307 0.4793 0.7471
B38 B 0.60828(18) 0.44980(5) 0.83278(11)
H74 H 0.5617 0.4408 0.8830
B39 B 0.76080(18) 0.46407(5) 0.84941(12)
H75 H 0.8154 0.4645 0.9102
B40 B 0.64095(18) 0.49336(5) 0.81996(12)
H76 H 0.6157 0.5133 0.8613
C48 C 0.74896(14) 0.40777(4) 0.64358(9)
C49 C 0.78995(16) 0.41577(4) 0.57242(10)
H77 H 0.8003 0.4388 0.5594
C50 C 0.81614(16) 0.39089(4) 0.51999(10)
H78 H 0.8445 0.3969 0.4718
C51 C 0.80074(14) 0.35716(4) 0.53829(10)
C52 C 0.76173(15) 0.34872(4) 0.60960(10)
H79 H 0.7529 0.3257 0.6229
C53 C 0.73579(15) 0.37358(4) 0.66121(10)
H80 H 0.7084 0.3674 0.7096
C54 C 0.84687(17) 0.33871(5) 0.41227(11)
H81 H 0.7845 0.3539 0.3855
H82 H 0.8484 0.3179 0.3812
H83 H 0.9263 0.3498 0.4169
C55 C 0.95142(15) 0.44497(4) 0.76665(10)
C56 C 1.02510(17) 0.46285(5) 0.72200(12)
H84 H 0.9919 0.4808 0.6887
C57 C 1.14668(18) 0.45457(6) 0.72584(13)
H85 H 1.1963 0.4670 0.6953
C58 C 1.19623(17) 0.42860(5) 0.77325(12)
H86 H 1.2793 0.4228 0.7748
C59 C 1.12443(16) 0.41110(5) 0.81865(11)
H87 H 1.1585 0.3934 0.8524
C60 C 1.00260(15) 0.41917(4) 0.81541(10)
H88 H 0.9538 0.4069 0.8469
loop_
_geom_bond_atom_site_label_1
_geom_bond_atom_site_label_2
_geom_bond_site_symmetry_1
_geom_bond_site_symmetry_2
O1 C6 1_555 1_555
C1 C2 1_555 1_555
C2 B1 1_555 1_555
B1 C1 1_555 1_555
H1 B1 1_555 1_555
B2 C1 1_555 1_555
H2 B2 1_555 1_555
B3 C1 1_555 1_555
H3 B3 1_555 1_555
B4 C1 1_555 1_555
H4 B4 1_555 1_555
B5 C2 1_555 1_555
H5 B5 1_555 1_555
B6 B1 1_555 1_555
H6 B6 1_555 1_555
B7 B2 1_555 1_555
H7 B7 1_555 1_555
B8 B3 1_555 1_555
H8 B8 1_555 1_555
B9 C2 1_555 1_555
H9 B9 1_555 1_555
B10 B5 1_555 1_555
H10 B10 1_555 1_555
C3 C1 1_555 1_555
C4 C3 1_555 1_555
H11 C4 1_555 1_555
C5 C4 1_555 1_555
H12 C5 1_555 1_555
C6 C5 1_555 1_555
C7 C6 1_555 1_555
H13 C7 1_555 1_555
C8 C3 1_555 1_555
H14 C8 1_555 1_555
C9 O1 1_555 1_555
H15 C9 1_555 1_555
H16 C9 1_555 1_555
H17 C9 1_555 1_555
C10 C2 1_555 1_555
C11 C10 1_555 1_555
H18 C11 1_555 1_555
C12 C11 1_555 1_555
H19 C12 1_555 1_555
C13 C12 1_555 1_555
H20 C13 1_555 1_555
C14 C13 1_555 1_555
H21 C14 1_555 1_555
C15 C10 1_555 1_555
H22 C15 1_555 1_555
O2 C21 1_555 1_555
C16 C17 1_555 1_555
C17 B11 1_555 1_555
B11 C16 1_555 1_555
H23 B11 1_555 1_555
B12 C16 1_555 1_555
H24 B12 1_555 1_555
B13 C16 1_555 1_555
H25 B13 1_555 1_555
B14 C16 1_555 1_555
H26 B14 1_555 1_555
B15 C17 1_555 1_555
H27 B15 1_555 1_555
B16 B11 1_555 1_555
H28 B16 1_555 1_555
B17 B12 1_555 1_555
H29 B17 1_555 1_555
B18 B13 1_555 1_555
H30 B18 1_555 1_555
B19 C17 1_555 1_555
H31 B19 1_555 1_555
B20 B15 1_555 1_555
H32 B20 1_555 1_555
C18 C16 1_555 1_555
C19 C18 1_555 1_555
H33 C19 1_555 1_555
C20 C19 1_555 1_555
H34 C20 1_555 1_555
C21 C20 1_555 1_555
C22 C21 1_555 1_555
H35 C22 1_555 1_555
C23 C18 1_555 1_555
H36 C23 1_555 1_555
C24 O2 1_555 1_555
H37 C24 1_555 1_555
H38 C24 1_555 1_555
H39 C24 1_555 1_555
C25 C17 1_555 1_555
C26 C25 1_555 1_555
H40 C26 1_555 1_555
C27 C26 1_555 1_555
H41 C27 1_555 1_555
C28 C27 1_555 1_555
H42 C28 1_555 1_555
C29 C28 1_555 1_555
H43 C29 1_555 1_555
C30 C25 1_555 1_555
H44 C30 1_555 1_555
O3 C36 1_555 1_555
C31 C32 1_555 1_555
C32 B21 1_555 1_555
B21 C31 1_555 1_555
H45 B21 1_555 1_555
B22 C31 1_555 1_555
H46 B22 1_555 1_555
B23 C31 1_555 1_555
H47 B23 1_555 1_555
B24 C31 1_555 1_555
H48 B24 1_555 1_555
B25 C32 1_555 1_555
H49 B25 1_555 1_555
B26 B21 1_555 1_555
H50 B26 1_555 1_555
B27 B22 1_555 1_555
H51 B27 1_555 1_555
B28 B23 1_555 1_555
H52 B28 1_555 1_555
B29 C32 1_555 1_555
H53 B29 1_555 1_555
B30 B25 1_555 1_555
H54 B30 1_555 1_555
C33 C31 1_555 1_555
C34 C33 1_555 1_555
H55 C34 1_555 1_555
C35 C34 1_555 1_555
H56 C35 1_555 1_555
C36 C35 1_555 1_555
C37 C36 1_555 1_555
H57 C37 1_555 1_555
C38 C33 1_555 1_555
H58 C38 1_555 1_555
C39 O3 1_555 1_555
H59 C39 1_555 1_555
H60 C39 1_555 1_555
H61 C39 1_555 1_555
C40 C32 1_555 1_555
C41 C40 1_555 1_555
H62 C41 1_555 1_555
C42 C41 1_555 1_555
H63 C42 1_555 1_555
C43 C42 1_555 1_555
H64 C43 1_555 1_555
C44 C43 1_555 1_555
H65 C44 1_555 1_555
C45 C40 1_555 1_555
H66 C45 1_555 1_555
O4 C51 1_555 1_555
C46 C47 1_555 1_555
C47 B31 1_555 1_555
B31 C46 1_555 1_555
H67 B31 1_555 1_555
B32 C46 1_555 1_555
H68 B32 1_555 1_555
B33 C46 1_555 1_555
H69 B33 1_555 1_555
B34 C46 1_555 1_555
H70 B34 1_555 1_555
B35 C47 1_555 1_555
H71 B35 1_555 1_555
B36 B31 1_555 1_555
H72 B36 1_555 1_555
B37 B32 1_555 1_555
H73 B37 1_555 1_555
B38 B33 1_555 1_555
H74 B38 1_555 1_555
B39 C47 1_555 1_555
H75 B39 1_555 1_555
B40 B35 1_555 1_555
H76 B40 1_555 1_555
C48 C46 1_555 1_555
C49 C48 1_555 1_555
H77 C49 1_555 1_555
C50 C49 1_555 1_555
H78 C50 1_555 1_555
C51 C50 1_555 1_555
C52 C51 1_555 1_555
H79 C52 1_555 1_555
C53 C48 1_555 1_555
H80 C53 1_555 1_555
C54 O4 1_555 1_555
H81 C54 1_555 1_555
H82 C54 1_555 1_555
H83 C54 1_555 1_555
C55 C47 1_555 1_555
C56 C55 1_555 1_555
H84 C56 1_555 1_555
C57 C56 1_555 1_555
H85 C57 1_555 1_555
C58 C57 1_555 1_555
H86 C58 1_555 1_555
C59 C58 1_555 1_555
H87 C59 1_555 1_555
C60 C55 1_555 1_555
H88 C60 1_555 1_555
C2 B4 1_555 1_555
B1 B2 1_555 1_555
B1 B5 1_555 1_555
B2 B3 1_555 1_555
B2 B6 1_555 1_555
B3 B4 1_555 1_555
B3 B7 1_555 1_555
B4 B8 1_555 1_555
B4 B9 1_555 1_555
B5 B6 1_555 1_555
B5 B9 1_555 1_555
B6 B7 1_555 1_555
B6 B10 1_555 1_555
B7 B8 1_555 1_555
B7 B10 1_555 1_555
B8 B9 1_555 1_555
B8 B10 1_555 1_555
B9 B10 1_555 1_555
C7 C8 1_555 1_555
C14 C15 1_555 1_555
C17 B14 1_555 1_555
B11 B12 1_555 1_555
B11 B15 1_555 1_555
B12 B13 1_555 1_555
B12 B16 1_555 1_555
B13 B14 1_555 1_555
B13 B17 1_555 1_555
B14 B18 1_555 1_555
B14 B19 1_555 1_555
B15 B16 1_555 1_555
B15 B19 1_555 1_555
B16 B17 1_555 1_555
B16 B20 1_555 1_555
B17 B18 1_555 1_555
B17 B20 1_555 1_555
B18 B19 1_555 1_555
B18 B20 1_555 1_555
B19 B20 1_555 1_555
C22 C23 1_555 1_555
C29 C30 1_555 1_555
C32 B24 1_555 1_555
B21 B22 1_555 1_555
B21 B25 1_555 1_555
B22 B23 1_555 1_555
B22 B26 1_555 1_555
B23 B24 1_555 1_555
B23 B27 1_555 1_555
B24 B28 1_555 1_555
B24 B29 1_555 1_555
B25 B26 1_555 1_555
B25 B29 1_555 1_555
B26 B27 1_555 1_555
B26 B30 1_555 1_555
B27 B28 1_555 1_555
B27 B30 1_555 1_555
B28 B29 1_555 1_555
B28 B30 1_555 1_555
B29 B30 1_555 1_555
C37 C38 1_555 1_555
C44 C45 1_555 1_555
C47 B34 1_555 1_555
B31 B32 1_555 1_555
B31 B35 1_555 1_555
B32 B33 1_555 1_555
B32 B36 1_555 1_555
B33 B34 1_555 1_555
B33 B37 1_555 1_555
B34 B38 1_555 1_555
B34 B39 1_555 1_555
B35 B36 1_555 1_555
B35 B39 1_555 1_555
B36 B37 1_555 1_555
B36 B40 1_555 1_555
B37 B38 1_555 1_555
B37 B40 1_555 1_555
B38 B39 1_555 1_555
B38 B40 1_555 1_555
B39 B40 1_555 1_555
C52 C53 1_555 1_555
C59 C60 1_555 1_555

#END
