
#######################################################################
#
#                 Cambridge Crystallographic Data Centre
#                                CCDC 
#
#######################################################################
#
# If this CIF has been generated from an entry in the Cambridge 
# Structural Database, then it will include bibliographic, chemical, 
# crystal, experimental, refinement or atomic coordinate data resulting 
# from the CCDC's data processing and validation procedures.
#
#######################################################################

data_UHOXOF
_chemical_formula_moiety         'C17 H14 N2 O1'
_chemical_name_systematic        
(3-(2-(4-Hydroxyphenyl)vinyl)cyclohex-2-en-1-ylidene)malononitrile
_symmetry_cell_setting           monoclinic
_symmetry_space_group_name_H-M   'C c'
_symmetry_Int_Tables_number      9
_space_group_name_Hall           'C -2yc'
loop_
_symmetry_equiv_pos_site_id
_symmetry_equiv_pos_as_xyz
1 x,y,z
2 x,-y,1/2+z
3 1/2+x,1/2+y,z
4 1/2+x,1/2-y,1/2+z
_cell_length_a                   10.9927(8)
_cell_length_b                   12.5852(9)
_cell_length_c                   10.1326(6)
_cell_angle_alpha                90
_cell_angle_beta                 94.364(2)
_cell_angle_gamma                90
_cell_volume                     1397.73
_exptl_crystal_colour            orange
_exptl_crystal_description       block
_cell_formula_units_Z            4
_exptl_crystal_recrystallization_method acetonitrile
loop_
_atom_site_label
_atom_site_type_symbol
_atom_site_fract_x
_atom_site_fract_y
_atom_site_fract_z
C1 C 0.37473(19) 0.7445(2) 0.9207(2)
C2 C 0.3591(2) 0.58806(18) 0.7813(2)
C3 C 0.33761(18) 0.69933(16) 0.79444(19)
C4 C 0.28943(16) 0.76124(17) 0.69185(18)
C5 C 0.25349(17) 0.71780(16) 0.56510(18)
H1 H 0.2596 0.6447 0.554
C6 C 0.21069(18) 0.77706(15) 0.45938(18)
C7 C 0.18098(18) 0.72642(16) 0.33293(19)
H2 H 0.1955 0.6538 0.3277
C8 C 0.1343(2) 0.77485(16) 0.22251(19)
H3 H 0.1224 0.8478 0.2279
C9 C 0.10031(16) 0.72542(16) 0.09506(17)
C10 C 0.1118(2) 0.61661(17) 0.0722(2)
H4 H 0.1444 0.5731 0.1401
C11 C 0.0758(2) 0.57253(18) -0.0488(2)
H5 H 0.0848 0.4999 -0.0621
C12 C 0.0258(2) 0.63623(16) -0.15159(18)
C13 C 0.01423(18) 0.74434(17) -0.13185(16)
H6 H -0.0176 0.7876 -0.2005
C14 C 0.05002(17) 0.78785(15) -0.01017(17)
H7 H 0.0406 0.8605 0.0025
C15 C 0.2771(3) 0.87889(17) 0.7115(2)
H8 H 0.2522 0.892 0.7998
H9 H 0.3562 0.912 0.7052
C16 C 0.1898(5) 0.9277(3) 0.6159(4)
H10 H 0.2002 1.0042 0.6216
H11 H 0.1085 0.9116 0.6412
C17 C 0.1971(3) 0.89505(17) 0.4732(2)
H12 H 0.1237 0.918 0.4219
H13 H 0.2661 0.9302 0.4378
O1 O -0.0082(2) 0.58750(13) -0.26806(17)
H14 H -0.0358 0.6318 -0.3217
N1 N 0.4058(2) 0.7809(2) 1.0204(2)
N2 N 0.3796(3) 0.49955(19) 0.7720(3)
C18? C 0.2712(7) 0.9448(5) 0.5819(7)
H15? H 0.3459 0.9034 0.7691
H16? H 0.2037 0.8923 0.7562
H17? H 0.2379 1.0144 0.599
H18? H 0.3534 0.9547 0.5554
H19? H 0.2171 0.9281 0.3911
H20? H 0.112 0.9105 0.4845
loop_
_geom_bond_atom_site_label_1
_geom_bond_atom_site_label_2
_geom_bond_site_symmetry_1
_geom_bond_site_symmetry_2
C1 C3 1_555 1_555
C2 C3 1_555 1_555
C3 C4 1_555 1_555
C4 C5 1_555 1_555
C5 H1 1_555 1_555
C6 C5 1_555 1_555
C7 C6 1_555 1_555
H2 C7 1_555 1_555
C8 C7 1_555 1_555
H3 C8 1_555 1_555
C9 C8 1_555 1_555
C10 C9 1_555 1_555
H4 C10 1_555 1_555
C11 C10 1_555 1_555
H5 C11 1_555 1_555
C12 C11 1_555 1_555
C13 C12 1_555 1_555
H6 C13 1_555 1_555
C14 C9 1_555 1_555
H7 C14 1_555 1_555
C15 C4 1_555 1_555
H8 C15 1_555 1_555
H9 C15 1_555 1_555
C16 C15 1_555 1_555
H10 C16 1_555 1_555
H11 C16 1_555 1_555
C17 C6 1_555 1_555
H12 C17 1_555 1_555
H13 C17 1_555 1_555
O1 C12 1_555 1_555
H14 O1 1_555 1_555
N1 C1 1_555 1_555
N2 C2 1_555 1_555
C13 C14 1_555 1_555
C16 C17 1_555 1_555

#END
