
#######################################################################
#
#                 Cambridge Crystallographic Data Centre
#                                CCDC 
#
#######################################################################
#
# If this CIF has been generated from an entry in the Cambridge 
# Structural Database, then it will include bibliographic, chemical, 
# crystal, experimental, refinement or atomic coordinate data resulting 
# from the CCDC's data processing and validation procedures.
#
#######################################################################

data_UHUPAQ
_chemical_formula_moiety         'C24 H28 N1 O1 P1 S1'
_chemical_name_systematic        
N-(2-(diphenylphosphino)-1-phenylethyl)-2-methylpropane-2-sulfinamide
_symmetry_cell_setting           monoclinic
_symmetry_space_group_name_H-M   'P 21'
_symmetry_Int_Tables_number      4
_space_group_name_Hall           'P 2yb'
loop_
_symmetry_equiv_pos_site_id
_symmetry_equiv_pos_as_xyz
1 x,y,z
2 -x,1/2+y,-z
_cell_length_a                   9.592(6)
_cell_length_b                   9.225(5)
_cell_length_c                   12.929(7)
_cell_angle_alpha                90
_cell_angle_beta                 93.061(18)
_cell_angle_gamma                90
_cell_volume                     1142.41
_exptl_crystal_colour            colorless
_exptl_crystal_description       block
_cell_formula_units_Z            2
loop_
_atom_site_label
_atom_site_type_symbol
_atom_site_fract_x
_atom_site_fract_y
_atom_site_fract_z
S1 S 0.83268(17) 0.59062(17) 0.44443(12)
O1 O 0.8867(6) 0.7212(5) 0.5001(4)
P1 P 0.76829(16) 0.33197(18) 0.20445(13)
N1 N 0.9601(5) 0.4910(6) 0.4040(4)
H1 H 1.0082 0.4351 0.4480
C1 C 0.7614(6) 0.1386(7) 0.1699(6)
C2 C 0.7434(9) 0.0385(9) 0.2493(7)
H2 H 0.7366 0.0726 0.3182
C3 C 0.7356(11) -0.1071(9) 0.2304(8)
H3 H 0.7218 -0.1724 0.2857
C4 C 0.7477(8) -0.1599(9) 0.1310(8)
H4 H 0.7449 -0.2613 0.1184
C5 C 0.7639(8) -0.0636(9) 0.0500(8)
H5 H 0.7703 -0.0991 -0.0186
C6 C 0.7707(7) 0.0851(9) 0.0690(6)
H6 H 0.7817 0.1506 0.0133
C7 C 0.7581(7) 0.4231(7) 0.0784(5)
C8 C 0.6242(7) 0.4579(8) 0.0366(6)
H7 H 0.5442 0.4276 0.0711
C9 C 0.6076(8) 0.5380(8) -0.0567(6)
H8 H 0.5166 0.5625 -0.0838
C10 C 0.7200(8) 0.5796(9) -0.1072(6)
H9 H 0.7073 0.6348 -0.1690
C11 C 0.8515(8) 0.5443(9) -0.0714(6)
H10 H 0.9295 0.5727 -0.1089
C12 C 0.8718(7) 0.4649(8) 0.0221(6)
H11 H 0.9637 0.4399 0.0468
C13 C 0.9560(6) 0.3450(7) 0.2438(5)
H12 H 0.9808 0.2664 0.2936
H13 H 1.0115 0.3310 0.1822
C14 C 0.9947(6) 0.4943(6) 0.2948(4)
H14 H 0.9360 0.5707 0.2589
C15 C 1.1464(7) 0.5302(7) 0.2804(5)
C16 C 1.2530(7) 0.4519(8) 0.3329(6)
H15 H 1.2298 0.3778 0.3800
C17 C 1.3926(8) 0.4807(11) 0.3173(7)
H16 H 1.4633 0.4232 0.3513
C18 C 1.4292(7) 0.5913(10) 0.2532(6)
H17 H 1.5246 0.6129 0.2440
C19 C 1.3251(9) 0.6703(9) 0.2026(7)
H18 H 1.3497 0.7470 0.1580
C20 C 1.1839(7) 0.6409(7) 0.2149(5)
H19 H 1.1139 0.6967 0.1785
C21 C 0.7727(7) 0.4679(8) 0.5489(5)
C22 C 0.6414(8) 0.5449(9) 0.5855(7)
H20 H 0.6015 0.4878 0.6406
H21 H 0.5725 0.5545 0.5272
H22 H 0.6669 0.6414 0.6121
C23 C 0.7364(7) 0.3202(8) 0.5031(5)
H23 H 0.7042 0.2564 0.5576
H24 H 0.8193 0.2780 0.4737
H25 H 0.6622 0.3308 0.4486
C24 C 0.8868(8) 0.4607(9) 0.6359(5)
H26 H 0.8566 0.3968 0.6910
H27 H 0.9041 0.5581 0.6640
H28 H 0.9728 0.4226 0.6085
loop_
_geom_bond_atom_site_label_1
_geom_bond_atom_site_label_2
_geom_bond_site_symmetry_1
_geom_bond_site_symmetry_2
S1 O1 1_555 1_555
P1 C1 1_555 1_555
N1 S1 1_555 1_555
H1 N1 1_555 1_555
C1 C2 1_555 1_555
C2 H2 1_555 1_555
C3 C2 1_555 1_555
H3 C3 1_555 1_555
C4 C3 1_555 1_555
H4 C4 1_555 1_555
C5 C4 1_555 1_555
H5 C5 1_555 1_555
C6 C1 1_555 1_555
H6 C6 1_555 1_555
C7 P1 1_555 1_555
C8 C7 1_555 1_555
H7 C8 1_555 1_555
C9 C8 1_555 1_555
H8 C9 1_555 1_555
C10 C9 1_555 1_555
H9 C10 1_555 1_555
C11 C10 1_555 1_555
H10 C11 1_555 1_555
C12 C7 1_555 1_555
H11 C12 1_555 1_555
C13 P1 1_555 1_555
H12 C13 1_555 1_555
H13 C13 1_555 1_555
C14 N1 1_555 1_555
H14 C14 1_555 1_555
C15 C14 1_555 1_555
C16 C15 1_555 1_555
H15 C16 1_555 1_555
C17 C16 1_555 1_555
H16 C17 1_555 1_555
C18 C17 1_555 1_555
H17 C18 1_555 1_555
C19 C18 1_555 1_555
H18 C19 1_555 1_555
C20 C15 1_555 1_555
H19 C20 1_555 1_555
C21 S1 1_555 1_555
C22 C21 1_555 1_555
H20 C22 1_555 1_555
H21 C22 1_555 1_555
H22 C22 1_555 1_555
C23 C21 1_555 1_555
H23 C23 1_555 1_555
H24 C23 1_555 1_555
H25 C23 1_555 1_555
C24 C21 1_555 1_555
H26 C24 1_555 1_555
H27 C24 1_555 1_555
H28 C24 1_555 1_555
C5 C6 1_555 1_555
C11 C12 1_555 1_555
C13 C14 1_555 1_555
C19 C20 1_555 1_555

#END
