
#######################################################################
#
#                 Cambridge Crystallographic Data Centre
#                                CCDC 
#
#######################################################################
#
# If this CIF has been generated from an entry in the Cambridge 
# Structural Database, then it will include bibliographic, chemical, 
# crystal, experimental, refinement or atomic coordinate data resulting 
# from the CCDC's data processing and validation procedures.
#
#######################################################################

data_UHUZED
_chemical_formula_moiety         'C16 H14 Br1 N1 O2,C1 H2 Cl2'
_chemical_name_systematic        
'(+/-)-5-(4-Bromophenyl)-4-hydroxy-4-phenylpyrrolidin-2-one dichloromethane solvate'
_symmetry_cell_setting           triclinic
_symmetry_space_group_name_H-M   'P -1'
_symmetry_Int_Tables_number      2
_space_group_name_Hall           '-P 1'
loop_
_symmetry_equiv_pos_site_id
_symmetry_equiv_pos_as_xyz
1 x,y,z
2 -x,-y,-z
_cell_length_a                   7.4375(5)
_cell_length_b                   8.8670(6)
_cell_length_c                   14.4876(10)
_cell_angle_alpha                93.607(1)
_cell_angle_beta                 97.431(1)
_cell_angle_gamma                113.795(1)
_cell_volume                     859.871
_chemical_melting_point          '144-146 deg.C'
_cell_formula_units_Z            2
_exptl_crystal_recrystallization_method dichloromethane/hexanes
loop_
_atom_site_label
_atom_site_type_symbol
_atom_site_fract_x
_atom_site_fract_y
_atom_site_fract_z
Br1 Br 1.19809(4) 0.30143(3) 1.058595(16)
C1 C 0.8108(3) 0.1120(2) 0.49639(14)
C2 C 0.6840(3) 0.2092(2) 0.50184(14)
H1 H 0.5412 0.1373 0.4790
H2 H 0.7273 0.3041 0.4649
C3 C 0.7220(3) 0.2691(2) 0.60717(14)
C4 C 0.9456(3) 0.2986(2) 0.63510(14)
H3 H 1.032(3) 0.410(3) 0.6185(17)
C5 C 0.6849(3) 0.4221(2) 0.63123(14)
C6 C 0.7739(3) 0.5656(2) 0.58898(16)
H4 H 0.8565 0.5663 0.5440
C7 C 0.7437(3) 0.7067(3) 0.61153(17)
H5 H 0.8056 0.8032 0.5822
C8 C 0.6226(3) 0.7073(3) 0.67706(16)
H6 H 0.6024 0.8042 0.6931
C9 C 0.5321(3) 0.5657(3) 0.71860(16)
H7 H 0.4478 0.5650 0.7627
C10 C 0.5634(3) 0.4243(2) 0.69638(15)
H8 H 0.5012 0.3282 0.7259
C11 C 1.0075(3) 0.2933(2) 0.73754(14)
C12 C 1.0272(3) 0.1561(2) 0.77126(15)
H9 H 1.0029 0.0612 0.7288
C13 C 1.0826(3) 0.1574(3) 0.86702(16)
H10 H 1.0955 0.0637 0.8901
C14 C 1.1184(3) 0.2962(3) 0.92791(15)
C15 C 1.1010(3) 0.4347(3) 0.89648(16)
H11 H 1.1269 0.5297 0.9392
C16 C 1.0447(3) 0.4314(2) 0.80074(15)
H12 H 1.0315 0.5253 0.7781
H15 H 1.045(4) 0.138(3) 0.5760(19)
N1 N 0.9564(2) 0.1695(2) 0.57072(12)
O1 O 0.7834(2) -0.00065(17) 0.43391(10)
O2 O 0.61282(19) 0.13442(16) 0.65417(10)
H16 H 0.4907 0.0989 0.6326
C17 C 0.5645(4) 0.0207(3) 0.86007(18)
H13 H 0.6219 -0.0416 0.8995
H14 H 0.6498 0.0630 0.8121
Cl1 Cl 0.32110(10) -0.11504(8) 0.80355(6)
Cl2 Cl 0.56477(10) 0.18948(9) 0.93065(5)
loop_
_geom_bond_atom_site_label_1
_geom_bond_atom_site_label_2
_geom_bond_site_symmetry_1
_geom_bond_site_symmetry_2
Br1 C14 1_555 1_555
C1 C2 1_555 1_555
C2 H1 1_555 1_555
H2 C2 1_555 1_555
C3 C2 1_555 1_555
C4 C3 1_555 1_555
H3 C4 1_555 1_555
C5 C3 1_555 1_555
C6 C5 1_555 1_555
H4 C6 1_555 1_555
C7 C6 1_555 1_555
H5 C7 1_555 1_555
C8 C7 1_555 1_555
H6 C8 1_555 1_555
C9 C8 1_555 1_555
H7 C9 1_555 1_555
C10 C5 1_555 1_555
H8 C10 1_555 1_555
C11 C4 1_555 1_555
C12 C11 1_555 1_555
H9 C12 1_555 1_555
C13 C12 1_555 1_555
H10 C13 1_555 1_555
C14 C13 1_555 1_555
C15 C14 1_555 1_555
H11 C15 1_555 1_555
C16 C11 1_555 1_555
H12 C16 1_555 1_555
C17 H13 1_555 1_555
H14 C17 1_555 1_555
Cl1 C17 1_555 1_555
Cl2 C17 1_555 1_555
H15 N1 1_555 1_555
N1 C1 1_555 1_555
O1 C1 1_555 1_555
O2 C3 1_555 1_555
H16 O2 1_555 1_555
C4 N1 1_555 1_555
C9 C10 1_555 1_555
C15 C16 1_555 1_555

#END
