
#######################################################################
#
#                 Cambridge Crystallographic Data Centre
#                                CCDC 
#
#######################################################################
#
# If this CIF has been generated from an entry in the Cambridge 
# Structural Database, then it will include bibliographic, chemical, 
# crystal, experimental, refinement or atomic coordinate data resulting 
# from the CCDC's data processing and validation procedures.
#
#######################################################################

data_UJAGAN
_chemical_formula_moiety         'C20 H27 N1 O2 S1'
_chemical_name_systematic        
'2-t-Butyl-2-(2-methoxyanilino)ethyl p-tolyl sulfoxide'
_symmetry_cell_setting           orthorhombic
_symmetry_space_group_name_H-M   'P 21 21 21'
_symmetry_Int_Tables_number      19
_space_group_name_Hall           'P 2ac 2ab'
loop_
_symmetry_equiv_pos_site_id
_symmetry_equiv_pos_as_xyz
1 x,y,z
2 1/2-x,-y,1/2+z
3 -x,1/2+y,1/2-z
4 1/2+x,1/2-y,-z
_cell_length_a                   6.4435(6)
_cell_length_b                   7.3607(7)
_cell_length_c                   38.800(3)
_cell_angle_alpha                90
_cell_angle_beta                 90
_cell_angle_gamma                90
_cell_volume                     1840.23
_exptl_crystal_colour            'pale yellow'
_chemical_melting_point          131-132deg.C
_cell_formula_units_Z            4
loop_
_atom_site_label
_atom_site_type_symbol
_atom_site_fract_x
_atom_site_fract_y
_atom_site_fract_z
S1 S 0.5264(2) 0.8792(2) 0.82763(2)
O1 O 0.7443(4) 0.8196(4) 0.82058(6)
C1 C 0.3885(7) 0.8734(6) 0.78793(9)
C2 C 0.4836(7) 0.8088(5) 0.75854(9)
H1 H 0.6212(7) 0.7627(5) 0.75930(9)
C3 C 0.3728(7) 0.8127(6) 0.72773(10)
H2 H 0.4361(7) 0.7665(6) 0.70743(10)
C4 C 0.1739(7) 0.8817(7) 0.72578(10)
C5 C 0.0589(7) 0.8914(7) 0.69204(9)
H3 H 0.0822(7) 1.0104(7) 0.68140(9)
H4 H -0.0899(7) 0.8743(7) 0.69616(9)
H5 H 0.1095(7) 0.7958(7) 0.67660(9)
C6 C 0.0829(7) 0.9443(6) 0.75586(11)
H6 H -0.0550(7) 0.9899(6) 0.75523(11)
C7 C 0.1891(7) 0.9414(6) 0.78667(10)
H7 H 0.1251(7) 0.9861(6) 0.80702(10)
C8 C 0.3974(6) 0.6869(6) 0.84672(9)
H8 H 0.2479(6) 0.7143(6) 0.84946(9)
H9 H 0.4106(6) 0.5805(6) 0.83128(9)
C9 C 0.4919(6) 0.6413(5) 0.88213(8)
H10 H 0.6440(6) 0.6217(5) 0.87860(8)
C10 C 0.4030(7) 0.4649(6) 0.89762(10)
C11 C 0.4483(7) 0.3053(6) 0.87410(9)
H11 H 0.3772(7) 0.3230(6) 0.85203(9)
H12 H 0.3987(7) 0.1931(6) 0.88491(9)
H13 H 0.5982(7) 0.2968(6) 0.87017(9)
C12 C 0.1649(7) 0.4814(6) 0.90313(10)
H14 H 0.1347(7) 0.5910(6) 0.91657(10)
H15 H 0.1143(7) 0.3744(6) 0.91558(10)
H16 H 0.0954(7) 0.4893(6) 0.88071(10)
C13 C 0.5058(7) 0.4294(6) 0.93229(9)
H17 H 0.4829(7) 0.5336(6) 0.94754(9)
H18 H 0.6552(7) 0.4115(6) 0.92894(9)
H19 H 0.4456(7) 0.3201(6) 0.94271(9)
N1 N 0.4689(5) 0.7961(4) 0.90551(7)
H20 H 0.3438(5) 0.8390(4) 0.90958(7)
C14 C 0.6371(6) 0.8773(6) 0.92141(9)
C15 C 0.6153(7) 0.9355(6) 0.95574(10)
C16 C 0.7735(7) 1.0232(6) 0.97255(11)
H21 H 0.7559(7) 1.0605(6) 0.99580(11)
C17 C 0.9587(8) 1.0574(6) 0.95572(11)
H22 H 1.0679(8) 1.1198(6) 0.96713(11)
C18 C 0.9827(7) 0.9992(6) 0.92202(12)
H23 H 1.1102(7) 1.0204(6) 0.91038(12)
C19 C 0.8228(6) 0.9104(6) 0.90506(10)
H24 H 0.8416(6) 0.8720(6) 0.88189(10)
O2 O 0.4257(4) 0.8940(4) 0.97045(6)
C20 C 0.4005(7) 0.9339(6) 1.00618(8)
H25 H 0.2799(7) 0.8679(6) 1.01514(8)
H26 H 0.3790(7) 1.0647(6) 1.00918(8)
H27 H 0.5251(7) 0.8963(6) 1.01878(8)
loop_
_geom_bond_atom_site_label_1
_geom_bond_atom_site_label_2
_geom_bond_site_symmetry_1
_geom_bond_site_symmetry_2
S1 O1 1_555 1_555
C1 S1 1_555 1_555
C2 C1 1_555 1_555
H1 C2 1_555 1_555
C3 C2 1_555 1_555
H2 C3 1_555 1_555
C4 C3 1_555 1_555
C5 C4 1_555 1_555
H3 C5 1_555 1_555
H4 C5 1_555 1_555
H5 C5 1_555 1_555
C6 C4 1_555 1_555
H6 C6 1_555 1_555
C7 C1 1_555 1_555
H7 C7 1_555 1_555
C8 S1 1_555 1_555
H8 C8 1_555 1_555
H9 C8 1_555 1_555
C9 C8 1_555 1_555
H10 C9 1_555 1_555
C10 C9 1_555 1_555
C11 C10 1_555 1_555
H11 C11 1_555 1_555
H12 C11 1_555 1_555
H13 C11 1_555 1_555
C12 C10 1_555 1_555
H14 C12 1_555 1_555
H15 C12 1_555 1_555
H16 C12 1_555 1_555
C13 C10 1_555 1_555
H17 C13 1_555 1_555
H18 C13 1_555 1_555
H19 C13 1_555 1_555
N1 C9 1_555 1_555
H20 N1 1_555 1_555
C14 N1 1_555 1_555
C15 C14 1_555 1_555
C16 C15 1_555 1_555
H21 C16 1_555 1_555
C17 C16 1_555 1_555
H22 C17 1_555 1_555
C18 C17 1_555 1_555
H23 C18 1_555 1_555
C19 C14 1_555 1_555
H24 C19 1_555 1_555
O2 C15 1_555 1_555
C20 O2 1_555 1_555
H25 C20 1_555 1_555
H26 C20 1_555 1_555
H27 C20 1_555 1_555
C6 C7 1_555 1_555
C18 C19 1_555 1_555

#END
