
#######################################################################
#
#                 Cambridge Crystallographic Data Centre
#                                CCDC 
#
#######################################################################
#
# If this CIF has been generated from an entry in the Cambridge 
# Structural Database, then it will include bibliographic, chemical, 
# crystal, experimental, refinement or atomic coordinate data resulting 
# from the CCDC's data processing and validation procedures.
#
#######################################################################

data_UJECET
_chemical_formula_moiety         'C54 H39 Br3 S3,2(C6 H4 Cl2)'
_chemical_name_systematic        
"2,9,16-Tribromo-5,12,19-tri-t-butylbisthieno[3'',2'':6',7']acenaphtho[1',2':7,8;1'',2'':9,10]fluorantheno[2,3-b]thiophene 1,2-dichlorobenzene solvate"
_symmetry_cell_setting           monoclinic
_symmetry_space_group_name_H-M   'P 21/c'
_symmetry_Int_Tables_number      14
_space_group_name_Hall           '-P 2ybc'
loop_
_symmetry_equiv_pos_site_id
_symmetry_equiv_pos_as_xyz
1 x,y,z
2 -x,1/2+y,1/2-z
3 -x,-y,-z
4 x,1/2-y,1/2+z
_cell_length_a                   10.7186(5)
_cell_length_b                   32.6861(15)
_cell_length_c                   32.8009(14)
_cell_angle_alpha                90
_cell_angle_beta                 96.6310(13)
_cell_angle_gamma                90
_cell_volume                     11414.9
_exptl_crystal_colour            orange
_exptl_crystal_description       needle
_cell_formula_units_Z            8
loop_
_atom_site_label
_atom_site_type_symbol
_atom_site_fract_x
_atom_site_fract_y
_atom_site_fract_z
C1 C 0.1507(7) 0.2795(2) 0.3269(2)
C2 C 0.1306(8) 0.2753(2) 0.2831(2)
C3 C 0.1179(8) 0.3094(2) 0.2579(2)
C4 C 0.1129(8) 0.3495(2) 0.2759(2)
C5 C 0.1343(8) 0.3539(2) 0.3181(2)
C6 C 0.1469(8) 0.3185(2) 0.3442(2)
C7 C 0.1709(8) 0.2384(2) 0.3448(2)
C8 C 0.2065(8) 0.2225(2) 0.3830(2)
H1 H 0.2252 0.2400 0.4060
C9 C 0.2149(8) 0.1796(2) 0.3874(2)
S1 S 0.2588(2) 0.15398(7) 0.43322(7)
C10 C 0.2418(9) 0.1073(2) 0.4084(2)
Br1 Br 0.27595(12) 0.05882(3) 0.43809(3)
C11 C 0.2049(8) 0.1104(2) 0.3680(2)
H2 H 0.1910 0.0876 0.3501
C12 C 0.1890(8) 0.1517(2) 0.3550(2)
C13 C 0.1517(8) 0.1678(2) 0.3146(2)
C14 C 0.1251(8) 0.1452(2) 0.2786(2)
H3 H 0.1282 0.1162 0.2799
C15 C 0.0941(8) 0.1642(2) 0.2408(2)
C16 C 0.0933(8) 0.2075(2) 0.2388(2)
H4 H 0.0715 0.2206 0.2131
C17 C 0.1234(8) 0.2310(2) 0.2733(2)
C18 C 0.1494(7) 0.2101(2) 0.3114(2)
C19 C 0.0608(9) 0.1382(2) 0.2018(2)
C20 C -0.0605(11) 0.1149(4) 0.2051(4)
H5 H -0.0519 0.0986 0.2303
H6 H -0.1299 0.1343 0.2057
H7 H -0.0779 0.0967 0.1813
C21 C 0.0466(14) 0.1632(3) 0.1630(3)
H8 H -0.0170 0.1844 0.1648
H9 H 0.1271 0.1761 0.1593
H10 H 0.0206 0.1453 0.1395
C22 C 0.1594(12) 0.1057(3) 0.1982(4)
H11 H 0.1698 0.0892 0.2233
H12 H 0.1329 0.0881 0.1746
H13 H 0.2394 0.1189 0.1944
C23 C 0.1054(8) 0.3144(2) 0.2130(2)
C24 C 0.1217(8) 0.2899(2) 0.1802(2)
H14 H 0.1485 0.2623 0.1841
C25 C 0.0977(8) 0.3066(2) 0.1407(2)
S2 S 0.1137(2) 0.28050(7) 0.09554(7)
C26 C 0.0702(9) 0.3239(2) 0.0669(2)
Br2 Br 0.07757(12) 0.32396(3) 0.01039(3)
C27 C 0.0454(9) 0.3565(3) 0.0897(2)
H15 H 0.0205 0.3825 0.0786
C28 C 0.0613(8) 0.3472(2) 0.1325(2)
C29 C 0.0502(8) 0.3738(2) 0.1666(2)
C30 C 0.0182(8) 0.4156(2) 0.1650(2)
H16 H -0.0008 0.4284 0.1390
C31 C 0.0138(8) 0.4386(2) 0.2001(2)
C32 C 0.0448(8) 0.4193(2) 0.2390(2)
H17 H 0.0418 0.4349 0.2633
C33 C 0.0789(8) 0.3790(2) 0.2423(2)
C34 C 0.0749(8) 0.3564(2) 0.2053(2)
C35 C -0.0214(8) 0.4842(2) 0.1986(2)
C36 C -0.054(2) 0.4995(5) 0.1546(4)
H18 H 0.0167 0.4942 0.1388
H19 H -0.1287 0.4850 0.1418
H20 H -0.0711 0.5289 0.1549
C37 C 0.0932(14) 0.5094(4) 0.2161(6)
H21 H 0.1637 0.5036 0.2004
H22 H 0.0726 0.5386 0.2140
H23 H 0.1165 0.5021 0.2449
C38 C -0.1307(15) 0.4925(5) 0.2221(5)
H24 H -0.1111 0.4828 0.2504
H25 H -0.1475 0.5219 0.2221
H26 H -0.2050 0.4781 0.2090
C39 C 0.1464(8) 0.3904(2) 0.3447(2)
C40 C 0.1604(9) 0.4317(2) 0.3388(2)
H27 H 0.1664 0.4426 0.3122
C41 C 0.1656(10) 0.4573(2) 0.3732(2)
S3 S 0.1761(3) 0.51064(8) 0.37093(8)
C42 C 0.1694(13) 0.5137(3) 0.4230(3)
Br3 Br 0.1733(3) 0.56557(4) 0.44758(5)
C43 C 0.1617(11) 0.4773(3) 0.4416(3)
H28 H 0.1587 0.4742 0.4702
C44 C 0.1584(9) 0.4440(2) 0.4133(2)
C45 C 0.1508(8) 0.4008(2) 0.4200(2)
C46 C 0.1442(9) 0.3810(2) 0.4580(2)
H29 H 0.1465 0.3970 0.4823
C47 C 0.1344(8) 0.3389(2) 0.4608(2)
C48 C 0.1363(8) 0.3149(2) 0.4243(2)
H30 H 0.1302 0.2860 0.4260
C49 C 0.1467(8) 0.3328(2) 0.3869(2)
C50 C 0.1485(8) 0.3762(2) 0.3856(2)
C51 C 0.1218(8) 0.3162(3) 0.5008(2)
C52 C -0.0037(9) 0.2937(3) 0.4972(3)
H31 H -0.0089 0.2750 0.4737
H32 H -0.0103 0.2782 0.5224
H33 H -0.0724 0.3136 0.4931
C53 C 0.2289(8) 0.2853(3) 0.5094(3)
H34 H 0.2272 0.2661 0.4863
H35 H 0.3095 0.2998 0.5127
H36 H 0.2187 0.2701 0.5345
C54 C 0.1282(10) 0.3452(3) 0.5374(2)
H37 H 0.2085 0.3599 0.5401
H38 H 0.0591 0.3650 0.5332
H39 H 0.1212 0.3295 0.5625
C58 C 0.4795(8) 0.30852(19) 0.3518(2)
C59 C 0.4644(8) 0.3322(2) 0.31461(19)
C60 C 0.4527(8) 0.3123(2) 0.27688(19)
C61 C 0.4666(8) 0.2686(2) 0.27518(19)
C62 C 0.4795(8) 0.2459(2) 0.31128(19)
C63 C 0.4955(8) 0.26634(19) 0.3503(2)
C64 C 0.4781(8) 0.3371(2) 0.3864(2)
C65 C 0.4738(8) 0.3327(2) 0.4277(2)
H49 H 0.4722 0.3064 0.4400
C66 C 0.4717(8) 0.3687(2) 0.4514(2)
S4 S 0.4713(3) 0.36900(7) 0.50427(6)
C67 C 0.4689(11) 0.4217(2) 0.5040(2)
Br4 Br 0.4576(2) 0.44789(3) 0.55424(3)
C68 C 0.4705(10) 0.4384(2) 0.4666(2)
H50 H 0.4695 0.4671 0.4616
C69 C 0.4740(8) 0.4084(2) 0.4355(2)
C70 C 0.4757(8) 0.4131(2) 0.3922(2)
C71 C 0.4825(8) 0.4502(2) 0.3705(2)
H51 H 0.4834 0.4754 0.3849
C72 C 0.4878(8) 0.4505(2) 0.3286(2)
C73 C 0.4786(8) 0.4127(2) 0.3064(2)
H52 H 0.4787 0.4129 0.2775
C74 C 0.4697(8) 0.37608(19) 0.3266(2)
C75 C 0.4740(7) 0.37706(19) 0.3699(2)
C76 C 0.5015(8) 0.4899(2) 0.3040(2)
C77 C 0.3818(9) 0.4964(3) 0.2746(3)
H53 H 0.3672 0.4726 0.2566
H54 H 0.3104 0.4999 0.2904
H55 H 0.3910 0.5209 0.2580
C78 C 0.6150(9) 0.4858(3) 0.2794(3)
H56 H 0.6036 0.4619 0.2614
H57 H 0.6216 0.5105 0.2628
H58 H 0.6918 0.4826 0.2984
C79 C 0.5217(11) 0.5273(2) 0.3316(3)
H59 H 0.5983 0.5236 0.3507
H60 H 0.5303 0.5517 0.3148
H61 H 0.4497 0.5306 0.3472
C80 C 0.4282(7) 0.3271(2) 0.2341(2)
C81 C 0.3938(8) 0.3636(2) 0.2149(2)
H62 H 0.3772 0.3872 0.2304
C82 C 0.3840(8) 0.3649(2) 0.1718(2)
S5 S 0.3460(2) 0.40861(6) 0.14257(6)
C83 C 0.3605(8) 0.3818(2) 0.0979(2)
Br5 Br 0.33266(11) 0.40814(3) 0.04711(3)
C84 C 0.3904(8) 0.3422(2) 0.1042(2)
H63 H 0.3996 0.3233 0.0827
C85 C 0.4070(8) 0.3317(2) 0.1467(2)
C86 C 0.4357(8) 0.2930(2) 0.1659(2)
C87 C 0.4609(8) 0.2561(2) 0.1464(2)
H64 H 0.4569 0.2555 0.1173
C88 C 0.4913(8) 0.2206(2) 0.1683(2)
C89 C 0.4944(8) 0.2215(2) 0.2118(2)
H65 H 0.5155 0.1973 0.2272
C90 C 0.4676(8) 0.2565(2) 0.2317(2)
C91 C 0.4433(7) 0.2925(2) 0.2085(2)
C92 C 0.5217(8) 0.1813(2) 0.1459(2)
C93 C 0.6331(13) 0.1886(4) 0.1218(5)
H66 H 0.6147 0.2117 0.1031
H67 H 0.7080 0.1947 0.1409
H68 H 0.6481 0.1640 0.1059
C94 C 0.4096(12) 0.1686(4) 0.1155(4)
H69 H 0.3869 0.1910 0.0963
H70 H 0.4320 0.1444 0.1002
H71 H 0.3382 0.1621 0.1305
C95 C 0.5523(15) 0.1453(3) 0.1747(3)
H72 H 0.4815 0.1402 0.1904
H73 H 0.5677 0.1209 0.1586
H74 H 0.6275 0.1516 0.1936
C96 C 0.4849(7) 0.20145(19) 0.3193(2)
C97 C 0.4561(8) 0.1671(2) 0.2964(2)
H75 H 0.4259 0.1687 0.2681
C98 C 0.4735(8) 0.1289(2) 0.3168(2)
S6 S 0.4429(3) 0.08144(6) 0.29314(7)
C99 C 0.4934(9) 0.0569(2) 0.3386(2)
Br6 Br 0.49532(13) -0.00037(3) 0.34132(3)
C100 C 0.5288(8) 0.0821(2) 0.3698(2)
H76 H 0.5586 0.0732 0.3968
C101 C 0.5167(8) 0.1240(2) 0.3581(2)
C102 C 0.5409(7) 0.1599(2) 0.3826(2)
C103 C 0.5798(8) 0.1616(2) 0.4252(2)
H77 H 0.5961 0.1368 0.4399
C104 C 0.5948(8) 0.1983(2) 0.4460(2)
C105 C 0.5693(8) 0.2358(2) 0.4238(2)
H78 H 0.5804 0.2612 0.4378
C106 C 0.5287(8) 0.2352(2) 0.3824(2)
C107 C 0.5196(7) 0.1968(2) 0.3622(2)
C108 C 0.6322(8) 0.2010(2) 0.4922(2)
C109 C 0.7421(9) 0.2301(3) 0.5019(3)
H79 H 0.7203 0.2569 0.4897
H80 H 0.7609 0.2330 0.5317
H81 H 0.8159 0.2192 0.4905
C110 C 0.5210(9) 0.2170(4) 0.5125(3)
H82 H 0.4494 0.1985 0.5065
H83 H 0.5440 0.2186 0.5423
H84 H 0.4981 0.2443 0.5018
C111 C 0.6666(12) 0.1594(3) 0.5113(3)
H85 H 0.5960 0.1405 0.5051
H86 H 0.7405 0.1486 0.4999
H87 H 0.6856 0.1624 0.5411
Cl1 Cl 0.7007(4) 0.38428(17) 0.12957(15)
Cl2 Cl 0.7684(4) 0.29219(18) 0.12365(14)
C115 C 0.7314(7) 0.3553(3) 0.1732(2)
C116 C 0.7631(8) 0.3142(3) 0.1708(2)
C117 C 0.7871(7) 0.2912(2) 0.2065(3)
H97 H 0.8087 0.2631 0.2049
C118 C 0.7794(8) 0.3092(3) 0.2445(2)
H98 H 0.7958 0.2935 0.2689
C119 C 0.7478(8) 0.3503(4) 0.2468(2)
H99 H 0.7425 0.3627 0.2728
C120 C 0.7238(8) 0.3734(3) 0.2112(3)
H100 H 0.7021 0.4015 0.2127
Cl3 Cl -0.1492(6) 0.24833(18) 0.3571(2)
Cl4 Cl -0.2158(10) 0.1968(3) 0.2784(2)
C121 C -0.1438(18) 0.1950(3) 0.3600(3)
C122 C -0.1765(16) 0.1721(3) 0.3246(3)
C123 C -0.1765(17) 0.1296(3) 0.3266(3)
H101 H -0.1988 0.1140 0.3024
C124 C -0.1438(18) 0.1100(3) 0.3639(4)
H102 H -0.1437 0.0810 0.3652
C125 C -0.1111(15) 0.1329(4) 0.3992(3)
H103 H -0.0887 0.1195 0.4247
C126 C -0.1111(16) 0.1754(4) 0.3973(3)
H104 H -0.0888 0.1910 0.4214
Cl9 Cl 0.181(3) 0.5241(8) 0.5569(9)
Cl10 Cl 0.1452(12) 0.5142(4) 0.6322(6)
C139 C 0.186(3) 0.5712(5) 0.5819(5)
C140 C 0.170(3) 0.5662(4) 0.6231(6)
C141 C 0.170(3) 0.6001(5) 0.6486(5)
H113 H 0.1589 0.5967 0.6768
C142 C 0.185(2) 0.6391(4) 0.6330(6)
H114 H 0.1843 0.6623 0.6504
C143 C 0.200(2) 0.6441(5) 0.5918(6)
H115 H 0.2107 0.6707 0.5811
C144 C 0.201(3) 0.6102(6) 0.5663(5)
H116 H 0.2118 0.6136 0.5381
Cl11 Cl 0.9928(14) 0.4462(7) -0.0111(8)
Cl12 Cl 0.8247(14) 0.4818(3) -0.0761(3)
C145 C 0.8425(11) 0.4540(6) 0.0004(5)
C146 C 0.7614(13) 0.4696(5) -0.0320(4)
C147 C 0.6356(12) 0.4760(5) -0.0274(4)
H117 H 0.5801 0.4867 -0.0495
C148 C 0.5909(11) 0.4668(5) 0.0097(4)
H118 H 0.5049 0.4711 0.0129
C149 C 0.6720(15) 0.4512(5) 0.0421(4)
H119 H 0.6415 0.4449 0.0674
C150 C 0.7978(14) 0.4448(6) 0.0374(4)
H120 H 0.8533 0.4342 0.0596
C55? C -0.028(3) 0.5020(8) 0.2413(5)
H40? H -0.0891 0.4864 0.2552
H41? H 0.0547 0.5004 0.2573
H42? H -0.0548 0.5307 0.2388
C56? C -0.1532(17) 0.4873(10) 0.1758(8)
H43? H -0.2116 0.4714 0.1904
H44? H -0.1796 0.5160 0.1745
H45? H -0.1532 0.4766 0.1479
C57? C 0.072(2) 0.5082(9) 0.1774(9)
H46? H 0.1555 0.5055 0.1928
H47? H 0.0738 0.4976 0.1496
H48? H 0.0473 0.5371 0.1761
C112? C 0.432(3) 0.1476(11) 0.1550(13)
H88? H 0.4335 0.1445 0.1848
H89? H 0.3468 0.1546 0.1429
H90? H 0.4579 0.1218 0.1432
C113? C 0.655(2) 0.1697(14) 0.1638(12)
H91? H 0.7131 0.1915 0.1579
H92? H 0.6577 0.1662 0.1936
H93? H 0.6791 0.1441 0.1514
C114? C 0.519(4) 0.1860(11) 0.0997(5)
H94? H 0.5775 0.2078 0.0938
H95? H 0.5453 0.1602 0.0879
H96? H 0.4342 0.1930 0.0876
Cl5? Cl -0.214(3) 0.2026(10) 0.2938(7)
Cl6? Cl -0.2113(13) 0.1092(4) 0.3002(5)
C127? C -0.166(3) 0.1802(6) 0.3398(5)
C128? C -0.164(3) 0.1378(6) 0.3432(5)
C129? C -0.126(3) 0.1196(4) 0.3809(6)
H105? H -0.1244 0.0906 0.3833
C130? C -0.091(2) 0.1438(6) 0.4152(5)
H106? H -0.0657 0.1313 0.4410
C131? C -0.094(3) 0.1862(5) 0.4118(5)
H107? H -0.0700 0.2027 0.4352
C132? C -0.131(3) 0.2044(5) 0.3741(7)
H108? H -0.1330 0.2334 0.3717
Cl7? Cl 0.2171(11) 0.6259(4) 0.5294(4)
Cl8? Cl 0.1942(19) 0.5389(5) 0.5629(7)
C133? C 0.200(3) 0.6199(5) 0.5823(5)
C134? C 0.185(4) 0.5803(5) 0.5962(7)
C135? C 0.165(5) 0.5735(7) 0.6368(8)
H109? H 0.1548 0.5464 0.6463
C136? C 0.162(6) 0.6063(9) 0.6636(6)
H110? H 0.1489 0.6017 0.6914
C137? C 0.178(4) 0.6460(8) 0.6497(6)
H111? H 0.1752 0.6684 0.6679
C138? C 0.197(3) 0.6527(5) 0.6090(6)
H112? H 0.2074 0.6798 0.5995
Cl13? Cl 1.0206(10) 0.4394(5) 0.0110(4)
Cl14? Cl 0.7954(12) 0.4381(3) 0.0594(3)
C151? C 0.8795(15) 0.4580(11) -0.0109(6)
C152? C 0.7732(16) 0.4538(9) 0.0093(5)
C153? C 0.6570(14) 0.4666(9) -0.0095(6)
H121? H 0.5843 0.4637 0.0043
C154? C 0.6471(17) 0.4837(9) -0.0486(6)
H122? H 0.5677 0.4924 -0.0615
C155? C 0.753(2) 0.4879(10) -0.0688(6)
H123? H 0.7467 0.4995 -0.0955
C156? C 0.8697(19) 0.4750(12) -0.0499(7)
H124? H 0.9424 0.4779 -0.0637
loop_
_geom_bond_atom_site_label_1
_geom_bond_atom_site_label_2
_geom_bond_site_symmetry_1
_geom_bond_site_symmetry_2
C1 C2 1_555 1_555
C2 C3 1_555 1_555
C3 C4 1_555 1_555
C4 C5 1_555 1_555
C5 C6 1_555 1_555
C6 C1 1_555 1_555
C7 C1 1_555 1_555
C8 C7 1_555 1_555
H1 C8 1_555 1_555
C9 C8 1_555 1_555
S1 C9 1_555 1_555
C10 S1 1_555 1_555
Br1 C10 1_555 1_555
C11 C10 1_555 1_555
H2 C11 1_555 1_555
C12 C9 1_555 1_555
C13 C12 1_555 1_555
C14 C13 1_555 1_555
H3 C14 1_555 1_555
C15 C14 1_555 1_555
C16 C15 1_555 1_555
H4 C16 1_555 1_555
C17 C2 1_555 1_555
C18 C7 1_555 1_555
C19 C15 1_555 1_555
C20 C19 1_555 1_555
H5 C20 1_555 1_555
H6 C20 1_555 1_555
H7 C20 1_555 1_555
C21 C19 1_555 1_555
H8 C21 1_555 1_555
H9 C21 1_555 1_555
H10 C21 1_555 1_555
C22 C19 1_555 1_555
H11 C22 1_555 1_555
H12 C22 1_555 1_555
H13 C22 1_555 1_555
C23 C3 1_555 1_555
C24 C23 1_555 1_555
H14 C24 1_555 1_555
C25 C24 1_555 1_555
S2 C25 1_555 1_555
C26 S2 1_555 1_555
Br2 C26 1_555 1_555
C27 C26 1_555 1_555
H15 C27 1_555 1_555
C28 C25 1_555 1_555
C29 C28 1_555 1_555
C30 C29 1_555 1_555
H16 C30 1_555 1_555
C31 C30 1_555 1_555
C32 C31 1_555 1_555
H17 C32 1_555 1_555
C33 C4 1_555 1_555
C34 C23 1_555 1_555
C35 C31 1_555 1_555
C36 C35 1_555 1_555
H18 C36 1_555 1_555
H19 C36 1_555 1_555
H20 C36 1_555 1_555
C37 C35 1_555 1_555
H21 C37 1_555 1_555
H22 C37 1_555 1_555
H23 C37 1_555 1_555
C38 C35 1_555 1_555
H24 C38 1_555 1_555
H25 C38 1_555 1_555
H26 C38 1_555 1_555
C39 C5 1_555 1_555
C40 C39 1_555 1_555
H27 C40 1_555 1_555
C41 C40 1_555 1_555
S3 C41 1_555 1_555
C42 S3 1_555 1_555
Br3 C42 1_555 1_555
C43 C42 1_555 1_555
H28 C43 1_555 1_555
C44 C41 1_555 1_555
C45 C44 1_555 1_555
C46 C45 1_555 1_555
H29 C46 1_555 1_555
C47 C46 1_555 1_555
C48 C47 1_555 1_555
H30 C48 1_555 1_555
C49 C6 1_555 1_555
C50 C39 1_555 1_555
C51 C47 1_555 1_555
C52 C51 1_555 1_555
H31 C52 1_555 1_555
H32 C52 1_555 1_555
H33 C52 1_555 1_555
C53 C51 1_555 1_555
H34 C53 1_555 1_555
H35 C53 1_555 1_555
H36 C53 1_555 1_555
C54 C51 1_555 1_555
H37 C54 1_555 1_555
H38 C54 1_555 1_555
H39 C54 1_555 1_555
C58 C59 1_555 1_555
C59 C60 1_555 1_555
C60 C61 1_555 1_555
C61 C62 1_555 1_555
C62 C63 1_555 1_555
C63 C58 1_555 1_555
C64 C58 1_555 1_555
C65 C64 1_555 1_555
H49 C65 1_555 1_555
C66 C65 1_555 1_555
S4 C66 1_555 1_555
C67 S4 1_555 1_555
Br4 C67 1_555 1_555
C68 C67 1_555 1_555
H50 C68 1_555 1_555
C69 C66 1_555 1_555
C70 C69 1_555 1_555
C71 C70 1_555 1_555
H51 C71 1_555 1_555
C72 C71 1_555 1_555
C73 C72 1_555 1_555
H52 C73 1_555 1_555
C74 C59 1_555 1_555
C75 C64 1_555 1_555
C76 C72 1_555 1_555
C77 C76 1_555 1_555
H53 C77 1_555 1_555
H54 C77 1_555 1_555
H55 C77 1_555 1_555
C78 C76 1_555 1_555
H56 C78 1_555 1_555
H57 C78 1_555 1_555
H58 C78 1_555 1_555
C79 C76 1_555 1_555
H59 C79 1_555 1_555
H60 C79 1_555 1_555
H61 C79 1_555 1_555
C80 C60 1_555 1_555
C81 C80 1_555 1_555
H62 C81 1_555 1_555
C82 C81 1_555 1_555
S5 C82 1_555 1_555
C83 S5 1_555 1_555
Br5 C83 1_555 1_555
C84 C83 1_555 1_555
H63 C84 1_555 1_555
C85 C82 1_555 1_555
C86 C85 1_555 1_555
C87 C86 1_555 1_555
H64 C87 1_555 1_555
C88 C87 1_555 1_555
C89 C88 1_555 1_555
H65 C89 1_555 1_555
C90 C61 1_555 1_555
C91 C80 1_555 1_555
C92 C88 1_555 1_555
C93 C92 1_555 1_555
H66 C93 1_555 1_555
H67 C93 1_555 1_555
H68 C93 1_555 1_555
C94 C92 1_555 1_555
H69 C94 1_555 1_555
H70 C94 1_555 1_555
H71 C94 1_555 1_555
C95 C92 1_555 1_555
H72 C95 1_555 1_555
H73 C95 1_555 1_555
H74 C95 1_555 1_555
C96 C62 1_555 1_555
C97 C96 1_555 1_555
H75 C97 1_555 1_555
C98 C97 1_555 1_555
S6 C98 1_555 1_555
C99 S6 1_555 1_555
Br6 C99 1_555 1_555
C100 C99 1_555 1_555
H76 C100 1_555 1_555
C101 C98 1_555 1_555
C102 C101 1_555 1_555
C103 C102 1_555 1_555
H77 C103 1_555 1_555
C104 C103 1_555 1_555
C105 C104 1_555 1_555
H78 C105 1_555 1_555
C106 C63 1_555 1_555
C107 C96 1_555 1_555
C108 C104 1_555 1_555
C109 C108 1_555 1_555
H79 C109 1_555 1_555
H80 C109 1_555 1_555
H81 C109 1_555 1_555
C110 C108 1_555 1_555
H82 C110 1_555 1_555
H83 C110 1_555 1_555
H84 C110 1_555 1_555
C111 C108 1_555 1_555
H85 C111 1_555 1_555
H86 C111 1_555 1_555
H87 C111 1_555 1_555
Cl1 C115 1_555 1_555
Cl2 C116 1_555 1_555
C115 C116 1_555 1_555
C116 C117 1_555 1_555
C117 H97 1_555 1_555
C118 C117 1_555 1_555
H98 C118 1_555 1_555
C119 C118 1_555 1_555
H99 C119 1_555 1_555
C120 C115 1_555 1_555
H100 C120 1_555 1_555
Cl3 C121 1_555 1_555
Cl4 C122 1_555 1_555
C121 C122 1_555 1_555
C122 C123 1_555 1_555
C123 H101 1_555 1_555
C124 C123 1_555 1_555
H102 C124 1_555 1_555
C125 C124 1_555 1_555
H103 C125 1_555 1_555
C126 C121 1_555 1_555
H104 C126 1_555 1_555
Cl9 C139 1_555 1_555
Cl10 C140 1_555 1_555
C139 C140 1_555 1_555
C140 C141 1_555 1_555
C141 H113 1_555 1_555
C142 C141 1_555 1_555
H114 C142 1_555 1_555
C143 C142 1_555 1_555
H115 C143 1_555 1_555
C144 C139 1_555 1_555
H116 C144 1_555 1_555
Cl11 C145 1_555 1_555
Cl12 C146 1_555 1_555
C145 C146 1_555 1_555
C146 C147 1_555 1_555
C147 H117 1_555 1_555
C148 C147 1_555 1_555
H118 C148 1_555 1_555
C149 C148 1_555 1_555
H119 C149 1_555 1_555
C150 C145 1_555 1_555
H120 C150 1_555 1_555
C11 C12 1_555 1_555
C13 C18 1_555 1_555
C16 C17 1_555 1_555
C17 C18 1_555 1_555
C27 C28 1_555 1_555
C29 C34 1_555 1_555
C32 C33 1_555 1_555
C33 C34 1_555 1_555
C43 C44 1_555 1_555
C45 C50 1_555 1_555
C48 C49 1_555 1_555
C49 C50 1_555 1_555
C68 C69 1_555 1_555
C70 C75 1_555 1_555
C73 C74 1_555 1_555
C74 C75 1_555 1_555
C84 C85 1_555 1_555
C86 C91 1_555 1_555
C89 C90 1_555 1_555
C90 C91 1_555 1_555
C100 C101 1_555 1_555
C102 C107 1_555 1_555
C105 C106 1_555 1_555
C106 C107 1_555 1_555
C119 C120 1_555 1_555
C125 C126 1_555 1_555
C143 C144 1_555 1_555
C149 C150 1_555 1_555

#END
