
#######################################################################
#
#                 Cambridge Crystallographic Data Centre
#                                CCDC 
#
#######################################################################
#
# If this CIF has been generated from an entry in the Cambridge 
# Structural Database, then it will include bibliographic, chemical, 
# crystal, experimental, refinement or atomic coordinate data resulting 
# from the CCDC's data processing and validation procedures.
#
#######################################################################

data_UJEPUU
_chemical_formula_moiety         'C66 H66 N40,2(C1 H1 Cl3),C2 H3 N1'
_chemical_name_systematic        
"Pyrimidine-4,6-dicarboxaldehyde 4,4'-bis(methyl(6-(1-methyl-2-((6-((2-methyl-2-(6-(1-methyl-2-(2-pyridylmethylene)hydrazino)pyrimidin-4-yl)hydrazono)methyl)pyrimidin-4-yl)methylene)hydrazino)pyrimidin-4-yl)hydrazone) 6,6'-((pyrimidine-4,6-diyl)bis(methylhydrazone)) chloroform acetonitrile solvate"
_symmetry_cell_setting           triclinic
_symmetry_space_group_name_H-M   'P -1'
_symmetry_Int_Tables_number      2
_space_group_name_Hall           '-P 1'
loop_
_symmetry_equiv_pos_site_id
_symmetry_equiv_pos_as_xyz
1 x,y,z
2 -x,-y,-z
_cell_length_a                   12.8281(3)
_cell_length_b                   17.2593(6)
_cell_length_c                   18.4109(5)
_cell_angle_alpha                87.701(5)
_cell_angle_beta                 79.546(5)
_cell_angle_gamma                78.697(5)
_cell_volume                     3930.79
_exptl_crystal_colour            colorless
_exptl_crystal_description       prism
_cell_formula_units_Z            2
_exptl_crystal_recrystallization_method chloroform/methanol
loop_
_atom_site_label
_atom_site_type_symbol
_atom_site_fract_x
_atom_site_fract_y
_atom_site_fract_z
N1 N 0.0811(9) 1.1666(7) 0.2716(6)
C1 C 0.097(1) 1.204(1) 0.3306(7)
C2 C 0.197(1) 1.2049(8) 0.3457(7)
C3 C 0.287(1) 1.1674(8) 0.2993(6)
C4 C 0.273(1) 1.1283(8) 0.2382(7)
C5 C 0.170(1) 1.1294(8) 0.2263(7)
C6 C 0.1486(9) 1.0900(9) 0.1632(7)
N2 N 0.2271(7) 1.0420(6) 0.1254(5)
N3 N 0.2141(7) 1.0065(6) 0.0644(5)
C7 C 0.114(1) 1.0225(9) 0.0341(8)
C8 C 0.3092(9) 0.9599(7) 0.0275(6)
N4 N 0.3068(8) 0.9324(6) -0.0393(6)
C9 C 0.399(1) 0.8904(8) -0.0740(6)
N5 N 0.4918(9) 0.8714(6) -0.0497(6)
C10 C 0.493(1) 0.8973(7) 0.0176(6)
C11 C 0.4030(9) 0.9432(7) 0.0597(6)
N6 N 0.5911(7) 0.8778(6) 0.0446(5)
C12 C 0.6871(9) 0.8313(8) 0.0023(7)
N7 N 0.5861(7) 0.9012(5) 0.1143(5)
C13 C 0.6702(9) 0.8897(8) 0.1441(7)
C14 C 0.6556(9) 0.9165(7) 0.2213(6)
N8 N 0.7479(7) 0.9147(7) 0.2481(6)
C15 C 0.7332(9) 0.9355(8) 0.3177(7)
N9 N 0.6427(7) 0.9600(6) 0.3639(5)
C16 C 0.5510(8) 0.9619(7) 0.3358(6)
C17 C 0.5550(9) 0.9402(7) 0.2643(6)
C18 C 0.4471(9) 0.9842(7) 0.3894(6)
N10 N 0.3631(7) 0.9777(6) 0.3657(5)
N11 N 0.2650(7) 0.9977(6) 0.4088(5)
C19 C 0.250(1) 1.0339(8) 0.4821(6)
C20 C 0.1774(9) 0.9904(7) 0.3756(6)
N12 N 0.0803(7) 1.0254(5) 0.4094(5)
C21 C -0.0012(8) 1.0180(7) 0.3752(6)
N13 N 0.0050(7) 0.9768(6) 0.3144(5)
C22 C 0.1034(8) 0.9395(7) 0.2834(6)
C23 C 0.1955(8) 0.9443(6) 0.3131(6)
N14 N 0.1094(7) 0.8939(6) 0.2224(5)
C24 C 0.0151(9) 0.8864(7) 0.1932(7)
N15 N 0.2105(6) 0.8520(5) 0.1954(5)
C25 C 0.2247(8) 0.8089(6) 0.1382(6)
C26 C 0.3308(9) 0.7615(6) 0.1099(6)
N16 N 0.3364(7) 0.7217(6) 0.0468(5)
C27 C 0.4304(9) 0.6777(8) 0.0195(6)
N17 N 0.5214(7) 0.6671(6) 0.0469(5)
C28 C 0.5165(8) 0.7066(7) 0.1095(6)
C29 C 0.4208(9) 0.7540(7) 0.1437(5)
C30 C 0.6183(9) 0.6905(7) 0.1400(6)
N18 N 0.6205(6) 0.7164(6) 0.2041(5)
N19 N 0.7157(7) 0.7059(6) 0.2274(5)
C31 C 0.8168(9) 0.672(1) 0.1808(7)
C32 C 0.7106(8) 0.7267(7) 0.2998(6)
N20 N 0.8057(7) 0.7269(6) 0.3217(6)
C33 C 0.7981(9) 0.7484(8) 0.3917(7)
N21 N 0.7087(7) 0.7728(6) 0.4405(5)
C34 C 0.6147(8) 0.7713(7) 0.4170(6)
C35 C 0.6131(8) 0.7513(7) 0.3456(6)
N22 N 0.5207(7) 0.7941(6) 0.4669(5)
C36 C 0.5180(9) 0.8174(8) 0.5425(6)
N23 N 0.4290(7) 0.7890(5) 0.4417(5)
C37 C 0.3370(8) 0.8107(6) 0.4820(6)
C38 C 0.2403(9) 0.8010(7) 0.4547(6)
N24 N 0.1452(7) 0.8372(6) 0.4968(5)
C39 C 0.0561(8) 0.8301(7) 0.4722(6)
N25 N 0.0467(7) 0.7932(6) 0.4132(5)
C40 C 0.1402(8) 0.7565(6) 0.3729(5)
C41 C 0.2401(8) 0.7588(6) 0.3918(6)
C42 C 0.1292(8) 0.7128(6) 0.3087(6)
N26 N 0.2104(6) 0.6667(5) 0.2719(4)
N27 N 0.1977(7) 0.6276(6) 0.2131(5)
C43 C 0.0945(9) 0.6347(7) 0.1894(6)
C44 C 0.2904(9) 0.5762(6) 0.1777(5)
N28 N 0.2810(7) 0.5394(6) 0.1170(4)
C45 C 0.370(1) 0.4957(7) 0.0843(6)
N29 N 0.4691(8) 0.4794(5) 0.1034(5)
C46 C 0.4738(9) 0.5156(7) 0.1653(5)
C47 C 0.3864(8) 0.5658(7) 0.2050(6)
N30 N 0.5730(7) 0.5019(6) 0.1900(5)
C48 C 0.673(1) 0.4604(9) 0.1455(7)
N31 N 0.5673(7) 0.5258(6) 0.2591(5)
C49 C 0.6514(8) 0.5196(7) 0.2902(6)
C50 C 0.6316(8) 0.5481(7) 0.3671(6)
N32 N 0.7199(7) 0.5520(6) 0.3945(5)
C51 C 0.6993(8) 0.5799(7) 0.4632(6)
N33 N 0.6048(7) 0.5999(6) 0.5080(5)
C52 C 0.5185(8) 0.5948(7) 0.4776(6)
C53 C 0.5274(8) 0.5689(7) 0.4063(6)
C54 C 0.4132(9) 0.6171(7) 0.5274(5)
N34 N 0.3274(7) 0.6087(5) 0.5026(5)
N35 N 0.2288(7) 0.6303(5) 0.5436(5)
C55 C 0.2116(9) 0.6669(7) 0.6153(6)
C56 C 0.1453(8) 0.6143(7) 0.5112(6)
N36 N 0.0430(7) 0.6475(6) 0.5458(5)
C57 C -0.0323(9) 0.6311(7) 0.5135(6)
N37 N -0.0295(7) 0.5894(6) 0.4557(5)
C58 C 0.0717(8) 0.5588(7) 0.4232(6)
C59 C 0.1637(8) 0.5694(6) 0.4483(5)
N38 N 0.0818(7) 0.5084(6) 0.3626(5)
C60 C -0.0119(8) 0.4976(8) 0.3323(6)
N39 N 0.1833(7) 0.4680(6) 0.3380(5)
C61 C 0.1983(9) 0.4195(7) 0.2838(6)
C62 C 0.3090(8) 0.3758(7) 0.2574(6)
N40 N 0.3214(8) 0.3386(6) 0.1924(5)
C63 C 0.421(1) 0.2967(8) 0.1681(7)
C64 C 0.505(1) 0.2904(8) 0.2030(7)
C65 C 0.493(1) 0.3280(8) 0.2689(6)
C66 C 0.392(1) 0.3720(8) 0.2975(6)
H1 H 0.0361 1.2310 0.3632
H2 H 0.2043 1.2315 0.3882
H3 H 0.3573 1.1680 0.3087
H4 H 0.3340 1.1012 0.2053
H5 H 0.0786 1.0997 0.1505
H6 H 0.3983 0.8717 -0.1217
H7 H 0.4043 0.9621 0.1072
H8 H 0.7443 0.8246 0.0297
H9 H 0.6732 0.7811 -0.0078
H10 H 0.7070 0.8577 -0.0429
H11 H 0.7388 0.8651 0.1181
H12 H 0.7973 0.9325 0.3375
H13 H 0.4907 0.9415 0.2451
H14 H 0.4448 1.0020 0.4379
H15 H 0.1758 1.0435 0.5036
H16 H 0.2901 0.9991 0.5130
H17 H 0.2755 1.0824 0.4769
H18 H -0.0711 1.0452 0.3968
H19 H 0.2657 0.9176 0.2915
H20 H 0.0359 0.8528 0.1514
H21 H -0.0332 0.8646 0.2299
H22 H -0.0197 0.9371 0.1790
H23 H 0.1657 0.8078 0.1139
H24 H 0.4336 0.6505 -0.0250
H25 H 0.4172 0.7804 0.1886
H26 H 0.6822 0.6609 0.1119
H27 H 0.8037 0.6616 0.1333
H28 H 0.8651 0.7077 0.1764
H29 H 0.8478 0.6237 0.2022
H30 H 0.8644 0.7461 0.4086
H31 H 0.5468 0.7543 0.3286
H32 H 0.4452 0.8308 0.5671
H33 H 0.5555 0.7748 0.5677
H34 H 0.5517 0.8619 0.5419
H35 H 0.3312 0.8328 0.5293
H36 H -0.0099 0.8552 0.5014
H37 H 0.3056 0.7326 0.3629
H38 H 0.0606 0.7188 0.2943
H39 H 0.1029 0.6026 0.1472
H40 H 0.0440 0.6179 0.2282
H41 H 0.0690 0.6882 0.1772
H42 H 0.3643 0.4712 0.0401
H43 H 0.3918 0.5917 0.2483
H44 H 0.7305 0.4572 0.1719
H45 H 0.6646 0.4087 0.1350
H46 H 0.6877 0.4884 0.1005
H47 H 0.7220 0.4979 0.2651
H48 H 0.7606 0.5864 0.4828
H49 H 0.4659 0.5657 0.3854
H50 H 0.4085 0.6368 0.5755
H51 H 0.1366 0.6776 0.6352
H52 H 0.2491 0.6322 0.6475
H53 H 0.2380 0.7149 0.6102
H54 H -0.1034 0.6542 0.5367
H55 H 0.2344 0.5473 0.4237
H56 H -0.0748 0.5313 0.3572
H57 H -0.0014 0.5102 0.2811
H58 H -0.0204 0.4441 0.3388
H59 H 0.1398 0.4122 0.2615
H60 H 0.4331 0.2697 0.1226
H61 H 0.5732 0.2598 0.1821
H62 H 0.5523 0.3243 0.2943
H63 H 0.3793 0.3986 0.3433
H64 H 0.0592 1.0551 0.0672
H65 H 0.1261 1.0486 -0.0122
H66 H 0.0925 0.9740 0.0275
C67 C 0.162(1) 0.850(1) 0.7607(8)
Cl1 Cl 0.2710(4) 0.8588(3) 0.6936(2)
Cl2 Cl 0.1766(5) 0.7440(3) 0.7840(3)
Cl3 Cl 0.1684(4) 0.8946(4) 0.8427(2)
C68 C 0.126(2) 0.394(1) 0.092(1)
Cl4 Cl -0.0086(6) 0.4497(6) 0.1402(4)
Cl5 Cl 0.1389(5) 0.4179(5) 0.0065(3)
Cl6 Cl 0.0957(7) 0.3063(6) 0.1251(5)
C69 C -0.133(1) 0.332(1) 1.0183(8)
C70 C -0.044(1) 0.267(1) 0.9880(8)
N41 N 0.024(1) 0.2198(9) 0.9609(7)
loop_
_geom_bond_atom_site_label_1
_geom_bond_atom_site_label_2
_geom_bond_site_symmetry_1
_geom_bond_site_symmetry_2
N1 C1 1_555 1_555
C1 C2 1_555 1_555
C2 C3 1_555 1_555
C3 C4 1_555 1_555
C4 C5 1_555 1_555
C5 N1 1_555 1_555
C6 C5 1_555 1_555
N2 C6 1_555 1_555
N3 N2 1_555 1_555
C7 N3 1_555 1_555
C8 N3 1_555 1_555
N4 C8 1_555 1_555
C9 N4 1_555 1_555
N5 C9 1_555 1_555
C10 N5 1_555 1_555
C11 C8 1_555 1_555
N6 C10 1_555 1_555
C12 N6 1_555 1_555
N7 N6 1_555 1_555
C13 N7 1_555 1_555
C14 C13 1_555 1_555
N8 C14 1_555 1_555
C15 N8 1_555 1_555
N9 C15 1_555 1_555
C16 N9 1_555 1_555
C17 C14 1_555 1_555
C18 C16 1_555 1_555
N10 C18 1_555 1_555
N11 N10 1_555 1_555
C19 N11 1_555 1_555
C20 N11 1_555 1_555
N12 C20 1_555 1_555
C21 N12 1_555 1_555
N13 C21 1_555 1_555
C22 N13 1_555 1_555
C23 C20 1_555 1_555
N14 C22 1_555 1_555
C24 N14 1_555 1_555
N15 N14 1_555 1_555
C25 N15 1_555 1_555
C26 C25 1_555 1_555
N16 C26 1_555 1_555
C27 N16 1_555 1_555
N17 C27 1_555 1_555
C28 N17 1_555 1_555
C29 C26 1_555 1_555
C30 C28 1_555 1_555
N18 C30 1_555 1_555
N19 N18 1_555 1_555
C31 N19 1_555 1_555
C32 N19 1_555 1_555
N20 C32 1_555 1_555
C33 N20 1_555 1_555
N21 C33 1_555 1_555
C34 N21 1_555 1_555
C35 C32 1_555 1_555
N22 C34 1_555 1_555
C36 N22 1_555 1_555
N23 N22 1_555 1_555
C37 N23 1_555 1_555
C38 C37 1_555 1_555
N24 C38 1_555 1_555
C39 N24 1_555 1_555
N25 C39 1_555 1_555
C40 N25 1_555 1_555
C41 C38 1_555 1_555
C42 C40 1_555 1_555
N26 C42 1_555 1_555
N27 N26 1_555 1_555
C43 N27 1_555 1_555
C44 N27 1_555 1_555
N28 C44 1_555 1_555
C45 N28 1_555 1_555
N29 C45 1_555 1_555
C46 N29 1_555 1_555
C47 C44 1_555 1_555
N30 C46 1_555 1_555
C48 N30 1_555 1_555
N31 N30 1_555 1_555
C49 N31 1_555 1_555
C50 C49 1_555 1_555
N32 C50 1_555 1_555
C51 N32 1_555 1_555
N33 C51 1_555 1_555
C52 N33 1_555 1_555
C53 C50 1_555 1_555
C54 C52 1_555 1_555
N34 C54 1_555 1_555
N35 N34 1_555 1_555
C55 N35 1_555 1_555
C56 N35 1_555 1_555
N36 C56 1_555 1_555
C57 N36 1_555 1_555
N37 C57 1_555 1_555
C58 N37 1_555 1_555
C59 C56 1_555 1_555
N38 C58 1_555 1_555
C60 N38 1_555 1_555
N39 N38 1_555 1_555
C61 N39 1_555 1_555
C62 C61 1_555 1_555
N40 C62 1_555 1_555
C63 N40 1_555 1_555
C64 C63 1_555 1_555
C65 C64 1_555 1_555
C66 C62 1_555 1_555
C67 Cl1 1_555 1_555
Cl2 C67 1_555 1_555
Cl3 C67 1_555 1_555
C68 Cl4 1_555 1_555
Cl5 C68 1_555 1_555
Cl6 C68 1_555 1_555
C69 C70 1_555 1_555
C70 N41 1_555 1_555
H1 C1 1_555 1_555
H2 C2 1_555 1_555
H3 C3 1_555 1_555
H4 C4 1_555 1_555
H5 C6 1_555 1_555
H6 C9 1_555 1_555
H7 C11 1_555 1_555
H8 C12 1_555 1_555
H9 C12 1_555 1_555
H10 C12 1_555 1_555
H11 C13 1_555 1_555
H12 C15 1_555 1_555
H13 C17 1_555 1_555
H14 C18 1_555 1_555
H15 C19 1_555 1_555
H16 C19 1_555 1_555
H17 C19 1_555 1_555
H18 C21 1_555 1_555
H19 C23 1_555 1_555
H20 C24 1_555 1_555
H21 C24 1_555 1_555
H22 C24 1_555 1_555
H23 C25 1_555 1_555
H24 C27 1_555 1_555
H25 C29 1_555 1_555
H26 C30 1_555 1_555
H27 C31 1_555 1_555
H28 C31 1_555 1_555
H29 C31 1_555 1_555
H30 C33 1_555 1_555
H31 C35 1_555 1_555
H32 C36 1_555 1_555
H33 C36 1_555 1_555
H34 C36 1_555 1_555
H35 C37 1_555 1_555
H36 C39 1_555 1_555
H37 C41 1_555 1_555
H38 C42 1_555 1_555
H39 C43 1_555 1_555
H40 C43 1_555 1_555
H41 C43 1_555 1_555
H42 C45 1_555 1_555
H43 C47 1_555 1_555
H44 C48 1_555 1_555
H45 C48 1_555 1_555
H46 C48 1_555 1_555
H47 C49 1_555 1_555
H48 C51 1_555 1_555
H49 C53 1_555 1_555
H50 C54 1_555 1_555
H51 C55 1_555 1_555
H52 C55 1_555 1_555
H53 C55 1_555 1_555
H54 C57 1_555 1_555
H55 C59 1_555 1_555
H56 C60 1_555 1_555
H57 C60 1_555 1_555
H58 C60 1_555 1_555
H59 C61 1_555 1_555
H60 C63 1_555 1_555
H61 C64 1_555 1_555
H62 C65 1_555 1_555
H63 C66 1_555 1_555
H64 C7 1_555 1_555
H65 C7 1_555 1_555
H66 C7 1_555 1_555
C10 C11 1_555 1_555
C16 C17 1_555 1_555
C22 C23 1_555 1_555
C28 C29 1_555 1_555
C34 C35 1_555 1_555
C40 C41 1_555 1_555
C46 C47 1_555 1_555
C52 C53 1_555 1_555
C58 C59 1_555 1_555
C65 C66 1_555 1_555

#END
