
#######################################################################
#
#                 Cambridge Crystallographic Data Centre
#                                CCDC 
#
#######################################################################
#
# If this CIF has been generated from an entry in the Cambridge 
# Structural Database, then it will include bibliographic, chemical, 
# crystal, experimental, refinement or atomic coordinate data resulting 
# from the CCDC's data processing and validation procedures.
#
#######################################################################

data_UJICUN
_chemical_name_common            
(E)-3-(4-hydroxyphenyl)-2-(2-phenylethenyl)quinazolin-4(3H)-one
_chemical_formula_moiety         'C22 H16 N2 O2'
_chemical_name_systematic        
(E)-3-(4-hydroxyphenyl)-2-(2-phenylvinyl)quinazolin-4(3H)-one
_symmetry_cell_setting           orthorhombic
_symmetry_space_group_name_H-M   'P 21 n b'
_symmetry_Int_Tables_number      33
_space_group_name_Hall           'P -2bc 2a'
loop_
_symmetry_equiv_pos_site_id
_symmetry_equiv_pos_as_xyz
1 x,y,z
2 1/2+x,-y,-z
3 1/2+x,1/2-y,1/2+z
4 x,1/2+y,1/2-z
_cell_length_a                   5.3469(2)
_cell_length_b                   16.5139(6)
_cell_length_c                   19.8885(10)
_cell_angle_alpha                90
_cell_angle_beta                 90
_cell_angle_gamma                90
_cell_volume                     1756.12
_exptl_crystal_colour            colorless
_exptl_crystal_description       plate
_cell_formula_units_Z            4
loop_
_atom_site_label
_atom_site_type_symbol
_atom_site_fract_x
_atom_site_fract_y
_atom_site_fract_z
N1 N 0.6956(7) 0.7742(2) 0.45545(18)
C1 C 0.8449(8) 0.7044(3) 0.4584(2)
N2 N 0.8479(7) 0.6500(2) 0.41192(18)
C2 C 0.6912(9) 0.6013(3) 0.3061(2)
H1 H 0.7956 0.5564 0.3096
C3 C 0.5358(9) 0.6089(3) 0.2518(2)
H2 H 0.5349 0.5690 0.2188
C4 C 0.3791(11) 0.6756(3) 0.2457(3)
H3 H 0.2738 0.6801 0.2086
C5 C 0.3795(12) 0.7346(3) 0.2939(3)
H4 H 0.2750 0.7793 0.2895
C6 C 0.5362(10) 0.7885(3) 0.4018(3)
C7 C 0.6946(8) 0.6604(3) 0.3564(2)
C8 C 0.5376(9) 0.7278(3) 0.3501(2)
O1 O 0.4054(7) 0.8506(2) 0.40120(19)
C9 C 0.7042(8) 0.8360(3) 0.5076(2)
C10 C 0.5181(8) 0.8382(3) 0.5557(2)
H5 H 0.3953 0.7983 0.5563
C11 C 0.5143(9) 0.8993(3) 0.6027(2)
H6 H 0.3905 0.9002 0.6356
C12 C 0.6941(8) 0.9595(3) 0.6013(2)
C13 C 0.8821(8) 0.9566(3) 0.5533(2)
H7 H 1.0059 0.9962 0.5528
C14 C 0.8859(8) 0.8951(3) 0.5064(2)
H8 H 1.0110 0.8936 0.4739
O2 O 0.6763(7) 1.01968(18) 0.64797(15)
H9 H 0.7583 1.0589 0.6356
C15 C 0.9961(7) 0.6928(3) 0.5188(2)
H10 H 0.9602 0.7230 0.5570
C16 C 1.1845(8) 0.6398(3) 0.5204(2)
H11 H 1.2220 0.6133 0.4804
C17 C 1.3390(9) 0.6191(3) 0.5794(2)
C18 C 1.2883(9) 0.6474(3) 0.6437(2)
H12 H 1.1527 0.6816 0.6508
C19 C 1.4371(8) 0.6252(3) 0.6973(3)
H13 H 1.4006 0.6441 0.7402
C20 C 1.6404(9) 0.5748(3) 0.6875(3)
H14 H 1.7421 0.5605 0.7235
C21 C 1.6909(10) 0.5460(3) 0.6243(3)
H15 H 1.8265 0.5117 0.6176
C22 C 1.5421(9) 0.5676(3) 0.5706(2)
H16 H 1.5779 0.5475 0.5280
loop_
_geom_bond_atom_site_label_1
_geom_bond_atom_site_label_2
_geom_bond_site_symmetry_1
_geom_bond_site_symmetry_2
N1 C1 1_555 1_555
C1 N2 1_555 1_555
N2 C7 1_555 1_555
C2 H1 1_555 1_555
C3 C2 1_555 1_555
H2 C3 1_555 1_555
C4 C3 1_555 1_555
H3 C4 1_555 1_555
C5 C4 1_555 1_555
H4 C5 1_555 1_555
C6 N1 1_555 1_555
C7 C2 1_555 1_555
C8 C5 1_555 1_555
O1 C6 1_555 1_555
C9 N1 1_555 1_555
C10 C9 1_555 1_555
H5 C10 1_555 1_555
C11 C10 1_555 1_555
H6 C11 1_555 1_555
C12 C11 1_555 1_555
C13 C12 1_555 1_555
H7 C13 1_555 1_555
C14 C9 1_555 1_555
H8 C14 1_555 1_555
O2 C12 1_555 1_555
H9 O2 1_555 1_555
C15 C1 1_555 1_555
H10 C15 1_555 1_555
C16 C15 1_555 1_555
H11 C16 1_555 1_555
C17 C16 1_555 1_555
C18 C17 1_555 1_555
H12 C18 1_555 1_555
C19 C18 1_555 1_555
H13 C19 1_555 1_555
C20 C19 1_555 1_555
H14 C20 1_555 1_555
C21 C20 1_555 1_555
H15 C21 1_555 1_555
C22 C17 1_555 1_555
H16 C22 1_555 1_555
C6 C8 1_555 1_555
C7 C8 1_555 1_555
C13 C14 1_555 1_555
C21 C22 1_555 1_555

#END
