
#######################################################################
#
#                 Cambridge Crystallographic Data Centre
#                                CCDC 
#
#######################################################################
#
# If this CIF has been generated from an entry in the Cambridge 
# Structural Database, then it will include bibliographic, chemical, 
# crystal, experimental, refinement or atomic coordinate data resulting 
# from the CCDC's data processing and validation procedures.
#
#######################################################################

data_UJIJUT
_chemical_formula_moiety         'C28 H23 N1 S3'
_chemical_name_systematic        
9-butyl-3-(2,2':5',2''-terthiophen-5-yl)-9H-carbazole
_symmetry_cell_setting           monoclinic
_symmetry_space_group_name_H-M   'P 21/n'
_symmetry_Int_Tables_number      14
_space_group_name_Hall           '-P 2yn'
loop_
_symmetry_equiv_pos_site_id
_symmetry_equiv_pos_as_xyz
1 x,y,z
2 1/2-x,1/2+y,1/2-z
3 -x,-y,-z
4 1/2+x,1/2-y,1/2+z
_cell_length_a                   5.83630(10)
_cell_length_b                   9.0422(2)
_cell_length_c                   44.0903(8)
_cell_angle_alpha                90
_cell_angle_beta                 92.4110(10)
_cell_angle_gamma                90
_cell_volume                     2324.72
_exptl_crystal_colour            yellow
_exptl_crystal_description       block
_cell_formula_units_Z            4
loop_
_atom_site_label
_atom_site_type_symbol
_atom_site_fract_x
_atom_site_fract_y
_atom_site_fract_z
S1 S 0.80959(16) -0.02665(11) 0.289029(19)
S2 S 0.1687(2) -0.03338(13) 0.13222(2)
S3 S 0.24841(16) 0.10687(11) 0.226298(19)
N1 N 1.4612(5) 0.0199(3) 0.41680(6)
C1 C 0.9491(5) 0.0369(3) 0.34882(7)
C2 C 0.1103(6) 0.0365(3) 0.16671(7)
C3 C -0.1103(5) 0.1117(4) 0.16720(7)
H1 H -0.1739 0.1599 0.1835
C4 C 1.2950(6) 0.0053(3) 0.39330(7)
C5 C 1.1386(5) 0.1228(3) 0.39510(6)
C6 C 0.7737(6) 0.0553(3) 0.32385(7)
C7 C 0.4827(5) 0.0150(4) 0.24286(7)
C8 C 1.2104(5) 0.2114(3) 0.42116(6)
C9 C 0.4551(6) -0.0806(4) 0.19426(7)
H2 H 0.4975 -0.1400 0.1782
C10 C 0.2752(6) 0.0134(4) 0.19249(7)
C11 C 0.5724(6) -0.0798(4) 0.22290(8)
H3 H 0.6995 -0.1389 0.2276
C12 C 1.4123(6) 0.1441(4) 0.43348(7)
C13 C 0.5568(5) 0.0467(4) 0.27421(7)
C14 C 1.1035(6) -0.0810(4) 0.34877(8)
H4 H 1.0883 -0.1508 0.3333
C15 C 0.9645(5) 0.1388(3) 0.37237(6)
H5 H 0.8608 0.2167 0.3731
C16 C 1.6208(6) -0.1931(4) 0.44533(8)
H6 H 1.5078 -0.2625 0.4371
H7 H 1.5596 -0.1484 0.4633
C17 C 1.6608(6) -0.0747(4) 0.42225(8)
H8 H 1.7899 -0.0144 0.4292
H9 H 1.7000 -0.1208 0.4033
C18 C 1.1296(6) 0.3395(4) 0.43440(8)
H10 H 0.9967 0.3851 0.4267
C19 C 1.4484(7) 0.3315(4) 0.47081(8)
H11 H 1.5270 0.3740 0.4874
C20 C 1.5317(7) 0.2050(4) 0.45853(8)
H12 H 1.6644 0.1606 0.4666
C21 C 1.2778(7) -0.0988(4) 0.37064(8)
H13 H 1.3792 -0.1780 0.3701
C22 C 0.4563(6) 0.1316(5) 0.29489(8)
H14 H 0.3197 0.1824 0.2909
C23 C -0.0822(7) 0.0235(4) 0.11671(8)
H15 H -0.1274 0.0073 0.0965
C24 C 0.5785(6) 0.1359(4) 0.32311(8)
H16 H 0.5295 0.1892 0.3397
C25 C 1.2505(7) 0.3983(4) 0.45928(8)
H17 H 1.1976 0.4839 0.4683
C26 C -0.2100(7) 0.0942(5) 0.13613(10)
H18 H -0.3545 0.1308 0.1305
C27 C 1.8421(7) -0.2767(4) 0.45431(9)
H19 H 1.8035 -0.3669 0.4648
H20 H 1.9195 -0.3041 0.4361
C28 C 2.0019(7) -0.1857(5) 0.47439(10)
H21 H 2.0463 -0.0985 0.4637
H22 H 2.1359 -0.2429 0.4799
H23 H 1.9257 -0.1577 0.4924
loop_
_geom_bond_atom_site_label_1
_geom_bond_atom_site_label_2
_geom_bond_site_symmetry_1
_geom_bond_site_symmetry_2
S1 C6 1_555 1_555
S2 C2 1_555 1_555
S3 C7 1_555 1_555
N1 C4 1_555 1_555
C1 C6 1_555 1_555
C2 C3 1_555 1_555
C3 H1 1_555 1_555
C4 C5 1_555 1_555
C5 C8 1_555 1_555
C6 C24 1_555 1_555
C7 C11 1_555 1_555
C8 C12 1_555 1_555
C9 H2 1_555 1_555
C10 S3 1_555 1_555
C11 C9 1_555 1_555
H3 C11 1_555 1_555
C12 N1 1_555 1_555
C13 S1 1_555 1_555
C14 C1 1_555 1_555
H4 C14 1_555 1_555
C15 C1 1_555 1_555
H5 C15 1_555 1_555
C16 H6 1_555 1_555
H7 C16 1_555 1_555
C17 N1 1_555 1_555
H8 C17 1_555 1_555
H9 C17 1_555 1_555
C18 C8 1_555 1_555
H10 C18 1_555 1_555
C19 H11 1_555 1_555
C20 C12 1_555 1_555
H12 C20 1_555 1_555
C21 C4 1_555 1_555
H13 C21 1_555 1_555
C22 C13 1_555 1_555
H14 C22 1_555 1_555
C23 S2 1_555 1_555
H15 C23 1_555 1_555
C24 C22 1_555 1_555
H16 C24 1_555 1_555
C25 C18 1_555 1_555
H17 C25 1_555 1_555
C26 C3 1_555 1_555
H18 C26 1_555 1_555
C27 C16 1_555 1_555
H19 C27 1_555 1_555
H20 C27 1_555 1_555
C28 C27 1_555 1_555
H21 C28 1_555 1_555
H22 C28 1_555 1_555
H23 C28 1_555 1_555
C2 C10 1_555 1_555
C5 C15 1_555 1_555
C7 C13 1_555 1_555
C9 C10 1_555 1_555
C14 C21 1_555 1_555
C16 C17 1_555 1_555
C19 C20 1_555 1_555
C19 C25 1_555 1_555
C23 C26 1_555 1_555

#END
