
#######################################################################
#
#                 Cambridge Crystallographic Data Centre
#                                CCDC 
#
#######################################################################
#
# If this CIF has been generated from an entry in the Cambridge 
# Structural Database, then it will include bibliographic, chemical, 
# crystal, experimental, refinement or atomic coordinate data resulting 
# from the CCDC's data processing and validation procedures.
#
#######################################################################

data_UJIPEI
_chemical_compound_source        
'Tubercularia sp., a novel endophytic fungus of Taxus mairei'
_chemical_formula_moiety         'C30 H37 N1 O6,C2 H6 O1 S1'
_chemical_name_systematic        'Cytochalasin D dimethylsulfoxide solvate'
_chemical_properties_biological  
'high cytotoxicity against human cancer cell lines'
_symmetry_cell_setting           monoclinic
_symmetry_space_group_name_H-M   'P 21'
_symmetry_Int_Tables_number      4
_space_group_name_Hall           'P 2yb'
loop_
_symmetry_equiv_pos_site_id
_symmetry_equiv_pos_as_xyz
1 x,y,z
2 -x,1/2+y,-z
_cell_length_a                   7.58300(10)
_cell_length_b                   11.05270(10)
_cell_length_c                   18.63180(10)
_cell_angle_alpha                90
_cell_angle_beta                 95.79
_cell_angle_gamma                90
_cell_volume                     1553.61
_exptl_crystal_colour            colorless
_exptl_crystal_description       prism
_chemical_melting_point          268-271deg.C
_cell_formula_units_Z            2
_exptl_crystal_recrystallization_method '2:1 dimethylsulfoxide/ethyl acetate'
loop_
_atom_site_label
_atom_site_type_symbol
_atom_site_fract_x
_atom_site_fract_y
_atom_site_fract_z
N1 N 0.1686(14) 0.2805(13) 0.2443(6)
H1 H 0.0734 0.2487 0.2574
O1 O 0.5766(11) 0.5600(10) 0.2228(5)
O2 O 0.3166(11) 0.2879(12) 0.3585(5)
C1 C 0.4858(6) 0.0281(5) 0.1751(3)
H2 H 0.4218 0.0062 0.1318
H3 H 0.5155 -0.0300 0.2103
O3 O 0.6384(6) 0.5251(5) 0.5311(3)
O5 O 0.8261(6) 0.1480(5) 0.2518(3)
H4 H 0.8412 0.0751 0.2579
O6 O 0.4035(6) 0.6707(5) 0.4708(3)
H5 H 0.3361 0.7201 0.4498
O7 O 0.3793(6) 0.6951(5) 0.1729(3)
C2 C 0.7070(6) 0.3382(5) 0.3498(3)
H6 H 0.6509 0.3027 0.3866
C3 C 0.4455(15) 0.3696(14) 0.2508(7)
C4 C 0.3834(14) 0.3440(16) 0.1697(7)
H7 H 0.3879 0.4194 0.1423
C5 C 0.1822(15) 0.3039(13) 0.1708(8)
H8 H 0.1598 0.2296 0.1426
C6 C 0.6372(15) 0.3117(15) 0.2719(7)
H9 H 0.7192 0.3485 0.2408
C7 C 0.037(2) 0.4230(18) 0.0615(9)
C8 C 0.4956(16) 0.2448(15) 0.1345(8)
H10 H 0.6109 0.2825 0.1301
C9 C 0.124(2) 0.516(3) -0.0438(14)
H11 H 0.1868 0.5792 -0.0623
C10 C 0.6361(16) 0.1787(15) 0.2587(9)
H12 H 0.5924 0.1350 0.2991
C11 C 0.5338(16) 0.1405(15) 0.1863(8)
C12 C 0.9178(19) 0.4427(16) 0.4418(8)
H13 H 1.0450 0.4297 0.4469
H14 H 0.8669 0.3876 0.4747
C13 C 0.130(2) 0.499(2) 0.0272(11)
H15 H 0.2116 0.5457 0.0556
C14 C 0.4406(16) 0.5037(14) 0.2639(7)
H16 H 0.3249 0.5328 0.2426
C15 C 0.3055(15) 0.3081(14) 0.2948(8)
C16 C -0.079(3) 0.358(3) -0.0566(12)
H17 H -0.1584 0.3090 -0.0846
C17 C -0.065(2) 0.346(2) 0.0167(11)
H18 H -0.1273 0.2842 0.0369
C18 C 1.008(2) 0.6079(19) 0.5345(9)
H19 H 0.9840 0.6894 0.5485
H20 H 1.1291 0.6015 0.5243
H21 H 0.9875 0.5537 0.5731
C20 C 0.0513(17) 0.4075(18) 0.1398(8)
H25 H -0.0658 0.3904 0.1539
H26 H 0.0903 0.4835 0.1621
C21 C 0.426(2) 0.209(2) 0.0585(8)
H27 H 0.4050 0.2803 0.0295
H28 H 0.3168 0.1651 0.0596
H29 H 0.5114 0.1587 0.0382
C22 C 0.020(3) 0.439(2) -0.0900(11)
H30 H 0.0184 0.4425 -0.1399
C23 C 0.8813(18) 0.5732(17) 0.4649(8)
H31 H 0.8997 0.6292 0.4256
C24 C 0.5583(17) 0.6422(16) 0.3661(9)
H32 H 0.6161 0.6893 0.3343
C25 C 0.6897(18) 0.5836(16) 0.4845(8)
C27 C 0.8478(16) 0.4114(14) 0.3675(8)
H36 H 0.9044 0.4445 0.3300
C28 C 0.6464(18) 0.8053(15) 0.4557(8)
H37 H 0.6562 0.8227 0.5064
H38 H 0.5658 0.8615 0.4305
H39 H 0.7608 0.8125 0.4383
C29 C 0.4640(16) 0.5473(15) 0.3384(7)
H40 H 0.4053 0.5031 0.3711
C30 C 0.5776(15) 0.6779(16) 0.4428(8)
C31 C 0.533(2) 0.6506(17) 0.1792(8)
C32 C 0.674(2) 0.6985(19) 0.1394(9)
H41 H 0.7804 0.6528 0.1514
H42 H 0.6948 0.7818 0.1522
H43 H 0.6392 0.6924 0.0886
O4 O 0.1248(6) 0.4081(5) -0.2711(3)
C19 C -0.065(2) 0.2134(17) -0.2907(11)
H22 H 0.0319 0.1589 -0.2949
H23 H -0.1701 0.1821 -0.3174
H24 H -0.0848 0.2216 -0.2409
C26 C -0.217(2) 0.434(2) -0.3104(11)
H33 H -0.2114 0.5157 -0.3273
H34 H -0.2309 0.4339 -0.2598
H35 H -0.3158 0.3933 -0.3362
S1 S -0.0142(5) 0.3558(5) -0.3255(3)
loop_
_geom_bond_atom_site_label_1
_geom_bond_atom_site_label_2
_geom_bond_site_symmetry_1
_geom_bond_site_symmetry_2
N1 H1 1_555 1_555
O1 C14 1_555 1_555
O2 C15 1_555 1_555
C1 H2 1_555 1_555
H3 C1 1_555 1_555
O3 C25 1_555 1_555
O4 S1 1_555 1_555
O5 H4 1_555 1_555
O6 H5 1_555 1_555
O7 C31 1_555 1_555
C2 H6 1_555 1_555
C3 C4 1_555 1_555
C4 H7 1_555 1_555
C5 N1 1_555 1_555
H8 C5 1_555 1_555
C6 C2 1_555 1_555
H9 C6 1_555 1_555
C7 C13 1_555 1_555
C8 C4 1_555 1_555
H10 C8 1_555 1_555
C9 H11 1_555 1_555
C10 O5 1_555 1_555
H12 C10 1_555 1_555
C11 C1 1_555 1_555
C12 H13 1_555 1_555
H14 C12 1_555 1_555
C13 C9 1_555 1_555
H15 C13 1_555 1_555
C14 C3 1_555 1_555
H16 C14 1_555 1_555
C15 N1 1_555 1_555
C16 H17 1_555 1_555
C17 C7 1_555 1_555
H18 C17 1_555 1_555
C18 H19 1_555 1_555
H20 C18 1_555 1_555
H21 C18 1_555 1_555
C19 H22 1_555 1_555
H23 C19 1_555 1_555
H24 C19 1_555 1_555
C20 C5 1_555 1_555
H25 C20 1_555 1_555
H26 C20 1_555 1_555
C21 C8 1_555 1_555
H27 C21 1_555 1_555
H28 C21 1_555 1_555
H29 C21 1_555 1_555
C22 C9 1_555 1_555
H30 C22 1_555 1_555
C23 C12 1_555 1_555
H31 C23 1_555 1_555
C24 H32 1_555 1_555
C25 C23 1_555 1_555
C26 H33 1_555 1_555
H34 C26 1_555 1_555
H35 C26 1_555 1_555
C27 C2 1_555 1_555
H36 C27 1_555 1_555
C28 H37 1_555 1_555
H38 C28 1_555 1_555
H39 C28 1_555 1_555
C29 C14 1_555 1_555
H40 C29 1_555 1_555
C30 O6 1_555 1_555
C31 O1 1_555 1_555
C32 C31 1_555 1_555
H41 C32 1_555 1_555
H42 C32 1_555 1_555
H43 C32 1_555 1_555
S1 C19 1_555 1_555
C3 C6 1_555 1_555
C3 C15 1_555 1_555
C4 C5 1_555 1_555
C6 C10 1_555 1_555
C7 C20 1_555 1_555
C8 C11 1_555 1_555
C10 C11 1_555 1_555
C12 C27 1_555 1_555
C16 C22 1_555 1_555
C16 C17 1_555 1_555
C18 C23 1_555 1_555
C24 C30 1_555 1_555
C24 C29 1_555 1_555
C25 C30 1_555 1_555
C26 S1 1_555 1_555
C28 C30 1_555 1_555

#END
