
#######################################################################
#
#                 Cambridge Crystallographic Data Centre
#                                CCDC 
#
#######################################################################
#
# If this CIF has been generated from an entry in the Cambridge 
# Structural Database, then it will include bibliographic, chemical, 
# crystal, experimental, refinement or atomic coordinate data resulting 
# from the CCDC's data processing and validation procedures.
#
#######################################################################

data_UJIZUK
_chemical_formula_moiety         'C4 H2 N5 O6 1-,C1 H6 N3 1+'
_chemical_name_systematic        
'guanidinium  dinitro(3-nitro-1H-pyrazol-1-yl)methanide'
_symmetry_cell_setting           monoclinic
_symmetry_space_group_name_H-M   'P 21/c'
_symmetry_Int_Tables_number      14
_space_group_name_Hall           '-P 2ybc'
loop_
_symmetry_equiv_pos_site_id
_symmetry_equiv_pos_as_xyz
1 x,y,z
2 -x,1/2+y,1/2-z
3 -x,-y,-z
4 x,1/2-y,1/2+z
_cell_length_a                   8.1268(5)
_cell_length_b                   9.3064(4)
_cell_length_c                   14.0786(9)
_cell_angle_alpha                90
_cell_angle_beta                 92.296(7)
_cell_angle_gamma                90
_cell_volume                     1063.93
_exptl_crystal_description       monoclinic
_cell_formula_units_Z            4
loop_
_atom_site_label
_atom_site_type_symbol
_atom_site_fract_x
_atom_site_fract_y
_atom_site_fract_z
O1 O 0.75671(17) 0.08075(14) 0.57743(9)
O2 O 0.59609(17) 0.12683(14) 0.45390(9)
O3 O 0.94612(16) -0.14298(14) 0.56333(9)
N1 N 0.70041(18) 0.04955(16) 0.49670(10)
N2 N 0.87654(18) -0.16056(16) 0.48301(10)
O4 O 0.64013(18) -0.11593(15) 0.04906(9)
C1 C 0.5512(2) -0.1973(2) 0.23546(13)
H1 H 0.4816 -0.2545 0.1949
O5 O 0.77399(19) 0.06885(15) 0.10589(10)
O6 O 0.92016(16) -0.26190(13) 0.42951(9)
N3 N 0.74404(18) -0.02911(16) 0.28309(10)
N4 N 0.68366(18) -0.09954(15) 0.35895(10)
N5 N 0.69440(19) -0.04184(16) 0.11518(11)
C2 C 0.5677(2) -0.19963(19) 0.33280(13)
H2 H 0.5092 -0.2597 0.3743
C3 C 0.7509(2) -0.07374(18) 0.44998(12)
C4 C 0.6620(2) -0.09007(19) 0.21063(12)
N6 N 0.87496(19) 0.20711(16) 0.75858(11)
H3 H 0.8765 0.2059 0.6961
H4 H 0.8823 0.2893 0.7894
N7 N 0.85032(19) -0.03928(16) 0.76056(11)
H5 H 0.8518 -0.0413 0.6981
H6 H 0.8414 -0.1198 0.7927
N8 N 0.8571(2) 0.08673(18) 0.90027(11)
H7 H 0.8632 0.1689 0.9312
H8 H 0.8482 0.0056 0.9318
C5 C 0.8615(2) 0.08515(19) 0.80623(13)
loop_
_geom_bond_atom_site_label_1
_geom_bond_atom_site_label_2
_geom_bond_site_symmetry_1
_geom_bond_site_symmetry_2
O1 N1 1_555 1_555
O2 N1 1_555 1_555
O3 N2 1_555 1_555
N1 C3 1_555 1_555
N2 O6 1_555 1_555
O4 N5 1_555 1_555
C1 H1 1_555 1_555
O5 N5 1_555 1_555
N3 N4 1_555 1_555
N4 C2 1_555 1_555
N5 C4 1_555 1_555
C2 C1 1_555 1_555
H2 C2 1_555 1_555
C3 N2 1_555 1_555
C4 C1 1_555 1_555
N6 H3 1_555 1_555
H4 N6 1_555 1_555
N7 H5 1_555 1_555
H6 N7 1_555 1_555
N8 H7 1_555 1_555
H8 N8 1_555 1_555
C5 N6 1_555 1_555
N3 C4 1_555 1_555
N4 C3 1_555 1_555
N7 C5 1_555 1_555
N8 C5 1_555 1_555

#END
