
#######################################################################
#
#                 Cambridge Crystallographic Data Centre
#                                CCDC 
#
#######################################################################
#
# If this CIF has been generated from an entry in the Cambridge 
# Structural Database, then it will include bibliographic, chemical, 
# crystal, experimental, refinement or atomic coordinate data resulting 
# from the CCDC's data processing and validation procedures.
#
#######################################################################

data_UJUTIE01
_chemical_formula_moiety         'C10 H15 O4 S1 1-,C6 H16 N1 1+'
_chemical_name_systematic        'Di-n-propylammonium D-(+)-10-camphorsulfonate'
_symmetry_cell_setting           monoclinic
_symmetry_space_group_name_H-M   'P 21'
_symmetry_Int_Tables_number      4
_space_group_name_Hall           'P 2yb'
loop_
_symmetry_equiv_pos_site_id
_symmetry_equiv_pos_as_xyz
1 x,y,z
2 -x,1/2+y,-z
_cell_length_a                   9.3694(3)
_cell_length_b                   7.3823(2)
_cell_length_c                   13.8573(4)
_cell_angle_alpha                90
_cell_angle_beta                 105.537(3)
_cell_angle_gamma                90
_cell_volume                     923.453
_exptl_crystal_colour            colorless
_exptl_crystal_description       block
_cell_formula_units_Z            2
loop_
_atom_site_label
_atom_site_type_symbol
_atom_site_fract_x
_atom_site_fract_y
_atom_site_fract_z
S1 S 0.55600(9) 0.77141(10) 0.28001(5)
O1 O 0.4741(3) 0.6093(3) 0.2394(2)
O2 O 0.5958(4) 0.7795(5) 0.38793(18)
O3 O 0.4832(3) 0.9355(3) 0.2333(2)
O4 O 0.7219(3) 0.3877(3) 0.1782(2)
C1 C 0.8558(3) 0.7867(5) 0.1018(2)
C2 C 0.7253(3) 0.7113(4) 0.1414(2)
C3 C 0.7292(3) 0.7606(5) 0.24868(19)
H1 H 0.7772 0.8777 0.2635
H2 H 0.7914 0.6729 0.2927
C4 C 0.6424(3) 0.7559(6) -0.0401(2)
H3 H 0.5832 0.6710 -0.0878
H4 H 0.6390 0.8737 -0.0717
C5 C 0.5888(3) 0.7670(5) 0.05587(18)
H5 H 0.5068 0.6847 0.0521
H6 H 0.5575 0.8891 0.0661
C6 C 0.7902(4) 0.4897(4) 0.0291(3)
H7 H 0.7171 0.4248 -0.0221
H8 H 0.8849 0.4282 0.0414
C7 C 0.8021(4) 0.6891(4) -0.0002(2)
H9 H 0.8646 0.7094 -0.0457
C8 C 0.7417(3) 0.5097(4) 0.1239(2)
C9 C 1.0081(4) 0.7262(6) 0.1639(3)
H10 H 1.0074 0.5979 0.1748
H11 H 1.0323 0.7879 0.2272
H12 H 1.0808 0.7548 0.1287
C10 C 0.8527(5) 0.9931(5) 0.0916(3)
H13 H 0.8788 1.0472 0.1570
H14 H 0.7550 1.0315 0.0557
H15 H 0.9223 1.0303 0.0557
N1 N 0.5233(3) 0.2686(5) 0.3330(2)
C11 C 0.2568(5) 0.2686(10) 0.2916(4)
H16 H 0.2548 0.1603 0.2516
H17 H 0.2559 0.3725 0.2485
C12 C 0.3919(6) 0.2706(12) 0.3715(3)
H18 H 0.3941 0.1658 0.4141
H19 H 0.3939 0.3783 0.4120
C13 C 0.1153(7) 0.2732(14) 0.3302(5)
H20 H 0.1056 0.1601 0.3621
H21 H 0.0298 0.2922 0.2748
H22 H 0.1233 0.3701 0.3775
C14 C 0.6803(11) 0.244(2) 0.3942(6)
H23 H 0.6919 0.1184 0.4148
H24 H 0.7434 0.2640 0.3500
C15 C 0.8899(8) 0.2752(18) 0.5295(5)
C16 C 0.7386(11) 0.3531(17) 0.4825(8)
H25 H 0.6761 0.3442 0.5279
H26 H 0.7457 0.4792 0.4648
H27 H 0.5205 0.1670 0.2956
H28 H 0.5238 0.3733 0.2953
H29 H 0.8819 0.2614 0.5920
H30 H 0.9479 0.1857 0.5255
H31 H 0.9422 0.3745 0.5289
C17? C 0.6300(12) 0.273(2) 0.4379(9)
H32? H 0.6164 0.3831 0.4722
H33? H 0.6113 0.1703 0.4768
C18? C 0.7783(12) 0.264(3) 0.4279(7)
H34? H 0.7945 0.3629 0.3860
H35? H 0.7919 0.1510 0.3955
loop_
_geom_bond_atom_site_label_1
_geom_bond_atom_site_label_2
_geom_bond_site_symmetry_1
_geom_bond_site_symmetry_2
S1 O1 1_555 1_555
O2 S1 1_555 1_555
O3 S1 1_555 1_555
O4 C8 1_555 1_555
C1 C2 1_555 1_555
C2 C3 1_555 1_555
C3 S1 1_555 1_555
H1 C3 1_555 1_555
H2 C3 1_555 1_555
C4 H3 1_555 1_555
H4 C4 1_555 1_555
C5 C2 1_555 1_555
H5 C5 1_555 1_555
H6 C5 1_555 1_555
C6 H7 1_555 1_555
H8 C6 1_555 1_555
C7 C1 1_555 1_555
H9 C7 1_555 1_555
C8 C2 1_555 1_555
C9 C1 1_555 1_555
H10 C9 1_555 1_555
H11 C9 1_555 1_555
H12 C9 1_555 1_555
C10 C1 1_555 1_555
H13 C10 1_555 1_555
H14 C10 1_555 1_555
H15 C10 1_555 1_555
N1 C12 1_555 1_555
C11 H16 1_555 1_555
H17 C11 1_555 1_555
C12 C11 1_555 1_555
H18 C12 1_555 1_555
H19 C12 1_555 1_555
C13 C11 1_555 1_555
H20 C13 1_555 1_555
H21 C13 1_555 1_555
H22 C13 1_555 1_555
C14 N1 1_555 1_555
H23 C14 1_555 1_555
H24 C14 1_555 1_555
C15 C16 1_555 1_555
C16 C14 1_555 1_555
H25 C16 1_555 1_555
H26 C16 1_555 1_555
H27 N1 1_555 1_555
H28 N1 1_555 1_555
H29 C15 1_555 1_555
H30 C15 1_555 1_555
H31 C15 1_555 1_555
C4 C5 1_555 1_555
C4 C7 1_555 1_555
C6 C7 1_555 1_555
C6 C8 1_555 1_555

#END
