
#######################################################################
#
#                 Cambridge Crystallographic Data Centre
#                                CCDC 
#
#######################################################################
#
# If this CIF has been generated from an entry in the Cambridge 
# Structural Database, then it will include bibliographic, chemical, 
# crystal, experimental, refinement or atomic coordinate data resulting 
# from the CCDC's data processing and validation procedures.
#
#######################################################################

data_UKAKOG
_chemical_compound_source        'leaves of Aglaia laxiflora'
_chemical_formula_moiety         'C29 H50 O3'
_chemical_name_systematic        
(-)-(3S,4R,22R,24R)-ethylcholest-5-ene-3,4,22-triol
_chemical_properties_biological  'potential cytotoxic activity'
_symmetry_cell_setting           monoclinic
_symmetry_space_group_name_H-M   'P 21'
_symmetry_Int_Tables_number      4
_space_group_name_Hall           'P 2yb'
loop_
_symmetry_equiv_pos_site_id
_symmetry_equiv_pos_as_xyz
1 x,y,z
2 -x,1/2+y,-z
_cell_length_a                   14.166(10)
_cell_length_b                   6.573(2)
_cell_length_c                   14.800(10)
_cell_angle_alpha                90
_cell_angle_beta                 96.26(5)
_cell_angle_gamma                90
_cell_volume                     1369.86
_exptl_crystal_colour            colorless
_exptl_crystal_description       needles
_chemical_melting_point          206-208deg.C
_cell_formula_units_Z            2
_exptl_crystal_recrystallization_method hexane
loop_
_atom_site_label
_atom_site_type_symbol
_atom_site_fract_x
_atom_site_fract_y
_atom_site_fract_z
O1 O 0.6212(3) 0.3798(7) 0.6787(3)
H1 H 0.6274 0.5035 0.6753
O2 O 0.5534(3) 0.0235(7) 0.6187(3)
H2 H 0.5504 -0.1011 0.6195
O3 O -0.3106(3) -0.2345(7) 0.7015(3)
H3 H -0.3079 -0.3056 0.6563
C1 C 0.3518(4) 0.3623(11) 0.6323(5)
H4 H 0.3087 0.4176 0.5830
H5 H 0.3377 0.4272 0.6881
C2 C 0.4533(4) 0.4148(11) 0.6158(5)
H6 H 0.4671 0.3572 0.5584
H7 H 0.4602 0.5614 0.6124
C3 C 0.5231(4) 0.3319(12) 0.6921(5)
H8 H 0.5087 0.3910 0.7498
C4 C 0.5147(4) 0.1047(10) 0.6972(4)
H9 H 0.5545 0.0580 0.7516
C5 C 0.4135(4) 0.0383(9) 0.7050(4)
C6 C 0.3971(4) -0.0918(10) 0.7687(4)
H10 H 0.4495 -0.1401 0.8058
C7 C 0.3015(4) -0.1698(10) 0.7874(4)
H11 H 0.2854 -0.1119 0.8440
H12 H 0.3048 -0.3164 0.7947
C8 C 0.2227(3) -0.1176(9) 0.7110(4)
H13 H 0.2268 -0.2113 0.6601
C9 C 0.2367(4) 0.0996(9) 0.6787(4)
H14 H 0.2390 0.1852 0.7331
C10 C 0.3337(4) 0.1335(9) 0.6393(4)
C11 C 0.1503(4) 0.1746(10) 0.6150(4)
H15 H 0.1503 0.1074 0.5566
H16 H 0.1570 0.3195 0.6051
C12 C 0.0538(4) 0.1351(9) 0.6515(4)
H17 H 0.0492 0.2196 0.7046
H18 H 0.0030 0.1744 0.6055
C13 C 0.0406(4) -0.0833(9) 0.6767(3)
C14 C 0.1260(4) -0.1412(9) 0.7455(4)
H19 H 0.1254 -0.0445 0.7959
C15 C 0.0990(4) -0.3440(11) 0.7828(5)
H20 H 0.1285 -0.3622 0.8445
H21 H 0.1187 -0.4543 0.7455
C16 C -0.0113(4) -0.3384(11) 0.7802(5)
H22 H -0.0301 -0.3436 0.8413
H23 H -0.0397 -0.4527 0.7458
C17 C -0.0432(4) -0.1329(9) 0.7330(3)
H24 H -0.0417 -0.0302 0.7811
C18 C 0.3342(4) 0.0294(12) 0.5448(4)
H25 H 0.3125 -0.1085 0.5483
H26 H 0.3975 0.0303 0.5275
H27 H 0.2928 0.1023 0.5004
C19 C 0.0328(4) -0.2171(11) 0.5904(4)
H28 H 0.0206 -0.3554 0.6065
H29 H 0.0913 -0.2105 0.5632
H30 H -0.0182 -0.1686 0.5479
C20 C -0.1457(4) -0.1400(10) 0.6870(4)
H31 H -0.1464 -0.2387 0.6373
C21 C -0.1793(4) 0.0622(11) 0.6439(5)
H32 H -0.2456 0.0528 0.6222
H33 H -0.1436 0.0922 0.5940
H34 H -0.1700 0.1686 0.6884
C22 C -0.2172(4) -0.2177(11) 0.7507(4)
H35 H -0.1971 -0.3538 0.7719
C23 C -0.2266(4) -0.0847(11) 0.8344(4)
H36 H -0.2597 0.0394 0.8147
H37 H -0.1635 -0.0469 0.8611
C24 C -0.2800(6) -0.1860(15) 0.9091(5)
H38 H -0.3380 -0.2487 0.8795
C25 C -0.3078(7) -0.040(2) 0.9808(6)
H39 H -0.2500 0.0159 1.0143
C26 C -0.3688(8) 0.130(3) 0.9441(7)
H40 H -0.3826 0.2174 0.9930
H41 H -0.4269 0.0770 0.9138
H42 H -0.3363 0.2066 0.9017
C27 C -0.3658(10) -0.159(2) 1.0491(8)
H43 H -0.3231 -0.2089 1.0989
H44 H -0.3986 -0.2706 1.0182
H45 H -0.4111 -0.0684 1.0718
C28 C -0.2196(12) -0.353(3) 0.9584(12)
H46 H -0.2050 -0.4507 0.9128
H47 H -0.2595 -0.4226 0.9978
C29 C -0.1256(10) -0.3015(19) 1.0162(9)
H48 H -0.0955 -0.4248 1.0390
H49 H -0.1382 -0.2164 1.0662
H50 H -0.0843 -0.2310 0.9794
C30? C -0.2798(10) -0.4140(19) 0.9182(9)
C31? C -0.1753(10) -0.3950(19) 0.9786(9)
loop_
_geom_bond_atom_site_label_1
_geom_bond_atom_site_label_2
_geom_bond_site_symmetry_1
_geom_bond_site_symmetry_2
O1 H1 1_555 1_555
O2 H2 1_555 1_555
O3 H3 1_555 1_555
C1 H4 1_555 1_555
H5 C1 1_555 1_555
C2 C1 1_555 1_555
H6 C2 1_555 1_555
H7 C2 1_555 1_555
C3 O1 1_555 1_555
H8 C3 1_555 1_555
C4 O2 1_555 1_555
H9 C4 1_555 1_555
C5 C4 1_555 1_555
C6 C5 1_555 1_555
H10 C6 1_555 1_555
C7 C6 1_555 1_555
H11 C7 1_555 1_555
H12 C7 1_555 1_555
C8 C7 1_555 1_555
H13 C8 1_555 1_555
C9 C8 1_555 1_555
H14 C9 1_555 1_555
C10 C1 1_555 1_555
C11 C9 1_555 1_555
H15 C11 1_555 1_555
H16 C11 1_555 1_555
C12 C11 1_555 1_555
H17 C12 1_555 1_555
H18 C12 1_555 1_555
C13 C12 1_555 1_555
C14 C8 1_555 1_555
H19 C14 1_555 1_555
C15 C14 1_555 1_555
H20 C15 1_555 1_555
H21 C15 1_555 1_555
C16 C15 1_555 1_555
H22 C16 1_555 1_555
H23 C16 1_555 1_555
C17 C13 1_555 1_555
H24 C17 1_555 1_555
C18 C10 1_555 1_555
H25 C18 1_555 1_555
H26 C18 1_555 1_555
H27 C18 1_555 1_555
C19 C13 1_555 1_555
H28 C19 1_555 1_555
H29 C19 1_555 1_555
H30 C19 1_555 1_555
C20 C17 1_555 1_555
H31 C20 1_555 1_555
C21 C20 1_555 1_555
H32 C21 1_555 1_555
H33 C21 1_555 1_555
H34 C21 1_555 1_555
C22 O3 1_555 1_555
H35 C22 1_555 1_555
C23 C22 1_555 1_555
H36 C23 1_555 1_555
H37 C23 1_555 1_555
C24 C23 1_555 1_555
H38 C24 1_555 1_555
C25 C24 1_555 1_555
H39 C25 1_555 1_555
C26 C25 1_555 1_555
H40 C26 1_555 1_555
H41 C26 1_555 1_555
H42 C26 1_555 1_555
C27 C25 1_555 1_555
H43 C27 1_555 1_555
H44 C27 1_555 1_555
H45 C27 1_555 1_555
C28 C24 1_555 1_555
H46 C28 1_555 1_555
H47 C28 1_555 1_555
C29 C28 1_555 1_555
H48 C29 1_555 1_555
H49 C29 1_555 1_555
H50 C29 1_555 1_555
C2 C3 1_555 1_555
C3 C4 1_555 1_555
C5 C10 1_555 1_555
C9 C10 1_555 1_555
C13 C14 1_555 1_555
C16 C17 1_555 1_555
C20 C22 1_555 1_555

#END
