
#######################################################################
#
#                 Cambridge Crystallographic Data Centre
#                                CCDC 
#
#######################################################################
#
# If this CIF has been generated from an entry in the Cambridge 
# Structural Database, then it will include bibliographic, chemical, 
# crystal, experimental, refinement or atomic coordinate data resulting 
# from the CCDC's data processing and validation procedures.
#
#######################################################################

data_UKEBOB
_chemical_formula_moiety         'C20 H19 N2 1+,Cl1 1-,H2 O1'
_chemical_name_systematic        
'1-(9-Anthracylmethyl)-3-ethylimidazolium chloride monohydrate'
_symmetry_cell_setting           monoclinic
_symmetry_space_group_name_H-M   'P 21/c'
_symmetry_Int_Tables_number      14
_space_group_name_Hall           '-P 2ybc'
loop_
_symmetry_equiv_pos_site_id
_symmetry_equiv_pos_as_xyz
1 x,y,z
2 x,1/2-y,1/2+z
3 -x,-y,-z
4 -x,1/2+y,1/2-z
_cell_length_a                   9.134(3)
_cell_length_b                   19.925(6)
_cell_length_c                   9.787(3)
_cell_angle_alpha                90.00
_cell_angle_beta                 97.481(7)
_cell_angle_gamma                90.00
_cell_volume                     1766.02
_exptl_crystal_colour            pale-yellow
_exptl_crystal_description       plate
_chemical_melting_point          190-192deg.C
_cell_formula_units_Z            4
_exptl_crystal_recrystallization_method dichloromethane
loop_
_atom_site_label
_atom_site_type_symbol
_atom_site_fract_x
_atom_site_fract_y
_atom_site_fract_z
Cl1 Cl 0.22957(14) 0.48473(7) 0.41389(13)
N1 N 0.1390(5) 0.9335(2) 0.3062(4)
N2 N 0.2226(6) 1.0189(2) 0.4299(5)
C1 C 0.2585(6) 0.7986(3) 0.1751(5)
C2 C 0.3568(7) 0.8427(3) 0.1188(6)
H1 H 0.3313 0.8875 0.1023
C3 C 0.4810(7) 0.8205(4) 0.0909(7)
H2 H 0.5458 0.8489 0.0532
C4 C 0.5190(8) 0.7538(4) 0.1171(8)
H3 H 0.6092 0.7386 0.0947
C5 C 0.4315(8) 0.7097(4) 0.1733(7)
H4 H 0.4620 0.6658 0.1918
C6 C 0.3004(7) 0.7309(3) 0.2017(6)
C7 C 0.2101(7) 0.6860(3) 0.2547(6)
H5 H 0.2405 0.6419 0.2714
C8 C 0.0801(7) 0.7057(3) 0.2819(5)
C9 C -0.0124(9) 0.6587(3) 0.3378(6)
H6 H 0.0170 0.6142 0.3506
C10 C -0.1365(9) 0.6781(4) 0.3702(7)
H7 H -0.1989 0.6484 0.4077
C11 C -0.1756(8) 0.7450(5) 0.3479(7)
H8 H -0.2650 0.7591 0.3742
C12 C -0.0937(7) 0.7912(4) 0.2910(6)
H9 H -0.1287 0.8347 0.2755
C13 C 0.0385(6) 0.7736(3) 0.2572(5)
C14 C 0.1275(6) 0.8200(3) 0.2042(5)
C15 C 0.0871(6) 0.8915(2) 0.1792(5)
H10 H -0.0192 0.8955 0.1569
H11 H 0.1322 0.9081 0.1013
C16 C 0.1368(7) 0.9201(3) 0.4520(6)
H12 H 0.1040 0.8802 0.4873
C17 C 0.1889(7) 0.9734(3) 0.5295(7)
H13 H 0.1994 0.9783 0.6248
C18 C 0.1902(7) 0.9940(3) 0.2967(6)
H14 H 0.2028 1.0164 0.2157
C19 C 0.2861(9) 1.0853(3) 0.4632(8)
H15 H 0.3136 1.1056 0.3801
H16 H 0.2118 1.1137 0.4963
C20 C 0.4096(10) 1.0827(4) 0.5627(9)
H17 H 0.4472 1.1272 0.5810
H18 H 0.4843 1.0554 0.5297
H19 H 0.3826 1.0635 0.6458
O1 O 0.4783(6) 0.4543(2) 0.6706(5)
H20 H 0.3996 0.4617 0.5652
H21 H 0.5874 0.4762 0.6488
loop_
_geom_bond_atom_site_label_1
_geom_bond_atom_site_label_2
_geom_bond_site_symmetry_1
_geom_bond_site_symmetry_2
N1 C15 1_555 1_555
N2 C17 1_555 1_555
C1 C2 1_555 1_555
C2 H1 1_555 1_555
C3 C2 1_555 1_555
H2 C3 1_555 1_555
C4 C3 1_555 1_555
H3 C4 1_555 1_555
C5 C4 1_555 1_555
H4 C5 1_555 1_555
C6 C1 1_555 1_555
C7 C6 1_555 1_555
H5 C7 1_555 1_555
C8 C7 1_555 1_555
C9 C8 1_555 1_555
H6 C9 1_555 1_555
C10 C9 1_555 1_555
H7 C10 1_555 1_555
C11 C10 1_555 1_555
H8 C11 1_555 1_555
C12 C11 1_555 1_555
H9 C12 1_555 1_555
C13 C8 1_555 1_555
C14 C1 1_555 1_555
C15 C14 1_555 1_555
H10 C15 1_555 1_555
H11 C15 1_555 1_555
C16 N1 1_555 1_555
H12 C16 1_555 1_555
C17 C16 1_555 1_555
H13 C17 1_555 1_555
C18 N1 1_555 1_555
H14 C18 1_555 1_555
C19 N2 1_555 1_555
H15 C19 1_555 1_555
H16 C19 1_555 1_555
C20 C19 1_555 1_555
H17 C20 1_555 1_555
H18 C20 1_555 1_555
H19 C20 1_555 1_555
O1 H20 1_555 1_555
H21 O1 1_555 1_555
N2 C18 1_555 1_555
C5 C6 1_555 1_555
C12 C13 1_555 1_555
C13 C14 1_555 1_555

#END
