
#######################################################################
#
#                 Cambridge Crystallographic Data Centre
#                                CCDC 
#
#######################################################################
#
# If this CIF has been generated from an entry in the Cambridge 
# Structural Database, then it will include bibliographic, chemical, 
# crystal, experimental, refinement or atomic coordinate data resulting 
# from the CCDC's data processing and validation procedures.
#
#######################################################################

data_UKEJIF
_chemical_formula_moiety         'C25 H48 N2 O5 S1 Si1'
_chemical_name_systematic        
't-Butyl 2-(3,3-di-isopropyl-2,10,10-trimethyl-9-oxido-4-oxa-9\l^4^-thia-8-aza-3-silaundecan-7-yl)-5-oxo-2,5-dihydro-1H-pyrrole-1-carboxylate'
_symmetry_cell_setting           monoclinic
_symmetry_space_group_name_H-M   'P 21'
_symmetry_Int_Tables_number      4
_space_group_name_Hall           'P 2yb'
loop_
_symmetry_equiv_pos_site_id
_symmetry_equiv_pos_as_xyz
1 x,y,z
2 -x,1/2+y,-z
_cell_length_a                   12.5809(3)
_cell_length_b                   8.9728(2)
_cell_length_c                   13.3190(3)
_cell_angle_alpha                90
_cell_angle_beta                 93.554
_cell_angle_gamma                90
_cell_volume                     1500.64
_exptl_crystal_colour            colorless
_exptl_crystal_description       rod
_cell_formula_units_Z            2
loop_
_atom_site_label
_atom_site_type_symbol
_atom_site_fract_x
_atom_site_fract_y
_atom_site_fract_z
S1 S -0.24727(11) -0.51745(17) -0.38158(11)
Si1 Si -0.23532(13) -0.23142(19) -0.88481(12)
O1 O -0.3579(3) -0.7017(4) -0.6527(3)
O2 O -0.1955(3) -0.2930(4) -0.7718(3)
O3 O -0.2962(3) -0.9244(4) -0.5908(4)
O4 O -0.2333(3) -0.3760(4) -0.3238(3)
O5 O -0.0713(3) -0.9365(5) -0.5801(3)
N1 N -0.1623(3) -0.5262(6) -0.4707(3)
H1 H -0.0986(3) -0.5599(6) -0.4599(3)
N2 N -0.1826(3) -0.7337(5) -0.6277(4)
C1 C -0.0483(4) -0.5710(6) -0.6622(4)
H2 H -0.0116(4) -0.4872(6) -0.6824(4)
C2 C -0.1658(4) -0.5768(6) -0.6524(4)
H3 H -0.2032(4) -0.5530(6) -0.7172(4)
C3 C -0.1949(5) -0.6665(8) -0.2972(5)
C4 C -0.2825(4) -0.8004(7) -0.6208(5)
C5 C -0.0023(4) -0.7026(7) -0.6381(4)
H4 H 0.0700(4) -0.7240(7) -0.6386(4)
C6 C -0.5279(5) -0.6032(8) -0.6891(6)
H5 H -0.509(3) -0.5217(15) -0.645(2)
H6 H -0.506(3) -0.581(3) -0.7553(17)
H7 H -0.6036(5) -0.618(2) -0.692(4)
C7 C -0.0855(4) -0.8066(6) -0.6111(4)
C8 C -0.2589(5) -0.0245(8) -0.8792(5)
H8 H -0.3064(5) -0.0093(8) -0.8246(5)
C9 C -0.1208(5) -0.2786(8) -0.9639(5)
H9 H -0.0635(5) -0.2090(8) -0.9435(5)
C10 C -0.2031(4) -0.4718(6) -0.5708(4)
H10 H -0.2809(4) -0.4795(6) -0.5726(4)
C11 C -0.4723(4) -0.7441(7) -0.6503(5)
C12 C -0.4574(5) -0.2764(9) -0.8677(6)
H11 H -0.442(2) -0.303(6) -0.7985(10)
H12 H -0.467(3) -0.1704(12) -0.873(3)
H13 H -0.5213(11) -0.326(5) -0.893(3)
C13 C -0.2702(6) -0.6622(9) -0.2107(6)
H14 H -0.266(3) -0.566(2) -0.179(3)
H15 H -0.3418(9) -0.681(6) -0.2367(9)
H16 H -0.249(3) -0.737(4) -0.162(2)
C14 C -0.0755(7) -0.4351(9) -0.9440(6)
H17 H -0.063(5) -0.450(3) -0.8728(7)
H18 H -0.125(2) -0.5081(9) -0.971(4)
H19 H -0.009(3) -0.445(2) -0.976(4)
C15 C -0.2335(5) -0.2371(7) -0.6797(4)
H20 H -0.2233(5) -0.1300(7) -0.6770(4)
H21 H -0.3092(5) -0.2566(7) -0.6787(4)
C16 C -0.3165(8) 0.0426(9) -0.9730(7)
H22 H -0.270(2) 0.042(7) -1.0274(15)
H23 H -0.379(3) -0.015(5) -0.991(3)
H24 H -0.337(5) 0.143(3) -0.9592(17)
C17 C -0.3638(5) -0.3245(7) -0.9298(5)
H25 H -0.3804(5) -0.2928(7) -0.9994(5)
C18 C -0.3558(6) -0.4971(8) -0.9296(6)
H26 H -0.302(3) -0.5278(9) -0.974(3)
H27 H -0.337(4) -0.5313(9) -0.8625(10)
H28 H -0.4232(14) -0.5389(8) -0.953(4)
C19 C -0.0820(5) -0.6316(8) -0.2593(5)
H29 H -0.0365(9) -0.634(6) -0.3146(8)
H30 H -0.0795(9) -0.534(2) -0.229(3)
H31 H -0.0582(15) -0.705(3) -0.210(3)
C20 C -0.1768(5) -0.3073(6) -0.5882(4)
H32 H -0.1944(5) -0.2511(6) -0.5292(4)
H33 H -0.1007(5) -0.2983(6) -0.5943(4)
C21 C -0.2044(6) -0.8127(8) -0.3524(5)
H34 H -0.2756(12) -0.824(3) -0.382(3)
H35 H -0.155(3) -0.815(2) -0.404(2)
H36 H -0.189(4) -0.8929(8) -0.3062(9)
C22 C -0.4957(5) -0.8724(8) -0.7223(6)
H37 H -0.471(4) -0.848(2) -0.7868(12)
H38 H -0.460(3) -0.9606(15) -0.697(2)
H39 H -0.5712(6) -0.890(4) -0.729(3)
C23 C -0.1590(6) 0.0664(8) -0.8507(6)
H40 H -0.126(2) 0.029(4) -0.789(2)
H41 H -0.1099(19) 0.058(5) -0.903(2)
H42 H -0.1781(8) 0.1691(13) -0.843(4)
C24 C -0.4994(5) -0.7769(8) -0.5432(5)
H43 H -0.465(4) -0.868(3) -0.5209(15)
H44 H -0.475(4) -0.696(3) -0.5002(9)
H45 H -0.5751(6) -0.787(6) -0.5406(9)
C25 C -0.1456(7) -0.2529(10) -1.0777(5)
H46 H -0.202(4) -0.319(5) -1.1016(11)
H47 H -0.168(5) -0.152(2) -1.0889(7)
H48 H -0.0829(16) -0.272(7) -1.1132(7)
loop_
_geom_bond_atom_site_label_1
_geom_bond_atom_site_label_2
_geom_bond_site_symmetry_1
_geom_bond_site_symmetry_2
S1 O4 1_555 1_555
Si1 O2 1_555 1_555
O1 C4 1_555 1_555
O2 C15 1_555 1_555
O3 C4 1_555 1_555
O5 C7 1_555 1_555
N1 S1 1_555 1_555
H1 N1 1_555 1_555
N2 C2 1_555 1_555
C1 H2 1_555 1_555
C2 C1 1_555 1_555
H3 C2 1_555 1_555
C3 S1 1_555 1_555
C4 N2 1_555 1_555
C5 C1 1_555 1_555
H4 C5 1_555 1_555
C6 H5 1_555 1_555
H6 C6 1_555 1_555
H7 C6 1_555 1_555
C7 N2 1_555 1_555
C8 Si1 1_555 1_555
H8 C8 1_555 1_555
C9 Si1 1_555 1_555
H9 C9 1_555 1_555
C10 N1 1_555 1_555
H10 C10 1_555 1_555
C11 O1 1_555 1_555
C12 H11 1_555 1_555
H12 C12 1_555 1_555
H13 C12 1_555 1_555
C13 C3 1_555 1_555
H14 C13 1_555 1_555
H15 C13 1_555 1_555
H16 C13 1_555 1_555
C14 C9 1_555 1_555
H17 C14 1_555 1_555
H18 C14 1_555 1_555
H19 C14 1_555 1_555
C15 H20 1_555 1_555
H21 C15 1_555 1_555
C16 C8 1_555 1_555
H22 C16 1_555 1_555
H23 C16 1_555 1_555
H24 C16 1_555 1_555
C17 Si1 1_555 1_555
H25 C17 1_555 1_555
C18 C17 1_555 1_555
H26 C18 1_555 1_555
H27 C18 1_555 1_555
H28 C18 1_555 1_555
C19 C3 1_555 1_555
H29 C19 1_555 1_555
H30 C19 1_555 1_555
H31 C19 1_555 1_555
C20 C10 1_555 1_555
H32 C20 1_555 1_555
H33 C20 1_555 1_555
C21 C3 1_555 1_555
H34 C21 1_555 1_555
H35 C21 1_555 1_555
H36 C21 1_555 1_555
C22 C11 1_555 1_555
H37 C22 1_555 1_555
H38 C22 1_555 1_555
H39 C22 1_555 1_555
C23 C8 1_555 1_555
H40 C23 1_555 1_555
H41 C23 1_555 1_555
H42 C23 1_555 1_555
C24 C11 1_555 1_555
H43 C24 1_555 1_555
H44 C24 1_555 1_555
H45 C24 1_555 1_555
C25 C9 1_555 1_555
H46 C25 1_555 1_555
H47 C25 1_555 1_555
H48 C25 1_555 1_555
C2 C10 1_555 1_555
C5 C7 1_555 1_555
C6 C11 1_555 1_555
C12 C17 1_555 1_555
C15 C20 1_555 1_555

#END
