
#######################################################################
#
#                 Cambridge Crystallographic Data Centre
#                                CCDC 
#
#######################################################################
#
# If this CIF has been generated from an entry in the Cambridge 
# Structural Database, then it will include bibliographic, chemical, 
# crystal, experimental, refinement or atomic coordinate data resulting 
# from the CCDC's data processing and validation procedures.
#
#######################################################################

data_UKEPAC
_chemical_name_common            
(3S,5S,7R,7aS)-1-Benzyl-5-t-butoxycarbonyl-7-methoxycarbonyl-3-phenylhexahydropyrrolo[1,2-a]imidazole
_chemical_formula_moiety         'C26 H32 N2 O4'
_chemical_name_systematic        
'(3S,5S,7R,7aS)-5-t-Butyl 7-methyl 1-benzyl-3-phenylhexahydro-1H-pyrrolo[1,2-a]imidazole-5,7-dicarboxylate'
_symmetry_cell_setting           monoclinic
_symmetry_space_group_name_H-M   'P 21'
_symmetry_Int_Tables_number      4
_space_group_name_Hall           'P 2yb'
loop_
_symmetry_equiv_pos_site_id
_symmetry_equiv_pos_as_xyz
1 x,y,z
2 -x,1/2+y,-z
_cell_length_a                   10.276(2)
_cell_length_b                   5.799(3)
_cell_length_c                   20.259(5)
_cell_angle_alpha                90
_cell_angle_beta                 103.07(2)
_cell_angle_gamma                90
_cell_volume                     1175.97
_exptl_crystal_colour            colorless
_exptl_crystal_description       plate
_chemical_melting_point          '98-99 deg.C'
_cell_formula_units_Z            2
loop_
_atom_site_label
_atom_site_type_symbol
_atom_site_fract_x
_atom_site_fract_y
_atom_site_fract_z
N1 N 0.1979(5) 0.3844(12) 0.3493(3)
C1 C 0.3240(7) 0.2862(15) 0.3394(3)
H1 H 0.3477 0.1434 0.3662
H2 H 0.3983 0.3981 0.3518
C2 C 0.2910(6) 0.2359(15) 0.2635(3)
H3 H 0.2347 0.0937 0.2545
N2 N 0.2090(5) 0.4377(12) 0.2365(3)
C3 C 0.1091(6) 0.3987(14) 0.1722(3)
H4 H 0.0937 0.2300 0.1636
C4 C -0.0183(7) 0.5164(16) 0.1838(3)
H5 H -0.0993 0.4415 0.1564
H6 H -0.0196 0.6819 0.1717
C5 C -0.0105(7) 0.4852(14) 0.2602(4)
H7 H -0.0639 0.6060 0.2775
C6 C 0.1412(6) 0.5216(14) 0.2887(3)
H8 H 0.1609 0.6889 0.2979
C7 C 0.2120(4) 0.5253(9) 0.4116(2)
H9 H 0.1267 0.6047 0.4117
H10 H 0.2821 0.6436 0.4133
C8 C 0.2502(4) 0.3638(9) 0.4738(2)
C9 C 0.3661(4) 0.4040(9) 0.5231(2)
H11 H 0.4243 0.5266 0.5178
C10 C 0.3966(7) 0.2622(12) 0.5806(3)
H12 H 0.4755 0.2895 0.6145
C11 C 0.3126(6) 0.0832(14) 0.5883(4)
H13 H 0.3345 -0.0136 0.6271
C12 C 0.1966(7) 0.0446(15) 0.5395(3)
H14 H 0.1377 -0.0767 0.5449
C13 C 0.1671(7) 0.1859(13) 0.4823(3)
H15 H 0.0880 0.1585 0.4485
C14 C 0.4108(6) 0.2091(10) 0.2320(3)
C15 C 0.4294(6) 0.0073(14) 0.1991(3)
H16 H 0.3674 -0.1156 0.1966
C16 C 0.5391(7) -0.0170(16) 0.1696(3)
H17 H 0.5515 -0.1558 0.1469
C17 C 0.6294(7) 0.1619(12) 0.1736(3)
H18 H 0.7043 0.1456 0.1538
C18 C 0.6112(6) 0.3651(17) 0.2064(3)
H19 H 0.6733 0.4881 0.2092
C19 C 0.5010(6) 0.3877(15) 0.2355(3)
H20 H 0.4880 0.5270 0.2578
O1 O 0.1647(5) 0.7180(10) 0.1065(2)
C20 C 0.1566(7) 0.5129(16) 0.1134(3)
O2 O 0.1869(5) 0.3494(10) 0.0727(2)
C21 C 0.2346(7) 0.4146(15) 0.0104(3)
C22 C 0.2569(9) 0.1778(17) -0.0172(4)
H21 H 0.3280 0.0979 0.0151
H22 H 0.2829 0.1949 -0.0606
H23 H 0.1742 0.0880 -0.0239
C23 C 0.3648(6) 0.5426(16) 0.0310(4)
H24 H 0.4304 0.4456 0.0613
H25 H 0.3510 0.6850 0.0545
H26 H 0.3978 0.5805 -0.0095
C24 C 0.1249(7) 0.5464(17) -0.0369(3)
H27 H 0.0440 0.4514 -0.0480
H28 H 0.1536 0.5844 -0.0785
H29 H 0.1060 0.6889 -0.0148
O3 O -0.0349(5) 0.0723(10) 0.2489(2)
C25 C -0.0514(7) 0.2485(15) 0.2769(3)
O4 O -0.1115(5) 0.2550(10) 0.3300(2)
C26 C -0.1583(8) 0.0340(17) 0.3483(4)
H30 H -0.1999 0.0536 0.3870
H31 H -0.0827 -0.0725 0.3607
H32 H -0.2241 -0.0287 0.3098
loop_
_geom_bond_atom_site_label_1
_geom_bond_atom_site_label_2
_geom_bond_site_symmetry_1
_geom_bond_site_symmetry_2
N1 C1 1_555 1_555
C1 H1 1_555 1_555
H2 C1 1_555 1_555
C2 C1 1_555 1_555
H3 C2 1_555 1_555
N2 C2 1_555 1_555
C3 N2 1_555 1_555
H4 C3 1_555 1_555
C4 C3 1_555 1_555
H5 C4 1_555 1_555
H6 C4 1_555 1_555
C5 C4 1_555 1_555
H7 C5 1_555 1_555
C6 N1 1_555 1_555
H8 C6 1_555 1_555
C7 N1 1_555 1_555
H9 C7 1_555 1_555
H10 C7 1_555 1_555
C8 C7 1_555 1_555
C9 C8 1_555 1_555
H11 C9 1_555 1_555
C10 C9 1_555 1_555
H12 C10 1_555 1_555
C11 C10 1_555 1_555
H13 C11 1_555 1_555
C12 C11 1_555 1_555
H14 C12 1_555 1_555
C13 C8 1_555 1_555
H15 C13 1_555 1_555
C14 C2 1_555 1_555
C15 C14 1_555 1_555
H16 C15 1_555 1_555
C16 C15 1_555 1_555
H17 C16 1_555 1_555
C17 C16 1_555 1_555
H18 C17 1_555 1_555
C18 C17 1_555 1_555
H19 C18 1_555 1_555
C19 C14 1_555 1_555
H20 C19 1_555 1_555
O1 C20 1_555 1_555
C20 C3 1_555 1_555
O2 C20 1_555 1_555
C21 O2 1_555 1_555
C22 C21 1_555 1_555
H21 C22 1_555 1_555
H22 C22 1_555 1_555
H23 C22 1_555 1_555
C23 C21 1_555 1_555
H24 C23 1_555 1_555
H25 C23 1_555 1_555
H26 C23 1_555 1_555
C24 C21 1_555 1_555
H27 C24 1_555 1_555
H28 C24 1_555 1_555
H29 C24 1_555 1_555
O3 C25 1_555 1_555
C25 C5 1_555 1_555
O4 C25 1_555 1_555
C26 O4 1_555 1_555
H30 C26 1_555 1_555
H31 C26 1_555 1_555
H32 C26 1_555 1_555
N2 C6 1_555 1_555
C5 C6 1_555 1_555
C12 C13 1_555 1_555
C18 C19 1_555 1_555

#END
