
#######################################################################
#
#                 Cambridge Crystallographic Data Centre
#                                CCDC 
#
#######################################################################
#
# If this CIF has been generated from an entry in the Cambridge 
# Structural Database, then it will include bibliographic, chemical, 
# crystal, experimental, refinement or atomic coordinate data resulting 
# from the CCDC's data processing and validation procedures.
#
#######################################################################

data_UKIGOM
_chemical_formula_moiety         'C22 H15 F3 O1 S1'
_chemical_name_systematic        
2,2-diphenyl-4-((trifluoromethyl)sulfanyl)-2H-chromene
_symmetry_cell_setting           monoclinic
_symmetry_space_group_name_H-M   'P 21/n'
_symmetry_Int_Tables_number      14
_space_group_name_Hall           '-P 2yn'
loop_
_symmetry_equiv_pos_site_id
_symmetry_equiv_pos_as_xyz
1 x,y,z
2 1/2-x,1/2+y,1/2-z
3 -x,-y,-z
4 1/2+x,1/2-y,1/2+z
_cell_length_a                   13.2577(3)
_cell_length_b                   12.2802(4)
_cell_length_c                   22.5646(5)
_cell_angle_alpha                90
_cell_angle_beta                 94.431(2)
_cell_angle_gamma                90
_cell_volume                     3662.7
_exptl_crystal_colour            'light colorless'
_exptl_crystal_description       block
_cell_formula_units_Z            8
loop_
_atom_site_label
_atom_site_type_symbol
_atom_site_fract_x
_atom_site_fract_y
_atom_site_fract_z
S1 S -0.08428(6) 0.36756(8) 0.46536(3)
F1 F -0.0114(2) 0.2968(2) 0.56517(8)
F2 F -0.0442(2) 0.1704(2) 0.50383(10)
F3 F 0.08405(17) 0.2640(2) 0.49610(11)
O1 O -0.06445(12) 0.29947(14) 0.27053(7)
C1 C -0.11024(18) 0.2120(2) 0.30328(10)
C2 C -0.12549(18) 0.2513(2) 0.36530(10)
H1 H -0.1806 0.2263 0.3845
C3 C -0.0613(2) 0.3212(2) 0.39296(11)
C4 C 0.0214(2) 0.3665(2) 0.36120(12)
C5 C 0.1037(2) 0.4254(3) 0.38742(16)
H2 H 0.1099 0.4356 0.4284
C6 C 0.1659(2) 0.4562(3) 0.29307(19)
H3 H 0.2137 0.4876 0.2703
C7 C 0.1751(3) 0.4681(3) 0.3532(2)
H4 H 0.2302 0.5056 0.3712
C8 C 0.0865(2) 0.3981(3) 0.26541(14)
H5 H 0.0805 0.3898 0.2243
C9 C 0.01609(19) 0.3525(2) 0.30019(12)
C10 C -0.21290(18) 0.1905(2) 0.26952(10)
C11 C -0.2614(2) 0.2685(2) 0.23424(12)
H6 H -0.2308 0.3358 0.2297
C12 C -0.3558(2) 0.2475(3) 0.20528(13)
H7 H -0.3881 0.3010 0.1816
C13 C -0.4014(2) 0.1492(3) 0.21140(13)
H8 H -0.4638 0.1346 0.1912
C14 C -0.3546(2) 0.0725(3) 0.24750(15)
H9 H -0.3862 0.0060 0.2529
C15 C -0.2606(2) 0.0929(2) 0.27618(13)
H10 H -0.2292 0.0395 0.3004
C16 C -0.04060(18) 0.1131(2) 0.30250(10)
C17 C -0.0046(2) 0.0591(2) 0.35354(12)
H11 H -0.0228 0.0828 0.3904
C18 C 0.0584(2) -0.0301(3) 0.35000(14)
H12 H 0.0823 -0.0661 0.3845
C19 C 0.0860(2) -0.0657(3) 0.29629(16)
H13 H 0.1285 -0.1255 0.2942
C20 C 0.0507(2) -0.0127(3) 0.24529(14)
H14 H 0.0692 -0.0367 0.2086
C21 C -0.0118(2) 0.0755(2) 0.24843(12)
H15 H -0.0353 0.1109 0.2136
C22 C -0.0104(3) 0.2716(4) 0.50891(14)
S2 S 0.08223(6) 0.16528(7) 0.09837(3)
F4 F 0.21152(17) 0.21963(18) 0.18163(7)
F5 F 0.17525(19) 0.35022(18) 0.12075(9)
F6 F 0.27120(15) 0.2222(2) 0.09645(9)
O2 O 0.13054(13) 0.23970(15) -0.09453(7)
C23 C 0.06523(19) 0.3166(2) -0.06586(10)
C24 C 0.06116(18) 0.2873(2) -0.00087(10)
H16 H 0.0397 0.3400 0.0249
C25 C 0.08652(19) 0.1908(2) 0.02084(10)
C26 C 0.11912(18) 0.1038(2) -0.01808(11)
C27 C 0.1352(2) -0.0044(2) -0.00131(13)
H17 H 0.1234 -0.0263 0.0370
C28 C 0.1685(3) -0.0797(3) -0.04101(15)
H18 H 0.1795 -0.1516 -0.0292
C29 C 0.1853(2) -0.0483(3) -0.09788(15)
H19 H 0.2079 -0.0992 -0.1244
C30 C 0.1690(2) 0.0578(2) -0.11607(12)
H20 H 0.1797 0.0786 -0.1547
C31 C 0.13665(18) 0.1332(2) -0.07596(11)
C32 C 0.1202(2) 0.4248(2) -0.07112(10)
C33 C 0.0792(2) 0.5123(2) -0.10291(12)
H21 H 0.0141 0.5074 -0.1213
C34 C 0.1342(3) 0.6073(3) -0.10773(13)
H22 H 0.1054 0.6656 -0.1292
C35 C 0.2306(3) 0.6167(3) -0.08128(14)
H23 H 0.2674 0.6804 -0.0851
C36 C 0.2720(2) 0.5303(3) -0.04903(14)
H24 H 0.3371 0.5359 -0.0307
C37 C 0.2177(2) 0.4358(2) -0.04375(12)
H25 H 0.2465 0.3783 -0.0216
C38 C -0.0398(2) 0.3147(2) -0.09810(11)
C39 C -0.1239(2) 0.3454(3) -0.07010(13)
H26 H -0.1169 0.3636 -0.0300
C40 C -0.2180(2) 0.3498(3) -0.10023(15)
H27 H -0.2737 0.3712 -0.0804
C41 C -0.2300(3) 0.3229(3) -0.15893(16)
H28 H -0.2937 0.3246 -0.1793
C42 C -0.1470(3) 0.2935(3) -0.18728(15)
H29 H -0.1542 0.2766 -0.2276
C43 C -0.0526(2) 0.2884(3) -0.15724(12)
H30 H 0.0029 0.2669 -0.1772
C44 C 0.1900(3) 0.2427(3) 0.12451(13)
loop_
_geom_bond_atom_site_label_1
_geom_bond_atom_site_label_2
_geom_bond_site_symmetry_1
_geom_bond_site_symmetry_2
S1 C3 1_555 1_555
F1 C22 1_555 1_555
F2 C22 1_555 1_555
F3 C22 1_555 1_555
O1 C1 1_555 1_555
C1 C2 1_555 1_555
C2 H1 1_555 1_555
C3 C2 1_555 1_555
C4 C3 1_555 1_555
C5 C4 1_555 1_555
H2 C5 1_555 1_555
C6 H3 1_555 1_555
C7 C5 1_555 1_555
H4 C7 1_555 1_555
C8 C6 1_555 1_555
H5 C8 1_555 1_555
C9 O1 1_555 1_555
C10 C1 1_555 1_555
C11 C10 1_555 1_555
H6 C11 1_555 1_555
C12 C11 1_555 1_555
H7 C12 1_555 1_555
C13 C12 1_555 1_555
H8 C13 1_555 1_555
C14 C13 1_555 1_555
H9 C14 1_555 1_555
C15 C10 1_555 1_555
H10 C15 1_555 1_555
C16 C1 1_555 1_555
C17 C16 1_555 1_555
H11 C17 1_555 1_555
C18 C17 1_555 1_555
H12 C18 1_555 1_555
C19 C18 1_555 1_555
H13 C19 1_555 1_555
C20 C19 1_555 1_555
H14 C20 1_555 1_555
C21 C16 1_555 1_555
H15 C21 1_555 1_555
C22 S1 1_555 1_555
S2 C25 1_555 1_555
F4 C44 1_555 1_555
F5 C44 1_555 1_555
F6 C44 1_555 1_555
O2 C23 1_555 1_555
C23 C24 1_555 1_555
C24 H16 1_555 1_555
C25 C24 1_555 1_555
C26 C25 1_555 1_555
C27 C26 1_555 1_555
H17 C27 1_555 1_555
C28 C27 1_555 1_555
H18 C28 1_555 1_555
C29 C28 1_555 1_555
H19 C29 1_555 1_555
C30 C29 1_555 1_555
H20 C30 1_555 1_555
C31 O2 1_555 1_555
C32 C23 1_555 1_555
C33 C32 1_555 1_555
H21 C33 1_555 1_555
C34 C33 1_555 1_555
H22 C34 1_555 1_555
C35 C34 1_555 1_555
H23 C35 1_555 1_555
C36 C35 1_555 1_555
H24 C36 1_555 1_555
C37 C32 1_555 1_555
H25 C37 1_555 1_555
C38 C23 1_555 1_555
C39 C38 1_555 1_555
H26 C39 1_555 1_555
C40 C39 1_555 1_555
H27 C40 1_555 1_555
C41 C40 1_555 1_555
H28 C41 1_555 1_555
C42 C41 1_555 1_555
H29 C42 1_555 1_555
C43 C38 1_555 1_555
H30 C43 1_555 1_555
C44 S2 1_555 1_555
C4 C9 1_555 1_555
C6 C7 1_555 1_555
C8 C9 1_555 1_555
C14 C15 1_555 1_555
C20 C21 1_555 1_555
C26 C31 1_555 1_555
C30 C31 1_555 1_555
C36 C37 1_555 1_555
C42 C43 1_555 1_555

#END
