
#######################################################################
#
#                 Cambridge Crystallographic Data Centre
#                                CCDC 
#
#######################################################################
#
# If this CIF has been generated from an entry in the Cambridge 
# Structural Database, then it will include bibliographic, chemical, 
# crystal, experimental, refinement or atomic coordinate data resulting 
# from the CCDC's data processing and validation procedures.
#
#######################################################################

data_UKIVER
_chemical_formula_moiety         'C16 H21 N3'
_chemical_name_systematic        4-(dibutylamino)phthalonitrile
_symmetry_cell_setting           monoclinic
_symmetry_space_group_name_H-M   'P 21/c'
_symmetry_Int_Tables_number      14
_space_group_name_Hall           '-P 2ybc'
loop_
_symmetry_equiv_pos_site_id
_symmetry_equiv_pos_as_xyz
1 x,y,z
2 -x,1/2+y,1/2-z
3 -x,-y,-z
4 x,1/2-y,1/2+z
_cell_length_a                   12.431(3)
_cell_length_b                   8.2243(12)
_cell_length_c                   16.179(3)
_cell_angle_alpha                90
_cell_angle_beta                 103.514(18)
_cell_angle_gamma                90
_cell_volume                     1608.28
_exptl_crystal_colour            pink
_exptl_crystal_description       block
_cell_formula_units_Z            4
loop_
_atom_site_label
_atom_site_type_symbol
_atom_site_fract_x
_atom_site_fract_y
_atom_site_fract_z
C1 C 0.8839(3) 0.8914(4) 1.1135(2)
H1 H 0.8382 0.9514 1.1400
N1 N 0.7594(3) 0.9380(4) 0.9776(2)
C2 C 0.8538(3) 0.8706(4) 1.0253(2)
C3 C 1.0505(3) 0.7347(4) 1.1243(2)
C4 C 0.9797(3) 0.8251(4) 1.1617(2)
C5 C 1.0197(3) 0.7140(4) 1.0370(3)
H2 H 1.0654 0.6539 1.0105
C6 C 0.7342(4) 0.9354(5) 0.8855(3)
H3 H 0.8030 0.9312 0.8669
H4 H 0.6967 1.0355 0.8640
C7 C 0.9258(4) 0.7777(5) 0.9889(3)
H5 H 0.9083 0.7598 0.9306
C8 C 1.0075(4) 0.8465(5) 1.2527(3)
C9 C 0.6813(3) 1.0259(6) 1.0152(3)
H6 H 0.6816 0.9802 1.0705
H7 H 0.6073 1.0138 0.9794
C10 C 1.1498(4) 0.6654(5) 1.1751(3)
C11 C 0.6627(4) 0.7931(5) 0.8475(3)
H8 H 0.5938 0.7968 0.8658
H9 H 0.7002 0.6926 0.8683
C12 C 0.6377(5) 0.7942(6) 0.7513(3)
H10 H 0.6159 0.9032 0.7313
H11 H 0.7046 0.7670 0.7333
N2 N 1.2299(4) 0.6138(5) 1.2160(3)
N3 N 1.0304(4) 0.8615(6) 1.3249(3)
C13 C 0.7110(4) 1.2065(6) 1.0248(3)
H12 H 0.7833 1.2166 1.0633
H13 H 0.7171 1.2476 0.9699
C14 C 0.6343(5) 1.3091(9) 1.0558(4)
H14 H 0.6341 1.2779 1.1136
H15 H 0.5602 1.2930 1.0210
C15 C 0.5497(5) 0.6800(8) 0.7116(4)
H16 H 0.5684 0.5727 0.7336
H17 H 0.5420 0.6798 0.6512
H18 H 0.4811 0.7131 0.7241
C16 C 0.6657(7) 1.4902(8) 1.0540(4)
H19 H 0.7406 1.5053 1.0859
H20 H 0.6169 1.5542 1.0789
H21 H 0.6594 1.5238 0.9963
loop_
_geom_bond_atom_site_label_1
_geom_bond_atom_site_label_2
_geom_bond_site_symmetry_1
_geom_bond_site_symmetry_2
C1 H1 1_555 1_555
N1 C2 1_555 1_555
C2 C1 1_555 1_555
C3 C4 1_555 1_555
C4 C1 1_555 1_555
C5 C3 1_555 1_555
H2 C5 1_555 1_555
C6 N1 1_555 1_555
H3 C6 1_555 1_555
H4 C6 1_555 1_555
C7 C2 1_555 1_555
H5 C7 1_555 1_555
C8 C4 1_555 1_555
C9 N1 1_555 1_555
H6 C9 1_555 1_555
H7 C9 1_555 1_555
C10 C3 1_555 1_555
C11 C6 1_555 1_555
H8 C11 1_555 1_555
H9 C11 1_555 1_555
C12 C11 1_555 1_555
H10 C12 1_555 1_555
H11 C12 1_555 1_555
N2 C10 1_555 1_555
N3 C8 1_555 1_555
C13 C9 1_555 1_555
H12 C13 1_555 1_555
H13 C13 1_555 1_555
C14 C13 1_555 1_555
H14 C14 1_555 1_555
H15 C14 1_555 1_555
C15 C12 1_555 1_555
H16 C15 1_555 1_555
H17 C15 1_555 1_555
H18 C15 1_555 1_555
C16 C14 1_555 1_555
H19 C16 1_555 1_555
H20 C16 1_555 1_555
H21 C16 1_555 1_555
C5 C7 1_555 1_555

#END
