
#######################################################################
#
#                 Cambridge Crystallographic Data Centre
#                                CCDC 
#
#######################################################################
#
# If this CIF has been generated from an entry in the Cambridge 
# Structural Database, then it will include bibliographic, chemical, 
# crystal, experimental, refinement or atomic coordinate data resulting 
# from the CCDC's data processing and validation procedures.
#
#######################################################################

data_UKUNEV
_chemical_formula_moiety         'C86 H86 N10 O8,2(C2 H6 O1)'
_chemical_name_systematic        
'18,29,67,78-tetraoxa-3,10,37,44,52,59,86,93,99,100-decaazaundecacyclo[93.3.1.1^46,50^.0^4,9^.0^12,17^.0^30,35^.0^38,43^.0^53,58^.0^61,66^.0^79,84^.0^87,92^]hecta-1(99),4,6,8,10,12,14,16,30,32,34,36,38,40,42,46(100),47,49,53,55,57,59,61,63,65,79,81,83,85,87,89,91,95,97-tetratriacontaene-2,45,51,94-tetrone ethanol solvate'
_symmetry_cell_setting           triclinic
_symmetry_space_group_name_H-M   'P -1'
_symmetry_Int_Tables_number      2
_space_group_name_Hall           '-P 1'
loop_
_symmetry_equiv_pos_site_id
_symmetry_equiv_pos_as_xyz
1 x,y,z
2 -x,-y,-z
_cell_length_a                   11.9240(11)
_cell_length_b                   12.1676(10)
_cell_length_c                   14.4991(13)
_cell_angle_alpha                89.003(3)
_cell_angle_beta                 80.871(4)
_cell_angle_gamma                82.517(3)
_cell_volume                     2059.28
_exptl_crystal_colour            colorless
_exptl_crystal_description       block
_cell_formula_units_Z            1
loop_
_atom_site_label
_atom_site_type_symbol
_atom_site_fract_x
_atom_site_fract_y
_atom_site_fract_z
C1 C 1.7152(4) 1.2120(4) 0.8523(3)
C2 C 1.7881(5) 1.2777(5) 0.8880(4)
H1 H 1.7758 1.3546 0.8837
C3 C 1.8753(5) 1.2278(5) 0.9283(4)
H2 H 1.9245 1.2698 0.9515
C4 C 1.8915(5) 1.1131(5) 0.9350(4)
H3 H 1.9531 1.0767 0.9603
C5 C 1.8131(4) 1.0546(4) 0.9027(3)
C6 C 1.8267(5) 0.9313(4) 0.9162(3)
C7 C 1.7093(5) 0.7763(4) 0.9445(4)
C8 C 1.7956(5) 0.6926(4) 0.9614(4)
H4 H 1.8722 0.7040 0.9494
C9 C 1.7644(7) 0.5915(5) 0.9967(5)
H5 H 1.8208 0.5361 1.0103
C10 C 1.6528(7) 0.5725(5) 1.0115(5)
H6 H 1.6339 0.5044 1.0345
C11 C 1.5676(6) 0.6541(5) 0.9923(4)
H7 H 1.4916 0.6407 1.0026
C12 C 1.5954(5) 0.7570(4) 0.9574(4)
C13 C 1.4272(5) 0.8252(4) 0.9004(3)
H8 H 1.4160 0.7517 0.8941
C14 C 1.3454(4) 0.9111(4) 0.8706(3)
C15 C 1.2508(4) 0.8834(4) 0.8338(4)
C16 C 1.1774(5) 0.9662(5) 0.7999(5)
H9 H 1.1157 0.9482 0.7740
C17 C 1.1957(5) 1.0755(5) 0.8046(4)
H10 H 1.1462 1.1303 0.7808
C18 C 1.2857(5) 1.1056(5) 0.8437(4)
H11 H 1.2957 1.1797 0.8484
C19 C 1.3590(5) 1.0239(4) 0.8750(4)
H12 H 1.4207 1.0433 0.9003
C20 C 1.1511(5) 0.7387(4) 0.7893(4)
H13 H 1.1669 0.7523 0.7226
H14 H 1.0774 0.7796 0.8140
C21 C 1.1494(5) 0.6174(5) 0.8071(4)
H15 H 1.1215 0.6062 0.8727
H16 H 1.2268 0.5793 0.7932
C22 C 1.0710(6) 0.5659(5) 0.7462(5)
H17 H 0.9959 0.6095 0.7541
H18 H 1.1042 0.5682 0.6807
C23 C 1.0590(6) 0.4465(5) 0.7749(6)
H19 H 1.1322 0.4108 0.7882
H20 H 1.0043 0.4467 0.8321
C24 C 1.0204(7) 0.3789(6) 0.7023(6)
H21 H 1.0835 0.3655 0.6510
H22 H 1.0077 0.3074 0.7298
C25 C 0.9168(6) 0.4229(5) 0.6621(6)
H23 H 0.9333 0.4866 0.6236
H24 H 0.8557 0.4481 0.7126
C26 C 0.8752(6) 0.3389(5) 0.6033(5)
H25 H 0.9400 0.3078 0.5581
H26 H 0.8526 0.2789 0.6441
C27 C 0.7820(5) 0.3750(5) 0.5530(5)
H27 H 0.8062 0.4305 0.5080
H28 H 0.7183 0.4106 0.5969
C28 C 0.7400(5) 0.2856(4) 0.5019(4)
H29 H 0.8042 0.2464 0.4607
H30 H 0.7098 0.2328 0.5471
C29 C 0.6491(5) 0.3293(4) 0.4456(4)
H31 H 0.5845 0.3694 0.4858
H32 H 0.6790 0.3797 0.3983
C30 C 0.5199(4) 0.2590(4) 0.3585(3)
C31 C 0.4719(4) 0.1661(3) 0.3347(3)
C32 C 0.3729(4) 0.1852(4) 0.2931(3)
H33 H 0.3382 0.1253 0.2779
C33 C 0.3271(5) 0.2893(5) 0.2747(4)
H34 H 0.2598 0.2999 0.2490
C34 C 0.3780(5) 0.3794(4) 0.2931(4)
H35 H 0.3474 0.4502 0.2774
C35 C 0.4737(5) 0.3648(4) 0.3345(4)
H36 H 0.5085 0.4258 0.3468
C36 C 1.4773(4) 0.9445(4) 0.6477(3)
H37 H 1.4061 0.9534 0.6280
C37 C 1.3914(4) 1.1607(4) 0.5781(4)
H38 H 1.3765 1.1042 0.5413
C38 C 1.3390(5) 1.2667(5) 0.5694(4)
H39 H 1.2896 1.2822 0.5260
C39 C 1.3594(5) 1.3501(5) 0.6250(5)
H40 H 1.3211 1.4211 0.6200
C40 C 1.4339(5) 1.3316(4) 0.6866(4)
H41 H 1.4470 1.3896 0.7226
C41 C 1.4913(4) 1.2245(4) 0.6960(4)
C42 C 1.4678(4) 1.1371(3) 0.6428(3)
C43 C 1.6247(5) 1.2676(4) 0.7996(4)
N1 N 1.5696(4) 1.1978(3) 0.7578(3)
H42 H 1.5842 1.1286 0.7706
N2 N 1.7308(3) 0.8840(3) 0.9138(3)
H43 H 1.6766 0.9236 0.8912
N3 N 1.5139(4) 0.8457(3) 0.9349(3)
N4 N 1.5245(3) 1.0315(3) 0.6576(3)
N5 N 1.7271(3) 1.1024(3) 0.8612(3)
O1 O 1.6070(4) 1.3685(3) 0.7948(3)
O2 O 1.9178(3) 0.8816(3) 0.9332(3)
O3 O 1.2384(3) 0.7733(3) 0.8341(3)
O4 O 0.6130(3) 0.2372(2) 0.4022(2)
C1A C 0.2848(4) -0.2120(4) 0.1477(3)
C2A C 0.2119(5) -0.2777(5) 0.1120(4)
H1A H 0.2242 -0.3546 0.1163
C3A C 0.1247(5) -0.2278(5) 0.0717(4)
H2A H 0.0755 -0.2698 0.0485
C4A C 0.1085(5) -0.1131(5) 0.0650(4)
H3A H 0.0469 -0.0767 0.0397
C5A C 0.1869(4) -0.0546(4) 0.0973(3)
C6A C 0.1733(5) 0.0687(4) 0.0838(3)
C7A C 0.2907(5) 0.2237(4) 0.0555(4)
C8A C 0.2044(5) 0.3074(4) 0.0386(4)
H4A H 0.1278 0.2960 0.0506
C9A C 0.2356(7) 0.4085(5) 0.0033(5)
H5A H 0.1792 0.4639 -0.0103
C10A C 0.3472(7) 0.4275(5) -0.0115(5)
H6A H 0.3661 0.4956 -0.0345
C11A C 0.4324(6) 0.3459(5) 0.0077(4)
H7A H 0.5084 0.3593 -0.0026
C12A C 0.4046(5) 0.2430(4) 0.0426(4)
C13A C 0.5728(5) 0.1748(4) 0.0996(3)
H8A H 0.5840 0.2483 0.1059
C14A C 0.6546(4) 0.0889(4) 0.1294(3)
C15A C 0.7492(4) 0.1166(4) 0.1662(4)
C16A C 0.8226(5) 0.0338(5) 0.2001(5)
H9A H 0.8843 0.0518 0.2260
C17A C 0.8043(5) -0.0755(5) 0.1954(4)
H10A H 0.8538 -0.1303 0.2192
C18A C 0.7143(5) -0.1056(5) 0.1563(4)
H11A H 0.7043 -0.1797 0.1516
C19A C 0.6410(5) -0.0239(4) 0.1250(4)
H12A H 0.5793 -0.0433 0.0997
C20A C 0.8489(5) 0.2613(4) 0.2107(4)
H13A H 0.8331 0.2477 0.2774
H14A H 0.9226 0.2204 0.1860
C21A C 0.8506(5) 0.3826(5) 0.1929(4)
H15A H 0.8785 0.3938 0.1273
H16A H 0.7732 0.4207 0.2068
C22A C 0.9290(6) 0.4341(5) 0.2538(5)
H17A H 1.0041 0.3905 0.2459
H18A H 0.8958 0.4318 0.3193
C23A C 0.9410(6) 0.5535(5) 0.2251(6)
H19A H 0.8678 0.5892 0.2118
H20A H 0.9957 0.5533 0.1679
C24A C 0.9796(7) 0.6211(6) 0.2977(6)
H21A H 0.9165 0.6345 0.3490
H22A H 0.9923 0.6926 0.2702
C25A C 1.0832(6) 0.5771(5) 0.3379(6)
H23A H 1.0667 0.5134 0.3764
H24A H 1.1443 0.5519 0.2874
C26A C 1.1248(6) 0.6611(5) 0.3967(5)
H25A H 1.0600 0.6922 0.4419
H26A H 1.1474 0.7211 0.3559
C27A C 1.2180(5) 0.6250(5) 0.4470(5)
H27A H 1.1938 0.5695 0.4920
H28A H 1.2817 0.5894 0.4031
C28A C 1.2600(5) 0.7144(4) 0.4981(4)
H29A H 1.1958 0.7536 0.5393
H30A H 1.2902 0.7672 0.4529
C29A C 1.3509(5) 0.6707(4) 0.5544(4)
H31A H 1.4155 0.6306 0.5142
H32A H 1.3210 0.6203 0.6017
C30A C 1.4801(4) 0.7410(4) 0.6415(3)
C31A C 1.5281(4) 0.8339(3) 0.6653(3)
C32A C 1.6271(4) 0.8148(4) 0.7069(3)
H33A H 1.6618 0.8747 0.7221
C33A C 1.6729(5) 0.7107(5) 0.7253(4)
H34A H 1.7402 0.7001 0.7510
C34A C 1.6220(5) 0.6206(4) 0.7069(4)
H35A H 1.6526 0.5498 0.7226
C35A C 1.5263(5) 0.6352(4) 0.6655(4)
H36A H 1.4915 0.5742 0.6532
C36A C 0.5227(4) 0.0555(4) 0.3523(3)
H37A H 0.5939 0.0466 0.3720
C37A C 0.6086(4) -0.1607(4) 0.4219(4)
H38A H 0.6235 -0.1042 0.4587
C38A C 0.6610(5) -0.2667(5) 0.4306(4)
H39A H 0.7104 -0.2822 0.4740
C39A C 0.6406(5) -0.3501(5) 0.3750(5)
H40A H 0.6789 -0.4211 0.3800
C40A C 0.5661(5) -0.3316(4) 0.3134(4)
H41A H 0.5530 -0.3896 0.2774
C41A C 0.5087(4) -0.2245(4) 0.3040(4)
C42A C 0.5322(4) -0.1371(3) 0.3572(3)
C43A C 0.3753(5) -0.2676(4) 0.2004(4)
N1A N 0.4304(4) -0.1978(3) 0.2422(3)
H42A H 0.4158 -0.1286 0.2294
N2A N 0.2692(3) 0.1160(3) 0.0862(3)
H43A H 0.3234 0.0764 0.1088
N3A N 0.4861(4) 0.1543(3) 0.0651(3)
N4A N 0.4755(3) -0.0315(3) 0.3424(3)
N5A N 0.2729(3) -0.1024(3) 0.1388(3)
O1A O 0.3930(4) -0.3685(3) 0.2052(3)
O2A O 0.0822(3) 0.1184(3) 0.0668(3)
O3A O 0.7616(3) 0.2267(3) 0.1659(3)
O4A O 1.3870(3) 0.7628(2) 0.5978(2)
C44 C 1.8630(7) 0.9166(10) 0.4982(7)
H44 H 1.8261 0.9581 0.4520
H45 H 1.8252 0.8526 0.5155
H46 H 1.9418 0.8934 0.4729
C45 C 1.8557(9) 0.9976(9) 0.5941(14)
H47 H 1.7775 1.0207 0.6236
H48 H 1.8960 1.0618 0.5806
O5 O 1.9269(4) 0.8988(7) 0.6576(4)
H49 H 1.9308 0.9245 0.7088
loop_
_geom_bond_atom_site_label_1
_geom_bond_atom_site_label_2
_geom_bond_site_symmetry_1
_geom_bond_site_symmetry_2
C1 C2 1_555 1_555
C2 H1 1_555 1_555
C3 C2 1_555 1_555
H2 C3 1_555 1_555
C4 C3 1_555 1_555
H3 C4 1_555 1_555
C5 C4 1_555 1_555
C6 C5 1_555 1_555
C7 C8 1_555 1_555
C8 H4 1_555 1_555
C9 C8 1_555 1_555
H5 C9 1_555 1_555
C10 C9 1_555 1_555
H6 C10 1_555 1_555
C11 C10 1_555 1_555
H7 C11 1_555 1_555
C12 C7 1_555 1_555
C13 H8 1_555 1_555
C14 C13 1_555 1_555
C15 C14 1_555 1_555
C16 C15 1_555 1_555
H9 C16 1_555 1_555
C17 C16 1_555 1_555
H10 C17 1_555 1_555
C18 C17 1_555 1_555
H11 C18 1_555 1_555
C19 C14 1_555 1_555
H12 C19 1_555 1_555
C20 H13 1_555 1_555
H14 C20 1_555 1_555
C21 C20 1_555 1_555
H15 C21 1_555 1_555
H16 C21 1_555 1_555
C22 C21 1_555 1_555
H17 C22 1_555 1_555
H18 C22 1_555 1_555
C23 C22 1_555 1_555
H19 C23 1_555 1_555
H20 C23 1_555 1_555
C24 C23 1_555 1_555
H21 C24 1_555 1_555
H22 C24 1_555 1_555
C25 C24 1_555 1_555
H23 C25 1_555 1_555
H24 C25 1_555 1_555
C26 C25 1_555 1_555
H25 C26 1_555 1_555
H26 C26 1_555 1_555
C27 C26 1_555 1_555
H27 C27 1_555 1_555
H28 C27 1_555 1_555
C28 C27 1_555 1_555
H29 C28 1_555 1_555
H30 C28 1_555 1_555
C29 C28 1_555 1_555
H31 C29 1_555 1_555
H32 C29 1_555 1_555
C30 C31 1_555 1_555
C31 C32 1_555 1_555
C32 H33 1_555 1_555
C33 C32 1_555 1_555
H34 C33 1_555 1_555
C34 C33 1_555 1_555
H35 C34 1_555 1_555
C35 C30 1_555 1_555
H36 C35 1_555 1_555
C36 H37 1_555 1_555
C37 H38 1_555 1_555
C38 C37 1_555 1_555
H39 C38 1_555 1_555
C39 C38 1_555 1_555
H40 C39 1_555 1_555
C40 C39 1_555 1_555
H41 C40 1_555 1_555
C41 C40 1_555 1_555
C42 C37 1_555 1_555
C43 C1 1_555 1_555
N1 C41 1_555 1_555
H42 N1 1_555 1_555
N2 C6 1_555 1_555
H43 N2 1_555 1_555
N3 C12 1_555 1_555
N4 C36 1_555 1_555
N5 C1 1_555 1_555
O1 C43 1_555 1_555
O2 C6 1_555 1_555
O3 C15 1_555 1_555
O4 C29 1_555 1_555
C44 H44 1_555 1_555
H45 C44 1_555 1_555
H46 C44 1_555 1_555
C45 C44 1_555 1_555
H47 C45 1_555 1_555
H48 C45 1_555 1_555
O5 C45 1_555 1_555
H49 O5 1_555 1_555
C1A C2A 1_555 1_555
C2A H1A 1_555 1_555
C3A C2A 1_555 1_555
H2A C3A 1_555 1_555
C4A C3A 1_555 1_555
H3A C4A 1_555 1_555
C5A C4A 1_555 1_555
C6A C5A 1_555 1_555
C7A C8A 1_555 1_555
C8A H4A 1_555 1_555
C9A C8A 1_555 1_555
H5A C9A 1_555 1_555
C10A C9A 1_555 1_555
H6A C10A 1_555 1_555
C11A C10A 1_555 1_555
H7A C11A 1_555 1_555
C12A C7A 1_555 1_555
C13A H8A 1_555 1_555
C14A C13A 1_555 1_555
C15A C14A 1_555 1_555
C16A C15A 1_555 1_555
H9A C16A 1_555 1_555
C17A C16A 1_555 1_555
H10A C17A 1_555 1_555
C18A C17A 1_555 1_555
H11A C18A 1_555 1_555
C19A C14A 1_555 1_555
H12A C19A 1_555 1_555
C20A H13A 1_555 1_555
H14A C20A 1_555 1_555
C21A C20A 1_555 1_555
H15A C21A 1_555 1_555
H16A C21A 1_555 1_555
C22A C21A 1_555 1_555
H17A C22A 1_555 1_555
H18A C22A 1_555 1_555
C23A C22A 1_555 1_555
H19A C23A 1_555 1_555
H20A C23A 1_555 1_555
C24A C23A 1_555 1_555
H21A C24A 1_555 1_555
H22A C24A 1_555 1_555
C25A C24A 1_555 1_555
H23A C25A 1_555 1_555
H24A C25A 1_555 1_555
C26A C25A 1_555 1_555
H25A C26A 1_555 1_555
H26A C26A 1_555 1_555
C27A C26A 1_555 1_555
H27A C27A 1_555 1_555
H28A C27A 1_555 1_555
C28A C27A 1_555 1_555
H29A C28A 1_555 1_555
H30A C28A 1_555 1_555
C29A C28A 1_555 1_555
H31A C29A 1_555 1_555
H32A C29A 1_555 1_555
C30A C31A 1_555 1_555
C31A C36 1_555 1_555
C32A C31A 1_555 1_555
H33A C32A 1_555 1_555
C33A C32A 1_555 1_555
H34A C33A 1_555 1_555
C34A C33A 1_555 1_555
H35A C34A 1_555 1_555
C35A C30A 1_555 1_555
H36A C35A 1_555 1_555
C36A C31 1_555 1_555
H37A C36A 1_555 1_555
C37A H38A 1_555 1_555
C38A C37A 1_555 1_555
H39A C38A 1_555 1_555
C39A C38A 1_555 1_555
H40A C39A 1_555 1_555
C40A C39A 1_555 1_555
H41A C40A 1_555 1_555
C41A C40A 1_555 1_555
C42A C37A 1_555 1_555
C43A C1A 1_555 1_555
N1A C41A 1_555 1_555
H42A N1A 1_555 1_555
N2A C6A 1_555 1_555
H43A N2A 1_555 1_555
N3A C12A 1_555 1_555
N4A C36A 1_555 1_555
N5A C1A 1_555 1_555
O1A C43A 1_555 1_555
O2A C6A 1_555 1_555
O3A C15A 1_555 1_555
O4A C29A 1_555 1_555
C5 N5 1_555 1_555
C7 N2 1_555 1_555
C11 C12 1_555 1_555
C13 N3 1_555 1_555
C18 C19 1_555 1_555
C20 O3 1_555 1_555
C30 O4 1_555 1_555
C34 C35 1_555 1_555
C41 C42 1_555 1_555
C42 N4 1_555 1_555
C43 N1 1_555 1_555
C5A N5A 1_555 1_555
C7A N2A 1_555 1_555
C11A C12A 1_555 1_555
C13A N3A 1_555 1_555
C18A C19A 1_555 1_555
C20A O3A 1_555 1_555
C30A O4A 1_555 1_555
C34A C35A 1_555 1_555
C41A C42A 1_555 1_555
C42A N4A 1_555 1_555
C43A N1A 1_555 1_555

#END
