
#######################################################################
#
#                 Cambridge Crystallographic Data Centre
#                                CCDC 
#
#######################################################################
#
# If this CIF has been generated from an entry in the Cambridge 
# Structural Database, then it will include bibliographic, chemical, 
# crystal, experimental, refinement or atomic coordinate data resulting 
# from the CCDC's data processing and validation procedures.
#
#######################################################################

data_UKUPUN
_chemical_formula_moiety         'C30 H50 O2,C3 H8 O1'
_chemical_name_systematic        'lup-20(29)-ene-3,28-diol propan-2-ol solvate'
_symmetry_cell_setting           orthorhombic
_symmetry_space_group_name_H-M   'P 21 21 21'
_symmetry_Int_Tables_number      19
_space_group_name_Hall           'P 2ac 2ab'
loop_
_symmetry_equiv_pos_site_id
_symmetry_equiv_pos_as_xyz
1 x,y,z
2 1/2-x,-y,1/2+z
3 1/2+x,1/2-y,-z
4 -x,1/2+y,1/2-z
_cell_length_a                   7.023(3)
_cell_length_b                   12.532(3)
_cell_length_c                   34.674(9)
_cell_angle_alpha                90
_cell_angle_beta                 90
_cell_angle_gamma                90
_cell_volume                     3051.74
_exptl_crystal_colour            colorless
_exptl_crystal_description       Prism
_cell_formula_units_Z            4
loop_
_atom_site_label
_atom_site_type_symbol
_atom_site_fract_x
_atom_site_fract_y
_atom_site_fract_z
C1 C -0.3745(4) 0.3349(2) -0.30265(8)
H1 H -0.5041 0.3429 -0.2935
H2 H -0.3004 0.3935 -0.2922
C2 C -0.3744(4) 0.3430(3) -0.34651(8)
H3 H -0.4598 0.2896 -0.3571
H4 H -0.4211 0.4127 -0.3541
C3 C -0.1780(4) 0.3266(2) -0.36273(7)
H5 H -0.0963 0.3831 -0.3523
C4 C -0.0879(3) 0.2189(2) -0.35154(7)
C5 C -0.0960(3) 0.21043(18) -0.30681(6)
H6 H -0.0172 0.2699 -0.2978
C6 C -0.0003(4) 0.1119(2) -0.29020(7)
H7 H 0.1170 0.0980 -0.3041
H8 H -0.0832 0.0506 -0.2934
C7 C 0.0436(4) 0.1274(2) -0.24747(7)
H9 H 0.1348 0.1850 -0.2448
H10 H 0.1027 0.0629 -0.2376
C8 C -0.1331(3) 0.15302(19) -0.22270(7)
C9 C -0.2508(3) 0.2434(2) -0.24283(7)
H11 H -0.1692 0.3067 -0.2414
C10 C -0.2929(3) 0.22887(19) -0.28698(7)
C11 C -0.4277(4) 0.2721(3) -0.21859(7)
H12 H -0.4936 0.3313 -0.2307
H13 H -0.5138 0.2115 -0.2182
C12 C -0.3773(4) 0.3025(2) -0.17709(7)
H14 H -0.3080 0.3694 -0.1772
H15 H -0.4937 0.3130 -0.1625
C13 C -0.2566(3) 0.2169(2) -0.15732(7)
H16 H -0.3315 0.1509 -0.1580
C14 C -0.0714(3) 0.19472(19) -0.18114(7)
C15 C 0.0551(4) 0.1103(2) -0.16066(8)
H17 H -0.0013 0.0406 -0.1647
H18 H 0.1790 0.1100 -0.1730
C16 C 0.0842(4) 0.1264(2) -0.11719(8)
H19 H 0.1499 0.0650 -0.1066
H20 H 0.1635 0.1887 -0.1130
C17 C -0.1049(4) 0.1411(2) -0.09628(7)
C18 C -0.2082(4) 0.2375(2) -0.11499(7)
H21 H -0.1177 0.2971 -0.1146
C19 C -0.3680(4) 0.2664(2) -0.08630(7)
H22 H -0.4790 0.2216 -0.0920
C20 C -0.4327(5) 0.3814(2) -0.08457(8)
C21 C -0.2859(6) 0.2318(3) -0.04648(9)
H23 H -0.2690 0.2936 -0.0300
H24 H -0.3720 0.1825 -0.0338
C22 C -0.0935(5) 0.1779(3) -0.05421(8)
H25 H 0.0105 0.2279 -0.0506
H26 H -0.0748 0.1176 -0.0371
C23 C 0.1217(4) 0.2224(3) -0.36416(8)
H27 H 0.1286 0.2338 -0.3915
H28 H 0.1822 0.1560 -0.3578
H29 H 0.1854 0.2797 -0.3510
C24 C -0.1824(5) 0.1257(2) -0.37297(8)
H30 H -0.3183 0.1319 -0.3709
H31 H -0.1420 0.0595 -0.3617
H32 H -0.1460 0.1276 -0.3996
C25 C -0.4403(4) 0.1407(3) -0.29524(8)
H33 H -0.5340 0.1398 -0.2751
H34 H -0.3774 0.0728 -0.2963
H35 H -0.5015 0.1546 -0.3195
C26 C -0.2503(5) 0.0487(2) -0.21920(8)
H36 H -0.2543 0.0135 -0.2438
H37 H -0.3776 0.0654 -0.2111
H38 H -0.1917 0.0025 -0.2006
C27 C 0.0494(4) 0.2973(2) -0.18362(8)
H39 H 0.1506 0.2872 -0.2018
H40 H 0.1022 0.3131 -0.1587
H41 H -0.0295 0.3556 -0.1918
C28 C -0.2278(4) 0.0400(2) -0.09856(8)
H42 H -0.3547 0.0555 -0.0890
H43 H -0.2389 0.0175 -0.1252
C29 C -0.3259(7) 0.4653(3) -0.09461(11)
H44 H -0.3728 0.5341 -0.0914
H45 H -0.2048 0.4548 -0.1048
C30 C -0.6233(6) 0.3983(4) -0.06860(14)
H46 H -0.7171 0.3757 -0.0870
H47 H -0.6407 0.4727 -0.0630
H48 H -0.6371 0.3576 -0.0453
O1 O -0.1864(3) 0.34052(18) -0.40388(5)
H49 H -0.0906 0.3719 -0.4112
O2 O -0.1453(3) -0.04400(17) -0.07626(6)
H50 H -0.245(6) -0.079(3) -0.0685(11)
C31 C -0.685(3) -0.0203(13) -0.0148(3)
H51 H -0.8139 -0.0457 -0.0139
H52 H -0.6653 0.0186 -0.0383
H53 H -0.6618 0.0257 0.0068
C32 C -0.5578(9) -0.1085(7) -0.01338(13)
H54 H -0.6199 -0.1716 -0.0024
C33 C -0.4183(17) -0.0687(12) 0.0114(2)
H55 H -0.3456 -0.0148 -0.0016
H56 H -0.3354 -0.1256 0.0193
H57 H -0.4780 -0.0381 0.0338
O3 O -0.4869(4) -0.1297(3) -0.05001(7)
H58 H -0.5705 -0.1570 -0.0632
C34? C -0.753(3) -0.119(3) -0.0023(5)
C35? C -0.600(6) -0.198(2) 0.0100(7)
loop_
_geom_bond_atom_site_label_1
_geom_bond_atom_site_label_2
_geom_bond_site_symmetry_1
_geom_bond_site_symmetry_2
C1 H1 1_555 1_555
H2 C1 1_555 1_555
C2 C1 1_555 1_555
H3 C2 1_555 1_555
H4 C2 1_555 1_555
C3 C2 1_555 1_555
H5 C3 1_555 1_555
C4 C3 1_555 1_555
C5 C4 1_555 1_555
H6 C5 1_555 1_555
C6 C5 1_555 1_555
H7 C6 1_555 1_555
H8 C6 1_555 1_555
C7 C6 1_555 1_555
H9 C7 1_555 1_555
H10 C7 1_555 1_555
C8 C7 1_555 1_555
C9 C8 1_555 1_555
H11 C9 1_555 1_555
C10 C1 1_555 1_555
C11 C9 1_555 1_555
H12 C11 1_555 1_555
H13 C11 1_555 1_555
C12 C11 1_555 1_555
H14 C12 1_555 1_555
H15 C12 1_555 1_555
C13 C12 1_555 1_555
H16 C13 1_555 1_555
C14 C8 1_555 1_555
C15 C14 1_555 1_555
H17 C15 1_555 1_555
H18 C15 1_555 1_555
C16 C15 1_555 1_555
H19 C16 1_555 1_555
H20 C16 1_555 1_555
C17 C16 1_555 1_555
C18 C13 1_555 1_555
H21 C18 1_555 1_555
C19 C18 1_555 1_555
H22 C19 1_555 1_555
C20 C19 1_555 1_555
C21 C19 1_555 1_555
H23 C21 1_555 1_555
H24 C21 1_555 1_555
C22 C17 1_555 1_555
H25 C22 1_555 1_555
H26 C22 1_555 1_555
C23 C4 1_555 1_555
H27 C23 1_555 1_555
H28 C23 1_555 1_555
H29 C23 1_555 1_555
C24 C4 1_555 1_555
H30 C24 1_555 1_555
H31 C24 1_555 1_555
H32 C24 1_555 1_555
C25 C10 1_555 1_555
H33 C25 1_555 1_555
H34 C25 1_555 1_555
H35 C25 1_555 1_555
C26 C8 1_555 1_555
H36 C26 1_555 1_555
H37 C26 1_555 1_555
H38 C26 1_555 1_555
C27 C14 1_555 1_555
H39 C27 1_555 1_555
H40 C27 1_555 1_555
H41 C27 1_555 1_555
C28 C17 1_555 1_555
H42 C28 1_555 1_555
H43 C28 1_555 1_555
C29 C20 1_555 1_555
H44 C29 1_555 1_555
H45 C29 1_555 1_555
C30 C20 1_555 1_555
H46 C30 1_555 1_555
H47 C30 1_555 1_555
H48 C30 1_555 1_555
O1 C3 1_555 1_555
H49 O1 1_555 1_555
O2 C28 1_555 1_555
H50 O2 1_555 1_555
C31 H51 1_555 1_555
H52 C31 1_555 1_555
H53 C31 1_555 1_555
C32 C31 1_555 1_555
H54 C32 1_555 1_555
C33 C32 1_555 1_555
H55 C33 1_555 1_555
H56 C33 1_555 1_555
H57 C33 1_555 1_555
O3 C32 1_555 1_555
H58 O3 1_555 1_555
C5 C10 1_555 1_555
C9 C10 1_555 1_555
C13 C14 1_555 1_555
C17 C18 1_555 1_555
C21 C22 1_555 1_555

#END
