
#######################################################################
#
#                 Cambridge Crystallographic Data Centre
#                                CCDC 
#
#######################################################################
#
# If this CIF has been generated from an entry in the Cambridge 
# Structural Database, then it will include bibliographic, chemical, 
# crystal, experimental, refinement or atomic coordinate data resulting 
# from the CCDC's data processing and validation procedures.
#
#######################################################################

data_UKUVIF
_chemical_formula_moiety         'C48 H49 N5 O6,0.5(C1 H2 Cl2),0.5(C6 H14)'
_chemical_name_systematic        
'4,7,10,13-Tetrabenzyl-15-hydroxy-5,8,11-trimethyl-1,4,7,10,13-pentaazatricyclo(13.7.0.0^16,21^)docosa-16,18,20-triene-3,6,9,12,22-pentaone dichloromethane hexane solvate'
_symmetry_cell_setting           orthorhombic
_symmetry_space_group_name_H-M   'P 21 21 21'
_symmetry_Int_Tables_number      19
_space_group_name_Hall           'P 2ac 2ab'
loop_
_symmetry_equiv_pos_site_id
_symmetry_equiv_pos_as_xyz
1 x,y,z
2 1/2-x,-y,1/2+z
3 -x,1/2+y,1/2-z
4 1/2+x,1/2-y,-z
_cell_length_a                   9.8833(5)
_cell_length_b                   24.7789(12)
_cell_length_c                   37.5458(19)
_cell_angle_alpha                90
_cell_angle_beta                 90
_cell_angle_gamma                90
_cell_volume                     9194.87
_exptl_crystal_colour            colorless
_exptl_crystal_description       needle
_chemical_melting_point          '203.4-204.2 deg.C'
_cell_formula_units_Z            8
_exptl_crystal_preparation       'irradiated product'
loop_
_atom_site_label
_atom_site_type_symbol
_atom_site_fract_x
_atom_site_fract_y
_atom_site_fract_z
O1 O 0.4772(5) 0.11980(19) 0.96414(14)
O2 O 0.7200(5) 0.26779(18) 0.98940(13)
H1 H 0.6895 0.2586 1.0094
O3 O 0.5996(5) 0.1658(2) 0.89126(14)
O4 O 0.7546(5) 0.2565(2) 0.84824(15)
O5 O 1.0665(5) 0.2270(2) 0.85606(14)
O6 O 1.1682(5) 0.24525(19) 0.93808(13)
N1 N 0.5946(6) 0.1998(2) 0.95950(16)
N2 N 0.4881(7) 0.2379(2) 0.87003(17)
N3 N 0.7564(6) 0.1753(2) 0.82162(16)
N4 N 0.9574(6) 0.1606(2) 0.88470(16)
N5 N 0.9428(6) 0.2571(2) 0.93752(16)
C1 C 0.5820(8) 0.1468(3) 0.9686(2)
C2 C 0.7101(7) 0.1306(3) 0.9860(2)
C3 C 0.7471(8) 0.0809(3) 1.0005(2)
H2 H 0.6885 0.0506 0.9995
C4 C 0.8738(8) 0.0779(3) 1.0165(2)
H3 H 0.9034 0.0447 1.0265
C5 C 0.9559(8) 0.1219(3) 1.0181(2)
H4 H 1.0405 0.1190 1.0299
C6 C 0.9203(8) 0.1709(3) 1.0031(2)
H5 H 0.9792 0.2011 1.0039
C7 C 0.7940(8) 0.1739(3) 0.9866(2)
C8 C 0.7323(8) 0.2216(3) 0.9675(2)
C9 C 0.4996(7) 0.2255(3) 0.93477(19)
H6 H 0.5081 0.2652 0.9363
H7 H 0.4057 0.2155 0.9411
C10 C 0.5310(8) 0.2067(3) 0.8966(2)
C11 C 0.3801(8) 0.2779(3) 0.8753(2)
H8 H 0.3256 0.2669 0.8962
H9 H 0.3199 0.2771 0.8542
C12 C 0.4290(7) 0.3364(3) 0.8810(2)
C13 C 0.3307(7) 0.3738(3) 0.8895(2)
H10 H 0.2388 0.3628 0.8911
C14 C 0.3646(9) 0.4271(3) 0.8955(2)
H11 H 0.2960 0.4526 0.9010
C15 C 0.4973(8) 0.4433(3) 0.8937(3)
H12 H 0.5205 0.4801 0.8973
C16 C 0.5962(9) 0.4057(3) 0.8866(3)
H13 H 0.6885 0.4164 0.8858
C17 C 0.5615(7) 0.3524(3) 0.8804(2)
H14 H 0.6305 0.3267 0.8757
C18 C 0.5381(8) 0.2200(3) 0.8342(2)
H15 H 0.5029 0.1831 0.8286
C19 C 0.4972(9) 0.2600(4) 0.8046(2)
H16 H 0.5328 0.2959 0.8103
H17 H 0.3984 0.2616 0.8030
H18 H 0.5345 0.2478 0.7818
C20 C 0.6927(9) 0.2190(4) 0.8364(2)
C21 C 0.6892(8) 0.1243(3) 0.8102(2)
H19 H 0.7561 0.0947 0.8118
H20 H 0.6157 0.1162 0.8273
C22 C 0.6318(10) 0.1245(5) 0.7741(3)
C23 C 0.4939(12) 0.1212(5) 0.7687(3)
H21 H 0.4332 0.1197 0.7883
C24 C 0.4469(13) 0.1201(6) 0.7342(3)
H22 H 0.3522 0.1173 0.7304
C25 C 0.5309(17) 0.1227(8) 0.7052(4)
H23 H 0.4940 0.1239 0.6818
C26 C 0.6703(10) 0.1236(5) 0.7101(3)
H24 H 0.7309 0.1232 0.6905
C27 C 0.7172(10) 0.1252(5) 0.7449(3)
H25 H 0.8121 0.1268 0.7489
C34 C 0.9054(9) 0.1793(3) 0.8197(2)
H31 H 0.9376 0.1429 0.8118
C35 C 0.9526(9) 0.2187(3) 0.7912(2)
H32 H 0.9173 0.2548 0.7965
H33 H 0.9193 0.2069 0.7679
H34 H 1.0517 0.2198 0.7908
C36 C 0.9833(8) 0.1916(3) 0.8552(2)
C37 C 0.8750(8) 0.1110(3) 0.8861(2)
H35 H 0.8119 0.1110 0.8656
H36 H 0.8200 0.1116 0.9081
C38 C 0.9549(8) 0.0600(3) 0.8854(2)
C39 C 1.0127(9) 0.0411(3) 0.8545(2)
H37 H 1.0011 0.0606 0.8329
C40 C 1.0888(9) -0.0070(3) 0.8545(3)
H38 H 1.1306 -0.0196 0.8333
C41 C 1.1016(10) -0.0353(4) 0.8858(3)
H39 H 1.1516 -0.0680 0.8858
C42 C 1.0468(9) -0.0187(3) 0.9159(3)
H40 H 1.0585 -0.0390 0.9371
C43 C 0.9705(9) 0.0296(3) 0.9164(2)
H41 H 0.9296 0.0414 0.9379
C44 C 1.0441(8) 0.1685(3) 0.91611(19)
H42 H 1.0033 0.1464 0.9356
C45 C 1.1867(7) 0.1465(3) 0.9104(2)
H43 H 1.2312 0.1668 0.8913
H44 H 1.1817 0.1083 0.9038
H45 H 1.2389 0.1502 0.9325
C46 C 1.0533(8) 0.2278(3) 0.93075(19)
C47 C 0.9611(7) 0.3121(3) 0.9504(2)
H46 H 1.0477 0.3139 0.9636
H47 H 0.8877 0.3202 0.9676
C48 C 0.9617(7) 0.3555(3) 0.9221(2)
C49 C 0.9696(9) 0.4081(3) 0.9337(2)
H48 H 0.9675 0.4156 0.9585
C50 C 0.9808(8) 0.4508(3) 0.9093(2)
H49 H 0.9909 0.4868 0.9174
C51 C 0.9771(9) 0.4397(3) 0.8735(3)
H50 H 0.9852 0.4682 0.8567
C52 C 0.9612(9) 0.3865(3) 0.8618(2)
H51 H 0.9533 0.3791 0.8371
C53 C 0.9569(8) 0.3445(3) 0.8864(2)
H52 H 0.9506 0.3082 0.8784
C54 C 0.7996(8) 0.2387(3) 0.9334(2)
H53 H 0.7976 0.2080 0.9165
H54 H 0.7463 0.2684 0.9227
O7 O 1.1451(5) 0.8847(2) 0.96741(14)
O8 O 0.9045(5) 0.73393(18) 0.98815(13)
H55 H 0.9250 0.7409 1.0094
O9 O 1.0098(5) 0.84104(19) 0.89253(13)
O10 O 0.8723(5) 0.7515(2) 0.85028(13)
O11 O 0.5572(5) 0.7743(2) 0.85948(13)
O12 O 0.4547(5) 0.76584(19) 0.93938(13)
N6 N 1.0272(6) 0.8056(2) 0.96016(15)
N7 N 1.1353(6) 0.7741(2) 0.86917(16)
N8 N 0.8530(6) 0.8270(2) 0.81831(16)
N9 N 0.6638(6) 0.8460(2) 0.88358(16)
N10 N 0.6809(5) 0.7512(2) 0.93821(15)
C55 C 1.0467(8) 0.8575(3) 0.9716(2)
C56 C 0.9182(7) 0.8718(3) 0.9911(2)
C57 C 0.8869(8) 0.9192(3) 1.0091(2)
H56 H 0.9477 0.9489 1.0095
C58 C 0.7635(9) 0.9214(3) 1.0265(2)
H57 H 0.7393 0.9532 1.0390
C59 C 0.6744(8) 0.8781(3) 1.0260(2)
H58 H 0.5910 0.8808 1.0384
C60 C 0.7056(7) 0.8304(3) 1.0074(2)
H59 H 0.6444 0.8009 1.0066
C61 C 0.8314(7) 0.8286(3) 0.98990(19)
C62 C 0.8917(7) 0.7832(3) 0.96866(19)
C63 C 1.1165(8) 0.7818(3) 0.93459(19)
H60 H 1.1069 0.7421 0.9353
H61 H 1.2112 0.7909 0.9407
C64 C 1.0850(7) 0.8021(3) 0.89747(19)
C65 C 1.2528(7) 0.7389(3) 0.8736(2)
H62 H 1.3020 0.7506 0.8952
H63 H 1.3138 0.7448 0.8531
C66 C 1.2277(8) 0.6799(3) 0.8767(2)
C67 C 1.3412(8) 0.6474(3) 0.8824(2)
H64 H 1.4277 0.6636 0.8850
C68 C 1.3291(9) 0.5915(4) 0.8842(3)
H65 H 1.4065 0.5699 0.8888
C69 C 1.2056(10) 0.5679(4) 0.8796(3)
H66 H 1.1983 0.5297 0.8796
C70 C 1.0914(10) 0.5990(4) 0.8748(3)
H67 H 1.0057 0.5819 0.8728
C71 C 1.0996(8) 0.6555(3) 0.8727(2)
H68 H 1.0210 0.6767 0.8688
C72 C 1.0851(8) 0.7921(3) 0.8347(2)
H69 H 1.1134 0.8304 0.8307
C73 C 1.1332(9) 0.7577(4) 0.8034(2)
H70 H 1.0993 0.7208 0.8061
H71 H 1.2323 0.7573 0.8028
H72 H 1.0988 0.7731 0.7811
C74 C 0.9299(8) 0.7890(3) 0.83531(19)
C75 C 0.9139(9) 0.8739(3) 0.8000(2)
H73 H 1.0080 0.8646 0.7933
H74 H 0.9180 0.9045 0.8169
C76 C 0.8397(8) 0.8918(3) 0.7673(2)
C77 C 0.8411(10) 0.8627(4) 0.7369(3)
H75 H 0.8877 0.8292 0.7363
C78 C 0.7737(16) 0.8815(8) 0.7055(4)
H76 H 0.7692 0.8602 0.6845
C79 C 0.714(2) 0.9334(12) 0.7073(6)
H77 H 0.6803 0.9490 0.6860
C80 C 0.7034(14) 0.9591(8) 0.7352(6)
H78 H 0.6478 0.9904 0.7357
C81 C 0.7735(12) 0.9430(5) 0.7673(3)
H79 H 0.7754 0.9657 0.7876
C82 C 0.7062(6) 0.8208(3) 0.81941(18)
H80 H 0.6673 0.8552 0.8100
C83 C 0.6621(8) 0.7760(3) 0.7934(2)
H81 H 0.6938 0.7410 0.8022
H82 H 0.7012 0.7830 0.7698
H83 H 0.5632 0.7756 0.7916
C84 C 0.6402(8) 0.8113(3) 0.8557(2)
C85 C 0.7401(8) 0.8969(3) 0.8811(2)
H84 H 0.8001 0.8952 0.8600
H85 H 0.7985 0.9003 0.9024
C86 C 0.6527(9) 0.9471(3) 0.8782(2)
C87 C 0.5742(10) 0.9566(4) 0.8491(3)
H86 H 0.5775 0.9324 0.8295
C88 C 0.4891(11) 1.0015(4) 0.8475(3)
H87 H 0.4316 1.0069 0.8275
C89 C 0.4891(11) 1.0375(4) 0.8748(4)
H88 H 0.4323 1.0684 0.8737
C90 C 0.5696(11) 1.0297(4) 0.9039(4)
H89 H 0.5696 1.0554 0.9227
C91 C 0.6529(9) 0.9837(3) 0.9060(3)
H90 H 0.7084 0.9778 0.9263
C92 C 0.5793(8) 0.8396(3) 0.91669(19)
H91 H 0.6256 0.8611 0.9357
C93 C 0.4404(7) 0.8634(3) 0.9128(2)
H92 H 0.3934 0.8621 0.9358
H93 H 0.3890 0.8427 0.8951
H94 H 0.4480 0.9010 0.9049
C94 C 0.5702(7) 0.7819(3) 0.93078(19)
C95 C 0.6567(8) 0.6955(3) 0.9511(2)
H95 H 0.5593 0.6916 0.9567
H96 H 0.7076 0.6903 0.9736
C96 C 0.6968(7) 0.6508(3) 0.92521(19)
C97 C 0.7043(7) 0.6589(3) 0.8890(2)
H97 H 0.6940 0.6942 0.8795
C98 C 0.7270(8) 0.6156(3) 0.8664(2)
H98 H 0.7358 0.6214 0.8415
C99 C 0.7368(9) 0.5642(3) 0.8801(2)
H99 H 0.7471 0.5344 0.8644
C100 C 0.7319(9) 0.5559(3) 0.9164(2)
H100 H 0.7419 0.5206 0.9259
C101 C 0.7123(8) 0.5994(3) 0.9387(2)
H101 H 0.7095 0.5938 0.9637
C102 C 0.8169(6) 0.7692(3) 0.93361(17)
H102 H 0.8164 0.8015 0.9181
H103 H 0.8683 0.7406 0.9211
Cl1 Cl 0.4616(2) 0.96978(10) 0.99444(7)
Cl2 Cl 0.2068(2) 1.02934(10) 0.99956(7)
C103 C 0.3267(9) 1.0010(4) 0.9704(3)
H104 H 0.3639 1.0296 0.9548
H105 H 0.2820 0.9738 0.9551
C104 C 0.372(3) 0.8685(10) 0.7599(7)
H106 H 0.3709 0.8293 0.7562
H107 H 0.3540 0.8764 0.7851
H108 H 0.4611 0.8828 0.7534
C105 C 0.273(3) 0.8925(8) 0.7389(7)
H109 H 0.1893 0.8708 0.7408
H110 H 0.3031 0.8908 0.7137
C106 C 0.240(2) 0.9472(7) 0.7469(7)
H111 H 0.2271 0.9494 0.7730
H112 H 0.3213 0.9691 0.7413
C107 C 0.131(2) 0.9722(7) 0.7313(8)
H113 H 0.1157 0.9534 0.7084
H114 H 0.0522 0.9640 0.7466
C108 C 0.125(2) 1.0258(8) 0.7241(8)
H115 H 0.1593 1.0430 0.7461
H116 H 0.1963 1.0313 0.7060
C109 C 0.027(3) 1.0584(9) 0.7137(7)
H117 H 0.0096 1.0531 0.6882
H118 H 0.0537 1.0959 0.7179
H119 H -0.0557 1.0505 0.7272
C28? C 0.661(5) 0.1202(18) 0.7697(9)
C29? C 0.593(4) 0.0737(15) 0.7601(10)
H26? H 0.5877 0.0439 0.7760
C30? C 0.533(4) 0.0712(17) 0.7269(11)
H27? H 0.4867 0.0392 0.7202
C31? C 0.538(6) 0.113(2) 0.7031(11)
H28? H 0.4911 0.1113 0.6810
C32? C 0.613(4) 0.1587(17) 0.7120(9)
H29? H 0.6335 0.1855 0.6947
C33? C 0.656(4) 0.1635(15) 0.7468(9)
H30? H 0.6827 0.1980 0.7552
C110? C 0.304(4) 0.9209(14) 0.7573(7)
H120? H 0.3825 0.9406 0.7665
H121? H 0.3235 0.8821 0.7571
H122? H 0.2253 0.9279 0.7725
C111? C 0.276(3) 0.9385(12) 0.7220(7)
H123? H 0.3617 0.9500 0.7109
H124? H 0.2416 0.9071 0.7082
C112? C 0.182(4) 0.9808(12) 0.7184(6)
H125? H 0.2186 1.0067 0.7009
H126? H 0.0979 0.9656 0.7081
C113? C 0.145(3) 1.0102(9) 0.7489(7)
H127? H 0.0876 0.9858 0.7633
H128? H 0.2293 1.0157 0.7626
C114? C 0.080(3) 1.0588(9) 0.7484(9)
H129? H 0.0483 1.0649 0.7730
H130? H -0.0015 1.0534 0.7336
C115? C 0.136(4) 1.1074(10) 0.7373(10)
H131? H 0.0644 1.1305 0.7277
H132? H 0.2039 1.1006 0.7189
H133? H 0.1787 1.1254 0.7576
loop_
_geom_bond_atom_site_label_1
_geom_bond_atom_site_label_2
_geom_bond_site_symmetry_1
_geom_bond_site_symmetry_2
O1 C1 1_555 1_555
O2 H1 1_555 1_555
O3 C10 1_555 1_555
O4 C20 1_555 1_555
O5 C36 1_555 1_555
O6 C46 1_555 1_555
N1 C1 1_555 1_555
N2 C10 1_555 1_555
N3 C20 1_555 1_555
N4 C36 1_555 1_555
N5 C46 1_555 1_555
C1 C2 1_555 1_555
C2 C3 1_555 1_555
C3 H2 1_555 1_555
C4 C3 1_555 1_555
H3 C4 1_555 1_555
C5 C4 1_555 1_555
H4 C5 1_555 1_555
C6 C5 1_555 1_555
H5 C6 1_555 1_555
C7 C2 1_555 1_555
C8 O2 1_555 1_555
C9 N1 1_555 1_555
H6 C9 1_555 1_555
H7 C9 1_555 1_555
C10 C9 1_555 1_555
C11 N2 1_555 1_555
H8 C11 1_555 1_555
H9 C11 1_555 1_555
C12 C11 1_555 1_555
C13 C12 1_555 1_555
H10 C13 1_555 1_555
C14 C13 1_555 1_555
H11 C14 1_555 1_555
C15 C14 1_555 1_555
H12 C15 1_555 1_555
C16 C15 1_555 1_555
H13 C16 1_555 1_555
C17 C12 1_555 1_555
H14 C17 1_555 1_555
C18 N2 1_555 1_555
H15 C18 1_555 1_555
C19 C18 1_555 1_555
H16 C19 1_555 1_555
H17 C19 1_555 1_555
H18 C19 1_555 1_555
C20 C18 1_555 1_555
C21 N3 1_555 1_555
H19 C21 1_555 1_555
H20 C21 1_555 1_555
C22 C21 1_555 1_555
C23 C22 1_555 1_555
H21 C23 1_555 1_555
C24 C23 1_555 1_555
H22 C24 1_555 1_555
C25 C24 1_555 1_555
H23 C25 1_555 1_555
C26 C25 1_555 1_555
H24 C26 1_555 1_555
C27 C22 1_555 1_555
H25 C27 1_555 1_555
C34 N3 1_555 1_555
H31 C34 1_555 1_555
C35 C34 1_555 1_555
H32 C35 1_555 1_555
H33 C35 1_555 1_555
H34 C35 1_555 1_555
C36 C34 1_555 1_555
C37 N4 1_555 1_555
H35 C37 1_555 1_555
H36 C37 1_555 1_555
C38 C37 1_555 1_555
C39 C38 1_555 1_555
H37 C39 1_555 1_555
C40 C39 1_555 1_555
H38 C40 1_555 1_555
C41 C40 1_555 1_555
H39 C41 1_555 1_555
C42 C41 1_555 1_555
H40 C42 1_555 1_555
C43 C38 1_555 1_555
H41 C43 1_555 1_555
C44 N4 1_555 1_555
H42 C44 1_555 1_555
C45 C44 1_555 1_555
H43 C45 1_555 1_555
H44 C45 1_555 1_555
H45 C45 1_555 1_555
C46 C44 1_555 1_555
C47 N5 1_555 1_555
H46 C47 1_555 1_555
H47 C47 1_555 1_555
C48 C47 1_555 1_555
C49 C48 1_555 1_555
H48 C49 1_555 1_555
C50 C49 1_555 1_555
H49 C50 1_555 1_555
C51 C50 1_555 1_555
H50 C51 1_555 1_555
C52 C51 1_555 1_555
H51 C52 1_555 1_555
C53 C48 1_555 1_555
H52 C53 1_555 1_555
C54 N5 1_555 1_555
H53 C54 1_555 1_555
H54 C54 1_555 1_555
O7 C55 1_555 1_555
O8 H55 1_555 1_555
O9 C64 1_555 1_555
O10 C74 1_555 1_555
O11 C84 1_555 1_555
O12 C94 1_555 1_555
N6 C55 1_555 1_555
N7 C64 1_555 1_555
N8 C74 1_555 1_555
N9 C84 1_555 1_555
N10 C94 1_555 1_555
C55 C56 1_555 1_555
C56 C57 1_555 1_555
C57 H56 1_555 1_555
C58 C57 1_555 1_555
H57 C58 1_555 1_555
C59 C58 1_555 1_555
H58 C59 1_555 1_555
C60 C59 1_555 1_555
H59 C60 1_555 1_555
C61 C56 1_555 1_555
C62 O8 1_555 1_555
C63 N6 1_555 1_555
H60 C63 1_555 1_555
H61 C63 1_555 1_555
C64 C63 1_555 1_555
C65 N7 1_555 1_555
H62 C65 1_555 1_555
H63 C65 1_555 1_555
C66 C65 1_555 1_555
C67 C66 1_555 1_555
H64 C67 1_555 1_555
C68 C67 1_555 1_555
H65 C68 1_555 1_555
C69 C68 1_555 1_555
H66 C69 1_555 1_555
C70 C69 1_555 1_555
H67 C70 1_555 1_555
C71 C66 1_555 1_555
H68 C71 1_555 1_555
C72 N7 1_555 1_555
H69 C72 1_555 1_555
C73 C72 1_555 1_555
H70 C73 1_555 1_555
H71 C73 1_555 1_555
H72 C73 1_555 1_555
C74 C72 1_555 1_555
C75 N8 1_555 1_555
H73 C75 1_555 1_555
H74 C75 1_555 1_555
C76 C75 1_555 1_555
C77 C76 1_555 1_555
H75 C77 1_555 1_555
C78 C77 1_555 1_555
H76 C78 1_555 1_555
C79 C78 1_555 1_555
H77 C79 1_555 1_555
C80 C79 1_555 1_555
H78 C80 1_555 1_555
C81 C76 1_555 1_555
H79 C81 1_555 1_555
C82 N8 1_555 1_555
H80 C82 1_555 1_555
C83 C82 1_555 1_555
H81 C83 1_555 1_555
H82 C83 1_555 1_555
H83 C83 1_555 1_555
C84 C82 1_555 1_555
C85 N9 1_555 1_555
H84 C85 1_555 1_555
H85 C85 1_555 1_555
C86 C85 1_555 1_555
C87 C86 1_555 1_555
H86 C87 1_555 1_555
C88 C87 1_555 1_555
H87 C88 1_555 1_555
C89 C88 1_555 1_555
H88 C89 1_555 1_555
C90 C89 1_555 1_555
H89 C90 1_555 1_555
C91 C86 1_555 1_555
H90 C91 1_555 1_555
C92 N9 1_555 1_555
H91 C92 1_555 1_555
C93 C92 1_555 1_555
H92 C93 1_555 1_555
H93 C93 1_555 1_555
H94 C93 1_555 1_555
C94 C92 1_555 1_555
C95 N10 1_555 1_555
H95 C95 1_555 1_555
H96 C95 1_555 1_555
C96 C95 1_555 1_555
C97 C96 1_555 1_555
H97 C97 1_555 1_555
C98 C97 1_555 1_555
H98 C98 1_555 1_555
C99 C98 1_555 1_555
H99 C99 1_555 1_555
C100 C99 1_555 1_555
H100 C100 1_555 1_555
C101 C96 1_555 1_555
H101 C101 1_555 1_555
C102 N10 1_555 1_555
H102 C102 1_555 1_555
H103 C102 1_555 1_555
Cl1 C103 1_555 1_555
Cl2 C103 1_555 1_555
C103 H104 1_555 1_555
H105 C103 1_555 1_555
C104 H106 1_555 1_555
H107 C104 1_555 1_555
H108 C104 1_555 1_555
C105 C104 1_555 1_555
H109 C105 1_555 1_555
H110 C105 1_555 1_555
C106 C105 1_555 1_555
H111 C106 1_555 1_555
H112 C106 1_555 1_555
C107 C106 1_555 1_555
H113 C107 1_555 1_555
H114 C107 1_555 1_555
C108 C107 1_555 1_555
H115 C108 1_555 1_555
H116 C108 1_555 1_555
C109 C108 1_555 1_555
H117 C109 1_555 1_555
H118 C109 1_555 1_555
H119 C109 1_555 1_555
N1 C8 1_555 1_555
C6 C7 1_555 1_555
C7 C8 1_555 1_555
C8 C54 1_555 1_555
C16 C17 1_555 1_555
C26 C27 1_555 1_555
C42 C43 1_555 1_555
C52 C53 1_555 1_555
N6 C62 1_555 1_555
C60 C61 1_555 1_555
C61 C62 1_555 1_555
C62 C102 1_555 1_555
C70 C71 1_555 1_555
C80 C81 1_555 1_555
C90 C91 1_555 1_555
C100 C101 1_555 1_555

#END
