
#######################################################################
#
#                 Cambridge Crystallographic Data Centre
#                                CCDC 
#
#######################################################################
#
# If this CIF has been generated from an entry in the Cambridge 
# Structural Database, then it will include bibliographic, chemical, 
# crystal, experimental, refinement or atomic coordinate data resulting 
# from the CCDC's data processing and validation procedures.
#
#######################################################################

data_UKUYEG
_chemical_name_common            
'2-chloro-8-methoxy-4-oxo-4H-benzo[4,5]thiazolo[3,2-a]pyrimidine-3-carbaldehyde 1,4-dioxane solvate'
_chemical_formula_moiety         'C12 H7 Cl1 N2 O3 S1,0.5(C4 H8 O2)'
_chemical_name_systematic        
'2-chloro-8-methoxy-4-oxo-4H-pyrimido[2,1-b][1,3]benzothiazole-3-carbaldehyde 1,4-dioxane solvate'
_symmetry_cell_setting           triclinic
_symmetry_space_group_name_H-M   'P -1'
_symmetry_Int_Tables_number      2
_space_group_name_Hall           '-P 1'
loop_
_symmetry_equiv_pos_site_id
_symmetry_equiv_pos_as_xyz
1 x,y,z
2 -x,-y,-z
_cell_length_a                   7.0976(14)
_cell_length_b                   8.5411(17)
_cell_length_c                   12.952(3)
_cell_angle_alpha                100.38(3)
_cell_angle_beta                 101.19(3)
_cell_angle_gamma                107.08(3)
_cell_volume                     712.33
_exptl_crystal_colour            yellow
_exptl_crystal_description       prism
_cell_formula_units_Z            2
loop_
_atom_site_label
_atom_site_type_symbol
_atom_site_fract_x
_atom_site_fract_y
_atom_site_fract_z
N1 N 0.2028(3) 0.39598(19) 0.41796(12)
C1 C 0.1245(3) 0.3359(2) 0.31031(14)
C2 C 0.0754(3) 0.1705(2) 0.25299(14)
C3 C 0.1117(3) 0.0489(2) 0.31114(13)
N2 N 0.1971(2) 0.11760(17) 0.42581(10)
C4 C 0.2508(2) 0.0291(2) 0.50208(13)
C5 C 0.2346(3) -0.1408(2) 0.48448(15)
H1 H 0.180(3) -0.211(3) 0.4156(18)
C6 C 0.3012(3) -0.1981(2) 0.57227(16)
H2 H 0.292(4) -0.309(3) 0.5593(19)
C7 C 0.3852(3) -0.0905(2) 0.67766(15)
C8 C 0.4001(3) 0.0784(2) 0.69614(14)
H3 H 0.455(3) 0.151(3) 0.765(2)
C9 C 0.3312(3) 0.1349(2) 0.60688(14)
S1 S 0.33642(8) 0.34049(6) 0.60953(4)
C10 C 0.2361(3) 0.2850(2) 0.47047(13)
Cl1 Cl 0.08626(11) 0.48883(7) 0.24705(4)
C11 C -0.0152(4) 0.1025(3) 0.13508(16)
H4 H -0.042(4) -0.014(3) 0.111(2)
O1 O -0.0470(3) 0.1806(2) 0.06977(12)
O2 O 0.0779(2) -0.10017(17) 0.27219(10)
O3 O 0.4475(2) -0.16385(19) 0.75586(11)
C12 C 0.5446(4) -0.0575(3) 0.86346(17)
H5 H 0.6627 0.0321 0.8622
H6 H 0.5854 -0.1232 0.9106
H7 H 0.4507 -0.0100 0.8898
O4 O 0.4744(3) 0.3440(2) 0.93322(16)
C13 C 0.3434(6) 0.4362(4) 0.9086(3)
H8 H 0.2078 0.3573 0.8700
H9 H 0.3922 0.5043 0.8605
C14 C 0.6696(5) 0.4560(4) 0.9975(3)
H10 H 0.7353 0.5247 0.9540
H11 H 0.7537 0.3905 1.0200
O4A O 0.5256(3) 0.6560(2) 1.06678(16)
C13A C 0.6566(6) 0.5638(4) 1.0914(3)
H8A H 0.7922 0.6427 1.1300
H9A H 0.6078 0.4957 1.1395
C14A C 0.3304(5) 0.5440(4) 1.0025(3)
H10A H 0.2647 0.4753 1.0460
H11A H 0.2463 0.6095 0.9800
loop_
_geom_bond_atom_site_label_1
_geom_bond_atom_site_label_2
_geom_bond_site_symmetry_1
_geom_bond_site_symmetry_2
N1 C1 1_555 1_555
C1 C2 1_555 1_555
C2 C3 1_555 1_555
C3 N2 1_555 1_555
N2 C4 1_555 1_555
C4 C5 1_555 1_555
C5 H1 1_555 1_555
C6 C5 1_555 1_555
H2 C6 1_555 1_555
C7 C6 1_555 1_555
C8 C7 1_555 1_555
H3 C8 1_555 1_555
C9 C4 1_555 1_555
S1 C9 1_555 1_555
C10 N1 1_555 1_555
Cl1 C1 1_555 1_555
C11 C2 1_555 1_555
H4 C11 1_555 1_555
O1 C11 1_555 1_555
O2 C3 1_555 1_555
O3 C7 1_555 1_555
C12 O3 1_555 1_555
H5 C12 1_555 1_555
H6 C12 1_555 1_555
H7 C12 1_555 1_555
O4 C13 1_555 1_555
C13 H8 1_555 1_555
H9 C13 1_555 1_555
C14 O4 1_555 1_555
H10 C14 1_555 1_555
H11 C14 1_555 1_555
O4A C13A 1_555 1_555
C13A C14 1_555 1_555
H8A C13A 1_555 1_555
H9A C13A 1_555 1_555
C14A C13 1_555 1_555
H10A C14A 1_555 1_555
H11A C14A 1_555 1_555
N2 C10 1_555 1_555
C8 C9 1_555 1_555
S1 C10 1_555 1_555
O4A C14A 1_555 1_555

#END
