
#######################################################################
#
#                 Cambridge Crystallographic Data Centre
#                                CCDC 
#
#######################################################################
#
# If this CIF has been generated from an entry in the Cambridge 
# Structural Database, then it will include bibliographic, chemical, 
# crystal, experimental, refinement or atomic coordinate data resulting 
# from the CCDC's data processing and validation procedures.
#
#######################################################################

data_ULAHUM
_chemical_formula_moiety         'C34 H28 Br2 N2'
_chemical_name_systematic        
1-(2-Bromobenzyl)-2-(2-bromophenyl)-9-methyl-3-(3-methyl-1H-indol-2-yl)-2,3-dihydro-1H-pyrrolo[1,2-a]indole
_symmetry_cell_setting           monoclinic
_symmetry_space_group_name_H-M   'P 21'
_symmetry_Int_Tables_number      4
_space_group_name_Hall           'P 2yb'
loop_
_symmetry_equiv_pos_site_id
_symmetry_equiv_pos_as_xyz
1 x,y,z
2 -x,1/2+y,-z
_cell_length_a                   13.4970(8)
_cell_length_b                   11.9042(8)
_cell_length_c                   17.7609(12)
_cell_angle_alpha                90
_cell_angle_beta                 92.488(4)
_cell_angle_gamma                90
_cell_volume                     2850.97
_exptl_crystal_colour            colorless
_exptl_crystal_description       block
_cell_formula_units_Z            4
loop_
_atom_site_label
_atom_site_type_symbol
_atom_site_fract_x
_atom_site_fract_y
_atom_site_fract_z
Br1 Br 1.02562(7) 0.39421(8) 0.00485(6)
Br2 Br 1.45688(8) 0.08390(19) -0.01430(8)
N1 N 0.9172(5) 0.1393(6) 0.1246(4)
H1 H 0.9207 0.0782 0.0990
N2 N 1.1035(5) 0.0276(5) 0.1495(4)
C1 C 0.8316(6) 0.2013(8) 0.1351(5)
C2 C 0.7351(7) 0.1805(10) 0.1098(5)
H2 H 0.7179 0.1160 0.0828
C3 C 0.6649(7) 0.2613(10) 0.1269(5)
H3 H 0.5992 0.2516 0.1103
C4 C 0.6913(8) 0.3553(10) 0.1681(6)
H4 H 0.6423 0.4074 0.1781
C5 C 0.7863(7) 0.3763(9) 0.1951(5)
H5 H 0.8022 0.4407 0.2227
C6 C 0.8587(6) 0.2954(7) 0.1789(5)
C7 C 0.9648(6) 0.2863(7) 0.1957(5)
C8 C 1.0248(7) 0.3711(8) 0.2413(6)
H6 H 1.0306 0.4390 0.2127
H7 H 1.0897 0.3412 0.2532
H8 H 0.9923 0.3870 0.2872
C9 C 0.9960(5) 0.1928(7) 0.1625(4)
C10 C 1.0990(6) 0.1488(7) 0.1549(4)
H9 H 1.1419 0.1747 0.1973
C11 C 1.1448(5) 0.1830(6) 0.0789(5)
H10 H 1.0912 0.1874 0.0399
C12 C 1.2150(6) 0.0850(6) 0.0589(4)
H11 H 1.2817 0.1007 0.0805
C13 C 1.1716(5) -0.0140(6) 0.1002(4)
C14 C 1.1865(6) -0.1257(7) 0.1100(5)
C15 C 1.2566(9) -0.1974(9) 0.0696(7)
H12 H 1.2200 -0.2483 0.0370
H13 H 1.2968 -0.2395 0.1055
H14 H 1.2983 -0.1510 0.0402
C16 C 1.1195(6) -0.1591(7) 0.1659(5)
C17 C 1.0949(8) -0.2627(8) 0.1973(6)
H15 H 1.1246 -0.3283 0.1810
C18 C 1.0266(9) -0.2668(9) 0.2523(7)
H16 H 1.0101 -0.3360 0.2727
C19 C 0.9815(9) -0.1700(10) 0.2784(7)
H17 H 0.9366 -0.1752 0.3166
C20 C 1.0026(7) -0.0658(8) 0.2480(6)
H18 H 0.9717 -0.0008 0.2642
C21 C 1.0717(6) -0.0626(7) 0.1927(5)
C22 C 1.1940(6) 0.2959(7) 0.0852(4)
C23 C 1.1537(6) 0.3944(7) 0.0555(4)
C24 C 1.2014(7) 0.4962(7) 0.0617(6)
H19 H 1.1719 0.5609 0.0418
C25 C 1.2931(8) 0.5005(8) 0.0975(6)
H20 H 1.3266 0.5687 0.1003
C26 C 1.3354(6) 0.4103(8) 0.1284(6)
H21 H 1.3968 0.4159 0.1540
C27 C 1.2872(6) 0.3065(7) 0.1223(5)
H22 H 1.3177 0.2431 0.1434
C28 C 1.2215(6) 0.0642(7) -0.0280(4)
H23 H 1.2611 -0.0023 -0.0361
H24 H 1.1554 0.0506 -0.0497
C29 C 1.2659(7) 0.1610(7) -0.0666(5)
C30 C 1.2056(9) 0.2358(10) -0.1080(6)
H25 H 1.1376 0.2230 -0.1126
C31 C 1.2464(11) 0.3311(11) -0.1434(8)
H26 H 1.2067 0.3798 -0.1724
C32 C 1.3382(12) 0.3472(13) -0.1342(8)
H27 H 1.3625 0.4116 -0.1565
C33 C 1.4054(10) 0.2836(11) -0.0963(7)
H28 H 1.4723 0.3022 -0.0922
C34 C 1.3664(8) 0.1848(10) -0.0627(6)
Br3 Br 0.52060(8) 0.60151(10) 0.51443(6)
Br4 Br 0.05292(13) 0.4932(4) 0.51181(13)
N3 N 0.5739(5) 0.3832(8) 0.3748(4)
H29 H 0.5632 0.3195 0.3957
N4 N 0.3713(5) 0.3013(6) 0.3415(4)
C35 C 0.6647(9) 0.4348(10) 0.3732(7)
C36 C 0.7572(9) 0.4068(14) 0.4037(7)
H30 H 0.7685 0.3397 0.4295
C37 C 0.8352(10) 0.4869(13) 0.3934(8)
H31 H 0.8993 0.4726 0.4123
C38 C 0.8150(11) 0.5792(14) 0.3576(8)
H32 H 0.8682 0.6280 0.3534
C39 C 0.7269(10) 0.6160(12) 0.3250(7)
H33 H 0.7196 0.6848 0.3006
C40 C 0.6463(8) 0.5366(9) 0.3324(6)
C41 C 0.5444(8) 0.5438(9) 0.3092(6)
C42 C 0.5008(7) 0.4491(8) 0.3373(5)
C43 C 0.4925(11) 0.6355(11) 0.2690(7)
H34 H 0.4957 0.7022 0.2994
H35 H 0.4244 0.6150 0.2591
H36 H 0.5234 0.6494 0.2223
C44 C 0.3959(6) 0.4209(7) 0.3425(5)
H37 H 0.3576 0.4588 0.3017
C45 C 0.3531(6) 0.4555(7) 0.4206(5)
H38 H 0.4023 0.4348 0.4604
C46 C 0.2611(6) 0.3772(8) 0.4278(5)
H39 H 0.2016 0.4149 0.4068
C47 C 0.2864(6) 0.2806(8) 0.3792(5)
C48 C 0.2508(7) 0.1771(8) 0.3599(5)
C49 C 0.1607(8) 0.1180(9) 0.3895(6)
H40 H 0.1819 0.0559 0.4207
H41 H 0.1197 0.0909 0.3478
H42 H 0.1235 0.1698 0.4186
C50 C 0.3180(6) 0.1324(6) 0.3071(4)
C51 C 0.3200(7) 0.0304(8) 0.2661(5)
H43 H 0.2719 -0.0244 0.2723
C52 C 0.3942(7) 0.0145(8) 0.2175(5)
H44 H 0.3977 -0.0532 0.1916
C53 C 0.4642(7) 0.0966(10) 0.2056(5)
H45 H 0.5115 0.0840 0.1700
C54 C 0.4663(6) 0.1963(8) 0.2450(5)
H46 H 0.5157 0.2495 0.2388
C55 C 0.3903(6) 0.2134(7) 0.2945(4)
C56 C 0.3398(7) 0.5827(9) 0.4230(5)
C57 C 0.2569(9) 0.6306(10) 0.3829(7)
H47 H 0.2079 0.5858 0.3598
C58 C 0.2521(12) 0.7478(12) 0.3796(8)
H48 H 0.1983 0.7805 0.3534
C59 C 0.3197(14) 0.8145(12) 0.4115(9)
H49 H 0.3126 0.8919 0.4074
C60 C 0.3984(11) 0.7715(10) 0.4498(6)
H50 H 0.4469 0.8186 0.4711
C61 C 0.4069(8) 0.6543(7) 0.4576(5)
C62 C 0.2449(8) 0.3419(9) 0.5108(6)
H51 H 0.1822 0.3022 0.5122
H52 H 0.2968 0.2896 0.5265
C63 C 0.2440(9) 0.4332(11) 0.5651(7)
C64 C 0.3319(11) 0.4449(12) 0.6217(7)
H53 H 0.3845 0.3945 0.6255
C65 C 0.3244(12) 0.5392(15) 0.6668(8)
H54 H 0.3793 0.5583 0.6975
C66 C 0.2487(13) 0.6012(16) 0.6696(9)
H55 H 0.2509 0.6559 0.7070
C67 C 0.1703(12) 0.5984(16) 0.6277(8)
H56 H 0.1194 0.6504 0.6321
C68 C 0.1652(10) 0.5079(15) 0.5720(8)
loop_
_geom_bond_atom_site_label_1
_geom_bond_atom_site_label_2
_geom_bond_site_symmetry_1
_geom_bond_site_symmetry_2
Br1 C23 1_555 1_555
Br2 C34 1_555 1_555
N1 H1 1_555 1_555
N2 C10 1_555 1_555
C1 N1 1_555 1_555
C2 C1 1_555 1_555
H2 C2 1_555 1_555
C3 C2 1_555 1_555
H3 C3 1_555 1_555
C4 C3 1_555 1_555
H4 C4 1_555 1_555
C5 C4 1_555 1_555
H5 C5 1_555 1_555
C6 C1 1_555 1_555
C7 C6 1_555 1_555
C8 C7 1_555 1_555
H6 C8 1_555 1_555
H7 C8 1_555 1_555
H8 C8 1_555 1_555
C9 N1 1_555 1_555
C10 C9 1_555 1_555
H9 C10 1_555 1_555
C11 C10 1_555 1_555
H10 C11 1_555 1_555
C12 C11 1_555 1_555
H11 C12 1_555 1_555
C13 N2 1_555 1_555
C14 C13 1_555 1_555
C15 C14 1_555 1_555
H12 C15 1_555 1_555
H13 C15 1_555 1_555
H14 C15 1_555 1_555
C16 C14 1_555 1_555
C17 C16 1_555 1_555
H15 C17 1_555 1_555
C18 C17 1_555 1_555
H16 C18 1_555 1_555
C19 C18 1_555 1_555
H17 C19 1_555 1_555
C20 C19 1_555 1_555
H18 C20 1_555 1_555
C21 N2 1_555 1_555
C22 C11 1_555 1_555
C23 C22 1_555 1_555
C24 C23 1_555 1_555
H19 C24 1_555 1_555
C25 C24 1_555 1_555
H20 C25 1_555 1_555
C26 C25 1_555 1_555
H21 C26 1_555 1_555
C27 C22 1_555 1_555
H22 C27 1_555 1_555
C28 C12 1_555 1_555
H23 C28 1_555 1_555
H24 C28 1_555 1_555
C29 C28 1_555 1_555
C30 C29 1_555 1_555
H25 C30 1_555 1_555
C31 C30 1_555 1_555
H26 C31 1_555 1_555
C32 C31 1_555 1_555
H27 C32 1_555 1_555
C33 C32 1_555 1_555
H28 C33 1_555 1_555
C34 C29 1_555 1_555
Br3 C61 1_555 1_555
Br4 C68 1_555 1_555
N3 H29 1_555 1_555
N4 C44 1_555 1_555
C35 N3 1_555 1_555
C36 C35 1_555 1_555
H30 C36 1_555 1_555
C37 C36 1_555 1_555
H31 C37 1_555 1_555
C38 C37 1_555 1_555
H32 C38 1_555 1_555
C39 C38 1_555 1_555
H33 C39 1_555 1_555
C40 C35 1_555 1_555
C41 C40 1_555 1_555
C42 N3 1_555 1_555
C43 C41 1_555 1_555
H34 C43 1_555 1_555
H35 C43 1_555 1_555
H36 C43 1_555 1_555
C44 C42 1_555 1_555
H37 C44 1_555 1_555
C45 C44 1_555 1_555
H38 C45 1_555 1_555
C46 C45 1_555 1_555
H39 C46 1_555 1_555
C47 N4 1_555 1_555
C48 C47 1_555 1_555
C49 C48 1_555 1_555
H40 C49 1_555 1_555
H41 C49 1_555 1_555
H42 C49 1_555 1_555
C50 C48 1_555 1_555
C51 C50 1_555 1_555
H43 C51 1_555 1_555
C52 C51 1_555 1_555
H44 C52 1_555 1_555
C53 C52 1_555 1_555
H45 C53 1_555 1_555
C54 C53 1_555 1_555
H46 C54 1_555 1_555
C55 N4 1_555 1_555
C56 C45 1_555 1_555
C57 C56 1_555 1_555
H47 C57 1_555 1_555
C58 C57 1_555 1_555
H48 C58 1_555 1_555
C59 C58 1_555 1_555
H49 C59 1_555 1_555
C60 C59 1_555 1_555
H50 C60 1_555 1_555
C61 C56 1_555 1_555
C62 C46 1_555 1_555
H51 C62 1_555 1_555
H52 C62 1_555 1_555
C63 C62 1_555 1_555
C64 C63 1_555 1_555
H53 C64 1_555 1_555
C65 C64 1_555 1_555
H54 C65 1_555 1_555
C66 C65 1_555 1_555
H55 C66 1_555 1_555
C67 C66 1_555 1_555
H56 C67 1_555 1_555
C68 C63 1_555 1_555
C5 C6 1_555 1_555
C7 C9 1_555 1_555
C12 C13 1_555 1_555
C16 C21 1_555 1_555
C20 C21 1_555 1_555
C26 C27 1_555 1_555
C33 C34 1_555 1_555
C39 C40 1_555 1_555
C41 C42 1_555 1_555
C46 C47 1_555 1_555
C50 C55 1_555 1_555
C54 C55 1_555 1_555
C60 C61 1_555 1_555
C67 C68 1_555 1_555

#END
