
#######################################################################
#
#                 Cambridge Crystallographic Data Centre
#                                CCDC 
#
#######################################################################
#
# If this CIF has been generated from an entry in the Cambridge 
# Structural Database, then it will include bibliographic, chemical, 
# crystal, experimental, refinement or atomic coordinate data resulting 
# from the CCDC's data processing and validation procedures.
#
#######################################################################

data_ULALEY
_chemical_formula_moiety         'C16 H16 O1 Si1'
_chemical_name_systematic        2-Trimethylsilylbenz[f]inden-1-one
_symmetry_cell_setting           monoclinic
_symmetry_space_group_name_H-M   'P 21/a'
_symmetry_Int_Tables_number      14
_space_group_name_Hall           '-P 2yab'
loop_
_symmetry_equiv_pos_site_id
_symmetry_equiv_pos_as_xyz
1 x,y,z
2 1/2-x,1/2+y,-z
3 -x,-y,-z
4 1/2+x,1/2-y,z
_cell_length_a                   12.2480(10)
_cell_length_b                   7.3470(10)
_cell_length_c                   16.8260(10)
_cell_angle_alpha                90
_cell_angle_beta                 107.205(2)
_cell_angle_gamma                90
_cell_volume                     1446.35
_cell_formula_units_Z            4
_exptl_crystal_recrystallization_method hexane/ether
loop_
_atom_site_label
_atom_site_type_symbol
_atom_site_fract_x
_atom_site_fract_y
_atom_site_fract_z
Si1 Si 0.1576(1) 0.1233(2) 0.1447(1)
O1 O 0.3962(2) 0.3160(4) 0.2634(2)
C1 C 0.1931(3) 0.0668(5) 0.3229(2)
C2 C 0.2276(3) 0.1354(5) 0.2592(2)
C3 C 0.3388(3) 0.2304(5) 0.2991(2)
C4 C 0.3667(3) 0.2034(5) 0.3915(2)
C5 C 0.4580(3) 0.2571(5) 0.4552(2)
C6 C 0.4621(3) 0.2110(5) 0.5381(2)
C7 C 0.5533(3) 0.2641(5) 0.6068(3)
C8 C 0.5558(3) 0.2171(6) 0.6859(3)
C9 C 0.4679(4) 0.1154(6) 0.6997(3)
C10 C 0.3766(3) 0.0623(5) 0.6339(2)
C11 C 0.3706(3) 0.1077(5) 0.5521(2)
C12 C 0.2767(3) 0.0542(5) 0.4830(2)
C13 C 0.2754(3) 0.1018(5) 0.4049(2)
C14 C 0.1198(5) 0.3557(8) 0.1034(3)
C15 C 0.0269(4) -0.0179(9) 0.1251(3)
C16 C 0.2595(4) 0.0213(9) 0.0952(3)
H1 H 0.1248 0.0044 0.3154
H2 H 0.5170 0.3231 0.4448
H3 H 0.6128 0.3323 0.5984
H4 H 0.6168 0.2536 0.7307
H5 H 0.4705 0.0829 0.7536
H6 H 0.3179 -0.0051 0.6441
H7 H 0.2168 -0.0130 0.4915
H8 H 0.0876 0.3504 0.0440
H9 H 0.1873 0.4302 0.1171
H10 H 0.0650 0.4073 0.1276
H11 H -0.0178 -0.0058 0.0679
H12 H -0.0172 0.0221 0.1604
H13 H 0.0481 -0.1431 0.1367
H14 H 0.2751 -0.1023 0.1136
H15 H 0.3294 0.0898 0.1104
H16 H 0.2269 0.0234 0.0358
loop_
_geom_bond_atom_site_label_1
_geom_bond_atom_site_label_2
_geom_bond_site_symmetry_1
_geom_bond_site_symmetry_2
Si1 C2 1_555 1_555
O1 C3 1_555 1_555
C1 C2 1_555 1_555
C2 C3 1_555 1_555
C3 C4 1_555 1_555
C4 C5 1_555 1_555
C5 C6 1_555 1_555
C6 C7 1_555 1_555
C7 C8 1_555 1_555
C8 C9 1_555 1_555
C9 C10 1_555 1_555
C10 C11 1_555 1_555
C11 C6 1_555 1_555
C12 C11 1_555 1_555
C13 C1 1_555 1_555
C14 Si1 1_555 1_555
C15 Si1 1_555 1_555
C16 Si1 1_555 1_555
H1 C1 1_555 1_555
H2 C5 1_555 1_555
H3 C7 1_555 1_555
H4 C8 1_555 1_555
H5 C9 1_555 1_555
H6 C10 1_555 1_555
H7 C12 1_555 1_555
H8 C14 1_555 1_555
H9 C14 1_555 1_555
H10 C14 1_555 1_555
H11 C15 1_555 1_555
H12 C15 1_555 1_555
H13 C15 1_555 1_555
H14 C16 1_555 1_555
H15 C16 1_555 1_555
H16 C16 1_555 1_555
C4 C13 1_555 1_555
C12 C13 1_555 1_555

#END
