
#######################################################################
#
#                 Cambridge Crystallographic Data Centre
#                                CCDC 
#
#######################################################################
#
# If this CIF has been generated from an entry in the Cambridge 
# Structural Database, then it will include bibliographic, chemical, 
# crystal, experimental, refinement or atomic coordinate data resulting 
# from the CCDC's data processing and validation procedures.
#
#######################################################################

data_ULAPEE
_chemical_formula_moiety         'C2 H7 N6 1+,C2 H1 N4 O3 1-'
_chemical_name_systematic        
'4-amino-5-hydrazino-4H-1,2,4-triazol-1-ium 3-nitro-5-oxo-1,5-dihydro-1,2,4-triazolate'
_symmetry_cell_setting           monoclinic
_symmetry_space_group_name_H-M   'P 21/c'
_symmetry_Int_Tables_number      14
_space_group_name_Hall           '-P 2ybc'
loop_
_symmetry_equiv_pos_site_id
_symmetry_equiv_pos_as_xyz
1 x,y,z
2 -x,1/2+y,1/2-z
3 -x,-y,-z
4 x,1/2-y,1/2+z
_cell_length_a                   12.455(4)
_cell_length_b                   7.156(2)
_cell_length_c                   22.215(7)
_cell_angle_alpha                90
_cell_angle_beta                 103.497(4)
_cell_angle_gamma                90
_cell_volume                     1925.3
_exptl_crystal_colour            yellow
_exptl_crystal_description       Platelet
_cell_formula_units_Z            8
loop_
_atom_site_label
_atom_site_type_symbol
_atom_site_fract_x
_atom_site_fract_y
_atom_site_fract_z
O1 O 0.09536(11) -0.04821(18) 0.12509(6)
O2 O 0.13868(10) 0.46995(19) -0.05938(6)
O3 O 0.11335(11) 0.58342(17) 0.02708(6)
N1 N 0.13032(12) -0.0181(2) 0.02653(7)
N2 N 0.13794(12) 0.1211(2) -0.01434(7)
N3 N 0.09930(11) 0.2398(2) 0.07424(6)
N4 N 0.12345(11) 0.4515(2) -0.00707(7)
C1 C 0.10675(13) 0.0512(2) 0.07977(8)
C2 C 0.11882(13) 0.2661(2) 0.01761(8)
H1 H 0.145(2) -0.143(4) 0.0183(12)
O4 O 0.40880(10) 0.58860(18) 0.39151(6)
O5 O 0.35380(11) 1.11813(19) 0.57029(6)
O6 O 0.37772(10) 1.22768(17) 0.48298(6)
N5 N 0.37269(13) 0.6251(2) 0.48927(7)
N6 N 0.36076(12) 0.7661(2) 0.52835(7)
N7 N 0.39197(11) 0.8810(2) 0.43756(6)
N8 N 0.36789(11) 1.0974(2) 0.51769(7)
C3 C 0.39188(13) 0.6912(2) 0.43473(8)
C4 C 0.37293(13) 0.9105(2) 0.49401(8)
H2 H 0.3686(18) 0.503(4) 0.4987(10)
N9 N 0.34331(12) 0.6003(2) 0.23365(7)
N10 N 0.28474(11) 0.6223(2) 0.27970(7)
N11 N 0.16375(11) 0.5836(2) 0.19418(6)
N12 N 0.05864(12) 0.5654(2) 0.15426(7)
N13 N 0.09427(13) 0.6234(2) 0.28372(7)
N14 N 0.12291(15) 0.6572(3) 0.34812(8)
C5 C 0.26767(14) 0.5808(3) 0.18286(8)
H3 H 0.2822 0.5665 0.1430
C6 C 0.17671(14) 0.6105(2) 0.25560(8)
H4 H 0.327(2) 0.623(4) 0.3242(11)
H5 H 0.024(2) 0.628(4) 0.2613(11)
H6 H 0.0643(17) 0.468(3) 0.1275(10)
H7 H 0.0475(19) 0.683(3) 0.1328(11)
H8 H 0.084(2) 0.579(4) 0.3655(13)
H9 H 0.104(2) 0.772(5) 0.3523(14)
N15 N 0.15562(13) 0.1212(2) 0.27342(7)
N16 N 0.21613(12) 0.0816(2) 0.22961(7)
N17 N 0.33361(11) 0.1602(2) 0.31305(7)
N18 N 0.43732(12) 0.1940(2) 0.35334(7)
N19 N 0.40643(12) 0.0812(2) 0.22624(7)
N20 N 0.37731(14) 0.0211(3) 0.16381(7)
C7 C 0.22895(14) 0.1659(3) 0.32295(8)
H10 H 0.2124 0.1984 0.3612
C8 C 0.32354(13) 0.1050(2) 0.25367(8)
H11 H 0.176(2) 0.042(4) 0.1883(12)
H12 H 0.441(2) 0.096(4) 0.3845(13)
H13 H 0.4331(19) 0.309(4) 0.3709(11)
H14 H 0.473(2) 0.100(4) 0.2471(12)
H15 H 0.409(2) 0.104(4) 0.1410(13)
H16 H 0.406(2) -0.100(4) 0.1643(12)
loop_
_geom_bond_atom_site_label_1
_geom_bond_atom_site_label_2
_geom_bond_site_symmetry_1
_geom_bond_site_symmetry_2
O1 C1 1_555 1_555
O2 N4 1_555 1_555
O3 N4 1_555 1_555
N1 N2 1_555 1_555
N2 C2 1_555 1_555
N3 C1 1_555 1_555
N4 C2 1_555 1_555
C1 N1 1_555 1_555
C2 N3 1_555 1_555
H1 N1 1_555 1_555
O4 C3 1_555 1_555
O5 N8 1_555 1_555
O6 N8 1_555 1_555
N5 N6 1_555 1_555
N6 C4 1_555 1_555
N7 C3 1_555 1_555
N8 C4 1_555 1_555
C3 N5 1_555 1_555
C4 N7 1_555 1_555
H2 N5 1_555 1_555
N9 N10 1_555 1_555
N10 C6 1_555 1_555
N11 N12 1_555 1_555
N12 H6 1_555 1_555
N13 N14 1_555 1_555
N14 H8 1_555 1_555
C5 N9 1_555 1_555
H3 C5 1_555 1_555
C6 N11 1_555 1_555
H4 N10 1_555 1_555
H5 N13 1_555 1_555
H7 N12 1_555 1_555
H9 N14 1_555 1_555
N15 N16 1_555 1_555
N16 C8 1_555 1_555
N17 N18 1_555 1_555
N18 H12 1_555 1_555
N19 N20 1_555 1_555
N20 H15 1_555 1_555
C7 N15 1_555 1_555
H10 C7 1_555 1_555
C8 N17 1_555 1_555
H11 N16 1_555 1_555
H13 N18 1_555 1_555
H14 N19 1_555 1_555
H16 N20 1_555 1_555
N11 C5 1_555 1_555
N13 C6 1_555 1_555
N17 C7 1_555 1_555
N19 C8 1_555 1_555

#END
