
#######################################################################
#
#                 Cambridge Crystallographic Data Centre
#                                CCDC 
#
#######################################################################
#
# If this CIF has been generated from an entry in the Cambridge 
# Structural Database, then it will include bibliographic, chemical, 
# crystal, experimental, refinement or atomic coordinate data resulting 
# from the CCDC's data processing and validation procedures.
#
#######################################################################

data_ULAZEO
_chemical_formula_moiety         'C31 H28 N2 O4'
_chemical_name_systematic        
'Ethyl (E)-5-(1-methyl-1H-indol-3-yl)-2-(1-methyl-2-oxo-1,2-dihydro-3H-indol-3-ylidene)-3-oxo-5-phenylpentanoate'
_symmetry_cell_setting           triclinic
_symmetry_space_group_name_H-M   'P -1'
_symmetry_Int_Tables_number      2
_space_group_name_Hall           '-P 1'
loop_
_symmetry_equiv_pos_site_id
_symmetry_equiv_pos_as_xyz
1 x,y,z
2 -x,-y,-z
_cell_length_a                   8.6449(16)
_cell_length_b                   8.6999(16)
_cell_length_c                   19.502(4)
_cell_angle_alpha                81.293(3)
_cell_angle_beta                 82.127(3)
_cell_angle_gamma                65.356(3)
_cell_volume                     1313.32
_exptl_crystal_colour            colorless
_exptl_crystal_description       block
_cell_formula_units_Z            2
loop_
_atom_site_label
_atom_site_type_symbol
_atom_site_fract_x
_atom_site_fract_y
_atom_site_fract_z
O1 O 0.6583(2) 0.6155(2) 0.37325(10)
O2 O 1.2628(4) 0.1281(3) 0.3715(2)
O3 O 1.1368(3) 0.0874(3) 0.29170(13)
O4 O 0.7640(3) 0.2248(2) 0.36435(9)
N1 N 0.8162(3) 0.7189(2) 0.42161(10)
C1 C 0.7939(3) 0.6042(3) 0.38920(12)
C2 C 0.6786(4) 0.8730(3) 0.44438(15)
H1 H 0.5727 0.8833 0.4298
H2 H 0.7013 0.9699 0.4241
H3 H 0.6708 0.8676 0.4942
C3 C 0.9886(3) 0.6692(3) 0.43014(12)
C4 C 1.0613(4) 0.7537(4) 0.45992(15)
H4 H 0.9946 0.8562 0.4781
C5 C 1.2349(5) 0.6823(5) 0.46200(17)
H5 H 1.2861 0.7368 0.4826
C6 C 1.3350(5) 0.5330(5) 0.43466(18)
H6 H 1.4530 0.4890 0.4358
C7 C 1.2618(4) 0.4473(4) 0.40531(14)
H7 H 1.3301 0.3451 0.3872
C8 C 1.0871(3) 0.5136(3) 0.40301(12)
C9 C 0.9673(3) 0.4625(3) 0.37651(12)
C10 C 0.9810(3) 0.3263(3) 0.34758(12)
C11 C 1.1430(4) 0.1739(4) 0.33877(17)
C12 C 1.2823(5) -0.0760(5) 0.2814(3)
H8 H 1.3649 -0.0581 0.2458
H9 H 1.3378 -0.1229 0.3243
C13 C 1.2286(6) -0.1855(5) 0.2622(3)
H10 H 1.3243 -0.2915 0.2556
H11 H 1.1479 -0.2042 0.2977
H12 H 1.1750 -0.1395 0.2194
C14 C 0.8284(3) 0.3073(3) 0.32583(13)
C15 C 0.7740(4) 0.3872(3) 0.25474(13)
H13 H 0.8749 0.3592 0.2222
H14 H 0.7225 0.5097 0.2552
C16 C 0.6489(3) 0.3337(3) 0.22845(13)
H15 H 0.5655 0.3323 0.2677
C17 C 0.7345(4) 0.1542(3) 0.20765(13)
C18 C 0.7074(5) 0.0217(4) 0.24710(16)
H16 H 0.6381 0.0408 0.2886
C19 C 0.7817(6) -0.1392(4) 0.2259(2)
H17 H 0.7605 -0.2271 0.2530
C20 C 0.8849(6) -0.1718(4) 0.1664(2)
H18 H 0.9358 -0.2814 0.1530
C21 C 0.9131(5) -0.0426(4) 0.12650(19)
H19 H 0.9825 -0.0629 0.0851
C22 C 0.8390(4) 0.1183(3) 0.14732(15)
H20 H 0.8604 0.2055 0.1197
C23 C 0.549(3) 0.450(3) 0.1699(15)
C24 C 0.5669(12) 0.5792(15) 0.1342(7)
H21 H 0.6449 0.6217 0.1417
N2 N 0.4511(8) 0.6470(9) 0.0818(4)
C25 C 0.4308(12) 0.7950(12) 0.0346(6)
H22 H 0.5134 0.8369 0.0416
H23 H 0.4473 0.7668 -0.0124
H24 H 0.3179 0.8810 0.0427
C26 C 0.3612(7) 0.5513(6) 0.0885(3)
C27 C 0.2282(7) 0.5644(6) 0.0521(2)
H25 H 0.1912 0.6489 0.0153
C28 C 0.1504(6) 0.4511(7) 0.0706(3)
H26 H 0.0614 0.4598 0.0462
C29 C 0.2057(7) 0.3247(6) 0.1256(3)
H27 H 0.1536 0.2489 0.1379
C30 C 0.3387(7) 0.3117(6) 0.1620(3)
H28 H 0.3757 0.2271 0.1988
C31 C 0.4165(7) 0.4250(7) 0.1435(3)
H29? H 0.5603 0.3372 0.2661
C32? C 0.565(2) 0.459(3) 0.1686(15)
C33? C 0.6040(13) 0.5956(15) 0.1331(7)
H30? H 0.6888 0.6249 0.1442
N3? N 0.5019(8) 0.6763(8) 0.0815(4)
C34? C 0.5031(12) 0.8263(12) 0.0361(6)
H31? H 0.4184 0.8603 0.0033
H32? H 0.4780 0.9176 0.0637
H33? H 0.6137 0.7993 0.0114
C35? C 0.3952(6) 0.5993(6) 0.0798(3)
C36? C 0.2701(6) 0.6312(6) 0.0353(2)
H34? H 0.2494 0.7186 -0.0007
C37? C 0.1759(6) 0.5323(7) 0.0448(2)
H35? H 0.0923 0.5536 0.0150
C38? C 0.2069(7) 0.4015(6) 0.0987(3)
H36? H 0.1438 0.3353 0.1050
C39? C 0.3319(7) 0.3696(6) 0.1431(2)
H37? H 0.3526 0.2821 0.1792
C40? C 0.4261(7) 0.4685(7) 0.1337(3)
loop_
_geom_bond_atom_site_label_1
_geom_bond_atom_site_label_2
_geom_bond_site_symmetry_1
_geom_bond_site_symmetry_2
O1 C1 1_555 1_555
O2 C11 1_555 1_555
O3 C11 1_555 1_555
O4 C14 1_555 1_555
N1 C1 1_555 1_555
C1 C9 1_555 1_555
C2 N1 1_555 1_555
H1 C2 1_555 1_555
H2 C2 1_555 1_555
H3 C2 1_555 1_555
C3 N1 1_555 1_555
C4 C3 1_555 1_555
H4 C4 1_555 1_555
C5 C4 1_555 1_555
H5 C5 1_555 1_555
C6 C5 1_555 1_555
H6 C6 1_555 1_555
C7 C6 1_555 1_555
H7 C7 1_555 1_555
C8 C3 1_555 1_555
C9 C8 1_555 1_555
C10 C9 1_555 1_555
C11 C10 1_555 1_555
C12 O3 1_555 1_555
H8 C12 1_555 1_555
H9 C12 1_555 1_555
C13 C12 1_555 1_555
H10 C13 1_555 1_555
H11 C13 1_555 1_555
H12 C13 1_555 1_555
C14 C10 1_555 1_555
C15 C14 1_555 1_555
H13 C15 1_555 1_555
H14 C15 1_555 1_555
C16 C15 1_555 1_555
H15 C16 1_555 1_555
C17 C16 1_555 1_555
C18 C17 1_555 1_555
H16 C18 1_555 1_555
C19 C18 1_555 1_555
H17 C19 1_555 1_555
C20 C19 1_555 1_555
H18 C20 1_555 1_555
C21 C20 1_555 1_555
H19 C21 1_555 1_555
C22 C17 1_555 1_555
H20 C22 1_555 1_555
C23 C16 1_555 1_555
C24 C23 1_555 1_555
H21 C24 1_555 1_555
N2 C24 1_555 1_555
C25 N2 1_555 1_555
H22 C25 1_555 1_555
H23 C25 1_555 1_555
H24 C25 1_555 1_555
C26 N2 1_555 1_555
C27 C26 1_555 1_555
H25 C27 1_555 1_555
C28 C27 1_555 1_555
H26 C28 1_555 1_555
C29 C28 1_555 1_555
H27 C29 1_555 1_555
C30 C29 1_555 1_555
H28 C30 1_555 1_555
C31 C23 1_555 1_555
C7 C8 1_555 1_555
C21 C22 1_555 1_555
C26 C31 1_555 1_555
C30 C31 1_555 1_555

#END
