
#######################################################################
#
#                 Cambridge Crystallographic Data Centre
#                                CCDC 
#
#######################################################################
#
# If this CIF has been generated from an entry in the Cambridge 
# Structural Database, then it will include bibliographic, chemical, 
# crystal, experimental, refinement or atomic coordinate data resulting 
# from the CCDC's data processing and validation procedures.
#
#######################################################################

data_ULAZUE
_chemical_formula_moiety         'C30 H26 N2 O4'
_chemical_name_systematic        
"Ethyl 7-hydroxy-1'-methyl-2'-oxo-9-phenyl-1',2',8,9-tetrahydro-5H-spiro[cyclohepta[b]indole-10,3'-indole]-6-carboxylate"
_symmetry_cell_setting           monoclinic
_symmetry_space_group_name_H-M   'P 21/c'
_symmetry_Int_Tables_number      14
_space_group_name_Hall           '-P 2ybc'
loop_
_symmetry_equiv_pos_site_id
_symmetry_equiv_pos_as_xyz
1 x,y,z
2 -x,1/2+y,1/2-z
3 -x,-y,-z
4 x,1/2-y,1/2+z
_cell_length_a                   9.1706(3)
_cell_length_b                   13.7356(4)
_cell_length_c                   20.3458(6)
_cell_angle_alpha                90
_cell_angle_beta                 98.688(2)
_cell_angle_gamma                90
_cell_volume                     2533.43
_exptl_crystal_colour            colorless
_exptl_crystal_description       block
_cell_formula_units_Z            4
loop_
_atom_site_label
_atom_site_type_symbol
_atom_site_fract_x
_atom_site_fract_y
_atom_site_fract_z
O1 O 0.06868(18) 0.63435(11) 0.47749(7)
H1 H 0.0561 0.6935 0.4766
O2 O 0.11511(13) 0.33996(9) 0.29636(7)
O3 O 0.06206(18) 0.80301(10) 0.43136(7)
O4 O 0.12951(15) 0.82802(9) 0.33199(6)
N1 N 0.36168(16) 0.31318(11) 0.29486(8)
N2 N 0.08744(15) 0.67448(10) 0.24508(7)
H2 H 0.0325 0.7255 0.2422
C1 C 0.14289(16) 0.62795(11) 0.30371(8)
C2 C 0.22265(16) 0.54739(11) 0.28860(8)
C3 C 0.29978(16) 0.46839(11) 0.33217(8)
C4 C 0.28050(17) 0.47294(12) 0.40738(8)
H3 H 0.3425 0.5264 0.4275
C5 C 0.12063(19) 0.49725(13) 0.41588(9)
H4 H 0.0538 0.4697 0.3791
H5 H 0.0986 0.4679 0.4566
C6 C 0.09650(18) 0.60411(13) 0.41833(9)
C7 C 0.10991(18) 0.66601(12) 0.36734(9)
C8 C 0.09682(19) 0.77009(13) 0.37955(9)
C9 C 0.1208(3) 0.93276(13) 0.34230(12)
H6 H 0.0451 0.9466 0.3696
H7 H 0.0937 0.9651 0.2998
C10 C 0.2646(3) 0.97059(19) 0.37543(16)
H8 H 0.3389 0.9580 0.3480
H9 H 0.2909 0.9388 0.4176
H10 H 0.2572 1.0395 0.3822
C11 C 0.21906(18) 0.54781(12) 0.21732(8)
C12 C 0.2811(2) 0.48972(15) 0.17247(9)
H11 H 0.3403 0.4369 0.1875
C13 C 0.2535(3) 0.51172(17) 0.10597(10)
H12 H 0.2948 0.4731 0.0761
C14 C 0.1657(3) 0.59011(17) 0.08222(10)
H13 H 0.1475 0.6023 0.0368
C15 C 0.1052(2) 0.64984(14) 0.12488(10)
H14 H 0.0479 0.7033 0.1093
C16 C 0.13254(18) 0.62767(13) 0.19226(8)
C17 C 0.24322(19) 0.36739(12) 0.30544(8)
C18 C 0.46262(17) 0.46085(12) 0.32714(8)
C19 C 0.57478(18) 0.52650(14) 0.34238(10)
H15 H 0.5558 0.5892 0.3561
C20 C 0.7180(2) 0.49756(18) 0.33689(12)
H16 H 0.7954 0.5413 0.3472
C21 C 0.7458(2) 0.40527(19) 0.31648(13)
H17 H 0.8423 0.3875 0.3131
C22 C 0.6340(2) 0.33802(17) 0.30077(12)
H18 H 0.6531 0.2755 0.2867
C23 C 0.49295(19) 0.36739(13) 0.30677(9)
C24 C 0.3514(3) 0.21266(16) 0.27302(16)
H19 H 0.2565 0.1870 0.2783
H20 H 0.4272 0.1751 0.2993
H21 H 0.3638 0.2093 0.2271
C25 C 0.33586(19) 0.38016(13) 0.44411(8)
C26 C 0.2393(2) 0.30552(14) 0.45485(11)
H22 H 0.1387 0.3131 0.4405
C27 C 0.2902(3) 0.22075(17) 0.48644(14)
H23 H 0.2243 0.1715 0.4929
C28 C 0.4376(3) 0.2089(2) 0.50826(16)
H24 H 0.4718 0.1518 0.5299
C29 C 0.5350(3) 0.28130(19) 0.49825(13)
H25 H 0.6353 0.2728 0.5129
C30 C 0.4855(2) 0.36633(15) 0.46677(10)
H26 H 0.5525 0.4150 0.4606
loop_
_geom_bond_atom_site_label_1
_geom_bond_atom_site_label_2
_geom_bond_site_symmetry_1
_geom_bond_site_symmetry_2
O1 H1 1_555 1_555
O2 C17 1_555 1_555
O3 C8 1_555 1_555
O4 C8 1_555 1_555
N1 C17 1_555 1_555
N2 H2 1_555 1_555
C1 N2 1_555 1_555
C2 C1 1_555 1_555
C3 C2 1_555 1_555
C4 C3 1_555 1_555
H3 C4 1_555 1_555
C5 C4 1_555 1_555
H4 C5 1_555 1_555
H5 C5 1_555 1_555
C6 O1 1_555 1_555
C7 C1 1_555 1_555
C8 C7 1_555 1_555
C9 O4 1_555 1_555
H6 C9 1_555 1_555
H7 C9 1_555 1_555
C10 C9 1_555 1_555
H8 C10 1_555 1_555
H9 C10 1_555 1_555
H10 C10 1_555 1_555
C11 C2 1_555 1_555
C12 C11 1_555 1_555
H11 C12 1_555 1_555
C13 C12 1_555 1_555
H12 C13 1_555 1_555
C14 C13 1_555 1_555
H13 C14 1_555 1_555
C15 C14 1_555 1_555
H14 C15 1_555 1_555
C16 N2 1_555 1_555
C17 C3 1_555 1_555
C18 C3 1_555 1_555
C19 C18 1_555 1_555
H15 C19 1_555 1_555
C20 C19 1_555 1_555
H16 C20 1_555 1_555
C21 C20 1_555 1_555
H17 C21 1_555 1_555
C22 C21 1_555 1_555
H18 C22 1_555 1_555
C23 N1 1_555 1_555
C24 N1 1_555 1_555
H19 C24 1_555 1_555
H20 C24 1_555 1_555
H21 C24 1_555 1_555
C25 C4 1_555 1_555
C26 C25 1_555 1_555
H22 C26 1_555 1_555
C27 C26 1_555 1_555
H23 C27 1_555 1_555
C28 C27 1_555 1_555
H24 C28 1_555 1_555
C29 C28 1_555 1_555
H25 C29 1_555 1_555
C30 C25 1_555 1_555
H26 C30 1_555 1_555
C5 C6 1_555 1_555
C6 C7 1_555 1_555
C11 C16 1_555 1_555
C15 C16 1_555 1_555
C18 C23 1_555 1_555
C22 C23 1_555 1_555
C29 C30 1_555 1_555

#END
