
#######################################################################
#
#                 Cambridge Crystallographic Data Centre
#                                CCDC 
#
#######################################################################
#
# If this CIF has been generated from an entry in the Cambridge 
# Structural Database, then it will include bibliographic, chemical, 
# crystal, experimental, refinement or atomic coordinate data resulting 
# from the CCDC's data processing and validation procedures.
#
#######################################################################

data_ULAZIS
_chemical_formula_moiety         'C31 H28 N2 O4'
_chemical_name_systematic        
'Ethyl (Z)-5-(1-methyl-1H-indol-3-yl)-2-(1-methyl-2-oxo-1,2-dihydro-3H-indol-3-ylidene)-3-oxo-5-phenylpentanoate'
_symmetry_cell_setting           triclinic
_symmetry_space_group_name_H-M   'P -1'
_symmetry_Int_Tables_number      2
_space_group_name_Hall           '-P 1'
loop_
_symmetry_equiv_pos_site_id
_symmetry_equiv_pos_as_xyz
1 x,y,z
2 -x,-y,-z
_cell_length_a                   9.846(2)
_cell_length_b                   11.445(2)
_cell_length_c                   11.592(3)
_cell_angle_alpha                90.262(4)
_cell_angle_beta                 96.846(4)
_cell_angle_gamma                103.167(4)
_cell_volume                     1262.18
_exptl_crystal_colour            orange
_exptl_crystal_description       block
_cell_formula_units_Z            2
loop_
_atom_site_label
_atom_site_type_symbol
_atom_site_fract_x
_atom_site_fract_y
_atom_site_fract_z
O1 O 0.85471(16) 1.27816(14) 0.31980(15)
O2 O 1.01700(17) 0.91730(16) 0.15971(17)
O3 O 0.66164(16) 1.08703(15) 0.15958(15)
O4 O 0.83016(16) 1.20797(15) 0.06997(14)
N1 N 1.0262(2) 1.24719(17) 0.46048(17)
N2 N 0.58676(19) 0.76295(17) -0.29429(17)
C1 C 1.0160(3) 1.3366(2) 0.5459(2)
H1 H 0.9471 1.3815 0.5140
H2 H 1.1079 1.3920 0.5651
H3 H 0.9860 1.2968 0.6163
C2 C 1.1110(2) 1.1650(2) 0.4788(2)
C3 C 1.2045(2) 1.1589(2) 0.5763(2)
H4 H 1.2187 1.2149 0.6398
C4 C 1.2766(3) 1.0680(3) 0.5781(2)
H5 H 1.3416 1.0613 0.6439
C5 C 1.2553(2) 0.9868(2) 0.4854(2)
H6 H 1.3049 0.9245 0.4887
C6 C 1.1621(2) 0.9950(2) 0.3869(2)
H7 H 1.1501 0.9400 0.3228
C7 C 1.0874(2) 1.0838(2) 0.3832(2)
C8 C 0.9775(2) 1.1163(2) 0.3006(2)
C9 C 0.9429(2) 1.2241(2) 0.3571(2)
C10 C 0.9010(2) 1.0694(2) 0.1998(2)
C11 C 0.9155(2) 0.9603(2) 0.1362(2)
C12 C 0.8031(2) 0.9083(2) 0.0378(2)
H8 H 0.8065 0.9666 -0.0252
H9 H 0.7100 0.8971 0.0659
C13 C 0.8170(2) 0.7894(2) -0.0117(2)
H10 H 0.9186 0.7965 -0.0195
C14 C 0.7360(2) 0.76182(19) -0.1315(2)
C15 C 0.6382(2) 0.8167(2) -0.1865(2)
H11 H 0.6096 0.8826 -0.1549
C16 C 0.7457(2) 0.6661(2) -0.2076(2)
C17 C 0.8217(2) 0.5764(2) -0.2005(2)
H12 H 0.8863 0.5723 -0.1337
C18 C 0.8018(3) 0.4943(2) -0.2912(2)
H13 H 0.8512 0.4319 -0.2860
C19 C 0.7093(3) 0.5016(2) -0.3918(2)
H14 H 0.6984 0.4446 -0.4540
C20 C 0.6343(2) 0.5896(2) -0.4021(2)
H15 H 0.5731 0.5950 -0.4707
C21 C 0.6511(2) 0.6699(2) -0.3090(2)
C22 C 0.4805(2) 0.7969(2) -0.3758(2)
H16 H 0.5089 0.7986 -0.4541
H17 H 0.4697 0.8767 -0.3535
H18 H 0.3908 0.7384 -0.3751
C23 C 0.7723(2) 0.6859(2) 0.0691(2)
C24 C 0.8665(2) 0.6227(2) 0.1206(2)
H19 H 0.9624 0.6454 0.1080
C25 C 0.8224(3) 0.5262(2) 0.1905(2)
H20 H 0.8879 0.4828 0.2241
C26 C 0.6848(3) 0.4938(2) 0.2108(2)
H21 H 0.6549 0.4281 0.2586
C27 C 0.5897(3) 0.5565(3) 0.1620(3)
H22 H 0.4946 0.5349 0.1770
C28 C 0.6334(3) 0.6515(2) 0.0906(2)
H23 H 0.5671 0.6935 0.0560
C29 C 0.7831(2) 1.1240(2) 0.1447(2)
C30 C 0.7260(3) 1.2607(3) 0.0026(2)
H24 H 0.7701 1.3438 -0.0167
H25 H 0.6491 1.2639 0.0494
C31 C 0.6671(3) 1.1880(3) -0.1071(3)
H26 H 0.7443 1.1767 -0.1489
H27 H 0.6069 1.2302 -0.1562
H28 H 0.6116 1.1096 -0.0881
loop_
_geom_bond_atom_site_label_1
_geom_bond_atom_site_label_2
_geom_bond_site_symmetry_1
_geom_bond_site_symmetry_2
O1 C9 1_555 1_555
O2 C11 1_555 1_555
O3 C29 1_555 1_555
O4 C29 1_555 1_555
N1 C1 1_555 1_555
N2 C15 1_555 1_555
C1 H1 1_555 1_555
H2 C1 1_555 1_555
H3 C1 1_555 1_555
C2 N1 1_555 1_555
C3 C2 1_555 1_555
H4 C3 1_555 1_555
C4 C3 1_555 1_555
H5 C4 1_555 1_555
C5 C4 1_555 1_555
H6 C5 1_555 1_555
C6 C5 1_555 1_555
H7 C6 1_555 1_555
C7 C2 1_555 1_555
C8 C7 1_555 1_555
C9 N1 1_555 1_555
C10 C8 1_555 1_555
C11 C10 1_555 1_555
C12 C11 1_555 1_555
H8 C12 1_555 1_555
H9 C12 1_555 1_555
C13 C12 1_555 1_555
H10 C13 1_555 1_555
C14 C13 1_555 1_555
C15 C14 1_555 1_555
H11 C15 1_555 1_555
C16 C14 1_555 1_555
C17 C16 1_555 1_555
H12 C17 1_555 1_555
C18 C17 1_555 1_555
H13 C18 1_555 1_555
C19 C18 1_555 1_555
H14 C19 1_555 1_555
C20 C19 1_555 1_555
H15 C20 1_555 1_555
C21 N2 1_555 1_555
C22 N2 1_555 1_555
H16 C22 1_555 1_555
H17 C22 1_555 1_555
H18 C22 1_555 1_555
C23 C13 1_555 1_555
C24 C23 1_555 1_555
H19 C24 1_555 1_555
C25 C24 1_555 1_555
H20 C25 1_555 1_555
C26 C25 1_555 1_555
H21 C26 1_555 1_555
C27 C26 1_555 1_555
H22 C27 1_555 1_555
C28 C23 1_555 1_555
H23 C28 1_555 1_555
C29 C10 1_555 1_555
C30 O4 1_555 1_555
H24 C30 1_555 1_555
H25 C30 1_555 1_555
C31 C30 1_555 1_555
H26 C31 1_555 1_555
H27 C31 1_555 1_555
H28 C31 1_555 1_555
C6 C7 1_555 1_555
C8 C9 1_555 1_555
C16 C21 1_555 1_555
C20 C21 1_555 1_555
C27 C28 1_555 1_555

#END
