
#######################################################################
#
#                 Cambridge Crystallographic Data Centre
#                                CCDC 
#
#######################################################################
#
# If this CIF has been generated from an entry in the Cambridge 
# Structural Database, then it will include bibliographic, chemical, 
# crystal, experimental, refinement or atomic coordinate data resulting 
# from the CCDC's data processing and validation procedures.
#
#######################################################################

data_ULEHUQ
_chemical_compound_source        
'culture extract of Penicillium chermesinum EN-480, an endophytic fungus obtained from the marine red alga Pterocladiella tenuis'
_chemical_name_common            'Chermesin B'
_chemical_formula_moiety         'C24 H34 O3'
_chemical_name_systematic        
2',3a,4,5',5',7,8a'-Heptamethyl-3',4',4a',7',8',8a'-hexahydro-2'H,3H-spiro[1-benzofuran-2,1'-naphthalene]-6,6'(3aH,5'H)-dione
_chemical_properties_biological  'antibacterial activity'
_symmetry_cell_setting           orthorhombic
_symmetry_space_group_name_H-M   'P 21 21 21'
_symmetry_Int_Tables_number      19
_space_group_name_Hall           'P 2ac 2ab'
loop_
_symmetry_equiv_pos_site_id
_symmetry_equiv_pos_as_xyz
1 x,y,z
2 1/2-x,-y,1/2+z
3 -x,1/2+y,1/2-z
4 1/2+x,1/2-y,-z
_cell_length_a                   8.4475(7)
_cell_length_b                   10.3954(9)
_cell_length_c                   24.175(2)
_cell_angle_alpha                90
_cell_angle_beta                 90
_cell_angle_gamma                90
_cell_volume                     2122.93
_cell_formula_units_Z            4
loop_
_atom_site_label
_atom_site_type_symbol
_atom_site_fract_x
_atom_site_fract_y
_atom_site_fract_z
O1 O 0.4601(4) 1.1824(5) 0.74350(19)
O2 O 1.0648(3) 0.9381(3) 0.85954(10)
O3 O 1.3106(4) 0.5785(4) 0.94255(15)
C1 C 0.8036(5) 1.0194(4) 0.78416(15)
H1 H 0.7312 0.9526 0.7962
H2 H 0.8936 0.9780 0.7667
C2 C 0.7200(6) 1.1058(5) 0.74165(17)
H3 H 0.7963 1.1655 0.7261
H4 H 0.6800 1.0528 0.7117
C3 C 0.5865(6) 1.1800(5) 0.7662(2)
C4 C 0.6164(5) 1.2539(4) 0.8197(2)
C5 C 0.7189(5) 1.1710(4) 0.85979(16)
H5 H 0.6467 1.1048 0.8738
C6 C 0.7701(6) 1.2474(4) 0.91133(17)
H6 H 0.8522 1.3084 0.9014
H7 H 0.6807 1.2950 0.9259
C7 C 0.8324(6) 1.1545(4) 0.95517(17)
H8 H 0.7466 1.0988 0.9669
H9 H 0.8665 1.2036 0.9871
C8 C 0.9704(5) 1.0711(4) 0.93520(16)
H10 H 0.9817 1.0028 0.9628
C9 C 0.9222(5) 1.0029(4) 0.88127(14)
C10 C 0.8610(4) 1.0953(4) 0.83483(15)
C11 C 0.8097(5) 0.8885(3) 0.89683(16)
H11 H 0.7743 0.8961 0.9349
H12 H 0.7177 0.8872 0.8728
C12 C 0.9095(4) 0.7658(4) 0.88900(15)
C13 C 1.0735(5) 0.8179(4) 0.88305(16)
C14 C 1.2078(5) 0.7611(4) 0.89652(17)
C15 C 1.1921(6) 0.6413(5) 0.9285(2)
C16 C 1.0336(5) 0.6037(5) 0.94796(18)
H13 H 1.0259 0.5343 0.9721
C17 C 0.9025(5) 0.6624(4) 0.93322(16)
C18 C 0.6949(7) 1.3832(4) 0.8020(2)
H14 H 0.7909 1.3657 0.7822
H15 H 0.7186 1.4332 0.8344
H16 H 0.6235 1.4302 0.7787
C19 C 0.4562(6) 1.2859(6) 0.8461(2)
H17 H 0.4727 1.3368 0.8787
H18 H 0.4028 1.2076 0.8558
H19 H 0.3928 1.3334 0.8202
C20 C 1.1272(6) 1.1444(5) 0.93586(19)
H20 H 1.1615 1.1559 0.9734
H21 H 1.1131 1.2270 0.9188
H22 H 1.2056 1.0964 0.9158
C21 C 0.9989(5) 1.1825(4) 0.81538(17)
H23 H 0.9768 1.2142 0.7789
H24 H 1.0954 1.1337 0.8148
H25 H 1.0100 1.2537 0.8404
C22 C 0.8651(5) 0.6983(4) 0.83380(16)
H26 H 0.9301 0.6234 0.8289
H27 H 0.8820 0.7566 0.8036
H28 H 0.7557 0.6733 0.8348
C23 C 1.3700(5) 0.8153(5) 0.88681(19)
H29 H 1.4191 0.8341 0.9217
H30 H 1.3618 0.8928 0.8654
H31 H 1.4330 0.7536 0.8671
C24 C 0.7396(5) 0.6234(4) 0.95350(17)
H32 H 0.6960 0.6912 0.9757
H33 H 0.7480 0.5464 0.9753
H34 H 0.6718 0.6078 0.9224
loop_
_geom_bond_atom_site_label_1
_geom_bond_atom_site_label_2
_geom_bond_site_symmetry_1
_geom_bond_site_symmetry_2
O1 C3 1_555 1_555
O2 C9 1_555 1_555
O3 C15 1_555 1_555
C1 H1 1_555 1_555
H2 C1 1_555 1_555
C2 C1 1_555 1_555
H3 C2 1_555 1_555
H4 C2 1_555 1_555
C3 C2 1_555 1_555
C4 C3 1_555 1_555
C5 C4 1_555 1_555
H5 C5 1_555 1_555
C6 C5 1_555 1_555
H6 C6 1_555 1_555
H7 C6 1_555 1_555
C7 C6 1_555 1_555
H8 C7 1_555 1_555
H9 C7 1_555 1_555
C8 C7 1_555 1_555
H10 C8 1_555 1_555
C9 C8 1_555 1_555
C10 C1 1_555 1_555
C11 C9 1_555 1_555
H11 C11 1_555 1_555
H12 C11 1_555 1_555
C12 C11 1_555 1_555
C13 O2 1_555 1_555
C14 C13 1_555 1_555
C15 C14 1_555 1_555
C16 C15 1_555 1_555
H13 C16 1_555 1_555
C17 C12 1_555 1_555
C18 C4 1_555 1_555
H14 C18 1_555 1_555
H15 C18 1_555 1_555
H16 C18 1_555 1_555
C19 C4 1_555 1_555
H17 C19 1_555 1_555
H18 C19 1_555 1_555
H19 C19 1_555 1_555
C20 C8 1_555 1_555
H20 C20 1_555 1_555
H21 C20 1_555 1_555
H22 C20 1_555 1_555
C21 C10 1_555 1_555
H23 C21 1_555 1_555
H24 C21 1_555 1_555
H25 C21 1_555 1_555
C22 C12 1_555 1_555
H26 C22 1_555 1_555
H27 C22 1_555 1_555
H28 C22 1_555 1_555
C23 C14 1_555 1_555
H29 C23 1_555 1_555
H30 C23 1_555 1_555
H31 C23 1_555 1_555
C24 C17 1_555 1_555
H32 C24 1_555 1_555
H33 C24 1_555 1_555
H34 C24 1_555 1_555
C5 C10 1_555 1_555
C9 C10 1_555 1_555
C12 C13 1_555 1_555
C16 C17 1_555 1_555

#END
