
#######################################################################
#
#                 Cambridge Crystallographic Data Centre
#                                CCDC 
#
#######################################################################
#
# If this CIF has been generated from an entry in the Cambridge 
# Structural Database, then it will include bibliographic, chemical, 
# crystal, experimental, refinement or atomic coordinate data resulting 
# from the CCDC's data processing and validation procedures.
#
#######################################################################

data_ULEJIF
_chemical_formula_moiety         'C7 H14 N1 O5 P1'
_chemical_name_systematic        
'Dimethyl (E)-1-methyl-2-(methylcarbamoyl)ethenyl phosphate'
_symmetry_cell_setting           monoclinic
_symmetry_space_group_name_H-M   'P 21/n'
_symmetry_Int_Tables_number      14
_space_group_name_Hall           '-P 2yn'
loop_
_symmetry_equiv_pos_site_id
_symmetry_equiv_pos_as_xyz
1 x,y,z
2 1/2-x,1/2+y,1/2-z
3 -x,-y,-z
4 1/2+x,1/2-y,1/2+z
_cell_length_a                   10.0498(2)
_cell_length_b                   11.3501(2)
_cell_length_c                   10.4587(2)
_cell_angle_alpha                90
_cell_angle_beta                 115.3770(10)
_cell_angle_gamma                90
_cell_volume                     1077.87
_exptl_crystal_colour            colorless
_exptl_crystal_description       block
_cell_formula_units_Z            4
loop_
_atom_site_label
_atom_site_type_symbol
_atom_site_fract_x
_atom_site_fract_y
_atom_site_fract_z
P1 P 0.72597(4) 0.12670(3) 0.30753(4)
O1 O 0.87089(17) 0.17794(17) 0.35222(16)
O2 O 0.60357(16) 0.22189(12) 0.25429(17)
O3 O 0.69477(16) 0.05711(13) 0.41970(14)
O4 O 0.68546(12) 0.03323(9) 0.18490(11)
O5 O 0.75176(15) 0.08602(13) -0.19560(13)
N1 N 0.55391(16) 0.20368(14) -0.26018(15)
H1 H 0.4883 0.2357 -0.2360
C1 C 0.44938(19) 0.19657(18) 0.2069(2)
H2 H 0.3929 0.2700 0.1787
H3 H 0.4335 0.1597 0.2840
H4 H 0.4168 0.1428 0.1259
C2 C 0.7899(3) -0.0384(2) 0.4980(2)
H5 H 0.7542 -0.0715 0.5641
H6 H 0.8904 -0.0087 0.5510
H7 H 0.7898 -0.0998 0.4321
C3 C 0.72637(16) 0.04930(12) 0.07257(14)
C4 C 0.86253(19) -0.01539(16) 0.09550(19)
H8 H 0.8863 -0.0020 0.0151
H9 H 0.8477 -0.0998 0.1041
H10 H 0.9438 0.0128 0.1825
C5 C 0.63716(16) 0.11200(13) -0.03706(15)
H11 H 0.5546 0.1478 -0.0310
C6 C 0.65555(17) 0.13105(13) -0.16923(16)
C7 C 0.5494(3) 0.2307(3) -0.3968(2)
H12 H 0.4682 0.2854 -0.4472
H13 H 0.5341 0.1580 -0.4518
H14 H 0.6427 0.2670 -0.3841
H15? H 0.3692 0.2054 0.2359
H16? H 0.4189 0.1421 0.1267
H17? H 0.4726 0.2735 0.1790
H18? H 0.8730 -0.0660 0.5840
H19? H 0.7597 -0.1009 0.4265
H20? H 0.7073 -0.0181 0.5201
O6? O 0.8042(9) 0.2366(7) 0.2975(8)
O7? O 0.5877(7) 0.1471(7) 0.3323(7)
O8? O 0.8319(8) 0.0599(7) 0.4465(7)
loop_
_geom_bond_atom_site_label_1
_geom_bond_atom_site_label_2
_geom_bond_site_symmetry_1
_geom_bond_site_symmetry_2
P1 O1 1_555 1_555
O2 P1 1_555 1_555
O3 P1 1_555 1_555
O4 P1 1_555 1_555
O5 C6 1_555 1_555
N1 H1 1_555 1_555
C1 O2 1_555 1_555
H2 C1 1_555 1_555
H3 C1 1_555 1_555
H4 C1 1_555 1_555
C2 O3 1_555 1_555
H5 C2 1_555 1_555
H6 C2 1_555 1_555
H7 C2 1_555 1_555
C3 O4 1_555 1_555
C4 C3 1_555 1_555
H8 C4 1_555 1_555
H9 C4 1_555 1_555
H10 C4 1_555 1_555
C5 C3 1_555 1_555
H11 C5 1_555 1_555
C6 N1 1_555 1_555
C7 N1 1_555 1_555
H12 C7 1_555 1_555
H13 C7 1_555 1_555
H14 C7 1_555 1_555
C5 C6 1_555 1_555

#END
