
#######################################################################
#
#                 Cambridge Crystallographic Data Centre
#                                CCDC 
#
#######################################################################
#
# If this CIF has been generated from an entry in the Cambridge 
# Structural Database, then it will include bibliographic, chemical, 
# crystal, experimental, refinement or atomic coordinate data resulting 
# from the CCDC's data processing and validation procedures.
#
#######################################################################

data_ULEPUY
_chemical_formula_moiety         'C30 H40 O4 S1'
_chemical_name_systematic        
'(3S,8R,9S,10R,13S,14S)-10,13-Dimethyl-17-oxo-2,3,4,7,8,9,10,11,12,13,14,15,16,17-tetradecahydro-1H-cyclopenta[a]phenanthren-3-yl 2-hydroxy-2-methyl-3-(4-methylphenylthio)propanoate'
_symmetry_cell_setting           monoclinic
_symmetry_space_group_name_H-M   'P 21'
_symmetry_Int_Tables_number      4
_space_group_name_Hall           'P 2yb'
loop_
_symmetry_equiv_pos_site_id
_symmetry_equiv_pos_as_xyz
1 x,y,z
2 -x,1/2+y,-z
_cell_length_a                   13.5064(8)
_cell_length_b                   5.8689(4)
_cell_length_c                   17.8643(15)
_cell_angle_alpha                90
_cell_angle_beta                 102.617(7)
_cell_angle_gamma                90
_cell_volume                     1381.87
_exptl_crystal_colour            colorless
_exptl_crystal_description       needle
_chemical_melting_point          '125-128 deg.C'
_cell_formula_units_Z            2
loop_
_atom_site_label
_atom_site_type_symbol
_atom_site_fract_x
_atom_site_fract_y
_atom_site_fract_z
S1 S 0.70945(17) 0.8099(6) 0.48592(14)
O1 O 0.6387(3) 0.5225(9) 0.2976(2)
O2 O 0.5730(5) 0.8798(12) 0.2853(4)
O3 O 0.9416(4) 0.5731(12) -0.2134(3)
C1 C 0.8125(4) 0.4348(13) 0.1626(3)
H1 H 0.8732 0.3423 0.1679
H2 H 0.8322 0.5923 0.1581
C2 C 0.7723(4) 0.4105(12) 0.2355(3)
H3 H 0.7582 0.2515 0.2439
H4 H 0.8227 0.4639 0.2793
C3 C 0.6770(4) 0.5482(13) 0.2275(3)
H5 H 0.6914 0.7091 0.2197
C4 C 0.5975(4) 0.4629(12) 0.1609(3)
H6 H 0.5367 0.5550 0.1560
H7 H 0.5801 0.3071 0.1708
C5 C 0.6338(4) 0.4720(10) 0.0869(3)
C6 C 0.5771(4) 0.5615(12) 0.0246(3)
H8 H 0.5147 0.6208 0.0289
C7 C 0.6029(4) 0.5776(12) -0.0525(3)
H9 H 0.6149 0.7359 -0.0634
H10 H 0.5456 0.5246 -0.0913
C8 C 0.6969(4) 0.4373(10) -0.0577(3)
H11 H 0.6768 0.2775 -0.0670
C9 C 0.7762(4) 0.4530(11) 0.0177(3)
H12 H 0.7893 0.6160 0.0266
C10 C 0.7381(4) 0.3662(10) 0.0878(3)
C11 C 0.8784(4) 0.3483(14) 0.0115(4)
H13 H 0.9282 0.3822 0.0582
H14 H 0.8711 0.1840 0.0078
C12 C 0.9180(4) 0.4341(14) -0.0569(4)
H15 H 0.9355 0.5942 -0.0499
H16 H 0.9790 0.3510 -0.0602
C13 C 0.8395(5) 0.4035(11) -0.1303(4)
C14 C 0.8590(6) 0.5212(14) -0.2023(4)
C15 C 0.7582(5) 0.5775(15) -0.2535(4)
H17 H 0.7456 0.4821 -0.2989
H18 H 0.7561 0.7359 -0.2693
C16 C 0.6782(5) 0.5312(16) -0.2050(4)
H19 H 0.6286 0.6531 -0.2108
H20 H 0.6434 0.3880 -0.2194
C17 C 0.7415(4) 0.5216(12) -0.1234(3)
H21 H 0.7610 0.6800 -0.1104
C18 C 0.8261(6) 0.1468(12) -0.1520(5)
H22 H 0.8051 0.0652 -0.1115
H23 H 0.8893 0.0861 -0.1592
H24 H 0.7754 0.1307 -0.1986
C19 C 0.7266(5) 0.1041(11) 0.0872(4)
H25 H 0.6924 0.0590 0.1266
H26 H 0.7924 0.0346 0.0964
H27 H 0.6877 0.0560 0.0381
C20 C 0.5842(6) 0.7033(18) 0.3160(5)
C21 C 0.5410(6) 0.637(2) 0.3855(5)
C22 C 0.6261(6) 0.569(3) 0.4542(4)
H28 H 0.610(6) 0.52(2) 0.492(5)
C23 C 0.8128(5) 0.7427(16) 0.4431(4)
C24 C 0.8697(5) 0.5449(16) 0.4622(4)
H29 H 0.8513 0.4400 0.4957
C25 C 0.9525(5) 0.5048(14) 0.4317(4)
H30 H 0.9895 0.3715 0.4449
C26 C 0.9831(5) 0.6551(15) 0.3821(4)
C27 C 0.9262(6) 0.8486(15) 0.3642(4)
H31 H 0.9448 0.9528 0.3305
C28 C 0.8419(5) 0.8957(13) 0.3941(4)
H32 H 0.8055 1.0297 0.3810
C29 C 1.0735(6) 0.605(2) 0.3482(5)
H33 H 1.1259 0.5362 0.3864
H34 H 1.0983 0.7451 0.3311
H35 H 1.0539 0.5035 0.3055
O4 O 0.4813(6) 0.8328(17) 0.4014(4)
H36 H 0.4835 0.9341 0.3702
C30 C 0.4749(8) 0.417(2) 0.3650(6)
H37 H 0.4250 0.4417 0.3185
H38 H 0.4414 0.3828 0.4059
H39 H 0.5177 0.2917 0.3582
loop_
_geom_bond_atom_site_label_1
_geom_bond_atom_site_label_2
_geom_bond_site_symmetry_1
_geom_bond_site_symmetry_2
S1 C22 1_555 1_555
O1 C3 1_555 1_555
O2 C20 1_555 1_555
O3 C14 1_555 1_555
C1 H1 1_555 1_555
H2 C1 1_555 1_555
C2 C1 1_555 1_555
H3 C2 1_555 1_555
H4 C2 1_555 1_555
C3 C2 1_555 1_555
H5 C3 1_555 1_555
C4 C3 1_555 1_555
H6 C4 1_555 1_555
H7 C4 1_555 1_555
C5 C4 1_555 1_555
C6 C5 1_555 1_555
H8 C6 1_555 1_555
C7 C6 1_555 1_555
H9 C7 1_555 1_555
H10 C7 1_555 1_555
C8 C7 1_555 1_555
H11 C8 1_555 1_555
C9 C8 1_555 1_555
H12 C9 1_555 1_555
C10 C1 1_555 1_555
C11 C9 1_555 1_555
H13 C11 1_555 1_555
H14 C11 1_555 1_555
C12 C11 1_555 1_555
H15 C12 1_555 1_555
H16 C12 1_555 1_555
C13 C12 1_555 1_555
C14 C13 1_555 1_555
C15 C14 1_555 1_555
H17 C15 1_555 1_555
H18 C15 1_555 1_555
C16 C15 1_555 1_555
H19 C16 1_555 1_555
H20 C16 1_555 1_555
C17 C8 1_555 1_555
H21 C17 1_555 1_555
C18 C13 1_555 1_555
H22 C18 1_555 1_555
H23 C18 1_555 1_555
H24 C18 1_555 1_555
C19 C10 1_555 1_555
H25 C19 1_555 1_555
H26 C19 1_555 1_555
H27 C19 1_555 1_555
C20 O1 1_555 1_555
C21 C20 1_555 1_555
C22 C21 1_555 1_555
H28 C22 1_555 1_555
C23 S1 1_555 1_555
C24 C23 1_555 1_555
H29 C24 1_555 1_555
C25 C24 1_555 1_555
H30 C25 1_555 1_555
C26 C25 1_555 1_555
C27 C26 1_555 1_555
H31 C27 1_555 1_555
C28 C23 1_555 1_555
H32 C28 1_555 1_555
C29 C26 1_555 1_555
H33 C29 1_555 1_555
H34 C29 1_555 1_555
H35 C29 1_555 1_555
O4 C21 1_555 1_555
H36 O4 1_555 1_555
C30 C21 1_555 1_555
H37 C30 1_555 1_555
H38 C30 1_555 1_555
H39 C30 1_555 1_555
C5 C10 1_555 1_555
C9 C10 1_555 1_555
C13 C17 1_555 1_555
C16 C17 1_555 1_555
C27 C28 1_555 1_555

#END
