
#######################################################################
#
#                 Cambridge Crystallographic Data Centre
#                                CCDC 
#
#######################################################################
#
# If this CIF has been generated from an entry in the Cambridge 
# Structural Database, then it will include bibliographic, chemical, 
# crystal, experimental, refinement or atomic coordinate data resulting 
# from the CCDC's data processing and validation procedures.
#
#######################################################################

data_ULITUG
_chemical_formula_moiety         'C8 H4 Cl1 N1 O2'
_chemical_name_systematic        4-Chloro-1H-indole-2,3-dione
_symmetry_cell_setting           monoclinic
_symmetry_space_group_name_H-M   'P 21'
_symmetry_Int_Tables_number      4
_space_group_name_Hall           'P 2yb'
loop_
_symmetry_equiv_pos_site_id
_symmetry_equiv_pos_as_xyz
1 x,y,z
2 -x,1/2+y,-z
_cell_length_a                   8.2745(8)
_cell_length_b                   6.0367(6)
_cell_length_c                   14.8609(14)
_cell_angle_alpha                90
_cell_angle_beta                 104.746(5)
_cell_angle_gamma                90
_cell_volume                     717.863
_exptl_crystal_colour            orange
_exptl_crystal_description       block
_cell_formula_units_Z            4
loop_
_atom_site_label
_atom_site_type_symbol
_atom_site_fract_x
_atom_site_fract_y
_atom_site_fract_z
Cl1 Cl 0.82671(11) -0.28031(19) 0.40490(7)
O1 O 0.2975(4) -0.0106(5) 0.09037(18)
O2 O 0.5638(3) -0.2926(6) 0.19884(19)
N1 N 0.3652(4) 0.2002(7) 0.2246(2)
H1 H 0.295(5) 0.309(6) 0.208(3)
C1 C 0.3785(5) 0.0273(7) 0.1694(3)
C2 C 0.5204(5) -0.1236(7) 0.2281(3)
C3 C 0.5750(5) -0.0089(7) 0.3177(3)
C4 C 0.6994(5) -0.0499(8) 0.3987(3)
C5 C 0.7209(5) 0.0939(8) 0.4734(3)
H2 H 0.8050 0.0660 0.5290
C6 C 0.6195(5) 0.2785(8) 0.4667(3)
H3 H 0.6340 0.3741 0.5189
C7 C 0.4963(5) 0.3293(8) 0.3859(3)
H4 H 0.4289 0.4582 0.3815
C8 C 0.4775(4) 0.1828(8) 0.3127(2)
Cl2 Cl 1.05021(12) 1.19333(19) 0.35368(6)
O3 O 1.1154(3) 0.4626(5) 0.11689(18)
O4 O 1.1901(3) 0.7341(6) 0.28454(17)
N2 N 0.9124(4) 0.7291(7) 0.0657(2)
H5 H 0.868(5) 0.688(9) 0.0088(14)
C9 C 1.0412(5) 0.6310(7) 0.1266(3)
C10 C 1.0799(5) 0.7769(7) 0.2159(3)
C11 C 0.9586(5) 0.9583(7) 0.1941(3)
C12 C 0.9285(5) 1.1431(7) 0.2424(3)
C13 C 0.8008(5) 1.2893(8) 0.2018(3)
H6 H 0.7766 1.4130 0.2357
C14 C 0.7089(5) 1.2512(8) 0.1105(3)
H7 H 0.6232 1.3527 0.0823
C15 C 0.7387(5) 1.0694(8) 0.0594(3)
H8 H 0.6758 1.0467 -0.0029
C16 C 0.8623(5) 0.9235(7) 0.1022(3)
loop_
_geom_bond_atom_site_label_1
_geom_bond_atom_site_label_2
_geom_bond_site_symmetry_1
_geom_bond_site_symmetry_2
Cl1 C4 1_555 1_555
O1 C1 1_555 1_555
O2 C2 1_555 1_555
N1 H1 1_555 1_555
C1 N1 1_555 1_555
C2 C1 1_555 1_555
C3 C2 1_555 1_555
C4 C3 1_555 1_555
C5 C4 1_555 1_555
H2 C5 1_555 1_555
C6 C5 1_555 1_555
H3 C6 1_555 1_555
C7 C6 1_555 1_555
H4 C7 1_555 1_555
C8 N1 1_555 1_555
Cl2 C12 1_555 1_555
O3 C9 1_555 1_555
O4 C10 1_555 1_555
N2 H5 1_555 1_555
C9 N2 1_555 1_555
C10 C9 1_555 1_555
C11 C10 1_555 1_555
C12 C11 1_555 1_555
C13 C12 1_555 1_555
H6 C13 1_555 1_555
C14 C13 1_555 1_555
H7 C14 1_555 1_555
C15 C14 1_555 1_555
H8 C15 1_555 1_555
C16 N2 1_555 1_555
C3 C8 1_555 1_555
C7 C8 1_555 1_555
C11 C16 1_555 1_555
C15 C16 1_555 1_555

#END
