
#######################################################################
#
#                 Cambridge Crystallographic Data Centre
#                                CCDC 
#
#######################################################################
#
# If this CIF has been generated from an entry in the Cambridge 
# Structural Database, then it will include bibliographic, chemical, 
# crystal, experimental, refinement or atomic coordinate data resulting 
# from the CCDC's data processing and validation procedures.
#
#######################################################################

data_ULODEF
_chemical_formula_moiety         'C13 H14 F2 O2 S1'
_chemical_name_systematic        
'(2,2-Difluoro-3,3-dimethylcyclopropylidene)methyl 4-methylphenyl sulfone'
_symmetry_cell_setting           monoclinic
_symmetry_space_group_name_H-M   'P 21/c'
_symmetry_Int_Tables_number      14
_space_group_name_Hall           '-P 2ybc'
loop_
_symmetry_equiv_pos_site_id
_symmetry_equiv_pos_as_xyz
1 x,y,z
2 -x,1/2+y,1/2-z
3 -x,-y,-z
4 x,1/2-y,1/2+z
_cell_length_a                   16.938(5)
_cell_length_b                   6.546(2)
_cell_length_c                   12.292(4)
_cell_angle_alpha                90
_cell_angle_beta                 98.719(6)
_cell_angle_gamma                90
_cell_volume                     1347.14
_exptl_crystal_colour            colorless
_exptl_crystal_description       prismatic
_cell_formula_units_Z            4
loop_
_atom_site_label
_atom_site_type_symbol
_atom_site_fract_x
_atom_site_fract_y
_atom_site_fract_z
S1 S 0.27044(3) 0.35848(9) 0.52155(5)
O1 O 0.29357(9) 0.4362(3) 0.42199(12)
O2 O 0.27900(11) 0.1455(3) 0.54557(15)
F1 F -0.00603(9) 0.5105(3) 0.34637(15)
F2 F 0.02565(12) 0.7799(4) 0.44180(15)
C1 C 0.16980(13) 0.4194(4) 0.52055(18)
H1 H 0.1439 0.3735 0.5774
C2 C 0.13043(13) 0.5285(4) 0.44116(18)
C3 C 0.05619(15) 0.6231(5) 0.3925(2)
C4 C 0.12808(13) 0.6484(4) 0.33791(18)
C5 C 0.16898(19) 0.8519(5) 0.3465(3)
H2 H 0.1464 0.9367 0.2859
H3 H 0.2250 0.8333 0.3445
H4 H 0.1618 0.9163 0.4145
C6 C 0.13070(19) 0.5314(6) 0.2325(2)
H5 H 0.1051 0.4013 0.2365
H6 H 0.1853 0.5109 0.2226
H7 H 0.1034 0.6077 0.1714
C7 C 0.32258(11) 0.4933(3) 0.63362(16)
C8 C 0.34445(13) 0.6936(4) 0.61897(19)
H8 H 0.3282 0.7599 0.5524
C9 C 0.39070(14) 0.7936(4) 0.70433(19)
H9 H 0.4058 0.9282 0.6948
C10 C 0.41532(13) 0.6978(4) 0.80422(19)
C11 C 0.39026(13) 0.5006(4) 0.81767(18)
H10 H 0.4051 0.4358 0.8850
C12 C 0.34383(13) 0.3969(4) 0.73387(18)
H11 H 0.3270 0.2641 0.7445
C13 C 0.46834(16) 0.8096(5) 0.8950(2)
H12 H 0.4369 0.8563 0.9488
H13 H 0.4925 0.9247 0.8646
H14 H 0.5093 0.7189 0.9293
loop_
_geom_bond_atom_site_label_1
_geom_bond_atom_site_label_2
_geom_bond_site_symmetry_1
_geom_bond_site_symmetry_2
S1 O1 1_555 1_555
O2 S1 1_555 1_555
F1 C3 1_555 1_555
F2 C3 1_555 1_555
C1 S1 1_555 1_555
H1 C1 1_555 1_555
C2 C1 1_555 1_555
C3 C2 1_555 1_555
C4 C2 1_555 1_555
C5 C4 1_555 1_555
H2 C5 1_555 1_555
H3 C5 1_555 1_555
H4 C5 1_555 1_555
C6 C4 1_555 1_555
H5 C6 1_555 1_555
H6 C6 1_555 1_555
H7 C6 1_555 1_555
C7 S1 1_555 1_555
C8 C7 1_555 1_555
H8 C8 1_555 1_555
C9 C8 1_555 1_555
H9 C9 1_555 1_555
C10 C9 1_555 1_555
C11 C10 1_555 1_555
H10 C11 1_555 1_555
C12 C7 1_555 1_555
H11 C12 1_555 1_555
C13 C10 1_555 1_555
H12 C13 1_555 1_555
H13 C13 1_555 1_555
H14 C13 1_555 1_555
C3 C4 1_555 1_555
C11 C12 1_555 1_555

#END
