
#######################################################################
#
#                 Cambridge Crystallographic Data Centre
#                                CCDC 
#
#######################################################################
#
# If this CIF has been generated from an entry in the Cambridge 
# Structural Database, then it will include bibliographic, chemical, 
# crystal, experimental, refinement or atomic coordinate data resulting 
# from the CCDC's data processing and validation procedures.
#
#######################################################################

data_ULOYOL
_chemical_formula_moiety         'C6 H6 N1 O3 S1 1-,C4 H12 N1 1+'
_chemical_name_systematic        'Tetramethylammonium 4-aminobenzenesulfonate'
_symmetry_cell_setting           orthorhombic
_symmetry_space_group_name_H-M   'P n a 21'
_symmetry_Int_Tables_number      33
_space_group_name_Hall           'P 2c -2n'
loop_
_symmetry_equiv_pos_site_id
_symmetry_equiv_pos_as_xyz
1 x,y,z
2 -x,-y,1/2+z
3 1/2+x,1/2-y,z
4 1/2-x,1/2+y,1/2+z
_cell_length_a                   12.5603(19)
_cell_length_b                   11.5744(17)
_cell_length_c                   8.9054(11)
_cell_angle_alpha                90
_cell_angle_beta                 90
_cell_angle_gamma                90
_cell_volume                     1294.65
_exptl_crystal_colour            colorless
_exptl_crystal_description       prism
_cell_formula_units_Z            4
loop_
_atom_site_label
_atom_site_type_symbol
_atom_site_fract_x
_atom_site_fract_y
_atom_site_fract_z
S1 S 0.27535(5) 1.01654(6) 0.05299(11)
N1 N -0.1585(2) 0.8263(2) -0.0339(3)
H1 H -0.174(3) 0.7535(15) 0.003(4)
H2 H -0.192(3) 0.852(3) -0.119(3)
C1 C 0.1499(2) 0.9542(2) 0.0180(3)
O1 O 0.2973(2) 1.0949(3) -0.0684(4)
C2 C 0.1167(2) 0.8594(2) 0.0986(3)
H3 H 0.1630 0.8245 0.1663
O2 O 0.2673(2) 1.0759(3) 0.1933(3)
C3 C 0.0157(2) 0.8157(2) 0.0802(3)
H4 H -0.0055 0.7518 0.1359
O3 O 0.34943(16) 0.92271(19) 0.0583(4)
C4 C -0.0553(2) 0.8657(2) -0.0205(3)
C5 C -0.0200(2) 0.9590(3) -0.1040(4)
H5 H -0.0653 0.9926 -0.1741
C6 C 0.0808(2) 1.0029(3) -0.0852(4)
H6 H 0.1027 1.0659 -0.1423
N2 N 0.6261(2) 0.1023(2) 0.0690(3)
C7 C 0.5616(4) 0.1617(5) 0.1829(5)
H7 H 0.5754 0.2433 0.1786
H8 H 0.5798 0.1331 0.2807
H9 H 0.4875 0.1478 0.1638
C8 C 0.7404(3) 0.1244(4) 0.0996(8)
H10 H 0.7538 0.2061 0.0963
H11 H 0.7830 0.0864 0.0250
H12 H 0.7584 0.0952 0.1972
C9 C 0.6056(3) -0.0218(3) 0.0742(8)
H13 H 0.5314 -0.0359 0.0562
H14 H 0.6248 -0.0512 0.1713
H15 H 0.6473 -0.0598 -0.0015
C10 C 0.5958(6) 0.1451(5) -0.0786(5)
H16 H 0.6085 0.2268 -0.0835
H17 H 0.5216 0.1300 -0.0955
H18 H 0.6373 0.1067 -0.1541
loop_
_geom_bond_atom_site_label_1
_geom_bond_atom_site_label_2
_geom_bond_site_symmetry_1
_geom_bond_site_symmetry_2
S1 C1 1_555 1_555
N1 H1 1_555 1_555
H2 N1 1_555 1_555
C1 C2 1_555 1_555
O1 S1 1_555 1_555
C2 H3 1_555 1_555
O2 S1 1_555 1_555
C3 C2 1_555 1_555
H4 C3 1_555 1_555
O3 S1 1_555 1_555
C4 N1 1_555 1_555
C5 C4 1_555 1_555
H5 C5 1_555 1_555
C6 C1 1_555 1_555
H6 C6 1_555 1_555
N2 C7 1_555 1_555
C7 H7 1_555 1_555
H8 C7 1_555 1_555
H9 C7 1_555 1_555
C8 N2 1_555 1_555
H10 C8 1_555 1_555
H11 C8 1_555 1_555
H12 C8 1_555 1_555
C9 N2 1_555 1_555
H13 C9 1_555 1_555
H14 C9 1_555 1_555
H15 C9 1_555 1_555
C10 N2 1_555 1_555
H16 C10 1_555 1_555
H17 C10 1_555 1_555
H18 C10 1_555 1_555
C3 C4 1_555 1_555
C5 C6 1_555 1_555

#END
