
#######################################################################
#
#                 Cambridge Crystallographic Data Centre
#                                CCDC 
#
#######################################################################
#
# If this CIF has been generated from an entry in the Cambridge 
# Structural Database, then it will include bibliographic, chemical, 
# crystal, experimental, refinement or atomic coordinate data resulting 
# from the CCDC's data processing and validation procedures.
#
#######################################################################

data_ULUBOU
_chemical_formula_moiety         'C9 H10 N4 S4'
_chemical_name_systematic        
2,2'-(Prop-1-ene-1,2-diyldisulfanediyl)bis(5-methyl-1,3,4-thiadiazole)
_symmetry_cell_setting           monoclinic
_symmetry_space_group_name_H-M   'P 21/c'
_symmetry_Int_Tables_number      14
_space_group_name_Hall           '-P 2ybc'
loop_
_symmetry_equiv_pos_site_id
_symmetry_equiv_pos_as_xyz
1 x,y,z
2 -x,1/2+y,1/2-z
3 -x,-y,-z
4 x,1/2-y,1/2+z
_cell_length_a                   5.668(2)
_cell_length_b                   23.957(9)
_cell_length_c                   10.160(4)
_cell_angle_alpha                90
_cell_angle_beta                 100.215(4)
_cell_angle_gamma                90
_cell_volume                     1357.74
_exptl_crystal_colour            yellow
_exptl_crystal_description       block
_cell_formula_units_Z            4
loop_
_atom_site_label
_atom_site_type_symbol
_atom_site_fract_x
_atom_site_fract_y
_atom_site_fract_z
C1 C 1.3641(6) 0.43902(12) 0.4800(3)
H1 H 1.3067 0.4649 0.5391
H2 H 1.3775 0.4576 0.3978
H3 H 1.5186 0.4252 0.5213
C2 C 1.1926(5) 0.39144(11) 0.4514(3)
C3 C 0.9787(5) 0.30891(10) 0.3817(3)
C4 C 0.6955(5) 0.22244(10) 0.4228(2)
H4 H 0.6954 0.2425 0.5011
C5 C 0.5597(5) 0.17795(11) 0.3992(3)
C6 C 0.5336(7) 0.14316(14) 0.2746(3)
H5 H 0.3750 0.1477 0.2238
H6 H 0.5596 0.1046 0.2985
H7 H 0.6494 0.1549 0.2219
C7 C 0.5123(4) 0.09826(11) 0.5817(2)
C8 C 0.7557(4) 0.02112(10) 0.6651(2)
C9 C 0.9432(5) -0.02232(12) 0.7045(3)
H8 H 0.9426 -0.0337 0.7951
H9 H 1.0975 -0.0073 0.6978
H10 H 0.9101 -0.0540 0.6462
N1 N 0.9873(5) 0.38962(10) 0.4890(3)
N2 N 0.8603(4) 0.34139(10) 0.4478(3)
N3 N 0.3902(4) 0.05952(9) 0.6269(2)
N4 N 0.5346(4) 0.01477(9) 0.6765(2)
S1 S 1.25402(13) 0.33339(3) 0.36406(8)
S2 S 0.87757(14) 0.24505(3) 0.31016(7)
S3 S 0.37635(13) 0.16070(3) 0.51785(8)
S4 S 0.81263(12) 0.08427(3) 0.59455(8)
loop_
_geom_bond_atom_site_label_1
_geom_bond_atom_site_label_2
_geom_bond_site_symmetry_1
_geom_bond_site_symmetry_2
C1 H1 1_555 1_555
H2 C1 1_555 1_555
H3 C1 1_555 1_555
C2 C1 1_555 1_555
C3 N2 1_555 1_555
C4 H4 1_555 1_555
C5 C4 1_555 1_555
C6 C5 1_555 1_555
H5 C6 1_555 1_555
H6 C6 1_555 1_555
H7 C6 1_555 1_555
C7 N3 1_555 1_555
C8 C9 1_555 1_555
C9 H8 1_555 1_555
H9 C9 1_555 1_555
H10 C9 1_555 1_555
N1 C2 1_555 1_555
N2 N1 1_555 1_555
N3 N4 1_555 1_555
N4 C8 1_555 1_555
S1 C2 1_555 1_555
S2 C3 1_555 1_555
S3 C5 1_555 1_555
S4 C7 1_555 1_555
C3 S1 1_555 1_555
C4 S2 1_555 1_555
C7 S3 1_555 1_555
C8 S4 1_555 1_555

#END
