
#######################################################################
#
#                 Cambridge Crystallographic Data Centre
#                                CCDC 
#
#######################################################################
#
# If this CIF has been generated from an entry in the Cambridge 
# Structural Database, then it will include bibliographic, chemical, 
# crystal, experimental, refinement or atomic coordinate data resulting 
# from the CCDC's data processing and validation procedures.
#
#######################################################################

data_ULUBUZ
_chemical_name_common            1,8-bis(2-thiomethoxyethoxy)anthraquinone
_chemical_formula_moiety         'C20 H20 O4 S2'
_chemical_name_systematic        
1,8-bis(2-(methylsulfanyl)ethoxy)-9,10-anthraquinone
_symmetry_cell_setting           monoclinic
_symmetry_space_group_name_H-M   'C 2/c'
_symmetry_Int_Tables_number      15
_space_group_name_Hall           '-C 2yn'
loop_
_symmetry_equiv_pos_site_id
_symmetry_equiv_pos_as_xyz
1 x,y,z
2 -x,y,1/2-z
3 1/2+x,1/2+y,z
4 1/2-x,1/2+y,1/2-z
5 -x,-y,-z
6 x,-y,1/2+z
7 1/2-x,1/2-y,-z
8 1/2+x,1/2-y,1/2+z
_cell_length_a                   15.178(3)
_cell_length_b                   10.152(3)
_cell_length_c                   24.655(6)
_cell_angle_alpha                90
_cell_angle_beta                 100.223(22)
_cell_angle_gamma                90
_cell_volume                     3738.7
_exptl_crystal_colour            yellow
_exptl_crystal_description       block
_cell_formula_units_Z            8
loop_
_atom_site_label
_atom_site_type_symbol
_atom_site_fract_x
_atom_site_fract_y
_atom_site_fract_z
S1 S 0.12187(7) 0.66245(9) 0.08451(4)
S2 S 0.14440(7) 0.68124(9) -0.31599(4)
O1 O 0.10913(15) 0.9847(2) -0.21909(8)
C1 C 0.11381(19) 1.1755(3) -0.06331(12)
C2 C 0.1205(2) 0.9042(3) 0.03603(12)
H1 H 0.0771 0.9326 0.0581
H2 H 0.1801 0.9206 0.0567
C3 C 0.1219(2) 0.9205(3) -0.26897(13)
H3 H 0.1743 0.9555 -0.2815
H4 H 0.0701 0.9338 -0.2978
C4 C 0.1339(2) 1.3900(3) -0.11179(14)
C5 C 0.1110(2) 1.1189(3) -0.21825(13)
C6 C 0.1184(2) 1.1073(3) -0.01316(13)
O2 O 0.10763(15) 0.9743(2) -0.01537(8)
C7 C 0.12988(19) 1.3121(3) -0.06110(13)
C8 C 0.1342(2) 0.7761(3) -0.25551(13)
H5 H 0.0834 0.7444 -0.2403
H6 H 0.1876 0.7642 -0.2278
O3 O 0.04905(16) 1.0070(2) -0.12317(9)
C9 C 0.1087(2) 0.7601(3) 0.02251(13)
H7 H 0.1525 0.7330 0.0005
H8 H 0.0496 0.7455 0.0009
C10 C 0.1232(2) 1.3189(3) -0.16495(13)
C11 C 0.1357(2) 1.1759(3) 0.03641(13)
H9 H 0.1383 1.1307 0.0695
C12 C 0.1149(2) 1.1937(3) -0.26519(13)
H10 H 0.1128 1.1522 -0.2990
C13 C 0.11068(19) 1.1824(3) -0.16732(12)
C14 C 0.1281(2) 1.3914(3) -0.21188(14)
H11 H 0.1356 1.4823 -0.2097
C15 C 0.2409(3) 0.6563(4) 0.10293(16)
H12 H 0.2573 0.6061 0.1362
H13 H 0.2641 0.7441 0.1087
H14 H 0.2654 0.6153 0.0738
C16 C 0.0295(3) 0.6687(4) -0.34822(17)
H15 H 0.0251 0.6198 -0.3819
H16 H 0.0052 0.7553 -0.3561
H17 H -0.0036 0.6241 -0.3239
C17 C 0.1220(2) 1.3285(3) -0.26161(14)
H18 H 0.1226 1.3777 -0.2934
C18 C 0.1491(2) 1.3103(3) 0.03699(14)
H19 H 0.1603 1.3552 0.0704
O4 O 0.15042(18) 1.5069(2) -0.10874(10)
C19 C 0.0901(2) 1.1103(3) -0.11819(12)
C20 C 0.1459(2) 1.3782(3) -0.01139(14)
H20 H 0.1546 1.4689 -0.0107
loop_
_geom_bond_atom_site_label_1
_geom_bond_atom_site_label_2
_geom_bond_site_symmetry_1
_geom_bond_site_symmetry_2
S1 C9 1_555 1_555
S2 C8 1_555 1_555
O1 C3 1_555 1_555
C1 C6 1_555 1_555
C2 H1 1_555 1_555
H2 C2 1_555 1_555
C3 H3 1_555 1_555
H4 C3 1_555 1_555
C4 C7 1_555 1_555
C5 O1 1_555 1_555
C6 O2 1_555 1_555
O2 C2 1_555 1_555
C7 C1 1_555 1_555
C8 C3 1_555 1_555
H5 C8 1_555 1_555
H6 C8 1_555 1_555
O3 C19 1_555 1_555
C9 C2 1_555 1_555
H7 C9 1_555 1_555
H8 C9 1_555 1_555
C10 C4 1_555 1_555
C11 C6 1_555 1_555
H9 C11 1_555 1_555
C12 C5 1_555 1_555
H10 C12 1_555 1_555
C13 C5 1_555 1_555
C14 C10 1_555 1_555
H11 C14 1_555 1_555
C15 S1 1_555 1_555
H12 C15 1_555 1_555
H13 C15 1_555 1_555
H14 C15 1_555 1_555
C16 S2 1_555 1_555
H15 C16 1_555 1_555
H16 C16 1_555 1_555
H17 C16 1_555 1_555
C17 C12 1_555 1_555
H18 C17 1_555 1_555
C18 C11 1_555 1_555
H19 C18 1_555 1_555
O4 C4 1_555 1_555
C19 C1 1_555 1_555
C20 C7 1_555 1_555
H20 C20 1_555 1_555
C10 C13 1_555 1_555
C13 C19 1_555 1_555
C14 C17 1_555 1_555
C18 C20 1_555 1_555

#END
