
#######################################################################
#
#                 Cambridge Crystallographic Data Centre
#                                CCDC 
#
#######################################################################
#
# If this CIF has been generated from an entry in the Cambridge 
# Structural Database, then it will include bibliographic, chemical, 
# crystal, experimental, refinement or atomic coordinate data resulting 
# from the CCDC's data processing and validation procedures.
#
#######################################################################

data_ULUDUC
_chemical_formula_moiety         'C16 H12 B1 F2 N1 O3'
_chemical_name_systematic        
1,1-Difluoro-3-(4-methoxyphenyl)-1H-[1,3,2]oxazaborinino[4,3-b][1,3]benzoxazol-10-ium-1-ide
_symmetry_cell_setting           monoclinic
_symmetry_space_group_name_H-M   'P 21/n'
_symmetry_Int_Tables_number      14
_space_group_name_Hall           '-P 2yn'
loop_
_symmetry_equiv_pos_site_id
_symmetry_equiv_pos_as_xyz
1 x,y,z
2 1/2-x,1/2+y,1/2-z
3 -x,-y,-z
4 1/2+x,1/2-y,1/2+z
_cell_length_a                   7.1368(14)
_cell_length_b                   15.475(3)
_cell_length_c                   13.122(3)
_cell_angle_alpha                90
_cell_angle_beta                 103.10(3)
_cell_angle_gamma                90
_cell_volume                     1411.51
_exptl_crystal_colour            colorless
_exptl_crystal_description       block
_cell_formula_units_Z            4
loop_
_atom_site_label
_atom_site_type_symbol
_atom_site_fract_x
_atom_site_fract_y
_atom_site_fract_z
O1 O 0.1566(2) 1.16441(9) -0.08350(11)
N1 N 0.2540(2) 1.12179(10) 0.08112(12)
O2 O 0.3159(2) 0.97013(9) 0.12467(11)
C1 C 0.2908(3) 0.85747(13) 0.00257(16)
O3 O 0.3462(2) 0.59398(10) -0.04095(14)
C2 C 0.2087(3) 1.09715(13) -0.01772(15)
F1 F 0.1824(2) 1.05723(9) 0.23338(11)
F2 F 0.4940(2) 1.07545(9) 0.22892(10)
C3 C 0.2339(3) 1.21221(13) 0.08296(16)
C4 C 0.2733(3) 0.95001(13) 0.02382(15)
C5 C 0.2389(3) 0.82314(14) -0.09747(17)
H1 H 0.1916 0.8597 -0.1537
C6 C 0.1715(3) 1.23779(14) -0.01937(17)
C7 C 0.3616(3) 0.80107(14) 0.08537(17)
H2 H 0.3991 0.8226 0.1531
C8 C 0.3251(3) 0.68123(14) -0.03267(19)
C9 C 0.2161(3) 1.01194(14) -0.05103(16)
H3 H 0.1832 0.9977 -0.1217
C10 C 0.1665(3) 1.38120(16) 0.0320(2)
H4 H 0.1445 1.4395 0.0164
C11 C 0.3766(3) 0.71392(15) 0.06790(19)
H5 H 0.4215 0.6769 0.1239
C12 C 0.2561(3) 0.73558(15) -0.11561(19)
H6 H 0.2213 0.7138 -0.1833
C13 C 0.1353(3) 1.32209(15) -0.0492(2)
H7 H 0.0930 1.3384 -0.1189
C14 C 0.2293(3) 1.35672(15) 0.1356(2)
H8 H 0.2481 1.3988 0.1875
B1 B 0.3139(4) 1.05593(16) 0.17090(19)
C15 C 0.2647(3) 1.27102(14) 0.16336(18)
H9 H 0.3072 1.2541 0.2328
C16 C 0.3020(4) 0.55585(16) -0.1420(2)
H10 H 0.1665 0.5607 -0.1715
H11 H 0.3379 0.4960 -0.1367
H12 H 0.3719 0.5851 -0.1863
loop_
_geom_bond_atom_site_label_1
_geom_bond_atom_site_label_2
_geom_bond_site_symmetry_1
_geom_bond_site_symmetry_2
O1 C2 1_555 1_555
N1 C2 1_555 1_555
O2 C4 1_555 1_555
C1 C4 1_555 1_555
O3 C8 1_555 1_555
C2 C9 1_555 1_555
F1 B1 1_555 1_555
F2 B1 1_555 1_555
C3 N1 1_555 1_555
C4 C9 1_555 1_555
C5 C1 1_555 1_555
H1 C5 1_555 1_555
C6 O1 1_555 1_555
C7 C1 1_555 1_555
H2 C7 1_555 1_555
C8 C11 1_555 1_555
C9 H3 1_555 1_555
C10 H4 1_555 1_555
C11 C7 1_555 1_555
H5 C11 1_555 1_555
C12 C5 1_555 1_555
H6 C12 1_555 1_555
C13 C6 1_555 1_555
H7 C13 1_555 1_555
C14 C10 1_555 1_555
H8 C14 1_555 1_555
B1 N1 1_555 1_555
C15 C3 1_555 1_555
H9 C15 1_555 1_555
C16 O3 1_555 1_555
H10 C16 1_555 1_555
H11 C16 1_555 1_555
H12 C16 1_555 1_555
O2 B1 1_555 1_555
C3 C6 1_555 1_555
C8 C12 1_555 1_555
C10 C13 1_555 1_555
C14 C15 1_555 1_555

#END
