
#######################################################################
#
#                 Cambridge Crystallographic Data Centre
#                                CCDC 
#
#######################################################################
#
# If this CIF has been generated from an entry in the Cambridge 
# Structural Database, then it will include bibliographic, chemical, 
# crystal, experimental, refinement or atomic coordinate data resulting 
# from the CCDC's data processing and validation procedures.
#
#######################################################################

data_ULUMEV
_chemical_formula_moiety         'C18 H32 O4'
_chemical_name_systematic        '9,10-dioxooctadecanoic acid'
_symmetry_cell_setting           monoclinic
_symmetry_space_group_name_H-M   'P 21/c'
_symmetry_Int_Tables_number      14
_space_group_name_Hall           '-P 2ybc'
loop_
_symmetry_equiv_pos_site_id
_symmetry_equiv_pos_as_xyz
1 x,y,z
2 -x,1/2+y,1/2-z
3 -x,-y,-z
4 x,1/2-y,1/2+z
_cell_length_a                   49.45(2)
_cell_length_b                   6.841(3)
_cell_length_c                   5.133(3)
_cell_angle_alpha                90
_cell_angle_beta                 90.170(6)
_cell_angle_gamma                90
_cell_volume                     1736.42
_exptl_crystal_colour            yellow
_exptl_crystal_description       plate
_chemical_melting_point          '358 K'
_cell_formula_units_Z            4
_chemical_properties_physical    'Light-sensitive, Photo-sensitive'
_exptl_crystal_preparation       Luminescent
loop_
_atom_site_label
_atom_site_type_symbol
_atom_site_fract_x
_atom_site_fract_y
_atom_site_fract_z
O1 O 0.48738(3) 0.8808(2) 0.2145(3)
O2 O 0.46765(3) 1.0796(2) 0.5039(3)
O3 O 0.26307(3) 1.11262(19) 0.4966(2)
O4 O 0.23452(3) 0.88742(19) -0.0397(3)
C1 C 0.46680(4) 0.9790(3) 0.3073(4)
C2 C 0.44163(4) 0.9529(3) 0.1446(4)
H1 H 0.4389 0.8116 0.1120
H2 H 0.4444 1.0171 -0.0261
C3 C 0.41609(4) 1.0353(3) 0.2672(4)
H3 H 0.4170 1.1799 0.2642
H4 H 0.4152 0.9935 0.4517
C4 C 0.39043(4) 0.9690(3) 0.1271(4)
H5 H 0.3908 1.0179 -0.0544
H6 H 0.3902 0.8243 0.1202
C5 C 0.36463(4) 1.0400(3) 0.2574(4)
H7 H 0.3645 1.1847 0.2550
H8 H 0.3648 0.9979 0.4419
C6 C 0.33874(4) 0.9658(3) 0.1297(4)
H9 H 0.3381 1.0114 -0.0533
H10 H 0.3390 0.8211 0.1277
C7 C 0.31337(4) 1.0347(3) 0.2693(4)
H11 H 0.3141 0.9898 0.4525
H12 H 0.3131 1.1794 0.2706
C8 C 0.28730(4) 0.9612(3) 0.1457(4)
H13 H 0.2862 1.0095 -0.0358
H14 H 0.2877 0.8166 0.1397
C9 C 0.26245(4) 1.0254(3) 0.2898(3)
C10 C 0.23488(4) 0.9741(3) 0.1644(4)
C11 C 0.21019(4) 1.0394(3) 0.3091(4)
H15 H 0.2098 1.1840 0.3136
H16 H 0.2114 0.9921 0.4911
C12 C 0.18395(4) 0.9654(3) 0.1877(4)
H17 H 0.1830 1.0095 0.0042
H18 H 0.1841 0.8207 0.1876
C13 C 0.15884(4) 1.0361(3) 0.3301(4)
H19 H 0.1587 1.1808 0.3307
H20 H 0.1597 0.9914 0.5135
C14 C 0.13270(4) 0.9620(3) 0.2066(4)
H21 H 0.1328 0.8173 0.2092
H22 H 0.1321 1.0041 0.0221
C15 C 0.10722(4) 1.0347(3) 0.3434(4)
H23 H 0.1076 0.9903 0.5269
H24 H 0.1073 1.1795 0.3439
C16 C 0.08114(4) 0.9634(3) 0.2156(4)
H25 H 0.0810 1.0049 0.0309
H26 H 0.0808 0.8187 0.2193
C17 C 0.05578(4) 1.0405(3) 0.3486(4)
H27 H 0.0565 1.1851 0.3534
H28 H 0.0554 0.9929 0.5307
C18 C 0.02972(4) 0.9773(4) 0.2109(5)
H29 H 0.0298 1.0253 0.0310
H30 H 0.0141 1.0319 0.3029
H31 H 0.0285 0.8343 0.2105
H32 H 0.5011(6) 0.897(4) 0.319(5)
loop_
_geom_bond_atom_site_label_1
_geom_bond_atom_site_label_2
_geom_bond_site_symmetry_1
_geom_bond_site_symmetry_2
O1 C1 1_555 1_555
O2 C1 1_555 1_555
O3 C9 1_555 1_555
O4 C10 1_555 1_555
C1 C2 1_555 1_555
C2 H1 1_555 1_555
H2 C2 1_555 1_555
C3 C2 1_555 1_555
H3 C3 1_555 1_555
H4 C3 1_555 1_555
C4 C3 1_555 1_555
H5 C4 1_555 1_555
H6 C4 1_555 1_555
C5 C4 1_555 1_555
H7 C5 1_555 1_555
H8 C5 1_555 1_555
C6 C5 1_555 1_555
H9 C6 1_555 1_555
H10 C6 1_555 1_555
C7 C6 1_555 1_555
H11 C7 1_555 1_555
H12 C7 1_555 1_555
C8 C7 1_555 1_555
H13 C8 1_555 1_555
H14 C8 1_555 1_555
C9 C8 1_555 1_555
C10 C9 1_555 1_555
C11 C10 1_555 1_555
H15 C11 1_555 1_555
H16 C11 1_555 1_555
C12 C11 1_555 1_555
H17 C12 1_555 1_555
H18 C12 1_555 1_555
C13 C12 1_555 1_555
H19 C13 1_555 1_555
H20 C13 1_555 1_555
C14 C13 1_555 1_555
H21 C14 1_555 1_555
H22 C14 1_555 1_555
C15 C14 1_555 1_555
H23 C15 1_555 1_555
H24 C15 1_555 1_555
C16 C15 1_555 1_555
H25 C16 1_555 1_555
H26 C16 1_555 1_555
C17 C16 1_555 1_555
H27 C17 1_555 1_555
H28 C17 1_555 1_555
C18 C17 1_555 1_555
H29 C18 1_555 1_555
H30 C18 1_555 1_555
H31 C18 1_555 1_555
H32 O1 1_555 1_555

#END
