
#######################################################################
#
#                 Cambridge Crystallographic Data Centre
#                                CCDC 
#
#######################################################################
#
# If this CIF has been generated from an entry in the Cambridge 
# Structural Database, then it will include bibliographic, chemical, 
# crystal, experimental, refinement or atomic coordinate data resulting 
# from the CCDC's data processing and validation procedures.
#
#######################################################################

data_UMINOT
_chemical_formula_moiety         'C12 H10 N2,C4 H6 O4'
_chemical_name_systematic        '1,2-bis(4-Pyridyl)ethene succinic acid'
_symmetry_cell_setting           triclinic
_symmetry_space_group_name_H-M   'P -1'
_symmetry_Int_Tables_number      2
_space_group_name_Hall           '-P 1'
loop_
_symmetry_equiv_pos_site_id
_symmetry_equiv_pos_as_xyz
1 x,y,z
2 -x,-y,-z
_cell_length_a                   4.8678(14)
_cell_length_b                   8.877(3)
_cell_length_c                   9.0187(18)
_cell_angle_alpha                68.82(2)
_cell_angle_beta                 88.840(10)
_cell_angle_gamma                85.574(14)
_cell_volume                     362.29
_exptl_crystal_colour            brown
_exptl_crystal_description       block
_cell_formula_units_Z            1
loop_
_atom_site_label
_atom_site_type_symbol
_atom_site_fract_x
_atom_site_fract_y
_atom_site_fract_z
N1 N 0.2642(4) 0.7034(2) 0.7367(2)
C1 C 0.7026(4) 0.6135(2) 0.5714(3)
C2 C 0.6181(5) 0.5083(3) 0.7182(3)
C3 C 0.3998(5) 0.5570(3) 0.7958(3)
C4 C 0.5593(5) 0.7651(3) 0.5087(3)
C5 C 0.3434(5) 0.8049(3) 0.5944(3)
C6 C 0.9312(4) 0.5728(2) 0.4796(2)
H2 H 0.987(4) 0.664(3) 0.386(3)
H4 H 0.610(5) 0.843(3) 0.411(3)
H5 H 0.234(5) 0.910(3) 0.556(3)
H7 H 0.707(6) 0.397(4) 0.768(4)
H8 H 0.335(5) 0.482(3) 0.893(3)
C6A C 1.0688(4) 0.4272(2) 0.5204(2)
C1A C 1.2974(4) 0.3865(2) 0.4286(3)
C2A C 1.3819(5) 0.4917(3) 0.2818(3)
C3A C 1.6002(5) 0.4430(3) 0.2042(3)
N1A N 1.7358(4) 0.2966(2) 0.2633(2)
C5A C 1.6566(5) 0.1951(3) 0.4056(3)
C4A C 1.4407(5) 0.2349(3) 0.4913(3)
H4A H 1.390(5) 0.157(3) 0.589(3)
H5A H 1.766(5) 0.090(3) 0.444(3)
H8A H 1.665(5) 0.518(3) 0.107(3)
H7A H 1.293(6) 0.603(4) 0.232(4)
H2A H 1.013(4) 0.336(3) 0.614(3)
O1 O 0.1203(4) 0.9747(2) 0.2012(2)
O2 O 0.1291(3) 1.24301(18) 0.0820(2)
H1 H 0.0023 1.2439 0.1430
C7 C 0.4507(4) 1.0853(2) -0.0069(3)
C8 C 0.2155(4) 1.0916(2) 0.1041(3)
H3 H 0.608(5) 1.144(3) 0.018(3)
H6 H 0.399(5) 1.163(3) -0.118(3)
C7A C 0.5493(4) 0.9147(2) 0.0069(3)
C8A C 0.7845(4) 0.9084(2) -0.1041(3)
O1A O 0.8797(4) 1.0253(2) -0.2012(2)
O2A O 0.8709(3) 0.75699(18) -0.0820(2)
H1A H 0.9977 0.7561 -0.1430
H3A H 0.392(5) 0.856(3) -0.018(3)
H6A H 0.601(5) 0.837(3) 0.118(3)
loop_
_geom_bond_atom_site_label_1
_geom_bond_atom_site_label_2
_geom_bond_site_symmetry_1
_geom_bond_site_symmetry_2
N1 C3 1_555 1_555
C1 C2 1_555 1_555
C2 C3 1_555 1_555
C3 H8 1_555 1_555
C4 C1 1_555 1_555
C5 N1 1_555 1_555
C6 C1 1_555 1_555
O1 C8 1_555 1_555
O2 H1 1_555 1_555
C7 C8 1_555 1_555
C8 O2 1_555 1_555
H2 C6 1_555 1_555
H3 C7 1_555 1_555
H4 C4 1_555 1_555
H5 C5 1_555 1_555
H6 C7 1_555 1_555
H7 C2 1_555 1_555
C6A C6 1_555 1_555
C1A C6A 1_555 1_555
C2A C1A 1_555 1_555
C3A C2A 1_555 1_555
N1A C3A 1_555 1_555
C5A N1A 1_555 1_555
C4A C1A 1_555 1_555
H4A C4A 1_555 1_555
H5A C5A 1_555 1_555
H8A C3A 1_555 1_555
H7A C2A 1_555 1_555
H2A C6A 1_555 1_555
C7A C7 1_555 1_555
C8A C7A 1_555 1_555
O1A C8A 1_555 1_555
O2A C8A 1_555 1_555
H1A O2A 1_555 1_555
H3A C7A 1_555 1_555
H6A C7A 1_555 1_555
C4 C5 1_555 1_555
C5A C4A 1_555 1_555

#END
