
#######################################################################
#
#                 Cambridge Crystallographic Data Centre
#                                CCDC 
#
#######################################################################
#
# If this CIF has been generated from an entry in the Cambridge 
# Structural Database, then it will include bibliographic, chemical, 
# crystal, experimental, refinement or atomic coordinate data resulting 
# from the CCDC's data processing and validation procedures.
#
#######################################################################

data_UMIQUE
_chemical_formula_moiety         'C17 H16 F1 N1 O2'
_chemical_name_systematic        
3-(4-(Dimethylamino)phenyl)-1-(4-fluoro-2-hydroxyphenyl)prop-2-en-1-one
_symmetry_cell_setting           monoclinic
_symmetry_space_group_name_H-M   'P 21/c'
_symmetry_Int_Tables_number      14
_space_group_name_Hall           '-P 2ybc'
loop_
_symmetry_equiv_pos_site_id
_symmetry_equiv_pos_as_xyz
1 x,y,z
2 -x,1/2+y,1/2-z
3 -x,-y,-z
4 x,1/2-y,1/2+z
_cell_length_a                   12.469(3)
_cell_length_b                   10.315(2)
_cell_length_c                   12.311(3)
_cell_angle_alpha                90
_cell_angle_beta                 115.11(3)
_cell_angle_gamma                90
_cell_volume                     1433.77
_exptl_crystal_colour            red
_exptl_crystal_description       block
_cell_formula_units_Z            4
loop_
_atom_site_label
_atom_site_type_symbol
_atom_site_fract_x
_atom_site_fract_y
_atom_site_fract_z
C1 C 0.90041(13) 0.34588(14) 0.09982(13)
C2 C 1.00919(15) 0.28917(17) 0.12304(16)
H1 H 1.0461 0.3044 0.0726
C3 C 1.06077(14) 0.21104(15) 0.22063(16)
C4 C 1.01215(14) 0.18701(14) 0.30002(14)
H2 H 1.0497 0.1332 0.3661
C5 C 0.90604(13) 0.24534(14) 0.27824(13)
H3 H 0.8723 0.2311 0.3316
C6 C 0.84664(12) 0.32525(12) 0.17907(12)
C7 C 0.73059(12) 0.38592(13) 0.15208(12)
C8 C 0.67340(12) 0.36692(13) 0.23169(13)
H4 H 0.7063 0.3088 0.2951
C9 C 0.57429(12) 0.43098(13) 0.21631(13)
H5 H 0.5467 0.4909 0.1540
C10 C 0.50541(12) 0.41827(12) 0.28453(12)
C11 C 0.52937(12) 0.32706(13) 0.37634(13)
H6 H 0.5954 0.2739 0.3975
C12 C 0.45922(12) 0.31341(13) 0.43591(13)
H7 H 0.4780 0.2509 0.4957
C13 C 0.35862(12) 0.39263(12) 0.40823(12)
C14 C 0.33370(13) 0.48387(14) 0.31589(14)
H8 H 0.2677 0.5373 0.2943
C15 C 0.40519(13) 0.49519(13) 0.25732(13)
H9 H 0.3862 0.5568 0.1968
C16 C 0.31526(16) 0.28471(16) 0.56133(17)
H10 H 0.3178 0.2004 0.5295
H11 H 0.2549 0.2863 0.5903
H12 H 0.3907 0.3037 0.6261
C17 C 0.19372(15) 0.47105(16) 0.44905(17)
H13 H 0.2249 0.5576 0.4653
H14 H 0.1575 0.4501 0.5018
H15 H 0.1356 0.4654 0.3673
F1 F 1.16543(9) 0.15429(12) 0.24057(11)
N1 N 0.28885(11) 0.38061(12) 0.46818(12)
O1 O 0.85007(10) 0.42003(12) 0.00178(10)
H16 H 0.7874 0.4493 -0.0021
O2 O 0.68215(9) 0.45271(11) 0.05915(10)
loop_
_geom_bond_atom_site_label_1
_geom_bond_atom_site_label_2
_geom_bond_site_symmetry_1
_geom_bond_site_symmetry_2
C1 C2 1_555 1_555
C2 H1 1_555 1_555
C3 C2 1_555 1_555
C4 C3 1_555 1_555
H2 C4 1_555 1_555
C5 C4 1_555 1_555
H3 C5 1_555 1_555
C6 C1 1_555 1_555
C7 C6 1_555 1_555
C8 C7 1_555 1_555
H4 C8 1_555 1_555
C9 C8 1_555 1_555
H5 C9 1_555 1_555
C10 C9 1_555 1_555
C11 C10 1_555 1_555
H6 C11 1_555 1_555
C12 C11 1_555 1_555
H7 C12 1_555 1_555
C13 C12 1_555 1_555
C14 C13 1_555 1_555
H8 C14 1_555 1_555
C15 C10 1_555 1_555
H9 C15 1_555 1_555
C16 H10 1_555 1_555
H11 C16 1_555 1_555
H12 C16 1_555 1_555
C17 H13 1_555 1_555
H14 C17 1_555 1_555
H15 C17 1_555 1_555
F1 C3 1_555 1_555
N1 C13 1_555 1_555
O1 C1 1_555 1_555
H16 O1 1_555 1_555
O2 C7 1_555 1_555
C5 C6 1_555 1_555
C14 C15 1_555 1_555
C16 N1 1_555 1_555
C17 N1 1_555 1_555

#END
