
#######################################################################
#
#                 Cambridge Crystallographic Data Centre
#                                CCDC 
#
#######################################################################
#
# If this CIF has been generated from an entry in the Cambridge 
# Structural Database, then it will include bibliographic, chemical, 
# crystal, experimental, refinement or atomic coordinate data resulting 
# from the CCDC's data processing and validation procedures.
#
#######################################################################

data_UMIQUE01
_chemical_formula_moiety         'C17 H16 F1 N1 O2'
_chemical_name_systematic        
3-(4-(dimethylamino)phenyl)-1-(4-fluoro-2-hydroxyphenyl)prop-2-en-1-one
_symmetry_cell_setting           monoclinic
_symmetry_space_group_name_H-M   'P 21/c'
_symmetry_Int_Tables_number      14
_space_group_name_Hall           '-P 2ybc'
loop_
_symmetry_equiv_pos_site_id
_symmetry_equiv_pos_as_xyz
1 x,y,z
2 -x,1/2+y,1/2-z
3 -x,-y,-z
4 x,1/2-y,1/2+z
_cell_length_a                   12.394(3)
_cell_length_b                   10.203(3)
_cell_length_c                   12.264(3)
_cell_angle_alpha                90
_cell_angle_beta                 115.798(2)
_cell_angle_gamma                90
_cell_volume                     1396.29
_exptl_crystal_colour            red
_exptl_crystal_description       block
_cell_formula_units_Z            4
loop_
_atom_site_label
_atom_site_type_symbol
_atom_site_fract_x
_atom_site_fract_y
_atom_site_fract_z
F1 F -0.17246(8) 0.84473(10) 0.75341(8)
O1 O 0.15092(9) 0.58048(10) 0.99862(8)
H1 H 0.2152 0.5530 1.0039
O2 O 0.31975(8) 0.54875(10) 0.94175(8)
N1 N 0.71355(10) 0.61956(11) 0.53198(10)
C1 C -0.06675(12) 0.78788(14) 0.77421(12)
C2 C -0.01297(12) 0.70971(14) 0.87418(12)
H2 H -0.0494 0.6942 0.9251
C3 C 0.09783(11) 0.65386(13) 0.89798(11)
C4 C 0.15127(11) 0.67467(12) 0.81815(10)
C5 C 0.08971(11) 0.75412(13) 0.71627(11)
H3 H 0.1229 0.7680 0.6623
C6 C -0.01846(12) 0.81232(13) 0.69361(12)
H4 H -0.0575 0.8661 0.6265
C7 C 0.26911(11) 0.61450(12) 0.84641(11)
C8 C 0.32539(11) 0.63288(12) 0.76555(11)
H5 H 0.2916 0.6909 0.7009
C9 C 0.42593(11) 0.56723(12) 0.78261(11)
H6 H 0.4540 0.5069 0.8457
C10 C 0.49485(11) 0.58020(12) 0.71384(10)
C11 C 0.59622(11) 0.50186(13) 0.74245(11)
H7 H 0.6154 0.4394 0.8033
C12 C 0.66871(11) 0.51353(13) 0.68413(11)
H8 H 0.7352 0.4593 0.7061
C13 C 0.64320(11) 0.60679(12) 0.59146(11)
C14 C 0.54124(11) 0.68732(13) 0.56227(11)
H9 H 0.5224 0.7507 0.5023
C15 C 0.46987(11) 0.67317(12) 0.62125(11)
H10 H 0.4029 0.7267 0.5993
C16 C 0.80872(12) 0.52665(14) 0.55171(13)
H11 H 0.8688 0.5331 0.6339
H12 H 0.8440 0.5458 0.4976
H13 H 0.7764 0.4394 0.5367
C17 C 0.68469(13) 0.71661(14) 0.43697(13)
H14 H 0.6086 0.6960 0.3713
H15 H 0.7455 0.7163 0.4083
H16 H 0.6809 0.8018 0.4684
loop_
_geom_bond_atom_site_label_1
_geom_bond_atom_site_label_2
_geom_bond_site_symmetry_1
_geom_bond_site_symmetry_2
F1 C1 1_555 1_555
O1 H1 1_555 1_555
O2 C7 1_555 1_555
N1 C13 1_555 1_555
C1 C2 1_555 1_555
C2 H2 1_555 1_555
C3 O1 1_555 1_555
C4 C3 1_555 1_555
C5 C4 1_555 1_555
H3 C5 1_555 1_555
C6 C1 1_555 1_555
H4 C6 1_555 1_555
C7 C4 1_555 1_555
C8 C7 1_555 1_555
H5 C8 1_555 1_555
C9 C8 1_555 1_555
H6 C9 1_555 1_555
C10 C9 1_555 1_555
C11 C10 1_555 1_555
H7 C11 1_555 1_555
C12 C11 1_555 1_555
H8 C12 1_555 1_555
C13 C12 1_555 1_555
C14 C13 1_555 1_555
H9 C14 1_555 1_555
C15 C10 1_555 1_555
H10 C15 1_555 1_555
C16 N1 1_555 1_555
H11 C16 1_555 1_555
H12 C16 1_555 1_555
H13 C16 1_555 1_555
C17 N1 1_555 1_555
H14 C17 1_555 1_555
H15 C17 1_555 1_555
H16 C17 1_555 1_555
C2 C3 1_555 1_555
C5 C6 1_555 1_555
C14 C15 1_555 1_555

#END
