
#######################################################################
#
#                 Cambridge Crystallographic Data Centre
#                                CCDC 
#
#######################################################################
#
# If this CIF has been generated from an entry in the Cambridge 
# Structural Database, then it will include bibliographic, chemical, 
# crystal, experimental, refinement or atomic coordinate data resulting 
# from the CCDC's data processing and validation procedures.
#
#######################################################################

data_UMIROY
_chemical_formula_moiety         'C51 H62 O10,2(C1 H2 Cl2)'
_chemical_name_systematic        
'4,34-Dibutoxy-9,14,19,24,26,28,30,32-octamethoxyhexacyclo-[21.2.2.2^3,6^.2^8,11^.2^13,16^.2^18,21^]pentatriaconta-1(25),3,5,8,10,13,15,18,20,23,26,28,30,32,34-pentadecaene dichloromethane solvate'
_symmetry_cell_setting           monoclinic
_symmetry_space_group_name_H-M   'C 2/c'
_symmetry_Int_Tables_number      15
_space_group_name_Hall           '-C 2yn'
loop_
_symmetry_equiv_pos_site_id
_symmetry_equiv_pos_as_xyz
1 x,y,z
2 -x,y,1/2-z
3 1/2+x,1/2+y,z
4 1/2-x,1/2+y,1/2-z
5 -x,-y,-z
6 x,-y,1/2+z
7 1/2-x,1/2-y,-z
8 1/2+x,1/2-y,1/2+z
_cell_length_a                   11.311(2)
_cell_length_b                   21.467(4)
_cell_length_c                   21.439(4)
_cell_angle_alpha                90
_cell_angle_beta                 103.77(3)
_cell_angle_gamma                90
_cell_volume                     5056.06
_exptl_crystal_colour            colorless
_exptl_crystal_description       block
_chemical_melting_point          147.5-148.4deg.C
_cell_formula_units_Z            4
loop_
_atom_site_label
_atom_site_type_symbol
_atom_site_fract_x
_atom_site_fract_y
_atom_site_fract_z
Cl1 Cl 0.31267(8) 0.37882(5) 0.21702(4)
Cl2 Cl 0.05459(8) 0.34845(4) 0.17554(4)
C27 C 0.1736(3) 0.3691(2) 0.24044(17)
H32 H 0.1836 0.3370 0.2731
H33 H 0.1532 0.4077 0.2590
O1 O 0.61306(16) 0.48106(9) 0.14084(9)
O2 O 1.09417(16) 0.54081(9) 0.15132(9)
O3 O 0.62532(16) 0.24243(8) 0.15592(8)
O4 O 0.88889(16) 0.36698(8) 0.00669(8)
O5 O 1.06651(16) 0.18202(9) 0.13361(8)
C1 C 1.0000 0.58717(16) 0.2500
H1 H 1.0488 0.6144 0.2317
C2 C 0.9235(2) 0.54817(11) 0.19612(11)
C3 C 0.8022(2) 0.53360(11) 0.19453(12)
H2 H 0.7674 0.5482 0.2269
C4 C 0.7329(2) 0.49744(11) 0.14508(12)
C5 C 0.7827(2) 0.47544(11) 0.09557(11)
C6 C 0.9036(2) 0.49012(11) 0.09714(11)
H3 H 0.9380 0.4760 0.0644
C7 C 0.9735(2) 0.52552(11) 0.14671(12)
C8 C 0.7078(2) 0.43478(11) 0.04271(11)
H4 H 0.7303 0.4432 0.0026
H5 H 0.6220 0.4444 0.0369
C9 C 0.7300(2) 0.36648(11) 0.06039(11)
C10 C 0.6613(2) 0.33591(12) 0.09710(11)
H6 H 0.5964 0.3565 0.1077
C11 C 0.6884(2) 0.27486(12) 0.11822(11)
C12 C 0.7852(2) 0.24282(11) 0.10229(11)
C13 C 0.8523(2) 0.27328(11) 0.06453(11)
H7 H 0.9159 0.2525 0.0529
C14 C 0.8254(2) 0.33432(11) 0.04395(11)
C15 C 0.8186(2) 0.17747(11) 0.12690(11)
H8 H 0.8511 0.1546 0.0957
H9 H 0.7461 0.1560 0.1322
C16 C 0.8770(2) 0.17996(11) 0.24859(12)
H10 H 0.7946 0.1801 0.2480
C17 C 0.9126(2) 0.17888(10) 0.19083(11)
C18 C 1.0374(2) 0.18078(11) 0.19278(11)
C19 C 1.1914(2) 0.18676(13) 0.13201(12)
H11 H 1.2382 0.1539 0.1577
H12 H 1.2242 0.2266 0.1493
C20 C 1.1989(2) 0.18066(13) 0.06240(13)
H13 H 1.2838 0.1787 0.0608
H14 H 1.1638 0.2175 0.0390
C21 C 1.1331(3) 0.12321(14) 0.02921(13)
H15 H 1.0461 0.1307 0.0194
H16 H 1.1502 0.0882 0.0586
C22 C 1.1700(3) 0.10605(15) -0.03274(13)
H17 H 1.1261 0.0696 -0.0512
H18 H 1.2558 0.0977 -0.0233
H19 H 1.1513 0.1400 -0.0626
C23 C 0.5503(3) 0.51293(17) 0.18005(19)
H20 H 0.4686 0.4973 0.1725
H21 H 0.5484 0.5566 0.1702
H22 H 0.5910 0.5067 0.2243
C24 C 1.1519(2) 0.51330(13) 0.10598(12)
H23 H 1.2347 0.5273 0.1141
H24 H 1.1095 0.5253 0.0634
H25 H 1.1503 0.4688 0.1099
C25 C 0.5104(2) 0.26696(13) 0.16039(14)
H26 H 0.4759 0.2407 0.1877
H27 H 0.4567 0.2685 0.1184
H28 H 0.5214 0.3082 0.1782
C26 C 0.9917(2) 0.33753(13) -0.00804(12)
H29 H 1.0271 0.3649 -0.0340
H30 H 0.9665 0.2996 -0.0311
H31 H 1.0507 0.3283 0.0311
O1A O 1.38694(16) 0.48106(9) 0.35916(9)
O2A O 0.90583(16) 0.54081(9) 0.34868(9)
O3A O 1.37468(16) 0.24243(8) 0.34408(8)
O4A O 1.11111(16) 0.36698(8) 0.49331(8)
O5A O 0.93349(16) 0.18202(9) 0.36639(8)
H1A H 0.9512 0.6144 0.2683
C2A C 1.0765(2) 0.54817(11) 0.30388(11)
C3A C 1.1978(2) 0.53360(11) 0.30547(12)
H2A H 1.2326 0.5482 0.2731
C4A C 1.2671(2) 0.49744(11) 0.35492(12)
C5A C 1.2173(2) 0.47544(11) 0.40443(11)
C6A C 1.0964(2) 0.49012(11) 0.40286(11)
H3A H 1.0620 0.4760 0.4356
C7A C 1.0265(2) 0.52552(11) 0.35329(12)
C8A C 1.2922(2) 0.43478(11) 0.45729(11)
H4A H 1.2697 0.4432 0.4974
H5A H 1.3780 0.4444 0.4631
C9A C 1.2700(2) 0.36648(11) 0.43961(11)
C10A C 1.3387(2) 0.33591(12) 0.40290(11)
H6A H 1.4036 0.3565 0.3923
C11A C 1.3116(2) 0.27486(12) 0.38178(11)
C12A C 1.2148(2) 0.24282(11) 0.39771(11)
C13A C 1.1477(2) 0.27328(11) 0.43547(11)
H7A H 1.0841 0.2525 0.4471
C14A C 1.1746(2) 0.33432(11) 0.45605(11)
C15A C 1.1814(2) 0.17747(11) 0.37310(11)
H8A H 1.1489 0.1546 0.4043
H9A H 1.2539 0.1560 0.3678
C16A C 1.1230(2) 0.17996(11) 0.25141(12)
H10A H 1.2054 0.1801 0.2520
C17A C 1.0874(2) 0.17888(10) 0.30917(11)
C18A C 0.9626(2) 0.18078(11) 0.30722(11)
C19A C 0.8086(2) 0.18676(13) 0.36799(12)
H11A H 0.7618 0.1539 0.3423
H12A H 0.7758 0.2266 0.3507
C20A C 0.8011(2) 0.18066(13) 0.43760(13)
H13A H 0.7162 0.1787 0.4392
H14A H 0.8362 0.2175 0.4610
C21A C 0.8669(3) 0.12321(14) 0.47079(13)
H15A H 0.9539 0.1307 0.4806
H16A H 0.8498 0.0882 0.4414
C22A C 0.8300(3) 0.10605(15) 0.53274(13)
H17A H 0.8739 0.0696 0.5512
H18A H 0.7442 0.0977 0.5233
H19A H 0.8487 0.1400 0.5626
C23A C 1.4497(3) 0.51293(17) 0.31995(19)
H20A H 1.5314 0.4973 0.3275
H21A H 1.4516 0.5566 0.3298
H22A H 1.4090 0.5067 0.2757
C24A C 0.8481(2) 0.51330(13) 0.39402(12)
H23A H 0.7653 0.5273 0.3859
H24A H 0.8905 0.5253 0.4366
H25A H 0.8497 0.4688 0.3901
C25A C 1.4896(2) 0.26696(13) 0.33961(14)
H26A H 1.5241 0.2407 0.3123
H27A H 1.5433 0.2685 0.3816
H28A H 1.4786 0.3082 0.3218
C26A C 1.0083(2) 0.33753(13) 0.50804(12)
H29A H 0.9729 0.3649 0.5340
H30A H 1.0335 0.2996 0.5311
H31A H 0.9493 0.3283 0.4689
loop_
_geom_bond_atom_site_label_1
_geom_bond_atom_site_label_2
_geom_bond_site_symmetry_1
_geom_bond_site_symmetry_2
Cl1 C27 1_555 1_555
Cl2 C27 1_555 1_555
O1 C4 1_555 1_555
O2 C7 1_555 1_555
O3 C11 1_555 1_555
O4 C14 1_555 1_555
O5 C18 1_555 1_555
C1 H1 1_555 1_555
C2 C1 1_555 1_555
C3 C2 1_555 1_555
H2 C3 1_555 1_555
C4 C3 1_555 1_555
C5 C4 1_555 1_555
C6 C5 1_555 1_555
H3 C6 1_555 1_555
C7 C2 1_555 1_555
C8 C5 1_555 1_555
H4 C8 1_555 1_555
H5 C8 1_555 1_555
C9 C8 1_555 1_555
C10 C9 1_555 1_555
H6 C10 1_555 1_555
C11 C10 1_555 1_555
C12 C11 1_555 1_555
C13 C12 1_555 1_555
H7 C13 1_555 1_555
C14 C9 1_555 1_555
C15 C12 1_555 1_555
H8 C15 1_555 1_555
H9 C15 1_555 1_555
C16 H10 1_555 1_555
C17 C15 1_555 1_555
C18 C17 1_555 1_555
C19 O5 1_555 1_555
H11 C19 1_555 1_555
H12 C19 1_555 1_555
C20 C19 1_555 1_555
H13 C20 1_555 1_555
H14 C20 1_555 1_555
C21 C20 1_555 1_555
H15 C21 1_555 1_555
H16 C21 1_555 1_555
C22 C21 1_555 1_555
H17 C22 1_555 1_555
H18 C22 1_555 1_555
H19 C22 1_555 1_555
C23 O1 1_555 1_555
H20 C23 1_555 1_555
H21 C23 1_555 1_555
H22 C23 1_555 1_555
C24 O2 1_555 1_555
H23 C24 1_555 1_555
H24 C24 1_555 1_555
H25 C24 1_555 1_555
C25 O3 1_555 1_555
H26 C25 1_555 1_555
H27 C25 1_555 1_555
H28 C25 1_555 1_555
C26 O4 1_555 1_555
H29 C26 1_555 1_555
H30 C26 1_555 1_555
H31 C26 1_555 1_555
C27 H32 1_555 1_555
H33 C27 1_555 1_555
O1A C4A 1_555 1_555
O2A C7A 1_555 1_555
O3A C11A 1_555 1_555
O4A C14A 1_555 1_555
O5A C18A 1_555 1_555
H1A C1 1_555 1_555
C2A C1 1_555 1_555
C3A C2A 1_555 1_555
H2A C3A 1_555 1_555
C4A C3A 1_555 1_555
C5A C4A 1_555 1_555
C6A C5A 1_555 1_555
H3A C6A 1_555 1_555
C7A C2A 1_555 1_555
C8A C5A 1_555 1_555
H4A C8A 1_555 1_555
H5A C8A 1_555 1_555
C9A C8A 1_555 1_555
C10A C9A 1_555 1_555
H6A C10A 1_555 1_555
C11A C10A 1_555 1_555
C12A C11A 1_555 1_555
C13A C12A 1_555 1_555
H7A C13A 1_555 1_555
C14A C9A 1_555 1_555
C15A C12A 1_555 1_555
H8A C15A 1_555 1_555
H9A C15A 1_555 1_555
C16A C18 1_555 1_555
H10A C16A 1_555 1_555
C17A C15A 1_555 1_555
C18A C16 1_555 1_555
C19A O5A 1_555 1_555
H11A C19A 1_555 1_555
H12A C19A 1_555 1_555
C20A C19A 1_555 1_555
H13A C20A 1_555 1_555
H14A C20A 1_555 1_555
C21A C20A 1_555 1_555
H15A C21A 1_555 1_555
H16A C21A 1_555 1_555
C22A C21A 1_555 1_555
H17A C22A 1_555 1_555
H18A C22A 1_555 1_555
H19A C22A 1_555 1_555
C23A O1A 1_555 1_555
H20A C23A 1_555 1_555
H21A C23A 1_555 1_555
H22A C23A 1_555 1_555
C24A O2A 1_555 1_555
H23A C24A 1_555 1_555
H24A C24A 1_555 1_555
H25A C24A 1_555 1_555
C25A O3A 1_555 1_555
H26A C25A 1_555 1_555
H27A C25A 1_555 1_555
H28A C25A 1_555 1_555
C26A O4A 1_555 1_555
H29A C26A 1_555 1_555
H30A C26A 1_555 1_555
H31A C26A 1_555 1_555
C6 C7 1_555 1_555
C13 C14 1_555 1_555
C16 C17 1_555 1_555
C6A C7A 1_555 1_555
C13A C14A 1_555 1_555
C16A C17A 1_555 1_555
C17A C18A 1_555 1_555

#END
