
#######################################################################
#
#                 Cambridge Crystallographic Data Centre
#                                CCDC 
#
#######################################################################
#
# If this CIF has been generated from an entry in the Cambridge 
# Structural Database, then it will include bibliographic, chemical, 
# crystal, experimental, refinement or atomic coordinate data resulting 
# from the CCDC's data processing and validation procedures.
#
#######################################################################

data_UMIREP
_chemical_formula_moiety         'C27 H18 Cl2 N2,C1 H4 O1'
_chemical_name_systematic        
'2-(2,4-Dichlorophenyl)-1,4,5-triphenyl-1H-imidazole methanol solvate'
_symmetry_cell_setting           monoclinic
_symmetry_space_group_name_H-M   'P 21/n'
_symmetry_Int_Tables_number      14
_space_group_name_Hall           '-P 2yn'
loop_
_symmetry_equiv_pos_site_id
_symmetry_equiv_pos_as_xyz
1 x,y,z
2 1/2-x,1/2+y,1/2-z
3 -x,-y,-z
4 1/2+x,1/2-y,1/2+z
_cell_length_a                   11.1577(17)
_cell_length_b                   22.382(3)
_cell_length_c                   19.884(3)
_cell_angle_alpha                90
_cell_angle_beta                 97.348(3)
_cell_angle_gamma                90
_cell_volume                     4924.88
_cell_formula_units_Z            8
loop_
_atom_site_label
_atom_site_type_symbol
_atom_site_fract_x
_atom_site_fract_y
_atom_site_fract_z
Cl1 Cl 0.15180(9) 1.03802(4) 0.21682(4)
Cl2 Cl 0.12334(10) 0.82364(4) 0.33260(5)
N1 N 0.00204(19) 0.88511(10) 0.48909(11)
N2 N 0.19593(19) 0.86177(10) 0.49823(11)
C1 C 0.1139(3) 0.98812(13) 0.40359(15)
H1 H 0.1050 1.0071 0.4443
C2 C 0.1260(3) 1.02237(14) 0.34697(16)
H2 H 0.1269 1.0638 0.3499
C3 C 0.1366(3) 0.99480(13) 0.28667(14)
C4 C 0.1364(3) 0.93386(13) 0.28183(14)
H3 H 0.1437 0.9151 0.2408
C5 C 0.1252(2) 0.90080(12) 0.33940(14)
C6 C 0.1147(2) 0.92685(12) 0.40132(13)
C7 C 0.1026(2) 0.89178(12) 0.46212(13)
C8 C 0.0301(2) 0.84876(12) 0.54500(13)
C9 C -0.0631(2) 0.83280(11) 0.58802(13)
C10 C -0.1838(2) 0.83715(13) 0.56243(14)
H4 H -0.2056 0.8490 0.5177
C11 C -0.2724(3) 0.82407(14) 0.60241(16)
H5 H -0.3532 0.8275 0.5844
C12 C -0.2437(3) 0.80614(15) 0.66799(17)
H6 H -0.3041 0.7968 0.6944
C13 C -0.1243(3) 0.80205(14) 0.69446(15)
H7 H -0.1037 0.7901 0.7393
C14 C -0.0343(3) 0.81551(12) 0.65522(14)
H8 H 0.0462 0.8130 0.6740
C15 C 0.1499(2) 0.83315(12) 0.55135(13)
C16 C 0.2252(2) 0.79573(12) 0.60063(13)
C17 C 0.1978(3) 0.73655(13) 0.60762(15)
H9 H 0.1324 0.7199 0.5803
C18 C 0.2661(4) 0.70179(17) 0.65446(18)
H10 H 0.2469 0.6616 0.6586
C19 C 0.3617(4) 0.7255(2) 0.69500(18)
H11 H 0.4069 0.7018 0.7273
C20 C 0.3911(3) 0.7837(2) 0.68834(17)
H12 H 0.4572 0.7998 0.7156
C21 C 0.3232(3) 0.81924(16) 0.64116(16)
H13 H 0.3436 0.8592 0.6367
C22 C 0.3166(2) 0.85851(13) 0.48116(13)
C23 C 0.3832(3) 0.91007(15) 0.48009(15)
H14 H 0.3523 0.9464 0.4927
C24 C 0.4974(3) 0.90698(19) 0.45988(17)
H15 H 0.5433 0.9416 0.4586
C25 C 0.5426(3) 0.8540(2) 0.44202(17)
H16 H 0.6185 0.8526 0.4274
C26 C 0.4775(3) 0.80280(18) 0.44537(16)
H17 H 0.5104 0.7664 0.4346
C27 C 0.3632(3) 0.80459(15) 0.46465(14)
H18 H 0.3184 0.7697 0.4664
Cl3 Cl 0.54992(10) 0.15614(4) 0.79185(4)
Cl4 Cl 0.54289(8) -0.04897(4) 0.65473(4)
N3 N 0.4168(2) 0.08585(10) 0.94262(11)
N4 N 0.61108(19) 0.10739(10) 0.95364(10)
C28 C 0.5132(3) -0.01242(13) 0.84664(14)
H19 H 0.5011 -0.0338 0.8853
C29 C 0.5178(3) -0.04261(14) 0.78691(16)
H20 H 0.5097 -0.0840 0.7853
C30 C 0.5345(2) -0.01108(13) 0.72974(14)
C31 C 0.5459(2) 0.04958(13) 0.73085(14)
H21 H 0.5568 0.0707 0.6918
C32 C 0.5407(2) 0.07888(12) 0.79185(14)
C33 C 0.5261(2) 0.04882(12) 0.85088(13)
C34 C 0.5172(3) 0.08022(12) 0.91539(13)
C35 C 0.5659(2) 0.13328(12) 1.00859(13)
C36 C 0.4452(2) 0.11938(12) 1.00123(12)
C37 C 0.7336(2) 0.10988(14) 0.93876(13)
C38 C 0.7824(3) 0.16365(16) 0.92383(16)
H22 H 0.7374 0.1985 0.9246
C39 C 0.8981(3) 0.16572(19) 0.90776(18)
H23 H 0.9319 0.2022 0.8981
C40 C 0.9634(3) 0.1152(2) 0.90587(18)
H24 H 1.0410 0.1171 0.8936
C41 C 0.9174(3) 0.0617(2) 0.92159(18)
H25 H 0.9639 0.0273 0.9210
C42 C 0.7994(3) 0.05853(16) 0.93877(16)
H26 H 0.7668 0.0222 0.9499
C43 C 0.6454(2) 0.16592(13) 1.06136(14)
C44 C 0.7342(3) 0.13572(17) 1.10286(16)
H27 H 0.7448 0.0949 1.0976
C45 C 0.8077(3) 0.1672(2) 1.15283(18)
H28 H 0.8677 0.1472 1.1809
C46 C 0.7924(4) 0.2272(2) 1.1610(2)
H29 H 0.8415 0.2477 1.1947
C47 C 0.7053(4) 0.25719(18) 1.11984(19)
H30 H 0.6950 0.2980 1.1256
C48 C 0.6324(3) 0.22690(15) 1.06967(16)
H31 H 0.5741 0.2477 1.0412
C49 C 0.3509(3) 0.13329(12) 1.04410(13)
C50 C 0.3734(3) 0.16356(14) 1.10515(15)
H32 H 0.4517 0.1758 1.1207
C51 C 0.2814(3) 0.17578(15) 1.14322(15)
H33 H 0.2987 0.1964 1.1839
C52 C 0.1662(3) 0.15835(15) 1.12257(16)
H34 H 0.1051 0.1668 1.1489
C53 C 0.1411(3) 0.12855(18) 1.06332(17)
H35 H 0.0624 0.1163 1.0487
C54 C 0.2331(3) 0.11623(16) 1.02405(15)
H36 H 0.2145 0.0959 0.9832
O1 O 0.7882(2) 0.94822(17) 0.43318(18)
C55 C 0.7900(4) 0.9743(4) 0.3745(3)
O2 O 0.2097(2) 0.01914(13) 0.88233(15)
C56 C 0.1925(4) 0.0210(2) 0.8100(2)
loop_
_geom_bond_atom_site_label_1
_geom_bond_atom_site_label_2
_geom_bond_site_symmetry_1
_geom_bond_site_symmetry_2
Cl1 C3 1_555 1_555
Cl2 C5 1_555 1_555
N1 C7 1_555 1_555
N2 C7 1_555 1_555
C1 H1 1_555 1_555
C2 C1 1_555 1_555
H2 C2 1_555 1_555
C3 C2 1_555 1_555
C4 C3 1_555 1_555
H3 C4 1_555 1_555
C5 C4 1_555 1_555
C6 C1 1_555 1_555
C7 C6 1_555 1_555
C8 N1 1_555 1_555
C9 C8 1_555 1_555
C10 C9 1_555 1_555
H4 C10 1_555 1_555
C11 C10 1_555 1_555
H5 C11 1_555 1_555
C12 C11 1_555 1_555
H6 C12 1_555 1_555
C13 C12 1_555 1_555
H7 C13 1_555 1_555
C14 C9 1_555 1_555
H8 C14 1_555 1_555
C15 N2 1_555 1_555
C16 C15 1_555 1_555
C17 C16 1_555 1_555
H9 C17 1_555 1_555
C18 C17 1_555 1_555
H10 C18 1_555 1_555
C19 C18 1_555 1_555
H11 C19 1_555 1_555
C20 C19 1_555 1_555
H12 C20 1_555 1_555
C21 C16 1_555 1_555
H13 C21 1_555 1_555
C22 N2 1_555 1_555
C23 C22 1_555 1_555
H14 C23 1_555 1_555
C24 C23 1_555 1_555
H15 C24 1_555 1_555
C25 C24 1_555 1_555
H16 C25 1_555 1_555
C26 C25 1_555 1_555
H17 C26 1_555 1_555
C27 C22 1_555 1_555
H18 C27 1_555 1_555
Cl3 C32 1_555 1_555
Cl4 C30 1_555 1_555
N3 C34 1_555 1_555
N4 C34 1_555 1_555
C28 H19 1_555 1_555
C29 C28 1_555 1_555
H20 C29 1_555 1_555
C30 C29 1_555 1_555
C31 C30 1_555 1_555
H21 C31 1_555 1_555
C32 C31 1_555 1_555
C33 C28 1_555 1_555
C34 C33 1_555 1_555
C35 N4 1_555 1_555
C36 N3 1_555 1_555
C37 N4 1_555 1_555
C38 C37 1_555 1_555
H22 C38 1_555 1_555
C39 C38 1_555 1_555
H23 C39 1_555 1_555
C40 C39 1_555 1_555
H24 C40 1_555 1_555
C41 C40 1_555 1_555
H25 C41 1_555 1_555
C42 C37 1_555 1_555
H26 C42 1_555 1_555
C43 C35 1_555 1_555
C44 C43 1_555 1_555
H27 C44 1_555 1_555
C45 C44 1_555 1_555
H28 C45 1_555 1_555
C46 C45 1_555 1_555
H29 C46 1_555 1_555
C47 C46 1_555 1_555
H30 C47 1_555 1_555
C48 C43 1_555 1_555
H31 C48 1_555 1_555
C49 C36 1_555 1_555
C50 C49 1_555 1_555
H32 C50 1_555 1_555
C51 C50 1_555 1_555
H33 C51 1_555 1_555
C52 C51 1_555 1_555
H34 C52 1_555 1_555
C53 C52 1_555 1_555
H35 C53 1_555 1_555
C54 C49 1_555 1_555
H36 C54 1_555 1_555
O1 C55 1_555 1_555
O2 C56 1_555 1_555
C5 C6 1_555 1_555
C8 C15 1_555 1_555
C13 C14 1_555 1_555
C20 C21 1_555 1_555
C26 C27 1_555 1_555
C32 C33 1_555 1_555
C35 C36 1_555 1_555
C41 C42 1_555 1_555
C47 C48 1_555 1_555
C53 C54 1_555 1_555

#END
