
#######################################################################
#
#                 Cambridge Crystallographic Data Centre
#                                CCDC 
#
#######################################################################
#
# If this CIF has been generated from an entry in the Cambridge 
# Structural Database, then it will include bibliographic, chemical, 
# crystal, experimental, refinement or atomic coordinate data resulting 
# from the CCDC's data processing and validation procedures.
#
#######################################################################

data_UMISOZ
_chemical_formula_moiety         'C23 H17 N3'
_chemical_name_systematic        
2-(1,3-Diphenylprop-2-yn-1-yl)-4-phenyl-2H-1,2,3-triazole
_symmetry_cell_setting           monoclinic
_symmetry_space_group_name_H-M   'P 21/c'
_symmetry_Int_Tables_number      14
_space_group_name_Hall           '-P 2ybc'
loop_
_symmetry_equiv_pos_site_id
_symmetry_equiv_pos_as_xyz
1 x,y,z
2 -x,1/2+y,1/2-z
3 -x,-y,-z
4 x,1/2-y,1/2+z
_cell_length_a                   15.3847(12)
_cell_length_b                   5.6909(4)
_cell_length_c                   40.749(3)
_cell_angle_alpha                90
_cell_angle_beta                 96.166(1)
_cell_angle_gamma                90
_cell_volume                     3547.05
_exptl_crystal_colour            colorless
_cell_formula_units_Z            8
loop_
_atom_site_label
_atom_site_type_symbol
_atom_site_fract_x
_atom_site_fract_y
_atom_site_fract_z
N1 N 0.92272(11) 0.6624(3) 0.06984(4)
N2 N 0.94747(10) 0.5757(3) 0.09965(4)
N3 N 0.95270(12) 0.3422(3) 0.10147(4)
C1 C 0.90920(12) 0.4711(3) 0.05061(5)
C2 C 0.92791(14) 0.2752(3) 0.07063(5)
H1 H 0.9237 0.1200 0.0635
C3 C 0.98134(13) 0.7293(3) 0.12720(4)
H2 H 0.9632 0.8905 0.1214
C4 C 0.94338(13) 0.6656(4) 0.15766(5)
C5 C 0.92049(13) 0.6203(4) 0.18405(5)
C6 C 0.89769(12) 0.5748(3) 0.21662(5)
C7 C 0.91899(15) 0.7385(4) 0.24134(5)
H3 H 0.9461 0.8784 0.2365
C8 C 0.90033(17) 0.6957(4) 0.27306(6)
H4 H 0.9154 0.8064 0.2895
C9 C 0.85960(16) 0.4905(5) 0.28071(6)
H5 H 0.8464 0.4633 0.3021
C10 C 0.83865(16) 0.3268(4) 0.25652(6)
H6 H 0.8115 0.1876 0.2617
C11 C 0.85738(14) 0.3660(4) 0.22461(5)
H7 H 0.8431 0.2531 0.2084
C12 C 1.08082(13) 0.7248(3) 0.13239(4)
C13 C 1.12453(14) 0.5328(3) 0.14727(5)
H8 H 1.0928 0.4052 0.1538
C14 C 1.21457(15) 0.5298(4) 0.15238(5)
H9 H 1.2433 0.4011 0.1626
C15 C 1.26212(15) 0.7165(4) 0.14240(6)
H10 H 1.3229 0.7141 0.1458
C16 C 1.21928(15) 0.9071(4) 0.12733(6)
H11 H 1.2514 1.0333 0.1206
C17 C 1.12896(14) 0.9122(3) 0.12222(5)
H12 H 1.1005 1.0411 0.1120
C18 C 0.88184(13) 0.4827(3) 0.01512(5)
C19 C 0.90266(15) 0.2978(4) -0.00500(5)
H13 H 0.9332 0.1687 0.0043
C20 C 0.87834(17) 0.3049(5) -0.03847(6)
H14 H 0.8928 0.1805 -0.0517
C21 C 0.83301(17) 0.4935(5) -0.05261(6)
H15 H 0.8166 0.4972 -0.0752
C22 C 0.81216(17) 0.6771(5) -0.03293(5)
H16 H 0.7817 0.8057 -0.0424
C23 C 0.83605(15) 0.6723(4) 0.00067(5)
H17 H 0.8213 0.7972 0.0137
N4 N 0.42919(11) 0.2023(3) 0.07060(4)
N5 N 0.44593(11) 0.1119(3) 0.10069(4)
N6 N 0.43763(12) -0.1202(3) 0.10270(4)
C24 C 0.40651(13) 0.0158(3) 0.05151(5)
C25 C 0.41174(14) -0.1822(3) 0.07186(5)
H18 H 0.3989 -0.3350 0.0648
C26 C 0.48347(13) 0.2591(3) 0.12846(4)
H19 H 0.4692 0.4230 0.1228
C27 C 0.44438(13) 0.2031(4) 0.15880(5)
C28 C 0.41935(13) 0.1695(4) 0.18515(5)
C29 C 0.39373(12) 0.1321(4) 0.21757(5)
C30 C 0.34886(14) 0.3044(4) 0.23291(5)
H20 H 0.3317 0.4412 0.2215
C31 C 0.32951(15) 0.2747(4) 0.26489(5)
H21 H 0.2997 0.3917 0.2750
C32 C 0.35430(15) 0.0719(4) 0.28195(5)
H22 H 0.3411 0.0521 0.3035
C33 C 0.39854(15) -0.1007(4) 0.26697(6)
H23 H 0.4150 -0.2377 0.2784
C34 C 0.41861(14) -0.0719(4) 0.23506(5)
H24 H 0.4489 -0.1890 0.2252
C35 C 0.58252(13) 0.2372(3) 0.13257(4)
C36 C 0.62367(14) 0.0445(4) 0.14820(5)
H25 H 0.5906 -0.0710 0.1572
C37 C 0.71332(15) 0.0233(4) 0.15049(6)
H26 H 0.7403 -0.1073 0.1608
C38 C 0.76313(16) 0.1935(5) 0.13760(6)
H27 H 0.8236 0.1787 0.1393
C39 C 0.72272(17) 0.3865(5) 0.12217(6)
H28 H 0.7561 0.5024 0.1134
C40 C 0.63273(15) 0.4083(4) 0.11967(5)
H29 H 0.6059 0.5388 0.1092
C41 C 0.38409(13) 0.0360(3) 0.01585(5)
C42 C 0.33729(15) -0.1403(4) -0.00194(5)
H30 H 0.3190 -0.2718 0.0090
C43 C 0.31792(17) -0.1215(4) -0.03571(6)
H31 H 0.2872 -0.2413 -0.0474
C44 C 0.34351(18) 0.0723(5) -0.05225(6)
H32 H 0.3302 0.0840 -0.0750
C45 C 0.38926(17) 0.2503(4) -0.03489(5)
H33 H 0.4065 0.3823 -0.0460
C46 C 0.40922(15) 0.2322(4) -0.00127(5)
H34 H 0.4400 0.3527 0.0102
loop_
_geom_bond_atom_site_label_1
_geom_bond_atom_site_label_2
_geom_bond_site_symmetry_1
_geom_bond_site_symmetry_2
N1 N2 1_555 1_555
N2 N3 1_555 1_555
N3 C2 1_555 1_555
N4 N5 1_555 1_555
N5 N6 1_555 1_555
N6 C25 1_555 1_555
C1 N1 1_555 1_555
C2 C1 1_555 1_555
H1 C2 1_555 1_555
C3 N2 1_555 1_555
H2 C3 1_555 1_555
C4 C3 1_555 1_555
C5 C4 1_555 1_555
C6 C5 1_555 1_555
C7 C6 1_555 1_555
H3 C7 1_555 1_555
C8 C7 1_555 1_555
H4 C8 1_555 1_555
C9 C8 1_555 1_555
H5 C9 1_555 1_555
C10 C9 1_555 1_555
H6 C10 1_555 1_555
C11 C6 1_555 1_555
H7 C11 1_555 1_555
C12 C3 1_555 1_555
C13 C12 1_555 1_555
H8 C13 1_555 1_555
C14 C13 1_555 1_555
H9 C14 1_555 1_555
C15 C14 1_555 1_555
H10 C15 1_555 1_555
C16 C15 1_555 1_555
H11 C16 1_555 1_555
C17 C12 1_555 1_555
H12 C17 1_555 1_555
C18 C1 1_555 1_555
C19 C18 1_555 1_555
H13 C19 1_555 1_555
C20 C19 1_555 1_555
H14 C20 1_555 1_555
C21 C20 1_555 1_555
H15 C21 1_555 1_555
C22 C21 1_555 1_555
H16 C22 1_555 1_555
C23 C18 1_555 1_555
H17 C23 1_555 1_555
C24 N4 1_555 1_555
C25 C24 1_555 1_555
H18 C25 1_555 1_555
C26 N5 1_555 1_555
H19 C26 1_555 1_555
C27 C26 1_555 1_555
C28 C27 1_555 1_555
C29 C28 1_555 1_555
C30 C29 1_555 1_555
H20 C30 1_555 1_555
C31 C30 1_555 1_555
H21 C31 1_555 1_555
C32 C31 1_555 1_555
H22 C32 1_555 1_555
C33 C32 1_555 1_555
H23 C33 1_555 1_555
C34 C29 1_555 1_555
H24 C34 1_555 1_555
C35 C26 1_555 1_555
C36 C35 1_555 1_555
H25 C36 1_555 1_555
C37 C36 1_555 1_555
H26 C37 1_555 1_555
C38 C37 1_555 1_555
H27 C38 1_555 1_555
C39 C38 1_555 1_555
H28 C39 1_555 1_555
C40 C35 1_555 1_555
H29 C40 1_555 1_555
C41 C24 1_555 1_555
C42 C41 1_555 1_555
H30 C42 1_555 1_555
C43 C42 1_555 1_555
H31 C43 1_555 1_555
C44 C43 1_555 1_555
H32 C44 1_555 1_555
C45 C44 1_555 1_555
H33 C45 1_555 1_555
C46 C41 1_555 1_555
H34 C46 1_555 1_555
C10 C11 1_555 1_555
C16 C17 1_555 1_555
C22 C23 1_555 1_555
C33 C34 1_555 1_555
C39 C40 1_555 1_555
C45 C46 1_555 1_555

#END
