
#######################################################################
#
#                 Cambridge Crystallographic Data Centre
#                                CCDC 
#
#######################################################################
#
# If this CIF has been generated from an entry in the Cambridge 
# Structural Database, then it will include bibliographic, chemical, 
# crystal, experimental, refinement or atomic coordinate data resulting 
# from the CCDC's data processing and validation procedures.
#
#######################################################################

data_UMIZAT
_chemical_formula_moiety         'C10 H7 F3 N2 O3'
_chemical_name_systematic        
2,2,2-trifluoro-N-(2-(2-nitrovinyl)phenyl)acetamide
_symmetry_cell_setting           monoclinic
_symmetry_space_group_name_H-M   'P 21/c'
_symmetry_Int_Tables_number      14
_space_group_name_Hall           '-P 2ybc'
loop_
_symmetry_equiv_pos_site_id
_symmetry_equiv_pos_as_xyz
1 x,y,z
2 -x,1/2+y,1/2-z
3 -x,-y,-z
4 x,1/2-y,1/2+z
_cell_length_a                   15.609(4)
_cell_length_b                   5.0175(12)
_cell_length_c                   14.758(4)
_cell_angle_alpha                90
_cell_angle_beta                 109.902(5)
_cell_angle_gamma                90
_cell_volume                     1086.79
_exptl_crystal_colour            green
_exptl_crystal_description       prismatic
_cell_formula_units_Z            4
loop_
_atom_site_label
_atom_site_type_symbol
_atom_site_fract_x
_atom_site_fract_y
_atom_site_fract_z
N1 N 0.33100(13) 0.7681(4) 0.18961(13)
N2 N 0.08866(14) 0.0969(4) 0.16006(15)
O1 O 0.35430(16) 1.2064(3) 0.22522(15)
O2 O 0.0373(6) -0.0880(16) 0.1282(7)
O3 O 0.1090(5) 0.1719(13) 0.2457(5)
F1 F 0.4285(8) 0.650(3) 0.3727(10)
F2 F 0.5118(9) 0.974(2) 0.3628(11)
F3 F 0.3887(6) 0.9755(17) 0.4103(7)
C1 C 0.27445(14) 0.7920(4) 0.09104(15)
C2 C 0.29818(17) 0.9683(5) 0.03141(18)
H1 H 0.3509 1.0702 0.0556
C3 C 0.24354(19) 0.9927(5) -0.06391(19)
H2 H 0.2582 1.1160 -0.1034
C4 C 0.16752(18) 0.8353(5) -0.10059(17)
H3 H 0.1311 0.8512 -0.1650
C5 C 0.14539(16) 0.6553(5) -0.04258(16)
H4 H 0.0948 0.5463 -0.0687
C6 C 0.19719(14) 0.6315(4) 0.05510(15)
C7 C 0.16930(15) 0.4535(4) 0.11802(16)
H5 H 0.1963 0.4808 0.1840
C8 C 0.11016(14) 0.2593(4) 0.09098(16)
H6 H 0.0815 0.2261 0.0256
C9 C 0.36670(15) 0.9735(4) 0.24662(17)
C10 C 0.42833(17) 0.9072(5) 0.34849(19)
H7 H 0.3439(16) 0.627(6) 0.2111(17)
O4? O 0.037(3) -0.094(8) 0.145(4)
O5? O 0.1470(6) 0.099(2) 0.2402(7)
F4? F 0.4075(9) 1.049(2) 0.4139(11)
F5? F 0.4530(7) 0.657(3) 0.3603(9)
F6? F 0.5041(9) 1.0536(19) 0.3709(11)
loop_
_geom_bond_atom_site_label_1
_geom_bond_atom_site_label_2
_geom_bond_site_symmetry_1
_geom_bond_site_symmetry_2
N1 C1 1_555 1_555
N2 O2 1_555 1_555
O1 C9 1_555 1_555
O3 N2 1_555 1_555
F1 C10 1_555 1_555
F2 C10 1_555 1_555
F3 C10 1_555 1_555
C1 C2 1_555 1_555
C2 H1 1_555 1_555
C3 C2 1_555 1_555
H2 C3 1_555 1_555
C4 C3 1_555 1_555
H3 C4 1_555 1_555
C5 C4 1_555 1_555
H4 C5 1_555 1_555
C6 C1 1_555 1_555
C7 C6 1_555 1_555
H5 C7 1_555 1_555
C8 N2 1_555 1_555
H6 C8 1_555 1_555
C9 N1 1_555 1_555
C10 C9 1_555 1_555
H7 N1 1_555 1_555
C5 C6 1_555 1_555
C7 C8 1_555 1_555

#END
