
#######################################################################
#
#                 Cambridge Crystallographic Data Centre
#                                CCDC 
#
#######################################################################
#
# If this CIF has been generated from an entry in the Cambridge 
# Structural Database, then it will include bibliographic, chemical, 
# crystal, experimental, refinement or atomic coordinate data resulting 
# from the CCDC's data processing and validation procedures.
#
#######################################################################

data_UMUKET
_chemical_formula_moiety         'C21 H23 Cl1 N2'
_chemical_name_systematic        
2-(Chloromethyl)-1-(4-methylbenzyl)-4-phenylpiperidine-4-carbonitrile
_symmetry_cell_setting           monoclinic
_symmetry_space_group_name_H-M   'P 21/c'
_symmetry_Int_Tables_number      14
_space_group_name_Hall           '-P 2ybc'
loop_
_symmetry_equiv_pos_site_id
_symmetry_equiv_pos_as_xyz
1 x,y,z
2 -x,1/2+y,1/2-z
3 -x,-y,-z
4 x,1/2-y,1/2+z
_cell_length_a                   12.3116(3)
_cell_length_b                   8.7530(2)
_cell_length_c                   17.0047(4)
_cell_angle_alpha                90
_cell_angle_beta                 92.3122(3)
_cell_angle_gamma                90
_cell_volume                     1830.99
_exptl_crystal_colour            colorless
_exptl_crystal_description       pinacoid
_cell_formula_units_Z            4
loop_
_atom_site_label
_atom_site_type_symbol
_atom_site_fract_x
_atom_site_fract_y
_atom_site_fract_z
Cl1 Cl 0.65462(2) 0.67580(2) 0.067410(14)
N1 N 0.75162(5) 0.34271(8) 0.07179(4)
C1 C 0.70237(6) 0.40228(9) 0.14289(4)
H1 H 0.7412 0.3548 0.1896
N2 N 0.66352(7) 0.06044(10) 0.26787(5)
C2 C 0.58266(6) 0.35498(9) 0.14420(4)
H2 H 0.5426 0.4016 0.0986
H3 H 0.5511 0.3951 0.1927
C3 C 0.56732(6) 0.18058(8) 0.14126(4)
C4 C 0.62565(6) 0.12223(9) 0.06836(5)
H4 H 0.6234 0.0092 0.0673
H5 H 0.5872 0.1604 0.0200
C5 C 0.74324(6) 0.17553(9) 0.06967(5)
H6 H 0.7826 0.1323 0.1165
H7 H 0.7783 0.1367 0.0223
C6 C 0.71139(7) 0.57535(9) 0.15148(5)
H8 H 0.7890 0.6036 0.1593
H9 H 0.6733 0.6077 0.1989
C7 C 0.62105(7) 0.11273(9) 0.21287(5)
C8 C 0.86633(6) 0.38844(10) 0.06714(5)
H10 H 0.9085 0.3462 0.1129
H11 H 0.8715 0.5012 0.0697
C9 C 0.91522(6) 0.33310(9) -0.00767(5)
C10 C 0.87261(6) 0.38114(9) -0.08087(5)
H12 H 0.8124 0.4491 -0.0835
C11 C 0.91742(7) 0.33052(10) -0.14990(5)
H13 H 0.8869 0.3637 -0.1992
C12 C 1.00662(7) 0.23160(10) -0.14800(5)
C13 C 1.04934(7) 0.18435(10) -0.07499(6)
H14 H 1.1103 0.1177 -0.0723
C14 C 1.00353(6) 0.23391(10) -0.00566(5)
H15 H 1.0331 0.1993 0.0436
C15 C 1.05261(9) 0.17425(13) -0.22350(6)
H16 H 1.1262 0.1349 -0.2127
H17 H 1.0552 0.2583 -0.2614
H18 H 1.0063 0.0923 -0.2453
C16 C 0.44831(6) 0.12966(9) 0.13869(4)
C17 C 0.42452(6) -0.02696(9) 0.14127(4)
H19 H 0.4821 -0.0990 0.1461
C18 C 0.31740(7) -0.07776(10) 0.13683(5)
H20 H 0.3022 -0.1841 0.1386
C19 C 0.23255(7) 0.02704(11) 0.12980(5)
H21 H 0.1594 -0.0075 0.1262
C20 C 0.25542(7) 0.18235(10) 0.12803(5)
H22 H 0.1976 0.2541 0.1238
C21 C 0.36293(6) 0.23384(9) 0.13249(5)
H23 H 0.3778 0.3403 0.1313
loop_
_geom_bond_atom_site_label_1
_geom_bond_atom_site_label_2
_geom_bond_site_symmetry_1
_geom_bond_site_symmetry_2
Cl1 C6 1_555 1_555
N1 C1 1_555 1_555
C1 H1 1_555 1_555
N2 C7 1_555 1_555
C2 C1 1_555 1_555
H2 C2 1_555 1_555
H3 C2 1_555 1_555
C3 C2 1_555 1_555
C4 C3 1_555 1_555
H4 C4 1_555 1_555
H5 C4 1_555 1_555
C5 N1 1_555 1_555
H6 C5 1_555 1_555
H7 C5 1_555 1_555
C6 C1 1_555 1_555
H8 C6 1_555 1_555
H9 C6 1_555 1_555
C7 C3 1_555 1_555
C8 N1 1_555 1_555
H10 C8 1_555 1_555
H11 C8 1_555 1_555
C9 C8 1_555 1_555
C10 C9 1_555 1_555
H12 C10 1_555 1_555
C11 C10 1_555 1_555
H13 C11 1_555 1_555
C12 C11 1_555 1_555
C13 C12 1_555 1_555
H14 C13 1_555 1_555
C14 C9 1_555 1_555
H15 C14 1_555 1_555
C15 C12 1_555 1_555
H16 C15 1_555 1_555
H17 C15 1_555 1_555
H18 C15 1_555 1_555
C16 C3 1_555 1_555
C17 C16 1_555 1_555
H19 C17 1_555 1_555
C18 C17 1_555 1_555
H20 C18 1_555 1_555
C19 C18 1_555 1_555
H21 C19 1_555 1_555
C20 C19 1_555 1_555
H22 C20 1_555 1_555
C21 C16 1_555 1_555
H23 C21 1_555 1_555
C4 C5 1_555 1_555
C13 C14 1_555 1_555
C20 C21 1_555 1_555

#END
