
#######################################################################
#
#                 Cambridge Crystallographic Data Centre
#                                CCDC 
#
#######################################################################
#
# If this CIF has been generated from an entry in the Cambridge 
# Structural Database, then it will include bibliographic, chemical, 
# crystal, experimental, refinement or atomic coordinate data resulting 
# from the CCDC's data processing and validation procedures.
#
#######################################################################

data_UNATEJ
_chemical_formula_moiety         'C35 H25 N1'
_chemical_name_systematic        1-(4-(Triphenylvinyl)phenyl)isoquinoline
_symmetry_cell_setting           triclinic
_symmetry_space_group_name_H-M   'P -1'
_symmetry_Int_Tables_number      2
_space_group_name_Hall           '-P 1'
loop_
_symmetry_equiv_pos_site_id
_symmetry_equiv_pos_as_xyz
1 x,y,z
2 -x,-y,-z
_cell_length_a                   9.3196(5)
_cell_length_b                   9.3671(5)
_cell_length_c                   14.8298(8)
_cell_angle_alpha                88.746(4)
_cell_angle_beta                 86.170(4)
_cell_angle_gamma                75.274(4)
_cell_volume                     1249.27
_exptl_crystal_colour            colorless
_exptl_crystal_description       bar
_cell_formula_units_Z            2
loop_
_atom_site_label
_atom_site_type_symbol
_atom_site_fract_x
_atom_site_fract_y
_atom_site_fract_z
N1 N 0.2402(5) 0.4586(5) 0.3058(2)
C1 C 0.2487(4) 0.4650(4) 0.6429(3)
C2 C 0.3601(3) 0.3998(3) 0.57812(14)
H1 H 0.4459 0.3293 0.5965
C3 C 0.3481(2) 0.4359(2) 0.48811(13)
H2 H 0.4247 0.3882 0.4453
C4 C 0.2258(2) 0.5410(2) 0.45845(12)
C5 C 0.1139(3) 0.6073(3) 0.52226(14)
H3 H 0.0289 0.6788 0.5038
C6 C 0.1263(4) 0.5691(3) 0.61271(18)
H4 H 0.0488 0.6155 0.6554
C7 C 0.25861(19) 0.43331(17) 0.74140(10)
C8 C 0.21616(19) 0.56405(17) 0.80256(10)
C9 C 0.2744(2) 0.68516(18) 0.78404(11)
H5 H 0.3431 0.6825 0.7334
C10 C 0.2345(2) 0.80847(19) 0.83764(12)
H6 H 0.2762 0.8897 0.8243
C11 C 0.1341(2) 0.81439(19) 0.91069(13)
H7 H 0.1066 0.8996 0.9479
C12 C 0.0734(2) 0.6966(2) 0.92988(12)
H8 H 0.0034 0.7010 0.9800
C13 C 0.1144(2) 0.57193(19) 0.87630(11)
H9 H 0.0726 0.4909 0.8901
C14 C 0.30727(18) 0.29465(17) 0.77348(11)
C15 C 0.34440(19) 0.26464(17) 0.86957(10)
C16 C 0.2844(2) 0.16652(17) 0.92145(11)
H10 H 0.2159 0.1211 0.8964
C17 C 0.3235(2) 0.1339(2) 1.00991(12)
H11 H 0.2813 0.0670 1.0451
C18 C 0.4237(3) 0.1990(2) 1.04639(12)
H12 H 0.4504 0.1768 1.1068
C19 C 0.4846(3) 0.2955(2) 0.99583(14)
H13 H 0.5536 0.3399 1.0211
C20 C 0.4456(2) 0.3281(2) 0.90789(12)
H14 H 0.4886 0.3949 0.8732
C21 C 0.33121(19) 0.16212(17) 0.71486(10)
C22 C 0.4641(2) 0.05393(19) 0.71328(12)
H15 H 0.5394 0.0626 0.7514
C23 C 0.4885(2) -0.0674(2) 0.65640(14)
H16 H 0.5806 -0.1403 0.6549
C24 C 0.3778(2) -0.0811(2) 0.60223(13)
H17 H 0.3944 -0.1626 0.5624
C25 C 0.2437(2) 0.0229(2) 0.60583(13)
H18 H 0.1671 0.0117 0.5696
C26 C 0.2199(2) 0.14296(19) 0.66148(11)
H19 H 0.1265 0.2138 0.6637
C27 C 0.2175(2) 0.5750(2) 0.36048(13)
C28 C 0.1888(2) 0.7236(3) 0.32623(14)
C29 C 0.1777(3) 0.8470(3) 0.38113(18)
H20 H 0.1923 0.8339 0.4439
C30 C 0.1457(4) 0.9865(5) 0.3442(2)
H21 H 0.1366 1.0693 0.3820
C31 C 0.1263(3) 1.0082(3) 0.25177(18)
H22 H 0.1019 1.1053 0.2273
C32 C 0.1425(3) 0.8898(3) 0.19683(19)
H23 H 0.1309 0.9053 0.1339
C33 C 0.1760(7) 0.7449(5) 0.2318(2)
C34 C 0.1958(3) 0.6189(4) 0.17758(16)
H24 H 0.1852 0.6302 0.1144
C35 C 0.2302(6) 0.4799(8) 0.2152(2)
H25 H 0.2475 0.3965 0.1769
C36? C 0.2196(19) 0.493(2) 0.6459(17)
C37? C 0.3311(18) 0.4485(15) 0.5794(9)
C38? C 0.3110(14) 0.5136(13) 0.4935(8)
C39? C 0.1703(12) 0.7155(12) 0.3946(8)
C40? C 0.1931(13) 0.6521(17) 0.3093(10)
C41? C 0.225(4) 0.498(2) 0.306(3)
C42? C 0.236(5) 0.473(6) 0.213(2)
C43? C 0.2273(19) 0.5418(16) 0.1285(12)
C44? C 0.194(2) 0.6927(18) 0.1420(12)
C45? C 0.169(5) 0.747(2) 0.2314(14)
C46? C 0.1434(19) 0.905(2) 0.2432(12)
C47? C 0.123(3) 0.953(3) 0.3325(13)
C48? C 0.1877(13) 0.6252(13) 0.4800(8)
C49? C 0.0735(19) 0.6639(18) 0.5444(9)
C50? C 0.0955(18) 0.6001(16) 0.6273(10)
H26? H 0.4195 0.3757 0.5912
H27? H 0.3828 0.4802 0.4450
H28? H 0.2366 0.4288 0.3538
H29? H 0.2585 0.3694 0.2036
H30? H 0.2412 0.4937 0.0717
H31? H 0.1889 0.7587 0.0921
H32? H 0.1407 0.9714 0.1935
H33? H 0.1000 1.0564 0.3430
H34? H -0.0173 0.7325 0.5319
H35? H 0.0208 0.6317 0.6745
N2? N 0.1324(16) 0.8628(15) 0.4051(11)
loop_
_geom_bond_atom_site_label_1
_geom_bond_atom_site_label_2
_geom_bond_site_symmetry_1
_geom_bond_site_symmetry_2
N1 C27 1_555 1_555
C1 C2 1_555 1_555
C2 H1 1_555 1_555
C3 C2 1_555 1_555
H2 C3 1_555 1_555
C4 C3 1_555 1_555
C5 C4 1_555 1_555
H3 C5 1_555 1_555
C6 C1 1_555 1_555
H4 C6 1_555 1_555
C7 C1 1_555 1_555
C8 C7 1_555 1_555
C9 C8 1_555 1_555
H5 C9 1_555 1_555
C10 C9 1_555 1_555
H6 C10 1_555 1_555
C11 C10 1_555 1_555
H7 C11 1_555 1_555
C12 C11 1_555 1_555
H8 C12 1_555 1_555
C13 C8 1_555 1_555
H9 C13 1_555 1_555
C14 C7 1_555 1_555
C15 C14 1_555 1_555
C16 C15 1_555 1_555
H10 C16 1_555 1_555
C17 C16 1_555 1_555
H11 C17 1_555 1_555
C18 C17 1_555 1_555
H12 C18 1_555 1_555
C19 C18 1_555 1_555
H13 C19 1_555 1_555
C20 C15 1_555 1_555
H14 C20 1_555 1_555
C21 C14 1_555 1_555
C22 C21 1_555 1_555
H15 C22 1_555 1_555
C23 C22 1_555 1_555
H16 C23 1_555 1_555
C24 C23 1_555 1_555
H17 C24 1_555 1_555
C25 C24 1_555 1_555
H18 C25 1_555 1_555
C26 C21 1_555 1_555
H19 C26 1_555 1_555
C27 C4 1_555 1_555
C28 C27 1_555 1_555
C29 C28 1_555 1_555
H20 C29 1_555 1_555
C30 C29 1_555 1_555
H21 C30 1_555 1_555
C31 C30 1_555 1_555
H22 C31 1_555 1_555
C32 C31 1_555 1_555
H23 C32 1_555 1_555
C33 C28 1_555 1_555
C34 C33 1_555 1_555
H24 C34 1_555 1_555
C35 N1 1_555 1_555
H25 C35 1_555 1_555
C5 C6 1_555 1_555
C12 C13 1_555 1_555
C19 C20 1_555 1_555
C25 C26 1_555 1_555
C32 C33 1_555 1_555
C34 C35 1_555 1_555

#END
