
#######################################################################
#
#                 Cambridge Crystallographic Data Centre
#                                CCDC 
#
#######################################################################
#
# If this CIF has been generated from an entry in the Cambridge 
# Structural Database, then it will include bibliographic, chemical, 
# crystal, experimental, refinement or atomic coordinate data resulting 
# from the CCDC's data processing and validation procedures.
#
#######################################################################

data_UNATAF
_chemical_formula_moiety         'C38 H27 N1'
_chemical_name_systematic        9-(4-(Triphenylvinyl)phenyl)-9H-carbazole
_symmetry_cell_setting           triclinic
_symmetry_space_group_name_H-M   'P -1'
_symmetry_Int_Tables_number      2
_space_group_name_Hall           '-P 1'
loop_
_symmetry_equiv_pos_site_id
_symmetry_equiv_pos_as_xyz
1 x,y,z
2 -x,-y,-z
_cell_length_a                   9.4375(8)
_cell_length_b                   9.5683(7)
_cell_length_c                   15.5001(12)
_cell_angle_alpha                83.076(6)
_cell_angle_beta                 81.063(7)
_cell_angle_gamma                85.554(7)
_cell_volume                     1370.13
_exptl_crystal_colour            colorless
_exptl_crystal_description       bar
_cell_formula_units_Z            2
loop_
_atom_site_label
_atom_site_type_symbol
_atom_site_fract_x
_atom_site_fract_y
_atom_site_fract_z
N1 N 0.31528(11) 0.30207(11) 0.60263(7)
C1 C 0.40156(14) 0.28549(12) 0.66837(8)
C2 C 0.54608(15) 0.24109(13) 0.66389(10)
H1 H 0.6009 0.2153 0.6108
C3 C 0.60673(18) 0.23614(15) 0.74033(11)
H2 H 0.7051 0.2058 0.7396
C4 C 0.5265(2) 0.27469(17) 0.81828(11)
H3 H 0.5714 0.2709 0.8694
C5 C 0.3836(2) 0.31809(16) 0.82226(10)
H4 H 0.3298 0.3438 0.8757
C6 C 0.31840(16) 0.32399(13) 0.74682(8)
C7 C 0.17585(15) 0.36498(13) 0.72712(8)
C8 C 0.04687(17) 0.41149(15) 0.77581(9)
H5 H 0.0427 0.4228 0.8362
C9 C -0.07403(18) 0.44070(17) 0.73540(11)
H6 H -0.1618 0.4720 0.7683
C10 C -0.06836(17) 0.42461(17) 0.64648(11)
H7 H -0.1530 0.4447 0.6200
C11 C 0.05757(15) 0.38003(14) 0.59595(9)
H8 H 0.0611 0.3700 0.5354
C12 C 0.17839(14) 0.35067(13) 0.63747(8)
C13 C 0.50868(13) 0.22925(12) 0.24261(8)
C14 C 0.45515(12) 0.24667(12) 0.33683(8)
C15 C 0.43001(16) 0.13161(13) 0.39886(9)
H9 H 0.4468 0.0392 0.3814
C16 C 0.38063(16) 0.14864(13) 0.48639(9)
H10 H 0.3606 0.0687 0.5280
C17 C 0.36083(13) 0.28289(12) 0.51239(8)
C18 C 0.38328(14) 0.39925(12) 0.45085(8)
H11 H 0.3681 0.4914 0.4687
C19 C 0.42791(14) 0.38155(13) 0.36314(8)
H12 H 0.4400 0.4618 0.3208
C20 C 0.64482(13) 0.18394(12) 0.21516(8)
C21 C 0.75594(13) 0.15505(13) 0.27535(8)
C22 C 0.78533(16) 0.25570(16) 0.32711(10)
H13 H 0.7325 0.3444 0.3255
C23 C 0.89076(19) 0.2275(2) 0.38075(12)
H14 H 0.9096 0.2970 0.4157
C24 C 0.96844(18) 0.0999(2) 0.38393(11)
H15 H 1.0402 0.0809 0.4212
C25 C 0.94155(18) -0.00087(18) 0.33253(12)
H16 H 0.9949 -0.0893 0.3345
C26 C 0.83667(15) 0.02687(14) 0.27796(10)
H17 H 0.8199 -0.0422 0.2421
C27 C 0.39823(13) 0.26817(12) 0.18298(8)
C28 C 0.26714(14) 0.20499(14) 0.20054(9)
H18 H 0.2505 0.1341 0.2488
C29 C 0.16082(14) 0.24426(15) 0.14853(9)
H19 H 0.0727 0.1989 0.1606
C30 C 0.18238(15) 0.34905(16) 0.07917(9)
H20 H 0.1095 0.3758 0.0434
C31 C 0.31084(16) 0.41478(16) 0.06207(9)
H21 H 0.3256 0.4880 0.0151
C32 C 0.41845(14) 0.37392(14) 0.11350(8)
H22 H 0.5067 0.4189 0.1009
C33 C 0.69750(13) 0.15518(13) 0.12254(8)
C34 C 0.81080(14) 0.22602(15) 0.07362(9)
H23 H 0.8511 0.2977 0.0979
C35 C 0.86646(16) 0.19384(18) -0.01048(10)
H24 H 0.9440 0.2436 -0.0434
C36 C 0.80908(17) 0.08938(19) -0.04636(10)
H25 H 0.8473 0.0667 -0.1037
C37 C 0.69660(18) 0.01876(18) 0.00147(11)
H26 H 0.6571 -0.0532 -0.0230
C38 C 0.63967(16) 0.05144(15) 0.08545(10)
H27 H 0.5609 0.0026 0.1176
loop_
_geom_bond_atom_site_label_1
_geom_bond_atom_site_label_2
_geom_bond_site_symmetry_1
_geom_bond_site_symmetry_2
N1 C1 1_555 1_555
C1 C2 1_555 1_555
C2 H1 1_555 1_555
C3 C2 1_555 1_555
H2 C3 1_555 1_555
C4 C3 1_555 1_555
H3 C4 1_555 1_555
C5 C4 1_555 1_555
H4 C5 1_555 1_555
C6 C1 1_555 1_555
C7 C6 1_555 1_555
C8 C7 1_555 1_555
H5 C8 1_555 1_555
C9 C8 1_555 1_555
H6 C9 1_555 1_555
C10 C9 1_555 1_555
H7 C10 1_555 1_555
C11 C10 1_555 1_555
H8 C11 1_555 1_555
C12 N1 1_555 1_555
C13 C14 1_555 1_555
C14 C15 1_555 1_555
C15 H9 1_555 1_555
C16 C15 1_555 1_555
H10 C16 1_555 1_555
C17 N1 1_555 1_555
C18 C17 1_555 1_555
H11 C18 1_555 1_555
C19 C14 1_555 1_555
H12 C19 1_555 1_555
C20 C13 1_555 1_555
C21 C20 1_555 1_555
C22 C21 1_555 1_555
H13 C22 1_555 1_555
C23 C22 1_555 1_555
H14 C23 1_555 1_555
C24 C23 1_555 1_555
H15 C24 1_555 1_555
C25 C24 1_555 1_555
H16 C25 1_555 1_555
C26 C21 1_555 1_555
H17 C26 1_555 1_555
C27 C13 1_555 1_555
C28 C27 1_555 1_555
H18 C28 1_555 1_555
C29 C28 1_555 1_555
H19 C29 1_555 1_555
C30 C29 1_555 1_555
H20 C30 1_555 1_555
C31 C30 1_555 1_555
H21 C31 1_555 1_555
C32 C27 1_555 1_555
H22 C32 1_555 1_555
C33 C20 1_555 1_555
C34 C33 1_555 1_555
H23 C34 1_555 1_555
C35 C34 1_555 1_555
H24 C35 1_555 1_555
C36 C35 1_555 1_555
H25 C36 1_555 1_555
C37 C36 1_555 1_555
H26 C37 1_555 1_555
C38 C33 1_555 1_555
H27 C38 1_555 1_555
C5 C6 1_555 1_555
C7 C12 1_555 1_555
C11 C12 1_555 1_555
C16 C17 1_555 1_555
C18 C19 1_555 1_555
C25 C26 1_555 1_555
C31 C32 1_555 1_555
C37 C38 1_555 1_555

#END
