
#######################################################################
#
#                 Cambridge Crystallographic Data Centre
#                                CCDC 
#
#######################################################################
#
# If this CIF has been generated from an entry in the Cambridge 
# Structural Database, then it will include bibliographic, chemical, 
# crystal, experimental, refinement or atomic coordinate data resulting 
# from the CCDC's data processing and validation procedures.
#
#######################################################################

data_UNAWUD
_chemical_formula_moiety         'C7 H4 N2 O6,C2 H3 N3'
_chemical_name_systematic        '3,5-dinitrobenzoic acid 1H-1,2,3-triazole'
_symmetry_cell_setting           monoclinic
_symmetry_space_group_name_H-M   'P 21/c'
_symmetry_Int_Tables_number      14
_space_group_name_Hall           '-P 2ybc'
loop_
_symmetry_equiv_pos_site_id
_symmetry_equiv_pos_as_xyz
1 x,y,z
2 -x,1/2+y,1/2-z
3 -x,-y,-z
4 x,1/2-y,1/2+z
_cell_length_a                   13.019(5)
_cell_length_b                   3.7065(15)
_cell_length_c                   24.381(10)
_cell_angle_alpha                90
_cell_angle_beta                 104.562(6)
_cell_angle_gamma                90
_cell_volume                     1138.71
_exptl_crystal_colour            yellow
_exptl_crystal_description       plates
_cell_formula_units_Z            4
loop_
_atom_site_label
_atom_site_type_symbol
_atom_site_fract_x
_atom_site_fract_y
_atom_site_fract_z
O1 O 0.95458(13) 0.1018(6) 0.11736(8)
O2 O 1.00066(12) -0.2181(6) 0.19301(8)
O3 O 0.46262(11) 0.1972(5) 0.08092(7)
C1 C 0.64339(14) 0.1034(5) 0.12457(7)
O4 O 0.58101(10) 0.3902(4) 0.03641(5)
H1 H 0.5280 0.4551 0.0125
C2 C 0.70344(16) -0.1333(5) 0.21778(7)
N1 N 0.67985(17) -0.2507(5) 0.27110(7)
N2 N 0.93514(14) -0.0532(5) 0.15736(8)
C3 C 0.82565(14) -0.0393(5) 0.16355(8)
C4 C 0.74661(14) 0.0898(5) 0.11894(8)
H2 H 0.7624 0.1663 0.0857
C5 C 0.80631(15) -0.1558(5) 0.21360(8)
H3 H 0.8602 -0.2450 0.2431
C6 C 0.55325(15) 0.2374(5) 0.07735(8)
C7 C 0.62133(15) -0.0082(5) 0.17476(8)
H4 H 0.5525 0.0013 0.1792
O5 O 0.59607(16) -0.1635(7) 0.27990(8)
O6 O 0.74685(18) -0.4260(6) 0.30383(7)
N3 N 0.26519(15) 0.5227(6) 0.03451(9)
H5 H 0.3258 0.4868 0.0274
C8 C 0.25425(17) 0.6554(7) 0.08275(9)
H6 H 0.3074 0.7255 0.1141
C9 C 0.14963(18) 0.6664(7) 0.07643(10)
H7 H 0.1151 0.7474 0.1032
N4 N 0.17467(17) 0.4507(7) -0.00156(8)
N5 N 0.10334(13) 0.5408(5) 0.02496(8)
loop_
_geom_bond_atom_site_label_1
_geom_bond_atom_site_label_2
_geom_bond_site_symmetry_1
_geom_bond_site_symmetry_2
O1 N2 1_555 1_555
O2 N2 1_555 1_555
O3 C6 1_555 1_555
C1 C4 1_555 1_555
O4 H1 1_555 1_555
C2 N1 1_555 1_555
N1 O5 1_555 1_555
N2 C3 1_555 1_555
C3 C4 1_555 1_555
C4 H2 1_555 1_555
C5 C2 1_555 1_555
H3 C5 1_555 1_555
C6 C1 1_555 1_555
C7 C1 1_555 1_555
H4 C7 1_555 1_555
O6 N1 1_555 1_555
N3 H5 1_555 1_555
C8 N3 1_555 1_555
H6 C8 1_555 1_555
C9 C8 1_555 1_555
H7 C9 1_555 1_555
N4 N3 1_555 1_555
N5 C9 1_555 1_555
O4 C6 1_555 1_555
C2 C7 1_555 1_555
C3 C5 1_555 1_555
N4 N5 1_555 1_555

#END
