
#######################################################################
#
#                 Cambridge Crystallographic Data Centre
#                                CCDC 
#
#######################################################################
#
# If this CIF has been generated from an entry in the Cambridge 
# Structural Database, then it will include bibliographic, chemical, 
# crystal, experimental, refinement or atomic coordinate data resulting 
# from the CCDC's data processing and validation procedures.
#
#######################################################################

data_UNEBAS
_chemical_formula_moiety         'C20 H16 B1 N1 O3'
_chemical_name_systematic        
4-methoxy-6-phenyl-6H-12,6-[1,3,2]benzoxazaborolo[2,3-b][1,3,2]benzoxazaborinine
_symmetry_cell_setting           monoclinic
_symmetry_space_group_name_H-M   'C c'
_symmetry_Int_Tables_number      9
_space_group_name_Hall           'C -2yc'
loop_
_symmetry_equiv_pos_site_id
_symmetry_equiv_pos_as_xyz
1 x,y,z
2 x,-y,1/2+z
3 1/2+x,1/2+y,z
4 1/2+x,1/2-y,1/2+z
_cell_length_a                   17.602(4)
_cell_length_b                   12.557(3)
_cell_length_c                   16.504(3)
_cell_angle_alpha                90
_cell_angle_beta                 116.31(3)
_cell_angle_gamma                90
_cell_volume                     3269.97
_exptl_crystal_colour            yellow
_exptl_crystal_description       blocks
_cell_formula_units_Z            8
loop_
_atom_site_label
_atom_site_type_symbol
_atom_site_fract_x
_atom_site_fract_y
_atom_site_fract_z
C1 C 0.8273(2) 0.0082(3) 0.9244(2)
C2 C 0.7390(2) 0.0058(3) 0.8837(3)
H1 H 0.7074 0.0669 0.8786
C3 C 0.7001(3) -0.0919(4) 0.8510(3)
H2 H 0.6412 -0.0947 0.8222
C4 C 0.7449(3) -0.1844(4) 0.8596(3)
H3 H 0.7162 -0.2480 0.8369
C5 C 0.8333(3) -0.1830(3) 0.9022(3)
H4 H 0.8649 -0.2445 0.9087
C6 C 0.8714(2) -0.0861(3) 0.9342(2)
C7 C 1.0204(2) -0.1188(3) 1.0378(3)
H5 H 1.0153 -0.1925 1.0367
C8 C 1.0981(2) -0.0679(3) 1.0998(3)
C9 C 1.1709(2) -0.1286(3) 1.1524(3)
H6 H 1.1721 -0.2014 1.1426
C10 C 1.2396(3) -0.0788(4) 1.2178(3)
H7 H 1.2882 -0.1180 1.2518
C11 C 1.2382(2) 0.0292(4) 1.2345(3)
H8 H 1.2857 0.0611 1.2798
C12 C 1.1671(2) 0.0903(3) 1.1846(3)
C13 C 1.0955(2) 0.0412(3) 1.1154(2)
C14 C 1.2322(3) 0.2508(4) 1.2616(3)
H9 H 1.2186 0.3244 1.2641
H10 H 1.2774 0.2456 1.2441
H11 H 1.2497 0.2189 1.3200
C15 C 0.9888(2) 0.1020(3) 0.9012(2)
C16 C 1.0406(3) 0.0440(4) 0.8740(3)
H12 H 1.0605 -0.0222 0.9000
C17 C 1.0635(3) 0.0823(5) 0.8085(4)
H13 H 1.0980 0.0414 0.7914
C18 C 1.0355(3) 0.1798(5) 0.7694(3)
H14 H 1.0512 0.2057 0.7262
C19 C 0.9842(3) 0.2382(4) 0.7947(3)
H15 H 0.9643 0.3041 0.7681
C20 C 0.9617(3) 0.2001(3) 0.8594(3)
H16 H 0.9270 0.2417 0.8757
N1 N 0.95872(18) -0.0606(2) 0.9845(2)
O1 O 0.87629(16) 0.09502(19) 0.96090(18)
O2 O 1.02571(16) 0.10221(19) 1.07001(17)
O3 O 1.15852(17) 0.1959(2) 1.19627(19)
B1 B 0.9648(3) 0.0654(3) 0.9799(3)
C21 C 0.9092(2) 0.5480(3) 1.0266(3)
C22 C 0.8318(3) 0.5696(3) 1.0261(3)
H17 H 0.8156 0.6391 1.0305
C23 C 0.7792(3) 0.4843(4) 1.0187(3)
H18 H 0.7271 0.4977 1.0184
C24 C 0.8010(3) 0.3807(4) 1.0120(3)
H19 H 0.7640 0.3255 1.0072
C25 C 0.8787(2) 0.3587(3) 1.0122(3)
H20 H 0.8949 0.2891 1.0083
C26 C 0.9303(2) 0.4425(3) 1.0185(2)
C27 C 1.0684(2) 0.3724(3) 1.0390(2)
H21 H 1.0539 0.3007 1.0357
C28 C 1.1538(2) 0.4046(3) 1.0621(3)
C29 C 1.2150(3) 0.3313(3) 1.0650(3)
H22 H 1.1989 0.2626 1.0432
C30 C 1.2984(3) 0.3607(4) 1.1000(3)
H23 H 1.3389 0.3121 1.1017
C31 C 1.3224(3) 0.4631(4) 1.1328(3)
H24 H 1.3793 0.4821 1.1572
C32 C 1.2637(2) 0.5372(3) 1.1301(3)
C33 C 1.1770(2) 0.5090(3) 1.0929(2)
C34 C 1.3673(3) 0.6720(5) 1.1980(4)
H25 H 1.3716 0.7454 1.2160
H26 H 1.3891 0.6637 1.1544
H27 H 1.3995 0.6287 1.2500
C35 C 1.0318(2) 0.5994(3) 0.9227(3)
C36 C 0.9860(3) 0.5422(4) 0.8436(3)
H28 H 0.9561 0.4819 0.8454
C37 C 0.9842(3) 0.5736(5) 0.7614(3)
H29 H 0.9534 0.5340 0.7094
C38 C 1.0274(3) 0.6623(4) 0.7570(3)
H30 H 1.0265 0.6828 0.7025
C39 C 1.0721(3) 0.7205(4) 0.8339(3)
H31 H 1.1008 0.7816 0.8313
C40 C 1.0748(2) 0.6888(3) 0.9152(3)
H32 H 1.1065 0.7287 0.9667
N2 N 1.01228(18) 0.4459(2) 1.0230(2)
O4 O 0.96990(16) 0.62050(19) 1.03749(18)
O5 O 1.12105(16) 0.5828(2) 1.09232(18)
O6 O 1.28069(17) 0.6399(2) 1.1591(2)
B2 B 1.0359(3) 0.5664(3) 1.0187(3)
loop_
_geom_bond_atom_site_label_1
_geom_bond_atom_site_label_2
_geom_bond_site_symmetry_1
_geom_bond_site_symmetry_2
C1 C2 1_555 1_555
C2 H1 1_555 1_555
C3 C2 1_555 1_555
H2 C3 1_555 1_555
C4 C3 1_555 1_555
H3 C4 1_555 1_555
C5 C4 1_555 1_555
H4 C5 1_555 1_555
C6 C1 1_555 1_555
C7 H5 1_555 1_555
C8 C7 1_555 1_555
C9 C8 1_555 1_555
H6 C9 1_555 1_555
C10 C9 1_555 1_555
H7 C10 1_555 1_555
C11 C10 1_555 1_555
H8 C11 1_555 1_555
C12 C11 1_555 1_555
C13 C8 1_555 1_555
C14 H9 1_555 1_555
H10 C14 1_555 1_555
H11 C14 1_555 1_555
C15 C16 1_555 1_555
C16 H12 1_555 1_555
C17 C16 1_555 1_555
H13 C17 1_555 1_555
C18 C17 1_555 1_555
H14 C18 1_555 1_555
C19 C18 1_555 1_555
H15 C19 1_555 1_555
C20 C15 1_555 1_555
H16 C20 1_555 1_555
N1 C6 1_555 1_555
O1 C1 1_555 1_555
O2 C13 1_555 1_555
O3 C12 1_555 1_555
B1 C15 1_555 1_555
C21 C22 1_555 1_555
C22 H17 1_555 1_555
C23 C22 1_555 1_555
H18 C23 1_555 1_555
C24 C23 1_555 1_555
H19 C24 1_555 1_555
C25 C24 1_555 1_555
H20 C25 1_555 1_555
C26 C21 1_555 1_555
C27 H21 1_555 1_555
C28 C27 1_555 1_555
C29 C28 1_555 1_555
H22 C29 1_555 1_555
C30 C29 1_555 1_555
H23 C30 1_555 1_555
C31 C30 1_555 1_555
H24 C31 1_555 1_555
C32 C31 1_555 1_555
C33 C28 1_555 1_555
C34 H25 1_555 1_555
H26 C34 1_555 1_555
H27 C34 1_555 1_555
C35 C36 1_555 1_555
C36 H28 1_555 1_555
C37 C36 1_555 1_555
H29 C37 1_555 1_555
C38 C37 1_555 1_555
H30 C38 1_555 1_555
C39 C38 1_555 1_555
H31 C39 1_555 1_555
C40 C35 1_555 1_555
H32 C40 1_555 1_555
N2 C26 1_555 1_555
O4 C21 1_555 1_555
O5 C33 1_555 1_555
O6 C32 1_555 1_555
B2 C35 1_555 1_555
C5 C6 1_555 1_555
C7 N1 1_555 1_555
C12 C13 1_555 1_555
C14 O3 1_555 1_555
C19 C20 1_555 1_555
N1 B1 1_555 1_555
O1 B1 1_555 1_555
O2 B1 1_555 1_555
C25 C26 1_555 1_555
C27 N2 1_555 1_555
C32 C33 1_555 1_555
C34 O6 1_555 1_555
C39 C40 1_555 1_555
N2 B2 1_555 1_555
O4 B2 1_555 1_555
O5 B2 1_555 1_555

#END
