
#######################################################################
#
#                 Cambridge Crystallographic Data Centre
#                                CCDC 
#
#######################################################################
#
# If this CIF has been generated from an entry in the Cambridge 
# Structural Database, then it will include bibliographic, chemical, 
# crystal, experimental, refinement or atomic coordinate data resulting 
# from the CCDC's data processing and validation procedures.
#
#######################################################################

data_UNEYOC
_chemical_formula_moiety         'C58 H48 N12 O10,4(C1 H1 Cl3),1.5(H2 O1)'
_chemical_name_systematic        
'rac-3,4,14,15,19,20,30,31-Octa-aza-7,11,23,27-tetra-oxa-5,13,21,29-tetra-oxo-1,9,17,25(1,3)-tetrapyridina-6,12,22,28-tetrabenzenacyclodotriacontaphane-2,15,18,31-tetra-ene chloroform solvate sesquihydrate'
_symmetry_cell_setting           triclinic
_symmetry_space_group_name_H-M   'P -1'
_symmetry_Int_Tables_number      2
_space_group_name_Hall           '-P 1'
loop_
_symmetry_equiv_pos_site_id
_symmetry_equiv_pos_as_xyz
1 x,y,z
2 -x,-y,-z
_cell_length_a                   14.445(3)
_cell_length_b                   16.454(3)
_cell_length_c                   16.977(3)
_cell_angle_alpha                67.62(3)
_cell_angle_beta                 73.33(3)
_cell_angle_gamma                86.05(3)
_cell_volume                     3570.62
_exptl_crystal_colour            colorless
_exptl_crystal_description       block
_cell_formula_units_Z            2
_exptl_crystal_recrystallization_method deuterochloroform/deuteromethanol
loop_
_atom_site_label
_atom_site_type_symbol
_atom_site_fract_x
_atom_site_fract_y
_atom_site_fract_z
N1 N 0.4738(3) 0.2405(2) 0.3834(2)
C1 C 0.5260(3) 0.1725(3) 0.3722(3)
C2 C 0.5616(3) 0.1121(3) 0.4381(3)
H1 H 0.5971 0.0659 0.4280
C3 C 0.5443(3) 0.1207(3) 0.5190(3)
C4 C 0.4920(3) 0.1912(3) 0.5311(3)
H2 H 0.4798 0.1995 0.5843
C5 C 0.4586(3) 0.2487(3) 0.4625(3)
C6 C 0.5425(4) 0.1673(3) 0.2852(3)
H3 H 0.5126 0.2062 0.2447
C7 C 0.4030(3) 0.3247(3) 0.4713(3)
H4 H 0.3629 0.3506 0.4352
N2 N 0.2089(7) 0.5823(12) 0.1130(14)
C8 C 0.1392(5) 0.5249(5) 0.1767(6)
C9 C 0.0408(5) 0.5289(5) 0.1817(5)
H5 H -0.0041 0.4855 0.2254
C10 C 0.0133(5) 0.6004(5) 0.1185(5)
C11 C 0.0840(5) 0.6626(5) 0.0543(5)
H6 H 0.0661 0.7111 0.0117
C12 C 0.1808(5) 0.6536(5) 0.0526(5)
C13 C 0.1747(3) 0.4528(3) 0.2420(3)
H7 H 0.2398 0.4405 0.2273
C14 C 0.2598(4) 0.7170(3) -0.0151(3)
H8 H 0.2371 0.7698 -0.0475
O1 O -0.0812(5) 0.6115(5) 0.1119(5)
C15 C -0.1008(19) 0.6181(17) 0.0399(17)
H9 H -0.1688 0.6260 0.0469
H10 H -0.0835 0.5655 0.0284
H11 H -0.0648 0.6677 -0.0091
N4 N 0.1205(3) 0.4064(3) 0.3180(3)
N5 N 0.3519(4) 0.7150(3) -0.0387(3)
N6 N 0.3969(3) 0.6499(3) 0.0137(3)
H22 H 0.3655 0.6150 0.0659
N7 N 0.1625(3) 0.3349(2) 0.3664(2)
H23 H 0.2170 0.3184 0.3415
N8 N 0.3394(3) 0.1284(3) 0.1905(3)
N9 N 0.2502(3) 0.5278(2) 0.3817(2)
N10 N 0.6016(3) 0.1101(3) 0.1825(3)
H24 H 0.5644 0.1431 0.1530
N11 N 0.3555(3) 0.4257(2) 0.5322(3)
H25 H 0.3124 0.4421 0.5039
N12 N 0.5971(3) 0.1103(2) 0.2641(3)
N13 N 0.4096(3) 0.3550(2) 0.5283(3)
C25 C 0.4930(4) 0.6426(3) -0.0199(3)
C26 C 0.1182(3) 0.2903(3) 0.4532(3)
C27 C 0.5437(4) 0.5758(3) 0.0402(3)
C28 C 0.1715(3) 0.2157(3) 0.5019(3)
C29 C 0.5086(3) 0.5357(3) 0.1327(3)
C30 C 0.2196(3) 0.1546(3) 0.4673(3)
C31 C 0.3928(4) 0.5294(3) 0.2684(3)
H26 H 0.4432 0.5432 0.2893
H27 H 0.3816 0.4660 0.2930
C32 C 0.2718(4) 0.1118(3) 0.3419(3)
H28 H 0.2508 0.0501 0.3727
H29 H 0.3385 0.1177 0.3408
C33 C 0.2633(4) 0.1443(3) 0.2491(4)
C34 C 0.3018(3) 0.5723(3) 0.2979(3)
C35 C 0.3374(4) 0.1562(4) 0.1067(4)
C36 C 0.1668(3) 0.5616(3) 0.4143(3)
C37 C 0.4219(4) 0.1413(4) 0.0376(4)
H30 H 0.4022 0.0999 0.0166
H31 H 0.4429 0.1963 -0.0127
C38 C 0.1118(3) 0.5079(3) 0.5077(3)
H32 H 0.0598 0.5416 0.5289
H33 H 0.0833 0.4554 0.5094
C39 C 0.5839(4) 0.0909(3) 0.0215(3)
C40 C 0.2108(3) 0.5497(3) 0.5795(3)
C41 C 0.6621(4) 0.0654(3) 0.0577(3)
C42 C 0.3043(3) 0.5423(3) 0.5885(3)
C43 C 0.6632(4) 0.0591(3) 0.1475(3)
C44 C 0.3706(3) 0.4698(3) 0.5810(3)
C45 C 0.1730(4) 0.2076(3) 0.5855(3)
H34 H 0.1397 0.2469 0.6098
C46 C 0.2232(4) 0.1423(4) 0.6338(4)
H35 H 0.2243 0.1380 0.6898
C47 C 0.2712(4) 0.0839(4) 0.5981(4)
H36 H 0.3053 0.0401 0.6302
C48 C 0.2700(4) 0.0886(3) 0.5160(4)
H37 H 0.3025 0.0482 0.4930
C49 C 0.6345(4) 0.5543(4) -0.0003(4)
H38 H 0.6597 0.5817 -0.0615
C50 C 0.6887(4) 0.4937(5) 0.0471(4)
H39 H 0.7494 0.4806 0.0181
C51 C 0.6523(4) 0.4531(4) 0.1373(4)
H40 H 0.6880 0.4114 0.1696
C52 C 0.5630(4) 0.4736(4) 0.1804(4)
H41 H 0.5389 0.4457 0.2417
C53 C 0.2608(5) 0.1995(6) 0.0781(5)
H42 H 0.2618 0.2177 0.0189
C54 C 0.1832(5) 0.2153(6) 0.1385(5)
H43 H 0.1311 0.2452 0.1208
C55 C 0.1839(5) 0.1856(5) 0.2267(5)
H44 H 0.1315 0.1936 0.2696
C56 C 0.2735(4) 0.6514(3) 0.2446(3)
H45 H 0.3117 0.6814 0.1870
C57 C 0.1881(4) 0.6847(4) 0.2782(4)
H46 H 0.1672 0.7372 0.2433
C58 C 0.1340(4) 0.6395(4) 0.3640(4)
H47 H 0.0761 0.6611 0.3879
C59 C 0.5515(4) 0.0610(3) 0.6682(3)
H48 H 0.5795 0.0134 0.7067
H49 H 0.4823 0.0557 0.6914
H50 H 0.5745 0.1160 0.6646
C60 C 0.5921(5) 0.0970(4) -0.0642(4)
H51 H 0.5405 0.1141 -0.0885
C61 C 0.6802(6) 0.0767(5) -0.1133(4)
H52 H 0.6868 0.0817 -0.1710
C62 C 0.7562(6) 0.0500(5) -0.0786(4)
H53 H 0.8135 0.0352 -0.1115
C63 C 0.7465(4) 0.0454(4) 0.0062(4)
H54 H 0.7988 0.0283 0.0297
C64 C 0.1548(4) 0.6189(3) 0.5905(3)
H55 H 0.0928 0.6237 0.5837
C65 C 0.1923(4) 0.6801(4) 0.6114(4)
H56 H 0.1551 0.7265 0.6187
C66 C 0.2842(4) 0.6738(4) 0.6216(4)
H57 H 0.3089 0.7155 0.6358
C67 C 0.3388(4) 0.6052(3) 0.6104(3)
H58 H 0.4006 0.6007 0.6178
O3 O 0.5372(3) 0.6888(3) -0.0961(2)
O4 O 0.0416(2) 0.3125(2) 0.4924(2)
O5 O 0.2123(2) 0.1629(2) 0.3863(2)
O6 O 0.4226(2) 0.5609(2) 0.1734(2)
O7 O 0.1743(2) 0.4831(2) 0.56494(19)
O8 O 0.4996(3) 0.1077(2) 0.0747(2)
O9 O 0.7189(3) 0.0121(3) 0.1858(3)
O10 O 0.4352(3) 0.4522(2) 0.6169(2)
O11 O 0.5786(2) 0.0578(2) 0.5814(2)
C68 C 0.4207(6) 0.2665(4) 0.7513(5)
H59 H 0.4030 0.3016 0.6969
Cl1 Cl 0.54880(18) 0.26186(14) 0.7246(2)
Cl2 Cl 0.3814(2) 0.31847(13) 0.82708(14)
Cl3 Cl 0.36670(16) 0.16182(11) 0.79358(13)
C69 C 0.9045(5) 0.1406(5) 0.5943(4)
H60 H 0.9337 0.2003 0.5696
Cl4 Cl 0.9284(2) 0.0863(3) 0.69391(17)
Cl5 Cl 0.78118(16) 0.14935(17) 0.61283(18)
Cl6 Cl 0.95392(19) 0.09229(19) 0.51868(17)
C71 C 0.8836(11) 0.8348(12) 0.1493(12)
H62 H 0.8375 0.8752 0.1677
Cl10 Cl 0.9939(4) 0.8659(5) 0.1467(5)
Cl11 Cl 0.8562(7) 0.7300(4) 0.2365(3)
Cl12 Cl 0.8716(2) 0.8387(3) 0.0516(2)
C72 C 0.8403(13) 0.1423(12) 0.2340(11)
H63 H 0.7814 0.1079 0.2464
Cl13 Cl 0.9439(12) 0.1097(11) 0.1577(11)
Cl14 Cl 0.8202(8) 0.2363(8) 0.2074(8)
Cl15 Cl 0.8796(12) 0.1105(8) 0.3329(10)
O12 O 0.3608(2) 0.3256(2) 0.2626(2)
C16? C -0.154(3) 0.554(3) 0.178(3)
H12? H -0.1447 0.5438 0.2351
H13? H -0.1510 0.4989 0.1701
H14? H -0.2154 0.5783 0.1757
N3? N 0.2159(15) 0.587(2) 0.120(3)
C17? C 0.1468(10) 0.5418(9) 0.1947(12)
C18? C 0.0561(8) 0.5749(7) 0.2177(8)
H15? H 0.0098 0.5417 0.2694
C19? C 0.0341(8) 0.6567(8) 0.1644(8)
C20? C 0.1047(8) 0.7054(8) 0.0887(8)
H16? H 0.0928 0.7604 0.0505
C21? C 0.1937(9) 0.6687(9) 0.0720(8)
C22? C 0.1747(3) 0.4528(3) 0.2420(3)
H17? H 0.2315 0.4307 0.2166
C23? C 0.2598(4) 0.7170(3) -0.0151(3)
H18? H 0.2316 0.7533 -0.0584
O2? O -0.0478(8) 0.6975(7) 0.1761(9)
C24? C -0.1184(15) 0.6521(15) 0.2492(14)
H19? H -0.1755 0.6856 0.2519
H20? H -0.0976 0.6412 0.3010
H21? H -0.1325 0.5971 0.2467
C70? C 0.0393(17) 0.541(3) 0.9215(18)
H61? H 0.0720 0.5758 0.9425
Cl7? Cl 0.1177(7) 0.5206(11) 0.8339(6)
Cl8? Cl -0.0611(13) 0.5841(12) 0.9051(13)
Cl9? Cl -0.0149(13) 0.4362(10) 1.0127(10)
O13? O 1.0011(8) 0.0284(6) -0.0202(6)
C73? C 0.8642(10) 0.1182(9) 0.2388(8)
Cl16? Cl 0.9369(6) 0.1134(4) 0.1446(6)
Cl17? Cl 0.8351(14) 0.2435(11) 0.1959(11)
Cl18? Cl 0.9054(10) 0.0869(9) 0.3267(9)
H64? H 0.8045 0.0834 0.2548
loop_
_geom_bond_atom_site_label_1
_geom_bond_atom_site_label_2
_geom_bond_site_symmetry_1
_geom_bond_site_symmetry_2
N1 C1 1_555 1_555
C1 C2 1_555 1_555
C2 H1 1_555 1_555
C3 C2 1_555 1_555
C4 C3 1_555 1_555
H2 C4 1_555 1_555
C5 N1 1_555 1_555
C6 C1 1_555 1_555
H3 C6 1_555 1_555
C7 C5 1_555 1_555
H4 C7 1_555 1_555
N2 C8 1_555 1_555
C8 C9 1_555 1_555
C9 H5 1_555 1_555
C10 C9 1_555 1_555
C11 C10 1_555 1_555
H6 C11 1_555 1_555
C12 N2 1_555 1_555
C13 C8 1_555 1_555
H7 C13 1_555 1_555
C14 C12 1_555 1_555
H8 C14 1_555 1_555
O1 C10 1_555 1_555
C15 O1 1_555 1_555
H9 C15 1_555 1_555
H10 C15 1_555 1_555
H11 C15 1_555 1_555
N4 C13 1_555 1_555
N5 C14 1_555 1_555
N6 N5 1_555 1_555
H22 N6 1_555 1_555
N7 N4 1_555 1_555
H23 N7 1_555 1_555
N8 C33 1_555 1_555
N9 C34 1_555 1_555
N10 H24 1_555 1_555
N11 H25 1_555 1_555
N12 C6 1_555 1_555
N13 C7 1_555 1_555
C25 N6 1_555 1_555
C26 N7 1_555 1_555
C27 C25 1_555 1_555
C28 C26 1_555 1_555
C29 C27 1_555 1_555
C30 C28 1_555 1_555
C31 H26 1_555 1_555
H27 C31 1_555 1_555
C32 H28 1_555 1_555
H29 C32 1_555 1_555
C33 C32 1_555 1_555
C34 C31 1_555 1_555
C35 N8 1_555 1_555
C36 N9 1_555 1_555
C37 C35 1_555 1_555
H30 C37 1_555 1_555
H31 C37 1_555 1_555
C38 C36 1_555 1_555
H32 C38 1_555 1_555
H33 C38 1_555 1_555
C39 C41 1_555 1_555
C40 C42 1_555 1_555
C41 C43 1_555 1_555
C42 C44 1_555 1_555
C43 N10 1_555 1_555
C44 N11 1_555 1_555
C45 C28 1_555 1_555
H34 C45 1_555 1_555
C46 C45 1_555 1_555
H35 C46 1_555 1_555
C47 C46 1_555 1_555
H36 C47 1_555 1_555
C48 C30 1_555 1_555
H37 C48 1_555 1_555
C49 C27 1_555 1_555
H38 C49 1_555 1_555
C50 C49 1_555 1_555
H39 C50 1_555 1_555
C51 C50 1_555 1_555
H40 C51 1_555 1_555
C52 C29 1_555 1_555
H41 C52 1_555 1_555
C53 C35 1_555 1_555
H42 C53 1_555 1_555
C54 C53 1_555 1_555
H43 C54 1_555 1_555
C55 C33 1_555 1_555
H44 C55 1_555 1_555
C56 C34 1_555 1_555
H45 C56 1_555 1_555
C57 C56 1_555 1_555
H46 C57 1_555 1_555
C58 C36 1_555 1_555
H47 C58 1_555 1_555
C59 H48 1_555 1_555
H49 C59 1_555 1_555
H50 C59 1_555 1_555
C60 C39 1_555 1_555
H51 C60 1_555 1_555
C61 C60 1_555 1_555
H52 C61 1_555 1_555
C62 C61 1_555 1_555
H53 C62 1_555 1_555
C63 C41 1_555 1_555
H54 C63 1_555 1_555
C64 C40 1_555 1_555
H55 C64 1_555 1_555
C65 C64 1_555 1_555
H56 C65 1_555 1_555
C66 C65 1_555 1_555
H57 C66 1_555 1_555
C67 C42 1_555 1_555
H58 C67 1_555 1_555
O3 C25 1_555 1_555
O4 C26 1_555 1_555
O5 C30 1_555 1_555
O6 C29 1_555 1_555
O7 C38 1_555 1_555
O8 C37 1_555 1_555
O9 C43 1_555 1_555
O10 C44 1_555 1_555
O11 C3 1_555 1_555
C68 H59 1_555 1_555
Cl1 C68 1_555 1_555
Cl2 C68 1_555 1_555
Cl3 C68 1_555 1_555
C69 H60 1_555 1_555
Cl4 C69 1_555 1_555
Cl5 C69 1_555 1_555
Cl6 C69 1_555 1_555
C71 H62 1_555 1_555
Cl10 C71 1_555 1_555
Cl11 C71 1_555 1_555
Cl12 C71 1_555 1_555
C72 H63 1_555 1_555
Cl13 C72 1_555 1_555
Cl14 C72 1_555 1_555
Cl15 C72 1_555 1_555
C4 C5 1_555 1_555
C11 C12 1_555 1_555
N10 N12 1_555 1_555
N11 N13 1_555 1_555
C31 O6 1_555 1_555
C32 O5 1_555 1_555
C39 O8 1_555 1_555
C40 O7 1_555 1_555
C47 C48 1_555 1_555
C51 C52 1_555 1_555
C54 C55 1_555 1_555
C57 C58 1_555 1_555
C59 O11 1_555 1_555
C62 C63 1_555 1_555
C66 C67 1_555 1_555

#END
