
#######################################################################
#
#                 Cambridge Crystallographic Data Centre
#                                CCDC 
#
#######################################################################
#
# If this CIF has been generated from an entry in the Cambridge 
# Structural Database, then it will include bibliographic, chemical, 
# crystal, experimental, refinement or atomic coordinate data resulting 
# from the CCDC's data processing and validation procedures.
#
#######################################################################

data_UNIHIJ
_chemical_formula_moiety         'C42 H52 N2 Si2'
_chemical_name_systematic        
6,13-bis((Tri-isopropylsilyl)ethynyl)pyrido[3',2':6,7]naphtho[2,3-g]quinoline
_symmetry_cell_setting           triclinic
_symmetry_space_group_name_H-M   'P -1'
_symmetry_Int_Tables_number      2
_space_group_name_Hall           '-P 1'
loop_
_symmetry_equiv_pos_site_id
_symmetry_equiv_pos_as_xyz
1 x,y,z
2 -x,-y,-z
_cell_length_a                   7.546(3)
_cell_length_b                   7.959(3)
_cell_length_c                   16.748(6)
_cell_angle_alpha                78.581(6)
_cell_angle_beta                 89.392(6)
_cell_angle_gamma                79.341(7)
_cell_volume                     968.586
_cell_formula_units_Z            1
loop_
_atom_site_label
_atom_site_type_symbol
_atom_site_fract_x
_atom_site_fract_y
_atom_site_fract_z
Si1 Si 0.70416(17) 0.76038(19) 0.31927(6)
C1 C 0.8033(6) 1.4760(7) -0.0447(2)
C2 C 0.7480(5) 1.4217(7) 0.0382(2)
N1 N 0.6467(5) 1.5435(7) 0.0778(2)
C3 C 0.7593(6) 1.6493(7) -0.0827(3)
H1 H 0.7964 1.6853 -0.1354
C4 C 0.6072(6) 1.7065(8) 0.0384(4)
H2 H 0.5395 1.7888 0.0644
C5 C 0.6647(6) 1.7637(7) -0.0441(3)
H3 H 0.6348 1.8805 -0.0696
C6 C 0.9383(5) 0.9499(7) 0.0792(2)
C7 C 0.8919(5) 1.1236(7) 0.0398(2)
C8 C 0.7906(5) 1.2515(7) 0.0762(2)
H4 H 0.7505 1.2190 0.1287
C9 C 1.0461(5) 0.8225(7) 0.0429(2)
C10 C 0.8693(5) 0.8920(5) 0.1593(2)
C11 C 1.0941(5) 0.6469(7) 0.0802(2)
H5 H 1.0536 0.6118 0.1324
C12 C 0.8067(5) 0.8450(5) 0.2229(2)
C13 C 0.8044(7) 0.8492(8) 0.4000(2)
H6 H 0.7600 0.9749 0.3828
C14 C 0.7559(10) 0.5224(7) 0.3356(4)
H7 H 0.6770 0.5179 0.2903
C15 C 0.7164(7) 0.8087(7) 0.4827(2)
H8 H 0.7497 0.6864 0.5055
H9 H 0.5876 0.8399 0.4756
H10 H 0.7567 0.8746 0.5188
C16 C 0.9908(8) 0.8404(10) 0.4044(3)
H11 H 1.0218 0.8778 0.4526
H12 H 1.0274 0.9149 0.3572
H13 H 1.0513 0.7223 0.4063
C17 C 0.8977(9) 0.4259(7) 0.3091(4)
H14 H 0.8868 0.3053 0.3226
H15 H 1.0056 0.4411 0.3343
H16 H 0.9033 0.4612 0.2510
C18 C 0.6388(10) 0.4321(7) 0.4010(4)
H17 H 0.6642 0.3086 0.4031
H18 H 0.5135 0.4767 0.3871
H19 H 0.6661 0.4551 0.4532
C19 C 0.3694(7) 0.7902(10) 0.2421(3)
H20 H 0.2507 0.8591 0.2304
H21 H 0.3607 0.6700 0.2609
H22 H 0.4387 0.8014 0.1936
C20 C 0.4613(7) 0.8533(9) 0.3076(3)
H23 H 0.4071 0.8099 0.3592
C21 C 0.4228(8) 1.0522(9) 0.2953(3)
H24 H 0.4868 1.1003 0.2491
H25 H 0.4618 1.0865 0.3431
H26 H 0.2957 1.0949 0.2860
Si1A Si 1.29584(17) 1.23962(19) -0.31927(6)
C1A C 1.1967(6) 0.5240(7) 0.0447(2)
C2A C 1.2520(5) 0.5783(7) -0.0382(2)
N1A N 1.3533(5) 0.4565(7) -0.0778(2)
C3A C 1.2407(6) 0.3507(7) 0.0827(3)
H1A H 1.2036 0.3147 0.1354
C4A C 1.3928(6) 0.2935(8) -0.0384(4)
H2A H 1.4605 0.2112 -0.0644
C5A C 1.3353(6) 0.2363(7) 0.0441(3)
H3A H 1.3652 0.1195 0.0696
C6A C 1.0617(5) 1.0501(7) -0.0792(2)
C7A C 1.1081(5) 0.8764(7) -0.0398(2)
C8A C 1.2094(5) 0.7485(7) -0.0762(2)
H4A H 1.2495 0.7810 -0.1287
C9A C 0.9539(5) 1.1775(7) -0.0429(2)
C10A C 1.1307(5) 1.1080(5) -0.1593(2)
C11A C 0.9059(5) 1.3531(7) -0.0802(2)
H5A H 0.9464 1.3882 -0.1324
C12A C 1.1933(5) 1.1550(5) -0.2229(2)
C13A C 1.1956(7) 1.1508(8) -0.4000(2)
H6A H 1.2400 1.0251 -0.3828
C14A C 1.2441(10) 1.4776(7) -0.3356(4)
H7A H 1.3230 1.4821 -0.2903
C15A C 1.2836(7) 1.1913(7) -0.4827(2)
H8A H 1.2503 1.3136 -0.5055
H9A H 1.4124 1.1601 -0.4756
H10A H 1.2433 1.1254 -0.5188
C16A C 1.0092(8) 1.1596(10) -0.4044(3)
H11A H 0.9782 1.1222 -0.4526
H12A H 0.9726 1.0851 -0.3572
H13A H 0.9487 1.2777 -0.4063
C17A C 1.1023(9) 1.5741(7) -0.3091(4)
H14A H 1.1132 1.6947 -0.3226
H15A H 0.9944 1.5589 -0.3343
H16A H 1.0967 1.5388 -0.2510
C18A C 1.3612(10) 1.5679(7) -0.4010(4)
H17A H 1.3358 1.6914 -0.4031
H18A H 1.4865 1.5233 -0.3871
H19A H 1.3339 1.5449 -0.4532
C19A C 1.6306(7) 1.2098(10) -0.2421(3)
H20A H 1.7493 1.1409 -0.2304
H21A H 1.6393 1.3300 -0.2609
H22A H 1.5613 1.1986 -0.1936
C20A C 1.5387(7) 1.1467(9) -0.3076(3)
H23A H 1.5929 1.1901 -0.3592
C21A C 1.5772(8) 0.9478(9) -0.2953(3)
H24A H 1.5132 0.8997 -0.2491
H25A H 1.5382 0.9135 -0.3431
H26A H 1.7043 0.9051 -0.2860
loop_
_geom_bond_atom_site_label_1
_geom_bond_atom_site_label_2
_geom_bond_site_symmetry_1
_geom_bond_site_symmetry_2
Si1 C12 1_555 1_555
C1 C2 1_555 1_555
C2 N1 1_555 1_555
N1 C4 1_555 1_555
C3 C1 1_555 1_555
H1 C3 1_555 1_555
C4 H2 1_555 1_555
C5 C3 1_555 1_555
H3 C5 1_555 1_555
C6 C7 1_555 1_555
C7 C8 1_555 1_555
C8 C2 1_555 1_555
H4 C8 1_555 1_555
C9 C6 1_555 1_555
C10 C6 1_555 1_555
C11 C9 1_555 1_555
H5 C11 1_555 1_555
C12 C10 1_555 1_555
C13 Si1 1_555 1_555
H6 C13 1_555 1_555
C14 Si1 1_555 1_555
H7 C14 1_555 1_555
C15 C13 1_555 1_555
H8 C15 1_555 1_555
H9 C15 1_555 1_555
H10 C15 1_555 1_555
C16 C13 1_555 1_555
H11 C16 1_555 1_555
H12 C16 1_555 1_555
H13 C16 1_555 1_555
C17 C14 1_555 1_555
H14 C17 1_555 1_555
H15 C17 1_555 1_555
H16 C17 1_555 1_555
C18 C14 1_555 1_555
H17 C18 1_555 1_555
H18 C18 1_555 1_555
H19 C18 1_555 1_555
C19 H20 1_555 1_555
H21 C19 1_555 1_555
H22 C19 1_555 1_555
C20 Si1 1_555 1_555
H23 C20 1_555 1_555
C21 C20 1_555 1_555
H24 C21 1_555 1_555
H25 C21 1_555 1_555
H26 C21 1_555 1_555
Si1A C12A 1_555 1_555
C1A C11 1_555 1_555
C2A C1A 1_555 1_555
N1A C2A 1_555 1_555
C3A C1A 1_555 1_555
H1A C3A 1_555 1_555
C4A N1A 1_555 1_555
H2A C4A 1_555 1_555
C5A C3A 1_555 1_555
H3A C5A 1_555 1_555
C6A C7A 1_555 1_555
C7A C9 1_555 1_555
C8A C2A 1_555 1_555
H4A C8A 1_555 1_555
C9A C7 1_555 1_555
C10A C6A 1_555 1_555
C11A C1 1_555 1_555
H5A C11A 1_555 1_555
C12A C10A 1_555 1_555
C13A Si1A 1_555 1_555
H6A C13A 1_555 1_555
C14A Si1A 1_555 1_555
H7A C14A 1_555 1_555
C15A C13A 1_555 1_555
H8A C15A 1_555 1_555
H9A C15A 1_555 1_555
H10A C15A 1_555 1_555
C16A C13A 1_555 1_555
H11A C16A 1_555 1_555
H12A C16A 1_555 1_555
H13A C16A 1_555 1_555
C17A C14A 1_555 1_555
H14A C17A 1_555 1_555
H15A C17A 1_555 1_555
H16A C17A 1_555 1_555
C18A C14A 1_555 1_555
H17A C18A 1_555 1_555
H18A C18A 1_555 1_555
H19A C18A 1_555 1_555
C19A H20A 1_555 1_555
H21A C19A 1_555 1_555
H22A C19A 1_555 1_555
C20A Si1A 1_555 1_555
H23A C20A 1_555 1_555
C21A C20A 1_555 1_555
H24A C21A 1_555 1_555
H25A C21A 1_555 1_555
H26A C21A 1_555 1_555
C4 C5 1_555 1_555
C19 C20 1_555 1_555
C4A C5A 1_555 1_555
C6A C9A 1_555 1_555
C7A C8A 1_555 1_555
C9A C11A 1_555 1_555
C19A C20A 1_555 1_555

#END
