
#######################################################################
#
#                 Cambridge Crystallographic Data Centre
#                                CCDC 
#
#######################################################################
#
# If this CIF has been generated from an entry in the Cambridge 
# Structural Database, then it will include bibliographic, chemical, 
# crystal, experimental, refinement or atomic coordinate data resulting 
# from the CCDC's data processing and validation procedures.
#
#######################################################################

data_UNIMIO
_chemical_formula_moiety         'C18 H30 N2 O6'
_chemical_name_systematic        
'bis(N-\a-Amido-D-valine methyl ester)-1,1-cyclobutanedicarboxylate'
_symmetry_cell_setting           orthorhombic
_symmetry_space_group_name_H-M   'P 21 21 21'
_symmetry_Int_Tables_number      19
_space_group_name_Hall           'P 2ac 2ab'
loop_
_symmetry_equiv_pos_site_id
_symmetry_equiv_pos_as_xyz
1 x,y,z
2 1/2-x,-y,1/2+z
3 -x,1/2+y,1/2-z
4 1/2+x,1/2-y,-z
_cell_length_a                   9.4918(4)
_cell_length_b                   16.7607(10)
_cell_length_c                   25.9209(17)
_cell_angle_alpha                90
_cell_angle_beta                 90
_cell_angle_gamma                90
_cell_volume                     4123.74
_exptl_crystal_colour            white
_exptl_crystal_description       needle
_cell_formula_units_Z            8
loop_
_atom_site_label
_atom_site_type_symbol
_atom_site_fract_x
_atom_site_fract_y
_atom_site_fract_z
C1 C 0.8762(6) 0.5170(3) -0.07842(16)
H1 H 0.9425 0.5598 -0.0825
H2 H 0.7821 0.5375 -0.0814
H3 H 0.8920 0.4776 -0.1047
C3 C 0.8735(5) 0.6717(3) 0.10005(19)
H7 H 0.9079 0.7214 0.1146
H8 H 0.8197 0.6817 0.0689
O1 O 0.69758(17) 0.49443(11) 0.07692(7)
C5 C 0.8230(2) 0.48895(14) 0.08804(9)
N3 N 0.9030(2) 0.43163(12) 0.06823(8)
H11 H 0.9895 0.4269 0.0776
O4 O 1.08551(18) 0.52481(13) 0.18244(7)
C8 C 0.9621(2) 0.51137(15) 0.17031(9)
N4 N 0.8768(2) 0.46731(13) 0.19952(8)
H12 H 0.7953 0.4543 0.1877
C9 C 0.8944(2) 0.54971(14) 0.12341(9)
C10 C 0.8442(2) 0.37750(15) 0.03091(10)
H13 H 0.7517 0.3616 0.0442
O5 O 0.8942(2) 0.48105(13) -0.02832(8)
C16 C 0.9296(3) 0.30044(16) 0.02439(11)
H20 H 0.8725 0.2646 0.0031
C17 C 0.7971(3) 0.62004(16) 0.13854(12)
H21 H 0.6987 0.6113 0.1303
H22 H 0.8082 0.6373 0.1740
C18 C 0.8185(3) 0.41560(17) -0.02065(11)
O7 O 0.7397(3) 0.38784(14) -0.05226(9)
C19 C 0.8551(3) 0.3611(2) 0.26434(12)
H23 H 0.7522 0.3663 0.2636
C21 C 1.0683(3) 0.31347(18) -0.00452(12)
H24 H 1.0491 0.3362 -0.0378
H25 H 1.1155 0.2633 -0.0088
H26 H 1.1272 0.3491 0.0149
C23 C 0.9884(3) 0.60875(19) 0.09313(13)
H28 H 1.0763 0.6217 0.1103
H29 H 1.0045 0.5935 0.0575
C24 C 0.9509(4) 0.2587(2) 0.07577(14)
H30 H 0.8612 0.2501 0.0919
H31 H 1.0087 0.2913 0.0977
H32 H 0.9964 0.2083 0.0702
C28 C 0.8983(5) 0.3336(3) 0.31778(15)
H39 H 0.8539 0.2835 0.3253
H40 H 0.8697 0.3726 0.3428
H41 H 0.9988 0.3273 0.3190
C31 C 0.8967(5) 0.2988(2) 0.22595(17)
H48 H 0.8542 0.2488 0.2351
H49 H 0.9974 0.2933 0.2258
H50 H 0.8652 0.3145 0.1922
C34 C 0.9178(9) 0.4403(8) 0.2513(8)
H57 H 1.0204 0.4403 0.2558
C35 C 0.8437(6) 0.5013(3) 0.2889(2)
O11 O 0.9325(4) 0.5607(2) 0.29674(14)
O12 O 0.7286(4) 0.4998(2) 0.30649(15)
C36 C 0.8905(8) 0.6275(4) 0.3273(3)
H58 H 0.8478 0.6090 0.3586
H59 H 0.8238 0.6591 0.3083
H60 H 0.9716 0.6593 0.3354
C2 C 1.2978(6) 0.7787(2) 0.0459(2)
H4 H 1.2221 0.8098 0.0318
H5 H 1.3855 0.7965 0.0314
H6 H 1.3000 0.7852 0.0827
N1 N 1.3872(2) 0.52125(12) 0.19185(8)
H9 H 1.3049 0.5284 0.1788
O2 O 1.58094(16) 0.44475(11) 0.19014(7)
O3 O 1.19835(16) 0.44831(10) 0.07848(7)
C4 C 1.3211(2) 0.45881(13) 0.09149(9)
N2 N 1.4027(2) 0.51284(12) 0.06850(8)
H10 H 1.4884 0.5176 0.0789
C6 C 1.3900(2) 0.41007(14) 0.13325(9)
C7 C 1.4631(2) 0.46149(14) 0.17433(9)
C11 C 1.3554(3) 0.56368(16) 0.02722(11)
H14 H 1.2533 0.5570 0.0235
C12 C 1.4339(3) 0.57611(16) 0.23193(11)
H15 H 1.5287 0.5606 0.2431
C13 C 1.4780(3) 0.34035(15) 0.11020(11)
H16 H 1.4988 0.3464 0.0738
H17 H 1.5626 0.3280 0.1296
C14 C 1.2906(3) 0.34634(16) 0.15663(10)
H18 H 1.3069 0.3362 0.1930
H19 H 1.1915 0.3562 0.1499
C15 C 1.4408(3) 0.65872(18) 0.20835(12)
O6 O 1.5583(2) 0.69638(13) 0.22081(9)
C20 C 1.3847(4) 0.64929(19) 0.04132(12)
C22 C 1.3349(3) 0.57360(18) 0.27871(11)
H27 H 1.2401 0.5880 0.2670
O8 O 1.3488(3) 0.68659(15) 0.18256(11)
C25 C 1.4260(4) 0.5423(2) -0.02491(12)
H33 H 1.5284 0.5456 -0.0206
C26 C 1.3555(3) 0.28480(17) 0.12133(14)
H34 H 1.2985 0.2730 0.0912
H35 H 1.3829 0.2361 0.1389
O9 O 1.4963(3) 0.67217(16) 0.05716(12)
O10 O 1.2764(3) 0.69561(14) 0.03346(10)
C27 C 1.3791(4) 0.6328(2) 0.31969(13)
H36 H 1.3159 0.6293 0.3485
H37 H 1.3763 0.6858 0.3057
H38 H 1.4732 0.6208 0.3309
C29 C 1.3883(5) 0.4575(2) -0.03991(15)
H42 H 1.4188 0.4216 -0.0133
H43 H 1.4341 0.4441 -0.0718
H44 H 1.2881 0.4532 -0.0441
C30 C 1.3292(5) 0.4898(2) 0.30068(15)
H45 H 1.2967 0.4535 0.2746
H46 H 1.2656 0.4886 0.3295
H47 H 1.4216 0.4742 0.3119
C32 C 1.3833(6) 0.5980(3) -0.06685(18)
H51 H 1.4206 0.6501 -0.0599
H52 H 1.2824 0.6007 -0.0685
H53 H 1.4195 0.5791 -0.0992
C33 C 1.5715(5) 0.7749(2) 0.19811(19)
H54 H 1.6668 0.7932 0.2016
H55 H 1.5091 0.8112 0.2154
H56 H 1.5472 0.7723 0.1622
C37? C 0.9178(9) 0.4403(8) 0.2513(8)
C38? C 0.9306(10) 0.5088(6) 0.2851(3)
C39? C 0.8250(9) 0.6298(5) 0.3139(3)
H61? H 1.0142 0.4268 0.2449
H62? H 0.7497 0.6644 0.3034
H63? H 0.9117 0.6592 0.3146
H64? H 0.8056 0.6092 0.3477
O13? O 1.0106(6) 0.5180(4) 0.3211(2)
O14? O 0.8375(6) 0.5625(3) 0.2768(2)
loop_
_geom_bond_atom_site_label_1
_geom_bond_atom_site_label_2
_geom_bond_site_symmetry_1
_geom_bond_site_symmetry_2
C1 H1 1_555 1_555
H2 C1 1_555 1_555
H3 C1 1_555 1_555
C2 H4 1_555 1_555
H5 C2 1_555 1_555
H6 C2 1_555 1_555
C3 H7 1_555 1_555
H8 C3 1_555 1_555
O1 C5 1_555 1_555
N1 H9 1_555 1_555
O2 C7 1_555 1_555
O3 C4 1_555 1_555
C4 N2 1_555 1_555
N2 H10 1_555 1_555
C5 N3 1_555 1_555
N3 H11 1_555 1_555
C6 C4 1_555 1_555
C7 N1 1_555 1_555
O4 C8 1_555 1_555
C8 N4 1_555 1_555
N4 H12 1_555 1_555
C9 C5 1_555 1_555
C10 N3 1_555 1_555
H13 C10 1_555 1_555
C11 N2 1_555 1_555
H14 C11 1_555 1_555
C12 N1 1_555 1_555
H15 C12 1_555 1_555
O5 C1 1_555 1_555
C13 C6 1_555 1_555
H16 C13 1_555 1_555
H17 C13 1_555 1_555
C14 C6 1_555 1_555
H18 C14 1_555 1_555
H19 C14 1_555 1_555
C15 C12 1_555 1_555
C16 C10 1_555 1_555
H20 C16 1_555 1_555
C17 C3 1_555 1_555
H21 C17 1_555 1_555
H22 C17 1_555 1_555
O6 C15 1_555 1_555
C18 C10 1_555 1_555
O7 C18 1_555 1_555
C19 H23 1_555 1_555
C20 C11 1_555 1_555
C21 C16 1_555 1_555
H24 C21 1_555 1_555
H25 C21 1_555 1_555
H26 C21 1_555 1_555
C22 C12 1_555 1_555
H27 C22 1_555 1_555
C23 C3 1_555 1_555
H28 C23 1_555 1_555
H29 C23 1_555 1_555
C24 C16 1_555 1_555
H30 C24 1_555 1_555
H31 C24 1_555 1_555
H32 C24 1_555 1_555
O8 C15 1_555 1_555
C25 C11 1_555 1_555
H33 C25 1_555 1_555
C26 C13 1_555 1_555
H34 C26 1_555 1_555
H35 C26 1_555 1_555
O9 C20 1_555 1_555
O10 C2 1_555 1_555
C27 C22 1_555 1_555
H36 C27 1_555 1_555
H37 C27 1_555 1_555
H38 C27 1_555 1_555
C28 C19 1_555 1_555
H39 C28 1_555 1_555
H40 C28 1_555 1_555
H41 C28 1_555 1_555
C29 C25 1_555 1_555
H42 C29 1_555 1_555
H43 C29 1_555 1_555
H44 C29 1_555 1_555
C30 C22 1_555 1_555
H45 C30 1_555 1_555
H46 C30 1_555 1_555
H47 C30 1_555 1_555
C31 C19 1_555 1_555
H48 C31 1_555 1_555
H49 C31 1_555 1_555
H50 C31 1_555 1_555
C32 C25 1_555 1_555
H51 C32 1_555 1_555
H52 C32 1_555 1_555
H53 C32 1_555 1_555
C33 O6 1_555 1_555
H54 C33 1_555 1_555
H55 C33 1_555 1_555
H56 C33 1_555 1_555
C34 N4 1_555 1_555
H57 C34 1_555 1_555
C35 C34 1_555 1_555
O11 C35 1_555 1_555
O12 C35 1_555 1_555
C36 O11 1_555 1_555
H58 C36 1_555 1_555
H59 C36 1_555 1_555
H60 C36 1_555 1_555
C6 C7 1_555 1_555
C8 C9 1_555 1_555
C9 C17 1_555 1_555
C9 C23 1_555 1_555
O5 C18 1_555 1_555
C14 C26 1_555 1_555
C19 C34 1_555 1_555
C20 O10 1_555 1_555

#END
