
#######################################################################
#
#                 Cambridge Crystallographic Data Centre
#                                CCDC 
#
#######################################################################
#
# If this CIF has been generated from an entry in the Cambridge 
# Structural Database, then it will include bibliographic, chemical, 
# crystal, experimental, refinement or atomic coordinate data resulting 
# from the CCDC's data processing and validation procedures.
#
#######################################################################

data_UNOREW
_chemical_name_common            Taxadienedione
_chemical_formula_moiety         'C19 H26 O2'
_chemical_name_systematic        
8,12,15,15-tetramethyltricyclo[9.3.1.0^3,8^]pentadeca-9,11-diene-2,4-dione
_symmetry_cell_setting           monoclinic
_symmetry_space_group_name_H-M   'P 21/c'
_symmetry_Int_Tables_number      14
_space_group_name_Hall           '-P 2ybc'
loop_
_symmetry_equiv_pos_site_id
_symmetry_equiv_pos_as_xyz
1 x,y,z
2 -x,1/2+y,1/2-z
3 -x,-y,-z
4 x,1/2-y,1/2+z
_cell_length_a                   11.7937(7)
_cell_length_b                   9.9736(7)
_cell_length_c                   13.8746(9)
_cell_angle_alpha                90
_cell_angle_beta                 105.263(2)
_cell_angle_gamma                90
_cell_volume                     1574.44
_exptl_crystal_colour            colorless
_exptl_crystal_description       plate
_cell_formula_units_Z            4
_exptl_crystal_recrystallization_method 'Re-crystallisation from solvent:'
loop_
_atom_site_label
_atom_site_type_symbol
_atom_site_fract_x
_atom_site_fract_y
_atom_site_fract_z
O1 O 0.58423(10) 0.91179(12) 0.83047(9)
O2 O 0.45648(10) 0.85617(15) 0.62472(10)
C1 C 0.55752(18) 0.6863(2) 0.56005(16)
H1 H 0.5753 0.7228 0.4993
H2 H 0.4800 0.6416 0.5391
C2 C 0.54929(15) 0.8009(2) 0.62829(13)
C3 C 0.66439(13) 0.85520(16) 0.69537(11)
H3 H 0.7005 0.9107 0.6513
C4 C 0.63490(13) 0.95253(17) 0.77076(12)
C5 C 0.66925(16) 1.09982(18) 0.77104(15)
H4 H 0.6247 1.1494 0.8119
C6 C 0.63852(18) 1.1642(2) 0.66644(17)
H5 H 0.6070 1.2552 0.6714
H6 H 0.5752 1.1110 0.6219
C7 C 0.74247(17) 1.17577(19) 0.61700(16)
H7 H 0.7125 1.1602 0.5443
H8 H 0.7745 1.2680 0.6267
C8 C 0.83978(14) 1.07788(17) 0.65907(13)
C9 C 0.89489(15) 1.0131(2) 0.58462(13)
H9 H 0.8363 0.9577 0.5385
H10 H 0.9608 0.9567 0.6199
H11 H 0.9235 1.0827 0.5470
C10 C 0.6495(2) 0.5824(2) 0.60578(19)
H12 H 0.6220 0.5284 0.6551
H13 H 0.6609 0.5212 0.5529
C11 C 0.76514(18) 0.64868(19) 0.65668(16)
H14 H 0.7936 0.6991 0.6062
H15 H 0.8238 0.5783 0.6845
C12 C 0.75678(15) 0.74527(17) 0.74153(13)
C13 C 0.88114(15) 0.7969(2) 0.78686(13)
H16 H 0.9351 0.7288 0.8171
C14 C 0.92890(15) 0.9179(2) 0.79247(13)
H17 H 1.0109 0.9252 0.8227
C15 C 0.86412(14) 1.04241(18) 0.75519(12)
C16 C 0.80166(17) 1.1141(2) 0.82410(14)
C17 C 0.8350(2) 1.2642(2) 0.8372(2)
H18 H 0.8208 1.3067 0.7715
H19 H 0.9183 1.2727 0.8727
H20 H 0.7870 1.3083 0.8758
C18 C 0.82878(19) 1.0545(3) 0.92962(14)
H21 H 0.9125 1.0661 0.9628
H22 H 0.8094 0.9587 0.9253
H23 H 0.7818 1.1005 0.9682
C19 C 0.71970(19) 0.6654(2) 0.82358(15)
H24 H 0.7254 0.7231 0.8818
H25 H 0.7717 0.5878 0.8431
H26 H 0.6384 0.6345 0.7979
loop_
_geom_bond_atom_site_label_1
_geom_bond_atom_site_label_2
_geom_bond_site_symmetry_1
_geom_bond_site_symmetry_2
O1 C4 1_555 1_555
O2 C2 1_555 1_555
C1 H1 1_555 1_555
H2 C1 1_555 1_555
C2 C1 1_555 1_555
C3 C2 1_555 1_555
H3 C3 1_555 1_555
C4 C3 1_555 1_555
C5 C4 1_555 1_555
H4 C5 1_555 1_555
C6 C5 1_555 1_555
H5 C6 1_555 1_555
H6 C6 1_555 1_555
C7 C6 1_555 1_555
H7 C7 1_555 1_555
H8 C7 1_555 1_555
C8 C7 1_555 1_555
C9 C8 1_555 1_555
H9 C9 1_555 1_555
H10 C9 1_555 1_555
H11 C9 1_555 1_555
C10 C1 1_555 1_555
H12 C10 1_555 1_555
H13 C10 1_555 1_555
C11 C10 1_555 1_555
H14 C11 1_555 1_555
H15 C11 1_555 1_555
C12 C3 1_555 1_555
C13 C12 1_555 1_555
H16 C13 1_555 1_555
C14 C13 1_555 1_555
H17 C14 1_555 1_555
C15 C8 1_555 1_555
C16 C5 1_555 1_555
C17 C16 1_555 1_555
H18 C17 1_555 1_555
H19 C17 1_555 1_555
H20 C17 1_555 1_555
C18 C16 1_555 1_555
H21 C18 1_555 1_555
H22 C18 1_555 1_555
H23 C18 1_555 1_555
C19 C12 1_555 1_555
H24 C19 1_555 1_555
H25 C19 1_555 1_555
H26 C19 1_555 1_555
C11 C12 1_555 1_555
C14 C15 1_555 1_555
C15 C16 1_555 1_555

#END
