
#######################################################################
#
#                 Cambridge Crystallographic Data Centre
#                                CCDC 
#
#######################################################################
#
# If this CIF has been generated from an entry in the Cambridge 
# Structural Database, then it will include bibliographic, chemical, 
# crystal, experimental, refinement or atomic coordinate data resulting 
# from the CCDC's data processing and validation procedures.
#
#######################################################################

data_UNUDIR
_chemical_formula_moiety         'C10 H8 N2 O2,C8 H4 I3 N1 O4,H2 O1'
_chemical_name_systematic        
"5-Amino-2,4,6-triiodoisophthalic acid 4,4'-bipyridine N,N'-dioxide monohydrate"
_symmetry_cell_setting           monoclinic
_symmetry_space_group_name_H-M   'P 21/n'
_symmetry_Int_Tables_number      14
_space_group_name_Hall           '-P 2yn'
loop_
_symmetry_equiv_pos_site_id
_symmetry_equiv_pos_as_xyz
1 x,y,z
2 1/2-x,1/2+y,1/2-z
3 -x,-y,-z
4 1/2+x,1/2-y,1/2+z
_cell_length_a                   7.5000(2)
_cell_length_b                   17.0808(4)
_cell_length_c                   16.523(3)
_cell_angle_alpha                90
_cell_angle_beta                 94.349(2)
_cell_angle_gamma                90
_cell_volume                     2110.6
_exptl_crystal_colour            yellow
_exptl_crystal_description       prism
_cell_formula_units_Z            4
loop_
_atom_site_label
_atom_site_type_symbol
_atom_site_fract_x
_atom_site_fract_y
_atom_site_fract_z
I1 I 0.32943(3) 0.507910(15) 0.632563(14)
I2 I 0.05617(3) 0.779896(16) 0.826265(14)
I3 I 0.05801(3) 0.802046(16) 0.463723(14)
O1 O 0.0967(4) 0.57411(17) 0.81306(15)
O2 O 0.3866(4) 0.60594(16) 0.82653(15)
O3 O 0.1102(4) 0.59971(17) 0.45040(15)
O4 O 0.3967(4) 0.63963(17) 0.46318(15)
N1 N 0.0344(5) 0.8521(2) 0.64989(18)
C1 C 0.2386(5) 0.6091(2) 0.7914(2)
C2 C 0.2034(5) 0.6574(2) 0.7142(2)
C3 C 0.1342(5) 0.7325(2) 0.7169(2)
C4 C 0.0991(5) 0.7782(2) 0.6459(2)
C5 C 0.1361(5) 0.7429(2) 0.5724(2)
C6 C 0.2090(5) 0.6682(2) 0.5683(2)
C7 C 0.2412(5) 0.6246(2) 0.6397(2)
C8 C 0.2487(5) 0.6338(2) 0.4873(2)
H9 H 0.121(7) 0.543(2) 0.852(2)
H10 H 0.130(8) 0.582(3) 0.4044(17)
H13 H -0.016(6) 0.877(2) 0.6082(18)
H14 H -0.008(6) 0.870(3) 0.6942(16)
O5 O 0.3523(4) 0.98110(17) 0.57244(15)
O6 O 0.8488(4) 0.46621(17) 0.67957(15)
N2 N 0.4406(4) 0.9148(2) 0.59092(18)
N3 N 0.8019(4) 0.5409(2) 0.66729(18)
C9 C 0.4693(5) 0.8909(3) 0.6689(2)
H1 H 0.4314 0.9225 0.7116
C10 C 0.5527(6) 0.8211(2) 0.6861(2)
H2 H 0.5746 0.8057 0.7412
C11 C 0.6067(5) 0.7718(2) 0.6253(2)
C12 C 0.5799(5) 0.8009(2) 0.5456(2)
H3 H 0.6200 0.7712 0.5019
C13 C 0.4974(5) 0.8712(2) 0.5301(2)
H4 H 0.4798 0.8894 0.4757
C14 C 0.7350(5) 0.5812(2) 0.7277(2)
H5 H 0.7275 0.5570 0.7791
C15 C 0.6778(5) 0.6564(2) 0.7165(2)
H6 H 0.6333 0.6841 0.7606
C16 C 0.6833(5) 0.6936(2) 0.6412(2)
C17 C 0.7574(5) 0.6498(2) 0.5799(2)
H7 H 0.7661 0.6726 0.5279
C18 C 0.8169(5) 0.5751(2) 0.5935(2)
H8 H 0.8688 0.5469 0.5516
O7 O 0.6478(5) 0.49085(19) 0.91589(18)
H11 H 0.563(5) 0.523(2) 0.907(3)
H12 H 0.694(6) 0.505(3) 0.9614(14)
loop_
_geom_bond_atom_site_label_1
_geom_bond_atom_site_label_2
_geom_bond_site_symmetry_1
_geom_bond_site_symmetry_2
I1 C7 1_555 1_555
I2 C3 1_555 1_555
I3 C5 1_555 1_555
O1 C1 1_555 1_555
O2 C1 1_555 1_555
O3 C8 1_555 1_555
O4 C8 1_555 1_555
O5 N2 1_555 1_555
O6 N3 1_555 1_555
O7 H11 1_555 1_555
N1 C4 1_555 1_555
N2 C9 1_555 1_555
N3 C14 1_555 1_555
C1 C2 1_555 1_555
C2 C3 1_555 1_555
C3 C4 1_555 1_555
C4 C5 1_555 1_555
C5 C6 1_555 1_555
C6 C7 1_555 1_555
C7 C2 1_555 1_555
C8 C6 1_555 1_555
C9 H1 1_555 1_555
C10 C9 1_555 1_555
H2 C10 1_555 1_555
C11 C10 1_555 1_555
C12 C11 1_555 1_555
H3 C12 1_555 1_555
C13 N2 1_555 1_555
H4 C13 1_555 1_555
C14 H5 1_555 1_555
C15 C14 1_555 1_555
H6 C15 1_555 1_555
C16 C11 1_555 1_555
C17 C16 1_555 1_555
H7 C17 1_555 1_555
C18 N3 1_555 1_555
H8 C18 1_555 1_555
H9 O1 1_555 1_555
H10 O3 1_555 1_555
H12 O7 1_555 1_555
H13 N1 1_555 1_555
H14 N1 1_555 1_555
C12 C13 1_555 1_555
C15 C16 1_555 1_555
C17 C18 1_555 1_555

#END
