
#######################################################################
#
#                 Cambridge Crystallographic Data Centre
#                                CCDC 
#
#######################################################################
#
# If this CIF has been generated from an entry in the Cambridge 
# Structural Database, then it will include bibliographic, chemical, 
# crystal, experimental, refinement or atomic coordinate data resulting 
# from the CCDC's data processing and validation procedures.
#
#######################################################################

data_UNUPOJ
_chemical_name_common            
2-Amino-6-(1-naphthyl)-4-phenylnicotinonitrile
_chemical_formula_moiety         'C22 H15 N3'
_chemical_name_systematic        
2-Amino-6-(naphthalen-1-yl)-4-phenylpyridine-3-carbonitrile
_symmetry_cell_setting           monoclinic
_symmetry_space_group_name_H-M   'C 2/c'
_symmetry_Int_Tables_number      15
_space_group_name_Hall           '-C 2yn'
loop_
_symmetry_equiv_pos_site_id
_symmetry_equiv_pos_as_xyz
1 x,y,z
2 -x,y,1/2-z
3 1/2+x,1/2+y,z
4 1/2-x,1/2+y,1/2-z
5 -x,-y,-z
6 x,-y,1/2+z
7 1/2-x,1/2-y,-z
8 1/2+x,1/2-y,1/2+z
_cell_length_a                   11.799(2)
_cell_length_b                   17.284(3)
_cell_length_c                   17.492(4)
_cell_angle_alpha                90
_cell_angle_beta                 98.26(3)
_cell_angle_gamma                90
_cell_volume                     3530.21
_exptl_crystal_colour            colorless
_exptl_crystal_description       block
_chemical_melting_point          '438 K'
_cell_formula_units_Z            8
loop_
_atom_site_label
_atom_site_type_symbol
_atom_site_fract_x
_atom_site_fract_y
_atom_site_fract_z
N1 N 0.3542(2) 0.1427(2) 0.69970(17)
C1 C 0.0883(3) 0.0618(2) 0.4510(2)
H1 H 0.1191 0.0169 0.4749
N2 N 0.4951(2) 0.08860(18) 0.64401(14)
H2 H 0.5373 0.0942 0.6880
H3 H 0.5231 0.0682 0.6060
C2 C 0.0113(4) 0.0532(3) 0.3842(3)
H4 H -0.0090 0.0049 0.3630
N3 N 0.3832(3) 0.0285(2) 0.45458(14)
C3 C -0.0341(4) 0.1219(4) 0.3506(3)
H5 H -0.0854 0.1198 0.3050
C4 C -0.0050(5) 0.1915(4) 0.3830(3)
H6 H -0.0356 0.2367 0.3596
C5 C 0.0720(4) 0.1953(3) 0.4525(3)
H7 H 0.0882 0.2428 0.4765
C6 C 0.1229(3) 0.1301(3) 0.4846(2)
C7 C 0.2017(3) 0.1324(2) 0.55800(18)
C8 C 0.1731(3) 0.1668(2) 0.6244(2)
H8 H 0.1027 0.1917 0.6214
C9 C 0.2443(3) 0.1661(3) 0.6957(2)
C10 C 0.3872(3) 0.1114(2) 0.63484(18)
C11 C 0.3122(3) 0.10289(18) 0.56551(16)
C12 C 0.2128(3) 0.1874(3) 0.7756(3)
C13 C 0.1864(3) 0.2620(3) 0.7827(2)
C14 C 0.1949(4) 0.3212(3) 0.7187(2)
H9 H 0.2117 0.3065 0.6704
C15 C 0.1767(4) 0.3959(3) 0.7358(3)
H10 H 0.1869 0.4339 0.6999
C16 C 0.1480(4) 0.4143(3) 0.7956(3)
H11 H 0.1390 0.4673 0.8020
C17 C 0.1279(3) 0.3736(2) 0.8516(2)
H12 H 0.0958 0.3958 0.8918
C18 C 0.1548(3) 0.2920(2) 0.8532(2)
C19 C 0.1452(3) 0.2408(3) 0.9156(3)
H13 H 0.1199 0.2579 0.9607
C20 C 0.1769(4) 0.1602(3) 0.9057(3)
H14 H 0.1759 0.1232 0.9442
C21 C 0.2098(4) 0.1426(3) 0.8311(3)
H15 H 0.2313 0.0916 0.8237
C22 C 0.3531(3) 0.0621(2) 0.50320(16)
loop_
_geom_bond_atom_site_label_1
_geom_bond_atom_site_label_2
_geom_bond_site_symmetry_1
_geom_bond_site_symmetry_2
N1 C9 1_555 1_555
C1 H1 1_555 1_555
N2 H2 1_555 1_555
H3 N2 1_555 1_555
C2 C1 1_555 1_555
H4 C2 1_555 1_555
N3 C22 1_555 1_555
C3 C2 1_555 1_555
H5 C3 1_555 1_555
C4 C3 1_555 1_555
H6 C4 1_555 1_555
C5 C4 1_555 1_555
H7 C5 1_555 1_555
C6 C1 1_555 1_555
C7 C6 1_555 1_555
C8 C7 1_555 1_555
H8 C8 1_555 1_555
C9 C8 1_555 1_555
C10 N1 1_555 1_555
C11 C7 1_555 1_555
C12 C9 1_555 1_555
C13 C12 1_555 1_555
C14 C13 1_555 1_555
H9 C14 1_555 1_555
C15 C14 1_555 1_555
H10 C15 1_555 1_555
C16 C15 1_555 1_555
H11 C16 1_555 1_555
C17 C16 1_555 1_555
H12 C17 1_555 1_555
C18 C13 1_555 1_555
C19 C18 1_555 1_555
H13 C19 1_555 1_555
C20 C19 1_555 1_555
H14 C20 1_555 1_555
C21 C12 1_555 1_555
H15 C21 1_555 1_555
C22 C11 1_555 1_555
N2 C10 1_555 1_555
C5 C6 1_555 1_555
C10 C11 1_555 1_555
C17 C18 1_555 1_555
C20 C21 1_555 1_555

#END
