
#######################################################################
#
#                 Cambridge Crystallographic Data Centre
#                                CCDC 
#
#######################################################################
#
# If this CIF has been generated from an entry in the Cambridge 
# Structural Database, then it will include bibliographic, chemical, 
# crystal, experimental, refinement or atomic coordinate data resulting 
# from the CCDC's data processing and validation procedures.
#
#######################################################################

data_UPAFUN
_chemical_formula_moiety         'C14 H10 Br1 F1 N2 O1'
_chemical_name_systematic        
(E)-N'-(2-Bromobenzylidene)-2-fluorobenzohydrazide
_symmetry_cell_setting           orthorhombic
_symmetry_space_group_name_H-M   'P b c a'
_symmetry_Int_Tables_number      61
_space_group_name_Hall           '-P 2ac 2ab'
loop_
_symmetry_equiv_pos_site_id
_symmetry_equiv_pos_as_xyz
1 x,y,z
2 1/2-x,-y,1/2+z
3 1/2+x,1/2-y,-z
4 -x,1/2+y,1/2-z
5 -x,-y,-z
6 1/2+x,y,1/2-z
7 1/2-x,1/2+y,z
8 x,1/2-y,1/2+z
_cell_length_a                   11.853(2)
_cell_length_b                   9.6507(18)
_cell_length_c                   22.921(4)
_cell_angle_alpha                90
_cell_angle_beta                 90
_cell_angle_gamma                90
_cell_volume                     2621.93
_exptl_crystal_colour            yellow
_exptl_crystal_description       block
_cell_formula_units_Z            8
loop_
_atom_site_label
_atom_site_type_symbol
_atom_site_fract_x
_atom_site_fract_y
_atom_site_fract_z
Br1 Br 0.71246(3) -0.03729(4) 1.026973(15)
F1 F 0.93107(15) 0.5216(2) 0.78445(10)
O1 O 0.71146(17) 0.5201(2) 0.83914(9)
N1 N 0.69850(17) 0.2891(2) 0.85414(10)
H1 H 0.7221 0.2150 0.8442
N2 N 0.64592(18) 0.3061(2) 0.90719(9)
C1 C 0.7828(2) 0.3676(3) 0.76568(12)
C2 C 0.8798(3) 0.4319(3) 0.74739(15)
C3 C 0.9276(3) 0.4075(4) 0.69309(17)
H2 H 0.9928 0.4534 0.6815
C4 C 0.8758(4) 0.3137(5) 0.65694(17)
H3 H 0.9065 0.2961 0.6203
C5 C 0.7808(4) 0.2461(4) 0.67351(16)
H4 H 0.7473 0.1818 0.6487
C6 C 0.7341(3) 0.2737(3) 0.72758(13)
H5 H 0.6683 0.2281 0.7386
C7 C 0.7291(2) 0.4011(3) 0.82290(12)
C8 C 0.6410(2) 0.1979(3) 0.93891(12)
H6 H 0.6714 0.1148 0.9257
C9 C 0.5869(2) 0.2055(3) 0.99638(12)
C10 C 0.5124(2) 0.3127(3) 1.00943(12)
H7 H 0.4954 0.3779 0.9809
C11 C 0.6079(2) 0.1080(3) 1.03970(12)
C12 C 0.5580(3) 0.1179(4) 1.09390(13)
H8 H 0.5728 0.0514 1.1223
C13 C 0.4864(2) 0.2259(4) 1.10586(14)
H9 H 0.4533 0.2329 1.1425
C14 C 0.4631(2) 0.3244(3) 1.06384(13)
H10 H 0.4147 0.3978 1.0721
loop_
_geom_bond_atom_site_label_1
_geom_bond_atom_site_label_2
_geom_bond_site_symmetry_1
_geom_bond_site_symmetry_2
Br1 C11 1_555 1_555
F1 C2 1_555 1_555
O1 C7 1_555 1_555
N1 H1 1_555 1_555
N2 N1 1_555 1_555
C1 C2 1_555 1_555
C2 C3 1_555 1_555
C3 H2 1_555 1_555
C4 C3 1_555 1_555
H3 C4 1_555 1_555
C5 C4 1_555 1_555
H4 C5 1_555 1_555
C6 C1 1_555 1_555
H5 C6 1_555 1_555
C7 N1 1_555 1_555
C8 N2 1_555 1_555
H6 C8 1_555 1_555
C9 C8 1_555 1_555
C10 C9 1_555 1_555
H7 C10 1_555 1_555
C11 C9 1_555 1_555
C12 C11 1_555 1_555
H8 C12 1_555 1_555
C13 C12 1_555 1_555
H9 C13 1_555 1_555
C14 C10 1_555 1_555
H10 C14 1_555 1_555
C1 C7 1_555 1_555
C5 C6 1_555 1_555
C13 C14 1_555 1_555

#END
