
#######################################################################
#
#                 Cambridge Crystallographic Data Centre
#                                CCDC 
#
#######################################################################
#
# If this CIF has been generated from an entry in the Cambridge 
# Structural Database, then it will include bibliographic, chemical, 
# crystal, experimental, refinement or atomic coordinate data resulting 
# from the CCDC's data processing and validation procedures.
#
#######################################################################

data_UPALII
_chemical_formula_moiety         'C26 H18 F2 N2 O4'
_chemical_name_systematic        
'8-fluoro-4-(4-fluorophenyl)-2-(4-methoxyphenyl)-1-oxo-2,3-dihydro-1H-pyrrolo[3,4-c]quinolin-3-yl acetate'
_symmetry_cell_setting           triclinic
_symmetry_space_group_name_H-M   'P -1'
_symmetry_Int_Tables_number      2
_space_group_name_Hall           '-P 1'
loop_
_symmetry_equiv_pos_site_id
_symmetry_equiv_pos_as_xyz
1 x,y,z
2 -x,-y,-z
_cell_length_a                   6.0426(10)
_cell_length_b                   12.222(2)
_cell_length_c                   15.374(3)
_cell_angle_alpha                78.111(2)
_cell_angle_beta                 79.431(2)
_cell_angle_gamma                87.801(2)
_cell_volume                     1092.21
_exptl_crystal_colour            yellow
_exptl_crystal_description       block
_cell_formula_units_Z            2
loop_
_atom_site_label
_atom_site_type_symbol
_atom_site_fract_x
_atom_site_fract_y
_atom_site_fract_z
F1 F 0.5262(5) 0.07805(19) 0.3735(2)
F2 F 1.0764(4) 0.98416(18) 0.38765(18)
N1 N 0.8577(5) 0.5519(2) 0.39096(18)
N2 N 0.4046(5) 0.7233(2) 0.19079(18)
O1 O 0.5549(4) 0.54867(19) 0.16586(15)
O2 O 0.5148(4) 0.8974(2) 0.20535(17)
O3 O -0.1021(5) 0.8477(3) -0.0809(2)
O4 O 0.2618(7) 0.4372(3) 0.1776(2)
C1 C 0.5657(8) 0.1877(3) 0.3672(3)
C2 C 0.3919(7) 0.2543(3) 0.3923(3)
H1 H 0.2474 0.2254 0.4133
C3 C 0.4337(6) 0.3664(3) 0.3859(3)
H2 H 0.3157 0.4136 0.4020
C4 C 0.6497(6) 0.4093(3) 0.3558(2)
C5 C 0.8220(6) 0.3380(3) 0.3310(3)
H3 H 0.9677 0.3656 0.3104
C6 C 0.7807(7) 0.2264(3) 0.3363(3)
H4 H 0.8966 0.1786 0.3191
C7 C 0.6972(6) 0.5292(3) 0.3492(2)
C8 C 0.5876(5) 0.6152(3) 0.2974(2)
C9 C 0.6343(6) 0.7239(3) 0.2928(2)
C10 C 0.7959(6) 0.7536(3) 0.3407(2)
C11 C 0.8528(6) 0.8641(3) 0.3413(2)
H5 H 0.7789 0.9250 0.3121
C12 C 1.0187(7) 0.8782(3) 0.3859(3)
C13 C 1.1343(6) 0.7916(3) 0.4308(3)
H6 H 1.2492 0.8063 0.4596
C14 C 1.0777(6) 0.6844(3) 0.4324(2)
H7 H 1.1529 0.6254 0.4633
C15 C 0.9057(6) 0.6623(3) 0.3876(2)
C16 C 0.4352(6) 0.6079(3) 0.2321(2)
H8 H 0.2919 0.5717 0.2626
C17 C 0.5149(6) 0.7961(3) 0.2258(2)
C18 C 0.2789(6) 0.7572(3) 0.1196(2)
C19 C 0.0825(6) 0.7026(3) 0.1202(2)
H9 H 0.0314 0.6433 0.1674
C20 C -0.0379(6) 0.7352(4) 0.0515(3)
H10 H -0.1696 0.6978 0.0522
C21 C 0.0361(7) 0.8223(3) -0.0176(3)
C22 C 0.2346(7) 0.8768(3) -0.0205(3)
H11 H 0.2855 0.9357 -0.0681
C23 C 0.3558(7) 0.8427(3) 0.0479(3)
H12 H 0.4912 0.8778 0.0457
C24 C -0.0405(9) 0.9354(4) -0.1523(3)
H13 H -0.0339 1.0028 -0.1300
H14 H -0.1493 0.9441 -0.1916
H15 H 0.1048 0.9206 -0.1852
C25 C 0.4522(9) 0.4610(3) 0.1488(3)
C26 C 0.6152(9) 0.3992(4) 0.0907(3)
H16 H 0.7107 0.3534 0.1270
H17 H 0.7055 0.4518 0.0439
H18 H 0.5340 0.3528 0.0641
loop_
_geom_bond_atom_site_label_1
_geom_bond_atom_site_label_2
_geom_bond_site_symmetry_1
_geom_bond_site_symmetry_2
F1 C1 1_555 1_555
F2 C12 1_555 1_555
N1 C7 1_555 1_555
N2 C16 1_555 1_555
O1 C16 1_555 1_555
O2 C17 1_555 1_555
O3 C21 1_555 1_555
O4 C25 1_555 1_555
C1 C2 1_555 1_555
C2 H1 1_555 1_555
C3 C2 1_555 1_555
H2 C3 1_555 1_555
C4 C3 1_555 1_555
C5 C4 1_555 1_555
H3 C5 1_555 1_555
C6 C1 1_555 1_555
H4 C6 1_555 1_555
C7 C4 1_555 1_555
C8 C7 1_555 1_555
C9 C8 1_555 1_555
C10 C9 1_555 1_555
C11 C10 1_555 1_555
H5 C11 1_555 1_555
C12 C11 1_555 1_555
C13 C12 1_555 1_555
H6 C13 1_555 1_555
C14 C13 1_555 1_555
H7 C14 1_555 1_555
C15 N1 1_555 1_555
C16 C8 1_555 1_555
H8 C16 1_555 1_555
C17 N2 1_555 1_555
C18 N2 1_555 1_555
C19 C18 1_555 1_555
H9 C19 1_555 1_555
C20 C19 1_555 1_555
H10 C20 1_555 1_555
C21 C20 1_555 1_555
C22 C21 1_555 1_555
H11 C22 1_555 1_555
C23 C18 1_555 1_555
H12 C23 1_555 1_555
C24 O3 1_555 1_555
H13 C24 1_555 1_555
H14 C24 1_555 1_555
H15 C24 1_555 1_555
C25 O1 1_555 1_555
C26 C25 1_555 1_555
H16 C26 1_555 1_555
H17 C26 1_555 1_555
H18 C26 1_555 1_555
C5 C6 1_555 1_555
C9 C17 1_555 1_555
C10 C15 1_555 1_555
C14 C15 1_555 1_555
C22 C23 1_555 1_555

#END
