
#######################################################################
#
#                 Cambridge Crystallographic Data Centre
#                                CCDC 
#
#######################################################################
#
# If this CIF has been generated from an entry in the Cambridge 
# Structural Database, then it will include bibliographic, chemical, 
# crystal, experimental, refinement or atomic coordinate data resulting 
# from the CCDC's data processing and validation procedures.
#
#######################################################################

data_UPASOU
_chemical_formula_moiety         'C14 H18 N5 O3 1+,0.5(C10 H4 O8 2-),4(H2 O1)'
_chemical_name_systematic        
'4-(6-Carboxy-8-ethyl-5-oxo-5,8-dihydropyrido[2,3-d]pyrimidin-2-yl)piperazin-1-ium hemikis(2,5-dicarboxyterephthalate) tetrahydrate'
_symmetry_cell_setting           triclinic
_symmetry_space_group_name_H-M   'P -1'
_symmetry_Int_Tables_number      2
_space_group_name_Hall           '-P 1'
loop_
_symmetry_equiv_pos_site_id
_symmetry_equiv_pos_as_xyz
1 x,y,z
2 -x,-y,-z
_cell_length_a                   8.8336(16)
_cell_length_b                   11.103(2)
_cell_length_c                   12.445(2)
_cell_angle_alpha                83.010(2)
_cell_angle_beta                 76.737(2)
_cell_angle_gamma                73.831(2)
_cell_volume                     1138.86
_exptl_crystal_colour            colorless
_exptl_crystal_description       block
_cell_formula_units_Z            2
loop_
_atom_site_label
_atom_site_type_symbol
_atom_site_fract_x
_atom_site_fract_y
_atom_site_fract_z
C1 C -0.2298(2) 0.58949(18) 0.76095(14)
C2 C -0.1629(2) 0.63420(16) 0.64826(13)
C3 C 0.0071(2) 0.60173(15) 0.60569(13)
C4 C 0.05712(18) 0.65003(14) 0.49440(12)
C5 C 0.2186(2) 0.62709(16) 0.43913(13)
H1 H 0.2968 0.5782 0.4765
C6 C 0.14597(19) 0.74223(16) 0.28730(13)
C7 C -0.05440(18) 0.72426(14) 0.43356(12)
C8 C -0.2657(2) 0.70738(16) 0.58476(13)
H2 H -0.3755 0.7269 0.6149
C9 C -0.33740(19) 0.83037(17) 0.41760(14)
H3 H -0.2943 0.8957 0.3727
H4 H -0.4340 0.8707 0.4687
C10 C -0.3799(3) 0.7527(2) 0.3443(2)
H5 H -0.4572 0.8056 0.3042
H6 H -0.4251 0.6892 0.3887
H7 H -0.2847 0.7134 0.2931
C11 C 0.0817(2) 0.85693(19) 0.11400(14)
H8 H 0.1022 0.9380 0.0881
H9 H -0.0279 0.8712 0.1564
C12 C 0.1010(2) 0.78182(19) 0.01646(14)
H10 H 0.0685 0.7049 0.0421
H11 H 0.0317 0.8298 -0.0325
C13 C 0.3844(2) 0.68542(19) 0.02854(14)
H12 H 0.4945 0.6720 -0.0128
H13 H 0.3654 0.6040 0.0552
C14 C 0.3613(2) 0.7624(2) 0.12515(15)
H14 H 0.4303 0.7166 0.1751
H15 H 0.3910 0.8403 0.0992
N1 N 0.27157(18) 0.75043(15) -0.04528(11)
H17 H 0.2821 0.7007 -0.0999
H18 H 0.2974 0.8215 -0.0764
N2 N 0.19315(17) 0.79002(15) 0.18387(11)
N3 N 0.26607(16) 0.67052(14) 0.33790(11)
N4 N -0.01218(15) 0.77067(13) 0.33069(10)
N5 N -0.21691(15) 0.75273(13) 0.48113(11)
O1 O -0.37365(18) 0.61061(16) 0.80048(11)
O3 O -0.12330(19) 0.52214(15) 0.81832(12)
H21 H -0.018(2) 0.516(2) 0.7683(19)
O5 O 0.10748(15) 0.53510(12) 0.66146(10)
C15 C 0.0728(2) 0.91872(15) 0.58174(12)
C16 C 0.1614(2) 0.95494(15) 0.48134(14)
H16 H 0.271(2) 0.9248(16) 0.4737(15)
C17 C 0.09561(19) 1.03470(15) 0.39901(12)
C18 C 0.2204(2) 1.06072(16) 0.29829(14)
C19 C 0.1758(2) 0.82880(18) 0.65566(15)
O8 O 0.17347(18) 1.10598(16) 0.20881(11)
O9 O 0.36177(16) 1.03613(14) 0.30721(12)
O10 O 0.1120(2) 0.80744(16) 0.75738(11)
H28 H 0.002(2) 0.842(2) 0.772(2)
O11 O 0.31545(18) 0.77853(16) 0.61765(13)
C15A C -0.0728(2) 1.08128(15) 0.41826(12)
C16A C -0.1614(2) 1.04506(15) 0.51866(14)
H16A H -0.271(2) 1.0752(16) 0.5263(15)
C17A C -0.09561(19) 0.96530(15) 0.60099(12)
C18A C -0.2204(2) 0.93928(16) 0.70171(14)
C19A C -0.1758(2) 1.17120(18) 0.34434(15)
O8A O -0.17347(18) 0.89402(16) 0.79119(11)
O9A O -0.36177(16) 0.96387(14) 0.69279(12)
O10A O -0.1120(2) 1.19256(16) 0.24262(11)
H28A H -0.002(2) 1.158(2) 0.228(2)
O11A O -0.31545(18) 1.22147(16) 0.38235(13)
O2 O 0.34139(19) 0.54945(15) 0.80171(12)
H19 H 0.4401(19) 0.557(2) 0.7779(18)
H20 H 0.298(2) 0.581(2) 0.7463(16)
O4 O 0.3559(2) 0.95983(17) 0.85270(14)
H22 H 0.442(3) 0.954(3) 0.8054(18)
H23 H 0.353(3) 1.013(2) 0.8988(19)
O6 O 0.8262(3) 0.59914(18) 0.05037(17)
H24 H 0.764(3) 0.562(3) 0.0954(17)
H25 H 0.840(4) 0.570(3) -0.0121(15)
O7 O 0.6900(2) 0.85376(17) 0.01290(14)
H26 H 0.713(4) 0.876(2) -0.0572(15)
H27 H 0.725(3) 0.7783(16) 0.022(2)
loop_
_geom_bond_atom_site_label_1
_geom_bond_atom_site_label_2
_geom_bond_site_symmetry_1
_geom_bond_site_symmetry_2
C1 C2 1_555 1_555
C2 C3 1_555 1_555
C3 C4 1_555 1_555
C4 C5 1_555 1_555
C5 H1 1_555 1_555
C6 N2 1_555 1_555
C7 C4 1_555 1_555
C8 C2 1_555 1_555
H2 C8 1_555 1_555
C9 H3 1_555 1_555
H4 C9 1_555 1_555
C10 C9 1_555 1_555
H5 C10 1_555 1_555
H6 C10 1_555 1_555
H7 C10 1_555 1_555
C11 H8 1_555 1_555
H9 C11 1_555 1_555
C12 C11 1_555 1_555
H10 C12 1_555 1_555
H11 C12 1_555 1_555
C13 H12 1_555 1_555
H13 C13 1_555 1_555
C14 C13 1_555 1_555
H14 C14 1_555 1_555
H15 C14 1_555 1_555
C15 C16 1_555 1_555
C16 H16 1_555 1_555
C17 C16 1_555 1_555
C18 C17 1_555 1_555
C19 C15 1_555 1_555
N1 C12 1_555 1_555
H17 N1 1_555 1_555
H18 N1 1_555 1_555
N2 C11 1_555 1_555
N3 C5 1_555 1_555
N4 C6 1_555 1_555
N5 C7 1_555 1_555
O1 C1 1_555 1_555
O2 H19 1_555 1_555
H20 O2 1_555 1_555
O3 C1 1_555 1_555
H21 O3 1_555 1_555
O4 H22 1_555 1_555
H23 O4 1_555 1_555
O5 C3 1_555 1_555
O6 H24 1_555 1_555
H25 O6 1_555 1_555
O7 H26 1_555 1_555
H27 O7 1_555 1_555
O8 C18 1_555 1_555
O9 C18 1_555 1_555
O10 C19 1_555 1_555
H28 O10 1_555 1_555
O11 C19 1_555 1_555
C15A C17 1_555 1_555
C16A C15A 1_555 1_555
H16A C16A 1_555 1_555
C17A C15 1_555 1_555
C18A C17A 1_555 1_555
C19A C15A 1_555 1_555
O8A C18A 1_555 1_555
O9A C18A 1_555 1_555
O10A C19A 1_555 1_555
H28A O10A 1_555 1_555
O11A C19A 1_555 1_555
C6 N3 1_555 1_555
C7 N4 1_555 1_555
C8 N5 1_555 1_555
C9 N5 1_555 1_555
C13 N1 1_555 1_555
C14 N2 1_555 1_555
C16A C17A 1_555 1_555

#END
