
#######################################################################
#
#                 Cambridge Crystallographic Data Centre
#                                CCDC 
#
#######################################################################
#
# If this CIF has been generated from an entry in the Cambridge 
# Structural Database, then it will include bibliographic, chemical, 
# crystal, experimental, refinement or atomic coordinate data resulting 
# from the CCDC's data processing and validation procedures.
#
#######################################################################

data_UPAVUD
_chemical_formula_moiety         'C7 H11 N1 O7 P2'
_chemical_name_systematic        
'4-[2-(Hydrogen phosphonato)-2-hydroxy-2-phosphonoethyl]pyridinium'
_symmetry_cell_setting           monoclinic
_symmetry_space_group_name_H-M   'P 21/n'
_symmetry_Int_Tables_number      14
_space_group_name_Hall           '-P 2yn'
loop_
_symmetry_equiv_pos_site_id
_symmetry_equiv_pos_as_xyz
1 x,y,z
2 1/2-x,1/2+y,1/2-z
3 -x,-y,-z
4 1/2+x,1/2-y,1/2+z
_cell_length_a                   10.083(2)
_cell_length_b                   9.4713(19)
_cell_length_c                   11.708(2)
_cell_angle_alpha                90
_cell_angle_beta                 94.87(3)
_cell_angle_gamma                90
_cell_volume                     1114.07
_exptl_crystal_colour            colorless
_exptl_crystal_description       block
_cell_formula_units_Z            4
loop_
_atom_site_label
_atom_site_type_symbol
_atom_site_fract_x
_atom_site_fract_y
_atom_site_fract_z
P1 P 0.66199(6) 0.19546(7) 0.09909(6)
P2 P 0.87076(6) 0.20407(7) 0.30954(6)
O1 O 0.88791(18) 0.0416(2) 0.12393(16)
H1 H 0.846(3) -0.021(3) 0.151(3)
O2 O 0.81307(19) 0.3435(2) 0.34177(16)
O3 O 1.01876(18) 0.1862(2) 0.33689(16)
O4 O 0.79155(19) 0.0847(2) 0.36597(16)
H2 H 0.827(4) 0.008(3) 0.370(3)
O5 O 0.58172(19) 0.0799(2) 0.1556(2)
H3 H 0.613(4) 0.000(2) 0.157(3)
O6 O 0.6632(2) 0.1660(2) -0.02975(18)
H4 H 0.619(4) 0.218(4) -0.072(3)
O7 O 0.60449(17) 0.33631(19) 0.12698(17)
N1 N 1.3345(2) 0.3264(3) 0.1400(2)
H5 H 1.4152(19) 0.334(4) 0.143(3)
C1 C 1.2820(3) 0.2028(3) 0.1039(3)
H6 H 1.3374 0.1275 0.0894
C2 C 1.1465(3) 0.1875(3) 0.0883(2)
H7 H 1.1097 0.1020 0.0625
C3 C 1.0641(3) 0.2998(3) 0.1109(2)
C4 C 1.1232(3) 0.4260(3) 0.1492(3)
H8 H 1.0705 0.5024 0.1662
C5 C 1.2600(3) 0.4372(4) 0.1618(3)
H9 H 1.2999 0.5220 0.1855
C6 C 0.9147(2) 0.2907(3) 0.0868(2)
H10 H 0.8954 0.2725 0.0055
H11 H 0.8777 0.3826 0.1023
C7 C 0.8396(2) 0.1788(2) 0.1534(2)
loop_
_geom_bond_atom_site_label_1
_geom_bond_atom_site_label_2
_geom_bond_site_symmetry_1
_geom_bond_site_symmetry_2
P1 O5 1_555 1_555
P2 O2 1_555 1_555
O1 H1 1_555 1_555
O3 P2 1_555 1_555
O4 P2 1_555 1_555
H2 O4 1_555 1_555
O5 H3 1_555 1_555
O6 P1 1_555 1_555
H4 O6 1_555 1_555
O7 P1 1_555 1_555
N1 H5 1_555 1_555
C1 N1 1_555 1_555
H6 C1 1_555 1_555
C2 C1 1_555 1_555
H7 C2 1_555 1_555
C3 C2 1_555 1_555
C4 C3 1_555 1_555
H8 C4 1_555 1_555
C5 N1 1_555 1_555
H9 C5 1_555 1_555
C6 C3 1_555 1_555
H10 C6 1_555 1_555
H11 C6 1_555 1_555
C7 P1 1_555 1_555
P2 C7 1_555 1_555
O1 C7 1_555 1_555
C4 C5 1_555 1_555
C6 C7 1_555 1_555

#END
