
#######################################################################
#
#                 Cambridge Crystallographic Data Centre
#                                CCDC 
#
#######################################################################
#
# If this CIF has been generated from an entry in the Cambridge 
# Structural Database, then it will include bibliographic, chemical, 
# crystal, experimental, refinement or atomic coordinate data resulting 
# from the CCDC's data processing and validation procedures.
#
#######################################################################

data_UPAVOX
_chemical_name_common            3-(Pyridin-4-ylthio)pentane-2,4-dione
_chemical_formula_moiety         'C10 H11 N1 O2 S1'
_chemical_name_systematic        
4-Hydroxy-3-(pyridin-4-ylsulfanyl)pent-3-en-2-one
_symmetry_cell_setting           monoclinic
_symmetry_space_group_name_H-M   'P 21/c'
_symmetry_Int_Tables_number      14
_space_group_name_Hall           '-P 2ybc'
loop_
_symmetry_equiv_pos_site_id
_symmetry_equiv_pos_as_xyz
1 x,y,z
2 -x,1/2+y,1/2-z
3 -x,-y,-z
4 x,1/2-y,1/2+z
_cell_length_a                   8.3273(7)
_cell_length_b                   9.5614(8)
_cell_length_c                   13.0681(11)
_cell_angle_alpha                90
_cell_angle_beta                 92.6980(10)
_cell_angle_gamma                90
_cell_volume                     1039.34
_exptl_crystal_colour            yellow
_exptl_crystal_description       block
_cell_formula_units_Z            4
loop_
_atom_site_label
_atom_site_type_symbol
_atom_site_fract_x
_atom_site_fract_y
_atom_site_fract_z
S1 S 0.87871(8) 0.22005(6) 0.95516(6)
O1 O 0.7336(2) 0.60208(19) 1.01493(15)
H1 H 0.7715 0.6213 0.9547
O2 O 0.8608(2) 0.60632(19) 0.85162(14)
N1 N 0.4443(3) -0.0271(2) 0.83293(19)
C1 C 0.6930(4) 0.3985(4) 1.1103(2)
H2 H 0.7813 0.3688 1.1550
H3 H 0.6305 0.3185 1.0886
H4 H 0.6266 0.4623 1.1461
C2 C 0.7557(3) 0.4691(3) 1.01961(19)
C3 C 0.8327(3) 0.3980(2) 0.94164(17)
C4 C 0.8804(3) 0.4736(3) 0.85562(18)
C5 C 0.9512(4) 0.4065(4) 0.7658(2)
H5 H 1.0051 0.4759 0.7269
H6 H 0.8674 0.3639 0.7235
H7 H 1.0270 0.3363 0.7889
C6 C 0.7057(3) 0.1310(2) 0.90682(16)
C7 C 0.7102(3) -0.0134(2) 0.90713(19)
H8 H 0.8011 -0.0607 0.9327
C8 C 0.5786(3) -0.0856(3) 0.8692(2)
H9 H 0.5843 -0.1827 0.8690
C9 C 0.4412(3) 0.1119(3) 0.8347(2)
H10 H 0.3474 0.1561 0.8107
C10 C 0.5674(3) 0.1949(2) 0.86962(18)
H11 H 0.5591 0.2919 0.8680
loop_
_geom_bond_atom_site_label_1
_geom_bond_atom_site_label_2
_geom_bond_site_symmetry_1
_geom_bond_site_symmetry_2
S1 C3 1_555 1_555
O1 H1 1_555 1_555
O2 C4 1_555 1_555
N1 C8 1_555 1_555
C1 H2 1_555 1_555
H3 C1 1_555 1_555
H4 C1 1_555 1_555
C2 O1 1_555 1_555
C3 C2 1_555 1_555
C4 C3 1_555 1_555
C5 C4 1_555 1_555
H5 C5 1_555 1_555
H6 C5 1_555 1_555
H7 C5 1_555 1_555
C6 S1 1_555 1_555
C7 C6 1_555 1_555
H8 C7 1_555 1_555
C8 C7 1_555 1_555
H9 C8 1_555 1_555
C9 N1 1_555 1_555
H10 C9 1_555 1_555
C10 C6 1_555 1_555
H11 C10 1_555 1_555
C1 C2 1_555 1_555
C9 C10 1_555 1_555

#END
