
#######################################################################
#
#                 Cambridge Crystallographic Data Centre
#                                CCDC 
#
#######################################################################
#
# If this CIF has been generated from an entry in the Cambridge 
# Structural Database, then it will include bibliographic, chemical, 
# crystal, experimental, refinement or atomic coordinate data resulting 
# from the CCDC's data processing and validation procedures.
#
#######################################################################

data_UPEWAP
_chemical_formula_moiety         'C12 H20 O5,0.5(H2 O1)'
_chemical_name_systematic        
'4,5-dihydroxy-3,3,10-trimethyloxecane-2,7-dione hemihydrate'
_symmetry_cell_setting           triclinic
_symmetry_space_group_name_H-M   'P -1'
_symmetry_Int_Tables_number      2
_space_group_name_Hall           '-P 1'
loop_
_symmetry_equiv_pos_site_id
_symmetry_equiv_pos_as_xyz
1 x,y,z
2 -x,-y,-z
_cell_length_a                   10.7852(3)
_cell_length_b                   13.2851(4)
_cell_length_c                   28.0787(8)
_cell_angle_alpha                103.104(3)
_cell_angle_beta                 90.658(2)
_cell_angle_gamma                103.730(3)
_cell_volume                     3797.38
_exptl_crystal_colour            colorless
_exptl_crystal_description       block
_cell_formula_units_Z            12
loop_
_atom_site_label
_atom_site_type_symbol
_atom_site_fract_x
_atom_site_fract_y
_atom_site_fract_z
O1 O 0.06932(9) 0.83872(7) 0.08360(3)
O2 O -0.12107(9) 0.84701(8) 0.11385(4)
O3 O -0.05749(10) 0.64877(8) 0.20341(3)
H1 H 0.0010 0.6167 0.2031
O4 O -0.13134(9) 0.48651(7) 0.12267(4)
H2 H -0.2073 0.4916 0.1247
O5 O 0.13195(9) 0.60771(8) 0.04165(4)
C1 C -0.01782(13) 0.82785(10) 0.11711(5)
C2 C 0.02590(13) 0.78750(10) 0.15957(5)
C3 C -0.06764(13) 0.67668(10) 0.15787(5)
H3 H -0.1565 0.6850 0.1535
C4 C -0.05198(13) 0.58443(10) 0.11565(5)
H4 H 0.0391 0.5798 0.1176
C5 C -0.08349(13) 0.59779(11) 0.06440(5)
H5 H -0.1390 0.5296 0.0454
H6 H -0.1336 0.6522 0.0679
C6 C 0.03059(14) 0.63004(11) 0.03483(5)
C7 C 0.00960(15) 0.67841(12) -0.00746(5)
H7 H -0.0463 0.6222 -0.0334
H8 H 0.0931 0.7005 -0.0212
C8 C -0.05014(14) 0.77508(12) 0.00430(5)
H9 H -0.0656 0.7956 -0.0266
H10 H -0.1341 0.7535 0.0178
C9 C 0.03129(14) 0.87167(12) 0.04041(5)
H11 H -0.0206 0.9251 0.0508
C10 C 0.15394(15) 0.92504(12) 0.02140(6)
H12 H 0.2009 0.8716 0.0078
H13 H 0.2066 0.9791 0.0483
H14 H 0.1339 0.9591 -0.0042
C11 C 0.00688(15) 0.86774(11) 0.20631(5)
H15 H -0.0834 0.8695 0.2071
H16 H 0.0595 0.9389 0.2063
H17 H 0.0325 0.8459 0.2352
C12 C 0.16602(13) 0.78250(11) 0.15952(5)
H18 H 0.2208 0.8540 0.1618
H19 H 0.1796 0.7343 0.1291
H20 H 0.1875 0.7561 0.1876
O6 O 0.56387(9) 0.84158(7) 0.32333(3)
O7 O 0.38395(9) 0.85319(8) 0.28582(4)
O8 O 0.46146(9) 0.62726(8) 0.16601(3)
H21 H 0.3937 0.5906 0.1496
O9 O 0.34138(9) 0.48279(7) 0.21641(4)
H22 H 0.3800 0.4451 0.1969
O10 O 0.59520(10) 0.61450(8) 0.33075(4)
C13 C 0.48389(13) 0.82714(10) 0.28402(5)
C14 C 0.53270(13) 0.77364(10) 0.23624(5)
C15 C 0.43383(12) 0.66554(10) 0.21541(5)
H23 H 0.3466 0.6792 0.2151
C16 C 0.43197(13) 0.57804(10) 0.24336(5)
H24 H 0.5189 0.5640 0.2444
C17 C 0.38865(13) 0.60254(11) 0.29547(5)
H25 H 0.3410 0.6585 0.2982
H26 H 0.3282 0.5376 0.3006
C18 C 0.49399(14) 0.63907(11) 0.33638(5)
C19 C 0.46262(16) 0.69681(12) 0.38601(5)
H27 H 0.5390 0.7143 0.4091
H28 H 0.3934 0.6476 0.3983
C20 C 0.42113(14) 0.79922(12) 0.38683(5)
H29 H 0.3427 0.7816 0.3648
H30 H 0.3990 0.8282 0.4204
C21 C 0.52125(13) 0.88551(11) 0.37133(5)
H31 H 0.4823 0.9455 0.3688
C22 C 0.64181(14) 0.92931(12) 0.40519(5)
H32 H 0.6848 0.8722 0.4054
H33 H 0.6195 0.9575 0.4385
H34 H 0.6992 0.9866 0.3936
C23 C 0.53233(14) 0.84753(11) 0.20119(5)
H35 H 0.5648 0.8179 0.1700
H36 H 0.5871 0.9184 0.2159
H37 H 0.4448 0.8533 0.1953
C24 C 0.66738(13) 0.75775(11) 0.24244(5)
H38 H 0.6688 0.7149 0.2665
H39 H 0.7282 0.8273 0.2538
H40 H 0.6914 0.7208 0.2109
O11 O 0.42610(9) 0.15825(7) 0.00881(3)
O12 O 0.60815(9) 0.15891(8) 0.04898(3)
O13 O 0.50753(9) 0.37380(8) 0.16714(3)
H41 H 0.5743 0.4067 0.1851
O14 O 0.62965(9) 0.52045(7) 0.11757(4)
H42 H 0.5903 0.5572 0.1372
O15 O 0.37493(10) 0.38393(8) 0.00316(4)
C25 C 0.50391(12) 0.17771(10) 0.04916(5)
C26 C 0.44755(13) 0.22714(10) 0.09595(5)
C27 C 0.54068(13) 0.33743(10) 0.11824(5)
H43 H 0.6295 0.3273 0.1198
C28 C 0.54049(13) 0.42472(10) 0.09041(5)
H44 H 0.4529 0.4376 0.0894
C29 C 0.58411(13) 0.40136(10) 0.03834(5)
H45 H 0.6427 0.4671 0.0332
H46 H 0.6338 0.3467 0.0356
C30 C 0.47801(13) 0.36266(11) -0.00265(5)
C31 C 0.51090(15) 0.30742(12) -0.05256(5)
H47 H 0.5731 0.3603 -0.0657
H48 H 0.4324 0.2835 -0.0748
C32 C 0.56685(14) 0.21137(11) -0.05361(5)
H49 H 0.5915 0.1856 -0.0872
H50 H 0.6456 0.2349 -0.0315
C33 C 0.47622(13) 0.11863(11) -0.03845(5)
H51 H 0.5240 0.0645 -0.0349
C34 C 0.35918(14) 0.06493(11) -0.07347(5)
H52 H 0.3075 0.0049 -0.0620
H53 H 0.3861 0.0387 -0.1062
H54 H 0.3083 0.1164 -0.0749
C35 C 0.44798(14) 0.15319(11) 0.13089(5)
H55 H 0.3973 0.0813 0.1153
H56 H 0.4108 0.1804 0.1614
H57 H 0.5361 0.1508 0.1382
C36 C 0.31108(13) 0.23807(11) 0.08788(5)
H58 H 0.3097 0.2818 0.0642
H59 H 0.2824 0.2721 0.1191
H60 H 0.2538 0.1672 0.0752
O16 O 0.91807(9) 0.16455(7) 0.24962(3)
O17 O 1.10726(10) 0.16139(8) 0.21743(4)
O18 O 1.02438(9) 0.35103(8) 0.12712(3)
H61 H 0.9678 0.3853 0.1286
O19 O 1.10157(9) 0.51565(7) 0.20693(4)
H62 H 1.1792 0.5155 0.2093
O20 O 0.84399(9) 0.39356(8) 0.29031(4)
C37 C 1.00166(13) 0.17690(10) 0.21516(5)
C38 C 0.95141(13) 0.21382(10) 0.17284(5)
C39 C 1.04070(13) 0.32559(10) 0.17298(5)
H63 H 1.1309 0.3198 0.1765
C40 C 1.02439(13) 0.41772(10) 0.21496(5)
H64 H 0.9328 0.4210 0.2133
C41 C 1.05846(13) 0.40652(11) 0.26634(5)
H65 H 1.1102 0.3532 0.2629
H66 H 1.1132 0.4756 0.2848
C42 C 0.94647(14) 0.37376(10) 0.29683(5)
C43 C 0.97254(15) 0.32822(12) 0.33957(5)
H67 H 0.8900 0.3032 0.3534
H68 H 1.0261 0.3867 0.3652
C44 C 1.03916(14) 0.23566(12) 0.32862(5)
H69 H 1.1222 0.2602 0.3150
H70 H 1.0573 0.2174 0.3598
C45 C 0.96200(14) 0.13530(11) 0.29293(5)
H71 H 1.0182 0.0853 0.2827
C46 C 0.84345(15) 0.07747(12) 0.31262(6)
H72 H 0.7890 0.1266 0.3237
H73 H 0.8680 0.0509 0.3402
H74 H 0.7963 0.0174 0.2867
C47 C 0.96858(14) 0.13327(11) 0.12601(5)
H75 H 1.0595 0.1347 0.1236
H76 H 0.9366 0.1523 0.0973
H77 H 0.9205 0.0615 0.1273
C48 C 0.81032(13) 0.21574(11) 0.17451(5)
H78 H 0.7581 0.1438 0.1731
H79 H 0.7847 0.2405 0.1465
H80 H 0.7977 0.2642 0.2050
O21 O 0.41747(9) 0.16343(7) 0.34434(3)
O22 O 0.60781(9) 0.15884(8) 0.37637(4)
O23 O 0.54665(10) 0.35894(8) 0.50579(3)
H81 H 0.4865 0.3890 0.5122
O24 O 0.61922(9) 0.51949(7) 0.45947(4)
H82 H 0.6960 0.5166 0.4578
O25 O 0.35031(10) 0.39466(8) 0.35117(4)
C49 C 0.50372(13) 0.17721(10) 0.38157(5)
C50 C 0.45877(13) 0.22018(10) 0.43180(5)
C51 C 0.55447(13) 0.33016(10) 0.45415(5)
H83 H 0.6427 0.3207 0.4482
C52 C 0.53823(13) 0.42159(10) 0.43129(5)
H84 H 0.4475 0.4269 0.4340
C53 C 0.56690(13) 0.40657(11) 0.37719(5)
H85 H 0.6217 0.4745 0.3727
H86 H 0.6171 0.3522 0.3694
C54 C 0.45127(14) 0.37306(10) 0.34018(5)
C55 C 0.47234(15) 0.32375(12) 0.28784(5)
H87 H 0.5256 0.3802 0.2739
H88 H 0.3883 0.2989 0.2689
C56 C 0.53630(14) 0.22978(12) 0.27991(5)
H89 H 0.5531 0.2098 0.2449
H90 H 0.6199 0.2536 0.2991
C57 C 0.45744(14) 0.13089(11) 0.29451(5)
H91 H 0.5115 0.0791 0.2941
C58 C 0.33591(14) 0.07554(12) 0.26263(5)
H92 H 0.2919 0.0126 0.2739
H93 H 0.3568 0.0535 0.2286
H94 H 0.2801 0.1246 0.2647
C59 C 0.47286(15) 0.14145(11) 0.46311(5)
H95 H 0.4189 0.0705 0.4479
H96 H 0.4463 0.1659 0.4961
H97 H 0.5624 0.1379 0.4652
C60 C 0.31984(13) 0.22873(11) 0.43062(5)
H98 H 0.3078 0.2722 0.4078
H99 H 0.3000 0.2622 0.4635
H100 H 0.2627 0.1573 0.4197
O26 O 1.06402(9) 0.84109(7) 0.41627(3)
O27 O 0.88897(10) 0.85473(8) 0.45749(4)
O28 O 0.98009(10) 0.63071(8) 0.52891(4)
H101 H 0.9128 0.6020 0.5404
O29 O 0.85678(9) 0.48416(8) 0.44741(4)
H102 H 0.8960 0.4504 0.4616
O30 O 1.09777(14) 0.61650(10) 0.35936(5)
C61 C 0.98854(13) 0.82865(10) 0.45335(5)
C62 C 1.04265(13) 0.77726(11) 0.48982(5)
C63 C 0.94772(13) 0.66798(10) 0.48775(5)
H103 H 0.8597 0.6798 0.4911
C64 C 0.94465(13) 0.57976(11) 0.44092(5)
H104 H 1.0320 0.5669 0.4368
C65 C 0.89623(13) 0.60292(11) 0.39410(5)
H105 H 0.8355 0.5371 0.3755
H106 H 0.8472 0.6577 0.4038
C66 C 0.9941(2) 0.64046(16) 0.35966(7)
C67 C 0.9552(2) 0.69648(15) 0.32274(7)
H107 H 0.8839 0.6462 0.3007
H108 H 1.0282 0.7140 0.3025
C68 C 0.9138(2) 0.79877(17) 0.34454(8)
H109 H 0.8884 0.8278 0.3175
H110 H 0.8377 0.7811 0.3633
C69 C 1.01668(14) 0.88379(12) 0.37790(5)
H111 H 0.9785 0.9436 0.3939
C70 C 1.13451(15) 0.92937(12) 0.35336(6)
H112 H 1.1968 0.9812 0.3781
H113 H 1.1102 0.9647 0.3289
H114 H 1.1727 0.8716 0.3372
C71 C 1.04355(15) 0.85141(12) 0.54055(5)
H115 H 1.0942 0.9232 0.5406
H116 H 1.0814 0.8243 0.5654
H117 H 0.9556 0.8540 0.5480
C72 C 1.17841(13) 0.76570(12) 0.48042(5)
H118 H 1.1792 0.7218 0.4473
H119 H 1.2071 0.7315 0.5045
H120 H 1.2360 0.8364 0.4834
O32 O 0.24804(9) 0.50760(8) 0.10799(4)
H128 H 0.1888 0.4584 0.1142
H129 H 0.2207 0.5318 0.0854
O33 O 0.23143(10) 0.48868(9) 0.43893(4)
H130 H 0.2941 0.5349 0.4557
H131 H 0.2561 0.4605 0.4116
O34 O 0.72283(10) 0.48940(8) 0.22486(4)
H132 H 0.7523 0.4629 0.2460
H133 H 0.7816 0.5386 0.2184
O31? O 1.1266(8) 0.6073(7) 0.3724(3)
H121? H 0.8560 0.6638 0.4019
H122? H 0.8330 0.5398 0.3746
C73? C 1.0227(9) 0.6312(7) 0.3647(3)
C74? C 0.9937(10) 0.6836(7) 0.3233(3)
H123? H 1.0744 0.7059 0.3077
H124? H 0.9342 0.6286 0.2980
C75? C 0.9365(10) 0.7795(7) 0.3378(4)
H125? H 0.8522 0.7552 0.3506
H126? H 0.9205 0.8025 0.3077
H127? H 0.9654 0.9367 0.3905
loop_
_geom_bond_atom_site_label_1
_geom_bond_atom_site_label_2
_geom_bond_site_symmetry_1
_geom_bond_site_symmetry_2
O1 C1 1_555 1_555
O2 C1 1_555 1_555
O3 H1 1_555 1_555
O4 H2 1_555 1_555
O5 C6 1_555 1_555
C1 C2 1_555 1_555
C2 C3 1_555 1_555
C3 O3 1_555 1_555
H3 C3 1_555 1_555
C4 O4 1_555 1_555
H4 C4 1_555 1_555
C5 C4 1_555 1_555
H5 C5 1_555 1_555
H6 C5 1_555 1_555
C6 C5 1_555 1_555
C7 C6 1_555 1_555
H7 C7 1_555 1_555
H8 C7 1_555 1_555
C8 C7 1_555 1_555
H9 C8 1_555 1_555
H10 C8 1_555 1_555
C9 O1 1_555 1_555
H11 C9 1_555 1_555
C10 C9 1_555 1_555
H12 C10 1_555 1_555
H13 C10 1_555 1_555
H14 C10 1_555 1_555
C11 C2 1_555 1_555
H15 C11 1_555 1_555
H16 C11 1_555 1_555
H17 C11 1_555 1_555
C12 C2 1_555 1_555
H18 C12 1_555 1_555
H19 C12 1_555 1_555
H20 C12 1_555 1_555
O6 C13 1_555 1_555
O7 C13 1_555 1_555
O8 H21 1_555 1_555
O9 H22 1_555 1_555
O10 C18 1_555 1_555
C13 C14 1_555 1_555
C14 C15 1_555 1_555
C15 O8 1_555 1_555
H23 C15 1_555 1_555
C16 O9 1_555 1_555
H24 C16 1_555 1_555
C17 C16 1_555 1_555
H25 C17 1_555 1_555
H26 C17 1_555 1_555
C18 C17 1_555 1_555
C19 C18 1_555 1_555
H27 C19 1_555 1_555
H28 C19 1_555 1_555
C20 C19 1_555 1_555
H29 C20 1_555 1_555
H30 C20 1_555 1_555
C21 O6 1_555 1_555
H31 C21 1_555 1_555
C22 C21 1_555 1_555
H32 C22 1_555 1_555
H33 C22 1_555 1_555
H34 C22 1_555 1_555
C23 C14 1_555 1_555
H35 C23 1_555 1_555
H36 C23 1_555 1_555
H37 C23 1_555 1_555
C24 C14 1_555 1_555
H38 C24 1_555 1_555
H39 C24 1_555 1_555
H40 C24 1_555 1_555
O11 C25 1_555 1_555
O12 C25 1_555 1_555
O13 H41 1_555 1_555
O14 H42 1_555 1_555
O15 C30 1_555 1_555
C25 C26 1_555 1_555
C26 C27 1_555 1_555
C27 O13 1_555 1_555
H43 C27 1_555 1_555
C28 O14 1_555 1_555
H44 C28 1_555 1_555
C29 C28 1_555 1_555
H45 C29 1_555 1_555
H46 C29 1_555 1_555
C30 C29 1_555 1_555
C31 C30 1_555 1_555
H47 C31 1_555 1_555
H48 C31 1_555 1_555
C32 C31 1_555 1_555
H49 C32 1_555 1_555
H50 C32 1_555 1_555
C33 O11 1_555 1_555
H51 C33 1_555 1_555
C34 C33 1_555 1_555
H52 C34 1_555 1_555
H53 C34 1_555 1_555
H54 C34 1_555 1_555
C35 C26 1_555 1_555
H55 C35 1_555 1_555
H56 C35 1_555 1_555
H57 C35 1_555 1_555
C36 C26 1_555 1_555
H58 C36 1_555 1_555
H59 C36 1_555 1_555
H60 C36 1_555 1_555
O16 C37 1_555 1_555
O17 C37 1_555 1_555
O18 H61 1_555 1_555
O19 H62 1_555 1_555
O20 C42 1_555 1_555
C37 C38 1_555 1_555
C38 C39 1_555 1_555
C39 O18 1_555 1_555
H63 C39 1_555 1_555
C40 O19 1_555 1_555
H64 C40 1_555 1_555
C41 C40 1_555 1_555
H65 C41 1_555 1_555
H66 C41 1_555 1_555
C42 C41 1_555 1_555
C43 C42 1_555 1_555
H67 C43 1_555 1_555
H68 C43 1_555 1_555
C44 C43 1_555 1_555
H69 C44 1_555 1_555
H70 C44 1_555 1_555
C45 O16 1_555 1_555
H71 C45 1_555 1_555
C46 C45 1_555 1_555
H72 C46 1_555 1_555
H73 C46 1_555 1_555
H74 C46 1_555 1_555
C47 C38 1_555 1_555
H75 C47 1_555 1_555
H76 C47 1_555 1_555
H77 C47 1_555 1_555
C48 C38 1_555 1_555
H78 C48 1_555 1_555
H79 C48 1_555 1_555
H80 C48 1_555 1_555
O21 C49 1_555 1_555
O22 C49 1_555 1_555
O23 H81 1_555 1_555
O24 H82 1_555 1_555
O25 C54 1_555 1_555
C49 C50 1_555 1_555
C50 C51 1_555 1_555
C51 O23 1_555 1_555
H83 C51 1_555 1_555
C52 O24 1_555 1_555
H84 C52 1_555 1_555
C53 C52 1_555 1_555
H85 C53 1_555 1_555
H86 C53 1_555 1_555
C54 C53 1_555 1_555
C55 C54 1_555 1_555
H87 C55 1_555 1_555
H88 C55 1_555 1_555
C56 C55 1_555 1_555
H89 C56 1_555 1_555
H90 C56 1_555 1_555
C57 O21 1_555 1_555
H91 C57 1_555 1_555
C58 C57 1_555 1_555
H92 C58 1_555 1_555
H93 C58 1_555 1_555
H94 C58 1_555 1_555
C59 C50 1_555 1_555
H95 C59 1_555 1_555
H96 C59 1_555 1_555
H97 C59 1_555 1_555
C60 C50 1_555 1_555
H98 C60 1_555 1_555
H99 C60 1_555 1_555
H100 C60 1_555 1_555
O26 C61 1_555 1_555
O27 C61 1_555 1_555
O28 H101 1_555 1_555
O29 H102 1_555 1_555
O30 C66 1_555 1_555
C61 C62 1_555 1_555
C62 C63 1_555 1_555
C63 O28 1_555 1_555
H103 C63 1_555 1_555
C64 O29 1_555 1_555
H104 C64 1_555 1_555
C65 C64 1_555 1_555
H105 C65 1_555 1_555
H106 C65 1_555 1_555
C66 C65 1_555 1_555
C67 C66 1_555 1_555
H107 C67 1_555 1_555
H108 C67 1_555 1_555
C68 C67 1_555 1_555
H109 C68 1_555 1_555
H110 C68 1_555 1_555
C69 O26 1_555 1_555
H111 C69 1_555 1_555
C70 C69 1_555 1_555
H112 C70 1_555 1_555
H113 C70 1_555 1_555
H114 C70 1_555 1_555
C71 C62 1_555 1_555
H115 C71 1_555 1_555
H116 C71 1_555 1_555
H117 C71 1_555 1_555
C72 C62 1_555 1_555
H118 C72 1_555 1_555
H119 C72 1_555 1_555
H120 C72 1_555 1_555
O32 H128 1_555 1_555
H129 O32 1_555 1_555
O33 H130 1_555 1_555
H131 O33 1_555 1_555
O34 H132 1_555 1_555
H133 O34 1_555 1_555
C3 C4 1_555 1_555
C8 C9 1_555 1_555
C15 C16 1_555 1_555
C20 C21 1_555 1_555
C27 C28 1_555 1_555
C32 C33 1_555 1_555
C39 C40 1_555 1_555
C44 C45 1_555 1_555
C51 C52 1_555 1_555
C56 C57 1_555 1_555
C63 C64 1_555 1_555
C68 C69 1_555 1_555

#END
