
#######################################################################
#
#                 Cambridge Crystallographic Data Centre
#                                CCDC 
#
#######################################################################
#
# If this CIF has been generated from an entry in the Cambridge 
# Structural Database, then it will include bibliographic, chemical, 
# crystal, experimental, refinement or atomic coordinate data resulting 
# from the CCDC's data processing and validation procedures.
#
#######################################################################

data_UPIDED
_chemical_formula_moiety         'C4 H4 N8'
_chemical_name_systematic        1,1'-Diazene-1,2-diylbis(1H-1,2,3-triazole)
_symmetry_cell_setting           monoclinic
_symmetry_space_group_name_H-M   'P 21/n'
_symmetry_Int_Tables_number      14
_space_group_name_Hall           '-P 2yn'
loop_
_symmetry_equiv_pos_site_id
_symmetry_equiv_pos_as_xyz
1 x,y,z
2 1/2-x,1/2+y,1/2-z
3 -x,-y,-z
4 1/2+x,1/2-y,1/2+z
_cell_length_a                   7.488(5)
_cell_length_b                   5.266(2)
_cell_length_c                   9.131(6)
_cell_angle_alpha                90
_cell_angle_beta                 112.604(8)
_cell_angle_gamma                90
_cell_volume                     332.394
_exptl_crystal_colour            colorless
_exptl_crystal_description       platelet
_cell_formula_units_Z            2
loop_
_atom_site_label
_atom_site_type_symbol
_atom_site_fract_x
_atom_site_fract_y
_atom_site_fract_z
N1 N 0.74448(10) -0.03026(18) 0.08457(10)
N2 N 0.89416(12) 0.12700(18) 0.16230(11)
N3 N 1.04937(11) -0.01282(18) 0.20524(10)
N4 N 0.56414(11) 0.08188(17) 0.03021(10)
C1 C 0.99860(15) -0.2578(2) 0.15585(12)
C2 C 0.80368(15) -0.2730(2) 0.07851(12)
H1 H 1.0954(19) -0.380(3) 0.1759(15)
H2 H 0.7170(19) -0.399(3) 0.0291(17)
N1B N 0.25552(10) 0.03026(18) -0.08457(10)
N2B N 0.10584(12) -0.12700(18) -0.16230(11)
N3B N -0.04937(11) 0.01282(18) -0.20524(10)
N4B N 0.43586(11) -0.08188(17) -0.03021(10)
C1B C 0.00140(15) 0.2578(2) -0.15585(12)
C2B C 0.19632(15) 0.2730(2) -0.07851(12)
H1B H -0.0954(19) 0.380(3) -0.1759(15)
H2B H 0.2830(19) 0.399(3) -0.0291(17)
loop_
_geom_bond_atom_site_label_1
_geom_bond_atom_site_label_2
_geom_bond_site_symmetry_1
_geom_bond_site_symmetry_2
N1 N2 1_555 1_555
N2 N3 1_555 1_555
N3 C1 1_555 1_555
N4 N1 1_555 1_555
C1 C2 1_555 1_555
C2 N1 1_555 1_555
H1 C1 1_555 1_555
H2 C2 1_555 1_555
N1B N2B 1_555 1_555
N2B N3B 1_555 1_555
N3B C1B 1_555 1_555
N4B N4 1_555 1_555
C1B C2B 1_555 1_555
C2B N1B 1_555 1_555
H1B C1B 1_555 1_555
H2B C2B 1_555 1_555
N1B N4B 1_555 1_555

#END
