
#######################################################################
#
#                 Cambridge Crystallographic Data Centre
#                                CCDC 
#
#######################################################################
#
# If this CIF has been generated from an entry in the Cambridge 
# Structural Database, then it will include bibliographic, chemical, 
# crystal, experimental, refinement or atomic coordinate data resulting 
# from the CCDC's data processing and validation procedures.
#
#######################################################################

data_UPIDEE
_chemical_formula_moiety         'C20 H21 N1 O2'
_chemical_name_systematic        
2-(1-butyl-2,6-dimethylpyridin-4(1H)-ylidene)-1H-indene-1,3(2H)-dione
_symmetry_cell_setting           monoclinic
_symmetry_space_group_name_H-M   'P 21/c'
_symmetry_Int_Tables_number      14
_space_group_name_Hall           '-P 2ybc'
loop_
_symmetry_equiv_pos_site_id
_symmetry_equiv_pos_as_xyz
1 x,y,z
2 -x,1/2+y,1/2-z
3 -x,-y,-z
4 x,1/2-y,1/2+z
_cell_length_a                   9.2347(10)
_cell_length_b                   15.8096(17)
_cell_length_c                   12.1270(10)
_cell_angle_alpha                90
_cell_angle_beta                 113.975(6)
_cell_angle_gamma                90
_cell_volume                     1617.75
_exptl_crystal_colour            red
_exptl_crystal_description       Prism
_cell_formula_units_Z            4
loop_
_atom_site_label
_atom_site_type_symbol
_atom_site_fract_x
_atom_site_fract_y
_atom_site_fract_z
O1 O 0.96435(10) 0.86842(5) 0.04149(8)
O2 O 1.30832(10) 0.64189(5) 0.05270(9)
N1 N 0.86170(11) 0.57572(6) 0.21481(9)
C1 C 1.28869(14) 0.78824(7) -0.00932(11)
C2 C 1.40910(15) 0.79943(8) -0.04782(12)
H1 H 1.4748 0.7548 -0.0477
C3 C 1.42890(16) 0.87994(9) -0.08700(13)
H2 H 1.5084 0.8890 -0.1142
C4 C 1.33151(15) 0.94681(8) -0.08591(12)
H3 H 1.3477 1.0001 -0.1115
C5 C 1.20985(14) 0.93514(8) -0.04691(10)
H4 H 1.1447 0.9797 -0.0459
C6 C 1.18991(13) 0.85478(7) -0.00989(10)
C7 C 1.07082(13) 0.82322(7) 0.03547(10)
C8 C 1.10533(13) 0.73480(7) 0.06533(10)
C9 C 1.23977(14) 0.71072(7) 0.03917(11)
C10 C 1.02275(13) 0.68102(7) 0.11492(10)
C11 C 0.90818(14) 0.71249(7) 0.15429(11)
H5 H 0.8846 0.7700 0.1463
C12 C 0.83096(14) 0.66104(8) 0.20374(10)
C13 C 0.96903(13) 0.54152(7) 0.17534(10)
C14 C 1.04907(14) 0.59284(7) 0.12781(10)
H6 H 1.1230 0.5688 0.1033
C15 C 0.71172(15) 0.69708(8) 0.24596(12)
H7 H 0.6976 0.7563 0.2268
H8 H 0.7490 0.6898 0.3317
H9 H 0.6124 0.6683 0.2064
C16 C 0.99794(15) 0.44793(7) 0.18613(11)
H10 H 1.0699 0.4331 0.1502
H11 H 0.8994 0.4186 0.1453
H12 H 1.0430 0.4322 0.2698
C17 C 0.77383(14) 0.51962(7) 0.26452(11)
H13 H 0.7505 0.5503 0.3247
H14 H 0.8396 0.4714 0.3038
C18 C 0.61964(14) 0.48857(7) 0.16543(11)
H15 H 0.6427 0.4620 0.1023
H16 H 0.5511 0.5367 0.1304
C19 C 0.53278(15) 0.42553(8) 0.21193(11)
H17 H 0.5962 0.3747 0.2394
H18 H 0.5178 0.4498 0.2800
C20 C 0.37248(15) 0.40290(9) 0.11305(12)
H19 H 0.3086 0.4530 0.0876
H20 H 0.3203 0.3625 0.1435
H21 H 0.3874 0.3790 0.0457
loop_
_geom_bond_atom_site_label_1
_geom_bond_atom_site_label_2
_geom_bond_site_symmetry_1
_geom_bond_site_symmetry_2
O1 C7 1_555 1_555
O2 C9 1_555 1_555
N1 C12 1_555 1_555
C1 C2 1_555 1_555
C2 H1 1_555 1_555
C3 C2 1_555 1_555
H2 C3 1_555 1_555
C4 C3 1_555 1_555
H3 C4 1_555 1_555
C5 C4 1_555 1_555
H4 C5 1_555 1_555
C6 C1 1_555 1_555
C7 C6 1_555 1_555
C8 C7 1_555 1_555
C9 C1 1_555 1_555
C10 C8 1_555 1_555
C11 C10 1_555 1_555
H5 C11 1_555 1_555
C12 C11 1_555 1_555
C13 N1 1_555 1_555
C14 C10 1_555 1_555
H6 C14 1_555 1_555
C15 C12 1_555 1_555
H7 C15 1_555 1_555
H8 C15 1_555 1_555
H9 C15 1_555 1_555
C16 C13 1_555 1_555
H10 C16 1_555 1_555
H11 C16 1_555 1_555
H12 C16 1_555 1_555
C17 N1 1_555 1_555
H13 C17 1_555 1_555
H14 C17 1_555 1_555
C18 C17 1_555 1_555
H15 C18 1_555 1_555
H16 C18 1_555 1_555
C19 C18 1_555 1_555
H17 C19 1_555 1_555
H18 C19 1_555 1_555
C20 C19 1_555 1_555
H19 C20 1_555 1_555
H20 C20 1_555 1_555
H21 C20 1_555 1_555
C5 C6 1_555 1_555
C8 C9 1_555 1_555
C13 C14 1_555 1_555

#END
