
#######################################################################
#
#                 Cambridge Crystallographic Data Centre
#                                CCDC 
#
#######################################################################
#
# If this CIF has been generated from an entry in the Cambridge 
# Structural Database, then it will include bibliographic, chemical, 
# crystal, experimental, refinement or atomic coordinate data resulting 
# from the CCDC's data processing and validation procedures.
#
#######################################################################

data_UPIZAW
_chemical_formula_moiety         'C3 H3 N5 O10,0.5(H2 O1)'
_chemical_name_systematic        
'2,2,2-trinitroethyl nitrocarbamate hemihydrate'
_symmetry_cell_setting           monoclinic
_symmetry_space_group_name_H-M   'P 21/c'
_symmetry_Int_Tables_number      14
_space_group_name_Hall           '-P 2ybc'
loop_
_symmetry_equiv_pos_site_id
_symmetry_equiv_pos_as_xyz
1 x,y,z
2 -x,1/2+y,1/2-z
3 -x,-y,-z
4 x,1/2-y,1/2+z
_cell_length_a                   10.8667(11)
_cell_length_b                   12.1727(13)
_cell_length_c                   15.0448(16)
_cell_angle_alpha                90
_cell_angle_beta                 91.473(2)
_cell_angle_gamma                90
_cell_volume                     1989.42
_exptl_crystal_colour            colorless
_exptl_crystal_description       block
_chemical_melting_point          '382 K'
_cell_formula_units_Z            8
loop_
_atom_site_label
_atom_site_type_symbol
_atom_site_fract_x
_atom_site_fract_y
_atom_site_fract_z
O1 O 0.41279(14) 0.55574(14) -0.05901(10)
O2 O 0.41605(15) 0.40560(12) -0.13286(10)
O3 O 0.65249(12) 0.40957(11) -0.24044(8)
O4 O 0.49108(12) 0.46467(13) -0.31659(8)
O5 O 0.36157(13) 0.64914(15) -0.22564(13)
O6 O 0.54063(13) 0.71071(12) -0.26195(9)
O7 O 0.62947(9) 0.67238(10) -0.07743(7)
O8 O 0.82838(10) 0.66700(10) -0.03226(8)
O9 O 0.87606(10) 0.83585(11) 0.07620(7)
O10 O 0.71530(11) 0.92124(11) 0.12156(9)
N1 N 0.44627(12) 0.49810(12) -0.11876(9)
N2 N 0.56273(12) 0.46646(12) -0.25361(8)
N3 N 0.47278(14) 0.64652(13) -0.22678(10)
N4 N 0.68851(11) 0.79374(11) 0.02135(8)
H1 H 0.6101 0.8118 0.0183
N5 N 0.76622(11) 0.85291(11) 0.07640(8)
C1 C 0.53715(13) 0.55060(13) -0.18126(9)
C2 C 0.65694(13) 0.58266(13) -0.13484(10)
H2 H 0.6907 0.5201 -0.1000
H3 H 0.7183 0.6051 -0.1789
C3 C 0.72842(13) 0.70711(13) -0.02930(9)
O11 O 0.96949(10) 0.17176(10) 0.12311(7)
O12 O 0.76887(10) 0.17473(11) 0.08141(8)
O13 O 0.73502(10) 0.31586(12) -0.05275(8)
O14 O 0.90115(12) 0.39576(12) -0.09650(8)
N6 N 1.05602(15) -0.03176(15) 0.29424(10)
O15 O 1.1422(2) -0.0297(2) 0.34641(14)
O16 O 0.9639(6) -0.0875(9) 0.3002(6)
N7 N 1.10520(18) -0.04580(18) 0.13847(12)
O17 O 1.14013(18) -0.13458(16) 0.16215(12)
O18 O 1.0993(8) -0.0110(8) 0.0632(3)
N8 N 1.16411(16) 0.12103(18) 0.22286(12)
O19 O 1.25493(17) 0.11479(19) 0.17846(14)
O20 O 1.1424(6) 0.1905(3) 0.2792(5)
N9 N 0.91722(12) 0.27920(11) 0.01310(8)
H4 H 0.9968 0.2927 0.0147
N10 N 0.84463(12) 0.33327(12) -0.04918(8)
C4 C 1.06323(13) 0.03304(13) 0.20916(9)
C5 C 0.94176(13) 0.08864(13) 0.18636(10)
H5 H 0.8822 0.0352 0.1605
H6 H 0.9062 0.1215 0.2401
C6 C 0.87150(13) 0.20514(13) 0.07299(9)
O27 O 0.53996(12) 0.12442(13) -0.00840(10)
H7 H 0.5669 0.1546 -0.0550
H8 H 0.5930 0.1312 0.0338
N11? N 1.0353(6) -0.0892(5) 0.2410(4)
O21? O 1.1078(6) -0.1606(5) 0.2170(5)
O22? O 0.9449(17) -0.087(3) 0.2874(17)
N12? N 1.1429(6) 0.0134(7) 0.1270(5)
O23? O 1.2449(5) 0.0588(8) 0.1356(6)
O24? O 1.095(2) -0.029(2) 0.0618(11)
N13? N 1.1354(6) 0.0833(6) 0.2800(5)
O25? O 1.1758(7) 0.0240(7) 0.3402(4)
O26? O 1.140(2) 0.1823(10) 0.2667(17)
loop_
_geom_bond_atom_site_label_1
_geom_bond_atom_site_label_2
_geom_bond_site_symmetry_1
_geom_bond_site_symmetry_2
O1 N1 1_555 1_555
O2 N1 1_555 1_555
O3 N2 1_555 1_555
O4 N2 1_555 1_555
O5 N3 1_555 1_555
O6 N3 1_555 1_555
O7 C2 1_555 1_555
O8 C3 1_555 1_555
O9 N5 1_555 1_555
O10 N5 1_555 1_555
N1 C1 1_555 1_555
N2 C1 1_555 1_555
N3 C1 1_555 1_555
N4 H1 1_555 1_555
N5 N4 1_555 1_555
C1 C2 1_555 1_555
C2 H2 1_555 1_555
H3 C2 1_555 1_555
C3 O7 1_555 1_555
O11 C5 1_555 1_555
O12 C6 1_555 1_555
O13 N10 1_555 1_555
O14 N10 1_555 1_555
N6 O15 1_555 1_555
O16 N6 1_555 1_555
N7 O17 1_555 1_555
O18 N7 1_555 1_555
N8 O19 1_555 1_555
O20 N8 1_555 1_555
N9 H4 1_555 1_555
N10 N9 1_555 1_555
C4 N6 1_555 1_555
C5 C4 1_555 1_555
H5 C5 1_555 1_555
H6 C5 1_555 1_555
C6 O11 1_555 1_555
O27 H7 1_555 1_555
H8 O27 1_555 1_555
N4 C3 1_555 1_555
N7 C4 1_555 1_555
N8 C4 1_555 1_555
N9 C6 1_555 1_555

#END
