
#######################################################################
#
#                 Cambridge Crystallographic Data Centre
#                                CCDC 
#
#######################################################################
#
# If this CIF has been generated from an entry in the Cambridge 
# Structural Database, then it will include bibliographic, chemical, 
# crystal, experimental, refinement or atomic coordinate data resulting 
# from the CCDC's data processing and validation procedures.
#
#######################################################################

data_UPULEX
_chemical_name_common            '-CD p-aminobenzoic acid'
_chemical_formula_moiety         'C42 H70 O35,C7 H7 N1 O2,10(H2 O1)'
_chemical_name_systematic        
'\b-cyclodextrin 4-aminobenzoic acid clathrate decahydrate'
_symmetry_cell_setting           monoclinic
_symmetry_space_group_name_H-M   'P 21'
_symmetry_Int_Tables_number      4
_space_group_name_Hall           'P 2yb'
loop_
_symmetry_equiv_pos_site_id
_symmetry_equiv_pos_as_xyz
1 x,y,z
2 -x,1/2+y,-z
_cell_length_a                   20.7890
_cell_length_b                   10.2084
_cell_length_c                   15.1091
_cell_angle_alpha                90
_cell_angle_beta                 110.8250
_cell_angle_gamma                90
_cell_volume                     2997.01
_cell_formula_units_Z            2
loop_
_atom_site_label
_atom_site_type_symbol
_atom_site_fract_x
_atom_site_fract_y
_atom_site_fract_z
O1 O 0.70183 -0.06843 -0.19708
H1 H 0.69973 -0.00390 -0.24548
C1 C 0.70709 -0.00885 -0.11097
H2 H 0.65544 0.03131 -0.12428
H3 H 0.74522 0.07065 -0.08802
C2 C 0.72338 -0.11463 -0.03342
H4 H 0.72485 -0.06960 0.03345
O2 O 0.66795 -0.20892 -0.06568
C3 C 0.67447 -0.31628 -0.00510
H5 H 0.62968 -0.38095 -0.03546
C4 C 0.73993 -0.39247 0.00636
H6 H 0.73713 -0.42984 -0.06317
O3 O 0.74572 -0.50209 0.06922
H7 H 0.70646 -0.55687 0.04420
C5 C 0.80201 -0.30377 0.04485
H8 H 0.80738 -0.27324 0.11695
O4 O 0.86421 -0.37088 0.04849
H9 H 0.87064 -0.44654 0.08744
C6 C 0.79175 -0.18355 -0.01707
H10 H 0.79480 -0.21124 -0.08584
O5 O 0.84700 -0.09324 0.03278
C7 C 0.88638 -0.04080 -0.01795
H11 H 0.87579 -0.09514 -0.08455
O6 O 0.87066 0.09359 -0.03835
C8 C 0.88161 0.17611 0.04478
H12 H 0.85133 0.14041 0.08655
C9 C 0.85732 0.31263 0.00744
H13 H 0.80453 0.30574 -0.04401
H14 H 0.85784 0.37523 0.06699
O7 O 0.90022 0.37199 -0.03831
H15 H 0.88313 0.45693 -0.06049
C10 C 0.95851 0.16788 0.10505
H16 H 0.98915 0.20750 0.06496
O8 O 0.97184 0.24035 0.19196
C11 C 1.01226 0.35522 0.20672
H17 H 1.03497 0.36071 0.15130
O9 O 0.97332 0.46840 0.20052
C12 C 0.94103 0.47109 0.27270
H18 H 0.90852 0.38382 0.26611
C13 C 0.89530 0.59611 0.25252
H19 H 0.86319 0.59823 0.17692
H20 H 0.86216 0.59229 0.29520
O10 O 0.93500 0.71154 0.27514
H21 H 0.90546 0.78578 0.26195
C14 C 0.99702 0.47031 0.36932
H22 H 1.02903 0.55875 0.37784
O11 O 0.96771 0.46530 0.44139
C15 C 0.97267 0.57951 0.49875
H23 H 1.00175 0.65649 0.47829
O12 O 0.90738 0.62642 0.48684
C16 C 0.86360 0.53322 0.50885
H24 H 0.85357 0.44926 0.45998
C17 C 0.79637 0.60518 0.49611
H25 H 0.77374 0.64100 0.42282
H26 H 0.76022 0.53760 0.51104
O13 O 0.80997 0.71405 0.56025
H27 H 0.76822 0.75866 0.55229
C18 C 0.89730 0.48391 0.61016
H28 H 0.89786 0.56289 0.66008
O14 O 0.85893 0.37276 0.62301
C19 C 0.83232 0.37608 0.69896
H29 H 0.85890 0.45295 0.74992
O15 O 0.76227 0.40358 0.66449
C20 C 0.71959 0.31120 0.59702
H30 H 0.73264 0.31135 0.53257
C21 C 0.64741 0.35631 0.57257
H31 H 0.64179 0.45598 0.54288
H32 H 0.61251 0.28924 0.52031
O16 O 0.63135 0.35666 0.65806
H33 H 0.58532 0.38523 0.64384
C22 C 0.73322 0.17170 0.64143
H34 H 0.71321 0.16552 0.69957
O17 O 0.70075 0.07439 0.56861
C23 C 0.63467 0.02545 0.56477
H35 H 0.62130 0.06867 0.62271
O18 O 0.58419 0.06130 0.47903
C24 C 0.59483 0.01038 0.39544
H36 H 0.64679 0.03746 0.39885
C25 C 0.54449 0.07620 0.30796
H37 H 0.55187 0.18246 0.31941
H38 H 0.55983 0.04684 0.24829
O19 O 0.47659 0.05456 0.28085
H39 H 0.45337 0.10352 0.22517
C26 C 0.59206 -0.13841 0.39853
H40 H 0.54085 -0.16985 0.39578
O20 O 0.60791 -0.19484 0.32230
C27 C 0.55289 -0.25080 0.24683
H41 H 0.50705 -0.25704 0.26676
O21 O 0.53754 -0.17402 0.16519
C28 C 0.59421 -0.15332 0.13109
H42 H 0.63808 -0.10684 0.18609
C29 C 0.56767 -0.06273 0.04662
H43 H 0.60898 -0.04945 0.01793
H44 H 0.52349 -0.11099 -0.00668
O22 O 0.54693 0.05922 0.06352
H45 H 0.53126 0.10800 0.00621
C30 C 0.61580 -0.28857 0.10725
H46 H 0.57420 -0.33087 0.04666
O23 O 0.67821 -0.27411 0.08600
C31 C 0.63434 -0.38091 0.19211
H47 H 0.68019 -0.34299 0.24855
O24 O 0.64899 -0.50972 0.16468
H48 H 0.66051 -0.56702 0.21762
C32 C 0.57480 -0.38917 0.22926
H49 H 0.53100 -0.43728 0.17512
O25 O 0.59341 -0.46500 0.31394
H50 H 0.55572 -0.46857 0.33539
C33 C 0.64810 -0.18903 0.48903
H51 H 0.69849 -0.16467 0.48513
O26 O 0.64374 -0.32921 0.49774
H52 H 0.67885 -0.35783 0.55410
C34 C 0.64211 -0.12285 0.57912
H53 H 0.59567 -0.16062 0.58914
O27 O 0.70002 -0.15424 0.66154
H54 H 0.69519 -0.11300 0.71523
C35 C 0.80905 0.13662 0.67632
H55 H 0.82805 0.13086 0.61720
O28 O 0.81740 0.01164 0.72482
H56 H 0.86452 -0.01261 0.74739
C36 C 0.84738 0.24398 0.74697
H57 H 0.82923 0.24402 0.80705
O29 O 0.92082 0.21653 0.78217
H58 H 0.94440 0.28290 0.82582
C37 C 0.96989 0.43511 0.62902
H59 H 0.96757 0.34692 0.58596
O30 O 1.00302 0.40118 0.72723
H60 H 1.04832 0.37094 0.73771
C38 C 1.01005 0.54093 0.60041
H61 H 1.01439 0.62769 0.64550
O31 O 1.07868 0.49282 0.61407
H62 H 1.10380 0.55904 0.59617
C39 C 1.04036 0.34814 0.38020
H63 H 1.00769 0.26132 0.37469
O32 O 1.09605 0.34567 0.47013
H64 H 1.12224 0.26789 0.47478
C40 C 1.07013 0.34439 0.30205
H65 H 1.10423 0.42971 0.31086
O33 O 1.10987 0.22851 0.30569
H66 H 1.12741 0.23038 0.25563
C41 C 0.97876 0.02624 0.13393
H67 H 0.95007 -0.01025 0.17758
O34 O 1.05172 0.01800 0.18693
H68 H 1.06387 -0.07064 0.20465
C42 C 0.96167 -0.05612 0.04442
H69 H 0.99358 -0.02060 0.00495
O35 O 0.97604 -0.19314 0.06434
H70 H 0.96461 -0.24033 0.00655
C43 C 0.87766 0.16655 0.32714
C44 C 0.86199 0.20225 0.41638
C45 C 0.78753 0.23033 0.40880
C46 C 0.72861 0.22011 0.31232
C47 C 0.74413 0.18171 0.22344
C48 C 0.81870 0.15589 0.23071
N1 N 0.91977 0.21203 0.51104
H71 H 0.94242 0.11322 0.53272
H72 H 0.95987 0.27972 0.50522
H73 H 0.89941 0.25010 0.56472
C49 C 0.68506 0.16897 0.12732
O36 O 0.61430 0.21990 0.11569
O37 O 0.69806 0.10637 0.04451
H74 H 0.67345 0.24033 0.30675
H75 H 0.77603 0.25830 0.47469
H76 H 0.83023 0.12846 0.16476
H77 H 0.93288 0.14729 0.33257
O38 O 1.18574 0.32994 0.68137
O39 O 0.61311 -0.12225 0.72357
O40 O 1.33848 -0.24412 0.20553
O41 O 0.31412 -0.01420 0.16199
O42 O 0.24419 0.09033 0.25863
O43 O 1.27443 0.45866 0.62795
O44 O 0.64828 0.34114 -0.06691
O45 O 0.50561 0.13719 0.51450
O46 O 0.90595 -0.32255 -0.11031
O47 O 0.50144 -0.68387 0.17339
loop_
_geom_bond_atom_site_label_1
_geom_bond_atom_site_label_2
_geom_bond_site_symmetry_1
_geom_bond_site_symmetry_2
O1 H1 1_555 1_555
C1 O1 1_555 1_555
H2 C1 1_555 1_555
H3 C1 1_555 1_555
C2 C1 1_555 1_555
H4 C2 1_555 1_555
O2 C2 1_555 1_555
C3 O2 1_555 1_555
H5 C3 1_555 1_555
C4 C3 1_555 1_555
H6 C4 1_555 1_555
O3 C4 1_555 1_555
H7 O3 1_555 1_555
C5 C4 1_555 1_555
H8 C5 1_555 1_555
O4 C5 1_555 1_555
H9 O4 1_555 1_555
C6 C2 1_555 1_555
H10 C6 1_555 1_555
O5 C6 1_555 1_555
C7 O5 1_555 1_555
H11 C7 1_555 1_555
O6 C7 1_555 1_555
C8 O6 1_555 1_555
H12 C8 1_555 1_555
C9 C8 1_555 1_555
H13 C9 1_555 1_555
H14 C9 1_555 1_555
O7 C9 1_555 1_555
H15 O7 1_555 1_555
C10 C8 1_555 1_555
H16 C10 1_555 1_555
O8 C10 1_555 1_555
C11 O8 1_555 1_555
H17 C11 1_555 1_555
O9 C11 1_555 1_555
C12 O9 1_555 1_555
H18 C12 1_555 1_555
C13 C12 1_555 1_555
H19 C13 1_555 1_555
H20 C13 1_555 1_555
O10 C13 1_555 1_555
H21 O10 1_555 1_555
C14 C12 1_555 1_555
H22 C14 1_555 1_555
O11 C14 1_555 1_555
C15 O11 1_555 1_555
H23 C15 1_555 1_555
O12 C15 1_555 1_555
C16 O12 1_555 1_555
H24 C16 1_555 1_555
C17 C16 1_555 1_555
H25 C17 1_555 1_555
H26 C17 1_555 1_555
O13 C17 1_555 1_555
H27 O13 1_555 1_555
C18 C16 1_555 1_555
H28 C18 1_555 1_555
O14 C18 1_555 1_555
C19 O14 1_555 1_555
H29 C19 1_555 1_555
O15 C19 1_555 1_555
C20 O15 1_555 1_555
H30 C20 1_555 1_555
C21 C20 1_555 1_555
H31 C21 1_555 1_555
H32 C21 1_555 1_555
O16 C21 1_555 1_555
H33 O16 1_555 1_555
C22 C20 1_555 1_555
H34 C22 1_555 1_555
O17 C22 1_555 1_555
C23 O17 1_555 1_555
H35 C23 1_555 1_555
O18 C23 1_555 1_555
C24 O18 1_555 1_555
H36 C24 1_555 1_555
C25 C24 1_555 1_555
H37 C25 1_555 1_555
H38 C25 1_555 1_555
O19 C25 1_555 1_555
H39 O19 1_555 1_555
C26 C24 1_555 1_555
H40 C26 1_555 1_555
O20 C26 1_555 1_555
C27 O20 1_555 1_555
H41 C27 1_555 1_555
O21 C27 1_555 1_555
C28 O21 1_555 1_555
H42 C28 1_555 1_555
C29 C28 1_555 1_555
H43 C29 1_555 1_555
H44 C29 1_555 1_555
O22 C29 1_555 1_555
H45 O22 1_555 1_555
C30 C28 1_555 1_555
H46 C30 1_555 1_555
O23 C3 1_555 1_555
C31 C30 1_555 1_555
H47 C31 1_555 1_555
O24 C31 1_555 1_555
H48 O24 1_555 1_555
C32 C27 1_555 1_555
H49 C32 1_555 1_555
O25 C32 1_555 1_555
H50 O25 1_555 1_555
C33 C26 1_555 1_555
H51 C33 1_555 1_555
O26 C33 1_555 1_555
H52 O26 1_555 1_555
C34 C23 1_555 1_555
H53 C34 1_555 1_555
O27 C34 1_555 1_555
H54 O27 1_555 1_555
C35 C22 1_555 1_555
H55 C35 1_555 1_555
O28 C35 1_555 1_555
H56 O28 1_555 1_555
C36 C19 1_555 1_555
H57 C36 1_555 1_555
O29 C36 1_555 1_555
H58 O29 1_555 1_555
C37 C18 1_555 1_555
H59 C37 1_555 1_555
O30 C37 1_555 1_555
H60 O30 1_555 1_555
C38 C15 1_555 1_555
H61 C38 1_555 1_555
O31 C38 1_555 1_555
H62 O31 1_555 1_555
C39 C14 1_555 1_555
H63 C39 1_555 1_555
O32 C39 1_555 1_555
H64 O32 1_555 1_555
C40 C11 1_555 1_555
H65 C40 1_555 1_555
O33 C40 1_555 1_555
H66 O33 1_555 1_555
C41 C10 1_555 1_555
H67 C41 1_555 1_555
O34 C41 1_555 1_555
H68 O34 1_555 1_555
C42 C7 1_555 1_555
H69 C42 1_555 1_555
O35 C42 1_555 1_555
H70 O35 1_555 1_555
C43 C44 1_555 1_555
C44 C45 1_555 1_555
C45 C46 1_555 1_555
C46 C47 1_555 1_555
C47 C48 1_555 1_555
C48 C43 1_555 1_555
N1 C44 1_555 1_555
H71 N1 1_555 1_555
H72 N1 1_555 1_555
H73 N1 1_555 1_555
C49 C47 1_555 1_555
O36 C49 1_555 1_555
O37 C49 1_555 1_555
H74 C46 1_555 1_555
H75 C45 1_555 1_555
H76 C48 1_555 1_555
H77 C43 1_555 1_555
C5 C6 1_555 1_555
C30 O23 1_555 1_555
C31 C32 1_555 1_555
C33 C34 1_555 1_555
C35 C36 1_555 1_555
C37 C38 1_555 1_555
C39 C40 1_555 1_555
C41 C42 1_555 1_555

#END
