
#######################################################################
#
#                 Cambridge Crystallographic Data Centre
#                                CCDC 
#
#######################################################################
#
# If this CIF has been generated from an entry in the Cambridge 
# Structural Database, then it will include bibliographic, chemical, 
# crystal, experimental, refinement or atomic coordinate data resulting 
# from the CCDC's data processing and validation procedures.
#
#######################################################################

data_UPUPOM
_chemical_name_common            
5-(4-Diphenylamino-2,6-dimethoxyphenyl)benzo[c][1,2,5]thiadiazole
_chemical_formula_moiety         'C26 H21 N3 O2 S1'
_chemical_name_systematic        
4-(2,1,3-benzothiadiazol-5-yl)-3,5-dimethoxy-N,N-diphenylaniline
_symmetry_cell_setting           triclinic
_symmetry_space_group_name_H-M   'P -1'
_symmetry_Int_Tables_number      2
_space_group_name_Hall           '-P 1'
loop_
_symmetry_equiv_pos_site_id
_symmetry_equiv_pos_as_xyz
1 x,y,z
2 -x,-y,-z
_cell_length_a                   11.2770(5)
_cell_length_b                   11.7982(5)
_cell_length_c                   17.6321(4)
_cell_angle_alpha                93.230(3)
_cell_angle_beta                 90.383(3)
_cell_angle_gamma                113.527(4)
_cell_volume                     2146.4
_exptl_crystal_colour            yellow
_exptl_crystal_description       needle
_cell_formula_units_Z            4
_exptl_crystal_recrystallization_method ethanol
_exptl_crystal_preparation       
'Crystals were grown by slowly cooling a hot ethanol solution.'
loop_
_atom_site_label
_atom_site_type_symbol
_atom_site_fract_x
_atom_site_fract_y
_atom_site_fract_z
S1 S 0.09448(4) 0.73315(4) -0.01503(2)
O1 O 0.19215(12) 0.28935(11) 0.10217(6)
O2 O 0.13896(12) 0.49050(11) 0.32902(6)
N1 N -0.01430(14) 0.68732(13) 0.04856(8)
N2 N 0.18962(14) 0.66765(13) 0.00844(8)
N3 N 0.30929(14) 0.17329(12) 0.34162(8)
C1 C 0.13672(16) 0.60266(14) 0.06918(9)
C2 C 0.02019(16) 0.61405(14) 0.09215(9)
C3 C -0.04725(16) 0.55049(15) 0.15478(9)
H1 H -0.1252 0.5563 0.1704
C4 C 0.00335(15) 0.48073(14) 0.19194(9)
H2 H -0.0415 0.4372 0.2337
C5 C 0.12149(15) 0.47016(14) 0.17064(9)
C6 C 0.18657(16) 0.52954(14) 0.10951(9)
H3 H 0.2639 0.5219 0.0943
C7 C 0.17007(15) 0.39292(14) 0.21529(9)
C8 C 0.17882(15) 0.40459(14) 0.29523(9)
C9 C 0.22458(16) 0.33320(14) 0.33719(9)
H4 H 0.2284 0.3423 0.3911
C10 C 0.26478(15) 0.24837(14) 0.29964(9)
C11 C 0.25845(15) 0.23456(14) 0.22059(9)
H5 H 0.2876 0.1781 0.1948
C12 C 0.20889(16) 0.30436(14) 0.17963(9)
C13 C 0.37997(16) 0.21882(14) 0.41154(9)
C14 C 0.47355(16) 0.33909(15) 0.42142(9)
H6 H 0.4905 0.3929 0.3810
C15 C 0.54237(17) 0.38091(16) 0.49017(10)
H7 H 0.6046 0.4639 0.4968
C16 C 0.52145(18) 0.30298(17) 0.54950(10)
H8 H 0.5693 0.3319 0.5963
C17 C 0.43003(18) 0.18305(17) 0.53929(9)
H9 H 0.4165 0.1284 0.5790
C18 C 0.35747(17) 0.14093(16) 0.47178(9)
H10 H 0.2924 0.0591 0.4664
C19 C 0.28529(16) 0.05013(14) 0.31322(8)
C20 C 0.38139(16) 0.00457(15) 0.32125(9)
H11 H 0.4634 0.0566 0.3436
C21 C 0.35690(17) -0.11646(16) 0.29662(9)
H12 H 0.4219 -0.1475 0.3033
C22 C 0.23859(18) -0.19301(15) 0.26229(9)
H13 H 0.2222 -0.2760 0.2455
C23 C 0.14458(17) -0.14650(16) 0.25281(9)
H14 H 0.0640 -0.1976 0.2284
C24 C 0.16681(16) -0.02616(15) 0.27863(9)
H15 H 0.1011 0.0041 0.2727
C25 C 0.12107(17) 0.48834(16) 0.40902(9)
H16 H 0.2044 0.5088 0.4355
H17 H 0.0606 0.4055 0.4213
H18 H 0.0860 0.5492 0.4252
C26 C 0.22514(17) 0.19692(15) 0.06310(9)
H19 H 0.1783 0.1168 0.0846
H20 H 0.3185 0.2197 0.0689
H21 H 0.2012 0.1909 0.0090
S2 S 0.47594(4) 0.78843(4) 0.14027(2)
O3 O 0.51685(11) 0.20766(10) 0.12145(6)
O4 O 0.73207(11) 0.51744(10) 0.31077(6)
N4 N 0.54142(14) 0.73727(13) 0.07278(8)
N5 N 0.46508(14) 0.69354(12) 0.20541(8)
N6 N 0.77861(14) 0.12484(13) 0.31215(7)
C27 C 0.83000(19) 0.57044(17) 0.36893(11)
H22 H 0.8066 0.5198 0.4130
H23 H 0.8383 0.6546 0.3839
H24 H 0.9126 0.5734 0.3499
C28 C 0.4921(2) 0.09134(17) 0.08242(11)
H25 H 0.5744 0.0848 0.0716
H26 H 0.4442 0.0845 0.0346
H27 H 0.4407 0.0245 0.1142
C29 C 0.51447(15) 0.61496(14) 0.17533(9)
C30 C 0.55861(15) 0.63988(14) 0.09951(9)
C31 C 0.61603(16) 0.56598(15) 0.06134(9)
H28 H 0.6443 0.5804 0.0108
C32 C 0.62935(16) 0.47433(15) 0.09904(9)
H29 H 0.6664 0.4237 0.0737
C33 C 0.58915(15) 0.45104(14) 0.17636(9)
C34 C 0.52993(15) 0.51855(14) 0.21333(9)
H30 H 0.4999 0.5012 0.2633
C35 C 0.62595(15) 0.36160(14) 0.21608(9)
C36 C 0.70483(15) 0.39900(14) 0.28228(9)
C37 C 0.75611(15) 0.32284(15) 0.31454(9)
H31 H 0.8111 0.3516 0.3587
C38 C 0.72641(16) 0.20402(15) 0.28165(9)
C39 C 0.64416(15) 0.16198(14) 0.21713(9)
H32 H 0.6207 0.0800 0.1956
C40 C 0.59700(15) 0.24103(14) 0.18479(9)
C41 C 0.82231(16) 0.14095(14) 0.38919(9)
C42 C 0.75202(18) 0.16957(15) 0.44679(9)
H33 H 0.6730 0.1763 0.4345
C43 C 0.79745(19) 0.18813(15) 0.52165(10)
H34 H 0.7503 0.2095 0.5603
C44 C 0.91101(19) 0.17573(16) 0.54072(10)
H35 H 0.9415 0.1883 0.5922
C45 C 0.97955(19) 0.14493(16) 0.48424(11)
H36 H 1.0566 0.1349 0.4972
C46 C 0.93668(17) 0.12846(15) 0.40870(10)
H37 H 0.9852 0.1087 0.3703
C47 C 0.80974(16) 0.04234(15) 0.26135(9)
C48 C 0.77623(16) -0.08024(15) 0.27883(10)
H38 H 0.7336 -0.1085 0.3246
C49 C 0.80499(17) -0.16100(16) 0.22953(10)
H39 H 0.7836 -0.2439 0.2423
C50 C 0.86503(18) -0.12123(17) 0.16148(10)
H40 H 0.8831 -0.1769 0.1272
C51 C 0.89812(17) 0.00088(17) 0.14437(10)
H41 H 0.9387 0.0284 0.0979
C52 C 0.87287(16) 0.08311(16) 0.19408(9)
H42 H 0.8985 0.1671 0.1824
loop_
_geom_bond_atom_site_label_1
_geom_bond_atom_site_label_2
_geom_bond_site_symmetry_1
_geom_bond_site_symmetry_2
S1 N1 1_555 1_555
O1 C12 1_555 1_555
O2 C8 1_555 1_555
N1 C2 1_555 1_555
N2 S1 1_555 1_555
N3 C10 1_555 1_555
C1 N2 1_555 1_555
C2 C1 1_555 1_555
C3 C2 1_555 1_555
H1 C3 1_555 1_555
C4 C3 1_555 1_555
H2 C4 1_555 1_555
C5 C4 1_555 1_555
C6 C1 1_555 1_555
H3 C6 1_555 1_555
C7 C5 1_555 1_555
C8 C7 1_555 1_555
C9 C8 1_555 1_555
H4 C9 1_555 1_555
C10 C9 1_555 1_555
C11 C10 1_555 1_555
H5 C11 1_555 1_555
C12 C7 1_555 1_555
C13 N3 1_555 1_555
C14 C13 1_555 1_555
H6 C14 1_555 1_555
C15 C14 1_555 1_555
H7 C15 1_555 1_555
C16 C15 1_555 1_555
H8 C16 1_555 1_555
C17 C16 1_555 1_555
H9 C17 1_555 1_555
C18 C13 1_555 1_555
H10 C18 1_555 1_555
C19 N3 1_555 1_555
C20 C19 1_555 1_555
H11 C20 1_555 1_555
C21 C20 1_555 1_555
H12 C21 1_555 1_555
C22 C21 1_555 1_555
H13 C22 1_555 1_555
C23 C22 1_555 1_555
H14 C23 1_555 1_555
C24 C19 1_555 1_555
H15 C24 1_555 1_555
C25 O2 1_555 1_555
H16 C25 1_555 1_555
H17 C25 1_555 1_555
H18 C25 1_555 1_555
C26 O1 1_555 1_555
H19 C26 1_555 1_555
H20 C26 1_555 1_555
H21 C26 1_555 1_555
S2 N4 1_555 1_555
O3 C28 1_555 1_555
O4 C27 1_555 1_555
N4 C30 1_555 1_555
N5 S2 1_555 1_555
N6 C38 1_555 1_555
C27 H22 1_555 1_555
H23 C27 1_555 1_555
H24 C27 1_555 1_555
C28 H25 1_555 1_555
H26 C28 1_555 1_555
H27 C28 1_555 1_555
C29 N5 1_555 1_555
C30 C29 1_555 1_555
C31 C30 1_555 1_555
H28 C31 1_555 1_555
C32 C31 1_555 1_555
H29 C32 1_555 1_555
C33 C32 1_555 1_555
C34 C29 1_555 1_555
H30 C34 1_555 1_555
C35 C33 1_555 1_555
C36 O4 1_555 1_555
C37 C36 1_555 1_555
H31 C37 1_555 1_555
C38 C37 1_555 1_555
C39 C38 1_555 1_555
H32 C39 1_555 1_555
C40 O3 1_555 1_555
C41 N6 1_555 1_555
C42 C41 1_555 1_555
H33 C42 1_555 1_555
C43 C42 1_555 1_555
H34 C43 1_555 1_555
C44 C43 1_555 1_555
H35 C44 1_555 1_555
C45 C44 1_555 1_555
H36 C45 1_555 1_555
C46 C41 1_555 1_555
H37 C46 1_555 1_555
C47 N6 1_555 1_555
C48 C47 1_555 1_555
H38 C48 1_555 1_555
C49 C48 1_555 1_555
H39 C49 1_555 1_555
C50 C49 1_555 1_555
H40 C50 1_555 1_555
C51 C50 1_555 1_555
H41 C51 1_555 1_555
C52 C47 1_555 1_555
H42 C52 1_555 1_555
C5 C6 1_555 1_555
C11 C12 1_555 1_555
C17 C18 1_555 1_555
C23 C24 1_555 1_555
C33 C34 1_555 1_555
C35 C36 1_555 1_555
C35 C40 1_555 1_555
C39 C40 1_555 1_555
C45 C46 1_555 1_555
C51 C52 1_555 1_555

#END
