
#######################################################################
#
#                 Cambridge Crystallographic Data Centre
#                                CCDC 
#
#######################################################################
#
# If this CIF has been generated from an entry in the Cambridge 
# Structural Database, then it will include bibliographic, chemical, 
# crystal, experimental, refinement or atomic coordinate data resulting 
# from the CCDC's data processing and validation procedures.
#
#######################################################################

data_UPUTUW
_chemical_name_common            
'tetrahexylammonium benzo-tetrathiafulvalene-calix[4]pyrrole C70fullerene chloride pentane dichloromethane solvate'
_chemical_formula_moiety         
'C24 H52 N1 1+,C70,C60 H44 N4 S16,Cl1 1-,2(C1 H2 Cl2),2(C5 H12)'
_chemical_name_systematic        
'tetrahexylammonium 22,30-bis(1,3-benzodithiol-2-ylidene)-6,14-bis(1,3-benzodithiol-2-ylidene)-2,2,10,10,18,18,26,26-octamethyl-5,7,13,15,21,23,29,31-octathia-33,34,35,36-tetraazanonacyclo[25.5.1.1^3,9^.1^11,17^.1^19,25^.0^4,8^.0^12,16^.0^20,24^.0^28,32^]hexatriaconta-1(32),3,8,11,16,19,24,27-octaene C70fullerene chloride pentane dichloromethane solvate'
_symmetry_cell_setting           monoclinic
_symmetry_space_group_name_H-M   'P 21/n'
_symmetry_Int_Tables_number      14
_space_group_name_Hall           '-P 2yn'
loop_
_symmetry_equiv_pos_site_id
_symmetry_equiv_pos_as_xyz
1 x,y,z
2 1/2-x,1/2+y,1/2-z
3 -x,-y,-z
4 1/2+x,1/2-y,1/2+z
_cell_length_a                   21.845(4)
_cell_length_b                   21.527(4)
_cell_length_c                   29.676(6)
_cell_angle_alpha                90
_cell_angle_beta                 106.20(3)
_cell_angle_gamma                90
_cell_volume                     13401.2
_exptl_crystal_colour            'dark brown'
_exptl_crystal_description       Block
_cell_formula_units_Z            4
_exptl_crystal_recrystallization_method dichloromethane/pentane
loop_
_atom_site_label
_atom_site_type_symbol
_atom_site_fract_x
_atom_site_fract_y
_atom_site_fract_z
Cl1 Cl 0.93517(8) 0.12348(9) 0.03093(6)
C1 C 0.8477(3) 0.0637(3) 0.1316(2)
C2 C 0.8144(3) 0.0814(3) 0.1630(2)
C3 C 0.8091(3) 0.1474(3) 0.1615(2)
C4 C 0.8377(3) 0.1692(3) 0.1288(2)
C5 C 0.7618(3) 0.1115(4) 0.2274(3)
C6 C 0.7444(3) 0.1116(4) 0.2668(3)
C7 C 0.7504(4) 0.0849(5) 0.3524(3)
C8 C 0.7445(4) 0.1490(5) 0.3490(3)
C9 C 0.7506(4) 0.1851(6) 0.3885(3)
H1 H 0.7460 0.2280 0.3858
C10 C 0.7633(5) 0.1579(8) 0.4316(4)
H2 H 0.7672 0.1819 0.4583
C11 C 0.7702(5) 0.0932(8) 0.4352(4)
H3 H 0.7790 0.0747 0.4646
C12 C 0.7643(4) 0.0563(6) 0.3960(3)
H4 H 0.7696 0.0135 0.3988
C13 C 0.8644(3) -0.0001(3) 0.1159(3)
C14 C 0.8301(3) -0.0497(3) 0.1386(3)
H5 H 0.8441 -0.0458 0.1721
H6 H 0.8402 -0.0905 0.1297
H7 H 0.7848 -0.0435 0.1278
C15 C 0.8406(4) -0.0062(4) 0.0632(3)
H8 H 0.7949 -0.0044 0.0536
H9 H 0.8545 -0.0452 0.0538
H10 H 0.8575 0.0272 0.0488
C16 C 0.9357(3) -0.0118(3) 0.1327(2)
C17 C 0.9728(3) -0.0517(3) 0.1660(2)
C18 C 1.0368(3) -0.0476(3) 0.1636(2)
C19 C 1.0393(3) -0.0048(3) 0.1304(2)
C20 C 1.0381(3) -0.1222(3) 0.2319(2)
C21 C 1.0596(3) -0.1505(3) 0.2739(2)
C22 C 1.0728(4) -0.1770(3) 0.3608(3)
C23 C 1.1344(4) -0.1741(3) 0.3563(2)
C24 C 1.1862(4) -0.1770(3) 0.3950(2)
H11 H 1.2271 -0.1754 0.3912
C25 C 1.1788(5) -0.1820(4) 0.4393(3)
H12 H 1.2139 -0.1833 0.4656
C26 C 1.1165(5) -0.1852(4) 0.4438(3)
H13 H 1.1109 -0.1897 0.4735
C27 C 1.0644(5) -0.1820(4) 0.4062(3)
H14 H 1.0237 -0.1832 0.4103
C28 C 1.0947(3) 0.0183(3) 0.1119(2)
C29 C 1.0761(3) 0.0138(4) 0.0588(2)
H15 H 1.1114 0.0267 0.0476
H16 H 1.0402 0.0403 0.0457
H17 H 1.0652 -0.0283 0.0494
C30 C 1.1534(3) -0.0227(4) 0.1321(3)
H18 H 1.1668 -0.0187 0.1657
H19 H 1.1873 -0.0098 0.1195
H20 H 1.1428 -0.0653 0.1239
C31 C 1.1124(3) 0.0861(3) 0.1274(2)
C32 C 1.1642(3) 0.1115(3) 0.1596(2)
C33 C 1.1583(3) 0.1768(3) 0.1580(2)
C34 C 1.1015(3) 0.1913(3) 0.1237(2)
C35 C 1.2590(3) 0.1553(4) 0.2246(2)
C36 C 1.3053(3) 0.1625(4) 0.2656(2)
C37 C 1.3737(3) 0.1393(5) 0.3505(3)
C38 C 1.3637(3) 0.2043(5) 0.3473(3)
C39 C 1.3816(4) 0.2416(5) 0.3872(3)
H21 H 1.3738 0.2842 0.3855
C40 C 1.4122(4) 0.2124(8) 0.4308(3)
H22 H 1.4251 0.2362 0.4579
C41 C 1.4227(5) 0.1508(8) 0.4331(4)
H23 H 1.4426 0.1329 0.4621
C42 C 1.4041(4) 0.1120(6) 0.3927(3)
H24 H 1.4123 0.0695 0.3948
C43 C 1.0714(3) 0.2535(3) 0.1058(2)
C44 C 1.0514(4) 0.2540(3) 0.0514(2)
H25 H 1.0165 0.2258 0.0398
H26 H 1.0868 0.2414 0.0403
H27 H 1.0385 0.2952 0.0403
C45 C 1.1212(4) 0.3056(3) 0.1221(3)
H28 H 1.1034 0.3443 0.1085
H29 H 1.1584 0.2961 0.1123
H30 H 1.1326 0.3087 0.1557
C46 C 1.0143(3) 0.2678(3) 0.1237(2)
C47 C 1.0044(4) 0.3106(3) 0.1552(2)
C48 C 0.9401(4) 0.3046(3) 0.1566(2)
C49 C 0.9117(3) 0.2592(3) 0.1263(2)
C50 C 0.9939(4) 0.3845(3) 0.2201(2)
C51 C 1.0100(5) 0.4182(3) 0.2610(3)
C52 C 1.0153(7) 0.4499(4) 0.3446(3)
C53 C 1.0802(7) 0.4502(4) 0.3435(3)
C54 C 1.1294(7) 0.4572(4) 0.3837(3)
H31 H 1.1714 0.4565 0.3823
C55 C 1.1164(11) 0.4651(6) 0.4255(4)
H32 H 1.1496 0.4707 0.4527
C56 C 1.0544(11) 0.4648(5) 0.4279(4)
H33 H 1.0475 0.4700 0.4572
C57 C 0.9997(8) 0.4569(4) 0.3883(4)
H34 H 0.9581 0.4564 0.3906
C58 C 0.8423(3) 0.2348(3) 0.1100(3)
C59 C 0.8193(3) 0.2342(4) 0.0561(3)
H35 H 0.8232 0.2751 0.0444
H36 H 0.7755 0.2214 0.0461
H37 H 0.8448 0.2057 0.0442
C60 C 0.8005(4) 0.2791(3) 0.1289(3)
H38 H 0.8134 0.2780 0.1625
H39 H 0.7567 0.2666 0.1174
H40 H 0.8052 0.3206 0.1184
N1 N 0.8599(3) 0.1181(3) 0.1113(2)
H41 H 0.8794 0.1196 0.0899
N2 N 0.9567(3) 0.2377(3) 0.10628(19)
H42 H 0.9501 0.2089 0.0854
N3 N 1.0753(3) 0.1355(3) 0.10637(19)
H43 H 1.0398 0.1317 0.0848
N4 N 0.9777(3) 0.0164(3) 0.11187(19)
H44 H 0.9669 0.0437 0.0900
S1 S 0.77846(9) 0.04219(9) 0.20067(7)
S2 S 0.76825(9) 0.18160(9) 0.19792(7)
S3 S 0.72839(9) 0.18101(11) 0.29285(7)
S4 S 0.73897(10) 0.04369(11) 0.29867(8)
S5 S 0.91562(10) 0.35688(9) 0.19428(7)
S6 S 1.05121(10) 0.36730(8) 0.19122(6)
S7 S 1.08823(13) 0.44282(9) 0.28723(7)
S8 S 0.95498(15) 0.43856(10) 0.29167(8)
S9 S 1.21991(8) 0.22120(9) 0.19399(6)
S10 S 1.23449(8) 0.08232(9) 0.19890(6)
S11 S 1.34682(9) 0.09881(11) 0.29727(7)
S12 S 1.32915(9) 0.23516(11) 0.29110(6)
S13 S 0.95729(8) -0.10609(8) 0.20580(6)
S14 S 1.09167(8) -0.09957(8) 0.19971(6)
S15 S 1.14067(9) -0.16985(9) 0.29870(6)
S16 S 1.00981(9) -0.17153(8) 0.30875(7)
N5 N 1.0186(2) 0.3610(2) -0.25031(18)
C61 C 1.0015(3) 0.3109(3) -0.2203(2)
H45 H 0.9791 0.2782 -0.2408
H46 H 0.9719 0.3284 -0.2047
C62 C 1.0564(3) 0.2816(3) -0.1832(2)
H47 H 1.0755 0.2493 -0.1976
H48 H 1.0886 0.3129 -0.1709
C63 C 1.0350(3) 0.2540(3) -0.1432(2)
H49 H 1.0045 0.2211 -0.1553
H50 H 1.0135 0.2859 -0.1301
C64 C 1.0902(3) 0.2278(4) -0.1043(2)
H51 H 1.1075 0.1920 -0.1163
H52 H 1.1236 0.2589 -0.0956
C65 C 1.0712(4) 0.2087(4) -0.0606(2)
H53 H 1.1097 0.2000 -0.0357
H54 H 1.0502 0.2436 -0.0506
C66 C 1.0276(4) 0.1523(4) -0.0665(3)
H55 H 0.9876 0.1617 -0.0889
H56 H 1.0205 0.1421 -0.0369
H57 H 1.0472 0.1177 -0.0775
C67 C 1.0596(3) 0.4115(3) -0.2201(2)
H58 H 1.1015 0.3942 -0.2057
H59 H 1.0649 0.4449 -0.2406
C68 C 1.0348(3) 0.4395(3) -0.1813(2)
H60 H 0.9984 0.4659 -0.1950
H61 H 1.0211 0.4066 -0.1640
C69 C 1.0871(3) 0.4775(4) -0.1481(2)
H62 H 1.1216 0.4497 -0.1328
H63 H 1.1037 0.5069 -0.1664
C70 C 1.0669(3) 0.5123(3) -0.1112(2)
H64 H 1.0503 0.4829 -0.0928
H65 H 1.0324 0.5402 -0.1264
C71 C 1.1193(4) 0.5499(4) -0.0783(3)
H66 H 1.1514 0.5216 -0.0602
H67 H 1.1394 0.5757 -0.0969
C72 C 1.0969(4) 0.5907(4) -0.0451(3)
H68 H 1.0646 0.6185 -0.0626
H69 H 1.1321 0.6143 -0.0263
H70 H 1.0795 0.5654 -0.0250
C73 C 1.0577(3) 0.3327(3) -0.2803(2)
H71 H 1.0971 0.3168 -0.2596
H72 H 1.0343 0.2976 -0.2972
C74 C 1.0738(4) 0.3764(3) -0.3155(2)
H73 H 1.1071 0.4048 -0.2991
H74 H 1.0365 0.4008 -0.3308
C75 C 1.0962(4) 0.3410(4) -0.3524(3)
H75 H 1.0611 0.3165 -0.3713
H76 H 1.1301 0.3127 -0.3369
C76 C 1.1204(4) 0.3848(4) -0.3843(3)
H77 H 1.0864 0.4132 -0.3995
H78 H 1.1553 0.4093 -0.3652
C77 C 1.1431(4) 0.3513(4) -0.4220(3)
H79 H 1.1072 0.3306 -0.4436
H80 H 1.1741 0.3198 -0.4074
C78 C 1.1733(4) 0.3967(5) -0.4492(3)
H81 H 1.1421 0.4268 -0.4649
H82 H 1.1883 0.3743 -0.4720
H83 H 1.2085 0.4176 -0.4278
C79 C 0.9575(3) 0.3898(3) -0.2807(2)
H84 H 0.9334 0.4056 -0.2601
H85 H 0.9688 0.4251 -0.2970
C80 C 0.9146(3) 0.3485(3) -0.3162(2)
H86 H 0.8915 0.3212 -0.3008
H87 H 0.9400 0.3230 -0.3311
C81 C 0.8671(3) 0.3870(3) -0.3536(2)
H88 H 0.8463 0.4164 -0.3379
H89 H 0.8906 0.4108 -0.3710
C82 C 0.8170(3) 0.3499(3) -0.3876(2)
H90 H 0.7936 0.3258 -0.3702
H91 H 0.8377 0.3209 -0.4037
C83 C 0.7697(4) 0.3894(4) -0.4242(3)
H92 H 0.7925 0.4104 -0.4436
H93 H 0.7519 0.4209 -0.4083
C84 C 0.7151(4) 0.3511(5) -0.4560(3)
H94 H 0.7308 0.3277 -0.4780
H95 H 0.6819 0.3786 -0.4728
H96 H 0.6983 0.3233 -0.4372
C85 C 1.1431(7) 0.4440(8) 0.0360(5)
H97 H 1.1716 0.4337 0.0665
H98 H 1.1578 0.4825 0.0254
Cl2 Cl 1.1444(3) 0.3808(3) -0.0065(2)
Cl3 Cl 1.06857(18) 0.45341(15) 0.04046(13)
Cl4 Cl 1.1949(2) 0.4427(2) 0.16365(14)
Cl5 Cl 1.22840(18) 0.3810(2) 0.25604(15)
C86 C 1.2438(9) 0.4409(8) 0.2206(4)
H99 H 1.2399 0.4803 0.2354
H100 H 1.2876 0.4372 0.2195
C88 C 0.9457(4) 0.1643(4) 0.2463(3)
C89 C 0.9527(4) 0.0975(4) 0.2451(3)
C90 C 1.0142(4) 0.0846(4) 0.2379(3)
C91 C 1.0434(4) 0.1442(4) 0.2335(3)
C92 C 1.0007(5) 0.1911(4) 0.2392(4)
C93 C 1.0261(5) 0.2460(4) 0.2642(4)
C94 C 1.0927(7) 0.2522(5) 0.2828(4)
C95 C 1.1344(5) 0.2055(6) 0.2794(4)
C96 C 1.1088(5) 0.1501(5) 0.2521(4)
C97 C 1.1459(4) 0.0995(6) 0.2761(4)
C98 C 1.1189(6) 0.0440(5) 0.2820(4)
C99 C 1.0497(4) 0.0360(4) 0.2594(4)
C100 C 1.0273(6) -0.0022(4) 0.2930(4)
C101 C 0.9712(5) 0.0099(4) 0.3002(4)
C102 C 0.9307(4) 0.0604(4) 0.2751(3)
C103 C 0.9021(5) 0.0883(4) 0.3090(3)
C104 C 0.8931(5) 0.1502(4) 0.3086(3)
C105 C 0.9148(5) 0.1900(4) 0.2773(3)
C106 C 0.9412(5) 0.2450(4) 0.3033(4)
C107 C 0.9940(7) 0.2728(5) 0.2949(4)
C108 C 0.9033(5) 0.1827(4) 0.3533(3)
C109 C 0.9303(6) 0.2403(4) 0.3482(3)
C110 C 0.9170(4) 0.1489(4) 0.3949(3)
C111 C 0.9272(4) 0.0827(4) 0.3953(3)
C112 C 0.9197(4) 0.0524(4) 0.3505(2)
C113 C 0.9670(4) 0.0533(4) 0.4344(3)
C114 C 1.0107(5) 0.0059(4) 0.4293(3)
C115 C 1.0131(4) -0.0133(4) 0.3855(3)
C116 C 0.9617(6) 0.0060(4) 0.3456(3)
C117 C 1.0748(7) -0.0270(5) 0.3774(4)
C118 C 1.0836(9) -0.0178(6) 0.3327(6)
C119 C 1.1302(5) -0.0156(6) 0.4132(5)
C120 C 1.1871(9) 0.0124(7) 0.4066(6)
C121 C 1.1885(8) 0.0306(9) 0.3650(7)
C122 C 1.2173(9) 0.0500(9) 0.4499(7)
C123 C 1.1269(6) -0.0002(6) 0.4591(4)
C124 C 1.1766(9) 0.0404(7) 0.4809(5)
C125 C 1.1694(7) 0.0882(4) 0.5106(4)
C126 C 1.1102(4) 0.0999(4) 0.5171(4)
C127 C 1.0593(5) 0.0623(4) 0.4960(3)
C128 C 1.1994(4) 0.1472(4) 0.5061(4)
C129 C 1.1575(4) 0.1955(3) 0.5109(3)
C130 C 1.1002(4) 0.1671(4) 0.5176(3)
C131 C 1.1515(4) 0.2486(4) 0.4831(3)
C132 C 1.0894(4) 0.2748(4) 0.4621(3)
C133 C 1.0358(4) 0.2478(4) 0.4706(3)
C134 C 1.0430(4) 0.1919(4) 0.4986(3)
C135 C 0.9874(4) 0.1518(4) 0.4762(3)
C136 C 0.9975(4) 0.0881(4) 0.4760(3)
C137 C 0.9789(4) 0.2406(4) 0.4322(3)
C138 C 0.9506(4) 0.1828(4) 0.4375(3)
C139 C 0.9749(4) 0.2675(5) 0.3896(3)
C140 C 1.0298(7) 0.2980(5) 0.3808(4)
C141 C 1.0879(4) 0.2977(5) 0.4168(3)
C142 C 1.1499(6) 0.2861(5) 0.4095(3)
C143 C 1.1568(8) 0.2734(7) 0.3657(5)
C144 C 1.1058(10) 0.2834(6) 0.3258(5)
C145 C 1.0436(10) 0.2974(6) 0.3344(6)
C146 C 1.2025(7) 0.2257(8) 0.3624(5)
C147 C 1.1899(8) 0.1889(9) 0.3181(5)
C148 C 1.1968(7) 0.1248(9) 0.3187(6)
C149 C 1.2152(7) 0.0882(10) 0.3568(7)
C150 C 1.2417(6) 0.1249(10) 0.4001(6)
C151 C 1.2358(6) 0.1835(9) 0.4006(6)
C152 C 1.2294(5) 0.2074(6) 0.4461(4)
C153 C 1.1880(4) 0.2545(4) 0.4502(3)
C154 C 1.2339(5) 0.1521(5) 0.4739(4)
C155 C 1.2387(7) 0.1001(10) 0.4462(7)
C156 C 1.0679(5) 0.0113(5) 0.4671(3)
C157 C 1.1350(9) 0.0101(8) 0.3214(6)
C158 C 1.0493(6) -0.3598(6) 0.4601(5)
H103 H 1.0540 -0.3990 0.4459
H104 H 1.0431 -0.3275 0.4369
H105 H 1.0131 -0.3615 0.4724
C159 C 1.1070(8) -0.3471(9) 0.4976(5)
H106 H 1.1055 -0.3048 0.5086
H107 H 1.1437 -0.3506 0.4854
C160 C 1.1144(9) -0.3902(9) 0.5370(6)
H108 H 1.0740 -0.3944 0.5443
H109 H 1.1264 -0.4309 0.5282
C161 C 1.1629(12) -0.3685(12) 0.5786(6)
H110 H 1.1802 -0.4037 0.5984
H111 H 1.1434 -0.3407 0.5963
C162 C 1.2147(12) -0.3360(15) 0.5659(11)
H112 H 1.2446 -0.3655 0.5603
H113 H 1.2358 -0.3092 0.5914
H114 H 1.1976 -0.3116 0.5382
C163 C 1.2098(9) -0.3568(12) 0.7327(9)
H115 H 1.2020 -0.3950 0.7469
H116 H 1.1819 -0.3541 0.7014
H117 H 1.2021 -0.3224 0.7509
C164 C 1.2745(9) -0.3542(9) 0.7289(5)
H118 H 1.2862 -0.3949 0.7201
H119 H 1.2758 -0.3255 0.7040
C165 C 1.3213(6) -0.3349(6) 0.7716(4)
H120 H 1.3579 -0.3178 0.7635
H121 H 1.3031 -0.3021 0.7862
C166 C 1.3425(9) -0.3842(7) 0.8050(4)
H122 H 1.3797 -0.4029 0.7987
H123 H 1.3094 -0.4156 0.7986
C167 C 1.3587(6) -0.3700(6) 0.8544(3)
H124 H 1.3621 -0.3257 0.8582
H125 H 1.3994 -0.3887 0.8685
H126 H 1.3281 -0.3856 0.8694
Cl6? Cl 1.2251(12) 0.4384(12) 0.2362(7)
Cl7? Cl 1.2483(12) 0.3671(11) 0.3243(8)
C87? C 1.1945(16) 0.408(3) 0.2796(16)
H101? H 1.1597 0.3800 0.2649
H102? H 1.1769 0.4415 0.2937
loop_
_geom_bond_atom_site_label_1
_geom_bond_atom_site_label_2
_geom_bond_site_symmetry_1
_geom_bond_site_symmetry_2
C1 C2 1_555 1_555
C2 C3 1_555 1_555
C3 C4 1_555 1_555
C4 C58 1_555 1_555
C5 C6 1_555 1_555
C6 S3 1_555 1_555
C7 C8 1_555 1_555
C8 C9 1_555 1_555
C9 H1 1_555 1_555
C10 C9 1_555 1_555
H2 C10 1_555 1_555
C11 C10 1_555 1_555
H3 C11 1_555 1_555
C12 C7 1_555 1_555
H4 C12 1_555 1_555
C13 C1 1_555 1_555
C14 C13 1_555 1_555
H5 C14 1_555 1_555
H6 C14 1_555 1_555
H7 C14 1_555 1_555
C15 C13 1_555 1_555
H8 C15 1_555 1_555
H9 C15 1_555 1_555
H10 C15 1_555 1_555
C16 C13 1_555 1_555
C17 C16 1_555 1_555
C18 C17 1_555 1_555
C19 C18 1_555 1_555
C20 C21 1_555 1_555
C21 S15 1_555 1_555
C22 C23 1_555 1_555
C23 C24 1_555 1_555
C24 H11 1_555 1_555
C25 C24 1_555 1_555
H12 C25 1_555 1_555
C26 C25 1_555 1_555
H13 C26 1_555 1_555
C27 C22 1_555 1_555
H14 C27 1_555 1_555
C28 C19 1_555 1_555
C29 C28 1_555 1_555
H15 C29 1_555 1_555
H16 C29 1_555 1_555
H17 C29 1_555 1_555
C30 C28 1_555 1_555
H18 C30 1_555 1_555
H19 C30 1_555 1_555
H20 C30 1_555 1_555
C31 C28 1_555 1_555
C32 C31 1_555 1_555
C33 C32 1_555 1_555
C34 C33 1_555 1_555
C35 C36 1_555 1_555
C36 S11 1_555 1_555
C37 C38 1_555 1_555
C38 C39 1_555 1_555
C39 H21 1_555 1_555
C40 C39 1_555 1_555
H22 C40 1_555 1_555
C41 C40 1_555 1_555
H23 C41 1_555 1_555
C42 C37 1_555 1_555
H24 C42 1_555 1_555
C43 C34 1_555 1_555
C44 C43 1_555 1_555
H25 C44 1_555 1_555
H26 C44 1_555 1_555
H27 C44 1_555 1_555
C45 C43 1_555 1_555
H28 C45 1_555 1_555
H29 C45 1_555 1_555
H30 C45 1_555 1_555
C46 C43 1_555 1_555
C47 C46 1_555 1_555
C48 C47 1_555 1_555
C49 C48 1_555 1_555
C50 C51 1_555 1_555
C51 S7 1_555 1_555
C52 C53 1_555 1_555
C53 C54 1_555 1_555
C54 H31 1_555 1_555
C55 C54 1_555 1_555
H32 C55 1_555 1_555
C56 C55 1_555 1_555
H33 C56 1_555 1_555
C57 C52 1_555 1_555
H34 C57 1_555 1_555
C58 C49 1_555 1_555
C59 C58 1_555 1_555
H35 C59 1_555 1_555
H36 C59 1_555 1_555
H37 C59 1_555 1_555
C60 C58 1_555 1_555
H38 C60 1_555 1_555
H39 C60 1_555 1_555
H40 C60 1_555 1_555
N1 C1 1_555 1_555
H41 N1 1_555 1_555
N2 C46 1_555 1_555
H42 N2 1_555 1_555
N3 C31 1_555 1_555
H43 N3 1_555 1_555
N4 C16 1_555 1_555
H44 N4 1_555 1_555
S1 C2 1_555 1_555
S2 C3 1_555 1_555
S3 C8 1_555 1_555
S4 C6 1_555 1_555
S5 C48 1_555 1_555
S6 C47 1_555 1_555
S7 C53 1_555 1_555
S8 C51 1_555 1_555
S9 C33 1_555 1_555
S10 C32 1_555 1_555
S11 C37 1_555 1_555
S12 C36 1_555 1_555
S13 C17 1_555 1_555
S14 C18 1_555 1_555
S15 C23 1_555 1_555
S16 C21 1_555 1_555
N5 C61 1_555 1_555
C61 H45 1_555 1_555
H46 C61 1_555 1_555
C62 C61 1_555 1_555
H47 C62 1_555 1_555
H48 C62 1_555 1_555
C63 C62 1_555 1_555
H49 C63 1_555 1_555
H50 C63 1_555 1_555
C64 C63 1_555 1_555
H51 C64 1_555 1_555
H52 C64 1_555 1_555
C65 C64 1_555 1_555
H53 C65 1_555 1_555
H54 C65 1_555 1_555
C66 C65 1_555 1_555
H55 C66 1_555 1_555
H56 C66 1_555 1_555
H57 C66 1_555 1_555
C67 N5 1_555 1_555
H58 C67 1_555 1_555
H59 C67 1_555 1_555
C68 C67 1_555 1_555
H60 C68 1_555 1_555
H61 C68 1_555 1_555
C69 C68 1_555 1_555
H62 C69 1_555 1_555
H63 C69 1_555 1_555
C70 C69 1_555 1_555
H64 C70 1_555 1_555
H65 C70 1_555 1_555
C71 C70 1_555 1_555
H66 C71 1_555 1_555
H67 C71 1_555 1_555
C72 C71 1_555 1_555
H68 C72 1_555 1_555
H69 C72 1_555 1_555
H70 C72 1_555 1_555
C73 N5 1_555 1_555
H71 C73 1_555 1_555
H72 C73 1_555 1_555
C74 C73 1_555 1_555
H73 C74 1_555 1_555
H74 C74 1_555 1_555
C75 C74 1_555 1_555
H75 C75 1_555 1_555
H76 C75 1_555 1_555
C76 C75 1_555 1_555
H77 C76 1_555 1_555
H78 C76 1_555 1_555
C77 C76 1_555 1_555
H79 C77 1_555 1_555
H80 C77 1_555 1_555
C78 C77 1_555 1_555
H81 C78 1_555 1_555
H82 C78 1_555 1_555
H83 C78 1_555 1_555
C79 N5 1_555 1_555
H84 C79 1_555 1_555
H85 C79 1_555 1_555
C80 C79 1_555 1_555
H86 C80 1_555 1_555
H87 C80 1_555 1_555
C81 C80 1_555 1_555
H88 C81 1_555 1_555
H89 C81 1_555 1_555
C82 C81 1_555 1_555
H90 C82 1_555 1_555
H91 C82 1_555 1_555
C83 C82 1_555 1_555
H92 C83 1_555 1_555
H93 C83 1_555 1_555
C84 C83 1_555 1_555
H94 C84 1_555 1_555
H95 C84 1_555 1_555
H96 C84 1_555 1_555
C85 H97 1_555 1_555
H98 C85 1_555 1_555
Cl2 C85 1_555 1_555
Cl3 C85 1_555 1_555
Cl4 C86 1_555 1_555
Cl5 C86 1_555 1_555
C86 H99 1_555 1_555
H100 C86 1_555 1_555
C88 C89 1_555 1_555
C89 C90 1_555 1_555
C90 C91 1_555 1_555
C91 C92 1_555 1_555
C92 C88 1_555 1_555
C93 C92 1_555 1_555
C94 C93 1_555 1_555
C95 C94 1_555 1_555
C96 C91 1_555 1_555
C97 C96 1_555 1_555
C98 C97 1_555 1_555
C99 C90 1_555 1_555
C100 C99 1_555 1_555
C101 C100 1_555 1_555
C102 C89 1_555 1_555
C103 C102 1_555 1_555
C104 C103 1_555 1_555
C105 C88 1_555 1_555
C106 C105 1_555 1_555
C107 C93 1_555 1_555
C108 C104 1_555 1_555
C109 C106 1_555 1_555
C110 C108 1_555 1_555
C111 C110 1_555 1_555
C112 C103 1_555 1_555
C113 C111 1_555 1_555
C114 C113 1_555 1_555
C115 C114 1_555 1_555
C116 C101 1_555 1_555
C117 C115 1_555 1_555
C118 C100 1_555 1_555
C119 C117 1_555 1_555
C120 C119 1_555 1_555
C121 C120 1_555 1_555
C122 C120 1_555 1_555
C123 C119 1_555 1_555
C124 C122 1_555 1_555
C125 C124 1_555 1_555
C126 C125 1_555 1_555
C127 C126 1_555 1_555
C128 C125 1_555 1_555
C129 C128 1_555 1_555
C130 C126 1_555 1_555
C131 C129 1_555 1_555
C132 C131 1_555 1_555
C133 C132 1_555 1_555
C134 C130 1_555 1_555
C135 C134 1_555 1_555
C136 C113 1_555 1_555
C137 C133 1_555 1_555
C138 C110 1_555 1_555
C139 C109 1_555 1_555
C140 C139 1_555 1_555
C141 C132 1_555 1_555
C142 C141 1_555 1_555
C143 C142 1_555 1_555
C144 C94 1_555 1_555
C145 C107 1_555 1_555
C146 C143 1_555 1_555
C147 C95 1_555 1_555
C148 C97 1_555 1_555
C149 C121 1_555 1_555
C150 C149 1_555 1_555
C151 C146 1_555 1_555
C152 C151 1_555 1_555
C153 C131 1_555 1_555
C154 C128 1_555 1_555
C155 C122 1_555 1_555
C156 C114 1_555 1_555
C157 C98 1_555 1_555
C158 H103 1_555 1_555
H104 C158 1_555 1_555
H105 C158 1_555 1_555
C159 C158 1_555 1_555
H106 C159 1_555 1_555
H107 C159 1_555 1_555
C160 C159 1_555 1_555
H108 C160 1_555 1_555
H109 C160 1_555 1_555
C161 C160 1_555 1_555
H110 C161 1_555 1_555
H111 C161 1_555 1_555
C162 C161 1_555 1_555
H112 C162 1_555 1_555
H113 C162 1_555 1_555
H114 C162 1_555 1_555
C163 H115 1_555 1_555
H116 C163 1_555 1_555
H117 C163 1_555 1_555
C164 C163 1_555 1_555
H118 C164 1_555 1_555
H119 C164 1_555 1_555
C165 C164 1_555 1_555
H120 C165 1_555 1_555
H121 C165 1_555 1_555
C166 C165 1_555 1_555
H122 C166 1_555 1_555
H123 C166 1_555 1_555
C167 C166 1_555 1_555
H124 C167 1_555 1_555
H125 C167 1_555 1_555
H126 C167 1_555 1_555
C4 N1 1_555 1_555
C5 S1 1_555 1_555
C5 S2 1_555 1_555
C7 S4 1_555 1_555
C11 C12 1_555 1_555
C19 N4 1_555 1_555
C20 S13 1_555 1_555
C20 S14 1_555 1_555
C22 S16 1_555 1_555
C26 C27 1_555 1_555
C34 N3 1_555 1_555
C35 S9 1_555 1_555
C35 S10 1_555 1_555
C38 S12 1_555 1_555
C41 C42 1_555 1_555
C49 N2 1_555 1_555
C50 S5 1_555 1_555
C50 S6 1_555 1_555
C52 S8 1_555 1_555
C56 C57 1_555 1_555
C95 C96 1_555 1_555
C98 C99 1_555 1_555
C101 C102 1_555 1_555
C104 C105 1_555 1_555
C106 C107 1_555 1_555
C108 C109 1_555 1_555
C111 C112 1_555 1_555
C112 C116 1_555 1_555
C115 C116 1_555 1_555
C117 C118 1_555 1_555
C118 C157 1_555 1_555
C121 C157 1_555 1_555
C123 C124 1_555 1_555
C123 C156 1_555 1_555
C127 C136 1_555 1_555
C127 C156 1_555 1_555
C129 C130 1_555 1_555
C133 C134 1_555 1_555
C135 C136 1_555 1_555
C135 C138 1_555 1_555
C137 C138 1_555 1_555
C137 C139 1_555 1_555
C140 C141 1_555 1_555
C140 C145 1_555 1_555
C142 C153 1_555 1_555
C143 C144 1_555 1_555
C144 C145 1_555 1_555
C146 C147 1_555 1_555
C147 C148 1_555 1_555
C148 C149 1_555 1_555
C150 C151 1_555 1_555
C150 C155 1_555 1_555
C152 C153 1_555 1_555
C152 C154 1_555 1_555
C154 C155 1_555 1_555

#END
