
#######################################################################
#
#                 Cambridge Crystallographic Data Centre
#                                CCDC 
#
#######################################################################
#
# If this CIF has been generated from an entry in the Cambridge 
# Structural Database, then it will include bibliographic, chemical, 
# crystal, experimental, refinement or atomic coordinate data resulting 
# from the CCDC's data processing and validation procedures.
#
#######################################################################

data_UPUVAE
_chemical_name_common            
'tetraoctylammonium tetrathiafulvalene-calix[4]pyrrole C60fullerene chloride'
_chemical_formula_moiety         'C68 H84 N4 S24,C32 H68 N1 1+,C60,Cl1 1-'
_chemical_name_systematic        
'tetraoctylammonium 14,22-bis(4,5-bis(propylsulfanyl)-1,3-dithiol-2-ylidene)-6,30-bis(4,5-bis(propylsulfanyl)-1,3-dithiol-2-ylidene)-2,2,10,10,18,18,26,26-octamethyl-5,7,13,15,21,23,29,31-octathia-33,34,35,36-tetraazanonacyclo[25.5.1.1^3,9^.1^11,17^.1^19,25^.0^4,8^.0^12,16^.0^20,24^.0^28,32^]hexatriaconta-1(32),3,8,11,16,19,24,27-octaene C60fullerene chloride'
_symmetry_cell_setting           monoclinic
_symmetry_space_group_name_H-M   'P 21/c'
_symmetry_Int_Tables_number      14
_space_group_name_Hall           '-P 2ybc'
loop_
_symmetry_equiv_pos_site_id
_symmetry_equiv_pos_as_xyz
1 x,y,z
2 -x,1/2+y,1/2-z
3 -x,-y,-z
4 x,1/2-y,1/2+z
_cell_length_a                   19.557(6)
_cell_length_b                   19.323(6)
_cell_length_c                   37.662(12)
_cell_angle_alpha                90
_cell_angle_beta                 98.973(6)
_cell_angle_gamma                90
_cell_volume                     14058.3
_exptl_crystal_colour            'dark blue'
_exptl_crystal_description       prism
_cell_formula_units_Z            4
_exptl_crystal_recrystallization_method dichloromethane/pentane
loop_
_atom_site_label
_atom_site_type_symbol
_atom_site_fract_x
_atom_site_fract_y
_atom_site_fract_z
S1 S 0.10777(14) 0.02918(15) 0.53667(8)
S2 S 0.25379(14) -0.00865(14) 0.53073(7)
S3 S 0.26170(15) -0.10005(15) 0.60237(8)
S4 S 0.11623(15) -0.06596(15) 0.60779(8)
S5 S 0.10999(17) -0.16109(15) 0.67001(8)
S6 S 0.26933(16) -0.20881(16) 0.66024(10)
S7 S 0.48203(13) 0.12327(14) 0.52038(7)
S8 S 0.52093(12) 0.27350(14) 0.52280(7)
S9 S 0.63869(14) 0.24570(16) 0.59040(8)
S10 S 0.60806(16) 0.09606(16) 0.58618(8)
S11 S 0.72284(17) 0.0610(2) 0.64651(10)
S12 S 0.75809(14) 0.2292(2) 0.65019(9)
S13 S 0.25367(12) 0.53525(12) 0.54826(6)
S14 S 0.39725(12) 0.50183(13) 0.53552(6)
S15 S 0.31130(14) 0.60992(14) 0.62153(7)
S16 S 0.45519(14) 0.58715(16) 0.61022(7)
S17 S 0.51276(16) 0.63523(18) 0.68566(9)
S18 S 0.35232(15) 0.64680(15) 0.70014(8)
S19 S -0.01325(13) 0.25841(14) 0.55291(7)
S20 S 0.03132(13) 0.40704(14) 0.55625(7)
S21 S -0.01177(14) 0.42220(15) 0.63440(7)
S22 S -0.06154(14) 0.27793(15) 0.63168(7)
S23 S -0.09111(15) 0.28287(16) 0.70839(8)
S24 S -0.03271(13) 0.44444(18) 0.71054(7)
N1 N 0.1900(4) 0.1557(4) 0.4723(2)
H1 H 0.1918 0.1898 0.4578
N2 N 0.3368(4) 0.2409(4) 0.46632(19)
H2 H 0.2982 0.2516 0.4532
N3 N 0.2563(3) 0.3897(4) 0.47539(18)
H3 H 0.2400 0.3602 0.4592
N4 N 0.1081(4) 0.3037(4) 0.4812(2)
H4 H 0.1311 0.2977 0.4638
C1 C 0.2426(5) 0.1109(5) 0.4823(3)
C2 C 0.2197(5) 0.0636(5) 0.5062(3)
C3 C 0.1516(5) 0.0818(5) 0.5089(3)
C4 C 0.1313(5) 0.1394(5) 0.4886(3)
C5 C 0.1822(5) -0.0163(5) 0.5547(3)
C6 C 0.1854(5) -0.0542(5) 0.5835(3)
C7 C 0.1596(6) -0.1257(5) 0.6394(3)
C8 C 0.2251(6) -0.1417(5) 0.6373(3)
C9 C 0.3103(5) 0.1127(5) 0.4670(3)
C10 C 0.2908(5) 0.1114(5) 0.4248(3)
H5 H 0.2627 0.1509 0.4169
H6 H 0.2654 0.0698 0.4175
H7 H 0.3323 0.1125 0.4141
C11 C 0.3531(5) 0.0474(5) 0.4787(3)
H8 H 0.3937 0.0467 0.4674
H9 H 0.3257 0.0069 0.4718
H10 H 0.3664 0.0478 0.5044
C12 C 0.3546(5) 0.1756(5) 0.4777(2)
C13 C 0.4201(4) 0.1816(5) 0.4978(2)
C14 C 0.4395(4) 0.2509(5) 0.4990(2)
C15 C 0.3880(4) 0.2878(5) 0.4783(2)
C16 C 0.5351(5) 0.1899(5) 0.5419(3)
C17 C 0.5864(5) 0.1786(5) 0.5696(3)
C18 C 0.6887(6) 0.1905(7) 0.6224(3)
C19 C 0.6725(5) 0.1245(6) 0.6208(3)
C20 C 0.3806(4) 0.3657(4) 0.4682(2)
C21 C 0.4495(4) 0.4014(5) 0.4800(3)
H11 H 0.4471 0.4482 0.4713
H12 H 0.4854 0.3770 0.4704
H13 H 0.4597 0.4016 0.5058
C22 C 0.3624(5) 0.3715(5) 0.4265(2)
H14 H 0.3206 0.3464 0.4184
H15 H 0.3995 0.3526 0.4156
H16 H 0.3559 0.4193 0.4198
C23 C 0.3254(4) 0.4024(4) 0.4858(2)
C24 C 0.3286(4) 0.4526(4) 0.5110(2)
C25 C 0.2620(4) 0.4695(4) 0.5171(2)
C26 C 0.2164(4) 0.4301(5) 0.4940(2)
C27 C 0.3427(5) 0.5390(5) 0.5641(2)
C28 C 0.3679(4) 0.5721(5) 0.5945(2)
C29 C 0.4418(6) 0.6112(6) 0.6537(3)
C30 C 0.3778(5) 0.6187(5) 0.6591(3)
C31 C 0.1377(4) 0.4311(5) 0.4862(2)
C32 C 0.1134(5) 0.4408(5) 0.4457(2)
H17 H 0.1320 0.4044 0.4327
H18 H 0.1294 0.4847 0.4383
H19 H 0.0638 0.4394 0.4408
C33 C 0.1113(5) 0.4930(5) 0.5054(3)
H20 H 0.0618 0.4955 0.4996
H21 H 0.1314 0.5347 0.4979
H22 H 0.1242 0.4874 0.5309
C34 C 0.1037(4) 0.3660(5) 0.4985(2)
C35 C 0.0624(4) 0.3532(5) 0.5242(2)
C36 C 0.0423(4) 0.2840(5) 0.5224(2)
C37 C 0.0707(5) 0.2515(5) 0.4952(3)
C38 C -0.0036(5) 0.3373(5) 0.5777(3)
C39 C -0.0225(5) 0.3448(5) 0.6099(3)
C40 C -0.0327(5) 0.3885(6) 0.6745(3)
C41 C -0.0564(5) 0.3224(6) 0.6729(3)
C42 C 0.0649(5) 0.1792(5) 0.4803(3)
C43 C 0.0411(5) 0.1817(6) 0.4397(3)
H23 H 0.0748 0.2061 0.4285
H24 H -0.0026 0.2053 0.4348
H25 H 0.0361 0.1355 0.4304
C44 C 0.0090(5) 0.1410(5) 0.4968(3)
H26 H 0.0042 0.0948 0.4874
H27 H -0.0343 0.1650 0.4908
H28 H 0.0218 0.1393 0.5224
C45 C 0.3560(5) -0.1761(6) 0.6654(4)
H29 H 0.3877 -0.2140 0.6725
H30 H 0.3648 -0.1597 0.6422
C46 C 0.3716(5) -0.1190(6) 0.6920(4)
H31 H 0.3390 -0.0817 0.6853
H32 H 0.3643 -0.1359 0.7154
C47 C 0.4425(6) -0.0907(8) 0.6953(5)
H33 H 0.4754 -0.1278 0.6997
H34 H 0.4500 -0.0585 0.7149
H35 H 0.4481 -0.0675 0.6734
C48 C 0.0959(4) -0.0863(5) 0.6963(3)
H36 H 0.0681 -0.0535 0.6808
H37 H 0.0689 -0.1005 0.7146
C49 C 0.1583(5) -0.0503(4) 0.7142(2)
H38 H 0.1439 -0.0094 0.7260
H39 H 0.1846 -0.0348 0.6959
C50 C 0.2051(5) -0.0913(7) 0.7412(3)
H40 H 0.1819 -0.1017 0.7612
H41 H 0.2462 -0.0651 0.7494
H42 H 0.2173 -0.1337 0.7304
C51 C 0.5813(5) 0.5806(5) 0.6760(3)
H43 H 0.5860 0.5871 0.6510
H44 H 0.6240 0.5964 0.6903
C52 C 0.5746(7) 0.5059(4) 0.6824(3)
H45 H 0.6087 0.4818 0.6708
H46 H 0.5293 0.4911 0.6706
C53 C 0.5831(11) 0.4835(8) 0.7203(4)
H47 H 0.6287 0.4954 0.7320
H48 H 0.5768 0.4343 0.7213
H49 H 0.5493 0.5063 0.7321
C54 C 0.2836(4) 0.5882(5) 0.7052(3)
H50 H 0.2906 0.5461 0.6922
H51 H 0.2875 0.5762 0.7304
C55 C 0.2124(4) 0.6125(6) 0.6929(3)
H52 H 0.1819 0.5726 0.6912
H53 H 0.2104 0.6311 0.6689
C56 C 0.1848(7) 0.6652(8) 0.7152(4)
H54 H 0.1808 0.6457 0.7383
H55 H 0.1401 0.6800 0.7035
H56 H 0.2157 0.7041 0.7184
C57 C 0.6577(7) 0.0162(7) 0.6659(4)
H57 H 0.6229 -0.0005 0.6466
H58 H 0.6787 -0.0239 0.6787
C58 C 0.6229(9) 0.0575(8) 0.6909(5)
H59 H 0.6577 0.0855 0.7055
H60 H 0.5909 0.0890 0.6767
C59 C 0.5846(10) 0.0196(10) 0.7151(5)
H61 H 0.5469 -0.0049 0.7013
H62 H 0.5668 0.0516 0.7309
H63 H 0.6150 -0.0127 0.7290
C60 C 0.7178(6) 0.3025(5) 0.6679(3)
H64 H 0.7528 0.3272 0.6842
H65 H 0.7012 0.3334 0.6482
C61 C 0.6594(6) 0.2865(8) 0.6873(3)
H66 H 0.6353 0.3294 0.6906
H67 H 0.6272 0.2568 0.6721
C62 C 0.6774(9) 0.2530(9) 0.7226(4)
H68 H 0.6908 0.2059 0.7193
H69 H 0.6380 0.2538 0.7349
H70 H 0.7151 0.2774 0.7365
C63 C 0.0587(4) 0.4571(11) 0.7206(3)
H71 H 0.0807 0.4206 0.7088
H72 H 0.0695 0.5004 0.7097
C64 C 0.0911(6) 0.4585(16) 0.7582(4)
H73 H 0.0855 0.4132 0.7684
H74 H 0.0659 0.4913 0.7708
C65 C 0.1655(5) 0.4770(8) 0.7656(3)
H75 H 0.1782 0.5008 0.7452
H76 H 0.1927 0.4357 0.7700
H77 H 0.1739 0.5065 0.7863
C66 C -0.0701(6) 0.1933(5) 0.7029(5)
H78 H -0.0980 0.1655 0.7166
H79 H -0.0832 0.1811 0.6778
C67 C 0.0032(7) 0.1746(6) 0.7140(6)
H80 H 0.0166 0.1887 0.7388
H81 H 0.0307 0.2014 0.6997
C68 C 0.0214(8) 0.1010(6) 0.7111(6)
H82 H -0.0196 0.0750 0.7022
H83 H 0.0413 0.0839 0.7343
H84 H 0.0542 0.0963 0.6948
Cl1 Cl 0.19293(11) 0.27901(13) 0.41479(6)
N5 N 0.2488(4) 0.7586(3) 0.50925(19)
C69 C 0.3123(4) 0.7980(5) 0.5258(2)
H85 H 0.2965 0.8391 0.5369
H86 H 0.3353 0.8136 0.5062
C70 C 0.3672(4) 0.7641(5) 0.5536(3)
H87 H 0.3859 0.7241 0.5429
H88 H 0.3458 0.7482 0.5737
C71 C 0.4261(4) 0.8141(5) 0.5673(3)
H89 H 0.4452 0.8326 0.5470
H90 H 0.4078 0.8524 0.5795
C72 C 0.4830(4) 0.7792(5) 0.5927(3)
H91 H 0.5054 0.7453 0.5794
H92 H 0.4625 0.7545 0.6109
C73 C 0.5382(4) 0.8287(5) 0.6116(3)
H93 H 0.5196 0.8550 0.6298
H94 H 0.5520 0.8610 0.5943
C74 C 0.6013(5) 0.7864(6) 0.6290(4)
H95 H 0.5852 0.7465 0.6410
H96 H 0.6258 0.7694 0.6103
C75 C 0.6512(7) 0.8273(8) 0.6560(4)
H97 H 0.6288 0.8399 0.6763
H98 H 0.6643 0.8696 0.6449
C76 C 0.7164(6) 0.7838(9) 0.6691(3)
H99 H 0.7031 0.7369 0.6731
H100 H 0.7402 0.8028 0.6912
H101 H 0.7465 0.7846 0.6513
C77 C 0.1992(5) 0.8069(5) 0.4873(2)
H102 H 0.1828 0.8401 0.5034
H103 H 0.1595 0.7803 0.4762
C78 C 0.2283(4) 0.8464(5) 0.4582(2)
H104 H 0.2588 0.8162 0.4473
H105 H 0.2554 0.8852 0.4689
C79 C 0.1714(5) 0.8731(5) 0.4290(2)
H106 H 0.1927 0.8958 0.4106
H107 H 0.1451 0.8340 0.4180
C80 C 0.1223(5) 0.9232(5) 0.4428(2)
H108 H 0.1488 0.9563 0.4587
H109 H 0.0927 0.8979 0.4567
C81 C 0.0769(5) 0.9623(5) 0.4125(3)
H110 H 0.0597 0.9300 0.3934
H111 H 0.0373 0.9817 0.4216
C82 C 0.1162(5) 1.0200(5) 0.3971(3)
H112 H 0.1576 1.0008 0.3897
H113 H 0.1306 1.0537 0.4159
C83 C 0.0741(6) 1.0565(6) 0.3653(3)
H114 H 0.0328 1.0762 0.3726
H115 H 0.0596 1.0231 0.3464
C84 C 0.1157(7) 1.1143(6) 0.3505(3)
H116 H 0.1137 1.1554 0.3646
H117 H 0.0964 1.1235 0.3260
H118 H 0.1630 1.0999 0.3518
C85 C 0.2712(5) 0.6999(5) 0.4878(2)
H119 H 0.2840 0.6618 0.5043
H120 H 0.3129 0.7144 0.4789
C86 C 0.2212(5) 0.6716(5) 0.4559(3)
H121 H 0.2132 0.7064 0.4372
H122 H 0.1772 0.6608 0.4634
C87 C 0.2508(5) 0.6063(5) 0.4410(2)
H123 H 0.2991 0.6139 0.4391
H124 H 0.2484 0.5683 0.4576
C88 C 0.2116(5) 0.5865(5) 0.4042(2)
H125 H 0.2152 0.6238 0.3873
H126 H 0.1630 0.5801 0.4059
C89 C 0.2401(5) 0.5199(4) 0.3901(2)
H127 H 0.2894 0.5252 0.3899
H128 H 0.2337 0.4820 0.4061
C90 C 0.2044(5) 0.5021(4) 0.3522(2)
H129 H 0.2168 0.5364 0.3355
H130 H 0.1547 0.5038 0.3515
C91 C 0.2250(6) 0.4302(4) 0.3405(2)
H131 H 0.2750 0.4257 0.3454
H132 H 0.2054 0.3954 0.3546
C92 C 0.2000(8) 0.4174(6) 0.3007(3)
H133 H 0.1503 0.4169 0.2963
H134 H 0.2172 0.3736 0.2939
H135 H 0.2167 0.4535 0.2868
C93 C 0.2176(6) 0.7373(7) 0.5417(3)
H136 H 0.2118 0.7793 0.5550
H137 H 0.2521 0.7097 0.5566
C94 C 0.1504(7) 0.6982(9) 0.5386(3)
H138 H 0.1553 0.6540 0.5270
H139 H 0.1144 0.7242 0.5236
C95 C 0.1283(6) 0.6854(7) 0.5756(3)
H140 H 0.1678 0.6697 0.5925
H141 H 0.1116 0.7282 0.5846
C96 C 0.0711(6) 0.6307(6) 0.5720(3)
H142 H 0.0295 0.6496 0.5579
H143 H 0.0853 0.5910 0.5593
C97 C 0.0546(6) 0.6074(5) 0.6083(3)
H144 H 0.0974 0.5982 0.6243
H145 H 0.0283 0.5647 0.6052
C98 C 0.0132(6) 0.6619(5) 0.6252(3)
H146 H -0.0255 0.6771 0.6076
H147 H 0.0424 0.7017 0.6321
C99 C -0.0139(8) 0.6331(7) 0.6581(3)
H148 H -0.0467 0.5963 0.6508
H149 H 0.0243 0.6138 0.6747
C100 C -0.0491(10) 0.6894(9) 0.6773(4)
H150 H -0.0152 0.7224 0.6878
H151 H -0.0710 0.6688 0.6958
H152 H -0.0834 0.7124 0.6603
C101 C 0.3404(3) 0.0882(4) 0.69887(18)
C102 C 0.2943(3) 0.1218(4) 0.7190(2)
C103 C 0.2243(4) 0.1327(4) 0.70390(17)
C104 C 0.1996(4) 0.1110(4) 0.66804(16)
C105 C 0.2457(3) 0.0782(4) 0.64781(17)
C106 C 0.3157(3) 0.0666(5) 0.66331(18)
C107 C 0.4064(3) 0.1208(4) 0.7070(2)
C108 C 0.4017(3) 0.1737(4) 0.7327(2)
C109 C 0.3325(3) 0.1746(3) 0.7401(2)
C110 C 0.2999(3) 0.2377(3) 0.7460(2)
C111 C 0.2297(3) 0.2490(3) 0.7309(2)
C112 C 0.1917(4) 0.1969(3) 0.70987(17)
C113 C 0.1480(4) 0.2154(3) 0.67730(17)
C114 C 0.1521(4) 0.1616(3) 0.65174(16)
C115 C 0.1497(5) 0.1782(3) 0.61506(17)
C116 C 0.1936(6) 0.1433(4) 0.59425(19)
C117 C 0.2443(4) 0.0963(6) 0.61096(18)
C118 C 0.3135(5) 0.0944(7) 0.6035(2)
C119 C 0.3577(3) 0.0752(7) 0.6359(2)
C120 C 0.4223(5) 0.1096(5) 0.6437(2)
C121 C 0.4473(4) 0.1309(4) 0.67953(19)
C122 C 0.4843(5) 0.1941(4) 0.67805(19)
C123 C 0.4793(4) 0.2469(3) 0.7034(2)
C124 C 0.4381(4) 0.2369(3) 0.7309(2)
C125 C 0.4049(5) 0.3006(4) 0.7365(3)
C126 C 0.3368(3) 0.3014(4) 0.7444(4)
C127 C 0.2891(5) 0.3518(4) 0.7285(4)
C128 C 0.2228(5) 0.3197(3) 0.7198(3)
C129 C 0.1801(6) 0.3374(4) 0.68713(18)
C130 C 0.1420(5) 0.2846(3) 0.66611(18)
C131 C 0.1391(5) 0.3017(4) 0.62918(19)
C132 C 0.1436(4) 0.2487(3) 0.6036(2)
C133 C 0.1856(4) 0.2576(3) 0.5765(2)
C134 C 0.2185(6) 0.1937(4) 0.5713(3)
C135 C 0.2863(5) 0.1925(4) 0.5629(4)
C136 C 0.3344(6) 0.1426(6) 0.5789(4)
C137 C 0.3992(6) 0.1760(5) 0.5883(3)
C138 C 0.4453(6) 0.1585(4) 0.61979(19)
C139 C 0.4827(5) 0.2115(4) 0.64095(19)
C140 C 0.4752(4) 0.2809(3) 0.63008(17)
C141 C 0.4704(4) 0.3346(3) 0.65556(16)
C142 C 0.4724(5) 0.3177(3) 0.69226(17)
C143 C 0.4265(6) 0.3509(4) 0.7125(2)
C144 C 0.3780(5) 0.4006(6) 0.6963(2)
C145 C 0.3093(5) 0.4015(7) 0.7044(3)
C146 C 0.2663(5) 0.4179(7) 0.6709(2)
C147 C 0.1999(6) 0.3876(5) 0.6626(2)
C148 C 0.1753(4) 0.3650(4) 0.62704(19)
C149 C 0.2163(3) 0.3744(4) 0.5994(2)
C150 C 0.2216(3) 0.3206(4) 0.5742(2)
C151 C 0.2910(3) 0.3196(4) 0.5667(2)
C152 C 0.3239(4) 0.2560(4) 0.5619(3)
C153 C 0.3946(5) 0.2464(4) 0.5763(2)
C154 C 0.4316(4) 0.2990(4) 0.59748(18)
C155 C 0.4224(4) 0.3848(4) 0.63914(17)
C156 C 0.3757(4) 0.4174(5) 0.65928(18)
C157 C 0.3063(3) 0.4301(5) 0.6430(2)
C158 C 0.2823(3) 0.4067(4) 0.6077(2)
C159 C 0.3287(3) 0.3731(4) 0.5876(2)
C160 C 0.3983(3) 0.3626(4) 0.60326(17)
loop_
_geom_bond_atom_site_label_1
_geom_bond_atom_site_label_2
_geom_bond_site_symmetry_1
_geom_bond_site_symmetry_2
S1 C3 1_555 1_555
S2 C2 1_555 1_555
S3 C6 1_555 1_555
S4 C6 1_555 1_555
S5 C7 1_555 1_555
S6 C8 1_555 1_555
S7 C13 1_555 1_555
S8 C14 1_555 1_555
S9 C17 1_555 1_555
S10 C17 1_555 1_555
S11 C19 1_555 1_555
S12 C18 1_555 1_555
S13 C25 1_555 1_555
S14 C24 1_555 1_555
S15 C28 1_555 1_555
S16 C28 1_555 1_555
S17 C29 1_555 1_555
S18 C30 1_555 1_555
S19 C36 1_555 1_555
S20 C35 1_555 1_555
S21 C39 1_555 1_555
S22 C39 1_555 1_555
S23 C41 1_555 1_555
S24 C40 1_555 1_555
N1 H1 1_555 1_555
N2 H2 1_555 1_555
N3 H3 1_555 1_555
N4 H4 1_555 1_555
C1 N1 1_555 1_555
C2 C1 1_555 1_555
C3 C2 1_555 1_555
C4 N1 1_555 1_555
C5 S1 1_555 1_555
C6 C5 1_555 1_555
C7 S4 1_555 1_555
C8 S3 1_555 1_555
C9 C1 1_555 1_555
C10 C9 1_555 1_555
H5 C10 1_555 1_555
H6 C10 1_555 1_555
H7 C10 1_555 1_555
C11 C9 1_555 1_555
H8 C11 1_555 1_555
H9 C11 1_555 1_555
H10 C11 1_555 1_555
C12 N2 1_555 1_555
C13 C12 1_555 1_555
C14 C13 1_555 1_555
C15 N2 1_555 1_555
C16 S7 1_555 1_555
C17 C16 1_555 1_555
C18 S9 1_555 1_555
C19 S10 1_555 1_555
C20 C15 1_555 1_555
C21 C20 1_555 1_555
H11 C21 1_555 1_555
H12 C21 1_555 1_555
H13 C21 1_555 1_555
C22 C20 1_555 1_555
H14 C22 1_555 1_555
H15 C22 1_555 1_555
H16 C22 1_555 1_555
C23 N3 1_555 1_555
C24 C23 1_555 1_555
C25 C24 1_555 1_555
C26 N3 1_555 1_555
C27 S13 1_555 1_555
C28 C27 1_555 1_555
C29 S16 1_555 1_555
C30 S15 1_555 1_555
C31 C26 1_555 1_555
C32 C31 1_555 1_555
H17 C32 1_555 1_555
H18 C32 1_555 1_555
H19 C32 1_555 1_555
C33 C31 1_555 1_555
H20 C33 1_555 1_555
H21 C33 1_555 1_555
H22 C33 1_555 1_555
C34 N4 1_555 1_555
C35 C34 1_555 1_555
C36 C35 1_555 1_555
C37 N4 1_555 1_555
C38 S19 1_555 1_555
C39 C38 1_555 1_555
C40 S21 1_555 1_555
C41 S22 1_555 1_555
C42 C4 1_555 1_555
C43 C42 1_555 1_555
H23 C43 1_555 1_555
H24 C43 1_555 1_555
H25 C43 1_555 1_555
C44 C42 1_555 1_555
H26 C44 1_555 1_555
H27 C44 1_555 1_555
H28 C44 1_555 1_555
C45 S6 1_555 1_555
H29 C45 1_555 1_555
H30 C45 1_555 1_555
C46 C45 1_555 1_555
H31 C46 1_555 1_555
H32 C46 1_555 1_555
C47 C46 1_555 1_555
H33 C47 1_555 1_555
H34 C47 1_555 1_555
H35 C47 1_555 1_555
C48 S5 1_555 1_555
H36 C48 1_555 1_555
H37 C48 1_555 1_555
C49 C48 1_555 1_555
H38 C49 1_555 1_555
H39 C49 1_555 1_555
C50 C49 1_555 1_555
H40 C50 1_555 1_555
H41 C50 1_555 1_555
H42 C50 1_555 1_555
C51 S17 1_555 1_555
H43 C51 1_555 1_555
H44 C51 1_555 1_555
C52 C51 1_555 1_555
H45 C52 1_555 1_555
H46 C52 1_555 1_555
C53 C52 1_555 1_555
H47 C53 1_555 1_555
H48 C53 1_555 1_555
H49 C53 1_555 1_555
C54 S18 1_555 1_555
H50 C54 1_555 1_555
H51 C54 1_555 1_555
C55 C54 1_555 1_555
H52 C55 1_555 1_555
H53 C55 1_555 1_555
C56 C55 1_555 1_555
H54 C56 1_555 1_555
H55 C56 1_555 1_555
H56 C56 1_555 1_555
C57 S11 1_555 1_555
H57 C57 1_555 1_555
H58 C57 1_555 1_555
C58 C57 1_555 1_555
H59 C58 1_555 1_555
H60 C58 1_555 1_555
C59 C58 1_555 1_555
H61 C59 1_555 1_555
H62 C59 1_555 1_555
H63 C59 1_555 1_555
C60 S12 1_555 1_555
H64 C60 1_555 1_555
H65 C60 1_555 1_555
C61 C60 1_555 1_555
H66 C61 1_555 1_555
H67 C61 1_555 1_555
C62 C61 1_555 1_555
H68 C62 1_555 1_555
H69 C62 1_555 1_555
H70 C62 1_555 1_555
C63 S24 1_555 1_555
H71 C63 1_555 1_555
H72 C63 1_555 1_555
C64 C63 1_555 1_555
H73 C64 1_555 1_555
H74 C64 1_555 1_555
C65 C64 1_555 1_555
H75 C65 1_555 1_555
H76 C65 1_555 1_555
H77 C65 1_555 1_555
C66 S23 1_555 1_555
H78 C66 1_555 1_555
H79 C66 1_555 1_555
C67 C66 1_555 1_555
H80 C67 1_555 1_555
H81 C67 1_555 1_555
C68 C67 1_555 1_555
H82 C68 1_555 1_555
H83 C68 1_555 1_555
H84 C68 1_555 1_555
N5 C69 1_555 1_555
C69 H85 1_555 1_555
H86 C69 1_555 1_555
C70 C69 1_555 1_555
H87 C70 1_555 1_555
H88 C70 1_555 1_555
C71 C70 1_555 1_555
H89 C71 1_555 1_555
H90 C71 1_555 1_555
C72 C71 1_555 1_555
H91 C72 1_555 1_555
H92 C72 1_555 1_555
C73 C72 1_555 1_555
H93 C73 1_555 1_555
H94 C73 1_555 1_555
C74 C73 1_555 1_555
H95 C74 1_555 1_555
H96 C74 1_555 1_555
C75 C74 1_555 1_555
H97 C75 1_555 1_555
H98 C75 1_555 1_555
C76 C75 1_555 1_555
H99 C76 1_555 1_555
H100 C76 1_555 1_555
H101 C76 1_555 1_555
C77 N5 1_555 1_555
H102 C77 1_555 1_555
H103 C77 1_555 1_555
C78 C77 1_555 1_555
H104 C78 1_555 1_555
H105 C78 1_555 1_555
C79 C78 1_555 1_555
H106 C79 1_555 1_555
H107 C79 1_555 1_555
C80 C79 1_555 1_555
H108 C80 1_555 1_555
H109 C80 1_555 1_555
C81 C80 1_555 1_555
H110 C81 1_555 1_555
H111 C81 1_555 1_555
C82 C81 1_555 1_555
H112 C82 1_555 1_555
H113 C82 1_555 1_555
C83 C82 1_555 1_555
H114 C83 1_555 1_555
H115 C83 1_555 1_555
C84 C83 1_555 1_555
H116 C84 1_555 1_555
H117 C84 1_555 1_555
H118 C84 1_555 1_555
C85 N5 1_555 1_555
H119 C85 1_555 1_555
H120 C85 1_555 1_555
C86 C85 1_555 1_555
H121 C86 1_555 1_555
H122 C86 1_555 1_555
C87 C86 1_555 1_555
H123 C87 1_555 1_555
H124 C87 1_555 1_555
C88 C87 1_555 1_555
H125 C88 1_555 1_555
H126 C88 1_555 1_555
C89 C88 1_555 1_555
H127 C89 1_555 1_555
H128 C89 1_555 1_555
C90 C89 1_555 1_555
H129 C90 1_555 1_555
H130 C90 1_555 1_555
C91 C90 1_555 1_555
H131 C91 1_555 1_555
H132 C91 1_555 1_555
C92 C91 1_555 1_555
H133 C92 1_555 1_555
H134 C92 1_555 1_555
H135 C92 1_555 1_555
C93 N5 1_555 1_555
H136 C93 1_555 1_555
H137 C93 1_555 1_555
C94 C93 1_555 1_555
H138 C94 1_555 1_555
H139 C94 1_555 1_555
C95 C94 1_555 1_555
H140 C95 1_555 1_555
H141 C95 1_555 1_555
C96 C95 1_555 1_555
H142 C96 1_555 1_555
H143 C96 1_555 1_555
C97 C96 1_555 1_555
H144 C97 1_555 1_555
H145 C97 1_555 1_555
C98 C97 1_555 1_555
H146 C98 1_555 1_555
H147 C98 1_555 1_555
C99 C98 1_555 1_555
H148 C99 1_555 1_555
H149 C99 1_555 1_555
C100 C99 1_555 1_555
H150 C100 1_555 1_555
H151 C100 1_555 1_555
H152 C100 1_555 1_555
C101 C102 1_555 1_555
C102 C103 1_555 1_555
C103 C104 1_555 1_555
C104 C105 1_555 1_555
C105 C106 1_555 1_555
C106 C101 1_555 1_555
C107 C101 1_555 1_555
C108 C107 1_555 1_555
C109 C102 1_555 1_555
C110 C109 1_555 1_555
C111 C110 1_555 1_555
C112 C103 1_555 1_555
C113 C112 1_555 1_555
C114 C104 1_555 1_555
C115 C114 1_555 1_555
C116 C115 1_555 1_555
C117 C105 1_555 1_555
C118 C117 1_555 1_555
C119 C106 1_555 1_555
C120 C119 1_555 1_555
C121 C107 1_555 1_555
C122 C121 1_555 1_555
C123 C122 1_555 1_555
C124 C108 1_555 1_555
C125 C124 1_555 1_555
C126 C110 1_555 1_555
C127 C126 1_555 1_555
C128 C111 1_555 1_555
C129 C128 1_555 1_555
C130 C113 1_555 1_555
C131 C130 1_555 1_555
C132 C115 1_555 1_555
C133 C132 1_555 1_555
C134 C116 1_555 1_555
C135 C134 1_555 1_555
C136 C118 1_555 1_555
C137 C136 1_555 1_555
C138 C120 1_555 1_555
C139 C122 1_555 1_555
C140 C139 1_555 1_555
C141 C140 1_555 1_555
C142 C123 1_555 1_555
C143 C125 1_555 1_555
C144 C143 1_555 1_555
C145 C127 1_555 1_555
C146 C145 1_555 1_555
C147 C129 1_555 1_555
C148 C131 1_555 1_555
C149 C148 1_555 1_555
C150 C133 1_555 1_555
C151 C150 1_555 1_555
C152 C135 1_555 1_555
C153 C137 1_555 1_555
C154 C140 1_555 1_555
C155 C141 1_555 1_555
C156 C144 1_555 1_555
C157 C146 1_555 1_555
C158 C149 1_555 1_555
C159 C151 1_555 1_555
C160 C154 1_555 1_555
S2 C5 1_555 1_555
S8 C16 1_555 1_555
S14 C27 1_555 1_555
S20 C38 1_555 1_555
C3 C4 1_555 1_555
C7 C8 1_555 1_555
C9 C12 1_555 1_555
C14 C15 1_555 1_555
C18 C19 1_555 1_555
C20 C23 1_555 1_555
C25 C26 1_555 1_555
C29 C30 1_555 1_555
C31 C34 1_555 1_555
C36 C37 1_555 1_555
C37 C42 1_555 1_555
C40 C41 1_555 1_555
C108 C109 1_555 1_555
C111 C112 1_555 1_555
C113 C114 1_555 1_555
C116 C117 1_555 1_555
C118 C119 1_555 1_555
C120 C121 1_555 1_555
C123 C124 1_555 1_555
C125 C126 1_555 1_555
C127 C128 1_555 1_555
C129 C130 1_555 1_555
C131 C132 1_555 1_555
C133 C134 1_555 1_555
C135 C136 1_555 1_555
C137 C138 1_555 1_555
C138 C139 1_555 1_555
C141 C142 1_555 1_555
C142 C143 1_555 1_555
C144 C145 1_555 1_555
C146 C147 1_555 1_555
C147 C148 1_555 1_555
C149 C150 1_555 1_555
C151 C152 1_555 1_555
C152 C153 1_555 1_555
C153 C154 1_555 1_555
C155 C156 1_555 1_555
C155 C160 1_555 1_555
C156 C157 1_555 1_555
C157 C158 1_555 1_555
C158 C159 1_555 1_555
C159 C160 1_555 1_555

#END
