
#######################################################################
#
#                 Cambridge Crystallographic Data Centre
#                                CCDC 
#
#######################################################################
#
# If this CIF has been generated from an entry in the Cambridge 
# Structural Database, then it will include bibliographic, chemical, 
# crystal, experimental, refinement or atomic coordinate data resulting 
# from the CCDC's data processing and validation procedures.
#
#######################################################################

data_UPUXIO
_chemical_formula_moiety         'C15 H4 F10 S3'
_chemical_name_systematic        'bis(pentafluorobenzyl) carbonotrithioate'
_symmetry_cell_setting           triclinic
_symmetry_space_group_name_H-M   'P -1'
_symmetry_Int_Tables_number      2
_space_group_name_Hall           '-P 1'
loop_
_symmetry_equiv_pos_site_id
_symmetry_equiv_pos_as_xyz
1 x,y,z
2 -x,-y,-z
_cell_length_a                   4.8176(3)
_cell_length_b                   10.5351(6)
_cell_length_c                   16.9825(10)
_cell_angle_alpha                74.201(5)
_cell_angle_beta                 89.541(5)
_cell_angle_gamma                89.561(5)
_cell_volume                     829.327
_cell_formula_units_Z            2
loop_
_atom_site_label
_atom_site_type_symbol
_atom_site_fract_x
_atom_site_fract_y
_atom_site_fract_z
S1 S 0.09604(18) 0.84297(8) 0.08629(5)
S2 S 0.40829(19) 0.87120(8) -0.05776(5)
S3 S 0.2335(3) 0.59772(9) 0.03554(6)
F1 F 0.2993(4) 0.5461(2) 0.24051(14)
C1 C 0.5566(6) 0.7946(3) -0.19662(18)
F2 F 0.1246(5) 0.6704(3) -0.33246(16)
C2 C 0.2468(6) 0.7550(3) 0.02272(16)
F3 F 0.8943(5) 0.9609(2) -0.23165(15)
C3 C -0.0492(6) 0.7021(3) 0.24407(18)
C4 C 0.3636(7) 0.7236(3) -0.2257(2)
F4 F 0.2130(5) 0.6319(2) -0.17221(14)
F5 F -0.3893(5) 0.8553(2) 0.25694(16)
C5 C 0.7016(7) 0.8876(3) -0.2553(2)
C6 C 0.3173(7) 0.7420(4) -0.3075(2)
F6 F 0.4189(6) 0.8537(3) -0.44339(13)
C7 C -0.1196(6) 0.7212(4) 0.15617(19)
H1 H -0.3124 0.7484 0.1479
H2 H -0.0997 0.6375 0.1432
F7 F 0.4043(5) 0.5045(3) 0.40011(16)
C8 C 0.1520(7) 0.6141(3) 0.2839(2)
C9 C -0.1901(7) 0.7682(3) 0.2918(2)
F8 F -0.2833(7) 0.8152(3) 0.41661(18)
F9 F 0.8084(6) 0.9972(3) -0.39158(15)
C10 C 0.4638(8) 0.8349(4) -0.3642(2)
F10 F 0.1160(7) 0.6395(3) 0.48949(14)
C11 C 0.6588(8) 0.9080(4) -0.3376(2)
C12 C -0.1387(9) 0.7485(4) 0.3738(2)
C13 C 0.6171(7) 0.7710(4) -0.1075(2)
H3 H 0.8116 0.7890 -0.1013
H4 H 0.5855 0.6787 -0.0801
C14 C 0.2094(7) 0.5926(4) 0.3646(2)
C15 C 0.0641(9) 0.6595(4) 0.4101(2)
loop_
_geom_bond_atom_site_label_1
_geom_bond_atom_site_label_2
_geom_bond_site_symmetry_1
_geom_bond_site_symmetry_2
S1 C2 1_555 1_555
S2 C2 1_555 1_555
S3 C2 1_555 1_555
F1 C8 1_555 1_555
C1 C4 1_555 1_555
F2 C6 1_555 1_555
F3 C5 1_555 1_555
C3 C7 1_555 1_555
C4 F4 1_555 1_555
F5 C9 1_555 1_555
C5 C1 1_555 1_555
C6 C4 1_555 1_555
F6 C10 1_555 1_555
C7 S1 1_555 1_555
H1 C7 1_555 1_555
H2 C7 1_555 1_555
F7 C14 1_555 1_555
C8 C3 1_555 1_555
C9 C3 1_555 1_555
F8 C12 1_555 1_555
F9 C11 1_555 1_555
C10 C6 1_555 1_555
F10 C15 1_555 1_555
C11 C5 1_555 1_555
C12 C9 1_555 1_555
C13 S2 1_555 1_555
H3 C13 1_555 1_555
H4 C13 1_555 1_555
C14 C8 1_555 1_555
C15 C12 1_555 1_555
C1 C13 1_555 1_555
C10 C11 1_555 1_555
C14 C15 1_555 1_555

#END
