
#######################################################################
#
#                 Cambridge Crystallographic Data Centre
#                                CCDC 
#
#######################################################################
#
# If this CIF has been generated from an entry in the Cambridge 
# Structural Database, then it will include bibliographic, chemical, 
# crystal, experimental, refinement or atomic coordinate data resulting 
# from the CCDC's data processing and validation procedures.
#
#######################################################################

data_UQAPEJ
_chemical_name_common            Bisacodyl
_chemical_formula_moiety         'C22 H19 N1 O4'
_chemical_name_systematic        
'(pyridin-2-ylmethylene)di-4,1-phenylene diacetate'
_symmetry_cell_setting           triclinic
_symmetry_space_group_name_H-M   'P -1'
_symmetry_Int_Tables_number      2
_space_group_name_Hall           '-P 1'
loop_
_symmetry_equiv_pos_site_id
_symmetry_equiv_pos_as_xyz
1 x,y,z
2 -x,-y,-z
_cell_length_a                   9.0820(9)
_cell_length_b                   10.6525(13)
_cell_length_c                   11.5257(14)
_cell_angle_alpha                111.070(11)
_cell_angle_beta                 108.165(10)
_cell_angle_gamma                101.597(9)
_cell_volume                     924.96
_exptl_crystal_colour            colorless
_exptl_crystal_description       block
_cell_formula_units_Z            2
loop_
_atom_site_label
_atom_site_type_symbol
_atom_site_fract_x
_atom_site_fract_y
_atom_site_fract_z
O1 O 0.61959(18) 1.48585(15) 1.18655(14)
O2 O 0.8824(2) 1.63215(18) 1.32127(15)
O3 O 0.22374(18) 0.55065(15) 0.50533(13)
O4 O 0.2336(2) 0.48402(18) 0.30147(16)
N1 N 0.9238(2) 1.03658(18) 0.66992(16)
C1 C 0.9002(2) 1.0997(2) 0.78257(19)
C2 C 1.0250(3) 1.1593(3) 0.9124(2)
H1 H 1.0056 1.2038 0.9890
C3 C 1.1798(3) 1.1519(3) 0.9269(3)
H2 H 1.2657 1.1908 1.0136
C4 C 1.2048(3) 1.0868(3) 0.8127(3)
H3 H 1.3076 1.0806 0.8196
C5 C 1.0739(3) 1.0309(2) 0.6874(2)
H4 H 1.0911 0.9861 0.6096
C6 C 0.7258(2) 1.1022(2) 0.75405(18)
H5 H 0.7007 1.1391 0.6864
C7 C 0.7083(2) 1.2049(2) 0.87643(18)
C8 C 0.7377(3) 1.3464(2) 0.9022(2)
H6 H 0.7734 1.3784 0.8471
C9 C 0.7152(3) 1.4419(2) 1.0081(2)
H7 H 0.7359 1.5371 1.0239
C10 C 0.6625(3) 1.3955(2) 1.0892(2)
C11 C 0.6363(2) 1.2574(2) 1.06933(19)
H8 H 0.6038 1.2271 1.1267
C12 C 0.6585(2) 1.1626(2) 0.96256(19)
H9 H 0.6396 1.0681 0.9485
C13 C 0.7392(3) 1.6075(2) 1.2957(2)
C14 C 0.6629(3) 1.6971(2) 1.3714(2)
H10 H 0.5936 1.7270 1.3130
H11 H 0.7483 1.7802 1.4508
H12 H 0.5972 1.6420 1.3996
C15 C 0.5956(2) 0.9517(2) 0.68515(17)
C16 C 0.6290(2) 0.8394(2) 0.70748(19)
H13 H 0.7356 0.8541 0.7651
C17 C 0.5069(3) 0.7050(2) 0.6458(2)
H14 H 0.5310 0.6302 0.6616
C18 C 0.3499(2) 0.6841(2) 0.56106(19)
C19 C 0.3116(3) 0.7935(2) 0.53724(19)
H15 H 0.2045 0.7781 0.4802
C20 C 0.4350(2) 0.9270(2) 0.59949(19)
H16 H 0.4100 1.0015 0.5837
C21 C 0.1699(3) 0.4601(2) 0.3709(2)
C22 C 0.0274(3) 0.3306(2) 0.3272(2)
H17 H -0.0650 0.3584 0.3339
H18 H 0.0578 0.2858 0.3854
H19 H -0.0028 0.2640 0.2341
loop_
_geom_bond_atom_site_label_1
_geom_bond_atom_site_label_2
_geom_bond_site_symmetry_1
_geom_bond_site_symmetry_2
O1 C10 1_555 1_555
O2 C13 1_555 1_555
O3 C18 1_555 1_555
O4 C21 1_555 1_555
N1 C1 1_555 1_555
C1 C2 1_555 1_555
C2 H1 1_555 1_555
C3 C2 1_555 1_555
H2 C3 1_555 1_555
C4 C3 1_555 1_555
H3 C4 1_555 1_555
C5 N1 1_555 1_555
H4 C5 1_555 1_555
C6 C1 1_555 1_555
H5 C6 1_555 1_555
C7 C6 1_555 1_555
C8 C7 1_555 1_555
H6 C8 1_555 1_555
C9 C8 1_555 1_555
H7 C9 1_555 1_555
C10 C9 1_555 1_555
C11 C10 1_555 1_555
H8 C11 1_555 1_555
C12 C7 1_555 1_555
H9 C12 1_555 1_555
C13 O1 1_555 1_555
C14 C13 1_555 1_555
H10 C14 1_555 1_555
H11 C14 1_555 1_555
H12 C14 1_555 1_555
C15 C6 1_555 1_555
C16 C15 1_555 1_555
H13 C16 1_555 1_555
C17 C16 1_555 1_555
H14 C17 1_555 1_555
C18 C17 1_555 1_555
C19 C18 1_555 1_555
H15 C19 1_555 1_555
C20 C15 1_555 1_555
H16 C20 1_555 1_555
C21 O3 1_555 1_555
C22 C21 1_555 1_555
H17 C22 1_555 1_555
H18 C22 1_555 1_555
H19 C22 1_555 1_555
C4 C5 1_555 1_555
C11 C12 1_555 1_555
C19 C20 1_555 1_555

#END
