
#######################################################################
#
#                 Cambridge Crystallographic Data Centre
#                                CCDC 
#
#######################################################################
#
# If this CIF has been generated from an entry in the Cambridge 
# Structural Database, then it will include bibliographic, chemical, 
# crystal, experimental, refinement or atomic coordinate data resulting 
# from the CCDC's data processing and validation procedures.
#
#######################################################################

data_UQAXUG
_chemical_formula_moiety         
'C16 H18 N2 O6 S2,C42 H42 N28 O14,0.5(C2 H3 N1),0.75(C1 H4 O1),7(H2 O1)'
_chemical_name_systematic        
"[2]-(2,2'-((E)-Ethene-1,2-diyldipyridinium-4,1-diyl)diethanesulfonate)-(cucurbit[7]uril)-pseudorotaxane acetonitrile methanol solvate heptahydrate"
_symmetry_cell_setting           monoclinic
_symmetry_space_group_name_H-M   'P 21/n'
_symmetry_Int_Tables_number      14
_space_group_name_Hall           '-P 2yn'
loop_
_symmetry_equiv_pos_site_id
_symmetry_equiv_pos_as_xyz
1 x,y,z
2 1/2-x,1/2+y,1/2-z
3 -x,-y,-z
4 1/2+x,1/2-y,1/2+z
_cell_length_a                   13.6012(7)
_cell_length_b                   33.0413(16)
_cell_length_c                   17.1321(9)
_cell_angle_alpha                90
_cell_angle_beta                 90.944(3)
_cell_angle_gamma                90
_cell_volume                     7698.14
_exptl_crystal_colour            colorless
_exptl_crystal_description       block
_cell_formula_units_Z            4
loop_
_atom_site_label
_atom_site_type_symbol
_atom_site_fract_x
_atom_site_fract_y
_atom_site_fract_z
S1 S 1.02284(12) 0.30613(4) 0.28831(9)
O1 O 1.1285(3) 0.30503(12) 0.3000(3)
O2 O 0.9741(3) 0.32622(12) 0.3522(3)
O3 O 0.9937(4) 0.32212(12) 0.2130(3)
C1 C 0.9812(5) 0.25509(17) 0.2895(4)
H1 H 1.0176 0.2388 0.2509
H2 H 0.9925 0.2431 0.3418
C2 C 0.8723(5) 0.25520(16) 0.2691(4)
H3 H 0.8372 0.2727 0.3064
H4 H 0.8621 0.2665 0.2161
N1 N 0.8311(4) 0.21291(14) 0.2722(3)
C3 C 0.8186(6) 0.1927(2) 0.2065(4)
H5 H 0.8409 0.2025 0.1578
C4 C 0.7663(7) 0.1598(3) 0.3449(6)
H6 H 0.7563 0.1484 0.3951
C5 C 0.8072(6) 0.1976(2) 0.3416(5)
H7 H 0.8185 0.2128 0.3880
S2 S 0.2988(3) -0.05403(10) 0.2464(2)
O4 O 0.2171(5) -0.0757(3) 0.2132(5)
O5 O 0.3172(6) -0.0165(2) 0.2079(6)
O6 O 0.2944(5) -0.0498(2) 0.3286(3)
C6 C 0.7703(10) 0.1559(3) 0.2137(9)
H8 H 0.7558 0.1409 0.1675
C7 C 0.7412(9) 0.1393(3) 0.2869(9)
C8 C 0.6903(10) 0.1008(4) 0.2998(8)
H9 H 0.6582 0.0971 0.3481
C9 C 0.6862(9) 0.0714(4) 0.2497(9)
H10 H 0.7202 0.0741 0.2020
N2 N 0.5333(9) -0.0373(4) 0.2805(7)
C10 C 0.6114(8) -0.0353(3) 0.2306(6)
H11 H 0.6309 -0.0587 0.2026
C11 C 0.6628(8) 0.0015(3) 0.2210(6)
H12 H 0.7165 0.0034 0.1863
C12 C 0.6322(11) 0.0350(3) 0.2639(9)
C13 C 0.5534(9) 0.0291(3) 0.3152(7)
H13 H 0.5333 0.0513 0.3463
C14 C 0.5050(7) -0.0063(3) 0.3226(6)
H14 H 0.4517 -0.0088 0.3575
C15 C 0.4892(8) -0.0780(3) 0.2871(8)
H15 H 0.4643 -0.0817 0.3406
H16 H 0.5405 -0.0987 0.2784
C16 C 0.4044(7) -0.0845(3) 0.2280(6)
H17 H 0.3848 -0.1133 0.2289
H18 H 0.4282 -0.0783 0.1750
O7 O 0.4609(3) 0.10921(11) 0.3950(2)
O8 O 0.4528(3) 0.10244(11) 0.1849(2)
O9 O 0.6536(3) 0.06102(11) 0.0637(3)
O10 O 0.9098(3) 0.01343(11) 0.0974(3)
O11 O 1.0387(3) -0.00407(11) 0.2718(3)
O12 O 0.9185(3) 0.02522(11) 0.4463(2)
O13 O 0.6633(3) 0.07730(10) 0.4955(2)
O14 O 0.6724(3) 0.27256(11) 0.3838(2)
O15 O 0.6751(3) 0.26251(11) 0.1715(3)
O16 O 0.8564(3) 0.22319(11) 0.0140(3)
O17 O 1.0800(4) 0.18142(11) 0.0466(3)
O18 O 1.1544(3) 0.17191(11) 0.2376(3)
O19 O 1.0647(4) 0.19798(11) 0.4539(3)
O20 O 0.8604(3) 0.23820(11) 0.5234(2)
N3 N 0.5150(3) 0.16365(12) 0.4694(3)
N4 N 0.4453(4) 0.17527(13) 0.3533(3)
N5 N 0.4388(4) 0.17016(13) 0.2129(3)
N6 N 0.5041(4) 0.15227(13) 0.1008(3)
N7 N 0.6212(4) 0.12412(12) 0.0119(3)
N8 N 0.7659(4) 0.09632(12) -0.0099(3)
N9 N 0.9254(4) 0.06528(13) 0.0077(3)
N10 N 1.0577(4) 0.04394(13) 0.0720(3)
N11 N 1.1315(4) 0.04113(12) 0.2013(3)
N12 N 1.1424(4) 0.04304(13) 0.3305(3)
N13 N 1.0675(4) 0.05943(12) 0.4532(3)
N14 N 0.9422(3) 0.08187(12) 0.5226(3)
N15 N 0.7880(3) 0.11224(12) 0.5596(3)
N16 N 0.6365(3) 0.13727(12) 0.5604(3)
N17 N 0.5911(4) 0.23003(12) 0.4673(3)
N18 N 0.5275(4) 0.24089(13) 0.3493(3)
N19 N 0.5292(4) 0.23399(13) 0.2093(3)
N20 N 0.5898(4) 0.21767(12) 0.0930(3)
N21 N 0.7084(4) 0.18843(12) 0.0074(3)
N22 N 0.8398(4) 0.16131(13) -0.0456(3)
N23 N 0.9992(4) 0.13046(13) -0.0223(3)
N24 N 1.1182(4) 0.11319(13) 0.0632(3)
N25 N 1.1997(4) 0.10944(13) 0.1894(3)
N26 N 1.1757(4) 0.11576(13) 0.3149(3)
N27 N 1.1096(4) 0.13043(13) 0.4426(3)
N28 N 1.0162(4) 0.14842(13) 0.5424(3)
N29 N 0.8635(3) 0.17760(12) 0.5899(3)
N30 N 0.7198(3) 0.20213(12) 0.5502(3)
C17 C 0.4732(4) 0.14600(15) 0.4053(3)
C18 C 0.3881(4) 0.16579(17) 0.2843(4)
H19 H 0.3647 0.1375 0.2884
H20 H 0.3295 0.1835 0.2827
C19 C 0.4642(4) 0.13808(16) 0.1682(4)
C20 C 0.5186(5) 0.12653(18) 0.0331(4)
H21 H 0.4940 0.0990 0.0446
H22 H 0.4798 0.1373 -0.0116
C21 C 0.6773(5) 0.09063(16) 0.0263(4)
C22 C 0.8280(5) 0.06199(16) -0.0267(4)
H23 H 0.7963 0.0371 -0.0071
H24 H 0.8338 0.0593 -0.0840
C23 C 0.9590(5) 0.03843(16) 0.0633(4)
C24 C 1.1178(5) 0.02165(15) 0.1273(4)
H25 H 1.0873 -0.0051 0.1359
H26 H 1.1831 0.0170 0.1042
C25 C 1.0962(5) 0.02338(16) 0.2681(4)
C26 C 1.1259(5) 0.03067(17) 0.4102(4)
H27 H 1.1902 0.0272 0.4373
H28 H 1.0921 0.0041 0.4099
C27 C 0.9701(5) 0.05264(16) 0.4708(3)
C28 C 0.8556(4) 0.07749(14) 0.5675(3)
H29 H 0.8747 0.0743 0.6232
H30 H 0.8208 0.0526 0.5508
C29 C 0.6924(4) 0.10589(15) 0.5348(3)
C30 C 0.5329(4) 0.14174(16) 0.5410(3)
H31 H 0.5028 0.1145 0.5364
H32 H 0.5002 0.1561 0.5842
C31 C 0.6050(4) 0.25043(16) 0.3992(4)
C32 C 0.5120(5) 0.25999(15) 0.2755(3)
H33 H 0.5561 0.2837 0.2723
H34 H 0.4435 0.2700 0.2724
C33 C 0.6051(5) 0.23975(15) 0.1607(4)
C34 C 0.6449(5) 0.22326(16) 0.0241(4)
H35 H 0.6861 0.2478 0.0299
H36 H 0.5990 0.2276 -0.0206
C35 C 0.8061(5) 0.19398(15) -0.0065(3)
C36 C 0.9390(5) 0.15671(16) -0.0718(4)
H37 H 0.9702 0.1837 -0.0741
H38 H 0.9374 0.1455 -0.1254
C37 C 1.0654(5) 0.14547(17) 0.0301(4)
C38 C 1.2057(5) 0.12095(17) 0.1082(4)
H39 H 1.2209 0.1502 0.1053
H40 H 1.2610 0.1061 0.0845
C39 C 1.1738(4) 0.13565(17) 0.2456(4)
C40 C 1.1882(5) 0.13737(17) 0.3895(4)
H41 H 1.2509 0.1287 0.4146
H42 H 1.1929 0.1668 0.3789
C41 C 1.0635(5) 0.16229(17) 0.4773(4)
C42 C 0.9706(4) 0.17417(17) 0.5985(4)
H43 H 0.9995 0.2016 0.5944
H44 H 0.9863 0.1638 0.6514
C43 C 0.8187(4) 0.20921(15) 0.5519(3)
C44 C 0.6538(5) 0.23591(15) 0.5356(3)
H45 H 0.6120 0.2399 0.5817
H46 H 0.6931 0.2608 0.5285
C45 C 0.5006(4) 0.20718(15) 0.4690(3)
H47 H 0.4565 0.2163 0.5118
C46 C 0.4548(4) 0.21503(16) 0.3867(3)
H48 H 0.3895 0.2288 0.3901
C47 C 0.4534(4) 0.20880(15) 0.1730(3)
H49 H 0.3901 0.2239 0.1661
C48 C 0.4961(4) 0.19654(15) 0.0945(3)
H50 H 0.4522 0.2048 0.0499
C49 C 0.6693(5) 0.15347(16) -0.0355(3)
H51 H 0.6273 0.1619 -0.0811
C50 C 0.7633(5) 0.13160(15) -0.0614(3)
H52 H 0.7600 0.1237 -0.1178
C51 C 1.0054(5) 0.08665(15) -0.0284(4)
H53 H 1.0147 0.0778 -0.0836
C52 C 1.0936(5) 0.07606(16) 0.0229(4)
H54 H 1.1497 0.0665 -0.0092
C53 C 1.2126(4) 0.06876(16) 0.2174(3)
H55 H 1.2765 0.0571 0.2000
C54 C 1.2114(4) 0.07375(15) 0.3058(4)
H56 H 1.2781 0.0698 0.3301
C55 C 1.1058(4) 0.09445(17) 0.4923(3)
H57 H 1.1706 0.0888 0.5186
C56 C 1.0273(4) 0.10546(16) 0.5505(3)
H58 H 1.0473 0.0978 0.6050
C57 C 0.7949(4) 0.14708(15) 0.6121(3)
H59 H 0.8050 0.1386 0.6677
C58 C 0.6942(4) 0.16828(15) 0.5990(3)
H60 H 0.6644 0.1771 0.6492
O21 O 0.3368(8) 0.0237(2) -0.0086(5)
C59 C 0.4304(11) 0.0379(3) -0.0492(8)
H61 H 0.4140 0.0463 -0.1027
H62 H 0.4780 0.0156 -0.0504
H63 H 0.4590 0.0608 -0.0204
O22 O 0.3944(14) 0.0039(5) 0.4831(10)
C60 C 0.3836(17) 0.0450(6) 0.4799(12)
H64 H 0.4146 0.0573 0.5262
H65 H 0.3135 0.0518 0.4782
H66 H 0.4150 0.0554 0.4328
N31 N 0.7958(8) 0.3292(4) 0.0466(8)
C61 C 0.7766(12) 0.3447(5) 0.1082(13)
C62 C 0.7421(11) 0.3569(4) 0.1995(11)
H67 H 0.7532 0.3858 0.2084
H68 H 0.7810 0.3412 0.2374
H69 H 0.6722 0.3507 0.2055
O23 O 0.8038(3) 0.33587(12) 0.4398(3)
O24 O 0.8770(3) -0.05410(12) 0.1964(3)
O25 O 1.2452(4) 0.24961(13) 0.2211(3)
O26 O 0.8439(4) -0.03882(13) 0.3556(3)
O27 O 0.7748(4) 0.41565(14) 0.3950(3)
O28 O 0.0351(4) -0.10612(16) 0.2438(3)
O29 O 0.4455(6) 0.02329(18) 0.1172(4)
O30 O 0.6704(7) -0.0667(3) 0.4142(6)
C63? C 0.575(2) -0.0199(8) 0.2029(19)
C64? C 0.618(2) 0.0181(10) 0.2174(19)
C65? C 0.649(3) 0.0311(8) 0.2904(16)
C66? C 0.634(2) 0.0038(8) 0.3486(17)
C67? C 0.592(2) -0.0315(8) 0.3366(17)
C68? C 0.5284(17) -0.0856(7) 0.2466(17)
C69? C 0.4208(15) -0.0864(6) 0.2702(14)
C70? C 0.821(3) 0.1523(9) 0.1885(18)
C71? C 0.781(3) 0.1322(8) 0.2556(19)
C72? C 0.7338(17) 0.0920(6) 0.2457(12)
C73? C 0.6849(17) 0.0709(6) 0.3048(15)
H70? H 0.5540 -0.0283 0.1522
H71? H 0.6263 0.0359 0.1744
H72? H 0.6555 0.0106 0.4000
H73? H 0.5818 -0.0492 0.3794
H74? H 0.5345 -0.0915 0.1902
H75? H 0.5669 -0.1059 0.2767
H76? H 0.4189 -0.0800 0.3266
H77? H 0.3975 -0.1146 0.2641
H78? H 0.8450 0.1402 0.1421
H79? H 0.7368 0.0796 0.1958
H80? H 0.6760 0.0831 0.3544
N32? N 0.5651(17) -0.0428(10) 0.2650(14)
O31? O 0.3479(16) -0.0151(4) 0.2509(11)
O32? O 0.3501(16) -0.0596(6) 0.1411(8)
O33? O 0.2393(12) -0.0717(7) 0.2439(13)
S3? S 0.3343(8) -0.0550(3) 0.2229(6)
loop_
_geom_bond_atom_site_label_1
_geom_bond_atom_site_label_2
_geom_bond_site_symmetry_1
_geom_bond_site_symmetry_2
S1 O1 1_555 1_555
O2 S1 1_555 1_555
O3 S1 1_555 1_555
C1 S1 1_555 1_555
H1 C1 1_555 1_555
H2 C1 1_555 1_555
C2 C1 1_555 1_555
H3 C2 1_555 1_555
H4 C2 1_555 1_555
N1 C2 1_555 1_555
C3 N1 1_555 1_555
H5 C3 1_555 1_555
C4 H6 1_555 1_555
C5 N1 1_555 1_555
H7 C5 1_555 1_555
S2 O4 1_555 1_555
O5 S2 1_555 1_555
O6 S2 1_555 1_555
C6 C3 1_555 1_555
H8 C6 1_555 1_555
C7 C4 1_555 1_555
C8 C7 1_555 1_555
H9 C8 1_555 1_555
C9 C8 1_555 1_555
H10 C9 1_555 1_555
N2 C10 1_555 1_555
C10 H11 1_555 1_555
C11 C10 1_555 1_555
H12 C11 1_555 1_555
C12 C9 1_555 1_555
C13 C12 1_555 1_555
H13 C13 1_555 1_555
C14 N2 1_555 1_555
H14 C14 1_555 1_555
C15 N2 1_555 1_555
H15 C15 1_555 1_555
H16 C15 1_555 1_555
C16 S2 1_555 1_555
H17 C16 1_555 1_555
H18 C16 1_555 1_555
O7 C17 1_555 1_555
O8 C19 1_555 1_555
O9 C21 1_555 1_555
O10 C23 1_555 1_555
O11 C25 1_555 1_555
O12 C27 1_555 1_555
O13 C29 1_555 1_555
O14 C31 1_555 1_555
O15 C33 1_555 1_555
O16 C35 1_555 1_555
O17 C37 1_555 1_555
O18 C39 1_555 1_555
O19 C41 1_555 1_555
O20 C43 1_555 1_555
N3 C17 1_555 1_555
N4 C17 1_555 1_555
N5 C18 1_555 1_555
N6 C19 1_555 1_555
N7 C20 1_555 1_555
N8 C21 1_555 1_555
N9 C22 1_555 1_555
N10 C23 1_555 1_555
N11 C24 1_555 1_555
N12 C25 1_555 1_555
N13 C26 1_555 1_555
N14 C27 1_555 1_555
N15 C28 1_555 1_555
N16 C29 1_555 1_555
N17 C31 1_555 1_555
N18 C31 1_555 1_555
N19 C32 1_555 1_555
N20 C33 1_555 1_555
N21 C34 1_555 1_555
N22 C35 1_555 1_555
N23 C36 1_555 1_555
N24 C37 1_555 1_555
N25 C38 1_555 1_555
N26 C39 1_555 1_555
N27 C40 1_555 1_555
N28 C41 1_555 1_555
N29 C42 1_555 1_555
N30 C43 1_555 1_555
C18 N4 1_555 1_555
H19 C18 1_555 1_555
H20 C18 1_555 1_555
C19 N5 1_555 1_555
C20 N6 1_555 1_555
H21 C20 1_555 1_555
H22 C20 1_555 1_555
C21 N7 1_555 1_555
C22 N8 1_555 1_555
H23 C22 1_555 1_555
H24 C22 1_555 1_555
C23 N9 1_555 1_555
C24 N10 1_555 1_555
H25 C24 1_555 1_555
H26 C24 1_555 1_555
C25 N11 1_555 1_555
C26 N12 1_555 1_555
H27 C26 1_555 1_555
H28 C26 1_555 1_555
C27 N13 1_555 1_555
C28 N14 1_555 1_555
H29 C28 1_555 1_555
H30 C28 1_555 1_555
C29 N15 1_555 1_555
C30 N3 1_555 1_555
H31 C30 1_555 1_555
H32 C30 1_555 1_555
C32 N18 1_555 1_555
H33 C32 1_555 1_555
H34 C32 1_555 1_555
C33 N19 1_555 1_555
C34 N20 1_555 1_555
H35 C34 1_555 1_555
H36 C34 1_555 1_555
C35 N21 1_555 1_555
C36 N22 1_555 1_555
H37 C36 1_555 1_555
H38 C36 1_555 1_555
C37 N23 1_555 1_555
C38 N24 1_555 1_555
H39 C38 1_555 1_555
H40 C38 1_555 1_555
C39 N25 1_555 1_555
C40 N26 1_555 1_555
H41 C40 1_555 1_555
H42 C40 1_555 1_555
C41 N27 1_555 1_555
C42 N28 1_555 1_555
H43 C42 1_555 1_555
H44 C42 1_555 1_555
C43 N29 1_555 1_555
C44 N17 1_555 1_555
H45 C44 1_555 1_555
H46 C44 1_555 1_555
C45 N3 1_555 1_555
H47 C45 1_555 1_555
C46 N4 1_555 1_555
H48 C46 1_555 1_555
C47 N5 1_555 1_555
H49 C47 1_555 1_555
C48 N6 1_555 1_555
H50 C48 1_555 1_555
C49 N7 1_555 1_555
H51 C49 1_555 1_555
C50 N8 1_555 1_555
H52 C50 1_555 1_555
C51 N9 1_555 1_555
H53 C51 1_555 1_555
C52 N10 1_555 1_555
H54 C52 1_555 1_555
C53 N11 1_555 1_555
H55 C53 1_555 1_555
C54 N12 1_555 1_555
H56 C54 1_555 1_555
C55 N13 1_555 1_555
H57 C55 1_555 1_555
C56 N14 1_555 1_555
H58 C56 1_555 1_555
C57 N15 1_555 1_555
H59 C57 1_555 1_555
C58 N16 1_555 1_555
H60 C58 1_555 1_555
O21 C59 1_555 1_555
C59 H61 1_555 1_555
H62 C59 1_555 1_555
H63 C59 1_555 1_555
O22 C60 1_555 1_555
C60 H64 1_555 1_555
H65 C60 1_555 1_555
H66 C60 1_555 1_555
N31 C61 1_555 1_555
C61 C62 1_555 1_555
C62 H67 1_555 1_555
H68 C62 1_555 1_555
H69 C62 1_555 1_555
C4 C5 1_555 1_555
C6 C7 1_555 1_555
C11 C12 1_555 1_555
C13 C14 1_555 1_555
C15 C16 1_555 1_555
N16 C30 1_555 1_555
N17 C45 1_555 1_555
N18 C46 1_555 1_555
N19 C47 1_555 1_555
N20 C48 1_555 1_555
N21 C49 1_555 1_555
N22 C50 1_555 1_555
N23 C51 1_555 1_555
N24 C52 1_555 1_555
N25 C53 1_555 1_555
N26 C54 1_555 1_555
N27 C55 1_555 1_555
N28 C56 1_555 1_555
N29 C57 1_555 1_555
N30 C44 1_555 1_555
N30 C58 1_555 1_555
C45 C46 1_555 1_555
C47 C48 1_555 1_555
C49 C50 1_555 1_555
C51 C52 1_555 1_555
C53 C54 1_555 1_555
C55 C56 1_555 1_555
C57 C58 1_555 1_555

#END
