
#######################################################################
#
#                 Cambridge Crystallographic Data Centre
#                                CCDC 
#
#######################################################################
#
# If this CIF has been generated from an entry in the Cambridge 
# Structural Database, then it will include bibliographic, chemical, 
# crystal, experimental, refinement or atomic coordinate data resulting 
# from the CCDC's data processing and validation procedures.
#
#######################################################################

data_UQEKAD
_chemical_name_common            Miltipolone
_chemical_formula_moiety         'C19 H24 O3'
_chemical_name_systematic        
4-Hydroxy-6,12,12-trimethyl-17-oxatetracyclo[7.6.2.0^1,11^.0^2,8^]heptadeca-2(8),3,6-trien-5-one
_chemical_properties_biological  'anti-cancer activity'
_symmetry_cell_setting           orthorhombic
_symmetry_space_group_name_H-M   'P 21 21 21'
_symmetry_Int_Tables_number      19
_space_group_name_Hall           'P 2ac 2ab'
loop_
_symmetry_equiv_pos_site_id
_symmetry_equiv_pos_as_xyz
1 x,y,z
2 1/2-x,-y,1/2+z
3 -x,1/2+y,1/2-z
4 1/2+x,1/2-y,-z
_cell_length_a                   7.4404(2)
_cell_length_b                   8.96345(15)
_cell_length_c                   23.215(5)
_cell_angle_alpha                90
_cell_angle_beta                 90
_cell_angle_gamma                90
_cell_volume                     1548.25
_exptl_crystal_colour            'pale yellow'
_exptl_crystal_description       prism
_cell_formula_units_Z            4
loop_
_atom_site_label
_atom_site_type_symbol
_atom_site_fract_x
_atom_site_fract_y
_atom_site_fract_z
O1 O 0.5428(4) 0.2329(2) 0.44053(11)
O2 O 0.5407(4) 0.9367(2) 0.41249(11)
H1 H 0.5499 1.0146 0.4299
O3 O 0.6077(4) 0.9482(3) 0.52005(12)
C1 C 0.5685(6) 0.4754(4) 0.30657(16)
H2 H 0.6355 0.5660 0.2986
H3 H 0.4419 0.5010 0.3073
C2 C 0.6019(6) 0.3635(4) 0.25781(17)
H4 H 0.5286 0.2753 0.2636
H5 H 0.5688 0.4078 0.2212
C3 C 0.7994(6) 0.3206(4) 0.25709(15)
H6 H 0.8705 0.4095 0.2500
H7 H 0.8201 0.2524 0.2253
C4 C 0.8652(6) 0.2473(4) 0.31285(16)
C5 C 0.8162(6) 0.3502(4) 0.36491(15)
H8 H 0.8967 0.4364 0.3616
C6 C 0.8574(5) 0.2817(4) 0.42467(15)
H9 H 0.8785 0.1753 0.4208
H10 H 0.9647 0.3270 0.4407
C7 C 0.6993(6) 0.3089(4) 0.46423(16)
H11 H 0.7258 0.2703 0.5028
C8 C 0.6583(5) 0.4742(4) 0.46745(16)
C9 C 0.6243(5) 0.5340(4) 0.41400(15)
C10 C 0.6227(6) 0.4170(4) 0.36566(16)
C11 C 0.5838(5) 0.6856(4) 0.40176(17)
H12 H 0.5540 0.7057 0.3636
C12 C 0.5821(5) 0.8070(4) 0.43788(18)
C13 C 0.6089(6) 0.8200(4) 0.50028(18)
C14 C 0.6293(6) 0.6919(4) 0.53757(17)
C15 C 0.6552(5) 0.5458(4) 0.52137(15)
H13 H 0.6746 0.4815 0.5522
C16 C 0.4850(6) 0.3000(4) 0.38760(15)
H14 H 0.3696 0.3479 0.3934
H15 H 0.4698 0.2230 0.3586
C17 C 1.0715(6) 0.2338(4) 0.31059(18)
H16 H 1.1059 0.1801 0.2765
H17 H 1.1132 0.1812 0.3440
H18 H 1.1239 0.3316 0.3098
C18 C 0.7885(6) 0.0883(4) 0.31638(16)
H19 H 0.8214 0.0338 0.2824
H20 H 0.6600 0.0929 0.3193
H21 H 0.8364 0.0389 0.3497
C19 C 0.6238(7) 0.7295(4) 0.60061(17)
H22 H 0.6543 0.6426 0.6228
H23 H 0.5051 0.7621 0.6108
H24 H 0.7084 0.8076 0.6086
loop_
_geom_bond_atom_site_label_1
_geom_bond_atom_site_label_2
_geom_bond_site_symmetry_1
_geom_bond_site_symmetry_2
O1 C7 1_555 1_555
O2 H1 1_555 1_555
O3 C13 1_555 1_555
C1 H2 1_555 1_555
H3 C1 1_555 1_555
C2 C1 1_555 1_555
H4 C2 1_555 1_555
H5 C2 1_555 1_555
C3 C2 1_555 1_555
H6 C3 1_555 1_555
H7 C3 1_555 1_555
C4 C3 1_555 1_555
C5 C4 1_555 1_555
H8 C5 1_555 1_555
C6 C5 1_555 1_555
H9 C6 1_555 1_555
H10 C6 1_555 1_555
C7 C6 1_555 1_555
H11 C7 1_555 1_555
C8 C7 1_555 1_555
C9 C8 1_555 1_555
C10 C1 1_555 1_555
C11 C9 1_555 1_555
H12 C11 1_555 1_555
C12 O2 1_555 1_555
C13 C12 1_555 1_555
C14 C13 1_555 1_555
C15 C8 1_555 1_555
H13 C15 1_555 1_555
C16 O1 1_555 1_555
H14 C16 1_555 1_555
H15 C16 1_555 1_555
C17 C4 1_555 1_555
H16 C17 1_555 1_555
H17 C17 1_555 1_555
H18 C17 1_555 1_555
C18 C4 1_555 1_555
H19 C18 1_555 1_555
H20 C18 1_555 1_555
H21 C18 1_555 1_555
C19 C14 1_555 1_555
H22 C19 1_555 1_555
H23 C19 1_555 1_555
H24 C19 1_555 1_555
C5 C10 1_555 1_555
C9 C10 1_555 1_555
C10 C16 1_555 1_555
C11 C12 1_555 1_555
C14 C15 1_555 1_555

#END
