
#######################################################################
#
#                 Cambridge Crystallographic Data Centre
#                                CCDC 
#
#######################################################################
#
# If this CIF has been generated from an entry in the Cambridge 
# Structural Database, then it will include bibliographic, chemical, 
# crystal, experimental, refinement or atomic coordinate data resulting 
# from the CCDC's data processing and validation procedures.
#
#######################################################################

data_UQEYAS
_chemical_formula_moiety         'C76 H60 N10 P4,2(C1 H4 O1),2(H2 O1)'
_chemical_name_systematic        
"3,3',5,5'-tetrakis((triphenylphosphoranylidene)amino)-4,4'-bi-1,2,4-triazole methanol solvate dihydrate"
_symmetry_cell_setting           monoclinic
_symmetry_space_group_name_H-M   'C 2/c'
_symmetry_Int_Tables_number      15
_space_group_name_Hall           '-C 2yn'
loop_
_symmetry_equiv_pos_site_id
_symmetry_equiv_pos_as_xyz
1 x,y,z
2 -x,y,1/2-z
3 1/2+x,1/2+y,z
4 1/2-x,1/2+y,1/2-z
5 -x,-y,-z
6 x,-y,1/2+z
7 1/2-x,1/2-y,-z
8 1/2+x,1/2-y,1/2+z
_cell_length_a                   27.840(6)
_cell_length_b                   14.094(2)
_cell_length_c                   20.900(4)
_cell_angle_alpha                90
_cell_angle_beta                 122.302(2)
_cell_angle_gamma                90
_cell_volume                     6931.57
_exptl_crystal_colour            yellow
_exptl_crystal_description       Prism
_cell_formula_units_Z            4
_exptl_crystal_recrystallization_method methanol
loop_
_atom_site_label
_atom_site_type_symbol
_atom_site_fract_x
_atom_site_fract_y
_atom_site_fract_z
P1 P 0.47989(2) 0.25609(3) 0.09467(3)
P2 P 0.62949(2) 0.63359(3) 0.37872(3)
N1 N 0.57985(7) 0.38286(12) 0.21673(10)
N2 N 0.60750(7) 0.46061(12) 0.26734(10)
N3 N 0.52130(6) 0.44937(10) 0.24303(8)
N4 N 0.48392(7) 0.32015(12) 0.15926(9)
N5 N 0.57483(7) 0.57385(12) 0.32426(10)
C1 C 0.52840(8) 0.37812(12) 0.20348(10)
C2 C 0.57169(8) 0.49838(12) 0.28275(10)
C3 C 0.40899(8) 0.20808(13) 0.04643(10)
C4 C 0.37689(9) 0.21825(14) 0.07933(12)
H1 H 0.3924 0.2500 0.1265
C5 C 0.32213(9) 0.18161(16) 0.04271(13)
H2 H 0.3002 0.1880 0.0650
C6 C 0.29944(9) 0.13589(16) -0.02596(14)
H3 H 0.2618 0.1115 -0.0508
C7 C 0.33105(9) 0.12531(15) -0.05882(13)
H4 H 0.3152 0.0938 -0.1061
C8 C 0.38604(9) 0.16092(15) -0.02240(12)
H5 H 0.4080 0.1531 -0.0445
C9 C 0.49012(9) 0.31652(13) 0.02677(11)
C10 C 0.54550(10) 0.33408(16) 0.04582(13)
H6 H 0.5768 0.3081 0.0908
C11 C 0.55458(12) 0.38996(18) -0.00156(15)
H7 H 0.5923 0.4023 0.0114
C12 C 0.50928(13) 0.42768(18) -0.06725(15)
H8 H 0.5159 0.4653 -0.0995
C13 C 0.45463(13) 0.41090(17) -0.08608(14)
H9 H 0.4236 0.4369 -0.1313
C14 C 0.44458(10) 0.35584(15) -0.03898(12)
H10 H 0.4068 0.3452 -0.0517
C15 C 0.52894(8) 0.15704(14) 0.13014(12)
C16 C 0.54527(10) 0.10953(16) 0.08632(15)
H11 H 0.5305 0.1284 0.0355
C17 C 0.58324(13) 0.03442(19) 0.1175(2)
H12 H 0.5949 0.0025 0.0880
C18 C 0.60406(13) 0.0059(2) 0.1906(2)
H13 H 0.6297 -0.0460 0.2111
C19 C 0.58806(13) 0.0522(2) 0.23439(19)
H14 H 0.6026 0.0320 0.2849
C20 C 0.55064(11) 0.12819(17) 0.20475(14)
H15 H 0.5398 0.1605 0.2350
C21 C 0.67501(9) 0.57445(14) 0.46837(12)
C22 C 0.66552(10) 0.47864(15) 0.47346(14)
H16 H 0.6349 0.4470 0.4311
C23 C 0.70056(11) 0.42908(17) 0.54009(14)
H17 H 0.6938 0.3636 0.5428
C24 C 0.74489(12) 0.47358(19) 0.60214(14)
H18 H 0.7695 0.4391 0.6472
C25 C 0.75304(15) 0.5696(2) 0.59771(15)
H19 H 0.7830 0.6015 0.6406
C26 C 0.71828(14) 0.61997(19) 0.53180(14)
H20 H 0.7241 0.6861 0.5301
C27 C 0.60276(10) 0.74412(14) 0.39129(13)
C28 C 0.54542(11) 0.75626(17) 0.35871(17)
H21 H 0.5201 0.7056 0.3315
C29 C 0.52419(14) 0.8423(2) 0.3654(2)
H22 H 0.4844 0.8498 0.3426
C30 C 0.55946(14) 0.91618(19) 0.40399(18)
H23 H 0.5446 0.9736 0.4104
C31 C 0.61596(16) 0.9070(2) 0.4332(2)
H24 H 0.6407 0.9592 0.4581
C32 C 0.63772(13) 0.8209(2) 0.4266(2)
H25 H 0.6773 0.8151 0.4469
C33 C 0.67333(9) 0.66527(15) 0.34241(12)
C34 C 0.72977(11) 0.63856(19) 0.37652(17)
H26 H 0.7478 0.6046 0.4230
C35 C 0.76022(15) 0.6611(2) 0.3433(2)
H27 H 0.7991 0.6434 0.3677
C36 C 0.73482(18) 0.7083(3) 0.2762(2)
H28 H 0.7560 0.7234 0.2539
C37 C 0.6778(2) 0.7347(3) 0.2401(2)
H29 H 0.6599 0.7669 0.1929
C38 C 0.64736(14) 0.7135(2) 0.27352(16)
H30 H 0.6087 0.7320 0.2493
P1A P 0.52011(2) 0.25609(3) 0.40533(3)
P2A P 0.37051(2) 0.63359(3) 0.12128(3)
N1A N 0.42015(7) 0.38286(12) 0.28327(10)
N2A N 0.39250(7) 0.46061(12) 0.23266(10)
N3A N 0.47870(6) 0.44937(10) 0.25697(8)
N4A N 0.51608(7) 0.32015(12) 0.34074(9)
N5A N 0.42517(7) 0.57385(12) 0.17574(10)
C1A C 0.47160(8) 0.37812(12) 0.29652(10)
C2A C 0.42831(8) 0.49838(12) 0.21725(10)
C3A C 0.59101(8) 0.20808(13) 0.45357(10)
C4A C 0.62311(9) 0.21825(14) 0.42067(12)
H1A H 0.6076 0.2500 0.3735
C5A C 0.67787(9) 0.18161(16) 0.45729(13)
H2A H 0.6998 0.1880 0.4350
C6A C 0.70056(9) 0.13589(16) 0.52596(14)
H3A H 0.7382 0.1115 0.5508
C7A C 0.66895(9) 0.12531(15) 0.55882(13)
H4A H 0.6848 0.0938 0.6061
C8A C 0.61396(9) 0.16092(15) 0.52240(12)
H5A H 0.5920 0.1531 0.5445
C9A C 0.50988(9) 0.31652(13) 0.47323(11)
C10A C 0.45450(10) 0.33408(16) 0.45418(13)
H6A H 0.4232 0.3081 0.4092
C11A C 0.44542(12) 0.38996(18) 0.50156(15)
H7A H 0.4077 0.4023 0.4886
C12A C 0.49072(13) 0.42768(18) 0.56725(15)
H8A H 0.4841 0.4653 0.5995
C13A C 0.54537(13) 0.41090(17) 0.58608(14)
H9A H 0.5764 0.4369 0.6313
C14A C 0.55542(10) 0.35584(15) 0.53898(12)
H10A H 0.5932 0.3452 0.5517
C15A C 0.47106(8) 0.15704(14) 0.36986(12)
C16A C 0.45473(10) 0.10953(16) 0.41368(15)
H11A H 0.4695 0.1284 0.4645
C17A C 0.41676(13) 0.03442(19) 0.3825(2)
H12A H 0.4051 0.0025 0.4120
C18A C 0.39594(13) 0.0059(2) 0.3094(2)
H13A H 0.3703 -0.0460 0.2889
C19A C 0.41194(13) 0.0522(2) 0.26561(19)
H14A H 0.3974 0.0320 0.2151
C20A C 0.44936(11) 0.12819(17) 0.29525(14)
H15A H 0.4602 0.1605 0.2650
C21A C 0.32499(9) 0.57445(14) 0.03163(12)
C22A C 0.33448(10) 0.47864(15) 0.02654(14)
H16A H 0.3651 0.4470 0.0689
C23A C 0.29944(11) 0.42908(17) -0.04009(14)
H17A H 0.3062 0.3636 -0.0428
C24A C 0.25511(12) 0.47358(19) -0.10214(14)
H18A H 0.2305 0.4391 -0.1472
C25A C 0.24696(15) 0.5696(2) -0.09771(15)
H19A H 0.2170 0.6015 -0.1406
C26A C 0.28172(14) 0.61997(19) -0.03180(14)
H20A H 0.2759 0.6861 -0.0301
C27A C 0.39724(10) 0.74412(14) 0.10871(13)
C28A C 0.45458(11) 0.75626(17) 0.14129(17)
H21A H 0.4799 0.7056 0.1685
C29A C 0.47581(14) 0.8423(2) 0.1346(2)
H22A H 0.5156 0.8498 0.1574
C30A C 0.44054(14) 0.91618(19) 0.09601(18)
H23A H 0.4554 0.9736 0.0896
C31A C 0.38404(16) 0.9070(2) 0.0668(2)
H24A H 0.3593 0.9592 0.0419
C32A C 0.36228(13) 0.8209(2) 0.0734(2)
H25A H 0.3227 0.8151 0.0531
C33A C 0.32667(9) 0.66527(15) 0.15759(12)
C34A C 0.27023(11) 0.63856(19) 0.12348(17)
H26A H 0.2522 0.6046 0.0770
C35A C 0.23978(15) 0.6611(2) 0.1567(2)
H27A H 0.2009 0.6434 0.1323
C36A C 0.26518(18) 0.7083(3) 0.2238(2)
H28A H 0.2440 0.7234 0.2461
C37A C 0.3222(2) 0.7347(3) 0.2599(2)
H29A H 0.3401 0.7669 0.3071
C38A C 0.35264(14) 0.7135(2) 0.22648(16)
H30A H 0.3913 0.7320 0.2507
O1 O 0.71346(7) 0.43359(14) 0.29692(11)
C39 C 0.70839(13) 0.4502(2) 0.22704(18)
H31 H 0.6977 0.5165 0.2121
H32 H 0.6791 0.4084 0.1884
H33 H 0.7448 0.4371 0.2321
H34 H 0.6764(15) 0.453(3) 0.287(2)
O2 O 0.68217(10) 0.24255(16) 0.29881(15)
H35 H 0.703(3) 0.302(6) 0.307(4)
H36 H 0.663(3) 0.252(5) 0.240(4)
loop_
_geom_bond_atom_site_label_1
_geom_bond_atom_site_label_2
_geom_bond_site_symmetry_1
_geom_bond_site_symmetry_2
P1 N4 1_555 1_555
P2 N5 1_555 1_555
N1 N2 1_555 1_555
N2 C2 1_555 1_555
N3 C1 1_555 1_555
N4 C1 1_555 1_555
N5 C2 1_555 1_555
C1 N1 1_555 1_555
C2 N3 1_555 1_555
C3 P1 1_555 1_555
C4 C3 1_555 1_555
H1 C4 1_555 1_555
C5 C4 1_555 1_555
H2 C5 1_555 1_555
C6 C5 1_555 1_555
H3 C6 1_555 1_555
C7 C6 1_555 1_555
H4 C7 1_555 1_555
C8 C3 1_555 1_555
H5 C8 1_555 1_555
C9 P1 1_555 1_555
C10 C9 1_555 1_555
H6 C10 1_555 1_555
C11 C10 1_555 1_555
H7 C11 1_555 1_555
C12 C11 1_555 1_555
H8 C12 1_555 1_555
C13 C12 1_555 1_555
H9 C13 1_555 1_555
C14 C9 1_555 1_555
H10 C14 1_555 1_555
C15 P1 1_555 1_555
C16 C15 1_555 1_555
H11 C16 1_555 1_555
C17 C16 1_555 1_555
H12 C17 1_555 1_555
C18 C17 1_555 1_555
H13 C18 1_555 1_555
C19 C18 1_555 1_555
H14 C19 1_555 1_555
C20 C15 1_555 1_555
H15 C20 1_555 1_555
C21 P2 1_555 1_555
C22 C21 1_555 1_555
H16 C22 1_555 1_555
C23 C22 1_555 1_555
H17 C23 1_555 1_555
C24 C23 1_555 1_555
H18 C24 1_555 1_555
C25 C24 1_555 1_555
H19 C25 1_555 1_555
C26 C21 1_555 1_555
H20 C26 1_555 1_555
C27 P2 1_555 1_555
C28 C27 1_555 1_555
H21 C28 1_555 1_555
C29 C28 1_555 1_555
H22 C29 1_555 1_555
C30 C29 1_555 1_555
H23 C30 1_555 1_555
C31 C30 1_555 1_555
H24 C31 1_555 1_555
C32 C27 1_555 1_555
H25 C32 1_555 1_555
C33 P2 1_555 1_555
C34 C33 1_555 1_555
H26 C34 1_555 1_555
C35 C34 1_555 1_555
H27 C35 1_555 1_555
C36 C35 1_555 1_555
H28 C36 1_555 1_555
C37 C36 1_555 1_555
H29 C37 1_555 1_555
C38 C33 1_555 1_555
H30 C38 1_555 1_555
O1 C39 1_555 1_555
C39 H31 1_555 1_555
H32 C39 1_555 1_555
H33 C39 1_555 1_555
H34 O1 1_555 1_555
O2 H35 1_555 1_555
H36 O2 1_555 1_555
P1A N4A 1_555 1_555
P2A N5A 1_555 1_555
N1A N2A 1_555 1_555
N2A C2A 1_555 1_555
N3A N3 1_555 1_555
N4A C1A 1_555 1_555
N5A C2A 1_555 1_555
C1A N1A 1_555 1_555
C2A N3A 1_555 1_555
C3A P1A 1_555 1_555
C4A C3A 1_555 1_555
H1A C4A 1_555 1_555
C5A C4A 1_555 1_555
H2A C5A 1_555 1_555
C6A C5A 1_555 1_555
H3A C6A 1_555 1_555
C7A C6A 1_555 1_555
H4A C7A 1_555 1_555
C8A C3A 1_555 1_555
H5A C8A 1_555 1_555
C9A P1A 1_555 1_555
C10A C9A 1_555 1_555
H6A C10A 1_555 1_555
C11A C10A 1_555 1_555
H7A C11A 1_555 1_555
C12A C11A 1_555 1_555
H8A C12A 1_555 1_555
C13A C12A 1_555 1_555
H9A C13A 1_555 1_555
C14A C9A 1_555 1_555
H10A C14A 1_555 1_555
C15A P1A 1_555 1_555
C16A C15A 1_555 1_555
H11A C16A 1_555 1_555
C17A C16A 1_555 1_555
H12A C17A 1_555 1_555
C18A C17A 1_555 1_555
H13A C18A 1_555 1_555
C19A C18A 1_555 1_555
H14A C19A 1_555 1_555
C20A C15A 1_555 1_555
H15A C20A 1_555 1_555
C21A P2A 1_555 1_555
C22A C21A 1_555 1_555
H16A C22A 1_555 1_555
C23A C22A 1_555 1_555
H17A C23A 1_555 1_555
C24A C23A 1_555 1_555
H18A C24A 1_555 1_555
C25A C24A 1_555 1_555
H19A C25A 1_555 1_555
C26A C21A 1_555 1_555
H20A C26A 1_555 1_555
C27A P2A 1_555 1_555
C28A C27A 1_555 1_555
H21A C28A 1_555 1_555
C29A C28A 1_555 1_555
H22A C29A 1_555 1_555
C30A C29A 1_555 1_555
H23A C30A 1_555 1_555
C31A C30A 1_555 1_555
H24A C31A 1_555 1_555
C32A C27A 1_555 1_555
H25A C32A 1_555 1_555
C33A P2A 1_555 1_555
C34A C33A 1_555 1_555
H26A C34A 1_555 1_555
C35A C34A 1_555 1_555
H27A C35A 1_555 1_555
C36A C35A 1_555 1_555
H28A C36A 1_555 1_555
C37A C36A 1_555 1_555
H29A C37A 1_555 1_555
C38A C33A 1_555 1_555
H30A C38A 1_555 1_555
C7 C8 1_555 1_555
C13 C14 1_555 1_555
C19 C20 1_555 1_555
C25 C26 1_555 1_555
C31 C32 1_555 1_555
C37 C38 1_555 1_555
N3A C1A 1_555 1_555
C7A C8A 1_555 1_555
C13A C14A 1_555 1_555
C19A C20A 1_555 1_555
C25A C26A 1_555 1_555
C31A C32A 1_555 1_555
C37A C38A 1_555 1_555

#END
