
#######################################################################
#
#                 Cambridge Crystallographic Data Centre
#                                CCDC 
#
#######################################################################
#
# If this CIF has been generated from an entry in the Cambridge 
# Structural Database, then it will include bibliographic, chemical, 
# crystal, experimental, refinement or atomic coordinate data resulting 
# from the CCDC's data processing and validation procedures.
#
#######################################################################

data_UQILOW
_chemical_formula_moiety         'C11 H10 N2 O1'
_chemical_name_systematic        1H,3H-[1,4]Oxazepino[4,3-a]benzimidazole
_symmetry_cell_setting           monoclinic
_symmetry_space_group_name_H-M   'P 21'
_symmetry_Int_Tables_number      4
_space_group_name_Hall           'P 2yb'
loop_
_symmetry_equiv_pos_site_id
_symmetry_equiv_pos_as_xyz
1 x,y,z
2 -x,1/2+y,-z
_cell_length_a                   8.3263(15)
_cell_length_b                   5.9839(11)
_cell_length_c                   9.1599(16)
_cell_angle_alpha                90
_cell_angle_beta                 94.155(3)
_cell_angle_gamma                90
_cell_volume                     455.181
_exptl_crystal_colour            colorless
_exptl_crystal_description       prismatic
_cell_formula_units_Z            2
loop_
_atom_site_label
_atom_site_type_symbol
_atom_site_fract_x
_atom_site_fract_y
_atom_site_fract_z
O1 O 0.8431(2) 0.1192(3) 0.11537(19)
N1 N 0.4397(2) 0.0348(4) 0.1843(2)
N2 N 0.5707(2) 0.3589(4) 0.2248(2)
C1 C 0.3583(3) 0.1636(4) 0.2819(3)
C2 C 0.2202(3) 0.1168(6) 0.3531(3)
H1 H 0.1649 -0.0172 0.3378
C3 C 0.1684(4) 0.2775(7) 0.4476(3)
H2 H 0.0760 0.2505 0.4961
C4 C 0.2490(3) 0.4758(6) 0.4719(3)
H3 H 0.2098 0.5786 0.5367
C5 C 0.3865(3) 0.5270(5) 0.4032(2)
H4 H 0.4412 0.6613 0.4195
C6 C 0.4382(3) 0.3651(5) 0.3080(2)
C7 C 0.5625(3) 0.1579(5) 0.1531(2)
C8 C 0.6842(3) 0.0922(5) 0.0501(2)
H5 H 0.6675 -0.0626 0.0216
H6 H 0.6707 0.1835 -0.0374
C9 C 0.9080(3) 0.3333(6) 0.0913(3)
H7 H 0.9034 0.3604 -0.0133
H8 H 1.0205 0.3332 0.1270
C10 C 0.8263(3) 0.5197(5) 0.1615(3)
H9 H 0.8844 0.6526 0.1669
C11 C 0.6857(3) 0.5299(5) 0.2176(3)
H10 H 0.6590 0.6668 0.2574
loop_
_geom_bond_atom_site_label_1
_geom_bond_atom_site_label_2
_geom_bond_site_symmetry_1
_geom_bond_site_symmetry_2
O1 C8 1_555 1_555
N1 C1 1_555 1_555
N2 C6 1_555 1_555
C1 C2 1_555 1_555
C2 H1 1_555 1_555
C3 C2 1_555 1_555
H2 C3 1_555 1_555
C4 C3 1_555 1_555
H3 C4 1_555 1_555
C5 C4 1_555 1_555
H4 C5 1_555 1_555
C6 C1 1_555 1_555
C7 N1 1_555 1_555
C8 C7 1_555 1_555
H5 C8 1_555 1_555
H6 C8 1_555 1_555
C9 O1 1_555 1_555
H7 C9 1_555 1_555
H8 C9 1_555 1_555
C10 C9 1_555 1_555
H9 C10 1_555 1_555
C11 N2 1_555 1_555
H10 C11 1_555 1_555
N2 C7 1_555 1_555
C5 C6 1_555 1_555
C10 C11 1_555 1_555

#END
