
#######################################################################
#
#                 Cambridge Crystallographic Data Centre
#                                CCDC 
#
#######################################################################
#
# If this CIF has been generated from an entry in the Cambridge 
# Structural Database, then it will include bibliographic, chemical, 
# crystal, experimental, refinement or atomic coordinate data resulting 
# from the CCDC's data processing and validation procedures.
#
#######################################################################

data_UQUMIE
_chemical_formula_moiety         'C24 H26 Br1 N1 O5 S1'
_chemical_name_systematic        
'(4S,4aS,8aR)-ethyl 4-(2-bromophenyl)-8-((4-methylphenyl)sulfonyl)-4a,5,6,7,8,8a-hexahydro-4H-pyrano[2,3-b]pyridine-2-carboxylate'
_symmetry_cell_setting           orthorhombic
_symmetry_space_group_name_H-M   'P 21 21 21'
_symmetry_Int_Tables_number      19
_space_group_name_Hall           'P 2ac 2ab'
loop_
_symmetry_equiv_pos_site_id
_symmetry_equiv_pos_as_xyz
1 x,y,z
2 1/2+x,1/2-y,-z
3 -x,1/2+y,1/2-z
4 1/2-x,-y,1/2+z
_cell_length_a                   9.175(5)
_cell_length_b                   12.418(7)
_cell_length_c                   20.136(11)
_cell_angle_alpha                90
_cell_angle_beta                 90
_cell_angle_gamma                90
_cell_volume                     2294.2
_exptl_crystal_colour            colorless
_exptl_crystal_description       block
_cell_formula_units_Z            4
loop_
_atom_site_label
_atom_site_type_symbol
_atom_site_fract_x
_atom_site_fract_y
_atom_site_fract_z
Br1 Br 0.22079(4) 0.98750(4) 0.19362(2)
S1 S 0.50688(10) 1.44496(9) 0.05383(5)
O1 O 0.7158(3) 1.2649(2) 0.12548(10)
O2 O 0.9468(3) 1.1803(3) 0.25435(14)
O3 O 0.9581(3) 1.3151(2) 0.18169(13)
O4 O 0.4325(3) 1.4635(2) 0.11485(15)
O5 O 0.4399(3) 1.4749(3) -0.00753(15)
N1 N 0.5356(3) 1.3161(3) 0.04978(14)
C1 C 0.6100(4) 1.2736(3) -0.01000(17)
H1 H 0.7168 1.2816 -0.0049
H2 H 0.5795 1.3154 -0.0495
C2 C 0.5729(4) 1.1572(3) -0.01978(17)
H3 H 0.6320 1.1277 -0.0567
H4 H 0.4688 1.1507 -0.0322
C3 C 0.6014(4) 1.0918(3) 0.04316(16)
H5 H 0.5701 1.0164 0.0363
H6 H 0.7070 1.0918 0.0532
C4 C 0.5178(4) 1.1406(3) 0.10102(15)
H7 H 0.4116 1.1382 0.0900
C5 C 0.5609(4) 1.2564(3) 0.10975(16)
H8 H 0.5026 1.2887 0.1467
C6 C 0.5406(4) 1.0813(3) 0.16793(17)
H9 H 0.4632 1.1073 0.1990
C7 C 0.6842(4) 1.1149(3) 0.19643(17)
H10 H 0.7241 1.0733 0.2316
C8 C 0.7576(4) 1.1984(3) 0.17544(15)
C9 C 0.8986(4) 1.2292(4) 0.20810(17)
C10 C 1.0886(4) 1.3561(4) 0.2149(2)
H11 H 1.0734 1.3539 0.2636
H12 H 1.1039 1.4322 0.2020
C11 C 1.2197(4) 1.2933(4) 0.19801(19)
H13 H 1.2292 1.2887 0.1496
H14 H 1.2112 1.2207 0.2166
H15 H 1.3060 1.3288 0.2165
C12 C 0.5238(4) 0.9627(3) 0.16234(16)
C13 C 0.3927(4) 0.9099(3) 0.17380(16)
C14 C 0.3807(5) 0.7992(4) 0.16971(17)
H16 H 0.2905 0.7648 0.1790
C15 C 0.5003(5) 0.7392(4) 0.15214(19)
H17 H 0.4927 0.6631 0.1489
C16 C 0.6301(5) 0.7887(4) 0.13926(19)
H18 H 0.7122 0.7470 0.1264
C17 C 0.6420(5) 0.8985(4) 0.14484(17)
H19 H 0.7336 0.9316 0.1365
C18 C 0.6753(3) 1.5108(3) 0.05750(15)
C19 C 0.7533(3) 1.5127(3) 0.11622(16)
H20 H 0.7161 1.4778 0.1546
C20 C 0.8836(4) 1.5649(3) 0.11869(18)
H21 H 0.9368 1.5654 0.1592
C21 C 0.9406(4) 1.6169(3) 0.06405(18)
C22 C 0.8600(4) 1.6147(4) 0.00553(18)
H22 H 0.8965 1.6504 -0.0327
C23 C 0.7291(4) 1.5621(3) 0.00198(16)
H23 H 0.6758 1.5609 -0.0385
C24 C 1.0851(5) 1.6732(4) 0.0668(2)
H24 H 1.0815 1.7304 0.1003
H25 H 1.1070 1.7046 0.0233
H26 H 1.1613 1.6213 0.0787
loop_
_geom_bond_atom_site_label_1
_geom_bond_atom_site_label_2
_geom_bond_site_symmetry_1
_geom_bond_site_symmetry_2
Br1 C13 1_555 1_555
S1 O4 1_555 1_555
O1 C5 1_555 1_555
O2 C9 1_555 1_555
O3 C9 1_555 1_555
O5 S1 1_555 1_555
N1 S1 1_555 1_555
C1 N1 1_555 1_555
H1 C1 1_555 1_555
H2 C1 1_555 1_555
C2 C1 1_555 1_555
H3 C2 1_555 1_555
H4 C2 1_555 1_555
C3 C2 1_555 1_555
H5 C3 1_555 1_555
H6 C3 1_555 1_555
C4 C3 1_555 1_555
H7 C4 1_555 1_555
C5 N1 1_555 1_555
H8 C5 1_555 1_555
C6 C4 1_555 1_555
H9 C6 1_555 1_555
C7 C6 1_555 1_555
H10 C7 1_555 1_555
C8 O1 1_555 1_555
C9 C8 1_555 1_555
C10 O3 1_555 1_555
H11 C10 1_555 1_555
H12 C10 1_555 1_555
C11 C10 1_555 1_555
H13 C11 1_555 1_555
H14 C11 1_555 1_555
H15 C11 1_555 1_555
C12 C6 1_555 1_555
C13 C12 1_555 1_555
C14 C13 1_555 1_555
H16 C14 1_555 1_555
C15 C14 1_555 1_555
H17 C15 1_555 1_555
C16 C15 1_555 1_555
H18 C16 1_555 1_555
C17 C12 1_555 1_555
H19 C17 1_555 1_555
C18 S1 1_555 1_555
C19 C18 1_555 1_555
H20 C19 1_555 1_555
C20 C19 1_555 1_555
H21 C20 1_555 1_555
C21 C20 1_555 1_555
C22 C21 1_555 1_555
H22 C22 1_555 1_555
C23 C18 1_555 1_555
H23 C23 1_555 1_555
C24 C21 1_555 1_555
H24 C24 1_555 1_555
H25 C24 1_555 1_555
H26 C24 1_555 1_555
C4 C5 1_555 1_555
C7 C8 1_555 1_555
C16 C17 1_555 1_555
C22 C23 1_555 1_555

#END
