
#######################################################################
#
#                 Cambridge Crystallographic Data Centre
#                                CCDC 
#
#######################################################################
#
# If this CIF has been generated from an entry in the Cambridge 
# Structural Database, then it will include bibliographic, chemical, 
# crystal, experimental, refinement or atomic coordinate data resulting 
# from the CCDC's data processing and validation procedures.
#
#######################################################################

data_UQUNOL
_chemical_formula_moiety         'C42 H32 N1 O8 P1'
_chemical_name_systematic        
"methyl 4-(2-methoxy-2-oxo-1-(triphenylphosphoranylidene)ethyl)-5-(2-nitrophenyl)-1',3'-dioxo-1',3'-dihydrospiro[cyclopent-3-ene-1,2'-indene]-2-carboxylate unknown solvate"
_symmetry_cell_setting           monoclinic
_symmetry_space_group_name_H-M   'C 2/c'
_symmetry_Int_Tables_number      15
_space_group_name_Hall           '-C 2yn'
loop_
_symmetry_equiv_pos_site_id
_symmetry_equiv_pos_as_xyz
1 x,y,z
2 -x,y,1/2-z
3 1/2+x,1/2+y,z
4 1/2-x,1/2+y,1/2-z
5 -x,-y,-z
6 x,-y,1/2+z
7 1/2-x,1/2-y,-z
8 1/2+x,1/2-y,1/2+z
_cell_length_a                   40.019(10)
_cell_length_b                   7.957(2)
_cell_length_c                   24.504(7)
_cell_angle_alpha                90
_cell_angle_beta                 94.779(8)
_cell_angle_gamma                90
_cell_volume                     7775.71
_exptl_crystal_colour            yellow
_exptl_crystal_description       block
_cell_formula_units_Z            8
loop_
_atom_site_label
_atom_site_type_symbol
_atom_site_fract_x
_atom_site_fract_y
_atom_site_fract_z
C1 C 0.10275(12) 1.1157(6) 0.27761(18)
H1 H 0.1242 1.1228 0.2659
C2 C 0.09093(15) 1.2417(6) 0.3081(2)
H2 H 0.1047 1.3324 0.3185
C3 C 0.05907(18) 1.2361(9) 0.3237(3)
H3 H 0.0512 1.3234 0.3444
C4 C 0.03809(15) 1.1010(9) 0.3089(3)
H4 H 0.0161 1.0987 0.3188
C5 C 0.05020(12) 0.9744(7) 0.2802(2)
H5 H 0.0365 0.8826 0.2710
C6 C 0.08291(10) 0.9761(6) 0.26374(16)
C7 C 0.05734(13) 0.5397(7) 0.1952(2)
H6 H 0.0724 0.4734 0.2166
C8 C 0.02912(17) 0.4667(9) 0.1679(3)
H7 H 0.0250 0.3523 0.1714
C9 C 0.00742(16) 0.5654(11) 0.1359(3)
H8 H -0.0110 0.5162 0.1166
C10 C 0.01229(15) 0.7352(10) 0.1317(2)
H9 H -0.0031 0.8018 0.1110
C11 C 0.04027(12) 0.8044(7) 0.1586(2)
H10 H 0.0440 0.9192 0.1552
C12 C 0.06310(11) 0.7094(6) 0.19064(17)
C13 C 0.16014(12) 0.9157(7) 0.1969(2)
H11 H 0.1679 0.8909 0.2329
C14 C 0.18196(14) 0.9812(8) 0.1614(2)
H12 H 0.2042 1.0012 0.1739
C15 C 0.17123(16) 1.0163(8) 0.1088(2)
H13 H 0.1860 1.0599 0.0851
C16 C 0.13932(17) 0.9879(9) 0.0914(2)
H14 H 0.1322 1.0118 0.0551
C17 C 0.11594(14) 0.9227(7) 0.1260(2)
H15 H 0.0937 0.9046 0.1130
C18 C 0.12687(11) 0.8869(6) 0.17926(17)
C19 C 0.08363(19) 0.5880(13) 0.5569(3)
H16 H 0.0605 0.6173 0.5486
H17 H 0.0918 0.6387 0.5910
H18 H 0.0857 0.4680 0.5597
C20 C 0.08717(13) 0.6615(8) 0.4636(2)
C21 C 0.11018(10) 0.7366(6) 0.42405(17)
H19 H 0.1125 0.8569 0.4321
C22 C 0.09845(11) 0.7183(6) 0.36495(17)
H20 H 0.0762 0.7321 0.3516
C23 C 0.12263(10) 0.6804(5) 0.33315(16)
C24 C 0.12183(10) 0.6658(5) 0.27348(16)
C25 C 0.14219(11) 0.5429(5) 0.24945(18)
C26 C 0.16047(18) 0.4434(11) 0.1651(3)
H21 H 0.1829 0.4706 0.1793
H22 H 0.1577 0.4712 0.1268
H23 H 0.1566 0.3253 0.1697
C27 C 0.14683(11) 0.4730(6) 0.44468(17)
C28 C 0.17675(12) 0.4469(5) 0.48293(17)
C29 C 0.19075(16) 0.2987(7) 0.5038(2)
H24 H 0.1811 0.1952 0.4943
C30 C 0.21881(17) 0.3087(9) 0.5384(3)
H25 H 0.2285 0.2109 0.5532
C31 C 0.23327(16) 0.4612(10) 0.5518(2)
H26 H 0.2528 0.4632 0.5753
C32 C 0.22016(12) 0.6106(8) 0.53203(19)
H27 H 0.2300 0.7133 0.5418
C33 C 0.19112(11) 0.5997(6) 0.49635(17)
C34 C 0.17154(10) 0.7378(5) 0.46870(16)
C35 C 0.14572(10) 0.6590(5) 0.42778(16)
C36 C 0.15634(10) 0.6644(5) 0.36732(15)
H28 H 0.1665 0.5564 0.3590
C37 C 0.18001(10) 0.8049(5) 0.35381(15)
C38 C 0.21090(11) 0.7798(6) 0.33337(18)
C39 C 0.23043(13) 0.9069(9) 0.3131(2)
H29 H 0.2505 0.8826 0.2981
C40 C 0.21914(16) 1.0672(8) 0.3160(2)
H30 H 0.2317 1.1548 0.3031
C41 C 0.18903(14) 1.1017(7) 0.3379(2)
H31 H 0.1818 1.2123 0.3403
C42 C 0.16985(12) 0.9725(6) 0.35609(18)
H32 H 0.1496 0.9977 0.3703
N1 N 0.22538(10) 0.6078(7) 0.3325(2)
O1 O 0.10321(8) 0.6484(6) 0.51345(13)
O2 O 0.05860(10) 0.6272(9) 0.45335(17)
O3 O 0.16224(9) 0.4485(4) 0.27321(13)
O4 O 0.13683(8) 0.5380(4) 0.19415(12)
O5 O 0.12622(10) 0.3678(5) 0.42984(15)
O6 O 0.17518(9) 0.8867(4) 0.47814(12)
O7 O 0.22584(10) 0.5239(5) 0.37443(19)
O8 O 0.23694(11) 0.5579(6) 0.29141(19)
P1 P 0.09951(3) 0.80100(14) 0.22805(4)
loop_
_geom_bond_atom_site_label_1
_geom_bond_atom_site_label_2
_geom_bond_site_symmetry_1
_geom_bond_site_symmetry_2
C1 H1 1_555 1_555
C2 C1 1_555 1_555
H2 C2 1_555 1_555
C3 C2 1_555 1_555
H3 C3 1_555 1_555
C4 C3 1_555 1_555
H4 C4 1_555 1_555
C5 C4 1_555 1_555
H5 C5 1_555 1_555
C6 C1 1_555 1_555
C7 H6 1_555 1_555
C8 C7 1_555 1_555
H7 C8 1_555 1_555
C9 C8 1_555 1_555
H8 C9 1_555 1_555
C10 C9 1_555 1_555
H9 C10 1_555 1_555
C11 C10 1_555 1_555
H10 C11 1_555 1_555
C12 C7 1_555 1_555
C13 H11 1_555 1_555
C14 C13 1_555 1_555
H12 C14 1_555 1_555
C15 C14 1_555 1_555
H13 C15 1_555 1_555
C16 C15 1_555 1_555
H14 C16 1_555 1_555
C17 C16 1_555 1_555
H15 C17 1_555 1_555
C18 C13 1_555 1_555
C19 H16 1_555 1_555
H17 C19 1_555 1_555
H18 C19 1_555 1_555
C20 C21 1_555 1_555
C21 H19 1_555 1_555
C22 C21 1_555 1_555
H20 C22 1_555 1_555
C23 C22 1_555 1_555
C24 C23 1_555 1_555
C25 C24 1_555 1_555
C26 H21 1_555 1_555
H22 C26 1_555 1_555
H23 C26 1_555 1_555
C27 C28 1_555 1_555
C28 C29 1_555 1_555
C29 H24 1_555 1_555
C30 C29 1_555 1_555
H25 C30 1_555 1_555
C31 C30 1_555 1_555
H26 C31 1_555 1_555
C32 C31 1_555 1_555
H27 C32 1_555 1_555
C33 C28 1_555 1_555
C34 C33 1_555 1_555
C35 C21 1_555 1_555
C36 C23 1_555 1_555
H28 C36 1_555 1_555
C37 C36 1_555 1_555
C38 C37 1_555 1_555
C39 C38 1_555 1_555
H29 C39 1_555 1_555
C40 C39 1_555 1_555
H30 C40 1_555 1_555
C41 C40 1_555 1_555
H31 C41 1_555 1_555
C42 C37 1_555 1_555
H32 C42 1_555 1_555
N1 C38 1_555 1_555
O1 C19 1_555 1_555
O2 C20 1_555 1_555
O3 C25 1_555 1_555
O4 C25 1_555 1_555
O5 C27 1_555 1_555
O6 C34 1_555 1_555
O7 N1 1_555 1_555
O8 N1 1_555 1_555
P1 C6 1_555 1_555
C5 C6 1_555 1_555
C11 C12 1_555 1_555
C12 P1 1_555 1_555
C17 C18 1_555 1_555
C18 P1 1_555 1_555
C20 O1 1_555 1_555
C24 P1 1_555 1_555
C26 O4 1_555 1_555
C27 C35 1_555 1_555
C32 C33 1_555 1_555
C34 C35 1_555 1_555
C35 C36 1_555 1_555
C41 C42 1_555 1_555

#END
