
#######################################################################
#
#                 Cambridge Crystallographic Data Centre
#                                CCDC 
#
#######################################################################
#
# If this CIF has been generated from an entry in the Cambridge 
# Structural Database, then it will include bibliographic, chemical, 
# crystal, experimental, refinement or atomic coordinate data resulting 
# from the CCDC's data processing and validation procedures.
#
#######################################################################

data_UQUQEE
_chemical_formula_moiety         'C62 H74 N4,C1 H2 Cl2'
_chemical_name_systematic        
'5,10,15-tris(3,5-di-t-butylphenyl)porphyrin dichloromethane solvate'
_symmetry_cell_setting           triclinic
_symmetry_space_group_name_H-M   'P -1'
_symmetry_Int_Tables_number      2
_space_group_name_Hall           '-P 1'
loop_
_symmetry_equiv_pos_site_id
_symmetry_equiv_pos_as_xyz
1 x,y,z
2 -x,-y,-z
_cell_length_a                   8.9471(14)
_cell_length_b                   15.947(2)
_cell_length_c                   20.4057(17)
_cell_angle_alpha                70.457(15)
_cell_angle_beta                 87.640(13)
_cell_angle_gamma                86.807(18)
_cell_volume                     2738.7
_exptl_crystal_colour            red
_exptl_crystal_description       Prism
_cell_formula_units_Z            2
loop_
_atom_site_label
_atom_site_type_symbol
_atom_site_fract_x
_atom_site_fract_y
_atom_site_fract_z
Cl1 Cl 0.43559(14) 0.47055(8) 0.33864(6)
Cl2 Cl 0.60634(15) 0.32680(9) 0.44048(6)
C1 C 0.5768(7) 0.3885(3) 0.3516(2)
H1 H 0.6711 0.4165 0.3304
H2 H 0.5519 0.3470 0.3272
N1 N 1.1443(3) 0.31649(16) 0.38053(12)
N2 N 0.9924(3) 0.47552(16) 0.28458(12)
H3 H 0.9878 0.4477 0.3298
N3 N 0.9882(3) 0.34720(16) 0.49654(12)
H4 H 0.9877 0.3722 0.4510
N4 N 0.8328(3) 0.50547(16) 0.40044(12)
C2 C 0.5176(3) 0.7571(2) 0.16314(14)
C3 C 0.8026(3) 0.76362(19) 0.21231(14)
H5 H 0.8991 0.7652 0.2295
C4 C 0.5905(3) 0.8366(2) 0.14553(14)
H6 H 0.5421 0.8894 0.1159
C5 C 1.1832(3) 0.0628(2) 0.57305(15)
H7 H 1.0875 0.0597 0.5557
C6 C 0.9536(3) 0.57593(19) 0.17609(15)
H8 H 0.9154 0.6261 0.1397
C7 C 1.4290(3) 0.31424(19) 0.09032(14)
H9 H 1.4862 0.2998 0.0550
C8 C 1.0728(3) 0.27332(19) 0.53292(14)
C9 C 1.1743(3) 0.22511(19) 0.50416(14)
C10 C 0.9046(3) 0.3751(2) 0.54345(15)
C11 C 1.1761(3) 0.37384(19) 0.25209(14)
C12 C 1.4645(3) 0.0734(2) 0.62334(15)
C13 C 1.2514(3) -0.01393(19) 0.61826(14)
C14 C 0.7332(3) 0.84204(19) 0.16984(14)
C15 C 0.6654(4) 0.6248(2) 0.37947(16)
H10 H 0.6070 0.6768 0.3553
C16 C 0.8090(3) 0.59974(18) 0.27775(14)
C17 C 1.3924(3) 0.1488(2) 0.57759(15)
H11 H 1.4398 0.2042 0.5633
C18 C 1.2859(3) 0.28045(18) 0.10772(14)
C19 C 0.5913(3) 0.68003(19) 0.20573(15)
H12 H 0.5439 0.6248 0.2183
C20 C 1.0797(3) 0.44972(19) 0.23740(14)
C21 C 1.3929(3) -0.0069(2) 0.64301(14)
H13 H 1.4412 -0.0585 0.6742
C22 C 1.2034(3) 0.30235(19) 0.15954(14)
H14 H 1.1061 0.2804 0.1723
C23 C 0.7328(3) 0.68259(19) 0.23010(14)
C24 C 1.3055(3) 0.23587(19) 0.33237(15)
H15 H 1.3612 0.2171 0.2987
C25 C 1.4039(3) 0.38907(19) 0.17407(14)
H16 H 1.4427 0.4264 0.1965
C26 C 1.3075(3) 0.19509(19) 0.40227(15)
H17 H 1.3648 0.1427 0.4266
C27 C 1.2259(3) 0.2201(2) 0.07058(15)
C28 C 1.2518(3) 0.1440(2) 0.55267(14)
C29 C 1.0403(3) 0.2541(2) 0.60641(15)
H18 H 1.0830 0.2063 0.6434
C30 C 0.7714(3) 0.5767(2) 0.34886(15)
C31 C 0.7707(3) 0.5074(2) 0.46218(16)
C32 C 1.0557(3) 0.51360(19) 0.16907(14)
H19 H 1.1030 0.5122 0.1269
C33 C 0.8036(4) 0.4482(2) 0.52783(16)
H20 H 0.7516 0.4586 0.5661
C34 C 1.2621(3) 0.35632(18) 0.19295(14)
C35 C 1.2039(3) 0.31253(18) 0.31845(14)
C36 C 0.9132(3) 0.55240(19) 0.24888(14)
C37 C 0.3586(3) 0.7518(2) 0.13931(15)
C38 C 0.8072(3) 0.9321(2) 0.14850(15)
C39 C 1.2064(3) 0.24600(19) 0.43263(15)
C40 C 1.4907(3) 0.36794(19) 0.12256(14)
C41 C 0.2536(3) 0.7191(2) 0.20355(16)
H21 H 0.2529 0.7607 0.2297
H22 H 0.2892 0.6599 0.2333
H23 H 0.1520 0.7160 0.1886
C42 C 1.6215(3) 0.0807(2) 0.64852(16)
C43 C 0.9380(4) 0.3166(2) 0.61267(15)
H24 H 0.8959 0.3212 0.6549
C44 C 0.6642(4) 0.5824(2) 0.44889(17)
H25 H 0.6046 0.5988 0.4827
C45 C 0.3590(4) 0.6846(3) 0.10001(18)
H26 H 0.2575 0.6816 0.0849
H27 H 0.3932 0.6257 0.1308
H28 H 0.4267 0.7038 0.0593
C46 C 1.1735(3) -0.1027(2) 0.64281(15)
C47 C 1.7325(4) 0.0971(3) 0.5866(2)
H29 H 1.8338 0.0997 0.6022
H30 H 1.7048 0.1536 0.5506
H31 H 1.7297 0.0484 0.5675
C48 C 1.6223(4) 0.1589(2) 0.67638(19)
H32 H 1.5473 0.1506 0.7141
H33 H 1.5986 0.2147 0.6388
H34 H 1.7216 0.1614 0.6940
C49 C 0.7002(4) 1.0024(2) 0.1632(2)
H35 H 0.7487 1.0596 0.1491
H36 H 0.6749 0.9838 0.2131
H37 H 0.6087 1.0088 0.1369
C50 C 1.6508(3) 0.4007(2) 0.10634(15)
C51 C 1.0579(5) -0.1067(2) 0.5909(2)
H38 H 1.1059 -0.0946 0.5449
H39 H 0.9768 -0.0619 0.5886
H40 H 1.0169 -0.1660 0.6061
C52 C 1.6733(4) -0.0040(2) 0.7066(2)
H41 H 1.7686 0.0057 0.7243
H42 H 1.6866 -0.0534 0.6881
H43 H 1.5978 -0.0186 0.7444
C53 C 0.2975(4) 0.8414(3) 0.09131(19)
H44 H 0.2911 0.8844 0.1162
H45 H 0.1977 0.8345 0.0763
H46 H 0.3646 0.8628 0.0505
C54 C 0.8468(5) 0.9608(2) 0.07070(17)
H47 H 0.7553 0.9674 0.0444
H48 H 0.9149 0.9155 0.0614
H49 H 0.8958 1.0178 0.0565
C55 C 1.0946(6) -0.1131(3) 0.7123(2)
H50 H 1.0461 -0.1703 0.7291
H51 H 1.0188 -0.0645 0.7066
H52 H 1.1679 -0.1112 0.7461
C56 C 1.2848(4) -0.1811(2) 0.6503(3)
H53 H 1.3511 -0.1877 0.6890
H54 H 1.3445 -0.1703 0.6072
H55 H 1.2303 -0.2357 0.6597
C57 C 1.2028(4) 0.2741(2) -0.00632(15)
H56 H 1.1673 0.2354 -0.0303
H57 H 1.2980 0.2987 -0.0277
H58 H 1.1285 0.3230 -0.0101
C58 C 1.3391(4) 0.1423(2) 0.07606(17)
H59 H 1.3556 0.1082 0.1252
H60 H 1.4340 0.1655 0.0534
H61 H 1.2998 0.1034 0.0530
C59 C 0.9504(4) 0.9274(2) 0.18870(19)
H62 H 0.9919 0.9866 0.1748
H63 H 1.0239 0.8855 0.1783
H64 H 0.9268 0.9071 0.2387
C60 C 1.0763(4) 0.1816(2) 0.10225(18)
H65 H 1.0897 0.1447 0.1510
H66 H 1.0408 0.1450 0.0764
H67 H 1.0026 0.2303 0.0997
C61 C 1.6496(4) 0.5024(2) 0.08844(19)
H68 H 1.7519 0.5226 0.0773
H69 H 1.6098 0.5184 0.1284
H70 H 1.5863 0.5310 0.0482
C62 C 1.7456(4) 0.3572(2) 0.17067(18)
H71 H 1.7437 0.2922 0.1839
H72 H 1.7049 0.3758 0.2092
H73 H 1.8491 0.3755 0.1602
C63 C 1.7250(4) 0.3791(3) 0.0447(2)
H74 H 1.8260 0.4019 0.0364
H75 H 1.6654 0.4072 0.0031
H76 H 1.7311 0.3144 0.0550
loop_
_geom_bond_atom_site_label_1
_geom_bond_atom_site_label_2
_geom_bond_site_symmetry_1
_geom_bond_site_symmetry_2
Cl1 C1 1_555 1_555
Cl2 C1 1_555 1_555
C1 H1 1_555 1_555
H2 C1 1_555 1_555
N1 C35 1_555 1_555
N2 H3 1_555 1_555
N3 H4 1_555 1_555
N4 C30 1_555 1_555
C2 C4 1_555 1_555
C3 H5 1_555 1_555
C4 H6 1_555 1_555
C5 H7 1_555 1_555
C6 H8 1_555 1_555
C7 H9 1_555 1_555
C8 N3 1_555 1_555
C9 C8 1_555 1_555
C10 N3 1_555 1_555
C11 C20 1_555 1_555
C12 C17 1_555 1_555
C13 C5 1_555 1_555
C14 C3 1_555 1_555
C15 H10 1_555 1_555
C16 C23 1_555 1_555
C17 H11 1_555 1_555
C18 C7 1_555 1_555
C19 C2 1_555 1_555
H12 C19 1_555 1_555
C20 N2 1_555 1_555
C21 C12 1_555 1_555
H13 C21 1_555 1_555
C22 C18 1_555 1_555
H14 C22 1_555 1_555
C23 C3 1_555 1_555
C24 H15 1_555 1_555
C25 H16 1_555 1_555
C26 C24 1_555 1_555
H17 C26 1_555 1_555
C27 C18 1_555 1_555
C28 C5 1_555 1_555
C29 C8 1_555 1_555
H18 C29 1_555 1_555
C30 C15 1_555 1_555
C31 N4 1_555 1_555
C32 C6 1_555 1_555
H19 C32 1_555 1_555
C33 C10 1_555 1_555
H20 C33 1_555 1_555
C34 C11 1_555 1_555
C35 C11 1_555 1_555
C36 N2 1_555 1_555
C37 C2 1_555 1_555
C38 C14 1_555 1_555
C39 N1 1_555 1_555
C40 C7 1_555 1_555
C41 C37 1_555 1_555
H21 C41 1_555 1_555
H22 C41 1_555 1_555
H23 C41 1_555 1_555
C42 C12 1_555 1_555
C43 C10 1_555 1_555
H24 C43 1_555 1_555
C44 C15 1_555 1_555
H25 C44 1_555 1_555
C45 C37 1_555 1_555
H26 C45 1_555 1_555
H27 C45 1_555 1_555
H28 C45 1_555 1_555
C46 C13 1_555 1_555
C47 C42 1_555 1_555
H29 C47 1_555 1_555
H30 C47 1_555 1_555
H31 C47 1_555 1_555
C48 C42 1_555 1_555
H32 C48 1_555 1_555
H33 C48 1_555 1_555
H34 C48 1_555 1_555
C49 C38 1_555 1_555
H35 C49 1_555 1_555
H36 C49 1_555 1_555
H37 C49 1_555 1_555
C50 C40 1_555 1_555
C51 C46 1_555 1_555
H38 C51 1_555 1_555
H39 C51 1_555 1_555
H40 C51 1_555 1_555
C52 C42 1_555 1_555
H41 C52 1_555 1_555
H42 C52 1_555 1_555
H43 C52 1_555 1_555
C53 C37 1_555 1_555
H44 C53 1_555 1_555
H45 C53 1_555 1_555
H46 C53 1_555 1_555
C54 C38 1_555 1_555
H47 C54 1_555 1_555
H48 C54 1_555 1_555
H49 C54 1_555 1_555
C55 C46 1_555 1_555
H50 C55 1_555 1_555
H51 C55 1_555 1_555
H52 C55 1_555 1_555
C56 C46 1_555 1_555
H53 C56 1_555 1_555
H54 C56 1_555 1_555
H55 C56 1_555 1_555
C57 C27 1_555 1_555
H56 C57 1_555 1_555
H57 C57 1_555 1_555
H58 C57 1_555 1_555
C58 C27 1_555 1_555
H59 C58 1_555 1_555
H60 C58 1_555 1_555
H61 C58 1_555 1_555
C59 C38 1_555 1_555
H62 C59 1_555 1_555
H63 C59 1_555 1_555
H64 C59 1_555 1_555
C60 C27 1_555 1_555
H65 C60 1_555 1_555
H66 C60 1_555 1_555
H67 C60 1_555 1_555
C61 C50 1_555 1_555
H68 C61 1_555 1_555
H69 C61 1_555 1_555
H70 C61 1_555 1_555
C62 C50 1_555 1_555
H71 C62 1_555 1_555
H72 C62 1_555 1_555
H73 C62 1_555 1_555
C63 C50 1_555 1_555
H74 C63 1_555 1_555
H75 C63 1_555 1_555
H76 C63 1_555 1_555
C4 C14 1_555 1_555
C6 C36 1_555 1_555
C9 C28 1_555 1_555
C9 C39 1_555 1_555
C13 C21 1_555 1_555
C16 C30 1_555 1_555
C16 C36 1_555 1_555
C17 C28 1_555 1_555
C19 C23 1_555 1_555
C20 C32 1_555 1_555
C22 C34 1_555 1_555
C24 C35 1_555 1_555
C25 C34 1_555 1_555
C25 C40 1_555 1_555
C26 C39 1_555 1_555
C29 C43 1_555 1_555
C31 C33 1_555 1_555
C31 C44 1_555 1_555

#END
