
#######################################################################
#
#                 Cambridge Crystallographic Data Centre
#                                CCDC 
#
#######################################################################
#
# If this CIF has been generated from an entry in the Cambridge 
# Structural Database, then it will include bibliographic, chemical, 
# crystal, experimental, refinement or atomic coordinate data resulting 
# from the CCDC's data processing and validation procedures.
#
#######################################################################

data_URAHOL
_chemical_name_common            'Pentadecylammonium methyl sulfate'
_chemical_formula_moiety         'C15 H34 N1 1+,C1 H3 O4 S1 1-'
_chemical_name_systematic        'Pentadecan-1-aminium methyl sulfate'
_symmetry_cell_setting           monoclinic
_symmetry_space_group_name_H-M   'P 21/m'
_symmetry_Int_Tables_number      11
_space_group_name_Hall           '-P 2yb'
loop_
_symmetry_equiv_pos_site_id
_symmetry_equiv_pos_as_xyz
1 x,y,z
2 -x,1/2+y,-z
3 -x,-y,-z
4 x,1/2-y,z
_cell_length_a                   5.4260(5)
_cell_length_b                   7.4981(6)
_cell_length_c                   24.376(2)
_cell_angle_alpha                90
_cell_angle_beta                 93.5570(10)
_cell_angle_gamma                90
_cell_volume                     989.82
_exptl_crystal_colour            colorless
_exptl_crystal_description       acicular
_cell_formula_units_Z            2
loop_
_atom_site_label
_atom_site_type_symbol
_atom_site_fract_x
_atom_site_fract_y
_atom_site_fract_z
S1 S 0.3365(3) 0.7500 0.07723(6)
O1 O 0.3834(8) 0.7500 0.14136(16)
O2 O 0.0747(8) 0.7500 0.07105(18)
O3 O 0.4507(5) 0.5923(3) 0.05732(12)
C16 C 0.6344(14) 0.7500 0.1633(3)
H19 H 0.6379 0.7500 0.2028
H20 H 0.7168 0.8545 0.1510
O3C O 0.4507(5) 0.9077(3) 0.05732(12)
H20C H 0.7168 0.6455 0.1510
N1 N 1.2215(8) 0.2500 0.03004(18)
H1 H 1.1749 0.2500 -0.0056
H2 H 1.3113 0.3469 0.0381
C1 C 0.9998(10) 0.2500 0.0626(2)
H3 H 0.9012 0.3544 0.0527
C2 C 1.0542(10) 0.2500 0.1226(2)
H4 H 1.1521 0.3545 0.1327
C3 C 0.8258(10) 0.2500 0.1545(2)
H5 H 0.7285 0.3543 0.1437
C4 C 0.8663(11) 0.2500 0.2159(2)
H6 H 0.9641 0.3542 0.2265
C5 C 0.6433(11) 0.2500 0.2481(2)
H7 H 0.5458 0.3541 0.2374
C6 C 0.6793(13) 0.2500 0.3087(3)
H8 H 0.7782 0.3539 0.3190
C7 C 0.4670(12) 0.2500 0.3429(2)
H9 H 0.3682 0.3538 0.3325
C8 C 0.5000(14) 0.2500 0.4025(3)
H10 H 0.5995 0.3537 0.4127
C9 C 0.2936(12) 0.2500 0.4378(2)
H11 H 0.1941 0.3538 0.4277
C10 C 0.3271(14) 0.2500 0.4972(3)
H12 H 0.4269 0.3537 0.5072
C11 C 0.1238(13) 0.2500 0.5329(3)
H13 H 0.0241 0.3537 0.5228
C12 C 0.1563(14) 0.2500 0.5919(3)
H14 H 0.2565 0.3536 0.6018
C13 C -0.0447(14) 0.2500 0.6282(3)
H15 H -0.1449 0.3536 0.6184
C14 C -0.0117(16) 0.2500 0.6873(3)
H16 H 0.0882 0.3537 0.6973
C15 C -0.2143(16) 0.2500 0.7228(3)
H17 H -0.1514 0.2500 0.7605
H18 H -0.3134 0.3545 0.7157
H2C H 1.3113 0.1531 0.0381
H3C H 0.9012 0.1456 0.0527
H4C H 1.1521 0.1455 0.1327
H5C H 0.7285 0.1457 0.1437
H6C H 0.9641 0.1458 0.2265
H7C H 0.5458 0.1459 0.2374
H8C H 0.7782 0.1461 0.3190
H9C H 0.3682 0.1462 0.3325
H10C H 0.5995 0.1463 0.4127
H11C H 0.1941 0.1462 0.4277
H12C H 0.4269 0.1463 0.5072
H13C H 0.0241 0.1463 0.5228
H14C H 0.2565 0.1464 0.6018
H15C H -0.1449 0.1464 0.6184
H16C H 0.0882 0.1463 0.6973
H18C H -0.3134 0.1455 0.7157
loop_
_geom_bond_atom_site_label_1
_geom_bond_atom_site_label_2
_geom_bond_site_symmetry_1
_geom_bond_site_symmetry_2
S1 O1 1_555 1_555
O1 C16 1_555 1_555
O2 S1 1_555 1_555
O3 S1 1_555 1_555
N1 H1 1_555 1_555
H2 N1 1_555 1_555
C1 N1 1_555 1_555
H3 C1 1_555 1_555
C2 C1 1_555 1_555
H4 C2 1_555 1_555
C3 C2 1_555 1_555
H5 C3 1_555 1_555
C4 C3 1_555 1_555
H6 C4 1_555 1_555
C5 C4 1_555 1_555
H7 C5 1_555 1_555
C6 C5 1_555 1_555
H8 C6 1_555 1_555
C7 C6 1_555 1_555
H9 C7 1_555 1_555
C8 C7 1_555 1_555
H10 C8 1_555 1_555
C9 C8 1_555 1_555
H11 C9 1_555 1_555
C10 C9 1_555 1_555
H12 C10 1_555 1_555
C11 C10 1_555 1_555
H13 C11 1_555 1_555
C12 C11 1_555 1_555
H14 C12 1_555 1_555
C13 C12 1_555 1_555
H15 C13 1_555 1_555
C14 C13 1_555 1_555
H16 C14 1_555 1_555
C15 C14 1_555 1_555
H17 C15 1_555 1_555
H18 C15 1_555 1_555
C16 H19 1_555 1_555
H20 C16 1_555 1_555
O3C S1 1_555 1_555
H2C N1 1_555 1_555
H3C C1 1_555 1_555
H4C C2 1_555 1_555
H5C C3 1_555 1_555
H6C C4 1_555 1_555
H7C C5 1_555 1_555
H8C C6 1_555 1_555
H9C C7 1_555 1_555
H10C C8 1_555 1_555
H11C C9 1_555 1_555
H12C C10 1_555 1_555
H13C C11 1_555 1_555
H14C C12 1_555 1_555
H15C C13 1_555 1_555
H16C C14 1_555 1_555
H18C C15 1_555 1_555
H20C C16 1_555 1_555

#END
