
#######################################################################
#
#                 Cambridge Crystallographic Data Centre
#                                CCDC 
#
#######################################################################
#
# If this CIF has been generated from an entry in the Cambridge 
# Structural Database, then it will include bibliographic, chemical, 
# crystal, experimental, refinement or atomic coordinate data resulting 
# from the CCDC's data processing and validation procedures.
#
#######################################################################

data_URALOP
_chemical_formula_moiety         'C38 H37 N1 O3'
_chemical_name_systematic        
N,N-Diethyl-4-(9-methoxy-6-(4-methoxyphenyl)-5-methyl-2-phenyl-2H-benzo[h]chromen-2-yl)aniline
_symmetry_cell_setting           triclinic
_symmetry_space_group_name_H-M   'P -1'
_symmetry_Int_Tables_number      2
_space_group_name_Hall           '-P 1'
loop_
_symmetry_equiv_pos_site_id
_symmetry_equiv_pos_as_xyz
1 x,y,z
2 -x,-y,-z
_cell_length_a                   11.0527(3)
_cell_length_b                   11.6870(3)
_cell_length_c                   12.2752(3)
_cell_angle_alpha                102.104(2)
_cell_angle_beta                 93.012(2)
_cell_angle_gamma                95.929(2)
_cell_volume                     1537.58
_exptl_crystal_colour            silver
_exptl_crystal_description       block
_cell_formula_units_Z            2
loop_
_atom_site_label
_atom_site_type_symbol
_atom_site_fract_x
_atom_site_fract_y
_atom_site_fract_z
O1 O 0.82318(17) 0.35611(16) 0.23249(14)
C1 C 0.9480(3) 0.3713(2) 0.2008(2)
C2 C 0.9498(3) 0.3032(3) 0.0823(2)
H1 H 1.0016 0.3315 0.0342
C3 C 0.8776(3) 0.2030(3) 0.0465(2)
H2 H 0.8814 0.1596 -0.0257
C4 C 0.7291(3) 0.0441(2) 0.0983(2)
C5 C 0.6450(3) 0.0136(2) 0.1700(2)
C6 C 0.5308(3) 0.0780(3) 0.3385(2)
H3 H 0.4857 0.0040 0.3253
C7 C 0.5107(3) 0.1610(3) 0.4293(3)
H4 H 0.4534 0.1426 0.4776
C8 C 0.5755(3) 0.2747(3) 0.4509(2)
C9 C 0.6585(3) 0.3025(2) 0.3801(2)
H5 H 0.7005 0.3779 0.3935
C10 C 0.7918(3) 0.1603(3) 0.1200(2)
C11 C 0.7684(3) 0.2420(2) 0.2116(2)
C12 C 0.6185(2) 0.1013(2) 0.2638(2)
C13 C 0.6808(2) 0.2169(2) 0.2862(2)
C14 C 0.9789(3) 0.5028(3) 0.2099(2)
C15 C 0.8919(3) 0.5786(3) 0.2070(2)
H6 H 0.8099 0.5486 0.1987
C16 C 0.9231(3) 0.6986(3) 0.2159(2)
H7 H 0.8617 0.7468 0.2131
C17 C 1.0442(3) 0.7479(3) 0.2291(2)
C18 C 1.1317(3) 0.6707(3) 0.2304(3)
H8 H 1.2139 0.6998 0.2379
C19 C 1.0988(3) 0.5522(3) 0.2210(2)
H9 H 1.1599 0.5034 0.2221
N1 N 1.0794(2) 0.8671(2) 0.23776(19)
C20 C 0.9879(3) 0.9483(3) 0.2335(2)
H10 H 0.9214 0.9084 0.1798
H11 H 1.0244 1.0148 0.2060
C21 C 0.9360(3) 0.9942(3) 0.3426(3)
H12 H 0.8768 1.0461 0.3316
H13 H 1.0004 1.0365 0.3959
H14 H 0.8977 0.9294 0.3700
C22 C 1.2021(3) 0.9184(3) 0.2814(3)
H15 H 1.2136 0.9992 0.2723
H16 H 1.2599 0.8756 0.2372
C23 C 1.2312(3) 0.9176(3) 0.4035(3)
H17 H 1.3135 0.9528 0.4261
H18 H 1.2224 0.8379 0.4132
H19 H 1.1760 0.9617 0.4484
C24 C 1.0304(3) 0.3294(2) 0.2838(3)
C25 C 1.0090(3) 0.3521(3) 0.3961(3)
H20 H 0.9399 0.3868 0.4189
C26 C 1.0877(5) 0.3243(4) 0.4747(3)
H21 H 1.0709 0.3393 0.5494
C27 C 1.1913(5) 0.2744(3) 0.4426(4)
H22 H 1.2446 0.2558 0.4958
C28 C 1.2159(4) 0.2522(3) 0.3323(4)
H23 H 1.2869 0.2204 0.3108
C29 C 1.1345(3) 0.2773(3) 0.2529(3)
H24 H 1.1498 0.2589 0.1779
C30 C 0.7596(3) -0.0455(3) -0.0027(2)
H25 H 0.7356 -0.1237 0.0074
H26 H 0.8458 -0.0354 -0.0104
H27 H 0.7166 -0.0339 -0.0687
C31 C 0.5811(3) -0.1077(3) 0.1530(2)
C32 C 0.6030(3) -0.1781(3) 0.2284(2)
H28 H 0.6588 -0.1485 0.2898
C33 C 0.5437(3) -0.2912(3) 0.2146(3)
H29 H 0.5607 -0.3369 0.2658
C34 C 0.4591(3) -0.3361(3) 0.1245(3)
C35 C 0.4360(3) -0.2686(3) 0.0496(3)
H30 H 0.3796 -0.2981 -0.0114
C36 C 0.4964(3) -0.1562(3) 0.0642(3)
H31 H 0.4794 -0.1114 0.0122
O2 O 0.4055(2) -0.44842(19) 0.11944(19)
C37 C 0.3228(3) -0.5006(3) 0.0241(3)
H32 H 0.2913 -0.5788 0.0294
H33 H 0.3651 -0.5043 -0.0426
H34 H 0.2567 -0.4538 0.0218
O3 O 0.54847(19) 0.34888(19) 0.54643(16)
C38 C 0.6237(3) 0.4591(3) 0.5807(3)
H35 H 0.5959 0.5033 0.6478
H36 H 0.6190 0.5027 0.5228
H37 H 0.7066 0.4452 0.5945
loop_
_geom_bond_atom_site_label_1
_geom_bond_atom_site_label_2
_geom_bond_site_symmetry_1
_geom_bond_site_symmetry_2
O1 C1 1_555 1_555
C1 C2 1_555 1_555
C2 H1 1_555 1_555
C3 C2 1_555 1_555
H2 C3 1_555 1_555
C4 C5 1_555 1_555
C5 C12 1_555 1_555
C6 H3 1_555 1_555
C7 C6 1_555 1_555
H4 C7 1_555 1_555
C8 C7 1_555 1_555
C9 C8 1_555 1_555
H5 C9 1_555 1_555
C10 C3 1_555 1_555
C11 O1 1_555 1_555
C12 C6 1_555 1_555
C13 C9 1_555 1_555
C14 C1 1_555 1_555
C15 C14 1_555 1_555
H6 C15 1_555 1_555
C16 C15 1_555 1_555
H7 C16 1_555 1_555
C17 C16 1_555 1_555
C18 C17 1_555 1_555
H8 C18 1_555 1_555
C19 C14 1_555 1_555
H9 C19 1_555 1_555
N1 C17 1_555 1_555
C20 N1 1_555 1_555
H10 C20 1_555 1_555
H11 C20 1_555 1_555
C21 C20 1_555 1_555
H12 C21 1_555 1_555
H13 C21 1_555 1_555
H14 C21 1_555 1_555
C22 N1 1_555 1_555
H15 C22 1_555 1_555
H16 C22 1_555 1_555
C23 C22 1_555 1_555
H17 C23 1_555 1_555
H18 C23 1_555 1_555
H19 C23 1_555 1_555
C24 C1 1_555 1_555
C25 C24 1_555 1_555
H20 C25 1_555 1_555
C26 C25 1_555 1_555
H21 C26 1_555 1_555
C27 C26 1_555 1_555
H22 C27 1_555 1_555
C28 C27 1_555 1_555
H23 C28 1_555 1_555
C29 C24 1_555 1_555
H24 C29 1_555 1_555
C30 C4 1_555 1_555
H25 C30 1_555 1_555
H26 C30 1_555 1_555
H27 C30 1_555 1_555
C31 C5 1_555 1_555
C32 C31 1_555 1_555
H28 C32 1_555 1_555
C33 C32 1_555 1_555
H29 C33 1_555 1_555
C34 C33 1_555 1_555
C35 C34 1_555 1_555
H30 C35 1_555 1_555
C36 C31 1_555 1_555
H31 C36 1_555 1_555
O2 C34 1_555 1_555
C37 O2 1_555 1_555
H32 C37 1_555 1_555
H33 C37 1_555 1_555
H34 C37 1_555 1_555
O3 C8 1_555 1_555
C38 O3 1_555 1_555
H35 C38 1_555 1_555
H36 C38 1_555 1_555
H37 C38 1_555 1_555
C4 C10 1_555 1_555
C10 C11 1_555 1_555
C11 C13 1_555 1_555
C12 C13 1_555 1_555
C18 C19 1_555 1_555
C28 C29 1_555 1_555
C35 C36 1_555 1_555

#END
