
#######################################################################
#
#                 Cambridge Crystallographic Data Centre
#                                CCDC 
#
#######################################################################
#
# If this CIF has been generated from an entry in the Cambridge 
# Structural Database, then it will include bibliographic, chemical, 
# crystal, experimental, refinement or atomic coordinate data resulting 
# from the CCDC's data processing and validation procedures.
#
#######################################################################

data_UREHAB
_chemical_formula_moiety         'C19 H31 O2 P1'
_chemical_name_systematic        
'(R~p~)-2-Isopropyl-5-methylcyclohexyl isopropyl(phenyl)phosphinate'
_symmetry_cell_setting           monoclinic
_symmetry_space_group_name_H-M   'P 21'
_symmetry_Int_Tables_number      4
_space_group_name_Hall           'P 2yb'
loop_
_symmetry_equiv_pos_site_id
_symmetry_equiv_pos_as_xyz
1 x,y,z
2 -x,1/2+y,-z
_cell_length_a                   5.8847(4)
_cell_length_b                   17.196(3)
_cell_length_c                   9.7075(9)
_cell_angle_alpha                90
_cell_angle_beta                 95.1840(10)
_cell_angle_gamma                90
_cell_volume                     978.316
_exptl_crystal_colour            colorless
_exptl_crystal_description       block
_cell_formula_units_Z            2
_exptl_crystal_recrystallization_method 'diethyl ether/hexane'
loop_
_atom_site_label
_atom_site_type_symbol
_atom_site_fract_x
_atom_site_fract_y
_atom_site_fract_z
P1 P 0.58068(16) 0.52850(6) 0.70438(9)
O1 O 0.6203(3) 0.51752(13) 0.86663(18)
O2 O 0.3626(4) 0.56419(13) 0.6548(2)
C1 C 0.1496(7) 0.5651(2) 1.0974(3)
H1 H 0.0193 0.5439 1.0393
C2 C 0.3498(6) 0.57668(19) 1.0062(3)
H2 H 0.3025 0.6119 0.9310
H3 H 0.4772 0.6003 1.0612
C3 C 0.4266(5) 0.50056(18) 0.9469(3)
H4 H 0.3015 0.4784 0.8857
C4 C 0.5012(6) 0.4420(2) 1.0600(3)
H5 H 0.6252 0.4662 1.1192
C5 C 0.3002(7) 0.4311(2) 1.1490(4)
H6 H 0.1737 0.4076 1.0927
H7 H 0.3456 0.3954 1.2239
C6 C 0.2205(7) 0.5062(2) 1.2093(4)
H8 H 0.3427 0.5279 1.2714
H9 H 0.0923 0.4957 1.2626
C7 C 0.0780(7) 0.6421(2) 1.1575(4)
H10 H 0.2041 0.6638 1.2145
H11 H -0.0475 0.6336 1.2124
H12 H 0.0323 0.6775 1.0837
C8 C 0.5943(7) 0.3651(2) 1.0072(4)
H13 H 0.7117 0.3787 0.9459
C9 C 0.4161(8) 0.3168(2) 0.9222(4)
H14 H 0.4885 0.2731 0.8831
H15 H 0.3433 0.3482 0.8492
H16 H 0.3039 0.2988 0.9806
C10 C 0.7115(7) 0.3175(2) 1.1254(4)
H17 H 0.5986 0.2963 1.1802
H18 H 0.8137 0.3502 1.1820
H19 H 0.7960 0.2758 1.0883
C11 C 0.6101(7) 0.4337(2) 0.6323(3)
C12 C 0.8067(8) 0.3905(2) 0.6580(4)
H20 H 0.9302 0.4118 0.7116
C13 C 0.8240(9) 0.3154(3) 0.6050(4)
H21 H 0.9577 0.2870 0.6235
C14 C 0.6443(10) 0.2842(3) 0.5264(5)
H22 H 0.6557 0.2344 0.4900
C15 C 0.4474(9) 0.3255(3) 0.5005(4)
H23 H 0.3240 0.3035 0.4478
C16 C 0.4299(7) 0.4003(2) 0.5524(4)
H24 H 0.2955 0.4282 0.5331
C17 C 0.8282(6) 0.58385(19) 0.6703(3)
H25 H 0.9645 0.5550 0.7063
C18 C 0.8349(7) 0.5941(2) 0.5134(3)
H26 H 0.7075 0.6252 0.4776
H27 H 0.8271 0.5441 0.4694
H28 H 0.9744 0.6195 0.4952
C19 C 0.8278(7) 0.66248(18) 0.7434(4)
H29 H 0.9603 0.6916 0.7238
H30 H 0.8300 0.6545 0.8414
H31 H 0.6928 0.6908 0.7111
loop_
_geom_bond_atom_site_label_1
_geom_bond_atom_site_label_2
_geom_bond_site_symmetry_1
_geom_bond_site_symmetry_2
P1 O1 1_555 1_555
O1 C3 1_555 1_555
O2 P1 1_555 1_555
C1 H1 1_555 1_555
C2 C1 1_555 1_555
H2 C2 1_555 1_555
H3 C2 1_555 1_555
C3 C2 1_555 1_555
H4 C3 1_555 1_555
C4 C3 1_555 1_555
H5 C4 1_555 1_555
C5 C4 1_555 1_555
H6 C5 1_555 1_555
H7 C5 1_555 1_555
C6 C1 1_555 1_555
H8 C6 1_555 1_555
H9 C6 1_555 1_555
C7 C1 1_555 1_555
H10 C7 1_555 1_555
H11 C7 1_555 1_555
H12 C7 1_555 1_555
C8 C4 1_555 1_555
H13 C8 1_555 1_555
C9 C8 1_555 1_555
H14 C9 1_555 1_555
H15 C9 1_555 1_555
H16 C9 1_555 1_555
C10 C8 1_555 1_555
H17 C10 1_555 1_555
H18 C10 1_555 1_555
H19 C10 1_555 1_555
C11 P1 1_555 1_555
C12 C11 1_555 1_555
H20 C12 1_555 1_555
C13 C12 1_555 1_555
H21 C13 1_555 1_555
C14 C13 1_555 1_555
H22 C14 1_555 1_555
C15 C14 1_555 1_555
H23 C15 1_555 1_555
C16 C11 1_555 1_555
H24 C16 1_555 1_555
C17 P1 1_555 1_555
H25 C17 1_555 1_555
C18 C17 1_555 1_555
H26 C18 1_555 1_555
H27 C18 1_555 1_555
H28 C18 1_555 1_555
C19 C17 1_555 1_555
H29 C19 1_555 1_555
H30 C19 1_555 1_555
H31 C19 1_555 1_555
C5 C6 1_555 1_555
C15 C16 1_555 1_555

#END
