
#######################################################################
#
#                 Cambridge Crystallographic Data Centre
#                                CCDC 
#
#######################################################################
#
# If this CIF has been generated from an entry in the Cambridge 
# Structural Database, then it will include bibliographic, chemical, 
# crystal, experimental, refinement or atomic coordinate data resulting 
# from the CCDC's data processing and validation procedures.
#
#######################################################################

data_URIROE
_chemical_formula_moiety         'C34 H28 N2 O1'
_chemical_name_systematic        
4-(2-(4-((4-methoxybenzylidene)amino)phenyl)vinyl)-N,N-diphenylaniline
_symmetry_cell_setting           monoclinic
_symmetry_space_group_name_H-M   'P 21/c'
_symmetry_Int_Tables_number      14
_space_group_name_Hall           '-P 2ybc'
loop_
_symmetry_equiv_pos_site_id
_symmetry_equiv_pos_as_xyz
1 x,y,z
2 -x,1/2+y,1/2-z
3 -x,-y,-z
4 x,1/2-y,1/2+z
_cell_length_a                   24.174(5)
_cell_length_b                   9.814(5)
_cell_length_c                   11.092(5)
_cell_angle_alpha                90
_cell_angle_beta                 99.977(5)
_cell_angle_gamma                90
_cell_volume                     2591.71
_cell_formula_units_Z            4
loop_
_atom_site_label
_atom_site_type_symbol
_atom_site_fract_x
_atom_site_fract_y
_atom_site_fract_z
N1 N 0.62492(11) 0.0839(3) 0.2499(2)
O1 O 1.16510(10) 0.1097(2) 1.6660(2)
C1 C 0.66067(13) 0.0951(3) 0.3651(3)
N2 N 0.96766(12) 0.0920(3) 1.2028(2)
C2 C 1.12924(13) 0.1288(3) 1.5570(3)
C3 C 0.58070(12) 0.1741(3) 0.2085(3)
C4 C 0.93063(14) 0.1095(3) 1.0910(3)
C5 C 1.05239(13) 0.1490(3) 1.3398(3)
C6 C 1.05202(13) 0.0375(3) 1.4170(3)
H1 H 1.0256 -0.0311 1.3959
C7 C 0.63826(13) -0.0235(3) 0.1718(3)
C8 C 1.08998(13) 0.0271(3) 1.5238(3)
H2 H 1.0893 -0.0485 1.5740
C9 C 0.64005(14) 0.1099(3) 0.4738(3)
H3 H 0.6015 0.1161 0.4715
C10 C 0.71819(13) 0.0867(3) 0.3714(3)
H4 H 0.7331 0.0784 0.2999
C11 C 1.01080(15) 0.1647(3) 1.2280(3)
H5 H 1.0167 0.2321 1.1727
C12 C 0.87352(15) 0.0998(3) 1.0908(3)
H6 H 0.8604 0.0892 1.1643
C13 C 0.73275(16) 0.1053(3) 0.5939(3)
C14 C 0.57534(15) 0.2979(4) 0.2675(3)
H7 H 0.6009 0.3206 0.3373
C15 C 0.67565(16) 0.1154(3) 0.5845(3)
H8 H 0.6605 0.1264 0.6554
C16 C 0.63032(14) -0.1568(3) 0.2047(3)
H9 H 0.6145 -0.1754 0.2736
C17 C 1.13027(15) 0.2404(4) 1.4824(3)
H10 H 1.1563 0.3096 1.5045
C18 C 1.09222(15) 0.2484(4) 1.3744(3)
H11 H 1.0935 0.3232 1.3234
C19 C 0.54167(14) 0.1439(4) 0.1044(3)
H12 H 0.5441 0.0614 0.0643
C20 C 0.94916(17) 0.1279(4) 0.9793(3)
H13 H 0.9873 0.1384 0.9782
C21 C 0.66056(16) 0.0034(4) 0.0682(3)
H14 H 0.6658 0.0929 0.0452
C22 C 0.64588(15) -0.2628(4) 0.1355(3)
H15 H 0.6410 -0.3525 0.1587
C23 C 0.66835(16) -0.2360(4) 0.0331(4)
H16 H 0.6789 -0.3074 -0.0131
C24 C 0.91181(19) 0.1306(4) 0.8721(3)
H17 H 0.9254 0.1406 0.7990
C25 C 0.8553(2) 0.1192(3) 0.8680(3)
C26 C 0.75388(15) 0.0907(3) 0.4841(4)
H18 H 0.7924 0.0836 0.4870
C27 C 0.67529(17) -0.1038(4) -0.0018(3)
H19 H 0.6899 -0.0858 -0.0724
C28 C 0.83553(16) 0.1060(4) 0.9810(4)
H20 H 0.7972 0.1015 0.9816
C29 C 0.7686(2) 0.1104(4) 0.7167(4)
H21 H 0.7487 0.1104 0.7814
C30 C 0.49954(15) 0.2342(5) 0.0600(4)
H22 H 0.4742 0.2128 -0.0105
C31 C 0.5323(2) 0.3869(4) 0.2227(4)
H23 H 0.5289 0.4686 0.2632
C32 C 0.8183(2) 0.1145(4) 0.7475(4)
H24 H 0.8377 0.1149 0.6821
C33 C 1.20536(16) 0.2123(5) 1.7057(4)
H25 H 1.2287 0.2254 1.6450
H26 H 1.2282 0.1850 1.7815
H27 H 1.1865 0.2960 1.7175
C34 C 0.49451(19) 0.3555(5) 0.1186(5)
H28 H 0.4658 0.4160 0.0883
loop_
_geom_bond_atom_site_label_1
_geom_bond_atom_site_label_2
_geom_bond_site_symmetry_1
_geom_bond_site_symmetry_2
N1 C1 1_555 1_555
O1 C2 1_555 1_555
C1 C9 1_555 1_555
N2 C4 1_555 1_555
C2 C8 1_555 1_555
C3 N1 1_555 1_555
C4 C12 1_555 1_555
C5 C6 1_555 1_555
C6 H1 1_555 1_555
C7 N1 1_555 1_555
C8 C6 1_555 1_555
H2 C8 1_555 1_555
C9 H3 1_555 1_555
C10 C1 1_555 1_555
H4 C10 1_555 1_555
C11 N2 1_555 1_555
H5 C11 1_555 1_555
C12 H6 1_555 1_555
C13 C15 1_555 1_555
C14 C3 1_555 1_555
H7 C14 1_555 1_555
C15 C9 1_555 1_555
H8 C15 1_555 1_555
C16 C7 1_555 1_555
H9 C16 1_555 1_555
C17 C2 1_555 1_555
H10 C17 1_555 1_555
C18 C5 1_555 1_555
H11 C18 1_555 1_555
C19 C3 1_555 1_555
H12 C19 1_555 1_555
C20 C4 1_555 1_555
H13 C20 1_555 1_555
C21 C7 1_555 1_555
H14 C21 1_555 1_555
C22 C16 1_555 1_555
H15 C22 1_555 1_555
C23 C22 1_555 1_555
H16 C23 1_555 1_555
C24 C20 1_555 1_555
H17 C24 1_555 1_555
C25 C24 1_555 1_555
C26 C10 1_555 1_555
H18 C26 1_555 1_555
C27 C21 1_555 1_555
H19 C27 1_555 1_555
C28 C12 1_555 1_555
H20 C28 1_555 1_555
C29 C13 1_555 1_555
H21 C29 1_555 1_555
C30 C19 1_555 1_555
H22 C30 1_555 1_555
C31 C14 1_555 1_555
H23 C31 1_555 1_555
C32 C25 1_555 1_555
H24 C32 1_555 1_555
C33 O1 1_555 1_555
H25 C33 1_555 1_555
H26 C33 1_555 1_555
H27 C33 1_555 1_555
C34 C30 1_555 1_555
H28 C34 1_555 1_555
C5 C11 1_555 1_555
C13 C26 1_555 1_555
C17 C18 1_555 1_555
C23 C27 1_555 1_555
C25 C28 1_555 1_555
C29 C32 1_555 1_555
C31 C34 1_555 1_555

#END
