
#######################################################################
#
#                 Cambridge Crystallographic Data Centre
#                                CCDC 
#
#######################################################################
#
# If this CIF has been generated from an entry in the Cambridge 
# Structural Database, then it will include bibliographic, chemical, 
# crystal, experimental, refinement or atomic coordinate data resulting 
# from the CCDC's data processing and validation procedures.
#
#######################################################################

data_URIZIG
_chemical_formula_moiety         'C29 H17 F3 N2 O5,C1 H4 O1'
_chemical_name_systematic        
'5-(2-(5-fluoro-2-hydroxyphenyl)-4,5-bis(4-fluorophenyl)-1H-imidazol-1-yl)isophthalic acid methanol solvate'
_symmetry_cell_setting           triclinic
_symmetry_space_group_name_H-M   'P -1'
_symmetry_Int_Tables_number      2
_space_group_name_Hall           '-P 1'
loop_
_symmetry_equiv_pos_site_id
_symmetry_equiv_pos_as_xyz
1 x,y,z
2 -x,-y,-z
_cell_length_a                   9.4844(5)
_cell_length_b                   11.9760(6)
_cell_length_c                   12.6807(6)
_cell_angle_alpha                70.466(4)
_cell_angle_beta                 70.427(4)
_cell_angle_gamma                75.767(4)
_cell_volume                     1264.39
_exptl_crystal_description       needle-like
_cell_formula_units_Z            2
loop_
_atom_site_label
_atom_site_type_symbol
_atom_site_fract_x
_atom_site_fract_y
_atom_site_fract_z
O1 O 0.63511(15) 0.41820(13) 0.38540(10)
H1 H 0.7209 0.4337 0.3496
O2 O 0.09720(15) 0.39157(13) 0.44511(11)
F1 F 0.34426(16) -0.13540(11) 0.58978(10)
O3 O -0.03487(15) 0.30085(14) 0.62457(11)
H2 H -0.1028 0.3167 0.5930
F2 F 0.18343(16) 0.09011(11) 1.51240(9)
O4 O 0.06501(16) -0.14852(13) 1.04619(11)
H3 H 0.1057 -0.1118 1.0692
O5 O 0.74201(16) 0.32590(14) 0.53031(12)
N1 N 0.25101(17) -0.00948(13) 1.03172(12)
N2 N 0.33374(17) 0.12159(14) 0.86286(12)
C1 C 0.3598(2) 0.34117(17) 0.52128(15)
H4 H 0.3654 0.3898 0.4459
C2 C 0.2737(2) 0.08103(17) 1.17352(15)
C3 C 0.2238(2) 0.30199(16) 0.59327(15)
C4 C 0.4794(2) 0.23148(17) 0.67350(15)
H5 H 0.5656 0.2055 0.6998
C5 C 0.2402(2) -0.05984(17) 0.86311(15)
C6 C 0.2149(2) 0.22974(17) 0.70617(15)
H6 H 0.1235 0.2054 0.7551
C7 C 0.4868(2) 0.30748(17) 0.56237(15)
C8 C 0.3431(2) 0.19444(16) 0.74511(14)
F3 F 0.55104(18) 0.60098(12) 0.83024(12)
C9 C 0.2753(2) 0.01588(17) 0.91799(15)
C10 C 0.2943(2) 0.08124(17) 1.05295(15)
C11 C 0.3465(2) 0.16382(17) 0.94937(14)
C12 C 0.0905(2) 0.33673(17) 0.54594(15)
C13 C 0.1317(2) -0.13745(17) 0.93118(16)
C14 C 0.6336(2) 0.35037(18) 0.49187(15)
C15 C 0.3113(2) -0.06107(18) 0.74723(16)
H7 H 0.3861 -0.0135 0.7016
C16 C 0.4012(2) 0.27870(17) 0.92001(14)
C17 C 0.1958(2) -0.00374(18) 1.26653(16)
H8 H 0.1622 -0.0620 1.2514
C18 C 0.2700(2) -0.13277(19) 0.70153(17)
C19 C 0.3003(2) 0.38314(18) 0.92395(17)
H9 H 0.1970 0.3804 0.9464
C20 C 0.2959(2) 0.16825(19) 1.31292(16)
H10 H 0.3294 0.2260 1.3289
C21 C 0.1563(2) -0.20142(19) 0.76387(18)
H11 H 0.1260 -0.2453 0.7292
C22 C 0.0887(2) -0.20347(19) 0.87872(17)
H12 H 0.0124 -0.2501 0.9222
C23 C 0.2168(2) 0.08536(19) 1.40103(16)
C24 C 0.3255(2) 0.16519(19) 1.19935(16)
H13 H 0.3811 0.2205 1.1390
C25 C 0.1676(2) -0.00283(19) 1.38037(17)
H14 H 0.1167 -0.0602 1.4417
C26 C 0.5014(3) 0.49402(19) 0.86096(18)
C27 C 0.5550(2) 0.2851(2) 0.88562(18)
H15 H 0.6248 0.2156 0.8829
C28 C 0.6054(3) 0.3934(2) 0.8553(2)
H16 H 0.7085 0.3976 0.8316
C29 C 0.3496(3) 0.49215(19) 0.89516(18)
H17 H 0.2809 0.5620 0.8991
O6 O 0.92154(15) 0.45049(15) 0.29389(11)
H18 H 0.9618 0.4304 0.3468
C30 C 1.0305(2) 0.4811(2) 0.18655(18)
H19 H 1.0033 0.4626 0.1285
H20 H 1.1275 0.4363 0.1934
H21 H 1.0353 0.5653 0.1643
loop_
_geom_bond_atom_site_label_1
_geom_bond_atom_site_label_2
_geom_bond_site_symmetry_1
_geom_bond_site_symmetry_2
O1 H1 1_555 1_555
O2 C12 1_555 1_555
F1 C18 1_555 1_555
O3 H2 1_555 1_555
F2 C23 1_555 1_555
O4 H3 1_555 1_555
O5 C14 1_555 1_555
N1 C9 1_555 1_555
N2 C8 1_555 1_555
C1 H4 1_555 1_555
C2 C10 1_555 1_555
C3 C1 1_555 1_555
C4 H5 1_555 1_555
C5 C9 1_555 1_555
C6 C3 1_555 1_555
H6 C6 1_555 1_555
C7 C1 1_555 1_555
C8 C4 1_555 1_555
F3 C26 1_555 1_555
C9 N2 1_555 1_555
C10 N1 1_555 1_555
C11 N2 1_555 1_555
C12 O3 1_555 1_555
C13 O4 1_555 1_555
C14 O1 1_555 1_555
C15 C5 1_555 1_555
H7 C15 1_555 1_555
C16 C11 1_555 1_555
C17 C2 1_555 1_555
H8 C17 1_555 1_555
C18 C15 1_555 1_555
C19 C16 1_555 1_555
H9 C19 1_555 1_555
C20 H10 1_555 1_555
C21 C18 1_555 1_555
H11 C21 1_555 1_555
C22 C13 1_555 1_555
H12 C22 1_555 1_555
C23 C20 1_555 1_555
C24 C2 1_555 1_555
H13 C24 1_555 1_555
C25 C17 1_555 1_555
H14 C25 1_555 1_555
C26 C28 1_555 1_555
C27 C16 1_555 1_555
H15 C27 1_555 1_555
C28 C27 1_555 1_555
H16 C28 1_555 1_555
C29 C19 1_555 1_555
H17 C29 1_555 1_555
O6 H18 1_555 1_555
C30 O6 1_555 1_555
H19 C30 1_555 1_555
H20 C30 1_555 1_555
H21 C30 1_555 1_555
C3 C12 1_555 1_555
C4 C7 1_555 1_555
C5 C13 1_555 1_555
C6 C8 1_555 1_555
C7 C14 1_555 1_555
C10 C11 1_555 1_555
C20 C24 1_555 1_555
C21 C22 1_555 1_555
C23 C25 1_555 1_555
C26 C29 1_555 1_555

#END
