
#######################################################################
#
#                 Cambridge Crystallographic Data Centre
#                                CCDC 
#
#######################################################################
#
# If this CIF has been generated from an entry in the Cambridge 
# Structural Database, then it will include bibliographic, chemical, 
# crystal, experimental, refinement or atomic coordinate data resulting 
# from the CCDC's data processing and validation procedures.
#
#######################################################################

data_URUDAO
_chemical_formula_moiety         'C26 H18 O7'
_chemical_name_systematic        
4-hydroxy-3-((4-hydroxy-2-oxo-2H-chromen-3-yl)(2-methoxyphenyl)methyl)-2H-chromen-2-one
_chemical_properties_biological  'tested for antitumour activity'
_symmetry_cell_setting           monoclinic
_symmetry_space_group_name_H-M   'P 21/c'
_symmetry_Int_Tables_number      14
_space_group_name_Hall           '-P 2ybc'
loop_
_symmetry_equiv_pos_site_id
_symmetry_equiv_pos_as_xyz
1 x,y,z
2 -x,1/2+y,1/2-z
3 -x,-y,-z
4 x,1/2-y,1/2+z
_cell_length_a                   30.003(6)
_cell_length_b                   8.0445(15)
_cell_length_c                   17.943(4)
_cell_angle_alpha                90
_cell_angle_beta                 106.688(2)
_cell_angle_gamma                90
_cell_volume                     4148.31
_cell_formula_units_Z            8
loop_
_atom_site_label
_atom_site_type_symbol
_atom_site_fract_x
_atom_site_fract_y
_atom_site_fract_z
C1 C 0.42938(9) -0.0638(3) 0.46888(14)
C2 C 0.46400(9) -0.1847(3) 0.59449(14)
C3 C 0.37168(8) 0.2415(3) 0.40965(14)
C4 C 0.31288(9) 0.0023(3) 0.38172(16)
C5 C 0.35132(8) 0.0913(3) 0.44181(14)
H1 H 0.3358 0.1398 0.4779
C6 C 0.35383(9) 0.3019(3) 0.33379(15)
H2 H 0.3301 0.2444 0.2985
C7 C 0.42375(9) 0.4796(3) 0.43876(16)
H3 H 0.4472 0.5390 0.4738
C8 C 0.50329(9) -0.2501(3) 0.64432(16)
H4 H 0.5312 -0.2485 0.6316
C9 C 0.42176(9) -0.1781(3) 0.61293(15)
C10 C 0.23255(10) -0.1131(3) 0.27580(16)
C11 C 0.40614(9) 0.3345(3) 0.46226(15)
C12 C 0.31570(9) -0.0657(3) 0.31420(15)
C13 C 0.27391(10) -0.1267(3) 0.25735(17)
C14 C 0.26977(10) -0.0167(3) 0.40405(16)
C15 C 0.38291(9) -0.0930(3) 0.55951(15)
C16 C 0.27305(10) -0.1867(3) 0.18432(17)
H5 H 0.3007 -0.2015 0.1717
C17 C 0.46021(10) -0.3176(3) 0.73324(15)
H6 H 0.4595 -0.3651 0.7801
C18 C 0.42023(9) -0.2475(3) 0.68465(16)
H7 H 0.3928 -0.2460 0.6989
C19 C 0.38763(9) -0.0285(3) 0.49235(15)
C20 C 0.40608(9) 0.5338(3) 0.36325(16)
H8 H 0.4178 0.6304 0.3474
C21 C 0.50132(10) -0.3175(3) 0.71269(15)
H9 H 0.5279 -0.3642 0.7462
C22 C 0.19007(10) -0.1496(4) 0.22289(19)
H10 H 0.1624 -0.1384 0.2361
C23 C 0.37125(10) 0.4469(3) 0.31069(16)
H11 H 0.3595 0.4854 0.2599
C24 C 0.19018(11) -0.2037(4) 0.1496(2)
H12 H 0.1622 -0.2266 0.1122
C25 C 0.23200(11) -0.2238(4) 0.13157(18)
H13 H 0.2317 -0.2632 0.0827
C26 C 0.45470(13) 0.3624(4) 0.59199(19)
H14 H 0.4607 0.3077 0.6415
H15 H 0.4446 0.4742 0.5964
H16 H 0.4826 0.3644 0.5761
O1 O 0.23086(6) -0.0660(2) 0.34966(12)
O2 O 0.35407(7) -0.0747(2) 0.29286(11)
H17 H 0.3812 -0.0390 0.3253
O3 O 0.26681(7) 0.0060(2) 0.46999(12)
O4 O 0.41966(7) 0.2755(2) 0.53615(10)
O5 O 0.46614(6) -0.1331(2) 0.52181(10)
O6 O 0.34530(6) -0.0781(2) 0.58387(11)
H18 H 0.3193 -0.0410 0.5560
O7 O 0.43297(6) -0.0406(2) 0.40429(10)
C27 C 0.08022(8) 0.1910(3) 0.04465(14)
C28 C 0.11965(8) 0.2534(3) 0.10341(13)
C29 C 0.23013(9) 0.1095(3) -0.01983(17)
C30 C 0.12452(8) 0.2179(3) 0.17946(14)
C31 C 0.15621(8) 0.5629(3) -0.03009(14)
H19 H 0.1824 0.5063 -0.0343
C32 C 0.18969(9) 0.1893(3) -0.00708(15)
C33 C 0.04820(8) 0.0885(3) 0.14344(14)
C34 C 0.19266(8) 0.2671(3) 0.06145(14)
C35 C 0.15382(8) 0.3663(3) 0.07962(14)
H20 H 0.1694 0.4272 0.1273
C36 C 0.08760(8) 0.1354(3) 0.20189(14)
C37 C 0.13282(8) 0.5031(3) 0.02021(14)
C38 C 0.23445(9) 0.2477(3) 0.12542(16)
C39 C 0.01085(9) 0.0099(3) 0.15948(16)
H21 H -0.0151 -0.0221 0.1195
C40 C 0.09298(8) 0.5922(3) 0.02453(14)
C41 C 0.23027(11) 0.0393(3) -0.09157(19)
H22 H 0.2035 0.0421 -0.1336
C42 C 0.27047(10) 0.1059(3) 0.04094(17)
C43 C 0.07811(9) 0.7325(3) -0.02110(16)
H23 H 0.0514 0.7884 -0.0187
C44 C 0.01308(9) -0.0198(3) 0.23639(16)
H24 H -0.0116 -0.0723 0.2484
C45 C 0.10287(9) 0.7888(3) -0.06990(16)
H25 H 0.0931 0.8838 -0.0997
C46 C 0.05182(10) 0.0280(4) 0.29586(16)
H26 H 0.0527 0.0085 0.3474
C47 C 0.27034(12) -0.0337(3) -0.0992(2)
H27 H 0.2707 -0.0791 -0.1467
C48 C 0.08881(9) 0.1038(3) 0.27929(15)
H28 H 0.1148 0.1343 0.3195
C49 C 0.31085(10) 0.0308(3) 0.0340(2)
H29 H 0.3377 0.0281 0.0757
C50 C 0.14194(9) 0.7052(3) -0.07483(15)
H30 H 0.1587 0.7433 -0.1077
C51 C 0.30999(12) -0.0397(3) -0.0366(2)
H31 H 0.3365 -0.0921 -0.0420
C52 C 0.0346(2) 0.6288(6) 0.0890(4)
H32 H 0.0229 0.5755 0.1274
H33 H 0.0102 0.6365 0.0409
H34 H 0.0453 0.7384 0.1065
O8 O 0.04534(6) 0.1125(2) 0.06590(9)
O9 O 0.16135(6) 0.2609(2) 0.23832(10)
H35 H 0.1857 0.2786 0.2244
O10 O 0.07438(6) 0.2023(2) -0.02580(9)
O11 O 0.07170(6) 0.5352(2) 0.07762(11)
O12 O 0.27247(6) 0.1744(2) 0.11239(12)
O13 O 0.15139(6) 0.1830(2) -0.06713(10)
H36 H 0.1265 0.2060 -0.0557
O14 O 0.23875(6) 0.2914(3) 0.19260(11)
loop_
_geom_bond_atom_site_label_1
_geom_bond_atom_site_label_2
_geom_bond_site_symmetry_1
_geom_bond_site_symmetry_2
C1 C19 1_555 1_555
C2 C8 1_555 1_555
C3 C5 1_555 1_555
C4 C5 1_555 1_555
C5 H1 1_555 1_555
C6 C3 1_555 1_555
H2 C6 1_555 1_555
C7 H3 1_555 1_555
C8 H4 1_555 1_555
C9 C2 1_555 1_555
C10 C13 1_555 1_555
C11 C3 1_555 1_555
C12 C4 1_555 1_555
C13 C12 1_555 1_555
C14 C4 1_555 1_555
C15 C9 1_555 1_555
C16 C13 1_555 1_555
H5 C16 1_555 1_555
C17 H6 1_555 1_555
C18 C9 1_555 1_555
H7 C18 1_555 1_555
C19 C5 1_555 1_555
C20 C7 1_555 1_555
H8 C20 1_555 1_555
C21 C8 1_555 1_555
H9 C21 1_555 1_555
C22 C10 1_555 1_555
H10 C22 1_555 1_555
C23 C6 1_555 1_555
H11 C23 1_555 1_555
C24 C22 1_555 1_555
H12 C24 1_555 1_555
C25 C16 1_555 1_555
H13 C25 1_555 1_555
C26 H14 1_555 1_555
H15 C26 1_555 1_555
H16 C26 1_555 1_555
O1 C10 1_555 1_555
O2 C12 1_555 1_555
H17 O2 1_555 1_555
O3 C14 1_555 1_555
O4 C11 1_555 1_555
O5 C1 1_555 1_555
O6 C15 1_555 1_555
H18 O6 1_555 1_555
O7 C1 1_555 1_555
C27 C28 1_555 1_555
C28 C30 1_555 1_555
C29 C32 1_555 1_555
C30 C36 1_555 1_555
C31 H19 1_555 1_555
C32 C34 1_555 1_555
C33 C36 1_555 1_555
C34 C35 1_555 1_555
C35 C28 1_555 1_555
H20 C35 1_555 1_555
C36 C48 1_555 1_555
C37 C31 1_555 1_555
C38 C34 1_555 1_555
C39 C33 1_555 1_555
H21 C39 1_555 1_555
C40 C37 1_555 1_555
C41 C29 1_555 1_555
H22 C41 1_555 1_555
C42 C29 1_555 1_555
C43 C40 1_555 1_555
H23 C43 1_555 1_555
C44 C39 1_555 1_555
H24 C44 1_555 1_555
C45 C43 1_555 1_555
H25 C45 1_555 1_555
C46 C44 1_555 1_555
H26 C46 1_555 1_555
C47 C41 1_555 1_555
H27 C47 1_555 1_555
C48 C46 1_555 1_555
H28 C48 1_555 1_555
C49 C42 1_555 1_555
H29 C49 1_555 1_555
C50 C31 1_555 1_555
H30 C50 1_555 1_555
C51 C47 1_555 1_555
H31 C51 1_555 1_555
C52 H32 1_555 1_555
H33 C52 1_555 1_555
H34 C52 1_555 1_555
O8 C27 1_555 1_555
O9 C30 1_555 1_555
H35 O9 1_555 1_555
O10 C27 1_555 1_555
O11 C40 1_555 1_555
O12 C38 1_555 1_555
O13 C32 1_555 1_555
H36 O13 1_555 1_555
O14 C38 1_555 1_555
C2 O5 1_555 1_555
C7 C11 1_555 1_555
C14 O1 1_555 1_555
C15 C19 1_555 1_555
C17 C18 1_555 1_555
C17 C21 1_555 1_555
C20 C23 1_555 1_555
C24 C25 1_555 1_555
C26 O4 1_555 1_555
C33 O8 1_555 1_555
C35 C37 1_555 1_555
C42 O12 1_555 1_555
C45 C50 1_555 1_555
C49 C51 1_555 1_555
C52 O11 1_555 1_555

#END
