
#######################################################################
#
#                 Cambridge Crystallographic Data Centre
#                                CCDC 
#
#######################################################################
#
# If this CIF has been generated from an entry in the Cambridge 
# Structural Database, then it will include bibliographic, chemical, 
# crystal, experimental, refinement or atomic coordinate data resulting 
# from the CCDC's data processing and validation procedures.
#
#######################################################################

data_URUMUQ
_chemical_compound_source        'Paraminabea acronocephala'
_chemical_name_common            Minabeolide-4
_chemical_formula_moiety         'C27 H38 O3'
_chemical_name_systematic        22,26-Epoxycholesta-1,4-diene-3,26-dione
_symmetry_cell_setting           orthorhombic
_symmetry_space_group_name_H-M   'P 21 21 21'
_symmetry_Int_Tables_number      19
_space_group_name_Hall           'P 2ac 2ab'
loop_
_symmetry_equiv_pos_site_id
_symmetry_equiv_pos_as_xyz
1 x,y,z
2 1/2-x,-y,1/2+z
3 1/2+x,1/2-y,-z
4 -x,1/2+y,1/2-z
_cell_length_a                   6.5336(5)
_cell_length_b                   14.5778(10)
_cell_length_c                   23.6095(16)
_cell_angle_alpha                90
_cell_angle_beta                 90
_cell_angle_gamma                90
_cell_volume                     2248.7
_exptl_crystal_colour            colorless
_exptl_crystal_description       prism
_chemical_melting_point          '261-262 deg.C'
_cell_formula_units_Z            4
loop_
_atom_site_label
_atom_site_type_symbol
_atom_site_fract_x
_atom_site_fract_y
_atom_site_fract_z
O1 O 0.1627(2) 0.60353(9) 0.22384(6)
O2 O 0.7782(2) -0.13098(9) -0.04118(5)
O3 O 0.8879(2) -0.24861(10) -0.08970(7)
C1 C 0.5816(3) 0.46775(12) 0.17736(8)
H1 H 0.6988 0.4748 0.1554
C2 C 0.4626(3) 0.54084(13) 0.18415(8)
H2 H 0.4989 0.5959 0.1670
C3 C 0.2760(3) 0.53628(13) 0.21801(8)
C4 C 0.2323(3) 0.44836(12) 0.24451(7)
H3 H 0.1171 0.4437 0.2675
C5 C 0.3492(3) 0.37366(12) 0.23758(7)
C6 C 0.2898(3) 0.28246(12) 0.26230(8)
H4 H 0.1612 0.2882 0.2825
H5 H 0.3936 0.2625 0.2890
C7 C 0.2679(3) 0.21151(12) 0.21477(8)
H6 H 0.2417 0.1517 0.2313
H7 H 0.1515 0.2275 0.1913
C8 C 0.4588(3) 0.20641(12) 0.17809(8)
H8 H 0.5733 0.1857 0.2017
C9 C 0.5118(3) 0.30160(12) 0.15367(8)
H9 H 0.3925 0.3214 0.1317
C10 C 0.5415(3) 0.37460(12) 0.20234(7)
C11 C 0.6922(3) 0.29686(12) 0.11205(8)
H10 H 0.7090 0.3563 0.0942
H11 H 0.8164 0.2837 0.1330
C12 C 0.6645(3) 0.22385(11) 0.06584(8)
H12 H 0.5518 0.2414 0.0414
H13 H 0.7874 0.2210 0.0429
C13 C 0.6214(3) 0.12893(12) 0.09102(7)
C14 C 0.4325(3) 0.13905(12) 0.12928(7)
H14 H 0.3228 0.1636 0.1054
C15 C 0.3724(3) 0.04050(12) 0.14367(7)
H15 H 0.2273 0.0361 0.1520
H16 H 0.4493 0.0182 0.1760
C16 C 0.4265(3) -0.01371(12) 0.09000(8)
H17 H 0.3031 -0.0360 0.0718
H18 H 0.5122 -0.0659 0.0994
C17 C 0.5428(3) 0.05302(11) 0.05008(8)
H19 H 0.4414 0.0813 0.0250
C18 C 0.8102(3) 0.09402(12) 0.12326(8)
H20 H 0.7861 0.0324 0.1360
H21 H 0.8356 0.1329 0.1553
H22 H 0.9270 0.0949 0.0986
C19 C 0.7273(3) 0.35066(14) 0.24006(9)
H23 H 0.8505 0.3546 0.2181
H24 H 0.7121 0.2894 0.2545
H25 H 0.7345 0.3931 0.2711
C20 C 0.7011(3) 0.00396(12) 0.01236(8)
H26 H 0.8115 -0.0173 0.0372
C21 C 0.7975(4) 0.06689(14) -0.03177(9)
H27 H 0.8916 0.1080 -0.0135
H28 H 0.6922 0.1017 -0.0503
H29 H 0.8694 0.0306 -0.0593
C22 C 0.6061(3) -0.08127(12) -0.01519(8)
H30 H 0.5499 -0.1198 0.0150
C23 C 0.4408(4) -0.06604(14) -0.05816(10)
H31 H 0.4947 -0.0325 -0.0904
H32 H 0.3303 -0.0306 -0.0417
C24 C 0.3623(4) -0.15954(15) -0.07702(11)
H33 H 0.3035 -0.1913 -0.0448
H34 H 0.2553 -0.1513 -0.1050
C25 C 0.5320(3) -0.21712(13) -0.10197(9)
H35 H 0.5424 -0.1992 -0.1419
C26 C 0.7434(3) -0.20195(12) -0.07647(8)
C27 C 0.4816(4) -0.31849(13) -0.10175(9)
H36 H 0.3469 -0.3276 -0.1170
H37 H 0.4864 -0.3412 -0.0636
H38 H 0.5796 -0.3509 -0.1245
loop_
_geom_bond_atom_site_label_1
_geom_bond_atom_site_label_2
_geom_bond_site_symmetry_1
_geom_bond_site_symmetry_2
O1 C3 1_555 1_555
O2 C22 1_555 1_555
O3 C26 1_555 1_555
C1 H1 1_555 1_555
C2 C1 1_555 1_555
H2 C2 1_555 1_555
C3 C2 1_555 1_555
C4 C3 1_555 1_555
H3 C4 1_555 1_555
C5 C4 1_555 1_555
C6 C5 1_555 1_555
H4 C6 1_555 1_555
H5 C6 1_555 1_555
C7 C6 1_555 1_555
H6 C7 1_555 1_555
H7 C7 1_555 1_555
C8 C7 1_555 1_555
H8 C8 1_555 1_555
C9 C8 1_555 1_555
H9 C9 1_555 1_555
C10 C1 1_555 1_555
C11 C9 1_555 1_555
H10 C11 1_555 1_555
H11 C11 1_555 1_555
C12 C11 1_555 1_555
H12 C12 1_555 1_555
H13 C12 1_555 1_555
C13 C12 1_555 1_555
C14 C8 1_555 1_555
H14 C14 1_555 1_555
C15 C14 1_555 1_555
H15 C15 1_555 1_555
H16 C15 1_555 1_555
C16 C15 1_555 1_555
H17 C16 1_555 1_555
H18 C16 1_555 1_555
C17 C13 1_555 1_555
H19 C17 1_555 1_555
C18 C13 1_555 1_555
H20 C18 1_555 1_555
H21 C18 1_555 1_555
H22 C18 1_555 1_555
C19 C10 1_555 1_555
H23 C19 1_555 1_555
H24 C19 1_555 1_555
H25 C19 1_555 1_555
C20 C17 1_555 1_555
H26 C20 1_555 1_555
C21 C20 1_555 1_555
H27 C21 1_555 1_555
H28 C21 1_555 1_555
H29 C21 1_555 1_555
C22 C20 1_555 1_555
H30 C22 1_555 1_555
C23 C22 1_555 1_555
H31 C23 1_555 1_555
H32 C23 1_555 1_555
C24 C23 1_555 1_555
H33 C24 1_555 1_555
H34 C24 1_555 1_555
C25 C24 1_555 1_555
H35 C25 1_555 1_555
C26 O2 1_555 1_555
C27 C25 1_555 1_555
H36 C27 1_555 1_555
H37 C27 1_555 1_555
H38 C27 1_555 1_555
C5 C10 1_555 1_555
C9 C10 1_555 1_555
C13 C14 1_555 1_555
C16 C17 1_555 1_555
C25 C26 1_555 1_555

#END
