
#######################################################################
#
#                 Cambridge Crystallographic Data Centre
#                                CCDC 
#
#######################################################################
#
# If this CIF has been generated from an entry in the Cambridge 
# Structural Database, then it will include bibliographic, chemical, 
# crystal, experimental, refinement or atomic coordinate data resulting 
# from the CCDC's data processing and validation procedures.
#
#######################################################################

data_URUSAC
_chemical_compound_source        'Talaromyces flavus'
_chemical_name_common            'talaperoxide A'
_chemical_formula_moiety         'C16 H24 O5'
_chemical_name_systematic        
'(2S,3S,6R,7S)-2,2,6-Trimethyl-5-oxo-7,8-dioxatricyclo[7.3.1.0^1,6^]tridec-10-yl acetate'
_symmetry_cell_setting           orthorhombic
_symmetry_space_group_name_H-M   'P 21 21 21'
_symmetry_Int_Tables_number      19
_space_group_name_Hall           'P 2ac 2ab'
loop_
_symmetry_equiv_pos_site_id
_symmetry_equiv_pos_as_xyz
1 x,y,z
2 1/2-x,-y,1/2+z
3 -x,1/2+y,1/2-z
4 1/2+x,1/2-y,-z
_cell_length_a                   10.9434(2)
_cell_length_b                   12.4201(2)
_cell_length_c                   22.1019(4)
_cell_angle_alpha                90
_cell_angle_beta                 90
_cell_angle_gamma                90
_cell_volume                     3004.05
_exptl_crystal_colour            colorless
_exptl_crystal_description       block
_cell_formula_units_Z            8
loop_
_atom_site_label
_atom_site_type_symbol
_atom_site_fract_x
_atom_site_fract_y
_atom_site_fract_z
C1 C 0.9159(3) 0.2804(2) 0.82657(13)
H1 H 0.9897 0.2378 0.8167
H2 H 0.8545 0.2676 0.7944
C2 C 0.9481(3) 0.3979(2) 0.82842(13)
H3 H 0.9797 0.4180 0.7875
C3 C 0.8337(3) 0.4654(2) 0.83999(14)
H4 H 0.7809 0.4619 0.8031
C4 C 0.7575(3) 0.4295(2) 0.89446(14)
H5 H 0.6752 0.4622 0.8917
H6 H 0.7964 0.4560 0.9320
C5 C 0.7447(3) 0.3066(2) 0.89797(13)
H7 H 0.6841 0.2832 0.8674
H8 H 0.7118 0.2874 0.9383
C6 C 0.8642(2) 0.2432(2) 0.88770(12)
C7 C 0.9632(2) 0.2761(2) 0.93636(13)
C8 C 1.0762(2) 0.2033(3) 0.93315(13)
C9 C 1.0490(3) 0.0857(3) 0.93644(15)
H9 H 1.0119 0.0684 0.9761
H10 H 1.1256 0.0440 0.9324
C10 C 0.9614(3) 0.0552(2) 0.88589(15)
H11 H 0.9433 -0.0227 0.8890
H12 H 1.0026 0.0674 0.8466
C11 C 0.8394(3) 0.1177(2) 0.88602(13)
C12 C 0.9235(3) 0.2768(3) 1.00325(13)
H13 H 0.9884 0.3087 1.0280
H14 H 0.9082 0.2028 1.0167
H15 H 0.8487 0.3194 1.0076
C13 C 0.7590(3) 0.0796(3) 0.93877(15)
H16 H 0.6759 0.1074 0.9335
H17 H 0.7928 0.1063 0.9770
H18 H 0.7569 0.0007 0.9395
C14 C 0.7724(3) 0.0847(3) 0.82792(16)
H19 H 0.7494 0.0086 0.8304
H20 H 0.8263 0.0957 0.7930
H21 H 0.6987 0.1287 0.8232
C15 C 0.8878(3) 0.6395(3) 0.80206(13)
C16 C 0.9230(3) 0.7506(3) 0.81977(15)
H22 H 1.0063 0.7654 0.8059
H23 H 0.9193 0.7575 0.8639
H24 H 0.8664 0.8021 0.8012
O1 O 1.04437(19) 0.41479(19) 0.87055(9)
O2 O 0.99723(18) 0.38781(17) 0.93066(9)
O3 O 1.17789(19) 0.2400(2) 0.92909(11)
O4 O 0.8793(3) 0.6066(2) 0.75117(10)
O5 O 0.8654(2) 0.57726(17) 0.85075(9)
C17 C 0.7218(3) 0.1718(2) 0.59633(13)
H25 H 0.7463 0.1981 0.5558
H26 H 0.7908 0.1839 0.6245
C18 C 0.6933(3) 0.0534(2) 0.59311(13)
H27 H 0.7684 0.0156 0.5785
C19 C 0.6635(3) 0.0102(2) 0.65555(13)
H28 H 0.7402 0.0112 0.6802
C20 C 0.5660(3) 0.0727(2) 0.68996(12)
H29 H 0.5697 0.0530 0.7333
H30 H 0.4843 0.0521 0.6745
C21 C 0.5822(3) 0.1947(2) 0.68354(13)
H31 H 0.6507 0.2176 0.7099
H32 H 0.5073 0.2305 0.6986
C22 C 0.6078(2) 0.2349(2) 0.61855(12)
C23 C 0.5004(3) 0.2034(2) 0.57493(13)
C24 C 0.5146(3) 0.2520(2) 0.51106(14)
C25 C 0.5446(3) 0.3703(3) 0.50925(14)
H33 H 0.4714 0.4121 0.5211
H34 H 0.5664 0.3908 0.4673
C26 C 0.6502(3) 0.3992(2) 0.55134(14)
H35 H 0.6599 0.4785 0.5516
H36 H 0.7263 0.3680 0.5347
C27 C 0.6351(3) 0.3604(2) 0.61703(14)
C28 C 0.3703(3) 0.2317(3) 0.59639(15)
H37 H 0.3106 0.1911 0.5725
H38 H 0.3561 0.3090 0.5911
H39 H 0.3616 0.2129 0.6392
C29 C 0.5352(3) 0.4271(3) 0.64799(16)
H40 H 0.5549 0.5038 0.6445
H41 H 0.5304 0.4072 0.6908
H42 H 0.4565 0.4129 0.6284
C30 C 0.7568(3) 0.3867(3) 0.64988(15)
H43 H 0.7674 0.4649 0.6521
H44 H 0.8251 0.3550 0.6274
H45 H 0.7548 0.3567 0.6909
C31 C 0.6529(3) -0.1697(3) 0.69260(14)
C32 C 0.6181(3) -0.2822(3) 0.67657(15)
H46 H 0.6507 -0.3319 0.7070
H47 H 0.6518 -0.3005 0.6368
H48 H 0.5288 -0.2883 0.6754
O6 O 0.59953(19) 0.03714(17) 0.54900(9)
O7 O 0.48787(17) 0.08818(15) 0.57082(9)
O8 O 0.4958(2) 0.19921(19) 0.46616(10)
O9 O 0.6982(3) -0.14254(19) 0.74029(11)
O10 O 0.62631(19) -0.10127(16) 0.64787(9)
loop_
_geom_bond_atom_site_label_1
_geom_bond_atom_site_label_2
_geom_bond_site_symmetry_1
_geom_bond_site_symmetry_2
C1 H1 1_555 1_555
H2 C1 1_555 1_555
C2 C1 1_555 1_555
H3 C2 1_555 1_555
C3 C2 1_555 1_555
H4 C3 1_555 1_555
C4 C3 1_555 1_555
H5 C4 1_555 1_555
H6 C4 1_555 1_555
C5 C4 1_555 1_555
H7 C5 1_555 1_555
H8 C5 1_555 1_555
C6 C1 1_555 1_555
C7 C6 1_555 1_555
C8 C7 1_555 1_555
C9 C8 1_555 1_555
H9 C9 1_555 1_555
H10 C9 1_555 1_555
C10 C9 1_555 1_555
H11 C10 1_555 1_555
H12 C10 1_555 1_555
C11 C6 1_555 1_555
C12 C7 1_555 1_555
H13 C12 1_555 1_555
H14 C12 1_555 1_555
H15 C12 1_555 1_555
C13 C11 1_555 1_555
H16 C13 1_555 1_555
H17 C13 1_555 1_555
H18 C13 1_555 1_555
C14 C11 1_555 1_555
H19 C14 1_555 1_555
H20 C14 1_555 1_555
H21 C14 1_555 1_555
C15 C16 1_555 1_555
C16 H22 1_555 1_555
H23 C16 1_555 1_555
H24 C16 1_555 1_555
O1 C2 1_555 1_555
O2 C7 1_555 1_555
O3 C8 1_555 1_555
O4 C15 1_555 1_555
O5 C3 1_555 1_555
C17 H25 1_555 1_555
H26 C17 1_555 1_555
C18 C17 1_555 1_555
H27 C18 1_555 1_555
C19 C18 1_555 1_555
H28 C19 1_555 1_555
C20 C19 1_555 1_555
H29 C20 1_555 1_555
H30 C20 1_555 1_555
C21 C20 1_555 1_555
H31 C21 1_555 1_555
H32 C21 1_555 1_555
C22 C17 1_555 1_555
C23 C22 1_555 1_555
C24 C23 1_555 1_555
C25 C24 1_555 1_555
H33 C25 1_555 1_555
H34 C25 1_555 1_555
C26 C25 1_555 1_555
H35 C26 1_555 1_555
H36 C26 1_555 1_555
C27 C22 1_555 1_555
C28 C23 1_555 1_555
H37 C28 1_555 1_555
H38 C28 1_555 1_555
H39 C28 1_555 1_555
C29 C27 1_555 1_555
H40 C29 1_555 1_555
H41 C29 1_555 1_555
H42 C29 1_555 1_555
C30 C27 1_555 1_555
H43 C30 1_555 1_555
H44 C30 1_555 1_555
H45 C30 1_555 1_555
C31 C32 1_555 1_555
C32 H46 1_555 1_555
H47 C32 1_555 1_555
H48 C32 1_555 1_555
O6 C18 1_555 1_555
O7 C23 1_555 1_555
O8 C24 1_555 1_555
O9 C31 1_555 1_555
O10 C19 1_555 1_555
C5 C6 1_555 1_555
C10 C11 1_555 1_555
C15 O5 1_555 1_555
O1 O2 1_555 1_555
C21 C22 1_555 1_555
C26 C27 1_555 1_555
C31 O10 1_555 1_555
O6 O7 1_555 1_555

#END
