
#######################################################################
#
#                 Cambridge Crystallographic Data Centre
#                                CCDC 
#
#######################################################################
#
# If this CIF has been generated from an entry in the Cambridge 
# Structural Database, then it will include bibliographic, chemical, 
# crystal, experimental, refinement or atomic coordinate data resulting 
# from the CCDC's data processing and validation procedures.
#
#######################################################################

data_USAZUL
_chemical_formula_moiety         'C23 H18 N4'
_chemical_name_systematic        
2-methyl-9-(4-(4-methylphenyl)-1H-1,2,3-triazol-1-yl)acridine
_symmetry_cell_setting           triclinic
_symmetry_space_group_name_H-M   'P -1'
_symmetry_Int_Tables_number      2
_space_group_name_Hall           '-P 1'
loop_
_symmetry_equiv_pos_site_id
_symmetry_equiv_pos_as_xyz
1 x,y,z
2 -x,-y,-z
_cell_length_a                   9.585(4)
_cell_length_b                   9.684(4)
_cell_length_c                   11.339(5)
_cell_angle_alpha                88.327(7)
_cell_angle_beta                 88.250(7)
_cell_angle_gamma                61.603(6)
_cell_volume                     925.295
_exptl_crystal_colour            yellow
_exptl_crystal_description       block
_cell_formula_units_Z            2
loop_
_atom_site_label
_atom_site_type_symbol
_atom_site_fract_x
_atom_site_fract_y
_atom_site_fract_z
N1 N 0.8181(3) 0.1482(3) 0.1515(2)
N2 N 0.6991(3) 0.1590(3) 0.2178(2)
N3 N 0.6667(3) 0.2735(4) 0.2954(2)
N4 N 0.3151(10) 0.3463(11) 0.5533(6)
C1 C 1.3941(5) 0.3037(6) -0.0270(4)
H1 H 1.4861 0.2020 -0.0268
H2 H 1.4139 0.3742 0.0188
H3 H 1.3710 0.3432 -0.1066
C2 C 1.2549(4) 0.2908(4) 0.0258(3)
C3 C 1.2200(4) 0.1729(4) -0.0051(3)
H4 H 1.2843 0.0996 -0.0606
C4 C 1.0930(3) 0.1622(3) 0.0441(2)
H5 H 1.0724 0.0823 0.0212
C5 C 0.9943(3) 0.2692(3) 0.1278(2)
C6 C 1.0280(4) 0.3880(4) 0.1588(3)
H6 H 0.9636 0.4618 0.2139
C7 C 1.1553(4) 0.3973(4) 0.1088(3)
H7 H 1.1757 0.4775 0.1312
C8 C 0.8623(3) 0.2545(3) 0.1845(2)
C9 C 0.7655(4) 0.3352(4) 0.2757(3)
H8 H 0.7670 0.4165 0.3165
C10 C 0.1049(4) 0.6836(4) 0.3646(4)
H9 H 0.0015 0.7642 0.3569
C11 C 0.4839(5) 0.1063(4) 0.6590(3)
H10 H 0.3994 0.1225 0.7095
C12 C 0.5584(7) 0.2911(8) 0.3921(6)
C13 C 0.5872(10) 0.1836(10) 0.4879(7)
C14 C 0.7343(9) 0.0481(8) 0.5082(5)
H11 H 0.8208 0.0248 0.4579
C15 C 0.7476(14) -0.0479(12) 0.6023(8)
H12 H 0.8448 -0.1359 0.6162
C16 C 0.6209(9) -0.0183(7) 0.6779(5)
H13 H 0.6326 -0.0858 0.7413
C17 C 0.4555(7) 0.2198(6) 0.5653(4)
C18 C 0.2897(9) 0.4503(9) 0.4618(7)
C19 C 0.1409(8) 0.5836(7) 0.4462(6)
H14 H 0.0619 0.5988 0.5019
C20 C 0.2378(7) 0.6688(7) 0.2770(6)
C21 C 0.2057(14) 0.7874(11) 0.1783(9)
H15 H 0.2726 0.8353 0.1862
H16 H 0.0965 0.8667 0.1822
H17 H 0.2276 0.7358 0.1038
C22 C 0.3838(7) 0.5390(8) 0.2869(7)
H18 H 0.4640 0.5256 0.2327
C23 C 0.4159(9) 0.4231(8) 0.3793(5)
N5? N 0.2320(11) 0.4468(12) 0.4976(8)
C24? C 0.5080(13) 0.3546(12) 0.3560(8)
C25? C 0.3707(11) 0.4925(12) 0.3301(10)
C26? C 0.3613(11) 0.5948(10) 0.2315(9)
H19? H 0.4497 0.5701 0.1829
C27? C 0.2194(15) 0.7300(13) 0.2100(12)
H20? H 0.2143 0.7969 0.1478
C28? C 0.0886(10) 0.7659(9) 0.2782(8)
H21? H -0.0093 0.8500 0.2595
H22? H 0.0183 0.7229 0.4167
C29? C 0.2329(10) 0.5375(9) 0.4003(7)
C30? C 0.3601(16) 0.3235(17) 0.5206(10)
C31? C 0.3635(11) 0.2280(10) 0.6273(7)
H23? H 0.2710 0.2610 0.6725
H24? H 0.4771 0.0532 0.7268
C32? C 0.6389(12) 0.0421(10) 0.5924(6)
C33? C 0.786(2) -0.1006(17) 0.6293(13)
H25? H 0.7905 -0.1911 0.5928
H26? H 0.7839 -0.1132 0.7136
H27? H 0.8768 -0.0897 0.6054
C34? C 0.6430(17) 0.1283(15) 0.4942(11)
H28? H 0.7381 0.0942 0.4520
C35? C 0.5097(10) 0.2652(10) 0.4554(8)
loop_
_geom_bond_atom_site_label_1
_geom_bond_atom_site_label_2
_geom_bond_site_symmetry_1
_geom_bond_site_symmetry_2
N1 N2 1_555 1_555
N2 N3 1_555 1_555
N3 C9 1_555 1_555
N4 C17 1_555 1_555
C1 H1 1_555 1_555
H2 C1 1_555 1_555
H3 C1 1_555 1_555
C2 C1 1_555 1_555
C3 C2 1_555 1_555
H4 C3 1_555 1_555
C4 C3 1_555 1_555
H5 C4 1_555 1_555
C5 C4 1_555 1_555
C6 C5 1_555 1_555
H6 C6 1_555 1_555
C7 C2 1_555 1_555
H7 C7 1_555 1_555
C8 N1 1_555 1_555
C9 C8 1_555 1_555
H8 C9 1_555 1_555
C10 H9 1_555 1_555
C11 H10 1_555 1_555
C12 N3 1_555 1_555
C13 C12 1_555 1_555
C14 C13 1_555 1_555
H11 C14 1_555 1_555
C15 C14 1_555 1_555
H12 C15 1_555 1_555
C16 C11 1_555 1_555
H13 C16 1_555 1_555
C17 C11 1_555 1_555
C18 N4 1_555 1_555
C19 C10 1_555 1_555
H14 C19 1_555 1_555
C20 C10 1_555 1_555
C21 C20 1_555 1_555
H15 C21 1_555 1_555
H16 C21 1_555 1_555
H17 C21 1_555 1_555
C22 C20 1_555 1_555
H18 C22 1_555 1_555
C23 C12 1_555 1_555
C5 C8 1_555 1_555
C6 C7 1_555 1_555
C13 C17 1_555 1_555
C15 C16 1_555 1_555
C18 C19 1_555 1_555
C18 C23 1_555 1_555
C22 C23 1_555 1_555

#END
