
#######################################################################
#
#                 Cambridge Crystallographic Data Centre
#                                CCDC 
#
#######################################################################
#
# If this CIF has been generated from an entry in the Cambridge 
# Structural Database, then it will include bibliographic, chemical, 
# crystal, experimental, refinement or atomic coordinate data resulting 
# from the CCDC's data processing and validation procedures.
#
#######################################################################

data_USAZOF
_chemical_formula_moiety         'C29 H30 N2 O2 S1'
_chemical_name_systematic        
"2'-(4-t-butylphenyl)-1-methyl-4'-((4-methylphenyl)sulfanyl)-5'H-spiro[indole-3,3'-pyrrolidine]-2,5'(1H)-dione unknown solvate"
_symmetry_cell_setting           monoclinic
_symmetry_space_group_name_H-M   'P 21/n'
_symmetry_Int_Tables_number      14
_space_group_name_Hall           '-P 2yn'
loop_
_symmetry_equiv_pos_site_id
_symmetry_equiv_pos_as_xyz
1 x,y,z
2 1/2-x,1/2+y,1/2-z
3 -x,-y,-z
4 1/2+x,1/2-y,1/2+z
_cell_length_a                   8.4691(3)
_cell_length_b                   16.8355(8)
_cell_length_c                   19.8840(7)
_cell_angle_alpha                90
_cell_angle_beta                 90.960(3)
_cell_angle_gamma                90
_cell_volume                     2834.69
_exptl_crystal_colour            colorless
_exptl_crystal_description       prism
_cell_formula_units_Z            4
loop_
_atom_site_label
_atom_site_type_symbol
_atom_site_fract_x
_atom_site_fract_y
_atom_site_fract_z
S1 S 0.55887(7) 0.54083(4) 0.22123(3)
O1 O 0.5888(2) 0.55031(12) 0.07280(9)
O2 O 0.0744(2) 0.62390(11) 0.20303(11)
N1 N 0.3333(2) 0.50725(13) 0.05792(10)
H1 H 0.3432 0.4868 0.0175
N2 N 0.0644(2) 0.50351(14) 0.25764(10)
C1 C 0.2417(3) 0.51248(13) 0.16911(11)
C2 C 0.3964(3) 0.55990(14) 0.16269(11)
H2 H 0.3709 0.6179 0.1638
C3 C 0.4543(3) 0.53902(14) 0.09297(12)
C4 C 0.1837(3) 0.50993(14) 0.09327(11)
H3 H 0.1290 0.5610 0.0822
C5 C 0.2540(3) 0.43333(14) 0.20271(12)
C6 C 0.3506(3) 0.36862(15) 0.19089(13)
H4 H 0.4249 0.3699 0.1557
C7 C 0.3371(4) 0.30143(16) 0.23150(15)
H5 H 0.4018 0.2563 0.2239
C8 C 0.2286(4) 0.30095(17) 0.28304(15)
H6 H 0.2211 0.2552 0.3108
C9 C 0.1307(3) 0.36534(18) 0.29525(14)
H7 H 0.0563 0.3643 0.3305
C10 C 0.1459(3) 0.43057(15) 0.25436(12)
C11 C 0.1174(3) 0.55538(15) 0.21129(12)
C12 C -0.0553(4) 0.5223(2) 0.30666(16)
H8 H -0.0067 0.5244 0.3517
H9 H -0.1374 0.4813 0.3055
H10 H -0.1027 0.5740 0.2958
C13 C 0.4625(3) 0.54917(16) 0.29927(13)
C14 C 0.3831(4) 0.61807(18) 0.31809(15)
H11 H 0.3819 0.6630 0.2891
C15 C 0.3061(4) 0.6211(2) 0.37880(16)
H12 H 0.2496 0.6677 0.3907
C16 C 0.3104(4) 0.5564(2) 0.42301(15)
C17 C 0.3931(4) 0.4905(2) 0.40435(16)
H13 H 0.3996 0.4467 0.4344
C18 C 0.4674(4) 0.48564(18) 0.34339(15)
H14 H 0.5221 0.4385 0.3316
C19 C 0.2211(6) 0.5590(3) 0.4882(2)
H15 H 0.2914 0.5429 0.5254
H16 H 0.1308 0.5227 0.4854
H17 H 0.1834 0.6132 0.4960
C20 C 0.0734(2) 0.44187(14) 0.07674(11)
C21 C -0.0839(3) 0.44832(14) 0.09474(12)
H18 H -0.1198 0.4953 0.1161
C22 C -0.1892(3) 0.38656(15) 0.08174(12)
H19 H -0.2957 0.3917 0.0954
C23 C -0.1430(3) 0.31777(14) 0.04938(11)
C24 C 0.0145(3) 0.31283(17) 0.03113(14)
H20 H 0.0500 0.2663 0.0090
C25 C 0.1213(3) 0.37344(16) 0.04405(15)
H21 H 0.2278 0.3681 0.0305
C26 C -0.2588(3) 0.25050(15) 0.03221(13)
C27 C -0.4237(4) 0.2672(3) 0.0561(3)
H22 H -0.4197 0.2811 0.1040
H23 H -0.4894 0.2197 0.0496
H24 H -0.4692 0.3114 0.0303
C28 C -0.2027(5) 0.1724(2) 0.0661(2)
H25 H -0.0937 0.1612 0.0532
H26 H -0.2712 0.1286 0.0514
H27 H -0.2076 0.1780 0.1150
C29 C -0.2625(5) 0.2387(3) -0.04385(19)
H28 H -0.2950 0.2883 -0.0659
H29 H -0.3378 0.1965 -0.0556
H30 H -0.1570 0.2237 -0.0589
loop_
_geom_bond_atom_site_label_1
_geom_bond_atom_site_label_2
_geom_bond_site_symmetry_1
_geom_bond_site_symmetry_2
S1 C2 1_555 1_555
O1 C3 1_555 1_555
O2 C11 1_555 1_555
N1 H1 1_555 1_555
N2 C10 1_555 1_555
C1 C2 1_555 1_555
C2 H2 1_555 1_555
C3 N1 1_555 1_555
C4 N1 1_555 1_555
H3 C4 1_555 1_555
C5 C1 1_555 1_555
C6 C5 1_555 1_555
H4 C6 1_555 1_555
C7 C6 1_555 1_555
H5 C7 1_555 1_555
C8 C7 1_555 1_555
H6 C8 1_555 1_555
C9 C8 1_555 1_555
H7 C9 1_555 1_555
C10 C5 1_555 1_555
C11 N2 1_555 1_555
C12 N2 1_555 1_555
H8 C12 1_555 1_555
H9 C12 1_555 1_555
H10 C12 1_555 1_555
C13 S1 1_555 1_555
C14 C13 1_555 1_555
H11 C14 1_555 1_555
C15 C14 1_555 1_555
H12 C15 1_555 1_555
C16 C15 1_555 1_555
C17 C16 1_555 1_555
H13 C17 1_555 1_555
C18 C13 1_555 1_555
H14 C18 1_555 1_555
C19 C16 1_555 1_555
H15 C19 1_555 1_555
H16 C19 1_555 1_555
H17 C19 1_555 1_555
C20 C4 1_555 1_555
C21 C20 1_555 1_555
H18 C21 1_555 1_555
C22 C21 1_555 1_555
H19 C22 1_555 1_555
C23 C22 1_555 1_555
C24 C23 1_555 1_555
H20 C24 1_555 1_555
C25 C20 1_555 1_555
H21 C25 1_555 1_555
C26 C23 1_555 1_555
C27 C26 1_555 1_555
H22 C27 1_555 1_555
H23 C27 1_555 1_555
H24 C27 1_555 1_555
C28 C26 1_555 1_555
H25 C28 1_555 1_555
H26 C28 1_555 1_555
H27 C28 1_555 1_555
C29 C26 1_555 1_555
H28 C29 1_555 1_555
H29 C29 1_555 1_555
H30 C29 1_555 1_555
C1 C4 1_555 1_555
C1 C11 1_555 1_555
C2 C3 1_555 1_555
C9 C10 1_555 1_555
C17 C18 1_555 1_555
C24 C25 1_555 1_555

#END
