
#######################################################################
#
#                 Cambridge Crystallographic Data Centre
#                                CCDC 
#
#######################################################################
#
# If this CIF has been generated from an entry in the Cambridge 
# Structural Database, then it will include bibliographic, chemical, 
# crystal, experimental, refinement or atomic coordinate data resulting 
# from the CCDC's data processing and validation procedures.
#
#######################################################################

data_USEHAD
_chemical_formula_moiety         'C19 H12 Br1 N3 O2 S1'
_chemical_name_systematic        
'S-phenyl (5-bromo-3-(dicyanomethyl)-2-oxo-2,3-dihydro-1H-indol-3-yl)ethanethioate'
_symmetry_cell_setting           orthorhombic
_symmetry_space_group_name_H-M   'P b c a'
_symmetry_Int_Tables_number      61
_space_group_name_Hall           '-P 2ac 2ab'
loop_
_symmetry_equiv_pos_site_id
_symmetry_equiv_pos_as_xyz
1 x,y,z
2 1/2-x,-y,1/2+z
3 -x,1/2+y,1/2-z
4 1/2+x,1/2-y,-z
5 -x,-y,-z
6 1/2+x,y,1/2-z
7 x,1/2-y,1/2+z
8 1/2-x,1/2+y,z
_cell_length_a                   11.1742(7)
_cell_length_b                   9.5722(6)
_cell_length_c                   34.645(2)
_cell_angle_alpha                90
_cell_angle_beta                 90
_cell_angle_gamma                90
_cell_volume                     3705.69
_exptl_crystal_colour            colorless
_exptl_crystal_description       prism
_chemical_melting_point          '446 K'
_cell_formula_units_Z            8
loop_
_atom_site_label
_atom_site_type_symbol
_atom_site_fract_x
_atom_site_fract_y
_atom_site_fract_z
C1 C 0.3915(2) 1.0583(3) 0.57973(8)
C2 C 0.3561(2) 1.0527(3) 0.54160(8)
H1 H 0.3231 1.1331 0.5296
C3 C 0.3686(2) 0.9298(3) 0.52079(8)
H2 H 0.3444 0.9241 0.4946
C4 C 0.4176(2) 0.8157(3) 0.53955(7)
C5 C 0.4515(2) 0.8223(3) 0.57826(6)
C6 C 0.4399(2) 0.9447(3) 0.59889(7)
H3 H 0.4640 0.9507 0.6251
C7 C 0.5059(2) 0.6832(2) 0.58968(6)
C8 C 0.5001(2) 0.6006(3) 0.55100(7)
H4 H 0.4338 0.6501 0.4992
C9 C 0.6386(2) 0.7032(3) 0.60187(6)
H5 H 0.6411 0.7763 0.6225
C10 C 0.7078(2) 0.7553(3) 0.56849(7)
C11 C 0.6951(2) 0.5759(3) 0.61735(7)
C12 C 0.4353(2) 0.5956(3) 0.61898(6)
H6 H 0.3520 0.5867 0.6096
H7 H 0.4703 0.5006 0.6195
C13 C 0.4315(2) 0.6502(3) 0.65979(7)
C14 C 0.3569(2) 0.6202(3) 0.73472(8)
C15 C 0.2813(3) 0.7228(3) 0.74801(9)
H8 H 0.2173 0.7553 0.7323
C16 C 0.2994(3) 0.7786(4) 0.78458(9)
H9 H 0.2477 0.8498 0.7939
C17 C 0.3909(3) 0.7320(4) 0.80725(9)
H10 H 0.4030 0.7710 0.8322
C18 C 0.4653(3) 0.6287(4) 0.79399(9)
H11 H 0.5285 0.5958 0.8099
C19 C 0.4494(3) 0.5724(4) 0.75796(9)
H12 H 0.5015 0.5010 0.7489
N1 N 0.44576(19) 0.6833(2) 0.52453(5)
N2 N 0.7540(2) 0.7939(3) 0.54161(7)
N3 N 0.7386(2) 0.4807(3) 0.63073(7)
O1 O 0.53768(17) 0.48261(18) 0.54679(5)
O2 O 0.48833(18) 0.74721(19) 0.67179(5)
S1 S 0.33393(7) 0.54639(9) 0.68854(2)
Br1 Br 0.37573(3) 1.23035(3) 0.606809(9)
loop_
_geom_bond_atom_site_label_1
_geom_bond_atom_site_label_2
_geom_bond_site_symmetry_1
_geom_bond_site_symmetry_2
C1 C2 1_555 1_555
C2 H1 1_555 1_555
C3 C2 1_555 1_555
H2 C3 1_555 1_555
C4 C3 1_555 1_555
C5 C4 1_555 1_555
C6 C1 1_555 1_555
H3 C6 1_555 1_555
C7 C5 1_555 1_555
C8 C7 1_555 1_555
H4 N1 1_555 1_555
C9 C7 1_555 1_555
H5 C9 1_555 1_555
C10 C9 1_555 1_555
C11 C9 1_555 1_555
C12 C7 1_555 1_555
H6 C12 1_555 1_555
H7 C12 1_555 1_555
C13 C12 1_555 1_555
C14 C15 1_555 1_555
C15 H8 1_555 1_555
C16 C15 1_555 1_555
H9 C16 1_555 1_555
C17 C16 1_555 1_555
H10 C17 1_555 1_555
C18 C17 1_555 1_555
H11 C18 1_555 1_555
C19 C14 1_555 1_555
H12 C19 1_555 1_555
N1 C4 1_555 1_555
N2 C10 1_555 1_555
N3 C11 1_555 1_555
O1 C8 1_555 1_555
O2 C13 1_555 1_555
S1 C13 1_555 1_555
Br1 C1 1_555 1_555
C5 C6 1_555 1_555
C8 N1 1_555 1_555
C14 S1 1_555 1_555
C18 C19 1_555 1_555

#END
