
#######################################################################
#
#                 Cambridge Crystallographic Data Centre
#                                CCDC 
#
#######################################################################
#
# If this CIF has been generated from an entry in the Cambridge 
# Structural Database, then it will include bibliographic, chemical, 
# crystal, experimental, refinement or atomic coordinate data resulting 
# from the CCDC's data processing and validation procedures.
#
#######################################################################

data_USENEN
_chemical_formula_moiety         
'C68 H52 N10 O10,C14 H10,2(C1 H1 Cl3),0.5(C6 H12)'
_chemical_name_systematic        
'8,11,14,17,20,23,37,45,56,64-decaoxa-2,29,31,51,71,73,76,79,81,84-decaazatetradecacyclo[28.21.17.3^38,44^.3^57,63^.2^4,7^.2^24,27^.2^33,36^.2^46,49^.2^52,55^.2^65,68^.1^3,50^.1^28,32^.0^41,80^.0^60,72^]octaoctaconta-1,3(76),4,6,24,26,28(84),29,31,33,35,38(81),39,41,43,46,48,50,52,54,57,59,61,63(71),65,67,69,72,74,77,79,82,85,87-tetratriacontaene phenanthrene clathrate chloroform cyclohexane solvate'
_symmetry_cell_setting           triclinic
_symmetry_space_group_name_H-M   'P -1'
_symmetry_Int_Tables_number      2
_space_group_name_Hall           '-P 1'
loop_
_symmetry_equiv_pos_site_id
_symmetry_equiv_pos_as_xyz
1 x,y,z
2 -x,-y,-z
_cell_length_a                   14.2186(9)
_cell_length_b                   18.7376(12)
_cell_length_c                   19.3927(12)
_cell_angle_alpha                104.395(2)
_cell_angle_beta                 91.811(2)
_cell_angle_gamma                92.565(2)
_cell_volume                     4994.55
_exptl_crystal_colour            colorless
_exptl_crystal_description       block
_cell_formula_units_Z            2
loop_
_atom_site_label
_atom_site_type_symbol
_atom_site_fract_x
_atom_site_fract_y
_atom_site_fract_z
C69 C 0.6294(6) 0.8232(4) 0.1725(5)
C70 C 0.5749(7) 0.8748(5) 0.1518(4)
H53 H 0.5693 0.8754 0.1030
C71 C 0.5288(6) 0.9254(4) 0.2026(6)
H54 H 0.4916 0.9607 0.1884
C72 C 0.5371(6) 0.9246(5) 0.2739(5)
H55 H 0.5056 0.9592 0.3086
C73 C 0.5915(7) 0.8730(6) 0.2946(4)
H56 H 0.5972 0.8724 0.3434
C74 C 0.6377(6) 0.8223(5) 0.2439(6)
C75 C 0.7065(6) 0.7631(5) 0.2472(6)
C76 C 0.7257(7) 0.7600(5) 0.3171(5)
H57 H 0.6964 0.7923 0.3551
C77 C 0.7876(7) 0.7097(6) 0.3314(4)
H58 H 0.8008 0.7076 0.3792
C78 C 0.8304(6) 0.6624(5) 0.2758(6)
H59 H 0.8728 0.6280 0.2855
C79 C 0.8112(7) 0.6655(5) 0.2059(5)
H60 H 0.8405 0.6332 0.1679
C80 C 0.7493(7) 0.7159(6) 0.1916(4)
C81 C 0.7185(11) 0.7346(9) 0.1276(7)
H61 H 0.7451 0.7035 0.0874
C82 C 0.6579(8) 0.7874(6) 0.1048(7)
H62 H 0.6431 0.7946 0.0590
O1 O 0.6774(3) 0.47269(19) -0.01915(17)
O2 O 0.1952(2) 0.96589(16) 0.24016(17)
O3 O 0.5958(2) 1.20064(15) 0.31809(18)
O4 O 1.0776(2) 0.70539(18) 0.05610(18)
O5 O 0.5327(3) 0.58961(16) 0.60108(16)
O6 O 0.6165(3) 0.58740(18) 0.73659(18)
O7 O 0.7412(7) 0.6604(5) 0.8553(4)
O8 O 0.8614(6) 0.7548(6) 0.8940(5)
O9 O 1.0091(3) 0.8151(2) 0.80731(19)
O10 O 1.0218(2) 0.88517(16) 0.69228(15)
N1 N 0.3294(2) 1.04361(17) 0.26370(18)
N2 N 0.4628(2) 1.12096(17) 0.28942(18)
N3 N 0.8124(3) 0.5509(2) 0.00368(18)
N4 N 0.9438(3) 0.6274(2) 0.02933(19)
N5 N 0.9500(2) 0.87230(17) 0.36405(18)
N6 N 0.8504(2) 0.96684(17) 0.41572(17)
N7 N 0.8619(2) 0.93232(17) 0.29102(17)
N8 N 0.5332(3) 0.62787(18) 0.28527(18)
N9 N 0.4505(3) 0.69119(18) 0.21277(18)
N10 N 0.4291(3) 0.72091(18) 0.33699(18)
C1 C 0.2388(3) 1.0347(2) 0.2471(2)
C2 C 0.1803(3) 1.0881(2) 0.2337(2)
H1 H 0.1151 1.0771 0.2212
C3 C 0.2202(3) 1.1562(2) 0.2391(2)
H2 H 0.1827 1.1940 0.2305
C4 C 0.3163(3) 1.1714(2) 0.2571(2)
C5 C 0.3647(3) 1.2397(2) 0.2668(2)
H3 H 0.3316 1.2807 0.2607
C6 C 0.4567(3) 1.2485(2) 0.2844(2)
H4 H 0.4909 1.2940 0.2879
C7 C 0.5004(3) 1.1875(2) 0.2976(2)
C8 C 0.3696(3) 1.1113(2) 0.2689(2)
C9 C 0.7666(4) 0.4918(3) -0.0361(2)
C10 C 0.8035(4) 0.4431(3) -0.0973(2)
H5 H 0.7684 0.4003 -0.1243
C11 C 0.8891(4) 0.4613(3) -0.1138(2)
H6 H 0.9159 0.4316 -0.1547
C12 C 0.9403(4) 0.5217(3) -0.0737(2)
C13 C 1.0376(4) 0.5472(3) -0.0875(2)
H7 H 1.0696 0.5202 -0.1271
C14 C 1.0791(4) 0.6072(3) -0.0447(2)
H8 H 1.1409 0.6240 -0.0527
C15 C 1.0283(4) 0.6460(3) 0.0137(2)
C16 C 0.8981(4) 0.5667(2) -0.0140(2)
C17 C 0.8290(3) 0.9729(2) 0.3502(2)
C18 C 0.9108(3) 0.9171(2) 0.4214(2)
C19 C 0.9211(3) 0.8821(2) 0.2997(2)
C20 C 0.6491(3) 1.1398(2) 0.3261(2)
C21 C 0.6798(3) 1.1400(2) 0.3949(2)
H9 H 0.6611 1.1757 0.4353
C22 C 0.7396(3) 1.0848(2) 0.4012(2)
H10 H 0.7643 1.0839 0.4471
C23 C 0.7636(3) 1.0317(2) 0.3429(2)
C24 C 0.7290(3) 1.0337(2) 0.2749(2)
H11 H 0.7458 0.9974 0.2341
C25 C 0.6711(3) 1.0877(2) 0.2672(2)
H12 H 0.6467 1.0889 0.2213
C26 C 0.9396(3) 0.9077(2) 0.4922(2)
C27 C 0.9135(3) 0.9548(2) 0.5542(2)
H13 H 0.8750 0.9941 0.5510
C28 C 0.9405(3) 0.9475(2) 0.6200(2)
H14 H 0.9211 0.9808 0.6619
C29 C 0.9982(3) 0.8891(2) 0.6241(2)
C30 C 1.0222(3) 0.8398(3) 0.5637(2)
H15 H 1.0591 0.7995 0.5666
C31 C 0.9920(4) 0.8490(2) 0.4983(2)
H16 H 1.0076 0.8140 0.4563
C32 C 0.9612(3) 0.8351(2) 0.2361(2)
C33 C 1.0381(3) 0.7946(2) 0.2416(2)
H17 H 1.0655 0.7962 0.2873
C34 C 1.0762(3) 0.7515(2) 0.1812(2)
H18 H 1.1307 0.7251 0.1850
C35 C 1.0341(3) 0.7478(2) 0.1165(3)
C36 C 0.9551(4) 0.7854(3) 0.1095(3)
H19 H 0.9250 0.7800 0.0639
C37 C 0.9198(4) 0.8310(3) 0.1690(2)
H20 H 0.8674 0.8594 0.1644
C38 C 0.4134(3) 0.7314(2) 0.2723(2)
C39 C 0.4877(3) 0.6674(2) 0.3402(2)
C40 C 0.5101(3) 0.6415(2) 0.2223(2)
C41 C 0.2525(3) 0.9073(2) 0.2484(2)
C42 C 0.2692(4) 0.8985(2) 0.3155(3)
H21 H 0.2470 0.9321 0.3561
C43 C 0.3192(3) 0.8392(2) 0.3223(2)
H22 H 0.3308 0.8313 0.3683
C44 C 0.3527(3) 0.7910(2) 0.2636(2)
C45 C 0.3351(3) 0.8031(2) 0.1968(2)
H23 H 0.3583 0.7711 0.1557
C46 C 0.2833(3) 0.8623(2) 0.1905(3)
H24 H 0.2699 0.8706 0.1448
C47 C 0.5539(3) 0.5960(2) 0.1592(2)
C48 C 0.6163(3) 0.5431(3) 0.1652(2)
H25 H 0.6297 0.5336 0.2103
C49 C 0.6590(4) 0.5039(3) 0.1052(2)
H26 H 0.7019 0.4676 0.1095
C50 C 0.6403(4) 0.5167(3) 0.0407(2)
C51 C 0.5805(5) 0.5697(3) 0.0343(3)
H27 H 0.5710 0.5805 -0.0107
C52 C 0.5341(4) 0.6075(3) 0.0912(3)
H28 H 0.4887 0.6414 0.0852
C53 C 0.5042(4) 0.6494(2) 0.4103(2)
C54 C 0.4476(4) 0.6745(3) 0.4654(3)
H29 H 0.3988 0.7059 0.4597
C55 C 0.4594(4) 0.6553(3) 0.5295(3)
H30 H 0.4196 0.6741 0.5675
C56 C 0.5282(4) 0.6095(2) 0.5378(2)
C57 C 0.5924(4) 0.5869(3) 0.4820(3)
H31 H 0.6445 0.5589 0.4886
C58 C 0.5778(4) 0.6058(3) 0.4199(3)
H32 H 0.6186 0.5891 0.3820
C59 C 1.0770(4) 0.8247(3) 0.6994(2)
H33 H 1.1376 0.8265 0.6759
H34 H 1.0426 0.7771 0.6771
C60 C 1.0944(4) 0.8325(3) 0.7780(2)
H35 H 1.1430 0.7986 0.7857
H36 H 1.1174 0.8836 0.8017
C61 C 1.0195(6) 0.8149(5) 0.8792(4)
H37 H 1.0574 0.8599 0.9046
H38 H 1.0555 0.7719 0.8829
C62 C 0.9288(6) 0.8120(6) 0.9166(4)
H39 H 0.9461 0.8140 0.9670
H40 H 0.8974 0.8581 0.9167
C63 C 0.6560(8) 0.6312(6) 0.8677(4)
H41 H 0.6128 0.6719 0.8819
H42 H 0.6640 0.6089 0.9086
C64 C 0.6109(7) 0.5751(4) 0.8075(3)
H43 H 0.6390 0.5275 0.8067
H44 H 0.5435 0.5694 0.8173
C65 C 0.5891(4) 0.5243(2) 0.6819(2)
H45 H 0.5217 0.5103 0.6849
H46 H 0.6268 0.4824 0.6863
C66 C 0.6057(4) 0.5429(3) 0.6124(2)
H47 H 0.6683 0.5687 0.6140
H48 H 0.6034 0.4973 0.5732
C67 C 0.8779(10) 0.6932(6) 0.8403(7)
H49 H 0.9393 0.6757 0.8529
H50 H 0.8872 0.7107 0.7967
C68 C 0.8082(8) 0.6234(8) 0.8182(9)
H51 H 0.7927 0.6075 0.7663
H52 H 0.8285 0.5814 0.8364
loop_
_geom_bond_atom_site_label_1
_geom_bond_atom_site_label_2
_geom_bond_site_symmetry_1
_geom_bond_site_symmetry_2
O1 C9 1_555 1_555
O2 C1 1_555 1_555
O3 C7 1_555 1_555
O4 C15 1_555 1_555
O5 C56 1_555 1_555
O6 C64 1_555 1_555
O7 C63 1_555 1_555
O8 C62 1_555 1_555
O9 C60 1_555 1_555
O10 C29 1_555 1_555
N1 C1 1_555 1_555
N2 C7 1_555 1_555
N3 C9 1_555 1_555
N4 C15 1_555 1_555
N5 C18 1_555 1_555
N6 C17 1_555 1_555
N7 C17 1_555 1_555
N8 C39 1_555 1_555
N9 C38 1_555 1_555
N10 C38 1_555 1_555
C1 C2 1_555 1_555
C2 H1 1_555 1_555
C3 C2 1_555 1_555
H2 C3 1_555 1_555
C4 C3 1_555 1_555
C5 C4 1_555 1_555
H3 C5 1_555 1_555
C6 C5 1_555 1_555
H4 C6 1_555 1_555
C7 C6 1_555 1_555
C8 N1 1_555 1_555
C9 C10 1_555 1_555
C10 H5 1_555 1_555
C11 C10 1_555 1_555
H6 C11 1_555 1_555
C12 C11 1_555 1_555
C13 C12 1_555 1_555
H7 C13 1_555 1_555
C14 C13 1_555 1_555
H8 C14 1_555 1_555
C15 C14 1_555 1_555
C16 N3 1_555 1_555
C17 C23 1_555 1_555
C18 N6 1_555 1_555
C19 N5 1_555 1_555
C20 O3 1_555 1_555
C21 C20 1_555 1_555
H9 C21 1_555 1_555
C22 C21 1_555 1_555
H10 C22 1_555 1_555
C23 C22 1_555 1_555
C24 C23 1_555 1_555
H11 C24 1_555 1_555
C25 C20 1_555 1_555
H12 C25 1_555 1_555
C26 C18 1_555 1_555
C27 C26 1_555 1_555
H13 C27 1_555 1_555
C28 C27 1_555 1_555
H14 C28 1_555 1_555
C29 C28 1_555 1_555
C30 C29 1_555 1_555
H15 C30 1_555 1_555
C31 C26 1_555 1_555
H16 C31 1_555 1_555
C32 C19 1_555 1_555
C33 C32 1_555 1_555
H17 C33 1_555 1_555
C34 C33 1_555 1_555
H18 C34 1_555 1_555
C35 O4 1_555 1_555
C36 C35 1_555 1_555
H19 C36 1_555 1_555
C37 C32 1_555 1_555
H20 C37 1_555 1_555
C38 C44 1_555 1_555
C39 N10 1_555 1_555
C40 N8 1_555 1_555
C41 O2 1_555 1_555
C42 C41 1_555 1_555
H21 C42 1_555 1_555
C43 C42 1_555 1_555
H22 C43 1_555 1_555
C44 C43 1_555 1_555
C45 C44 1_555 1_555
H23 C45 1_555 1_555
C46 C41 1_555 1_555
H24 C46 1_555 1_555
C47 C40 1_555 1_555
C48 C47 1_555 1_555
H25 C48 1_555 1_555
C49 C48 1_555 1_555
H26 C49 1_555 1_555
C50 O1 1_555 1_555
C51 C50 1_555 1_555
H27 C51 1_555 1_555
C52 C47 1_555 1_555
H28 C52 1_555 1_555
C53 C39 1_555 1_555
C54 C53 1_555 1_555
H29 C54 1_555 1_555
C55 C54 1_555 1_555
H30 C55 1_555 1_555
C56 C55 1_555 1_555
C57 C56 1_555 1_555
H31 C57 1_555 1_555
C58 C53 1_555 1_555
H32 C58 1_555 1_555
C59 O10 1_555 1_555
H33 C59 1_555 1_555
H34 C59 1_555 1_555
C60 C59 1_555 1_555
H35 C60 1_555 1_555
H36 C60 1_555 1_555
C61 O9 1_555 1_555
H37 C61 1_555 1_555
H38 C61 1_555 1_555
C62 C61 1_555 1_555
H39 C62 1_555 1_555
H40 C62 1_555 1_555
C63 H41 1_555 1_555
H42 C63 1_555 1_555
C64 C63 1_555 1_555
H43 C64 1_555 1_555
H44 C64 1_555 1_555
C65 O6 1_555 1_555
H45 C65 1_555 1_555
H46 C65 1_555 1_555
C66 O5 1_555 1_555
H47 C66 1_555 1_555
H48 C66 1_555 1_555
C67 O8 1_555 1_555
H49 C67 1_555 1_555
H50 C67 1_555 1_555
C68 O7 1_555 1_555
H51 C68 1_555 1_555
H52 C68 1_555 1_555
C69 C70 1_555 1_555
C70 H53 1_555 1_555
C71 C70 1_555 1_555
H54 C71 1_555 1_555
C72 C71 1_555 1_555
H55 C72 1_555 1_555
C73 C72 1_555 1_555
H56 C73 1_555 1_555
C74 C69 1_555 1_555
C75 C74 1_555 1_555
C76 C75 1_555 1_555
H57 C76 1_555 1_555
C77 C76 1_555 1_555
H58 C77 1_555 1_555
C78 C77 1_555 1_555
H59 C78 1_555 1_555
C79 C78 1_555 1_555
H60 C79 1_555 1_555
C80 C75 1_555 1_555
C81 C80 1_555 1_555
H61 C81 1_555 1_555
C82 C69 1_555 1_555
H62 C82 1_555 1_555
N2 C8 1_555 1_555
N4 C16 1_555 1_555
N7 C19 1_555 1_555
N9 C40 1_555 1_555
C4 C8 1_555 1_555
C12 C16 1_555 1_555
C24 C25 1_555 1_555
C30 C31 1_555 1_555
C34 C35 1_555 1_555
C36 C37 1_555 1_555
C45 C46 1_555 1_555
C49 C50 1_555 1_555
C51 C52 1_555 1_555
C57 C58 1_555 1_555
C65 C66 1_555 1_555
C67 C68 1_555 1_555
C73 C74 1_555 1_555
C79 C80 1_555 1_555
C81 C82 1_555 1_555

#END
