
#######################################################################
#
#                 Cambridge Crystallographic Data Centre
#                                CCDC 
#
#######################################################################
#
# If this CIF has been generated from an entry in the Cambridge 
# Structural Database, then it will include bibliographic, chemical, 
# crystal, experimental, refinement or atomic coordinate data resulting 
# from the CCDC's data processing and validation procedures.
#
#######################################################################

data_USEPIT
_chemical_formula_moiety         'C27 H38 Br1 N1 O3'
_chemical_name_systematic        
't-butyl \b-(3-bromophenyl)-3,5-di-t-butyltyrosinate'
_symmetry_cell_setting           orthorhombic
_symmetry_space_group_name_H-M   'P 21 21 21'
_symmetry_Int_Tables_number      19
_space_group_name_Hall           'P 2ac 2ab'
loop_
_symmetry_equiv_pos_site_id
_symmetry_equiv_pos_as_xyz
1 x,y,z
2 1/2-x,-y,1/2+z
3 1/2+x,1/2-y,-z
4 -x,1/2+y,1/2-z
_cell_length_a                   9.5696(7)
_cell_length_b                   10.6323(6)
_cell_length_c                   26.1335(14)
_cell_angle_alpha                90
_cell_angle_beta                 90
_cell_angle_gamma                90
_cell_volume                     2659
_exptl_crystal_colour            colorless
_exptl_crystal_description       block
_chemical_melting_point          '455.15-457.15 K'
_cell_formula_units_Z            4
_exptl_crystal_recrystallization_method 'petroleum ether / ethyl acetate'
loop_
_atom_site_label
_atom_site_type_symbol
_atom_site_fract_x
_atom_site_fract_y
_atom_site_fract_z
Br1 Br -0.17928(7) -0.07309(5) -0.189437(16)
O1 O -0.4488(2) 0.2119(2) -0.48835(9)
O2 O 0.3030(3) 0.1004(3) -0.32466(12)
O3 O 0.3253(2) -0.0893(2) -0.36111(8)
N1 N 0.1965(3) 0.1655(3) -0.42624(11)
H1 H 0.280(2) 0.158(5) -0.4382(18)
H2 H 0.208(5) 0.224(3) -0.4036(12)
C1 C -0.0985(3) 0.1073(2) -0.40417(10)
C2 C -0.1586(3) 0.0253(2) -0.43889(10)
H3 H -0.1187 -0.0538 -0.4432
C3 C -0.2756(3) 0.0557(2) -0.46756(10)
C4 C -0.3305(3) 0.1786(2) -0.46075(10)
C5 C -0.2754(3) 0.2635(2) -0.42550(11)
C6 C -0.1576(3) 0.2248(2) -0.39798(10)
H4 H -0.1177 0.2802 -0.3747
C7 C -0.3436(3) -0.0406(3) -0.50336(11)
C8 C -0.4937(4) -0.0661(4) -0.48661(16)
H5 H -0.4939 -0.0983 -0.4523
H6 H -0.5353 -0.1267 -0.5092
H7 H -0.5463 0.0107 -0.4878
C9 C -0.3436(4) 0.0034(3) -0.55894(12)
H8 H -0.4043 0.0748 -0.5624
H9 H -0.3762 -0.0634 -0.5806
H10 H -0.2505 0.0266 -0.5688
C10 C -0.2639(5) -0.1669(3) -0.50214(17)
H11 H -0.1689 -0.1536 -0.5126
H12 H -0.3079 -0.2254 -0.5250
H13 H -0.2653 -0.2003 -0.4680
C11 C -0.3458(3) 0.3902(3) -0.41173(12)
C12 C -0.4847(4) 0.3613(4) -0.38588(17)
H14 H -0.5485 0.3272 -0.4106
H15 H -0.5230 0.4373 -0.3718
H16 H -0.4702 0.3013 -0.3590
C13 C -0.3695(4) 0.4754(3) -0.45815(15)
H17 H -0.2825 0.4880 -0.4757
H18 H -0.4054 0.5551 -0.4469
H19 H -0.4354 0.4366 -0.4809
C14 C -0.2576(4) 0.4667(3) -0.37389(16)
H20 H -0.2458 0.4196 -0.3428
H21 H -0.3040 0.5446 -0.3665
H22 H -0.1677 0.4837 -0.3887
C15 C 0.0227(3) 0.0704(3) -0.36947(10)
H23 H 0.0374 0.1417 -0.3463
C16 C -0.0178(3) -0.0406(3) -0.33562(11)
C17 C -0.0689(3) -0.0156(3) -0.28692(12)
H24 H -0.0738 0.0670 -0.2754
C18 C -0.1122(3) -0.1120(3) -0.25572(12)
C19 C -0.1076(4) -0.2359(3) -0.27113(14)
H25 H -0.1390 -0.3003 -0.2499
C20 C -0.0548(4) -0.2609(3) -0.31914(14)
H26 H -0.0495 -0.3438 -0.3303
C21 C -0.0095(4) -0.1656(3) -0.35109(13)
H27 H 0.0268 -0.1851 -0.3831
C22 C 0.1615(3) 0.0508(3) -0.39772(11)
H28 H 0.1541 -0.0208 -0.4212
C23 C 0.2732(3) 0.0241(3) -0.35635(14)
C24 C 0.4289(5) -0.1354(5) -0.32345(16)
C25 C 0.5579(5) -0.0562(7) -0.3263(2)
H29 H 0.5844 -0.0453 -0.3615
H30 H 0.6324 -0.0970 -0.3081
H31 H 0.5398 0.0245 -0.3112
C26 C 0.4564(9) -0.2682(6) -0.3426(3)
H32 H 0.3714 -0.3161 -0.3412
H33 H 0.5259 -0.3074 -0.3215
H34 H 0.4891 -0.2648 -0.3773
C27 C 0.3630(7) -0.1407(7) -0.27166(19)
H35 H 0.3486 -0.0567 -0.2592
H36 H 0.4232 -0.1854 -0.2486
H37 H 0.2747 -0.1832 -0.2739
H38 H -0.415(6) 0.261(5) -0.5111(17)
loop_
_geom_bond_atom_site_label_1
_geom_bond_atom_site_label_2
_geom_bond_site_symmetry_1
_geom_bond_site_symmetry_2
Br1 C18 1_555 1_555
O1 C4 1_555 1_555
O2 C23 1_555 1_555
O3 C23 1_555 1_555
N1 H1 1_555 1_555
H2 N1 1_555 1_555
C1 C2 1_555 1_555
C2 H3 1_555 1_555
C3 C2 1_555 1_555
C4 C3 1_555 1_555
C5 C4 1_555 1_555
C6 C1 1_555 1_555
H4 C6 1_555 1_555
C7 C3 1_555 1_555
C8 C7 1_555 1_555
H5 C8 1_555 1_555
H6 C8 1_555 1_555
H7 C8 1_555 1_555
C9 C7 1_555 1_555
H8 C9 1_555 1_555
H9 C9 1_555 1_555
H10 C9 1_555 1_555
C10 C7 1_555 1_555
H11 C10 1_555 1_555
H12 C10 1_555 1_555
H13 C10 1_555 1_555
C11 C5 1_555 1_555
C12 C11 1_555 1_555
H14 C12 1_555 1_555
H15 C12 1_555 1_555
H16 C12 1_555 1_555
C13 C11 1_555 1_555
H17 C13 1_555 1_555
H18 C13 1_555 1_555
H19 C13 1_555 1_555
C14 C11 1_555 1_555
H20 C14 1_555 1_555
H21 C14 1_555 1_555
H22 C14 1_555 1_555
C15 C1 1_555 1_555
H23 C15 1_555 1_555
C16 C15 1_555 1_555
C17 C16 1_555 1_555
H24 C17 1_555 1_555
C18 C17 1_555 1_555
C19 C18 1_555 1_555
H25 C19 1_555 1_555
C20 C19 1_555 1_555
H26 C20 1_555 1_555
C21 C16 1_555 1_555
H27 C21 1_555 1_555
C22 N1 1_555 1_555
H28 C22 1_555 1_555
C23 C22 1_555 1_555
C24 O3 1_555 1_555
C25 C24 1_555 1_555
H29 C25 1_555 1_555
H30 C25 1_555 1_555
H31 C25 1_555 1_555
C26 C24 1_555 1_555
H32 C26 1_555 1_555
H33 C26 1_555 1_555
H34 C26 1_555 1_555
C27 C24 1_555 1_555
H35 C27 1_555 1_555
H36 C27 1_555 1_555
H37 C27 1_555 1_555
H38 O1 1_555 1_555
C5 C6 1_555 1_555
C15 C22 1_555 1_555
C20 C21 1_555 1_555

#END
