
#######################################################################
#
#                 Cambridge Crystallographic Data Centre
#                                CCDC 
#
#######################################################################
#
# If this CIF has been generated from an entry in the Cambridge 
# Structural Database, then it will include bibliographic, chemical, 
# crystal, experimental, refinement or atomic coordinate data resulting 
# from the CCDC's data processing and validation procedures.
#
#######################################################################

data_USIMAL
_chemical_formula_moiety         'C25 H21 B1 F2 N4 O7 S1'
_chemical_name_systematic        
"2-(5,5-Difluoro-1,3,7,9-tetramethyl-5H-4\l^5^,5\l^5^-dipyrrolo[1,2-c:2',1'-f][1,3,2]diazaborinin-10-yl)phenyl 2,4-dinitrobenzenesulfonate"
_symmetry_cell_setting           triclinic
_symmetry_space_group_name_H-M   'P -1'
_symmetry_Int_Tables_number      2
_space_group_name_Hall           '-P 1'
loop_
_symmetry_equiv_pos_site_id
_symmetry_equiv_pos_as_xyz
1 x,y,z
2 -x,-y,-z
_cell_length_a                   8.9837(5)
_cell_length_b                   16.6227(10)
_cell_length_c                   17.0722(9)
_cell_angle_alpha                95.666(4)
_cell_angle_beta                 95.646(4)
_cell_angle_gamma                94.209(4)
_cell_volume                     2515.78
_exptl_crystal_colour            'dark red'
_exptl_crystal_description       plate
_cell_formula_units_Z            4
_chemical_properties_physical    light-sensitive
_exptl_crystal_recrystallization_method sublimation
loop_
_atom_site_label
_atom_site_type_symbol
_atom_site_fract_x
_atom_site_fract_y
_atom_site_fract_z
S1 S 0.92826(11) 0.16536(6) 0.30780(5)
O1 O 0.9162(3) 0.17137(14) 0.21634(13)
O2 O 1.0363(3) 0.22899(19) 0.34109(15)
O3 O 0.9468(3) 0.08385(17) 0.32193(15)
O4 O 0.7640(4) 0.40167(17) 0.35627(18)
O5 O 0.8428(4) 0.32812(17) 0.26139(16)
O6 O 0.2805(3) 0.17060(19) 0.46460(19)
O7 O 0.3283(3) 0.29888(19) 0.46155(18)
N1 N 0.4701(3) 0.27930(18) 0.15246(16)
N2 N 0.6770(3) 0.34488(17) 0.08932(16)
N3 N 0.7733(4) 0.33673(19) 0.31855(18)
N4 N 0.3555(4) 0.2281(2) 0.44725(18)
F1 F 0.5509(4) 0.41967(16) 0.18558(19)
F2 F 0.4246(3) 0.38171(19) 0.06563(19)
B1 B 0.5275(6) 0.3596(3) 0.1241(3)
C1 C 0.2433(5) 0.3326(3) 0.2062(3)
H1 H 0.2819 0.3816 0.1872
H2 H 0.2402 0.3416 0.2625
H3 H 0.1439 0.3170 0.1808
C2 C 0.3431(5) 0.2665(3) 0.1879(2)
C3 C 0.3280(5) 0.1859(3) 0.2033(2)
H4 H 0.2504 0.1621 0.2277
C4 C 0.4467(4) 0.1467(2) 0.1765(2)
C5 C 0.4648(5) 0.0579(2) 0.1813(2)
H5 H 0.5533 0.0435 0.1578
H6 H 0.3786 0.0263 0.1534
H7 H 0.4742 0.0473 0.2357
C6 C 0.5373(4) 0.2062(2) 0.14452(19)
C7 C 0.6741(4) 0.2028(2) 0.11077(18)
C8 C 0.7434(4) 0.2703(2) 0.08404(19)
C9 C 0.8813(5) 0.2833(2) 0.0497(2)
C10 C 0.9941(5) 0.2227(3) 0.0319(3)
H8 H 1.0759 0.2488 0.0092
H9 H 0.9465 0.1787 -0.0047
H10 H 1.0314 0.2022 0.0801
C11 C 0.8933(5) 0.3644(3) 0.0361(2)
H11 H 0.9720 0.3905 0.0143
C12 C 0.7670(5) 0.4005(2) 0.0608(2)
C13 C 0.7327(6) 0.4867(2) 0.0546(3)
H12 H 0.6399 0.4958 0.0761
H13 H 0.7240 0.4968 0.0000
H14 H 0.8121 0.5226 0.0836
C14 C 0.7442(4) 0.1252(2) 0.1030(2)
C15 C 0.8595(4) 0.1076(2) 0.1574(2)
C16 C 0.9292(5) 0.0364(2) 0.1492(2)
H15 H 1.0065 0.0263 0.1864
C17 C 0.8819(6) -0.0190(3) 0.0851(3)
H16 H 0.9266 -0.0676 0.0791
C18 C 0.7688(6) -0.0034(3) 0.0295(3)
H17 H 0.7388 -0.0409 -0.0143
C19 C 0.7005(5) 0.0674(2) 0.0388(2)
H18 H 0.6233 0.0769 0.0013
C20 C 0.7495(4) 0.1876(2) 0.33799(18)
C21 C 0.6962(4) 0.2645(2) 0.34448(18)
C22 C 0.5661(4) 0.2774(2) 0.37878(19)
H19 H 0.5297 0.3284 0.3825
C23 C 0.4915(4) 0.2135(2) 0.40717(19)
C24 C 0.5394(4) 0.1369(2) 0.4023(2)
H20 H 0.4862 0.0944 0.4217
C25 C 0.6694(4) 0.1254(2) 0.3677(2)
H21 H 0.7045 0.0740 0.3641
S2 S 0.92069(13) 0.39193(6) -0.18994(6)
O8 O 0.9156(3) 0.37512(14) -0.28273(13)
O9 O 0.9032(4) 0.47464(17) -0.16809(16)
O10 O 1.0497(3) 0.35576(19) -0.15952(16)
O11 O 0.8732(4) 0.1378(2) -0.1568(2)
O12 O 0.9212(4) 0.21358(18) -0.24876(17)
O13 O 0.2679(6) 0.2514(4) -0.0884(3)
O14 O 0.3917(7) 0.1550(5) -0.0647(5)
N5 N 0.4770(3) 0.19760(16) -0.35061(15)
N6 N 0.7090(3) 0.15699(16) -0.40446(15)
N7 N 0.8574(4) 0.1978(2) -0.1926(2)
N8 N 0.3787(6) 0.2178(4) -0.0872(3)
F3 F 0.4865(2) 0.06487(12) -0.42004(13)
F4 F 0.6117(3) 0.09204(13) -0.29793(12)
B2 B 0.5693(5) 0.1244(2) -0.3680(2)
C26 C 0.2558(5) 0.1173(3) -0.3102(3)
H22 H 0.3109 0.0723 -0.3266
H23 H 0.1595 0.1125 -0.3408
H24 H 0.2425 0.1171 -0.2551
C27 C 0.3402(4) 0.1942(2) -0.3227(2)
C28 C 0.3008(4) 0.2732(2) -0.3067(2)
H25 H 0.2125 0.2873 -0.2867
C29 C 0.4123(4) 0.3274(2) -0.3250(2)
C30 C 0.4086(5) 0.4178(2) -0.3159(2)
H26 H 0.3175 0.4318 -0.2949
H27 H 0.4126 0.4378 -0.3666
H28 H 0.4933 0.4418 -0.2805
C31 C 0.5252(4) 0.27920(19) -0.35334(18)
C32 C 0.6629(4) 0.29885(19) -0.38252(18)
C33 C 0.7504(4) 0.23861(19) -0.41033(18)
C34 C 0.8884(4) 0.2426(2) -0.44590(19)
C35 C 0.9791(5) 0.3151(2) -0.4675(2)
H29 H 1.0660 0.2978 -0.4908
H30 H 1.0101 0.3518 -0.4208
H31 H 0.9191 0.3421 -0.5049
C36 C 0.9246(4) 0.1643(2) -0.4593(2)
H32 H 1.0085 0.1482 -0.4825
C37 C 0.8159(4) 0.1123(2) -0.4328(2)
C38 C 0.8120(5) 0.0227(2) -0.4345(3)
H33 H 0.7245 0.0029 -0.4119
H34 H 0.9004 0.0084 -0.4045
H35 H 0.8085 -0.0011 -0.4883
C39 C 0.7178(4) 0.3851(2) -0.38509(19)
C40 C 0.8372(4) 0.4236(2) -0.3346(2)
C41 C 0.8928(5) 0.5019(2) -0.3387(2)
H36 H 0.9733 0.5257 -0.3035
C42 C 0.8262(5) 0.5451(3) -0.3964(3)
H37 H 0.8605 0.5988 -0.3995
C43 C 0.7104(5) 0.5086(2) -0.4486(2)
H38 H 0.6683 0.5370 -0.4883
C44 C 0.6546(4) 0.4294(2) -0.4430(2)
H39 H 0.5742 0.4057 -0.4783
C45 C 0.7581(4) 0.3353(2) -0.16779(19)
C46 C 0.7444(5) 0.2507(2) -0.1658(2)
C47 C 0.6223(5) 0.2131(3) -0.1395(2)
H40 H 0.6147 0.1574 -0.1369
C48 C 0.5105(6) 0.2593(4) -0.1169(2)
C49 C 0.5163(6) 0.3412(4) -0.1189(3)
H41 H 0.4376 0.3706 -0.1040
C50 C 0.6421(6) 0.3795(3) -0.1438(2)
H42 H 0.6493 0.4355 -0.1445
loop_
_geom_bond_atom_site_label_1
_geom_bond_atom_site_label_2
_geom_bond_site_symmetry_1
_geom_bond_site_symmetry_2
S1 O1 1_555 1_555
S2 O8 1_555 1_555
O1 C15 1_555 1_555
O2 S1 1_555 1_555
O3 S1 1_555 1_555
O4 N3 1_555 1_555
O5 N3 1_555 1_555
O6 N4 1_555 1_555
O7 N4 1_555 1_555
O8 C40 1_555 1_555
O9 S2 1_555 1_555
O10 S2 1_555 1_555
O11 N7 1_555 1_555
O12 N7 1_555 1_555
O13 N8 1_555 1_555
O14 N8 1_555 1_555
N1 B1 1_555 1_555
N2 B1 1_555 1_555
N3 C21 1_555 1_555
N4 C23 1_555 1_555
N5 B2 1_555 1_555
N6 B2 1_555 1_555
N7 C46 1_555 1_555
N8 C48 1_555 1_555
F1 B1 1_555 1_555
F2 B1 1_555 1_555
F3 B2 1_555 1_555
F4 B2 1_555 1_555
C1 H1 1_555 1_555
H2 C1 1_555 1_555
H3 C1 1_555 1_555
C2 N1 1_555 1_555
C3 C2 1_555 1_555
H4 C3 1_555 1_555
C4 C3 1_555 1_555
C5 C4 1_555 1_555
H5 C5 1_555 1_555
H6 C5 1_555 1_555
H7 C5 1_555 1_555
C6 N1 1_555 1_555
C7 C6 1_555 1_555
C8 N2 1_555 1_555
C9 C8 1_555 1_555
C10 C9 1_555 1_555
H8 C10 1_555 1_555
H9 C10 1_555 1_555
H10 C10 1_555 1_555
C11 C9 1_555 1_555
H11 C11 1_555 1_555
C12 N2 1_555 1_555
C13 C12 1_555 1_555
H12 C13 1_555 1_555
H13 C13 1_555 1_555
H14 C13 1_555 1_555
C14 C7 1_555 1_555
C15 C14 1_555 1_555
C16 C15 1_555 1_555
H15 C16 1_555 1_555
C17 C16 1_555 1_555
H16 C17 1_555 1_555
C18 C17 1_555 1_555
H17 C18 1_555 1_555
C19 C14 1_555 1_555
H18 C19 1_555 1_555
C20 S1 1_555 1_555
C21 C20 1_555 1_555
C22 C21 1_555 1_555
H19 C22 1_555 1_555
C23 C22 1_555 1_555
C24 C23 1_555 1_555
H20 C24 1_555 1_555
C25 C20 1_555 1_555
H21 C25 1_555 1_555
C26 H22 1_555 1_555
H23 C26 1_555 1_555
H24 C26 1_555 1_555
C27 N5 1_555 1_555
C28 C27 1_555 1_555
H25 C28 1_555 1_555
C29 C28 1_555 1_555
C30 C29 1_555 1_555
H26 C30 1_555 1_555
H27 C30 1_555 1_555
H28 C30 1_555 1_555
C31 N5 1_555 1_555
C32 C31 1_555 1_555
C33 N6 1_555 1_555
C34 C33 1_555 1_555
C35 C34 1_555 1_555
H29 C35 1_555 1_555
H30 C35 1_555 1_555
H31 C35 1_555 1_555
C36 C34 1_555 1_555
H32 C36 1_555 1_555
C37 N6 1_555 1_555
C38 C37 1_555 1_555
H33 C38 1_555 1_555
H34 C38 1_555 1_555
H35 C38 1_555 1_555
C39 C32 1_555 1_555
C40 C39 1_555 1_555
C41 C40 1_555 1_555
H36 C41 1_555 1_555
C42 C41 1_555 1_555
H37 C42 1_555 1_555
C43 C42 1_555 1_555
H38 C43 1_555 1_555
C44 C39 1_555 1_555
H39 C44 1_555 1_555
C45 S2 1_555 1_555
C46 C45 1_555 1_555
C47 C46 1_555 1_555
H40 C47 1_555 1_555
C48 C47 1_555 1_555
C49 C48 1_555 1_555
H41 C49 1_555 1_555
C50 C45 1_555 1_555
H42 C50 1_555 1_555
C1 C2 1_555 1_555
C4 C6 1_555 1_555
C7 C8 1_555 1_555
C11 C12 1_555 1_555
C18 C19 1_555 1_555
C24 C25 1_555 1_555
C26 C27 1_555 1_555
C29 C31 1_555 1_555
C32 C33 1_555 1_555
C36 C37 1_555 1_555
C43 C44 1_555 1_555
C49 C50 1_555 1_555

#END
