
#######################################################################
#
#                 Cambridge Crystallographic Data Centre
#                                CCDC 
#
#######################################################################
#
# If this CIF has been generated from an entry in the Cambridge 
# Structural Database, then it will include bibliographic, chemical, 
# crystal, experimental, refinement or atomic coordinate data resulting 
# from the CCDC's data processing and validation procedures.
#
#######################################################################

data_USIZAY
_chemical_formula_moiety         'C16 H14 O5'
_chemical_name_systematic        
(E)-2-(1-hydroxy-3-phenylprop-2-en-1-ylidene)-4,5-dimethoxycyclopent-4-ene-1,3-dione
_symmetry_cell_setting           monoclinic
_symmetry_space_group_name_H-M   'P 21/n'
_symmetry_Int_Tables_number      14
_space_group_name_Hall           '-P 2yn'
loop_
_symmetry_equiv_pos_site_id
_symmetry_equiv_pos_as_xyz
1 x,y,z
2 1/2-x,1/2+y,1/2-z
3 -x,-y,-z
4 1/2+x,1/2-y,1/2+z
_cell_length_a                   7.3195(5)
_cell_length_b                   9.8635(7)
_cell_length_c                   18.6724(11)
_cell_angle_alpha                90
_cell_angle_beta                 96.586(6)
_cell_angle_gamma                90
_cell_volume                     1339.17
_exptl_crystal_colour            yellow
_exptl_crystal_description       prism
_cell_formula_units_Z            4
loop_
_atom_site_label
_atom_site_type_symbol
_atom_site_fract_x
_atom_site_fract_y
_atom_site_fract_z
O1 O 0.1902(5) 0.2729(4) 0.58692(19)
H1 H 0.1994 0.1894 0.5793
O2 O 0.2649(5) 0.0774(4) 0.50156(19)
O3 O 0.3802(5) 0.0354(4) 0.3530(2)
O4 O 0.4003(4) 0.3167(3) 0.29148(16)
O5 O 0.3180(4) 0.5067(4) 0.39499(17)
C1 C 0.1608(5) 0.7931(7) 0.6029(2)
H2 H 0.1943 0.7828 0.5555
C2 C 0.1349(12) 0.9219(5) 0.6302(4)
H3 H 0.1507 0.9996 0.6015
C3 C 0.0859(18) 0.9370(5) 0.6995(5)
H4 H 0.0682 1.0250 0.7182
C4 C 0.0629(17) 0.8233(7) 0.7415(3)
H5 H 0.0294 0.8336 0.7889
C5 C 0.0888(9) 0.6945(6) 0.7142(3)
H6 H 0.0730 0.6168 0.7429
C6 C 0.1377(5) 0.6794(5) 0.6449(3)
C7 C 0.1602(6) 0.5419(5) 0.6182(2)
H7 H 0.1380 0.4705 0.6503
C8 C 0.2094(11) 0.5036(8) 0.5527(4)
H8 H 0.2331 0.5701 0.5182
C9 C 0.2249(6) 0.3619(5) 0.5364(2)
C10 C 0.2768(5) 0.3111(4) 0.47099(16)
C11 C 0.2933(6) 0.1698(3) 0.45873(17)
C12 C 0.3440(6) 0.1517(3) 0.38819(19)
C13 C 0.3588(5) 0.2819(4) 0.35685(14)
C14 C 0.3172(5) 0.3804(2) 0.4080(2)
C15 C 0.3509(17) -0.0907(11) 0.3878(5)
H9 H 0.3823 -0.1658 0.3571
H10 H 0.2215 -0.0980 0.3962
H11 H 0.4289 -0.0947 0.4341
C16 C 0.4447(17) 0.2108(10) 0.2420(6)
H12 H 0.4725 0.2520 0.1968
H13 H 0.3396 0.1494 0.2323
H14 H 0.5519 0.1597 0.2637
O6? O 0.3120(4) 0.6031(3) 0.42276(16)
H15? H 0.3434 0.5848 0.3820
O7? O 0.3866(4) 0.4149(3) 0.33121(15)
O8? O 0.3939(4) 0.1087(4) 0.31727(17)
O9? O 0.2841(5) 0.0061(3) 0.46004(18)
O10? O 0.2174(5) 0.2272(3) 0.54512(19)
C17? C 0.1246(5) 0.6426(4) 0.6802(3)
H16? H 0.1350 0.5471 0.6754
C18? C 0.0771(10) 0.6978(7) 0.7440(3)
H17? H 0.0550 0.6401 0.7828
C19? C 0.0618(17) 0.8376(7) 0.7510(4)
H18? H 0.0293 0.8753 0.7946
C20? C 0.0942(18) 0.9221(4) 0.6942(5)
H19? H 0.0838 1.0175 0.6990
C21? C 0.1418(11) 0.8668(5) 0.6304(3)
H20? H 0.1639 0.9246 0.5916
C22? C 0.1570(5) 0.7271(5) 0.6234(2)
C23? C 0.2082(5) 0.6752(4) 0.5545(2)
H21? H 0.2306 0.7410 0.5193
C24? C 0.2262(12) 0.5464(7) 0.5363(5)
H22? H 0.2028 0.4789 0.5704
C25? C 0.2790(5) 0.5022(4) 0.4682(2)
C26? C 0.2968(5) 0.3663(3) 0.4479(2)
C27? C 0.3503(5) 0.3338(3) 0.37918(18)
C28? C 0.3537(6) 0.1904(3) 0.37286(15)
C29? C 0.3024(6) 0.1342(2) 0.43766(18)
C30? C 0.2673(5) 0.2429(4) 0.48403(13)
C31? C 0.4107(15) 0.1709(10) 0.2489(7)
H23? H 0.4407 0.1017 0.2145
H24? H 0.5088 0.2391 0.2546
H25? H 0.2942 0.2146 0.2309
C32? C 0.3136(18) -0.1051(11) 0.4120(5)
H26? H 0.2954 -0.1914 0.4362
H27? H 0.4394 -0.1009 0.3989
H28? H 0.2260 -0.0983 0.3683
loop_
_geom_bond_atom_site_label_1
_geom_bond_atom_site_label_2
_geom_bond_site_symmetry_1
_geom_bond_site_symmetry_2
O1 H1 1_555 1_555
O2 C11 1_555 1_555
O3 C12 1_555 1_555
O4 C13 1_555 1_555
O5 C14 1_555 1_555
C1 H2 1_555 1_555
C2 C1 1_555 1_555
H3 C2 1_555 1_555
C3 C2 1_555 1_555
H4 C3 1_555 1_555
C4 C3 1_555 1_555
H5 C4 1_555 1_555
C5 C4 1_555 1_555
H6 C5 1_555 1_555
C6 C1 1_555 1_555
C7 C6 1_555 1_555
H7 C7 1_555 1_555
C8 C7 1_555 1_555
H8 C8 1_555 1_555
C9 O1 1_555 1_555
C10 C9 1_555 1_555
C11 C10 1_555 1_555
C12 C11 1_555 1_555
C13 C12 1_555 1_555
C14 C10 1_555 1_555
C15 O3 1_555 1_555
H9 C15 1_555 1_555
H10 C15 1_555 1_555
H11 C15 1_555 1_555
C16 O4 1_555 1_555
H12 C16 1_555 1_555
H13 C16 1_555 1_555
H14 C16 1_555 1_555
C5 C6 1_555 1_555
C8 C9 1_555 1_555
C13 C14 1_555 1_555

#END
