
#######################################################################
#
#                 Cambridge Crystallographic Data Centre
#                                CCDC 
#
#######################################################################
#
# If this CIF has been generated from an entry in the Cambridge 
# Structural Database, then it will include bibliographic, chemical, 
# crystal, experimental, refinement or atomic coordinate data resulting 
# from the CCDC's data processing and validation procedures.
#
#######################################################################

data_USOBOV02
_chemical_formula_moiety         'C12 H6 Cl1 F4 N1 O2'
_chemical_name_systematic        
'7-chloro-2,4-bis(difluoromethyl)quinoline-8-carboxylic acid'
_symmetry_cell_setting           monoclinic
_symmetry_space_group_name_H-M   'P 21/c'
_symmetry_Int_Tables_number      14
_space_group_name_Hall           '-P 2ybc'
loop_
_symmetry_equiv_pos_site_id
_symmetry_equiv_pos_as_xyz
1 x,y,z
2 -x,1/2+y,1/2-z
3 -x,-y,-z
4 x,1/2-y,1/2+z
_cell_length_a                   10.3518(5)
_cell_length_b                   15.1942(7)
_cell_length_c                   7.8687(3)
_cell_angle_alpha                90
_cell_angle_beta                 110.924(3)
_cell_angle_gamma                90
_cell_volume                     1156.03
_exptl_crystal_colour            colorless
_exptl_crystal_description       block
_cell_formula_units_Z            4
loop_
_atom_site_label
_atom_site_type_symbol
_atom_site_fract_x
_atom_site_fract_y
_atom_site_fract_z
C1 C 0.5658(3) 0.70087(15) 0.4717(3)
C2 C 0.4310(3) 0.67425(16) 0.3608(3)
C3 C 0.3344(3) 0.73761(17) 0.2759(3)
C4 C 0.3642(3) 0.82767(17) 0.3002(4)
H1 H 0.2952 0.8699 0.2407
C5 C 0.4930(3) 0.85448(16) 0.4098(3)
H2 H 0.5124 0.9156 0.4279
C6 C 0.5979(3) 0.79243(15) 0.4969(3)
C7 C 0.7350(3) 0.81581(16) 0.6088(3)
C8 C 0.8323(3) 0.75109(16) 0.6795(3)
H3 H 0.9248 0.7657 0.7525
C9 C 0.7913(3) 0.66228(15) 0.6410(3)
C10 C 0.3923(3) 0.57810(16) 0.3324(3)
C11 C 0.7761(3) 0.91162(16) 0.6437(4)
H4 H 0.7619 0.9426 0.5263
C12 C 0.8978(3) 0.59028(17) 0.7091(4)
H5 H 0.8613 0.5332 0.6472
N1 N 0.6643(2) 0.63691(12) 0.5458(3)
O1 O 0.3817(2) 0.53814(12) 0.1964(2)
O2 O 0.3721(2) 0.54483(12) 0.4760(2)
F1 F 0.6987(2) 0.95090(10) 0.7324(2)
F2 F 0.90978(19) 0.91843(10) 0.7561(2)
F3 F 1.0148(2) 0.61318(12) 0.6828(3)
F4 F 0.9342(2) 0.58252(14) 0.8919(2)
Cl1 Cl 0.17101(7) 0.70511(4) 0.13470(10)
H6 H 0.360(6) 0.490(3) 0.464(7)
loop_
_geom_bond_atom_site_label_1
_geom_bond_atom_site_label_2
_geom_bond_site_symmetry_1
_geom_bond_site_symmetry_2
C1 C2 1_555 1_555
C2 C3 1_555 1_555
C3 C4 1_555 1_555
C4 H1 1_555 1_555
C5 C4 1_555 1_555
H2 C5 1_555 1_555
C6 C1 1_555 1_555
C7 C6 1_555 1_555
C8 C7 1_555 1_555
H3 C8 1_555 1_555
C9 C8 1_555 1_555
C10 C2 1_555 1_555
C11 C7 1_555 1_555
H4 C11 1_555 1_555
C12 C9 1_555 1_555
H5 C12 1_555 1_555
N1 C1 1_555 1_555
O1 C10 1_555 1_555
O2 C10 1_555 1_555
F1 C11 1_555 1_555
F2 C11 1_555 1_555
F3 C12 1_555 1_555
F4 C12 1_555 1_555
Cl1 C3 1_555 1_555
H6 O2 1_555 1_555
C5 C6 1_555 1_555
C9 N1 1_555 1_555

#END
