
#######################################################################
#
#                 Cambridge Crystallographic Data Centre
#                                CCDC 
#
#######################################################################
#
# If this CIF has been generated from an entry in the Cambridge 
# Structural Database, then it will include bibliographic, chemical, 
# crystal, experimental, refinement or atomic coordinate data resulting 
# from the CCDC's data processing and validation procedures.
#
#######################################################################

data_USOGUF
_chemical_name_common            
'5-Benzylhexahydrofuro[3,2-c]pyridine-2,3,3a,7(4H)-tetrayl tetraacetate'
_chemical_formula_moiety         'C22 H27 N1 O9'
_chemical_name_systematic        
N-Benzyl-6-deoxy-3,6-iminomethylene-1,2,3,5-O-tetraacetyl-\a-D-1(S)-epiallofuranose
_symmetry_cell_setting           monoclinic
_symmetry_space_group_name_H-M   'P 21'
_symmetry_Int_Tables_number      4
_space_group_name_Hall           'P 2yb'
loop_
_symmetry_equiv_pos_site_id
_symmetry_equiv_pos_as_xyz
1 x,y,z
2 -x,1/2+y,-z
_cell_length_a                   8.1768(16)
_cell_length_b                   9.0613(18)
_cell_length_c                   15.591(3)
_cell_angle_alpha                90
_cell_angle_beta                 94.56(3)
_cell_angle_gamma                90
_cell_volume                     1151.52
_exptl_crystal_colour            colorless
_exptl_crystal_description       prismatic
_cell_formula_units_Z            2
loop_
_atom_site_label
_atom_site_type_symbol
_atom_site_fract_x
_atom_site_fract_y
_atom_site_fract_z
N1 N 0.1159(3) 0.9181(3) 0.34251(14)
O1 O 0.5766(2) 1.1411(2) 0.25616(13)
O2 O 0.5092(2) 0.8192(2) 0.13055(12)
O3 O 0.2300(2) 0.7356(2) 0.19908(12)
O4 O 0.3209(2) 1.1154(2) 0.18522(13)
O5 O -0.0199(2) 1.1524(2) 0.15811(13)
O6 O 0.5922(3) 1.3316(3) 0.16484(19)
O7 O 0.7528(3) 0.7358(3) 0.18663(16)
O8 O 0.4156(3) 0.5948(3) 0.27378(14)
O9 O -0.1360(4) 1.0104(3) 0.05304(17)
C1 C 0.4843(3) 1.0630(3) 0.18939(19)
H1 H 0.5311 1.0805 0.1343
C2 C 0.4826(3) 0.8971(3) 0.20843(16)
H2 H 0.5621 0.8696 0.2561
C3 C 0.3042(3) 0.8717(3) 0.22978(17)
C4 C 0.2149(3) 0.9901(3) 0.17496(18)
H3 H 0.2062 0.9591 0.1146
C5 C 0.0450(3) 1.0225(3) 0.20286(18)
H4 H -0.0268 0.9385 0.1872
C6 C 0.0463(3) 1.0483(4) 0.29899(19)
H5 H 0.1118 1.1345 0.3153
H6 H -0.0645 1.0647 0.3149
C7 C 0.2889(3) 0.8982(3) 0.32508(16)
H7 H 0.3346 0.8149 0.3579
H8 H 0.3509 0.9855 0.3433
C8 C 0.6243(3) 1.2802(4) 0.2351(3)
C9 C 0.7193(4) 1.3524(5) 0.3088(3)
H9 H 0.7512 1.4497 0.2923
H10 H 0.8155 1.2951 0.3251
H11 H 0.6525 1.3590 0.3566
C10 C 0.6505(3) 0.7422(3) 0.1276(2)
C11 C 0.6557(5) 0.6680(5) 0.0432(2)
H12 H 0.7565 0.6139 0.0420
H13 H 0.6494 0.7407 -0.0018
H14 H 0.5646 0.6013 0.0345
C12 C 0.2937(3) 0.6055(3) 0.2257(2)
C13 C 0.1927(5) 0.4817(4) 0.1878(3)
H15 H 0.2399 0.3895 0.2075
H16 H 0.1899 0.4862 0.1262
H17 H 0.0831 0.4895 0.2054
C14 C -0.1022(4) 1.1307(4) 0.08049(19)
C15 C -0.1374(4) 1.2725(4) 0.0348(2)
H18 H -0.1958 1.2534 -0.0199
H19 H -0.0361 1.3219 0.0262
H20 H -0.2031 1.3339 0.0687
C16 C 0.0969(4) 0.9206(5) 0.43531(19)
H21 H 0.1255 1.0180 0.4576
H22 H 0.1727 0.8504 0.4637
C17 C -0.0747(3) 0.8835(4) 0.45673(18)
C18 C -0.1365(5) 0.9410(6) 0.5301(2)
H23 H -0.0748 1.0086 0.5639
C19 C -0.2898(5) 0.8983(8) 0.5533(3)
H24 H -0.3307 0.9381 0.6023
C20 C -0.3806(4) 0.7987(7) 0.5048(3)
H25 H -0.4820 0.7684 0.5215
C21 C -0.3232(4) 0.7438(5) 0.4322(2)
H26 H -0.3867 0.6778 0.3981
C22 C -0.1714(4) 0.7852(4) 0.4087(2)
H27 H -0.1332 0.7456 0.3590
loop_
_geom_bond_atom_site_label_1
_geom_bond_atom_site_label_2
_geom_bond_site_symmetry_1
_geom_bond_site_symmetry_2
N1 C6 1_555 1_555
O1 C1 1_555 1_555
O2 C2 1_555 1_555
O3 C3 1_555 1_555
O4 C1 1_555 1_555
O5 C5 1_555 1_555
O6 C8 1_555 1_555
O7 C10 1_555 1_555
O8 C12 1_555 1_555
O9 C14 1_555 1_555
C1 H1 1_555 1_555
C2 C1 1_555 1_555
H2 C2 1_555 1_555
C3 C2 1_555 1_555
C4 O4 1_555 1_555
H3 C4 1_555 1_555
C5 C4 1_555 1_555
H4 C5 1_555 1_555
C6 C5 1_555 1_555
H5 C6 1_555 1_555
H6 C6 1_555 1_555
C7 N1 1_555 1_555
H7 C7 1_555 1_555
H8 C7 1_555 1_555
C8 O1 1_555 1_555
C9 C8 1_555 1_555
H9 C9 1_555 1_555
H10 C9 1_555 1_555
H11 C9 1_555 1_555
C10 O2 1_555 1_555
C11 C10 1_555 1_555
H12 C11 1_555 1_555
H13 C11 1_555 1_555
H14 C11 1_555 1_555
C12 O3 1_555 1_555
C13 C12 1_555 1_555
H15 C13 1_555 1_555
H16 C13 1_555 1_555
H17 C13 1_555 1_555
C14 O5 1_555 1_555
C15 C14 1_555 1_555
H18 C15 1_555 1_555
H19 C15 1_555 1_555
H20 C15 1_555 1_555
C16 N1 1_555 1_555
H21 C16 1_555 1_555
H22 C16 1_555 1_555
C17 C16 1_555 1_555
C18 C17 1_555 1_555
H23 C18 1_555 1_555
C19 C18 1_555 1_555
H24 C19 1_555 1_555
C20 C19 1_555 1_555
H25 C20 1_555 1_555
C21 C20 1_555 1_555
H26 C21 1_555 1_555
C22 C17 1_555 1_555
H27 C22 1_555 1_555
C3 C4 1_555 1_555
C3 C7 1_555 1_555
C21 C22 1_555 1_555

#END
