
#######################################################################
#
#                 Cambridge Crystallographic Data Centre
#                                CCDC 
#
#######################################################################
#
# If this CIF has been generated from an entry in the Cambridge 
# Structural Database, then it will include bibliographic, chemical, 
# crystal, experimental, refinement or atomic coordinate data resulting 
# from the CCDC's data processing and validation procedures.
#
#######################################################################

data_USOPIC
_chemical_formula_moiety         'C34 H26 Cl4 N6 O4,C1 H1 Cl3'
_chemical_name_systematic        
'1,4,15,24-Tetrachloro-35,35,36,36-tetramethoxy-6,8,13,26,31,33-hexaazadecacyclo[22.10.1.1^4,15^.0^2,23^.0^3,16^.0^5,14^.0^7,12^.0^17,22^.0^25,34^.0^27,32^]hexatriaconta-5(14),6,8,10,12,17,19,21,25(34),26,28,30,32-tridecaene chloroform solvate'
_symmetry_cell_setting           monoclinic
_symmetry_space_group_name_H-M   'P 21/c'
_symmetry_Int_Tables_number      14
_space_group_name_Hall           '-P 2ybc'
loop_
_symmetry_equiv_pos_site_id
_symmetry_equiv_pos_as_xyz
1 x,y,z
2 -x,1/2+y,1/2-z
3 -x,-y,-z
4 x,1/2-y,1/2+z
_cell_length_a                   20.4398(11)
_cell_length_b                   10.9182(6)
_cell_length_c                   17.6546(9)
_cell_angle_alpha                90
_cell_angle_beta                 112.2060(10)
_cell_angle_gamma                90
_cell_volume                     3647.68
_exptl_crystal_colour            colorless
_exptl_crystal_description       cubic
_cell_formula_units_Z            4
loop_
_atom_site_label
_atom_site_type_symbol
_atom_site_fract_x
_atom_site_fract_y
_atom_site_fract_z
C1 C 0.1304(2) 1.2463(4) 0.0628(2)
C2 C 0.20422(19) 1.2288(3) 0.0562(2)
C3 C 0.24597(19) 1.1824(3) 0.1408(2)
C4 C 0.33423(19) 1.1389(3) 0.2591(2)
C5 C 0.4265(2) 1.1004(5) 0.3782(3)
H1 H 0.4741 1.1084 0.4111
C6 C 0.3841(3) 1.0297(5) 0.4076(3)
H2 H 0.4036 0.9940 0.4592
C7 C 0.3147(2) 1.0130(4) 0.3612(2)
H3 H 0.2858 0.9668 0.3801
C8 C 0.2878(2) 1.0684(3) 0.2831(2)
C9 C 0.19919(18) 1.1102(3) 0.1648(2)
C10 C 0.12983(19) 1.1112(4) 0.0932(2)
C11 C 0.14152(19) 1.0330(3) 0.0234(2)
H4 H 0.0960 1.0233 -0.0224
C12 C 0.1703(2) 0.9099(4) 0.0541(2)
C13 C 0.1257(3) 0.8258(4) 0.0714(3)
H5 H 0.0777 0.8425 0.0549
C14 C 0.1534(4) 0.7172(5) 0.1132(4)
H6 H 0.1233 0.6612 0.1232
C15 C 0.2238(4) 0.6924(6) 0.1396(4)
H7 H 0.2422 0.6226 0.1706
C16 C 0.2677(3) 0.7718(5) 0.1201(3)
H8 H 0.3157 0.7538 0.1373
C17 C 0.2415(2) 0.8793(4) 0.0746(2)
C18 C 0.2887(2) 0.9484(4) 0.0419(2)
H9 H 0.3329 0.9692 0.0872
C19 C 0.3059(2) 0.8688(4) -0.0228(2)
C20 C 0.23700(19) 0.8227(4) -0.0820(2)
C21 C 0.1439(2) 0.7053(4) -0.1520(3)
C22 C 0.1094(2) 0.5918(4) -0.1711(3)
H10 H 0.1321 0.5208 -0.1452
C23 C 0.0426(3) 0.5870(4) -0.2277(3)
H11 H 0.0186 0.5127 -0.2403
C24 C 0.0107(2) 0.6924(5) -0.2662(3)
H12 H -0.0346 0.6859 -0.3062
C25 C 0.1062(2) 0.8106(4) -0.1936(2)
C26 C 0.20055(19) 0.9268(3) -0.1255(2)
C27 C 0.2503(2) 1.0331(4) -0.0956(2)
C28 C 0.3215(2) 0.9665(4) -0.0780(2)
C29 C 0.25660(19) 1.0667(4) -0.0080(2)
H13 H 0.2929 1.1303 0.0116
C30 C 0.18992(19) 1.1200(3) -0.0038(2)
H14 H 0.1613 1.1509 -0.0584
C31 C 0.0614(3) 1.3734(5) -0.0503(3)
H15 H 0.0720 1.4378 -0.0104
H16 H 0.0130 1.3800 -0.0872
H17 H 0.0917 1.3802 -0.0803
C32 C 0.0791(3) 1.3612(6) 0.1441(3)
H18 H 0.0354 1.3503 0.0982
H19 H 0.0819 1.4436 0.1640
H20 H 0.0813 1.3049 0.1867
C33 C 0.3792(4) 0.8402(7) -0.1509(4)
H21 H 0.4184 0.8470 -0.0995
H22 H 0.3944 0.8619 -0.1944
H23 H 0.3621 0.7575 -0.1584
C34 C 0.4068(4) 1.1178(7) -0.0651(5)
H24 H 0.3891 1.1062 -0.1233
H25 H 0.4575 1.1155 -0.0436
H26 H 0.3913 1.1957 -0.0530
Cl1 Cl 0.24036(6) 1.35819(9) 0.02714(7)
Cl2 Cl 0.22991(7) 1.15856(11) -0.16341(7)
Cl3 Cl 0.05549(5) 1.06930(12) 0.11422(7)
Cl4 Cl 0.37216(6) 0.75632(12) 0.01993(8)
N1 N 0.31233(16) 1.1987(3) 0.18500(18)
N2 N 0.21740(17) 1.0529(3) 0.23427(19)
N3 N 0.40339(18) 1.1559(3) 0.3076(2)
N4 N 0.13623(17) 0.9250(3) -0.17985(18)
N5 N 0.21136(18) 0.7116(3) -0.0933(2)
N6 N 0.03968(19) 0.8034(3) -0.2507(2)
O1 O 0.13747(15) 1.3384(3) 0.11888(17)
O2 O 0.07205(15) 1.2599(3) -0.01069(16)
O3 O 0.32245(15) 0.9233(3) -0.15162(18)
O4 O 0.38235(17) 1.0281(4) -0.0307(2)
C35 C 0.4514(3) 0.3656(6) 0.1942(4)
H27 H 0.4198 0.3177 0.2128
Cl5 Cl 0.41112(13) 0.5066(2) 0.15911(17)
Cl6 Cl 0.45844(16) 0.2926(3) 0.11430(17)
Cl7 Cl 0.52889(14) 0.3855(3) 0.27555(17)
loop_
_geom_bond_atom_site_label_1
_geom_bond_atom_site_label_2
_geom_bond_site_symmetry_1
_geom_bond_site_symmetry_2
C1 C2 1_555 1_555
C2 C3 1_555 1_555
C3 C9 1_555 1_555
C4 C8 1_555 1_555
C5 H1 1_555 1_555
C6 C5 1_555 1_555
H2 C6 1_555 1_555
C7 C6 1_555 1_555
H3 C7 1_555 1_555
C8 C7 1_555 1_555
C9 C10 1_555 1_555
C10 C1 1_555 1_555
C11 C10 1_555 1_555
H4 C11 1_555 1_555
C12 C11 1_555 1_555
C13 C12 1_555 1_555
H5 C13 1_555 1_555
C14 C13 1_555 1_555
H6 C14 1_555 1_555
C15 C14 1_555 1_555
H7 C15 1_555 1_555
C16 C15 1_555 1_555
H8 C16 1_555 1_555
C17 C12 1_555 1_555
C18 C17 1_555 1_555
H9 C18 1_555 1_555
C19 C18 1_555 1_555
C20 C19 1_555 1_555
C21 C22 1_555 1_555
C22 H10 1_555 1_555
C23 C22 1_555 1_555
H11 C23 1_555 1_555
C24 C23 1_555 1_555
H12 C24 1_555 1_555
C25 C21 1_555 1_555
C26 C20 1_555 1_555
C27 C26 1_555 1_555
C28 C19 1_555 1_555
C29 C18 1_555 1_555
H13 C29 1_555 1_555
C30 C2 1_555 1_555
H14 C30 1_555 1_555
C31 H15 1_555 1_555
H16 C31 1_555 1_555
H17 C31 1_555 1_555
C32 H18 1_555 1_555
H19 C32 1_555 1_555
H20 C32 1_555 1_555
C33 H21 1_555 1_555
H22 C33 1_555 1_555
H23 C33 1_555 1_555
C34 H24 1_555 1_555
H25 C34 1_555 1_555
H26 C34 1_555 1_555
C35 H27 1_555 1_555
Cl1 C2 1_555 1_555
Cl2 C27 1_555 1_555
Cl3 C10 1_555 1_555
Cl4 C19 1_555 1_555
Cl5 C35 1_555 1_555
Cl6 C35 1_555 1_555
Cl7 C35 1_555 1_555
N1 C3 1_555 1_555
N2 C8 1_555 1_555
N3 C4 1_555 1_555
N4 C25 1_555 1_555
N5 C20 1_555 1_555
N6 C24 1_555 1_555
O1 C1 1_555 1_555
O2 C1 1_555 1_555
O3 C28 1_555 1_555
O4 C28 1_555 1_555
C4 N1 1_555 1_555
C5 N3 1_555 1_555
C9 N2 1_555 1_555
C11 C30 1_555 1_555
C16 C17 1_555 1_555
C21 N5 1_555 1_555
C25 N6 1_555 1_555
C26 N4 1_555 1_555
C27 C28 1_555 1_555
C27 C29 1_555 1_555
C29 C30 1_555 1_555
C31 O2 1_555 1_555
C32 O1 1_555 1_555
C33 O3 1_555 1_555
C34 O4 1_555 1_555

#END
