
#######################################################################
#
#                 Cambridge Crystallographic Data Centre
#                                CCDC 
#
#######################################################################
#
# If this CIF has been generated from an entry in the Cambridge 
# Structural Database, then it will include bibliographic, chemical, 
# crystal, experimental, refinement or atomic coordinate data resulting 
# from the CCDC's data processing and validation procedures.
#
#######################################################################

data_USOXOQ
_chemical_formula_moiety         'C22 H24 O1'
_chemical_name_systematic        Biphenyl-4-yl(spiro[4.4]non-1-yl)methanone
_symmetry_cell_setting           monoclinic
_symmetry_space_group_name_H-M   'P 21/a'
_symmetry_Int_Tables_number      14
_space_group_name_Hall           '-P 2yab'
loop_
_symmetry_equiv_pos_site_id
_symmetry_equiv_pos_as_xyz
1 x,y,z
2 1/2-x,1/2+y,-z
3 -x,-y,-z
4 1/2+x,1/2-y,z
_cell_length_a                   11.2860(3)
_cell_length_b                   7.8010(5)
_cell_length_c                   20.2130(11)
_cell_angle_alpha                90
_cell_angle_beta                 102.539(2)
_cell_angle_gamma                90
_cell_volume                     1737.15
_exptl_crystal_colour            colorless
_exptl_crystal_description       prism
_cell_formula_units_Z            4
loop_
_atom_site_label
_atom_site_type_symbol
_atom_site_fract_x
_atom_site_fract_y
_atom_site_fract_z
O1 O 0.0768(6) 0.1725(8) 0.8038(3)
C1 C 0.1671(7) 0.2230(8) 0.7870(4)
C2 C 0.2769(7) 0.2824(10) 0.8356(4)
H1 H 0.3408 0.2828 0.8096
C3 C 0.3261(19) 0.163(2) 0.8968(8)
H2 H 0.2579 0.1130 0.9119
H3 H 0.3711 0.0701 0.8819
C4 C 0.406(3) 0.251(4) 0.9551(15)
H4 H 0.4893 0.2109 0.9626
H5 H 0.3764 0.2388 0.9965
C5 C 0.3893(17) 0.462(2) 0.9229(8)
H6 H 0.3780 0.5410 0.9581
H7 H 0.4617 0.4961 0.9077
C6 C 0.2704(9) 0.4687(13) 0.8590(5)
C7 C 0.3123(15) 0.5892(16) 0.7981(7)
H8 H 0.3997 0.6024 0.8070
H9 H 0.2847 0.5377 0.7537
C8 C 0.2543(19) 0.750(3) 0.8021(10)
H10 H 0.3132 0.8341 0.8239
H11 H 0.2175 0.7907 0.7570
C9 C 0.1658(17) 0.726(2) 0.8396(10)
H12 H 0.0878 0.7310 0.8080
H13 H 0.1675 0.8210 0.8709
C10 C 0.154(2) 0.564(4) 0.8456(13)
H14 H 0.1021 0.5207 0.8043
H15 H 0.1129 0.5430 0.8824
C11 C 0.1588(6) 0.2369(7) 0.7106(3)
C12 C 0.2612(12) 0.2053(17) 0.6888(6)
H16 H 0.3358 0.1835 0.7176
C13 C 0.2438(12) 0.2089(17) 0.6188(6)
H17 H 0.3121 0.1828 0.6019
C14 C 0.0413(13) 0.2980(18) 0.6042(6)
H18 H -0.0309 0.3402 0.5781
C15 C 0.0505(13) 0.2887(17) 0.6722(6)
H19 H -0.0145 0.3166 0.6917
C16 C 0.2037(11) 0.1752(16) 0.4663(6)
H20 H 0.2687 0.1166 0.4929
C17 C 0.1914(13) 0.1813(19) 0.3995(7)
H21 H 0.2513 0.1281 0.3817
C18 C 0.0226(12) 0.3629(17) 0.3885(6)
H22 H -0.0369 0.4331 0.3631
C19 C 0.0361(11) 0.3617(16) 0.4576(6)
H23 H -0.0113 0.4311 0.4788
C20 C 0.1363(5) 0.2466(7) 0.5683(3)
C21 C 0.1243(5) 0.2518(6) 0.4949(3)
C22 C 0.0959(8) 0.2608(9) 0.3531(4)
H24 H 0.0820 0.2492 0.3062
C23? C 0.1641 0.5321 0.8812
C24? C 0.2384(13) 0.325(2) 0.6770(7)
C25? C 0.2247(12) 0.3264(17) 0.6045(6)
C26? C 0.0622(12) 0.1381(18) 0.5977(6)
C27? C 0.0689(12) 0.1428(18) 0.6619(6)
C28? C 0.2060(14) 0.305(2) 0.4572(7)
C29? C 0.1929(16) 0.311(2) 0.3895(8)
C30? C 0.0044(15) 0.182(2) 0.3747(7)
C31? C 0.0157(15) 0.173(2) 0.4475(7)
C32? C 0.269(2) 0.209(3) 0.9158(10)
C33? C 0.3507(19) 0.331(3) 0.9569(9)
C34? C 0.349(5) 0.525(5) 0.911(2)
H25? H 0.1773 0.5443 0.9300
H26? H 0.0916 0.4651 0.8639
H27? H 0.3030 0.3854 0.7032
H28? H 0.2799 0.3848 0.5847
H29? H 0.0084 0.0631 0.5707
H30? H 0.0114 0.0808 0.6786
H31? H 0.2805 0.3432 0.4822
H32? H 0.2553 0.3513 0.3703
H33? H -0.0621 0.1356 0.3445
H34? H -0.0441 0.1189 0.4650
H35? H 0.1873 0.2168 0.9235
H36? H 0.2982 0.0921 0.9234
H37? H 0.4325 0.2850 0.9678
H38? H 0.3252 0.3522 0.9990
H39? H 0.3186 0.6215 0.9331
H40? H 0.4265 0.5527 0.9010
loop_
_geom_bond_atom_site_label_1
_geom_bond_atom_site_label_2
_geom_bond_site_symmetry_1
_geom_bond_site_symmetry_2
O1 C1 1_555 1_555
C1 C2 1_555 1_555
C2 H1 1_555 1_555
C3 C2 1_555 1_555
H2 C3 1_555 1_555
H3 C3 1_555 1_555
C4 C3 1_555 1_555
H4 C4 1_555 1_555
H5 C4 1_555 1_555
C5 C4 1_555 1_555
H6 C5 1_555 1_555
H7 C5 1_555 1_555
C6 C2 1_555 1_555
C7 C6 1_555 1_555
H8 C7 1_555 1_555
H9 C7 1_555 1_555
C8 C7 1_555 1_555
H10 C8 1_555 1_555
H11 C8 1_555 1_555
C9 C8 1_555 1_555
H12 C9 1_555 1_555
H13 C9 1_555 1_555
C10 C6 1_555 1_555
H14 C10 1_555 1_555
H15 C10 1_555 1_555
C11 C1 1_555 1_555
C12 C11 1_555 1_555
H16 C12 1_555 1_555
C13 C12 1_555 1_555
H17 C13 1_555 1_555
C14 H18 1_555 1_555
C15 C11 1_555 1_555
H19 C15 1_555 1_555
C16 H20 1_555 1_555
C17 C16 1_555 1_555
H21 C17 1_555 1_555
C18 H22 1_555 1_555
C19 C18 1_555 1_555
H23 C19 1_555 1_555
C20 C13 1_555 1_555
C21 C16 1_555 1_555
C22 C17 1_555 1_555
H24 C22 1_555 1_555
C5 C6 1_555 1_555
C9 C10 1_555 1_555
C14 C15 1_555 1_555
C14 C20 1_555 1_555
C18 C22 1_555 1_555
C19 C21 1_555 1_555
C20 C21 1_555 1_555

#END
