
#######################################################################
#
#                 Cambridge Crystallographic Data Centre
#                                CCDC 
#
#######################################################################
#
# If this CIF has been generated from an entry in the Cambridge 
# Structural Database, then it will include bibliographic, chemical, 
# crystal, experimental, refinement or atomic coordinate data resulting 
# from the CCDC's data processing and validation procedures.
#
#######################################################################

data_USOZAF
_chemical_formula_moiety         'C17 H14 Cl1 N3 O1'
_chemical_name_systematic        
1-(4-chlorophenyl)-4-methyl-N-phenyl-1H-pyrazole-3-carboxamide
_symmetry_cell_setting           monoclinic
_symmetry_space_group_name_H-M   'P 21/c'
_symmetry_Int_Tables_number      14
_space_group_name_Hall           '-P 2ybc'
loop_
_symmetry_equiv_pos_site_id
_symmetry_equiv_pos_as_xyz
1 x,y,z
2 -x,1/2+y,1/2-z
3 -x,-y,-z
4 x,1/2-y,1/2+z
_cell_length_a                   6.4015(5)
_cell_length_b                   14.5239(11)
_cell_length_c                   15.7276(13)
_cell_angle_alpha                90
_cell_angle_beta                 93.4818(15)
_cell_angle_gamma                90
_cell_volume                     1459.57
_exptl_crystal_colour            'light colorless'
_exptl_crystal_description       block
_cell_formula_units_Z            4
loop_
_atom_site_label
_atom_site_type_symbol
_atom_site_fract_x
_atom_site_fract_y
_atom_site_fract_z
Cl1 Cl 0.13561(9) 0.35337(4) 0.43443(4)
O1 O 1.0143(2) 0.92105(11) 0.31092(11)
N1 N 0.6968(3) 0.91211(12) 0.36899(13)
H1 H 0.5945 0.8736 0.3781
N2 N 0.7243(3) 0.63958(11) 0.32768(12)
N3 N 0.6892(3) 0.72832(11) 0.34868(12)
C1 C 0.3083(3) 0.43702(14) 0.40156(15)
C2 C 0.4143(3) 0.59430(15) 0.39863(15)
H2 H 0.3934 0.6570 0.4132
C3 C 0.8524(3) 0.77422(14) 0.32040(14)
C4 C 0.9938(3) 0.71611(15) 0.28145(14)
C5 C 0.8307(4) 1.05852(16) 0.42712(16)
H3 H 0.9705 1.0364 0.4276
C6 C 0.7890(4) 1.14518(16) 0.45925(17)
H4 H 0.9005 1.1816 0.4836
C7 C 0.6126(4) 0.47851(15) 0.32961(15)
H5 H 0.7277 0.4616 0.2976
C8 C 0.2765(3) 0.52789(14) 0.42383(15)
H6 H 0.1614 0.5444 0.4560
C9 C 0.8650(3) 0.87586(15) 0.33237(14)
C10 C 0.9059(3) 0.63046(15) 0.28728(15)
H7 H 0.9616 0.5746 0.2668
C11 C 0.5831(3) 0.56996(13) 0.35209(14)
C12 C 0.4733(3) 0.41242(15) 0.35425(15)
H8 H 0.4914 0.3499 0.3385
C13 C 0.6662(3) 1.00462(14) 0.39430(15)
C14 C 1.1951(3) 0.74019(17) 0.24356(16)
H9 H 1.1668 0.7802 0.1940
H10 H 1.2641 0.6838 0.2257
H11 H 1.2865 0.7724 0.2861
C15 C 0.5869(4) 1.17912(17) 0.45612(16)
H12 H 0.5597 1.2387 0.4778
C16 C 0.4634(4) 1.03869(16) 0.39104(16)
H13 H 0.3509 1.0020 0.3679
C17 C 0.4249(4) 1.12588(16) 0.42138(17)
H14 H 0.2861 1.1493 0.4183
loop_
_geom_bond_atom_site_label_1
_geom_bond_atom_site_label_2
_geom_bond_site_symmetry_1
_geom_bond_site_symmetry_2
Cl1 C1 1_555 1_555
O1 C9 1_555 1_555
N1 H1 1_555 1_555
N2 N3 1_555 1_555
N3 C3 1_555 1_555
C1 C8 1_555 1_555
C2 H2 1_555 1_555
C3 C4 1_555 1_555
C4 C10 1_555 1_555
C5 H3 1_555 1_555
C6 C5 1_555 1_555
H4 C6 1_555 1_555
C7 H5 1_555 1_555
C8 C2 1_555 1_555
H6 C8 1_555 1_555
C9 N1 1_555 1_555
C10 N2 1_555 1_555
H7 C10 1_555 1_555
C11 N2 1_555 1_555
C12 C1 1_555 1_555
H8 C12 1_555 1_555
C13 N1 1_555 1_555
C14 C4 1_555 1_555
H9 C14 1_555 1_555
H10 C14 1_555 1_555
H11 C14 1_555 1_555
C15 C6 1_555 1_555
H12 C15 1_555 1_555
C16 C13 1_555 1_555
H13 C16 1_555 1_555
C17 C15 1_555 1_555
H14 C17 1_555 1_555
C2 C11 1_555 1_555
C3 C9 1_555 1_555
C5 C13 1_555 1_555
C7 C11 1_555 1_555
C7 C12 1_555 1_555
C16 C17 1_555 1_555

#END
