
#######################################################################
#
#                 Cambridge Crystallographic Data Centre
#                                CCDC 
#
#######################################################################
#
# If this CIF has been generated from an entry in the Cambridge 
# Structural Database, then it will include bibliographic, chemical, 
# crystal, experimental, refinement or atomic coordinate data resulting 
# from the CCDC's data processing and validation procedures.
#
#######################################################################

data_USUHEW
_chemical_formula_moiety         'C11 H13 F3 O4 S1'
_chemical_name_systematic        
'Methyl 6-hydroxy-3-methyl-4-(methylsulfanyl)-2-oxo-6-(trifluoromethyl)cyclohex-3-ene-1-carboxylate'
_symmetry_cell_setting           monoclinic
_symmetry_space_group_name_H-M   'C 2/c'
_symmetry_Int_Tables_number      15
_space_group_name_Hall           '-C 2yn'
loop_
_symmetry_equiv_pos_site_id
_symmetry_equiv_pos_as_xyz
1 x,y,z
2 -x,y,1/2-z
3 1/2+x,1/2+y,z
4 1/2-x,1/2+y,1/2-z
5 -x,-y,-z
6 x,-y,1/2+z
7 1/2-x,1/2-y,-z
8 1/2+x,1/2-y,1/2+z
_cell_length_a                   17.1795(6)
_cell_length_b                   10.0815(3)
_cell_length_c                   14.9817(5)
_cell_angle_alpha                90
_cell_angle_beta                 98.235(2)
_cell_angle_gamma                90
_cell_volume                     2568
_exptl_crystal_colour            colorless
_exptl_crystal_description       block
_cell_formula_units_Z            8
loop_
_atom_site_label
_atom_site_type_symbol
_atom_site_fract_x
_atom_site_fract_y
_atom_site_fract_z
S1 S 0.397995(16) 0.02651(3) 1.088658(19)
O1 O 0.27785(6) 0.25793(8) 0.80755(6)
O2 O 0.16636(5) 0.03491(8) 0.71191(5)
O3 O 0.10032(5) 0.21233(8) 0.75131(5)
O4 O 0.23688(5) -0.11772(7) 0.86277(5)
F1 F 0.07280(5) -0.10247(9) 0.83694(5)
F2 F 0.07334(4) -0.00203(8) 0.96384(6)
F3 F 0.12041(4) -0.19903(7) 0.96034(5)
C1 C 0.27010(6) 0.17668(9) 0.86591(6)
C2 C 0.18909(6) 0.11216(9) 0.86553(6)
H1 H 0.1573 0.1699 0.9009
C3 C 0.19681(6) -0.02527(9) 0.91002(6)
C4 C 0.24319(6) -0.01273(9) 1.00475(6)
H2 H 0.2114 0.0367 1.0437
H3 H 0.2534 -0.1023 1.0309
C5 C 0.32030(6) 0.05801(9) 1.00337(6)
C6 C 0.33373(6) 0.14321(9) 0.93708(6)
C7 C 0.15059(6) 0.11252(10) 0.76758(7)
C8 C 0.06978(9) 0.23300(15) 0.65708(8)
H4 H 0.1119 0.2657 0.6252
H5 H 0.0271 0.2983 0.6521
H6 H 0.0496 0.1489 0.6302
C9 C 0.11536(7) -0.08242(11) 0.91779(7)
C10 C 0.35409(8) -0.04706(13) 1.17881(8)
H7 H 0.3147 0.0136 1.1971
H8 H 0.3949 -0.0640 1.2303
H9 H 0.3288 -0.1309 1.1582
C11 C 0.41202(7) 0.20773(12) 0.93313(8)
H10 H 0.4327 0.2436 0.9926
H11 H 0.4056 0.2798 0.8888
H12 H 0.4488 0.1418 0.9154
H13 H 0.2189(10) -0.1149(16) 0.8081(12)
loop_
_geom_bond_atom_site_label_1
_geom_bond_atom_site_label_2
_geom_bond_site_symmetry_1
_geom_bond_site_symmetry_2
S1 C5 1_555 1_555
O1 C1 1_555 1_555
O2 C7 1_555 1_555
O3 C7 1_555 1_555
O4 C3 1_555 1_555
F1 C9 1_555 1_555
F2 C9 1_555 1_555
F3 C9 1_555 1_555
C1 C2 1_555 1_555
C2 H1 1_555 1_555
C3 C2 1_555 1_555
C4 C3 1_555 1_555
H2 C4 1_555 1_555
H3 C4 1_555 1_555
C5 C4 1_555 1_555
C6 C1 1_555 1_555
C7 C2 1_555 1_555
C8 O3 1_555 1_555
H4 C8 1_555 1_555
H5 C8 1_555 1_555
H6 C8 1_555 1_555
C9 C3 1_555 1_555
C10 S1 1_555 1_555
H7 C10 1_555 1_555
H8 C10 1_555 1_555
H9 C10 1_555 1_555
C11 C6 1_555 1_555
H10 C11 1_555 1_555
H11 C11 1_555 1_555
H12 C11 1_555 1_555
H13 O4 1_555 1_555
C5 C6 1_555 1_555

#END
