
#######################################################################
#
#                 Cambridge Crystallographic Data Centre
#                                CCDC 
#
#######################################################################
#
# If this CIF has been generated from an entry in the Cambridge 
# Structural Database, then it will include bibliographic, chemical, 
# crystal, experimental, refinement or atomic coordinate data resulting 
# from the CCDC's data processing and validation procedures.
#
#######################################################################

data_USUKEZ
_chemical_formula_moiety         'C21 H14 Br1 Cl2 N3 O2'
_chemical_name_systematic        
7-(4-Bromophenyl)-8-(2,4-dichlorobenzoyl)-5-oxo-1,2,3,5,6,7-hexahydroimidazo[1,2-a]pyridine-6-carbonitrile
_symmetry_cell_setting           monoclinic
_symmetry_space_group_name_H-M   'P 21/c'
_symmetry_Int_Tables_number      14
_space_group_name_Hall           '-P 2ybc'
loop_
_symmetry_equiv_pos_site_id
_symmetry_equiv_pos_as_xyz
1 x,y,z
2 -x,1/2+y,1/2-z
3 -x,-y,-z
4 x,1/2-y,1/2+z
_cell_length_a                   9.2171(18)
_cell_length_b                   29.773(6)
_cell_length_c                   14.958(3)
_cell_angle_alpha                90
_cell_angle_beta                 90.04(3)
_cell_angle_gamma                90
_cell_volume                     4104.78
_exptl_crystal_colour            white
_exptl_crystal_description       prism
_chemical_melting_point          '265-266 deg.C'
_cell_formula_units_Z            8
loop_
_atom_site_label
_atom_site_type_symbol
_atom_site_fract_x
_atom_site_fract_y
_atom_site_fract_z
Br1 Br 0.03338(8) 0.55185(3) 0.85217(6)
Cl1 Cl 0.59319(19) 0.74236(5) 0.56917(13)
Cl3 Cl 0.3059(2) 0.79105(7) 0.86507(16)
O2 O 0.4943(4) 0.53516(12) 0.4199(3)
N1 N 0.6659(4) 0.56225(13) 0.5151(3)
O3 O 0.8119(4) 0.65655(14) 0.7000(3)
C1 C 0.4683(5) 0.62905(17) 0.5787(4)
H1 H 0.4418 0.6608 0.5737
C2 C 0.7134(5) 0.59371(17) 0.5758(4)
C3 C 0.5847(5) 0.69105(18) 0.7182(4)
C4 C 0.4611(5) 0.60923(16) 0.4833(4)
H2 H 0.5092 0.6309 0.4439
C6 C 0.3619(5) 0.60795(16) 0.6422(4)
C8 C 0.5380(5) 0.56420(17) 0.4695(4)
N2 N 0.8503(5) 0.58485(16) 0.5959(4)
H3 H 0.8991 0.5997 0.6350
C12 C 0.6826(6) 0.65752(18) 0.6747(4)
C15 C 0.9097(6) 0.54742(18) 0.5452(4)
H6 H 0.9551 0.5256 0.5845
H7 H 0.9805 0.5577 0.5019
C16 C 0.5424(6) 0.73107(18) 0.6788(4)
C17 C 0.6251(5) 0.62755(17) 0.6087(4)
C20 C 0.2470(5) 0.63387(19) 0.6747(4)
H9 H 0.2369 0.6634 0.6555
C21 C 0.7773(5) 0.52752(17) 0.4991(4)
H10 H 0.7944 0.5233 0.4357
H11 H 0.7498 0.4991 0.5257
C23 C 0.3717(6) 0.56392(18) 0.6711(4)
H12 H 0.4465 0.5459 0.6499
C26 C 0.4579(6) 0.76242(19) 0.7241(5)
H14 H 0.4328 0.7895 0.6972
C27 C 0.1635(6) 0.5732(2) 0.7645(4)
C30 C 0.2726(6) 0.54622(19) 0.7310(4)
H18 H 0.2794 0.5163 0.7485
C31 C 0.3087(6) 0.60606(18) 0.4526(4)
N6 N 0.1908(6) 0.60455(18) 0.4299(4)
C32 C 0.1478(6) 0.6164(2) 0.7350(4)
H19 H 0.0711 0.6339 0.7553
C37 C 0.5385(7) 0.6832(2) 0.8041(5)
H25 H 0.5668 0.6568 0.8324
C41 C 0.4498(7) 0.7137(2) 0.8507(5)
H28 H 0.4175 0.7075 0.9083
C42 C 0.4129(6) 0.7527(2) 0.8082(5)
Br2 Br -0.50122(9) 0.56014(3) 0.91685(7)
Cl2 Cl 0.0922(2) 0.75052(6) 1.17010(14)
Cl4 Cl -0.2002(2) 0.78785(8) 0.86885(17)
O1 O -0.0150(5) 0.53636(13) 1.3168(3)
O4 O 0.3150(4) 0.66312(14) 1.0540(3)
C5 C 0.0327(6) 0.56681(18) 1.2719(4)
C7 C 0.0409(6) 0.73546(19) 1.0629(4)
C9 C -0.1405(5) 0.61567(18) 1.1055(4)
C10 C -0.1939(6) 0.60900(18) 1.2930(4)
C11 C -0.2547(5) 0.64210(19) 1.0765(4)
H4 H -0.2599 0.6718 1.0952
C13 C 0.1846(6) 0.66340(18) 1.0762(4)
C14 C 0.1268(5) 0.63283(17) 1.1402(4)
N3 N 0.3517(5) 0.59041(16) 1.1554(4)
H5 H 0.4031 0.6066 1.1198
N4 N 0.1619(5) 0.56498(15) 1.2291(3)
C18 C -0.3557(6) 0.5820(2) 0.9939(4)
C19 C -0.0427(5) 0.61279(17) 1.2644(4)
H8 H 0.0058 0.6330 1.3068
C22 C 0.0851(5) 0.69506(17) 1.0291(4)
C24 C -0.1357(6) 0.57132(19) 1.0762(4)
H13 H -0.0595 0.5530 1.0941
C25 C 0.2127(5) 0.59905(17) 1.1736(4)
N5 N -0.3118(5) 0.60753(18) 1.3142(4)
C28 C 0.2722(6) 0.53014(19) 1.2424(5)
H15 H 0.2459 0.5026 1.2118
H16 H 0.2862 0.5238 1.3054
C29 C -0.0318(5) 0.63507(18) 1.1704(4)
H17 H -0.0560 0.6669 1.1779
C33 C 0.4079(6) 0.5512(2) 1.2013(5)
H20 H 0.4772 0.5597 1.2471
H21 H 0.4543 0.5308 1.1597
C34 C -0.3613(6) 0.6255(2) 1.0206(4)
H22 H -0.4362 0.6441 1.0013
C35 C -0.2423(7) 0.5540(2) 1.0207(4)
H23 H -0.2384 0.5243 1.0017
C36 C 0.0377(7) 0.6833(2) 0.9434(4)
H24 H 0.0663 0.6560 0.9188
C38 C -0.0902(7) 0.7514(2) 0.9292(5)
C39 C -0.0519(7) 0.7120(2) 0.8944(5)
H26 H -0.0846 0.7037 0.8380
C40 C -0.0457(6) 0.7653(2) 1.0130(5)
H27 H -0.0719 0.7933 1.0355
loop_
_geom_bond_atom_site_label_1
_geom_bond_atom_site_label_2
_geom_bond_site_symmetry_1
_geom_bond_site_symmetry_2
Br1 C27 1_555 1_555
Br2 C18 1_555 1_555
Cl1 C16 1_555 1_555
Cl2 C7 1_555 1_555
Cl3 C42 1_555 1_555
Cl4 C38 1_555 1_555
O1 C5 1_555 1_555
O2 C8 1_555 1_555
N1 C2 1_555 1_555
O3 C12 1_555 1_555
O4 C13 1_555 1_555
C1 H1 1_555 1_555
C2 N2 1_555 1_555
C3 C12 1_555 1_555
C4 C1 1_555 1_555
H2 C4 1_555 1_555
C5 N4 1_555 1_555
C6 C1 1_555 1_555
C7 C22 1_555 1_555
C8 N1 1_555 1_555
N2 H3 1_555 1_555
C9 C11 1_555 1_555
C10 C19 1_555 1_555
C11 H4 1_555 1_555
C12 C17 1_555 1_555
C13 C14 1_555 1_555
C14 C25 1_555 1_555
N3 H5 1_555 1_555
N4 C25 1_555 1_555
C15 N2 1_555 1_555
H6 C15 1_555 1_555
H7 C15 1_555 1_555
C16 C3 1_555 1_555
C17 C1 1_555 1_555
C18 C34 1_555 1_555
C19 C5 1_555 1_555
H8 C19 1_555 1_555
C20 C6 1_555 1_555
H9 C20 1_555 1_555
C21 N1 1_555 1_555
H10 C21 1_555 1_555
H11 C21 1_555 1_555
C22 C13 1_555 1_555
C23 C6 1_555 1_555
H12 C23 1_555 1_555
C24 C9 1_555 1_555
H13 C24 1_555 1_555
C25 N3 1_555 1_555
C26 C16 1_555 1_555
H14 C26 1_555 1_555
N5 C10 1_555 1_555
C27 C30 1_555 1_555
C28 N4 1_555 1_555
H15 C28 1_555 1_555
H16 C28 1_555 1_555
C29 C9 1_555 1_555
H17 C29 1_555 1_555
C30 C23 1_555 1_555
H18 C30 1_555 1_555
C31 C4 1_555 1_555
N6 C31 1_555 1_555
C32 C20 1_555 1_555
H19 C32 1_555 1_555
C33 N3 1_555 1_555
H20 C33 1_555 1_555
H21 C33 1_555 1_555
C34 C11 1_555 1_555
H22 C34 1_555 1_555
C35 C18 1_555 1_555
H23 C35 1_555 1_555
C36 C22 1_555 1_555
H24 C36 1_555 1_555
C37 C3 1_555 1_555
H25 C37 1_555 1_555
C38 C39 1_555 1_555
C39 C36 1_555 1_555
H26 C39 1_555 1_555
C40 C7 1_555 1_555
H27 C40 1_555 1_555
C41 C37 1_555 1_555
H28 C41 1_555 1_555
C42 C26 1_555 1_555
C2 C17 1_555 1_555
C4 C8 1_555 1_555
C14 C29 1_555 1_555
C15 C21 1_555 1_555
C19 C29 1_555 1_555
C24 C35 1_555 1_555
C27 C32 1_555 1_555
C28 C33 1_555 1_555
C38 C40 1_555 1_555
C41 C42 1_555 1_555

#END
