
#######################################################################
#
#                 Cambridge Crystallographic Data Centre
#                                CCDC 
#
#######################################################################
#
# If this CIF has been generated from an entry in the Cambridge 
# Structural Database, then it will include bibliographic, chemical, 
# crystal, experimental, refinement or atomic coordinate data resulting 
# from the CCDC's data processing and validation procedures.
#
#######################################################################

data_USULAW
_chemical_formula_moiety         'C21 H29 F3'
_chemical_name_systematic        
4'-Propyl-4-(2,4,6-trifluorophenyl)-1,1'-bicyclohexyl
_symmetry_cell_setting           triclinic
_symmetry_space_group_name_H-M   'P -1'
_symmetry_Int_Tables_number      2
_space_group_name_Hall           '-P 1'
loop_
_symmetry_equiv_pos_site_id
_symmetry_equiv_pos_as_xyz
1 x,y,z
2 -x,-y,-z
_cell_length_a                   5.3626(3)
_cell_length_b                   7.0644(4)
_cell_length_c                   24.8576(10)
_cell_angle_alpha                90.32(3)
_cell_angle_beta                 95.03(3)
_cell_angle_gamma                108.57(3)
_cell_volume                     888.667
_exptl_crystal_colour            colorless
_exptl_crystal_description       plate
_chemical_melting_point          '88.0-89.0 deg.C'
_cell_formula_units_Z            2
loop_
_atom_site_label
_atom_site_type_symbol
_atom_site_fract_x
_atom_site_fract_y
_atom_site_fract_z
F1 F 0.0967(2) 0.37806(18) 0.06698(4)
F2 F 0.7135(2) 0.93320(19) -0.00062(5)
F3 F 0.9653(2) 0.62442(17) 0.15110(4)
C1 C 0.5247(4) 0.4909(3) 0.11222(7)
C2 C 0.3446(4) 0.5131(3) 0.07119(8)
C3 C 0.3982(4) 0.6603(3) 0.03322(8)
C4 C 0.6507(4) 0.7912(3) 0.03690(8)
C5 C 0.8444(4) 0.7835(3) 0.07608(8)
C6 C 0.7738(4) 0.6329(3) 0.11243(7)
C7 C 0.4539(4) 0.3270(3) 0.15309(7)
C8 C 0.6183(4) 0.1851(3) 0.15176(8)
C9 C 0.5316(4) 0.0186(3) 0.19177(8)
C10 C 0.5412(4) 0.0993(3) 0.24937(7)
C11 C 0.3786(4) 0.2418(3) 0.24976(8)
C12 C 0.4666(4) 0.4109(3) 0.21066(8)
C13 C 0.4657(4) -0.0685(3) 0.29028(7)
C14 C 0.5675(4) 0.0068(3) 0.34839(8)
C15 C 0.5044(4) -0.1636(3) 0.38793(8)
C16 C 0.2095(4) -0.2807(3) 0.38458(8)
C17 C 0.1087(4) -0.3555(3) 0.32609(8)
C18 C 0.1686(4) -0.1834(3) 0.28718(8)
C19 C 0.1426(4) -0.4481(3) 0.42557(8)
C20 C 0.2671(5) -0.6123(3) 0.41964(9)
C21 C 0.1898(5) -0.7699(4) 0.46196(9)
H1 H 0.270(4) 0.668(3) 0.0063(9)
H2 H 1.018(4) 0.873(3) 0.0778(8)
H3 H 0.266(4) 0.249(3) 0.1433(7)
H4 H 0.815(4) 0.264(3) 0.1607(7)
H5 H 0.606(4) 0.130(3) 0.1154(9)
H6 H 0.346(4) -0.063(3) 0.1801(7)
H7 H 0.640(4) -0.068(3) 0.1901(8)
H8 H 0.733(4) 0.181(3) 0.2594(8)
H9 H 0.198(4) 0.168(3) 0.2402(8)
H10 H 0.374(4) 0.295(3) 0.2849(9)
H11 H 0.651(4) 0.495(3) 0.2227(8)
H12 H 0.351(4) 0.497(3) 0.2110(8)
H13 H 0.558(4) -0.165(3) 0.2798(7)
H14 H 0.761(4) 0.077(3) 0.3511(7)
H15 H 0.487(4) 0.105(3) 0.3591(8)
H16 H 0.565(4) -0.116(3) 0.4250(9)
H17 H 0.604(4) -0.258(3) 0.3793(7)
H18 H 0.120(4) -0.185(3) 0.3950(8)
H19 H -0.079(4) -0.431(3) 0.3240(7)
H20 H 0.195(4) -0.450(3) 0.3136(8)
H21 H 0.069(4) -0.082(3) 0.2963(8)
H22 H 0.104(4) -0.231(3) 0.2512(9)
H23 H -0.056(4) -0.511(3) 0.4243(8)
H24 H 0.190(4) -0.386(3) 0.4642(9)
H25 H 0.454(5) -0.554(3) 0.4221(8)
H26 H 0.218(4) -0.678(3) 0.3813(10)
H27 H -0.006(5) -0.837(4) 0.4610(10)
H28 H 0.278(5) -0.875(4) 0.4592(10)
H29 H 0.234(5) -0.715(4) 0.4992(11)
loop_
_geom_bond_atom_site_label_1
_geom_bond_atom_site_label_2
_geom_bond_site_symmetry_1
_geom_bond_site_symmetry_2
F1 C2 1_555 1_555
F2 C4 1_555 1_555
F3 C6 1_555 1_555
C1 C2 1_555 1_555
C2 C3 1_555 1_555
C3 C4 1_555 1_555
C4 C5 1_555 1_555
C5 C6 1_555 1_555
C6 C1 1_555 1_555
C7 C1 1_555 1_555
C8 C7 1_555 1_555
C9 C8 1_555 1_555
C10 C9 1_555 1_555
C11 C10 1_555 1_555
C12 C7 1_555 1_555
C13 C10 1_555 1_555
C14 C13 1_555 1_555
C15 C14 1_555 1_555
C16 C15 1_555 1_555
C17 C16 1_555 1_555
C18 C13 1_555 1_555
C19 C16 1_555 1_555
C20 C19 1_555 1_555
C21 C20 1_555 1_555
H1 C3 1_555 1_555
H2 C5 1_555 1_555
H3 C7 1_555 1_555
H4 C8 1_555 1_555
H5 C8 1_555 1_555
H6 C9 1_555 1_555
H7 C9 1_555 1_555
H8 C10 1_555 1_555
H9 C11 1_555 1_555
H10 C11 1_555 1_555
H11 C12 1_555 1_555
H12 C12 1_555 1_555
H13 C13 1_555 1_555
H14 C14 1_555 1_555
H15 C14 1_555 1_555
H16 C15 1_555 1_555
H17 C15 1_555 1_555
H18 C16 1_555 1_555
H19 C17 1_555 1_555
H20 C17 1_555 1_555
H21 C18 1_555 1_555
H22 C18 1_555 1_555
H23 C19 1_555 1_555
H24 C19 1_555 1_555
H25 C20 1_555 1_555
H26 C20 1_555 1_555
H27 C21 1_555 1_555
H28 C21 1_555 1_555
H29 C21 1_555 1_555
C11 C12 1_555 1_555
C17 C18 1_555 1_555

#END
