
#######################################################################
#
#                 Cambridge Crystallographic Data Centre
#                                CCDC 
#
#######################################################################
#
# If this CIF has been generated from an entry in the Cambridge 
# Structural Database, then it will include bibliographic, chemical, 
# crystal, experimental, refinement or atomic coordinate data resulting 
# from the CCDC's data processing and validation procedures.
#
#######################################################################

data_UTEXOI
_chemical_formula_moiety         'C19 H17 N2 S1 1+,I1 1-,C1 H1 Cl3'
_chemical_name_systematic        
'1-methyl-4-((3-methyl-1,3-benzothiazol-2(3H)-ylidene)methyl)quinolinium iodide chloroform solvate'
_symmetry_cell_setting           orthorhombic
_symmetry_space_group_name_H-M   'P n m a'
_symmetry_Int_Tables_number      62
_space_group_name_Hall           '-P 2ac 2n'
loop_
_symmetry_equiv_pos_site_id
_symmetry_equiv_pos_as_xyz
1 x,y,z
2 1/2-x,-y,1/2+z
3 -x,1/2+y,-z
4 1/2+x,1/2-y,1/2-z
5 -x,-y,-z
6 1/2+x,y,1/2-z
7 x,1/2-y,z
8 1/2-x,1/2+y,1/2+z
_cell_length_a                   23.207(4)
_cell_length_b                   6.8396(13)
_cell_length_c                   13.769(3)
_cell_angle_alpha                90
_cell_angle_beta                 90
_cell_angle_gamma                90
_cell_volume                     2185.51
_exptl_crystal_colour            brown
_exptl_crystal_description       block
_cell_formula_units_Z            4
loop_
_atom_site_label
_atom_site_type_symbol
_atom_site_fract_x
_atom_site_fract_y
_atom_site_fract_z
C1 C 0.8307(2) 0.2500 1.2227(3)
H1 H 0.7958 0.2500 1.2557
C2 C 0.8819(2) 0.2500 1.2757(3)
H2 H 0.8808 0.2500 1.3432
C3 C 0.93354(18) 0.2500 1.2284(3)
H3 H 0.9678 0.2500 1.2633
C4 C 0.93428(16) 0.2500 1.1275(3)
C5 C 0.88303(16) 0.2500 1.0751(3)
C6 C 0.83060(18) 0.2500 1.1231(3)
H4 H 0.7961 0.2500 1.0886
C7 C 0.94885(17) 0.2500 0.9473(3)
C8 C 0.84454(17) 0.2500 0.9076(3)
C9 C 0.96665(17) 0.2500 0.8521(3)
H5 H 0.9372 0.2500 0.8063
C10 C 1.02315(16) 0.2500 0.8136(3)
C11 C 1.07352(16) 0.2500 0.8687(3)
H6 H 1.0708 0.2500 0.9361
C12 C 1.12694(18) 0.2500 0.8264(3)
H7 H 1.1592 0.2500 0.8665
C13 C 1.19491(19) 0.2500 0.6919(4)
C14 C 1.08823(19) 0.2500 0.6697(3)
C15 C 1.03126(17) 0.2500 0.7090(3)
C16 C 0.9855(2) 0.2500 0.6426(3)
H8 H 0.9480 0.2500 0.6664
C17 C 0.9937(3) 0.2500 0.5439(4)
H9 H 0.9623 0.2500 0.5019
C18 C 1.0496(3) 0.2500 0.5077(4)
H10 H 1.0556 0.2500 0.4409
C19 C 1.0957(2) 0.2500 0.5688(4)
H11 H 1.1327 0.2500 0.5431
N1 N 0.89264(13) 0.2500 0.9758(2)
N2 N 1.13479(14) 0.2500 0.7309(3)
S1 S 0.99301(4) 0.2500 1.04989(7)
C20 C 0.83608(18) 0.7500 0.7334(3)
H12 H 0.8100 0.7500 0.7894
Cl1 Cl 0.90684(6) 0.7500 0.77580(12)
Cl2 Cl 0.82217(4) 0.95810(14) 0.66394(7)
Cl2F Cl 0.82217(4) 0.54190(14) 0.66394(7)
I1 I 0.247288(13) 0.2500 0.02862(2)
H13? H 0.8568 0.3050 0.8469
H14? H 0.8135 0.3267 0.9336
H15? H 0.8316 0.1183 0.8974
H16? H 1.1994 0.3563 0.6470
H17? H 1.2022 0.1286 0.6592
H18? H 1.2217 0.2652 0.7445
loop_
_geom_bond_atom_site_label_1
_geom_bond_atom_site_label_2
_geom_bond_site_symmetry_1
_geom_bond_site_symmetry_2
C1 H1 1_555 1_555
C2 C1 1_555 1_555
H2 C2 1_555 1_555
C3 C2 1_555 1_555
H3 C3 1_555 1_555
C4 C3 1_555 1_555
C5 C4 1_555 1_555
C6 C1 1_555 1_555
H4 C6 1_555 1_555
C7 C9 1_555 1_555
C8 N1 1_555 1_555
C9 H5 1_555 1_555
C10 C9 1_555 1_555
C11 C10 1_555 1_555
H6 C11 1_555 1_555
C12 C11 1_555 1_555
H7 C12 1_555 1_555
C13 N2 1_555 1_555
C14 C15 1_555 1_555
C15 C10 1_555 1_555
C16 C15 1_555 1_555
H8 C16 1_555 1_555
C17 C16 1_555 1_555
H9 C17 1_555 1_555
C18 C17 1_555 1_555
H10 C18 1_555 1_555
C19 C14 1_555 1_555
H11 C19 1_555 1_555
N1 C5 1_555 1_555
N2 C12 1_555 1_555
S1 C4 1_555 1_555
C20 H12 1_555 1_555
Cl1 C20 1_555 1_555
Cl2 C20 1_555 1_555
Cl2F C20 1_555 1_555
C5 C6 1_555 1_555
C7 N1 1_555 1_555
C7 S1 1_555 1_555
C14 N2 1_555 1_555
C18 C19 1_555 1_555

#END
