
#######################################################################
#
#                 Cambridge Crystallographic Data Centre
#                                CCDC 
#
#######################################################################
#
# If this CIF has been generated from an entry in the Cambridge 
# Structural Database, then it will include bibliographic, chemical, 
# crystal, experimental, refinement or atomic coordinate data resulting 
# from the CCDC's data processing and validation procedures.
#
#######################################################################

data_UTOZIN
_chemical_formula_moiety         'C60 H45 B5,0.5(C6 H14)'
_chemical_name_systematic        
"Tetra-\mH-5-(2'-((3'-((2'-((2'-boranylbiphenyl-2-yl)boranyl)biphenyl-2-yl)boranyl)biphenyl-2-yl)boranyl)biphenyl-2-yl)-5H-dibenzo[b,d]borole n-hexane solvate"
_symmetry_cell_setting           triclinic
_symmetry_space_group_name_H-M   'P -1'
_symmetry_Int_Tables_number      2
_space_group_name_Hall           '-P 1'
loop_
_symmetry_equiv_pos_site_id
_symmetry_equiv_pos_as_xyz
1 x,y,z
2 -x,-y,-z
_cell_length_a                   12.8597(7)
_cell_length_b                   13.1616(7)
_cell_length_c                   14.4382(8)
_cell_angle_alpha                84.743(2)
_cell_angle_beta                 78.404(1)
_cell_angle_gamma                78.524(1)
_cell_volume                     2342.6
_exptl_crystal_colour            yellow
_exptl_crystal_description       plate
_cell_formula_units_Z            2
loop_
_atom_site_label
_atom_site_type_symbol
_atom_site_fract_x
_atom_site_fract_y
_atom_site_fract_z
B1 B 0.0569(4) 0.9316(4) 0.1406(4)
H1 H 0.0119 0.9652 0.2026
H2 H 0.1413 0.9544 0.0830
B2 B 0.1851(3) 0.8474(3) 0.1036(2)
H3 H 0.1192 0.8417 0.1690
B3 B 0.1712(2) 0.6598(2) 0.2607(2)
H4 H 0.252(2) 0.659(2) 0.1980(19)
B4 B 0.2959(2) 0.5689(2) 0.2313(2)
H5 H 0.216(2) 0.576(2) 0.2973(18)
B5 B 0.3175(3) 0.3683(3) 0.3758(2)
C1 C -0.0367(3) 0.9156(3) 0.0940(3)
C2 C -0.0223(3) 0.8464(3) 0.0225(3)
C3 C -0.1131(3) 0.8364(3) -0.0138(3)
H6 H -0.1050 0.7897 -0.0623
C4 C -0.2142(3) 0.8934(4) 0.0202(3)
H7 H -0.2744 0.8857 -0.0056
C5 C -0.2287(3) 0.9614(4) 0.0909(3)
H8 H -0.2982 1.0001 0.1144
C6 C -0.1399(4) 0.9717(8) 0.1268(6)
H9 H -0.1492 1.0185 0.1754
C13 C 0.1841(2) 0.7751(2) 0.0233(2)
C14 C 0.0882(2) 0.7821(2) -0.0120(2)
C15 C 0.0927(3) 0.7215(3) -0.0876(2)
H14 H 0.0303 0.7271 -0.1150
C16 C 0.1850(3) 0.6538(3) -0.1235(2)
H15 H 0.1858 0.6136 -0.1752
C17 C 0.2764(3) 0.6439(3) -0.0847(3)
H16 H 0.3397 0.5956 -0.1079
C18 C 0.2744(3) 0.7043(3) -0.0129(2)
H17 H 0.3376 0.6976 0.0135
C19 C 0.2919(2) 0.8535(2) 0.1408(2)
C20 C 0.3040(2) 0.8441(2) 0.2366(2)
C21 C 0.4038(2) 0.8531(2) 0.2578(2)
H18 H 0.4127 0.8454 0.3219
C22 C 0.4887(2) 0.8727(2) 0.1885(2)
H19 H 0.5549 0.8790 0.2051
C23 C 0.4777(2) 0.8832(2) 0.0942(2)
H20 H 0.5359 0.8971 0.0458
C24 C 0.3806(2) 0.8732(2) 0.0719(2)
H21 H 0.3736 0.8800 0.0073
C25 C 0.1546(2) 0.7501(2) 0.32938(19)
C26 C 0.2154(2) 0.8304(2) 0.31833(19)
C27 C 0.1941(2) 0.9028(2) 0.3879(2)
H22 H 0.2360 0.9558 0.3807
C28 C 0.1133(3) 0.8991(3) 0.4671(2)
H23 H 0.0997 0.9497 0.5131
C29 C 0.0525(2) 0.8218(2) 0.4789(2)
H24 H -0.0031 0.8186 0.5329
C30 C 0.0738(2) 0.7487(2) 0.41095(19)
H25 H 0.0320 0.6955 0.4199
C31 C 0.0767(2) 0.6325(2) 0.21786(18)
C32 C 0.0902(2) 0.5478(2) 0.16060(18)
C33 C -0.0026(2) 0.5285(2) 0.1319(2)
H26 H 0.0040 0.4709 0.0946
C34 C -0.1023(2) 0.5910(3) 0.1565(2)
H27 H -0.1631 0.5752 0.1367
C35 C -0.1153(2) 0.6759(2) 0.2094(2)
H28 H -0.1837 0.7200 0.2246
C36 C -0.0261(2) 0.6954(2) 0.24000(19)
H29 H -0.0347 0.7534 0.2773
C37 C 0.2921(2) 0.4878(2) 0.16014(18)
C38 C 0.1967(2) 0.4803(2) 0.12817(18)
C39 C 0.2053(2) 0.4046(2) 0.0628(2)
H30 H 0.1426 0.3985 0.0401
C40 C 0.3007(3) 0.3392(2) 0.0304(2)
H31 H 0.3031 0.2895 -0.0140
C41 C 0.3933(2) 0.3458(2) 0.0626(2)
H32 H 0.4595 0.3004 0.0410
C42 C 0.3882(2) 0.4190(2) 0.12611(19)
H33 H 0.4521 0.4234 0.1479
C43 C 0.4014(2) 0.5780(2) 0.26757(18)
C44 C 0.4095(2) 0.5738(2) 0.36410(19)
C45 C 0.5031(2) 0.5932(2) 0.3886(2)
H34 H 0.5066 0.5938 0.4536
C46 C 0.5908(2) 0.6116(2) 0.3206(2)
H35 H 0.6543 0.6232 0.3388
C47 C 0.5849(2) 0.6129(2) 0.2261(2)
H36 H 0.6450 0.6242 0.1787
C48 C 0.4912(2) 0.5977(2) 0.2006(2)
H37 H 0.4877 0.6008 0.1353
C49 C 0.2759(2) 0.4597(2) 0.44451(19)
C50 C 0.3206(2) 0.5498(2) 0.44169(19)
C51 C 0.2815(2) 0.6189(2) 0.5135(2)
H38 H 0.3116 0.6796 0.5115
C52 C 0.1991(2) 0.6005(3) 0.5883(2)
H39 H 0.1743 0.6478 0.6374
C53 C 0.1535(2) 0.5140(3) 0.5909(2)
H40 H 0.0969 0.5015 0.6415
C54 C 0.1904(2) 0.4454(2) 0.5197(2)
H41 H 0.1572 0.3867 0.5214
C55 C 0.2432(3) 0.3062(2) 0.3371(2)
C56 C 0.3092(3) 0.2191(2) 0.2905(2)
C57 C 0.2656(3) 0.1522(3) 0.2486(2)
H42 H 0.3106 0.0935 0.2185
C58 C 0.1553(3) 0.1712(3) 0.2507(3)
H43 H 0.1247 0.1250 0.2222
C59 C 0.0897(3) 0.2561(3) 0.2936(2)
H44 H 0.0144 0.2686 0.2934
C60 C 0.1329(3) 0.3248(3) 0.3379(2)
H45 H 0.0871 0.3831 0.3679
C61 C 0.4331(3) 0.3059(2) 0.3398(2)
C62 C 0.4229(3) 0.2171(2) 0.2928(2)
C63 C 0.5115(3) 0.1463(3) 0.2584(3)
H46 H 0.5043 0.0878 0.2278
C64 C 0.6134(3) 0.1608(3) 0.2686(3)
H47 H 0.6756 0.1122 0.2435
C65 C 0.6257(3) 0.2421(3) 0.3131(2)
H48 H 0.6957 0.2488 0.3208
C66 C 0.5355(3) 0.3169(2) 0.3482(2)
H49 H 0.5447 0.3752 0.3778
C67 C 0.7384(3) 0.8815(2) 0.4344(2)
H50 H 0.7733 0.8249 0.3927
H51 H 0.7545 0.8628 0.4979
H52 H 0.7656 0.9449 0.4093
C68 C 0.6212(6) 0.8994(6) 0.4393(5)
H53 H 0.5939 0.8361 0.4675
H54 H 0.6061 0.9115 0.3743
C69 C 0.5604(6) 0.9913(6) 0.4973(5)
H55 H 0.5759 0.9794 0.5622
H56 H 0.5871 1.0547 0.4687
C67A C 0.2616(3) 1.1185(2) 0.5656(2)
H50A H 0.2267 1.1751 0.6073
H51A H 0.2455 1.1372 0.5021
H52A H 0.2344 1.0551 0.5907
C68A C 0.3788(6) 1.1006(6) 0.5607(5)
H53A H 0.4061 1.1639 0.5325
H54A H 0.3939 1.0885 0.6257
C69A C 0.4396(6) 1.0087(6) 0.5027(5)
H55A H 0.4241 1.0206 0.4378
H56A H 0.4129 0.9453 0.5313
C7? C 0.0739(9) 0.8851(10) 0.1245(9)
C8? C 0.0206(8) 0.8589(9) 0.0572(8)
C9? C -0.0910(9) 0.8955(9) 0.0612(8)
H10? H -0.1264 0.8753 0.0161
C10? C -0.1497(13) 0.962(3) 0.132(2)
H11? H -0.2249 0.9869 0.1356
C11? C -0.0962(8) 0.9910(8) 0.1985(7)
H12? H -0.1362 1.0333 0.2483
C12? C 0.0175(8) 0.9578(9) 0.1916(8)
H13? H 0.0548 0.9843 0.2318
C70? C 0.7262(8) 0.8561(8) 0.4113(7)
C71? C 0.6532(6) 0.9449(6) 0.4715(6)
C72? C 0.5355(6) 0.9544(6) 0.4733(6)
H57? H 0.6661 0.9330 0.5373
H58? H 0.6750 1.0116 0.4461
H59? H 0.5126 0.8895 0.5027
H60? H 0.5232 0.9615 0.4073
H61? H 0.8021 0.8554 0.4131
H62? H 0.7153 0.8678 0.3456
H63? H 0.7073 0.7894 0.4372
loop_
_geom_bond_atom_site_label_1
_geom_bond_atom_site_label_2
_geom_bond_site_symmetry_1
_geom_bond_site_symmetry_2
B1 H1 1_555 1_555
H2 B1 1_555 1_555
B2 H2 1_555 1_555
H3 B1 1_555 1_555
B3 H4 1_555 1_555
H4 B4 1_555 1_555
B4 H5 1_555 1_555
H5 B3 1_555 1_555
B5 C49 1_555 1_555
C1 B1 1_555 1_555
C2 C1 1_555 1_555
C3 C2 1_555 1_555
H6 C3 1_555 1_555
C4 C3 1_555 1_555
H7 C4 1_555 1_555
C5 C4 1_555 1_555
H8 C5 1_555 1_555
C6 C1 1_555 1_555
H9 C6 1_555 1_555
C13 B2 1_555 1_555
C14 C2 1_555 1_555
C15 C14 1_555 1_555
H14 C15 1_555 1_555
C16 C15 1_555 1_555
H15 C16 1_555 1_555
C17 C16 1_555 1_555
H16 C17 1_555 1_555
C18 C13 1_555 1_555
H17 C18 1_555 1_555
C19 B2 1_555 1_555
C20 C19 1_555 1_555
C21 C20 1_555 1_555
H18 C21 1_555 1_555
C22 C21 1_555 1_555
H19 C22 1_555 1_555
C23 C22 1_555 1_555
H20 C23 1_555 1_555
C24 C19 1_555 1_555
H21 C24 1_555 1_555
C25 B3 1_555 1_555
C26 C20 1_555 1_555
C27 C26 1_555 1_555
H22 C27 1_555 1_555
C28 C27 1_555 1_555
H23 C28 1_555 1_555
C29 C28 1_555 1_555
H24 C29 1_555 1_555
C30 C25 1_555 1_555
H25 C30 1_555 1_555
C31 B3 1_555 1_555
C32 C31 1_555 1_555
C33 C32 1_555 1_555
H26 C33 1_555 1_555
C34 C33 1_555 1_555
H27 C34 1_555 1_555
C35 C34 1_555 1_555
H28 C35 1_555 1_555
C36 C31 1_555 1_555
H29 C36 1_555 1_555
C37 B4 1_555 1_555
C38 C32 1_555 1_555
C39 C38 1_555 1_555
H30 C39 1_555 1_555
C40 C39 1_555 1_555
H31 C40 1_555 1_555
C41 C40 1_555 1_555
H32 C41 1_555 1_555
C42 C37 1_555 1_555
H33 C42 1_555 1_555
C43 B4 1_555 1_555
C44 C43 1_555 1_555
C45 C44 1_555 1_555
H34 C45 1_555 1_555
C46 C45 1_555 1_555
H35 C46 1_555 1_555
C47 C46 1_555 1_555
H36 C47 1_555 1_555
C48 C43 1_555 1_555
H37 C48 1_555 1_555
C49 C50 1_555 1_555
C50 C44 1_555 1_555
C51 C50 1_555 1_555
H38 C51 1_555 1_555
C52 C51 1_555 1_555
H39 C52 1_555 1_555
C53 C52 1_555 1_555
H40 C53 1_555 1_555
C54 C49 1_555 1_555
H41 C54 1_555 1_555
C55 B5 1_555 1_555
C56 C55 1_555 1_555
C57 C56 1_555 1_555
H42 C57 1_555 1_555
C58 C57 1_555 1_555
H43 C58 1_555 1_555
C59 C58 1_555 1_555
H44 C59 1_555 1_555
C60 C55 1_555 1_555
H45 C60 1_555 1_555
C61 B5 1_555 1_555
C62 C56 1_555 1_555
C63 C62 1_555 1_555
H46 C63 1_555 1_555
C64 C63 1_555 1_555
H47 C64 1_555 1_555
C65 C64 1_555 1_555
H48 C65 1_555 1_555
C66 C61 1_555 1_555
H49 C66 1_555 1_555
C67 H50 1_555 1_555
H51 C67 1_555 1_555
H52 C67 1_555 1_555
C68 C67 1_555 1_555
H53 C68 1_555 1_555
H54 C68 1_555 1_555
C69 C68 1_555 1_555
H55 C69 1_555 1_555
H56 C69 1_555 1_555
C67A H50A 1_555 1_555
H51A C67A 1_555 1_555
H52A C67A 1_555 1_555
C68A C67A 1_555 1_555
H53A C68A 1_555 1_555
H54A C68A 1_555 1_555
C69A C69 1_555 1_555
H55A C69A 1_555 1_555
H56A C69A 1_555 1_555
B2 H3 1_555 1_555
C5 C6 1_555 1_555
C13 C14 1_555 1_555
C17 C18 1_555 1_555
C23 C24 1_555 1_555
C25 C26 1_555 1_555
C29 C30 1_555 1_555
C35 C36 1_555 1_555
C37 C38 1_555 1_555
C41 C42 1_555 1_555
C47 C48 1_555 1_555
C53 C54 1_555 1_555
C59 C60 1_555 1_555
C61 C62 1_555 1_555
C65 C66 1_555 1_555
C68A C69A 1_555 1_555

#END
