
#######################################################################
#
#                 Cambridge Crystallographic Data Centre
#                                CCDC 
#
#######################################################################
#
# If this CIF has been generated from an entry in the Cambridge 
# Structural Database, then it will include bibliographic, chemical, 
# crystal, experimental, refinement or atomic coordinate data resulting 
# from the CCDC's data processing and validation procedures.
#
#######################################################################

data_UTURIM
_chemical_formula_moiety         'C38 H40 N2 O4 Se2 2+,2(C7 H7 O3 S1 1-)'
_chemical_name_systematic        
'2-(2,4-bis(3,4-dimethoxyphenyl)-3-(3-ethyl-1,3-benzoselenazol-3-ium-2-yl)cyclobutyl)-3-ethyl-1,3-benzoselenazol-3-ium bis(4-methylbenzenesulfonate)'
_symmetry_cell_setting           monoclinic
_symmetry_space_group_name_H-M   'P 21/n'
_symmetry_Int_Tables_number      14
_space_group_name_Hall           '-P 2yn'
loop_
_symmetry_equiv_pos_site_id
_symmetry_equiv_pos_as_xyz
1 x,y,z
2 1/2-x,1/2+y,1/2-z
3 -x,-y,-z
4 1/2+x,1/2-y,1/2+z
_cell_length_a                   7.5964(7)
_cell_length_b                   29.113(3)
_cell_length_c                   10.9942(9)
_cell_angle_alpha                90
_cell_angle_beta                 96.454(4)
_cell_angle_gamma                90
_cell_volume                     2416
_exptl_crystal_colour            'light orange'
_exptl_crystal_description       prism
_cell_formula_units_Z            2
loop_
_atom_site_label
_atom_site_type_symbol
_atom_site_fract_x
_atom_site_fract_y
_atom_site_fract_z
Se1 Se 0.34533(7) 0.075172(16) 0.53394(5)
O1 O 0.0884(4) -0.18240(9) 0.5627(3)
O2 O 0.1739(4) -0.18692(9) 0.7934(3)
N1 N 0.2308(4) 0.05514(11) 0.3024(3)
C1 C 0.2259(6) 0.03816(13) 0.4127(4)
C2 C 0.1148(6) -0.00103(14) 0.4415(4)
H1 H 0.1423 -0.0293 0.3953
C3 C 0.1035(7) -0.01146(14) 0.5783(4)
H2 H 0.1684 0.0128 0.6299
C4 C 0.1538(6) -0.05833(13) 0.6299(4)
C5 C 0.1120(6) -0.09882(12) 0.5613(4)
H3 H 0.0776 -0.0972 0.4756
C6 C 0.1219(6) -0.14071(13) 0.6208(4)
C7 C 0.1745(6) -0.14370(14) 0.7461(4)
C8 C 0.2224(6) -0.10448(14) 0.8113(4)
H4 H 0.2634 -0.1062 0.8960
C9 C 0.2104(5) -0.06207(13) 0.7517(4)
H5 H 0.2426 -0.0350 0.7973
C10 C 0.0135(7) -0.18156(14) 0.4389(4)
H6 H -0.0043 -0.2131 0.4088
H7 H 0.0937 -0.1654 0.3895
H8 H -0.1007 -0.1656 0.4325
C11 C 0.2042(8) -0.19114(15) 0.9235(4)
H9 H 0.2018 -0.2237 0.9462
H10 H 0.1114 -0.1746 0.9607
H11 H 0.3201 -0.1781 0.9528
C12 C 0.3806(6) 0.11591(14) 0.4066(4)
C13 C 0.3084(6) 0.09883(14) 0.2964(4)
C14 C 0.3043(6) 0.12495(14) 0.1880(5)
H12 H 0.2545 0.1133 0.1110
C15 C 0.3768(6) 0.16844(15) 0.2003(5)
H13 H 0.3746 0.1874 0.1298
C16 C 0.4529(6) 0.18539(15) 0.3119(5)
H14 H 0.5036 0.2153 0.3157
C17 C 0.4562(6) 0.15966(15) 0.4175(5)
H15 H 0.5076 0.1712 0.4942
C18 C 0.1699(6) 0.02840(13) 0.1895(4)
H16 H 0.1175 0.0496 0.1249
H17 H 0.0771 0.0063 0.2075
C19 C 0.3215(6) 0.00285(16) 0.1446(4)
H18 H 0.2788 -0.0145 0.0707
H19 H 0.3723 -0.0184 0.2082
H20 H 0.4124 0.0248 0.1255
Se1B Se -0.34533(7) -0.075172(16) 0.46606(5)
O1B O -0.0884(4) 0.18240(9) 0.4373(3)
O2B O -0.1739(4) 0.18692(9) 0.2066(3)
N1B N -0.2308(4) -0.05514(11) 0.6976(3)
C1B C -0.2259(6) -0.03816(13) 0.5873(4)
C2B C -0.1148(6) 0.00103(14) 0.5585(4)
H1B H -0.1423 0.0293 0.6047
C3B C -0.1035(7) 0.01146(14) 0.4217(4)
H2B H -0.1684 -0.0128 0.3701
C4B C -0.1538(6) 0.05833(13) 0.3701(4)
C5B C -0.1120(6) 0.09882(12) 0.4387(4)
H3B H -0.0776 0.0972 0.5244
C6B C -0.1219(6) 0.14071(13) 0.3792(4)
C7B C -0.1745(6) 0.14370(14) 0.2539(4)
C8B C -0.2224(6) 0.10448(14) 0.1887(4)
H4B H -0.2634 0.1062 0.1040
C9B C -0.2104(5) 0.06207(13) 0.2483(4)
H5B H -0.2426 0.0350 0.2027
C10B C -0.0135(7) 0.18156(14) 0.5611(4)
H6B H 0.0043 0.2131 0.5912
H7B H -0.0937 0.1654 0.6105
H8B H 0.1007 0.1656 0.5675
C11B C -0.2042(8) 0.19114(15) 0.0765(4)
H9B H -0.2018 0.2237 0.0538
H10B H -0.1114 0.1746 0.0393
H11B H -0.3201 0.1781 0.0472
C12B C -0.3806(6) -0.11591(14) 0.5934(4)
C13B C -0.3084(6) -0.09883(14) 0.7036(4)
C14B C -0.3043(6) -0.12495(14) 0.8120(5)
H12B H -0.2545 -0.1133 0.8890
C15B C -0.3768(6) -0.16844(15) 0.7997(5)
H13B H -0.3746 -0.1874 0.8702
C16B C -0.4529(6) -0.18539(15) 0.6881(5)
H14B H -0.5036 -0.2153 0.6843
C17B C -0.4562(6) -0.15966(15) 0.5825(5)
H15B H -0.5076 -0.1712 0.5058
C18B C -0.1699(6) -0.02840(13) 0.8105(4)
H16B H -0.1175 -0.0496 0.8751
H17B H -0.0771 -0.0063 0.7925
C19B C -0.3215(6) -0.00285(16) 0.8554(4)
H18B H -0.2788 0.0145 0.9293
H19B H -0.3723 0.0184 0.7918
H20B H -0.4124 -0.0248 0.8745
S1 S 0.08238(16) 0.08675(3) 0.85085(11)
O3 O -0.024(2) 0.1038(5) 0.9483(13)
O4 O -0.019(2) 0.0850(5) 0.7327(8)
O5 O 0.1733(12) 0.0433(3) 0.884(2)
C20 C 0.2497(6) 0.12752(13) 0.8381(4)
C21 C 0.4208(6) 0.11465(14) 0.8235(4)
H21 H 0.4509 0.0830 0.8270
C22 C 0.5504(6) 0.14662(15) 0.8040(4)
H22 H 0.6671 0.1366 0.7942
C23 C 0.5102(7) 0.19304(15) 0.7987(4)
C24 C 0.3400(6) 0.20640(14) 0.8167(4)
H23 H 0.3109 0.2381 0.8155
C25 C 0.2120(6) 0.17452(14) 0.8362(4)
H24 H 0.0964 0.1846 0.8486
C26 C 0.6460(6) 0.22831(15) 0.7745(5)
H25 H 0.5934 0.2590 0.7753
H26 H 0.6862 0.2226 0.6942
H27 H 0.7471 0.2264 0.8380
O6? O 0.013(2) 0.0973(4) 0.9634(10)
O7? O -0.0488(19) 0.0929(5) 0.7419(9)
O8? O 0.1763(12) 0.0425(3) 0.850(2)
loop_
_geom_bond_atom_site_label_1
_geom_bond_atom_site_label_2
_geom_bond_site_symmetry_1
_geom_bond_site_symmetry_2
Se1 C1 1_555 1_555
O1 C6 1_555 1_555
O2 C7 1_555 1_555
N1 C1 1_555 1_555
C1 C2 1_555 1_555
C2 H1 1_555 1_555
C3 C2 1_555 1_555
H2 C3 1_555 1_555
C4 C3 1_555 1_555
C5 C4 1_555 1_555
H3 C5 1_555 1_555
C6 C5 1_555 1_555
C7 C6 1_555 1_555
C8 C7 1_555 1_555
H4 C8 1_555 1_555
C9 C4 1_555 1_555
H5 C9 1_555 1_555
C10 O1 1_555 1_555
H6 C10 1_555 1_555
H7 C10 1_555 1_555
H8 C10 1_555 1_555
C11 O2 1_555 1_555
H9 C11 1_555 1_555
H10 C11 1_555 1_555
H11 C11 1_555 1_555
C12 Se1 1_555 1_555
C13 N1 1_555 1_555
C14 C13 1_555 1_555
H12 C14 1_555 1_555
C15 C14 1_555 1_555
H13 C15 1_555 1_555
C16 C15 1_555 1_555
H14 C16 1_555 1_555
C17 C12 1_555 1_555
H15 C17 1_555 1_555
C18 N1 1_555 1_555
H16 C18 1_555 1_555
H17 C18 1_555 1_555
C19 C18 1_555 1_555
H18 C19 1_555 1_555
H19 C19 1_555 1_555
H20 C19 1_555 1_555
S1 O3 1_555 1_555
O4 S1 1_555 1_555
O5 S1 1_555 1_555
C20 S1 1_555 1_555
C21 C20 1_555 1_555
H21 C21 1_555 1_555
C22 C21 1_555 1_555
H22 C22 1_555 1_555
C23 C22 1_555 1_555
C24 C23 1_555 1_555
H23 C24 1_555 1_555
C25 C20 1_555 1_555
H24 C25 1_555 1_555
C26 C23 1_555 1_555
H25 C26 1_555 1_555
H26 C26 1_555 1_555
H27 C26 1_555 1_555
Se1B C1B 1_555 1_555
O1B C6B 1_555 1_555
O2B C7B 1_555 1_555
N1B C1B 1_555 1_555
C1B C2B 1_555 1_555
C2B C3 1_555 1_555
H1B C2B 1_555 1_555
C3B C2 1_555 1_555
H2B C3B 1_555 1_555
C4B C3B 1_555 1_555
C5B C4B 1_555 1_555
H3B C5B 1_555 1_555
C6B C5B 1_555 1_555
C7B C6B 1_555 1_555
C8B C7B 1_555 1_555
H4B C8B 1_555 1_555
C9B C4B 1_555 1_555
H5B C9B 1_555 1_555
C10B O1B 1_555 1_555
H6B C10B 1_555 1_555
H7B C10B 1_555 1_555
H8B C10B 1_555 1_555
C11B O2B 1_555 1_555
H9B C11B 1_555 1_555
H10B C11B 1_555 1_555
H11B C11B 1_555 1_555
C12B Se1B 1_555 1_555
C13B N1B 1_555 1_555
C14B C13B 1_555 1_555
H12B C14B 1_555 1_555
C15B C14B 1_555 1_555
H13B C15B 1_555 1_555
C16B C15B 1_555 1_555
H14B C16B 1_555 1_555
C17B C12B 1_555 1_555
H15B C17B 1_555 1_555
C18B N1B 1_555 1_555
H16B C18B 1_555 1_555
H17B C18B 1_555 1_555
C19B C18B 1_555 1_555
H18B C19B 1_555 1_555
H19B C19B 1_555 1_555
H20B C19B 1_555 1_555
C8 C9 1_555 1_555
C12 C13 1_555 1_555
C16 C17 1_555 1_555
C24 C25 1_555 1_555
C2B C3B 1_555 1_555
C8B C9B 1_555 1_555
C12B C13B 1_555 1_555
C16B C17B 1_555 1_555

#END
