
#######################################################################
#
#                 Cambridge Crystallographic Data Centre
#                                CCDC 
#
#######################################################################
#
# If this CIF has been generated from an entry in the Cambridge 
# Structural Database, then it will include bibliographic, chemical, 
# crystal, experimental, refinement or atomic coordinate data resulting 
# from the CCDC's data processing and validation procedures.
#
#######################################################################

data_UTUROS
_chemical_formula_moiety         
'C19 H20 N1 O2 Se1 1+,C7 H7 O3 S1 1-,0.5(C6 H6 O2),H2 O1'
_chemical_name_systematic        
'2-(2-(3,4-dimethoxyphenyl)vinyl)-3-ethyl-1,3-benzoselenazol-3-ium 4-methylbenzenesulfonate hydroquinone solvate monohydrate'
_symmetry_cell_setting           triclinic
_symmetry_space_group_name_H-M   'P -1'
_symmetry_Int_Tables_number      2
_space_group_name_Hall           '-P 1'
loop_
_symmetry_equiv_pos_site_id
_symmetry_equiv_pos_as_xyz
1 x,y,z
2 -x,-y,-z
_cell_length_a                   7.2675(2)
_cell_length_b                   12.9365(6)
_cell_length_c                   15.3429(6)
_cell_angle_alpha                108.909(4)
_cell_angle_beta                 92.576(3)
_cell_angle_gamma                96.008(3)
_cell_volume                     1352.36
_exptl_crystal_colour            orange
_exptl_crystal_description       prism
_cell_formula_units_Z            2
loop_
_atom_site_label
_atom_site_type_symbol
_atom_site_fract_x
_atom_site_fract_y
_atom_site_fract_z
Se1 Se 0.17768(5) 0.20264(3) 0.00532(2)
O1 O 0.3792(4) -0.3877(2) 0.02936(16)
O2 O 0.4039(4) -0.3369(2) 0.20502(17)
N1 N 0.2022(4) 0.0514(2) -0.16157(17)
C1 C 0.2115(9) 0.0670(5) -0.0705(4)
C2 C 0.2536(6) -0.0206(3) -0.0371(3)
H1 H 0.2667 -0.0903 -0.0806
C3 C 0.2751(5) -0.0072(3) 0.0532(3)
H2 H 0.2630 0.0634 0.0956
C4 C 0.3154(12) -0.0925(7) 0.0913(6)
C5 C 0.3390(4) -0.2007(2) 0.0368(2)
H3 H 0.3377 -0.2190 -0.0284
C6 C 0.3638(4) -0.2801(3) 0.0764(2)
C7 C 0.3765(5) -0.2519(3) 0.1737(2)
C8 C 0.3603(4) -0.1458(3) 0.2290(2)
H4 H 0.3660 -0.1276 0.2943
C9 C 0.3354(4) -0.0656(3) 0.1884(2)
H5 H 0.3319 0.0083 0.2267
C10 C 0.3642(5) -0.4200(3) -0.0697(2)
H6 H 0.3774 -0.4984 -0.0960
H7 H 0.4624 -0.3767 -0.0895
H8 H 0.2427 -0.4069 -0.0913
C11 C 0.4142(6) -0.3147(4) 0.3022(2)
H9 H 0.4340 -0.3819 0.3157
H10 H 0.2979 -0.2898 0.3261
H11 H 0.5178 -0.2572 0.3318
C12 C 0.1316(4) 0.2339(3) -0.1043(2)
C13 C 0.1533(4) 0.1443(3) -0.1814(2)
C14 C 0.1303(5) 0.1519(3) -0.2703(2)
H12 H 0.1437 0.0911 -0.3236
C15 C 0.0876(5) 0.2501(3) -0.2784(2)
H13 H 0.0724 0.2569 -0.3381
C16 C 0.0663(5) 0.3394(3) -0.2006(3)
H14 H 0.0375 0.4061 -0.2081
C17 C 0.0864(4) 0.3325(3) -0.1131(2)
H15 H 0.0700 0.3931 -0.0603
C18 C 0.2280(5) -0.0502(3) -0.2350(2)
H16 H 0.3223 -0.0877 -0.2126
H17 H 0.2738 -0.0321 -0.2888
C19 C 0.0470(6) -0.1265(3) -0.2645(3)
H18 H 0.0671 -0.1940 -0.3136
H19 H -0.0457 -0.0898 -0.2876
H20 H 0.0025 -0.1452 -0.2114
S1 S -0.53355(11) 0.29412(7) 0.26705(5)
O3 O -0.4616(3) 0.2299(2) 0.18231(15)
O4 O -0.6960(3) 0.3440(2) 0.25130(18)
O5 O -0.5608(4) 0.2337(2) 0.33175(17)
C20 C -0.3570(4) 0.4048(3) 0.3239(2)
C21 C -0.3993(5) 0.4910(3) 0.3990(2)
H21 H -0.5234 0.4929 0.4159
C22 C -0.2610(5) 0.5743(3) 0.4495(2)
H22 H -0.2915 0.6328 0.5006
C23 C -0.0785(5) 0.5729(3) 0.4258(2)
C24 C -0.0378(5) 0.4872(3) 0.3495(2)
H23 H 0.0861 0.4856 0.3322
C25 C -0.1762(5) 0.4040(3) 0.2982(2)
H24 H -0.1469 0.3468 0.2458
C26 C 0.0725(5) 0.6606(3) 0.4828(2)
H25 H 0.0270 0.7326 0.4992
H26 H 0.1806 0.6611 0.4469
H27 H 0.1081 0.6452 0.5392
O6 O -0.7388(4) 0.1134(2) 0.43055(19)
C27 C -0.6177(5) 0.0584(3) 0.4646(2)
C28 C -0.6912(5) -0.0248(3) 0.4966(2)
C29 C -0.5736(5) -0.0828(3) 0.5322(2)
H28 H -0.6168 -0.1441 0.5539
H29 H -0.8273 -0.0449 0.4844
H30 H -0.6773 0.1623 0.3956
O6A O -0.2612(4) -0.1134(2) 0.56945(19)
C27A C -0.3823(5) -0.0584(3) 0.5354(2)
C28A C -0.3088(5) 0.0248(3) 0.5034(2)
C29A C -0.4264(5) 0.0828(3) 0.4678(2)
H28A H -0.3832 0.1441 0.4461
H29A H -0.1727 0.0449 0.5156
H30A H -0.3227 -0.1623 0.6044
O7 O -0.8353(4) 0.4351(2) 0.11785(18)
H31 H -0.7799 0.4031 0.1607
H32 H -0.7447 0.5007 0.1228
C30? C 0.261(3) 0.0568(19) -0.0743(15)
C31? C 0.3723(18) -0.0200(10) -0.0459(8)
H33? H 0.3206 -0.0985 -0.0791
C32? C 0.4155(17) 0.0002(10) 0.0579(8)
H34? H 0.3717 0.0707 0.0954
C33? C 0.358(4) -0.091(3) 0.098(2)
H35? H 0.3109 -0.2185 -0.0278
H36? H 0.3037 0.0044 0.2236
loop_
_geom_bond_atom_site_label_1
_geom_bond_atom_site_label_2
_geom_bond_site_symmetry_1
_geom_bond_site_symmetry_2
Se1 C1 1_555 1_555
O1 C6 1_555 1_555
O2 C7 1_555 1_555
N1 C1 1_555 1_555
C1 C2 1_555 1_555
C2 H1 1_555 1_555
C3 C2 1_555 1_555
H2 C3 1_555 1_555
C4 C3 1_555 1_555
C5 C4 1_555 1_555
H3 C5 1_555 1_555
C6 C5 1_555 1_555
C7 C6 1_555 1_555
C8 C7 1_555 1_555
H4 C8 1_555 1_555
C9 C4 1_555 1_555
H5 C9 1_555 1_555
C10 O1 1_555 1_555
H6 C10 1_555 1_555
H7 C10 1_555 1_555
H8 C10 1_555 1_555
C11 O2 1_555 1_555
H9 C11 1_555 1_555
H10 C11 1_555 1_555
H11 C11 1_555 1_555
C12 Se1 1_555 1_555
C13 N1 1_555 1_555
C14 C13 1_555 1_555
H12 C14 1_555 1_555
C15 C14 1_555 1_555
H13 C15 1_555 1_555
C16 C15 1_555 1_555
H14 C16 1_555 1_555
C17 C12 1_555 1_555
H15 C17 1_555 1_555
C18 N1 1_555 1_555
H16 C18 1_555 1_555
H17 C18 1_555 1_555
C19 C18 1_555 1_555
H18 C19 1_555 1_555
H19 C19 1_555 1_555
H20 C19 1_555 1_555
S1 O3 1_555 1_555
O4 S1 1_555 1_555
O5 S1 1_555 1_555
C20 S1 1_555 1_555
C21 C20 1_555 1_555
H21 C21 1_555 1_555
C22 C21 1_555 1_555
H22 C22 1_555 1_555
C23 C22 1_555 1_555
C24 C23 1_555 1_555
H23 C24 1_555 1_555
C25 C20 1_555 1_555
H24 C25 1_555 1_555
C26 C23 1_555 1_555
H25 C26 1_555 1_555
H26 C26 1_555 1_555
H27 C26 1_555 1_555
O6 C27 1_555 1_555
C27 C28 1_555 1_555
C28 C29 1_555 1_555
C29 H28 1_555 1_555
H29 C28 1_555 1_555
H30 O6 1_555 1_555
O7 H31 1_555 1_555
H32 O7 1_555 1_555
O6A C27A 1_555 1_555
C27A C29 1_555 1_555
C28A C27A 1_555 1_555
C29A C27 1_555 1_555
H28A C29A 1_555 1_555
H29A C28A 1_555 1_555
H30A O6A 1_555 1_555
C8 C9 1_555 1_555
C12 C13 1_555 1_555
C16 C17 1_555 1_555
C24 C25 1_555 1_555
C28A C29A 1_555 1_555

#END
