
#######################################################################
#
#                 Cambridge Crystallographic Data Centre
#                                CCDC 
#
#######################################################################
#
# If this CIF has been generated from an entry in the Cambridge 
# Structural Database, then it will include bibliographic, chemical, 
# crystal, experimental, refinement or atomic coordinate data resulting 
# from the CCDC's data processing and validation procedures.
#
#######################################################################

data_UTUSAF
_chemical_formula_moiety         'C16 H17 Br1 Cl3 N2 O7 P1'
_chemical_name_systematic        
'2,2,2-trichloroethyl 4-bromo-1-(diethoxyphosphoryl)-5-nitroisoquinoline-2(1H)-carboxylate'
_symmetry_cell_setting           orthorhombic
_symmetry_space_group_name_H-M   'P 21 21 21'
_symmetry_Int_Tables_number      19
_space_group_name_Hall           'P 2ac 2ab'
loop_
_symmetry_equiv_pos_site_id
_symmetry_equiv_pos_as_xyz
1 x,y,z
2 1/2-x,-y,1/2+z
3 -x,1/2+y,1/2-z
4 1/2+x,1/2-y,-z
_cell_length_a                   5.5852(4)
_cell_length_b                   15.8761(11)
_cell_length_c                   24.5341(16)
_cell_angle_alpha                90
_cell_angle_beta                 90
_cell_angle_gamma                90
_cell_volume                     2175.47
_exptl_crystal_colour            yellow
_exptl_crystal_description       Rod
_cell_formula_units_Z            4
loop_
_atom_site_label
_atom_site_type_symbol
_atom_site_fract_x
_atom_site_fract_y
_atom_site_fract_z
C1 C -0.2914(14) 0.3730(4) 0.9527(2)
H1 H -0.2864 0.4219 0.9735
C2 C 0.1697(14) -0.0961(4) 0.7950(3)
C3 C -0.3609(15) -0.1028(4) 0.9645(3)
C4 C 0.182(2) -0.0560(7) 0.8428(5)
H2 H 0.3157 -0.0170 0.8440
H3 H 0.1937 -0.0952 0.8731
O1 O -0.0990(16) -0.0021(3) 0.8424(2)
C5 C -0.392(2) -0.0279(8) 0.9332(5)
H4 H -0.4031 -0.0442 0.8952
H5 H -0.5456 -0.0037 0.9432
O2 O -0.5402(13) 0.0780(5) 0.7706(2)
Br1 Br 0.28945(10) 0.33791(4) 0.81317(2)
Cl1 Cl -0.2329(3) 0.22653(9) 0.60096(5)
P1 P -0.0891(3) 0.06963(10) 0.88579(6)
Cl2 Cl -0.6621(3) 0.25336(16) 0.66228(8)
O3 O -0.2864(9) 0.1425(3) 0.71151(15)
N1 N -0.2458(8) 0.1640(3) 0.80099(16)
N2 N -0.0402(11) 0.4438(3) 0.8880(2)
C6 C 0.0012(9) 0.2782(3) 0.8261(2)
C7 C -0.4857(11) 0.1765(4) 0.6283(2)
O4 O -0.2243(10) 0.0346(3) 0.93703(15)
C8 C -0.1545(11) 0.3663(4) 0.9061(2)
O5 O 0.0958(11) 0.4789(3) 0.9200(2)
Cl3 Cl -0.6551(3) 0.13135(12) 0.57455(6)
C9 C -0.1436(10) 0.2923(4) 0.8748(2)
C10 C -0.4427(11) 0.2346(5) 0.9367(2)
H6 H -0.5457 0.1909 0.9460
C11 C -0.0558(10) 0.2181(3) 0.7904(2)
H7 H 0.0318 0.2124 0.7584
O6 O -0.0920(9) 0.4714(3) 0.84309(19)
O7 O 0.1467(8) 0.1024(3) 0.8989(2)
C12 C -0.4359(13) 0.3066(5) 0.9682(3)
H8 H -0.5281 0.3104 0.9997
C13 C -0.3001(11) 0.1467(4) 0.8581(2)
H9 H -0.4615 0.1226 0.8602
C14 C -0.2967(10) 0.2270(3) 0.8911(2)
C15 C -0.3721(14) 0.1237(5) 0.7617(2)
C16 C -0.4165(15) 0.1071(5) 0.6661(3)
H10 H -0.5586 0.0783 0.6791
H11 H -0.3170 0.0665 0.6471
C17? C -0.0039(19) -0.0153(7) 0.7940(4)
H12? H 0.0867 0.0340 0.7830
H13? H -0.1303 -0.0241 0.7675
C18? C -0.185(2) -0.0344(8) 0.9648(5)
H14? H -0.1609 -0.0181 1.0025
H15? H -0.0348 -0.0577 0.9519
loop_
_geom_bond_atom_site_label_1
_geom_bond_atom_site_label_2
_geom_bond_site_symmetry_1
_geom_bond_site_symmetry_2
C1 H1 1_555 1_555
C2 C4 1_555 1_555
C3 C5 1_555 1_555
C4 H2 1_555 1_555
H3 C4 1_555 1_555
O1 C4 1_555 1_555
C5 H4 1_555 1_555
H5 C5 1_555 1_555
O2 C15 1_555 1_555
Br1 C6 1_555 1_555
Cl1 C7 1_555 1_555
P1 O1 1_555 1_555
Cl2 C7 1_555 1_555
O3 C15 1_555 1_555
N1 C11 1_555 1_555
N2 C8 1_555 1_555
C6 C9 1_555 1_555
C7 Cl3 1_555 1_555
O4 C5 1_555 1_555
C8 C1 1_555 1_555
O5 N2 1_555 1_555
C9 C8 1_555 1_555
C10 H6 1_555 1_555
C11 C6 1_555 1_555
H7 C11 1_555 1_555
O6 N2 1_555 1_555
O7 P1 1_555 1_555
C12 C1 1_555 1_555
H8 C12 1_555 1_555
C13 P1 1_555 1_555
H9 C13 1_555 1_555
C14 C9 1_555 1_555
C15 N1 1_555 1_555
C16 O3 1_555 1_555
H10 C16 1_555 1_555
H11 C16 1_555 1_555
P1 O4 1_555 1_555
N1 C13 1_555 1_555
C7 C16 1_555 1_555
C10 C12 1_555 1_555
C10 C14 1_555 1_555
C13 C14 1_555 1_555

#END
