
#######################################################################
#
#                 Cambridge Crystallographic Data Centre
#                                CCDC 
#
#######################################################################
#
# If this CIF has been generated from an entry in the Cambridge 
# Structural Database, then it will include bibliographic, chemical, 
# crystal, experimental, refinement or atomic coordinate data resulting 
# from the CCDC's data processing and validation procedures.
#
#######################################################################

data_UTUYEP01
_chemical_formula_moiety         'C24 H20 B1 1-,C12 H17 N4 1+'
_chemical_name_systematic        
'9-(pyridin-2-yl)-3,4,6,7,8,9-hexahydro-2H-pyrimido[1,2-a]pyrimidin-1-ium tetraphenylborate'
_symmetry_cell_setting           triclinic
_symmetry_space_group_name_H-M   'P -1'
_symmetry_Int_Tables_number      2
_space_group_name_Hall           '-P 1'
loop_
_symmetry_equiv_pos_site_id
_symmetry_equiv_pos_as_xyz
1 x,y,z
2 -x,-y,-z
_cell_length_a                   10.6291(3)
_cell_length_b                   11.8059(5)
_cell_length_c                   13.0252(5)
_cell_angle_alpha                69.939(4)
_cell_angle_beta                 76.544(3)
_cell_angle_gamma                69.975(3)
_cell_volume                     1430.14
_exptl_crystal_colour            colorless
_exptl_crystal_description       plate
_cell_formula_units_Z            2
loop_
_atom_site_label
_atom_site_type_symbol
_atom_site_fract_x
_atom_site_fract_y
_atom_site_fract_z
N1 N 0.35619(17) 0.16052(11) 0.00126(11)
N2 N 0.24766(17) 0.05770(12) 0.16752(12)
N3 N 0.27430(19) -0.00281(13) 0.01137(13)
N4 N 0.42432(17) 0.10644(11) -0.16548(12)
C1 C 0.2928(2) 0.07079(15) 0.06086(16)
C2 C 0.3898(3) 0.2265(2) 0.06442(18)
C3 C 0.2683(3) 0.26680(19) 0.1447(2)
C4 C 0.2360(4) 0.1495(2) 0.2239(2)
C5 C 0.2003(3) -0.05094(18) 0.23968(18)
C6 C 0.2354(3) -0.15438(18) 0.18468(18)
C7 C 0.1992(3) -0.09437(19) 0.06877(19)
C8 C 0.3809(2) 0.19758(15) -0.11617(16)
C9 C 0.3589(2) 0.32490(16) -0.17453(17)
C10 C 0.3859(3) 0.35642(18) -0.28867(17)
C11 C 0.4300(3) 0.26278(18) -0.34152(17)
C12 C 0.4456(2) 0.13967(17) -0.27574(17)
H1 H 0.4235(7) 0.3056(5) 0.0050(4)
H2 H 0.4767(6) 0.1606(5) 0.1082(5)
H3 H 0.2891(8) 0.3183(5) 0.1904(4)
H4 H 0.1837(7) 0.3289(5) 0.0999(5)
H5 H 0.3030(7) 0.1055(5) 0.2858(4)
H6 H 0.1339(9) 0.1708(6) 0.2672(6)
H7 H 0.2452(7) -0.0845(5) 0.3160(4)
H8 H 0.0916(6) -0.0176(5) 0.2616(5)
H9 H 0.3426(6) -0.2055(5) 0.1826(5)
H10 H 0.1771(6) -0.2202(4) 0.2329(4)
H11 H 0.2255(8) -0.1632(5) 0.0233(5)
H12 H 0.0900(6) -0.0471(6) 0.0717(5)
H13 H 0.3195(7) 0.3983(4) -0.1329(4)
H14 H 0.3674(7) 0.4554(5) -0.3359(4)
H15 H 0.4466(7) 0.2847(5) -0.4300(4)
H16 H 0.4750(7) 0.0628(4) -0.3125(4)
H17 H 0.3298(6) -0.0004(4) -0.0668(3)
C13 C 0.5768(2) 0.25780(15) 0.31283(15)
C14 C 0.5183(2) 0.16131(16) 0.37517(16)
C15 C 0.3820(2) 0.18420(18) 0.41866(17)
C16 C 0.2973(2) 0.30727(18) 0.39889(18)
C17 C 0.3517(2) 0.40565(17) 0.33610(17)
C18 C 0.4884(2) 0.38082(16) 0.29552(16)
C19 C 0.7745(2) 0.28977(16) 0.13664(15)
C20 C 0.6782(2) 0.36342(18) 0.06492(17)
C21 C 0.7135(3) 0.41091(18) -0.04891(17)
C22 C 0.8473(3) 0.3848(2) -0.09488(17)
C23 C 0.9458(3) 0.3100(2) -0.0268(2)
C24 C 0.9089(2) 0.26306(19) 0.08624(18)
C25 C 0.7915(2) 0.30654(15) 0.33438(15)
C26 C 0.8835(2) 0.37702(17) 0.28728(18)
C27 C 0.9184(3) 0.43996(19) 0.34470(19)
C28 C 0.8607(2) 0.43580(18) 0.45302(19)
C29 C 0.7696(2) 0.36553(18) 0.50376(17)
C30 C 0.7375(2) 0.30309(16) 0.44510(16)
C31 C 0.8153(2) 0.08200(15) 0.30748(15)
C32 C 0.8727(2) 0.01497(16) 0.40530(16)
C33 C 0.9269(2) -0.11596(16) 0.43540(16)
C34 C 0.9266(2) -0.18463(16) 0.36694(17)
C35 C 0.8698(2) -0.12076(17) 0.26935(18)
C36 C 0.8163(2) 0.00956(17) 0.24142(17)
B1 B 0.7404(3) 0.23408(18) 0.27146(19)
H18 H 0.5827(6) 0.0638(4) 0.3920(4)
H19 H 0.3397(6) 0.1071(5) 0.4702(5)
H20 H 0.1908(6) 0.3250(5) 0.4322(6)
H21 H 0.2876(5) 0.5019(4) 0.3205(5)
H22 H 0.5275(5) 0.4602(4) 0.2491(4)
H23 H 0.5718(6) 0.3845(5) 0.0978(4)
H24 H 0.6340(7) 0.4681(6) -0.1009(4)
H25 H 0.8753(8) 0.4221(6) -0.1836(4)
H26 H 1.0540(7) 0.2869(7) -0.0619(5)
H27 H 0.9881(5) 0.2033(5) 0.1376(4)
H28 H 0.9277(6) 0.3856(5) 0.2023(4)
H29 H 0.9876(7) 0.4958(6) 0.3045(5)
H30 H 0.8839(7) 0.4883(5) 0.4961(5)
H31 H 0.7234(7) 0.3607(5) 0.5877(4)
H32 H 0.6657(6) 0.2492(5) 0.4859(4)
H33 H 0.8754(6) 0.0648(4) 0.4605(4)
H34 H 0.9707(6) -0.1648(4) 0.5122(4)
H35 H 0.9674(6) -0.2865(4) 0.3913(5)
H36 H 0.8666(7) -0.1729(4) 0.2167(5)
H37 H 0.7742(6) 0.0578(4) 0.1636(4)
loop_
_geom_bond_atom_site_label_1
_geom_bond_atom_site_label_2
_geom_bond_site_symmetry_1
_geom_bond_site_symmetry_2
N1 C1 1_555 1_555
N2 C1 1_555 1_555
N3 C1 1_555 1_555
N4 C8 1_555 1_555
C2 N1 1_555 1_555
C3 C2 1_555 1_555
C4 N2 1_555 1_555
C5 N2 1_555 1_555
C6 C5 1_555 1_555
C7 N3 1_555 1_555
C8 N1 1_555 1_555
C9 C8 1_555 1_555
C10 C9 1_555 1_555
C11 C10 1_555 1_555
C12 N4 1_555 1_555
H1 C2 1_555 1_555
H2 C2 1_555 1_555
H3 C3 1_555 1_555
H4 C3 1_555 1_555
H5 C4 1_555 1_555
H6 C4 1_555 1_555
H7 C5 1_555 1_555
H8 C5 1_555 1_555
H9 C6 1_555 1_555
H10 C6 1_555 1_555
H11 C7 1_555 1_555
H12 C7 1_555 1_555
H13 C9 1_555 1_555
H14 C10 1_555 1_555
H15 C11 1_555 1_555
H16 C12 1_555 1_555
H17 N3 1_555 1_555
C13 C14 1_555 1_555
C14 C15 1_555 1_555
C15 C16 1_555 1_555
C16 C17 1_555 1_555
C17 C18 1_555 1_555
C18 C13 1_555 1_555
C19 C20 1_555 1_555
C20 C21 1_555 1_555
C21 C22 1_555 1_555
C22 C23 1_555 1_555
C23 C24 1_555 1_555
C24 C19 1_555 1_555
C25 C26 1_555 1_555
C26 C27 1_555 1_555
C27 C28 1_555 1_555
C28 C29 1_555 1_555
C29 C30 1_555 1_555
C30 C25 1_555 1_555
C31 C32 1_555 1_555
C32 C33 1_555 1_555
C33 C34 1_555 1_555
C34 C35 1_555 1_555
C35 C36 1_555 1_555
C36 C31 1_555 1_555
B1 C13 1_555 1_555
H18 C14 1_555 1_555
H19 C15 1_555 1_555
H20 C16 1_555 1_555
H21 C17 1_555 1_555
H22 C18 1_555 1_555
H23 C20 1_555 1_555
H24 C21 1_555 1_555
H25 C22 1_555 1_555
H26 C23 1_555 1_555
H27 C24 1_555 1_555
H28 C26 1_555 1_555
H29 C27 1_555 1_555
H30 C28 1_555 1_555
H31 C29 1_555 1_555
H32 C30 1_555 1_555
H33 C32 1_555 1_555
H34 C33 1_555 1_555
H35 C34 1_555 1_555
H36 C35 1_555 1_555
H37 C36 1_555 1_555
C3 C4 1_555 1_555
C6 C7 1_555 1_555
C11 C12 1_555 1_555
C19 B1 1_555 1_555
C25 B1 1_555 1_555
C31 B1 1_555 1_555

#END
