
#######################################################################
#
#                 Cambridge Crystallographic Data Centre
#                                CCDC 
#
#######################################################################
#
# If this CIF has been generated from an entry in the Cambridge 
# Structural Database, then it will include bibliographic, chemical, 
# crystal, experimental, refinement or atomic coordinate data resulting 
# from the CCDC's data processing and validation procedures.
#
#######################################################################

data_UTUYOZ
_chemical_formula_moiety         'C19 H28 N7 1+,C24 H20 B1 1-'
_chemical_name_systematic        
'9-(6-(3,4,7,8-tetrahydro-2H-pyrimido[1,2-a]pyrimidin-1(6H)-yl)pyridin-2-yl)-3,4,6,7,8,9-hexahydro-2H-pyrimido[1,2-a]pyrimidin-1-ium tetraphenylborate'
_symmetry_cell_setting           triclinic
_symmetry_space_group_name_H-M   'P -1'
_symmetry_Int_Tables_number      2
_space_group_name_Hall           '-P 1'
loop_
_symmetry_equiv_pos_site_id
_symmetry_equiv_pos_as_xyz
1 x,y,z
2 -x,-y,-z
_cell_length_a                   10.4939(4)
_cell_length_b                   10.7181(4)
_cell_length_c                   17.7859(7)
_cell_angle_alpha                97.607(3)
_cell_angle_beta                 99.959(3)
_cell_angle_gamma                113.378(4)
_cell_volume                     1763.31
_exptl_crystal_colour            colorless
_exptl_crystal_description       block
_cell_formula_units_Z            2
loop_
_atom_site_label
_atom_site_type_symbol
_atom_site_fract_x
_atom_site_fract_y
_atom_site_fract_z
N1 N 0.50967(10) 0.19627(9) 0.32593(5)
H1 H 0.5748(17) 0.2582(16) 0.3677(9)
N2 N 0.60889(10) 0.35355(10) 0.25000(5)
N3 N 0.38547(10) 0.16418(10) 0.19818(5)
N4 N 0.65350(10) 0.32139(9) 0.50468(5)
N5 N 0.80830(9) 0.55359(9) 0.51553(5)
N6 N 0.67729(10) 0.50099(10) 0.60849(6)
N7 N 0.71732(9) 0.45744(9) 0.38206(5)
C1 C 0.49979(11) 0.23706(11) 0.25831(6)
C2 C 0.60785(14) 0.38982(14) 0.17268(7)
H2 H 0.6442 0.3364 0.1416
H3 H 0.6691 0.4881 0.1792
C3 C 0.45623(15) 0.35760(14) 0.13157(7)
H4 H 0.4208 0.4130 0.1619
H5 H 0.4537 0.3802 0.0805
C4 C 0.36364(13) 0.20455(13) 0.12280(7)
H6 H 0.2637 0.1851 0.1043
H7 H 0.3875 0.1501 0.0843
C5 C 0.26837(12) 0.03615(12) 0.20456(7)
H8 H 0.2226 -0.0264 0.1534
H9 H 0.1971 0.0588 0.2234
C6 C 0.32581(12) -0.03512(11) 0.26035(7)
H10 H 0.2474 -0.1160 0.2672
H11 H 0.3902 -0.0661 0.2392
C7 C 0.40502(11) 0.06693(11) 0.33822(6)
H12 H 0.3376 0.0860 0.3633
H13 H 0.4534 0.0271 0.3722
C8 C 0.70411(11) 0.44985(11) 0.54072(6)
C9 C 0.90272(12) 0.68267(11) 0.57358(6)
H14 H 0.9715 0.7459 0.5503
H15 H 0.9549 0.6626 0.6173
C10 C 0.81088(13) 0.74842(12) 0.60159(7)
H16 H 0.7672 0.7776 0.5589
H17 H 0.8699 0.8302 0.6434
C11 C 0.69489(15) 0.64382(13) 0.63117(8)
H18 H 0.7181 0.6709 0.6878
H19 H 0.6046 0.6472 0.6111
C12 C 0.57336(13) 0.40367(13) 0.64263(7)
H20 H 0.4788 0.3976 0.6219
H21 H 0.5988 0.4376 0.6989
C13 C 0.57081(12) 0.26117(12) 0.62401(7)
H22 H 0.4936 0.1943 0.6409
H23 H 0.6605 0.2636 0.6512
C14 C 0.54864(12) 0.21880(12) 0.53611(7)
H24 H 0.5542 0.1304 0.5239
H25 H 0.4532 0.2050 0.5103
C15 C 0.73593(11) 0.43372(11) 0.31037(6)
C16 C 0.86807(12) 0.48671(12) 0.29225(7)
H26 H 0.8769 0.4682 0.2413
C17 C 0.98608(12) 0.56855(12) 0.35386(7)
H27 H 1.0765 0.6082 0.3442
C18 C 0.97123(11) 0.59205(11) 0.42950(6)
H28 H 1.0504 0.6457 0.4712
C19 C 0.83303(11) 0.53237(10) 0.44129(6)
C20 C 0.58517(11) -0.14755(11) 0.14799(6)
C21 C 0.48513(11) -0.26322(11) 0.16809(6)
H29 H 0.5185 -0.3044 0.2048
C22 C 0.33863(12) -0.31840(11) 0.13537(7)
H30 H 0.2762 -0.3948 0.1504
C23 C 0.28533(12) -0.25932(12) 0.08011(7)
H31 H 0.1876 -0.2966 0.0573
C24 C 0.38016(13) -0.14422(13) 0.05965(7)
H32 H 0.3459 -0.1033 0.0230
C25 C 0.52717(12) -0.08906(12) 0.09372(7)
H33 H 0.5886 -0.0106 0.0798
C26 C 0.77751(10) -0.06731(11) 0.28143(6)
C27 C 0.74079(11) 0.03461(11) 0.31760(6)
H34 H 0.7061 0.0828 0.2863
C28 C 0.75379(11) 0.06669(11) 0.39777(6)
H35 H 0.7291 0.1355 0.4189
C29 C 0.80391(11) -0.00474(12) 0.44624(6)
H36 H 0.8150 0.0170 0.5001
C30 C 0.83697(12) -0.10875(13) 0.41280(7)
H37 H 0.8687 -0.1585 0.4443
C31 C 0.82301(12) -0.13956(11) 0.33221(6)
H38 H 0.8447 -0.2108 0.3113
C32 C 0.79877(11) -0.22261(11) 0.15140(6)
C33 C 0.93019(11) -0.22470(11) 0.18286(6)
H39 H 0.9918 -0.1573 0.2272
C34 C 0.97216(12) -0.32332(12) 0.15047(7)
H40 H 1.0595 -0.3216 0.1738
C35 C 0.88418(13) -0.42436(12) 0.08340(7)
H41 H 0.9118 -0.4904 0.0615
C36 C 0.75451(12) -0.42481(12) 0.04973(6)
H42 H 0.6949 -0.4907 0.0044
C37 C 0.71319(12) -0.32663(11) 0.08371(6)
H43 H 0.6250 -0.3302 0.0605
C38 C 0.85829(11) 0.04102(11) 0.15717(6)
C39 C 0.93652(13) 0.17540(12) 0.20453(7)
H44 H 0.9314 0.1901 0.2564
C40 C 1.02201(14) 0.28839(13) 0.17722(8)
H45 H 1.0726 0.3757 0.2110
C41 C 1.03198(13) 0.27132(12) 0.10009(7)
H46 H 1.0878 0.3465 0.0815
C42 C 0.95687(12) 0.13956(12) 0.05127(7)
H47 H 0.9625 0.1257 -0.0006
C43 C 0.87322(12) 0.02827(12) 0.07966(6)
H48 H 0.8246 -0.0591 0.0458
B1 B 0.75661(12) -0.09774(12) 0.18589(7)
loop_
_geom_bond_atom_site_label_1
_geom_bond_atom_site_label_2
_geom_bond_site_symmetry_1
_geom_bond_site_symmetry_2
N1 H1 1_555 1_555
N2 C1 1_555 1_555
N3 C1 1_555 1_555
N4 C8 1_555 1_555
N5 C8 1_555 1_555
N6 C8 1_555 1_555
N7 C15 1_555 1_555
C1 N1 1_555 1_555
C2 N2 1_555 1_555
H2 C2 1_555 1_555
H3 C2 1_555 1_555
C3 C2 1_555 1_555
H4 C3 1_555 1_555
H5 C3 1_555 1_555
C4 N3 1_555 1_555
H6 C4 1_555 1_555
H7 C4 1_555 1_555
C5 N3 1_555 1_555
H8 C5 1_555 1_555
H9 C5 1_555 1_555
C6 C5 1_555 1_555
H10 C6 1_555 1_555
H11 C6 1_555 1_555
C7 N1 1_555 1_555
H12 C7 1_555 1_555
H13 C7 1_555 1_555
C9 N5 1_555 1_555
H14 C9 1_555 1_555
H15 C9 1_555 1_555
C10 C9 1_555 1_555
H16 C10 1_555 1_555
H17 C10 1_555 1_555
C11 N6 1_555 1_555
H18 C11 1_555 1_555
H19 C11 1_555 1_555
C12 N6 1_555 1_555
H20 C12 1_555 1_555
H21 C12 1_555 1_555
C13 C12 1_555 1_555
H22 C13 1_555 1_555
H23 C13 1_555 1_555
C14 N4 1_555 1_555
H24 C14 1_555 1_555
H25 C14 1_555 1_555
C15 N2 1_555 1_555
C16 C15 1_555 1_555
H26 C16 1_555 1_555
C17 C16 1_555 1_555
H27 C17 1_555 1_555
C18 C17 1_555 1_555
H28 C18 1_555 1_555
C19 N5 1_555 1_555
C20 C21 1_555 1_555
C21 H29 1_555 1_555
C22 C21 1_555 1_555
H30 C22 1_555 1_555
C23 C22 1_555 1_555
H31 C23 1_555 1_555
C24 C23 1_555 1_555
H32 C24 1_555 1_555
C25 C20 1_555 1_555
H33 C25 1_555 1_555
C26 C27 1_555 1_555
C27 H34 1_555 1_555
C28 C27 1_555 1_555
H35 C28 1_555 1_555
C29 C28 1_555 1_555
H36 C29 1_555 1_555
C30 C29 1_555 1_555
H37 C30 1_555 1_555
C31 C26 1_555 1_555
H38 C31 1_555 1_555
C32 C33 1_555 1_555
C33 H39 1_555 1_555
C34 C33 1_555 1_555
H40 C34 1_555 1_555
C35 C34 1_555 1_555
H41 C35 1_555 1_555
C36 C35 1_555 1_555
H42 C36 1_555 1_555
C37 C32 1_555 1_555
H43 C37 1_555 1_555
C38 C39 1_555 1_555
C39 H44 1_555 1_555
C40 C39 1_555 1_555
H45 C40 1_555 1_555
C41 C40 1_555 1_555
H46 C41 1_555 1_555
C42 C41 1_555 1_555
H47 C42 1_555 1_555
C43 C38 1_555 1_555
H48 C43 1_555 1_555
B1 C20 1_555 1_555
N7 C19 1_555 1_555
C3 C4 1_555 1_555
C6 C7 1_555 1_555
C10 C11 1_555 1_555
C13 C14 1_555 1_555
C18 C19 1_555 1_555
C24 C25 1_555 1_555
C26 B1 1_555 1_555
C30 C31 1_555 1_555
C32 B1 1_555 1_555
C36 C37 1_555 1_555
C38 B1 1_555 1_555
C42 C43 1_555 1_555

#END
