
#######################################################################
#
#                 Cambridge Crystallographic Data Centre
#                                CCDC 
#
#######################################################################
#
# If this CIF has been generated from an entry in the Cambridge 
# Structural Database, then it will include bibliographic, chemical, 
# crystal, experimental, refinement or atomic coordinate data resulting 
# from the CCDC's data processing and validation procedures.
#
#######################################################################

data_UVALOU
_chemical_formula_moiety         'C18 H14 F7 N1 O1'
_chemical_name_systematic        
(R)-N-(2,3,5,6-tetrafluoro-4-(trifluoromethyl)phenyl)-3-(p-tolyl)butanamide
_symmetry_cell_setting           monoclinic
_symmetry_space_group_name_H-M   'P 21'
_symmetry_Int_Tables_number      4
_space_group_name_Hall           'P 2yb'
loop_
_symmetry_equiv_pos_site_id
_symmetry_equiv_pos_as_xyz
1 x,y,z
2 -x,1/2+y,-z
_cell_length_a                   10.1277(3)
_cell_length_b                   4.84000(10)
_cell_length_c                   17.0975(5)
_cell_angle_alpha                90
_cell_angle_beta                 101.764(2)
_cell_angle_gamma                90
_cell_volume                     820.483
_exptl_crystal_colour            colorless
_exptl_crystal_description       needle
_cell_formula_units_Z            2
loop_
_atom_site_label
_atom_site_type_symbol
_atom_site_fract_x
_atom_site_fract_y
_atom_site_fract_z
C1 C 0.1417(3) 0.6851(6) -0.17602(15)
H1 H 0.0832 0.5609 -0.2130
H2 H 0.2175 0.7438 -0.1997
H3 H 0.0901 0.8475 -0.1657
F1 F 0.96230(19) -0.0897(4) 0.63720(10)
N1 N 0.5888(2) 0.3225(4) 0.30746(12)
O1 O 0.53064(19) -0.1123(4) 0.26358(10)
C2 C 0.1947(2) 0.5355(6) -0.09840(14)
F2 F 0.77697(19) 0.0155(4) 0.67285(9)
C3 C 0.1449(3) 0.5938(6) -0.03066(15)
H4 H 0.0777 0.7324 -0.0329
F3 F 0.92035(17) 0.3308(3) 0.66236(9)
C4 C 0.1910(3) 0.4538(5) 0.04069(15)
H5 H 0.1543 0.4975 0.0861
F4 F 0.66913(15) 0.5054(3) 0.58510(8)
C5 C 0.2897(2) 0.2508(5) 0.04684(14)
F5 F 0.53842(14) 0.6024(3) 0.43613(8)
C6 C 0.3416(3) 0.1955(5) -0.02125(15)
H6 H 0.4103 0.0603 -0.0187
F6 F 0.79018(15) -0.1003(3) 0.34303(8)
C7 C 0.2947(3) 0.3338(6) -0.09229(15)
H7 H 0.3312 0.2907 -0.1378
F7 F 0.91248(14) -0.2100(3) 0.48943(9)
C8 C 0.3424(3) 0.1003(5) 0.12491(14)
H8 H 0.3776 -0.0836 0.1120
C9 C 0.2344(3) 0.0513(6) 0.17386(16)
H9 H 0.2096 0.2278 0.1950
H10 H 0.2695 -0.0741 0.2182
H11 H 0.1546 -0.0313 0.1397
C10 C 0.4613(3) 0.2678(5) 0.17269(14)
H12 H 0.5298 0.2920 0.1394
H13 H 0.4284 0.4537 0.1835
C11 C 0.5280(3) 0.1367(5) 0.25126(14)
C12 C 0.6573(2) 0.2523(5) 0.38458(14)
C13 C 0.7548(2) 0.0470(5) 0.40146(14)
C14 C 0.8206(2) -0.0067(5) 0.47948(15)
C15 C 0.7960(2) 0.1435(5) 0.54323(14)
C16 C 0.6993(2) 0.3517(5) 0.52626(14)
C17 C 0.6321(2) 0.4019(5) 0.44911(15)
C18 C 0.8651(3) 0.0970(6) 0.62931(15)
H14 H 0.571(3) 0.493(8) 0.2988(19)
loop_
_geom_bond_atom_site_label_1
_geom_bond_atom_site_label_2
_geom_bond_site_symmetry_1
_geom_bond_site_symmetry_2
C1 H1 1_555 1_555
H2 C1 1_555 1_555
H3 C1 1_555 1_555
F1 C18 1_555 1_555
N1 C11 1_555 1_555
O1 C11 1_555 1_555
C2 C1 1_555 1_555
F2 C18 1_555 1_555
C3 C2 1_555 1_555
H4 C3 1_555 1_555
F3 C18 1_555 1_555
C4 C3 1_555 1_555
H5 C4 1_555 1_555
F4 C16 1_555 1_555
C5 C4 1_555 1_555
F5 C17 1_555 1_555
C6 C5 1_555 1_555
H6 C6 1_555 1_555
F6 C13 1_555 1_555
C7 C2 1_555 1_555
H7 C7 1_555 1_555
F7 C14 1_555 1_555
C8 C5 1_555 1_555
H8 C8 1_555 1_555
C9 C8 1_555 1_555
H9 C9 1_555 1_555
H10 C9 1_555 1_555
H11 C9 1_555 1_555
C10 C8 1_555 1_555
H12 C10 1_555 1_555
H13 C10 1_555 1_555
C11 C10 1_555 1_555
C12 N1 1_555 1_555
C13 C12 1_555 1_555
C14 C13 1_555 1_555
C15 C14 1_555 1_555
C16 C15 1_555 1_555
C17 C12 1_555 1_555
C18 C15 1_555 1_555
H14 N1 1_555 1_555
C6 C7 1_555 1_555
C16 C17 1_555 1_555

#END
