
#######################################################################
#
#                 Cambridge Crystallographic Data Centre
#                                CCDC 
#
#######################################################################
#
# If this CIF has been generated from an entry in the Cambridge 
# Structural Database, then it will include bibliographic, chemical, 
# crystal, experimental, refinement or atomic coordinate data resulting 
# from the CCDC's data processing and validation procedures.
#
#######################################################################

data_UVEJIP
_chemical_compound_source        'Penicillium citrinum'
_chemical_name_common            'Penicitrinol D'
_chemical_formula_moiety         'C16 H22 O4'
_chemical_name_systematic        
2-Methoxy-2,5,6,7-tetramethyl-3,3a,5,6-tetrahydro-2H-pyrano[2,3,4-de]chromen-8-ol
_chemical_properties_biological  'tested for cytotoxic activity'
_symmetry_cell_setting           monoclinic
_symmetry_space_group_name_H-M   'P 21'
_symmetry_Int_Tables_number      4
_space_group_name_Hall           'P 2yb'
loop_
_symmetry_equiv_pos_site_id
_symmetry_equiv_pos_as_xyz
1 x,y,z
2 -x,1/2+y,-z
_cell_length_a                   8.1789(16)
_cell_length_b                   6.2628(13)
_cell_length_c                   14.945(3)
_cell_angle_alpha                90
_cell_angle_beta                 103.06(3)
_cell_angle_gamma                90
_cell_volume                     745.724
_exptl_crystal_colour            colorless
_exptl_crystal_description       block
_cell_formula_units_Z            2
loop_
_atom_site_label
_atom_site_type_symbol
_atom_site_fract_x
_atom_site_fract_y
_atom_site_fract_z
O1 O 0.2671(2) 0.8118(3) 0.10230(9)
O2 O 0.01062(18) 0.8080(3) 0.30555(10)
O3 O 0.29049(17) 0.8080(3) 0.38507(9)
O4 O 0.6945(2) 0.2501(3) 0.42482(10)
H1 H 0.6948 0.2756 0.4787
C1 C 0.2230(3) 0.7712(4) 0.18761(13)
H2 H 0.1168 0.6923 0.1755
C2 C 0.2954(3) 0.6153(4) 0.05806(14)
H3 H 0.3198 0.6543 -0.0011
C3 C 0.4517(3) 0.5032(4) 0.11346(14)
H4 H 0.4509 0.3559 0.0912
C4 C 0.5674(2) 0.3605(3) 0.27391(13)
C5 C 0.5818(2) 0.3821(3) 0.36884(13)
C6 C 0.4903(3) 0.5316(4) 0.40429(14)
H5 H 0.5051 0.5472 0.4675
C7 C 0.3761(2) 0.6582(3) 0.34484(13)
C8 C 0.3548(2) 0.6395(3) 0.25023(13)
C9 C 0.4563(2) 0.4956(3) 0.21581(13)
C10 C 0.1431(3) 0.4702(5) 0.03702(19)
H6 H 0.1275 0.4064 0.0929
H7 H 0.1599 0.3602 -0.0047
H8 H 0.0455 0.5521 0.0096
C11 C 0.6123(3) 0.6124(5) 0.09824(17)
H9 H 0.6049 0.7636 0.1073
H10 H 0.6238 0.5852 0.0367
H11 H 0.7081 0.5565 0.1412
C12 C 0.6689(3) 0.1908(4) 0.23942(17)
H12 H 0.6071 0.1380 0.1813
H13 H 0.6911 0.0755 0.2828
H14 H 0.7732 0.2508 0.2323
C13 C 0.1995(3) 0.9787(3) 0.23492(16)
H15 H 0.1096 1.0606 0.1966
H16 H 0.3016 1.0626 0.2445
C14 C 0.1571(3) 0.9314(4) 0.32631(15)
C15 C 0.1424(3) 1.1311(4) 0.38090(17)
H17 H 0.0472 1.2128 0.3497
H18 H 0.2424 1.2151 0.3869
H19 H 0.1282 1.0920 0.4408
C16 C -0.0575(3) 0.7410(5) 0.38102(19)
H20 H 0.0240 0.6567 0.4225
H21 H -0.1566 0.6572 0.3586
H22 H -0.0858 0.8642 0.4127
loop_
_geom_bond_atom_site_label_1
_geom_bond_atom_site_label_2
_geom_bond_site_symmetry_1
_geom_bond_site_symmetry_2
O1 C1 1_555 1_555
O2 C14 1_555 1_555
O3 C7 1_555 1_555
O4 H1 1_555 1_555
C1 H2 1_555 1_555
C2 O1 1_555 1_555
H3 C2 1_555 1_555
C3 C2 1_555 1_555
H4 C3 1_555 1_555
C4 C5 1_555 1_555
C5 O4 1_555 1_555
C6 C5 1_555 1_555
H5 C6 1_555 1_555
C7 C6 1_555 1_555
C8 C1 1_555 1_555
C9 C3 1_555 1_555
C10 C2 1_555 1_555
H6 C10 1_555 1_555
H7 C10 1_555 1_555
H8 C10 1_555 1_555
C11 C3 1_555 1_555
H9 C11 1_555 1_555
H10 C11 1_555 1_555
H11 C11 1_555 1_555
C12 C4 1_555 1_555
H12 C12 1_555 1_555
H13 C12 1_555 1_555
H14 C12 1_555 1_555
C13 C1 1_555 1_555
H15 C13 1_555 1_555
H16 C13 1_555 1_555
C14 O3 1_555 1_555
C15 C14 1_555 1_555
H17 C15 1_555 1_555
H18 C15 1_555 1_555
H19 C15 1_555 1_555
C16 O2 1_555 1_555
H20 C16 1_555 1_555
H21 C16 1_555 1_555
H22 C16 1_555 1_555
C4 C9 1_555 1_555
C7 C8 1_555 1_555
C8 C9 1_555 1_555
C13 C14 1_555 1_555

#END
