
#######################################################################
#
#                 Cambridge Crystallographic Data Centre
#                                CCDC 
#
#######################################################################
#
# If this CIF has been generated from an entry in the Cambridge 
# Structural Database, then it will include bibliographic, chemical, 
# crystal, experimental, refinement or atomic coordinate data resulting 
# from the CCDC's data processing and validation procedures.
#
#######################################################################

data_UVEMUF
_chemical_formula_moiety         'C17 H29 N2 O5 P1'
_chemical_name_systematic        
't-butyl 2-(diisopropoxyphosphoryl)-2-phenylhydrazinecarboxylate'
_symmetry_cell_setting           triclinic
_symmetry_space_group_name_H-M   'P -1'
_symmetry_Int_Tables_number      2
_space_group_name_Hall           '-P 1'
loop_
_symmetry_equiv_pos_site_id
_symmetry_equiv_pos_as_xyz
1 x,y,z
2 -x,-y,-z
_cell_length_a                   9.7307(6)
_cell_length_b                   10.8147(5)
_cell_length_c                   11.1682(8)
_cell_angle_alpha                68.269(5)
_cell_angle_beta                 72.364(6)
_cell_angle_gamma                69.847(5)
_cell_volume                     1003.97
_cell_formula_units_Z            2
loop_
_atom_site_label
_atom_site_type_symbol
_atom_site_fract_x
_atom_site_fract_y
_atom_site_fract_z
P1 P 0.08390(3) 0.50000(3) 0.28948(3)
O1 O 0.00302(10) 0.40363(9) 0.39230(9)
O2 O 0.18293(11) 0.85853(9) 0.31182(9)
O3 O 0.31595(11) 0.74442(10) 0.15895(10)
O4 O 0.15339(10) 0.45015(9) 0.16443(9)
O5 O -0.01021(10) 0.65264(9) 0.24341(9)
N1 N 0.20533(12) 0.63619(11) 0.36553(11)
H1 H 0.17059(12) 0.63899(11) 0.44531(11)
N2 N 0.22698(12) 0.51738(11) 0.33218(11)
C1 C 0.24785(16) 0.52080(15) 0.04558(13)
H2 H 0.29228(16) 0.57555(15) 0.06862(13)
C2 C 0.60812(16) 0.33254(15) 0.39950(14)
H3 H 0.68694(16) 0.35110(15) 0.41445(14)
C3 C 0.24151(14) 0.74811(13) 0.26632(13)
C4 C 0.62106(16) 0.20045(15) 0.40031(14)
H4 H 0.70790(16) 0.13059(15) 0.41526(14)
C5 C -0.15625(14) 0.70557(13) 0.32265(13)
H5 H -0.15742(14) 0.65500(13) 0.41597(13)
C6 C 0.50212(17) 0.17441(14) 0.37842(15)
H6 H 0.51006(17) 0.08642(14) 0.37790(15)
C7 C 0.37177(16) 0.27744(14) 0.35734(14)
H7 H 0.29245(16) 0.25790(14) 0.34429(14)
C8 C -0.17177(17) 0.85563(15) 0.30062(17)
H8 H -0.0928(8) 0.86348(17) 0.3298(11)
H9 H -0.1659(14) 0.9044(3) 0.2086(2)
H10 H -0.2665(6) 0.8945(4) 0.3494(10)
C9 C 0.1588(2) 1.03903(16) 0.09865(17)
H11 H 0.2204(9) 0.9781(8) 0.0473(6)
H12 H 0.0568(5) 1.0363(13) 0.11692(17)
H13 H 0.1663(14) 1.1314(5) 0.0505(6)
C10 C 0.47923(15) 0.43725(14) 0.37668(13)
H14 H 0.47266(15) 0.52557(14) 0.37539(13)
C11 C 0.11591(19) 1.08795(15) 0.31039(18)
H15 H 0.0132(3) 1.0874(10) 0.3278(11)
H16 H 0.1488(9) 1.0562(8) 0.3920(6)
H17 H 0.1254(11) 1.1801(3) 0.2641(6)
C12 C 0.35928(14) 0.41065(13) 0.35565(12)
C13 C -0.27673(17) 0.68333(16) 0.28047(16)
H18 H -0.2797(9) 0.7373(10) 0.1906(4)
H19 H -0.2557(7) 0.5875(3) 0.2884(11)
H20 H -0.3716(3) 0.7111(12) 0.3355(8)
C14 C 0.21088(16) 0.99358(13) 0.22724(15)
C15 C 0.36913(18) 0.40903(17) -0.00306(16)
H21 H 0.4281(9) 0.3534(8) 0.0628(5)
H22 H 0.32491(18) 0.3523(8) -0.0206(12)
H23 H 0.4318(8) 0.45004(17) -0.0824(7)
C16 C 0.37594(18) 0.98313(16) 0.20561(18)
H24 H 0.4060(4) 0.9464(12) 0.28901(19)
H25 H 0.4334(2) 0.9232(10) 0.1522(10)
H26 H 0.3927(3) 1.0731(2) 0.1619(11)
C17 C 0.1509(2) 0.6140(2) -0.05281(18)
H27 H 0.1086(15) 0.5599(3) -0.0759(13)
H28 H 0.0721(11) 0.6797(11) -0.0150(6)
H29 H 0.2102(5) 0.6620(13) -0.1302(7)
loop_
_geom_bond_atom_site_label_1
_geom_bond_atom_site_label_2
_geom_bond_site_symmetry_1
_geom_bond_site_symmetry_2
P1 O1 1_555 1_555
O2 C3 1_555 1_555
O3 C3 1_555 1_555
O4 P1 1_555 1_555
O5 P1 1_555 1_555
N1 H1 1_555 1_555
N2 P1 1_555 1_555
C1 O4 1_555 1_555
H2 C1 1_555 1_555
C2 H3 1_555 1_555
C3 N1 1_555 1_555
C4 C2 1_555 1_555
H4 C4 1_555 1_555
C5 O5 1_555 1_555
H5 C5 1_555 1_555
C6 C4 1_555 1_555
H6 C6 1_555 1_555
C7 C6 1_555 1_555
H7 C7 1_555 1_555
C8 C5 1_555 1_555
H8 C8 1_555 1_555
H9 C8 1_555 1_555
H10 C8 1_555 1_555
C9 H11 1_555 1_555
H12 C9 1_555 1_555
H13 C9 1_555 1_555
C10 C2 1_555 1_555
H14 C10 1_555 1_555
C11 H15 1_555 1_555
H16 C11 1_555 1_555
H17 C11 1_555 1_555
C12 N2 1_555 1_555
C13 C5 1_555 1_555
H18 C13 1_555 1_555
H19 C13 1_555 1_555
H20 C13 1_555 1_555
C14 O2 1_555 1_555
C15 C1 1_555 1_555
H21 C15 1_555 1_555
H22 C15 1_555 1_555
H23 C15 1_555 1_555
C16 C14 1_555 1_555
H24 C16 1_555 1_555
H25 C16 1_555 1_555
H26 C16 1_555 1_555
C17 C1 1_555 1_555
H27 C17 1_555 1_555
H28 C17 1_555 1_555
H29 C17 1_555 1_555
N1 N2 1_555 1_555
C7 C12 1_555 1_555
C9 C14 1_555 1_555
C10 C12 1_555 1_555
C11 C14 1_555 1_555

#END
