
#######################################################################
#
#                 Cambridge Crystallographic Data Centre
#                                CCDC 
#
#######################################################################
#
# If this CIF has been generated from an entry in the Cambridge 
# Structural Database, then it will include bibliographic, chemical, 
# crystal, experimental, refinement or atomic coordinate data resulting 
# from the CCDC's data processing and validation procedures.
#
#######################################################################

data_UVIFOV01
_chemical_formula_moiety         'C26 H23 F3 N2 O2 S1'
_chemical_name_systematic        
4-(trans-1-((4-Methylphenyl)sulfonyl)-2-(4-(trifluoromethyl)phenyl)piperidin-4-yl)benzonitrile
_symmetry_cell_setting           monoclinic
_symmetry_space_group_name_H-M   'C 2/c'
_symmetry_Int_Tables_number      15
_space_group_name_Hall           '-C 2yn'
loop_
_symmetry_equiv_pos_site_id
_symmetry_equiv_pos_as_xyz
1 x,y,z
2 -x,y,1/2-z
3 1/2+x,1/2+y,z
4 1/2-x,1/2+y,1/2-z
5 -x,-y,-z
6 x,-y,1/2+z
7 1/2-x,1/2-y,-z
8 1/2+x,1/2-y,1/2+z
_cell_length_a                   22.4013(9)
_cell_length_b                   14.5197(5)
_cell_length_c                   15.9116(7)
_cell_angle_alpha                90
_cell_angle_beta                 116.2671(19)
_cell_angle_gamma                90
_cell_volume                     4641
_exptl_crystal_colour            colorless
_exptl_crystal_description       rod
_cell_formula_units_Z            8
loop_
_atom_site_label
_atom_site_type_symbol
_atom_site_fract_x
_atom_site_fract_y
_atom_site_fract_z
S1 S 0.12470(3) 0.44267(4) 0.58997(4)
F1 F 0.16333(10) 0.89289(12) 0.28683(16)
F2 F 0.05947(11) 0.89962(15) 0.21752(18)
F3 F 0.11074(14) 0.94294(12) 0.35841(17)
O1 O 0.07115(8) 0.49633(11) 0.59123(12)
O2 O 0.18437(8) 0.43090(12) 0.67481(11)
N1 N 0.14635(9) 0.49115(13) 0.51502(13)
N2 N 0.18795(12) 0.04077(17) 0.10464(17)
C1 C 0.09144(11) 0.33314(16) 0.54667(16)
C2 C 0.02415(12) 0.32523(17) 0.48566(19)
H1 H -0.0044 0.3772 0.4723
C3 C -0.00061(13) 0.24160(19) 0.4449(2)
H2 H -0.0465 0.2364 0.4026
C4 C 0.03994(13) 0.16429(18) 0.4642(2)
C5 C 0.10651(13) 0.17309(17) 0.5282(2)
H3 H 0.1345 0.1204 0.5444
C6 C 0.13254(12) 0.25663(17) 0.56839(18)
H4 H 0.1784 0.2619 0.6108
C7 C 0.01224(16) 0.0740(2) 0.4148(3)
H5 H 0.0061 0.0777 0.3500
H6 H -0.0307 0.0617 0.4151
H7 H 0.0434 0.0241 0.4474
C8 C 0.21478(11) 0.47879(17) 0.52508(17)
H8 H 0.2454 0.4674 0.5918
H9 H 0.2292 0.5362 0.5058
C9 C 0.21963(12) 0.39926(17) 0.46649(17)
H10 H 0.2103 0.3407 0.4903
H11 H 0.2654 0.3960 0.4722
C10 C 0.17017(12) 0.41139(16) 0.36349(17)
H12 H 0.1831 0.4678 0.3394
C11 C 0.09948(12) 0.42619(16) 0.35427(17)
H13 H 0.0839 0.3681 0.3706
H14 H 0.0692 0.4407 0.2881
C12 C 0.09508(11) 0.50408(16) 0.41710(16)
H15 H 0.0506 0.4988 0.4173
C13 C 0.10048(11) 0.60202(17) 0.38546(17)
C14 C 0.11386(15) 0.67404(18) 0.4477(2)
H16 H 0.1216 0.6617 0.5103
C15 C 0.11626(16) 0.7637(2) 0.4206(2)
H17 H 0.1255 0.8123 0.4646
C16 C 0.10532(13) 0.78308(18) 0.3305(2)
C17 C 0.08919(17) 0.7124(2) 0.2665(2)
H18 H 0.0794 0.7252 0.2032
C18 C 0.08716(16) 0.6227(2) 0.2945(2)
H19 H 0.0764 0.5743 0.2499
C19 C 0.10934(15) 0.8786(2) 0.2993(2)
C20 C 0.17385(11) 0.32974(16) 0.30670(17)
C21 C 0.20157(12) 0.33811(16) 0.24472(17)
H20 H 0.2171 0.3966 0.2360
C22 C 0.20714(12) 0.26306(17) 0.19515(18)
H21 H 0.2266 0.2702 0.1532
C23 C 0.18443(12) 0.17770(17) 0.20665(18)
C24 C 0.15746(13) 0.16721(17) 0.26959(19)
H22 H 0.1426 0.1084 0.2786
C25 C 0.15239(13) 0.24225(17) 0.31883(19)
H23 H 0.1340 0.2346 0.3619
C26 C 0.18741(12) 0.10058(18) 0.15142(19)
loop_
_geom_bond_atom_site_label_1
_geom_bond_atom_site_label_2
_geom_bond_site_symmetry_1
_geom_bond_site_symmetry_2
S1 O1 1_555 1_555
F1 C19 1_555 1_555
F2 C19 1_555 1_555
F3 C19 1_555 1_555
O2 S1 1_555 1_555
N1 S1 1_555 1_555
N2 C26 1_555 1_555
C1 S1 1_555 1_555
C2 C1 1_555 1_555
H1 C2 1_555 1_555
C3 C2 1_555 1_555
H2 C3 1_555 1_555
C4 C3 1_555 1_555
C5 C4 1_555 1_555
H3 C5 1_555 1_555
C6 C1 1_555 1_555
H4 C6 1_555 1_555
C7 C4 1_555 1_555
H5 C7 1_555 1_555
H6 C7 1_555 1_555
H7 C7 1_555 1_555
C8 N1 1_555 1_555
H8 C8 1_555 1_555
H9 C8 1_555 1_555
C9 C8 1_555 1_555
H10 C9 1_555 1_555
H11 C9 1_555 1_555
C10 C9 1_555 1_555
H12 C10 1_555 1_555
C11 C10 1_555 1_555
H13 C11 1_555 1_555
H14 C11 1_555 1_555
C12 N1 1_555 1_555
H15 C12 1_555 1_555
C13 C12 1_555 1_555
C14 C13 1_555 1_555
H16 C14 1_555 1_555
C15 C14 1_555 1_555
H17 C15 1_555 1_555
C16 C15 1_555 1_555
C17 C16 1_555 1_555
H18 C17 1_555 1_555
C18 C13 1_555 1_555
H19 C18 1_555 1_555
C19 C16 1_555 1_555
C20 C10 1_555 1_555
C21 C20 1_555 1_555
H20 C21 1_555 1_555
C22 C21 1_555 1_555
H21 C22 1_555 1_555
C23 C22 1_555 1_555
C24 C23 1_555 1_555
H22 C24 1_555 1_555
C25 C20 1_555 1_555
H23 C25 1_555 1_555
C26 C23 1_555 1_555
C5 C6 1_555 1_555
C11 C12 1_555 1_555
C17 C18 1_555 1_555
C24 C25 1_555 1_555

#END
