
#######################################################################
#
#                 Cambridge Crystallographic Data Centre
#                                CCDC 
#
#######################################################################
#
# If this CIF has been generated from an entry in the Cambridge 
# Structural Database, then it will include bibliographic, chemical, 
# crystal, experimental, refinement or atomic coordinate data resulting 
# from the CCDC's data processing and validation procedures.
#
#######################################################################

data_UVITIE
_chemical_formula_moiety         'C33 H31 F1 N2 O2 S1'
_chemical_name_systematic        
10-fluoro-1-((4-methylphenyl)sulfonyl)-2,6-diphenyl-2,3,3a,3b,4,5,6,11b-octahydro-1H-dipyrrolo[1,2-a:3',2'-c]quinoline
_symmetry_cell_setting           tetragonal
_symmetry_space_group_name_H-M   'P -4 21 c'
_symmetry_Int_Tables_number      114
_space_group_name_Hall           'P -4 2n'
loop_
_symmetry_equiv_pos_site_id
_symmetry_equiv_pos_as_xyz
1 x,y,z
2 -x,-y,z
3 y,-x,-z
4 -y,x,-z
5 1/2-x,1/2+y,1/2-z
6 1/2+x,1/2-y,1/2-z
7 1/2-y,1/2-x,1/2+z
8 1/2+y,1/2+x,1/2+z
_cell_length_a                   23.4927(17)
_cell_length_b                   23.4927(17)
_cell_length_c                   9.7030(9)
_cell_angle_alpha                90
_cell_angle_beta                 90
_cell_angle_gamma                90
_cell_volume                     5355.15
_exptl_crystal_colour            colorless
_exptl_crystal_description       Prism
_cell_formula_units_Z            8
loop_
_atom_site_label
_atom_site_type_symbol
_atom_site_fract_x
_atom_site_fract_y
_atom_site_fract_z
S1 S 0.253784(12) 0.336079(12) 1.23803(3)
F1 F 0.45182(3) 0.44373(4) 1.36842(9)
O1 O 0.19989(4) 0.30774(4) 1.25458(10)
O2 O 0.28017(4) 0.36223(4) 1.35529(10)
N1 N 0.36195(4) 0.38165(4) 0.86490(11)
N2 N 0.24343(4) 0.38345(4) 1.11967(11)
C1 C 0.40288(6) 0.27573(5) 0.76670(15)
H1 H 0.3799 0.2784 0.8470
C2 C 0.42279(7) 0.22271(6) 0.72318(17)
H2 H 0.4130 0.1894 0.7734
C3 C 0.45660(6) 0.21851(6) 0.60742(17)
H3 H 0.4703 0.1824 0.5783
C4 C 0.47059(6) 0.26700(6) 0.53364(16)
H4 H 0.4940 0.2642 0.4541
C5 C 0.45032(6) 0.31966(6) 0.57603(14)
H5 H 0.4596 0.3528 0.5245
C6 C 0.41647(5) 0.32451(5) 0.69328(13)
C7 C 0.39505(5) 0.38284(5) 0.73699(12)
H6 H 0.4280 0.4094 0.7476
C8 C 0.35207(5) 0.40792(5) 0.63463(13)
H7 H 0.3516 0.4500 0.6394
H8 H 0.3609 0.3961 0.5391
C9 C 0.29533(5) 0.38292(6) 0.68274(13)
H9 H 0.2896 0.3443 0.6442
H10 H 0.2632 0.4075 0.6543
C10 C 0.30032(5) 0.38071(5) 0.84054(12)
H11 H 0.2844 0.3438 0.8745
C11 C 0.27138(5) 0.42984(5) 0.91636(12)
H12 H 0.2833 0.4673 0.8767
C12 C 0.20646(5) 0.42394(5) 0.91492(13)
H13 H 0.1932 0.4100 0.8241
H14 H 0.1881 0.4611 0.9341
C13 C 0.19204(5) 0.38044(5) 1.02928(13)
H15 H 0.1886 0.3415 0.9886
C14 C 0.28551(5) 0.42685(5) 1.07114(12)
H16 H 0.2756 0.4643 1.1139
C15 C 0.34794(5) 0.41502(5) 1.09863(12)
C16 C 0.37141(5) 0.43142(5) 1.22455(13)
H17 H 0.3476 0.4455 1.2960
C17 C 0.42919(5) 0.42709(5) 1.24474(13)
C18 C 0.46529(5) 0.40706(6) 1.14371(14)
H18 H 0.5051 0.4044 1.1602
C19 C 0.44264(5) 0.39093(6) 1.01801(14)
H19 H 0.4672 0.3768 0.9480
C20 C 0.38384(5) 0.39512(5) 0.99233(12)
C21 C 0.13731(5) 0.39619(5) 1.10202(12)
C22 C 0.08715(5) 0.36699(6) 1.07221(14)
H20 H 0.0877 0.3358 1.0101
C23 C 0.03618(6) 0.38365(6) 1.13361(16)
H21 H 0.0021 0.3636 1.1130
C24 C 0.03464(6) 0.42899(6) 1.22404(16)
H22 H -0.0003 0.4403 1.2648
C25 C 0.08450(6) 0.45784(6) 1.25487(17)
H23 H 0.0838 0.4889 1.3177
C26 C 0.13556(6) 0.44149(6) 1.19406(16)
H24 H 0.1696 0.4615 1.2156
C27 C 0.30151(5) 0.28362(5) 1.17514(13)
C28 C 0.28229(5) 0.24504(5) 1.07698(13)
H25 H 0.2455 0.2493 1.0375
C29 C 0.31716(6) 0.20027(6) 1.03706(16)
H26 H 0.3040 0.1740 0.9699
C30 C 0.37109(6) 0.19326(6) 1.09372(16)
C31 C 0.39000(6) 0.23316(6) 1.18991(18)
H27 H 0.4271 0.2294 1.2279
C32 C 0.35574(5) 0.27825(5) 1.23134(17)
H28 H 0.3692 0.3050 1.2971
C33 C 0.40765(7) 0.14246(7) 1.0552(2)
H29 H 0.3883 0.1200 0.9842
H30 H 0.4139 0.1187 1.1369
H31 H 0.4444 0.1558 1.0197
loop_
_geom_bond_atom_site_label_1
_geom_bond_atom_site_label_2
_geom_bond_site_symmetry_1
_geom_bond_site_symmetry_2
S1 O1 1_555 1_555
F1 C17 1_555 1_555
O2 S1 1_555 1_555
N1 C7 1_555 1_555
N2 S1 1_555 1_555
C1 H1 1_555 1_555
C2 C1 1_555 1_555
H2 C2 1_555 1_555
C3 C2 1_555 1_555
H3 C3 1_555 1_555
C4 C3 1_555 1_555
H4 C4 1_555 1_555
C5 C4 1_555 1_555
H5 C5 1_555 1_555
C6 C1 1_555 1_555
C7 C6 1_555 1_555
H6 C7 1_555 1_555
C8 C7 1_555 1_555
H7 C8 1_555 1_555
H8 C8 1_555 1_555
C9 C8 1_555 1_555
H9 C9 1_555 1_555
H10 C9 1_555 1_555
C10 N1 1_555 1_555
H11 C10 1_555 1_555
C11 C10 1_555 1_555
H12 C11 1_555 1_555
C12 C11 1_555 1_555
H13 C12 1_555 1_555
H14 C12 1_555 1_555
C13 N2 1_555 1_555
H15 C13 1_555 1_555
C14 N2 1_555 1_555
H16 C14 1_555 1_555
C15 C14 1_555 1_555
C16 C15 1_555 1_555
H17 C16 1_555 1_555
C17 C16 1_555 1_555
C18 C17 1_555 1_555
H18 C18 1_555 1_555
C19 C18 1_555 1_555
H19 C19 1_555 1_555
C20 N1 1_555 1_555
C21 C13 1_555 1_555
C22 C21 1_555 1_555
H20 C22 1_555 1_555
C23 C22 1_555 1_555
H21 C23 1_555 1_555
C24 C23 1_555 1_555
H22 C24 1_555 1_555
C25 C24 1_555 1_555
H23 C25 1_555 1_555
C26 C21 1_555 1_555
H24 C26 1_555 1_555
C27 S1 1_555 1_555
C28 C27 1_555 1_555
H25 C28 1_555 1_555
C29 C28 1_555 1_555
H26 C29 1_555 1_555
C30 C29 1_555 1_555
C31 C30 1_555 1_555
H27 C31 1_555 1_555
C32 C27 1_555 1_555
H28 C32 1_555 1_555
C33 C30 1_555 1_555
H29 C33 1_555 1_555
H30 C33 1_555 1_555
H31 C33 1_555 1_555
C5 C6 1_555 1_555
C9 C10 1_555 1_555
C11 C14 1_555 1_555
C12 C13 1_555 1_555
C15 C20 1_555 1_555
C19 C20 1_555 1_555
C25 C26 1_555 1_555
C31 C32 1_555 1_555

#END
