
#######################################################################
#
#                 Cambridge Crystallographic Data Centre
#                                CCDC 
#
#######################################################################
#
# If this CIF has been generated from an entry in the Cambridge 
# Structural Database, then it will include bibliographic, chemical, 
# crystal, experimental, refinement or atomic coordinate data resulting 
# from the CCDC's data processing and validation procedures.
#
#######################################################################

data_UVIYEF
_chemical_formula_moiety         'C19 H24 N2 O5'
_chemical_name_systematic        
'diethyl 2-(4-methylphenyl)-3a,4,6,7-tetrahydro-3H-pyrazolo[5,1-c][1,4]oxazine-3,3-dicarboxylate'
_symmetry_cell_setting           monoclinic
_symmetry_space_group_name_H-M   'P 21/c'
_symmetry_Int_Tables_number      14
_space_group_name_Hall           '-P 2ybc'
loop_
_symmetry_equiv_pos_site_id
_symmetry_equiv_pos_as_xyz
1 x,y,z
2 -x,1/2+y,1/2-z
3 -x,-y,-z
4 x,1/2-y,1/2+z
_cell_length_a                   12.590(2)
_cell_length_b                   8.3056(13)
_cell_length_c                   17.163(3)
_cell_angle_alpha                90
_cell_angle_beta                 97.211(4)
_cell_angle_gamma                90
_cell_volume                     1780.5
_cell_formula_units_Z            4
loop_
_atom_site_label
_atom_site_type_symbol
_atom_site_fract_x
_atom_site_fract_y
_atom_site_fract_z
C1 C 0.7256(4) 0.2991(8) 0.6862(3)
H1 H 0.7535 0.2891 0.6369
H2 H 0.7520 0.2124 0.7203
H3 H 0.7479 0.4000 0.7102
C2 C 0.6048(4) 0.2926(6) 0.6726(3)
C3 C 0.5451(4) 0.2065(5) 0.7229(3)
H4 H 0.5810 0.1451 0.7632
C4 C 0.4351(3) 0.2106(5) 0.7140(2)
H5 H 0.3983 0.1514 0.7480
C5 C 0.3769(3) 0.3035(5) 0.6541(2)
C6 C 0.4365(3) 0.3839(5) 0.6024(2)
H6 H 0.4010 0.4421 0.5607
C7 C 0.5465(3) 0.3781(5) 0.6122(2)
H7 H 0.5834 0.4338 0.5769
C8 C 0.2598(3) 0.3107(5) 0.6492(2)
C9 C 0.0280(4) 0.1737(6) 0.7224(3)
H8 H -0.0338 0.2333 0.7352
H9 H 0.0636 0.1276 0.7707
C10 C -0.0090(4) 0.0397(6) 0.6661(3)
H10 H 0.0504 -0.0321 0.6606
H11 H -0.0647 -0.0220 0.6867
C11 C 0.0367(4) 0.1823(6) 0.5573(3)
H12 H 0.0126 0.2145 0.5037
H13 H 0.0962 0.1084 0.5568
C12 C 0.0722(3) 0.3301(5) 0.6068(2)
H14 H 0.0158 0.4121 0.6019
C13 C 0.1803(3) 0.4038(5) 0.5884(2)
C14 C 0.1931(3) 0.3873(6) 0.5018(3)
C15 C 0.2480(5) 0.2275(8) 0.4010(3)
H15 H 0.1769 0.2174 0.3722
H16 H 0.2828 0.3197 0.3805
C16 C 0.3078(6) 0.0865(9) 0.3914(3)
H17 H 0.3802 0.1016 0.4152
H18 H 0.3072 0.0647 0.3364
H19 H 0.2765 -0.0026 0.4159
C17 C 0.1800(4) 0.5857(6) 0.6049(3)
C18 C 0.2767(4) 0.8290(6) 0.5915(4)
H20 H 0.2635 0.8730 0.6418
H21 H 0.2231 0.8710 0.5511
C19 C 0.3871(5) 0.8734(6) 0.5743(3)
H22 H 0.4391 0.8338 0.6155
H23 H 0.3928 0.9884 0.5712
H24 H 0.3998 0.8264 0.5252
N1 N 0.1015(3) 0.2845(5) 0.6899(2)
N2 N 0.2102(3) 0.2449(4) 0.7027(2)
O1 O 0.1614(3) 0.4862(5) 0.4537(2)
O2 O 0.2400(3) 0.2513(4) 0.4855(2)
O3 O -0.0493(3) 0.1050(4) 0.5910(2)
O4 O 0.1047(3) 0.6604(4) 0.6227(2)
O5 O 0.2724(3) 0.6516(4) 0.5932(2)
loop_
_geom_bond_atom_site_label_1
_geom_bond_atom_site_label_2
_geom_bond_site_symmetry_1
_geom_bond_site_symmetry_2
C1 H1 1_555 1_555
H2 C1 1_555 1_555
H3 C1 1_555 1_555
C2 C1 1_555 1_555
C3 C2 1_555 1_555
H4 C3 1_555 1_555
C4 C3 1_555 1_555
H5 C4 1_555 1_555
C5 C4 1_555 1_555
C6 C5 1_555 1_555
H6 C6 1_555 1_555
C7 C2 1_555 1_555
H7 C7 1_555 1_555
C8 C5 1_555 1_555
C9 H8 1_555 1_555
H9 C9 1_555 1_555
C10 C9 1_555 1_555
H10 C10 1_555 1_555
H11 C10 1_555 1_555
C11 H12 1_555 1_555
H13 C11 1_555 1_555
C12 C11 1_555 1_555
H14 C12 1_555 1_555
C13 C8 1_555 1_555
C14 C13 1_555 1_555
C15 H15 1_555 1_555
H16 C15 1_555 1_555
C16 C15 1_555 1_555
H17 C16 1_555 1_555
H18 C16 1_555 1_555
H19 C16 1_555 1_555
C17 C13 1_555 1_555
C18 H20 1_555 1_555
H21 C18 1_555 1_555
C19 C18 1_555 1_555
H22 C19 1_555 1_555
H23 C19 1_555 1_555
H24 C19 1_555 1_555
N1 C9 1_555 1_555
N2 C8 1_555 1_555
O1 C14 1_555 1_555
O2 C14 1_555 1_555
O3 C10 1_555 1_555
O4 C17 1_555 1_555
O5 C17 1_555 1_555
C6 C7 1_555 1_555
C11 O3 1_555 1_555
C12 C13 1_555 1_555
C12 N1 1_555 1_555
C15 O2 1_555 1_555
C18 O5 1_555 1_555
N1 N2 1_555 1_555

#END
