
#######################################################################
#
#                 Cambridge Crystallographic Data Centre
#                                CCDC 
#
#######################################################################
#
# If this CIF has been generated from an entry in the Cambridge 
# Structural Database, then it will include bibliographic, chemical, 
# crystal, experimental, refinement or atomic coordinate data resulting 
# from the CCDC's data processing and validation procedures.
#
#######################################################################

data_UVIZIJ
_chemical_formula_moiety         '2(C15 H17 N2 O2 1+),C9 H4 O6 2-'
_chemical_name_systematic        
'bis(4-methoxy-N-(((4-methoxyphenyl)amino)methylene)anilinium) 5-carboxyisophthalate'
_symmetry_cell_setting           triclinic
_symmetry_space_group_name_H-M   'P -1'
_symmetry_Int_Tables_number      2
_space_group_name_Hall           '-P 1'
loop_
_symmetry_equiv_pos_site_id
_symmetry_equiv_pos_as_xyz
1 x,y,z
2 -x,-y,-z
_cell_length_a                   8.5834(5)
_cell_length_b                   10.0791(6)
_cell_length_c                   20.7696(11)
_cell_angle_alpha                89.9380(10)
_cell_angle_beta                 78.9900(10)
_cell_angle_gamma                86.1250(10)
_cell_volume                     1759.61
_exptl_crystal_colour            colorless
_exptl_crystal_description       block
_cell_formula_units_Z            2
loop_
_atom_site_label
_atom_site_type_symbol
_atom_site_fract_x
_atom_site_fract_y
_atom_site_fract_z
O1 O -0.59427(11) 0.38439(10) 0.34839(4)
O2 O -0.40629(11) 0.32107(11) 0.40410(4)
O3 O 0.14136(12) 0.33356(11) 0.31451(4)
H1 H 0.245(2) 0.334(2) 0.3191(9)
O4 O 0.23847(11) 0.32008(10) 0.20690(4)
O5 O -0.15656(11) 0.42462(10) 0.06183(4)
O6 O -0.39551(11) 0.51784(9) 0.10863(4)
C1 C -0.32409(15) 0.35928(12) 0.29124(6)
C2 C -0.16670(15) 0.33592(12) 0.29762(6)
H2 H -0.1431 0.3122 0.3392
C3 C -0.04284(15) 0.34653(12) 0.24437(6)
C4 C -0.07867(16) 0.37821(12) 0.18323(6)
H3 H 0.0047 0.3804 0.1459
C5 C -0.23497(15) 0.40651(12) 0.17639(6)
C6 C -0.35770(16) 0.39756(12) 0.23031(6)
H4 H -0.4648 0.4175 0.2257
C7 C -0.45129(16) 0.35267(13) 0.35189(6)
C8 C 0.12624(16) 0.33100(13) 0.25191(6)
C9 C -0.26618(16) 0.45293(13) 0.11015(6)
O7 O -1.17513(12) 0.94566(10) 0.46145(4)
O8 O -0.43320(14) 0.09267(11) 0.73402(5)
C10 C -1.19324(19) 1.00292(15) 0.39998(7)
H5 H -1.2641 1.0841 0.4079
H6 H -1.2390 0.9391 0.3746
H7 H -1.0890 1.0247 0.3754
C11 C -1.07168(17) 0.83612(13) 0.45899(6)
C12 C -1.04380(18) 0.78974(15) 0.51921(6)
H8 H -1.0973 0.8337 0.5585
C13 C -0.94080(18) 0.68217(15) 0.52263(6)
H9 H -0.9230 0.6524 0.5642
C14 C -0.86133(16) 0.61543(13) 0.46595(6)
C15 C -0.89135(17) 0.65905(14) 0.40612(6)
H10 H -0.8400 0.6131 0.3671
C16 C -0.99533(17) 0.76886(14) 0.40226(6)
H11 H -1.0143 0.7980 0.3608
C17 C -0.71846(16) 0.44689(13) 0.52030(6)
H12 H -0.7796 0.4754 0.5616
C18 C -0.56655(16) 0.28462(14) 0.57454(6)
C19 C -0.62994(18) 0.32560(14) 0.63855(6)
H13 H -0.7065 0.3992 0.6468
C20 C -0.58123(19) 0.25907(14) 0.68997(7)
H14 H -0.6235 0.2882 0.7337
C21 C -0.47170(18) 0.15051(15) 0.67892(7)
C22 C -0.3347(2) -0.02835(18) 0.72601(10)
H15 H -0.3244 -0.0631 0.7692
H16 H -0.2292 -0.0113 0.7010
H17 H -0.3828 -0.0937 0.7023
C23 C -0.40985(19) 0.10847(15) 0.61523(8)
H18 H -0.3352 0.0336 0.6070
C24 C -0.45757(17) 0.17646(15) 0.56341(7)
H19 H -0.4145 0.1480 0.5197
N1 N -0.60789(13) 0.35134(11) 0.51894(5)
H35 H -0.5537 0.3256 0.4801
N2 N -0.74950(13) 0.50579(11) 0.46713(5)
H36 H -0.6964 0.4745 0.4291
O9 O 0.06003(13) 0.08931(10) -0.24808(4)
O10 O -0.82242(12) 1.07699(10) -0.00978(5)
C25 C 0.1771(2) -0.00582(15) -0.23264(7)
H20 H 0.2060 -0.0720 -0.2682
H21 H 0.1342 -0.0502 -0.1917
H22 H 0.2717 0.0392 -0.2274
C26 C 0.00016(18) 0.18555(14) -0.20100(6)
C27 C -0.13477(18) 0.26087(14) -0.21013(6)
H23 H -0.1771 0.2473 -0.2485
C28 C -0.20875(17) 0.35549(13) -0.16420(6)
H24 H -0.3025 0.4055 -0.1703
C29 C -0.14372(16) 0.37642(12) -0.10871(6)
C30 C -0.00746(16) 0.30359(13) -0.10046(6)
H25 H 0.0370 0.3192 -0.0628
C31 C 0.06571(17) 0.20807(14) -0.14613(6)
H26 H 0.1598 0.1584 -0.1400
C32 C -0.31844(15) 0.56635(13) -0.06369(6)
H27 H -0.3372 0.5894 -0.1061
C33 C -0.49996(15) 0.74937(13) -0.01378(6)
C34 C -0.53959(17) 0.80152(13) -0.07112(6)
H28 H -0.4926 0.7624 -0.1125
C35 C -0.64700(17) 0.90990(14) -0.06747(6)
H29 H -0.6737 0.9452 -0.1067
C36 C -0.71760(16) 0.96921(13) -0.00757(6)
C37 C -0.90787(18) 1.12992(15) 0.05148(7)
H30 H -0.9833 1.2028 0.0436
H31 H -0.8330 1.1635 0.0767
H32 H -0.9660 1.0599 0.0762
C38 C -0.67753(16) 0.91744(13) 0.04922(6)
H33 H -0.7251 0.9561 0.0906
C39 C -0.56818(16) 0.80939(13) 0.04576(6)
H34 H -0.5393 0.7757 0.0849
N3 N -0.39377(13) 0.63636(10) -0.01252(5)
H37 H -0.3766 0.6105 0.0262
N4 N -0.21811(13) 0.46553(10) -0.05766(5)
H38 H -0.1949 0.4520 -0.0186
loop_
_geom_bond_atom_site_label_1
_geom_bond_atom_site_label_2
_geom_bond_site_symmetry_1
_geom_bond_site_symmetry_2
O1 C7 1_555 1_555
O2 C7 1_555 1_555
O3 H1 1_555 1_555
O4 C8 1_555 1_555
O5 C9 1_555 1_555
O6 C9 1_555 1_555
O7 C10 1_555 1_555
O8 C21 1_555 1_555
O9 C25 1_555 1_555
O10 C36 1_555 1_555
C1 C2 1_555 1_555
C2 H2 1_555 1_555
C3 C2 1_555 1_555
C4 C3 1_555 1_555
H3 C4 1_555 1_555
C5 C4 1_555 1_555
C6 C1 1_555 1_555
H4 C6 1_555 1_555
C7 C1 1_555 1_555
C8 O3 1_555 1_555
C9 C5 1_555 1_555
C10 H5 1_555 1_555
H6 C10 1_555 1_555
H7 C10 1_555 1_555
C11 O7 1_555 1_555
C12 C11 1_555 1_555
H8 C12 1_555 1_555
C13 C12 1_555 1_555
H9 C13 1_555 1_555
C14 C13 1_555 1_555
C15 C14 1_555 1_555
H10 C15 1_555 1_555
C16 C11 1_555 1_555
H11 C16 1_555 1_555
C17 H12 1_555 1_555
C18 C19 1_555 1_555
C19 H13 1_555 1_555
C20 C19 1_555 1_555
H14 C20 1_555 1_555
C21 C20 1_555 1_555
C22 O8 1_555 1_555
H15 C22 1_555 1_555
H16 C22 1_555 1_555
H17 C22 1_555 1_555
C23 C21 1_555 1_555
H18 C23 1_555 1_555
C24 C18 1_555 1_555
H19 C24 1_555 1_555
C25 H20 1_555 1_555
H21 C25 1_555 1_555
H22 C25 1_555 1_555
C26 O9 1_555 1_555
C27 C26 1_555 1_555
H23 C27 1_555 1_555
C28 C27 1_555 1_555
H24 C28 1_555 1_555
C29 C28 1_555 1_555
C30 C29 1_555 1_555
H25 C30 1_555 1_555
C31 C26 1_555 1_555
H26 C31 1_555 1_555
C32 H27 1_555 1_555
C33 C34 1_555 1_555
C34 H28 1_555 1_555
C35 C34 1_555 1_555
H29 C35 1_555 1_555
C36 C35 1_555 1_555
C37 O10 1_555 1_555
H30 C37 1_555 1_555
H31 C37 1_555 1_555
H32 C37 1_555 1_555
C38 C36 1_555 1_555
H33 C38 1_555 1_555
C39 C33 1_555 1_555
H34 C39 1_555 1_555
N1 C17 1_555 1_555
H35 N1 1_555 1_555
N2 C14 1_555 1_555
H36 N2 1_555 1_555
N3 C32 1_555 1_555
H37 N3 1_555 1_555
N4 C29 1_555 1_555
H38 N4 1_555 1_555
C3 C8 1_555 1_555
C5 C6 1_555 1_555
C15 C16 1_555 1_555
C17 N2 1_555 1_555
C18 N1 1_555 1_555
C23 C24 1_555 1_555
C30 C31 1_555 1_555
C32 N4 1_555 1_555
C33 N3 1_555 1_555
C38 C39 1_555 1_555

#END
