
#######################################################################
#
#                 Cambridge Crystallographic Data Centre
#                                CCDC 
#
#######################################################################
#
# If this CIF has been generated from an entry in the Cambridge 
# Structural Database, then it will include bibliographic, chemical, 
# crystal, experimental, refinement or atomic coordinate data resulting 
# from the CCDC's data processing and validation procedures.
#
#######################################################################

data_UVUGID
_chemical_compound_source        
'endophytic fungus Talaromyces wortmannii LGT-4'
_chemical_name_common            'Wortmannine A'
_chemical_formula_moiety         'C19 H24 O6'
_chemical_name_systematic        
(3aS,5R,5bS,6S,9aR,10bR)-5-hydroxy-6-(methoxymethyl)-3a,5b-dimethyl-3a,4,5,5b,6,9,9a,10b-octahydro-1H-as-indaceno[3,2-c]pyran-3,8,10(2H)-trione
_symmetry_cell_setting           hexagonal
_symmetry_space_group_name_H-M   'P 65'
_symmetry_Int_Tables_number      170
_space_group_name_Hall           'P 65'
loop_
_symmetry_equiv_pos_site_id
_symmetry_equiv_pos_as_xyz
1 x,y,z
2 x-y,x,5/6+z
3 -y,x-y,2/3+z
4 -x,-y,1/2+z
5 -x+y,-x,1/3+z
6 y,-x+y,1/6+z
_cell_length_a                   17.9668(11)
_cell_length_b                   17.9668(11)
_cell_length_c                   10.4143(6)
_cell_angle_alpha                90
_cell_angle_beta                 90
_cell_angle_gamma                120
_cell_volume                     2911.4
_exptl_crystal_colour            colorless
_exptl_crystal_description       block
_cell_formula_units_Z            6
loop_
_atom_site_label
_atom_site_type_symbol
_atom_site_fract_x
_atom_site_fract_y
_atom_site_fract_z
O1 O -0.3729(3) -0.0081(4) -0.0659(5)
O2 O -0.4634(3) 0.0344(4) 0.4179(5)
H1 H -0.5106 0.0310 0.4173
O3 O -0.1029(3) 0.2314(4) 0.3781(6)
O4 O -0.2939(4) 0.1987(3) 0.7271(5)
O5 O -0.1841(6) 0.2996(4) 0.8309(6)
O6 O -0.2250(4) 0.1000(4) 0.6121(8)
C1 C -0.2509(3) 0.1593(4) 0.3126(6)
C2 C -0.2526(3) 0.1111(4) 0.1950(6)
H2 H -0.2594 0.0562 0.2243
C3 C -0.1806(4) 0.1467(5) 0.0959(7)
H3 H -0.1309 0.1441 0.1265
H4 H -0.1633 0.2054 0.0728
C4 C -0.2243(4) 0.0848(5) -0.0169(8)
H5 H -0.2072 0.1157 -0.0978
H6 H -0.2085 0.0405 -0.0180
C5 C -0.3186(4) 0.0462(4) 0.0033(6)
C6 C -0.3328(3) 0.0896(4) 0.1169(5)
C7 C -0.4112(4) 0.0377(4) 0.2022(6)
H7 H -0.4113 -0.0135 0.2323
H8 H -0.4630 0.0195 0.1521
C8 C -0.4118(3) 0.0900(4) 0.3180(5)
H9 H -0.4362 0.1256 0.2913
C9 C -0.3214(3) 0.1486(3) 0.3706(5)
C10 C -0.3039(4) 0.2012(4) 0.4912(6)
C11 C -0.2045(4) 0.2618(4) 0.4853(6)
H10 H -0.1938 0.3161 0.4469
C12 C -0.1750(3) 0.2185(4) 0.3894(6)
C13 C -0.1579(5) 0.2833(5) 0.6126(8)
H11 H -0.1254 0.2535 0.6166
H12 H -0.1167 0.3444 0.6132
C14 C -0.2101(6) 0.2627(4) 0.7307(8)
C15 C -0.3293(4) 0.1461(4) 0.6134(6)
H13 H -0.3918 0.1202 0.6207
C16 C -0.3119(5) 0.0719(5) 0.6181(7)
H14 H -0.3353 0.0400 0.6970
H15 H -0.3408 0.0335 0.5467
C17 C -0.2087(11) 0.0308(10) 0.601(3)
H16 H -0.2217 0.0081 0.5155
H17 H -0.2441 -0.0135 0.6611
H18 H -0.1493 0.0509 0.6194
C18 C -0.3334(5) 0.1685(5) 0.0611(7)
H19 H -0.2864 0.1976 0.0022
H20 H -0.3276 0.2069 0.1296
H21 H -0.3866 0.1503 0.0168
C19 C -0.3527(6) 0.2512(5) 0.4906(8)
H22 H -0.3389 0.2852 0.4139
H23 H -0.3362 0.2882 0.5644
H24 H -0.4134 0.2115 0.4933
loop_
_geom_bond_atom_site_label_1
_geom_bond_atom_site_label_2
_geom_bond_site_symmetry_1
_geom_bond_site_symmetry_2
O1 C5 1_555 1_555
O2 H1 1_555 1_555
O3 C12 1_555 1_555
O4 C14 1_555 1_555
O5 C14 1_555 1_555
O6 C16 1_555 1_555
C1 C2 1_555 1_555
C2 H2 1_555 1_555
C3 C2 1_555 1_555
H3 C3 1_555 1_555
H4 C3 1_555 1_555
C4 C3 1_555 1_555
H5 C4 1_555 1_555
H6 C4 1_555 1_555
C5 C4 1_555 1_555
C6 C2 1_555 1_555
C7 C6 1_555 1_555
H7 C7 1_555 1_555
H8 C7 1_555 1_555
C8 O2 1_555 1_555
H9 C8 1_555 1_555
C9 C1 1_555 1_555
C10 C9 1_555 1_555
C11 C10 1_555 1_555
H10 C11 1_555 1_555
C12 C1 1_555 1_555
C13 C11 1_555 1_555
H11 C13 1_555 1_555
H12 C13 1_555 1_555
C14 C13 1_555 1_555
C15 O4 1_555 1_555
H13 C15 1_555 1_555
C16 C15 1_555 1_555
H14 C16 1_555 1_555
H15 C16 1_555 1_555
C17 O6 1_555 1_555
H16 C17 1_555 1_555
H17 C17 1_555 1_555
H18 C17 1_555 1_555
C18 C6 1_555 1_555
H19 C18 1_555 1_555
H20 C18 1_555 1_555
H21 C18 1_555 1_555
C19 C10 1_555 1_555
H22 C19 1_555 1_555
H23 C19 1_555 1_555
H24 C19 1_555 1_555
C5 C6 1_555 1_555
C7 C8 1_555 1_555
C8 C9 1_555 1_555
C10 C15 1_555 1_555
C11 C12 1_555 1_555

#END
