
#######################################################################
#
#                 Cambridge Crystallographic Data Centre
#                                CCDC 
#
#######################################################################
#
# If this CIF has been generated from an entry in the Cambridge 
# Structural Database, then it will include bibliographic, chemical, 
# crystal, experimental, refinement or atomic coordinate data resulting 
# from the CCDC's data processing and validation procedures.
#
#######################################################################

data_UVUHUP
_chemical_formula_moiety         'C26 H26 N2 O2 S1'
_chemical_name_systematic        
4-Methyl-N'-(1-phenylethylidene)-N-(1-phenylpent-1-yn-3-yl)benzenesulfonohydrazide
_symmetry_cell_setting           orthorhombic
_symmetry_space_group_name_H-M   'P b c a'
_symmetry_Int_Tables_number      61
_space_group_name_Hall           '-P 2ac 2ab'
loop_
_symmetry_equiv_pos_site_id
_symmetry_equiv_pos_as_xyz
1 x,y,z
2 1/2-x,-y,1/2+z
3 -x,1/2+y,1/2-z
4 1/2+x,1/2-y,-z
5 -x,-y,-z
6 1/2+x,y,1/2-z
7 x,1/2-y,1/2+z
8 1/2-x,1/2+y,z
_cell_length_a                   12.447(3)
_cell_length_b                   17.201(4)
_cell_length_c                   21.609(5)
_cell_angle_alpha                90
_cell_angle_beta                 90
_cell_angle_gamma                90
_cell_volume                     4626.51
_exptl_crystal_colour            colorless
_exptl_crystal_description       block
_cell_formula_units_Z            8
loop_
_atom_site_label
_atom_site_type_symbol
_atom_site_fract_x
_atom_site_fract_y
_atom_site_fract_z
C1 C 0.4069(2) 0.17122(17) 0.17953(13)
H1 H 0.4813 0.1693 0.1829
C2 C 0.3606(3) 0.20773(18) 0.12909(14)
H2 H 0.4038 0.2303 0.0990
C3 C 0.2516(3) 0.21061(18) 0.12354(15)
H3 H 0.2204 0.2354 0.0898
C4 C 0.1884(3) 0.17707(19) 0.16768(17)
H4 H 0.1140 0.1790 0.1638
C5 C 0.2338(2) 0.14037(17) 0.21807(13)
H5 H 0.1898 0.1174 0.2477
C6 C 0.3441(2) 0.13755(14) 0.22483(11)
C7 C 0.3894(2) 0.10233(14) 0.27918(12)
C8 C 0.4221(2) 0.07702(14) 0.32660(12)
C9 C 0.45995(19) 0.05037(14) 0.38817(11)
C10 C 0.23078(19) -0.01041(13) 0.45244(10)
C11 C 0.12026(19) -0.03480(13) 0.43381(11)
C12 C 0.0739(2) -0.00654(16) 0.38008(13)
H6 H 0.1122 0.0277 0.3552
C13 C -0.0286(2) -0.02850(18) 0.36300(16)
H7 H -0.0587 -0.0092 0.3267
C14 C -0.0861(2) -0.07891(18) 0.39956(17)
H8 H -0.1552 -0.0935 0.3881
C15 C -0.0419(2) -0.10764(18) 0.45256(15)
H9 H -0.0808 -0.1418 0.4773
C16 C 0.0608(2) -0.08593(16) 0.46949(12)
H10 H 0.0907 -0.1061 0.5056
C17 C 0.4862(2) -0.03674(15) 0.38850(12)
H11 H 0.5078 -0.0520 0.4299
H12 H 0.4221 -0.0659 0.3778
C18 C 0.5751(3) -0.05703(19) 0.34335(16)
H13 H 0.5522 -0.0451 0.3020
H14 H 0.5911 -0.1115 0.3464
H15 H 0.6381 -0.0274 0.3531
C19 C 0.2825(2) -0.04925(18) 0.50654(13)
H16 H 0.3529 -0.0279 0.5128
H17 H 0.2881 -0.1040 0.4987
H18 H 0.2397 -0.0407 0.5429
C20 C 0.32458(19) 0.22007(13) 0.40949(11)
C21 C 0.3925(2) 0.25946(14) 0.37004(13)
H19 H 0.4665 0.2543 0.3744
C22 C 0.3513(2) 0.30638(15) 0.32427(13)
H20 H 0.3980 0.3323 0.2978
C23 C 0.2423(2) 0.31578(15) 0.31698(13)
C24 C 0.1753(2) 0.27740(16) 0.35766(14)
H21 H 0.1014 0.2841 0.3541
C25 C 0.2150(2) 0.22938(16) 0.40348(13)
H22 H 0.1682 0.2036 0.4300
C26 C 0.1979(3) 0.3666(2) 0.26581(16)
H23 H 0.2141 0.4201 0.2745
H24 H 0.1214 0.3600 0.2634
H25 H 0.2300 0.3521 0.2271
N1 N 0.37985(15) 0.06654(11) 0.43772(9)
N2 N 0.27169(15) 0.04326(11) 0.41895(9)
O1 O 0.48724(15) 0.17693(11) 0.47638(9)
O2 O 0.30343(16) 0.15420(11) 0.51647(8)
S1 S 0.37726(5) 0.15716(4) 0.46585(3)
loop_
_geom_bond_atom_site_label_1
_geom_bond_atom_site_label_2
_geom_bond_site_symmetry_1
_geom_bond_site_symmetry_2
C1 H1 1_555 1_555
C2 C1 1_555 1_555
H2 C2 1_555 1_555
C3 C2 1_555 1_555
H3 C3 1_555 1_555
C4 C3 1_555 1_555
H4 C4 1_555 1_555
C5 C4 1_555 1_555
H5 C5 1_555 1_555
C6 C1 1_555 1_555
C7 C6 1_555 1_555
C8 C7 1_555 1_555
C9 C8 1_555 1_555
C10 C11 1_555 1_555
C11 C12 1_555 1_555
C12 H6 1_555 1_555
C13 C12 1_555 1_555
H7 C13 1_555 1_555
C14 C13 1_555 1_555
H8 C14 1_555 1_555
C15 C14 1_555 1_555
H9 C15 1_555 1_555
C16 C11 1_555 1_555
H10 C16 1_555 1_555
C17 C9 1_555 1_555
H11 C17 1_555 1_555
H12 C17 1_555 1_555
C18 C17 1_555 1_555
H13 C18 1_555 1_555
H14 C18 1_555 1_555
H15 C18 1_555 1_555
C19 C10 1_555 1_555
H16 C19 1_555 1_555
H17 C19 1_555 1_555
H18 C19 1_555 1_555
C20 C21 1_555 1_555
C21 H19 1_555 1_555
C22 C21 1_555 1_555
H20 C22 1_555 1_555
C23 C22 1_555 1_555
C24 C23 1_555 1_555
H21 C24 1_555 1_555
C25 C20 1_555 1_555
H22 C25 1_555 1_555
C26 C23 1_555 1_555
H23 C26 1_555 1_555
H24 C26 1_555 1_555
H25 C26 1_555 1_555
N1 C9 1_555 1_555
N2 C10 1_555 1_555
O1 S1 1_555 1_555
O2 S1 1_555 1_555
S1 C20 1_555 1_555
C5 C6 1_555 1_555
C15 C16 1_555 1_555
C24 C25 1_555 1_555
N1 N2 1_555 1_555
N1 S1 1_555 1_555

#END
