
#######################################################################
#
#                 Cambridge Crystallographic Data Centre
#                                CCDC 
#
#######################################################################
#
# If this CIF has been generated from an entry in the Cambridge 
# Structural Database, then it will include bibliographic, chemical, 
# crystal, experimental, refinement or atomic coordinate data resulting 
# from the CCDC's data processing and validation procedures.
#
#######################################################################

data_UWAKUA
_chemical_formula_moiety         'C29 H31 Br1 N2 O2'
_chemical_name_systematic        
'ethyl 12-(4-bromobenzyl)-11-(4-(dimethylamino)phenyl)-12-azatricyclo[7.2.1.0^2,7^]dodeca-2,4,6-triene-10-carboxylate'
_symmetry_cell_setting           monoclinic
_symmetry_space_group_name_H-M   'P 21'
_symmetry_Int_Tables_number      4
_space_group_name_Hall           'P 2yb'
loop_
_symmetry_equiv_pos_site_id
_symmetry_equiv_pos_as_xyz
1 x,y,z
2 -x,1/2+y,-z
_cell_length_a                   17.4003(7)
_cell_length_b                   6.5815(3)
_cell_length_c                   21.5212(9)
_cell_angle_alpha                90
_cell_angle_beta                 91.0700(10)
_cell_angle_gamma                90
_cell_volume                     2464.18
_exptl_crystal_colour            colorless
_exptl_crystal_description       plate
_cell_formula_units_Z            4
loop_
_atom_site_label
_atom_site_type_symbol
_atom_site_fract_x
_atom_site_fract_y
_atom_site_fract_z
Br1 Br 0.74937(4) -0.17567(13) -0.09696(3)
O1 O 1.0193(3) 0.7637(10) 0.1071(3)
O2 O 0.9845(3) 1.0780(10) 0.1351(2)
N1 N 1.0361(4) 0.3754(12) 0.4243(3)
N2 N 0.8161(3) 0.6226(11) 0.1059(2)
C1 C 1.0436(5) 0.5371(18) 0.4715(3)
H1 H 1.0835 0.6332 0.4591
H2 H 1.0577 0.4767 0.5117
H3 H 0.9945 0.6088 0.4749
C2 C 1.0988(5) 0.2322(18) 0.4218(4)
H4 H 1.0786 0.0965 0.4123
H5 H 1.1261 0.2293 0.4621
H6 H 1.1344 0.2735 0.3894
C3 C 1.0015(4) 0.4320(14) 0.3677(3)
C4 C 0.9998(5) 0.2938(13) 0.3178(3)
H7 H 1.0214 0.1622 0.3230
C5 C 0.9668(5) 0.3484(15) 0.2605(3)
H8 H 0.9671 0.2529 0.2274
C6 C 0.9334(4) 0.5377(13) 0.2502(3)
C7 C 0.9317(4) 0.6669(14) 0.3012(3)
H9 H 0.9065 0.7941 0.2966
C8 C 0.9645(5) 0.6208(14) 0.3576(3)
H10 H 0.9624 0.7167 0.3905
C9 C 0.9051(4) 0.5864(11) 0.1849(3)
H11 H 0.9413 0.5187 0.1559
C10 C 0.8242(4) 0.5160(11) 0.1661(3)
H12 H 0.8228 0.3653 0.1600
C11 C 0.7637(4) 0.5824(12) 0.2117(3)
C12 C 0.7360(4) 0.4441(13) 0.2557(3)
H13 H 0.7549 0.3087 0.2571
C13 C 0.6792(5) 0.5092(16) 0.2983(3)
H14 H 0.6599 0.4168 0.3281
C14 C 0.6531(5) 0.7005(16) 0.2963(4)
H15 H 0.6157 0.7431 0.3251
C15 C 0.6805(4) 0.8397(17) 0.2521(3)
H16 H 0.6609 0.9743 0.2510
C16 C 0.7363(4) 0.7807(13) 0.2098(3)
C17 C 0.7635(4) 0.9237(12) 0.1611(3)
H17 H 0.7807 1.0517 0.1812
H18 H 0.7200 0.9566 0.1325
C18 C 0.8294(4) 0.8354(13) 0.1238(3)
H19 H 0.8402 0.9213 0.0867
C19 C 0.9031(4) 0.8138(13) 0.1670(3)
H20 H 0.8976 0.8993 0.2050
C20 C 0.9752(4) 0.8761(12) 0.1324(3)
C21 C 1.0526(5) 1.1665(16) 0.1059(4)
H21 H 1.0913 1.0590 0.0988
H22 H 1.0760 1.2700 0.1338
C22 C 1.0297(5) 1.2621(14) 0.0454(3)
H23 H 0.9982 1.1666 0.0211
H24 H 1.0758 1.2968 0.0223
H25 H 1.0000 1.3858 0.0533
C23 C 0.7440(4) 0.5868(12) 0.0711(3)
H26 H 0.7340 0.7024 0.0426
H27 H 0.7010 0.5788 0.1004
C24 C 0.7475(4) 0.3926(11) 0.0339(3)
C25 C 0.6837(4) 0.2639(12) 0.0298(3)
H28 H 0.6393 0.2944 0.0530
C26 C 0.6842(4) 0.0910(13) -0.0079(3)
H29 H 0.6414 0.0016 -0.0099
C27 C 0.7496(4) 0.0543(12) -0.0424(3)
C28 C 0.8129(4) 0.1759(13) -0.0378(3)
H30 H 0.8575 0.1437 -0.0606
C29 C 0.8124(4) 0.3467(13) 0.0001(3)
H31 H 0.8564 0.4320 0.0028
Br2 Br 0.46940(4) 1.14081(13) 0.04289(3)
O3 O 0.2036(5) 0.2113(16) 0.2511(3)
O4 O 0.2587(4) -0.1066(11) 0.2578(3)
N3 N 0.2204(4) 0.6498(15) 0.5679(3)
N4 N 0.4083(3) 0.3537(11) 0.2495(2)
C30 C 0.1895(5) 0.8536(15) 0.5728(3)
H32 H 0.2279 0.9521 0.5593
H33 H 0.1764 0.8810 0.6161
H34 H 0.1432 0.8653 0.5464
C31 C 0.2136(9) 0.5159(19) 0.6155(4)
H35 H 0.1722 0.4194 0.6057
H36 H 0.2015 0.5897 0.6537
H37 H 0.2620 0.4420 0.6215
C32 C 0.2469(5) 0.5867(14) 0.5099(3)
C33 C 0.2825(4) 0.3953(12) 0.5012(3)
H38 H 0.2908 0.3094 0.5362
C34 C 0.3055(4) 0.3299(15) 0.4432(3)
H39 H 0.3282 0.1994 0.4392
C35 C 0.2961(4) 0.4523(13) 0.3908(3)
C36 C 0.2633(4) 0.6423(15) 0.4002(3)
H40 H 0.2567 0.7295 0.3653
C37 C 0.2399(4) 0.7108(14) 0.4569(3)
H41 H 0.2189 0.8434 0.4605
C38 C 0.3199(4) 0.3948(14) 0.3261(3)
H42 H 0.2822 0.4602 0.2967
C39 C 0.4013(4) 0.4687(12) 0.3074(3)
H43 H 0.4015 0.6183 0.2993
C40 C 0.4617(4) 0.4113(12) 0.3564(3)
C41 C 0.4866(4) 0.5552(13) 0.4011(3)
H44 H 0.4666 0.6895 0.4004
C42 C 0.5408(4) 0.4977(16) 0.4464(3)
H45 H 0.5576 0.5921 0.4772
C43 C 0.5703(4) 0.3002(16) 0.4461(3)
H46 H 0.6074 0.2620 0.4769
C44 C 0.5469(4) 0.1601(16) 0.4026(3)
H47 H 0.5679 0.0269 0.4034
C45 C 0.4916(4) 0.2133(13) 0.3564(3)
C46 C 0.4662(5) 0.0620(14) 0.3079(3)
H48 H 0.4516 -0.0667 0.3284
H49 H 0.5094 0.0331 0.2799
C47 C 0.3968(5) 0.1444(14) 0.2693(3)
H50 H 0.3865 0.0553 0.2325
C48 C 0.3239(5) 0.1659(14) 0.3080(3)
H51 H 0.3289 0.0812 0.3464
C49 C 0.2541(6) 0.0958(16) 0.2696(3)
C50 C 0.2007(6) -0.196(2) 0.2187(4)
H52 H 0.2220 -0.3189 0.1991
H53 H 0.1870 -0.0986 0.1852
C51 C 0.1321(7) -0.250(3) 0.2510(6)
H54 H 0.0958 -0.3162 0.2220
H55 H 0.1084 -0.1278 0.2681
H56 H 0.1452 -0.3443 0.2849
C52 C 0.4778(4) 0.3870(13) 0.2133(3)
H57 H 0.4850 0.2709 0.1847
H58 H 0.5230 0.3930 0.2418
C53 C 0.4731(4) 0.5825(12) 0.1758(3)
C54 C 0.4049(4) 0.6729(13) 0.1598(3)
H59 H 0.3585 0.6174 0.1751
C55 C 0.4013(4) 0.8464(13) 0.1213(3)
H60 H 0.3537 0.9104 0.1112
C56 C 0.4705(4) 0.9193(13) 0.0989(3)
C57 C 0.5398(4) 0.8310(17) 0.1144(3)
H61 H 0.5863 0.8851 0.0990
C58 C 0.5409(4) 0.6639(14) 0.1525(3)
H62 H 0.5887 0.6022 0.1631
loop_
_geom_bond_atom_site_label_1
_geom_bond_atom_site_label_2
_geom_bond_site_symmetry_1
_geom_bond_site_symmetry_2
Br1 C27 1_555 1_555
O1 C20 1_555 1_555
O2 C20 1_555 1_555
N1 C1 1_555 1_555
N2 C10 1_555 1_555
C1 H1 1_555 1_555
H2 C1 1_555 1_555
H3 C1 1_555 1_555
C2 N1 1_555 1_555
H4 C2 1_555 1_555
H5 C2 1_555 1_555
H6 C2 1_555 1_555
C3 N1 1_555 1_555
C4 C3 1_555 1_555
H7 C4 1_555 1_555
C5 C4 1_555 1_555
H8 C5 1_555 1_555
C6 C5 1_555 1_555
C7 C6 1_555 1_555
H9 C7 1_555 1_555
C8 C3 1_555 1_555
H10 C8 1_555 1_555
C9 C6 1_555 1_555
H11 C9 1_555 1_555
C10 C9 1_555 1_555
H12 C10 1_555 1_555
C11 C10 1_555 1_555
C12 C11 1_555 1_555
H13 C12 1_555 1_555
C13 C12 1_555 1_555
H14 C13 1_555 1_555
C14 C13 1_555 1_555
H15 C14 1_555 1_555
C15 C14 1_555 1_555
H16 C15 1_555 1_555
C16 C11 1_555 1_555
C17 C16 1_555 1_555
H17 C17 1_555 1_555
H18 C17 1_555 1_555
C18 N2 1_555 1_555
H19 C18 1_555 1_555
C19 C9 1_555 1_555
H20 C19 1_555 1_555
C20 C19 1_555 1_555
C21 O2 1_555 1_555
H21 C21 1_555 1_555
H22 C21 1_555 1_555
C22 C21 1_555 1_555
H23 C22 1_555 1_555
H24 C22 1_555 1_555
H25 C22 1_555 1_555
C23 N2 1_555 1_555
H26 C23 1_555 1_555
H27 C23 1_555 1_555
C24 C23 1_555 1_555
C25 C24 1_555 1_555
H28 C25 1_555 1_555
C26 C25 1_555 1_555
H29 C26 1_555 1_555
C27 C26 1_555 1_555
C28 C27 1_555 1_555
H30 C28 1_555 1_555
C29 C24 1_555 1_555
H31 C29 1_555 1_555
Br2 C56 1_555 1_555
O3 C49 1_555 1_555
O4 C49 1_555 1_555
N3 C30 1_555 1_555
N4 C39 1_555 1_555
C30 H32 1_555 1_555
H33 C30 1_555 1_555
H34 C30 1_555 1_555
C31 N3 1_555 1_555
H35 C31 1_555 1_555
H36 C31 1_555 1_555
H37 C31 1_555 1_555
C32 N3 1_555 1_555
C33 C32 1_555 1_555
H38 C33 1_555 1_555
C34 C33 1_555 1_555
H39 C34 1_555 1_555
C35 C34 1_555 1_555
C36 C35 1_555 1_555
H40 C36 1_555 1_555
C37 C32 1_555 1_555
H41 C37 1_555 1_555
C38 C35 1_555 1_555
H42 C38 1_555 1_555
C39 C38 1_555 1_555
H43 C39 1_555 1_555
C40 C39 1_555 1_555
C41 C40 1_555 1_555
H44 C41 1_555 1_555
C42 C41 1_555 1_555
H45 C42 1_555 1_555
C43 C42 1_555 1_555
H46 C43 1_555 1_555
C44 C43 1_555 1_555
H47 C44 1_555 1_555
C45 C40 1_555 1_555
C46 C45 1_555 1_555
H48 C46 1_555 1_555
H49 C46 1_555 1_555
C47 N4 1_555 1_555
H50 C47 1_555 1_555
C48 C38 1_555 1_555
H51 C48 1_555 1_555
C49 C48 1_555 1_555
C50 O4 1_555 1_555
H52 C50 1_555 1_555
H53 C50 1_555 1_555
C51 C50 1_555 1_555
H54 C51 1_555 1_555
H55 C51 1_555 1_555
H56 C51 1_555 1_555
C52 N4 1_555 1_555
H57 C52 1_555 1_555
H58 C52 1_555 1_555
C53 C52 1_555 1_555
C54 C53 1_555 1_555
H59 C54 1_555 1_555
C55 C54 1_555 1_555
H60 C55 1_555 1_555
C56 C55 1_555 1_555
C57 C56 1_555 1_555
H61 C57 1_555 1_555
C58 C53 1_555 1_555
H62 C58 1_555 1_555
C7 C8 1_555 1_555
C15 C16 1_555 1_555
C17 C18 1_555 1_555
C18 C19 1_555 1_555
C28 C29 1_555 1_555
C36 C37 1_555 1_555
C44 C45 1_555 1_555
C46 C47 1_555 1_555
C47 C48 1_555 1_555
C57 C58 1_555 1_555

#END
