
#######################################################################
#
#                 Cambridge Crystallographic Data Centre
#                                CCDC 
#
#######################################################################
#
# If this CIF has been generated from an entry in the Cambridge 
# Structural Database, then it will include bibliographic, chemical, 
# crystal, experimental, refinement or atomic coordinate data resulting 
# from the CCDC's data processing and validation procedures.
#
#######################################################################

data_UWEVIC
_chemical_formula_moiety         'C21 H11 F5 N4'
_chemical_name_systematic        
2-(4-(Dimethylamino)phenyl)-4-(pentafluorophenyl)buta-1,3-diene-1,1,4-tricarbonitrile
_symmetry_cell_setting           orthorhombic
_symmetry_space_group_name_H-M   'P 21 21 21'
_symmetry_Int_Tables_number      19
_space_group_name_Hall           'P 2ac 2ab'
loop_
_symmetry_equiv_pos_site_id
_symmetry_equiv_pos_as_xyz
1 x,y,z
2 1/2-x,-y,1/2+z
3 1/2+x,1/2-y,-z
4 -x,1/2+y,1/2-z
_cell_length_a                   6.4708(2)
_cell_length_b                   14.0247(5)
_cell_length_c                   19.9010(10)
_cell_angle_alpha                90
_cell_angle_beta                 90
_cell_angle_gamma                90
_cell_volume                     1806.04
_exptl_crystal_colour            amber
_exptl_crystal_description       plate
_cell_formula_units_Z            4
loop_
_atom_site_label
_atom_site_type_symbol
_atom_site_fract_x
_atom_site_fract_y
_atom_site_fract_z
F1 F 1.0833(6) 0.0686(3) 0.5495(2)
F2 F 1.0218(7) -0.1180(3) 0.5298(2)
F3 F 0.6779(8) -0.2051(3) 0.5775(3)
F4 F 0.3830(8) -0.0989(3) 0.6425(3)
F5 F 0.4315(7) 0.0874(3) 0.6577(2)
N1 N 0.9267(10) 0.2910(4) 0.5153(3)
N2 N 1.2272(11) 0.2305(5) 0.7613(4)
N3 N 1.0818(11) 0.5256(5) 0.7598(4)
N4 N 0.1621(10) 0.5811(4) 0.5873(3)
C1 C 1.0205(11) 0.4505(5) 0.7433(4)
C2 C 0.9575(10) 0.3583(4) 0.7255(3)
C3 C 0.7793(10) 0.3332(4) 0.6895(3)
C4 C 0.7551(10) 0.2307(5) 0.6754(3)
C5 C 0.7929(10) 0.1891(4) 0.6152(3)
C6 C 0.7567(11) 0.0855(5) 0.6038(3)
C7 C 0.9058(12) 0.0293(5) 0.5709(3)
C8 C 0.8831(11) -0.0669(5) 0.5627(3)
C9 C 0.7042(12) -0.1092(4) 0.5881(4)
C10 C 0.5608(12) -0.0571(5) 0.6202(4)
C11 C 0.5824(11) 0.0390(5) 0.6273(4)
C12 C 0.8628(11) 0.2467(5) 0.5601(4)
C13 C 1.1063(11) 0.2854(5) 0.7434(4)
C14 C 0.6241(10) 0.3983(5) 0.6672(3)
C15 C 0.4602(11) 0.3644(5) 0.6256(3)
C16 C 0.3102(10) 0.4239(5) 0.6004(3)
C17 C 0.3124(10) 0.5214(5) 0.6133(3)
C18 C 0.4681(11) 0.5575(5) 0.6549(4)
C19 C 0.6173(11) 0.4968(5) 0.6804(3)
C20 C -0.0162(13) 0.5409(7) 0.5556(5)
C21 C 0.1636(16) 0.6813(6) 0.6046(5)
H1 H 0.7082 0.1897 0.7122
H2 H 0.4543 0.2963 0.6146
H3 H 0.1993 0.3971 0.5727
H4 H 0.4715 0.6256 0.6659
H5 H 0.7246 0.5240 0.7094
H6 H 0.0316 0.4975 0.5136
H7 H -0.1156 0.5975 0.5380
H8 H -0.0991 0.4973 0.5914
H9 H 0.1509 0.6891 0.6584
H10 H 0.0348 0.7165 0.5806
H11 H 0.3064 0.7131 0.5877
loop_
_geom_bond_atom_site_label_1
_geom_bond_atom_site_label_2
_geom_bond_site_symmetry_1
_geom_bond_site_symmetry_2
F1 C7 1_555 1_555
F2 C8 1_555 1_555
F3 C9 1_555 1_555
F4 C10 1_555 1_555
F5 C11 1_555 1_555
N1 C12 1_555 1_555
N2 C13 1_555 1_555
N3 C1 1_555 1_555
N4 C17 1_555 1_555
C1 C2 1_555 1_555
C2 C3 1_555 1_555
C3 C4 1_555 1_555
C4 C5 1_555 1_555
C5 C6 1_555 1_555
C6 C7 1_555 1_555
C7 C8 1_555 1_555
C8 C9 1_555 1_555
C9 C10 1_555 1_555
C10 C11 1_555 1_555
C11 C6 1_555 1_555
C12 C5 1_555 1_555
C13 C2 1_555 1_555
C14 C3 1_555 1_555
C15 C14 1_555 1_555
C16 C15 1_555 1_555
C17 C16 1_555 1_555
C18 C17 1_555 1_555
C19 C14 1_555 1_555
C20 N4 1_555 1_555
C21 N4 1_555 1_555
H1 C4 1_555 1_555
H2 C15 1_555 1_555
H3 C16 1_555 1_555
H4 C18 1_555 1_555
H5 C19 1_555 1_555
H6 C20 1_555 1_555
H7 C20 1_555 1_555
H8 C20 1_555 1_555
H9 C21 1_555 1_555
H10 C21 1_555 1_555
H11 C21 1_555 1_555
C18 C19 1_555 1_555

#END
