
#######################################################################
#
#                 Cambridge Crystallographic Data Centre
#                                CCDC 
#
#######################################################################
#
# If this CIF has been generated from an entry in the Cambridge 
# Structural Database, then it will include bibliographic, chemical, 
# crystal, experimental, refinement or atomic coordinate data resulting 
# from the CCDC's data processing and validation procedures.
#
#######################################################################

data_UWEVEY
_chemical_formula_moiety         'C21 H16 F3 N3'
_chemical_name_systematic        
(1-(4-(Dimethylamino)phenyl)-3-(4-(trifluoromethyl)phenyl)prop-2-en-1-ylidene)malononitrile
_symmetry_cell_setting           monoclinic
_symmetry_space_group_name_H-M   'P 21/c'
_symmetry_Int_Tables_number      14
_space_group_name_Hall           '-P 2ybc'
loop_
_symmetry_equiv_pos_site_id
_symmetry_equiv_pos_as_xyz
1 x,y,z
2 -x,1/2+y,1/2-z
3 -x,-y,-z
4 x,1/2-y,1/2+z
_cell_length_a                   9.3457(4)
_cell_length_b                   8.1316(4)
_cell_length_c                   24.5171(12)
_cell_angle_alpha                90
_cell_angle_beta                 97.609(2)
_cell_angle_gamma                90
_cell_volume                     1846.78
_exptl_crystal_colour            colorless
_exptl_crystal_description       plate
_cell_formula_units_Z            4
loop_
_atom_site_label
_atom_site_type_symbol
_atom_site_fract_x
_atom_site_fract_y
_atom_site_fract_z
F1 F 0.6624(2) 0.5954(2) 0.57377(8)
F2 F 0.76925(19) 0.3672(2) 0.59517(8)
F3 F 0.6403(2) 0.3948(3) 0.51639(7)
N1 N -0.4058(4) -0.1381(4) 0.68122(13)
N2 N -0.2052(3) -0.0372(4) 0.53496(12)
N3 N -0.1410(3) 0.2283(3) 0.89390(10)
C1 C -0.3125(4) -0.0741(4) 0.66356(13)
C2 C -0.1939(3) -0.0016(4) 0.64027(12)
C3 C -0.0820(3) 0.0767(4) 0.67110(12)
C4 C 0.0446(3) 0.1219(4) 0.64590(14)
C5 C 0.1486(3) 0.2244(4) 0.66733(13)
C6 C -0.2000(4) -0.0233(4) 0.58160(14)
C7 C -0.0933(3) 0.1184(4) 0.72910(12)
C8 C -0.2179(3) 0.1916(4) 0.74295(13)
C9 C -0.2350(3) 0.2316(4) 0.79660(13)
C10 C -0.1248(3) 0.1932(4) 0.84003(12)
C11 C 0.0014(4) 0.1208(4) 0.82599(13)
C12 C 0.0175(4) 0.0860(4) 0.77182(12)
C13 C -0.0516(5) 0.1428(6) 0.93856(15)
C14 C -0.2785(4) 0.2912(5) 0.90663(16)
C15 C 0.2751(3) 0.2721(4) 0.64145(12)
C16 C 0.3827(3) 0.3666(4) 0.67131(13)
C17 C 0.5024(4) 0.4182(4) 0.64807(13)
C18 C 0.5171(3) 0.3735(4) 0.59424(12)
C19 C 0.4113(4) 0.2784(4) 0.56391(14)
C20 C 0.2913(4) 0.2297(4) 0.58733(13)
C21 C 0.6446(3) 0.4308(4) 0.56989(13)
H1 H 0.051(4) 0.079(4) 0.6122(15)
H2 H 0.147(3) 0.274(4) 0.7022(13)
H3 H -0.299(4) 0.211(4) 0.7139(13)
H4 H -0.327(3) 0.275(4) 0.8056(12)
H5 H 0.080(4) 0.093(4) 0.8533(13)
H6 H 0.105(4) 0.041(4) 0.7656(13)
H7 H 0.049(4) 0.167(5) 0.9390(14)
H8 H -0.070(5) 0.028(6) 0.9368(18)
H9 H -0.079(4) 0.201(5) 0.9729(18)
H10 H -0.312(3) 0.389(4) 0.8803(13)
H11 H -0.267(4) 0.322(4) 0.9457(16)
H12 H -0.355(5) 0.212(5) 0.9007(16)
H13 H 0.374(3) 0.398(4) 0.7108(13)
H14 H 0.576(3) 0.488(4) 0.6687(13)
H15 H 0.420(3) 0.250(4) 0.5296(13)
H16 H 0.221(4) 0.162(4) 0.5651(14)
loop_
_geom_bond_atom_site_label_1
_geom_bond_atom_site_label_2
_geom_bond_site_symmetry_1
_geom_bond_site_symmetry_2
F1 C21 1_555 1_555
F2 C21 1_555 1_555
F3 C21 1_555 1_555
N1 C1 1_555 1_555
N2 C6 1_555 1_555
N3 C10 1_555 1_555
C1 C2 1_555 1_555
C2 C3 1_555 1_555
C3 C4 1_555 1_555
C4 C5 1_555 1_555
C5 C15 1_555 1_555
C6 C2 1_555 1_555
C7 C3 1_555 1_555
C8 C7 1_555 1_555
C9 C8 1_555 1_555
C10 C9 1_555 1_555
C11 C10 1_555 1_555
C12 C7 1_555 1_555
C13 N3 1_555 1_555
C14 N3 1_555 1_555
C15 C16 1_555 1_555
C16 C17 1_555 1_555
C17 C18 1_555 1_555
C18 C19 1_555 1_555
C19 C20 1_555 1_555
C20 C15 1_555 1_555
C21 C18 1_555 1_555
H1 C4 1_555 1_555
H2 C5 1_555 1_555
H3 C8 1_555 1_555
H4 C9 1_555 1_555
H5 C11 1_555 1_555
H6 C12 1_555 1_555
H7 C13 1_555 1_555
H8 C13 1_555 1_555
H9 C13 1_555 1_555
H10 C14 1_555 1_555
H11 C14 1_555 1_555
H12 C14 1_555 1_555
H13 C16 1_555 1_555
H14 C17 1_555 1_555
H15 C19 1_555 1_555
H16 C20 1_555 1_555
C11 C12 1_555 1_555

#END
