
#######################################################################
#
#                 Cambridge Crystallographic Data Centre
#                                CCDC 
#
#######################################################################
#
# If this CIF has been generated from an entry in the Cambridge 
# Structural Database, then it will include bibliographic, chemical, 
# crystal, experimental, refinement or atomic coordinate data resulting 
# from the CCDC's data processing and validation procedures.
#
#######################################################################

data_UWEVOI
_chemical_formula_moiety         'C26 H21 N3'
_chemical_name_systematic        
(1-(4-(Dimethylamino)phenyl)-2,3-diphenylprop-2-en-1-ylidene)malononitrile
_symmetry_cell_setting           monoclinic
_symmetry_space_group_name_H-M   'P 21/n'
_symmetry_Int_Tables_number      14
_space_group_name_Hall           '-P 2yn'
loop_
_symmetry_equiv_pos_site_id
_symmetry_equiv_pos_as_xyz
1 x,y,z
2 1/2-x,1/2+y,1/2-z
3 -x,-y,-z
4 1/2+x,1/2-y,1/2+z
_cell_length_a                   13.2760(4)
_cell_length_b                   9.4253(3)
_cell_length_c                   16.7739(4)
_cell_angle_alpha                90
_cell_angle_beta                 100.509(2)
_cell_angle_gamma                90
_cell_volume                     2063.72
_exptl_crystal_colour            'dark yellow'
_exptl_crystal_description       cube
_cell_formula_units_Z            4
loop_
_atom_site_label
_atom_site_type_symbol
_atom_site_fract_x
_atom_site_fract_y
_atom_site_fract_z
N1 N 0.44019(12) 0.2647(2) 0.62605(9)
N2 N 0.35327(13) 0.46302(18) 0.39750(9)
N3 N 0.83841(12) -0.16433(17) 0.63442(8)
C1 C 0.56077(12) 0.22266(17) 0.45380(9)
C2 C 0.56885(12) 0.24587(17) 0.36695(9)
C3 C 0.48794(12) 0.21408(17) 0.30894(9)
C4 C 0.48216(12) 0.29009(17) 0.48201(9)
C5 C 0.46063(13) 0.27317(19) 0.56246(9)
C6 C 0.41204(13) 0.38541(19) 0.43285(9)
C7 C 0.66922(12) 0.30196(18) 0.35300(8)
C8 C 0.72448(14) 0.2322(2) 0.30167(10)
C9 C 0.81616(15) 0.2877(2) 0.28724(12)
C10 C 0.85379(14) 0.4128(2) 0.32453(12)
C11 C 0.80118(15) 0.4814(2) 0.37701(11)
C12 C 0.70971(13) 0.42575(19) 0.39132(9)
C13 C 0.47263(12) 0.23761(18) 0.22057(9)
C14 C 0.52039(14) 0.3461(2) 0.18433(10)
C15 C 0.49863(14) 0.3652(2) 0.10082(10)
C16 C 0.42918(15) 0.2769(2) 0.05247(10)
C17 C 0.38054(14) 0.1709(2) 0.08732(10)
C18 C 0.40178(13) 0.15185(19) 0.17084(10)
C19 C 0.63494(12) 0.13024(17) 0.50217(9)
C20 C 0.68027(13) 0.02088(18) 0.46396(9)
C21 C 0.74651(13) -0.07585(19) 0.50612(9)
C22 C 0.77308(12) -0.06843(19) 0.59191(9)
C23 C 0.73043(13) 0.04422(19) 0.63079(9)
C24 C 0.66419(12) 0.13982(18) 0.58728(9)
C25 C 0.88017(16) -0.2790(2) 0.59247(12)
C26 C 0.85961(16) -0.1616(3) 0.72275(11)
H1 H 0.4305 0.1685 0.3282
H2 H 0.6983 0.1432 0.2756
H3 H 0.8543 0.2384 0.2507
H4 H 0.9181 0.4528 0.3136
H5 H 0.8285 0.5691 0.4040
H6 H 0.6729 0.4742 0.4290
H7 H 0.5695 0.4089 0.2180
H8 H 0.5324 0.4415 0.0759
H9 H 0.4148 0.2900 -0.0065
H10 H 0.3310 0.1091 0.0533
H11 H 0.3663 0.0768 0.1953
H12 H 0.6638 0.0135 0.4047
H13 H 0.7758 -0.1507 0.4768
H14 H 0.7486 0.0541 0.6898
H15 H 0.6364 0.2168 0.6161
H16 H 0.9311 -0.3426 0.6359
H17 H 0.9221 -0.2352 0.5488
H18 H 0.8184 -0.3444 0.5616
H19 H 0.9128 -0.2453 0.7451
H20 H 0.7892 -0.1770 0.7452
H21 H 0.8926 -0.0603 0.7434
loop_
_geom_bond_atom_site_label_1
_geom_bond_atom_site_label_2
_geom_bond_site_symmetry_1
_geom_bond_site_symmetry_2
N1 C5 1_555 1_555
N2 C6 1_555 1_555
N3 C22 1_555 1_555
C1 C2 1_555 1_555
C2 C3 1_555 1_555
C3 C13 1_555 1_555
C4 C1 1_555 1_555
C5 C4 1_555 1_555
C6 C4 1_555 1_555
C7 C2 1_555 1_555
C8 C7 1_555 1_555
C9 C8 1_555 1_555
C10 C9 1_555 1_555
C11 C10 1_555 1_555
C12 C7 1_555 1_555
C13 C14 1_555 1_555
C14 C15 1_555 1_555
C15 C16 1_555 1_555
C16 C17 1_555 1_555
C17 C18 1_555 1_555
C18 C13 1_555 1_555
C19 C1 1_555 1_555
C20 C19 1_555 1_555
C21 C20 1_555 1_555
C22 C21 1_555 1_555
C23 C22 1_555 1_555
C24 C19 1_555 1_555
C25 N3 1_555 1_555
C26 N3 1_555 1_555
H1 C3 1_555 1_555
H2 C8 1_555 1_555
H3 C9 1_555 1_555
H4 C10 1_555 1_555
H5 C11 1_555 1_555
H6 C12 1_555 1_555
H7 C14 1_555 1_555
H8 C15 1_555 1_555
H9 C16 1_555 1_555
H10 C17 1_555 1_555
H11 C18 1_555 1_555
H12 C20 1_555 1_555
H13 C21 1_555 1_555
H14 C23 1_555 1_555
H15 C24 1_555 1_555
H16 C25 1_555 1_555
H17 C25 1_555 1_555
H18 C25 1_555 1_555
H19 C26 1_555 1_555
H20 C26 1_555 1_555
H21 C26 1_555 1_555
C11 C12 1_555 1_555
C23 C24 1_555 1_555

#END
