
#######################################################################
#
#                 Cambridge Crystallographic Data Centre
#                                CCDC 
#
#######################################################################
#
# If this CIF has been generated from an entry in the Cambridge 
# Structural Database, then it will include bibliographic, chemical, 
# crystal, experimental, refinement or atomic coordinate data resulting 
# from the CCDC's data processing and validation procedures.
#
#######################################################################

data_UWEVAU
_chemical_formula_moiety         'C20 H12 F5 N3'
_chemical_name_systematic        
(1-(4-(Dimethylamino)phenyl)-3-(pentafluorophenyl)prop-2-en-1-ylidene)malononitrile
_symmetry_cell_setting           monoclinic
_symmetry_space_group_name_H-M   'P 21/n'
_symmetry_Int_Tables_number      14
_space_group_name_Hall           '-P 2yn'
loop_
_symmetry_equiv_pos_site_id
_symmetry_equiv_pos_as_xyz
1 x,y,z
2 1/2-x,1/2+y,1/2-z
3 -x,-y,-z
4 1/2+x,1/2-y,1/2+z
_cell_length_a                   12.2399(8)
_cell_length_b                   6.5379(5)
_cell_length_c                   21.348(2)
_cell_angle_alpha                90
_cell_angle_beta                 93.111(4)
_cell_angle_gamma                90
_cell_volume                     1705.82
_exptl_crystal_colour            'red brown'
_exptl_crystal_description       needle
_cell_formula_units_Z            4
loop_
_atom_site_label
_atom_site_type_symbol
_atom_site_fract_x
_atom_site_fract_y
_atom_site_fract_z
F1 F 0.6725(2) 0.4087(4) 0.48249(9)
F2 F 0.5456(2) 0.7332(5) 0.49839(10)
F3 F 0.5200(2) 1.0237(4) 0.40747(12)
F4 F 0.6166(2) 0.9763(4) 0.29811(11)
F5 F 0.74019(18) 0.6452(4) 0.27847(9)
N1 N 0.8004(3) -0.1261(5) 0.53496(16)
N2 N 1.0689(3) -0.3874(5) 0.43608(14)
N3 N 1.1555(3) 0.0857(5) 0.17856(14)
C1 C 0.9078(3) 0.0514(6) 0.39628(15)
C2 C 0.8324(3) 0.2154(6) 0.41060(16)
C3 C 0.7897(3) 0.3467(6) 0.36790(16)
C4 C 0.7142(3) 0.5140(5) 0.37983(15)
C5 C 0.6612(3) 0.5452(6) 0.43532(16)
C6 C 0.5944(4) 0.7099(7) 0.44421(17)
C7 C 0.5809(4) 0.8571(6) 0.39817(19)
C8 C 0.6294(3) 0.8327(6) 0.34273(18)
C9 C 0.6937(3) 0.6643(6) 0.33427(16)
C10 C 0.9203(3) -0.1082(6) 0.43865(15)
C11 C 0.8533(3) -0.1196(6) 0.49204(17)
C12 C 1.0020(4) -0.2634(6) 0.43556(16)
C13 C 0.9702(3) 0.0582(6) 0.33961(15)
C14 C 1.0257(3) 0.2364(6) 0.32348(17)
C15 C 1.0871(3) 0.2470(6) 0.27102(17)
C16 C 1.0940(3) 0.0756(6) 0.23008(15)
C17 C 1.0368(3) -0.1002(6) 0.24598(16)
C18 C 0.9783(3) -0.1099(6) 0.29952(16)
C19 C 1.2060(4) 0.2751(8) 0.1598(2)
C20 C 1.1618(4) -0.0907(8) 0.13725(19)
H1 H 0.814(2) 0.224(4) 0.4545(14)
H2 H 0.816(3) 0.339(6) 0.3211(16)
H3 H 1.024(3) 0.347(6) 0.3482(16)
H4 H 1.120(4) 0.381(7) 0.2626(18)
H5 H 1.037(3) -0.203(6) 0.2195(16)
H6 H 0.944(3) -0.243(6) 0.3080(15)
H7 H 1.237(5) 0.245(8) 0.130(2)
H8 H 1.253(4) 0.319(8) 0.193(2)
H9 H 1.085(4) -0.124(7) 0.119(2)
H10 H 1.214(3) -0.058(6) 0.1042(18)
H11 H 1.185(3) -0.216(7) 0.1596(18)
H12 H 1.146(5) 0.383(8) 0.156(2)
loop_
_geom_bond_atom_site_label_1
_geom_bond_atom_site_label_2
_geom_bond_site_symmetry_1
_geom_bond_site_symmetry_2
F1 C5 1_555 1_555
F2 C6 1_555 1_555
F3 C7 1_555 1_555
F4 C8 1_555 1_555
F5 C9 1_555 1_555
N1 C11 1_555 1_555
N2 C12 1_555 1_555
N3 C16 1_555 1_555
C1 C2 1_555 1_555
C2 C3 1_555 1_555
C3 C4 1_555 1_555
C4 C5 1_555 1_555
C5 C6 1_555 1_555
C6 C7 1_555 1_555
C7 C8 1_555 1_555
C8 C9 1_555 1_555
C9 C4 1_555 1_555
C10 C1 1_555 1_555
C11 C10 1_555 1_555
C12 C10 1_555 1_555
C13 C1 1_555 1_555
C14 C13 1_555 1_555
C15 C14 1_555 1_555
C16 C15 1_555 1_555
C17 C16 1_555 1_555
C18 C13 1_555 1_555
C19 N3 1_555 1_555
C20 N3 1_555 1_555
H1 C2 1_555 1_555
H2 C3 1_555 1_555
H3 C14 1_555 1_555
H4 C15 1_555 1_555
H5 C17 1_555 1_555
H6 C18 1_555 1_555
H7 C19 1_555 1_555
H8 C19 1_555 1_555
H9 C20 1_555 1_555
H10 C20 1_555 1_555
H11 C20 1_555 1_555
H12 C19 1_555 1_555
C17 C18 1_555 1_555

#END
