
#######################################################################
#
#                 Cambridge Crystallographic Data Centre
#                                CCDC 
#
#######################################################################
#
# If this CIF has been generated from an entry in the Cambridge 
# Structural Database, then it will include bibliographic, chemical, 
# crystal, experimental, refinement or atomic coordinate data resulting 
# from the CCDC's data processing and validation procedures.
#
#######################################################################

data_UWEWAV
_chemical_formula_moiety         'C27 H20 N4'
_chemical_name_systematic        
(3-(4-Cyanophenyl)-1-(4-(dimethylamino)phenyl)-2-phenylprop-2-en-1-ylidene)malononitrile
_symmetry_cell_setting           triclinic
_symmetry_space_group_name_H-M   'P -1'
_symmetry_Int_Tables_number      2
_space_group_name_Hall           '-P 1'
loop_
_symmetry_equiv_pos_site_id
_symmetry_equiv_pos_as_xyz
1 x,y,z
2 -x,-y,-z
_cell_length_a                   8.6684(4)
_cell_length_b                   10.3124(5)
_cell_length_c                   13.4632(7)
_cell_angle_alpha                76.954(2)
_cell_angle_beta                 88.910(2)
_cell_angle_gamma                66.933(2)
_cell_volume                     1075.46
_exptl_crystal_colour            amber
_exptl_crystal_description       plate
_cell_formula_units_Z            2
loop_
_atom_site_label
_atom_site_type_symbol
_atom_site_fract_x
_atom_site_fract_y
_atom_site_fract_z
N1 N 0.1075(3) 0.1519(2) -0.33193(14)
N2 N 0.0888(2) 0.33104(19) -0.07025(14)
N3 N 0.2183(2) -0.5988(2) -0.49904(15)
N4 N 0.3826(2) -0.1847(2) 0.35238(12)
C1 C 0.1351(3) 0.1262(2) -0.24492(15)
C2 C 0.1690(2) 0.0981(2) -0.13642(14)
C3 C 0.2295(2) -0.04041(19) -0.07586(14)
C4 C 0.2481(2) -0.15696(19) -0.13009(13)
C5 C 0.1116(2) -0.1675(2) -0.16516(14)
C6 C 0.1166(2) -0.2668(2) -0.23030(14)
C7 C 0.0220(2) -0.2102(2) -0.32423(15)
C8 C 0.0390(3) -0.2951(2) -0.39319(16)
C9 C 0.1516(2) -0.4406(2) -0.36684(14)
C10 C 0.2400(3) -0.5009(2) -0.27106(15)
C11 C 0.2214(3) -0.4142(2) -0.20315(15)
C12 C 0.1839(2) -0.5286(2) -0.44042(16)
C13 C 0.1266(2) 0.2264(2) -0.09790(15)
C14 C 0.2762(2) -0.07832(19) 0.03341(13)
C15 C 0.3346(2) 0.0041(2) 0.08111(14)
C16 C 0.3725(2) -0.0317(2) 0.18513(14)
C17 C 0.3515(2) -0.1523(2) 0.24871(14)
C18 C 0.2987(2) -0.2381(2) 0.20067(15)
C19 C 0.2649(2) -0.2030(2) 0.09624(14)
C20 C 0.3562(3) -0.3074(3) 0.41644(18)
C21 C 0.4391(3) -0.0961(3) 0.40076(18)
C22 C 0.4242(2) -0.24080(19) -0.15446(14)
C23 C 0.4582(3) -0.2316(2) -0.25711(15)
C24 C 0.6192(3) -0.3072(2) -0.28327(16)
C25 C 0.7478(3) -0.3921(2) -0.20737(16)
C26 C 0.7159(3) -0.4002(2) -0.10572(17)
C27 C 0.5551(2) -0.3244(2) -0.07909(15)
H1 H 0.002(3) -0.102(2) -0.1542(15)
H2 H -0.049(3) -0.107(3) -0.3419(17)
H3 H -0.024(3) -0.254(2) -0.4610(16)
H4 H 0.314(3) -0.607(2) -0.2545(16)
H5 H 0.287(3) -0.455(2) -0.1384(17)
H6 H 0.354(3) 0.087(2) 0.0405(15)
H7 H 0.415(3) 0.029(2) 0.2150(16)
H8 H 0.287(3) -0.327(2) 0.2426(17)
H9 H 0.226(2) -0.266(2) 0.0654(14)
H10 H 0.430(3) -0.398(3) 0.3968(18)
H11 H 0.376(3) -0.310(3) 0.491(2)
H12 H 0.234(4) -0.294(3) 0.404(2)
H13 H 0.555(4) -0.104(3) 0.381(2)
H14 H 0.358(4) 0.012(3) 0.383(2)
H15 H 0.442(4) -0.126(3) 0.474(2)
H16 H 0.369(3) -0.170(2) -0.3091(17)
H17 H 0.636(3) -0.295(2) -0.3580(19)
H18 H 0.863(3) -0.449(2) -0.2249(17)
H19 H 0.807(3) -0.455(2) -0.0518(17)
H20 H 0.537(3) -0.330(2) -0.0068(17)
loop_
_geom_bond_atom_site_label_1
_geom_bond_atom_site_label_2
_geom_bond_site_symmetry_1
_geom_bond_site_symmetry_2
N1 C1 1_555 1_555
N2 C13 1_555 1_555
N3 C12 1_555 1_555
N4 C17 1_555 1_555
C1 C2 1_555 1_555
C2 C3 1_555 1_555
C3 C4 1_555 1_555
C4 C5 1_555 1_555
C5 C6 1_555 1_555
C6 C7 1_555 1_555
C7 C8 1_555 1_555
C8 C9 1_555 1_555
C9 C10 1_555 1_555
C10 C11 1_555 1_555
C11 C6 1_555 1_555
C12 C9 1_555 1_555
C13 C2 1_555 1_555
C14 C3 1_555 1_555
C15 C14 1_555 1_555
C16 C15 1_555 1_555
C17 C16 1_555 1_555
C18 C17 1_555 1_555
C19 C14 1_555 1_555
C20 N4 1_555 1_555
C21 N4 1_555 1_555
C22 C4 1_555 1_555
C23 C22 1_555 1_555
C24 C23 1_555 1_555
C25 C24 1_555 1_555
C26 C25 1_555 1_555
C27 C22 1_555 1_555
H1 C5 1_555 1_555
H2 C7 1_555 1_555
H3 C8 1_555 1_555
H4 C10 1_555 1_555
H5 C11 1_555 1_555
H6 C15 1_555 1_555
H7 C16 1_555 1_555
H8 C18 1_555 1_555
H9 C19 1_555 1_555
H10 C20 1_555 1_555
H11 C20 1_555 1_555
H12 C20 1_555 1_555
H13 C21 1_555 1_555
H14 C21 1_555 1_555
H15 C21 1_555 1_555
H16 C23 1_555 1_555
H17 C24 1_555 1_555
H18 C25 1_555 1_555
H19 C26 1_555 1_555
H20 C27 1_555 1_555
C18 C19 1_555 1_555
C26 C27 1_555 1_555

#END
