
#######################################################################
#
#                 Cambridge Crystallographic Data Centre
#                                CCDC 
#
#######################################################################
#
# If this CIF has been generated from an entry in the Cambridge 
# Structural Database, then it will include bibliographic, chemical, 
# crystal, experimental, refinement or atomic coordinate data resulting 
# from the CCDC's data processing and validation procedures.
#
#######################################################################

data_UWOCOA
_chemical_formula_moiety         'C21 H16 N2 S9'
_chemical_name_systematic        
6-(((2-(5,6-dihydro[1,3]dithiolo[4,5-b][1,4]dithiin-2-ylidene)-5,6-dihydro[1,3]dithiolo[4,5-b][1,4]dithiin-5-yl)methyl)sulfanyl)-2,2'-bipyridine
_symmetry_cell_setting           monoclinic
_symmetry_space_group_name_H-M   'P 21/c'
_symmetry_Int_Tables_number      14
_space_group_name_Hall           '-P 2ybc'
loop_
_symmetry_equiv_pos_site_id
_symmetry_equiv_pos_as_xyz
1 x,y,z
2 -x,1/2+y,1/2-z
3 -x,-y,-z
4 x,1/2-y,1/2+z
_cell_length_a                   17.2349(4)
_cell_length_b                   17.2808(4)
_cell_length_c                   7.94770(10)
_cell_angle_alpha                90
_cell_angle_beta                 92.095(15)
_cell_angle_gamma                90
_cell_volume                     2365.5
_exptl_crystal_colour            orange
_exptl_crystal_description       plate
_cell_formula_units_Z            4
loop_
_atom_site_label
_atom_site_type_symbol
_atom_site_fract_x
_atom_site_fract_y
_atom_site_fract_z
S1 S -0.01522(4) 0.71218(4) 0.60298(8)
S2 S -0.12633(4) 0.59740(4) 0.38026(8)
S3 S 0.11219(4) 0.67216(4) 0.37484(8)
S4 S 0.01011(4) 0.57632(4) 0.15015(8)
S5 S 0.24373(4) 0.67302(5) 0.09666(10)
S6 S 0.14498(4) 0.57343(5) -0.12635(9)
S7 S 0.37317(5) 0.68307(6) -0.13054(12)
S8 S 0.26034(5) 0.55754(6) -0.38995(10)
S9 S -0.19122(4) 0.63674(5) 0.94158(8)
N1 N -0.29708(12) 0.62072(13) 0.6872(3)
N2 N -0.46329(13) 0.61603(14) 0.4022(3)
C1 C -0.07652(15) 0.64058(16) 0.7085(3)
H1 H -0.0460 0.6200 0.8082
C2 C -0.10061(17) 0.57232(16) 0.5984(3)
H2 H -0.1457 0.5467 0.6483
H3 H -0.0574 0.5345 0.5993
C3 C 0.01450(15) 0.66401(15) 0.4244(3)
C4 C -0.03220(15) 0.62053(15) 0.3237(3)
C5 C 0.09915(15) 0.62596(15) 0.1787(3)
C6 C 0.15454(16) 0.62513(16) 0.0634(3)
C7 C 0.28015(16) 0.64622(17) -0.0984(4)
C8 C 0.23575(16) 0.60038(18) -0.1986(3)
C9 C 0.3979(2) 0.6281(4) -0.3177(6)
H4 H 0.4418 0.6546 -0.3704
H5 H 0.4168 0.5765 -0.2805
C10 C 0.3356(3) 0.6163(3) -0.4495(6)
H6 H 0.3590 0.5935 -0.5501
H7 H 0.3140 0.6674 -0.4824
C11 C -0.14445(15) 0.68727(16) 0.7739(3)
H8 H -0.1828 0.6969 0.6803
H9 H -0.1253 0.7380 0.8158
C12 C -0.36492(15) 0.59396(15) 0.6194(3)
C13 C -0.41146(16) 0.54179(16) 0.7035(3)
H10 H -0.4584 0.5229 0.6524
C14 C -0.38730(17) 0.51819(17) 0.8644(4)
H11 H -0.4177 0.4825 0.9246
C15 C -0.31928(17) 0.54673(17) 0.9362(3)
H12 H -0.3022 0.5319 1.0466
C16 C -0.27620(15) 0.59804(16) 0.8417(3)
C17 C -0.38842(15) 0.62573(15) 0.4507(3)
C18 C -0.33565(15) 0.66563(15) 0.3548(3)
H13 H -0.2830 0.6708 0.3927
C19 C -0.36128(16) 0.69770(16) 0.2028(3)
H14 H -0.3265 0.7252 0.1346
C20 C -0.43861(17) 0.68892(17) 0.1521(3)
H15 H -0.4580 0.7105 0.0489
C21 C -0.48674(16) 0.64822(17) 0.2549(4)
H16 H -0.5397 0.6426 0.2196
loop_
_geom_bond_atom_site_label_1
_geom_bond_atom_site_label_2
_geom_bond_site_symmetry_1
_geom_bond_site_symmetry_2
S1 C1 1_555 1_555
S2 C2 1_555 1_555
S3 C3 1_555 1_555
S4 C4 1_555 1_555
S5 C6 1_555 1_555
S6 C6 1_555 1_555
S7 C7 1_555 1_555
S8 C8 1_555 1_555
S9 C11 1_555 1_555
N1 C12 1_555 1_555
N2 C17 1_555 1_555
C1 H1 1_555 1_555
C2 C1 1_555 1_555
H2 C2 1_555 1_555
H3 C2 1_555 1_555
C3 S1 1_555 1_555
C4 S2 1_555 1_555
C5 S3 1_555 1_555
C6 C5 1_555 1_555
C7 S5 1_555 1_555
C8 S6 1_555 1_555
C9 S7 1_555 1_555
H4 C9 1_555 1_555
H5 C9 1_555 1_555
C10 S8 1_555 1_555
H6 C10 1_555 1_555
H7 C10 1_555 1_555
C11 C1 1_555 1_555
H8 C11 1_555 1_555
H9 C11 1_555 1_555
C12 C13 1_555 1_555
C13 H10 1_555 1_555
C14 C13 1_555 1_555
H11 C14 1_555 1_555
C15 C14 1_555 1_555
H12 C15 1_555 1_555
C16 S9 1_555 1_555
C17 C12 1_555 1_555
C18 C17 1_555 1_555
H13 C18 1_555 1_555
C19 C18 1_555 1_555
H14 C19 1_555 1_555
C20 C19 1_555 1_555
H15 C20 1_555 1_555
C21 N2 1_555 1_555
H16 C21 1_555 1_555
S4 C5 1_555 1_555
N1 C16 1_555 1_555
C3 C4 1_555 1_555
C7 C8 1_555 1_555
C9 C10 1_555 1_555
C15 C16 1_555 1_555
C20 C21 1_555 1_555

#END
