
#######################################################################
#
#                 Cambridge Crystallographic Data Centre
#                                CCDC 
#
#######################################################################
#
# If this CIF has been generated from an entry in the Cambridge 
# Structural Database, then it will include bibliographic, chemical, 
# crystal, experimental, refinement or atomic coordinate data resulting 
# from the CCDC's data processing and validation procedures.
#
#######################################################################

data_UWOFAO
_chemical_formula_moiety         'C90 H48 B6 Cl12 N12 O12,C24 H12'
_chemical_name_systematic        
"N,N'-tris(B,B'-bis(5,6-dichloro-1,3,2-benzodioxaborole)-1,4-phenylene)-bis(2,4,6-tri(4-pyridyl)-1,3,5-triazine) coronene clathrate"
_symmetry_cell_setting           hexagonal
_symmetry_space_group_name_H-M   'P 63/m'
_symmetry_Int_Tables_number      176
_space_group_name_Hall           '-P 6c'
loop_
_symmetry_equiv_pos_site_id
_symmetry_equiv_pos_as_xyz
1 x,y,z
2 -y,x-y,z
3 -x+y,-x,z
4 -x,-y,1/2+z
5 y,-x+y,1/2+z
6 x-y,x,1/2+z
7 -x,-y,-z
8 y,-x+y,-z
9 x-y,x,-z
10 x,y,1/2-z
11 -y,x-y,1/2-z
12 -x+y,-x,1/2-z
_cell_length_a                   14.3139(9)
_cell_length_b                   14.3139(9)
_cell_length_c                   30.848(2)
_cell_angle_alpha                90
_cell_angle_beta                 90
_cell_angle_gamma                120
_cell_volume                     5473.61
_exptl_crystal_colour            orange
_exptl_crystal_description       plate
_cell_formula_units_Z            2
loop_
_atom_site_label
_atom_site_type_symbol
_atom_site_fract_x
_atom_site_fract_y
_atom_site_fract_z
B1 B 0.6176(7) 0.8086(6) 0.8474(2)
C1 C 0.6204(5) 0.8187(4) 0.79629(19)
C2 C 0.5257(5) 0.7738(4) 0.77266(15)
H1 H 0.4602 0.7428 0.7873
C3 C 0.7154(5) 0.8643(4) 0.77300(16)
H2 H 0.7808 0.8958 0.7878
C4 C 0.6621(7) 0.9007(5) 0.9088(3)
C5 C 0.5506(7) 0.8364(5) 0.9082(2)
C6 C 0.4878(5) 0.8274(4) 0.9431(3)
H3 H 0.4131 0.7857 0.9416
C7 C 0.5374(8) 0.8814(6) 0.9804(2)
C8 C 0.6475(9) 0.9485(6) 0.9805(2)
C9 C 0.7129(5) 0.9609(5) 0.9447(3)
H4 H 0.7870 1.0077 0.9452
O1 O 0.7076(3) 0.8978(3) 0.87072(15)
O2 O 0.5179(3) 0.7871(3) 0.86871(13)
Cl1 Cl 0.45838(16) 0.86531(16) 1.02567(6)
Cl2 Cl 0.71071(19) 1.02085(18) 1.02831(6)
N1 N 0.7579(5) 0.4340(4) 0.86549(12)
C10 C 0.6566(10) 0.4166(7) 0.86569(14)
C11 C 0.6479(6) 0.5161(5) 0.86430(15)
C12 C 0.5468(5) 0.5082(5) 0.86233(15)
H5 H 0.4841 0.4412 0.8635
C13 C 0.5413(5) 0.6019(6) 0.85861(15)
H6 H 0.4738 0.5962 0.8567
N2 N 0.6277(5) 0.6987(4) 0.85765(11)
C14 C 0.7255(6) 0.7074(5) 0.86001(15)
H7 H 0.7867 0.7756 0.8594
C15 C 0.7376(5) 0.6178(6) 0.86334(15)
H8 H 0.8062 0.6261 0.8649
B1A B 0.1914(6) -0.1910(9) 0.8474(2)
B1B B 1.1910(9) 0.3824(7) 0.8474(2)
B1I B 0.6176(7) 0.8086(6) 0.6526(2)
B1J B 0.1914(6) -0.1910(9) 0.6526(2)
B1K B 1.1910(9) 0.3824(7) 0.6526(2)
C1A C 0.1813(4) -0.1983(6) 0.79629(19)
C1B C 1.1983(6) 0.3796(5) 0.79629(19)
C1I C 0.6204(5) 0.8187(4) 0.70371(19)
C1J C 0.1813(4) -0.1983(6) 0.70371(19)
C1K C 1.1983(6) 0.3796(5) 0.70371(19)
C2A C 0.2262(4) -0.2481(6) 0.77266(15)
C2B C 1.2481(6) 0.4743(5) 0.77266(15)
C2I C 0.5257(5) 0.7738(4) 0.72734(15)
C2J C 0.2262(4) -0.2481(6) 0.72734(15)
C2K C 1.2481(6) 0.4743(5) 0.72734(15)
H1A H 0.2572 -0.2826 0.7873
H1B H 1.2826 0.5398 0.7873
H1I H 0.4602 0.7428 0.7127
H1J H 0.2572 -0.2826 0.7127
H1K H 1.2826 0.5398 0.7127
C3A C 0.1357(4) -0.1489(6) 0.77300(16)
C3B C 1.1489(6) 0.2846(5) 0.77300(16)
C3I C 0.7154(5) 0.8643(4) 0.72700(16)
C3J C 0.1357(4) -0.1489(6) 0.72700(16)
C3K C 1.1489(6) 0.2846(5) 0.72700(16)
H2A H 0.1042 -0.1150 0.7878
H2B H 1.1150 0.2192 0.7878
H2I H 0.7808 0.8958 0.7122
H2J H 0.1042 -0.1150 0.7122
H2K H 1.1150 0.2192 0.7122
C4A C 0.0993(5) -0.2386(9) 0.9088(3)
C4B C 1.2386(9) 0.3379(7) 0.9088(3)
C4I C 0.6621(7) 0.9007(5) 0.5912(3)
C4J C 0.0993(5) -0.2386(9) 0.5912(3)
C4K C 1.2386(9) 0.3379(7) 0.5912(3)
C5A C 0.1636(5) -0.2858(9) 0.9082(2)
C5B C 1.2858(9) 0.4494(7) 0.9082(2)
C5I C 0.5506(7) 0.8364(5) 0.5918(2)
C5J C 0.1636(5) -0.2858(9) 0.5918(2)
C5K C 1.2858(9) 0.4494(7) 0.5918(2)
C6A C 0.1726(4) -0.3396(6) 0.9431(3)
C6B C 1.3396(6) 0.5122(5) 0.9431(3)
C6I C 0.4878(5) 0.8274(4) 0.5569(3)
C6J C 0.1726(4) -0.3396(6) 0.5569(3)
C6K C 1.3396(6) 0.5122(5) 0.5569(3)
H3A H 0.2143 -0.3726 0.9416
H3B H 1.3726 0.5869 0.9416
H3I H 0.4131 0.7857 0.5584
H3J H 0.2143 -0.3726 0.5584
H3K H 1.3726 0.5869 0.5584
C7A C 0.1186(6) -0.3440(10) 0.9804(2)
C7B C 1.3440(10) 0.4626(8) 0.9804(2)
C7I C 0.5374(8) 0.8814(6) 0.5196(2)
C7J C 0.1186(6) -0.3440(10) 0.5196(2)
C7K C 1.3440(10) 0.4626(8) 0.5196(2)
C8A C 0.0515(6) -0.3010(11) 0.9805(2)
C8B C 1.3010(11) 0.3525(9) 0.9805(2)
C8I C 0.6475(9) 0.9485(6) 0.5195(2)
C8J C 0.0515(6) -0.3010(11) 0.5195(2)
C8K C 1.3010(11) 0.3525(9) 0.5195(2)
C9A C 0.0391(5) -0.2480(7) 0.9447(3)
C9B C 1.2480(7) 0.2871(5) 0.9447(3)
C9I C 0.7129(5) 0.9609(5) 0.5553(3)
C9J C 0.0391(5) -0.2480(7) 0.5553(3)
C9K C 1.2480(7) 0.2871(5) 0.5553(3)
H4A H -0.0077 -0.2207 0.9452
H4B H 1.2207 0.2130 0.9452
H4I H 0.7870 1.0077 0.5548
H4J H -0.0077 -0.2207 0.5548
H4K H 1.2207 0.2130 0.5548
O1A O 0.1022(3) -0.1902(4) 0.87072(15)
O1B O 1.1902(4) 0.2924(3) 0.87072(15)
O1I O 0.7076(3) 0.8978(3) 0.62928(15)
O1J O 0.1022(3) -0.1902(4) 0.62928(15)
O1K O 1.1902(4) 0.2924(3) 0.62928(15)
O2A O 0.2129(3) -0.2692(4) 0.86871(13)
O2B O 1.2692(4) 0.4821(3) 0.86871(13)
O2I O 0.5179(3) 0.7871(3) 0.63129(13)
O2J O 0.2129(3) -0.2692(4) 0.63129(13)
O2K O 1.2692(4) 0.4821(3) 0.63129(13)
Cl1A Cl 0.13469(16) -0.40693(23) 1.02567(6)
Cl1B Cl 1.40693(23) 0.54162(16) 1.02567(6)
Cl1I Cl 0.45838(16) 0.86531(16) 0.47433(6)
Cl1J Cl 0.13469(16) -0.40693(23) 0.47433(6)
Cl1K Cl 1.40693(23) 0.54162(16) 0.47433(6)
Cl2A Cl -0.02085(18) -0.31014(26) 1.02831(6)
Cl2B Cl 1.31014(26) 0.28929(19) 1.02831(6)
Cl2I Cl 0.71071(19) 1.02085(18) 0.47169(6)
Cl2J Cl -0.02085(18) -0.31014(26) 0.47169(6)
Cl2K Cl 1.31014(26) 0.28929(19) 0.47169(6)
N1A N 0.5660(4) 0.3239(6) 0.86549(12)
N1B N 0.6761(6) 0.2421(5) 0.86549(12)
N1I N 0.7579(5) 0.4340(4) 0.63451(12)
N1J N 0.5660(4) 0.3239(6) 0.63451(12)
N1K N 0.6761(6) 0.2421(5) 0.63451(12)
C10A C 0.5834(7) 0.2400(12) 0.86569(14)
C10B C 0.7600(12) 0.3434(10) 0.86569(14)
C10I C 0.6566(10) 0.4166(7) 0.63431(14)
C10J C 0.5834(7) 0.2400(12) 0.63431(14)
C10K C 0.7600(12) 0.3434(10) 0.63431(14)
C11A C 0.4839(5) 0.1318(8) 0.86430(15)
C11B C 0.8682(8) 0.3521(6) 0.86430(15)
C11I C 0.6479(6) 0.5161(5) 0.63570(15)
C11J C 0.4839(5) 0.1318(8) 0.63570(15)
C11K C 0.8682(8) 0.3521(6) 0.63570(15)
C12A C 0.4918(5) 0.0386(7) 0.86233(15)
C12B C 0.9614(7) 0.4532(5) 0.86233(15)
C12I C 0.5468(5) 0.5082(5) 0.63767(15)
C12J C 0.4918(5) 0.0386(7) 0.63767(15)
C12K C 0.9614(7) 0.4532(5) 0.63767(15)
H5A H 0.5588 0.0429 0.8635
H5B H 0.9571 0.5159 0.8635
H5I H 0.4841 0.4412 0.6365
H5J H 0.5588 0.0429 0.6365
H5K H 0.9571 0.5159 0.6365
C13A C 0.3981(6) -0.0606(8) 0.85861(15)
C13B C 1.0606(8) 0.4587(5) 0.85861(15)
C13I C 0.5413(5) 0.6019(6) 0.64139(15)
C13J C 0.3981(6) -0.0606(8) 0.64139(15)
C13K C 1.0606(8) 0.4587(5) 0.64139(15)
H6A H 0.4038 -0.1224 0.8567
H6B H 1.1224 0.5262 0.8567
H6I H 0.4738 0.5962 0.6433
H6J H 0.4038 -0.1224 0.6433
H6K H 1.1224 0.5262 0.6433
N2A N 0.3013(4) -0.0710(6) 0.85765(11)
N2B N 1.0710(6) 0.3723(5) 0.85765(11)
N2I N 0.6277(5) 0.6987(4) 0.64235(11)
N2J N 0.3013(4) -0.0710(6) 0.64235(11)
N2K N 1.0710(6) 0.3723(5) 0.64235(11)
C14A C 0.2926(5) 0.0181(8) 0.86001(15)
C14B C 0.9819(8) 0.2745(6) 0.86001(15)
C14I C 0.7255(6) 0.7074(5) 0.63999(15)
C14J C 0.2926(5) 0.0181(8) 0.63999(15)
C14K C 0.9819(8) 0.2745(6) 0.63999(15)
H7A H 0.2244 0.0111 0.8594
H7B H 0.9889 0.2133 0.8594
H7I H 0.7867 0.7756 0.6406
H7J H 0.2244 0.0111 0.6406
H7K H 0.9889 0.2133 0.6406
C15A C 0.3822(6) 0.1198(8) 0.86334(15)
C15B C 0.8802(8) 0.2624(5) 0.86334(15)
C15I C 0.7376(5) 0.6178(6) 0.63666(15)
C15J C 0.3822(6) 0.1198(8) 0.63666(15)
C15K C 0.8802(8) 0.2624(5) 0.63666(15)
H8A H 0.3739 0.1801 0.8649
H8B H 0.8199 0.1938 0.8649
H8I H 0.8062 0.6261 0.6351
H8J H 0.3739 0.1801 0.6351
H8K H 0.8199 0.1938 0.6351
C16 C 0.5100(12) 0.9650(9) 0.2500
H9 H 0.5339 1.0386 0.2500
C17 C 0.5847(12) 0.9316(12) 0.2500
H10 H 0.6575 0.9838 0.2500
C18 C 0.5587(11) 0.8307(12) 0.2500
C19 C 0.4429(7) 0.7487(11) 0.2500
C20 C 0.4136(11) 0.6405(13) 0.2500
C21 C 0.4922(12) 0.5992(13) 0.2500
C22 C 0.5903(12) 0.6765(14) 0.2500
H11 H 0.6420 0.6553 0.2500
C23 C 0.6305(9) 0.7866(11) 0.2500
H12 H 0.7048 0.8331 0.2500
C16A C 0.0350(9) 0.5450(15) 0.2500
C16B C 0.4550(15) 0.4900(12) 0.2500
H9A H -0.0386 0.4953 0.2500
H9B H 0.5047 0.4661 0.2500
C17A C 0.0684(12) 0.6531(17) 0.2500
C17B C 0.3469(17) 0.4153(12) 0.2500
H10A H 0.0162 0.6737 0.2500
H10B H 0.3263 0.3425 0.2500
C18A C 0.1693(12) 0.7280(16) 0.2500
C18B C 0.2720(16) 0.4413(11) 0.2500
C19A C 0.2513(11) 0.6942(13) 0.2500
C19B C 0.3058(13) 0.5571(7) 0.2500
C20A C 0.3595(13) 0.7731(17) 0.2500
C20B C 0.2269(17) 0.5864(11) 0.2500
C21A C 0.4008(13) 0.8930(18) 0.2500
C21B C 0.1070(18) 0.5078(12) 0.2500
C22A C 0.3235(14) 0.9138(18) 0.2500
C22B C 0.0862(18) 0.4097(12) 0.2500
H11A H 0.3447 0.9867 0.2500
H11B H 0.0133 0.3580 0.2500
C23A C 0.2134(11) 0.8439(14) 0.2500
C23B C 0.1561(14) 0.3695(9) 0.2500
H12A H 0.1669 0.8717 0.2500
H12B H 0.1283 0.2952 0.2500
loop_
_geom_bond_atom_site_label_1
_geom_bond_atom_site_label_2
_geom_bond_site_symmetry_1
_geom_bond_site_symmetry_2
B1 C1 1_555 1_555
C1 C2 1_555 1_555
C2 H1 1_555 1_555
C3 C1 1_555 1_555
H2 C3 1_555 1_555
C4 C5 1_555 1_555
C5 C6 1_555 1_555
C6 H3 1_555 1_555
C7 C6 1_555 1_555
C8 C7 1_555 1_555
C9 C4 1_555 1_555
H4 C9 1_555 1_555
O1 B1 1_555 1_555
O2 B1 1_555 1_555
Cl1 C7 1_555 1_555
Cl2 C8 1_555 1_555
N1 C10 1_555 1_555
C10 C11 1_555 1_555
C11 C12 1_555 1_555
C12 H5 1_555 1_555
C13 C12 1_555 1_555
H6 C13 1_555 1_555
N2 B1 1_555 1_555
C14 N2 1_555 1_555
H7 C14 1_555 1_555
C15 C11 1_555 1_555
H8 C15 1_555 1_555
C16 H9 1_555 1_555
C17 C16 1_555 1_555
H10 C17 1_555 1_555
C18 C17 1_555 1_555
C19 C18 1_555 1_555
C20 C19 1_555 1_555
C21 C20 1_555 1_555
C22 C21 1_555 1_555
H11 C22 1_555 1_555
C23 C18 1_555 1_555
H12 C23 1_555 1_555
B1A C1A 1_555 1_555
B1B C1B 1_555 1_555
B1I C1I 1_555 1_555
B1J C1J 1_555 1_555
B1K C1K 1_555 1_555
C1A C2A 1_555 1_555
C1B C2B 1_555 1_555
C1I C2I 1_555 1_555
C1J C2J 1_555 1_555
C1K C2K 1_555 1_555
C2A C2J 1_555 1_555
C2B C2K 1_555 1_555
C2I C2 1_555 1_555
C2J H1J 1_555 1_555
C2K H1K 1_555 1_555
H1A C2A 1_555 1_555
H1B C2B 1_555 1_555
H1I C2I 1_555 1_555
C3A C1A 1_555 1_555
C3B C1B 1_555 1_555
C3I C3 1_555 1_555
C3J C1J 1_555 1_555
C3K C1K 1_555 1_555
H2A C3A 1_555 1_555
H2B C3B 1_555 1_555
H2I C3I 1_555 1_555
H2J C3J 1_555 1_555
H2K C3K 1_555 1_555
C4A C5A 1_555 1_555
C4B C5B 1_555 1_555
C4I C5I 1_555 1_555
C4J C5J 1_555 1_555
C4K C5K 1_555 1_555
C5A C6A 1_555 1_555
C5B C6B 1_555 1_555
C5I C6I 1_555 1_555
C5J C6J 1_555 1_555
C5K C6K 1_555 1_555
C6A H3A 1_555 1_555
C6B H3B 1_555 1_555
C6I H3I 1_555 1_555
C6J H3J 1_555 1_555
C6K H3K 1_555 1_555
C7A C6A 1_555 1_555
C7B C6B 1_555 1_555
C7I C6I 1_555 1_555
C7J C6J 1_555 1_555
C7K C6K 1_555 1_555
C8A C7A 1_555 1_555
C8B C7B 1_555 1_555
C8I C7I 1_555 1_555
C8J C7J 1_555 1_555
C8K C7K 1_555 1_555
C9A C4A 1_555 1_555
C9B C4B 1_555 1_555
C9I C4I 1_555 1_555
C9J C4J 1_555 1_555
C9K C4K 1_555 1_555
H4A C9A 1_555 1_555
H4B C9B 1_555 1_555
H4I C9I 1_555 1_555
H4J C9J 1_555 1_555
H4K C9K 1_555 1_555
O1A B1A 1_555 1_555
O1B B1B 1_555 1_555
O1I B1I 1_555 1_555
O1J B1J 1_555 1_555
O1K B1K 1_555 1_555
O2A B1A 1_555 1_555
O2B B1B 1_555 1_555
O2I B1I 1_555 1_555
O2J B1J 1_555 1_555
O2K B1K 1_555 1_555
Cl1A C7A 1_555 1_555
Cl1B C7B 1_555 1_555
Cl1I C7I 1_555 1_555
Cl1J C7J 1_555 1_555
Cl1K C7K 1_555 1_555
Cl2A C8A 1_555 1_555
Cl2B C8B 1_555 1_555
Cl2I C8I 1_555 1_555
Cl2J C8J 1_555 1_555
Cl2K C8K 1_555 1_555
N1A C10 1_555 1_555
N1B C10A 1_555 1_555
N1I C10I 1_555 1_555
N1J C10I 1_555 1_555
N1K C10J 1_555 1_555
C10A N1A 1_555 1_555
C10B N1 1_555 1_555
C10I C11I 1_555 1_555
C10J N1J 1_555 1_555
C10K N1I 1_555 1_555
C11A C10A 1_555 1_555
C11B C10B 1_555 1_555
C11I C12I 1_555 1_555
C11J C10J 1_555 1_555
C11K C10K 1_555 1_555
C12A C11A 1_555 1_555
C12B C11B 1_555 1_555
C12I H5I 1_555 1_555
C12J C11J 1_555 1_555
C12K C11K 1_555 1_555
H5A C12A 1_555 1_555
H5B C12B 1_555 1_555
H5J C12J 1_555 1_555
H5K C12K 1_555 1_555
C13A C12A 1_555 1_555
C13B C12B 1_555 1_555
C13I C12I 1_555 1_555
C13J C12J 1_555 1_555
C13K C12K 1_555 1_555
H6A C13A 1_555 1_555
H6B C13B 1_555 1_555
H6I C13I 1_555 1_555
H6J C13J 1_555 1_555
H6K C13K 1_555 1_555
N2A B1A 1_555 1_555
N2B B1B 1_555 1_555
N2I B1I 1_555 1_555
N2J B1J 1_555 1_555
N2K B1K 1_555 1_555
C14A N2A 1_555 1_555
C14B N2B 1_555 1_555
C14I N2I 1_555 1_555
C14J N2J 1_555 1_555
C14K N2K 1_555 1_555
H7A C14A 1_555 1_555
H7B C14B 1_555 1_555
H7I C14I 1_555 1_555
H7J C14J 1_555 1_555
H7K C14K 1_555 1_555
C15A C11A 1_555 1_555
C15B C11B 1_555 1_555
C15I C11I 1_555 1_555
C15J C11J 1_555 1_555
C15K C11K 1_555 1_555
H8A C15A 1_555 1_555
H8B C15B 1_555 1_555
H8I C15I 1_555 1_555
H8J C15J 1_555 1_555
H8K C15K 1_555 1_555
C16A H9A 1_555 1_555
C16B C21 1_555 1_555
H9B C16B 1_555 1_555
C17A C16A 1_555 1_555
C17B C16B 1_555 1_555
H10A C17A 1_555 1_555
H10B C17B 1_555 1_555
C18A C17A 1_555 1_555
C18B C17B 1_555 1_555
C19A C18A 1_555 1_555
C19B C20 1_555 1_555
C20A C19 1_555 1_555
C20B C19A 1_555 1_555
C21A C16 1_555 1_555
C21B C16A 1_555 1_555
C22A C21A 1_555 1_555
C22B C21B 1_555 1_555
H11A C22A 1_555 1_555
H11B C22B 1_555 1_555
C23A C18A 1_555 1_555
C23B C18B 1_555 1_555
H12A C23A 1_555 1_555
H12B C23B 1_555 1_555
C4 O1 1_555 1_555
C5 O2 1_555 1_555
C8 C9 1_555 1_555
C13 N2 1_555 1_555
C14 C15 1_555 1_555
C22 C23 1_555 1_555
C1I C3I 1_555 1_555
C3A C3J 1_555 1_555
C3B C3K 1_555 1_555
C4A O1A 1_555 1_555
C4B O1B 1_555 1_555
C4I O1I 1_555 1_555
C4J O1J 1_555 1_555
C4K O1K 1_555 1_555
C5A O2A 1_555 1_555
C5B O2B 1_555 1_555
C5I O2I 1_555 1_555
C5J O2J 1_555 1_555
C5K O2K 1_555 1_555
C8A C9A 1_555 1_555
C8B C9B 1_555 1_555
C8I C9I 1_555 1_555
C8J C9J 1_555 1_555
C8K C9K 1_555 1_555
N1B C10B 1_555 1_555
N1K C10K 1_555 1_555
C13A N2A 1_555 1_555
C13B N2B 1_555 1_555
C13I N2I 1_555 1_555
C13J N2J 1_555 1_555
C13K N2K 1_555 1_555
C14A C15A 1_555 1_555
C14B C15B 1_555 1_555
C14I C15I 1_555 1_555
C14J C15J 1_555 1_555
C14K C15K 1_555 1_555
C18B C19B 1_555 1_555
C19A C20A 1_555 1_555
C19B C20B 1_555 1_555
C20A C21A 1_555 1_555
C20B C21B 1_555 1_555
C22A C23A 1_555 1_555
C22B C23B 1_555 1_555

#END
