
#######################################################################
#
#                 Cambridge Crystallographic Data Centre
#                                CCDC 
#
#######################################################################
#
# If this CIF has been generated from an entry in the Cambridge 
# Structural Database, then it will include bibliographic, chemical, 
# crystal, experimental, refinement or atomic coordinate data resulting 
# from the CCDC's data processing and validation procedures.
#
#######################################################################

data_UWOFUI
_chemical_formula_moiety         'C66 H78 N22 O12,4(C2 H6 O1),6(H2 O1)'
_chemical_name_systematic        
'1,4,12,15,18,26,29,32,40,43,46,54,59,67,70,71,72,75,83,86,87,88-Docosaazanonacyclo[41.13.13.13^15,29^.1^6,10^.1^20,24^.1^34,38^.1^48,52^.1^61,65^.1^77,81^]octaoctaconta-6(87),7,9,20(86),21,23,34(72),35,37,48(71),49,51,61(70),62,64,77(88),78,80-octadecaene-5,11,19,25,33,39,47,53,60,66,76,82-dodecone ethanol solvate hexahydrate'
_symmetry_cell_setting           monoclinic
_symmetry_space_group_name_H-M   'C 2/c'
_symmetry_Int_Tables_number      15
_space_group_name_Hall           '-C 2yn'
loop_
_symmetry_equiv_pos_site_id
_symmetry_equiv_pos_as_xyz
1 x,y,z
2 -x,y,1/2-z
3 1/2+x,1/2+y,z
4 1/2-x,1/2+y,1/2-z
5 -x,-y,-z
6 x,-y,1/2+z
7 1/2-x,1/2-y,-z
8 1/2+x,1/2-y,1/2+z
_cell_length_a                   34.486(3)
_cell_length_b                   11.3400(9)
_cell_length_c                   24.7183(19)
_cell_angle_alpha                90
_cell_angle_beta                 117.519(2)
_cell_angle_gamma                90
_cell_volume                     8572.91
_exptl_crystal_colour            colorless
_exptl_crystal_description       'flat plate'
_cell_formula_units_Z            4
loop_
_atom_site_label
_atom_site_type_symbol
_atom_site_fract_x
_atom_site_fract_y
_atom_site_fract_z
O1 O 0.48907(8) 1.2397(2) -0.02291(13)
O2 O 0.39231(10) 0.8519(2) -0.27097(14)
O3 O 0.31618(8) 1.1026(2) -0.30544(14)
O4 O 0.37616(9) 1.3728(2) -0.02174(13)
O5 O 0.41217(9) 0.6697(2) 0.11484(14)
O6 O 0.22422(8) 0.4707(2) 0.12864(13)
N1 N 0.39148(9) 1.0370(2) 0.03925(13)
C1 C 0.43930(11) 1.0257(3) 0.06831(18)
H1 H 0.4512 1.0399 0.1127
H2 H 0.4470 0.9441 0.0627
C2 C 0.46025(11) 1.1101(3) 0.04288(18)
H3 H 0.4924 1.1063 0.0681
H4 H 0.4508 1.1913 0.0458
N2 N 0.44939(9) 1.0857(2) -0.02035(14)
H5 H 0.4320 1.0266 -0.0400
C3 C 0.46603(10) 1.1537(3) -0.04777(19)
C4 C 0.45643(11) 1.1218(3) -0.11175(19)
N3 N 0.43439(8) 1.0224(2) -0.13547(15)
C5 C 0.47268(13) 1.1928(3) -0.1427(2)
H6 H 0.4887 1.2624 -0.1243
C6 C 0.46524(15) 1.1608(4) -0.2003(2)
H7 H 0.4755 1.2082 -0.2227
C7 C 0.44258(13) 1.0587(4) -0.2247(2)
H8 H 0.4373 1.0339 -0.2643
C8 C 0.42742(11) 0.9919(3) -0.19159(19)
C9 C 0.40343(12) 0.8787(3) -0.2176(2)
N4 N 0.39808(9) 0.8115(3) -0.17786(15)
H9 H 0.4081 0.8367 -0.1401
C10 C 0.37626(12) 0.6973(3) -0.1941(2)
H10 H 0.3869 0.6531 -0.2192
H11 H 0.3839 0.6514 -0.1565
C11 C 0.32680(12) 0.7095(3) -0.22951(19)
H12 H 0.3134 0.6300 -0.2368
H13 H 0.3190 0.7455 -0.2697
N5 N 0.30885(9) 0.7813(2) -0.19749(14)
C12 C 0.26646(11) 0.8312(3) -0.24021(18)
H14 H 0.2484 0.7688 -0.2688
H15 H 0.2511 0.8585 -0.2172
C13 C 0.27104(12) 0.9338(3) -0.27646(18)
H16 H 0.2416 0.9624 -0.3056
H17 H 0.2857 0.9060 -0.3003
N6 N 0.29584(9) 1.0303(2) -0.23757(15)
H18 H 0.2971 1.0382 -0.2014
C14 C 0.31672(10) 1.1069(3) -0.2553(2)
C15 C 0.34120(10) 1.2036(3) -0.21095(18)
N7 N 0.33933(8) 1.2057(2) -0.15854(15)
C16 C 0.36402(11) 1.2869(3) -0.22625(18)
H19 H 0.3645 1.2828 -0.2643
C17 C 0.38584(12) 1.3750(3) -0.1857(2)
H20 H 0.4020 1.4324 -0.1949
C18 C 0.38399(11) 1.3789(3) -0.1318(2)
H21 H 0.3986 1.4397 -0.1032
C19 C 0.36061(10) 1.2933(3) -0.11917(17)
C20 C 0.35844(11) 1.2944(3) -0.05995(18)
N8 N 0.33629(9) 1.2062(2) -0.05217(14)
H22 H 0.3226 1.1565 -0.0824
C21 C 0.33366(12) 1.1884(3) 0.00383(18)
H23 H 0.3254 1.2637 0.0161
H24 H 0.3103 1.1303 -0.0034
C22 C 0.37626(12) 1.1448(3) 0.05559(18)
H25 H 0.3720 1.1297 0.0919
H26 H 0.3988 1.2068 0.0663
C23 C 0.37069(11) 0.9311(3) 0.04729(17)
H27 H 0.3386 0.9420 0.0250
H28 H 0.3781 0.8640 0.0282
C24 C 0.38314(13) 0.8982(3) 0.11330(19)
H29 H 0.3749 0.9633 0.1326
H30 H 0.4152 0.8874 0.1363
N9 N 0.36159(10) 0.7908(3) 0.11664(16)
H31 H 0.3366 0.7962 0.1181
C25 C 0.37792(12) 0.6855(3) 0.11756(18)
C26 C 0.35189(12) 0.5832(3) 0.12220(17)
N10 N 0.31288(9) 0.6078(2) 0.11839(13)
C27 C 0.36832(14) 0.4694(3) 0.13030(19)
H32 H 0.3963 0.4546 0.1329
C28 C 0.34348(15) 0.3777(3) 0.1345(2)
H33 H 0.3542 0.2991 0.1407
C29 C 0.30325(14) 0.4026(3) 0.12955(18)
H34 H 0.2852 0.3410 0.1313
C30 C 0.28900(12) 0.5187(3) 0.12200(17)
C31 C 0.24584(12) 0.5476(3) 0.11899(17)
N11 N 0.23301(10) 0.6596(2) 0.10563(15)
H35 H 0.2513 0.7092 0.1021
C32 C 0.19126(11) 0.7056(3) 0.09645(18)
H36 H 0.1782 0.7515 0.0581
H37 H 0.1715 0.6384 0.0914
C33 C 0.30656(11) 0.7163(3) -0.14784(18)
H38 H 0.2789 0.6709 -0.1648
H39 H 0.3310 0.6591 -0.1308
O1F O 0.01093(8) 0.2603(2) 0.02291(13)
O2F O 0.10769(10) 0.6481(2) 0.27097(14)
O3F O 0.18382(8) 0.3974(2) 0.30544(14)
O4F O 0.12384(9) 0.1272(2) 0.02174(13)
O5F O 0.08783(9) 0.8303(2) -0.11484(14)
O6F O 0.27578(8) 1.0293(2) -0.12864(13)
N1F N 0.10852(9) 0.4630(2) -0.03925(13)
C1F C 0.06070(11) 0.4743(3) -0.06831(18)
H1F H 0.0488 0.4601 -0.1127
H2F H 0.0530 0.5559 -0.0627
C2F C 0.03975(11) 0.3899(3) -0.04288(18)
H3F H 0.0076 0.3937 -0.0681
H4F H 0.0492 0.3087 -0.0458
N2F N 0.05061(9) 0.4143(2) 0.02035(14)
H5F H 0.0680 0.4734 0.0400
C3F C 0.03397(10) 0.3463(3) 0.04777(19)
C4F C 0.04357(11) 0.3782(3) 0.11175(19)
N3F N 0.06561(8) 0.4776(2) 0.13547(15)
C5F C 0.02732(13) 0.3072(3) 0.1427(2)
H6F H 0.0113 0.2376 0.1243
C6F C 0.03476(15) 0.3392(4) 0.2003(2)
H7F H 0.0245 0.2918 0.2227
C7F C 0.05742(13) 0.4413(4) 0.2247(2)
H8F H 0.0627 0.4661 0.2643
C8F C 0.07258(11) 0.5081(3) 0.19159(19)
C9F C 0.09657(12) 0.6213(3) 0.2176(2)
N4F N 0.10192(9) 0.6885(3) 0.17786(15)
H9F H 0.0919 0.6633 0.1401
C10F C 0.12374(12) 0.8027(3) 0.1941(2)
H10F H 0.1131 0.8469 0.2192
H11F H 0.1161 0.8486 0.1565
C11F C 0.17320(12) 0.7905(3) 0.22951(19)
H12F H 0.1866 0.8700 0.2368
H13F H 0.1810 0.7545 0.2697
N5F N 0.19115(9) 0.7187(2) 0.19749(14)
C12F C 0.23354(11) 0.6688(3) 0.24021(18)
H14F H 0.2516 0.7312 0.2688
H15F H 0.2489 0.6415 0.2172
C13F C 0.22896(12) 0.5662(3) 0.27646(18)
H16F H 0.2584 0.5376 0.3056
H17F H 0.2143 0.5940 0.3003
N6F N 0.20416(9) 0.4697(2) 0.23757(15)
H18F H 0.2029 0.4618 0.2014
C14F C 0.18328(10) 0.3931(3) 0.2553(2)
C15F C 0.15880(10) 0.2964(3) 0.21095(18)
N7F N 0.16067(8) 0.2943(2) 0.15854(15)
C16F C 0.13598(11) 0.2131(3) 0.22625(18)
H19F H 0.1355 0.2172 0.2643
C17F C 0.11416(12) 0.1250(3) 0.1857(2)
H20F H 0.0980 0.0676 0.1949
C18F C 0.11601(11) 0.1211(3) 0.1318(2)
H21F H 0.1014 0.0603 0.1032
C19F C 0.13939(10) 0.2067(3) 0.11917(17)
C20F C 0.14156(11) 0.2056(3) 0.05995(18)
N8F N 0.16371(9) 0.2938(2) 0.05217(14)
H22F H 0.1774 0.3435 0.0824
C21F C 0.16634(12) 0.3116(3) -0.00383(18)
H23F H 0.1746 0.2363 -0.0161
H24F H 0.1897 0.3697 0.0034
C22F C 0.12374(12) 0.3552(3) -0.05559(18)
H25F H 0.1280 0.3703 -0.0919
H26F H 0.1012 0.2932 -0.0663
C23F C 0.12931(11) 0.5689(3) -0.04729(17)
H27F H 0.1614 0.5580 -0.0250
H28F H 0.1219 0.6360 -0.0282
C24F C 0.11686(13) 0.6018(3) -0.11330(19)
H29F H 0.1251 0.5367 -0.1326
H30F H 0.0848 0.6126 -0.1363
N9F N 0.13841(10) 0.7092(3) -0.11664(16)
H31F H 0.1634 0.7038 -0.1181
C25F C 0.12208(12) 0.8145(3) -0.11756(18)
C26F C 0.14811(12) 0.9168(3) -0.12220(17)
N10F N 0.18712(9) 0.8922(2) -0.11839(13)
C27F C 0.13168(14) 1.0306(3) -0.13030(19)
H32F H 0.1037 1.0454 -0.1329
C28F C 0.15652(15) 1.1223(3) -0.1345(2)
H33F H 0.1458 1.2009 -0.1407
C29F C 0.19675(14) 1.0974(3) -0.12955(18)
H34F H 0.2148 1.1590 -0.1313
C30F C 0.21100(12) 0.9813(3) -0.12200(17)
C31F C 0.25416(12) 0.9524(3) -0.11899(17)
N11F N 0.26699(10) 0.8404(2) -0.10563(15)
H35F H 0.2487 0.7908 -0.1021
C32F C 0.30874(11) 0.7944(3) -0.09645(18)
H36F H 0.3218 0.7485 -0.0581
H37F H 0.3285 0.8616 -0.0914
C33F C 0.19344(11) 0.7837(3) 0.14784(18)
H38F H 0.2211 0.8291 0.1648
H39F H 0.1690 0.8409 0.1308
O7 O -0.07752(9) 0.3058(2) -0.04796(13)
H40 H -0.0471(16) 0.292(4) -0.0272(19)
H41 H -0.0898(14) 0.254(4) -0.0367(19)
O8 O 0.11109(10) -0.1150(2) 0.00889(16)
H42 H 0.1101(15) -0.043(5) 0.011(2)
H43 H 0.1165(15) -0.124(4) -0.028(2)
O11 O 0.03434(13) 0.9712(4) 0.1932(2)
C35 C -0.0122(3) 0.9842(12) 0.1340(5)
C36 C 0.0003(3) 0.9608(7) 0.0812(4)
O12 O 0.23239(18) 0.3726(4) 0.4169(2)
C37 C 0.2705(9) 0.4741(10) 0.4558(6)
C38 C 0.24452(15) 0.5879(4) 0.4383(2)
O9? O 0.0126(2) 0.8861(5) -0.2183(3)
O10? O 0.04491(15) 0.7844(4) 0.2813(3)
C34? C 0.0105(4) 0.7241(10) 0.2816(6)
C39? C 0.0092(5) 0.8917(15) 0.1305(7)
C40? C 0.2519(11) 0.4625(17) 0.4639(8)
O13? O 0.20114(18) 0.5727(5) 0.4047(3)
loop_
_geom_bond_atom_site_label_1
_geom_bond_atom_site_label_2
_geom_bond_site_symmetry_1
_geom_bond_site_symmetry_2
O1 C3 1_555 1_555
O2 C9 1_555 1_555
O3 C14 1_555 1_555
O4 C20 1_555 1_555
O5 C25 1_555 1_555
O6 C31 1_555 1_555
N1 C1 1_555 1_555
C1 H1 1_555 1_555
H2 C1 1_555 1_555
C2 C1 1_555 1_555
H3 C2 1_555 1_555
H4 C2 1_555 1_555
N2 C2 1_555 1_555
H5 N2 1_555 1_555
C3 N2 1_555 1_555
C4 C3 1_555 1_555
N3 C4 1_555 1_555
C5 C4 1_555 1_555
H6 C5 1_555 1_555
C6 C5 1_555 1_555
H7 C6 1_555 1_555
C7 C6 1_555 1_555
H8 C7 1_555 1_555
C8 N3 1_555 1_555
C9 C8 1_555 1_555
N4 C9 1_555 1_555
H9 N4 1_555 1_555
C10 N4 1_555 1_555
H10 C10 1_555 1_555
H11 C10 1_555 1_555
C11 C10 1_555 1_555
H12 C11 1_555 1_555
H13 C11 1_555 1_555
N5 C11 1_555 1_555
C12 N5 1_555 1_555
H14 C12 1_555 1_555
H15 C12 1_555 1_555
C13 C12 1_555 1_555
H16 C13 1_555 1_555
H17 C13 1_555 1_555
N6 C13 1_555 1_555
H18 N6 1_555 1_555
C14 N6 1_555 1_555
C15 C14 1_555 1_555
N7 C15 1_555 1_555
C16 C15 1_555 1_555
H19 C16 1_555 1_555
C17 C16 1_555 1_555
H20 C17 1_555 1_555
C18 C17 1_555 1_555
H21 C18 1_555 1_555
C19 N7 1_555 1_555
C20 C19 1_555 1_555
N8 C20 1_555 1_555
H22 N8 1_555 1_555
C21 N8 1_555 1_555
H23 C21 1_555 1_555
H24 C21 1_555 1_555
C22 N1 1_555 1_555
H25 C22 1_555 1_555
H26 C22 1_555 1_555
C23 N1 1_555 1_555
H27 C23 1_555 1_555
H28 C23 1_555 1_555
C24 C23 1_555 1_555
H29 C24 1_555 1_555
H30 C24 1_555 1_555
N9 C24 1_555 1_555
H31 N9 1_555 1_555
C25 N9 1_555 1_555
C26 C25 1_555 1_555
N10 C26 1_555 1_555
C27 C26 1_555 1_555
H32 C27 1_555 1_555
C28 C27 1_555 1_555
H33 C28 1_555 1_555
C29 C28 1_555 1_555
H34 C29 1_555 1_555
C30 N10 1_555 1_555
C31 C30 1_555 1_555
N11 C31 1_555 1_555
H35 N11 1_555 1_555
C32 N11 1_555 1_555
H36 C32 1_555 1_555
H37 C32 1_555 1_555
C33 N5 1_555 1_555
H38 C33 1_555 1_555
H39 C33 1_555 1_555
O7 H40 1_555 1_555
H41 O7 1_555 1_555
O8 H42 1_555 1_555
H43 O8 1_555 1_555
O11 C35 1_555 1_555
C35 C36 1_555 1_555
O12 C37 1_555 1_555
C37 C38 1_555 1_555
O1F C3F 1_555 1_555
O2F C9F 1_555 1_555
O3F C14F 1_555 1_555
O4F C20F 1_555 1_555
O5F C25F 1_555 1_555
O6F C31F 1_555 1_555
N1F C1F 1_555 1_555
C1F H1F 1_555 1_555
H2F C1F 1_555 1_555
C2F C1F 1_555 1_555
H3F C2F 1_555 1_555
H4F C2F 1_555 1_555
N2F C2F 1_555 1_555
H5F N2F 1_555 1_555
C3F N2F 1_555 1_555
C4F C3F 1_555 1_555
N3F C4F 1_555 1_555
C5F C4F 1_555 1_555
H6F C5F 1_555 1_555
C6F C5F 1_555 1_555
H7F C6F 1_555 1_555
C7F C6F 1_555 1_555
H8F C7F 1_555 1_555
C8F N3F 1_555 1_555
C9F C8F 1_555 1_555
N4F C9F 1_555 1_555
H9F N4F 1_555 1_555
C10F N4F 1_555 1_555
H10F C10F 1_555 1_555
H11F C10F 1_555 1_555
C11F C10F 1_555 1_555
H12F C11F 1_555 1_555
H13F C11F 1_555 1_555
N5F C11F 1_555 1_555
C12F N5F 1_555 1_555
H14F C12F 1_555 1_555
H15F C12F 1_555 1_555
C13F C12F 1_555 1_555
H16F C13F 1_555 1_555
H17F C13F 1_555 1_555
N6F C13F 1_555 1_555
H18F N6F 1_555 1_555
C14F N6F 1_555 1_555
C15F C14F 1_555 1_555
N7F C15F 1_555 1_555
C16F C15F 1_555 1_555
H19F C16F 1_555 1_555
C17F C16F 1_555 1_555
H20F C17F 1_555 1_555
C18F C17F 1_555 1_555
H21F C18F 1_555 1_555
C19F N7F 1_555 1_555
C20F C19F 1_555 1_555
N8F C20F 1_555 1_555
H22F N8F 1_555 1_555
C21F N8F 1_555 1_555
H23F C21F 1_555 1_555
H24F C21F 1_555 1_555
C22F N1F 1_555 1_555
H25F C22F 1_555 1_555
H26F C22F 1_555 1_555
C23F N1F 1_555 1_555
H27F C23F 1_555 1_555
H28F C23F 1_555 1_555
C24F C23F 1_555 1_555
H29F C24F 1_555 1_555
H30F C24F 1_555 1_555
N9F C24F 1_555 1_555
H31F N9F 1_555 1_555
C25F N9F 1_555 1_555
C26F C25F 1_555 1_555
N10F C26F 1_555 1_555
C27F C26F 1_555 1_555
H32F C27F 1_555 1_555
C28F C27F 1_555 1_555
H33F C28F 1_555 1_555
C29F C28F 1_555 1_555
H34F C29F 1_555 1_555
C30F N10F 1_555 1_555
C31F C30F 1_555 1_555
N11F C31F 1_555 1_555
H35F N11F 1_555 1_555
C32F C33 1_555 1_555
H36F C32F 1_555 1_555
H37F C32F 1_555 1_555
C33F C32 1_555 1_555
H38F C33F 1_555 1_555
H39F C33F 1_555 1_555
C7 C8 1_555 1_555
C18 C19 1_555 1_555
C21 C22 1_555 1_555
C29 C30 1_555 1_555
C7F C8F 1_555 1_555
N5F C33F 1_555 1_555
C18F C19F 1_555 1_555
C21F C22F 1_555 1_555
C29F C30F 1_555 1_555
N11F C32F 1_555 1_555

#END
