
#######################################################################
#
#                 Cambridge Crystallographic Data Centre
#                                CCDC 
#
#######################################################################
#
# If this CIF has been generated from an entry in the Cambridge 
# Structural Database, then it will include bibliographic, chemical, 
# crystal, experimental, refinement or atomic coordinate data resulting 
# from the CCDC's data processing and validation procedures.
#
#######################################################################

data_UWUFIC
_chemical_formula_moiety         'C62 H72 O8,4(C7 H8)'
_chemical_name_systematic        
'5,11,17,23-Tetra-t-butyl-26,28-bis(2-(4-formylphenoxy)ethoxy)-25,27-dihydroxycalix(4)arene toluene solvate'
_symmetry_cell_setting           monoclinic
_symmetry_space_group_name_H-M   'C 2/c'
_symmetry_Int_Tables_number      15
_space_group_name_Hall           '-C 2yn'
loop_
_symmetry_equiv_pos_site_id
_symmetry_equiv_pos_as_xyz
1 x,y,z
2 -x,y,1/2-z
3 1/2+x,1/2+y,z
4 1/2-x,1/2+y,1/2-z
5 -x,-y,-z
6 x,-y,1/2+z
7 1/2-x,1/2-y,-z
8 1/2+x,1/2-y,1/2+z
_cell_length_a                   23.428(9)
_cell_length_b                   11.105(4)
_cell_length_c                   29.632(12)
_cell_angle_alpha                90
_cell_angle_beta                 94.760(5)
_cell_angle_gamma                90
_cell_volume                     7682.71
_cell_formula_units_Z            4
loop_
_atom_site_label
_atom_site_type_symbol
_atom_site_fract_x
_atom_site_fract_y
_atom_site_fract_z
C1 C 0.1893(5) 0.7318(15) 0.1031(4)
H1 H 0.1662 0.6763 0.1165
C2 C 0.2752(3) 0.7773(11) 0.0609(2)
C3 C 0.2364(4) 0.7145(9) 0.0805(3)
H2 H 0.2436 0.6326 0.0779
C4 C 0.1854(6) 0.8548(13) 0.1007(4)
H3 H 0.1518 0.8852 0.1110
C5 C 0.2214(6) 0.9431(10) 0.0860(4)
H4 H 0.2106 1.0221 0.0914
C6 C 0.2716(6) 0.9293(17) 0.0641(3)
H5 H 0.2962 0.9874 0.0540
C7 C 0.3254(4) 0.789(2) 0.0370(3)
H6 H 0.3588 0.7815 0.0579
H7 H 0.3255 0.8663 0.0226
H8 H 0.3257 0.7268 0.0145
C8 C 0.36764(11) 0.7212(3) 0.20487(11)
C9 C 0.32966(12) 0.8170(3) 0.20657(11)
H9 H 0.3142 0.8504 0.1795
C10 C 0.31370(11) 0.8650(3) 0.24711(11)
C11 C 0.33659(12) 0.8111(3) 0.28660(11)
H10 H 0.3265 0.8411 0.3141
C12 C 0.37431(11) 0.7133(3) 0.28699(11)
C13 C 0.38975(11) 0.6694(3) 0.24550(11)
C14 C 0.26911(13) 0.9673(3) 0.24716(12)
C15 C 0.20945(15) 0.9089(4) 0.23915(19)
H11 H 0.2042 0.8522 0.2629
H12 H 0.2065 0.8680 0.2105
H13 H 0.1805 0.9701 0.2390
C16 C 0.2736(2) 1.0357(4) 0.29192(16)
H14 H 0.2620 0.9841 0.3155
H15 H 0.2490 1.1050 0.2894
H16 H 0.3125 1.0610 0.2991
C17 C 0.27634(18) 1.0571(4) 0.20907(16)
H17 H 0.2489 1.1209 0.2105
H18 H 0.2703 1.0168 0.1804
H19 H 0.3143 1.0900 0.2123
C18 C 0.39878(12) 0.6578(3) 0.33111(11)
H20 H 0.4049 0.5723 0.3267
H21 H 0.3715 0.6667 0.3537
C19 C 0.45516(13) 0.7166(3) 0.34817(10)
C20 C 0.45479(16) 0.8307(3) 0.36644(11)
H22 H 0.4196 0.8661 0.3706
C21 C 0.50441(18) 0.8957(3) 0.37900(11)
C22 C 0.55596(16) 0.8424(3) 0.37062(11)
H23 H 0.5897 0.8853 0.3772
C23 C 0.55903(13) 0.7253(3) 0.35250(10)
C24 C 0.50807(12) 0.6625(3) 0.34360(9)
C25 C 0.4985(2) 1.0212(4) 0.40167(14)
C26 C 0.4671(3) 1.1072(5) 0.36825(19)
H24 H 0.4595 1.1813 0.3833
H25 H 0.4315 1.0715 0.3566
H26 H 0.4903 1.1231 0.3437
C27 C 0.4580(3) 1.0083(5) 0.44119(18)
H27 H 0.4739 0.9505 0.4628
H28 H 0.4209 0.9816 0.4291
H29 H 0.4545 1.0848 0.4558
C28 C 0.5540(3) 1.0667(6) 0.4208(3)
H30 H 0.5783 1.0811 0.3968
H31 H 0.5716 1.0083 0.4413
H32 H 0.5485 1.1405 0.4367
C29 C 0.49944(14) 0.4533(3) 0.36072(11)
H33 H 0.4905 0.3778 0.3452
H34 H 0.4663 0.4767 0.3762
C30 C 0.54946(14) 0.4346(3) 0.39512(11)
H35 H 0.5633 0.5114 0.4072
H36 H 0.5382 0.3854 0.4199
C31 C 0.64536(14) 0.3599(3) 0.39569(11)
C32 C 0.65994(16) 0.3998(4) 0.43927(12)
H37 H 0.6330 0.4379 0.4556
C33 C 0.71524(16) 0.3822(4) 0.45815(13)
H38 H 0.7256 0.4111 0.4871
C34 C 0.75578(15) 0.3223(4) 0.43471(14)
C35 C 0.73958(17) 0.2801(4) 0.39132(14)
H39 H 0.7661 0.2392 0.3753
C36 C 0.68514(16) 0.2979(4) 0.37187(13)
H40 H 0.6747 0.2689 0.3429
C37 C 0.81378(18) 0.3043(5) 0.45525(17)
H41 H 0.8229 0.3386 0.4836
C38 C 0.38407(13) 0.6752(3) 0.15931(11)
H42 H 0.3862 0.5880 0.1601
H43 H 0.3546 0.6977 0.1359
O1 O 0.42618(9) 0.5731(2) 0.24704(7)
H44 H 0.4378 0.5627 0.2220
O2 O 0.51017(8) 0.54420(19) 0.32764(7)
O3 O 0.85114(13) 0.2484(4) 0.43864(13)
O4 O 0.59334(10) 0.3753(2) 0.37251(8)
C8A C 0.63236(11) 0.7212(3) 0.29513(11)
C9A C 0.67034(12) 0.8170(3) 0.29343(11)
H9A H 0.6858 0.8504 0.3205
C10A C 0.68630(11) 0.8650(3) 0.25289(11)
C11A C 0.66341(12) 0.8111(3) 0.21340(11)
H10A H 0.6735 0.8411 0.1859
C12A C 0.62569(11) 0.7133(3) 0.21301(11)
C13A C 0.61025(11) 0.6694(3) 0.25450(11)
C14A C 0.73089(13) 0.9673(3) 0.25284(12)
C15A C 0.79055(15) 0.9089(4) 0.26085(19)
H11A H 0.7958 0.8522 0.2371
H12A H 0.7935 0.8680 0.2895
H13A H 0.8195 0.9701 0.2610
C16A C 0.7264(2) 1.0357(4) 0.20808(16)
H14A H 0.7380 0.9841 0.1845
H15A H 0.7510 1.1050 0.2106
H16A H 0.6875 1.0610 0.2009
C17A C 0.72366(18) 1.0571(4) 0.29093(16)
H17A H 0.7511 1.1209 0.2895
H18A H 0.7297 1.0168 0.3196
H19A H 0.6857 1.0900 0.2877
C18A C 0.60122(12) 0.6578(3) 0.16889(11)
H20A H 0.5951 0.5723 0.1733
H21A H 0.6285 0.6667 0.1463
C19A C 0.54484(13) 0.7166(3) 0.15183(10)
C20A C 0.54521(16) 0.8307(3) 0.13356(11)
H22A H 0.5804 0.8661 0.1294
C21A C 0.49559(18) 0.8957(3) 0.12100(11)
C22A C 0.44404(16) 0.8424(3) 0.12938(11)
H23A H 0.4103 0.8853 0.1228
C23A C 0.44097(13) 0.7253(3) 0.14750(10)
C24A C 0.49193(12) 0.6625(3) 0.15640(9)
C25A C 0.5015(2) 1.0212(4) 0.09833(14)
C26A C 0.5329(3) 1.1072(5) 0.13175(19)
H24A H 0.5405 1.1813 0.1167
H25A H 0.5685 1.0715 0.1434
H26A H 0.5097 1.1231 0.1563
C27A C 0.5420(3) 1.0083(5) 0.05881(18)
H27A H 0.5261 0.9505 0.0372
H28A H 0.5791 0.9816 0.0709
H29A H 0.5455 1.0848 0.0442
C28A C 0.4460(3) 1.0667(6) 0.0792(3)
H30A H 0.4217 1.0811 0.1032
H31A H 0.4284 1.0083 0.0587
H32A H 0.4515 1.1405 0.0633
C29A C 0.50056(14) 0.4533(3) 0.13928(11)
H33A H 0.5095 0.3778 0.1548
H34A H 0.5337 0.4767 0.1238
C30A C 0.45054(14) 0.4346(3) 0.10488(11)
H35A H 0.4367 0.5114 0.0928
H36A H 0.4618 0.3854 0.0801
C31A C 0.35464(14) 0.3599(3) 0.10431(11)
C32A C 0.34006(16) 0.3998(4) 0.06073(12)
H37A H 0.3670 0.4379 0.0444
C33A C 0.28476(16) 0.3822(4) 0.04185(13)
H38A H 0.2744 0.4111 0.0129
C34A C 0.24422(15) 0.3223(4) 0.06529(14)
C35A C 0.26042(17) 0.2801(4) 0.10868(14)
H39A H 0.2339 0.2392 0.1247
C36A C 0.31486(16) 0.2979(4) 0.12813(13)
H40A H 0.3253 0.2689 0.1571
C37A C 0.18622(18) 0.3043(5) 0.04475(17)
H41A H 0.1771 0.3386 0.0164
C38A C 0.61593(13) 0.6752(3) 0.34069(11)
H42A H 0.6138 0.5880 0.3399
H43A H 0.6454 0.6977 0.3641
O1A O 0.57382(9) 0.5731(2) 0.25296(7)
H44A H 0.5622 0.5627 0.2780
O2A O 0.48983(8) 0.54420(19) 0.17236(7)
O3A O 0.14886(13) 0.2484(4) 0.06136(13)
O4A O 0.40666(10) 0.3753(2) 0.12749(8)
C39 C 0.5000 0.2936(6) 0.2500
H45 H 0.5000 0.3773 0.2500
C40 C 0.4505(2) 0.2330(5) 0.24453(18)
H46 H 0.4161 0.2749 0.2406
C41 C 0.45018(16) 0.1079(4) 0.24473(15)
H47 H 0.4154 0.0672 0.2412
C42 C 0.5000 0.0438(4) 0.2500
C43 C 0.5000 -0.0924(5) 0.2500
C40A C 0.5495(2) 0.2330(5) 0.25547(18)
H46A H 0.5839 0.2749 0.2594
C41A C 0.54982(16) 0.1079(4) 0.25527(15)
H47A H 0.5846 0.0672 0.2588
H48? H 0.4971 -0.1212 0.2194
H49? H 0.4680 -0.1212 0.2651
H50? H 0.5349 -0.1212 0.2656
C44? C -0.0495(4) 0.9848(9) -0.02190(19)
C45? C -0.0134(6) 0.8905(13) -0.0219(3)
C46? C 0.0164(10) 0.8103(12) -0.0176(4)
C47? C -0.0545(6) 1.1021(12) -0.0072(4)
loop_
_geom_bond_atom_site_label_1
_geom_bond_atom_site_label_2
_geom_bond_site_symmetry_1
_geom_bond_site_symmetry_2
C1 H1 1_555 1_555
C2 C3 1_555 1_555
C3 C1 1_555 1_555
H2 C3 1_555 1_555
C4 C1 1_555 1_555
H3 C4 1_555 1_555
C5 C4 1_555 1_555
H4 C5 1_555 1_555
C6 C2 1_555 1_555
H5 C6 1_555 1_555
C7 C2 1_555 1_555
H6 C7 1_555 1_555
H7 C7 1_555 1_555
H8 C7 1_555 1_555
C8 C9 1_555 1_555
C9 H9 1_555 1_555
C10 C9 1_555 1_555
C11 C10 1_555 1_555
H10 C11 1_555 1_555
C12 C11 1_555 1_555
C13 C8 1_555 1_555
C14 C10 1_555 1_555
C15 C14 1_555 1_555
H11 C15 1_555 1_555
H12 C15 1_555 1_555
H13 C15 1_555 1_555
C16 C14 1_555 1_555
H14 C16 1_555 1_555
H15 C16 1_555 1_555
H16 C16 1_555 1_555
C17 C14 1_555 1_555
H17 C17 1_555 1_555
H18 C17 1_555 1_555
H19 C17 1_555 1_555
C18 C12 1_555 1_555
H20 C18 1_555 1_555
H21 C18 1_555 1_555
C19 C18 1_555 1_555
C20 C19 1_555 1_555
H22 C20 1_555 1_555
C21 C20 1_555 1_555
C22 C21 1_555 1_555
H23 C22 1_555 1_555
C23 C22 1_555 1_555
C24 C19 1_555 1_555
C25 C21 1_555 1_555
C26 C25 1_555 1_555
H24 C26 1_555 1_555
H25 C26 1_555 1_555
H26 C26 1_555 1_555
C27 C25 1_555 1_555
H27 C27 1_555 1_555
H28 C27 1_555 1_555
H29 C27 1_555 1_555
C28 C25 1_555 1_555
H30 C28 1_555 1_555
H31 C28 1_555 1_555
H32 C28 1_555 1_555
C29 H33 1_555 1_555
H34 C29 1_555 1_555
C30 C29 1_555 1_555
H35 C30 1_555 1_555
H36 C30 1_555 1_555
C31 C32 1_555 1_555
C32 H37 1_555 1_555
C33 C32 1_555 1_555
H38 C33 1_555 1_555
C34 C33 1_555 1_555
C35 C34 1_555 1_555
H39 C35 1_555 1_555
C36 C31 1_555 1_555
H40 C36 1_555 1_555
C37 C34 1_555 1_555
H41 C37 1_555 1_555
C38 C8 1_555 1_555
H42 C38 1_555 1_555
H43 C38 1_555 1_555
O1 C13 1_555 1_555
H44 O1 1_555 1_555
O2 C24 1_555 1_555
O3 C37 1_555 1_555
O4 C30 1_555 1_555
C39 H45 1_555 1_555
C40 C39 1_555 1_555
H46 C40 1_555 1_555
C41 C40 1_555 1_555
H47 C41 1_555 1_555
C42 C41 1_555 1_555
C43 C42 1_555 1_555
C8A C9A 1_555 1_555
C9A H9A 1_555 1_555
C10A C9A 1_555 1_555
C11A C10A 1_555 1_555
H10A C11A 1_555 1_555
C12A C11A 1_555 1_555
C13A C8A 1_555 1_555
C14A C10A 1_555 1_555
C15A C14A 1_555 1_555
H11A C15A 1_555 1_555
H12A C15A 1_555 1_555
H13A C15A 1_555 1_555
C16A C14A 1_555 1_555
H14A C16A 1_555 1_555
H15A C16A 1_555 1_555
H16A C16A 1_555 1_555
C17A C14A 1_555 1_555
H17A C17A 1_555 1_555
H18A C17A 1_555 1_555
H19A C17A 1_555 1_555
C18A C12A 1_555 1_555
H20A C18A 1_555 1_555
H21A C18A 1_555 1_555
C19A C18A 1_555 1_555
C20A C19A 1_555 1_555
H22A C20A 1_555 1_555
C21A C20A 1_555 1_555
C22A C21A 1_555 1_555
H23A C22A 1_555 1_555
C23A C38 1_555 1_555
C24A C19A 1_555 1_555
C25A C21A 1_555 1_555
C26A C25A 1_555 1_555
H24A C26A 1_555 1_555
H25A C26A 1_555 1_555
H26A C26A 1_555 1_555
C27A C25A 1_555 1_555
H27A C27A 1_555 1_555
H28A C27A 1_555 1_555
H29A C27A 1_555 1_555
C28A C25A 1_555 1_555
H30A C28A 1_555 1_555
H31A C28A 1_555 1_555
H32A C28A 1_555 1_555
C29A H33A 1_555 1_555
H34A C29A 1_555 1_555
C30A C29A 1_555 1_555
H35A C30A 1_555 1_555
H36A C30A 1_555 1_555
C31A C32A 1_555 1_555
C32A H37A 1_555 1_555
C33A C32A 1_555 1_555
H38A C33A 1_555 1_555
C34A C33A 1_555 1_555
C35A C34A 1_555 1_555
H39A C35A 1_555 1_555
C36A C31A 1_555 1_555
H40A C36A 1_555 1_555
C37A C34A 1_555 1_555
H41A C37A 1_555 1_555
C38A C23 1_555 1_555
H42A C38A 1_555 1_555
H43A C38A 1_555 1_555
O1A C13A 1_555 1_555
H44A O1A 1_555 1_555
O2A C24A 1_555 1_555
O3A C37A 1_555 1_555
O4A C30A 1_555 1_555
C40A C39 1_555 1_555
H46A C40A 1_555 1_555
C41A C42 1_555 1_555
H47A C41A 1_555 1_555
C5 C6 1_555 1_555
C12 C13 1_555 1_555
C23 C24 1_555 1_555
C29 O2 1_555 1_555
C31 O4 1_555 1_555
C35 C36 1_555 1_555
C8A C38A 1_555 1_555
C12A C13A 1_555 1_555
C22A C23A 1_555 1_555
C23A C24A 1_555 1_555
C29A O2A 1_555 1_555
C31A O4A 1_555 1_555
C35A C36A 1_555 1_555
C40A C41A 1_555 1_555

#END
