
#######################################################################
#
#                 Cambridge Crystallographic Data Centre
#                                CCDC 
#
#######################################################################
#
# If this CIF has been generated from an entry in the Cambridge 
# Structural Database, then it will include bibliographic, chemical, 
# crystal, experimental, refinement or atomic coordinate data resulting 
# from the CCDC's data processing and validation procedures.
#
#######################################################################

data_UWUFAU
_chemical_formula_moiety         'C62 H72 O8,C2 H6 O1'
_chemical_name_systematic        
'5,11,17,23-Tetra-t-butyl-26,28-bis(2-(2-formylphenoxy)ethoxy)-25,27-dihydroxycalix(4)arene ethanol solvate'
_symmetry_cell_setting           monoclinic
_symmetry_space_group_name_H-M   'P 21/c'
_symmetry_Int_Tables_number      14
_space_group_name_Hall           '-P 2ybc'
loop_
_symmetry_equiv_pos_site_id
_symmetry_equiv_pos_as_xyz
1 x,y,z
2 -x,1/2+y,1/2-z
3 -x,-y,-z
4 x,1/2-y,1/2+z
_cell_length_a                   22.319(5)
_cell_length_b                   20.077(5)
_cell_length_c                   13.481(3)
_cell_angle_alpha                90
_cell_angle_beta                 99.319(3)
_cell_angle_gamma                90
_cell_volume                     5961.09
_cell_formula_units_Z            4
loop_
_atom_site_label
_atom_site_type_symbol
_atom_site_fract_x
_atom_site_fract_y
_atom_site_fract_z
C1 C 0.2119(2) 0.6064(2) 0.8148(4)
C2 C 0.1732(2) 0.5740(2) 0.8670(4)
C3 C 0.1760(2) 0.5805(2) 0.9702(4)
C4 C 0.2183(3) 0.6271(3) 1.0163(4)
H1 H 0.2213 0.6336 1.0853
C5 C 0.2558(3) 0.6641(3) 0.9655(5)
C6 C 0.2527(3) 0.6516(3) 0.8641(5)
H2 H 0.2787 0.6741 0.8283
C7 C 0.2971(3) 0.7200(3) 1.0154(6)
C8 C 0.3043(5) 0.7178(6) 1.1256(9)
H3 H 0.3306 0.7533 1.1534
H4 H 0.3215 0.6758 1.1492
H5 H 0.2653 0.7230 1.1462
C9 C 0.3562(4) 0.7202(6) 0.9818(9)
H6 H 0.3808 0.7554 1.0150
H7 H 0.3506 0.7271 0.9104
H8 H 0.3760 0.6782 0.9978
C10 C 0.2649(4) 0.7873(4) 0.9875(8)
H9 H 0.2900 0.8230 1.0177
H10 H 0.2268 0.7881 1.0117
H11 H 0.2580 0.7925 0.9158
C11 C 0.0725(2) 0.5649(3) 0.7802(4)
H12 H 0.0773 0.5930 0.7235
H13 H 0.0623 0.5932 0.8332
C12 C 0.0236(3) 0.5183(3) 0.7500(5)
H14 H 0.0195 0.4882 0.8048
H15 H -0.0145 0.5418 0.7310
C13 C -0.0061(4) 0.4406(3) 0.6138(6)
C14 C 0.0124(4) 0.4020(4) 0.5384(6)
C15 C -0.0318(6) 0.3604(4) 0.4835(6)
H16 H -0.0211 0.3335 0.4329
C16 C -0.0905(6) 0.3585(5) 0.5028(10)
H17 H -0.1194 0.3311 0.4656
C17 C -0.1050(4) 0.3970(5) 0.5767(8)
H18 H -0.1447 0.3960 0.5893
C18 C -0.0653(4) 0.4367(4) 0.6328(7)
H19 H -0.0772 0.4617 0.6844
C19 C 0.0748(5) 0.4036(4) 0.5167(7)
C20 C 0.1391(2) 0.5393(2) 1.0319(4)
H20 H 0.1036 0.5222 0.9884
H21 H 0.1253 0.5676 1.0819
C21 C 0.1748(2) 0.4813(2) 1.0845(4)
C22 C 0.1781(2) 0.4212(3) 1.0366(4)
C23 C 0.2122(2) 0.3685(2) 1.0830(4)
C24 C 0.2436(2) 0.3783(3) 1.1800(4)
H22 H 0.2671 0.3437 1.2116
C25 C 0.2408(3) 0.4374(3) 1.2305(4)
C26 C 0.2061(3) 0.4876(3) 1.1817(4)
H23 H 0.2034 0.5277 1.2153
C27 C 0.2742(4) 0.4466(4) 1.3381(5)
C28 C 0.3328(9) 0.4205(10) 1.3503(12)
H24 H 0.3525 0.4275 1.4183
H25 H 0.3554 0.4423 1.3050
H26 H 0.3308 0.3736 1.3361
C29 C 0.2473(11) 0.4040(13) 1.4036(8)
H27 H 0.2690 0.4082 1.4709
H28 H 0.2492 0.3587 1.3816
H29 H 0.2057 0.4166 1.4022
C30 C 0.2725(7) 0.5117(6) 1.3809(8)
H30 H 0.2945 0.5115 1.4482
H31 H 0.2311 0.5242 1.3819
H32 H 0.2908 0.5431 1.3411
C31 C 0.2161(2) 0.3021(2) 1.0310(4)
H33 H 0.2263 0.2677 1.0816
H34 H 0.1767 0.2914 0.9928
C32 C 0.2622(2) 0.3016(2) 0.9622(4)
C33 C 0.2477(2) 0.3143(2) 0.8592(4)
C34 C 0.2913(2) 0.3228(2) 0.7984(4)
C35 C 0.3519(2) 0.3108(3) 0.8413(5)
H35 H 0.3816 0.3143 0.8007
C36 C 0.3693(2) 0.2939(3) 0.9408(5)
C37 C 0.3235(3) 0.2911(2) 1.0010(4)
H36 H 0.3344 0.2819 1.0692
C38 C 0.4346(3) 0.2792(4) 0.9840(6)
C39 C 0.4433(5) 0.2639(12) 1.0893(12)
H37 H 0.4855 0.2555 1.1128
H38 H 0.4200 0.2251 1.1000
H39 H 0.4301 0.3009 1.1254
C40 C 0.4715(4) 0.3407(6) 0.9802(13)
H40 H 0.5131 0.3315 1.0074
H41 H 0.4565 0.3751 1.0191
H42 H 0.4687 0.3552 0.9118
C41 C 0.4578(5) 0.2256(8) 0.9334(13)
H43 H 0.4995 0.2179 0.9624
H44 H 0.4554 0.2364 0.8635
H45 H 0.4345 0.1862 0.9401
C42 C 0.1593(2) 0.2567(3) 0.7874(4)
H46 H 0.1618 0.2275 0.8453
H47 H 0.1818 0.2361 0.7396
C43 C 0.0948(3) 0.2645(3) 0.7406(4)
H48 H 0.0914 0.2954 0.6845
H49 H 0.0779 0.2220 0.7160
C44 C 0.0009(3) 0.2839(3) 0.8026(6)
C45 C -0.0256(3) 0.3066(3) 0.8813(6)
C46 C -0.0895(4) 0.2991(4) 0.8743(8)
H50 H -0.1090 0.3134 0.9264
C47 C -0.1224(4) 0.2702(5) 0.7887(11)
H51 H -0.1642 0.2654 0.7839
C48 C -0.0951(4) 0.2492(4) 0.7137(8)
H52 H -0.1180 0.2300 0.6571
C49 C -0.0326(3) 0.2560(3) 0.7194(6)
H53 H -0.0138 0.2416 0.6666
C50 C 0.0099(4) 0.3369(4) 0.9685(7)
C51 C 0.2766(2) 0.3491(2) 0.6914(4)
H54 H 0.2999 0.3245 0.6486
H55 H 0.2339 0.3423 0.6661
C52 C 0.2914(2) 0.4221(2) 0.6876(3)
C53 C 0.2479(2) 0.4704(3) 0.6956(4)
C54 C 0.2611(2) 0.5372(3) 0.6941(4)
C55 C 0.3206(3) 0.5553(3) 0.6864(4)
H56 H 0.3304 0.6004 0.6872
C56 C 0.3657(3) 0.5097(3) 0.6776(4)
C57 C 0.3493(3) 0.4429(3) 0.6774(4)
H57 H 0.3783 0.4109 0.6700
C58 C 0.4302(3) 0.5323(3) 0.6704(5)
C59 C 0.4533(5) 0.5801(8) 0.7452(11)
H58 H 0.4544 0.5609 0.8107
H59 H 0.4275 0.6186 0.7386
H60 H 0.4936 0.5928 0.7366
C60 C 0.4727(4) 0.4781(6) 0.6714(15)
H61 H 0.4760 0.4548 0.7342
H62 H 0.5118 0.4955 0.6636
H63 H 0.4587 0.4481 0.6172
C61 C 0.4300(4) 0.5662(7) 0.5691(9)
H64 H 0.4705 0.5800 0.5635
H65 H 0.4038 0.6045 0.5641
H66 H 0.4155 0.5355 0.5160
C62 C 0.2148(3) 0.5899(3) 0.7044(4)
H67 H 0.1752 0.5748 0.6718
H68 H 0.2248 0.6300 0.6704
O1 O 0.12909(16) 0.53144(16) 0.8153(2)
O2 O 0.03853(19) 0.4822(2) 0.6665(3)
O3 O 0.0897(4) 0.3679(5) 0.4538(7)
O4 O 0.14504(16) 0.41527(17) 0.9410(3)
H69 H 0.1601 0.3861 0.9103
O5 O 0.18622(14) 0.32033(15) 0.8185(2)
O6 O 0.06331(17) 0.2898(2) 0.8169(3)
O7 O -0.0097(3) 0.3546(3) 1.0430(5)
O8 O 0.19048(15) 0.44729(16) 0.7037(3)
H70 H 0.1739 0.4736 0.7370
C63 C 0.3332(6) 0.4824(6) -0.0379(9)
H71 H 0.3048 0.4469 -0.0561
H72 H 0.3675 0.4766 -0.0718
H73 H 0.3140 0.5243 -0.0570
C64 C 0.3551(8) 0.4815(12) 0.0785(15)
H74 H 0.3221 0.4693 0.1138
H75 H 0.3882 0.4501 0.0963
O9 O 0.3741(18) 0.5456(10) 0.101(2)
H76 H 0.3911 0.5474 0.1601
H77? H 0.0830 0.4490 0.4984
H78? H 0.1017 0.3942 0.5792
H79? H 0.0426 0.3060 0.9915
H80? H 0.0287 0.3760 0.9443
H81? H 0.1255 0.3747 0.4497
H82? H 0.0179 0.3705 1.0835
loop_
_geom_bond_atom_site_label_1
_geom_bond_atom_site_label_2
_geom_bond_site_symmetry_1
_geom_bond_site_symmetry_2
C1 C2 1_555 1_555
C2 C3 1_555 1_555
C3 C4 1_555 1_555
C4 H1 1_555 1_555
C5 C4 1_555 1_555
C6 C1 1_555 1_555
H2 C6 1_555 1_555
C7 C5 1_555 1_555
C8 C7 1_555 1_555
H3 C8 1_555 1_555
H4 C8 1_555 1_555
H5 C8 1_555 1_555
C9 C7 1_555 1_555
H6 C9 1_555 1_555
H7 C9 1_555 1_555
H8 C9 1_555 1_555
C10 C7 1_555 1_555
H9 C10 1_555 1_555
H10 C10 1_555 1_555
H11 C10 1_555 1_555
C11 H12 1_555 1_555
H13 C11 1_555 1_555
C12 C11 1_555 1_555
H14 C12 1_555 1_555
H15 C12 1_555 1_555
C13 C14 1_555 1_555
C14 C15 1_555 1_555
C15 H16 1_555 1_555
C16 C15 1_555 1_555
H17 C16 1_555 1_555
C17 C16 1_555 1_555
H18 C17 1_555 1_555
C18 C13 1_555 1_555
H19 C18 1_555 1_555
C19 C14 1_555 1_555
C20 C3 1_555 1_555
H20 C20 1_555 1_555
H21 C20 1_555 1_555
C21 C20 1_555 1_555
C22 C21 1_555 1_555
C23 C22 1_555 1_555
C24 C23 1_555 1_555
H22 C24 1_555 1_555
C25 C24 1_555 1_555
C26 C21 1_555 1_555
H23 C26 1_555 1_555
C27 C25 1_555 1_555
C28 C27 1_555 1_555
H24 C28 1_555 1_555
H25 C28 1_555 1_555
H26 C28 1_555 1_555
C29 C27 1_555 1_555
H27 C29 1_555 1_555
H28 C29 1_555 1_555
H29 C29 1_555 1_555
C30 C27 1_555 1_555
H30 C30 1_555 1_555
H31 C30 1_555 1_555
H32 C30 1_555 1_555
C31 C23 1_555 1_555
H33 C31 1_555 1_555
H34 C31 1_555 1_555
C32 C31 1_555 1_555
C33 C32 1_555 1_555
C34 C33 1_555 1_555
C35 C34 1_555 1_555
H35 C35 1_555 1_555
C36 C35 1_555 1_555
C37 C32 1_555 1_555
H36 C37 1_555 1_555
C38 C36 1_555 1_555
C39 C38 1_555 1_555
H37 C39 1_555 1_555
H38 C39 1_555 1_555
H39 C39 1_555 1_555
C40 C38 1_555 1_555
H40 C40 1_555 1_555
H41 C40 1_555 1_555
H42 C40 1_555 1_555
C41 C38 1_555 1_555
H43 C41 1_555 1_555
H44 C41 1_555 1_555
H45 C41 1_555 1_555
C42 H46 1_555 1_555
H47 C42 1_555 1_555
C43 C42 1_555 1_555
H48 C43 1_555 1_555
H49 C43 1_555 1_555
C44 C45 1_555 1_555
C45 C46 1_555 1_555
C46 H50 1_555 1_555
C47 C46 1_555 1_555
H51 C47 1_555 1_555
C48 C47 1_555 1_555
H52 C48 1_555 1_555
C49 C44 1_555 1_555
H53 C49 1_555 1_555
C50 C45 1_555 1_555
C51 C34 1_555 1_555
H54 C51 1_555 1_555
H55 C51 1_555 1_555
C52 C51 1_555 1_555
C53 C52 1_555 1_555
C54 C53 1_555 1_555
C55 C54 1_555 1_555
H56 C55 1_555 1_555
C56 C55 1_555 1_555
C57 C52 1_555 1_555
H57 C57 1_555 1_555
C58 C56 1_555 1_555
C59 C58 1_555 1_555
H58 C59 1_555 1_555
H59 C59 1_555 1_555
H60 C59 1_555 1_555
C60 C58 1_555 1_555
H61 C60 1_555 1_555
H62 C60 1_555 1_555
H63 C60 1_555 1_555
C61 C58 1_555 1_555
H64 C61 1_555 1_555
H65 C61 1_555 1_555
H66 C61 1_555 1_555
C62 C1 1_555 1_555
H67 C62 1_555 1_555
H68 C62 1_555 1_555
O1 C2 1_555 1_555
O2 C12 1_555 1_555
O3 C19 1_555 1_555
O4 C22 1_555 1_555
H69 O4 1_555 1_555
O5 C33 1_555 1_555
O6 C43 1_555 1_555
O7 C50 1_555 1_555
O8 C53 1_555 1_555
H70 O8 1_555 1_555
C63 H71 1_555 1_555
H72 C63 1_555 1_555
H73 C63 1_555 1_555
C64 C63 1_555 1_555
H74 C64 1_555 1_555
H75 C64 1_555 1_555
O9 C64 1_555 1_555
H76 O9 1_555 1_555
C5 C6 1_555 1_555
C11 O1 1_555 1_555
C13 O2 1_555 1_555
C17 C18 1_555 1_555
C25 C26 1_555 1_555
C36 C37 1_555 1_555
C42 O5 1_555 1_555
C44 O6 1_555 1_555
C48 C49 1_555 1_555
C54 C62 1_555 1_555
C56 C57 1_555 1_555

#END
