
#######################################################################
#
#                 Cambridge Crystallographic Data Centre
#                                CCDC 
#
#######################################################################
#
# If this CIF has been generated from an entry in the Cambridge 
# Structural Database, then it will include bibliographic, chemical, 
# crystal, experimental, refinement or atomic coordinate data resulting 
# from the CCDC's data processing and validation procedures.
#
#######################################################################

data_UWUGUQ
_chemical_formula_moiety         'C23 H26 B10'
_chemical_name_systematic        
1-(4-(anthracen-9-yl)phenyl)-2-methyl-1,2-dicarba-closo-dodecaborane(10)
_symmetry_cell_setting           monoclinic
_symmetry_space_group_name_H-M   'P 21/c'
_symmetry_Int_Tables_number      14
_space_group_name_Hall           '-P 2ybc'
loop_
_symmetry_equiv_pos_site_id
_symmetry_equiv_pos_as_xyz
1 x,y,z
2 -x,1/2+y,1/2-z
3 -x,-y,-z
4 x,1/2-y,1/2+z
_cell_length_a                   15.683(3)
_cell_length_b                   13.493(2)
_cell_length_c                   11.675(2)
_cell_angle_alpha                90
_cell_angle_beta                 108.429(3)
_cell_angle_gamma                90
_cell_volume                     2343.86
_cell_formula_units_Z            4
loop_
_atom_site_label
_atom_site_type_symbol
_atom_site_fract_x
_atom_site_fract_y
_atom_site_fract_z
B1 B 0.65940(17) 1.20458(18) 0.4030(2)
B2 B 0.50315(16) 1.0797(2) 0.3218(2)
B3 B 0.69559(16) 1.08088(18) 0.4102(2)
B4 B 0.69841(16) 1.15570(18) 0.2872(2)
B5 B 0.59764(17) 1.11010(19) 0.4467(2)
B6 B 0.53899(17) 1.20416(19) 0.3478(2)
B7 B 0.60349(17) 1.12579(19) 0.1607(2)
B8 B 0.60175(18) 1.23282(19) 0.2493(2)
B9 B 0.50543(18) 1.15482(19) 0.1985(2)
B10 B 0.54263(15) 1.03118(19) 0.2066(2)
C1 C 0.85951(14) 0.71746(17) 0.13685(19)
C2 C 0.71036(13) 0.95534(15) 0.22840(18)
C3 C 0.92561(14) 0.73706(18) 0.0826(2)
C4 C 0.80550(14) 0.80121(16) 0.1626(2)
C5 C 0.84880(16) 0.62218(18) 0.1789(2)
C6 C 0.97765(17) 0.56595(19) 0.1240(2)
H1 H 1.0183 0.5163 0.1220
C7 C 0.78841(15) 0.91829(17) 0.3095(2)
C8 C 0.91001(17) 0.54452(18) 0.1731(2)
C9 C 0.8994(2) 0.4493(2) 0.2182(2)
C10 C 0.93456(15) 0.83100(19) 0.0314(2)
C11 C 0.77785(17) 0.59781(19) 0.2276(2)
C12 C 0.83554(14) 0.84217(17) 0.2772(2)
H2 H 0.8879 0.8183 0.3330
C13 C 0.99926(17) 0.8464(2) -0.0216(2)
H3 H 1.0033 0.9079 -0.0556
C14 C 0.98715(16) 0.65940(19) 0.0775(2)
C15 C 0.7688(2) 0.5046(2) 0.2673(2)
H4 H 0.7216 0.4899 0.2966
C16 C 1.05547(15) 0.6805(2) 0.0232(2)
C17 C 0.72815(17) 0.8388(2) 0.0802(2)
C18 C 1.06097(15) 0.7703(2) -0.0261(2)
H5 H 1.1048 0.7820 -0.0627
C19 C 0.68129(16) 0.91534(19) 0.1131(2)
C20 C 0.8323(2) 0.4297(2) 0.2636(2)
H6 H 0.8272 0.3667 0.2930
C21 C 0.65884(13) 1.03728(15) 0.26336(18)
C22 C 0.59919(13) 1.01060(16) 0.35746(19)
C23 C 0.60273(15) 0.90550(16) 0.4027(2)
H7 H 0.6556 0.8968 0.4712
H8 H 0.6045 0.8605 0.3398
H9 H 0.5503 0.8923 0.4259
H10 H 0.927(2) 0.395(2) 0.218(3)
H11 H 1.0962(17) 0.6257(19) 0.020(2)
H12 H 0.8963(15) 0.8832(18) 0.035(2)
H13 H 0.7056(16) 0.8151(19) -0.003(2)
H14 H 0.624(2) 0.942(2) 0.053(3)
H15 H 0.803(2) 0.946(2) 0.389(3)
H16 H 0.5106(18) 0.967(2) 0.155(2)
H17 H 0.7426(15) 1.0441(16) 0.473(2)
H18 H 0.7495(17) 1.1662(18) 0.264(2)
H19 H 0.6044(16) 1.1220(18) 0.066(2)
H20 H 0.5906(19) 1.092(2) 0.538(3)
H21 H 0.7026(13) 1.2555(16) 0.4719(19)
H22 H 0.6069(17) 1.3103(19) 0.215(2)
H23 H 0.4495(15) 1.1804(18) 0.132(2)
H24 H 0.5014(15) 1.2615(18) 0.377(2)
H25 H 0.4506(16) 1.0415(19) 0.338(2)
H26 H 0.7257(16) 0.6579(18) 0.226(2)
loop_
_geom_bond_atom_site_label_1
_geom_bond_atom_site_label_2
_geom_bond_site_symmetry_1
_geom_bond_site_symmetry_2
B1 B3 1_555 1_555
B2 B5 1_555 1_555
B3 B4 1_555 1_555
B4 B1 1_555 1_555
B5 B1 1_555 1_555
B6 B1 1_555 1_555
B7 B4 1_555 1_555
B8 B1 1_555 1_555
B9 B2 1_555 1_555
B10 B2 1_555 1_555
C1 C3 1_555 1_555
C2 C7 1_555 1_555
C3 C10 1_555 1_555
C4 C1 1_555 1_555
C5 C1 1_555 1_555
C6 H1 1_555 1_555
C7 C12 1_555 1_555
C8 C5 1_555 1_555
C9 C8 1_555 1_555
C10 C13 1_555 1_555
C11 C5 1_555 1_555
C12 C4 1_555 1_555
H2 C12 1_555 1_555
C13 H3 1_555 1_555
C14 C3 1_555 1_555
C15 C11 1_555 1_555
H4 C15 1_555 1_555
C16 C14 1_555 1_555
C17 C4 1_555 1_555
C18 C13 1_555 1_555
H5 C18 1_555 1_555
C19 C2 1_555 1_555
C20 C9 1_555 1_555
H6 C20 1_555 1_555
C21 B3 1_555 1_555
C22 B2 1_555 1_555
C23 C22 1_555 1_555
H7 C23 1_555 1_555
H8 C23 1_555 1_555
H9 C23 1_555 1_555
H10 C9 1_555 1_555
H11 C16 1_555 1_555
H12 C10 1_555 1_555
H13 C17 1_555 1_555
H14 C19 1_555 1_555
H15 C7 1_555 1_555
H16 B10 1_555 1_555
H17 B3 1_555 1_555
H18 B4 1_555 1_555
H19 B7 1_555 1_555
H20 B5 1_555 1_555
H21 B1 1_555 1_555
H22 B8 1_555 1_555
H23 B9 1_555 1_555
H24 B6 1_555 1_555
H25 B2 1_555 1_555
H26 C11 1_555 1_555
B2 B6 1_555 1_555
B3 B5 1_555 1_555
B3 C22 1_555 1_555
B4 B8 1_555 1_555
B4 C21 1_555 1_555
B5 B6 1_555 1_555
B5 C22 1_555 1_555
B6 B8 1_555 1_555
B6 B9 1_555 1_555
B7 B8 1_555 1_555
B7 B9 1_555 1_555
B7 B10 1_555 1_555
B7 C21 1_555 1_555
B8 B9 1_555 1_555
B9 B10 1_555 1_555
B10 C21 1_555 1_555
B10 C22 1_555 1_555
C2 C21 1_555 1_555
C6 C8 1_555 1_555
C6 C14 1_555 1_555
C15 C20 1_555 1_555
C16 C18 1_555 1_555
C17 C19 1_555 1_555
C21 C22 1_555 1_555

#END
