
#######################################################################
#
#                 Cambridge Crystallographic Data Centre
#                                CCDC 
#
#######################################################################
#
# If this CIF has been generated from an entry in the Cambridge 
# Structural Database, then it will include bibliographic, chemical, 
# crystal, experimental, refinement or atomic coordinate data resulting 
# from the CCDC's data processing and validation procedures.
#
#######################################################################

data_UWUGIE
_chemical_formula_moiety         'C22 H24 B10'
_chemical_name_systematic        
1-(4-(anthracen-9-yl)phenyl)-1,2-dicarba-closo-dodecaborane(11)
_symmetry_cell_setting           triclinic
_symmetry_space_group_name_H-M   'P -1'
_symmetry_Int_Tables_number      2
_space_group_name_Hall           '-P 1'
loop_
_symmetry_equiv_pos_site_id
_symmetry_equiv_pos_as_xyz
1 x,y,z
2 -x,-y,-z
_cell_length_a                   9.520(2)
_cell_length_b                   13.825(3)
_cell_length_c                   17.646(4)
_cell_angle_alpha                88.713(4)
_cell_angle_beta                 88.594(4)
_cell_angle_gamma                79.932(4)
_cell_volume                     2285.62
_exptl_crystal_colour            colorless
_exptl_crystal_description       block
_cell_formula_units_Z            4
loop_
_atom_site_label
_atom_site_type_symbol
_atom_site_fract_x
_atom_site_fract_y
_atom_site_fract_z
B1 B -0.2075(5) 0.8008(3) 0.0555(3)
H1 H -0.3053 0.8518 0.0403
C1 C 0.0772(3) 0.7328(2) 0.03423(19)
H2 H 0.1762 0.7379 0.0020
B2 B -0.2088(5) 0.7132(3) 0.1280(3)
H3 H -0.3072 0.7057 0.1599
B3 B -0.0001(5) 0.6352(3) 0.0221(3)
H4 H 0.0426 0.5755 -0.0168
B4 B 0.0621(6) 0.7738(3) 0.1237(3)
H5 H 0.1440 0.8060 0.1522
B5 B -0.0410(5) 0.6983(4) 0.1720(3)
H6 H -0.0278 0.6814 0.2329
B6 B -0.0800(5) 0.7508(4) -0.0119(3)
H7 H -0.0921 0.7681 -0.0728
B7 B -0.0792(4) 0.6111(3) 0.1082(3)
H8 H -0.0905 0.5365 0.1271
B8 B -0.1197(6) 0.8143(4) 0.1375(4)
H9 H -0.1595 0.8746 0.1763
B9 B -0.0404(5) 0.8368(3) 0.0502(3)
H10 H -0.0258 0.9103 0.0300
B10 B -0.1816(5) 0.6750(4) 0.0355(3)
H11 H -0.2616 0.6423 0.0057
C2 C 0.2174(4) 0.5848(2) 0.1212(2)
C3 C 0.3447(4) 0.6016(3) 0.0927(2)
H12 H 0.3480 0.6569 0.0622
C4 C 0.4699(4) 0.5374(3) 0.1085(2)
H13 H 0.5558 0.5504 0.0880
C5 C 0.4703(4) 0.4560(3) 0.1531(2)
C6 C 0.3420(4) 0.4393(3) 0.1814(2)
H14 H 0.3387 0.3834 0.2113
C7 C 0.2156(4) 0.5037(3) 0.1665(2)
H15 H 0.1298 0.4915 0.1874
C8 C 0.6059(4) 0.3875(3) 0.1713(2)
C9 C 0.6990(4) 0.4143(3) 0.2240(2)
C10 C 0.6720(5) 0.5048(3) 0.2621(3)
H16 H 0.5893 0.5494 0.2519
C11 C 0.7647(6) 0.5274(4) 0.3130(3)
H17 H 0.7441 0.5872 0.3377
C12 C 0.8902(6) 0.4628(5) 0.3293(3)
H18 H 0.9529 0.4801 0.3641
C13 C 0.9209(5) 0.3768(4) 0.2954(3)
H19 H 1.0054 0.3346 0.3066
C14 C 0.8542(4) 0.2581(4) 0.2082(3)
H20 H 0.9366 0.2147 0.2211
C15 C 0.7647(4) 0.2291(3) 0.1558(3)
C16 C 0.7954(5) 0.1370(4) 0.1200(3)
H21 H 0.8766 0.0930 0.1339
C17 C 0.7116(6) 0.1110(3) 0.0670(3)
H22 H 0.7346 0.0500 0.0445
C18 C 0.5874(5) 0.1777(3) 0.0456(3)
H23 H 0.5305 0.1608 0.0077
C19 C 0.5505(4) 0.2657(3) 0.0796(2)
H24 H 0.4666 0.3070 0.0660
C20 C 0.6369(4) 0.2959(3) 0.1355(2)
C21 C 0.8267(4) 0.3476(3) 0.2418(3)
C22 C 0.0781(3) 0.6526(2) 0.10374(19)
B11 B 0.5948(5) 0.2969(3) 0.4098(3)
H25 H 0.6851 0.3299 0.3878
B12 B 0.4388(4) 0.1424(3) 0.4030(3)
H26 H 0.4244 0.0739 0.3761
B13 B 0.3207(5) 0.2540(4) 0.3894(3)
H27 H 0.2268 0.2591 0.3535
B14 B 0.4958(5) 0.2402(3) 0.3503(3)
H28 H 0.5181 0.2362 0.2889
B15 B 0.5056(5) 0.1415(3) 0.4933(3)
H29 H 0.5364 0.0729 0.5262
B16 B 0.4207(6) 0.3500(4) 0.3941(3)
H30 H 0.3933 0.4190 0.3611
B17 B 0.3279(5) 0.1939(4) 0.4776(3)
H31 H 0.2389 0.1598 0.4999
B18 B 0.4295(5) 0.2526(3) 0.5365(3)
H32 H 0.4093 0.2566 0.5981
B19 B 0.3169(5) 0.3227(4) 0.4718(3)
H33 H 0.2205 0.3736 0.4900
B20 B 0.4856(5) 0.3493(3) 0.4854(3)
H34 H 0.5022 0.4165 0.5134
C23 C 0.5941(3) 0.2380(2) 0.49423(18)
H35 H 0.6886 0.2319 0.5298
C24 C 0.5998(3) 0.1746(2) 0.41667(19)
C25 C 0.7366(4) 0.1087(2) 0.3934(2)
C26 C 0.8640(4) 0.1155(3) 0.4231(2)
H36 H 0.8685 0.1627 0.4593
C27 C 0.9883(4) 0.0536(3) 0.4006(2)
H37 H 1.0746 0.0604 0.4217
C28 C 0.9859(4) -0.0164(3) 0.3487(2)
C29 C 0.8576(4) -0.0226(3) 0.3193(3)
H38 H 0.8528 -0.0697 0.2830
C30 C 0.7336(4) 0.0390(3) 0.3414(3)
H39 H 0.6473 0.0323 0.3203
C31 C 1.1189(4) -0.0844(3) 0.3226(2)
C32 C 1.2190(4) -0.0507(3) 0.2748(2)
C33 C 1.2037(5) 0.0481(3) 0.2481(3)
H40 H 1.1240 0.0931 0.2632
C34 C 1.3027(6) 0.0783(4) 0.2012(3)
H41 H 1.2896 0.1434 0.1843
C35 C 1.4253(6) 0.0124(4) 0.1775(3)
H42 H 1.4930 0.0340 0.1455
C36 C 1.4438(5) -0.0821(4) 0.2017(3)
H43 H 1.5253 -0.1251 0.1862
C37 C 1.3427(4) -0.1179(3) 0.2501(2)
C38 C 1.3597(4) -0.2140(3) 0.2731(2)
H44 H 1.4410 -0.2569 0.2573
C39 C 1.2605(4) -0.2499(3) 0.3192(2)
C40 C 1.2763(5) -0.3489(3) 0.3439(3)
H45 H 1.3548 -0.3931 0.3263
C41 C 1.1847(5) -0.3817(3) 0.3907(3)
H46 H 1.1993 -0.4475 0.4057
C42 C 1.0637(5) -0.3162(3) 0.4182(3)
H47 H 0.9998 -0.3388 0.4520
C43 C 1.0416(4) -0.2219(3) 0.3956(2)
H48 H 0.9599 -0.1805 0.4128
C44 C 1.1376(4) -0.1830(3) 0.3466(2)
loop_
_geom_bond_atom_site_label_1
_geom_bond_atom_site_label_2
_geom_bond_site_symmetry_1
_geom_bond_site_symmetry_2
B1 H1 1_555 1_555
C1 H2 1_555 1_555
B2 B1 1_555 1_555
H3 B2 1_555 1_555
B3 C1 1_555 1_555
H4 B3 1_555 1_555
B4 C1 1_555 1_555
H5 B4 1_555 1_555
B5 B2 1_555 1_555
H6 B5 1_555 1_555
B6 B1 1_555 1_555
H7 B6 1_555 1_555
B7 B2 1_555 1_555
H8 B7 1_555 1_555
B8 B1 1_555 1_555
H9 B8 1_555 1_555
B9 B1 1_555 1_555
H10 B9 1_555 1_555
B10 B1 1_555 1_555
H11 B10 1_555 1_555
C2 C3 1_555 1_555
C3 H12 1_555 1_555
C4 C3 1_555 1_555
H13 C4 1_555 1_555
C5 C4 1_555 1_555
C6 C5 1_555 1_555
H14 C6 1_555 1_555
C7 C2 1_555 1_555
H15 C7 1_555 1_555
C8 C5 1_555 1_555
C9 C8 1_555 1_555
C10 C9 1_555 1_555
H16 C10 1_555 1_555
C11 C10 1_555 1_555
H17 C11 1_555 1_555
C12 C11 1_555 1_555
H18 C12 1_555 1_555
C13 C12 1_555 1_555
H19 C13 1_555 1_555
C14 H20 1_555 1_555
C15 C14 1_555 1_555
C16 C15 1_555 1_555
H21 C16 1_555 1_555
C17 C16 1_555 1_555
H22 C17 1_555 1_555
C18 C17 1_555 1_555
H23 C18 1_555 1_555
C19 C18 1_555 1_555
H24 C19 1_555 1_555
C20 C8 1_555 1_555
C21 C9 1_555 1_555
C22 C1 1_555 1_555
B11 H25 1_555 1_555
B12 H26 1_555 1_555
B13 B12 1_555 1_555
H27 B13 1_555 1_555
B14 B11 1_555 1_555
H28 B14 1_555 1_555
B15 B12 1_555 1_555
H29 B15 1_555 1_555
B16 B11 1_555 1_555
H30 B16 1_555 1_555
B17 B12 1_555 1_555
H31 B17 1_555 1_555
B18 B15 1_555 1_555
H32 B18 1_555 1_555
B19 B13 1_555 1_555
H33 B19 1_555 1_555
B20 B11 1_555 1_555
H34 B20 1_555 1_555
C23 B11 1_555 1_555
H35 C23 1_555 1_555
C24 B11 1_555 1_555
C25 C24 1_555 1_555
C26 C25 1_555 1_555
H36 C26 1_555 1_555
C27 C26 1_555 1_555
H37 C27 1_555 1_555
C28 C27 1_555 1_555
C29 C28 1_555 1_555
H38 C29 1_555 1_555
C30 C25 1_555 1_555
H39 C30 1_555 1_555
C31 C28 1_555 1_555
C32 C31 1_555 1_555
C33 C32 1_555 1_555
H40 C33 1_555 1_555
C34 C33 1_555 1_555
H41 C34 1_555 1_555
C35 C34 1_555 1_555
H42 C35 1_555 1_555
C36 C35 1_555 1_555
H43 C36 1_555 1_555
C37 C32 1_555 1_555
C38 C37 1_555 1_555
H44 C38 1_555 1_555
C39 C38 1_555 1_555
C40 C39 1_555 1_555
H45 C40 1_555 1_555
C41 C40 1_555 1_555
H46 C41 1_555 1_555
C42 C41 1_555 1_555
H47 C42 1_555 1_555
C43 C42 1_555 1_555
H48 C43 1_555 1_555
C44 C31 1_555 1_555
C1 B6 1_555 1_555
C1 B9 1_555 1_555
B2 B8 1_555 1_555
B2 B10 1_555 1_555
B3 B6 1_555 1_555
B3 B7 1_555 1_555
B3 B10 1_555 1_555
B3 C22 1_555 1_555
B4 B5 1_555 1_555
B4 B8 1_555 1_555
B4 B9 1_555 1_555
B4 C22 1_555 1_555
B5 B7 1_555 1_555
B5 B8 1_555 1_555
B5 C22 1_555 1_555
B6 B9 1_555 1_555
B6 B10 1_555 1_555
B7 B10 1_555 1_555
B7 C22 1_555 1_555
B8 B9 1_555 1_555
C2 C22 1_555 1_555
C6 C7 1_555 1_555
C13 C21 1_555 1_555
C14 C21 1_555 1_555
C15 C20 1_555 1_555
C19 C20 1_555 1_555
B12 B14 1_555 1_555
B12 C24 1_555 1_555
B13 B14 1_555 1_555
B13 B16 1_555 1_555
B13 B17 1_555 1_555
B14 B16 1_555 1_555
B14 C24 1_555 1_555
B15 B17 1_555 1_555
B15 C23 1_555 1_555
B15 C24 1_555 1_555
B16 B19 1_555 1_555
B16 B20 1_555 1_555
B17 B18 1_555 1_555
B17 B19 1_555 1_555
B18 B19 1_555 1_555
B18 B20 1_555 1_555
B18 C23 1_555 1_555
B19 B20 1_555 1_555
B20 C23 1_555 1_555
C23 C24 1_555 1_555
C29 C30 1_555 1_555
C36 C37 1_555 1_555
C39 C44 1_555 1_555
C43 C44 1_555 1_555

#END
