
#######################################################################
#
#                 Cambridge Crystallographic Data Centre
#                                CCDC 
#
#######################################################################
#
# If this CIF has been generated from an entry in the Cambridge 
# Structural Database, then it will include bibliographic, chemical, 
# crystal, experimental, refinement or atomic coordinate data resulting 
# from the CCDC's data processing and validation procedures.
#
#######################################################################

data_UWUNIL
_chemical_formula_moiety         'C36 H36 Cl2 N4 O4'
_chemical_name_systematic        
'5,6-bis(5-chloro-2-hydroxyphenyl)-3,8-diphenyltetradecahydro-1,4,7,10-benzotetraazacyclododecine-2,9-dione unknown solvate'
_symmetry_cell_setting           monoclinic
_symmetry_space_group_name_H-M   'C 2'
_symmetry_Int_Tables_number      5
_space_group_name_Hall           'C 2y'
loop_
_symmetry_equiv_pos_site_id
_symmetry_equiv_pos_as_xyz
1 x,y,z
2 -x,y,-z
3 1/2+x,1/2+y,z
4 1/2-x,1/2+y,-z
_cell_length_a                   37.839(4)
_cell_length_b                   25.190(2)
_cell_length_c                   13.6300(14)
_cell_angle_alpha                90
_cell_angle_beta                 101.307(2)
_cell_angle_gamma                90
_cell_volume                     12739.5
_cell_formula_units_Z            12
loop_
_atom_site_label
_atom_site_type_symbol
_atom_site_fract_x
_atom_site_fract_y
_atom_site_fract_z
C1 C 0.24972(12) 1.0975(2) 0.7909(4)
H1 H 0.2229 1.1018 0.7740
C2 C 0.26449(14) 1.1445(2) 0.8487(4)
H2 H 0.2911 1.1418 0.8660
H3 H 0.2553 1.1460 0.9118
C3 C 0.25362(17) 1.1960(2) 0.7873(4)
H4 H 0.2271 1.2001 0.7745
H5 H 0.2645 1.2271 0.8262
C4 C 0.26642(16) 1.1936(2) 0.6880(4)
H6 H 0.2931 1.1937 0.7008
H7 H 0.2578 1.2254 0.6477
C5 C 0.25225(15) 1.1434(2) 0.6290(4)
H8 H 0.2622 1.1415 0.5671
H9 H 0.2257 1.1452 0.6095
C6 C 0.26305(13) 1.09308(19) 0.6922(3)
H10 H 0.2900 1.0918 0.7089
C7 C 0.27120(10) 1.00272(19) 0.6370(3)
C8 C 0.25574(11) 0.95740(19) 0.5691(3)
H11 H 0.2297 0.9641 0.5411
C9 C 0.27641(12) 0.9535(2) 0.4854(3)
C10 C 0.26024(14) 0.9669(3) 0.3885(3)
H12 H 0.2357 0.9777 0.3753
C11 C 0.27862(15) 0.9649(3) 0.3101(4)
H13 H 0.2670 0.9752 0.2447
C12 C 0.31410(16) 0.9478(4) 0.3281(4)
H14 H 0.3265 0.9435 0.2743
C13 C 0.33086(16) 0.9373(3) 0.4228(4)
H15 H 0.3557 0.9281 0.4361
C14 C 0.31275(15) 0.9398(3) 0.4999(4)
H16 H 0.3253 0.9319 0.5657
C15 C 0.23388(11) 0.9046(2) 0.6996(3)
H17 H 0.2195 0.9382 0.6933
C16 C 0.20790(12) 0.8592(2) 0.6798(3)
C17 C 0.21396(14) 0.8148(2) 0.6259(3)
H18 H 0.2361 0.8117 0.6033
C18 C 0.18874(15) 0.7746(2) 0.6039(4)
C19 C 0.15633(15) 0.7784(2) 0.6341(4)
H19 H 0.1385 0.7518 0.6155
C20 C 0.14979(14) 0.8213(2) 0.6920(4)
H20 H 0.1278 0.8233 0.7154
C21 C 0.17528(12) 0.8611(2) 0.7155(3)
C22 C 0.25789(11) 0.9034(2) 0.8075(3)
H21 H 0.2760 0.9326 0.8111
C23 C 0.27815(11) 0.85317(18) 0.8274(3)
C24 C 0.26453(12) 0.8083(2) 0.8715(3)
H22 H 0.2411 0.8097 0.8867
C25 C 0.28464(14) 0.7638(2) 0.8921(4)
C26 C 0.31948(14) 0.7606(2) 0.8757(3)
H23 H 0.3339 0.7302 0.8960
C27 C 0.33273(12) 0.80238(19) 0.8297(3)
H24 H 0.3563 0.8001 0.8155
C28 C 0.31278(10) 0.84736(19) 0.8035(3)
C29 C 0.24438(11) 0.9669(2) 0.9323(3)
H25 H 0.2709 0.9685 0.9597
C30 C 0.22319(13) 0.9785(2) 1.0158(3)
C31 C 0.19638(15) 0.9466(3) 1.0324(4)
H26 H 0.1906 0.9152 0.9938
C32 C 0.17647(16) 0.9602(4) 1.1090(4)
H27 H 0.1585 0.9369 1.1243
C33 C 0.18396(17) 1.0075(3) 1.1596(4)
H28 H 0.1705 1.0178 1.2083
C34 C 0.21011(19) 1.0388(3) 1.1400(4)
H29 H 0.2149 1.0713 1.1757
C35 C 0.23045(17) 1.0258(2) 1.0699(4)
H30 H 0.2492 1.0487 1.0584
C36 C 0.23342(11) 1.01085(19) 0.8545(3)
Cl1 Cl 0.19717(5) 0.72128(6) 0.53110(12)
Cl2 Cl 0.26683(4) 0.71037(7) 0.94714(14)
N1 N 0.25090(9) 1.04582(17) 0.6358(2)
H31 H 0.2290 1.0455 0.5990
N2 N 0.25985(10) 0.90842(17) 0.6288(2)
H32 H 0.2759 0.8838 0.6238
N3 N 0.23492(9) 0.91556(15) 0.8844(2)
H33 H 0.2181 0.8944 0.8983
N4 N 0.25753(10) 1.04870(17) 0.8513(3)
H34 H 0.2794 1.0445 0.8870
O1 O 0.30162(7) 0.99906(15) 0.6906(2)
O2 O 0.16683(8) 0.90273(14) 0.7714(2)
H35 H 0.1858 0.9155 0.8056
O3 O 0.32705(7) 0.88844(13) 0.7555(2)
H36 H 0.3104 0.9088 0.7284
O4 O 0.20240(7) 1.00951(13) 0.8038(2)
C37 C 0.36864(14) 1.0690(2) -0.1913(4)
H37 H 0.3430 1.0572 -0.2092
C38 C 0.37084(17) 1.1266(3) -0.2285(6)
H38 H 0.3541 1.1492 -0.1994
H39 H 0.3956 1.1403 -0.2052
C39 C 0.36123(19) 1.1299(3) -0.3417(6)
H40 H 0.3640 1.1671 -0.3625
H41 H 0.3356 1.1198 -0.3643
C40 C 0.38493(19) 1.0937(4) -0.3932(7)
H42 H 0.3771 1.0964 -0.4668
H43 H 0.4103 1.1055 -0.3755
C41 C 0.38221(16) 1.0372(3) -0.3616(5)
H44 H 0.3991 1.0150 -0.3908
H45 H 0.3575 1.0239 -0.3869
C42 C 0.39137(12) 1.0325(2) -0.2449(4)
H46 H 0.4171 1.0436 -0.2229
C43 C 0.41701(12) 0.9489(2) -0.1697(3)
C44 C 0.41024(11) 0.89462(19) -0.1283(3)
H47 H 0.3838 0.8868 -0.1457
C45 C 0.43034(13) 0.8523(2) -0.1751(3)
C46 C 0.41713(16) 0.8362(2) -0.2720(4)
H48 H 0.3956 0.8514 -0.3086
C47 C 0.4349(2) 0.7985(3) -0.3158(5)
H49 H 0.4253 0.7875 -0.3823
C48 C 0.4660(2) 0.7766(3) -0.2658(5)
H50 H 0.4779 0.7502 -0.2969
C49 C 0.48000(19) 0.7927(3) -0.1714(6)
H51 H 0.5022 0.7783 -0.1370
C50 C 0.46228(16) 0.8293(2) -0.1257(4)
H52 H 0.4719 0.8393 -0.0586
C51 C 0.39266(10) 0.91976(17) 0.0279(3)
H53 H 0.3752 0.9386 -0.0254
C52 C 0.37203(12) 0.87604(19) 0.0690(3)
C53 C 0.33513(12) 0.8850(2) 0.0731(3)
H54 H 0.3240 0.9174 0.0487
C54 C 0.31523(14) 0.8468(2) 0.1126(3)
C55 C 0.33013(16) 0.7998(2) 0.1479(4)
H55 H 0.3162 0.7743 0.1751
C56 C 0.36468(17) 0.7896(2) 0.1441(4)
H56 H 0.3748 0.7567 0.1696
C57 C 0.38679(13) 0.8263(2) 0.1031(4)
C58 C 0.40929(11) 0.96205(19) 0.1072(3)
H57 H 0.4246 0.9861 0.0747
C59 C 0.43364(12) 0.9371(2) 0.1972(3)
C60 C 0.42025(13) 0.9207(3) 0.2804(4)
H58 H 0.3954 0.9237 0.2822
C61 C 0.44437(15) 0.9002(3) 0.3596(4)
C62 C 0.47947(15) 0.8944(4) 0.3624(4)
H59 H 0.4947 0.8801 0.4202
C63 C 0.49374(13) 0.9093(3) 0.2802(3)
H60 H 0.5187 0.9049 0.2800
C64 C 0.47045(12) 0.9309(2) 0.1979(3)
C65 C 0.37682(12) 1.0467(2) 0.0902(4)
H61 H 0.4015 1.0621 0.0965
C66 C 0.3515(2) 1.0826(3) 0.1444(7)
C67 C 0.3383(3) 1.0661(3) 0.2276(7)
H62 H 0.3446 1.0321 0.2560
C68 C 0.3158(3) 1.0993(4) 0.2692(7)
H63 H 0.3068 1.0880 0.3261
C69 C 0.3066(3) 1.1490(4) 0.2277(7)
H64 H 0.2913 1.1717 0.2561
C70 C 0.3199(3) 1.1655(3) 0.1444(7)
H65 H 0.3136 1.1994 0.1160
C71 C 0.3423(3) 1.1322(4) 0.1028(6)
H66 H 0.3513 1.1435 0.0459
C72 C 0.36075(12) 1.0424(2) -0.0226(4)
Cl3 Cl 0.26954(3) 0.86055(7) 0.11646(9)
Cl4 Cl 0.42728(5) 0.88157(14) 0.46718(14)
N5 N 0.38881(10) 0.97864(18) -0.2131(3)
H67 H 0.3673 0.9641 -0.2226
N6 N 0.42118(9) 0.89729(17) -0.0196(3)
H68 H 0.4423 0.8867 0.0137
N7 N 0.38100(10) 0.99463(16) 0.1360(3)
H69 H 0.3676 0.9835 0.1779
N8 N 0.37985(11) 1.06633(18) -0.0840(4)
H70 H 0.4005 1.0813 -0.0569
O5 O 0.44767(8) 0.96748(15) -0.1556(3)
O6 O 0.42006(10) 0.81367(17) 0.1012(3)
H71 H 0.4289 0.8363 0.0677
O7 O 0.48269(8) 0.94646(15) 0.1147(2)
H72 H 0.5053 0.9441 0.1256
O8 O 0.33179(8) 1.01970(13) -0.0514(2)
C79 C 0.11656(12) 1.0563(2) 0.7811(3)
H78 H 0.0919 1.0722 0.7686
C80 C 0.13058(13) 1.0545(2) 0.8952(3)
H79 H 0.1135 1.0340 0.9270
H80 H 0.1542 1.0362 0.9096
C81 C 0.13475(15) 1.1099(3) 0.9397(4)
H81 H 0.1451 1.1074 1.0121
H82 H 0.1107 1.1267 0.9321
C82 C 0.15947(14) 1.1452(2) 0.8884(4)
H83 H 0.1605 1.1816 0.9164
H84 H 0.1842 1.1306 0.9016
C83 C 0.14513(14) 1.1472(2) 0.7774(3)
H85 H 0.1618 1.1683 0.7452
H86 H 0.1215 1.1654 0.7646
C84 C 0.14076(13) 1.09193(19) 0.7300(3)
H87 H 0.1652 1.0752 0.7413
C85 C 0.14418(11) 1.07188(18) 0.5551(3)
C86 C 0.12792(11) 1.08333(19) 0.4454(3)
H88 H 0.1046 1.1026 0.4415
C87 C 0.15427(13) 1.1192(2) 0.4055(3)
C88 C 0.14755(17) 1.1733(3) 0.3984(4)
H89 H 0.1265 1.1880 0.4158
C89 C 0.1729(3) 1.2055(4) 0.3647(6)
H90 H 0.1678 1.2422 0.3545
C90 C 0.2036(2) 1.1870(4) 0.3464(5)
H91 H 0.2206 1.2105 0.3268
C91 C 0.21069(17) 1.1352(4) 0.3556(4)
H92 H 0.2327 1.1221 0.3415
C92 C 0.18637(14) 1.0997(3) 0.3857(4)
H93 H 0.1918 1.0629 0.3924
C93 C 0.09065(10) 1.0025(2) 0.4086(3)
H94 H 0.0766 1.0256 0.4467
C94 C 0.06579(11) 0.9861(2) 0.3135(3)
C95 C 0.07914(12) 0.9697(2) 0.2308(3)
H95 H 0.1044 0.9701 0.2334
C96 C 0.05640(15) 0.9529(3) 0.1448(4)
C97 C 0.01940(16) 0.9510(4) 0.1420(4)
H96 H 0.0036 0.9374 0.0846
C98 C 0.00566(15) 0.9690(3) 0.2227(4)
H97 H -0.0197 0.9695 0.2188
C99 C 0.02818(12) 0.9861(2) 0.3087(3)
C100 C 0.10468(11) 0.9543(2) 0.4765(3)
H98 H 0.1244 0.9675 0.5309
C101 C 0.12001(13) 0.9082(2) 0.4253(3)
C102 C 0.10246(18) 0.8612(2) 0.4099(6)
H99 H 0.0799 0.8565 0.4298
C103 C 0.1172(2) 0.8207(3) 0.3659(8)
C104 C 0.1504(3) 0.8232(4) 0.3412(7)
H100 H 0.1606 0.7931 0.3149
C105 C 0.16822(17) 0.8693(3) 0.3553(5)
H101 H 0.1911 0.8721 0.3371
C106 C 0.15392(14) 0.9137(3) 0.3961(4)
C107 C 0.08543(11) 0.9309(2) 0.6335(3)
H102 H 0.1107 0.9173 0.6512
C108 C 0.06126(12) 0.8939(2) 0.6777(3)
C109 C 0.03049(15) 0.8722(3) 0.6212(4)
H103 H 0.0241 0.8798 0.5517
C110 C 0.00873(18) 0.8390(3) 0.6664(5)
H104 H -0.0118 0.8230 0.6260
C111 C 0.01607(18) 0.8289(3) 0.7666(5)
H105 H -0.0001 0.8084 0.7965
C112 C 0.04817(18) 0.8495(3) 0.8252(4)
H106 H 0.0547 0.8411 0.8944
C113 C 0.07034(15) 0.8825(2) 0.7795(3)
H107 H 0.0917 0.8971 0.8186
C114 C 0.08438(11) 0.98601(19) 0.6780(3)
Cl5 Cl 0.09209(10) 0.76010(11) 0.3525(4)
Cl6 Cl 0.07346(5) 0.93380(9) 0.04118(10)
N9 N 0.12767(9) 1.09484(16) 0.6221(3)
H108 H 0.1077 1.1128 0.5998
N10 N 0.12145(9) 1.03510(17) 0.3861(2)
H109 H 0.1343 1.0259 0.3415
N11 N 0.07538(9) 0.93514(17) 0.5243(3)
H110 H 0.0538 0.9270 0.4904
N12 N 0.11387(9) 1.00420(17) 0.7384(3)
H111 H 0.1327 0.9831 0.7529
O9 O 0.17114(7) 1.04307(15) 0.5765(2)
O10 O 0.17321(9) 0.9591(2) 0.4075(3)
H112 H 0.1596 0.9847 0.4138
O11 O 0.01571(7) 1.00118(16) 0.3903(2)
H113 H -0.0002 1.0245 0.3743
O12 O 0.05623(8) 1.01352(14) 0.6574(3)
C73? C 0.3555(3) 1.0852(4) 0.1264(8)
C74? C 0.3252(3) 1.0679(3) 0.1607(8)
H73? H 0.3184 1.0316 0.1546
C75? C 0.3049(2) 1.1038(4) 0.2039(8)
H74? H 0.2842 1.0920 0.2274
C76? C 0.3148(3) 1.1570(4) 0.2129(8)
H75? H 0.3009 1.1815 0.2424
C77? C 0.3451(3) 1.1743(3) 0.1786(9)
H76? H 0.3519 1.2106 0.1847
C78? C 0.3654(3) 1.1384(4) 0.1353(9)
H77? H 0.3861 1.1502 0.1119
loop_
_geom_bond_atom_site_label_1
_geom_bond_atom_site_label_2
_geom_bond_site_symmetry_1
_geom_bond_site_symmetry_2
C1 H1 1_555 1_555
C2 C1 1_555 1_555
H2 C2 1_555 1_555
H3 C2 1_555 1_555
C3 C2 1_555 1_555
H4 C3 1_555 1_555
H5 C3 1_555 1_555
C4 C3 1_555 1_555
H6 C4 1_555 1_555
H7 C4 1_555 1_555
C5 C4 1_555 1_555
H8 C5 1_555 1_555
H9 C5 1_555 1_555
C6 C1 1_555 1_555
H10 C6 1_555 1_555
C7 C8 1_555 1_555
C8 H11 1_555 1_555
C9 C8 1_555 1_555
C10 C9 1_555 1_555
H12 C10 1_555 1_555
C11 C10 1_555 1_555
H13 C11 1_555 1_555
C12 C11 1_555 1_555
H14 C12 1_555 1_555
C13 C12 1_555 1_555
H15 C13 1_555 1_555
C14 C9 1_555 1_555
H16 C14 1_555 1_555
C15 H17 1_555 1_555
C16 C15 1_555 1_555
C17 C16 1_555 1_555
H18 C17 1_555 1_555
C18 C17 1_555 1_555
C19 C18 1_555 1_555
H19 C19 1_555 1_555
C20 C19 1_555 1_555
H20 C20 1_555 1_555
C21 C16 1_555 1_555
C22 C15 1_555 1_555
H21 C22 1_555 1_555
C23 C22 1_555 1_555
C24 C23 1_555 1_555
H22 C24 1_555 1_555
C25 C24 1_555 1_555
C26 C25 1_555 1_555
H23 C26 1_555 1_555
C27 C26 1_555 1_555
H24 C27 1_555 1_555
C28 C23 1_555 1_555
C29 H25 1_555 1_555
C30 C29 1_555 1_555
C31 C30 1_555 1_555
H26 C31 1_555 1_555
C32 C31 1_555 1_555
H27 C32 1_555 1_555
C33 C32 1_555 1_555
H28 C33 1_555 1_555
C34 C33 1_555 1_555
H29 C34 1_555 1_555
C35 C30 1_555 1_555
H30 C35 1_555 1_555
C36 C29 1_555 1_555
Cl1 C18 1_555 1_555
Cl2 C25 1_555 1_555
N1 C6 1_555 1_555
H31 N1 1_555 1_555
N2 C8 1_555 1_555
H32 N2 1_555 1_555
N3 C22 1_555 1_555
H33 N3 1_555 1_555
N4 C1 1_555 1_555
H34 N4 1_555 1_555
O1 C7 1_555 1_555
O2 C21 1_555 1_555
H35 O2 1_555 1_555
O3 C28 1_555 1_555
H36 O3 1_555 1_555
O4 C36 1_555 1_555
C37 H37 1_555 1_555
C38 C37 1_555 1_555
H38 C38 1_555 1_555
H39 C38 1_555 1_555
C39 C38 1_555 1_555
H40 C39 1_555 1_555
H41 C39 1_555 1_555
C40 C39 1_555 1_555
H42 C40 1_555 1_555
H43 C40 1_555 1_555
C41 C40 1_555 1_555
H44 C41 1_555 1_555
H45 C41 1_555 1_555
C42 C37 1_555 1_555
H46 C42 1_555 1_555
C43 C44 1_555 1_555
C44 H47 1_555 1_555
C45 C44 1_555 1_555
C46 C45 1_555 1_555
H48 C46 1_555 1_555
C47 C46 1_555 1_555
H49 C47 1_555 1_555
C48 C47 1_555 1_555
H50 C48 1_555 1_555
C49 C48 1_555 1_555
H51 C49 1_555 1_555
C50 C45 1_555 1_555
H52 C50 1_555 1_555
C51 H53 1_555 1_555
C52 C51 1_555 1_555
C53 C52 1_555 1_555
H54 C53 1_555 1_555
C54 C53 1_555 1_555
C55 C54 1_555 1_555
H55 C55 1_555 1_555
C56 C55 1_555 1_555
H56 C56 1_555 1_555
C57 C52 1_555 1_555
C58 C51 1_555 1_555
H57 C58 1_555 1_555
C59 C58 1_555 1_555
C60 C59 1_555 1_555
H58 C60 1_555 1_555
C61 C60 1_555 1_555
C62 C61 1_555 1_555
H59 C62 1_555 1_555
C63 C62 1_555 1_555
H60 C63 1_555 1_555
C64 C59 1_555 1_555
C65 H61 1_555 1_555
C66 C65 1_555 1_555
C67 C66 1_555 1_555
H62 C67 1_555 1_555
C68 C67 1_555 1_555
H63 C68 1_555 1_555
C69 C68 1_555 1_555
H64 C69 1_555 1_555
C70 C69 1_555 1_555
H65 C70 1_555 1_555
C71 C66 1_555 1_555
H66 C71 1_555 1_555
C72 C65 1_555 1_555
Cl3 C54 1_555 1_555
Cl4 C61 1_555 1_555
N5 C42 1_555 1_555
H67 N5 1_555 1_555
N6 C44 1_555 1_555
H68 N6 1_555 1_555
N7 C58 1_555 1_555
H69 N7 1_555 1_555
N8 C37 1_555 1_555
H70 N8 1_555 1_555
O5 C43 1_555 1_555
O6 C57 1_555 1_555
H71 O6 1_555 1_555
O7 C64 1_555 1_555
H72 O7 1_555 1_555
O8 C72 1_555 1_555
C79 H78 1_555 1_555
C80 C79 1_555 1_555
H79 C80 1_555 1_555
H80 C80 1_555 1_555
C81 C80 1_555 1_555
H81 C81 1_555 1_555
H82 C81 1_555 1_555
C82 C81 1_555 1_555
H83 C82 1_555 1_555
H84 C82 1_555 1_555
C83 C82 1_555 1_555
H85 C83 1_555 1_555
H86 C83 1_555 1_555
C84 C79 1_555 1_555
H87 C84 1_555 1_555
C85 C86 1_555 1_555
C86 H88 1_555 1_555
C87 C86 1_555 1_555
C88 C87 1_555 1_555
H89 C88 1_555 1_555
C89 C88 1_555 1_555
H90 C89 1_555 1_555
C90 C89 1_555 1_555
H91 C90 1_555 1_555
C91 C90 1_555 1_555
H92 C91 1_555 1_555
C92 C87 1_555 1_555
H93 C92 1_555 1_555
C93 H94 1_555 1_555
C94 C93 1_555 1_555
C95 C94 1_555 1_555
H95 C95 1_555 1_555
C96 C95 1_555 1_555
C97 C96 1_555 1_555
H96 C97 1_555 1_555
C98 C97 1_555 1_555
H97 C98 1_555 1_555
C99 C94 1_555 1_555
C100 C93 1_555 1_555
H98 C100 1_555 1_555
C101 C100 1_555 1_555
C102 C101 1_555 1_555
H99 C102 1_555 1_555
C103 C102 1_555 1_555
C104 C103 1_555 1_555
H100 C104 1_555 1_555
C105 C104 1_555 1_555
H101 C105 1_555 1_555
C106 C101 1_555 1_555
C107 H102 1_555 1_555
C108 C107 1_555 1_555
C109 C108 1_555 1_555
H103 C109 1_555 1_555
C110 C109 1_555 1_555
H104 C110 1_555 1_555
C111 C110 1_555 1_555
H105 C111 1_555 1_555
C112 C111 1_555 1_555
H106 C112 1_555 1_555
C113 C108 1_555 1_555
H107 C113 1_555 1_555
C114 C107 1_555 1_555
Cl5 C103 1_555 1_555
Cl6 C96 1_555 1_555
N9 C84 1_555 1_555
H108 N9 1_555 1_555
N10 C86 1_555 1_555
H109 N10 1_555 1_555
N11 C100 1_555 1_555
H110 N11 1_555 1_555
N12 C79 1_555 1_555
H111 N12 1_555 1_555
O9 C85 1_555 1_555
O10 C106 1_555 1_555
H112 O10 1_555 1_555
O11 C99 1_555 1_555
H113 O11 1_555 1_555
O12 C114 1_555 1_555
C5 C6 1_555 1_555
C7 N1 1_555 1_555
C13 C14 1_555 1_555
C15 N2 1_555 1_555
C20 C21 1_555 1_555
C27 C28 1_555 1_555
C29 N3 1_555 1_555
C34 C35 1_555 1_555
C36 N4 1_555 1_555
C41 C42 1_555 1_555
C43 N5 1_555 1_555
C49 C50 1_555 1_555
C51 N6 1_555 1_555
C56 C57 1_555 1_555
C63 C64 1_555 1_555
C65 N7 1_555 1_555
C70 C71 1_555 1_555
C72 N8 1_555 1_555
C83 C84 1_555 1_555
C85 N9 1_555 1_555
C91 C92 1_555 1_555
C93 N10 1_555 1_555
C98 C99 1_555 1_555
C105 C106 1_555 1_555
C107 N11 1_555 1_555
C112 C113 1_555 1_555
C114 N12 1_555 1_555

#END
