
#######################################################################
#
#                 Cambridge Crystallographic Data Centre
#                                CCDC 
#
#######################################################################
#
# If this CIF has been generated from an entry in the Cambridge 
# Structural Database, then it will include bibliographic, chemical, 
# crystal, experimental, refinement or atomic coordinate data resulting 
# from the CCDC's data processing and validation procedures.
#
#######################################################################

data_UWUVOZ
_chemical_formula_moiety         'C29 H38 N2 O2'
_chemical_name_systematic        
N-cyclohexyl-N-(2-(3,4-dihydroisoquinolin-2(1H)-yl)-4-methylpentanoyl)-4-methylbenzamide
_symmetry_cell_setting           monoclinic
_symmetry_space_group_name_H-M   'P 21/n'
_symmetry_Int_Tables_number      14
_space_group_name_Hall           '-P 2yn'
loop_
_symmetry_equiv_pos_site_id
_symmetry_equiv_pos_as_xyz
1 x,y,z
2 1/2-x,1/2+y,1/2-z
3 -x,-y,-z
4 1/2+x,1/2-y,1/2+z
_cell_length_a                   13.910(3)
_cell_length_b                   10.910(2)
_cell_length_c                   17.180(3)
_cell_angle_alpha                90
_cell_angle_beta                 101.50(3)
_cell_angle_gamma                90
_cell_volume                     2554.86
_exptl_crystal_colour            colorless
_exptl_crystal_description       block
_cell_formula_units_Z            4
_exptl_crystal_recrystallization_method 'ethyl acetate/petroleum ether'
loop_
_atom_site_label
_atom_site_type_symbol
_atom_site_fract_x
_atom_site_fract_y
_atom_site_fract_z
O1 O 0.71696(10) 0.52477(12) 0.11978(8)
N1 N 0.67463(11) 0.74455(12) -0.00024(9)
N2 N 0.80542(10) 0.54586(12) 0.02133(8)
C1 C 0.57906(13) 0.68557(17) -0.02931(12)
H1 H 0.5889 0.6049 -0.0502
H2 H 0.5410 0.7341 -0.0718
C2 C 0.82779(13) 0.69184(16) 0.13538(10)
C3 C 0.77443(13) 0.58685(16) 0.09194(11)
C4 C 0.66152(14) 0.87219(16) 0.02293(12)
H3 H 0.6363 0.9201 -0.0243
H4 H 0.7248 0.9059 0.0476
C5 C 0.91510(14) 0.73568(16) 0.11983(11)
H5 H 0.9418 0.7003 0.0797
C6 C 0.84242(13) 0.41748(15) 0.02199(11)
H6 H 0.8812 0.4119 -0.0196
C7 C 0.52430(14) 0.67423(18) 0.03796(13)
H7 H 0.4566 0.6527 0.0162
H8 H 0.5530 0.6081 0.0727
C8 C 0.59259(13) 0.88339(17) 0.07946(11)
C9 C 0.59510(15) 0.98807(19) 0.12633(12)
H9 H 0.6384 1.0510 0.1210
C10 C 0.75937(14) 0.32512(16) 0.00130(12)
H10 H 0.7181 0.3467 -0.0493
H11 H 0.7193 0.3274 0.0415
C11 C 0.52625(13) 0.79018(18) 0.08620(11)
C12 C 0.92415(14) 0.88735(17) 0.22343(11)
C13 C 0.78937(15) 0.74569(17) 0.19641(11)
H12 H 0.7312 0.7162 0.2082
C14 C 0.46544(14) 0.8039(2) 0.14161(12)
H13 H 0.4214 0.7418 0.1471
C15 C 0.91075(14) 0.38470(17) 0.10039(12)
H14 H 0.9649 0.4423 0.1110
H15 H 0.8753 0.3899 0.1435
C16 C 0.96316(14) 0.83204(17) 0.16358(12)
H16 H 1.0223 0.8602 0.1529
C17 C 0.83725(15) 0.84213(19) 0.23911(12)
H17 H 0.8106 0.8775 0.2793
C18 C 0.97472(17) 0.9951(2) 0.26931(14)
H18 H 0.9379 1.0209 0.3081
H19 H 0.9789 1.0614 0.2334
H20 H 1.0396 0.9715 0.2956
C19 C 0.53477(15) 1.0000(2) 0.18027(13)
H21 H 0.5378 1.0702 0.2114
C20 C 0.79995(18) 0.19594(17) -0.00359(14)
H22 H 0.7461 0.1379 -0.0151
H23 H 0.8359 0.1920 -0.0464
C21 C 0.46944(15) 0.9071(2) 0.18807(13)
H24 H 0.4285 0.9146 0.2245
C22 C 0.86758(18) 0.16153(19) 0.07428(15)
H25 H 0.8953 0.0810 0.0694
H26 H 0.8302 0.1581 0.1163
C23 C 0.95000(17) 0.25516(18) 0.09567(15)
H27 H 0.9907 0.2335 0.1465
H28 H 0.9908 0.2527 0.0560
O2 O 0.82166(12) 0.56724(12) -0.10622(8)
C24 C 0.79282(14) 0.60921(15) -0.04907(10)
C25 C 0.74290(13) 0.73530(15) -0.05464(11)
H29 H 0.7950 0.7951 -0.0362
C26 C 0.70063(14) 0.76709(17) -0.14149(11)
H30 H 0.6739 0.6928 -0.1685
H31 H 0.6465 0.8237 -0.1429
C27 C 0.77203(14) 0.82348(16) -0.18799(11)
H32 H 0.8306 0.7715 -0.1808
C28 C 0.80316(18) 0.95087(18) -0.15779(14)
H33 H 0.8320 0.9469 -0.1022
H34 H 0.7469 1.0037 -0.1656
H35 H 0.8503 0.9826 -0.1864
C29 C 0.72663(19) 0.8275(2) -0.27583(12)
H36 H 0.7726 0.8624 -0.3044
H37 H 0.6683 0.8768 -0.2840
H38 H 0.7102 0.7459 -0.2947
loop_
_geom_bond_atom_site_label_1
_geom_bond_atom_site_label_2
_geom_bond_site_symmetry_1
_geom_bond_site_symmetry_2
O1 C3 1_555 1_555
N1 C1 1_555 1_555
N2 C3 1_555 1_555
C1 H1 1_555 1_555
H2 C1 1_555 1_555
C2 C3 1_555 1_555
C4 N1 1_555 1_555
H3 C4 1_555 1_555
H4 C4 1_555 1_555
C5 C2 1_555 1_555
H5 C5 1_555 1_555
C6 N2 1_555 1_555
H6 C6 1_555 1_555
C7 C1 1_555 1_555
H7 C7 1_555 1_555
H8 C7 1_555 1_555
C8 C4 1_555 1_555
C9 C8 1_555 1_555
H9 C9 1_555 1_555
C10 C6 1_555 1_555
H10 C10 1_555 1_555
H11 C10 1_555 1_555
C11 C7 1_555 1_555
C12 C16 1_555 1_555
C13 C2 1_555 1_555
H12 C13 1_555 1_555
C14 C11 1_555 1_555
H13 C14 1_555 1_555
C15 C6 1_555 1_555
H14 C15 1_555 1_555
H15 C15 1_555 1_555
C16 C5 1_555 1_555
H16 C16 1_555 1_555
C17 C12 1_555 1_555
H17 C17 1_555 1_555
C18 C12 1_555 1_555
H18 C18 1_555 1_555
H19 C18 1_555 1_555
H20 C18 1_555 1_555
C19 C9 1_555 1_555
H21 C19 1_555 1_555
C20 C10 1_555 1_555
H22 C20 1_555 1_555
H23 C20 1_555 1_555
C21 C14 1_555 1_555
H24 C21 1_555 1_555
C22 C20 1_555 1_555
H25 C22 1_555 1_555
H26 C22 1_555 1_555
C23 C15 1_555 1_555
H27 C23 1_555 1_555
H28 C23 1_555 1_555
O2 C24 1_555 1_555
C24 N2 1_555 1_555
C25 N1 1_555 1_555
H29 C25 1_555 1_555
C26 C25 1_555 1_555
H30 C26 1_555 1_555
H31 C26 1_555 1_555
C27 C26 1_555 1_555
H32 C27 1_555 1_555
C28 C27 1_555 1_555
H33 C28 1_555 1_555
H34 C28 1_555 1_555
H35 C28 1_555 1_555
C29 C27 1_555 1_555
H36 C29 1_555 1_555
H37 C29 1_555 1_555
H38 C29 1_555 1_555
C8 C11 1_555 1_555
C13 C17 1_555 1_555
C19 C21 1_555 1_555
C22 C23 1_555 1_555
C24 C25 1_555 1_555

#END
