
#######################################################################
#
#                 Cambridge Crystallographic Data Centre
#                                CCDC 
#
#######################################################################
#
# If this CIF has been generated from an entry in the Cambridge 
# Structural Database, then it will include bibliographic, chemical, 
# crystal, experimental, refinement or atomic coordinate data resulting 
# from the CCDC's data processing and validation procedures.
#
#######################################################################

data_UWUZAP
_chemical_formula_moiety         'C16 H15 N1 O4'
_chemical_name_systematic        
2-benzylidene-3-(nitromethyl)-3,5,6,7-tetrahydro-1-benzofuran-4(2H)-one
_symmetry_cell_setting           monoclinic
_symmetry_space_group_name_H-M   'P 21'
_symmetry_Int_Tables_number      4
_space_group_name_Hall           'P 2yb'
loop_
_symmetry_equiv_pos_site_id
_symmetry_equiv_pos_as_xyz
1 x,y,z
2 -x,1/2+y,-z
_cell_length_a                   5.4965(14)
_cell_length_b                   7.980(2)
_cell_length_c                   16.029(4)
_cell_angle_alpha                90
_cell_angle_beta                 98.711(4)
_cell_angle_gamma                90
_cell_volume                     694.955
_exptl_crystal_colour            colorless
_exptl_crystal_description       block
_cell_formula_units_Z            2
loop_
_atom_site_label
_atom_site_type_symbol
_atom_site_fract_x
_atom_site_fract_y
_atom_site_fract_z
O1 O 0.60104(2) 0.5920(4) 0.21643(8)
O2 O 0.9306(3) 0.6272(4) 0.49786(8)
N1 N 0.9934(3) 1.0446(4) 0.30598(10)
O3 O 1.2132(3) 1.0132(4) 0.30702(9)
C1 C 0.7514(3) 0.6124(4) 0.35580(11)
C2 C 0.8994(4) 0.7378(4) 0.31376(11)
C3 C 0.9538(4) 0.7766(4) 0.00478(12)
C4 C 0.8123(4) 0.7127(4) 0.06301(11)
C5 C 0.8369(4) 0.9149(4) 0.34006(12)
C6 C 0.8988(4) 0.7479(4) 0.15275(12)
O4 O 0.8964(3) 1.1759(4) 0.27999(10)
C7 C 0.3979(4) 0.4147(4) 0.31025(12)
C8 C 0.5859(4) 0.5402(4) 0.29686(11)
C9 C 0.8087(4) 0.6986(4) 0.22113(11)
C10 C 0.7769(4) 0.5633(4) 0.44362(11)
C11 C 0.5987(4) 0.6242(4) 0.03287(12)
C12 C 0.6709(4) 0.6632(4) -0.11042(13)
C13 C 0.6082(4) 0.4249(4) 0.46229(13)
C14 C 0.8839(4) 0.7508(4) -0.08144(13)
C15 C 0.5282(4) 0.6011(4) -0.05301(12)
C16 C 0.3674(4) 0.4180(4) 0.40345(14)
H1 H 0.500(3) 0.581(2) 0.0718(10)
H2 H 0.615(4) 0.645(3) -0.1726(12)
H3 H 0.371(4) 0.548(3) -0.0705(14)
H4 H 0.277(4) 0.314(3) 0.4171(13)
H5 H 0.671(4) 0.949(2) 0.3198(11)
H6 H 1.078(4) 0.722(3) 0.3278(12)
H7 H 0.600(4) 0.435(3) 0.5229(14)
H8 H 0.243(4) 0.439(2) 0.2737(12)
H9 H 1.051(4) 0.815(2) 0.1646(11)
H10 H 0.454(4) 0.291(3) 0.2968(14)
H11 H 0.874(4) 0.925(3) 0.4044(13)
H12 H 0.262(5) 0.538(4) 0.4204(16)
H13 H 0.989(4) 0.794(3) -0.1190(13)
H14 H 1.094(4) 0.843(3) 0.0243(11)
H15 H 0.697(5) 0.317(10) 0.4529(15)
loop_
_geom_bond_atom_site_label_1
_geom_bond_atom_site_label_2
_geom_bond_site_symmetry_1
_geom_bond_site_symmetry_2
O1 C8 1_555 1_555
O2 C10 1_555 1_555
N1 O3 1_555 1_555
C1 C2 1_555 1_555
C2 C5 1_555 1_555
C3 C4 1_555 1_555
C4 C6 1_555 1_555
C5 N1 1_555 1_555
C6 C9 1_555 1_555
O4 N1 1_555 1_555
C7 C8 1_555 1_555
C8 C1 1_555 1_555
C9 O1 1_555 1_555
C10 C1 1_555 1_555
C11 C4 1_555 1_555
C12 C14 1_555 1_555
C13 C10 1_555 1_555
C14 C3 1_555 1_555
C15 C11 1_555 1_555
C16 C7 1_555 1_555
H1 C11 1_555 1_555
H2 C12 1_555 1_555
H3 C15 1_555 1_555
H4 C16 1_555 1_555
H5 C5 1_555 1_555
H6 C2 1_555 1_555
H7 C13 1_555 1_555
H8 C7 1_555 1_555
H9 C6 1_555 1_555
H10 C7 1_555 1_555
H11 C5 1_555 1_555
H12 C16 1_555 1_555
H13 C14 1_555 1_555
H14 C3 1_555 1_555
H15 C13 1_555 1_555
C2 C9 1_555 1_555
C12 C15 1_555 1_555
C13 C16 1_555 1_555

#END
