
#######################################################################
#
#                 Cambridge Crystallographic Data Centre
#                                CCDC 
#
#######################################################################
#
# If this CIF has been generated from an entry in the Cambridge 
# Structural Database, then it will include bibliographic, chemical, 
# crystal, experimental, refinement or atomic coordinate data resulting 
# from the CCDC's data processing and validation procedures.
#
#######################################################################

data_UXATIY02
_chemical_formula_moiety         'C25 H21 Br1 O4'
_chemical_name_systematic        
'dimethyl 5-(7-bromo-9,9-dimethyl-9H-fluoren-2-yl)isophthalate'
_symmetry_cell_setting           monoclinic
_symmetry_space_group_name_H-M   'P 21/c'
_symmetry_Int_Tables_number      14
_space_group_name_Hall           '-P 2ybc'
loop_
_symmetry_equiv_pos_site_id
_symmetry_equiv_pos_as_xyz
1 x,y,z
2 -x,1/2+y,1/2-z
3 -x,-y,-z
4 x,1/2-y,1/2+z
_cell_length_a                   11.6643(8)
_cell_length_b                   9.9627(7)
_cell_length_c                   18.9700(13)
_cell_angle_alpha                90
_cell_angle_beta                 93.1360(10)
_cell_angle_gamma                90
_cell_volume                     2201.16
_exptl_crystal_colour            yellow
_exptl_crystal_description       block
_cell_formula_units_Z            4
loop_
_atom_site_label
_atom_site_type_symbol
_atom_site_fract_x
_atom_site_fract_y
_atom_site_fract_z
C1 C 1.1900(14) 0.7581(12) -0.1968(4)
H1 H 1.1941 0.8452 -0.2181
H2 H 1.1622 0.6942 -0.2315
H3 H 1.2650 0.7317 -0.1785
O1 O 1.1094(3) 0.7629(4) -0.13734(19)
C2 C 1.1344(6) 0.3751(7) 0.2560(3)
H4 H 1.1431 0.2860 0.2378
H5 H 1.0825 0.3734 0.2935
H6 H 1.2078 0.4081 0.2737
Br1 Br 0.13472(4) 1.00670(6) 0.15914(3)
C3 C 0.8349(3) 0.7927(3) 0.06203(18)
C4 C 0.6430(3) 0.7876(3) 0.10051(17)
C5 C 0.9464(3) 0.7237(3) 0.0501(2)
C6 C 0.7449(3) 0.7224(3) 0.08986(18)
H7 H 0.7533 0.6320 0.1012
O2 O 1.2583(3) 0.6416(4) -0.09713(19)
C7 C 0.6301(3) 0.9248(3) 0.08424(17)
C8 C 0.2910(4) 0.9901(4) 0.1368(2)
C9 C 0.5140(3) 0.9659(4) 0.10057(18)
C10 C 0.5324(3) 0.7305(4) 0.1278(2)
C11 C 0.4560(3) 0.8539(4) 0.12455(18)
C12 C 0.8208(3) 0.9282(4) 0.0446(2)
H8 H 0.8809 0.9744 0.0253
C13 C 1.0975(3) 0.5700(4) 0.0904(2)
C14 C 0.3481(4) 1.1027(4) 0.1147(2)
H9 H 0.3113 1.1855 0.1123
C15 C 0.9943(3) 0.6363(3) 0.1009(2)
H10 H 0.9571 0.6219 0.1423
O3 O 1.0887(3) 0.4631(4) 0.19960(19)
C16 C 0.4613(3) 1.0907(4) 0.0961(2)
H11 H 0.5012 1.1652 0.0808
C17 C 0.7200(3) 0.9946(3) 0.0556(2)
H12 H 0.7118 1.0850 0.0440
O4 O 1.2404(3) 0.4211(4) 0.1374(2)
C18 C 1.1523(3) 0.5909(4) 0.0289(2)
H13 H 1.2215 0.5478 0.0220
C19 C 0.3424(3) 0.8645(4) 0.14190(19)
H14 H 0.3019 0.7899 0.1565
C20 C 1.1054(3) 0.6750(4) -0.0223(2)
C21 C 1.0027(3) 0.7421(4) -0.0117(2)
H15 H 0.9718 0.7996 -0.0463
C22 C 1.1515(4) 0.4788(4) 0.1440(3)
C23 C 0.4853(4) 0.6171(4) 0.0797(3)
H16 H 0.4703 0.6510 0.0327
H17 H 0.4154 0.5833 0.0974
H18 H 0.5408 0.5460 0.0789
C24 C 1.1641(5) 0.6910(5) -0.0889(3)
C25 C 0.5516(4) 0.6803(5) 0.2045(2)
H19 H 0.6036 0.6056 0.2057
H20 H 0.4796 0.6527 0.2220
H21 H 0.5836 0.7515 0.2335
loop_
_geom_bond_atom_site_label_1
_geom_bond_atom_site_label_2
_geom_bond_site_symmetry_1
_geom_bond_site_symmetry_2
C1 H1 1_555 1_555
H2 C1 1_555 1_555
H3 C1 1_555 1_555
O1 C1 1_555 1_555
C2 H4 1_555 1_555
H5 C2 1_555 1_555
H6 C2 1_555 1_555
Br1 C8 1_555 1_555
C3 C5 1_555 1_555
C4 C6 1_555 1_555
C5 C15 1_555 1_555
C6 C3 1_555 1_555
H7 C6 1_555 1_555
O2 C24 1_555 1_555
C7 C4 1_555 1_555
C8 C14 1_555 1_555
C9 C7 1_555 1_555
C10 C4 1_555 1_555
C11 C9 1_555 1_555
C12 C3 1_555 1_555
H8 C12 1_555 1_555
C13 C15 1_555 1_555
C14 H9 1_555 1_555
C15 H10 1_555 1_555
O3 C2 1_555 1_555
C16 C9 1_555 1_555
H11 C16 1_555 1_555
C17 C7 1_555 1_555
H12 C17 1_555 1_555
O4 C22 1_555 1_555
C18 C13 1_555 1_555
H13 C18 1_555 1_555
C19 C8 1_555 1_555
H14 C19 1_555 1_555
C20 C18 1_555 1_555
C21 C5 1_555 1_555
H15 C21 1_555 1_555
C22 C13 1_555 1_555
C23 C10 1_555 1_555
H16 C23 1_555 1_555
H17 C23 1_555 1_555
H18 C23 1_555 1_555
C24 O1 1_555 1_555
C25 C10 1_555 1_555
H19 C25 1_555 1_555
H20 C25 1_555 1_555
H21 C25 1_555 1_555
C10 C11 1_555 1_555
C11 C19 1_555 1_555
C12 C17 1_555 1_555
C14 C16 1_555 1_555
O3 C22 1_555 1_555
C20 C21 1_555 1_555
C20 C24 1_555 1_555

#END
