
#######################################################################
#
#                 Cambridge Crystallographic Data Centre
#                                CCDC 
#
#######################################################################
#
# If this CIF has been generated from an entry in the Cambridge 
# Structural Database, then it will include bibliographic, chemical, 
# crystal, experimental, refinement or atomic coordinate data resulting 
# from the CCDC's data processing and validation procedures.
#
#######################################################################

data_UXETOH
_chemical_formula_moiety         'C45 H31 N4 1+,C1 F3 O3 S1 1-'
_chemical_name_systematic        
'24-Methyl-4,9,14,19-tetraphenyl-2,21,24-triaza-23-azoniahexacyclo[13.5.1.1^3,20^.1^5,8^.1^10,13^.0^18,21^]tetracosa-1,3,5,7,9,11,13(23),14,16,18,20(22)-undecaene trifluoromethanesulfonate'
_symmetry_cell_setting           triclinic
_symmetry_space_group_name_H-M   'P -1'
_symmetry_Int_Tables_number      2
_space_group_name_Hall           '-P 1'
loop_
_symmetry_equiv_pos_site_id
_symmetry_equiv_pos_as_xyz
1 x,y,z
2 -x,-y,-z
_cell_length_a                   10.1624(10)
_cell_length_b                   14.6757(15)
_cell_length_c                   15.1354(15)
_cell_angle_alpha                83.821(2)
_cell_angle_beta                 76.625(2)
_cell_angle_gamma                70.557(2)
_cell_volume                     2069.68
_exptl_crystal_colour            violet
_exptl_crystal_description       platelet
_cell_formula_units_Z            2
loop_
_atom_site_label
_atom_site_type_symbol
_atom_site_fract_x
_atom_site_fract_y
_atom_site_fract_z
C1 C 0.5855(4) 0.0927(3) 0.4421(3)
C2 C 0.6577(4) 0.1006(2) 0.5115(2)
C3 C 0.5974(4) 0.1957(3) 0.5360(2)
H1 H 0.6215 0.2258 0.5788
C4 C 0.4910(4) 0.2394(3) 0.4835(2)
C5 C 0.3904(4) 0.3305(3) 0.4872(3)
C6 C 0.2916(4) 0.3527(2) 0.4267(3)
C7 C 0.1413(4) 0.3915(3) 0.4516(3)
H2 H 0.0877 0.4206 0.5066
C8 C 0.0889(4) 0.3783(3) 0.3792(3)
H3 H -0.0078 0.3976 0.3758
C9 C 0.2052(4) 0.3308(3) 0.3115(3)
C10 C 0.2055(4) 0.2807(3) 0.2376(3)
C11 C 0.3040(4) 0.1880(3) 0.2166(3)
C12 C 0.3326(5) 0.1346(3) 0.1392(3)
H4 H 0.2896 0.1553 0.0887
C13 C 0.4331(5) 0.0473(3) 0.1492(3)
H5 H 0.4710 -0.0024 0.1071
C14 C 0.4704(4) 0.0449(3) 0.2350(3)
C15 C 0.5735(4) -0.0380(3) 0.2669(2)
C16 C 0.6385(4) -0.0558(3) 0.3416(3)
C17 C 0.7399(4) -0.1492(3) 0.3573(3)
H6 H 0.7610 -0.2043 0.3235
C18 C 0.7998(4) -0.1461(3) 0.4275(3)
H7 H 0.8683 -0.1983 0.4498
C19 C 0.7433(4) -0.0522(3) 0.4620(3)
C20 C 0.7572(4) 0.0069(3) 0.5236(2)
N1 N 0.4860(3) 0.1701(2) 0.4242(2)
N2 N 0.3276(3) 0.3200(2) 0.3415(2)
N3 N 0.3914(3) 0.1306(2) 0.2741(2)
H8 H 0.3946 0.1473 0.3269
N4 N 0.6396(3) -0.0004(2) 0.4097(2)
C21 C 0.3660(4) 0.4047(3) 0.5516(3)
C22 C 0.3253(4) 0.5026(3) 0.5220(3)
H9 H 0.3169 0.5187 0.4613
C23 C 0.2977(4) 0.5747(3) 0.5811(3)
H10 H 0.2710 0.6396 0.5602
C24 C 0.3086(4) 0.5532(3) 0.6695(3)
H11 H 0.2893 0.6029 0.7096
C25 C 0.3490(5) 0.4562(3) 0.7001(3)
H12 H 0.3557 0.4409 0.7611
C26 C 0.3787(4) 0.3840(3) 0.6417(3)
H13 H 0.4081 0.3192 0.6627
C27 C 0.0941(4) 0.3262(3) 0.1847(3)
C28 C 0.0597(5) 0.4246(3) 0.1651(3)
H14 H 0.1093 0.4596 0.1850
C29 C -0.0438(6) 0.4724(5) 0.1179(4)
H15 H -0.0658 0.5394 0.1062
C30 C -0.1133(6) 0.4238(5) 0.0884(4)
H16 H -0.1826 0.4572 0.0544
C31 C -0.0873(5) 0.3250(6) 0.1061(3)
H17 H -0.1400 0.2923 0.0862
C32 C 0.0217(5) 0.2748(4) 0.1552(3)
H18 H 0.0436 0.2078 0.1673
C33 C 0.6265(5) -0.1198(3) 0.2029(3)
C34 C 0.5435(6) -0.1758(3) 0.1972(3)
H19 H 0.4526 -0.1641 0.2352
C35 C 0.5932(8) -0.2486(4) 0.1361(4)
H20 H 0.5354 -0.2862 0.1330
C36 C 0.7243(10) -0.2676(4) 0.0800(4)
H21 H 0.7570 -0.3170 0.0378
C37 C 0.8060(8) -0.2135(5) 0.0865(4)
H22 H 0.8976 -0.2269 0.0491
C38 C 0.7592(5) -0.1392(4) 0.1464(3)
H23 H 0.8177 -0.1020 0.1486
C39 C 0.8578(4) -0.0210(3) 0.5846(2)
C40 C 0.8633(4) 0.0472(3) 0.6390(3)
H24 H 0.8011 0.1108 0.6369
C41 C 0.9589(5) 0.0233(3) 0.6966(3)
H25 H 0.9594 0.0703 0.7340
C42 C 1.0538(5) -0.0697(4) 0.6989(3)
H26 H 1.1199 -0.0862 0.7370
C43 C 1.0497(5) -0.1358(4) 0.6458(3)
H27 H 1.1148 -0.1986 0.6470
C44 C 0.9526(4) -0.1150(3) 0.5888(3)
H28 H 0.9509 -0.1635 0.5537
C45 C 0.4636(4) 0.3163(3) 0.2777(3)
H29 H 0.4939 0.3694 0.2887
H30 H 0.4501 0.3217 0.2158
H31 H 0.5359 0.2555 0.2869
C46 C 0.0980(9) 0.6766(5) 0.2346(5)
F1 F 0.1444(6) 0.6384(4) 0.1538(4)
F2 F -0.0045(4) 0.6336(3) 0.2796(3)
F3 F 0.0374(4) 0.7729(3) 0.2209(3)
S1 S 0.2287(3) 0.65553(16) 0.3004(2)
O1 O 0.3146(7) 0.7108(5) 0.2459(7)
O2 O 0.1585(8) 0.6959(4) 0.3801(5)
O3 O 0.2949(5) 0.5482(3) 0.2923(4)
loop_
_geom_bond_atom_site_label_1
_geom_bond_atom_site_label_2
_geom_bond_site_symmetry_1
_geom_bond_site_symmetry_2
C1 C2 1_555 1_555
C2 C3 1_555 1_555
C3 H1 1_555 1_555
C4 C3 1_555 1_555
C5 C4 1_555 1_555
C6 C5 1_555 1_555
C7 C6 1_555 1_555
H2 C7 1_555 1_555
C8 C7 1_555 1_555
H3 C8 1_555 1_555
C9 C8 1_555 1_555
C10 C9 1_555 1_555
C11 C10 1_555 1_555
C12 C11 1_555 1_555
H4 C12 1_555 1_555
C13 C12 1_555 1_555
H5 C13 1_555 1_555
C14 C13 1_555 1_555
C15 C14 1_555 1_555
C16 C15 1_555 1_555
C17 C16 1_555 1_555
H6 C17 1_555 1_555
C18 C17 1_555 1_555
H7 C18 1_555 1_555
C19 C18 1_555 1_555
C20 C2 1_555 1_555
N1 C1 1_555 1_555
N2 C6 1_555 1_555
N3 C11 1_555 1_555
H8 N3 1_555 1_555
N4 C1 1_555 1_555
C21 C5 1_555 1_555
C22 C21 1_555 1_555
H9 C22 1_555 1_555
C23 C22 1_555 1_555
H10 C23 1_555 1_555
C24 C23 1_555 1_555
H11 C24 1_555 1_555
C25 C24 1_555 1_555
H12 C25 1_555 1_555
C26 C21 1_555 1_555
H13 C26 1_555 1_555
C27 C10 1_555 1_555
C28 C27 1_555 1_555
H14 C28 1_555 1_555
C29 C28 1_555 1_555
H15 C29 1_555 1_555
C30 C29 1_555 1_555
H16 C30 1_555 1_555
C31 C30 1_555 1_555
H17 C31 1_555 1_555
C32 C27 1_555 1_555
H18 C32 1_555 1_555
C33 C15 1_555 1_555
C34 C33 1_555 1_555
H19 C34 1_555 1_555
C35 C34 1_555 1_555
H20 C35 1_555 1_555
C36 C35 1_555 1_555
H21 C36 1_555 1_555
C37 C36 1_555 1_555
H22 C37 1_555 1_555
C38 C33 1_555 1_555
H23 C38 1_555 1_555
C39 C20 1_555 1_555
C40 C39 1_555 1_555
H24 C40 1_555 1_555
C41 C40 1_555 1_555
H25 C41 1_555 1_555
C42 C41 1_555 1_555
H26 C42 1_555 1_555
C43 C42 1_555 1_555
H27 C43 1_555 1_555
C44 C39 1_555 1_555
H28 C44 1_555 1_555
C45 N2 1_555 1_555
H29 C45 1_555 1_555
H30 C45 1_555 1_555
H31 C45 1_555 1_555
C46 F1 1_555 1_555
F2 C46 1_555 1_555
F3 C46 1_555 1_555
S1 C46 1_555 1_555
O1 S1 1_555 1_555
O2 S1 1_555 1_555
O3 S1 1_555 1_555
C4 N1 1_555 1_555
C9 N2 1_555 1_555
C14 N3 1_555 1_555
C16 N4 1_555 1_555
C19 C20 1_555 1_555
C19 N4 1_555 1_555
C25 C26 1_555 1_555
C31 C32 1_555 1_555
C37 C38 1_555 1_555
C43 C44 1_555 1_555

#END
