
#######################################################################
#
#                 Cambridge Crystallographic Data Centre
#                                CCDC 
#
#######################################################################
#
# If this CIF has been generated from an entry in the Cambridge 
# Structural Database, then it will include bibliographic, chemical, 
# crystal, experimental, refinement or atomic coordinate data resulting 
# from the CCDC's data processing and validation procedures.
#
#######################################################################

data_UXEXIG
_chemical_formula_moiety         'C25 H18 O3'
_chemical_name_systematic        
2-methyl-2,4-diphenyl-2H,5H-pyrano[3,2-c]chromen-5-one
_symmetry_cell_setting           monoclinic
_symmetry_space_group_name_H-M   'P 21/c'
_symmetry_Int_Tables_number      14
_space_group_name_Hall           '-P 2ybc'
loop_
_symmetry_equiv_pos_site_id
_symmetry_equiv_pos_as_xyz
1 x,y,z
2 -x,1/2+y,1/2-z
3 -x,-y,-z
4 x,1/2-y,1/2+z
_cell_length_a                   13.3780(10)
_cell_length_b                   9.4460(7)
_cell_length_c                   15.0710(11)
_cell_angle_alpha                90
_cell_angle_beta                 99.420(2)
_cell_angle_gamma                90
_cell_volume                     1878.82
_cell_formula_units_Z            4
loop_
_atom_site_label
_atom_site_type_symbol
_atom_site_fract_x
_atom_site_fract_y
_atom_site_fract_z
C1 C 0.22629(8) 0.24665(12) 0.61243(7)
C2 C 0.18497(8) 0.33992(12) 0.67274(7)
C3 C 0.18311(9) 0.48788(13) 0.66564(9)
H1 H 0.2123 0.5323 0.6211
C4 C 0.13804(10) 0.56751(14) 0.72479(10)
H2 H 0.1367 0.6657 0.7199
C5 C 0.09474(10) 0.50211(15) 0.79155(9)
H3 H 0.0644 0.5569 0.8310
C6 C 0.09609(10) 0.35688(15) 0.80025(9)
H4 H 0.0673 0.3133 0.8454
C7 C 0.14107(8) 0.27703(13) 0.74057(8)
C8 C 0.18196(8) 0.04145(12) 0.69501(7)
C9 C 0.21752(8) 0.10254(12) 0.61765(7)
C10 C 0.24363(8) 0.01657(12) 0.54324(7)
C11 C 0.30408(9) 0.07821(14) 0.49202(8)
H5 H 0.3190 0.0311 0.4416
C12 C 0.34800(9) 0.22241(13) 0.51490(8)
C13 C 0.44050(9) 0.22313(13) 0.58957(9)
C14 C 0.47825(11) 0.35156(16) 0.62558(11)
H6 H 0.4469 0.4355 0.6041
C15 C 0.56163(12) 0.35620(19) 0.69282(12)
H7 H 0.5861 0.4431 0.7159
C16 C 0.60912(11) 0.23304(19) 0.72613(11)
H8 H 0.6649 0.2362 0.7719
C17 C 0.57259(11) 0.10525(18) 0.69041(11)
H9 H 0.6043 0.0216 0.7120
C18 C 0.48900(10) 0.10032(15) 0.62259(10)
H10 H 0.4653 0.0133 0.5991
C19 C 0.36900(12) 0.30005(17) 0.43134(10)
H11 H 0.3083 0.3031 0.3875
H12 H 0.4210 0.2512 0.4066
H13 H 0.3910 0.3948 0.4472
C20 C 0.19357(9) -0.12108(12) 0.51582(7)
C21 C 0.24342(11) -0.22242(14) 0.47202(9)
H14 H 0.3115 -0.2099 0.4679
C22 C 0.19297(13) -0.34144(15) 0.43449(10)
H15 H 0.2269 -0.4072 0.4044
C23 C 0.09260(13) -0.36300(16) 0.44156(10)
H16 H 0.0585 -0.4423 0.4155
C24 C 0.04326(11) -0.26639(15) 0.48741(9)
H17 H -0.0238 -0.2820 0.4938
C25 C 0.09286(9) -0.14612(13) 0.52408(8)
H18 H 0.0586 -0.0813 0.5546
O1 O 0.14293(7) 0.13258(9) 0.75259(6)
O2 O 0.26904(6) 0.30889(9) 0.54770(6)
O3 O 0.18385(8) -0.08179(9) 0.71513(6)
loop_
_geom_bond_atom_site_label_1
_geom_bond_atom_site_label_2
_geom_bond_site_symmetry_1
_geom_bond_site_symmetry_2
C1 C2 1_555 1_555
C2 C3 1_555 1_555
C3 H1 1_555 1_555
C4 C3 1_555 1_555
H2 C4 1_555 1_555
C5 C4 1_555 1_555
H3 C5 1_555 1_555
C6 C5 1_555 1_555
H4 C6 1_555 1_555
C7 C2 1_555 1_555
C8 C9 1_555 1_555
C9 C1 1_555 1_555
C10 C9 1_555 1_555
C11 C10 1_555 1_555
H5 C11 1_555 1_555
C12 C11 1_555 1_555
C13 C12 1_555 1_555
C14 C13 1_555 1_555
H6 C14 1_555 1_555
C15 C14 1_555 1_555
H7 C15 1_555 1_555
C16 C15 1_555 1_555
H8 C16 1_555 1_555
C17 C16 1_555 1_555
H9 C17 1_555 1_555
C18 C13 1_555 1_555
H10 C18 1_555 1_555
C19 C12 1_555 1_555
H11 C19 1_555 1_555
H12 C19 1_555 1_555
H13 C19 1_555 1_555
C20 C10 1_555 1_555
C21 C20 1_555 1_555
H14 C21 1_555 1_555
C22 C21 1_555 1_555
H15 C22 1_555 1_555
C23 C22 1_555 1_555
H16 C23 1_555 1_555
C24 C23 1_555 1_555
H17 C24 1_555 1_555
C25 C20 1_555 1_555
H18 C25 1_555 1_555
O1 C7 1_555 1_555
O2 C1 1_555 1_555
O3 C8 1_555 1_555
C6 C7 1_555 1_555
C8 O1 1_555 1_555
C12 O2 1_555 1_555
C17 C18 1_555 1_555
C24 C25 1_555 1_555

#END
