
#######################################################################
#
#                 Cambridge Crystallographic Data Centre
#                                CCDC 
#
#######################################################################
#
# If this CIF has been generated from an entry in the Cambridge 
# Structural Database, then it will include bibliographic, chemical, 
# crystal, experimental, refinement or atomic coordinate data resulting 
# from the CCDC's data processing and validation procedures.
#
#######################################################################

data_UXIFIS
_chemical_formula_moiety         'C20 H32 O3,H2 O1'
_chemical_name_systematic        'kaur-16-ene-2,6,15-triol monohydrate'
_symmetry_cell_setting           orthorhombic
_symmetry_space_group_name_H-M   'P 21 21 21'
_symmetry_Int_Tables_number      19
_space_group_name_Hall           'P 2ac 2ab'
loop_
_symmetry_equiv_pos_site_id
_symmetry_equiv_pos_as_xyz
1 x,y,z
2 1/2-x,-y,1/2+z
3 1/2+x,1/2-y,-z
4 -x,1/2+y,1/2-z
_cell_length_a                   6.222(2)
_cell_length_b                   13.705(5)
_cell_length_c                   21.903(8)
_cell_angle_alpha                90
_cell_angle_beta                 90
_cell_angle_gamma                90
_cell_volume                     1867.72
_exptl_crystal_colour            colorless
_exptl_crystal_description       block
_cell_formula_units_Z            4
loop_
_atom_site_label
_atom_site_type_symbol
_atom_site_fract_x
_atom_site_fract_y
_atom_site_fract_z
C1 C 0.5839(7) 0.3796(3) 0.72382(17)
H1 H 0.4362 0.3985 0.7316
H2 H 0.5821 0.3134 0.7081
C2 C 0.7050(7) 0.3803(3) 0.78364(17)
H3 H 0.8499 0.3541 0.7774
C3 C 0.7201(8) 0.4826(3) 0.80864(18)
H4 H 0.8063 0.4808 0.8455
H5 H 0.5768 0.5036 0.8201
C4 C 0.8163(7) 0.5595(3) 0.76545(17)
C5 C 0.6986(6) 0.5524(3) 0.70237(16)
H6 H 0.5505 0.5725 0.7109
C6 C 0.7750(7) 0.6222(3) 0.65253(17)
H7 H 0.9070 0.5953 0.6349
C7 C 0.6068(7) 0.6280(3) 0.60169(18)
H8 H 0.4751 0.6544 0.6187
H9 H 0.6573 0.6734 0.5709
C8 C 0.5562(6) 0.5321(3) 0.57128(17)
C9 C 0.5135(6) 0.4526(3) 0.62052(17)
H10 H 0.3788 0.4730 0.6399
C10 C 0.6773(6) 0.4475(3) 0.67423(17)
C11 C 0.4580(7) 0.3523(3) 0.58987(19)
H11 H 0.4838 0.3007 0.6193
H12 H 0.3059 0.3516 0.5801
C12 C 0.5845(9) 0.3292(3) 0.5318(2)
H13 H 0.5151 0.2760 0.5102
H14 H 0.7284 0.3082 0.5427
C13 C 0.5987(8) 0.4188(3) 0.4895(2)
H15 H 0.6663 0.4027 0.4504
C14 C 0.7205(7) 0.4989(3) 0.52309(18)
H16 H 0.7585 0.5519 0.4958
H17 H 0.8499 0.4737 0.5421
C15 C 0.3505(6) 0.5407(3) 0.53054(17)
H18 H 0.2227 0.5247 0.5547
C16 C 0.3818(7) 0.4650(3) 0.48092(18)
C17 C 0.2434(9) 0.4478(4) 0.4371(2)
H19 H 0.2756 0.4026 0.4068
H20 H 0.1129 0.4809 0.4363
C18 C 0.7658(9) 0.6570(3) 0.79713(19)
H21 H 0.6130 0.6644 0.8009
H22 H 0.8229 0.7097 0.7733
H23 H 0.8300 0.6576 0.8370
C19 C 1.0618(7) 0.5521(4) 0.7610(2)
H24 H 1.1004 0.4915 0.7419
H25 H 1.1228 0.5547 0.8012
H26 H 1.1158 0.6054 0.7371
C20 C 0.8956(7) 0.4021(3) 0.65438(19)
H27 H 0.9605 0.4423 0.6236
H28 H 0.8715 0.3379 0.6382
H29 H 0.9894 0.3979 0.6891
O1 O 0.8209(5) 0.72007(18) 0.67282(11)
H30 H 0.7462 0.7588 0.6538
O2 O 0.5883(6) 0.3182(2) 0.82505(13)
H31 H 0.6496 0.3172 0.8582
O3 O 0.3258(5) 0.6357(2) 0.50351(12)
H32 H 0.3006 0.6298 0.4670
O4 O 1.1064(6) 0.7747(2) 0.57952(16)
H33 H 1.1352 0.8031 0.5473
H34 H 1.0352 0.7753 0.6050
loop_
_geom_bond_atom_site_label_1
_geom_bond_atom_site_label_2
_geom_bond_site_symmetry_1
_geom_bond_site_symmetry_2
C1 H1 1_555 1_555
H2 C1 1_555 1_555
C2 C1 1_555 1_555
H3 C2 1_555 1_555
C3 C2 1_555 1_555
H4 C3 1_555 1_555
H5 C3 1_555 1_555
C4 C3 1_555 1_555
C5 C4 1_555 1_555
H6 C5 1_555 1_555
C6 C5 1_555 1_555
H7 C6 1_555 1_555
C7 C6 1_555 1_555
H8 C7 1_555 1_555
H9 C7 1_555 1_555
C8 C7 1_555 1_555
C9 C8 1_555 1_555
H10 C9 1_555 1_555
C10 C1 1_555 1_555
C11 C9 1_555 1_555
H11 C11 1_555 1_555
H12 C11 1_555 1_555
C12 C11 1_555 1_555
H13 C12 1_555 1_555
H14 C12 1_555 1_555
C13 C12 1_555 1_555
H15 C13 1_555 1_555
C14 C8 1_555 1_555
H16 C14 1_555 1_555
H17 C14 1_555 1_555
C15 C8 1_555 1_555
H18 C15 1_555 1_555
C16 C13 1_555 1_555
C17 C16 1_555 1_555
H19 C17 1_555 1_555
H20 C17 1_555 1_555
C18 C4 1_555 1_555
H21 C18 1_555 1_555
H22 C18 1_555 1_555
H23 C18 1_555 1_555
C19 C4 1_555 1_555
H24 C19 1_555 1_555
H25 C19 1_555 1_555
H26 C19 1_555 1_555
C20 C10 1_555 1_555
H27 C20 1_555 1_555
H28 C20 1_555 1_555
H29 C20 1_555 1_555
O1 C6 1_555 1_555
H30 O1 1_555 1_555
O2 C2 1_555 1_555
H31 O2 1_555 1_555
O3 C15 1_555 1_555
H32 O3 1_555 1_555
O4 H33 1_555 1_555
H34 O4 1_555 1_555
C5 C10 1_555 1_555
C9 C10 1_555 1_555
C13 C14 1_555 1_555
C15 C16 1_555 1_555

#END
