
#######################################################################
#
#                 Cambridge Crystallographic Data Centre
#                                CCDC 
#
#######################################################################
#
# If this CIF has been generated from an entry in the Cambridge 
# Structural Database, then it will include bibliographic, chemical, 
# crystal, experimental, refinement or atomic coordinate data resulting 
# from the CCDC's data processing and validation procedures.
#
#######################################################################

data_UXISOK
_chemical_formula_moiety         'C20 H22 F3 O3 S1 1+,B1 F4 1-,C1 H2 Cl2'
_chemical_name_systematic        
'8-Methyl-2-oxo-10-phenyl-8-(2,2,2-trifluoroacetoxy)-10-thioniatricyclo[7.2.1.0^1,6^]dodecane tetrafluoroborate dichloromethane solvate'
_symmetry_cell_setting           monoclinic
_symmetry_space_group_name_H-M   'P 21/c'
_symmetry_Int_Tables_number      14
_space_group_name_Hall           '-P 2ybc'
loop_
_symmetry_equiv_pos_site_id
_symmetry_equiv_pos_as_xyz
1 x,y,z
2 -x,1/2+y,1/2-z
3 -x,-y,-z
4 x,1/2-y,1/2+z
_cell_length_a                   16.716(15)
_cell_length_b                   8.052(7)
_cell_length_c                   18.649(16)
_cell_angle_alpha                90
_cell_angle_beta                 104.928(12)
_cell_angle_gamma                90
_cell_volume                     2425.39
_exptl_crystal_colour            colorless
_exptl_crystal_description       needle
_cell_formula_units_Z            4
loop_
_atom_site_label
_atom_site_type_symbol
_atom_site_fract_x
_atom_site_fract_y
_atom_site_fract_z
S1 S 0.1392(2) 0.1911(4) 0.09679(18)
F1 F 0.5325(7) 0.1863(15) 0.1920(8)
F2 F 0.5584(6) 0.3701(15) 0.1223(6)
F3 F 0.5320(6) 0.4330(15) 0.2226(5)
O1 O 0.3958(6) 0.3395(14) 0.0599(5)
O2 O 0.3770(6) 0.3529(10) 0.1754(5)
O3 O 0.2890(6) -0.2221(11) 0.2508(5)
C1 C 0.0957(8) 0.1194(18) -0.0462(7)
H1 H 0.0962 0.2368 -0.0511
C2 C 0.5109(10) 0.337(2) 0.1645(9)
C3 C 0.2777(8) 0.2066(17) 0.2714(7)
H2 H 0.3388 0.1890 0.2889
C4 C 0.0682(8) -0.1551(17) -0.1003(7)
H3 H 0.0522 -0.2242 -0.1429
C5 C 0.2821(8) 0.0441(17) 0.1573(7)
H4 H 0.3430 0.0457 0.1770
H5 H 0.2657 -0.0581 0.1277
C6 C 0.0752(8) 0.0167(17) -0.1091(8)
H6 H 0.0663 0.0633 -0.1573
C7 C 0.1064(8) -0.1263(18) 0.0314(8)
H7 H 0.1161 -0.1735 0.0795
C8 C 0.1145(8) 0.0477(17) 0.0215(7)
C9 C 0.0839(8) -0.2240(18) -0.0316(7)
H8 H 0.0793 -0.3408 -0.0267
C10 C 0.4207(9) 0.3416(17) 0.1267(8)
C11 C 0.2624(8) 0.3681(16) 0.2282(7)
H9 H 0.2959 0.4567 0.2585
H10 H 0.2033 0.3989 0.2201
C12 C 0.2540(9) 0.0558(18) 0.3837(8)
H11 H 0.2263 0.0661 0.4244
H12 H 0.3137 0.0372 0.4062
C13 C 0.2574(9) 0.5192(18) 0.1088(8)
H13 H 0.2710 0.5122 0.0608
H14 H 0.2866 0.6135 0.1370
H15 H 0.1976 0.5346 0.1006
C14 C 0.2523(9) -0.1017(18) 0.2699(7)
C15 C 0.2835(8) 0.3612(16) 0.1517(7)
C16 C 0.2429(8) 0.2188(15) 0.3392(6)
H16 H 0.2713 0.3097 0.3717
H17 H 0.1832 0.2465 0.3230
C17 C 0.1452(7) 0.0808(17) 0.1837(6)
H18 H 0.1194 0.1472 0.2165
H19 H 0.1164 -0.0275 0.1739
C18 C 0.2181(8) -0.0957(17) 0.3353(7)
H20 H 0.2325 -0.1989 0.3647
H21 H 0.1570 -0.0870 0.3191
C19 C 0.2389(8) 0.0553(17) 0.2201(7)
C20 C 0.2519(7) 0.1974(15) 0.1116(6)
H22 H 0.2668 0.1914 0.0630
F4 F -0.0447(6) -0.1070(11) -0.3222(5)
F5 F 0.0858(6) -0.2065(11) -0.2990(5)
F6 F 0.0619(5) 0.0734(9) -0.2898(4)
F7 F 0.0328(6) -0.0567(10) -0.4017(4)
B1 B 0.0347(11) -0.077(2) -0.3285(9)
Cl1 Cl 0.4691(5) 0.7870(9) 0.1197(3)
Cl2 Cl 0.3561(6) 0.9083(10) -0.0105(4)
C21 C 0.4385(14) 0.781(3) 0.0239(13)
H23 H 0.4853 0.8154 0.0039
H24 H 0.4234 0.6657 0.0075
loop_
_geom_bond_atom_site_label_1
_geom_bond_atom_site_label_2
_geom_bond_site_symmetry_1
_geom_bond_site_symmetry_2
S1 C8 1_555 1_555
F1 C2 1_555 1_555
F2 C2 1_555 1_555
F3 C2 1_555 1_555
F4 B1 1_555 1_555
F5 B1 1_555 1_555
F6 B1 1_555 1_555
F7 B1 1_555 1_555
O1 C10 1_555 1_555
O2 C10 1_555 1_555
O3 C14 1_555 1_555
Cl1 C21 1_555 1_555
Cl2 C21 1_555 1_555
C1 H1 1_555 1_555
C2 C10 1_555 1_555
C3 H2 1_555 1_555
C4 H3 1_555 1_555
C5 H4 1_555 1_555
H5 C5 1_555 1_555
C6 C1 1_555 1_555
H6 C6 1_555 1_555
C7 H7 1_555 1_555
C8 C1 1_555 1_555
C9 C4 1_555 1_555
H8 C9 1_555 1_555
C11 C3 1_555 1_555
H9 C11 1_555 1_555
H10 C11 1_555 1_555
C12 H11 1_555 1_555
H12 C12 1_555 1_555
C13 H13 1_555 1_555
H14 C13 1_555 1_555
H15 C13 1_555 1_555
C14 C18 1_555 1_555
C15 O2 1_555 1_555
C16 C3 1_555 1_555
H16 C16 1_555 1_555
H17 C16 1_555 1_555
C17 S1 1_555 1_555
H18 C17 1_555 1_555
H19 C17 1_555 1_555
C18 C12 1_555 1_555
H20 C18 1_555 1_555
H21 C18 1_555 1_555
C19 C3 1_555 1_555
C20 S1 1_555 1_555
H22 C20 1_555 1_555
C21 H23 1_555 1_555
H24 C21 1_555 1_555
C4 C6 1_555 1_555
C5 C19 1_555 1_555
C5 C20 1_555 1_555
C7 C8 1_555 1_555
C7 C9 1_555 1_555
C11 C15 1_555 1_555
C12 C16 1_555 1_555
C13 C15 1_555 1_555
C14 C19 1_555 1_555
C15 C20 1_555 1_555
C17 C19 1_555 1_555

#END
