
#######################################################################
#
#                 Cambridge Crystallographic Data Centre
#                                CCDC 
#
#######################################################################
#
# If this CIF has been generated from an entry in the Cambridge 
# Structural Database, then it will include bibliographic, chemical, 
# crystal, experimental, refinement or atomic coordinate data resulting 
# from the CCDC's data processing and validation procedures.
#
#######################################################################

data_UXIWAB
_chemical_formula_moiety         'C24 H27 N1 O5'
_chemical_name_systematic        
'diethyl 5-(4-methoxyphenyl)-2-phenyl-5,6-dihydropyridine-3,3(4H)-dicarboxylate'
_symmetry_cell_setting           orthorhombic
_symmetry_space_group_name_H-M   'P b c a'
_symmetry_Int_Tables_number      61
_space_group_name_Hall           '-P 2ac 2ab'
loop_
_symmetry_equiv_pos_site_id
_symmetry_equiv_pos_as_xyz
1 x,y,z
2 1/2-x,-y,1/2+z
3 1/2+x,1/2-y,-z
4 -x,1/2+y,1/2-z
5 -x,-y,-z
6 1/2+x,y,1/2-z
7 1/2-x,1/2+y,z
8 x,1/2-y,1/2+z
_cell_length_a                   19.040(5)
_cell_length_b                   10.114(5)
_cell_length_c                   22.937(5)
_cell_angle_alpha                90
_cell_angle_beta                 90
_cell_angle_gamma                90
_cell_volume                     4416.99
_exptl_crystal_colour            'light yellow'
_exptl_crystal_description       needle
_cell_formula_units_Z            8
_chemical_properties_physical    ', Bioactive molecule'
_exptl_crystal_recrystallization_method 'Ethyl acetate/hexane (10%)'
loop_
_atom_site_label
_atom_site_type_symbol
_atom_site_fract_x
_atom_site_fract_y
_atom_site_fract_z
O1 O 0.24531(12) 0.1671(2) -0.10855(11)
O2 O 0.18742(14) -0.3189(3) 0.21716(10)
O3 O 0.04043(12) 0.3102(2) -0.03563(12)
N1 N 0.07688(12) -0.0160(2) -0.07725(11)
C1 C 0.17813(14) 0.0938(3) -0.00204(13)
H1 H 0.2125 0.0348 -0.0193
H2 H 0.2018 0.1480 0.0268
C2 C 0.12047(14) 0.0138(3) 0.02690(12)
H3 H 0.0841 0.0756 0.0400
C3 C 0.14603(14) 0.1825(3) -0.04951(13)
C4 C 0.10179(14) 0.0962(3) -0.09121(13)
O4 O 0.21362(17) 0.3682(2) -0.08188(18)
C5 C 0.17674(16) -0.2362(3) 0.17119(13)
C6 C 0.08912(14) 0.1420(3) -0.15217(13)
O5 O 0.13050(17) 0.3468(3) 0.02222(17)
C7 C 0.20619(15) -0.1349(3) 0.08038(14)
H4 H 0.2379 -0.1238 0.0499
C8 C 0.14279(14) -0.0679(3) 0.07885(12)
C9 C 0.09762(15) -0.0848(4) 0.12551(14)
H5 H 0.0552 -0.0391 0.1261
C10 C 0.20487(16) 0.2518(3) -0.08228(15)
C11 C 0.08848(16) -0.0741(3) -0.02013(13)
H6 H 0.1188 -0.1503 -0.0250
H7 H 0.0437 -0.1063 -0.0058
C12 C 0.11386(17) -0.1672(4) 0.17074(14)
H8 H 0.0825 -0.1771 0.2015
C13 C 0.22350(16) -0.2174(3) 0.12582(14)
H9 H 0.2666 -0.2606 0.1260
C14 C 0.08565(18) 0.0492(4) -0.19652(15)
H10 H 0.0918 -0.0398 -0.1878
C15 C 0.07961(18) 0.2739(3) -0.16700(16)
H11 H 0.0816 0.3384 -0.1381
C16 C 0.09878(17) 0.2876(3) -0.02168(16)
C17 C 0.0672(2) 0.3104(4) -0.22403(19)
H12 H 0.0612 0.3993 -0.2332
C18 C 0.0636(2) 0.2172(5) -0.26715(18)
H13 H 0.0547 0.2421 -0.3055
C19 C 0.0733(2) 0.0867(4) -0.25329(17)
H14 H 0.0716 0.0230 -0.2825
C20 C 0.3017(2) 0.2210(5) -0.1441(2)
H15 H 0.2853 0.2321 -0.1838
H16 H 0.3149 0.3073 -0.1292
C21 C 0.2486(3) -0.3987(5) 0.21708(18)
H17 H 0.2495 -0.4518 0.2518
H18 H 0.2482 -0.4552 0.1834
H19 H 0.2895 -0.3432 0.2160
C22 C 0.0857(5) 0.4433(7) 0.0592(5)
H20 H 0.0377 0.4459 0.0451
H21 H 0.0854 0.4163 0.0998
C23 C 0.3603(3) 0.1385(5) -0.1439(3)
H22 H 0.3966 0.1765 -0.1676
H23 H 0.3772 0.1286 -0.1047
H24 H 0.3476 0.0534 -0.1592
C24 C 0.1094(5) 0.5344(11) 0.0546(7)
H25 H 0.0838 0.5991 0.0767
H26 H 0.1568 0.5298 0.0686
H27 H 0.1095 0.5591 0.0142
loop_
_geom_bond_atom_site_label_1
_geom_bond_atom_site_label_2
_geom_bond_site_symmetry_1
_geom_bond_site_symmetry_2
O1 C10 1_555 1_555
O2 C5 1_555 1_555
O3 C16 1_555 1_555
N1 C4 1_555 1_555
C1 H1 1_555 1_555
H2 C1 1_555 1_555
C2 C1 1_555 1_555
H3 C2 1_555 1_555
C3 C1 1_555 1_555
C4 C3 1_555 1_555
O4 C10 1_555 1_555
C5 C12 1_555 1_555
C6 C4 1_555 1_555
O5 C16 1_555 1_555
C7 H4 1_555 1_555
C8 C2 1_555 1_555
C9 C8 1_555 1_555
H5 C9 1_555 1_555
C10 C3 1_555 1_555
C11 N1 1_555 1_555
H6 C11 1_555 1_555
H7 C11 1_555 1_555
C12 C9 1_555 1_555
H8 C12 1_555 1_555
C13 C5 1_555 1_555
H9 C13 1_555 1_555
C14 C6 1_555 1_555
H10 C14 1_555 1_555
C15 C6 1_555 1_555
H11 C15 1_555 1_555
C16 C3 1_555 1_555
C17 C15 1_555 1_555
H12 C17 1_555 1_555
C18 C17 1_555 1_555
H13 C18 1_555 1_555
C19 C14 1_555 1_555
H14 C19 1_555 1_555
C20 O1 1_555 1_555
H15 C20 1_555 1_555
H16 C20 1_555 1_555
C21 O2 1_555 1_555
H17 C21 1_555 1_555
H18 C21 1_555 1_555
H19 C21 1_555 1_555
C22 O5 1_555 1_555
H20 C22 1_555 1_555
H21 C22 1_555 1_555
C23 C20 1_555 1_555
H22 C23 1_555 1_555
H23 C23 1_555 1_555
H24 C23 1_555 1_555
C24 C22 1_555 1_555
H25 C24 1_555 1_555
H26 C24 1_555 1_555
H27 C24 1_555 1_555
C2 C11 1_555 1_555
C7 C8 1_555 1_555
C7 C13 1_555 1_555
C18 C19 1_555 1_555

#END
