
#######################################################################
#
#                 Cambridge Crystallographic Data Centre
#                                CCDC 
#
#######################################################################
#
# If this CIF has been generated from an entry in the Cambridge 
# Structural Database, then it will include bibliographic, chemical, 
# crystal, experimental, refinement or atomic coordinate data resulting 
# from the CCDC's data processing and validation procedures.
#
#######################################################################

data_UXOLUQ
_chemical_formula_moiety         'C13 H17 Br1 O3'
_chemical_name_systematic        
'(2-(4-bromophenyl)-5-ethyl- 1,3-dioxan-5-yl)methanol'
_symmetry_cell_setting           triclinic
_symmetry_space_group_name_H-M   'P -1'
_symmetry_Int_Tables_number      2
_space_group_name_Hall           '-P 1'
loop_
_symmetry_equiv_pos_site_id
_symmetry_equiv_pos_as_xyz
1 x,y,z
2 -x,-y,-z
_cell_length_a                   9.8235(7)
_cell_length_b                   10.3354(7)
_cell_length_c                   13.9981(10)
_cell_angle_alpha                99.853(3)
_cell_angle_beta                 95.106(3)
_cell_angle_gamma                108.139(3)
_cell_volume                     1315.22
_exptl_crystal_colour            colorless
_exptl_crystal_description       block
_cell_formula_units_Z            4
loop_
_atom_site_label
_atom_site_type_symbol
_atom_site_fract_x
_atom_site_fract_y
_atom_site_fract_z
Br1 Br -0.45008(3) 0.23532(4) 0.13884(2)
O1 O 0.1697(2) 0.40478(19) 0.45860(14)
O2 O 0.0425(2) 0.1912(2) 0.49107(14)
O3 O 0.3743(2) 0.1087(2) 0.50954(17)
H1 H 0.4478 0.1243 0.5485
C1 C -0.2981(3) 0.2598(3) 0.2412(2)
C2 C -0.0785(3) 0.2967(3) 0.3900(2)
C3 C 0.0365(3) 0.3209(3) 0.4760(2)
H2 H 0.0104 0.3686 0.5347
C4 C 0.2781(3) 0.4380(3) 0.5424(2)
H3 H 0.2520 0.4918 0.5972
H4 H 0.3700 0.4950 0.5283
C5 C -0.0520(3) 0.3676(3) 0.3151(2)
H5 H 0.0407 0.4280 0.3151
C6 C 0.3621(3) 0.2371(3) 0.4925(2)
H6 H 0.3030 0.2199 0.4294
H7 H 0.4577 0.2998 0.4896
C7 C -0.1612(3) 0.3499(3) 0.2400(2)
H8 H -0.1430 0.3978 0.1895
C8 C 0.3893(4) 0.3476(4) 0.6726(2)
H9 H 0.3354 0.3793 0.7209
H10 H 0.4044 0.2646 0.6880
C9 C 0.2957(3) 0.3073(3) 0.57119(19)
C10 C -0.2169(3) 0.2064(3) 0.3887(2)
H11 H -0.2356 0.1583 0.4391
C11 C 0.1444(3) 0.2112(3) 0.5766(2)
H12 H 0.1498 0.1215 0.5846
H13 H 0.1100 0.2503 0.6338
C12 C -0.3267(3) 0.1869(3) 0.3146(2)
H14 H -0.4190 0.1254 0.3139
C13 C 0.5361(4) 0.4592(4) 0.6835(3)
H15 H 0.5925 0.4282 0.6379
H16 H 0.5856 0.4770 0.7492
H17 H 0.5232 0.5432 0.6704
Br2 Br 0.25069(4) 0.01295(3) -0.07613(3)
O4 O 0.34139(18) 0.67823(18) 0.13075(13)
O5 O 0.09608(19) 0.58298(19) 0.13708(14)
C14 C 0.2212(3) 0.8284(3) 0.21837(18)
C15 C 0.2052(3) 0.5893(3) 0.07821(18)
H18 H 0.1822 0.6255 0.0208
O6 O 0.3878(2) 0.8940(2) 0.37328(16)
H19 H 0.3724 0.9567 0.4104
C16 C 0.1386(3) 0.3334(3) 0.0785(2)
H20 H 0.0797 0.3436 0.1257
C17 C 0.3406(3) 0.8181(3) 0.1573(2)
H21 H 0.3266 0.8524 0.0981
H22 H 0.4339 0.8768 0.1945
C18 C 0.0794(3) 0.7163(3) 0.1646(2)
H23 H 0.0055 0.7095 0.2068
H24 H 0.0470 0.7440 0.1062
C19 C 0.2367(3) 0.1902(3) -0.0261(2)
C20 C 0.2154(3) 0.4475(3) 0.04421(18)
C21 C 0.2535(3) 0.7986(3) 0.31896(19)
H25 H 0.1756 0.8039 0.3558
H26 H 0.2568 0.7046 0.3112
C22 C 0.3035(3) 0.4308(3) -0.0251(2)
H27 H 0.3559 0.5076 -0.0482
C23 C 0.3155(3) 0.3032(3) -0.0604(2)
H28 H 0.3759 0.2934 -0.1067
C24 C 0.1484(3) 0.2036(3) 0.0432(2)
H29 H 0.0961 0.1264 0.0662
C25 C 0.2091(3) 0.9744(3) 0.2247(2)
H30 H 0.2991 1.0423 0.2607
H31 H 0.1995 0.9911 0.1588
C26 C 0.0850(4) 1.0002(3) 0.2729(3)
H32 H -0.0053 0.9358 0.2369
H33 H 0.0872 1.0937 0.2731
H34 H 0.0946 0.9872 0.3391
loop_
_geom_bond_atom_site_label_1
_geom_bond_atom_site_label_2
_geom_bond_site_symmetry_1
_geom_bond_site_symmetry_2
Br1 C1 1_555 1_555
O1 C3 1_555 1_555
O2 C3 1_555 1_555
O3 H1 1_555 1_555
C1 C7 1_555 1_555
C2 C3 1_555 1_555
C3 H2 1_555 1_555
C4 O1 1_555 1_555
H3 C4 1_555 1_555
H4 C4 1_555 1_555
C5 C2 1_555 1_555
H5 C5 1_555 1_555
C6 O3 1_555 1_555
H6 C6 1_555 1_555
H7 C6 1_555 1_555
C7 C5 1_555 1_555
H8 C7 1_555 1_555
C8 H9 1_555 1_555
H10 C8 1_555 1_555
C9 C4 1_555 1_555
C10 C2 1_555 1_555
H11 C10 1_555 1_555
C11 O2 1_555 1_555
H12 C11 1_555 1_555
H13 C11 1_555 1_555
C12 C1 1_555 1_555
H14 C12 1_555 1_555
C13 C8 1_555 1_555
H15 C13 1_555 1_555
H16 C13 1_555 1_555
H17 C13 1_555 1_555
Br2 C19 1_555 1_555
O4 C15 1_555 1_555
O5 C15 1_555 1_555
C14 C17 1_555 1_555
C15 H18 1_555 1_555
O6 H19 1_555 1_555
C16 H20 1_555 1_555
C17 O4 1_555 1_555
H21 C17 1_555 1_555
H22 C17 1_555 1_555
C18 O5 1_555 1_555
H23 C18 1_555 1_555
H24 C18 1_555 1_555
C19 C23 1_555 1_555
C20 C15 1_555 1_555
C21 C14 1_555 1_555
H25 C21 1_555 1_555
H26 C21 1_555 1_555
C22 C20 1_555 1_555
H27 C22 1_555 1_555
C23 C22 1_555 1_555
H28 C23 1_555 1_555
C24 C16 1_555 1_555
H29 C24 1_555 1_555
C25 C14 1_555 1_555
H30 C25 1_555 1_555
H31 C25 1_555 1_555
C26 C25 1_555 1_555
H32 C26 1_555 1_555
H33 C26 1_555 1_555
H34 C26 1_555 1_555
C6 C9 1_555 1_555
C8 C9 1_555 1_555
C9 C11 1_555 1_555
C10 C12 1_555 1_555
C14 C18 1_555 1_555
O6 C21 1_555 1_555
C16 C20 1_555 1_555
C19 C24 1_555 1_555

#END
