
#######################################################################
#
#                 Cambridge Crystallographic Data Centre
#                                CCDC 
#
#######################################################################
#
# If this CIF has been generated from an entry in the Cambridge 
# Structural Database, then it will include bibliographic, chemical, 
# crystal, experimental, refinement or atomic coordinate data resulting 
# from the CCDC's data processing and validation procedures.
#
#######################################################################

data_UXOXOV
_chemical_formula_moiety         'C36 H35 I1 N2 O4'
_chemical_name_systematic        
(5R,6R,7S,8S)-6,7,8-tris(Benzyloxy)-5-((benzyloxy)methyl)-2-iodo-5,6,7,8-tetrahydroimidazo(1,2-a)pyridine
_symmetry_cell_setting           triclinic
_symmetry_space_group_name_H-M   'P 1'
_symmetry_Int_Tables_number      1
_space_group_name_Hall           'P 1'
loop_
_symmetry_equiv_pos_site_id
_symmetry_equiv_pos_as_xyz
1 x,y,z
_cell_length_a                   5.9016(12)
_cell_length_b                   10.778(2)
_cell_length_c                   13.146(3)
_cell_angle_alpha                103.52(3)
_cell_angle_beta                 95.39(3)
_cell_angle_gamma                102.63(3)
_cell_volume                     784.012
_cell_formula_units_Z            1
loop_
_atom_site_label
_atom_site_type_symbol
_atom_site_fract_x
_atom_site_fract_y
_atom_site_fract_z
I1 I 1.17002(3) 0.13430(2) -0.08632(2)
O1 O 0.8368(6) 0.6119(3) 0.0703(3)
O2 O 0.6548(7) 0.6166(3) 0.3156(3)
O3 O 1.0536(7) 0.6030(3) 0.4442(3)
O4 O 1.0917(6) 0.3162(4) 0.3668(3)
N1 N 0.8739(7) 0.3767(4) 0.1335(3)
N2 N 1.1732(7) 0.2835(4) 0.1388(3)
C1 C 1.0558(8) 0.2499(5) 0.0375(4)
C2 C 0.8711(8) 0.3048(4) 0.0311(4)
H1 H 0.7656 0.2961 -0.0289
C3 C 1.0562(8) 0.3607(5) 0.1943(4)
C4 C 1.1085(8) 0.4186(5) 0.3114(4)
H2 H 1.2683 0.4757 0.3297
C5 C 0.9383(9) 0.4979(5) 0.3529(4)
H3 H 0.8090 0.4396 0.3737
C6 C 0.8357(10) 0.5606(5) 0.2736(4)
H4 H 0.9586 0.6287 0.2590
C7 C 0.7145(11) 0.4601(6) 0.1721(5)
H5 H 0.5744 0.4036 0.1872
C8 C 0.6386(9) 0.5229(5) 0.0880(4)
H6 H 0.5692 0.4556 0.0228
H7 H 0.5214 0.5696 0.1106
C9 C 0.7917(11) 0.6600(5) -0.0200(4)
H8 H 0.9198 0.7345 -0.0184
H9 H 0.6488 0.6904 -0.0171
C10 C 0.7657(8) 0.5553(4) -0.1222(4)
C11 C 0.9375(8) 0.4872(5) -0.1404(4)
H10 H 1.0715 0.5083 -0.0903
C12 C 0.9129(10) 0.3882(5) -0.2321(5)
H11 H 1.0287 0.3424 -0.2431
C13 C 0.7150(12) 0.3576(6) -0.3075(5)
H12 H 0.6969 0.2913 -0.3696
C14 C 0.5462(9) 0.4261(6) -0.2896(4)
H13 H 0.4135 0.4060 -0.3403
C15 C 0.5687(9) 0.5237(5) -0.1984(4)
H14 H 0.4517 0.5687 -0.1877
C16 C 0.7179(16) 0.7570(5) 0.3584(5)
H15 H 0.8830 0.7851 0.3885
H16 H 0.6283 0.7796 0.4151
C17 C 0.6744(9) 0.8312(4) 0.2772(4)
C18 C 0.8535(9) 0.9196(5) 0.2549(5)
H17 H 1.0057 0.9314 0.2883
C19 C 0.8155(18) 0.9913(6) 0.1850(7)
H18 H 0.9419 1.0513 0.1724
C20 C 0.604(3) 0.9772(13) 0.1351(8)
H19 H 0.5814 1.0271 0.0878
C21 C 0.4166(15) 0.8891(11) 0.1528(7)
H20 H 0.2666 0.8790 0.1178
C22 C 0.4520(10) 0.8136(7) 0.2245(6)
H21 H 0.3260 0.7524 0.2362
C23 C 1.0616(16) 0.5637(6) 0.5392(5)
H22 H 1.1164 0.4838 0.5296
H23 H 0.9052 0.5454 0.5584
C24 C 1.2243(10) 0.6712(5) 0.6259(4)
C25 C 1.4583(13) 0.7261(6) 0.6195(6)
H24 H 1.5195 0.6970 0.5582
C26 C 1.6014(12) 0.8243(7) 0.7042(7)
H25 H 1.7562 0.8614 0.6988
C27 C 1.5120(12) 0.8653(6) 0.7950(6)
H26 H 1.6057 0.9314 0.8512
C28 C 1.2854(11) 0.8094(5) 0.8032(5)
H27 H 1.2270 0.8351 0.8660
C29 C 1.1433(9) 0.7149(5) 0.7183(4)
H28 H 0.9879 0.6799 0.7242
C30 C 1.2994(9) 0.2694(7) 0.3755(5)
H29 H 1.4350 0.3428 0.4060
H30 H 1.3241 0.2243 0.3060
C31 C 1.2694(8) 0.1752(6) 0.4459(4)
C32 C 1.0966(9) 0.1685(6) 0.5107(4)
H31 H 0.9908 0.2209 0.5099
C33 C 1.0806(9) 0.0847(5) 0.5763(5)
H32 H 0.9651 0.0815 0.6198
C34 C 1.2364(10) 0.0053(5) 0.5774(6)
H33 H 1.2273 -0.0503 0.6222
C35 C 1.4040(10) 0.0094(6) 0.5119(6)
H34 H 1.5069 -0.0448 0.5115
C36 C 1.4216(9) 0.0931(6) 0.4466(5)
H35 H 1.5362 0.0949 0.4026
loop_
_geom_bond_atom_site_label_1
_geom_bond_atom_site_label_2
_geom_bond_site_symmetry_1
_geom_bond_site_symmetry_2
I1 C1 1_555 1_555
O1 C8 1_555 1_555
O2 C6 1_555 1_555
O3 C5 1_555 1_555
O4 C4 1_555 1_555
N1 C2 1_555 1_555
N2 C1 1_555 1_555
C1 C2 1_555 1_555
C2 H1 1_555 1_555
C3 N1 1_555 1_555
C4 C3 1_555 1_555
H2 C4 1_555 1_555
C5 C4 1_555 1_555
H3 C5 1_555 1_555
C6 C5 1_555 1_555
H4 C6 1_555 1_555
C7 N1 1_555 1_555
H5 C7 1_555 1_555
C8 C7 1_555 1_555
H6 C8 1_555 1_555
H7 C8 1_555 1_555
C9 O1 1_555 1_555
H8 C9 1_555 1_555
H9 C9 1_555 1_555
C10 C9 1_555 1_555
C11 C10 1_555 1_555
H10 C11 1_555 1_555
C12 C11 1_555 1_555
H11 C12 1_555 1_555
C13 C12 1_555 1_555
H12 C13 1_555 1_555
C14 C13 1_555 1_555
H13 C14 1_555 1_555
C15 C10 1_555 1_555
H14 C15 1_555 1_555
C16 O2 1_555 1_555
H15 C16 1_555 1_555
H16 C16 1_555 1_555
C17 C16 1_555 1_555
C18 C17 1_555 1_555
H17 C18 1_555 1_555
C19 C18 1_555 1_555
H18 C19 1_555 1_555
C20 C19 1_555 1_555
H19 C20 1_555 1_555
C21 C20 1_555 1_555
H20 C21 1_555 1_555
C22 C17 1_555 1_555
H21 C22 1_555 1_555
C23 O3 1_555 1_555
H22 C23 1_555 1_555
H23 C23 1_555 1_555
C24 C23 1_555 1_555
C25 C24 1_555 1_555
H24 C25 1_555 1_555
C26 C25 1_555 1_555
H25 C26 1_555 1_555
C27 C26 1_555 1_555
H26 C27 1_555 1_555
C28 C27 1_555 1_555
H27 C28 1_555 1_555
C29 C24 1_555 1_555
H28 C29 1_555 1_555
C30 O4 1_555 1_555
H29 C30 1_555 1_555
H30 C30 1_555 1_555
C31 C30 1_555 1_555
C32 C31 1_555 1_555
H31 C32 1_555 1_555
C33 C32 1_555 1_555
H32 C33 1_555 1_555
C34 C33 1_555 1_555
H33 C34 1_555 1_555
C35 C34 1_555 1_555
H34 C35 1_555 1_555
C36 C31 1_555 1_555
H35 C36 1_555 1_555
N2 C3 1_555 1_555
C6 C7 1_555 1_555
C14 C15 1_555 1_555
C21 C22 1_555 1_555
C28 C29 1_555 1_555
C35 C36 1_555 1_555

#END
