
#######################################################################
#
#                 Cambridge Crystallographic Data Centre
#                                CCDC 
#
#######################################################################
#
# If this CIF has been generated from an entry in the Cambridge 
# Structural Database, then it will include bibliographic, chemical, 
# crystal, experimental, refinement or atomic coordinate data resulting 
# from the CCDC's data processing and validation procedures.
#
#######################################################################

data_UXUKOO
_chemical_formula_moiety         'C21 H17 N1 O3'
_chemical_name_systematic        
6-t-Butyl-6H,11H-chromeno[3',4':4,5]furo[2,3-b]indol-11-one
_symmetry_cell_setting           triclinic
_symmetry_space_group_name_H-M   'P -1'
_symmetry_Int_Tables_number      2
_space_group_name_Hall           '-P 1'
loop_
_symmetry_equiv_pos_site_id
_symmetry_equiv_pos_as_xyz
1 x,y,z
2 -x,-y,-z
_cell_length_a                   8.3880(9)
_cell_length_b                   9.7938(9)
_cell_length_c                   9.9583(12)
_cell_angle_alpha                80.494(7)
_cell_angle_beta                 87.798(8)
_cell_angle_gamma                78.581(7)
_cell_volume                     790.86
_exptl_crystal_colour            yellow
_exptl_crystal_description       prism
_chemical_melting_point          '537.16-540.16 K'
_cell_formula_units_Z            2
loop_
_atom_site_label
_atom_site_type_symbol
_atom_site_fract_x
_atom_site_fract_y
_atom_site_fract_z
O1 O 0.25346(15) 0.26594(11) 0.45827(12)
O2 O 0.48280(15) 0.04469(12) 0.80661(13)
O3 O 0.43382(17) -0.15361(13) 0.75205(14)
N1 N 0.11979(18) 0.15264(14) 0.29820(15)
C1 C 0.3338(2) 0.20109(18) 0.57771(18)
C2 C 0.3377(2) 0.05923(17) 0.60143(18)
C3 C 0.2539(2) 0.02910(18) 0.49098(18)
C4 C 0.2079(2) 0.15582(18) 0.41018(18)
C5 C 0.4020(2) 0.27510(18) 0.66546(19)
C6 C 0.4011(2) 0.41996(18) 0.6471(2)
H1 H 0.3515 0.4793 0.5699
C7 C 0.4727(2) 0.4759(2) 0.7419(2)
H2 H 0.4718 0.5734 0.7295
C8 C 0.5464(2) 0.3881(2) 0.8559(2)
H3 H 0.5952 0.4270 0.9202
C9 C 0.5493(2) 0.2449(2) 0.8764(2)
H4 H 0.5993 0.1863 0.9538
C10 C 0.4775(2) 0.18896(18) 0.78118(19)
C11 C 0.4180(2) -0.02697(19) 0.72025(19)
C12 C 0.1915(2) -0.07074(18) 0.42819(18)
C13 C 0.1948(2) -0.21472(19) 0.4618(2)
H5 H 0.2476 -0.2667 0.5410
C14 C 0.1196(3) -0.2803(2) 0.3772(2)
H6 H 0.1199 -0.3774 0.3993
C15 C 0.0430(3) -0.2031(2) 0.2589(2)
H7 H -0.0071 -0.2498 0.2023
C16 C 0.0384(2) -0.0605(2) 0.2225(2)
H8 H -0.0125 -0.0106 0.1417
C17 C 0.1110(2) 0.00818(18) 0.30839(18)
C18 C 0.0759(2) 0.26586(19) 0.1780(2)
C19 C 0.0901(4) 0.4065(2) 0.2185(3)
H9 H 0.2025 0.4049 0.2395
H10 H 0.0227 0.4218 0.2981
H11 H 0.0541 0.4823 0.1439
C20 C 0.1932(3) 0.2331(3) 0.0625(2)
H12 H 0.3035 0.2294 0.0911
H13 H 0.1666 0.3061 -0.0161
H14 H 0.1846 0.1426 0.0389
C21 C -0.0997(2) 0.2766(2) 0.1372(2)
H15 H -0.1340 0.3629 0.0734
H16 H -0.1688 0.2778 0.2175
H17 H -0.1081 0.1961 0.0948
loop_
_geom_bond_atom_site_label_1
_geom_bond_atom_site_label_2
_geom_bond_site_symmetry_1
_geom_bond_site_symmetry_2
O1 C1 1_555 1_555
O2 C10 1_555 1_555
O3 C11 1_555 1_555
N1 C4 1_555 1_555
C1 C2 1_555 1_555
C2 C3 1_555 1_555
C3 C4 1_555 1_555
C4 O1 1_555 1_555
C5 C1 1_555 1_555
C6 C5 1_555 1_555
H1 C6 1_555 1_555
C7 C6 1_555 1_555
H2 C7 1_555 1_555
C8 C7 1_555 1_555
H3 C8 1_555 1_555
C9 C8 1_555 1_555
H4 C9 1_555 1_555
C10 C5 1_555 1_555
C11 O2 1_555 1_555
C12 C3 1_555 1_555
C13 C12 1_555 1_555
H5 C13 1_555 1_555
C14 C13 1_555 1_555
H6 C14 1_555 1_555
C15 C14 1_555 1_555
H7 C15 1_555 1_555
C16 C15 1_555 1_555
H8 C16 1_555 1_555
C17 N1 1_555 1_555
C18 N1 1_555 1_555
C19 C18 1_555 1_555
H9 C19 1_555 1_555
H10 C19 1_555 1_555
H11 C19 1_555 1_555
C20 C18 1_555 1_555
H12 C20 1_555 1_555
H13 C20 1_555 1_555
H14 C20 1_555 1_555
C21 C18 1_555 1_555
H15 C21 1_555 1_555
H16 C21 1_555 1_555
H17 C21 1_555 1_555
C2 C11 1_555 1_555
C9 C10 1_555 1_555
C12 C17 1_555 1_555
C16 C17 1_555 1_555

#END
