
#######################################################################
#
#                 Cambridge Crystallographic Data Centre
#                                CCDC 
#
#######################################################################
#
# If this CIF has been generated from an entry in the Cambridge 
# Structural Database, then it will include bibliographic, chemical, 
# crystal, experimental, refinement or atomic coordinate data resulting 
# from the CCDC's data processing and validation procedures.
#
#######################################################################

data_UYAFEH
_chemical_formula_moiety         'C16 H18 O5'
_chemical_name_systematic        
2,8-dihydroxy-6-methoxy-1,3-dimethyl-1,2,3,4-tetrahydro-9H-xanthen-9-one
_symmetry_cell_setting           triclinic
_symmetry_space_group_name_H-M   'P 1'
_symmetry_Int_Tables_number      1
_space_group_name_Hall           'P 1'
loop_
_symmetry_equiv_pos_site_id
_symmetry_equiv_pos_as_xyz
1 x,y,z
_cell_length_a                   7.852(4)
_cell_length_b                   14.212(6)
_cell_length_c                   14.349(7)
_cell_angle_alpha                106.954(9)
_cell_angle_beta                 105.781(8)
_cell_angle_gamma                93.036(10)
_cell_volume                     1458.62
_exptl_crystal_colour            colorless
_exptl_crystal_description       Block
_cell_formula_units_Z            4
loop_
_atom_site_label
_atom_site_type_symbol
_atom_site_fract_x
_atom_site_fract_y
_atom_site_fract_z
O1 O -0.1996(11) 0.8096(8) 0.7481(8)
H1 H -0.2498 0.8350 0.7054
O2 O 0.3952(12) 0.8346(7) 0.9480(6)
O3 O 0.2773(9) 0.8170(7) 0.6003(6)
O4 O -0.0358(16) 0.6451(8) 0.2947(8)
H2 H 0.0535 0.6295 0.2783
O5 O -0.2609(12) 0.7975(7) 0.5584(7)
C1 C -0.0228(17) 0.8146(9) 0.7559(10)
C2 C 0.1028(18) 0.8238(9) 0.8463(9)
H3 H 0.0664 0.8276 0.9037
C3 C 0.281(2) 0.8276(10) 0.8547(10)
C4 C 0.3421(15) 0.8247(10) 0.7707(9)
H4 H 0.4629 0.8278 0.7753
C5 C 0.2123(16) 0.8171(8) 0.6807(9)
C6 C 0.1532(18) 0.8042(9) 0.5057(9)
C7 C 0.2517(18) 0.7949(11) 0.4279(9)
H5 H 0.2922 0.7304 0.4128
H6 H 0.3561 0.8455 0.4558
C8 C 0.1324(17) 0.8065(11) 0.3294(9)
H7 H 0.1188 0.8769 0.3416
C9 C -0.046(2) 0.7487(11) 0.3047(10)
H8 H -0.1205 0.7525 0.2392
C10 C -0.1418(19) 0.7876(10) 0.3843(9)
H9 H -0.2438 0.7372 0.3697
C11 C -0.0213(18) 0.7991(9) 0.4904(9)
C12 C 0.0286(15) 0.8119(8) 0.6689(9)
C13 C -0.0940(18) 0.8019(9) 0.5705(9)
C14 C 0.579(2) 0.8293(12) 0.9570(11)
H10 H 0.5894 0.7781 0.8988
H11 H 0.6354 0.8142 1.0182
H12 H 0.6362 0.8920 0.9601
C15 C 0.218(2) 0.7740(13) 0.2447(10)
H13 H 0.2478 0.7083 0.2387
H14 H 0.3243 0.8193 0.2602
H15 H 0.1354 0.7737 0.1814
C16 C -0.215(2) 0.8817(11) 0.3775(10)
H16 H -0.1190 0.9325 0.3895
H17 H -0.2762 0.9030 0.4281
H18 H -0.2977 0.8697 0.3108
O6 O 0.8269(8) 0.5997(6) 0.9418(5)
H19 H 0.7336 0.5656 0.9017
O7 O 1.4415(8) 0.5994(6) 0.9563(6)
O8 O 1.0130(8) 0.5499(6) 0.6406(5)
O9 O 0.5331(10) 0.3642(6) 0.4176(5)
H20 H 0.5698 0.3525 0.4717
O10 O 0.6023(8) 0.5635(7) 0.7664(5)
C17 C 0.9571(13) 0.5924(8) 0.8946(8)
C18 C 1.1316(13) 0.6011(8) 0.9527(8)
H21 H 1.1596 0.6130 1.0228
C19 C 1.2621(13) 0.5921(9) 0.9069(9)
C20 C 1.2238(13) 0.5736(8) 0.7985(8)
H22 H 1.3135 0.5672 0.7669
C21 C 1.0504(12) 0.5661(8) 0.7455(8)
C22 C 0.8422(13) 0.5370(8) 0.5857(8)
C23 C 0.8273(12) 0.5187(10) 0.4738(8)
H23 H 0.9105 0.5685 0.4686
H24 H 0.8614 0.4541 0.4465
C24 C 0.6402(13) 0.5221(9) 0.4099(8)
H25 H 0.6198 0.5917 0.4281
C25 C 0.5046(12) 0.4645(9) 0.4377(7)
H26 H 0.3858 0.4658 0.3935
C26 C 0.5078(12) 0.5148(8) 0.5504(7)
H27 H 0.4441 0.4666 0.5705
C27 C 0.6982(13) 0.5363(8) 0.6164(8)
C28 C 0.9088(12) 0.5735(8) 0.7880(8)
C29 C 0.7308(13) 0.5581(8) 0.7283(8)
C30 C 1.4879(14) 0.6262(13) 1.0647(8)
H28 H 1.4455 0.6875 1.0911
H29 H 1.6156 0.6342 1.0929
H30 H 1.4341 0.5749 1.0831
C31 C 0.6174(16) 0.4858(11) 0.2946(8)
H31 H 0.6236 0.4158 0.2729
H32 H 0.7109 0.5208 0.2809
H33 H 0.5034 0.4981 0.2581
C32 C 0.4097(13) 0.6041(9) 0.5585(8)
H34 H 0.4237 0.6385 0.6291
H35 H 0.2850 0.5825 0.5223
H36 H 0.4580 0.6480 0.5294
O11 O 0.6165(8) 0.2849(6) 0.5761(5)
H37 H 0.5647 0.2870 0.6191
O12 O 1.2109(9) 0.2892(7) 0.5597(6)
O13 O 1.1098(8) 0.3356(5) 0.8756(5)
O14 O 0.8883(10) 0.5194(6) 1.0983(5)
H38 H 0.9774 0.5232 1.0795
O15 O 0.5723(9) 0.3208(6) 0.7519(6)
C33 C 0.7894(12) 0.2925(8) 0.6186(8)
C34 C 0.9067(14) 0.2851(8) 0.5658(9)
H39 H 0.8635 0.2730 0.4956
C35 C 1.0864(13) 0.2943(8) 0.6092(8)
C36 C 1.1586(14) 0.3128(8) 0.7153(9)
H40 H 1.2812 0.3202 0.7465
C37 C 1.0395(11) 0.3192(7) 0.7700(8)
C38 C 0.9952(12) 0.3486(8) 0.9335(8)
C39 C 1.0984(12) 0.3653(9) 1.0444(8)
H41 H 1.1752 0.3144 1.0482
H42 H 1.1739 0.4293 1.0721
C40 C 0.9746(14) 0.3622(9) 1.1076(8)
H43 H 0.9257 0.2925 1.0913
C41 C 0.8217(13) 0.4161(9) 1.0766(7)
H44 H 0.7462 0.4143 1.1205
C42 C 0.7065(12) 0.3717(8) 0.9698(7)
H45 H 0.6328 0.4212 0.9523
C43 C 0.8194(12) 0.3476(8) 0.8979(8)
C44 C 0.8549(13) 0.3121(7) 0.7298(8)
C45 C 0.7374(12) 0.3274(8) 0.7893(7)
C46 C 1.1461(14) 0.2635(14) 0.4525(9)
H46 H 1.0678 0.2013 0.4253
H47 H 1.2447 0.2574 0.4247
H48 H 1.0815 0.3143 0.4345
C47 C 1.0768(16) 0.4003(10) 1.2201(8)
H49 H 1.1203 0.4697 1.2393
H50 H 1.1760 0.3644 1.2334
H51 H 0.9992 0.3909 1.2590
C48 C 0.5816(13) 0.2806(9) 0.9573(8)
H52 H 0.6497 0.2278 0.9654
H53 H 0.4959 0.2599 0.8906
H54 H 0.5204 0.2965 1.0082
O16 O -0.2614(11) 0.0686(8) 0.7658(8)
H55 H -0.3008 0.0148 0.7675
O17 O 0.1377(13) 0.0598(7) 0.5744(7)
O18 O 0.3609(10) 0.0719(6) 0.9200(6)
O19 O 0.3676(15) 0.2335(7) 1.2252(7)
H56 H 0.4640 0.2575 1.2689
O20 O -0.1390(11) 0.0757(8) 0.9550(7)
C49 C -0.0934(15) 0.0668(9) 0.7610(9)
C50 C -0.0653(19) 0.0601(10) 0.6696(11)
H57 H -0.1591 0.0541 0.6114
C51 C 0.112(2) 0.0629(8) 0.6684(9)
C52 C 0.2544(16) 0.0643(9) 0.7483(10)
H58 H 0.3692 0.0617 0.7423
C53 C 0.2182(16) 0.0697(8) 0.8412(10)
C54 C 0.3325(17) 0.0796(8) 1.0127(9)
C55 C 0.5078(15) 0.0882(10) 1.0893(9)
H59 H 0.5772 0.1521 1.1038
H60 H 0.5736 0.0367 1.0618
C56 C 0.4819(18) 0.0779(11) 1.1901(10)
H61 H 0.4483 0.0070 1.1778
C57 C 0.3319(19) 0.1278(11) 1.2118(10)
H62 H 0.3231 0.1221 1.2768
C58 C 0.1531(17) 0.0893(11) 1.1351(9)
H63 H 0.0701 0.1364 1.1504
C59 C 0.1726(17) 0.0813(8) 1.0280(9)
C60 C 0.0448(17) 0.0704(9) 0.8479(10)
C61 C 0.0201(17) 0.0768(9) 0.9465(9)
C62 C 0.3182(19) 0.0654(11) 0.5711(12)
H64 H 0.3885 0.1237 0.6237
H65 H 0.3207 0.0689 0.5056
H66 H 0.3667 0.0074 0.5816
C63 C 0.6592(18) 0.1101(11) 1.2732(10)
H67 H 0.6816 0.1813 1.3003
H68 H 0.7528 0.0862 1.2454
H69 H 0.6559 0.0831 1.3268
C64 C 0.077(2) -0.0120(13) 1.1320(11)
H70 H 0.1596 -0.0580 1.1190
H71 H -0.0347 -0.0346 1.0787
H72 H 0.0586 -0.0075 1.1965
loop_
_geom_bond_atom_site_label_1
_geom_bond_atom_site_label_2
_geom_bond_site_symmetry_1
_geom_bond_site_symmetry_2
O1 H1 1_555 1_555
O2 C3 1_555 1_555
O3 C5 1_555 1_555
O4 H2 1_555 1_555
O5 C13 1_555 1_555
C1 O1 1_555 1_555
C2 C1 1_555 1_555
H3 C2 1_555 1_555
C3 C2 1_555 1_555
C4 C3 1_555 1_555
H4 C4 1_555 1_555
C5 C4 1_555 1_555
C6 O3 1_555 1_555
C7 C6 1_555 1_555
H5 C7 1_555 1_555
H6 C7 1_555 1_555
C8 C7 1_555 1_555
H7 C8 1_555 1_555
C9 O4 1_555 1_555
H8 C9 1_555 1_555
C10 C9 1_555 1_555
H9 C10 1_555 1_555
C11 C6 1_555 1_555
C12 C1 1_555 1_555
C13 C11 1_555 1_555
C14 O2 1_555 1_555
H10 C14 1_555 1_555
H11 C14 1_555 1_555
H12 C14 1_555 1_555
C15 C8 1_555 1_555
H13 C15 1_555 1_555
H14 C15 1_555 1_555
H15 C15 1_555 1_555
C16 C10 1_555 1_555
H16 C16 1_555 1_555
H17 C16 1_555 1_555
H18 C16 1_555 1_555
O6 H19 1_555 1_555
O7 C19 1_555 1_555
O8 C21 1_555 1_555
O9 H20 1_555 1_555
O10 C29 1_555 1_555
C17 O6 1_555 1_555
C18 C17 1_555 1_555
H21 C18 1_555 1_555
C19 C18 1_555 1_555
C20 C19 1_555 1_555
H22 C20 1_555 1_555
C21 C20 1_555 1_555
C22 O8 1_555 1_555
C23 C22 1_555 1_555
H23 C23 1_555 1_555
H24 C23 1_555 1_555
C24 C23 1_555 1_555
H25 C24 1_555 1_555
C25 O9 1_555 1_555
H26 C25 1_555 1_555
C26 C25 1_555 1_555
H27 C26 1_555 1_555
C27 C22 1_555 1_555
C28 C17 1_555 1_555
C29 C27 1_555 1_555
C30 O7 1_555 1_555
H28 C30 1_555 1_555
H29 C30 1_555 1_555
H30 C30 1_555 1_555
C31 C24 1_555 1_555
H31 C31 1_555 1_555
H32 C31 1_555 1_555
H33 C31 1_555 1_555
C32 C26 1_555 1_555
H34 C32 1_555 1_555
H35 C32 1_555 1_555
H36 C32 1_555 1_555
O11 H37 1_555 1_555
O12 C35 1_555 1_555
O13 C37 1_555 1_555
O14 H38 1_555 1_555
O15 C45 1_555 1_555
C33 O11 1_555 1_555
C34 C33 1_555 1_555
H39 C34 1_555 1_555
C35 C34 1_555 1_555
C36 C35 1_555 1_555
H40 C36 1_555 1_555
C37 C36 1_555 1_555
C38 O13 1_555 1_555
C39 C38 1_555 1_555
H41 C39 1_555 1_555
H42 C39 1_555 1_555
C40 C39 1_555 1_555
H43 C40 1_555 1_555
C41 O14 1_555 1_555
H44 C41 1_555 1_555
C42 C41 1_555 1_555
H45 C42 1_555 1_555
C43 C38 1_555 1_555
C44 C33 1_555 1_555
C45 C43 1_555 1_555
C46 O12 1_555 1_555
H46 C46 1_555 1_555
H47 C46 1_555 1_555
H48 C46 1_555 1_555
C47 C40 1_555 1_555
H49 C47 1_555 1_555
H50 C47 1_555 1_555
H51 C47 1_555 1_555
C48 C42 1_555 1_555
H52 C48 1_555 1_555
H53 C48 1_555 1_555
H54 C48 1_555 1_555
O16 H55 1_555 1_555
O17 C51 1_555 1_555
O18 C53 1_555 1_555
O19 H56 1_555 1_555
O20 C61 1_555 1_555
C49 O16 1_555 1_555
C50 C49 1_555 1_555
H57 C50 1_555 1_555
C51 C50 1_555 1_555
C52 C51 1_555 1_555
H58 C52 1_555 1_555
C53 C52 1_555 1_555
C54 O18 1_555 1_555
C55 C54 1_555 1_555
H59 C55 1_555 1_555
H60 C55 1_555 1_555
C56 C55 1_555 1_555
H61 C56 1_555 1_555
C57 O19 1_555 1_555
H62 C57 1_555 1_555
C58 C57 1_555 1_555
H63 C58 1_555 1_555
C59 C54 1_555 1_555
C60 C49 1_555 1_555
C61 C59 1_555 1_555
C62 O17 1_555 1_555
H64 C62 1_555 1_555
H65 C62 1_555 1_555
H66 C62 1_555 1_555
C63 C56 1_555 1_555
H67 C63 1_555 1_555
H68 C63 1_555 1_555
H69 C63 1_555 1_555
C64 C58 1_555 1_555
H70 C64 1_555 1_555
H71 C64 1_555 1_555
H72 C64 1_555 1_555
C5 C12 1_555 1_555
C8 C9 1_555 1_555
C10 C11 1_555 1_555
C12 C13 1_555 1_555
C21 C28 1_555 1_555
C24 C25 1_555 1_555
C26 C27 1_555 1_555
C28 C29 1_555 1_555
C37 C44 1_555 1_555
C40 C41 1_555 1_555
C42 C43 1_555 1_555
C44 C45 1_555 1_555
C53 C60 1_555 1_555
C56 C57 1_555 1_555
C58 C59 1_555 1_555
C60 C61 1_555 1_555

#END
