
#######################################################################
#
#                 Cambridge Crystallographic Data Centre
#                                CCDC 
#
#######################################################################
#
# If this CIF has been generated from an entry in the Cambridge 
# Structural Database, then it will include bibliographic, chemical, 
# crystal, experimental, refinement or atomic coordinate data resulting 
# from the CCDC's data processing and validation procedures.
#
#######################################################################

data_UYANAK
_chemical_formula_moiety         'C16 H30 B2 N4 2+,2(I1 1-)'
_chemical_name_systematic        
"(\m~2~-4,4'-bipyridine)-bis(trimethylamine)-bis(dihydrogen borate) diiodide"
_symmetry_cell_setting           monoclinic
_symmetry_space_group_name_H-M   'C 2/c'
_symmetry_Int_Tables_number      15
_space_group_name_Hall           '-C 2yn'
loop_
_symmetry_equiv_pos_site_id
_symmetry_equiv_pos_as_xyz
1 x,y,z
2 -x,y,1/2-z
3 1/2+x,1/2+y,z
4 1/2-x,1/2+y,1/2-z
5 -x,-y,-z
6 x,-y,1/2+z
7 1/2-x,1/2-y,-z
8 1/2+x,1/2-y,1/2+z
_cell_length_a                   11.2757(17)
_cell_length_b                   24.849(3)
_cell_length_c                   8.7892(8)
_cell_angle_alpha                90
_cell_angle_beta                 110.468(10)
_cell_angle_gamma                90
_cell_volume                     2307.17
_exptl_crystal_colour            orange
_exptl_crystal_description       prism
_cell_formula_units_Z            4
loop_
_atom_site_label
_atom_site_type_symbol
_atom_site_fract_x
_atom_site_fract_y
_atom_site_fract_z
I1 I 0.5000 0.570762(16) 0.2500
I2 I 0.5000 0.735286(14) 0.7500
N1 N 0.1581(3) 0.64326(12) 0.7200(4)
N2 N 0.2223(3) 0.58743(12) 0.5128(4)
C1 C 0.2265(5) 0.63401(17) 0.8763(5)
H1 H 0.2492 0.5989 0.9104
C2 C 0.2641(5) 0.67506(17) 0.9875(4)
H2 H 0.3128 0.6675 1.0949
C3 C 0.2297(3) 0.72732(16) 0.9404(4)
C4 C 0.1590(3) 0.73580(15) 0.7793(4)
H3 H 0.1344 0.7706 0.7427
C5 C 0.1244(3) 0.69366(16) 0.6720(4)
H4 H 0.0765 0.7004 0.5638
C6 C 0.2275(5) 0.63428(19) 0.4087(5)
H5 H 0.2920 0.6282 0.3626
H6 H 0.2468 0.6664 0.4735
H7 H 0.1471 0.6384 0.3231
C7 C 0.1875(5) 0.5385(2) 0.4068(6)
H8 H 0.2487 0.5331 0.3551
H9 H 0.1053 0.5435 0.3256
H10 H 0.1861 0.5077 0.4719
C8 C 0.3524(4) 0.57862(16) 0.6312(6)
H11 H 0.4104 0.5749 0.5738
H12 H 0.3538 0.5465 0.6923
H13 H 0.3768 0.6088 0.7037
B1 B 0.1177(5) 0.5946(2) 0.5949(6)
H14 H 0.011(4) 0.6029(18) 0.488(5)
H15 H 0.105(4) 0.5584(18) 0.661(5)
N1F N 0.3419(3) 0.85674(12) 1.2800(4)
N2F N 0.2777(3) 0.91257(12) 1.4872(4)
C1F C 0.2735(5) 0.86599(17) 1.1237(5)
H1F H 0.2508 0.9011 1.0896
C2F C 0.2359(5) 0.82494(17) 1.0125(4)
H2F H 0.1872 0.8325 0.9051
C3F C 0.2703(3) 0.77268(16) 1.0596(4)
C4F C 0.3410(3) 0.76420(15) 1.2207(4)
H3F H 0.3656 0.7294 1.2573
C5F C 0.3756(3) 0.80634(16) 1.3280(4)
H4F H 0.4235 0.7996 1.4362
C6F C 0.2725(5) 0.86572(19) 1.5913(5)
H5F H 0.2080 0.8718 1.6374
H6F H 0.2532 0.8336 1.5265
H7F H 0.3529 0.8616 1.6769
C7F C 0.3125(5) 0.9615(2) 1.5932(6)
H8F H 0.2513 0.9669 1.6449
H9F H 0.3947 0.9565 1.6744
H10F H 0.3139 0.9923 1.5281
C8F C 0.1476(4) 0.92138(16) 1.3688(6)
H11F H 0.0896 0.9251 1.4262
H12F H 0.1462 0.9535 1.3077
H13F H 0.1232 0.8912 1.2963
B1F B 0.3823(5) 0.9054(2) 1.4051(6)
H14F H 0.489(4) 0.8971(18) 1.512(5)
H15F H 0.395(4) 0.9416(18) 1.339(5)
loop_
_geom_bond_atom_site_label_1
_geom_bond_atom_site_label_2
_geom_bond_site_symmetry_1
_geom_bond_site_symmetry_2
N1 C1 1_555 1_555
N2 C6 1_555 1_555
C1 H1 1_555 1_555
C2 C1 1_555 1_555
H2 C2 1_555 1_555
C3 C2 1_555 1_555
C4 C3 1_555 1_555
H3 C4 1_555 1_555
C5 N1 1_555 1_555
H4 C5 1_555 1_555
C6 H5 1_555 1_555
H6 C6 1_555 1_555
H7 C6 1_555 1_555
C7 N2 1_555 1_555
H8 C7 1_555 1_555
H9 C7 1_555 1_555
H10 C7 1_555 1_555
C8 N2 1_555 1_555
H11 C8 1_555 1_555
H12 C8 1_555 1_555
H13 C8 1_555 1_555
B1 N1 1_555 1_555
H14 B1 1_555 1_555
H15 B1 1_555 1_555
N1F C1F 1_555 1_555
N2F C6F 1_555 1_555
C1F H1F 1_555 1_555
C2F C1F 1_555 1_555
H2F C2F 1_555 1_555
C3F C3 1_555 1_555
C4F C3F 1_555 1_555
H3F C4F 1_555 1_555
C5F N1F 1_555 1_555
H4F C5F 1_555 1_555
C6F H5F 1_555 1_555
H6F C6F 1_555 1_555
H7F C6F 1_555 1_555
C7F N2F 1_555 1_555
H8F C7F 1_555 1_555
H9F C7F 1_555 1_555
H10F C7F 1_555 1_555
C8F N2F 1_555 1_555
H11F C8F 1_555 1_555
H12F C8F 1_555 1_555
H13F C8F 1_555 1_555
B1F N1F 1_555 1_555
H14F B1F 1_555 1_555
H15F B1F 1_555 1_555
N2 B1 1_555 1_555
C4 C5 1_555 1_555
N2F B1F 1_555 1_555
C2F C3F 1_555 1_555
C4F C5F 1_555 1_555

#END
