
#######################################################################
#
#                 Cambridge Crystallographic Data Centre
#                                CCDC 
#
#######################################################################
#
# If this CIF has been generated from an entry in the Cambridge 
# Structural Database, then it will include bibliographic, chemical, 
# crystal, experimental, refinement or atomic coordinate data resulting 
# from the CCDC's data processing and validation procedures.
#
#######################################################################

data_UYAXOJ
_chemical_formula_moiety         'C17 H19 F5 N2 O5 S1'
_chemical_name_systematic        
'ethyl 2,2-difluoro-4-(morpholin-4-ylsulfamoyl)-4-(4-(trifluoromethyl)phenyl)but-3-enoate'
_symmetry_cell_setting           monoclinic
_symmetry_space_group_name_H-M   'P 21'
_symmetry_Int_Tables_number      4
_space_group_name_Hall           'P 2yb'
loop_
_symmetry_equiv_pos_site_id
_symmetry_equiv_pos_as_xyz
1 x,y,z
2 -x,1/2+y,-z
_cell_length_a                   8.364(7)
_cell_length_b                   11.266(10)
_cell_length_c                   11.556(10)
_cell_angle_alpha                90
_cell_angle_beta                 98.416(15)
_cell_angle_gamma                90
_cell_volume                     1077.18
_exptl_crystal_colour            white
_exptl_crystal_description       block
_cell_formula_units_Z            2
loop_
_atom_site_label
_atom_site_type_symbol
_atom_site_fract_x
_atom_site_fract_y
_atom_site_fract_z
S1 S 0.61693(10) -0.02965(7) -0.03512(6)
F1 F 0.2636(3) 0.1353(3) 0.2220(2)
F2 F 0.4445(4) 0.0227(2) 0.3234(2)
N1 N 0.7888(4) 0.0330(3) -0.0452(3)
N2 N 0.7936(4) 0.1583(3) -0.0331(3)
O1 O 0.6420(4) -0.1537(2) -0.0535(2)
O2 O 0.4932(3) 0.0328(3) -0.1098(2)
O3 O 0.9404(4) 0.3848(3) -0.0211(4)
O4 O 0.4299(5) 0.2807(5) 0.3639(5)
O5 O 0.6500(4) 0.2438(4) 0.2861(4)
F3 F 1.1012(12) -0.3057(13) 0.4518(12)
F4 F 0.924(3) -0.307(2) 0.5579(12)
F5 F 0.934(3) -0.4363(9) 0.4127(16)
C1 C 0.8467(6) 0.2119(4) -0.1371(4)
H1 H 0.7760 0.1868 -0.2069
H2 H 0.9557 0.1860 -0.1435
C2 C 0.8426(6) 0.3447(4) -0.1268(5)
H3 H 0.8818 0.3801 -0.1938
H4 H 0.7319 0.3706 -0.1270
C3 C 0.8904(8) 0.3308(5) 0.0785(6)
H5 H 0.7807 0.3551 0.0846
H6 H 0.9597 0.3575 0.1484
C4 C 0.8978(6) 0.1979(5) 0.0711(5)
H7 H 1.0080 0.1728 0.0680
H8 H 0.8629 0.1628 0.1398
C5 C 0.5806(4) -0.0092(3) 0.1135(3)
C6 C 0.4788(4) 0.0769(3) 0.1301(3)
H9 H 0.4361 0.1199 0.0641
C7 C 0.4245(5) 0.1128(4) 0.2419(3)
C8 C 0.5162(5) 0.2219(4) 0.3002(4)
C9 C 0.5049(10) 0.3873(8) 0.4216(9)
H10 H 0.5300 0.3735 0.5051
H11 H 0.6050 0.4045 0.3919
C10 C 0.3981(13) 0.4860(8) 0.4004(6)
H12 H 0.3793 0.5029 0.3181
H13 H 0.4457 0.5540 0.4420
H14 H 0.2973 0.4674 0.4267
C11 C 0.6728(4) -0.0895(3) 0.2020(3)
C12 C 0.6411(4) -0.2107(3) 0.1985(3)
H15 H 0.5630 -0.2414 0.1407
C13 C 0.7251(5) -0.2859(4) 0.2802(4)
H16 H 0.7028 -0.3668 0.2779
C14 C 0.8436(5) -0.2403(4) 0.3664(3)
C15 C 0.8774(5) -0.1206(4) 0.3693(3)
H17 H 0.9573 -0.0903 0.4260
C16 C 0.7917(4) -0.0448(4) 0.2871(3)
H18 H 0.8145 0.0360 0.2893
C17 C 0.9352(8) -0.3228(6) 0.4526(5)
H19 H 0.876(5) -0.009(5) -0.007(4)
F6? F 1.038(2) -0.386(2) 0.4127(15)
F7? F 0.8363(11) -0.4037(10) 0.4970(10)
F8? F 0.994(2) -0.2665(12) 0.5526(12)
loop_
_geom_bond_atom_site_label_1
_geom_bond_atom_site_label_2
_geom_bond_site_symmetry_1
_geom_bond_site_symmetry_2
S1 N1 1_555 1_555
F1 C7 1_555 1_555
F2 C7 1_555 1_555
N1 N2 1_555 1_555
N2 C1 1_555 1_555
O1 S1 1_555 1_555
O2 S1 1_555 1_555
O3 C2 1_555 1_555
O4 C8 1_555 1_555
O5 C8 1_555 1_555
F3 C17 1_555 1_555
F4 C17 1_555 1_555
F5 C17 1_555 1_555
C1 H1 1_555 1_555
H2 C1 1_555 1_555
C2 C1 1_555 1_555
H3 C2 1_555 1_555
H4 C2 1_555 1_555
C3 O3 1_555 1_555
H5 C3 1_555 1_555
H6 C3 1_555 1_555
C4 N2 1_555 1_555
H7 C4 1_555 1_555
H8 C4 1_555 1_555
C5 S1 1_555 1_555
C6 C5 1_555 1_555
H9 C6 1_555 1_555
C7 C6 1_555 1_555
C8 C7 1_555 1_555
C9 O4 1_555 1_555
H10 C9 1_555 1_555
H11 C9 1_555 1_555
C10 C9 1_555 1_555
H12 C10 1_555 1_555
H13 C10 1_555 1_555
H14 C10 1_555 1_555
C11 C5 1_555 1_555
C12 C11 1_555 1_555
H15 C12 1_555 1_555
C13 C12 1_555 1_555
H16 C13 1_555 1_555
C14 C13 1_555 1_555
C15 C14 1_555 1_555
H17 C15 1_555 1_555
C16 C11 1_555 1_555
H18 C16 1_555 1_555
C17 C14 1_555 1_555
H19 N1 1_555 1_555
C3 C4 1_555 1_555
C15 C16 1_555 1_555

#END
