
#######################################################################
#
#                 Cambridge Crystallographic Data Centre
#                                CCDC 
#
#######################################################################
#
# If this CIF has been generated from an entry in the Cambridge 
# Structural Database, then it will include bibliographic, chemical, 
# crystal, experimental, refinement or atomic coordinate data resulting 
# from the CCDC's data processing and validation procedures.
#
#######################################################################

data_UYEFEL
_chemical_formula_moiety         'C14 H15 N1 O3'
_chemical_name_systematic        
'methyl (1-oxo-1,2,3,3a,8,8a-hexahydroindeno[1,2-c]pyrrol-8-yl)acetate'
_symmetry_cell_setting           monoclinic
_symmetry_space_group_name_H-M   'P 21/c'
_symmetry_Int_Tables_number      14
_space_group_name_Hall           '-P 2ybc'
loop_
_symmetry_equiv_pos_site_id
_symmetry_equiv_pos_as_xyz
1 x,y,z
2 -x,1/2+y,1/2-z
3 -x,-y,-z
4 x,1/2-y,1/2+z
_cell_length_a                   13.7696(4)
_cell_length_b                   6.3590(2)
_cell_length_c                   14.0153(5)
_cell_angle_alpha                90
_cell_angle_beta                 106.131(3)
_cell_angle_gamma                90
_cell_volume                     1178.88
_cell_formula_units_Z            4
loop_
_atom_site_label
_atom_site_type_symbol
_atom_site_fract_x
_atom_site_fract_y
_atom_site_fract_z
O1 O 0.74889(9) 0.9411(2) 0.46781(8)
O2 O 0.79504(9) 0.6770(2) 0.57698(9)
O3 O 0.52712(9) 0.67110(19) 0.11415(8)
N1 N 0.58699(10) 0.3436(2) 0.09197(10)
H1 H 0.5738 0.3502 0.0284
C1 C 0.68024(12) 0.6055(3) 0.32100(11)
H2 H 0.6720 0.7440 0.2891
C2 C 0.60602(12) 0.4445(3) 0.25607(11)
H3 H 0.5484 0.4206 0.2830
C3 C 0.66480(12) 0.2383(3) 0.25608(12)
H4 H 0.6504 0.1358 0.3026
C4 C 0.77397(12) 0.3086(3) 0.28871(11)
C5 C 0.78269(12) 0.5133(3) 0.32477(11)
C6 C 0.87772(12) 0.6053(3) 0.36062(12)
H5 H 0.8840 0.7422 0.3849
C7 C 0.96290(13) 0.4893(3) 0.35949(13)
H6 H 1.0267 0.5484 0.3845
C8 C 0.95396(13) 0.2864(3) 0.32151(12)
H7 H 1.0116 0.2118 0.3200
C9 C 0.85891(12) 0.1938(3) 0.28564(12)
H8 H 0.8525 0.0579 0.2602
C10 C 0.66297(12) 0.6194(3) 0.42524(12)
H9 H 0.5976 0.6837 0.4190
H10 H 0.6611 0.4781 0.4507
C11 C 0.74277(12) 0.7437(3) 0.49913(12)
C12 C 0.82515(14) 1.0717(3) 0.53304(13)
H11 H 0.8197 1.2127 0.5076
H12 H 0.8910 1.0168 0.5366
H13 H 0.8153 1.0721 0.5982
C13 C 0.56934(11) 0.5040(3) 0.14683(12)
C14 C 0.63016(12) 0.1568(3) 0.14828(12)
H14 H 0.6869 0.1035 0.1271
H15 H 0.5799 0.0466 0.1412
loop_
_geom_bond_atom_site_label_1
_geom_bond_atom_site_label_2
_geom_bond_site_symmetry_1
_geom_bond_site_symmetry_2
O1 C11 1_555 1_555
O2 C11 1_555 1_555
O3 C13 1_555 1_555
N1 H1 1_555 1_555
C1 H2 1_555 1_555
C2 C1 1_555 1_555
H3 C2 1_555 1_555
C3 C2 1_555 1_555
H4 C3 1_555 1_555
C4 C3 1_555 1_555
C5 C1 1_555 1_555
C6 C5 1_555 1_555
H5 C6 1_555 1_555
C7 C6 1_555 1_555
H6 C7 1_555 1_555
C8 C7 1_555 1_555
H7 C8 1_555 1_555
C9 C4 1_555 1_555
H8 C9 1_555 1_555
C10 C1 1_555 1_555
H9 C10 1_555 1_555
H10 C10 1_555 1_555
C11 C10 1_555 1_555
C12 O1 1_555 1_555
H11 C12 1_555 1_555
H12 C12 1_555 1_555
H13 C12 1_555 1_555
C13 N1 1_555 1_555
C14 N1 1_555 1_555
H14 C14 1_555 1_555
H15 C14 1_555 1_555
C2 C13 1_555 1_555
C3 C14 1_555 1_555
C4 C5 1_555 1_555
C8 C9 1_555 1_555

#END
