
#######################################################################
#
#                 Cambridge Crystallographic Data Centre
#                                CCDC 
#
#######################################################################
#
# If this CIF has been generated from an entry in the Cambridge 
# Structural Database, then it will include bibliographic, chemical, 
# crystal, experimental, refinement or atomic coordinate data resulting 
# from the CCDC's data processing and validation procedures.
#
#######################################################################

data_UYEPAQ
_chemical_formula_moiety         'C44 H44 F6 N10 O16,C2 H4 Cl2'
_chemical_name_systematic        
"Tetraethyl 1,13-dimethoxy-6,8,15,17-tetraoxo-4,10-bis((trifluoroacetyl)amino)-5,9,14,18-tetrahydro-5a,6a,7a,8a,14a,15a,16a,17a-octaazabenzo[5,6]cyclohepta[1,2,3-cd]benzo[5'',6'']cyclohepta[1'',2'',3'':3',4']pentaleno[1',6':5,6,7]cycloocta[1,2,3-gh]pentalene-15b,15c,17b,17c-tetracarboxylate 1,2-dichloroethane solvate"
_symmetry_cell_setting           monoclinic
_symmetry_space_group_name_H-M   'C 2/c'
_symmetry_Int_Tables_number      15
_space_group_name_Hall           '-C 2yn'
loop_
_symmetry_equiv_pos_site_id
_symmetry_equiv_pos_as_xyz
1 x,y,z
2 -x,y,1/2-z
3 1/2+x,1/2+y,z
4 1/2-x,1/2+y,1/2-z
5 -x,-y,-z
6 x,-y,1/2+z
7 1/2-x,1/2-y,-z
8 1/2+x,1/2-y,1/2+z
_cell_length_a                   31.260(11)
_cell_length_b                   13.333(5)
_cell_length_c                   27.209(10)
_cell_angle_alpha                90
_cell_angle_beta                 112.158(6)
_cell_angle_gamma                90
_cell_volume                     10502.9
_exptl_crystal_colour            colorless
_exptl_crystal_description       block
_chemical_melting_point          'decomposes above 300 deg.C'
_cell_formula_units_Z            8
loop_
_atom_site_label
_atom_site_type_symbol
_atom_site_fract_x
_atom_site_fract_y
_atom_site_fract_z
C1 C -0.02793(12) 0.4279(2) 0.36552(14)
C2 C -0.04224(11) 0.2987(2) 0.41588(13)
C3 C -0.04492(13) 0.1479(3) 0.36908(15)
C4 C -0.08171(11) 0.3025(2) 0.35932(13)
C5 C -0.05897(13) 0.3031(3) 0.46287(15)
C6 C -0.10433(19) 0.2172(4) 0.5027(2)
H1 H -0.0787 0.1942 0.5338
H2 H -0.1151 0.2807 0.5111
C7 C -0.1409(2) 0.1453(5) 0.4883(3)
H3 H -0.1677 0.1723 0.4606
H4 H -0.1483 0.1301 0.5187
H5 H -0.1313 0.0851 0.4759
C8 C -0.13011(14) 0.3292(3) 0.35773(15)
C9 C -0.17036(16) 0.4571(4) 0.3841(2)
H6 H -0.1948 0.4473 0.3496
H7 H -0.1660 0.5287 0.3902
C10 C -0.18462(18) 0.4129(5) 0.4250(2)
H8 H -0.1949 0.3453 0.4153
H9 H -0.2094 0.4517 0.4280
H10 H -0.1589 0.4128 0.4584
C11 C -0.10342(13) 0.1835(3) 0.28132(14)
H11 H -0.1353 0.2050 0.2702
H12 H -0.1036 0.1114 0.2767
C12 C -0.08995(13) 0.4054(3) 0.27740(14)
H13 H -0.0816 0.4730 0.2713
H14 H -0.1230 0.4044 0.2689
C13 C -0.07907(11) 0.3348(3) 0.24018(13)
C14 C -0.08319(12) 0.2306(3) 0.24425(14)
C15 C -0.07025(12) 0.1668(3) 0.21110(14)
C16 C -0.05584(14) 0.2056(3) 0.17297(15)
H15 H -0.0472 0.1631 0.1512
C17 C -0.05448(13) 0.3071(3) 0.16755(15)
H16 H -0.0462 0.3332 0.1407
C18 C -0.06504(12) 0.3723(3) 0.20060(14)
C19 C -0.09284(15) 0.5467(3) 0.18363(15)
C20 C -0.0576(2) -0.0020(3) 0.1894(2)
H17 H -0.0764 0.0056 0.1524
H18 H -0.0604 -0.0693 0.2004
H19 H -0.0259 0.0116 0.1951
C21 C 0.00737(12) 0.1479(3) 0.46369(14)
H20 H -0.0047 0.1607 0.4911
H21 H 0.0045 0.0765 0.4563
C22 C 0.02734(11) 0.4180(2) 0.45836(14)
H22 H 0.0357 0.4833 0.4490
H23 H 0.0197 0.4269 0.4895
C23 C 0.10864(12) 0.3942(3) 0.47487(14)
C24 C 0.12792(12) 0.2461(3) 0.52310(14)
C25 C 0.08568(14) 0.1186(3) 0.46798(14)
C26 C 0.07538(12) 0.2672(2) 0.50877(14)
C27 C 0.15489(14) 0.2177(3) 0.58181(17)
C28 C 0.16703(18) 0.0877(4) 0.64353(18)
H24 H 0.2001 0.0825 0.6529
H25 H 0.1615 0.1330 0.6684
C29 C 0.1482(2) -0.0093(5) 0.6463(3)
H26 H 0.1156 -0.0034 0.6380
H27 H 0.1630 -0.0359 0.6815
H28 H 0.1534 -0.0536 0.6213
C30 C 0.06562(13) 0.2974(3) 0.55811(15)
C31 C 0.0434(6) 0.2521(11) 0.6295(5)
H29 H 0.0739 0.2641 0.6561
H30 H 0.0249 0.3120 0.6262
C32 C 0.0225(4) 0.1693(6) 0.6444(4)
H31 H -0.0060 0.1527 0.6158
H32 H 0.0162 0.1866 0.6753
H33 H 0.0429 0.1127 0.6522
C33 C 0.18954(12) 0.3391(3) 0.50606(15)
H34 H 0.2110 0.3012 0.5355
H35 H 0.2007 0.4077 0.5094
C34 C 0.16870(14) 0.1275(3) 0.48189(17)
H36 H 0.1632 0.0599 0.4677
H37 H 0.1935 0.1248 0.5165
C35 C 0.18967(12) 0.2957(3) 0.45488(15)
C36 C 0.18314(13) 0.1930(3) 0.44562(15)
C37 C 0.18813(14) 0.1517(4) 0.40023(18)
C38 C 0.19751(16) 0.2144(5) 0.36487(19)
H38 H 0.2016 0.1875 0.3354
C39 C 0.20079(15) 0.3156(4) 0.37323(18)
H39 H 0.2057 0.3571 0.3484
C40 C 0.19695(13) 0.3575(4) 0.41771(16)
C41 C 0.22705(15) 0.5270(4) 0.41932(18)
C42 C 0.2224(2) 0.6329(5) 0.4373(3)
C43 C 0.1859(2) 0.0032(5) 0.3497(2)
H40 H 0.1606 0.0258 0.3188
H41 H 0.1843 -0.0683 0.3527
H42 H 0.2145 0.0209 0.3464
C44 C -0.07894(19) 0.6518(4) 0.1741(2)
F1 F -0.1080(5) 0.7178(6) 0.1738(9)
F2 F -0.0384(4) 0.6756(11) 0.2035(7)
F3 F -0.0784(6) 0.6578(7) 0.1254(3)
F4 F 0.2324(5) 0.7037(9) 0.4105(5)
F5 F 0.2527(3) 0.6406(9) 0.4873(3)
F6 F 0.1829(2) 0.6520(10) 0.4391(5)
N1 N -0.01369(9) 0.38300(19) 0.41490(11)
N2 N -0.06633(10) 0.3811(2) 0.33331(11)
N3 N -0.02118(10) 0.2011(2) 0.41584(11)
N4 N -0.08062(10) 0.2050(2) 0.33729(11)
N5 N 0.06750(9) 0.35276(19) 0.47248(11)
N6 N 0.14466(10) 0.3386(2) 0.51016(11)
N7 N 0.12699(10) 0.1650(2) 0.48756(12)
N8 N 0.05483(10) 0.1735(2) 0.48369(11)
N9 N 0.19771(11) 0.4628(3) 0.42579(13)
H43 H 0.1769 0.4870 0.4359
N10 N -0.06003(11) 0.4773(2) 0.19330(12)
H44 H -0.0333 0.4975 0.1953
O1 O -0.00849(8) 0.49735(17) 0.35336(10)
O2 O -0.03455(9) 0.06491(19) 0.35960(11)
O3 O -0.04452(10) 0.3592(2) 0.49901(12)
O4 O -0.08876(9) 0.2308(2) 0.45799(10)
O5 O -0.16348(10) 0.2803(2) 0.33597(13)
O6 O -0.12834(9) 0.4138(2) 0.38372(12)
O7 O 0.11357(8) 0.46707(19) 0.45098(10)
O8 O 0.07593(10) 0.0432(2) 0.44143(11)
O9 O 0.18052(13) 0.2739(2) 0.61380(12)
O10 O 0.14522(10) 0.1260(2) 0.59016(11)
O11 O 0.07587(12) 0.3794(2) 0.57701(12)
O12 O 0.04675(10) 0.2271(2) 0.57648(11)
O13 O -0.13161(10) 0.5329(2) 0.18319(12)
O14 O 0.25754(13) 0.5076(3) 0.40449(17)
O15 O 0.18355(12) 0.0495(3) 0.39581(14)
O16 O -0.07271(10) 0.06631(19) 0.21949(11)
C45 C 0.1970(6) 0.6153(12) 0.2556(12)
H45 H 0.1727 0.6262 0.2212
H46 H 0.1830 0.6137 0.2819
C46 C 0.2300(5) 0.6981(9) 0.2675(7)
H47 H 0.2389 0.7088 0.2375
H48 H 0.2575 0.6802 0.2978
Cl1 Cl 0.22378(14) 0.4995(3) 0.25555(14)
Cl2 Cl 0.20751(18) 0.8082(4) 0.2813(2)
C47? C 0.0291(6) 0.2620(11) 0.6172(6)
C48? C 0.0587(8) 0.2069(18) 0.6636(8)
C49? C 0.2249(9) 0.620(2) 0.2791(9)
C50? C 0.1829(9) 0.6758(16) 0.2478(11)
Cl3? Cl 0.2536(3) 0.5531(8) 0.2450(3)
Cl4? Cl 0.1743(3) 0.7985(7) 0.2663(3)
F7? F -0.0393(6) 0.6615(10) 0.1734(13)
F8? F -0.1089(7) 0.6963(15) 0.1364(10)
F9? F -0.0760(10) 0.7055(11) 0.2165(8)
F10? F 0.2610(6) 0.668(2) 0.4710(8)
F11? F 0.1901(6) 0.6541(18) 0.4541(9)
F12? F 0.2135(9) 0.687(2) 0.3937(7)
H49? H 0.0328 0.3338 0.6227
H50? H -0.0031 0.2444 0.6078
H51? H 0.0687 0.1459 0.6526
H52? H 0.0418 0.1914 0.6857
H53? H 0.0851 0.2471 0.6832
H54? H 0.2168 0.5722 0.3013
H55? H 0.2468 0.6667 0.3027
H56? H 0.1567 0.6359 0.2470
H57? H 0.1816 0.6790 0.2116
loop_
_geom_bond_atom_site_label_1
_geom_bond_atom_site_label_2
_geom_bond_site_symmetry_1
_geom_bond_site_symmetry_2
C1 N1 1_555 1_555
C2 C4 1_555 1_555
C3 N3 1_555 1_555
C4 C8 1_555 1_555
C5 C2 1_555 1_555
C6 H1 1_555 1_555
H2 C6 1_555 1_555
C7 C6 1_555 1_555
H3 C7 1_555 1_555
H4 C7 1_555 1_555
H5 C7 1_555 1_555
C8 O5 1_555 1_555
C9 H6 1_555 1_555
H7 C9 1_555 1_555
C10 C9 1_555 1_555
H8 C10 1_555 1_555
H9 C10 1_555 1_555
H10 C10 1_555 1_555
C11 H11 1_555 1_555
H12 C11 1_555 1_555
C12 H13 1_555 1_555
H14 C12 1_555 1_555
C13 C12 1_555 1_555
C14 C11 1_555 1_555
C15 C14 1_555 1_555
C16 C15 1_555 1_555
H15 C16 1_555 1_555
C17 C16 1_555 1_555
H16 C17 1_555 1_555
C18 C13 1_555 1_555
C19 C44 1_555 1_555
C20 H17 1_555 1_555
H18 C20 1_555 1_555
H19 C20 1_555 1_555
C21 H20 1_555 1_555
H21 C21 1_555 1_555
C22 H22 1_555 1_555
H23 C22 1_555 1_555
C23 N5 1_555 1_555
C24 C26 1_555 1_555
C25 N7 1_555 1_555
C26 C30 1_555 1_555
C27 C24 1_555 1_555
C28 H24 1_555 1_555
H25 C28 1_555 1_555
C29 C28 1_555 1_555
H26 C29 1_555 1_555
H27 C29 1_555 1_555
H28 C29 1_555 1_555
C30 O11 1_555 1_555
C31 H29 1_555 1_555
H30 C31 1_555 1_555
C32 C31 1_555 1_555
H31 C32 1_555 1_555
H32 C32 1_555 1_555
H33 C32 1_555 1_555
C33 H34 1_555 1_555
H35 C33 1_555 1_555
C34 H36 1_555 1_555
H37 C34 1_555 1_555
C35 C33 1_555 1_555
C36 C34 1_555 1_555
C37 C36 1_555 1_555
C38 C37 1_555 1_555
H38 C38 1_555 1_555
C39 C38 1_555 1_555
H39 C39 1_555 1_555
C40 C35 1_555 1_555
C41 C42 1_555 1_555
C42 F4 1_555 1_555
C43 H40 1_555 1_555
H41 C43 1_555 1_555
H42 C43 1_555 1_555
C44 F1 1_555 1_555
F2 C44 1_555 1_555
F3 C44 1_555 1_555
F5 C42 1_555 1_555
F6 C42 1_555 1_555
N1 C2 1_555 1_555
N2 C1 1_555 1_555
N3 C2 1_555 1_555
N4 C3 1_555 1_555
N5 C22 1_555 1_555
N6 C23 1_555 1_555
N7 C24 1_555 1_555
N8 C21 1_555 1_555
N9 C40 1_555 1_555
H43 N9 1_555 1_555
N10 C18 1_555 1_555
H44 N10 1_555 1_555
O1 C1 1_555 1_555
O2 C3 1_555 1_555
O3 C5 1_555 1_555
O4 C5 1_555 1_555
O6 C8 1_555 1_555
O7 C23 1_555 1_555
O8 C25 1_555 1_555
O9 C27 1_555 1_555
O10 C27 1_555 1_555
O12 C30 1_555 1_555
O13 C19 1_555 1_555
O14 C41 1_555 1_555
O15 C37 1_555 1_555
O16 C15 1_555 1_555
C45 H45 1_555 1_555
H46 C45 1_555 1_555
C46 C45 1_555 1_555
H47 C46 1_555 1_555
H48 C46 1_555 1_555
Cl1 C45 1_555 1_555
Cl2 C46 1_555 1_555
C4 N2 1_555 1_555
C4 N4 1_555 1_555
C6 O4 1_555 1_555
C9 O6 1_555 1_555
C11 N4 1_555 1_555
C12 N2 1_555 1_555
C13 C14 1_555 1_555
C17 C18 1_555 1_555
C19 N10 1_555 1_555
C20 O16 1_555 1_555
C21 N3 1_555 1_555
C22 N1 1_555 1_555
C24 N6 1_555 1_555
C25 N8 1_555 1_555
C26 N5 1_555 1_555
C26 N8 1_555 1_555
C28 O10 1_555 1_555
C31 O12 1_555 1_555
C33 N6 1_555 1_555
C34 N7 1_555 1_555
C35 C36 1_555 1_555
C39 C40 1_555 1_555
C41 N9 1_555 1_555
C43 O15 1_555 1_555

#END
