
#######################################################################
#
#                 Cambridge Crystallographic Data Centre
#                                CCDC 
#
#######################################################################
#
# If this CIF has been generated from an entry in the Cambridge 
# Structural Database, then it will include bibliographic, chemical, 
# crystal, experimental, refinement or atomic coordinate data resulting 
# from the CCDC's data processing and validation procedures.
#
#######################################################################

data_UYEWAY02
_chemical_formula_moiety         'C19 H20 N2 O2 S1'
_chemical_name_systematic        
'3,3,6-trimethyl-2-phenyl-3a,4-dihydro-3H-pyrazolo[1,5-b][1,2]benzothiazine 9,9-dioxide'
_symmetry_cell_setting           triclinic
_symmetry_space_group_name_H-M   'P -1'
_symmetry_Int_Tables_number      2
_space_group_name_Hall           '-P 1'
loop_
_symmetry_equiv_pos_site_id
_symmetry_equiv_pos_as_xyz
1 x,y,z
2 -x,-y,-z
_cell_length_a                   9.3100(9)
_cell_length_b                   13.2449(13)
_cell_length_c                   14.8906(15)
_cell_angle_alpha                69.5060(10)
_cell_angle_beta                 77.9270(10)
_cell_angle_gamma                89.1630(10)
_cell_volume                     1678.46
_exptl_crystal_colour            colorless
_exptl_crystal_description       block
_cell_formula_units_Z            4
loop_
_atom_site_label
_atom_site_type_symbol
_atom_site_fract_x
_atom_site_fract_y
_atom_site_fract_z
S1 S 0.31144(3) 0.27853(2) 0.12437(2)
O1 O 0.2267(2) 0.17545(18) 0.18140(17)
O2 O 0.2829(3) 0.33763(16) 0.03242(14)
N1 N 0.53905(18) 0.18774(14) 0.06460(14)
N2 N 0.48928(17) 0.25397(12) 0.12019(12)
C1 C 0.75775(13) 0.14928(10) -0.02637(9)
C2 C 0.69679(15) 0.04495(11) -0.00316(9)
H1 H 0.6021 0.0234 0.0389
C3 C 0.77266(18) -0.02734(11) -0.04071(10)
H2 H 0.7302 -0.0980 -0.0242
C4 C 0.91067(17) 0.00364(12) -0.10240(11)
H3 H 0.9636 -0.0461 -0.1276
C5 C 0.97091(16) 0.10667(13) -0.12713(12)
H4 H 1.0647 0.1281 -0.1704
C6 C 0.89608(15) 0.17967(12) -0.08954(11)
H5 H 0.9391 0.2504 -0.1069
C7 C 0.67495(13) 0.22118(10) 0.01901(9)
C8 C 0.73635(12) 0.30703(9) 0.04980(9)
C9 C 0.82124(19) 0.40326(12) -0.03529(13)
H6 H 0.9207 0.3835 -0.0575
H7 H 0.8275 0.4644 -0.0133
H8 H 0.7700 0.4237 -0.0897
C10 C 0.83111(18) 0.25820(12) 0.12400(11)
H9 H 0.7741 0.1992 0.1802
H10 H 0.8623 0.3138 0.1466
H11 H 0.9180 0.2301 0.0931
C11 C 0.5877(2) 0.35422(19) 0.07951(19)
H12 H 0.5591 0.4043 0.0190
C12 C 0.57461(13) 0.40945(10) 0.15405(10)
H13 H 0.6271 0.3686 0.2056
H14 H 0.6237 0.4829 0.1211
C13 C 0.41763(13) 0.41825(9) 0.20192(9)
C14 C 0.29727(12) 0.35987(9) 0.19684(8)
C15 C 0.15518(13) 0.36532(9) 0.24727(9)
H15 H 0.0755 0.3238 0.2438
C16 C 0.13047(13) 0.43139(10) 0.30250(9)
H16 H 0.0337 0.4347 0.3374
C17 C 0.24668(14) 0.49303(11) 0.30727(10)
C18 C 0.38822(14) 0.48485(11) 0.25769(11)
H17 H 0.4676 0.5260 0.2619
C19 C 0.21910(18) 0.56826(15) 0.36411(14)
H18 H 0.3058 0.5744 0.3900
H19 H 0.1336 0.5397 0.4187
H20 H 0.2000 0.6397 0.3206
S2 S 0.73086(3) 0.19196(2) 0.41945(2)
O5 O 0.61106(16) 0.19644(11) 0.37186(12)
O6 O 0.84138(18) 0.27998(12) 0.37547(12)
N5 N 0.67271(13) 0.17480(9) 0.53756(8)
N6 N 0.59408(14) 0.26346(9) 0.55105(8)
C21 C 0.36937(14) 0.39601(10) 0.60194(9)
H24 H 0.4072 0.4129 0.5336
C22 C 0.28314(15) 0.46797(10) 0.63424(10)
H25 H 0.2633 0.5343 0.5882
C23 C 0.22555(14) 0.44306(11) 0.73436(10)
H26 H 0.1657 0.4921 0.7564
C24 C 0.25561(14) 0.34648(11) 0.80199(10)
H27 H 0.2167 0.3297 0.8702
C25 C 0.34283(14) 0.27450(10) 0.76950(9)
H28 H 0.3629 0.2085 0.8158
C26 C 0.40125(12) 0.29853(9) 0.66909(9)
C27 C 0.49661(13) 0.22457(9) 0.63309(8)
C28 C 0.50581(13) 0.10394(9) 0.68640(8)
C29 C 0.60676(18) 0.08417(15) 0.75885(12)
H29 H 0.7054 0.1172 0.7234
H30 H 0.6124 0.0063 0.7913
H31 H 0.5672 0.1163 0.8083
C30 C 0.35813(15) 0.03940(10) 0.73467(10)
H32 H 0.3144 0.0542 0.7943
H33 H 0.3732 -0.0379 0.7519
H34 H 0.2920 0.0604 0.6888
C31 C 0.57478(16) 0.07523(10) 0.59485(10)
H35 H 0.4964 0.0719 0.5590
C32 C 0.65950(14) -0.02487(9) 0.60902(9)
H36 H 0.5889 -0.0889 0.6360
H37 H 0.7196 -0.0305 0.6579
C33 C 0.75915(13) -0.02628(10) 0.51565(9)
C34 C 0.81076(13) 0.06735(9) 0.43406(9)
C35 C 0.92132(13) 0.06428(10) 0.35596(9)
H38 H 0.9597 0.1290 0.3030
C36 C 0.97462(14) -0.03397(11) 0.35629(10)
H39 H 1.0510 -0.0361 0.3037
C37 C 0.91759(14) -0.12982(11) 0.43288(10)
C38 C 0.81295(15) -0.12436(10) 0.51227(10)
H40 H 0.7768 -0.1891 0.5659
C39 C 0.96789(17) -0.23743(11) 0.42962(12)
H41 H 1.0609 -0.2511 0.4514
H42 H 0.9822 -0.2365 0.3622
H43 H 0.8932 -0.2946 0.4731
H21? H 0.6079 0.4757 0.0959
H22? H 0.6384 0.4041 0.2008
N3? N 0.5355(3) 0.2384(2) 0.0120(2)
N4? N 0.4862(3) 0.3133(2) 0.06014(19)
C20? C 0.5911(3) 0.3137(3) 0.1231(3)
H23? H 0.5729 0.2461 0.1824
O3? O 0.2859(4) 0.1713(3) 0.1819(3)
O4? O 0.2199(4) 0.3213(3) 0.0485(2)
H44? H 0.7003 -0.0689 0.6657
H45? H 0.5615 -0.0584 0.6160
N7? N 0.5904(11) 0.1560(7) 0.5189(7)
N8? N 0.5163(12) 0.2461(8) 0.5353(8)
C40? C 0.6415(11) 0.0899(7) 0.6112(7)
H46? H 0.7346 0.1224 0.6160
O7? O 0.6560(14) 0.2249(10) 0.3355(8)
O8? O 0.8311(14) 0.2717(9) 0.4163(10)
C41? C 0.5864(16) 0.1080(13) 0.7660(10)
H47? H 0.6644 0.1662 0.7369
H48? H 0.6297 0.0389 0.7927
H49? H 0.5161 0.1215 0.8189
loop_
_geom_bond_atom_site_label_1
_geom_bond_atom_site_label_2
_geom_bond_site_symmetry_1
_geom_bond_site_symmetry_2
S1 O1 1_555 1_555
O2 S1 1_555 1_555
N1 N2 1_555 1_555
N2 S1 1_555 1_555
C1 C2 1_555 1_555
C2 H1 1_555 1_555
C3 C2 1_555 1_555
H2 C3 1_555 1_555
C4 C3 1_555 1_555
H3 C4 1_555 1_555
C5 C4 1_555 1_555
H4 C5 1_555 1_555
C6 C1 1_555 1_555
H5 C6 1_555 1_555
C7 N1 1_555 1_555
C8 C7 1_555 1_555
C9 C8 1_555 1_555
H6 C9 1_555 1_555
H7 C9 1_555 1_555
H8 C9 1_555 1_555
C10 C8 1_555 1_555
H9 C10 1_555 1_555
H10 C10 1_555 1_555
H11 C10 1_555 1_555
C11 N2 1_555 1_555
H12 C11 1_555 1_555
C12 C11 1_555 1_555
H13 C12 1_555 1_555
H14 C12 1_555 1_555
C13 C12 1_555 1_555
C14 S1 1_555 1_555
C15 C14 1_555 1_555
H15 C15 1_555 1_555
C16 C15 1_555 1_555
H16 C16 1_555 1_555
C17 C16 1_555 1_555
C18 C13 1_555 1_555
H17 C18 1_555 1_555
C19 C17 1_555 1_555
H18 C19 1_555 1_555
H19 C19 1_555 1_555
H20 C19 1_555 1_555
S2 O5 1_555 1_555
O6 S2 1_555 1_555
N5 S2 1_555 1_555
N6 N5 1_555 1_555
C21 H24 1_555 1_555
C22 C21 1_555 1_555
H25 C22 1_555 1_555
C23 C22 1_555 1_555
H26 C23 1_555 1_555
C24 C23 1_555 1_555
H27 C24 1_555 1_555
C25 C24 1_555 1_555
H28 C25 1_555 1_555
C26 C21 1_555 1_555
C27 N6 1_555 1_555
C28 C27 1_555 1_555
C29 C28 1_555 1_555
H29 C29 1_555 1_555
H30 C29 1_555 1_555
H31 C29 1_555 1_555
C30 C28 1_555 1_555
H32 C30 1_555 1_555
H33 C30 1_555 1_555
H34 C30 1_555 1_555
C31 N5 1_555 1_555
H35 C31 1_555 1_555
C32 C31 1_555 1_555
H36 C32 1_555 1_555
H37 C32 1_555 1_555
C33 C32 1_555 1_555
C34 S2 1_555 1_555
C35 C34 1_555 1_555
H38 C35 1_555 1_555
C36 C35 1_555 1_555
H39 C36 1_555 1_555
C37 C36 1_555 1_555
C38 C33 1_555 1_555
H40 C38 1_555 1_555
C39 C37 1_555 1_555
H41 C39 1_555 1_555
H42 C39 1_555 1_555
H43 C39 1_555 1_555
C1 C7 1_555 1_555
C5 C6 1_555 1_555
C8 C11 1_555 1_555
C13 C14 1_555 1_555
C17 C18 1_555 1_555
C25 C26 1_555 1_555
C26 C27 1_555 1_555
C28 C31 1_555 1_555
C33 C34 1_555 1_555
C37 C38 1_555 1_555

#END
