
#######################################################################
#
#                 Cambridge Crystallographic Data Centre
#                                CCDC 
#
#######################################################################
#
# If this CIF has been generated from an entry in the Cambridge 
# Structural Database, then it will include bibliographic, chemical, 
# crystal, experimental, refinement or atomic coordinate data resulting 
# from the CCDC's data processing and validation procedures.
#
#######################################################################

data_UYIFOY
_chemical_formula_moiety         'C15 H19 O6 P1'
_chemical_name_systematic        
'rac-anti-Diethyl (hydroxy(5-oxo-2,5-dihydrofuran-2-yl)phenylmethyl)phosphonate'
_symmetry_cell_setting           triclinic
_symmetry_space_group_name_H-M   'P -1'
_symmetry_Int_Tables_number      2
_space_group_name_Hall           '-P 1'
loop_
_symmetry_equiv_pos_site_id
_symmetry_equiv_pos_as_xyz
1 x,y,z
2 -x,-y,-z
_cell_length_a                   7.7790(16)
_cell_length_b                   8.9198(18)
_cell_length_c                   12.746(3)
_cell_angle_alpha                99.79(3)
_cell_angle_beta                 105.99(3)
_cell_angle_gamma                107.38(3)
_cell_volume                     780.083
_cell_formula_units_Z            2
loop_
_atom_site_label
_atom_site_type_symbol
_atom_site_fract_x
_atom_site_fract_y
_atom_site_fract_z
P1 P 0.05299(6) 0.96857(5) 0.19800(4)
O1 O -0.00402(16) 0.82752(14) 0.25453(10)
O2 O 0.13654(17) 1.12653(14) 0.29972(10)
O3 O -0.10334(17) 0.96748(15) 0.10034(10)
O4 O 0.31353(17) 1.09361(13) 0.11613(10)
H1 H 0.2373 1.0753 0.0502
O5 O 0.16584(16) 0.65291(13) 0.09370(10)
O6 O 0.28893(18) 0.45542(14) 0.08509(11)
C1 C 0.2582(2) 0.95415(19) 0.15704(14)
C2 C 0.4285(2) 0.9687(2) 0.25845(14)
C3 C 0.4155(2) 0.8557(2) 0.32180(15)
H2 H 0.3000 0.7636 0.2998
C4 C 0.5691(3) 0.8763(2) 0.41649(15)
H3 H 0.5585 0.7980 0.4587
C5 C 0.7376(3) 1.0098(2) 0.44990(15)
H4 H 0.8428 1.0235 0.5149
C6 C 0.7520(3) 1.1226(2) 0.38852(16)
H5 H 0.8677 1.2147 0.4115
C7 C 0.5985(2) 1.1034(2) 0.29266(15)
H6 H 0.6101 1.1822 0.2508
C8 C 0.1880(2) 0.79871(19) 0.05596(14)
H7 H 0.0615 0.7875 0.0016
C9 C 0.3252(2) 0.8016(2) -0.00619(14)
H8 H 0.3677 0.8822 -0.0429
C10 C 0.3783(2) 0.6749(2) -0.00222(14)
H9 H 0.4656 0.6499 -0.0352
C11 C 0.2810(2) 0.5790(2) 0.06124(15)
C12 C -0.2040(2) 0.7231(2) 0.22591(16)
H10 H -0.2617 0.6668 0.1436
H11 H -0.2787 0.7894 0.2450
C13 C -0.2066(3) 0.6009(2) 0.29309(19)
H12 H -0.1314 0.5368 0.2740
H13 H -0.3394 0.5278 0.2750
H14 H -0.1508 0.6579 0.3743
C14 C 0.1394(3) 1.2822(2) 0.27632(17)
H15 H 0.0080 1.2845 0.2542
H16 H 0.1882 1.2964 0.2133
C15 C 0.2655(4) 1.4137(2) 0.3799(2)
H17 H 0.2209 1.3945 0.4430
H18 H 0.2627 1.5187 0.3680
H19 H 0.3971 1.4155 0.3979
loop_
_geom_bond_atom_site_label_1
_geom_bond_atom_site_label_2
_geom_bond_site_symmetry_1
_geom_bond_site_symmetry_2
P1 O1 1_555 1_555
O1 C12 1_555 1_555
O2 P1 1_555 1_555
O3 P1 1_555 1_555
O4 H1 1_555 1_555
O5 C8 1_555 1_555
O6 C11 1_555 1_555
C1 P1 1_555 1_555
C2 C1 1_555 1_555
C3 C2 1_555 1_555
H2 C3 1_555 1_555
C4 C3 1_555 1_555
H3 C4 1_555 1_555
C5 C4 1_555 1_555
H4 C5 1_555 1_555
C6 C5 1_555 1_555
H5 C6 1_555 1_555
C7 C2 1_555 1_555
H6 C7 1_555 1_555
C8 C1 1_555 1_555
H7 C8 1_555 1_555
C9 C8 1_555 1_555
H8 C9 1_555 1_555
C10 C9 1_555 1_555
H9 C10 1_555 1_555
C11 O5 1_555 1_555
C12 H10 1_555 1_555
H11 C12 1_555 1_555
C13 C12 1_555 1_555
H12 C13 1_555 1_555
H13 C13 1_555 1_555
H14 C13 1_555 1_555
C14 O2 1_555 1_555
H15 C14 1_555 1_555
H16 C14 1_555 1_555
C15 C14 1_555 1_555
H17 C15 1_555 1_555
H18 C15 1_555 1_555
H19 C15 1_555 1_555
O4 C1 1_555 1_555
C6 C7 1_555 1_555
C10 C11 1_555 1_555

#END
