
#######################################################################
#
#                 Cambridge Crystallographic Data Centre
#                                CCDC 
#
#######################################################################
#
# If this CIF has been generated from an entry in the Cambridge 
# Structural Database, then it will include bibliographic, chemical, 
# crystal, experimental, refinement or atomic coordinate data resulting 
# from the CCDC's data processing and validation procedures.
#
#######################################################################

data_UYIHUG
_chemical_formula_moiety         'C21 H29 N1 O3 S2'
_chemical_name_systematic        
2-Methyl-N-(3-methyl-1-phenyl-2-(phenylsulfonyl)butyl)propane-2-sulfinamide
_symmetry_cell_setting           monoclinic
_symmetry_space_group_name_H-M   'P 21'
_symmetry_Int_Tables_number      4
_space_group_name_Hall           'P 2yb'
loop_
_symmetry_equiv_pos_site_id
_symmetry_equiv_pos_as_xyz
1 x,y,z
2 -x,1/2+y,-z
_cell_length_a                   10.0665(17)
_cell_length_b                   8.4236(14)
_cell_length_c                   12.792(2)
_cell_angle_alpha                90
_cell_angle_beta                 96.133(3)
_cell_angle_gamma                90
_cell_volume                     1078.5
_exptl_crystal_colour            colorless
_exptl_crystal_description       prismatic
_cell_formula_units_Z            2
loop_
_atom_site_label
_atom_site_type_symbol
_atom_site_fract_x
_atom_site_fract_y
_atom_site_fract_z
S1 S 0.18676(4) 0.33606(5) 0.48118(3)
S2 S 0.33222(4) 0.08406(5) 0.21480(3)
O1 O 0.07587(13) 0.42787(15) 0.52101(10)
O2 O 0.36304(13) -0.04070(15) 0.14400(11)
O3 O 0.40811(11) 0.09545(17) 0.31629(9)
N1 N 0.12968(13) 0.18430(17) 0.40658(10)
H1 H 0.1125 0.0912 0.4334
C1 C 0.10980(15) 0.21541(19) 0.29322(12)
H2 H 0.1683 0.3075 0.2797
C2 C 0.15535(14) 0.0742(2) 0.22789(12)
H3 H 0.1104 0.0913 0.1552
C3 C 0.10707(17) -0.0911(2) 0.26107(14)
H4 H 0.0229 -0.0721 0.2943
C4 C 0.0681(2) -0.1957(2) 0.16489(15)
H5 H 0.1474 -0.2178 0.1291
H6 H 0.0013 -0.1406 0.1166
H7 H 0.0306 -0.2959 0.1874
C5 C 0.20114(18) -0.1799(2) 0.34298(14)
H8 H 0.1573 -0.2768 0.3643
H9 H 0.2231 -0.1118 0.4045
H10 H 0.2833 -0.2081 0.3126
C6 C 0.26353(16) 0.2238(2) 0.59567(13)
C7 C 0.3830(2) 0.1326(3) 0.56326(16)
H11 H 0.4276 0.0766 0.6244
H12 H 0.4459 0.2070 0.5361
H13 H 0.3526 0.0556 0.5084
C8 C 0.1592(2) 0.1169(2) 0.63620(14)
H14 H 0.1421 0.0262 0.5887
H15 H 0.0763 0.1768 0.6395
H16 H 0.1918 0.0787 0.7066
C9 C 0.30974(19) 0.3500(3) 0.67751(13)
H17 H 0.2316 0.4010 0.7027
H18 H 0.3634 0.4300 0.6456
H19 H 0.3638 0.2999 0.7368
C10 C -0.03220(15) 0.26045(19) 0.24882(12)
C11 C -0.04734(16) 0.3414(2) 0.15343(12)
H20 H 0.0295 0.3708 0.1208
C12 C -0.17374(18) 0.3798(2) 0.10544(13)
H21 H -0.1831 0.4355 0.0405
C13 C -0.28580(16) 0.3366(2) 0.15248(13)
H22 H -0.3723 0.3622 0.1197
C14 C -0.27203(17) 0.2565(2) 0.24674(15)
H23 H -0.3492 0.2265 0.2786
C15 C -0.14509(16) 0.2190(2) 0.29591(13)
H24 H -0.1362 0.1651 0.3615
C16 C 0.34923(16) 0.2685(2) 0.15024(13)
C17 C 0.32972(19) 0.2764(3) 0.04149(14)
H25 H 0.3077 0.1838 0.0009
C18 C 0.3429(2) 0.4218(3) -0.00685(16)
H26 H 0.3301 0.4290 -0.0814
C19 C 0.37429(19) 0.5564(3) 0.05201(16)
H27 H 0.3818 0.6557 0.0180
C20 C 0.39505(17) 0.5469(2) 0.16099(15)
H28 H 0.4176 0.6394 0.2014
C21 C 0.38277(16) 0.4025(2) 0.21054(14)
H29 H 0.3971 0.3950 0.2850
loop_
_geom_bond_atom_site_label_1
_geom_bond_atom_site_label_2
_geom_bond_site_symmetry_1
_geom_bond_site_symmetry_2
S1 O1 1_555 1_555
S2 O2 1_555 1_555
O3 S2 1_555 1_555
N1 S1 1_555 1_555
H1 N1 1_555 1_555
C1 N1 1_555 1_555
H2 C1 1_555 1_555
C2 S2 1_555 1_555
H3 C2 1_555 1_555
C3 C2 1_555 1_555
H4 C3 1_555 1_555
C4 C3 1_555 1_555
H5 C4 1_555 1_555
H6 C4 1_555 1_555
H7 C4 1_555 1_555
C5 C3 1_555 1_555
H8 C5 1_555 1_555
H9 C5 1_555 1_555
H10 C5 1_555 1_555
C6 S1 1_555 1_555
C7 C6 1_555 1_555
H11 C7 1_555 1_555
H12 C7 1_555 1_555
H13 C7 1_555 1_555
C8 C6 1_555 1_555
H14 C8 1_555 1_555
H15 C8 1_555 1_555
H16 C8 1_555 1_555
C9 C6 1_555 1_555
H17 C9 1_555 1_555
H18 C9 1_555 1_555
H19 C9 1_555 1_555
C10 C1 1_555 1_555
C11 C10 1_555 1_555
H20 C11 1_555 1_555
C12 C11 1_555 1_555
H21 C12 1_555 1_555
C13 C12 1_555 1_555
H22 C13 1_555 1_555
C14 C13 1_555 1_555
H23 C14 1_555 1_555
C15 C10 1_555 1_555
H24 C15 1_555 1_555
C16 S2 1_555 1_555
C17 C16 1_555 1_555
H25 C17 1_555 1_555
C18 C17 1_555 1_555
H26 C18 1_555 1_555
C19 C18 1_555 1_555
H27 C19 1_555 1_555
C20 C19 1_555 1_555
H28 C20 1_555 1_555
C21 C16 1_555 1_555
H29 C21 1_555 1_555
C1 C2 1_555 1_555
C14 C15 1_555 1_555
C20 C21 1_555 1_555

#END
