
#######################################################################
#
#                 Cambridge Crystallographic Data Centre
#                                CCDC 
#
#######################################################################
#
# If this CIF has been generated from an entry in the Cambridge 
# Structural Database, then it will include bibliographic, chemical, 
# crystal, experimental, refinement or atomic coordinate data resulting 
# from the CCDC's data processing and validation procedures.
#
#######################################################################

data_UYITIH
_chemical_name_common            
3,13-bis(ethoxycarbonyl)-2,12-diethyl-[2,3-dihydro[1,4]dioxepino[5,6.7-ef]]-8,8,18,18-tetramethylbacteriochlorin
_chemical_formula_moiety         'C36 H44 N4 O6'
_chemical_name_systematic        
'diethyl 13,23-diethyl-19,19,28,28-tetramethyl-3,6-dioxa-9,25,26,27-tetra-azahexacyclo[20.2.1.1^7,10^.1^12,15^.1^17,20^.0^2,8^]octacosa-1(24),2(8),9,11,13,15,17(26),20,22-nonaene-14,24-dicarboxylate'
_symmetry_cell_setting           triclinic
_symmetry_space_group_name_H-M   'P -1'
_symmetry_Int_Tables_number      2
_space_group_name_Hall           '-P 1'
loop_
_symmetry_equiv_pos_site_id
_symmetry_equiv_pos_as_xyz
1 x,y,z
2 -x,-y,-z
_cell_length_a                   9.5968(3)
_cell_length_b                   11.9267(4)
_cell_length_c                   14.6179(5)
_cell_angle_alpha                92.699(2)
_cell_angle_beta                 100.439(2)
_cell_angle_gamma                102.167(2)
_cell_volume                     1602.14
_exptl_crystal_colour            'dark red pink'
_exptl_crystal_description       block
_cell_formula_units_Z            2
loop_
_atom_site_label
_atom_site_type_symbol
_atom_site_fract_x
_atom_site_fract_y
_atom_site_fract_z
O1 O 0.10398(7) 0.13560(5) 0.50182(4)
O2 O 0.27048(7) 0.05836(5) 0.59107(4)
O3 O 0.17664(6) -0.10027(5) 0.41600(4)
O4 O 0.23306(8) -0.32962(5) 0.36216(5)
O5 O 0.90241(7) 0.08122(5) -0.05818(4)
O6 O 0.81500(6) -0.09940(5) -0.12442(4)
N1 N 0.44533(7) 0.11482(5) 0.33613(4)
H1 H 0.4792 0.0867 0.2901
N2 N 0.39167(7) -0.12124(5) 0.23648(4)
N3 N 0.59224(7) -0.02768(5) 0.11434(4)
H2 H 0.5577 0.0013 0.1596
N4 N 0.64319(7) 0.20707(5) 0.21550(4)
C1 C 0.48124(8) 0.22825(6) 0.37109(5)
C2 C 0.40389(8) 0.23812(6) 0.44450(5)
C3 C 0.32331(8) 0.12931(6) 0.45146(5)
C4 C 0.34905(8) 0.05164(6) 0.38321(5)
C5 C 0.28160(8) -0.06522(6) 0.36387(5)
C6 C 0.30026(8) -0.14431(6) 0.29675(5)
C7 C 0.20977(12) -0.26709(8) 0.28203(7)
H3 H 0.1043 -0.2671 0.2632
C8 C 0.26373(8) -0.32013(6) 0.20051(5)
C9 C 0.37733(8) -0.21832(6) 0.18064(5)
C10 C 0.45493(8) -0.22749(6) 0.11035(5)
H4 H 0.438 -0.302 0.0788
C11 C 0.55454(8) -0.14162(6) 0.08002(5)
C12 C 0.63459(8) -0.15431(6) 0.00828(5)
C13 C 0.71838(8) -0.04543(6) 0.00142(5)
C14 C 0.69059(8) 0.03442(6) 0.06864(5)
C15 C 0.74926(8) 0.15271(6) 0.08474(5)
H5 H 0.8136 0.1838 0.0454
C16 C 0.72618(8) 0.23097(6) 0.15048(5)
C17 C 0.79220(9) 0.35830(6) 0.15347(5)
H6 H 0.7427 0.393 0.1003
H7 H 0.8972 0.3721 0.1522
C18 C 0.76716(8) 0.40706(6) 0.24676(5)
C19 C 0.65415(8) 0.30633(6) 0.26878(5)
C20 C 0.57833(8) 0.31594(6) 0.33968(5)
H8 H 0.5939 0.3906 0.3707
C21 C 0.40151(8) 0.34528(6) 0.50119(5)
H9 H 0.4953 0.4013 0.506
H10 H 0.3906 0.3264 0.5651
C22 C 0.27721(10) 0.40047(7) 0.45821(6)
H11 H 0.2931 0.4267 0.3976
H12 H 0.2744 0.4663 0.500
H13 H 0.1847 0.3437 0.4496
C23 C 0.21874(8) 0.10615(6) 0.51536(5)
C24 C 0.17713(10) 0.03993(7) 0.65986(5)
H14 H 0.2052 -0.0188 0.7007
H15 H 0.0749 0.0106 0.6274
C25 C 0.18955(10) 0.15050(8) 0.71869(6)
H16 H 0.2922 0.1846 0.7446
H17 H 0.1369 0.1341 0.7698
H18 H 0.1476 0.2045 0.6799
C26 C 0.20464(9) -0.18592(7) 0.47842(5)
H19 H 0.1564 -0.1787 0.5321
H20 H 0.3105 -0.1727 0.5027
C27 C 0.15000(12) -0.30524(7) 0.43015(6)
H21 H 0.1535 -0.3619 0.4774
H22 H 0.0472 -0.3145 0.3988
C28 C 0.13654(10) -0.35477(8) 0.11624(6)
H23 H 0.0957 -0.2878 0.1007
H24 H 0.0612 -0.416 0.1319
H25 H 0.1718 -0.3826 0.0625
C29 C 0.32892(10) -0.42435(7) 0.22359(6)
H26 H 0.3627 -0.4519 0.1691
H27 H 0.2547 -0.4859 0.2399
H28 H 0.411 -0.4021 0.2764
C30 C 0.63102(9) -0.26755(6) -0.04210(5)
H29 H 0.6301 -0.2575 -0.109
H30 H 0.5408 -0.3233 -0.0374
C31 C 0.76308(11) -0.31558(8) -0.00110(7)
H31 H 0.8525 -0.261 -0.0065
H32 H 0.758 -0.3893 -0.0355
H33 H 0.7631 -0.3271 0.0648
C32 C 0.82107(8) -0.01238(6) -0.06150(5)
C33 C 0.91667(9) -0.07748(7) -0.18676(5)
H34 H 1.017 -0.0495 -0.1508
H35 H 0.893 -0.0186 -0.2289
C34 C 0.90286(10) -0.19020(8) -0.24212(6)
H36 H 0.9334 -0.2459 -0.2
H37 H 0.9647 -0.1785 -0.2889
H38 H 0.8014 -0.2197 -0.2735
C35 C 0.71596(11) 0.51961(7) 0.23884(7)
H39 H 0.6253 0.507 0.1925
H40 H 0.7904 0.578 0.2193
H41 H 0.6993 0.5461 0.2996
C36 C 0.90565(9) 0.42425(7) 0.32227(6)
H42 H 0.8862 0.4513 0.382
H43 H 0.9833 0.4814 0.3045
H44 H 0.9358 0.351 0.3284
O7? O 0.1172(6) -0.3077(4) 0.3249(4)
C37? C 0.2566(11) -0.2749(5) 0.3044(5)
H45? H 0.3301 -0.3003 0.3517
H46? H 0.0605 -0.3424 0.4515
H47? H 0.2238 -0.3509 0.4488
loop_
_geom_bond_atom_site_label_1
_geom_bond_atom_site_label_2
_geom_bond_site_symmetry_1
_geom_bond_site_symmetry_2
O1 C23 1_555 1_555
O2 C23 1_555 1_555
O3 C5 1_555 1_555
O4 C7 1_555 1_555
O5 C32 1_555 1_555
O6 C32 1_555 1_555
N1 H1 1_555 1_555
N2 C6 1_555 1_555
N3 H2 1_555 1_555
N4 C16 1_555 1_555
C1 N1 1_555 1_555
C2 C1 1_555 1_555
C3 C2 1_555 1_555
C4 N1 1_555 1_555
C5 C4 1_555 1_555
C6 C5 1_555 1_555
C7 C6 1_555 1_555
H3 C7 1_555 1_555
C8 C7 1_555 1_555
C9 N2 1_555 1_555
C10 C9 1_555 1_555
H4 C10 1_555 1_555
C11 N3 1_555 1_555
C12 C11 1_555 1_555
C13 C12 1_555 1_555
C14 N3 1_555 1_555
C15 C14 1_555 1_555
H5 C15 1_555 1_555
C16 C15 1_555 1_555
C17 C16 1_555 1_555
H6 C17 1_555 1_555
H7 C17 1_555 1_555
C18 C17 1_555 1_555
C19 N4 1_555 1_555
C20 C1 1_555 1_555
H8 C20 1_555 1_555
C21 C2 1_555 1_555
H9 C21 1_555 1_555
H10 C21 1_555 1_555
C22 C21 1_555 1_555
H11 C22 1_555 1_555
H12 C22 1_555 1_555
H13 C22 1_555 1_555
C23 C3 1_555 1_555
C24 O2 1_555 1_555
H14 C24 1_555 1_555
H15 C24 1_555 1_555
C25 C24 1_555 1_555
H16 C25 1_555 1_555
H17 C25 1_555 1_555
H18 C25 1_555 1_555
C26 O3 1_555 1_555
H19 C26 1_555 1_555
H20 C26 1_555 1_555
C27 O4 1_555 1_555
H21 C27 1_555 1_555
H22 C27 1_555 1_555
C28 C8 1_555 1_555
H23 C28 1_555 1_555
H24 C28 1_555 1_555
H25 C28 1_555 1_555
C29 C8 1_555 1_555
H26 C29 1_555 1_555
H27 C29 1_555 1_555
H28 C29 1_555 1_555
C30 C12 1_555 1_555
H29 C30 1_555 1_555
H30 C30 1_555 1_555
C31 C30 1_555 1_555
H31 C31 1_555 1_555
H32 C31 1_555 1_555
H33 C31 1_555 1_555
C32 C13 1_555 1_555
C33 O6 1_555 1_555
H34 C33 1_555 1_555
H35 C33 1_555 1_555
C34 C33 1_555 1_555
H36 C34 1_555 1_555
H37 C34 1_555 1_555
H38 C34 1_555 1_555
C35 C18 1_555 1_555
H39 C35 1_555 1_555
H40 C35 1_555 1_555
H41 C35 1_555 1_555
C36 C18 1_555 1_555
H42 C36 1_555 1_555
H43 C36 1_555 1_555
H44 C36 1_555 1_555
C3 C4 1_555 1_555
C8 C9 1_555 1_555
C10 C11 1_555 1_555
C13 C14 1_555 1_555
C18 C19 1_555 1_555
C19 C20 1_555 1_555
C26 C27 1_555 1_555

#END
