
#######################################################################
#
#                 Cambridge Crystallographic Data Centre
#                                CCDC 
#
#######################################################################
#
# If this CIF has been generated from an entry in the Cambridge 
# Structural Database, then it will include bibliographic, chemical, 
# crystal, experimental, refinement or atomic coordinate data resulting 
# from the CCDC's data processing and validation procedures.
#
#######################################################################

data_UYIVOP
_chemical_formula_moiety         'C29 H29 N1 O1'
_chemical_name_systematic        
N-(5,8-dimethyl-6,7-diphenyl-1-naphthyl)-2,2-dimethylpropanamide
_symmetry_cell_setting           orthorhombic
_symmetry_space_group_name_H-M   'P c c n'
_symmetry_Int_Tables_number      56
_space_group_name_Hall           '-P 2ab 2ac'
loop_
_symmetry_equiv_pos_site_id
_symmetry_equiv_pos_as_xyz
1 x,y,z
2 1/2-x,1/2-y,z
3 -x,1/2+y,1/2-z
4 1/2+x,-y,1/2-z
5 -x,-y,-z
6 1/2+x,1/2+y,-z
7 x,1/2-y,1/2+z
8 1/2-x,y,1/2+z
_cell_length_a                   19.087(3)
_cell_length_b                   22.931(3)
_cell_length_c                   10.4593(15)
_cell_angle_alpha                90
_cell_angle_beta                 90
_cell_angle_gamma                90
_cell_volume                     4577.87
_exptl_crystal_colour            colorless
_exptl_crystal_description       needle
_cell_formula_units_Z            8
_exptl_crystal_recrystallization_method hexane/dichloromethane
loop_
_atom_site_label
_atom_site_type_symbol
_atom_site_fract_x
_atom_site_fract_y
_atom_site_fract_z
O1 O 0.23785(7) 0.62988(6) 1.13502(13)
N1 N 0.23032(8) 0.62470(6) 0.92005(15)
H1 H 0.2520 0.6312 0.8472
C1 C 0.34019(11) 0.34495(11) 0.5783(2)
H2 H 0.3742 0.3199 0.5414
C2 C 0.33671(11) 0.40243(11) 0.5421(2)
H3 H 0.3692 0.4174 0.4816
C3 C 0.28622(10) 0.43825(10) 0.59332(19)
H4 H 0.2842 0.4779 0.5672
C4 C 0.23821(9) 0.41780(9) 0.68237(18)
C5 C 0.24319(10) 0.35997(9) 0.7209(2)
H5 H 0.2117 0.3451 0.7833
C6 C 0.29409(11) 0.32381(10) 0.6684(2)
H6 H 0.2971 0.2843 0.6948
C7 C 0.10184(11) 0.39113(11) 0.5031(2)
H7 H 0.1196 0.4249 0.4618
C8 C 0.08499(12) 0.34231(12) 0.4308(2)
H8 H 0.0910 0.3431 0.3407
C9 C 0.05997(12) 0.29337(12) 0.4885(3)
H9 H 0.0489 0.2599 0.4389
C10 C 0.05079(11) 0.29255(10) 0.6194(3)
H10 H 0.0334 0.2585 0.6603
C11 C 0.06695(10) 0.34145(9) 0.6910(2)
H11 H 0.0600 0.3408 0.7809
C12 C 0.09307(9) 0.39119(9) 0.63398(19)
C13 C 0.18310(9) 0.45780(8) 0.73468(18)
C14 C 0.11105(10) 0.44399(8) 0.71195(18)
C15 C 0.05875(9) 0.47882(8) 0.76155(19)
C16 C 0.07737(10) 0.52943(8) 0.83392(19)
C17 C 0.14882(9) 0.54522(8) 0.85102(17)
C18 C 0.20253(9) 0.50686(8) 0.80303(18)
C19 C 0.27916(9) 0.51540(8) 0.83483(19)
H12 H 0.3037 0.4792 0.8233
H13 H 0.2836 0.5279 0.9221
H14 H 0.2988 0.5445 0.7794
C20 C -0.01765(10) 0.46604(9) 0.7360(2)
H15 H -0.0214 0.4321 0.6828
H16 H -0.0387 0.4987 0.6934
H17 H -0.0414 0.4592 0.8155
C21 C 0.02383(10) 0.56429(9) 0.8882(2)
H18 H -0.0237 0.5530 0.8779
C22 C 0.03898(11) 0.61350(9) 0.9547(2)
H19 H 0.0024 0.6356 0.9929
C23 C 0.10863(10) 0.63165(9) 0.9667(2)
H20 H 0.1190 0.6667 1.0110
C24 C 0.16189(9) 0.59949(8) 0.91531(18)
C25 C 0.26391(10) 0.63927(8) 1.02943(19)
C26 C 0.33725(10) 0.66517(8) 1.01587(18)
C27 C 0.38916(11) 0.61505(10) 1.0336(2)
H21 H 0.3809 0.5966 1.1146
H22 H 0.4361 0.6300 1.0312
H23 H 0.3830 0.5871 0.9662
C28 C 0.34917(12) 0.69517(11) 0.8876(2)
H24 H 0.3475 0.6667 0.8203
H25 H 0.3942 0.7138 0.8877
H26 H 0.3133 0.7239 0.8741
C29 C 0.34843(11) 0.70937(9) 1.1238(2)
H27 H 0.3158 0.7409 1.1145
H28 H 0.3954 0.7243 1.1198
H29 H 0.3412 0.6906 1.2048
loop_
_geom_bond_atom_site_label_1
_geom_bond_atom_site_label_2
_geom_bond_site_symmetry_1
_geom_bond_site_symmetry_2
O1 C25 1_555 1_555
N1 H1 1_555 1_555
C1 H2 1_555 1_555
C2 C1 1_555 1_555
H3 C2 1_555 1_555
C3 C2 1_555 1_555
H4 C3 1_555 1_555
C4 C3 1_555 1_555
C5 C4 1_555 1_555
H5 C5 1_555 1_555
C6 C1 1_555 1_555
H6 C6 1_555 1_555
C7 H7 1_555 1_555
C8 C7 1_555 1_555
H8 C8 1_555 1_555
C9 C8 1_555 1_555
H9 C9 1_555 1_555
C10 C9 1_555 1_555
H10 C10 1_555 1_555
C11 C10 1_555 1_555
H11 C11 1_555 1_555
C12 C7 1_555 1_555
C13 C4 1_555 1_555
C14 C12 1_555 1_555
C15 C14 1_555 1_555
C16 C15 1_555 1_555
C17 C16 1_555 1_555
C18 C13 1_555 1_555
C19 C18 1_555 1_555
H12 C19 1_555 1_555
H13 C19 1_555 1_555
H14 C19 1_555 1_555
C20 C15 1_555 1_555
H15 C20 1_555 1_555
H16 C20 1_555 1_555
H17 C20 1_555 1_555
C21 C16 1_555 1_555
H18 C21 1_555 1_555
C22 C21 1_555 1_555
H19 C22 1_555 1_555
C23 C22 1_555 1_555
H20 C23 1_555 1_555
C24 N1 1_555 1_555
C25 N1 1_555 1_555
C26 C25 1_555 1_555
C27 C26 1_555 1_555
H21 C27 1_555 1_555
H22 C27 1_555 1_555
H23 C27 1_555 1_555
C28 C26 1_555 1_555
H24 C28 1_555 1_555
H25 C28 1_555 1_555
H26 C28 1_555 1_555
C29 C26 1_555 1_555
H27 C29 1_555 1_555
H28 C29 1_555 1_555
H29 C29 1_555 1_555
C5 C6 1_555 1_555
C11 C12 1_555 1_555
C13 C14 1_555 1_555
C17 C18 1_555 1_555
C17 C24 1_555 1_555
C23 C24 1_555 1_555

#END
