
#######################################################################
#
#                 Cambridge Crystallographic Data Centre
#                                CCDC 
#
#######################################################################
#
# If this CIF has been generated from an entry in the Cambridge 
# Structural Database, then it will include bibliographic, chemical, 
# crystal, experimental, refinement or atomic coordinate data resulting 
# from the CCDC's data processing and validation procedures.
#
#######################################################################

data_UYOPEE
_chemical_formula_moiety         'C29 H22 Br2 O8,0.5(C1 H2 Cl2)'
_chemical_name_systematic        
'4-Methoxy-8-oxo-12-(2-oxopropyl)-11-oxatricyclo-[7.2.1.0^2,7^]dodeca-2,4,6-triene-3,6-diyl bis(3-bromobenzoate) dichloromethane solvate'
_symmetry_cell_setting           monoclinic
_symmetry_space_group_name_H-M   'C 2'
_symmetry_Int_Tables_number      5
_space_group_name_Hall           'C 2y'
loop_
_symmetry_equiv_pos_site_id
_symmetry_equiv_pos_as_xyz
1 x,y,z
2 1/2+x,1/2+y,z
3 -x,y,-z
4 1/2-x,1/2+y,-z
_cell_length_a                   13.8367(3)
_cell_length_b                   9.64360(10)
_cell_length_c                   20.9872(4)
_cell_angle_alpha                90
_cell_angle_beta                 91.4960(9)
_cell_angle_gamma                90
_cell_volume                     2799.49
_exptl_crystal_colour            colorless
_exptl_crystal_description       plate
_chemical_melting_point          171.6-173.5deg.C
_cell_formula_units_Z            4
loop_
_atom_site_label
_atom_site_type_symbol
_atom_site_fract_x
_atom_site_fract_y
_atom_site_fract_z
Br1 Br -0.14655(3) 0.56051(4) -0.10993(2)
Br2 Br -0.14243(4) -0.67667(6) -0.570407(17)
O1 O -0.17249(14) -0.4329(2) -0.34483(9)
O2 O -0.15292(14) 0.03170(18) -0.19016(9)
O3 O -0.1353(2) -0.5841(3) -0.26640(11)
O4 O -0.31951(15) -0.1006(3) -0.20733(13)
C1 C -0.1428(2) 0.2652(3) -0.11534(14)
H1 H -0.1456 0.2788 -0.1607
C2 C -0.1423(3) 0.3781(4) -0.07507(17)
C3 C -0.1504(2) -0.6269(3) -0.43780(14)
H2 H -0.1565 -0.5306 -0.4488
C4 C -0.14680(19) -0.6661(3) -0.37385(13)
C5 C -0.0724(2) -0.1328(3) -0.25649(13)
C6 C -0.2481(2) -0.2727(3) -0.27634(14)
H3 H -0.3089 -0.3181 -0.2844
C7 C 0.0224(2) -0.0539(3) -0.24882(13)
H4 H 0.0184 0.0128 -0.2151
C8 C -0.1553(2) -0.0867(3) -0.22879(13)
C9 C 0.0182(2) -0.3109(3) -0.31751(15)
C10 C -0.24385(19) -0.1554(3) -0.23800(14)
O5 O 0.04281(16) 0.0161(2) -0.30742(11)
C11 C -0.1423(2) 0.0056(3) -0.12618(15)
C12 C -0.1397(2) 0.1333(3) -0.08756(15)
C13 C -0.07492(19) -0.2546(3) -0.29327(13)
C14 C 0.0879(2) -0.0829(4) -0.34814(16)
H5 H 0.0461 -0.1018 -0.3844
H6 H 0.1481 -0.0461 -0.3623
C15 C -0.1440(2) -0.7292(4) -0.48347(16)
O6 O 0.02532(17) -0.4233(3) -0.34253(13)
C16 C -0.1635(2) -0.3208(3) -0.30299(13)
O7 O 0.1087(3) -0.0575(3) -0.11589(14)
C17 C -0.1379(3) -0.8677(4) -0.46748(19)
H7 H -0.1343 -0.9366 -0.5003
C18 C 0.1065(2) -0.1538(3) -0.23977(14)
H8 H 0.1642 -0.0990 -0.2352
C20 C -0.1490(2) -0.5609(3) -0.32198(14)
C21 C 0.1016(2) -0.2542(3) -0.18459(16)
H10 H 0.0424 -0.3058 -0.1881
H11 H 0.1555 -0.3167 -0.1859
C22 C 0.1046(2) -0.1817(4) -0.12019(16)
C23 C -0.1400(4) 0.3632(4) -0.0095(2)
H12 H -0.1422 0.4443 0.0169
C24 C -0.1362(4) 0.2323(5) 0.01655(18)
H13 H -0.1348 0.2201 0.0620
C25 C 0.1044(2) -0.2150(4) -0.30766(16)
H14 H 0.1632 -0.2593 -0.3199
C26 C -0.1369(3) -0.9048(4) -0.4038(2)
H15 H -0.1341 -1.0011 -0.3923
C27 C -0.4112(3) -0.1675(5) -0.2144(2)
H16 H -0.4582 -0.1173 -0.1906
H17 H -0.4062 -0.2605 -0.1985
H18 H -0.4310 -0.1696 -0.2586
C28 C -0.1399(3) -0.8038(4) -0.35687(18)
H19 H -0.1375 -0.8287 -0.3126
C29 C -0.1351(3) 0.1178(4) -0.02147(16)
H20 H -0.1308 0.0267 -0.0032
O8 O -0.1373(3) -0.1093(3) -0.10574(12)
C30 C 0.1030(4) -0.2726(6) -0.0633(2)
H21 H 0.0993 -0.3677 -0.0767
H22 H 0.0480 -0.2506 -0.0382
H23 H 0.1612 -0.2585 -0.0382
Cl1 Cl -0.10214(8) -0.25362(12) -0.48728(7)
C19 C 0.0000 -0.3557(5) -0.5000
H9 H -0.0095 -0.4140 -0.5370
Cl1B Cl 0.10214(8) -0.25362(12) -0.51272(7)
H9B H 0.0095 -0.4140 -0.4630
loop_
_geom_bond_atom_site_label_1
_geom_bond_atom_site_label_2
_geom_bond_site_symmetry_1
_geom_bond_site_symmetry_2
Br1 C2 1_555 1_555
Br2 C15 1_555 1_555
Cl1 C19 1_555 1_555
O1 C16 1_555 1_555
O2 C8 1_555 1_555
O3 C20 1_555 1_555
O4 C10 1_555 1_555
C1 H1 1_555 1_555
C2 C1 1_555 1_555
C3 H2 1_555 1_555
C4 C3 1_555 1_555
C5 C7 1_555 1_555
C6 H3 1_555 1_555
C7 H4 1_555 1_555
C8 C5 1_555 1_555
C9 C13 1_555 1_555
C10 C6 1_555 1_555
O5 C7 1_555 1_555
C11 O2 1_555 1_555
C12 C1 1_555 1_555
C13 C5 1_555 1_555
C14 O5 1_555 1_555
H5 C14 1_555 1_555
H6 C14 1_555 1_555
C15 C3 1_555 1_555
O6 C9 1_555 1_555
C16 C6 1_555 1_555
O7 C22 1_555 1_555
C17 C15 1_555 1_555
H7 C17 1_555 1_555
C18 C7 1_555 1_555
H8 C18 1_555 1_555
C19 H9 1_555 1_555
C20 O1 1_555 1_555
C21 C18 1_555 1_555
H10 C21 1_555 1_555
H11 C21 1_555 1_555
C22 C21 1_555 1_555
C23 C2 1_555 1_555
H12 C23 1_555 1_555
C24 C23 1_555 1_555
H13 C24 1_555 1_555
C25 C9 1_555 1_555
H14 C25 1_555 1_555
C26 C17 1_555 1_555
H15 C26 1_555 1_555
C27 O4 1_555 1_555
H16 C27 1_555 1_555
H17 C27 1_555 1_555
H18 C27 1_555 1_555
C28 C4 1_555 1_555
H19 C28 1_555 1_555
C29 C12 1_555 1_555
H20 C29 1_555 1_555
O8 C11 1_555 1_555
C30 C22 1_555 1_555
H21 C30 1_555 1_555
H22 C30 1_555 1_555
H23 C30 1_555 1_555
Cl1B C19 1_555 1_555
H9B C19 1_555 1_555
C4 C20 1_555 1_555
C8 C10 1_555 1_555
C11 C12 1_555 1_555
C13 C16 1_555 1_555
C14 C25 1_555 1_555
C18 C25 1_555 1_555
C24 C29 1_555 1_555
C26 C28 1_555 1_555

#END
