
#######################################################################
#
#                 Cambridge Crystallographic Data Centre
#                                CCDC 
#
#######################################################################
#
# If this CIF has been generated from an entry in the Cambridge 
# Structural Database, then it will include bibliographic, chemical, 
# crystal, experimental, refinement or atomic coordinate data resulting 
# from the CCDC's data processing and validation procedures.
#
#######################################################################

data_UYUTUE
_chemical_formula_moiety         'C25 H17 Cl2 N3 O3 S1'
_chemical_name_systematic        
6-Anilino-5-(2,4-dichlorobenzoyl)-4-(4-nitrophenyl)-3,4-dihydro-2H-thiopyran-3-carbonitrile
_symmetry_cell_setting           monoclinic
_symmetry_space_group_name_H-M   'P 21/c'
_symmetry_Int_Tables_number      14
_space_group_name_Hall           '-P 2ybc'
loop_
_symmetry_equiv_pos_site_id
_symmetry_equiv_pos_as_xyz
1 x,y,z
2 -x,1/2+y,1/2-z
3 -x,-y,-z
4 x,1/2-y,1/2+z
_cell_length_a                   13.668(3)
_cell_length_b                   8.4803(17)
_cell_length_c                   21.999(4)
_cell_angle_alpha                90
_cell_angle_beta                 113.57(3)
_cell_angle_gamma                90
_cell_volume                     2337.15
_exptl_crystal_colour            yellow
_exptl_crystal_description       platelet
_cell_formula_units_Z            4
loop_
_atom_site_label
_atom_site_type_symbol
_atom_site_fract_x
_atom_site_fract_y
_atom_site_fract_z
Cl1 Cl -0.12069(6) 0.42884(9) 0.07903(4)
S1 S 0.31775(5) 0.57966(9) 0.22923(3)
Cl2 Cl -0.25665(7) -0.17012(11) 0.05146(4)
O1 O 0.09676(15) 0.3364(2) 0.03698(8)
O2 O 0.53359(15) -0.1990(2) 0.33595(11)
O3 O 0.44814(16) -0.2462(3) 0.39746(10)
N1 N 0.24328(15) 0.5328(3) 0.10084(9)
H1 H 0.1995 0.4908 0.0646
N2 N 0.45910(16) -0.1750(3) 0.35205(11)
N3 N 0.03650(19) 0.6698(3) 0.22601(14)
C1 C 0.23200(16) 0.4853(3) 0.15588(11)
C2 C 0.15885(16) 0.3690(3) 0.15319(10)
C3 C 0.15186(16) 0.3036(3) 0.21568(10)
H2 H 0.0796 0.2619 0.2033
C4 C 0.16928(17) 0.4333(3) 0.26819(11)
H3 H 0.1589 0.3858 0.3058
C5 C 0.28298(18) 0.4961(3) 0.29346(11)
H4 H 0.3320 0.4107 0.3147
H5 H 0.2920 0.5761 0.3268
C6 C 0.31687(18) 0.6423(3) 0.09346(11)
C7 C 0.37442(18) 0.5933(3) 0.05783(12)
H6 H 0.3664 0.4913 0.0410
C8 C 0.4447(2) 0.6976(5) 0.04720(14)
H7 H 0.4846 0.6645 0.0238
C9 C 0.4554(2) 0.8481(5) 0.07090(15)
H8 H 0.5022 0.9177 0.0636
C10 C 0.3975(3) 0.8954(4) 0.10509(16)
H9 H 0.4055 0.9979 0.1214
C11 C 0.3265(3) 0.7957(4) 0.11653(15)
H10 H 0.2862 0.8310 0.1393
C12 C 0.09184(18) 0.3031(3) 0.09091(11)
C13 C 0.00720(18) 0.1834(3) 0.08703(10)
C14 C 0.0268(2) 0.0230(3) 0.08666(13)
C15 C -0.0538(2) -0.0870(3) 0.07686(13)
H11 H -0.0399 -0.1945 0.0775
C16 C -0.1544(2) -0.0335(3) 0.06614(11)
C17 C -0.1765(2) 0.1233(3) 0.06644(11)
H12 H -0.2448 0.1576 0.0594
C18 C -0.09443(18) 0.2300(3) 0.07744(11)
C19 C 0.23022(16) 0.1697(3) 0.24793(10)
C20 C 0.31945(18) 0.1429(3) 0.23385(12)
H14 H 0.3289 0.2020 0.2010
C21 C 0.39413(18) 0.0303(3) 0.26775(12)
H15 H 0.4536 0.0134 0.2581
C22 C 0.37928(17) -0.0556(3) 0.31565(11)
C23 C 0.29173(19) -0.0350(3) 0.33057(13)
H16 H 0.2828 -0.0959 0.3631
C24 C 0.21736(18) 0.0776(3) 0.29637(13)
H17 H 0.1575 0.0921 0.3059
C25 C 0.09307(19) 0.5646(3) 0.24312(12)
H18 H 0.0944 -0.0132 0.0930
H13? H -0.1114 0.3358 0.0787
Cl3? Cl 0.1277(3) -0.0441(6) 0.0926(2)
loop_
_geom_bond_atom_site_label_1
_geom_bond_atom_site_label_2
_geom_bond_site_symmetry_1
_geom_bond_site_symmetry_2
Cl1 C18 1_555 1_555
S1 C1 1_555 1_555
Cl2 C16 1_555 1_555
O1 C12 1_555 1_555
O2 N2 1_555 1_555
O3 N2 1_555 1_555
N1 H1 1_555 1_555
N2 C22 1_555 1_555
N3 C25 1_555 1_555
C1 N1 1_555 1_555
C2 C1 1_555 1_555
C3 C2 1_555 1_555
H2 C3 1_555 1_555
C4 C3 1_555 1_555
H3 C4 1_555 1_555
C5 S1 1_555 1_555
H4 C5 1_555 1_555
H5 C5 1_555 1_555
C6 N1 1_555 1_555
C7 C6 1_555 1_555
H6 C7 1_555 1_555
C8 C7 1_555 1_555
H7 C8 1_555 1_555
C9 C8 1_555 1_555
H8 C9 1_555 1_555
C10 C9 1_555 1_555
H9 C10 1_555 1_555
C11 C6 1_555 1_555
H10 C11 1_555 1_555
C12 C2 1_555 1_555
C13 C12 1_555 1_555
C14 C13 1_555 1_555
C15 C14 1_555 1_555
H11 C15 1_555 1_555
C16 C15 1_555 1_555
C17 C16 1_555 1_555
H12 C17 1_555 1_555
C18 C13 1_555 1_555
C19 C3 1_555 1_555
C20 C19 1_555 1_555
H14 C20 1_555 1_555
C21 C20 1_555 1_555
H15 C21 1_555 1_555
C22 C21 1_555 1_555
C23 C22 1_555 1_555
H16 C23 1_555 1_555
C24 C19 1_555 1_555
H17 C24 1_555 1_555
C25 C4 1_555 1_555
H18 C14 1_555 1_555
C4 C5 1_555 1_555
C10 C11 1_555 1_555
C17 C18 1_555 1_555
C23 C24 1_555 1_555

#END
