
#######################################################################
#
#                 Cambridge Crystallographic Data Centre
#                                CCDC 
#
#######################################################################
#
# If this CIF has been generated from an entry in the Cambridge 
# Structural Database, then it will include bibliographic, chemical, 
# crystal, experimental, refinement or atomic coordinate data resulting 
# from the CCDC's data processing and validation procedures.
#
#######################################################################

data_UZAFUX
_chemical_formula_moiety         'C31 H17 N5'
_chemical_name_systematic        
11-(Acridin-9-yl)dipyrido[3,2-a:2',3'-c]phenazine
_symmetry_cell_setting           triclinic
_symmetry_space_group_name_H-M   'P -1'
_symmetry_Int_Tables_number      2
_space_group_name_Hall           '-P 1'
loop_
_symmetry_equiv_pos_site_id
_symmetry_equiv_pos_as_xyz
1 x,y,z
2 -x,-y,-z
_cell_length_a                   8.5784(9)
_cell_length_b                   8.9833(10)
_cell_length_c                   15.6576(17)
_cell_angle_alpha                73.908(2)
_cell_angle_beta                 78.427(2)
_cell_angle_gamma                77.002(2)
_cell_volume                     1117.24
_exptl_crystal_colour            yellow
_exptl_crystal_description       'rectangular block'
_cell_formula_units_Z            2
loop_
_atom_site_label
_atom_site_type_symbol
_atom_site_fract_x
_atom_site_fract_y
_atom_site_fract_z
N1 N 0.2794(4) 0.0957(3) 0.5595(2)
N2 N 0.5145(4) 0.0908(3) 0.6518(2)
N3 N 0.5009(3) 0.4676(3) 0.30584(17)
N4 N 0.7478(3) 0.4667(3) 0.40243(17)
N5 N 1.2367(3) 1.0120(3) 0.06590(17)
C1 C 0.1613(5) 0.1041(5) 0.5145(3)
H1 H 0.0835 0.0421 0.5430
C2 C 0.1427(5) 0.1961(5) 0.4293(3)
H2 H 0.0566 0.1958 0.4015
C3 C 0.2574(4) 0.2884(4) 0.3873(3)
H3 H 0.2502 0.3530 0.3300
C4 C 0.3839(4) 0.2842(4) 0.4314(2)
C5 C 0.5087(4) 0.3810(4) 0.3888(2)
C6 C 0.6322(4) 0.3795(3) 0.4372(2)
C7 C 0.6367(4) 0.2788(3) 0.5293(2)
C8 C 0.7540(4) 0.2747(4) 0.5794(2)
H4 H 0.8338 0.3360 0.5554
C9 C 0.7518(5) 0.1799(5) 0.6645(3)
H5 H 0.8291 0.1748 0.6997
C10 C 0.6296(5) 0.0917(5) 0.6963(3)
H6 H 0.6286 0.0272 0.7541
C11 C 0.5172(4) 0.1845(4) 0.5682(2)
C12 C 0.3897(4) 0.1884(4) 0.5180(2)
C13 C 0.6177(4) 0.5569(4) 0.2691(2)
C14 C 0.6173(4) 0.6501(4) 0.1809(2)
H7 H 0.5367 0.6511 0.1488
C15 C 0.7335(4) 0.7391(4) 0.1418(2)
H8 H 0.7313 0.8001 0.0832
C16 C 0.8569(4) 0.7401(4) 0.1886(2)
C17 C 0.8577(4) 0.6512(4) 0.2755(2)
H9 H 0.9378 0.6533 0.3071
C18 C 0.7391(4) 0.5566(3) 0.3177(2)
C19 C 0.9841(4) 0.8371(4) 0.1441(2)
C20 C 0.9829(4) 0.9790(4) 0.1667(2)
C21 C 0.8608(5) 1.0410(4) 0.2299(2)
H10 H 0.7751 0.9887 0.2578
C22 C 0.8689(5) 1.1759(4) 0.2497(3)
H11 H 0.7885 1.2156 0.2912
C23 C 0.9972(5) 1.2570(5) 0.2083(3)
H12 H 1.0007 1.3496 0.2229
C24 C 1.1139(5) 1.2029(4) 0.1484(2)
H13 H 1.1971 1.2590 0.1215
C25 C 1.1138(4) 1.0623(4) 0.1248(2)
C26 C 1.2364(4) 0.8786(4) 0.0430(2)
C27 C 1.3647(5) 0.8282(5) -0.0205(3)
H14 H 1.4470 0.8867 -0.0442
C28 C 1.3702(5) 0.6969(5) -0.0475(3)
H15 H 1.4552 0.6658 -0.0898
C29 C 1.2464(6) 0.6061(5) -0.0114(3)
H16 H 1.2509 0.5160 -0.0307
C30 C 1.1211(5) 0.6479(4) 0.0508(2)
H17 H 1.0420 0.5855 0.0742
C31 C 1.1103(4) 0.7862(4) 0.0803(2)
loop_
_geom_bond_atom_site_label_1
_geom_bond_atom_site_label_2
_geom_bond_site_symmetry_1
_geom_bond_site_symmetry_2
N1 C1 1_555 1_555
N2 C10 1_555 1_555
N3 C5 1_555 1_555
N4 C6 1_555 1_555
N5 C25 1_555 1_555
C1 H1 1_555 1_555
C2 C1 1_555 1_555
H2 C2 1_555 1_555
C3 C2 1_555 1_555
H3 C3 1_555 1_555
C4 C3 1_555 1_555
C5 C4 1_555 1_555
C6 C5 1_555 1_555
C7 C6 1_555 1_555
C8 C7 1_555 1_555
H4 C8 1_555 1_555
C9 C8 1_555 1_555
H5 C9 1_555 1_555
C10 C9 1_555 1_555
H6 C10 1_555 1_555
C11 N2 1_555 1_555
C12 N1 1_555 1_555
C13 N3 1_555 1_555
C14 C13 1_555 1_555
H7 C14 1_555 1_555
C15 C14 1_555 1_555
H8 C15 1_555 1_555
C16 C15 1_555 1_555
C17 C16 1_555 1_555
H9 C17 1_555 1_555
C18 N4 1_555 1_555
C19 C16 1_555 1_555
C20 C19 1_555 1_555
C21 C20 1_555 1_555
H10 C21 1_555 1_555
C22 C21 1_555 1_555
H11 C22 1_555 1_555
C23 C22 1_555 1_555
H12 C23 1_555 1_555
C24 C23 1_555 1_555
H13 C24 1_555 1_555
C25 C20 1_555 1_555
C26 N5 1_555 1_555
C27 C26 1_555 1_555
H14 C27 1_555 1_555
C28 C27 1_555 1_555
H15 C28 1_555 1_555
C29 C28 1_555 1_555
H16 C29 1_555 1_555
C30 C29 1_555 1_555
H17 C30 1_555 1_555
C31 C19 1_555 1_555
C4 C12 1_555 1_555
C7 C11 1_555 1_555
C11 C12 1_555 1_555
C13 C18 1_555 1_555
C17 C18 1_555 1_555
C24 C25 1_555 1_555
C26 C31 1_555 1_555
C30 C31 1_555 1_555

#END
