
#######################################################################
#
#                 Cambridge Crystallographic Data Centre
#                                CCDC 
#
#######################################################################
#
# If this CIF has been generated from an entry in the Cambridge 
# Structural Database, then it will include bibliographic, chemical, 
# crystal, experimental, refinement or atomic coordinate data resulting 
# from the CCDC's data processing and validation procedures.
#
#######################################################################

data_UZATUM
_chemical_formula_moiety         'C20 H16 Br6 N4 P2'
_chemical_name_systematic        
2,4-bis(2,2'-bipyridine)-2,2,4,4-tetrabromo-1,3,2,4-dibromadiphosphetane
_symmetry_cell_setting           triclinic
_symmetry_space_group_name_H-M   'P -1'
_symmetry_Int_Tables_number      2
_space_group_name_Hall           '-P 1'
loop_
_symmetry_equiv_pos_site_id
_symmetry_equiv_pos_as_xyz
1 x,y,z
2 -x,-y,-z
_cell_length_a                   8.1837(17)
_cell_length_b                   8.9425(19)
_cell_length_c                   10.555(2)
_cell_angle_alpha                106.863(3)
_cell_angle_beta                 99.682(3)
_cell_angle_gamma                112.700(3)
_cell_volume                     646.729
_exptl_crystal_colour            red
_exptl_crystal_description       prism
_cell_formula_units_Z            1
_chemical_properties_physical    'air- and moisture-sensitive'
loop_
_atom_site_label
_atom_site_type_symbol
_atom_site_fract_x
_atom_site_fract_y
_atom_site_fract_z
Br1 Br 0.24269(14) 0.05539(12) 1.25020(10)
P1 P 0.6136(3) 0.2101(3) 1.2029(2)
Br2 Br 0.45744(12) 0.21121(12) 0.96005(9)
Br3 Br 0.78178(14) 0.24751(12) 1.42808(10)
N1 N 0.6537(9) 0.4409(9) 1.2776(7)
N2 N 0.8390(9) 0.3123(9) 1.1707(7)
C1 C 0.5371(13) 0.4863(12) 1.3339(9)
H1 H 0.4292 0.3979 1.3383
C2 C 0.5704(13) 0.6584(11) 1.3856(9)
H2 H 0.4876 0.6896 1.4272
C3 C 0.7252(12) 0.7858(11) 1.3767(9)
H3 H 0.7481 0.9051 1.4108
C4 C 0.8472(12) 0.7410(11) 1.3184(9)
H4 H 0.9541 0.8278 1.3115
C5 C 0.8088(11) 0.5655(11) 1.2702(8)
C6 C 0.9181(11) 0.4899(11) 1.2077(8)
C7 C 1.0851(12) 0.5761(12) 1.1871(9)
H5 H 1.1445 0.7006 1.2168
C8 C 1.1648(12) 0.4771(13) 1.1221(9)
H6 H 1.2771 0.5331 1.1029
C9 C 1.0801(13) 0.2960(13) 1.0848(10)
H7 H 1.1352 0.2280 1.0413
C10 C 0.9170(12) 0.2160(11) 1.1111(9)
H8 H 0.8594 0.0925 1.0872
Br1A Br 0.75731(14) -0.05539(12) 0.74980(10)
P1A P 0.3864(3) -0.2101(3) 0.7971(2)
Br2A Br 0.54256(12) -0.21121(12) 1.03995(9)
Br3A Br 0.21822(14) -0.24751(12) 0.57192(10)
N1A N 0.3463(9) -0.4409(9) 0.7224(7)
N2A N 0.1610(9) -0.3123(9) 0.8293(7)
C1A C 0.4629(13) -0.4863(12) 0.6661(9)
H1A H 0.5708 -0.3979 0.6617
C2A C 0.4296(13) -0.6584(11) 0.6144(9)
H2A H 0.5124 -0.6896 0.5728
C3A C 0.2748(12) -0.7858(11) 0.6233(9)
H3A H 0.2519 -0.9051 0.5892
C4A C 0.1528(12) -0.7410(11) 0.6816(9)
H4A H 0.0459 -0.8278 0.6885
C5A C 0.1912(11) -0.5655(11) 0.7298(8)
C6A C 0.0819(11) -0.4899(11) 0.7923(8)
C7A C -0.0851(12) -0.5761(12) 0.8129(9)
H5A H -0.1445 -0.7006 0.7832
C8A C -0.1648(12) -0.4771(13) 0.8779(9)
H6A H -0.2771 -0.5331 0.8971
C9A C -0.0801(13) -0.2960(13) 0.9152(10)
H7A H -0.1352 -0.2280 0.9587
C10A C 0.0830(12) -0.2160(11) 0.8889(9)
H8A H 0.1406 -0.0925 0.9128
loop_
_geom_bond_atom_site_label_1
_geom_bond_atom_site_label_2
_geom_bond_site_symmetry_1
_geom_bond_site_symmetry_2
Br1 P1 1_555 1_555
P1 Br2 1_555 1_555
Br2 P1A 1_555 1_555
Br3 P1 1_555 1_555
N1 P1 1_555 1_555
N2 P1 1_555 1_555
C1 N1 1_555 1_555
H1 C1 1_555 1_555
C2 C1 1_555 1_555
H2 C2 1_555 1_555
C3 C2 1_555 1_555
H3 C3 1_555 1_555
C4 C3 1_555 1_555
H4 C4 1_555 1_555
C5 N1 1_555 1_555
C6 N2 1_555 1_555
C7 C6 1_555 1_555
H5 C7 1_555 1_555
C8 C7 1_555 1_555
H6 C8 1_555 1_555
C9 C8 1_555 1_555
H7 C9 1_555 1_555
C10 N2 1_555 1_555
H8 C10 1_555 1_555
Br1A P1A 1_555 1_555
P1A Br2A 1_555 1_555
Br2A P1 1_555 1_555
Br3A P1A 1_555 1_555
N1A P1A 1_555 1_555
N2A P1A 1_555 1_555
C1A N1A 1_555 1_555
H1A C1A 1_555 1_555
C2A C1A 1_555 1_555
H2A C2A 1_555 1_555
C3A C2A 1_555 1_555
H3A C3A 1_555 1_555
C4A C3A 1_555 1_555
H4A C4A 1_555 1_555
C5A N1A 1_555 1_555
C6A N2A 1_555 1_555
C7A C6A 1_555 1_555
H5A C7A 1_555 1_555
C8A C7A 1_555 1_555
H6A C8A 1_555 1_555
C9A C8A 1_555 1_555
H7A C9A 1_555 1_555
C10A N2A 1_555 1_555
H8A C10A 1_555 1_555
C4 C5 1_555 1_555
C5 C6 1_555 1_555
C9 C10 1_555 1_555
C4A C5A 1_555 1_555
C5A C6A 1_555 1_555
C9A C10A 1_555 1_555

#END
