
#######################################################################
#
#                 Cambridge Crystallographic Data Centre
#                                CCDC 
#
#######################################################################
#
# If this CIF has been generated from an entry in the Cambridge 
# Structural Database, then it will include bibliographic, chemical, 
# crystal, experimental, refinement or atomic coordinate data resulting 
# from the CCDC's data processing and validation procedures.
#
#######################################################################

data_UZESAV
_chemical_formula_moiety         'C44 H50 O6'
_chemical_name_systematic        
'adamantyl 2,3,4,6-tetra-O-benzyl-\b-D-glucopyranoside'
_symmetry_cell_setting           orthorhombic
_symmetry_space_group_name_H-M   'P 21 21 21'
_symmetry_Int_Tables_number      19
_space_group_name_Hall           'P 2ac 2ab'
loop_
_symmetry_equiv_pos_site_id
_symmetry_equiv_pos_as_xyz
1 x,y,z
2 1/2+x,1/2-y,-z
3 -x,1/2+y,1/2-z
4 1/2-x,-y,1/2+z
_cell_length_a                   9.4392(3)
_cell_length_b                   12.6456(5)
_cell_length_c                   31.1780(10)
_cell_angle_alpha                90
_cell_angle_beta                 90
_cell_angle_gamma                90
_cell_volume                     3721.54
_exptl_crystal_colour            white
_exptl_crystal_description       Block
_cell_formula_units_Z            4
_exptl_crystal_recrystallization_method 'Ethyl acetate and Hexane'
loop_
_atom_site_label
_atom_site_type_symbol
_atom_site_fract_x
_atom_site_fract_y
_atom_site_fract_z
O1 O 0.17249(19) 0.59616(13) 0.97659(6)
O2 O 0.0719(2) 0.83353(14) 0.91750(5)
O3 O 0.1037(2) 1.04578(15) 0.89305(6)
O4 O 0.14070(18) 0.95500(14) 1.02179(5)
O5 O 0.08857(19) 0.73649(15) 1.04250(5)
O6 O 0.1106(2) 0.66707(13) 0.89204(5)
C1 C 0.2977(5) 0.2233(3) 1.0012(3)
H1 H 0.3462 0.1615 1.0081
C2 C 0.2638(5) 0.2438(3) 0.95928(19)
H2 H 0.2857 0.1956 0.9378
C3 C 0.1959(4) 0.3387(3) 0.94969(12)
H3 H 0.1743 0.3549 0.9213
C4 C 0.1611(3) 0.4076(2) 0.98128(10)
C5 C 0.0830(4) 0.5076(2) 0.97111(14)
H4 H 0.0492 0.5052 0.9417
H5 H 0.0014 0.5141 0.9898
C6 C 0.1023(3) 0.6936(2) 0.96754(8)
C7 C 0.1470(3) 0.73670(19) 0.92439(7)
C8 C 0.1146(3) 0.9141(2) 0.94674(8)
C9 C 0.0406(3) 1.0134(2) 0.93238(8)
H6 H -0.0597 0.9999 0.9283
H7 H 0.0511 1.0684 0.9538
C10 C 0.0276(4) 1.1251(2) 0.87120(10)
H8 H 0.0308 1.1908 0.8873
H9 H -0.0708 1.1042 0.8680
C11 C 0.0938(3) 1.1402(2) 0.82797(9)
C12 C 0.1144(5) 1.0576(3) 0.80100(11)
H10 H 0.0885 0.9899 0.8097
C13 C 0.1728(6) 1.0719(4) 0.76103(12)
H11 H 0.1860 1.0142 0.7430
C14 C 0.2106(5) 1.1680(5) 0.74802(14)
H12 H 0.2496 1.1769 0.7209
C15 C 0.2620(5) 0.2909(4) 1.03254(17)
H13 H 0.2837 0.2750 1.0609
C16 C 0.1939(4) 0.3829(3) 1.02275(12)
H14 H 0.1696 0.4295 1.0446
C17 C 0.0785(3) 0.88228(19) 0.99267(7)
C18 C 0.0434(3) 1.0131(3) 1.04715(9)
H15 H -0.0342 0.9675 1.0557
H16 H 0.0045 1.0708 1.0304
C19 C 0.1152(3) 1.0564(2) 1.08625(8)
C20 C 0.0485(5) 1.1342(3) 1.10966(12)
H17 H -0.0400 1.1586 1.1011
C21 C 0.1116(6) 1.1760(4) 1.14567(14)
H18 H 0.0649 1.2285 1.1611
C22 C 0.2377(6) 1.1430(4) 1.15879(14)
H19 H 0.2801 1.1727 1.1829
C23 C 0.3031(5) 1.0661(4) 1.13675(14)
H20 H 0.3908 1.0416 1.1460
C24 C 0.2425(4) 1.0227(3) 1.10059(10)
H21 H 0.2898 0.9694 1.0858
C25 C 0.1388(3) 0.7726(2) 1.00196(8)
C26 C 0.1955(4) 0.7085(3) 1.07207(9)
H22 H 0.2292 0.7717 1.0865
H23 H 0.2747 0.6776 1.0567
C27 C 0.1434(3) 0.6320(2) 1.10456(8)
C28 C 0.2274(4) 0.6084(3) 1.13951(9)
H24 H 0.3146 0.6418 1.1426
C29 C 0.1846(5) 0.5365(3) 1.16968(11)
H25 H 0.2430 0.5212 1.1929
C30 C 0.0560(5) 0.4871(3) 1.16578(12)
H26 H 0.0266 0.4392 1.1866
C31 C -0.0289(4) 0.5082(3) 1.13142(11)
H27 H -0.1156 0.4741 1.1284
C32 C 0.0156(3) 0.5810(2) 1.10118(9)
H28 H -0.0427 0.5959 1.0779
C33 C 0.1930(6) 1.2519(4) 0.77354(15)
H29 H 0.2205 1.3187 0.7643
C34 C 0.1328(5) 1.2389(3) 0.81438(12)
H30 H 0.1195 1.2972 0.8321
C35 C 0.1978(3) 0.66662(19) 0.85354(7)
C36 C 0.3482(3) 0.6314(3) 0.86321(9)
H31 H 0.3468 0.5642 0.8782
H32 H 0.3944 0.6831 0.8815
C37 C 0.4307(4) 0.6202(3) 0.82085(11)
C38 C 0.3594(4) 0.5379(3) 0.79284(11)
H33 H 0.4120 0.5296 0.7663
H34 H 0.3581 0.4703 0.8075
C39 C 0.2110(4) 0.5723(3) 0.78316(10)
C40 C 0.1289(4) 0.5828(2) 0.82524(9)
H35 H 0.0316 0.6025 0.8192
H36 H 0.1283 0.5154 0.8401
C41 C 0.2106(4) 0.6763(3) 0.76009(9)
H37 H 0.1140 0.6970 0.7536
H38 H 0.2619 0.6698 0.7333
C42 C 0.2805(4) 0.7600(3) 0.78821(10)
C43 C 0.4311(4) 0.7254(3) 0.79917(12)
H39 H 0.4869 0.7213 0.7731
H40 H 0.4745 0.7774 0.8179
C44 C 0.1963(4) 0.7709(2) 0.83001(8)
H41 H 0.2382 0.8254 0.8478
H42 H 0.0994 0.7911 0.8237
H43 H 0.169(3) 0.511(2) 0.7637(9)
H44 H 0.292(4) 0.823(3) 0.7761(9)
H45 H 0.252(3) 0.7499(18) 0.9250(7)
H46 H 0.212(3) 0.9214(18) 0.9440(7)
H47 H -0.022(3) 0.8759(18) 0.9959(7)
H48 H 0.001(3) 0.6802(18) 0.9671(7)
H49 H 0.238(3) 0.7810(16) 1.0039(7)
H50 H 0.520(4) 0.591(3) 0.8287(11)
loop_
_geom_bond_atom_site_label_1
_geom_bond_atom_site_label_2
_geom_bond_site_symmetry_1
_geom_bond_site_symmetry_2
O1 C5 1_555 1_555
O2 C7 1_555 1_555
O3 C9 1_555 1_555
O4 C17 1_555 1_555
O5 C25 1_555 1_555
O6 C7 1_555 1_555
C1 H1 1_555 1_555
C2 C1 1_555 1_555
H2 C2 1_555 1_555
C3 C2 1_555 1_555
H3 C3 1_555 1_555
C4 C3 1_555 1_555
C5 C4 1_555 1_555
H4 C5 1_555 1_555
H5 C5 1_555 1_555
C6 O1 1_555 1_555
C7 C6 1_555 1_555
C8 O2 1_555 1_555
C9 C8 1_555 1_555
H6 C9 1_555 1_555
H7 C9 1_555 1_555
C10 O3 1_555 1_555
H8 C10 1_555 1_555
H9 C10 1_555 1_555
C11 C10 1_555 1_555
C12 C11 1_555 1_555
H10 C12 1_555 1_555
C13 C12 1_555 1_555
H11 C13 1_555 1_555
C14 C13 1_555 1_555
H12 C14 1_555 1_555
C15 C1 1_555 1_555
H13 C15 1_555 1_555
C16 C4 1_555 1_555
H14 C16 1_555 1_555
C17 C8 1_555 1_555
C18 O4 1_555 1_555
H15 C18 1_555 1_555
H16 C18 1_555 1_555
C19 C18 1_555 1_555
C20 C19 1_555 1_555
H17 C20 1_555 1_555
C21 C20 1_555 1_555
H18 C21 1_555 1_555
C22 C21 1_555 1_555
H19 C22 1_555 1_555
C23 C22 1_555 1_555
H20 C23 1_555 1_555
C24 C19 1_555 1_555
H21 C24 1_555 1_555
C25 C6 1_555 1_555
C26 O5 1_555 1_555
H22 C26 1_555 1_555
H23 C26 1_555 1_555
C27 C26 1_555 1_555
C28 C27 1_555 1_555
H24 C28 1_555 1_555
C29 C28 1_555 1_555
H25 C29 1_555 1_555
C30 C29 1_555 1_555
H26 C30 1_555 1_555
C31 C30 1_555 1_555
H27 C31 1_555 1_555
C32 C27 1_555 1_555
H28 C32 1_555 1_555
C33 C14 1_555 1_555
H29 C33 1_555 1_555
C34 C11 1_555 1_555
H30 C34 1_555 1_555
C35 O6 1_555 1_555
C36 C35 1_555 1_555
H31 C36 1_555 1_555
H32 C36 1_555 1_555
C37 C36 1_555 1_555
C38 C37 1_555 1_555
H33 C38 1_555 1_555
H34 C38 1_555 1_555
C39 C38 1_555 1_555
C40 C35 1_555 1_555
H35 C40 1_555 1_555
H36 C40 1_555 1_555
C41 C39 1_555 1_555
H37 C41 1_555 1_555
H38 C41 1_555 1_555
C42 C41 1_555 1_555
C43 C37 1_555 1_555
H39 C43 1_555 1_555
H40 C43 1_555 1_555
C44 C35 1_555 1_555
H41 C44 1_555 1_555
H42 C44 1_555 1_555
H43 C39 1_555 1_555
H44 C42 1_555 1_555
H45 C7 1_555 1_555
H46 C8 1_555 1_555
H47 C17 1_555 1_555
H48 C6 1_555 1_555
H49 C25 1_555 1_555
H50 C37 1_555 1_555
C15 C16 1_555 1_555
C17 C25 1_555 1_555
C23 C24 1_555 1_555
C31 C32 1_555 1_555
C33 C34 1_555 1_555
C39 C40 1_555 1_555
C42 C43 1_555 1_555
C42 C44 1_555 1_555

#END
