
#######################################################################
#
#                 Cambridge Crystallographic Data Centre
#                                CCDC 
#
#######################################################################
#
# If this CIF has been generated from an entry in the Cambridge 
# Structural Database, then it will include bibliographic, chemical, 
# crystal, experimental, refinement or atomic coordinate data resulting 
# from the CCDC's data processing and validation procedures.
#
#######################################################################

data_UZEVOM
_chemical_formula_moiety         'C10 H9 N3 O2'
_chemical_name_systematic        
2-cyano-N'-((E)-4-hydroxybenzylidene)acetohydrazide
_symmetry_cell_setting           monoclinic
_symmetry_space_group_name_H-M   'P 21/n'
_symmetry_Int_Tables_number      14
_space_group_name_Hall           '-P 2yn'
loop_
_symmetry_equiv_pos_site_id
_symmetry_equiv_pos_as_xyz
1 x,y,z
2 1/2-x,1/2+y,1/2-z
3 -x,-y,-z
4 1/2+x,1/2-y,1/2+z
_cell_length_a                   4.7366(4)
_cell_length_b                   11.1769(10)
_cell_length_c                   18.9660(18)
_cell_angle_alpha                90
_cell_angle_beta                 97.015(2)
_cell_angle_gamma                90
_cell_volume                     996.553
_exptl_crystal_colour            colorless
_exptl_crystal_description       plate
_cell_formula_units_Z            4
loop_
_atom_site_label
_atom_site_type_symbol
_atom_site_fract_x
_atom_site_fract_y
_atom_site_fract_z
N1 N 0.7465(4) 0.92970(16) 1.06910(10)
O1 O -0.4365(3) 0.37953(12) 0.63586(6)
N2 N 0.4602(2) 0.56525(12) 0.89419(6)
O2 O 0.9805(2) 0.65629(10) 1.03099(6)
C1 C 0.7666(3) 0.65807(14) 0.98691(8)
C2 C 0.4214(3) 0.46718(15) 0.86013(8)
C3 C 0.1887(3) 0.44853(13) 0.80359(8)
N3 N 0.7017(3) 0.56568(13) 0.94359(7)
C4 C -0.2356(3) 0.40570(14) 0.69136(8)
C5 C 0.0160(3) 0.54104(15) 0.77454(9)
C6 C 0.1435(3) 0.33483(14) 0.77541(8)
C7 C -0.1939(3) 0.52014(15) 0.71875(8)
C8 C 0.5653(4) 0.76311(16) 0.98059(10)
C9 C -0.0669(4) 0.31335(15) 0.72008(9)
C10 C 0.6678(4) 0.85698(17) 1.03014(9)
H1 H -0.311(3) 0.5840(15) 0.6975(8)
H2 H -0.097(3) 0.2361(16) 0.7020(8)
H3 H 0.265(3) 0.2692(15) 0.7951(8)
H4 H 0.551(3) 0.4012(14) 0.8701(7)
H5 H 0.816(4) 0.4943(17) 0.9473(9)
H6 H 0.049(3) 0.6214(15) 0.7928(8)
H7 H 0.543(4) 0.7961(17) 0.9330(10)
H8 H 0.382(4) 0.7388(16) 0.9897(9)
H9 H -0.541(4) 0.449(2) 0.6175(11)
loop_
_geom_bond_atom_site_label_1
_geom_bond_atom_site_label_2
_geom_bond_site_symmetry_1
_geom_bond_site_symmetry_2
N1 C10 1_555 1_555
O1 C4 1_555 1_555
N2 C2 1_555 1_555
O2 C1 1_555 1_555
C1 N3 1_555 1_555
C2 C3 1_555 1_555
C3 C5 1_555 1_555
N3 N2 1_555 1_555
C4 C7 1_555 1_555
C5 C7 1_555 1_555
C6 C3 1_555 1_555
C7 H1 1_555 1_555
C8 C1 1_555 1_555
C9 C4 1_555 1_555
C10 C8 1_555 1_555
H2 C9 1_555 1_555
H3 C6 1_555 1_555
H4 C2 1_555 1_555
H5 N3 1_555 1_555
H6 C5 1_555 1_555
H7 C8 1_555 1_555
H8 C8 1_555 1_555
H9 O1 1_555 1_555
C6 C9 1_555 1_555

#END
