
#######################################################################
#
#                 Cambridge Crystallographic Data Centre
#                                CCDC 
#
#######################################################################
#
# If this CIF has been generated from an entry in the Cambridge 
# Structural Database, then it will include bibliographic, chemical, 
# crystal, experimental, refinement or atomic coordinate data resulting 
# from the CCDC's data processing and validation procedures.
#
#######################################################################

data_UZIHIV
_chemical_formula_moiety         'C54 H68 N10 Na2 O18 2+,2(N3 1-)'
_chemical_name_systematic        
"(\m~2~-1,2-bis(((2-(((4-Nitrophenyl)carbamoyl)amino)phenyl)carbamoyl)amino)benzene-O,O')-bis(15-crown-5)-di-sodium(i) diazide clathrate"
_symmetry_cell_setting           orthorhombic
_symmetry_space_group_name_H-M   'P n a 21'
_symmetry_Int_Tables_number      33
_space_group_name_Hall           'P 2c -2n'
loop_
_symmetry_equiv_pos_site_id
_symmetry_equiv_pos_as_xyz
1 x,y,z
2 -x,-y,1/2+z
3 1/2+x,1/2-y,z
4 1/2-x,1/2+y,1/2+z
_cell_length_a                   17.070(2)
_cell_length_b                   17.878(3)
_cell_length_c                   20.480(3)
_cell_angle_alpha                90
_cell_angle_beta                 90
_cell_angle_gamma                90
_cell_volume                     6250.03
_exptl_crystal_colour            yellow
_exptl_crystal_description       stick
_cell_formula_units_Z            4
loop_
_atom_site_label
_atom_site_type_symbol
_atom_site_fract_x
_atom_site_fract_y
_atom_site_fract_z
Na1 Na 0.10091(10) 0.58402(9) -0.06253(8)
Na2 Na 0.40863(9) 0.59516(8) 0.32982(7)
O1 O 0.1113(3) 1.29207(18) 0.19213(19)
O2 O 0.1127(3) 1.25547(19) 0.0936(2)
O3 O 0.16804(18) 0.94747(15) 0.34012(13)
O4 O 0.28994(15) 0.58522(12) 0.27716(11)
O5 O 0.22577(16) 0.61840(14) -0.04159(12)
O6 O 0.35159(19) 0.98671(16) -0.05556(13)
O7 O 0.4308(3) 1.26144(19) 0.2109(2)
O8 O 0.4318(3) 1.30664(18) 0.11566(19)
O9 O 0.0230(3) 0.6923(3) -0.0863(2)
O10 O 0.0702(2) 0.6506(2) 0.03713(17)
O11 O 0.04211(19) 0.5016(2) 0.01733(16)
O12 O 0.0966(2) 0.45787(18) -0.1028(2)
O13 O 0.0353(3) 0.5787(2) -0.17075(17)
O14 O 0.44487(18) 0.66895(17) 0.23468(14)
O15 O 0.48077(17) 0.52092(15) 0.25115(14)
O16 O 0.4247(2) 0.46949(18) 0.36809(17)
O17 O 0.4467(3) 0.5911(2) 0.44816(17)
O18 O 0.4847(2) 0.7047(2) 0.36080(18)
N1 N 0.1189(2) 1.2433(2) 0.1513(2)
N2 N 0.1982(2) 0.95352(16) 0.23126(14)
H1 H 0.2155 0.9264 0.1997
N3 N 0.2338(2) 0.85151(15) 0.29047(15)
H2 H 0.2512 0.8364 0.2533
N4 N 0.22835(19) 0.69909(15) 0.27062(14)
H3 H 0.2014 0.7274 0.2452
N5 N 0.23132(18) 0.62089(15) 0.18237(13)
H4 H 0.2038 0.6551 0.1638
N6 N 0.28508(18) 0.63983(16) 0.05592(14)
H5 H 0.3071 0.6731 0.0800
N7 N 0.2761(2) 0.73396(16) -0.01821(13)
H6 H 0.2998 0.7587 0.0119
N8 N 0.2824(2) 0.88740(18) -0.01524(15)
H7 H 0.2670 0.8661 0.0202
N9 N 0.3266(2) 0.97711(17) 0.05411(15)
H8 H 0.3114 0.9459 0.0835
N10 N 0.4212(2) 1.2547(2) 0.1526(2)
C1 C 0.1372(3) 1.1678(2) 0.1738(2)
C2 C 0.1481(3) 1.1543(2) 0.2390(2)
H9 H 0.1423 1.1928 0.2692
C3 C 0.1674(3) 1.0839(2) 0.25962(19)
H10 H 0.1759 1.0748 0.3038
C4 C 0.1743(2) 1.0257(2) 0.21470(18)
C5 C 0.1617(3) 1.0406(2) 0.14881(19)
H11 H 0.1658 1.0021 0.1185
C6 C 0.1433(3) 1.1109(2) 0.1282(2)
H12 H 0.1350 1.1206 0.0841
C7 C 0.1976(2) 0.9203(2) 0.29198(19)
C8 C 0.2449(2) 0.8039(2) 0.34407(17)
C9 C 0.2593(3) 0.8311(2) 0.4067(2)
H13 H 0.2599 0.8824 0.4142
C10 C 0.2725(3) 0.7826(3) 0.4573(2)
H14 H 0.2825 0.8014 0.4988
C11 C 0.2712(3) 0.7077(3) 0.44751(19)
H15 H 0.2813 0.6756 0.4823
C12 C 0.2552(2) 0.6786(2) 0.38714(17)
H16 H 0.2521 0.6270 0.3815
C13 C 0.2437(2) 0.7261(2) 0.33404(17)
C14 C 0.2526(2) 0.63158(19) 0.24573(16)
C15 C 0.2514(2) 0.55743(18) 0.14510(17)
C16 C 0.2451(2) 0.4861(2) 0.17037(19)
H17 H 0.2268 0.4791 0.2127
C17 C 0.2660(3) 0.4249(2) 0.1326(2)
H18 H 0.2613 0.3769 0.1496
C18 C 0.2932(3) 0.4347(2) 0.0707(2)
H19 H 0.3089 0.3934 0.0463
C19 C 0.2977(3) 0.5047(2) 0.0441(2)
H20 H 0.3144 0.5108 0.0012
C20 C 0.2776(2) 0.56673(18) 0.08105(17)
C21 C 0.2593(2) 0.6609(2) -0.00450(16)
C22 C 0.2589(2) 0.7733(2) -0.07610(16)
C23 C 0.2386(3) 0.7374(3) -0.13361(18)
H21 H 0.2352 0.6855 -0.1347
C24 C 0.2233(3) 0.7783(3) -0.18921(19)
H22 H 0.2090 0.7538 -0.2275
C25 C 0.2291(3) 0.8550(3) -0.1886(2)
H23 H 0.2193 0.8823 -0.2264
C26 C 0.2492(3) 0.8910(3) -0.1322(2)
H24 H 0.2525 0.9429 -0.1320
C27 C 0.2647(2) 0.8516(2) -0.07506(17)
C28 C 0.3223(2) 0.9534(2) -0.00982(19)
C29 C 0.3530(2) 1.0463(2) 0.07600(18)
C30 C 0.3640(3) 1.1073(2) 0.0356(2)
H25 H 0.3567 1.1023 -0.0092
C31 C 0.3854(3) 1.1749(2) 0.0610(2)
H26 H 0.3921 1.2158 0.0335
C32 C 0.3972(2) 1.1828(2) 0.1268(2)
C33 C 0.3875(3) 1.1226(2) 0.1682(2)
H27 H 0.3959 1.1276 0.2129
C34 C 0.3654(3) 1.0554(2) 0.1420(2)
H28 H 0.3584 1.0146 0.1696
C35 C -0.0122(4) 0.7209(4) -0.0333(4)
H29 H -0.0579 0.6910 -0.0227
H30 H -0.0298 0.7713 -0.0427
C36 C 0.0393(4) 0.7223(4) 0.0214(4)
H31 H 0.0823 0.7561 0.0122
H32 H 0.0113 0.7417 0.0590
C37 C 0.0272(4) 0.6104(5) 0.0815(3)
H33 H -0.0279 0.6121 0.0700
H34 H 0.0333 0.6319 0.1247
C38 C 0.0557(4) 0.5303(5) 0.0816(3)
H35 H 0.1110 0.5283 0.0921
H36 H 0.0271 0.5012 0.1137
C39 C 0.0701(4) 0.4285(4) 0.0066(4)
H37 H 0.0442 0.3935 0.0356
H38 H 0.1261 0.4261 0.0145
C40 C 0.0524(4) 0.4098(3) -0.0630(4)
H39 H 0.0660 0.3582 -0.0720
H40 H -0.0031 0.4165 -0.0717
C41 C 0.0786(5) 0.4570(4) -0.1725(4)
H41 H 0.1247 0.4718 -0.1970
H42 H 0.0649 0.4065 -0.1856
C42 C 0.0148(5) 0.5068(6) -0.1878(3)
H43 H 0.0033 0.5045 -0.2341
H44 H -0.0318 0.4918 -0.1640
C43 C -0.0339(4) 0.6251(6) -0.1683(4)
H45 H -0.0571 0.6290 -0.2115
H46 H -0.0724 0.6033 -0.1391
C44 C -0.0118(6) 0.6949(5) -0.1462(5)
H47 H 0.0243 0.7170 -0.1773
H48 H -0.0577 0.7267 -0.1439
C45 C 0.4923(3) 0.6291(3) 0.1891(2)
H49 H 0.5469 0.6320 0.2020
H50 H 0.4872 0.6512 0.1460
C46 C 0.4671(3) 0.5509(3) 0.1874(2)
H51 H 0.4120 0.5477 0.1763
H52 H 0.4969 0.5233 0.1550
C47 C 0.4562(3) 0.4461(2) 0.2579(3)
H53 H 0.4855 0.4141 0.2285
H54 H 0.4009 0.4416 0.2477
C48 C 0.4708(4) 0.4241(3) 0.3265(4)
H55 H 0.4572 0.3719 0.3327
H56 H 0.5258 0.4303 0.3369
C49 C 0.4365(5) 0.4632(5) 0.4384(4)
H57 H 0.3862 0.4641 0.4605
H58 H 0.4619 0.4161 0.4484
C50 C 0.4842(7) 0.5242(5) 0.4613(4)
H59 H 0.4929 0.5194 0.5079
H60 H 0.5347 0.5231 0.4396
C51 C 0.4941(6) 0.6554(7) 0.4633(4)
H61 H 0.4608 0.6914 0.4854
H62 H 0.5337 0.6397 0.4944
C52 C 0.5302(5) 0.6910(4) 0.4157(4)
H63 H 0.5755 0.6619 0.4026
H64 H 0.5491 0.7384 0.4324
C53 C 0.5279(4) 0.7336(3) 0.3082(3)
H65 H 0.5713 0.7006 0.2978
H66 H 0.5490 0.7824 0.3193
C54 C 0.4745(3) 0.7399(2) 0.2516(3)
H67 H 0.4314 0.7731 0.2623
H68 H 0.5024 0.7610 0.2147
N11 N 0.1559(2) 0.7632(2) 0.15515(18)
N12 N 0.16365(18) 0.81465(19) 0.12057(15)
N13 N 0.1692(2) 0.8666(2) 0.08657(19)
N14 N 0.3628(2) 0.7687(2) 0.10631(17)
N15 N 0.34936(18) 0.81770(19) 0.14199(16)
N16 N 0.3383(2) 0.8681(2) 0.17645(18)
loop_
_geom_bond_atom_site_label_1
_geom_bond_atom_site_label_2
_geom_bond_site_symmetry_1
_geom_bond_site_symmetry_2
Na1 O5 1_555 1_555
Na2 O4 1_555 1_555
O1 N1 1_555 1_555
O2 N1 1_555 1_555
O3 C7 1_555 1_555
O4 C14 1_555 1_555
O5 C21 1_555 1_555
O6 C28 1_555 1_555
O7 N10 1_555 1_555
O8 N10 1_555 1_555
O9 Na1 1_555 1_555
O10 Na1 1_555 1_555
O11 Na1 1_555 1_555
O12 Na1 1_555 1_555
O13 Na1 1_555 1_555
O14 Na2 1_555 1_555
O15 Na2 1_555 1_555
O16 Na2 1_555 1_555
O17 Na2 1_555 1_555
O18 Na2 1_555 1_555
N1 C1 1_555 1_555
N2 H1 1_555 1_555
N3 H2 1_555 1_555
N4 H3 1_555 1_555
N5 H4 1_555 1_555
N6 H5 1_555 1_555
N7 H6 1_555 1_555
N8 H7 1_555 1_555
N9 H8 1_555 1_555
N10 C32 1_555 1_555
N11 N12 1_555 1_555
N12 N13 1_555 1_555
N14 N15 1_555 1_555
N15 N16 1_555 1_555
C1 C2 1_555 1_555
C2 H9 1_555 1_555
C3 C2 1_555 1_555
H10 C3 1_555 1_555
C4 N2 1_555 1_555
C5 C4 1_555 1_555
H11 C5 1_555 1_555
C6 C1 1_555 1_555
H12 C6 1_555 1_555
C7 N2 1_555 1_555
C8 N3 1_555 1_555
C9 C8 1_555 1_555
H13 C9 1_555 1_555
C10 C9 1_555 1_555
H14 C10 1_555 1_555
C11 C10 1_555 1_555
H15 C11 1_555 1_555
C12 C11 1_555 1_555
H16 C12 1_555 1_555
C13 N4 1_555 1_555
C14 N4 1_555 1_555
C15 N5 1_555 1_555
C16 C15 1_555 1_555
H17 C16 1_555 1_555
C17 C16 1_555 1_555
H18 C17 1_555 1_555
C18 C17 1_555 1_555
H19 C18 1_555 1_555
C19 C18 1_555 1_555
H20 C19 1_555 1_555
C20 N6 1_555 1_555
C21 N6 1_555 1_555
C22 N7 1_555 1_555
C23 C22 1_555 1_555
H21 C23 1_555 1_555
C24 C23 1_555 1_555
H22 C24 1_555 1_555
C25 C24 1_555 1_555
H23 C25 1_555 1_555
C26 C25 1_555 1_555
H24 C26 1_555 1_555
C27 N8 1_555 1_555
C28 N8 1_555 1_555
C29 N9 1_555 1_555
C30 C29 1_555 1_555
H25 C30 1_555 1_555
C31 C30 1_555 1_555
H26 C31 1_555 1_555
C32 C31 1_555 1_555
C33 C32 1_555 1_555
H27 C33 1_555 1_555
C34 C29 1_555 1_555
H28 C34 1_555 1_555
C35 O9 1_555 1_555
H29 C35 1_555 1_555
H30 C35 1_555 1_555
C36 O10 1_555 1_555
H31 C36 1_555 1_555
H32 C36 1_555 1_555
C37 O10 1_555 1_555
H33 C37 1_555 1_555
H34 C37 1_555 1_555
C38 O11 1_555 1_555
H35 C38 1_555 1_555
H36 C38 1_555 1_555
C39 O11 1_555 1_555
H37 C39 1_555 1_555
H38 C39 1_555 1_555
C40 O12 1_555 1_555
H39 C40 1_555 1_555
H40 C40 1_555 1_555
C41 O12 1_555 1_555
H41 C41 1_555 1_555
H42 C41 1_555 1_555
C42 O13 1_555 1_555
H43 C42 1_555 1_555
H44 C42 1_555 1_555
C43 O13 1_555 1_555
H45 C43 1_555 1_555
H46 C43 1_555 1_555
C44 O9 1_555 1_555
H47 C44 1_555 1_555
H48 C44 1_555 1_555
C45 O14 1_555 1_555
H49 C45 1_555 1_555
H50 C45 1_555 1_555
C46 O15 1_555 1_555
H51 C46 1_555 1_555
H52 C46 1_555 1_555
C47 O15 1_555 1_555
H53 C47 1_555 1_555
H54 C47 1_555 1_555
C48 O16 1_555 1_555
H55 C48 1_555 1_555
H56 C48 1_555 1_555
C49 O16 1_555 1_555
H57 C49 1_555 1_555
H58 C49 1_555 1_555
C50 O17 1_555 1_555
H59 C50 1_555 1_555
H60 C50 1_555 1_555
C51 O17 1_555 1_555
H61 C51 1_555 1_555
H62 C51 1_555 1_555
C52 O18 1_555 1_555
H63 C52 1_555 1_555
H64 C52 1_555 1_555
C53 O18 1_555 1_555
H65 C53 1_555 1_555
H66 C53 1_555 1_555
C54 O14 1_555 1_555
H67 C54 1_555 1_555
H68 C54 1_555 1_555
N3 C7 1_555 1_555
N5 C14 1_555 1_555
N7 C21 1_555 1_555
N9 C28 1_555 1_555
C3 C4 1_555 1_555
C5 C6 1_555 1_555
C8 C13 1_555 1_555
C12 C13 1_555 1_555
C15 C20 1_555 1_555
C19 C20 1_555 1_555
C22 C27 1_555 1_555
C26 C27 1_555 1_555
C33 C34 1_555 1_555
C35 C36 1_555 1_555
C37 C38 1_555 1_555
C39 C40 1_555 1_555
C41 C42 1_555 1_555
C43 C44 1_555 1_555
C45 C46 1_555 1_555
C47 C48 1_555 1_555
C49 C50 1_555 1_555
C51 C52 1_555 1_555
C53 C54 1_555 1_555

#END
