
#######################################################################
#
#                 Cambridge Crystallographic Data Centre
#                                CCDC 
#
#######################################################################
#
# If this CIF has been generated from an entry in the Cambridge 
# Structural Database, then it will include bibliographic, chemical, 
# crystal, experimental, refinement or atomic coordinate data resulting 
# from the CCDC's data processing and validation procedures.
#
#######################################################################

data_UZIRAX
_chemical_formula_moiety         'C15 H26 N1 1+,Cl1 1-'
_chemical_name_systematic        
"Spiro[cyclohexane-1,2'-tricyclo[3.3.1.1^3,7^]decan]-4-aminium chloride"
_symmetry_cell_setting           orthorhombic
_symmetry_space_group_name_H-M   'P c a 21'
_symmetry_Int_Tables_number      29
_space_group_name_Hall           'P 2c -2ac'
loop_
_symmetry_equiv_pos_site_id
_symmetry_equiv_pos_as_xyz
1 x,y,z
2 1/2-x,y,1/2+z
3 1/2+x,-y,z
4 -x,-y,1/2+z
_cell_length_a                   36.2592(14)
_cell_length_b                   6.5906(3)
_cell_length_c                   11.6976(5)
_cell_angle_alpha                90
_cell_angle_beta                 90
_cell_angle_gamma                90
_cell_volume                     2795.37
_exptl_crystal_colour            colorless
_exptl_crystal_description       plate
_cell_formula_units_Z            8
loop_
_atom_site_label
_atom_site_type_symbol
_atom_site_fract_x
_atom_site_fract_y
_atom_site_fract_z
C1 C 0.28968(4) 0.4863(3) 0.48116(14)
H1 H 0.3048 0.5113 0.5492
C2 C 0.29669(4) 0.6552(3) 0.39663(14)
H2 H 0.2893 0.7841 0.4295
H3 H 0.2823 0.6328 0.3279
C3 C 0.33769(4) 0.6601(2) 0.36693(14)
H4 H 0.3515 0.6949 0.4353
H5 H 0.3418 0.7670 0.3114
C4 C 0.35317(4) 0.4601(2) 0.31842(13)
C5 C 0.34190(4) 0.2908(3) 0.40257(14)
H6 H 0.3490 0.1610 0.3702
H7 H 0.3556 0.3084 0.4730
C6 C 0.30088(4) 0.2848(3) 0.43093(15)
H8 H 0.2867 0.2581 0.3622
H9 H 0.2960 0.1770 0.4853
C7 C 0.39577(4) 0.4703(3) 0.31131(14)
H10 H 0.4057 0.4947 0.3880
C8 C 0.40809(5) 0.6428(3) 0.23207(15)
H11 H 0.3988 0.7712 0.2607
H12 H 0.4348 0.6496 0.2304
C9 C 0.39335(5) 0.6058(3) 0.11150(14)
H13 H 0.4008 0.7175 0.0613
C10 C 0.35110(5) 0.5909(3) 0.11416(14)
H14 H 0.3419 0.5643 0.0378
H15 H 0.3408 0.7186 0.1401
C11 C 0.33906(4) 0.4192(2) 0.19507(13)
H16 H 0.3121 0.4111 0.1959
C12 C 0.39714(5) 0.2323(3) 0.14426(17)
H17 H 0.4072 0.1041 0.1154
C13 C 0.40895(5) 0.4054(3) 0.06600(16)
H18 H 0.3999 0.3812 -0.0108
H19 H 0.4356 0.4126 0.0630
C14 C 0.41186(4) 0.2718(3) 0.26494(17)
H20 H 0.4386 0.2805 0.2631
H21 H 0.4051 0.1603 0.3148
C15 C 0.35486(5) 0.2199(3) 0.14821(16)
H22 H 0.3453 0.1955 0.0720
H23 H 0.3474 0.1080 0.1968
N1 N 0.24989(4) 0.4808(2) 0.51713(13)
H24 H 0.2439 0.5985 0.5495
H25 H 0.2465 0.3807 0.5671
H26 H 0.2357 0.4601 0.4561
Cl1 Cl 0.233679(10) 0.94117(7) 0.59083(4)
C16 C 0.33138(4) -0.1081(2) 0.78439(15)
H27 H 0.3312 -0.2568 0.7858
C17 C 0.36015(5) -0.0349(3) 0.86835(14)
H28 H 0.3537 -0.0782 0.9450
H29 H 0.3612 0.1121 0.8675
C18 C 0.39788(5) -0.1228(3) 0.83520(14)
H30 H 0.3967 -0.2695 0.8415
H31 H 0.4161 -0.0752 0.8897
C19 C 0.41095(4) -0.0676(2) 0.71405(13)
C20 C 0.37913(4) -0.1245(3) 0.63204(14)
H32 H 0.3853 -0.0759 0.5561
H33 H 0.3774 -0.2712 0.6282
C21 C 0.34126(4) -0.0402(3) 0.66498(15)
H34 H 0.3417 0.1068 0.6616
H35 H 0.3228 -0.0884 0.6114
C22 C 0.44524(5) -0.1967(3) 0.68186(16)
H36 H 0.4389 -0.3408 0.6877
C23 C 0.47763(5) -0.1517(3) 0.76183(17)
H37 H 0.4985 -0.2368 0.7417
H38 H 0.4707 -0.1822 0.8400
C24 C 0.48862(5) 0.0720(3) 0.75219(16)
H39 H 0.5091 0.1004 0.8045
C25 C 0.45542(5) 0.2043(3) 0.78385(16)
H40 H 0.4620 0.3465 0.7772
H41 H 0.4483 0.1783 0.8625
C26 C 0.42278(4) 0.1572(3) 0.70405(13)
H42 H 0.4019 0.2446 0.7241
C27 C 0.46829(5) 0.0737(3) 0.54853(15)
H43 H 0.4757 0.1034 0.4697
C28 C 0.50047(5) 0.1182(3) 0.62947(17)
H44 H 0.5215 0.0350 0.6091
H45 H 0.5076 0.2596 0.6230
C29 C 0.45782(5) -0.1510(3) 0.55903(16)
H46 H 0.4789 -0.2350 0.5399
H47 H 0.4381 -0.1824 0.5059
C30 C 0.43548(4) 0.2062(3) 0.58132(14)
H48 H 0.4153 0.1825 0.5284
H49 H 0.4424 0.3481 0.5763
N2 N 0.29361(4) -0.0341(2) 0.81508(13)
H50 H 0.2928 0.1003 0.8082
H51 H 0.2885 -0.0687 0.8869
H52 H 0.2771 -0.0899 0.7684
Cl2 Cl 0.289217(13) 0.42802(7) 0.78013(4)
loop_
_geom_bond_atom_site_label_1
_geom_bond_atom_site_label_2
_geom_bond_site_symmetry_1
_geom_bond_site_symmetry_2
C1 H1 1_555 1_555
C2 C1 1_555 1_555
H2 C2 1_555 1_555
H3 C2 1_555 1_555
C3 C2 1_555 1_555
H4 C3 1_555 1_555
H5 C3 1_555 1_555
C4 C3 1_555 1_555
C5 C4 1_555 1_555
H6 C5 1_555 1_555
H7 C5 1_555 1_555
C6 C1 1_555 1_555
H8 C6 1_555 1_555
H9 C6 1_555 1_555
C7 C4 1_555 1_555
H10 C7 1_555 1_555
C8 C7 1_555 1_555
H11 C8 1_555 1_555
H12 C8 1_555 1_555
C9 C8 1_555 1_555
H13 C9 1_555 1_555
C10 C9 1_555 1_555
H14 C10 1_555 1_555
H15 C10 1_555 1_555
C11 C4 1_555 1_555
H16 C11 1_555 1_555
C12 H17 1_555 1_555
C13 C9 1_555 1_555
H18 C13 1_555 1_555
H19 C13 1_555 1_555
C14 C7 1_555 1_555
H20 C14 1_555 1_555
H21 C14 1_555 1_555
C15 C11 1_555 1_555
H22 C15 1_555 1_555
H23 C15 1_555 1_555
N1 C1 1_555 1_555
H24 N1 1_555 1_555
H25 N1 1_555 1_555
H26 N1 1_555 1_555
C16 H27 1_555 1_555
C17 C16 1_555 1_555
H28 C17 1_555 1_555
H29 C17 1_555 1_555
C18 C17 1_555 1_555
H30 C18 1_555 1_555
H31 C18 1_555 1_555
C19 C18 1_555 1_555
C20 C19 1_555 1_555
H32 C20 1_555 1_555
H33 C20 1_555 1_555
C21 C16 1_555 1_555
H34 C21 1_555 1_555
H35 C21 1_555 1_555
C22 C19 1_555 1_555
H36 C22 1_555 1_555
C23 C22 1_555 1_555
H37 C23 1_555 1_555
H38 C23 1_555 1_555
C24 C23 1_555 1_555
H39 C24 1_555 1_555
C25 C24 1_555 1_555
H40 C25 1_555 1_555
H41 C25 1_555 1_555
C26 C19 1_555 1_555
H42 C26 1_555 1_555
C27 H43 1_555 1_555
C28 C24 1_555 1_555
H44 C28 1_555 1_555
H45 C28 1_555 1_555
C29 C22 1_555 1_555
H46 C29 1_555 1_555
H47 C29 1_555 1_555
C30 C26 1_555 1_555
H48 C30 1_555 1_555
H49 C30 1_555 1_555
N2 C16 1_555 1_555
H50 N2 1_555 1_555
H51 N2 1_555 1_555
H52 N2 1_555 1_555
C5 C6 1_555 1_555
C10 C11 1_555 1_555
C12 C13 1_555 1_555
C12 C14 1_555 1_555
C12 C15 1_555 1_555
C20 C21 1_555 1_555
C25 C26 1_555 1_555
C27 C28 1_555 1_555
C27 C29 1_555 1_555
C27 C30 1_555 1_555

#END
