
#######################################################################
#
#                 Cambridge Crystallographic Data Centre
#                                CCDC 
#
#######################################################################
#
# If this CIF has been generated from an entry in the Cambridge 
# Structural Database, then it will include bibliographic, chemical, 
# crystal, experimental, refinement or atomic coordinate data resulting 
# from the CCDC's data processing and validation procedures.
#
#######################################################################

data_VABHAK
_chemical_formula_moiety         'C48 H64 O12,2(C12 H10 N2),0.4(C2 H3 N1)'
_chemical_name_systematic        
'C-Pentylpyrogallol[4]arene 1,2-bis(4-pyridyl)ethylene acetonitrile solvate'
_symmetry_cell_setting           tetragonal
_symmetry_space_group_name_H-M   'P 4/n c c'
_symmetry_Int_Tables_number      130
_space_group_name_Hall           '-P 4a 2ac'
loop_
_symmetry_equiv_pos_site_id
_symmetry_equiv_pos_as_xyz
1 x,y,z
2 1/2-y,x,z
3 1/2-x,1/2-y,z
4 y,1/2-x,z
5 1/2+x,-y,1/2-z
6 -x,1/2+y,1/2-z
7 1/2+y,1/2+x,1/2-z
8 -y,-x,1/2-z
9 -x,-y,-z
10 1/2+y,-x,-z
11 1/2+x,1/2+y,-z
12 -y,1/2+x,-z
13 1/2-x,y,1/2+z
14 x,1/2-y,1/2+z
15 1/2-y,1/2-x,1/2+z
16 y,x,1/2+z
_cell_length_a                   17.1796(15)
_cell_length_b                   17.1796(15)
_cell_length_c                   23.082(3)
_cell_angle_alpha                90
_cell_angle_beta                 90
_cell_angle_gamma                90
_cell_volume                     6812.39
_exptl_crystal_colour            colorless
_cell_formula_units_Z            4
_exptl_crystal_preparation       'crystal activated at 80 deg.C'
loop_
_atom_site_label
_atom_site_type_symbol
_atom_site_fract_x
_atom_site_fract_y
_atom_site_fract_z
C13 C 0.2500 0.2500 0.5125(8)
C14 C 0.2500 0.2500 0.4508(16)
N1 N 0.2500 0.2500 0.3988(16)
N2 N 0.75314(17) 0.10721(16) 0.06028(12)
C15 C 0.7155(2) 0.0870(2) 0.10863(15)
H17 H 0.6713 0.0540 0.1055
C16 C 0.7381(2) 0.1119(2) 0.16280(16)
H18 H 0.7104 0.0951 0.1961
C17 C 0.8015(2) 0.1618(2) 0.16874(15)
C18 C 0.8379(2) 0.1855(2) 0.11803(15)
H19 H 0.8797 0.2217 0.1193
C19 C 0.8128(2) 0.1561(2) 0.06607(15)
H20 H 0.8397 0.1715 0.0320
C20 C 0.8317(2) 0.1918(2) 0.22447(16)
N2G N 0.89279(16) 0.24686(17) 0.43972(12)
C15G C 0.9130(2) 0.2845(2) 0.39137(15)
H17G H 0.9460 0.3287 0.3945
C16G C 0.8881(2) 0.2619(2) 0.33720(16)
H18G H 0.9049 0.2896 0.3039
C17G C 0.8382(2) 0.1985(2) 0.33126(15)
C18G C 0.8145(2) 0.1621(2) 0.38197(15)
H19G H 0.7783 0.1203 0.3807
C19G C 0.8439(2) 0.1872(2) 0.43393(15)
H20G H 0.8285 0.1603 0.4680
C20G C 0.8082(2) 0.1683(2) 0.27553(16)
C21 C 0.2500 0.2500 0.272(3)
O1 O 0.07925(13) 0.01563(12) 0.04153(10)
H1 H 0.1250 -0.0016 0.0417
C1 C 0.11462(17) 0.18407(17) 0.13603(13)
H2 H 0.1455 0.1989 0.1683
O2 O -0.01825(13) 0.12379(14) -0.00507(10)
H3 H -0.013(2) 0.073(3) -0.0113(16)
C2 C 0.12327(17) 0.10918(17) 0.11399(13)
O3 O -0.02988(12) 0.26953(12) 0.03974(9)
H4 H -0.0501 0.2499 0.0100
C3 C 0.07800(18) 0.08875(17) 0.06661(13)
C4 C 0.02710(18) 0.14230(18) 0.04170(13)
C5 C 0.01974(17) 0.21654(17) 0.06472(13)
C6 C 0.06291(17) 0.23822(17) 0.11304(13)
C7 C 0.05292(17) 0.31821(17) 0.14100(13)
H5 H -0.0011 0.3364 0.1322
C8 C 0.06053(19) 0.31349(18) 0.20705(13)
H6 H 0.0239 0.2734 0.2214
H7 H 0.1138 0.2957 0.2165
C9 C 0.0451(2) 0.3888(2) 0.23971(15)
H8 H 0.0678 0.4329 0.2179
H9 H -0.0118 0.3974 0.2424
C10 C 0.0794(3) 0.3872(2) 0.30018(18)
H10 H 0.0570 0.3421 0.3210
H11 H 0.1361 0.3779 0.2966
C11 C 0.0679(3) 0.4576(3) 0.3368(2)
H12 H 0.0117 0.4633 0.3452
H13 H 0.0845 0.5040 0.3146
C12 C 0.1119(4) 0.4555(4) 0.3935(2)
H14 H 0.0958 0.4098 0.4158
H15 H 0.1005 0.5028 0.4156
H16 H 0.1679 0.4527 0.3857
O1A O 0.48437(12) 0.07925(13) 0.04153(10)
H1A H 0.5016 0.1250 0.0417
C1A C 0.31593(17) 0.11462(17) 0.13603(13)
H2A H 0.3011 0.1455 0.1683
O2A O 0.37621(14) -0.01825(13) -0.00507(10)
H3A H 0.427(3) -0.013(2) -0.0113(16)
C2A C 0.39082(17) 0.12327(17) 0.11399(13)
O3A O 0.23047(12) -0.02988(12) 0.03974(9)
H4A H 0.2501 -0.0501 0.0100
C3A C 0.41125(17) 0.07800(18) 0.06661(13)
C4A C 0.35770(18) 0.02710(18) 0.04170(13)
C5A C 0.28346(17) 0.01974(17) 0.06472(13)
C6A C 0.26178(17) 0.06291(17) 0.11304(13)
C7A C 0.18179(17) 0.05292(17) 0.14100(13)
H5A H 0.1636 -0.0011 0.1322
C8A C 0.18651(18) 0.06053(19) 0.20705(13)
H6A H 0.2266 0.0239 0.2214
H7A H 0.2043 0.1138 0.2165
C9A C 0.1112(2) 0.0451(2) 0.23971(15)
H8A H 0.0671 0.0678 0.2179
H9A H 0.1026 -0.0118 0.2424
C10A C 0.1128(2) 0.0794(3) 0.30018(18)
H10A H 0.1579 0.0570 0.3210
H11A H 0.1221 0.1361 0.2966
C11A C 0.0424(3) 0.0679(3) 0.3368(2)
H12A H 0.0367 0.0117 0.3452
H13A H -0.0040 0.0845 0.3146
C12A C 0.0445(4) 0.1119(4) 0.3935(2)
H14A H 0.0902 0.0958 0.4158
H15A H -0.0028 0.1005 0.4156
H16A H 0.0473 0.1679 0.3857
O1C O 0.01563(12) 0.42075(13) 0.04153(10)
H1C H -0.0016 0.3750 0.0417
C1C C 0.18407(17) 0.38538(17) 0.13603(13)
H2C H 0.1989 0.3545 0.1683
O2C O 0.12379(14) 0.51825(13) -0.00507(10)
H3C H 0.073(3) 0.513(2) -0.0113(16)
C2C C 0.10918(17) 0.37673(17) 0.11399(13)
O3C O 0.26953(12) 0.52988(12) 0.03974(9)
H4C H 0.2499 0.5501 0.0100
C3C C 0.08875(17) 0.42200(18) 0.06661(13)
C4C C 0.14230(18) 0.47290(18) 0.04170(13)
C5C C 0.21654(17) 0.48026(17) 0.06472(13)
C6C C 0.23822(17) 0.43709(17) 0.11304(13)
C7C C 0.31821(17) 0.44708(17) 0.14100(13)
H5C H 0.3364 0.5011 0.1322
C8C C 0.31349(18) 0.43947(19) 0.20705(13)
H6C H 0.2734 0.4761 0.2214
H7C H 0.2957 0.3862 0.2165
C9C C 0.3888(2) 0.4549(2) 0.23971(15)
H8C H 0.4329 0.4322 0.2179
H9C H 0.3974 0.5118 0.2424
C10C C 0.3872(2) 0.4206(3) 0.30018(18)
H10C H 0.3421 0.4430 0.3210
H11C H 0.3779 0.3639 0.2966
C11C C 0.4576(3) 0.4321(3) 0.3368(2)
H12C H 0.4633 0.4883 0.3452
H13C H 0.5040 0.4155 0.3146
C12C C 0.4555(4) 0.3881(4) 0.3935(2)
H14C H 0.4098 0.4042 0.4158
H15C H 0.5028 0.3995 0.4156
H16C H 0.4527 0.3321 0.3857
O1B O 0.42075(13) 0.48437(12) 0.04153(10)
H1B H 0.3750 0.5016 0.0417
C1B C 0.38538(17) 0.31593(17) 0.13603(13)
H2B H 0.3545 0.3011 0.1683
O2B O 0.51825(13) 0.37621(14) -0.00507(10)
H3B H 0.513(2) 0.427(3) -0.0113(16)
C2B C 0.37673(17) 0.39082(17) 0.11399(13)
O3B O 0.52988(12) 0.23047(12) 0.03974(9)
H4B H 0.5501 0.2501 0.0100
C3B C 0.42200(18) 0.41125(17) 0.06661(13)
C4B C 0.47290(18) 0.35770(18) 0.04170(13)
C5B C 0.48026(17) 0.28346(17) 0.06472(13)
C6B C 0.43709(17) 0.26178(17) 0.11304(13)
C7B C 0.44708(17) 0.18179(17) 0.14100(13)
H5B H 0.5011 0.1636 0.1322
C8B C 0.43947(19) 0.18651(18) 0.20705(13)
H6B H 0.4761 0.2266 0.2214
H7B H 0.3862 0.2043 0.2165
C9B C 0.4549(2) 0.1112(2) 0.23971(15)
H8B H 0.4322 0.0671 0.2179
H9B H 0.5118 0.1026 0.2424
C10B C 0.4206(3) 0.1128(2) 0.30018(18)
H10B H 0.4430 0.1579 0.3210
H11B H 0.3639 0.1221 0.2966
C11B C 0.4321(3) 0.0424(3) 0.3368(2)
H12B H 0.4883 0.0367 0.3452
H13B H 0.4155 -0.0040 0.3146
C12B C 0.3881(4) 0.0445(4) 0.3935(2)
H14B H 0.4042 0.0902 0.4158
H15B H 0.3995 -0.0028 0.4156
H16B H 0.3321 0.0473 0.3857
C22? C 0.1362(14) 0.4107(15) 0.3173(9)
C23? C 0.149(2) 0.412(3) 0.3853(13)
loop_
_geom_bond_atom_site_label_1
_geom_bond_atom_site_label_2
_geom_bond_site_symmetry_1
_geom_bond_site_symmetry_2
O1 H1 1_555 1_555
C1 H2 1_555 1_555
O2 H3 1_555 1_555
C2 C1 1_555 1_555
O3 H4 1_555 1_555
C3 O1 1_555 1_555
C4 O2 1_555 1_555
C5 O3 1_555 1_555
C6 C1 1_555 1_555
C7 C6 1_555 1_555
H5 C7 1_555 1_555
C8 C7 1_555 1_555
H6 C8 1_555 1_555
H7 C8 1_555 1_555
C9 C8 1_555 1_555
H8 C9 1_555 1_555
H9 C9 1_555 1_555
C10 C9 1_555 1_555
H10 C10 1_555 1_555
H11 C10 1_555 1_555
C11 C10 1_555 1_555
H12 C11 1_555 1_555
H13 C11 1_555 1_555
C12 C11 1_555 1_555
H14 C12 1_555 1_555
H15 C12 1_555 1_555
H16 C12 1_555 1_555
C13 C14 1_555 1_555
C14 N1 1_555 1_555
N2 C15 1_555 1_555
C15 H17 1_555 1_555
C16 C15 1_555 1_555
H18 C16 1_555 1_555
C17 C16 1_555 1_555
C18 C17 1_555 1_555
H19 C18 1_555 1_555
C19 N2 1_555 1_555
H20 C19 1_555 1_555
C20 C17 1_555 1_555
O1A H1A 1_555 1_555
C1A H2A 1_555 1_555
O2A H3A 1_555 1_555
C2A C1A 1_555 1_555
O3A H4A 1_555 1_555
C3A O1A 1_555 1_555
C4A O2A 1_555 1_555
C5A O3A 1_555 1_555
C6A C1A 1_555 1_555
C7A C2 1_555 1_555
H5A C7A 1_555 1_555
C8A C7A 1_555 1_555
H6A C8A 1_555 1_555
H7A C8A 1_555 1_555
C9A C8A 1_555 1_555
H8A C9A 1_555 1_555
H9A C9A 1_555 1_555
C10A C9A 1_555 1_555
H10A C10A 1_555 1_555
H11A C10A 1_555 1_555
C11A C10A 1_555 1_555
H12A C11A 1_555 1_555
H13A C11A 1_555 1_555
C12A C11A 1_555 1_555
H14A C12A 1_555 1_555
H15A C12A 1_555 1_555
H16A C12A 1_555 1_555
O1C H1C 1_555 1_555
C1C H2C 1_555 1_555
O2C H3C 1_555 1_555
C2C C7 1_555 1_555
O3C H4C 1_555 1_555
C3C O1C 1_555 1_555
C4C O2C 1_555 1_555
C5C O3C 1_555 1_555
C6C C1C 1_555 1_555
C7C C6C 1_555 1_555
H5C C7C 1_555 1_555
C8C C7C 1_555 1_555
H6C C8C 1_555 1_555
H7C C8C 1_555 1_555
C9C C8C 1_555 1_555
H8C C9C 1_555 1_555
H9C C9C 1_555 1_555
C10C C9C 1_555 1_555
H10C C10C 1_555 1_555
H11C C10C 1_555 1_555
C11C C10C 1_555 1_555
H12C C11C 1_555 1_555
H13C C11C 1_555 1_555
C12C C11C 1_555 1_555
H14C C12C 1_555 1_555
H15C C12C 1_555 1_555
H16C C12C 1_555 1_555
O1B H1B 1_555 1_555
C1B H2B 1_555 1_555
O2B H3B 1_555 1_555
C2B C7C 1_555 1_555
O3B H4B 1_555 1_555
C3B O1B 1_555 1_555
C4B O2B 1_555 1_555
C5B O3B 1_555 1_555
C6B C1B 1_555 1_555
C7B C2A 1_555 1_555
H5B C7B 1_555 1_555
C8B C7B 1_555 1_555
H6B C8B 1_555 1_555
H7B C8B 1_555 1_555
C9B C8B 1_555 1_555
H8B C9B 1_555 1_555
H9B C9B 1_555 1_555
C10B C9B 1_555 1_555
H10B C10B 1_555 1_555
H11B C10B 1_555 1_555
C11B C10B 1_555 1_555
H12B C11B 1_555 1_555
H13B C11B 1_555 1_555
C12B C11B 1_555 1_555
H14B C12B 1_555 1_555
H15B C12B 1_555 1_555
H16B C12B 1_555 1_555
N2G C15G 1_555 1_555
C15G H17G 1_555 1_555
C16G C15G 1_555 1_555
H18G C16G 1_555 1_555
C17G C16G 1_555 1_555
C18G C17G 1_555 1_555
H19G C18G 1_555 1_555
C19G N2G 1_555 1_555
H20G C19G 1_555 1_555
C20G C20 1_555 1_555
C2 C3 1_555 1_555
C3 C4 1_555 1_555
C4 C5 1_555 1_555
C5 C6 1_555 1_555
C18 C19 1_555 1_555
C2A C3A 1_555 1_555
C3A C4A 1_555 1_555
C4A C5A 1_555 1_555
C5A C6A 1_555 1_555
C6A C7A 1_555 1_555
C1C C2C 1_555 1_555
C2C C3C 1_555 1_555
C3C C4C 1_555 1_555
C4C C5C 1_555 1_555
C5C C6C 1_555 1_555
C1B C2B 1_555 1_555
C2B C3B 1_555 1_555
C3B C4B 1_555 1_555
C4B C5B 1_555 1_555
C5B C6B 1_555 1_555
C6B C7B 1_555 1_555
C17G C20G 1_555 1_555
C18G C19G 1_555 1_555

#END
