
#######################################################################
#
#                 Cambridge Crystallographic Data Centre
#                                CCDC 
#
#######################################################################
#
# If this CIF has been generated from an entry in the Cambridge 
# Structural Database, then it will include bibliographic, chemical, 
# crystal, experimental, refinement or atomic coordinate data resulting 
# from the CCDC's data processing and validation procedures.
#
#######################################################################

data_VABJEP
_chemical_formula_moiety         'C9 H6 Cl3 N1 O1'
_chemical_name_systematic        3,3-Dichloro-1-(chloromethyl)indolin-2-one
_symmetry_cell_setting           monoclinic
_symmetry_space_group_name_H-M   'P 21/c'
_symmetry_Int_Tables_number      14
_space_group_name_Hall           '-P 2ybc'
loop_
_symmetry_equiv_pos_site_id
_symmetry_equiv_pos_as_xyz
1 x,y,z
2 -x,1/2+y,1/2-z
3 -x,-y,-z
4 x,1/2-y,1/2+z
_cell_length_a                   8.61020(10)
_cell_length_b                   14.5573(2)
_cell_length_c                   8.24610(10)
_cell_angle_alpha                90
_cell_angle_beta                 93.3810(10)
_cell_angle_gamma                90
_cell_volume                     1031.78
_exptl_crystal_colour            yellow
_exptl_crystal_description       block
_chemical_melting_point          '141-143 deg.C'
_cell_formula_units_Z            4
_exptl_crystal_recrystallization_method dichloromethane/methanol
loop_
_atom_site_label
_atom_site_type_symbol
_atom_site_fract_x
_atom_site_fract_y
_atom_site_fract_z
C1 C 0.4139(2) 0.66723(13) 0.5958(2)
H1 H 0.3747 0.6171 0.5275
H2 H 0.4404 0.7176 0.5255
Cl1 Cl 0.72991(7) 0.48322(4) 0.99637(6)
Cl2 Cl 0.87749(7) 0.48989(4) 0.69017(7)
Cl3 Cl 0.26419(5) 0.70402(4) 0.72483(7)
C2 C 0.9042(2) 0.68812(13) 0.9240(2)
H3 H 0.9838 0.6541 0.9762
C3 C 0.9062(2) 0.78348(14) 0.9279(3)
H4 H 0.9882 0.8138 0.9836
C4 C 0.7883(2) 0.83366(12) 0.8503(2)
H5 H 0.7922 0.8975 0.8545
C5 C 0.66346(19) 0.79124(11) 0.7659(2)
H6 H 0.5837 0.8252 0.7139
C6 C 0.66323(17) 0.69655(10) 0.76292(19)
C7 C 0.78112(18) 0.64512(11) 0.84075(19)
C8 C 0.74369(19) 0.54609(11) 0.8146(2)
C9 C 0.58313(19) 0.54734(11) 0.7189(2)
N1 N 0.54994(15) 0.63781(9) 0.68728(17)
O1 O 0.50408(18) 0.48209(9) 0.68047(17)
loop_
_geom_bond_atom_site_label_1
_geom_bond_atom_site_label_2
_geom_bond_site_symmetry_1
_geom_bond_site_symmetry_2
C1 H1 1_555 1_555
H2 C1 1_555 1_555
Cl1 C8 1_555 1_555
Cl2 C8 1_555 1_555
Cl3 C1 1_555 1_555
C2 H3 1_555 1_555
C3 C2 1_555 1_555
H4 C3 1_555 1_555
C4 C3 1_555 1_555
H5 C4 1_555 1_555
C5 C4 1_555 1_555
H6 C5 1_555 1_555
C6 C5 1_555 1_555
C7 C2 1_555 1_555
C8 C7 1_555 1_555
C9 C8 1_555 1_555
N1 C1 1_555 1_555
O1 C9 1_555 1_555
C6 C7 1_555 1_555
C6 N1 1_555 1_555
C9 N1 1_555 1_555

#END
