
#######################################################################
#
#                 Cambridge Crystallographic Data Centre
#                                CCDC 
#
#######################################################################
#
# If this CIF has been generated from an entry in the Cambridge 
# Structural Database, then it will include bibliographic, chemical, 
# crystal, experimental, refinement or atomic coordinate data resulting 
# from the CCDC's data processing and validation procedures.
#
#######################################################################

data_VABJUG
_chemical_formula_moiety         'C19 H21 F3 N2 O3'
_chemical_name_systematic        
"Ethyl 1'-isopropyl-5'-oxo-4'-(2,2,2-trifluoroethyl)spiro[indole-3,3'-pyrrolidine]-2-carboxylate"
_symmetry_cell_setting           triclinic
_symmetry_space_group_name_H-M   'P -1'
_symmetry_Int_Tables_number      2
_space_group_name_Hall           '-P 1'
loop_
_symmetry_equiv_pos_site_id
_symmetry_equiv_pos_as_xyz
1 x,y,z
2 -x,-y,-z
_cell_length_a                   9.2798(19)
_cell_length_b                   11.901(2)
_cell_length_c                   18.131(4)
_cell_angle_alpha                101.74(3)
_cell_angle_beta                 94.56(3)
_cell_angle_gamma                106.90(3)
_cell_volume                     1855.15
_exptl_crystal_colour            colorless
_cell_formula_units_Z            4
loop_
_atom_site_label
_atom_site_type_symbol
_atom_site_fract_x
_atom_site_fract_y
_atom_site_fract_z
F1 F 0.26488(16) 0.52466(14) 0.29372(8)
F2 F 0.4031(2) 0.63973(16) 0.23294(8)
F3 F 0.50251(19) 0.54836(16) 0.30368(10)
O1 O 0.07162(17) 0.31139(13) 0.39941(9)
O2 O 0.31096(18) 0.41006(15) 0.45794(12)
O3 O 0.62519(15) 0.86722(13) 0.50262(9)
N1 N 0.01225(18) 0.52077(16) 0.40855(10)
N2 N 0.44309(19) 0.77748(16) 0.56947(10)
C1 C 0.0175(2) 0.64388(19) 0.41729(12)
C2 C -0.1009(2) 0.6849(2) 0.39646(13)
H1 H -0.1991 0.6300 0.3748
C3 C -0.0716(3) 0.8088(2) 0.40822(15)
H2 H -0.1513 0.8396 0.3953
C4 C 0.0731(3) 0.8886(2) 0.43871(15)
H3 H 0.0914 0.9730 0.4450
C5 C 0.1919(2) 0.8463(2) 0.46022(13)
H4 H 0.2904 0.9009 0.4815
C6 C 0.1623(2) 0.72343(19) 0.44974(12)
C7 C 0.2598(2) 0.64753(18) 0.46808(12)
C8 C 0.1470(2) 0.52245(19) 0.43519(11)
C9 C 0.1861(2) 0.4097(2) 0.43306(12)
C10 C 0.0970(4) 0.1959(2) 0.39326(18)
H5 H 0.2068 0.2098 0.4083
H6 H 0.0411 0.1547 0.4295
C11 C 0.0522(6) 0.1221(4) 0.3223(2)
H7 H -0.0575 0.1047 0.3079
H8 H 0.0743 0.0463 0.3219
H9 H 0.1073 0.1619 0.2860
C12 C 0.3061(2) 0.6726(2) 0.55550(12)
H10 H 0.2256 0.6917 0.5835
H11 H 0.3285 0.6030 0.5700
C13 C 0.5016(3) 0.8600(2) 0.64471(13)
H12 H 0.6089 0.9090 0.6438
C14 C 0.5046(4) 0.7891(3) 0.70539(15)
H13 H 0.4004 0.7523 0.7143
H14 H 0.5651 0.8437 0.7528
H15 H 0.5503 0.7255 0.6882
C15 C 0.4100(3) 0.9465(3) 0.66173(19)
H16 H 0.4098 0.9891 0.6209
H17 H 0.4559 1.0052 0.7102
H18 H 0.3052 0.9010 0.6651
C16 C 0.5105(2) 0.78749(19) 0.50702(12)
C17 C 0.4183(2) 0.68139(19) 0.44203(12)
H19 H 0.4603 0.6129 0.4420
C18 C 0.4298(2) 0.7136(2) 0.36501(12)
H20 H 0.3556 0.7565 0.3563
H21 H 0.5329 0.7698 0.3665
C19 C 0.4005(3) 0.6063(2) 0.29937(14)
F4 F 0.72581(16) 0.13117(14) 0.79554(8)
F5 F 0.9037(2) 0.25135(17) 0.75558(9)
F6 F 0.9530(2) 0.12717(18) 0.81694(10)
O4 O 0.65704(17) -0.14015(13) 0.91377(9)
O5 O 0.83218(17) 0.00001(15) 1.00607(10)
O6 O 1.08351(15) 0.42021(13) 1.03514(9)
N3 N 0.51034(19) 0.02607(16) 0.90175(10)
N4 N 0.87126(18) 0.33163(15) 1.08547(10)
C20 C 0.4773(2) 0.1358(2) 0.90094(12)
C21 C 0.3448(2) 0.1443(2) 0.86377(13)
H22 H 0.2659 0.0746 0.8354
C22 C 0.3340(3) 0.2600(2) 0.87041(14)
H23 H 0.2461 0.2699 0.8455
C23 C 0.4492(3) 0.3612(2) 0.91273(14)
H24 H 0.4378 0.4389 0.9169
C24 C 0.5808(2) 0.3513(2) 0.94913(13)
H25 H 0.6598 0.4209 0.9776
C25 C 0.5930(2) 0.23681(19) 0.94247(12)
C26 C 0.7146(2) 0.19256(18) 0.97554(12)
C27 C 0.6423(2) 0.05792(18) 0.94248(12)
C28 C 0.7209(2) -0.02923(19) 0.95838(12)
C29 C 0.7339(3) -0.2281(2) 0.92513(14)
H26 H 0.7239 -0.2450 0.9761
H27 H 0.8435 -0.1962 0.9215
C30 C 0.6600(3) -0.3401(2) 0.86460(17)
H28 H 0.5507 -0.3685 0.8672
H29 H 0.7052 -0.4026 0.8720
H30 H 0.6754 -0.3232 0.8146
C31 C 0.7362(2) 0.22500(19) 1.06426(12)
H31 H 0.6466 0.2435 1.0832
H32 H 0.7528 0.1579 1.0847
C32 C 0.9201(2) 0.4005(2) 1.16485(12)
H33 H 1.0213 0.4622 1.1677
C33 C 0.9406(3) 0.3178(2) 1.21570(14)
H34 H 0.8420 0.2583 1.2155
H35 H 0.9814 0.3659 1.2678
H36 H 1.0116 0.2758 1.1966
C34 C 0.8108(3) 0.4669(2) 1.19194(15)
H37 H 0.7972 0.5173 1.1571
H38 H 0.8520 0.5182 1.2432
H39 H 0.7123 0.4082 1.1931
C35 C 0.9578(2) 0.34463(18) 1.02945(12)
C36 C 0.8784(2) 0.24622(19) 0.95826(12)
H40 H 0.9285 0.1818 0.9548
C37 C 0.8994(2) 0.2954(2) 0.88725(12)
H41 H 0.8306 0.3446 0.8835
H42 H 1.0052 0.3500 0.8934
C38 C 0.8696(3) 0.2024(2) 0.81479(14)
loop_
_geom_bond_atom_site_label_1
_geom_bond_atom_site_label_2
_geom_bond_site_symmetry_1
_geom_bond_site_symmetry_2
F1 C19 1_555 1_555
F2 C19 1_555 1_555
F3 C19 1_555 1_555
O1 C9 1_555 1_555
O2 C9 1_555 1_555
O3 C16 1_555 1_555
N1 C1 1_555 1_555
N2 C12 1_555 1_555
C1 C2 1_555 1_555
C2 H1 1_555 1_555
C3 C2 1_555 1_555
H2 C3 1_555 1_555
C4 C3 1_555 1_555
H3 C4 1_555 1_555
C5 C4 1_555 1_555
H4 C5 1_555 1_555
C6 C1 1_555 1_555
C7 C6 1_555 1_555
C8 N1 1_555 1_555
C9 C8 1_555 1_555
C10 O1 1_555 1_555
H5 C10 1_555 1_555
H6 C10 1_555 1_555
C11 C10 1_555 1_555
H7 C11 1_555 1_555
H8 C11 1_555 1_555
H9 C11 1_555 1_555
C12 C7 1_555 1_555
H10 C12 1_555 1_555
H11 C12 1_555 1_555
C13 N2 1_555 1_555
H12 C13 1_555 1_555
C14 C13 1_555 1_555
H13 C14 1_555 1_555
H14 C14 1_555 1_555
H15 C14 1_555 1_555
C15 C13 1_555 1_555
H16 C15 1_555 1_555
H17 C15 1_555 1_555
H18 C15 1_555 1_555
C16 N2 1_555 1_555
C17 C7 1_555 1_555
H19 C17 1_555 1_555
C18 C17 1_555 1_555
H20 C18 1_555 1_555
H21 C18 1_555 1_555
C19 C18 1_555 1_555
F4 C38 1_555 1_555
F5 C38 1_555 1_555
F6 C38 1_555 1_555
O4 C28 1_555 1_555
O5 C28 1_555 1_555
O6 C35 1_555 1_555
N3 C20 1_555 1_555
N4 C31 1_555 1_555
C20 C21 1_555 1_555
C21 H22 1_555 1_555
C22 C21 1_555 1_555
H23 C22 1_555 1_555
C23 C22 1_555 1_555
H24 C23 1_555 1_555
C24 C23 1_555 1_555
H25 C24 1_555 1_555
C25 C20 1_555 1_555
C26 C25 1_555 1_555
C27 N3 1_555 1_555
C28 C27 1_555 1_555
C29 O4 1_555 1_555
H26 C29 1_555 1_555
H27 C29 1_555 1_555
C30 C29 1_555 1_555
H28 C30 1_555 1_555
H29 C30 1_555 1_555
H30 C30 1_555 1_555
C31 C26 1_555 1_555
H31 C31 1_555 1_555
H32 C31 1_555 1_555
C32 N4 1_555 1_555
H33 C32 1_555 1_555
C33 C32 1_555 1_555
H34 C33 1_555 1_555
H35 C33 1_555 1_555
H36 C33 1_555 1_555
C34 C32 1_555 1_555
H37 C34 1_555 1_555
H38 C34 1_555 1_555
H39 C34 1_555 1_555
C35 N4 1_555 1_555
C36 C26 1_555 1_555
H40 C36 1_555 1_555
C37 C36 1_555 1_555
H41 C37 1_555 1_555
H42 C37 1_555 1_555
C38 C37 1_555 1_555
C5 C6 1_555 1_555
C7 C8 1_555 1_555
C16 C17 1_555 1_555
C24 C25 1_555 1_555
C26 C27 1_555 1_555
C35 C36 1_555 1_555

#END
