
#######################################################################
#
#                 Cambridge Crystallographic Data Centre
#                                CCDC 
#
#######################################################################
#
# If this CIF has been generated from an entry in the Cambridge 
# Structural Database, then it will include bibliographic, chemical, 
# crystal, experimental, refinement or atomic coordinate data resulting 
# from the CCDC's data processing and validation procedures.
#
#######################################################################

data_VABPAR
_chemical_formula_moiety         'C7 H8 Cl1 N3 O1'
_chemical_name_systematic        N-(2-Chloroethyl)pyrazine-2-carboxamide
_symmetry_cell_setting           monoclinic
_symmetry_space_group_name_H-M   'P 21/c'
_symmetry_Int_Tables_number      14
_space_group_name_Hall           '-P 2ybc'
loop_
_symmetry_equiv_pos_site_id
_symmetry_equiv_pos_as_xyz
1 x,y,z
2 -x,1/2+y,1/2-z
3 -x,-y,-z
4 x,1/2-y,1/2+z
_cell_length_a                   4.4639(2)
_cell_length_b                   10.6865(6)
_cell_length_c                   17.3583(9)
_cell_angle_alpha                90
_cell_angle_beta                 93.028(3)
_cell_angle_gamma                90
_cell_volume                     826.895
_exptl_crystal_colour            colorless
_exptl_crystal_description       prism
_chemical_melting_point          '384-386 K'
_cell_formula_units_Z            4
_exptl_crystal_recrystallization_method ethanol
loop_
_atom_site_label
_atom_site_type_symbol
_atom_site_fract_x
_atom_site_fract_y
_atom_site_fract_z
Cl1 Cl 0.65306(10) 0.64380(4) 0.49830(2)
O1 O 0.7056(3) 1.04630(12) 0.60138(7)
N1 N 0.8112(3) 0.84349(13) 0.63161(8)
H1 H 0.785(5) 0.7824(15) 0.6637(10)
N2 N 0.4415(3) 0.85341(14) 0.75082(8)
N3 N 0.1647(4) 1.07915(15) 0.78848(9)
C1 C 0.6754(4) 0.95343(16) 0.64249(9)
C2 C 0.4763(4) 0.95775(15) 0.70976(9)
C3 C 0.2635(4) 0.86226(18) 0.80989(10)
H2 H 0.2273 0.7897 0.8396
C4 C 0.1292(4) 0.97467(19) 0.82923(10)
H3 H 0.0087 0.9772 0.8727
C5 C 0.3352(4) 1.06922(17) 0.72769(10)
H4 H 0.3607 1.1403 0.6959
C6 C 1.0072(4) 0.82477(17) 0.56832(9)
H5 H 1.1499 0.7565 0.5821
H6 H 1.1252 0.9020 0.5613
C7 C 0.8395(4) 0.79260(17) 0.49280(10)
H7 H 0.9823 0.7900 0.4511
H8 H 0.6894 0.8586 0.4799
loop_
_geom_bond_atom_site_label_1
_geom_bond_atom_site_label_2
_geom_bond_site_symmetry_1
_geom_bond_site_symmetry_2
Cl1 C7 1_555 1_555
O1 C1 1_555 1_555
N1 H1 1_555 1_555
N2 C2 1_555 1_555
N3 C4 1_555 1_555
C1 N1 1_555 1_555
C2 C1 1_555 1_555
C3 N2 1_555 1_555
H2 C3 1_555 1_555
C4 C3 1_555 1_555
H3 C4 1_555 1_555
C5 N3 1_555 1_555
H4 C5 1_555 1_555
C6 N1 1_555 1_555
H5 C6 1_555 1_555
H6 C6 1_555 1_555
C7 C6 1_555 1_555
H7 C7 1_555 1_555
H8 C7 1_555 1_555
C2 C5 1_555 1_555

#END
