
#######################################################################
#
#                 Cambridge Crystallographic Data Centre
#                                CCDC 
#
#######################################################################
#
# If this CIF has been generated from an entry in the Cambridge 
# Structural Database, then it will include bibliographic, chemical, 
# crystal, experimental, refinement or atomic coordinate data resulting 
# from the CCDC's data processing and validation procedures.
#
#######################################################################

data_VABZAC
_chemical_formula_moiety         'C19 H15 B1 F2 N2 O2'
_chemical_name_systematic        
difluoro(2-(6-methoxypyrimidin-4-yl)-1,2-diphenylethenolato)borate
_symmetry_cell_setting           monoclinic
_symmetry_space_group_name_H-M   'P 21/n'
_symmetry_Int_Tables_number      14
_space_group_name_Hall           '-P 2yn'
loop_
_symmetry_equiv_pos_site_id
_symmetry_equiv_pos_as_xyz
1 x,y,z
2 1/2-x,1/2+y,1/2-z
3 -x,-y,-z
4 1/2+x,1/2-y,1/2+z
_cell_length_a                   9.9518(8)
_cell_length_b                   17.5792(15)
_cell_length_c                   10.0373(9)
_cell_angle_alpha                90
_cell_angle_beta                 107.906(2)
_cell_angle_gamma                90
_cell_volume                     1670.92
_exptl_crystal_colour            yellow
_exptl_crystal_description       block
_cell_formula_units_Z            4
loop_
_atom_site_label
_atom_site_type_symbol
_atom_site_fract_x
_atom_site_fract_y
_atom_site_fract_z
N1 N 0.25719(17) 0.02874(9) 0.26621(18)
O1 O -0.12507(15) 0.02615(8) 0.31995(18)
F1 F 0.45633(13) -0.05191(6) 0.29780(16)
O2 O 0.50165(14) 0.07576(8) 0.33274(16)
C1 C 0.2862(2) 0.20843(10) 0.4756(2)
N2 N 0.03030(18) -0.02684(10) 0.2180(2)
C2 C 0.2236(2) 0.08727(10) 0.3407(2)
C3 C 0.4627(2) 0.13542(11) 0.3942(2)
C4 C 0.5823(2) 0.18751(11) 0.4552(2)
F2 F 0.39854(14) 0.02607(8) 0.11294(14)
C5 C -0.0005(2) 0.02778(12) 0.2970(2)
C6 C 0.32877(19) 0.14411(10) 0.4001(2)
C7 C 0.0902(2) 0.08612(11) 0.3559(2)
H1 H 0.0621 0.1244 0.4055
C8 C 0.7166(2) 0.15734(12) 0.5143(2)
H2 H 0.7293 0.1049 0.5162
C9 C 0.3358(2) 0.21325(11) 0.6196(2)
H3 H 0.3984 0.1767 0.6704
C10 C 0.1931(2) 0.26392(11) 0.4023(2)
H4 H 0.1588 0.2617 0.3051
C11 C 0.1584(2) -0.02350(12) 0.2082(3)
H5 H 0.1834 -0.0613 0.1554
C12 C 0.5672(2) 0.26641(11) 0.4505(2)
H6 H 0.4785 0.2879 0.4107
B1 B 0.4088(3) 0.01946(13) 0.2513(3)
C13 C 0.8313(2) 0.20420(14) 0.5700(2)
H7 H 0.9203 0.1833 0.6113
C14 C 0.2012(3) 0.32578(13) 0.6158(3)
H8 H 0.1725 0.3649 0.6633
C15 C 0.8138(3) 0.28171(14) 0.5644(3)
H9 H 0.8911 0.3134 0.6016
C16 C 0.6825(3) 0.31268(13) 0.5040(2)
H10 H 0.6715 0.3652 0.4994
C17 C 0.1509(2) 0.32244(11) 0.4727(3)
H11 H 0.0887 0.3594 0.4229
C18 C 0.2935(3) 0.27171(13) 0.6892(3)
H12 H 0.3278 0.2744 0.7864
C19 C -0.2230(2) -0.03333(14) 0.2563(3)
H13 H -0.2541 -0.0268 0.1565
H14 H -0.3029 -0.0311 0.2907
H15 H -0.1774 -0.0818 0.2792
loop_
_geom_bond_atom_site_label_1
_geom_bond_atom_site_label_2
_geom_bond_site_symmetry_1
_geom_bond_site_symmetry_2
N1 C2 1_555 1_555
O1 C5 1_555 1_555
F1 B1 1_555 1_555
O2 C3 1_555 1_555
C1 C6 1_555 1_555
N2 C5 1_555 1_555
C2 C6 1_555 1_555
C3 C4 1_555 1_555
C4 C8 1_555 1_555
F2 B1 1_555 1_555
C5 C7 1_555 1_555
C6 C3 1_555 1_555
C7 C2 1_555 1_555
H1 C7 1_555 1_555
C8 H2 1_555 1_555
C9 C1 1_555 1_555
H3 C9 1_555 1_555
C10 C1 1_555 1_555
H4 C10 1_555 1_555
C11 N1 1_555 1_555
H5 C11 1_555 1_555
C12 C4 1_555 1_555
H6 C12 1_555 1_555
B1 N1 1_555 1_555
C13 C8 1_555 1_555
H7 C13 1_555 1_555
C14 H8 1_555 1_555
C15 C13 1_555 1_555
H9 C15 1_555 1_555
C16 C12 1_555 1_555
H10 C16 1_555 1_555
C17 C10 1_555 1_555
H11 C17 1_555 1_555
C18 C9 1_555 1_555
H12 C18 1_555 1_555
C19 O1 1_555 1_555
H13 C19 1_555 1_555
H14 C19 1_555 1_555
H15 C19 1_555 1_555
O2 B1 1_555 1_555
N2 C11 1_555 1_555
C14 C17 1_555 1_555
C14 C18 1_555 1_555
C15 C16 1_555 1_555

#END
