
#######################################################################
#
#                 Cambridge Crystallographic Data Centre
#                                CCDC 
#
#######################################################################
#
# If this CIF has been generated from an entry in the Cambridge 
# Structural Database, then it will include bibliographic, chemical, 
# crystal, experimental, refinement or atomic coordinate data resulting 
# from the CCDC's data processing and validation procedures.
#
#######################################################################

data_VABZAB
_chemical_formula_moiety         'C14 H15 N5 O2'
_chemical_name_systematic        
6-Isopropyl-5-methoxy-3-phenyl-3H-1,2,3-triazolo[4,5-d]pyrimidin-7(6H)-one
_symmetry_cell_setting           orthorhombic
_symmetry_space_group_name_H-M   'P n m a'
_symmetry_Int_Tables_number      62
_space_group_name_Hall           '-P 2ac 2n'
loop_
_symmetry_equiv_pos_site_id
_symmetry_equiv_pos_as_xyz
1 x,y,z
2 1/2-x,-y,1/2+z
3 1/2+x,1/2-y,1/2-z
4 -x,1/2+y,-z
5 -x,-y,-z
6 1/2+x,y,1/2-z
7 1/2-x,1/2+y,1/2+z
8 x,1/2-y,z
_cell_length_a                   14.921(2)
_cell_length_b                   6.7989(11)
_cell_length_c                   13.839(2)
_cell_angle_alpha                90
_cell_angle_beta                 90
_cell_angle_gamma                90
_cell_volume                     1403.92
_exptl_crystal_colour            colorless
_exptl_crystal_description       block
_chemical_melting_point          '471 K'
_cell_formula_units_Z            4
_exptl_crystal_recrystallization_method hexane/dichloromethane
loop_
_atom_site_label
_atom_site_type_symbol
_atom_site_fract_x
_atom_site_fract_y
_atom_site_fract_z
O1 O 0.36483(19) 0.2500 0.3850(3)
O2 O 0.24610(18) 0.2500 0.6874(2)
N1 N 0.06296(18) 0.2500 0.41475(18)
N2 N 0.0868(3) 0.2500 0.3193(2)
N3 N 0.1730(3) 0.2500 0.3126(2)
N4 N 0.14519(17) 0.2500 0.5659(2)
N5 N 0.30395(19) 0.2500 0.5368(3)
C1 C -0.0298(2) 0.2500 0.4402(2)
C2 C -0.0554(2) 0.2500 0.5362(2)
H1 H -0.0124 0.2500 0.5848
C3 C -0.1452(2) 0.2500 0.5591(3)
H2 H -0.1626 0.2500 0.6236
C4 C -0.2092(3) 0.2500 0.4886(3)
H3 H -0.2697 0.2500 0.5049
C5 C -0.1835(3) 0.2500 0.3938(3)
H4 H -0.2270 0.2500 0.3457
C6 C -0.0949(3) 0.2500 0.3683(3)
H5 H -0.0783 0.2500 0.3035
C7 C 0.1382(2) 0.2500 0.4688(2)
C8 C 0.2070(2) 0.2500 0.4039(3)
C9 C 0.2979(3) 0.2500 0.4346(3)
C10 C 0.2277(2) 0.2500 0.5942(3)
C11 C 0.3973(3) 0.2500 0.5789(4)
H6 H 0.4338 0.2500 0.5200
C12 C 0.4225(2) 0.0624(6) 0.6212(3)
H7 H 0.4861 0.0599 0.6319
H8 H 0.4063 -0.0421 0.5780
H9 H 0.3919 0.0454 0.6816
C13 C 0.1714(3) 0.2500 0.7534(3)
H10 H 0.1933 0.2500 0.8186
H11 H 0.1356 0.1347 0.7427
C12G C 0.4225(2) 0.4376(6) 0.6212(3)
H7G H 0.4861 0.4401 0.6319
H8G H 0.4063 0.5421 0.5780
H9G H 0.3919 0.4546 0.6816
H11G H 0.1356 0.3653 0.7427
loop_
_geom_bond_atom_site_label_1
_geom_bond_atom_site_label_2
_geom_bond_site_symmetry_1
_geom_bond_site_symmetry_2
O1 C9 1_555 1_555
O2 C10 1_555 1_555
N1 N2 1_555 1_555
N2 N3 1_555 1_555
N3 C8 1_555 1_555
N4 C7 1_555 1_555
N5 C9 1_555 1_555
C1 N1 1_555 1_555
C2 C1 1_555 1_555
H1 C2 1_555 1_555
C3 C2 1_555 1_555
H2 C3 1_555 1_555
C4 C3 1_555 1_555
H3 C4 1_555 1_555
C5 C4 1_555 1_555
H4 C5 1_555 1_555
C6 C1 1_555 1_555
H5 C6 1_555 1_555
C7 N1 1_555 1_555
C8 C7 1_555 1_555
C9 C8 1_555 1_555
C10 N4 1_555 1_555
C11 N5 1_555 1_555
H6 C11 1_555 1_555
C12 C11 1_555 1_555
H7 C12 1_555 1_555
H8 C12 1_555 1_555
H9 C12 1_555 1_555
C13 O2 1_555 1_555
H10 C13 1_555 1_555
H11 C13 1_555 1_555
C12G C11 1_555 1_555
H7G C12G 1_555 1_555
H8G C12G 1_555 1_555
H9G C12G 1_555 1_555
H11G C13 1_555 1_555
N5 C10 1_555 1_555
C5 C6 1_555 1_555

#END
