
#######################################################################
#
#                 Cambridge Crystallographic Data Centre
#                                CCDC 
#
#######################################################################
#
# If this CIF has been generated from an entry in the Cambridge 
# Structural Database, then it will include bibliographic, chemical, 
# crystal, experimental, refinement or atomic coordinate data resulting 
# from the CCDC's data processing and validation procedures.
#
#######################################################################

data_VACQEY
_chemical_formula_moiety         'C25 H32 O3 S1'
_chemical_name_systematic        
5',6a'-dihydroxy-4a',9a'-dimethyl-10'-(phenylsulfanyl)decahydro-1'H-spiro[cyclopropane-1,7'-pentaleno[1,2-c]inden]-4'(4a'H)-one
_symmetry_cell_setting           monoclinic
_symmetry_space_group_name_H-M   'P 21'
_symmetry_Int_Tables_number      4
_space_group_name_Hall           'P 2yb'
loop_
_symmetry_equiv_pos_site_id
_symmetry_equiv_pos_as_xyz
1 x,y,z
2 -x,1/2+y,-z
_cell_length_a                   11.4301(4)
_cell_length_b                   7.0124(2)
_cell_length_c                   13.9876(6)
_cell_angle_alpha                90
_cell_angle_beta                 100.061(4)
_cell_angle_gamma                90
_cell_volume                     1103.9
_exptl_crystal_colour            'light yellow'
_exptl_crystal_description       block
_cell_formula_units_Z            2
loop_
_atom_site_label
_atom_site_type_symbol
_atom_site_fract_x
_atom_site_fract_y
_atom_site_fract_z
S1 S -0.06589(7) -0.24105(12) -0.71803(6)
O1 O -0.43987(18) -0.0293(3) -0.63114(16)
H1 H -0.5126 -0.0215 -0.6426
O2 O -0.3621(2) -0.6450(3) -0.66109(18)
H2 H -0.3975 -0.7459 -0.6580
O3 O -0.3179(2) -0.4385(5) -0.38864(18)
C1 C -0.4291(2) -0.2546(5) -0.76643(19)
H3 H -0.4554 -0.3866 -0.7793
C2 C -0.5136(3) -0.1220(5) -0.8282(2)
C3 C -0.4413(3) 0.0461(6) -0.8563(3)
H4 H -0.4609 0.1621 -0.8247
H5 H -0.4571 0.0656 -0.9260
C4 C -0.3100(3) -0.0083(5) -0.8214(2)
H6 H -0.2772 0.0617 -0.7630
H7 H -0.2631 0.0196 -0.8712
C5 C -0.3105(2) -0.2245(5) -0.8008(2)
C6 C -0.2207(2) -0.3016(4) -0.7149(2)
H8 H -0.2260 -0.4409 -0.7190
C7 C -0.2663(2) -0.2434(4) -0.61852(19)
C8 C -0.4043(2) -0.2185(4) -0.65481(19)
C9 C -0.4640(3) -0.3741(4) -0.6018(2)
H9 H -0.4858 -0.3237 -0.5428
H10 H -0.5348 -0.4221 -0.6432
C10 C -0.3721(3) -0.5306(4) -0.5785(2)
H11 H -0.3901 -0.6105 -0.5254
C11 C -0.2579(3) -0.4158(4) -0.5449(2)
C12 C -0.2601(3) -0.3516(5) -0.4392(2)
C13 C -0.1877(3) -0.1838(5) -0.4017(2)
H12 H -0.1040 -0.2119 -0.3981
H13 H -0.2013 -0.1521 -0.3370
C14 C -0.2233(3) -0.0167(5) -0.4702(2)
H14 H -0.3067 0.0126 -0.4725
H15 H -0.1772 0.0951 -0.4464
C15 C -0.2015(3) -0.0665(4) -0.5714(2)
H16 H -0.1168 -0.0852 -0.5682
H17 H -0.2247 0.0420 -0.6135
C16 C -0.6115(3) -0.2067(7) -0.9024(2)
H18 H -0.6294 -0.1456 -0.9655
H19 H -0.6205 -0.3442 -0.9035
C17 C -0.6419(3) -0.1009(7) -0.8171(3)
H20 H -0.6692 -0.1747 -0.7666
H21 H -0.6781 0.0239 -0.8287
C18 C -0.0176(3) -0.4236(5) -0.7910(2)
C19 C -0.0549(3) -0.6105(6) -0.7949(3)
H22 H -0.1127 -0.6480 -0.7595
C20 C -0.0078(3) -0.7438(7) -0.8509(3)
H23 H -0.0342 -0.8694 -0.8529
C21 C 0.0772(4) -0.6907(8) -0.9028(4)
H24 H 0.1084 -0.7796 -0.9408
C22 C 0.1159(4) -0.5074(9) -0.8988(4)
H25 H 0.1748 -0.4721 -0.9335
C23 C 0.0691(3) -0.3715(7) -0.8436(3)
H26 H 0.0960 -0.2462 -0.8422
C24 C -0.3043(3) -0.3347(6) -0.8943(2)
H27 H -0.2262 -0.3224 -0.9100
H28 H -0.3618 -0.2839 -0.9464
H29 H -0.3211 -0.4670 -0.8852
C25 C -0.1412(3) -0.5308(5) -0.5363(3)
H30 H -0.1442 -0.6105 -0.5925
H31 H -0.1316 -0.6088 -0.4791
H32 H -0.0753 -0.4445 -0.5321
loop_
_geom_bond_atom_site_label_1
_geom_bond_atom_site_label_2
_geom_bond_site_symmetry_1
_geom_bond_site_symmetry_2
S1 C6 1_555 1_555
O1 H1 1_555 1_555
O2 H2 1_555 1_555
O3 C12 1_555 1_555
C1 H3 1_555 1_555
C2 C1 1_555 1_555
C3 C2 1_555 1_555
H4 C3 1_555 1_555
H5 C3 1_555 1_555
C4 C3 1_555 1_555
H6 C4 1_555 1_555
H7 C4 1_555 1_555
C5 C1 1_555 1_555
C6 C5 1_555 1_555
H8 C6 1_555 1_555
C7 C6 1_555 1_555
C8 O1 1_555 1_555
C9 C8 1_555 1_555
H9 C9 1_555 1_555
H10 C9 1_555 1_555
C10 O2 1_555 1_555
H11 C10 1_555 1_555
C11 C7 1_555 1_555
C12 C11 1_555 1_555
C13 C12 1_555 1_555
H12 C13 1_555 1_555
H13 C13 1_555 1_555
C14 C13 1_555 1_555
H14 C14 1_555 1_555
H15 C14 1_555 1_555
C15 C7 1_555 1_555
H16 C15 1_555 1_555
H17 C15 1_555 1_555
C16 C2 1_555 1_555
H18 C16 1_555 1_555
H19 C16 1_555 1_555
C17 C2 1_555 1_555
H20 C17 1_555 1_555
H21 C17 1_555 1_555
C18 S1 1_555 1_555
C19 C18 1_555 1_555
H22 C19 1_555 1_555
C20 C19 1_555 1_555
H23 C20 1_555 1_555
C21 C20 1_555 1_555
H24 C21 1_555 1_555
C22 C21 1_555 1_555
H25 C22 1_555 1_555
C23 C18 1_555 1_555
H26 C23 1_555 1_555
C24 C5 1_555 1_555
H27 C24 1_555 1_555
H28 C24 1_555 1_555
H29 C24 1_555 1_555
C25 C11 1_555 1_555
H30 C25 1_555 1_555
H31 C25 1_555 1_555
H32 C25 1_555 1_555
C1 C8 1_555 1_555
C4 C5 1_555 1_555
C7 C8 1_555 1_555
C9 C10 1_555 1_555
C10 C11 1_555 1_555
C14 C15 1_555 1_555
C16 C17 1_555 1_555
C22 C23 1_555 1_555

#END
