
#######################################################################
#
#                 Cambridge Crystallographic Data Centre
#                                CCDC 
#
#######################################################################
#
# If this CIF has been generated from an entry in the Cambridge 
# Structural Database, then it will include bibliographic, chemical, 
# crystal, experimental, refinement or atomic coordinate data resulting 
# from the CCDC's data processing and validation procedures.
#
#######################################################################

data_VACXOP
_chemical_formula_moiety         'C22 H24 N2 O1'
_chemical_name_systematic        
3-anilino-2-t-butyl-3,4-dihydropyrido[2,1-a]isoindol-6(2H)-one
_symmetry_cell_setting           orthorhombic
_symmetry_space_group_name_H-M   'P c a 21'
_symmetry_Int_Tables_number      29
_space_group_name_Hall           'P 2c -2ac'
loop_
_symmetry_equiv_pos_site_id
_symmetry_equiv_pos_as_xyz
1 x,y,z
2 -x,-y,1/2+z
3 1/2-x,y,1/2+z
4 1/2+x,-y,z
_cell_length_a                   7.4882(6)
_cell_length_b                   14.6953(12)
_cell_length_c                   16.2189(13)
_cell_angle_alpha                90
_cell_angle_beta                 90
_cell_angle_gamma                90
_cell_volume                     1784.75
_exptl_crystal_colour            colorless
_exptl_crystal_description       needle
_cell_formula_units_Z            4
loop_
_atom_site_label
_atom_site_type_symbol
_atom_site_fract_x
_atom_site_fract_y
_atom_site_fract_z
C1 C 0.7590(10) 0.4912(5) 0.3814(5)
C2 C 0.6772(10) 0.5189(5) 0.4596(5)
C3 C 0.6529(10) 0.6066(5) 0.4923(5)
H1 H 0.6896 0.6592 0.4626
C4 C 0.5747(10) 0.6138(5) 0.5682(5)
H2 H 0.5565 0.6723 0.5916
C5 C 0.5213(11) 0.5366(5) 0.6116(5)
H3 H 0.4678 0.5437 0.6643
C6 C 0.5442(11) 0.4497(5) 0.5799(5)
H4 H 0.5082 0.3974 0.6101
C7 C 0.6214(9) 0.4417(5) 0.5025(5)
C8 C 0.6610(9) 0.3627(5) 0.4505(4)
C9 C 0.6235(9) 0.2743(5) 0.4592(5)
H5 H 0.5725 0.2542 0.5096
C10 C 0.6593(10) 0.2039(4) 0.3914(5)
H6 H 0.5445 0.1700 0.3843
C11 C 0.6898(9) 0.2553(5) 0.3088(5)
H7 H 0.7445 0.2116 0.2688
C12 C 0.8158(9) 0.3374(5) 0.3168(5)
H8 H 0.9369 0.3167 0.3326
H9 H 0.8243 0.3698 0.2634
C13 C 0.8003(10) 0.1309(5) 0.4167(5)
C14 C 0.9887(10) 0.1684(5) 0.4315(5)
H10 H 1.0633 0.1210 0.4564
H11 H 0.9822 0.2208 0.4687
H12 H 1.0409 0.1873 0.3788
C15 C 0.7366(11) 0.0857(5) 0.4976(5)
H13 H 0.8141 0.0339 0.5105
H14 H 0.6134 0.0644 0.4909
H15 H 0.7419 0.1301 0.5426
C16 C 0.8110(11) 0.0564(5) 0.3505(5)
H16 H 0.8618 0.0819 0.2998
H17 H 0.6910 0.0329 0.3392
H18 H 0.8872 0.0067 0.3702
C17 C 0.3958(10) 0.2313(5) 0.2370(5)
C18 C 0.2263(10) 0.2639(5) 0.2218(4)
H19 H 0.1946 0.3229 0.2409
C19 C 0.1016(10) 0.2129(5) 0.1796(5)
H20 H -0.0129 0.2380 0.1685
C20 C 0.1419(10) 0.1245(5) 0.1529(5)
H21 H 0.0562 0.0888 0.1243
C21 C 0.3083(11) 0.0917(5) 0.1695(5)
H22 H 0.3374 0.0319 0.1519
C22 C 0.4368(10) 0.1416(5) 0.2107(5)
H23 H 0.5511 0.1162 0.2214
O1 O 0.8295(7) 0.5367(3) 0.3262(3)
N1 N 0.7458(8) 0.3972(4) 0.3788(4)
N2 N 0.5231(9) 0.2869(4) 0.2742(4)
H24 H 0.491(11) 0.334(5) 0.283(6)
loop_
_geom_bond_atom_site_label_1
_geom_bond_atom_site_label_2
_geom_bond_site_symmetry_1
_geom_bond_site_symmetry_2
C1 C2 1_555 1_555
C2 C3 1_555 1_555
C3 H1 1_555 1_555
C4 C3 1_555 1_555
H2 C4 1_555 1_555
C5 C4 1_555 1_555
H3 C5 1_555 1_555
C6 C5 1_555 1_555
H4 C6 1_555 1_555
C7 C2 1_555 1_555
C8 C7 1_555 1_555
C9 C8 1_555 1_555
H5 C9 1_555 1_555
C10 C9 1_555 1_555
H6 C10 1_555 1_555
C11 C10 1_555 1_555
H7 C11 1_555 1_555
C12 C11 1_555 1_555
H8 C12 1_555 1_555
H9 C12 1_555 1_555
C13 C10 1_555 1_555
C14 C13 1_555 1_555
H10 C14 1_555 1_555
H11 C14 1_555 1_555
H12 C14 1_555 1_555
C15 C13 1_555 1_555
H13 C15 1_555 1_555
H14 C15 1_555 1_555
H15 C15 1_555 1_555
C16 C13 1_555 1_555
H16 C16 1_555 1_555
H17 C16 1_555 1_555
H18 C16 1_555 1_555
C17 C18 1_555 1_555
C18 H19 1_555 1_555
C19 C18 1_555 1_555
H20 C19 1_555 1_555
C20 C19 1_555 1_555
H21 C20 1_555 1_555
C21 C20 1_555 1_555
H22 C21 1_555 1_555
C22 C17 1_555 1_555
H23 C22 1_555 1_555
O1 C1 1_555 1_555
N1 C1 1_555 1_555
N2 C11 1_555 1_555
H24 N2 1_555 1_555
C6 C7 1_555 1_555
C8 N1 1_555 1_555
C12 N1 1_555 1_555
C17 N2 1_555 1_555
C21 C22 1_555 1_555

#END
