
#######################################################################
#
#                 Cambridge Crystallographic Data Centre
#                                CCDC 
#
#######################################################################
#
# If this CIF has been generated from an entry in the Cambridge 
# Structural Database, then it will include bibliographic, chemical, 
# crystal, experimental, refinement or atomic coordinate data resulting 
# from the CCDC's data processing and validation procedures.
#
#######################################################################

data_VADWEC
_chemical_formula_moiety         'C17 H24 N2 O2'
_chemical_name_systematic        
\a-Cyano-N,N-di-isopropyl-\a-(3-methoxy-6-methylphenyl)acetamide
_symmetry_cell_setting           orthorhombic
_symmetry_space_group_name_H-M   'P b c a'
_symmetry_Int_Tables_number      61
_space_group_name_Hall           '-P 2ac 2ab'
loop_
_symmetry_equiv_pos_site_id
_symmetry_equiv_pos_as_xyz
1 x,y,z
2 1/2-x,1/2+y,z
3 x,1/2-y,1/2+z
4 1/2-x,-y,1/2+z
5 -x,-y,-z
6 1/2+x,1/2-y,-z
7 -x,1/2+y,1/2-z
8 1/2+x,y,1/2-z
_cell_length_a                   8.032(3)
_cell_length_b                   17.076(7)
_cell_length_c                   24.83(1)
_cell_angle_alpha                90
_cell_angle_beta                 90
_cell_angle_gamma                90
_cell_volume                     3405.54
_cell_formula_units_Z            8
loop_
_atom_site_label
_atom_site_type_symbol
_atom_site_fract_x
_atom_site_fract_y
_atom_site_fract_z
C1 C -0.1515(5) 0.1166(2) 0.4152(2)
C2 C -0.1913(5) 0.0640(3) 0.4557(2)
C3 C -0.2594(6) -0.0069(3) 0.4403(2)
C4 C -0.2912(6) -0.0255(3) 0.3874(2)
C5 C -0.2570(6) 0.0281(3) 0.3481(2)
C6 C -0.1857(5) 0.0992(2) 0.3620(2)
C7 C -0.0717(5) 0.1955(2) 0.4286(2)
C8 C 0.0292(6) 0.2323(2) 0.3826(2)
N1 N 0.1719(4) 0.1975(2) 0.3683(1)
C9 C -0.1680(7) 0.0829(3) 0.5140(2)
O1 O -0.2876(5) 0.0184(2) 0.2943(1)
C10 C -0.3618(9) -0.0518(3) 0.2783(2)
C11 C -0.2023(6) 0.2506(3) 0.4454(2)
N2 N -0.3052(6) 0.2904(2) 0.4608(2)
O2 O -0.0244(4) 0.2917(2) 0.3608(1)
C12 C 0.2384(6) 0.1259(3) 0.3938(2)
C13 C 0.2517(7) 0.0595(3) 0.3543(2)
C14 C 0.4018(6) 0.1415(3) 0.4218(2)
C15 C 0.2724(6) 0.2325(3) 0.3247(2)
C16 C 0.1826(7) 0.2335(3) 0.2712(2)
C17 C 0.3410(6) 0.3122(3) 0.3401(2)
H1 H -0.2854 -0.0447 0.4677
H2 H -0.3367 -0.0757 0.3781
H3 H -0.1598 0.1366 0.3344
H4 H 0.0044 0.1844 0.4574
H5 H -0.1199 0.1341 0.5174
H6 H -0.0950 0.0450 0.5300
H7 H -0.2737 0.0818 0.5321
H8 H -0.3771 -0.0516 0.2399
H9 H -0.4679 -0.0572 0.2957
H10 H -0.2915 -0.0949 0.2882
H11 H 0.1607 0.1097 0.4210
H12 H 0.2952 0.0140 0.3721
H13 H 0.3246 0.0740 0.3253
H14 H 0.1432 0.0479 0.3401
H15 H 0.4421 0.0941 0.4380
H16 H 0.3856 0.1804 0.4492
H17 H 0.4817 0.1602 0.3961
H18 H 0.3669 0.1988 0.3198
H19 H 0.2530 0.2569 0.2444
H20 H 0.0819 0.2633 0.2744
H21 H 0.1561 0.1808 0.2607
H22 H 0.4052 0.3329 0.3108
H23 H 0.4107 0.3070 0.3714
H24 H 0.2506 0.3471 0.3481
loop_
_geom_bond_atom_site_label_1
_geom_bond_atom_site_label_2
_geom_bond_site_symmetry_1
_geom_bond_site_symmetry_2
C1 C2 1_555 1_555
C2 C3 1_555 1_555
C3 C4 1_555 1_555
C4 C5 1_555 1_555
C5 C6 1_555 1_555
C6 C1 1_555 1_555
C7 C1 1_555 1_555
C8 C7 1_555 1_555
N1 C8 1_555 1_555
C9 C2 1_555 1_555
O1 C5 1_555 1_555
C10 O1 1_555 1_555
C11 C7 1_555 1_555
N2 C11 1_555 1_555
O2 C8 1_555 1_555
C12 N1 1_555 1_555
C13 C12 1_555 1_555
C14 C12 1_555 1_555
C15 N1 1_555 1_555
C16 C15 1_555 1_555
C17 C15 1_555 1_555
H1 C3 1_555 1_555
H2 C4 1_555 1_555
H3 C6 1_555 1_555
H4 C7 1_555 1_555
H5 C9 1_555 1_555
H6 C9 1_555 1_555
H7 C9 1_555 1_555
H8 C10 1_555 1_555
H9 C10 1_555 1_555
H10 C10 1_555 1_555
H11 C12 1_555 1_555
H12 C13 1_555 1_555
H13 C13 1_555 1_555
H14 C13 1_555 1_555
H15 C14 1_555 1_555
H16 C14 1_555 1_555
H17 C14 1_555 1_555
H18 C15 1_555 1_555
H19 C16 1_555 1_555
H20 C16 1_555 1_555
H21 C16 1_555 1_555
H22 C17 1_555 1_555
H23 C17 1_555 1_555
H24 C17 1_555 1_555

#END
