
#######################################################################
#
#                 Cambridge Crystallographic Data Centre
#                                CCDC 
#
#######################################################################
#
# If this CIF has been generated from an entry in the Cambridge 
# Structural Database, then it will include bibliographic, chemical, 
# crystal, experimental, refinement or atomic coordinate data resulting 
# from the CCDC's data processing and validation procedures.
#
#######################################################################

data_VADXED
_chemical_formula_moiety         'C12 H16 O4 S1'
_chemical_name_systematic        'trans-2-Hydroxycyclohexyl benzenesulfonate'
_symmetry_cell_setting           monoclinic
_symmetry_space_group_name_H-M   'P 21/c'
_symmetry_Int_Tables_number      14
_space_group_name_Hall           '-P 2ybc'
loop_
_symmetry_equiv_pos_site_id
_symmetry_equiv_pos_as_xyz
1 x,y,z
2 -x,1/2+y,1/2-z
3 -x,-y,-z
4 x,1/2-y,1/2+z
_cell_length_a                   5.6404(8)
_cell_length_b                   19.006(3)
_cell_length_c                   11.455(2)
_cell_angle_alpha                90
_cell_angle_beta                 94.58(2)
_cell_angle_gamma                90
_cell_volume                     1224.07
_exptl_crystal_colour            colorless
_chemical_melting_point          361-362K
_cell_formula_units_Z            4
loop_
_atom_site_label
_atom_site_type_symbol
_atom_site_fract_x
_atom_site_fract_y
_atom_site_fract_z
S1 S 0.4179(1) 0.6225(1) 0.2184(1)
O1 O 0.4763(2) 0.6303(1) 0.3540(1)
O2 O 0.7567(3) 0.5319(1) 0.4918(1)
O3 O 0.5575(3) 0.6706(1) 0.1575(1)
O4 O 0.1650(2) 0.6264(1) 0.2033(1)
C1 C 0.7213(3) 0.6472(1) 0.4004(1)
C2 C 0.7677(3) 0.6059(1) 0.5125(2)
C3 C 1.0109(4) 0.6253(1) 0.5697(2)
C4 C 1.0344(4) 0.7038(1) 0.5923(2)
C5 C 0.9828(4) 0.7451(1) 0.4800(2)
C6 C 0.7393(4) 0.7256(1) 0.4212(2)
C7 C 0.5042(3) 0.5359(1) 0.1875(1)
C8 C 0.3617(4) 0.4812(1) 0.2180(2)
C9 C 0.4198(4) 0.4132(1) 0.1889(2)
C10 C 0.6178(4) 0.4003(1) 0.1303(2)
C11 C 0.7618(4) 0.4553(1) 0.1014(2)
C12 C 0.7067(3) 0.5239(1) 0.1292(2)
H1 H 0.6260(29) 0.5228(13) 0.4812(22)
H2 H 0.8374 0.6349 0.3471
H3 H 0.6467 0.6177 0.5636
H4 H 1.0355 0.6008 0.6429
H5 H 1.1299 0.6112 0.5190
H6 H 1.1935 0.7139 0.6240
H7 H 0.9237 0.7175 0.6476
H8 H 0.9852 0.7945 0.4978
H9 H 1.1027 0.7348 0.4276
H10 H 0.7161 0.7496 0.3475
H11 H 0.6184 0.7397 0.4708
H12 H 0.2230 0.4903 0.2591
H13 H 0.3210 0.3748 0.2098
H14 H 0.6562 0.3530 0.1094
H15 H 0.9019 0.4458 0.0616
H16 H 0.8061 0.5622 0.1088
loop_
_geom_bond_atom_site_label_1
_geom_bond_atom_site_label_2
_geom_bond_site_symmetry_1
_geom_bond_site_symmetry_2
S1 O1 1_555 1_555
O1 C1 1_555 1_555
O2 C2 1_555 1_555
O3 S1 1_555 1_555
O4 S1 1_555 1_555
C1 C2 1_555 1_555
C2 C3 1_555 1_555
C3 C4 1_555 1_555
C4 C5 1_555 1_555
C5 C6 1_555 1_555
C6 C1 1_555 1_555
C7 S1 1_555 1_555
C8 C7 1_555 1_555
C9 C8 1_555 1_555
C10 C9 1_555 1_555
C11 C10 1_555 1_555
C12 C7 1_555 1_555
H1 O2 1_555 1_555
H2 C1 1_555 1_555
H3 C2 1_555 1_555
H4 C3 1_555 1_555
H5 C3 1_555 1_555
H6 C4 1_555 1_555
H7 C4 1_555 1_555
H8 C5 1_555 1_555
H9 C5 1_555 1_555
H10 C6 1_555 1_555
H11 C6 1_555 1_555
H12 C8 1_555 1_555
H13 C9 1_555 1_555
H14 C10 1_555 1_555
H15 C11 1_555 1_555
H16 C12 1_555 1_555
C11 C12 1_555 1_555

#END
