
#######################################################################
#
#                 Cambridge Crystallographic Data Centre
#                                CCDC 
#
#######################################################################
#
# If this CIF has been generated from an entry in the Cambridge 
# Structural Database, then it will include bibliographic, chemical, 
# crystal, experimental, refinement or atomic coordinate data resulting 
# from the CCDC's data processing and validation procedures.
#
#######################################################################

data_VADXON
_chemical_formula_moiety         'C16 H18 O4 S1'
_chemical_name_systematic        
'trans-2-Hydroxycyclohexyl 2-naphthalenesulfonate'
_symmetry_cell_setting           monoclinic
_symmetry_space_group_name_H-M   'P 21'
_symmetry_Int_Tables_number      4
_space_group_name_Hall           'P 2yb'
loop_
_symmetry_equiv_pos_site_id
_symmetry_equiv_pos_as_xyz
1 x,y,z
2 -x,1/2+y,-z
_cell_length_a                   9.399(3)
_cell_length_b                   6.218(2)
_cell_length_c                   13.614(3)
_cell_angle_alpha                90
_cell_angle_beta                 109.17(2)
_cell_angle_gamma                90
_cell_volume                     751.523
_exptl_crystal_colour            colorless
_chemical_melting_point          367-369K
_cell_formula_units_Z            2
loop_
_atom_site_label
_atom_site_type_symbol
_atom_site_fract_x
_atom_site_fract_y
_atom_site_fract_z
S1 S 0.7936(1) 0.3000 0.3243(1)
O1 O 0.8384(2) 0.4347(4) 0.4269(2)
O2 O 0.7361(3) 0.0953(4) 0.3405(2)
O3 O 0.9222(3) 0.3153(6) 0.2908(2)
C1 C 0.7592(4) 0.4019(5) 0.5034(3)
C2 C 0.7377(4) 0.6231(5) 0.5414(3)
O4 O 0.6369(3) 0.7474(5) 0.4599(2)
C3 C 0.6705(5) 0.6039(6) 0.6288(3)
C4 C 0.7643(5) 0.4614(7) 0.7160(3)
C5 C 0.7842(5) 0.2404(6) 0.6754(3)
C6 C 0.8540(4) 0.2604(6) 0.5881(3)
C7 C 0.5089(4) 0.3623(5) 0.1959(2)
C8 C 0.6475(3) 0.4496(5) 0.2368(2)
C9 C 0.6820(4) 0.6561(6) 0.2082(3)
C10 C 0.5724(4) 0.7660(5) 0.1349(3)
C11 C 0.4275(4) 0.6824(5) 0.0880(2)
C12 C 0.3140(5) 0.7909(7) 0.0084(3)
C13 C 0.1754(5) 0.7011(7) -0.0378(3)
C14 C 0.1435(4) 0.5007(8) -0.0056(3)
C15 C 0.2489(4) 0.3894(6) 0.0711(3)
C16 C 0.3934(4) 0.4761(6) 0.1186(3)
H1 H 0.6630 0.3326 0.4751
H2 H 0.8342 0.6926 0.5654
H3 H 0.6949(46) 0.8121(72) 0.4197(33)
H4 H 0.5712 0.5440 0.6011
H5 H 0.6646 0.7447 0.6561
H6 H 0.8615 0.5260 0.7473
H7 H 0.7149 0.4472 0.7672
H8 H 0.8495 0.1560 0.7311
H9 H 0.6879 0.1711 0.6487
H10 H 0.8605 0.1203 0.5602
H11 H 0.9531 0.3211 0.6159
H12 H 0.4881 0.2234 0.2187
H13 H 0.7802 0.7174 0.2396
H14 H 0.5952 0.9062 0.1145
H15 H 0.3350 0.9307 -0.0135
H16 H 0.1005 0.7763 -0.0923
H17 H 0.0457 0.4388 -0.0377
H18 H 0.2240 0.2514 0.0926
loop_
_geom_bond_atom_site_label_1
_geom_bond_atom_site_label_2
_geom_bond_site_symmetry_1
_geom_bond_site_symmetry_2
S1 O1 1_555 1_555
O1 C1 1_555 1_555
O2 S1 1_555 1_555
O3 S1 1_555 1_555
C1 C2 1_555 1_555
C2 O4 1_555 1_555
O4 H3 1_555 1_555
C3 C2 1_555 1_555
C4 C3 1_555 1_555
C5 C4 1_555 1_555
C6 C1 1_555 1_555
C7 C8 1_555 1_555
C8 S1 1_555 1_555
C9 C8 1_555 1_555
C10 C9 1_555 1_555
C11 C10 1_555 1_555
C12 C11 1_555 1_555
C13 C12 1_555 1_555
C14 C13 1_555 1_555
C15 C14 1_555 1_555
C16 C7 1_555 1_555
H1 C1 1_555 1_555
H2 C2 1_555 1_555
H4 C3 1_555 1_555
H5 C3 1_555 1_555
H6 C4 1_555 1_555
H7 C4 1_555 1_555
H8 C5 1_555 1_555
H9 C5 1_555 1_555
H10 C6 1_555 1_555
H11 C6 1_555 1_555
H12 C7 1_555 1_555
H13 C9 1_555 1_555
H14 C10 1_555 1_555
H15 C12 1_555 1_555
H16 C13 1_555 1_555
H17 C14 1_555 1_555
H18 C15 1_555 1_555
C5 C6 1_555 1_555
C11 C16 1_555 1_555
C15 C16 1_555 1_555

#END
