
#######################################################################
#
#                 Cambridge Crystallographic Data Centre
#                                CCDC 
#
#######################################################################
#
# If this CIF has been generated from an entry in the Cambridge 
# Structural Database, then it will include bibliographic, chemical, 
# crystal, experimental, refinement or atomic coordinate data resulting 
# from the CCDC's data processing and validation procedures.
#
#######################################################################

data_VAFKES
_chemical_formula_moiety         'C18 H14 N4 O6 S1'
_chemical_name_systematic        'bis(3-(4-Methoxyphenyl)sydnon-4-yl) sulfide'
_symmetry_cell_setting           monoclinic
_symmetry_space_group_name_H-M   'P 21/c'
_symmetry_Int_Tables_number      14
_space_group_name_Hall           '-P 2ybc'
loop_
_symmetry_equiv_pos_site_id
_symmetry_equiv_pos_as_xyz
1 x,y,z
2 -x,1/2+y,1/2-z
3 -x,-y,-z
4 x,1/2-y,1/2+z
_cell_length_a                   14.255(2)
_cell_length_b                   9.344(1)
_cell_length_c                   15.250(2)
_cell_angle_alpha                90
_cell_angle_beta                 116.61(1)
_cell_angle_gamma                90
_cell_volume                     1816.12
_cell_formula_units_Z            4
loop_
_atom_site_label
_atom_site_type_symbol
_atom_site_fract_x
_atom_site_fract_y
_atom_site_fract_z
S1 S 0.0283(1) 0.3751(1) 0.0874(1)
C1 C 0.0003(2) 0.2709(3) 0.1663(2)
N1 N 0.0708(2) 0.2017(2) 0.2466(2)
N2 N 0.0310(2) 0.1239(3) 0.2926(2)
O1 O -0.0757(2) 0.1430(2) 0.2395(2)
O2 O -0.1883(2) 0.2678(3) 0.1059(2)
C2 C -0.0996(2) 0.2362(3) 0.1591(2)
C3 C 0.1843(2) 0.2014(3) 0.2902(2)
C4 C 0.2366(2) 0.0731(3) 0.3148(2)
C5 C 0.3439(2) 0.0725(3) 0.3634(2)
C6 C 0.3980(2) 0.2004(4) 0.3866(2)
C7 C 0.3449(2) 0.3286(3) 0.3606(2)
C8 C 0.2361(2) 0.3294(3) 0.3117(2)
O3 O 0.5044(2) 0.1891(3) 0.4350(2)
C9 C 0.5642(3) 0.3162(5) 0.4667(3)
C10 C 0.0222(2) 0.2490(3) 0.0019(2)
N3 N 0.1053(2) 0.1903(2) -0.0049(2)
N4 N 0.0817(2) 0.0916(3) -0.0728(2)
O4 O -0.0258(2) 0.0812(2) -0.1135(1)
O5 O -0.1611(2) 0.1900(3) -0.0987(2)
C11 C -0.0679(2) 0.1820(3) -0.0705(2)
C12 C 0.2149(2) 0.2256(3) 0.0508(2)
C13 C 0.2836(2) 0.1205(3) 0.1027(2)
C14 C 0.3885(2) 0.1532(4) 0.1544(2)
C15 C 0.4224(2) 0.2899(4) 0.1504(2)
C16 C 0.3518(3) 0.3946(3) 0.0963(2)
C17 C 0.2470(2) 0.3639(3) 0.0466(2)
O6 O 0.5243(2) 0.3337(3) 0.1985(2)
C18 C 0.6034(3) 0.2288(5) 0.2450(3)
H1 H 0.1968(18) -0.0159(26) 0.2983(17)
H2 H 0.3846(22) -0.0207(31) 0.3829(20)
H3 H 0.3837(19) 0.4137(28) 0.3759(18)
H4 H 0.2001(18) 0.4173(27) 0.2971(17)
H5 H 0.2561(19) 0.0286(27) 0.1003(18)
H6 H 0.4388(21) 0.0849(32) 0.1935(19)
H7 H 0.3761(22) 0.4781(31) 0.0933(21)
H8 H 0.1951(21) 0.4381(32) 0.0087(20)
H9 H 0.5578(25) 0.3667(39) 0.4099(24)
H10 H 0.6287(28) 0.2822(41) 0.5008(26)
H11 H 0.5427(28) 0.3653(45) 0.5068(27)
H12 H 0.5969(25) 0.1630(38) 0.1959(23)
H13 H 0.5877(25) 0.1866(40) 0.2970(23)
H14 H 0.6666(27) 0.2770(39) 0.2683(24)
loop_
_geom_bond_atom_site_label_1
_geom_bond_atom_site_label_2
_geom_bond_site_symmetry_1
_geom_bond_site_symmetry_2
S1 C1 1_555 1_555
C1 N1 1_555 1_555
N1 N2 1_555 1_555
N2 O1 1_555 1_555
O1 C2 1_555 1_555
O2 C2 1_555 1_555
C2 C1 1_555 1_555
C3 N1 1_555 1_555
C4 C3 1_555 1_555
C5 C4 1_555 1_555
C6 C5 1_555 1_555
C7 C6 1_555 1_555
C8 C3 1_555 1_555
O3 C6 1_555 1_555
C9 O3 1_555 1_555
C10 S1 1_555 1_555
N3 C10 1_555 1_555
N4 N3 1_555 1_555
O4 N4 1_555 1_555
O5 C11 1_555 1_555
C11 C10 1_555 1_555
C12 N3 1_555 1_555
C13 C12 1_555 1_555
C14 C13 1_555 1_555
C15 C14 1_555 1_555
C16 C15 1_555 1_555
C17 C12 1_555 1_555
O6 C15 1_555 1_555
C18 O6 1_555 1_555
H1 C4 1_555 1_555
H2 C5 1_555 1_555
H3 C7 1_555 1_555
H4 C8 1_555 1_555
H5 C13 1_555 1_555
H6 C14 1_555 1_555
H7 C16 1_555 1_555
H8 C17 1_555 1_555
H9 C9 1_555 1_555
H10 C9 1_555 1_555
H11 C9 1_555 1_555
H12 C18 1_555 1_555
H13 C18 1_555 1_555
H14 C18 1_555 1_555
C7 C8 1_555 1_555
O4 C11 1_555 1_555
C16 C17 1_555 1_555

#END
