
#######################################################################
#
#                 Cambridge Crystallographic Data Centre
#                                CCDC 
#
#######################################################################
#
# If this CIF has been generated from an entry in the Cambridge 
# Structural Database, then it will include bibliographic, chemical, 
# crystal, experimental, refinement or atomic coordinate data resulting 
# from the CCDC's data processing and validation procedures.
#
#######################################################################

data_VAFNOH
_chemical_formula_moiety         'C27 H25 N1 O4'
_chemical_name_systematic        
'Diethyl 3-(3,4-dimethylphenyl)benzo[f]quinoline-1,2-dicarboxylate'
_symmetry_cell_setting           triclinic
_symmetry_space_group_name_H-M   'P -1'
_symmetry_Int_Tables_number      2
_space_group_name_Hall           '-P 1'
loop_
_symmetry_equiv_pos_site_id
_symmetry_equiv_pos_as_xyz
1 x,y,z
2 -x,-y,-z
_cell_length_a                   7.6114(2)
_cell_length_b                   10.7371(3)
_cell_length_c                   14.9116(5)
_cell_angle_alpha                101.774(2)
_cell_angle_beta                 96.265(2)
_cell_angle_gamma                109.891(2)
_cell_volume                     1100.52
_exptl_crystal_colour            colorless
_exptl_crystal_description       block
_cell_formula_units_Z            2
loop_
_atom_site_label
_atom_site_type_symbol
_atom_site_fract_x
_atom_site_fract_y
_atom_site_fract_z
N1 N 0.24269(17) 0.30103(12) 0.29960(8)
O1 O 0.69676(15) 0.48011(11) 0.17336(7)
C1 C 0.33192(19) 0.34111(14) 0.23280(10)
O2 O 0.72255(16) 0.76270(11) 0.33568(8)
O3 O 0.53554(18) 0.60420(12) 0.12819(8)
C2 C 0.3468(2) 0.53872(15) 0.39221(10)
C3 C 0.43792(19) 0.48145(14) 0.24269(9)
C4 C 0.2556(2) 0.39534(16) 0.37835(10)
C5 C 0.4367(2) 0.57898(14) 0.31876(10)
C6 C 0.3085(2) 0.23219(14) 0.14830(10)
C7 C 0.2835(2) 0.10049(15) 0.15571(10)
H1 H 0.2842 0.0833 0.2144
O4 O 0.4529(2) 0.79770(12) 0.29761(9)
C8 C 0.3485(2) 0.62967(17) 0.48006(10)
C9 C 0.2576(2) -0.00647(15) 0.07877(11)
C10 C 0.5343(2) 0.72610(16) 0.31669(10)
C11 C 0.1684(2) 0.34145(19) 0.44952(11)
H2 H 0.1086 0.2472 0.4396
C12 C 0.3034(2) 0.25465(16) 0.05952(10)
H3 H 0.3178 0.3412 0.0520
C13 C 0.1718(2) 0.4249(2) 0.53005(11)
H4 H 0.1152 0.3874 0.5755
C14 C 0.2598(2) 0.5699(2) 0.54792(10)
C15 C 0.5579(2) 0.52884(14) 0.17369(10)
C16 C 0.2542(2) 0.01862(16) -0.00972(10)
C17 C 0.2772(2) 0.14923(17) -0.01716(11)
H5 H 0.2748 0.1665 -0.0758
C18 C 0.2595(3) 0.6549(2) 0.63355(12)
H6 H 0.2012 0.6152 0.6778
C19 C 0.2255(3) -0.09322(19) -0.09580(12)
H7 H 0.2278 -0.0569 -0.1496
H8 H 0.1048 -0.1660 -0.1030
H9 H 0.3255 -0.1281 -0.0897
C20 C 0.2347(3) -0.14576(17) 0.09208(13)
H10 H 0.2405 -0.1433 0.1571
H11 H 0.3352 -0.1715 0.0708
H12 H 0.1139 -0.2116 0.0569
C21 C 0.4365(3) 0.77329(19) 0.50418(12)
H13 H 0.4991 0.8159 0.4621
C22 C 0.4325(3) 0.8525(2) 0.58832(14)
H14 H 0.4914 0.9474 0.6019
C23 C 0.8240(3) 0.5164(2) 0.10929(13)
H15 H 0.8438 0.6085 0.1040
H16 H 0.7696 0.4535 0.0478
C24 C 0.3425(3) 0.7934(3) 0.65260(13)
H17 H 0.3386 0.8480 0.7088
C25 C 1.0060(3) 0.5084(2) 0.14612(16)
H18 H 1.0933 0.5327 0.1050
H19 H 0.9852 0.4166 0.1504
H20 H 1.0584 0.5707 0.2070
C26 C 0.8369(3) 0.89848(19) 0.32824(16)
H21 H 0.8076 0.9679 0.3695
H22 H 0.8100 0.9055 0.2648
C27 C 1.0388(4) 0.9187(3) 0.3547(2)
H23 H 1.1176 1.0087 0.3520
H24 H 1.0672 0.8512 0.3122
H25 H 1.0631 0.9094 0.4170
loop_
_geom_bond_atom_site_label_1
_geom_bond_atom_site_label_2
_geom_bond_site_symmetry_1
_geom_bond_site_symmetry_2
N1 C1 1_555 1_555
O1 C15 1_555 1_555
C1 C3 1_555 1_555
O2 C10 1_555 1_555
O3 C15 1_555 1_555
C2 C4 1_555 1_555
C3 C5 1_555 1_555
C4 N1 1_555 1_555
C5 C2 1_555 1_555
C6 C1 1_555 1_555
C7 C6 1_555 1_555
H1 C7 1_555 1_555
O4 C10 1_555 1_555
C8 C2 1_555 1_555
C9 C7 1_555 1_555
C10 C5 1_555 1_555
C11 C4 1_555 1_555
H2 C11 1_555 1_555
C12 C6 1_555 1_555
H3 C12 1_555 1_555
C13 C11 1_555 1_555
H4 C13 1_555 1_555
C14 C8 1_555 1_555
C15 C3 1_555 1_555
C16 C9 1_555 1_555
C17 C12 1_555 1_555
H5 C17 1_555 1_555
C18 C14 1_555 1_555
H6 C18 1_555 1_555
C19 C16 1_555 1_555
H7 C19 1_555 1_555
H8 C19 1_555 1_555
H9 C19 1_555 1_555
C20 C9 1_555 1_555
H10 C20 1_555 1_555
H11 C20 1_555 1_555
H12 C20 1_555 1_555
C21 C8 1_555 1_555
H13 C21 1_555 1_555
C22 C21 1_555 1_555
H14 C22 1_555 1_555
C23 O1 1_555 1_555
H15 C23 1_555 1_555
H16 C23 1_555 1_555
C24 C18 1_555 1_555
H17 C24 1_555 1_555
C25 C23 1_555 1_555
H18 C25 1_555 1_555
H19 C25 1_555 1_555
H20 C25 1_555 1_555
C26 O2 1_555 1_555
H21 C26 1_555 1_555
H22 C26 1_555 1_555
C27 C26 1_555 1_555
H23 C27 1_555 1_555
H24 C27 1_555 1_555
H25 C27 1_555 1_555
C13 C14 1_555 1_555
C16 C17 1_555 1_555
C22 C24 1_555 1_555

#END
