
#######################################################################
#
#                 Cambridge Crystallographic Data Centre
#                                CCDC 
#
#######################################################################
#
# If this CIF has been generated from an entry in the Cambridge 
# Structural Database, then it will include bibliographic, chemical, 
# crystal, experimental, refinement or atomic coordinate data resulting 
# from the CCDC's data processing and validation procedures.
#
#######################################################################

data_VAFRIF
_chemical_formula_moiety         'C19 H16 Br1 N1 O5'
_chemical_name_systematic        
'Methyl 3-(2-bromophenyl)-2-((1,3-dioxo-1,3-dihydro-2H-isoindol-2-yl)methyl)-3-hydroxypropanoate'
_symmetry_cell_setting           triclinic
_symmetry_space_group_name_H-M   'P -1'
_symmetry_Int_Tables_number      2
_space_group_name_Hall           '-P 1'
loop_
_symmetry_equiv_pos_site_id
_symmetry_equiv_pos_as_xyz
1 x,y,z
2 -x,-y,-z
_cell_length_a                   8.4353(2)
_cell_length_b                   10.8650(3)
_cell_length_c                   11.0342(4)
_cell_angle_alpha                112.7670(10)
_cell_angle_beta                 94.438(2)
_cell_angle_gamma                98.3860(10)
_cell_volume                     912.537
_exptl_crystal_colour            colorless
_exptl_crystal_description       prism
_cell_formula_units_Z            2
loop_
_atom_site_label
_atom_site_type_symbol
_atom_site_fract_x
_atom_site_fract_y
_atom_site_fract_z
Br1 Br -0.15632(11) 0.04540(7) 0.28934(7)
O1 O -0.4571(4) 0.2074(4) 0.6211(3)
H1 H -0.4830 0.1536 0.6549
O2 O -0.3109(5) -0.0670(4) 0.6104(4)
O3 O -0.2433(6) 0.0934(4) 0.8144(3)
O4 O -0.0807(4) 0.3669(4) 1.0340(3)
O5 O 0.1935(4) 0.2727(4) 0.6787(3)
N1 N 0.0178(4) 0.3047(4) 0.8334(3)
C1 C -0.3333(5) 0.1664(5) 0.5433(4)
H2 H -0.3741 0.0748 0.4743
C2 C -0.2818(5) 0.2608(4) 0.4771(4)
C3 C -0.3154(7) 0.3909(5) 0.5239(5)
H3 H -0.3740 0.4187 0.5947
C4 C -0.2632(8) 0.4802(6) 0.4670(7)
H4 H -0.2846 0.5678 0.5011
C5 C -0.1801(8) 0.4398(7) 0.3605(8)
H5 H -0.1447 0.5003 0.3230
C6 C -0.1493(7) 0.3113(7) 0.3097(6)
H6 H -0.0949 0.2827 0.2365
C7 C -0.2000(6) 0.2246(5) 0.3683(5)
C8 C -0.1926(5) 0.1596(4) 0.6383(4)
H7 H -0.1049 0.1311 0.5870
C9 C -0.2562(6) 0.0496(5) 0.6842(5)
C10 C -0.3004(12) -0.0059(8) 0.8666(8)
H8 H -0.2827 0.0365 0.9620
H9 H -0.2421 -0.0793 0.8369
H10 H -0.4140 -0.0405 0.8356
C11 C -0.1274(5) 0.2997(5) 0.7496(4)
H11 H -0.1031 0.3652 0.7107
H12 H -0.2110 0.3265 0.8047
C12 C 0.0270(5) 0.3376(4) 0.9686(4)
C13 C 0.1969(5) 0.3359(4) 1.0145(4)
C14 C 0.2699(6) 0.3556(5) 1.1382(4)
H13 H 0.2120 0.3732 1.2095
C15 C 0.4321(6) 0.3486(6) 1.1531(5)
H14 H 0.4840 0.3597 1.2352
C16 C 0.5174(6) 0.3251(6) 1.0475(5)
H15 H 0.6269 0.3224 1.0602
C17 C 0.4439(6) 0.3052(5) 0.9218(5)
H16 H 0.5018 0.2890 0.8506
C18 C 0.2819(5) 0.3108(4) 0.9080(4)
C19 C 0.1683(5) 0.2927(4) 0.7902(4)
loop_
_geom_bond_atom_site_label_1
_geom_bond_atom_site_label_2
_geom_bond_site_symmetry_1
_geom_bond_site_symmetry_2
Br1 C7 1_555 1_555
O1 H1 1_555 1_555
O2 C9 1_555 1_555
O3 C9 1_555 1_555
O4 C12 1_555 1_555
O5 C19 1_555 1_555
N1 C11 1_555 1_555
C1 O1 1_555 1_555
H2 C1 1_555 1_555
C2 C1 1_555 1_555
C3 C2 1_555 1_555
H3 C3 1_555 1_555
C4 C3 1_555 1_555
H4 C4 1_555 1_555
C5 C4 1_555 1_555
H5 C5 1_555 1_555
C6 C5 1_555 1_555
H6 C6 1_555 1_555
C7 C2 1_555 1_555
C8 C1 1_555 1_555
H7 C8 1_555 1_555
C9 C8 1_555 1_555
C10 O3 1_555 1_555
H8 C10 1_555 1_555
H9 C10 1_555 1_555
H10 C10 1_555 1_555
C11 C8 1_555 1_555
H11 C11 1_555 1_555
H12 C11 1_555 1_555
C12 N1 1_555 1_555
C13 C12 1_555 1_555
C14 C13 1_555 1_555
H13 C14 1_555 1_555
C15 C14 1_555 1_555
H14 C15 1_555 1_555
C16 C15 1_555 1_555
H15 C16 1_555 1_555
C17 C16 1_555 1_555
H16 C17 1_555 1_555
C18 C13 1_555 1_555
C19 N1 1_555 1_555
C6 C7 1_555 1_555
C17 C18 1_555 1_555
C18 C19 1_555 1_555

#END
