
#######################################################################
#
#                 Cambridge Crystallographic Data Centre
#                                CCDC 
#
#######################################################################
#
# If this CIF has been generated from an entry in the Cambridge 
# Structural Database, then it will include bibliographic, chemical, 
# crystal, experimental, refinement or atomic coordinate data resulting 
# from the CCDC's data processing and validation procedures.
#
#######################################################################

data_VAFSOM
_chemical_formula_moiety         'C19 H22 F1 N1 O3 S1'
_chemical_name_systematic        
(4-Fluoro-1-(methylsulfonyl)piperidin-4-yl)(diphenyl)methanol
_symmetry_cell_setting           monoclinic
_symmetry_space_group_name_H-M   'P 21/n'
_symmetry_Int_Tables_number      14
_space_group_name_Hall           '-P 2yn'
loop_
_symmetry_equiv_pos_site_id
_symmetry_equiv_pos_as_xyz
1 x,y,z
2 1/2-x,1/2+y,1/2-z
3 -x,-y,-z
4 1/2+x,1/2-y,1/2+z
_cell_length_a                   9.4593(4)
_cell_length_b                   17.0228(7)
_cell_length_c                   11.1232(4)
_cell_angle_alpha                90
_cell_angle_beta                 97.8420(10)
_cell_angle_gamma                90
_cell_volume                     1774.35
_exptl_crystal_colour            colorless
_cell_formula_units_Z            4
loop_
_atom_site_label
_atom_site_type_symbol
_atom_site_fract_x
_atom_site_fract_y
_atom_site_fract_z
C1 C 0.83960(18) 0.90803(10) 0.56166(17)
H1 H 0.8817 0.8754 0.6286
H2 H 0.9161 0.9355 0.5295
C2 C 0.75984(17) 0.85667(10) 0.46333(15)
H3 H 0.7268 0.8887 0.3929
H4 H 0.8241 0.8172 0.4390
C3 C 0.63363(15) 0.81677(8) 0.50725(12)
C4 C 0.53699(17) 0.87782(10) 0.55295(15)
H5 H 0.4960 0.9106 0.4857
H6 H 0.4594 0.8516 0.5855
C5 C 0.61785(17) 0.92904(9) 0.65056(15)
H7 H 0.5549 0.9695 0.6742
H8 H 0.6501 0.8973 0.7215
C6 C 0.55154(16) 0.75943(8) 0.41348(12)
C7 C 0.64597(16) 0.69273(9) 0.37433(14)
C8 C 0.72393(18) 0.64216(10) 0.45630(17)
H9 H 0.7273 0.6510 0.5391
C9 C 0.7965(2) 0.57888(11) 0.4164(2)
H10 H 0.8484 0.5458 0.4726
C10 C 0.7926(2) 0.56445(13) 0.2948(3)
H11 H 0.8397 0.5211 0.2685
C11 C 0.7190(2) 0.61425(13) 0.2125(2)
H12 H 0.7175 0.6052 0.1299
C12 C 0.64616(19) 0.67846(10) 0.25138(16)
H13 H 0.5971 0.7122 0.1945
C13 C 0.42028(16) 0.72323(8) 0.46092(13)
C14 C 0.43083(19) 0.68171(10) 0.56984(15)
H14 H 0.5197 0.6755 0.6162
C15 C 0.3116(2) 0.64971(11) 0.61013(18)
H15 H 0.3209 0.6221 0.6829
C16 C 0.1793(2) 0.65843(11) 0.5432(2)
H16 H 0.0991 0.6370 0.5706
C17 C 0.16655(19) 0.69866(12) 0.43660(19)
H17 H 0.0772 0.7047 0.3911
C18 C 0.28640(18) 0.73092(10) 0.39495(15)
H18 H 0.2760 0.7580 0.3217
C19 C 0.9021(2) 0.98577(10) 0.82896(16)
H19 H 0.9747 0.9507 0.8088
H20 H 0.8314 0.9565 0.8644
H21 H 0.9442 1.0243 0.8859
F1 F 0.68988(11) 0.77262(5) 0.61055(8)
N1 N 0.74163(13) 0.96584(7) 0.60601(11)
O1 O 0.51098(13) 0.80534(7) 0.30752(9)
H22 H 0.4442 0.8341 0.3182
O2 O 0.71058(14) 1.08252(7) 0.73142(11)
O3 O 0.92953(15) 1.06792(8) 0.63727(12)
S1 S 0.82104(4) 1.03323(2) 0.69627(4)
loop_
_geom_bond_atom_site_label_1
_geom_bond_atom_site_label_2
_geom_bond_site_symmetry_1
_geom_bond_site_symmetry_2
C1 H1 1_555 1_555
H2 C1 1_555 1_555
C2 C1 1_555 1_555
H3 C2 1_555 1_555
H4 C2 1_555 1_555
C3 C2 1_555 1_555
C4 C3 1_555 1_555
H5 C4 1_555 1_555
H6 C4 1_555 1_555
C5 C4 1_555 1_555
H7 C5 1_555 1_555
H8 C5 1_555 1_555
C6 C3 1_555 1_555
C7 C6 1_555 1_555
C8 C7 1_555 1_555
H9 C8 1_555 1_555
C9 C8 1_555 1_555
H10 C9 1_555 1_555
C10 C9 1_555 1_555
H11 C10 1_555 1_555
C11 C10 1_555 1_555
H12 C11 1_555 1_555
C12 C7 1_555 1_555
H13 C12 1_555 1_555
C13 C6 1_555 1_555
C14 C13 1_555 1_555
H14 C14 1_555 1_555
C15 C14 1_555 1_555
H15 C15 1_555 1_555
C16 C15 1_555 1_555
H16 C16 1_555 1_555
C17 C16 1_555 1_555
H17 C17 1_555 1_555
C18 C13 1_555 1_555
H18 C18 1_555 1_555
C19 H19 1_555 1_555
H20 C19 1_555 1_555
H21 C19 1_555 1_555
F1 C3 1_555 1_555
N1 C1 1_555 1_555
O1 C6 1_555 1_555
H22 O1 1_555 1_555
O2 S1 1_555 1_555
O3 S1 1_555 1_555
S1 C19 1_555 1_555
C5 N1 1_555 1_555
C11 C12 1_555 1_555
C17 C18 1_555 1_555
N1 S1 1_555 1_555

#END
