
#######################################################################
#
#                 Cambridge Crystallographic Data Centre
#                                CCDC 
#
#######################################################################
#
# If this CIF has been generated from an entry in the Cambridge 
# Structural Database, then it will include bibliographic, chemical, 
# crystal, experimental, refinement or atomic coordinate data resulting 
# from the CCDC's data processing and validation procedures.
#
#######################################################################

data_VAGBUC
_chemical_formula_moiety         'C34 H58 Li2 N8 Si2'
_chemical_name_systematic        
bis(\m~2~-N,N-Dimethyl-N'-phenyl-N''-trimethylsilylguanidinato-N',N'')-bis(t-butylcyano-N)-di-lithium
_symmetry_cell_setting           monoclinic
_symmetry_space_group_name_H-M   'P 21/n'
_symmetry_Int_Tables_number      14
_space_group_name_Hall           '-P 2yn'
loop_
_symmetry_equiv_pos_site_id
_symmetry_equiv_pos_as_xyz
1 x,y,z
2 1/2-x,1/2+y,1/2-z
3 -x,-y,-z
4 1/2+x,1/2-y,1/2+z
_cell_length_a                   9.378(4)
_cell_length_b                   10.190(4)
_cell_length_c                   21.600(10)
_cell_angle_alpha                90
_cell_angle_beta                 93.976(7)
_cell_angle_gamma                90
_cell_volume                     2059.17
_exptl_crystal_colour            colorless
_exptl_crystal_description       block
_cell_formula_units_Z            2
loop_
_atom_site_label
_atom_site_type_symbol
_atom_site_fract_x
_atom_site_fract_y
_atom_site_fract_z
Li1 Li 0.5060(5) -0.0125(4) 0.91288(17)
N1 N 0.4567(2) 0.17696(18) 0.92364(8)
N2 N 0.5412(2) 0.15497(18) 1.02796(8)
N3 N 0.3228(2) 0.25597(19) 1.00485(8)
N4 N 0.5483(3) -0.0703(3) 0.82437(10)
Si1 Si 0.71970(7) 0.16717(6) 1.01560(3)
C1 C 0.4135(2) 0.2704(2) 0.87893(10)
C2 C 0.3774(3) 0.2289(3) 0.81819(11)
H1 H 0.3762 0.1395 0.8094
C3 C 0.3436(3) 0.3171(3) 0.77101(13)
H2 H 0.3204 0.2861 0.7311
C4 C 0.3437(3) 0.4482(4) 0.78187(14)
H3 H 0.3200 0.5069 0.7498
C5 C 0.3793(3) 0.4932(3) 0.84116(15)
H4 H 0.3801 0.5830 0.8490
C6 C 0.4139(3) 0.4057(3) 0.88941(12)
H5 H 0.4376 0.4377 0.9291
C7 C 0.4434(2) 0.1976(2) 0.98500(10)
C8 C 0.1886(3) 0.2640(3) 0.96739(13)
H6 H 0.1720 0.3531 0.9544
H7 H 0.1121 0.2353 0.9914
H8 H 0.1930 0.2089 0.9315
C9 C 0.3169(3) 0.3036(3) 1.06822(12)
H9 H 0.2586 0.2459 1.0908
H10 H 0.2766 0.3903 1.0676
H11 H 0.4117 0.3062 1.0880
C10 C 0.7889(3) 0.0620(3) 0.95309(11)
H12 H 0.7590 -0.0271 0.9585
H13 H 0.8914 0.0659 0.9555
H14 H 0.7518 0.0933 0.9133
C11 C 0.7669(3) 0.3399(3) 0.99652(15)
H15 H 0.7098 0.3680 0.9603
H16 H 0.8663 0.3445 0.9886
H17 H 0.7490 0.3960 1.0308
C12 C 0.8176(3) 0.1202(3) 1.09040(12)
H18 H 0.7918 0.1790 1.1225
H19 H 0.9186 0.1255 1.0862
H20 H 0.7926 0.0321 1.1010
C13 C 0.5755(3) -0.0972(3) 0.77578(12)
C14 C 0.6123(3) -0.1305(4) 0.71252(14)
C15 C 0.5386(5) -0.2541(5) 0.6922(2)
H21 H 0.5778 -0.3261 0.7164
H22 H 0.5521 -0.2694 0.6491
H23 H 0.4383 -0.2466 0.6978
C16 C 0.7715(4) -0.1387(9) 0.7125(2)
H24 H 0.8126 -0.0554 0.7245
H25 H 0.7978 -0.1610 0.6717
H26 H 0.8062 -0.2048 0.7414
C17 C 0.5502(6) -0.0220(7) 0.66876(18)
H27 H 0.4480 -0.0213 0.6692
H28 H 0.5766 -0.0388 0.6273
H29 H 0.5876 0.0616 0.6825
Li1B Li 0.4940(5) 0.0125(4) 1.08712(17)
N1B N 0.5433(2) -0.17696(18) 1.07636(8)
N2B N 0.4588(2) -0.15497(18) 0.97204(8)
N3B N 0.6772(2) -0.25597(19) 0.99515(8)
N4B N 0.4517(3) 0.0703(3) 1.17563(10)
Si1B Si 0.28030(7) -0.16717(6) 0.98440(3)
C1B C 0.5865(2) -0.2704(2) 1.12107(10)
C2B C 0.6226(3) -0.2289(3) 1.18181(11)
H1B H 0.6238 -0.1395 1.1906
C3B C 0.6564(3) -0.3171(3) 1.22899(13)
H2B H 0.6796 -0.2861 1.2689
C4B C 0.6563(3) -0.4482(4) 1.21813(14)
H3B H 0.6800 -0.5069 1.2502
C5B C 0.6207(3) -0.4932(3) 1.15884(15)
H4B H 0.6199 -0.5830 1.1510
C6B C 0.5861(3) -0.4057(3) 1.11059(12)
H5B H 0.5624 -0.4377 1.0709
C7B C 0.5566(2) -0.1976(2) 1.01500(10)
C8B C 0.8114(3) -0.2640(3) 1.03261(13)
H6B H 0.8280 -0.3531 1.0456
H7B H 0.8879 -0.2353 1.0086
H8B H 0.8070 -0.2089 1.0685
C9B C 0.6831(3) -0.3036(3) 0.93178(12)
H9B H 0.7414 -0.2459 0.9092
H10B H 0.7234 -0.3903 0.9324
H11B H 0.5883 -0.3062 0.9120
C10B C 0.2111(3) -0.0620(3) 1.04691(11)
H12B H 0.2410 0.0271 1.0415
H13B H 0.1086 -0.0659 1.0445
H14B H 0.2482 -0.0933 1.0867
C11B C 0.2331(3) -0.3399(3) 1.00348(15)
H15B H 0.2902 -0.3680 1.0397
H16B H 0.1337 -0.3445 1.0114
H17B H 0.2510 -0.3960 0.9692
C12B C 0.1824(3) -0.1202(3) 0.90960(12)
H18B H 0.2082 -0.1790 0.8775
H19B H 0.0814 -0.1255 0.9138
H20B H 0.2074 -0.0321 0.8990
C13B C 0.4245(3) 0.0972(3) 1.22422(12)
C14B C 0.3877(3) 0.1305(4) 1.28748(14)
C15B C 0.4614(5) 0.2541(5) 1.3078(2)
H21B H 0.4222 0.3261 1.2836
H22B H 0.4479 0.2694 1.3509
H23B H 0.5617 0.2466 1.3022
C16B C 0.2285(4) 0.1387(9) 1.2875(2)
H24B H 0.1874 0.0554 1.2755
H25B H 0.2022 0.1610 1.3283
H26B H 0.1938 0.2048 1.2586
C17B C 0.4498(6) 0.0220(7) 1.33124(18)
H27B H 0.5520 0.0213 1.3308
H28B H 0.4234 0.0388 1.3727
H29B H 0.4124 -0.0616 1.3175
loop_
_geom_bond_atom_site_label_1
_geom_bond_atom_site_label_2
_geom_bond_site_symmetry_1
_geom_bond_site_symmetry_2
Li1 N1 1_555 1_555
N1 C1 1_555 1_555
N2 Si1 1_555 1_555
N3 C7 1_555 1_555
N4 Li1 1_555 1_555
Si1 C10 1_555 1_555
C1 C2 1_555 1_555
C2 H1 1_555 1_555
C3 C2 1_555 1_555
H2 C3 1_555 1_555
C4 C3 1_555 1_555
H3 C4 1_555 1_555
C5 C4 1_555 1_555
H4 C5 1_555 1_555
C6 C1 1_555 1_555
H5 C6 1_555 1_555
C7 N1 1_555 1_555
C8 N3 1_555 1_555
H6 C8 1_555 1_555
H7 C8 1_555 1_555
H8 C8 1_555 1_555
C9 N3 1_555 1_555
H9 C9 1_555 1_555
H10 C9 1_555 1_555
H11 C9 1_555 1_555
C10 H12 1_555 1_555
H13 C10 1_555 1_555
H14 C10 1_555 1_555
C11 Si1 1_555 1_555
H15 C11 1_555 1_555
H16 C11 1_555 1_555
H17 C11 1_555 1_555
C12 Si1 1_555 1_555
H18 C12 1_555 1_555
H19 C12 1_555 1_555
H20 C12 1_555 1_555
C13 N4 1_555 1_555
C14 C13 1_555 1_555
C15 C14 1_555 1_555
H21 C15 1_555 1_555
H22 C15 1_555 1_555
H23 C15 1_555 1_555
C16 C14 1_555 1_555
H24 C16 1_555 1_555
H25 C16 1_555 1_555
H26 C16 1_555 1_555
C17 C14 1_555 1_555
H27 C17 1_555 1_555
H28 C17 1_555 1_555
H29 C17 1_555 1_555
Li1B N2 1_555 1_555
N1B Li1B 1_555 1_555
N2B Li1 1_555 1_555
N3B C7B 1_555 1_555
N4B Li1B 1_555 1_555
Si1B N2B 1_555 1_555
C1B N1B 1_555 1_555
C2B C1B 1_555 1_555
H1B C2B 1_555 1_555
C3B C2B 1_555 1_555
H2B C3B 1_555 1_555
C4B C3B 1_555 1_555
H3B C4B 1_555 1_555
C5B C4B 1_555 1_555
H4B C5B 1_555 1_555
C6B C1B 1_555 1_555
H5B C6B 1_555 1_555
C7B N1B 1_555 1_555
C8B N3B 1_555 1_555
H6B C8B 1_555 1_555
H7B C8B 1_555 1_555
H8B C8B 1_555 1_555
C9B N3B 1_555 1_555
H9B C9B 1_555 1_555
H10B C9B 1_555 1_555
H11B C9B 1_555 1_555
C10B Si1B 1_555 1_555
H12B C10B 1_555 1_555
H13B C10B 1_555 1_555
H14B C10B 1_555 1_555
C11B Si1B 1_555 1_555
H15B C11B 1_555 1_555
H16B C11B 1_555 1_555
H17B C11B 1_555 1_555
C12B Si1B 1_555 1_555
H18B C12B 1_555 1_555
H19B C12B 1_555 1_555
H20B C12B 1_555 1_555
C13B N4B 1_555 1_555
C14B C13B 1_555 1_555
C15B C14B 1_555 1_555
H21B C15B 1_555 1_555
H22B C15B 1_555 1_555
H23B C15B 1_555 1_555
C16B C14B 1_555 1_555
H24B C16B 1_555 1_555
H25B C16B 1_555 1_555
H26B C16B 1_555 1_555
C17B C14B 1_555 1_555
H27B C17B 1_555 1_555
H28B C17B 1_555 1_555
H29B C17B 1_555 1_555
N2 C7 1_555 1_555
C5 C6 1_555 1_555
N2B C7B 1_555 1_555
C5B C6B 1_555 1_555

#END
