
#######################################################################
#
#                 Cambridge Crystallographic Data Centre
#                                CCDC 
#
#######################################################################
#
# If this CIF has been generated from an entry in the Cambridge 
# Structural Database, then it will include bibliographic, chemical, 
# crystal, experimental, refinement or atomic coordinate data resulting 
# from the CCDC's data processing and validation procedures.
#
#######################################################################

data_VAHDAK
_chemical_formula_moiety         'C23 H25 Cl1 N2 O5'
_chemical_name_systematic        
'Diethyl 2,6-dimethyl-4-(5-methyl-3-(3-chlorophenyl)isoxazol-4-yl)-1,4-dihydropyridine-3,5-dicarboxylate'
_chemical_properties_biological  'calcium channel blocker'
_symmetry_cell_setting           monoclinic
_symmetry_space_group_name_H-M   'P 21/c'
_symmetry_Int_Tables_number      14
_space_group_name_Hall           '-P 2ybc'
loop_
_symmetry_equiv_pos_site_id
_symmetry_equiv_pos_as_xyz
1 x,y,z
2 -x,1/2+y,1/2-z
3 -x,-y,-z
4 x,1/2-y,1/2+z
_cell_length_a                   7.79460(10)
_cell_length_b                   19.2881(3)
_cell_length_c                   14.9849(2)
_cell_angle_alpha                90
_cell_angle_beta                 95.3410(10)
_cell_angle_gamma                90
_cell_volume                     2243.09
_exptl_crystal_colour            green
_exptl_crystal_description       cubic
_chemical_melting_point          '160-161 deg.C'
_cell_formula_units_Z            4
loop_
_atom_site_label
_atom_site_type_symbol
_atom_site_fract_x
_atom_site_fract_y
_atom_site_fract_z
Cl1 Cl 0.4418(1) 0.3796(1) 0.3223(1)
N1 N 0.1303(2) 0.2256(1) 0.4012(1)
N2 N 0.1637(2) 0.1683(1) 0.0517(1)
O1 O 0.1562(2) 0.0957(1) 0.0430(1)
O2 O 0.3007(2) 0.0038(3) 0.3136(1)
O3 O 0.4990(2) 0.0655(1) 0.3965(1)
O4 O -0.3585(2) 0.1955(1) 0.2540(1)
O5 O -0.2537(2) 0.0939(1) 0.2110(1)
C1 C 0.2564(2) 0.1753(1) 0.4027(1)
C2 C 0.2307(2) 0.1189(1) 0.3486(1)
C3 C 0.0718(2) 0.1124(1) 0.2818(1)
C4 C -0.0675(2) 0.1640(1) 0.3018(1)
C5 C -0.0309(2) 0.2190(1) 0.3565(1)
C6 C 0.4088(3) 0.1913(1) 0.4682(2)
C7 C 0.3441(3) 0.0580(1) 0.3504(1)
C8 C 0.6105(3) 0.0049(1) 0.3973(2)
C9 C 0.7757(3) 0.0231(2) 0.4512(2)
C10 C -0.2397(3) 0.1552(1) 0.2552(1)
C11 C -0.4106(3) 0.0829(2) 0.1523(2)
C12 C -0.3854(6) 0.1149(3) 0.0632(3)
C14 C -0.1506(3) 0.2772(1) 0.3755(2)
C15 C 0.1151(2) 0.1191(1) 0.1852(1)
C16 C 0.1392(2) 0.1811(1) 0.1357(1)
C17 C 0.1258(2) 0.0680(1) 0.1235(1)
C18 C 0.1099(4) -0.0086(1) 0.1248(2)
C19 C 0.1384(3) 0.2546(1) 0.1655(1)
C20 C 0.2752(3) 0.2801(1) 0.2216(1)
C21 C 0.2721(3) 0.3485(1) 0.2496(2)
C22 C 0.1375(3) 0.3921(1) 0.2225(2)
C23 C 0.0016(4) 0.3666(1) 0.1669(2)
C24 C 0.0009(3) 0.2980(1) 0.1377(2)
H1 H 0.1500(31) 0.2596(13) 0.4355(17)
H2 H 0.0270(25) 0.0670(11) 0.2868(13)
H3 H 0.5083(44) 0.1846(17) 0.4460(22)
H4 H 0.4037(39) 0.2389(18) 0.4869(21)
H5 H 0.4144(45) 0.1628(19) 0.5188(25)
H6 H 0.6279(31) -0.0051(13) 0.3365(17)
H7 H 0.5490(35) -0.0348(15) 0.4263(18)
H8 H 0.7543(32) 0.0365(13) 0.5123(18)
H9 H 0.8334(37) 0.0643(16) 0.4288(19)
H10 H 0.8563(41) -0.0159(17) 0.4580(20)
H11 H -0.4973(46) 0.1087(18) 0.1727(23)
H12 H -0.4373(52) 0.0317(23) 0.1563(27)
H13 H -0.4896(6) 0.1082(3) 0.0222(3)
H14 H -0.2874(6) 0.0928(3) 0.0381(3)
H15 H -0.3628(6) 0.1646(3) 0.0710(3)
H19 H -0.1985(45) 0.2998(18) 0.3237(26)
H20 H -0.2512(49) 0.2616(19) 0.3975(25)
H21 H -0.0668(45) 0.3110(19) 0.4175(24)
H22 H 0.1926(56) -0.0293(22) 0.0904(29)
H23 H 0.1206(42) -0.0261(17) 0.1828(24)
H24 H 0.0014(50) -0.0228(19) 0.0957(25)
H25 H 0.3700(30) 0.2504(12) 0.2387(15)
H26 H 0.1397(34) 0.4403(15) 0.2430(18)
H27 H -0.0946(37) 0.3930(15) 0.1476(19)
H28 H -0.0959(30) 0.2786(12) 0.1010(16)
C13? C -0.3793(10) 0.0619(6) 0.0632(5)
H16? H -0.4895(10) 0.0553(6) 0.0271(5)
H17? H -0.3147(10) 0.0182(6) 0.0661(5)
H18? H -0.3123(10) 0.0977(6) 0.0358(5)
loop_
_geom_bond_atom_site_label_1
_geom_bond_atom_site_label_2
_geom_bond_site_symmetry_1
_geom_bond_site_symmetry_2
Cl1 C21 1_555 1_555
N1 C1 1_555 1_555
N2 O1 1_555 1_555
O1 C17 1_555 1_555
O2 C7 1_555 1_555
O3 C7 1_555 1_555
O4 C10 1_555 1_555
O5 C10 1_555 1_555
C1 C2 1_555 1_555
C2 C3 1_555 1_555
C3 C4 1_555 1_555
C4 C5 1_555 1_555
C5 N1 1_555 1_555
C6 C1 1_555 1_555
C7 C2 1_555 1_555
C8 O3 1_555 1_555
C9 C8 1_555 1_555
C10 C4 1_555 1_555
C11 O5 1_555 1_555
C12 C11 1_555 1_555
C14 C5 1_555 1_555
C15 C3 1_555 1_555
C16 N2 1_555 1_555
C17 C15 1_555 1_555
C18 C17 1_555 1_555
C19 C16 1_555 1_555
C20 C19 1_555 1_555
C21 C20 1_555 1_555
C22 C21 1_555 1_555
C23 C22 1_555 1_555
C24 C19 1_555 1_555
H1 N1 1_555 1_555
H2 C3 1_555 1_555
H3 C6 1_555 1_555
H4 C6 1_555 1_555
H5 C6 1_555 1_555
H6 C8 1_555 1_555
H7 C8 1_555 1_555
H8 C9 1_555 1_555
H9 C9 1_555 1_555
H10 C9 1_555 1_555
H11 C11 1_555 1_555
H12 C11 1_555 1_555
H13 C12 1_555 1_555
H14 C12 1_555 1_555
H15 C12 1_555 1_555
H19 C14 1_555 1_555
H20 C14 1_555 1_555
H21 C14 1_555 1_555
H22 C18 1_555 1_555
H23 C18 1_555 1_555
H24 C18 1_555 1_555
H25 C20 1_555 1_555
H26 C22 1_555 1_555
H27 C23 1_555 1_555
H28 C24 1_555 1_555
C15 C16 1_555 1_555
C23 C24 1_555 1_555

#END
