
#######################################################################
#
#                 Cambridge Crystallographic Data Centre
#                                CCDC 
#
#######################################################################
#
# If this CIF has been generated from an entry in the Cambridge 
# Structural Database, then it will include bibliographic, chemical, 
# crystal, experimental, refinement or atomic coordinate data resulting 
# from the CCDC's data processing and validation procedures.
#
#######################################################################

data_VAHGAP
_chemical_formula_moiety         'C16 H18 N4 O3 S1'
_chemical_name_systematic        
N-(1-azido-3-hydroxy-1-phenylpropan-2-yl)-4-methylbenzenesulfonamide
_symmetry_cell_setting           orthorhombic
_symmetry_space_group_name_H-M   'P 21 21 21'
_symmetry_Int_Tables_number      19
_space_group_name_Hall           'P 2ac 2ab'
loop_
_symmetry_equiv_pos_site_id
_symmetry_equiv_pos_as_xyz
1 x,y,z
2 1/2-x,-y,1/2+z
3 -x,1/2+y,1/2-z
4 1/2+x,1/2-y,-z
_cell_length_a                   5.4849(14)
_cell_length_b                   12.639(3)
_cell_length_c                   24.563(7)
_cell_angle_alpha                90
_cell_angle_beta                 90
_cell_angle_gamma                90
_cell_volume                     1702.8
_exptl_crystal_colour            colorless
_exptl_crystal_description       plate
_cell_formula_units_Z            4
loop_
_atom_site_label
_atom_site_type_symbol
_atom_site_fract_x
_atom_site_fract_y
_atom_site_fract_z
S1 S 0.46718(12) 0.61148(5) 0.73021(3)
O1 O 1.0958(4) 0.38160(17) 0.78232(11)
H1 H 1.1309 0.3196 0.7763
O2 O 0.2097(4) 0.62946(16) 0.72987(10)
O3 O 0.6290(4) 0.69978(16) 0.73549(10)
N1 N 0.7880(6) 0.6210(2) 0.87620(12)
N2 N 0.9314(7) 0.6860(2) 0.85735(12)
N3 N 1.0501(10) 0.7531(3) 0.84328(18)
N4 N 0.5203(4) 0.53198(18) 0.78036(9)
H2 H 0.4019 0.5058 0.7989
C1 C 0.8188(6) 0.5107(2) 0.85568(12)
H3 H 0.9884 0.4899 0.8623
C2 C 0.7735(5) 0.5052(2) 0.79370(12)
H4 H 0.8776 0.5587 0.7766
C3 C 0.8451(5) 0.3988(2) 0.76989(13)
H5 H 0.7459 0.3431 0.7856
H6 H 0.8207 0.3989 0.7308
C4 C 0.6586(6) 0.4392(3) 0.88909(13)
C5 C 0.4490(7) 0.4746(3) 0.91464(13)
H7 H 0.4028 0.5452 0.9117
C6 C 0.3067(7) 0.4039(4) 0.94495(15)
H8 H 0.1679 0.4282 0.9627
C7 C 0.3693(9) 0.3000(4) 0.94867(16)
H9 H 0.2713 0.2534 0.9682
C8 C 0.5763(9) 0.2639(3) 0.92371(16)
H10 H 0.6198 0.1930 0.9266
C9 C 0.7201(7) 0.3326(3) 0.89438(14)
H11 H 0.8611 0.3075 0.8778
C10 C 0.5429(6) 0.5446(2) 0.66923(12)
C11 C 0.7504(7) 0.5704(3) 0.64038(15)
H12 H 0.8526 0.6242 0.6525
C12 C 0.8044(8) 0.5153(3) 0.59331(16)
H13 H 0.9425 0.5336 0.5735
C13 C 0.6583(9) 0.4337(3) 0.57495(15)
C14 C 0.4527(9) 0.4092(3) 0.60467(16)
H14 H 0.3511 0.3550 0.5928
C15 C 0.3943(7) 0.4631(3) 0.65157(15)
H15 H 0.2557 0.4448 0.6713
C16 C 0.7247(12) 0.3712(4) 0.5249(2)
H16 H 0.8336 0.4120 0.5027
H17 H 0.5797 0.3553 0.5046
H18 H 0.8031 0.3065 0.5355
loop_
_geom_bond_atom_site_label_1
_geom_bond_atom_site_label_2
_geom_bond_site_symmetry_1
_geom_bond_site_symmetry_2
S1 O2 1_555 1_555
O1 H1 1_555 1_555
O3 S1 1_555 1_555
N1 N2 1_555 1_555
N2 N3 1_555 1_555
N4 S1 1_555 1_555
H2 N4 1_555 1_555
C1 N1 1_555 1_555
H3 C1 1_555 1_555
C2 N4 1_555 1_555
H4 C2 1_555 1_555
C3 O1 1_555 1_555
H5 C3 1_555 1_555
H6 C3 1_555 1_555
C4 C1 1_555 1_555
C5 C4 1_555 1_555
H7 C5 1_555 1_555
C6 C5 1_555 1_555
H8 C6 1_555 1_555
C7 C6 1_555 1_555
H9 C7 1_555 1_555
C8 C7 1_555 1_555
H10 C8 1_555 1_555
C9 C4 1_555 1_555
H11 C9 1_555 1_555
C10 S1 1_555 1_555
C11 C10 1_555 1_555
H12 C11 1_555 1_555
C12 C11 1_555 1_555
H13 C12 1_555 1_555
C13 C12 1_555 1_555
C14 C13 1_555 1_555
H14 C14 1_555 1_555
C15 C10 1_555 1_555
H15 C15 1_555 1_555
C16 C13 1_555 1_555
H16 C16 1_555 1_555
H17 C16 1_555 1_555
H18 C16 1_555 1_555
C1 C2 1_555 1_555
C2 C3 1_555 1_555
C8 C9 1_555 1_555
C14 C15 1_555 1_555

#END
