
#######################################################################
#
#                 Cambridge Crystallographic Data Centre
#                                CCDC 
#
#######################################################################
#
# If this CIF has been generated from an entry in the Cambridge 
# Structural Database, then it will include bibliographic, chemical, 
# crystal, experimental, refinement or atomic coordinate data resulting 
# from the CCDC's data processing and validation procedures.
#
#######################################################################

data_VAHGUH
_chemical_formula_moiety         'C26 H20 N14 S2,2(C1 H1 Cl3)'
_chemical_name_systematic        
"6,6'-Bi(3-(5-methyl-1-(4-methylphenyl)-1,2,3-triazol-4-yl)-s-triazolo(3,4-b)-1,3,4-thiadiazolyl) chloroform solvate"
_symmetry_cell_setting           triclinic
_symmetry_space_group_name_H-M   'P -1'
_symmetry_Int_Tables_number      2
_space_group_name_Hall           '-P 1'
loop_
_symmetry_equiv_pos_site_id
_symmetry_equiv_pos_as_xyz
1 x,y,z
2 -x,-y,-z
_cell_length_a                   9.042(2)
_cell_length_b                   10.486(3)
_cell_length_c                   10.843(2)
_cell_angle_alpha                116.79(2)
_cell_angle_beta                 93.83(2)
_cell_angle_gamma                100.64(3)
_cell_volume                     888.661
_exptl_crystal_colour            colorless
_exptl_crystal_description       rhombus
_cell_formula_units_Z            1
_exptl_crystal_recrystallization_method ethanol
loop_
_atom_site_label
_atom_site_type_symbol
_atom_site_fract_x
_atom_site_fract_y
_atom_site_fract_z
S1 S 0.74605(9) 0.43792(9) -0.04721(9)
N1 N 0.9727(3) 1.1952(3) 0.4717(3)
N2 N 1.0710(4) 1.1508(3) 0.3803(3)
N3 N 1.0139(4) 1.0131(3) 0.2907(3)
N4 N 0.6305(3) 0.7865(3) 0.2182(3)
N5 N 0.5777(3) 0.6406(3) 0.1144(3)
N6 N 0.8285(3) 0.7042(3) 0.1432(3)
N7 N 0.9668(3) 0.6708(3) 0.1197(3)
C1 C 1.1198(7) 1.8012(5) 0.8841(5)
C2 C 1.0791(6) 1.6427(4) 0.7734(4)
C3 C 1.1915(5) 1.5653(5) 0.7338(4)
C4 C 1.1581(4) 1.4192(4) 0.6373(4)
C5 C 1.0062(4) 1.3468(4) 0.5757(4)
C6 C 0.8934(5) 1.4217(4) 0.6094(4)
C7 C 0.9296(5) 1.5682(4) 0.7094(5)
C8 C 0.8504(4) 1.0825(4) 0.4410(4)
C9 C 0.8788(4) 0.9680(4) 0.3246(4)
C10 C 0.7803(4) 0.8230(4) 0.2350(4)
C11 C 0.6991(4) 0.5955(4) 0.0719(4)
C12 C 0.9366(4) 0.5362(4) 0.0248(4)
C13 C 0.7281(4) 1.0881(4) 0.5270(4)
C12A C 1.0634(4) 0.4638(4) -0.0248(4)
S1A S 1.25395(9) 0.56208(9) 0.04721(9)
C11A C 1.3009(4) 0.4045(4) -0.0719(4)
N5A N 1.4223(3) 0.3594(3) -0.1144(3)
N4A N 1.3695(3) 0.2135(3) -0.2182(3)
C10A C 1.2197(4) 0.1770(4) -0.2350(4)
N6A N 1.1715(3) 0.2958(3) -0.1432(3)
N7A N 1.0332(3) 0.3292(3) -0.1197(3)
C9A C 1.1212(4) 0.0320(4) -0.3246(4)
N3A N 0.9861(4) -0.0131(3) -0.2907(3)
N2A N 0.9290(4) -0.1508(3) -0.3803(3)
N1A N 1.0273(3) -0.1952(3) -0.4717(3)
C5A C 0.9938(4) -0.3468(4) -0.5757(4)
C4A C 0.8419(4) -0.4192(4) -0.6373(4)
C3A C 0.8085(5) -0.5653(5) -0.7338(4)
C2A C 0.9209(6) -0.6427(4) -0.7734(4)
C1A C 0.8802(7) -0.8012(5) -0.8841(5)
C7A C 1.0704(5) -0.5682(4) -0.7094(5)
C6A C 1.1066(5) -0.4217(4) -0.6094(4)
C8A C 1.1496(4) -0.0825(4) -0.4410(4)
C13A C 1.2719(4) -0.0881(4) -0.5270(4)
Cl1 Cl 1.4587(2) 0.3146(2) 0.3965(2)
Cl2 Cl 1.4581(2) 0.0150(2) 0.2109(2)
Cl3 Cl 1.3756(2) 0.1987(2) 0.0982(2)
C14 C 1.3703(5) 0.1584(5) 0.2385(5)
loop_
_geom_bond_atom_site_label_1
_geom_bond_atom_site_label_2
_geom_bond_site_symmetry_1
_geom_bond_site_symmetry_2
S1 C11 1_555 1_555
Cl1 C14 1_555 1_555
Cl2 C14 1_555 1_555
Cl3 C14 1_555 1_555
N1 N2 1_555 1_555
N2 N3 1_555 1_555
N3 C9 1_555 1_555
N4 N5 1_555 1_555
N5 C11 1_555 1_555
N6 N7 1_555 1_555
N7 C12 1_555 1_555
C1 C2 1_555 1_555
C2 C3 1_555 1_555
C3 C4 1_555 1_555
C4 C5 1_555 1_555
C5 N1 1_555 1_555
C6 C5 1_555 1_555
C7 C2 1_555 1_555
C8 N1 1_555 1_555
C9 C8 1_555 1_555
C10 N4 1_555 1_555
C11 N6 1_555 1_555
C12 S1 1_555 1_555
C13 C8 1_555 1_555
C12A C12 1_555 1_555
S1A C12A 1_555 1_555
C11A S1A 1_555 1_555
N5A C11A 1_555 1_555
N4A N5A 1_555 1_555
C10A N4A 1_555 1_555
N6A C11A 1_555 1_555
N7A C12A 1_555 1_555
C9A C10A 1_555 1_555
N3A C9A 1_555 1_555
N2A N3A 1_555 1_555
N1A N2A 1_555 1_555
C5A N1A 1_555 1_555
C4A C5A 1_555 1_555
C3A C4A 1_555 1_555
C2A C3A 1_555 1_555
C1A C2A 1_555 1_555
C7A C2A 1_555 1_555
C6A C5A 1_555 1_555
C8A C9A 1_555 1_555
C13A C8A 1_555 1_555
N6 C10 1_555 1_555
C6 C7 1_555 1_555
C9 C10 1_555 1_555
C10A N6A 1_555 1_555
N6A N7A 1_555 1_555
N1A C8A 1_555 1_555
C7A C6A 1_555 1_555

#END
