
#######################################################################
#
#                 Cambridge Crystallographic Data Centre
#                                CCDC 
#
#######################################################################
#
# If this CIF has been generated from an entry in the Cambridge 
# Structural Database, then it will include bibliographic, chemical, 
# crystal, experimental, refinement or atomic coordinate data resulting 
# from the CCDC's data processing and validation procedures.
#
#######################################################################

data_VAJMUO
_chemical_formula_moiety         'C21 H33 B2 N1 O1'
_chemical_name_systematic        Pyridine-bis(cyclo-octan-1,5-diyl)diboroxane
_symmetry_cell_setting           monoclinic
_symmetry_space_group_name_H-M   'P 21/n'
_symmetry_Int_Tables_number      14
_space_group_name_Hall           '-P 2yn'
loop_
_symmetry_equiv_pos_site_id
_symmetry_equiv_pos_as_xyz
1 x,y,z
2 1/2-x,1/2+y,1/2-z
3 -x,-y,-z
4 1/2+x,1/2-y,1/2+z
_cell_length_a                   9.011(2)
_cell_length_b                   22.145(7)
_cell_length_c                   19.634(6)
_cell_angle_alpha                90
_cell_angle_beta                 94.48(2)
_cell_angle_gamma                90
_cell_volume                     3905.97
_cell_formula_units_Z            8
loop_
_atom_site_label
_atom_site_type_symbol
_atom_site_fract_x
_atom_site_fract_y
_atom_site_fract_z
O1 O 0.7399(2) 0.2086(1) 0.7369(1)
B1 B 0.8071(4) 0.2425(2) 0.6816(2)
B2 B 0.7504(4) 0.2161(2) 0.8053(2)
N1 N 0.9878(3) 0.2305(1) 0.6976(1)
C1 C 0.7524(3) 0.2151(1) 0.6079(2)
C2 C 0.5811(3) 0.2200(1) 0.6001(2)
C3 C 0.5162(4) 0.2825(2) 0.6140(2)
C4 C 0.5928(3) 0.3158(2) 0.6757(2)
C5 C 0.7644(3) 0.3133(1) 0.6794(2)
C6 C 0.8279(4) 0.3474(1) 0.6199(2)
C7 C 0.8067(4) 0.3163(2) 0.5498(2)
C8 C 0.8303(4) 0.2476(2) 0.5518(2)
C9 C 0.8589(3) 0.2591(1) 0.8495(2)
C10 C 0.9677(4) 0.2175(2) 0.8921(2)
C11 C 0.8967(4) 0.1677(2) 0.9318(2)
C12 C 0.7659(4) 0.1357(2) 0.8945(2)
C13 C 0.6550(3) 0.1765(1) 0.8522(2)
C14 C 0.5624(4) 0.2191(2) 0.8948(2)
C15 C 0.6507(4) 0.2688(2) 0.9340(2)
C16 C 0.7651(4) 0.3007(2) 0.8930(2)
C17 C 1.0373(3) 0.1732(1) 0.6951(2)
C18 C 1.1830(3) 0.1575(2) 0.7119(2)
C19 C 1.2839(4) 0.2024(2) 0.7324(2)
C20 C 1.2347(3) 0.2610(1) 0.7354(2)
C21 C 1.0871(3) 0.2733(1) 0.7177(2)
H1 H 0.7771 0.1732 0.6036
H2 H 0.5429 0.1928 0.6326
H3 H 0.5488 0.2071 0.5546
H4 H 0.5261 0.3075 0.5746
H5 H 0.4126 0.2771 0.6205
H6 H 0.5652 0.3577 0.6738
H7 H 0.5598 0.2980 0.7164
H8 H 0.8020 0.3351 0.7194
H9 H 0.9334 0.3524 0.6291
H10 H 0.7102 0.3253 0.5279
H11 H 0.8821 0.3332 0.5236
H12 H 0.9358 0.2413 0.5585
H13 H 0.7942 0.2319 0.5080
H14 H 0.9122 0.2877 0.8240
H15 H 1.0299 0.2427 0.9221
H16 H 1.0279 0.1968 0.8613
H17 H 0.8630 0.1877 0.9711
H18 H 0.9720 0.1387 0.9463
H19 H 0.8064 0.1088 0.8624
H20 H 0.7121 0.1128 0.9260
H21 H 0.5880 0.1495 0.8270
H22 H 0.5107 0.1945 0.9255
H23 H 0.4915 0.2393 0.8636
H24 H 0.7101 0.2528 0.9726
H25 H 0.5881 0.3004 0.9489
H26 H 0.7128 0.3288 0.8627
H27 H 0.8303 0.3222 0.9254
H28 H 0.9676 0.1420 0.6810
H29 H 1.2144 0.1162 0.7096
H30 H 1.3865 0.1928 0.7442
H31 H 1.3024 0.2929 0.7496
H32 H 1.0536 0.3144 0.7198
O2 O 0.7684(2) -0.0114(1) 0.2696(1)
B3 B 0.7016(4) 0.0190(2) 0.3276(2)
B4 B 0.7570(4) -0.0023(2) 0.2016(2)
N2 N 0.5196(3) 0.0065(1) 0.3115(1)
C22 C 0.7610(3) -0.0128(1) 0.3984(2)
C23 C 0.9323(3) -0.0066(1) 0.4038(2)
C24 C 0.9918(4) 0.0581(2) 0.3970(2)
C25 C 0.9105(4) 0.0953(2) 0.3399(2)
C26 C 0.7392(3) 0.0900(1) 0.3361(2)
C27 C 0.6722(4) 0.1177(2) 0.3987(2)
C28 C 0.6993(4) 0.0823(2) 0.4663(2)
C29 C 0.6846(4) 0.0140(2) 0.4586(2)
C30 C 0.8487(3) -0.0416(1) 0.1528(2)
C31 C 0.7347(4) -0.0806(2) 0.1090(2)
C32 C 0.6057(4) -0.0453(2) 0.0725(2)
C33 C 0.5356(4) 0.0019(2) 0.1170(2)
C34 C 0.6490(3) 0.0426(1) 0.1587(2)
C35 C 0.7420(4) 0.0835(2) 0.1153(2)
C36 C 0.8560(4) 0.0518(2) 0.0735(2)
C37 C 0.9427(4) 0.0010(2) 0.1109(2)
C38 C 0.4707(3) -0.0508(1) 0.3121(2)
C39 C 0.3257(3) -0.0666(2) 0.2938(2)
C40 C 0.2241(4) -0.0216(1) 0.2741(2)
C41 C 0.2738(3) 0.0375(1) 0.2736(2)
C42 C 0.4218(3) 0.0496(1) 0.2923(2)
H33 H 0.7392 -0.0552 0.3967
H34 H 0.9678 -0.0308 0.3679
H35 H 0.9719 -0.0219 0.4472
H36 H 1.0944 0.0537 0.3880
H37 H 0.9853 0.0795 0.4391
H38 H 0.9339 0.1373 0.3458
H39 H 0.9453 0.0813 0.2976
H40 H 0.7017 0.1133 0.2972
H41 H 0.5669 0.1197 0.3871
H42 H 0.6263 0.0948 0.4965
H43 H 0.7969 0.0921 0.4863
H44 H 0.7244 -0.0061 0.4993
H45 H 0.5806 0.0048 0.4507
H46 H 0.9208 -0.0674 0.1767
H47 H 0.6893 -0.1087 0.1383
H48 H 0.7896 -0.1023 0.0769
H49 H 0.5261 -0.0724 0.0585
H50 H 0.6437 -0.0274 0.0328
H51 H 0.4741 0.0287 0.0886
H52 H 0.4753 -0.0189 0.1477
H53 H 0.5904 0.0679 0.1858
H54 H 0.6728 0.1061 0.0856
H55 H 0.9277 0.0809 0.0604
H56 H 0.8049 0.0348 0.0332
H57 H 0.9898 -0.0237 0.0786
H58 H 1.0173 0.0188 0.1422
H59 H 0.5403 -0.0821 0.3260
H60 H 0.2951 -0.1081 0.2946
H61 H 0.1220 -0.0312 0.2611
H62 H 0.2062 0.0697 0.2606
H63 H 0.4557 0.0906 0.2913
H64? H 0.7811 0.3863 0.6161
H65? H 0.7113 0.1578 0.4050
H66? H 0.7970 0.1106 0.1459
loop_
_geom_bond_atom_site_label_1
_geom_bond_atom_site_label_2
_geom_bond_site_symmetry_1
_geom_bond_site_symmetry_2
O1 B1 1_555 1_555
B1 N1 1_555 1_555
B2 O1 1_555 1_555
N1 C17 1_555 1_555
C1 B1 1_555 1_555
C2 C1 1_555 1_555
C3 C2 1_555 1_555
C4 C3 1_555 1_555
C5 B1 1_555 1_555
C6 C5 1_555 1_555
C7 C6 1_555 1_555
C8 C1 1_555 1_555
C9 B2 1_555 1_555
C10 C9 1_555 1_555
C11 C10 1_555 1_555
C12 C11 1_555 1_555
C13 B2 1_555 1_555
C14 C13 1_555 1_555
C15 C14 1_555 1_555
C16 C9 1_555 1_555
C17 C18 1_555 1_555
C18 C19 1_555 1_555
C19 C20 1_555 1_555
C20 C21 1_555 1_555
C21 N1 1_555 1_555
H1 C1 1_555 1_555
H2 C2 1_555 1_555
H3 C2 1_555 1_555
H4 C3 1_555 1_555
H5 C3 1_555 1_555
H6 C4 1_555 1_555
H7 C4 1_555 1_555
H8 C5 1_555 1_555
H9 C6 1_555 1_555
H10 C7 1_555 1_555
H11 C7 1_555 1_555
H12 C8 1_555 1_555
H13 C8 1_555 1_555
H14 C9 1_555 1_555
H15 C10 1_555 1_555
H16 C10 1_555 1_555
H17 C11 1_555 1_555
H18 C11 1_555 1_555
H19 C12 1_555 1_555
H20 C12 1_555 1_555
H21 C13 1_555 1_555
H22 C14 1_555 1_555
H23 C14 1_555 1_555
H24 C15 1_555 1_555
H25 C15 1_555 1_555
H26 C16 1_555 1_555
H27 C16 1_555 1_555
H28 C17 1_555 1_555
H29 C18 1_555 1_555
H30 C19 1_555 1_555
H31 C20 1_555 1_555
H32 C21 1_555 1_555
O2 B3 1_555 1_555
B3 N2 1_555 1_555
B4 O2 1_555 1_555
N2 C38 1_555 1_555
C22 B3 1_555 1_555
C23 C22 1_555 1_555
C24 C23 1_555 1_555
C25 C24 1_555 1_555
C26 B3 1_555 1_555
C27 C26 1_555 1_555
C28 C27 1_555 1_555
C29 C22 1_555 1_555
C30 B4 1_555 1_555
C31 C30 1_555 1_555
C32 C31 1_555 1_555
C33 C32 1_555 1_555
C34 B4 1_555 1_555
C35 C34 1_555 1_555
C36 C35 1_555 1_555
C37 C30 1_555 1_555
C38 C39 1_555 1_555
C39 C40 1_555 1_555
C40 C41 1_555 1_555
C41 C42 1_555 1_555
C42 N2 1_555 1_555
H33 C22 1_555 1_555
H34 C23 1_555 1_555
H35 C23 1_555 1_555
H36 C24 1_555 1_555
H37 C24 1_555 1_555
H38 C25 1_555 1_555
H39 C25 1_555 1_555
H40 C26 1_555 1_555
H41 C27 1_555 1_555
H42 C28 1_555 1_555
H43 C28 1_555 1_555
H44 C29 1_555 1_555
H45 C29 1_555 1_555
H46 C30 1_555 1_555
H47 C31 1_555 1_555
H48 C31 1_555 1_555
H49 C32 1_555 1_555
H50 C32 1_555 1_555
H51 C33 1_555 1_555
H52 C33 1_555 1_555
H53 C34 1_555 1_555
H54 C35 1_555 1_555
H55 C36 1_555 1_555
H56 C36 1_555 1_555
H57 C37 1_555 1_555
H58 C37 1_555 1_555
H59 C38 1_555 1_555
H60 C39 1_555 1_555
H61 C40 1_555 1_555
H62 C41 1_555 1_555
H63 C42 1_555 1_555
C4 C5 1_555 1_555
C7 C8 1_555 1_555
C12 C13 1_555 1_555
C15 C16 1_555 1_555
C25 C26 1_555 1_555
C28 C29 1_555 1_555
C33 C34 1_555 1_555
C36 C37 1_555 1_555

#END
