
#######################################################################
#
#                 Cambridge Crystallographic Data Centre
#                                CCDC 
#
#######################################################################
#
# If this CIF has been generated from an entry in the Cambridge 
# Structural Database, then it will include bibliographic, chemical, 
# crystal, experimental, refinement or atomic coordinate data resulting 
# from the CCDC's data processing and validation procedures.
#
#######################################################################

data_VAJPII
_chemical_name_common            
'bis(2-amino-4-hydroxy-6-methyl pyrimidine) 6-hydroxy-2-naphtholate monohydrate'
_chemical_formula_moiety         'C11 H7 O3 1-,C5 H8 N3 O1 1+,C5 H7 N3 O1,H2 O1'
_chemical_name_systematic        
'6-methyl-4-oxo-3,4-dihydropyrimidin-2(1H)-iminium 6-hydroxy-2-naphthoate 2-amino-6-methylpyrimidin-4(1H)-one monohydrate'
_symmetry_cell_setting           monoclinic
_symmetry_space_group_name_H-M   'P 21/c'
_symmetry_Int_Tables_number      14
_space_group_name_Hall           '-P 2ybc'
loop_
_symmetry_equiv_pos_site_id
_symmetry_equiv_pos_as_xyz
1 x,y,z
2 -x,1/2+y,1/2-z
3 -x,-y,-z
4 x,1/2-y,1/2+z
_cell_length_a                   10.5990(6)
_cell_length_b                   21.0600(10)
_cell_length_c                   10.1489(5)
_cell_angle_alpha                90
_cell_angle_beta                 106.396(6)
_cell_angle_gamma                90
_cell_volume                     2173.26
_exptl_crystal_colour            yellow
_exptl_crystal_description       needle
_cell_formula_units_Z            4
loop_
_atom_site_label
_atom_site_type_symbol
_atom_site_fract_x
_atom_site_fract_y
_atom_site_fract_z
O1 O 0.03570(16) 0.36608(8) 0.43979(16)
O2 O 0.42278(15) 0.34085(7) -0.20391(15)
H1 H 0.4128 0.3657 -0.2682
O3 O -0.06066(15) 0.44053(7) 0.29005(15)
C1 C 0.10754(18) 0.37831(9) 0.24139(19)
C2 C 0.26675(17) 0.34102(8) 0.07419(18)
C3 C 0.34592(18) 0.32361(9) -0.01137(19)
H2 H 0.3981 0.2874 0.0091
C4 C 0.26649(18) 0.30622(9) 0.19374(19)
H3 H 0.3186 0.2701 0.2166
C5 C 0.0212(2) 0.39730(10) 0.3273(2)
C6 C 0.10653(18) 0.41255(9) 0.12611(19)
H4 H 0.0518 0.4478 0.1033
C7 C 0.19130(18) 0.32481(9) 0.2756(2)
H5 H 0.1950 0.3021 0.3551
C8 C 0.34661(19) 0.35913(9) -0.1233(2)
C9 C 0.18615(18) 0.39589(8) 0.04107(19)
C10 C 0.1892(2) 0.43158(9) -0.0756(2)
H6 H 0.1370 0.4677 -0.0984
C11 C 0.2670(2) 0.41403(9) -0.1550(2)
H7 H 0.2679 0.4384 -0.2312
O4 O 0.38891(14) 0.41408(7) 0.57481(14)
N1 N 0.58096(15) 0.37027(7) 0.30358(16)
H8 H 0.6201 0.3617 0.2421
N2 N 0.50147(17) 0.46102(8) 0.18452(16)
H9 H 0.4557 0.4954 0.1733
H10 H 0.5441 0.4510 0.1269
N3 N 0.44087(15) 0.43846(7) 0.37980(15)
C12 C 0.6783(2) 0.27261(10) 0.4139(2)
H11 H 0.6324 0.2437 0.3436
H12 H 0.6965 0.2522 0.5019
H13 H 0.7595 0.2851 0.3971
C13 C 0.59516(18) 0.32999(9) 0.4128(2)
C14 C 0.53278(18) 0.34425(9) 0.5067(2)
H14 H 0.5422 0.3181 0.5828
C15 C 0.45121(18) 0.39991(9) 0.49015(19)
C16 C 0.50622(18) 0.42342(8) 0.29084(19)
O5 O 0.31709(15) 0.56311(7) 0.13624(15)
N4 N 0.10785(15) 0.60355(7) 0.40054(16)
H15 H 0.0645 0.6116 0.4586
C17 C 0.0051(2) 0.69757(10) 0.2777(2)
H16 H -0.0798 0.6832 0.2814
H17 H -0.0035 0.7189 0.1921
H18 H 0.0408 0.7264 0.3523
N5 N 0.25650(15) 0.54091(7) 0.32796(15)
H19 H 0.3074 0.5083 0.3423
N6 N 0.20262(16) 0.51582(8) 0.52546(16)
H20 H 0.1603 0.5233 0.5847
H21 H 0.2546 0.4837 0.5360
C18 C 0.09525(19) 0.64179(9) 0.2892(2)
C19 C 0.1624(2) 0.63004(9) 0.1963(2)
H22 H 0.1513 0.6566 0.1207
C20 C 0.24902(19) 0.57770(9) 0.21353(19)
C21 C 0.18783(17) 0.55361(8) 0.41862(18)
O6 O 0.71930(18) 0.37648(9) 0.10855(17)
H23 H 0.7825 0.4002 0.1515
H24 H 0.6939 0.3876 0.0247
loop_
_geom_bond_atom_site_label_1
_geom_bond_atom_site_label_2
_geom_bond_site_symmetry_1
_geom_bond_site_symmetry_2
O1 C5 1_555 1_555
O2 H1 1_555 1_555
O3 C5 1_555 1_555
C1 C5 1_555 1_555
C2 C3 1_555 1_555
C3 H2 1_555 1_555
C4 C2 1_555 1_555
H3 C4 1_555 1_555
C6 C1 1_555 1_555
H4 C6 1_555 1_555
C7 C1 1_555 1_555
H5 C7 1_555 1_555
C8 O2 1_555 1_555
C9 C2 1_555 1_555
C10 C9 1_555 1_555
H6 C10 1_555 1_555
C11 C8 1_555 1_555
H7 C11 1_555 1_555
O4 C15 1_555 1_555
N1 H8 1_555 1_555
N2 H9 1_555 1_555
H10 N2 1_555 1_555
N3 C15 1_555 1_555
C12 H11 1_555 1_555
H12 C12 1_555 1_555
H13 C12 1_555 1_555
C13 N1 1_555 1_555
C14 C13 1_555 1_555
H14 C14 1_555 1_555
C15 C14 1_555 1_555
C16 N1 1_555 1_555
O5 C20 1_555 1_555
N4 H15 1_555 1_555
C17 H16 1_555 1_555
H17 C17 1_555 1_555
H18 C17 1_555 1_555
N5 H19 1_555 1_555
N6 H20 1_555 1_555
H21 N6 1_555 1_555
C18 N4 1_555 1_555
C19 C18 1_555 1_555
H22 C19 1_555 1_555
C20 N5 1_555 1_555
C21 N4 1_555 1_555
O6 H23 1_555 1_555
H24 O6 1_555 1_555
C3 C8 1_555 1_555
C4 C7 1_555 1_555
C6 C9 1_555 1_555
C10 C11 1_555 1_555
N2 C16 1_555 1_555
N3 C16 1_555 1_555
C12 C13 1_555 1_555
C17 C18 1_555 1_555
N5 C21 1_555 1_555
N6 C21 1_555 1_555
C19 C20 1_555 1_555

#END
