
#######################################################################
#
#                 Cambridge Crystallographic Data Centre
#                                CCDC 
#
#######################################################################
#
# If this CIF has been generated from an entry in the Cambridge 
# Structural Database, then it will include bibliographic, chemical, 
# crystal, experimental, refinement or atomic coordinate data resulting 
# from the CCDC's data processing and validation procedures.
#
#######################################################################

data_VAKCIW
_chemical_formula_moiety         'C10 H15 N2 1+,C11 H7 O3 1-,H2 O1'
_chemical_name_systematic        
'4-phenylpiperazin-1-ium 6-hydroxy-2-naphthoate monohydrate'
_symmetry_cell_setting           triclinic
_symmetry_space_group_name_H-M   'P -1'
_symmetry_Int_Tables_number      2
_space_group_name_Hall           '-P 1'
loop_
_symmetry_equiv_pos_site_id
_symmetry_equiv_pos_as_xyz
1 x,y,z
2 -x,-y,-z
_cell_length_a                   7.5649(6)
_cell_length_b                   12.0051(10)
_cell_length_c                   12.1990(12)
_cell_angle_alpha                116.530(9)
_cell_angle_beta                 92.193(7)
_cell_angle_gamma                108.328(7)
_cell_volume                     919.87
_exptl_crystal_colour            colorless
_exptl_crystal_description       block
_cell_formula_units_Z            2
loop_
_atom_site_label
_atom_site_type_symbol
_atom_site_fract_x
_atom_site_fract_y
_atom_site_fract_z
N1 N 0.58016(17) 0.94079(12) 0.35689(12)
N2 N 0.43184(18) 0.65701(12) 0.18521(14)
H1 H 0.5305 0.6522 0.1468
H2 H 0.3417 0.5741 0.1510
C1 C 0.7032(2) 1.07672(14) 0.42063(15)
C2 C 0.5021(2) 0.88699(15) 0.22441(16)
H3 H 0.6046 0.8855 0.1790
H4 H 0.4459 0.9456 0.2155
C3 C 0.6834(3) 1.16733(16) 0.38384(18)
H5 H 0.5902 1.1370 0.3143
C4 C 0.4959(2) 0.70881(15) 0.32079(17)
H6 H 0.5504 0.6508 0.3326
H7 H 0.3872 0.7078 0.3606
C5 C 0.8465(2) 1.12749(15) 0.52501(16)
H8 H 0.8646 1.0700 0.5522
C6 C 0.3538(2) 0.74788(16) 0.16782(17)
H9 H 0.2450 0.7504 0.2070
H10 H 0.3109 0.7142 0.0790
C7 C 0.6426(2) 0.85009(15) 0.38224(17)
H11 H 0.6709 0.8843 0.4721
H12 H 0.7593 0.8481 0.3525
C8 C 0.9620(2) 1.26213(17) 0.58858(18)
H13 H 1.0560 1.2936 0.6580
C9 C 0.7997(3) 1.30166(18) 0.4488(2)
H14 H 0.7825 1.3603 0.4229
C10 C 0.9405(3) 1.34972(17) 0.5511(2)
H15 H 1.0194 1.4399 0.5940
O1 O -0.23521(17) -0.33696(12) 0.08745(14)
O2 O -0.12840(16) -0.42272(11) -0.08622(13)
O3 O 0.55266(18) 0.43000(11) 0.28895(13)
H16 H 0.6200 0.4282 0.2376
C11 C 0.0032(2) -0.18738(15) 0.04365(16)
C12 C 0.4014(2) 0.19691(15) 0.13598(16)
H17 H 0.4761 0.2085 0.0803
C13 C 0.0261(2) -0.07806(15) 0.15669(16)
H18 H -0.0458 -0.0894 0.2137
C14 C 0.2675(2) 0.06809(15) 0.10234(15)
C15 C 0.1559(2) 0.05155(15) 0.18926(16)
C16 C 0.2394(2) -0.04607(15) -0.01413(16)
H19 H 0.3100 -0.0369 -0.0724
C17 C 0.4222(2) 0.30426(16) 0.24918(18)
C18 C 0.1114(2) -0.16928(16) -0.04311(16)
H20 H 0.0950 -0.2424 -0.1209
C19 C 0.1796(2) 0.16624(17) 0.30491(18)
H21 H 0.1057 0.1573 0.3619
C20 C -0.1309(2) -0.32517(16) 0.01213(18)
C21 C 0.3084(2) 0.28914(17) 0.33421(18)
H22 H 0.3213 0.3633 0.4104
O4 O 0.78164(18) 0.46061(12) 0.13441(13)
H23 H 0.7828 0.5220 0.1172
H24 H 0.8856 0.4476 0.1257
loop_
_geom_bond_atom_site_label_1
_geom_bond_atom_site_label_2
_geom_bond_site_symmetry_1
_geom_bond_site_symmetry_2
N1 C1 1_555 1_555
N2 H1 1_555 1_555
H2 N2 1_555 1_555
C1 C3 1_555 1_555
C2 N1 1_555 1_555
H3 C2 1_555 1_555
H4 C2 1_555 1_555
C3 H5 1_555 1_555
C4 N2 1_555 1_555
H6 C4 1_555 1_555
H7 C4 1_555 1_555
C5 C1 1_555 1_555
H8 C5 1_555 1_555
C6 N2 1_555 1_555
H9 C6 1_555 1_555
H10 C6 1_555 1_555
C7 N1 1_555 1_555
H11 C7 1_555 1_555
H12 C7 1_555 1_555
C8 C5 1_555 1_555
H13 C8 1_555 1_555
C9 C3 1_555 1_555
H14 C9 1_555 1_555
C10 C8 1_555 1_555
H15 C10 1_555 1_555
O1 C20 1_555 1_555
O2 C20 1_555 1_555
O3 H16 1_555 1_555
C11 C13 1_555 1_555
C12 H17 1_555 1_555
C13 H18 1_555 1_555
C14 C12 1_555 1_555
C15 C13 1_555 1_555
C16 C14 1_555 1_555
H19 C16 1_555 1_555
C17 O3 1_555 1_555
C18 C11 1_555 1_555
H20 C18 1_555 1_555
C19 C15 1_555 1_555
H21 C19 1_555 1_555
C20 C11 1_555 1_555
C21 C17 1_555 1_555
H22 C21 1_555 1_555
O4 H23 1_555 1_555
H24 O4 1_555 1_555
C2 C6 1_555 1_555
C4 C7 1_555 1_555
C9 C10 1_555 1_555
C12 C17 1_555 1_555
C14 C15 1_555 1_555
C16 C18 1_555 1_555
C19 C21 1_555 1_555

#END
