
#######################################################################
#
#                 Cambridge Crystallographic Data Centre
#                                CCDC 
#
#######################################################################
#
# If this CIF has been generated from an entry in the Cambridge 
# Structural Database, then it will include bibliographic, chemical, 
# crystal, experimental, refinement or atomic coordinate data resulting 
# from the CCDC's data processing and validation procedures.
#
#######################################################################

data_VALMAY
_chemical_formula_moiety         'C37 H35 N1 O4'
_chemical_name_systematic        
'Diethyl 2-benzyl-5-(diphenylmethylene)-1-methyl-4-phenyl-2,5-dihydro-1H-pyrrole-2,3-dicarboxylate'
_symmetry_cell_setting           triclinic
_symmetry_space_group_name_H-M   'P -1'
_symmetry_Int_Tables_number      2
_space_group_name_Hall           '-P 1'
loop_
_symmetry_equiv_pos_site_id
_symmetry_equiv_pos_as_xyz
1 x,y,z
2 -x,-y,-z
_cell_length_a                   10.3722(6)
_cell_length_b                   10.5695(5)
_cell_length_c                   14.3839(9)
_cell_angle_alpha                98.241(4)
_cell_angle_beta                 99.394(5)
_cell_angle_gamma                92.118(4)
_cell_volume                     1536.74
_exptl_crystal_colour            colorless
_exptl_crystal_description       block
_cell_formula_units_Z            2
loop_
_atom_site_label
_atom_site_type_symbol
_atom_site_fract_x
_atom_site_fract_y
_atom_site_fract_z
O1 O 0.2835(2) 0.20049(18) 0.06009(13)
C1 C 0.3493(2) 0.1621(2) 0.25766(17)
N1 N 0.1991(2) 0.0720(2) 0.33345(15)
O2 O 0.0671(2) -0.18794(19) 0.17626(18)
C2 C 0.3863(3) 0.1943(2) 0.44054(18)
O3 O 0.2818(2) -0.15039(18) 0.22920(18)
C3 C 0.3191(2) 0.1446(2) 0.35219(18)
C4 C 0.4597(3) 0.2409(3) 0.23786(18)
C5 C 0.5257(3) 0.2422(2) 0.45665(18)
C6 C 0.3247(3) 0.2036(2) 0.52771(18)
C7 C 0.2559(3) 0.0996(2) 0.18981(18)
O4 O 0.1954(3) 0.0003(2) 0.03043(15)
C8 C 0.2419(3) 0.0926(3) 0.08522(19)
C9 C 0.1546(3) 0.0311(2) 0.23121(18)
C10 C 0.1600(3) -0.1152(3) 0.2073(2)
C11 C 0.0069(3) 0.2099(3) 0.1941(2)
C12 C 0.4763(3) 0.3707(3) 0.2700(2)
H1 H 0.4187 0.4104 0.3064
C13 C 0.3859(3) 0.1584(3) 0.6091(2)
H2 H 0.4676 0.1248 0.6099
C14 C 0.6187(3) 0.1774(3) 0.4133(2)
H3 H 0.5943 0.0996 0.3739
C15 C 0.0142(3) 0.0695(3) 0.1974(2)
H4 H -0.0185 0.0227 0.1344
H5 H -0.0422 0.0447 0.2402
C16 C 0.5680(3) 0.3549(3) 0.5188(2)
H6 H 0.5087 0.3986 0.5514
C17 C 0.2072(3) 0.2598(3) 0.5321(2)
H7 H 0.1664 0.2950 0.4801
C18 C 0.5462(3) 0.1843(4) 0.1825(2)
H8 H 0.5360 0.0969 0.1599
C19 C 0.3262(4) 0.1632(3) 0.6885(2)
H9 H 0.3673 0.1308 0.7417
C20 C 0.2076(4) 0.2149(3) 0.6898(2)
H10 H 0.1672 0.2161 0.7430
C21 C -0.0090(3) 0.2555(3) 0.1078(3)
H11 H -0.0189 0.1976 0.0516
C22 C 0.6959(4) 0.4027(4) 0.5329(3)
H12 H 0.7222 0.4784 0.5744
C23 C 0.0179(4) 0.2978(4) 0.2761(3)
H13 H 0.0247 0.2701 0.3351
C24 C 0.2783(5) 0.2051(4) -0.0405(2)
H14 H 0.1903 0.1822 -0.0751
H15 H 0.3374 0.1460 -0.0666
C25 C 0.1492(4) 0.2646(4) 0.6125(2)
H16 H 0.0696 0.3021 0.6137
C26 C 0.7470(3) 0.2259(4) 0.4273(3)
H17 H 0.8077 0.1815 0.3967
C27 C 0.7847(4) 0.3388(4) 0.4858(3)
H18 H 0.8706 0.3725 0.4938
C28 C 0.6465(4) 0.2570(6) 0.1610(3)
H19 H 0.7039 0.2186 0.1239
C29 C 0.3024(5) -0.2868(4) 0.2132(4)
H20 H 0.3760 -0.3057 0.2590
H21 H 0.2253 -0.3355 0.2219
C30 C 0.5786(4) 0.4419(4) 0.2481(3)
H22 H 0.5902 0.5292 0.2708
C31 C 0.6626(4) 0.3855(7) 0.1937(4)
H23 H 0.7308 0.4342 0.1789
C32 C 0.0188(4) 0.4280(5) 0.2703(5)
H24 H 0.0296 0.4873 0.3258
C33 C -0.0103(4) 0.3835(4) 0.1030(4)
H25 H -0.0212 0.4116 0.0440
C34 C 0.0041(4) 0.4696(4) 0.1837(6)
H26 H 0.0039 0.5568 0.1803
C35 C 0.1588(4) -0.0086(3) 0.3990(2)
H27 H 0.0923 -0.0717 0.3649
H28 H 0.1246 0.0434 0.4486
H29 H 0.2329 -0.0507 0.4265
C36 C 0.3185(5) 0.3379(4) -0.0480(3)
H30 H 0.3251 0.3442 -0.1129
H31 H 0.4020 0.3619 -0.0082
H32 H 0.2546 0.3942 -0.0276
C37 C 0.3279(6) -0.3229(5) 0.1178(4)
H33 H 0.2515 -0.3121 0.0727
H34 H 0.3494 -0.4109 0.1092
H35 H 0.3999 -0.2696 0.1078
loop_
_geom_bond_atom_site_label_1
_geom_bond_atom_site_label_2
_geom_bond_site_symmetry_1
_geom_bond_site_symmetry_2
O1 C8 1_555 1_555
C1 C3 1_555 1_555
N1 C3 1_555 1_555
O2 C10 1_555 1_555
C2 C3 1_555 1_555
O3 C10 1_555 1_555
C4 C1 1_555 1_555
C5 C2 1_555 1_555
C6 C2 1_555 1_555
C7 C1 1_555 1_555
O4 C8 1_555 1_555
C8 C7 1_555 1_555
C9 N1 1_555 1_555
C10 C9 1_555 1_555
C11 C15 1_555 1_555
C12 C4 1_555 1_555
H1 C12 1_555 1_555
C13 C6 1_555 1_555
H2 C13 1_555 1_555
C14 C5 1_555 1_555
H3 C14 1_555 1_555
C15 C9 1_555 1_555
H4 C15 1_555 1_555
H5 C15 1_555 1_555
C16 C5 1_555 1_555
H6 C16 1_555 1_555
C17 C6 1_555 1_555
H7 C17 1_555 1_555
C18 C4 1_555 1_555
H8 C18 1_555 1_555
C19 C13 1_555 1_555
H9 C19 1_555 1_555
C20 C19 1_555 1_555
H10 C20 1_555 1_555
C21 C11 1_555 1_555
H11 C21 1_555 1_555
C22 C16 1_555 1_555
H12 C22 1_555 1_555
C23 C11 1_555 1_555
H13 C23 1_555 1_555
C24 O1 1_555 1_555
H14 C24 1_555 1_555
H15 C24 1_555 1_555
C25 C17 1_555 1_555
H16 C25 1_555 1_555
C26 C14 1_555 1_555
H17 C26 1_555 1_555
C27 C22 1_555 1_555
H18 C27 1_555 1_555
C28 C18 1_555 1_555
H19 C28 1_555 1_555
C29 O3 1_555 1_555
H20 C29 1_555 1_555
H21 C29 1_555 1_555
C30 C12 1_555 1_555
H22 C30 1_555 1_555
C31 C28 1_555 1_555
H23 C31 1_555 1_555
C32 C23 1_555 1_555
H24 C32 1_555 1_555
C33 C21 1_555 1_555
H25 C33 1_555 1_555
C34 C32 1_555 1_555
H26 C34 1_555 1_555
C35 N1 1_555 1_555
H27 C35 1_555 1_555
H28 C35 1_555 1_555
H29 C35 1_555 1_555
C36 C24 1_555 1_555
H30 C36 1_555 1_555
H31 C36 1_555 1_555
H32 C36 1_555 1_555
C37 C29 1_555 1_555
H33 C37 1_555 1_555
H34 C37 1_555 1_555
H35 C37 1_555 1_555
C7 C9 1_555 1_555
C20 C25 1_555 1_555
C26 C27 1_555 1_555
C30 C31 1_555 1_555
C33 C34 1_555 1_555

#END
