
#######################################################################
#
#                 Cambridge Crystallographic Data Centre
#                                CCDC 
#
#######################################################################
#
# If this CIF has been generated from an entry in the Cambridge 
# Structural Database, then it will include bibliographic, chemical, 
# crystal, experimental, refinement or atomic coordinate data resulting 
# from the CCDC's data processing and validation procedures.
#
#######################################################################

data_VAMBIX01
_chemical_formula_moiety         'C12 H14 N4 O2 S1,C7 H5 N1 O3 S1'
_chemical_name_systematic        'sulfamethazine saccharine'
_symmetry_cell_setting           monoclinic
_symmetry_space_group_name_H-M   'P 21/c'
_symmetry_Int_Tables_number      14
_space_group_name_Hall           '-P 2ybc'
loop_
_symmetry_equiv_pos_site_id
_symmetry_equiv_pos_as_xyz
1 x,y,z
2 -x,1/2+y,1/2-z
3 -x,-y,-z
4 x,1/2-y,1/2+z
_cell_length_a                   8.0291(2)
_cell_length_b                   17.5002(4)
_cell_length_c                   14.6076(3)
_cell_angle_alpha                90
_cell_angle_beta                 107.8270(10)
_cell_angle_gamma                90
_cell_volume                     1953.97
_chemical_melting_point          '179 deg.C'
_cell_formula_units_Z            4
loop_
_atom_site_label
_atom_site_type_symbol
_atom_site_fract_x
_atom_site_fract_y
_atom_site_fract_z
S1 S -0.29775(8) 0.06167(4) 0.20224(4)
O1 O -0.3586(3) 0.13503(10) 0.22484(14)
O2 O -0.4284(2) 0.01399(11) 0.13727(13)
N1 N -0.1068(3) -0.08981(12) 0.25232(15)
N2 N -0.2167(3) 0.02312(12) 0.30635(15)
N3 N 0.2495(3) 0.10454(14) 0.00952(18)
N4 N -0.1248(3) -0.07573(12) 0.40948(15)
C1 C 0.0081(4) -0.20597(15) 0.20552(19)
H1 H -0.0222 -0.1778 0.1447
H2 H -0.0585 -0.2538 0.1965
H3 H 0.1336 -0.2175 0.2265
C2 C -0.0351(3) -0.15879(14) 0.27972(18)
C3 C -0.1501(3) -0.04801(14) 0.31872(17)
C4 C -0.1310(3) 0.07638(14) 0.14853(18)
C5 C 0.0434(4) 0.08649(14) 0.20211(18)
C6 C 0.1685(4) 0.09717(15) 0.15636(19)
C7 C 0.1221(3) 0.09639(14) 0.05520(18)
C8 C -0.0030(3) -0.18757(15) 0.37271(18)
C9 C -0.0516(3) -0.14506(14) 0.43839(18)
C10 C -0.0354(4) -0.16879(18) 0.53809(19)
C11 C -0.1801(4) 0.07871(15) 0.04822(19)
C12 C -0.0543(4) 0.08872(15) 0.00286(19)
H4 H -0.091(4) 0.0857(15) -0.068(2)
H5 H 0.080(4) 0.0874(16) 0.272(2)
H6 H -0.296(4) 0.0709(17) 0.013(2)
H7 H 0.056(4) -0.2348(17) 0.390(2)
H8 H 0.342(5) 0.0855(18) 0.041(2)
H9 H 0.212(4) 0.0904(17) -0.056(2)
H10 H -0.153(4) -0.0505(17) 0.447(2)
H11 H 0.032(5) -0.212(2) 0.550(3)
H12 H 0.289(4) 0.1023(18) 0.192(2)
H13 H 0.026(5) -0.133(2) 0.583(3)
H14 H -0.145(5) -0.178(2) 0.546(3)
S2 S -0.53715(8) -0.18365(4) 0.56094(4)
O3 O -0.6512(2) -0.24469(10) 0.56649(13)
O4 O -0.3675(2) -0.18128(11) 0.63126(12)
O5 O -0.7401(2) 0.00279(10) 0.45878(13)
N5 N -0.6371(3) -0.09936(13) 0.55800(16)
C13 C -0.5335(4) -0.13083(15) 0.26143(19)
C14 C -0.6013(4) -0.08046(16) 0.31421(18)
C15 C -0.5971(3) -0.10176(14) 0.40616(18)
C16 C -0.5246(3) -0.17178(14) 0.44325(17)
C17 C -0.4639(4) -0.20100(16) 0.29932(19)
C18 C -0.4579(4) -0.22280(15) 0.39203(19)
C19 C -0.6660(3) -0.05954(15) 0.47422(18)
H15 H -0.542(4) -0.1183(16) 0.197(2)
H16 H -0.661(4) -0.0856(17) 0.605(2)
H17 H -0.648(4) -0.0349(19) 0.286(2)
H18 H -0.415(4) -0.2353(18) 0.263(2)
H19 H -0.413(4) -0.2692(17) 0.421(2)
loop_
_geom_bond_atom_site_label_1
_geom_bond_atom_site_label_2
_geom_bond_site_symmetry_1
_geom_bond_site_symmetry_2
S1 O1 1_555 1_555
O2 S1 1_555 1_555
N1 C2 1_555 1_555
N2 S1 1_555 1_555
N3 C7 1_555 1_555
N4 C3 1_555 1_555
C1 H1 1_555 1_555
H2 C1 1_555 1_555
H3 C1 1_555 1_555
C2 C1 1_555 1_555
C3 N1 1_555 1_555
C4 S1 1_555 1_555
C5 C4 1_555 1_555
C6 C5 1_555 1_555
C7 C6 1_555 1_555
C8 C2 1_555 1_555
C9 N4 1_555 1_555
C10 C9 1_555 1_555
C11 C4 1_555 1_555
C12 C7 1_555 1_555
H4 C12 1_555 1_555
H5 C5 1_555 1_555
H6 C11 1_555 1_555
H7 C8 1_555 1_555
H8 N3 1_555 1_555
H9 N3 1_555 1_555
H10 N4 1_555 1_555
H11 C10 1_555 1_555
H12 C6 1_555 1_555
H13 C10 1_555 1_555
H14 C10 1_555 1_555
S2 O3 1_555 1_555
O4 S2 1_555 1_555
O5 C19 1_555 1_555
N5 S2 1_555 1_555
C13 C14 1_555 1_555
C14 C15 1_555 1_555
C15 C16 1_555 1_555
C16 S2 1_555 1_555
C17 C13 1_555 1_555
C18 C16 1_555 1_555
C19 N5 1_555 1_555
H15 C13 1_555 1_555
H16 N5 1_555 1_555
H17 C14 1_555 1_555
H18 C17 1_555 1_555
H19 C18 1_555 1_555
N2 C3 1_555 1_555
C8 C9 1_555 1_555
C11 C12 1_555 1_555
C15 C19 1_555 1_555
C17 C18 1_555 1_555

#END
