
#######################################################################
#
#                 Cambridge Crystallographic Data Centre
#                                CCDC 
#
#######################################################################
#
# If this CIF has been generated from an entry in the Cambridge 
# Structural Database, then it will include bibliographic, chemical, 
# crystal, experimental, refinement or atomic coordinate data resulting 
# from the CCDC's data processing and validation procedures.
#
#######################################################################

data_VAMCAO01
_chemical_formula_moiety         'C11 H10 N4 O1,H2 O1'
_chemical_name_systematic        
'Pyrrole-2-carbaldehyde isonicotinoylhydrazone monohydrate'
_symmetry_cell_setting           orthorhombic
_symmetry_space_group_name_H-M   'P 21 21 21'
_symmetry_Int_Tables_number      19
_space_group_name_Hall           'P 2ac 2ab'
loop_
_symmetry_equiv_pos_site_id
_symmetry_equiv_pos_as_xyz
1 x,y,z
2 1/2-x,-y,1/2+z
3 1/2+x,1/2-y,-z
4 -x,1/2+y,1/2-z
_cell_length_a                   6.4224(3)
_cell_length_b                   7.2115(5)
_cell_length_c                   23.6073(16)
_cell_angle_alpha                90
_cell_angle_beta                 90
_cell_angle_gamma                90
_cell_volume                     1093.38
_exptl_crystal_colour            yellow
_exptl_crystal_description       needle
_chemical_melting_point          507-509K
_cell_formula_units_Z            4
_exptl_crystal_recrystallization_method ethanol
loop_
_atom_site_label
_atom_site_type_symbol
_atom_site_fract_x
_atom_site_fract_y
_atom_site_fract_z
O1 O 0.6865(6) 0.2980(5) 0.66359(13)
N1 N 0.1197(7) 0.3659(6) 0.80686(15)
N2 N 0.4058(7) 0.2053(5) 0.61219(13)
N3 N 0.7902(6) -0.0358(5) 0.49180(14)
N4 N 0.5395(6) 0.1447(5) 0.56955(14)
C1 C 0.0430(8) 0.3915(6) 0.75496(18)
C2 C 0.1532(7) 0.3589(6) 0.70543(17)
C3 C 0.3577(7) 0.3029(6) 0.70943(17)
C4 C 0.4432(8) 0.2752(6) 0.76360(17)
C5 C 0.3173(9) 0.3077(7) 0.81000(18)
C6 C 0.4967(7) 0.2699(6) 0.65957(17)
C7 C 0.5847(7) -0.0004(6) 0.48168(17)
C8 C 0.5351(8) -0.0775(6) 0.42930(18)
C9 C 0.7161(8) -0.1591(6) 0.40792(18)
C10 C 0.8724(8) -0.1323(6) 0.44730(18)
C11 C 0.4532(8) 0.0856(6) 0.52368(16)
H1 H -0.0961 0.4349 0.7517
H2 H 0.0890 0.3749 0.6695
H3 H 0.5832 0.2355 0.7682
H4 H 0.3747 0.2874 0.8466
H5 H 0.2741 0.1722 0.6103
H6 H 0.8591 -0.0017 0.5223
H7 H 0.4027 -0.0750 0.4114
H8 H 0.7293 -0.2218 0.3727
H9 H 1.0123 -0.1737 0.4440
H10 H 0.3076 0.0982 0.5177
O2 O 0.9913(5) 0.0839(4) 0.59806(12)
H11 H 0.8869 0.1511 0.6042
H12 H 0.9824 0.0006 0.6228
loop_
_geom_bond_atom_site_label_1
_geom_bond_atom_site_label_2
_geom_bond_site_symmetry_1
_geom_bond_site_symmetry_2
O1 C6 1_555 1_555
N1 C1 1_555 1_555
N2 N4 1_555 1_555
N3 C7 1_555 1_555
N4 C11 1_555 1_555
C1 C2 1_555 1_555
C2 C3 1_555 1_555
C3 C4 1_555 1_555
C4 C5 1_555 1_555
C5 N1 1_555 1_555
C6 N2 1_555 1_555
C7 C8 1_555 1_555
C8 C9 1_555 1_555
C9 C10 1_555 1_555
C10 N3 1_555 1_555
C11 C7 1_555 1_555
O2 H11 1_555 1_555
H1 C1 1_555 1_555
H2 C2 1_555 1_555
H3 C4 1_555 1_555
H4 C5 1_555 1_555
H5 N2 1_555 1_555
H6 N3 1_555 1_555
H7 C8 1_555 1_555
H8 C9 1_555 1_555
H9 C10 1_555 1_555
H10 C11 1_555 1_555
H12 O2 1_555 1_555
C3 C6 1_555 1_555

#END
