
#######################################################################
#
#                 Cambridge Crystallographic Data Centre
#                                CCDC 
#
#######################################################################
#
# If this CIF has been generated from an entry in the Cambridge 
# Structural Database, then it will include bibliographic, chemical, 
# crystal, experimental, refinement or atomic coordinate data resulting 
# from the CCDC's data processing and validation procedures.
#
#######################################################################

data_VAMFEV
_chemical_formula_moiety         'C8 H27 B9 N2'
_chemical_name_systematic        
7-(Dimethylammoniomethyl)-8-(dimethylaminomethyl)-9,10-\mH-7,8-dicarba-nido-undecaborate
_symmetry_cell_setting           monoclinic
_symmetry_space_group_name_H-M   'P 21/n'
_symmetry_Int_Tables_number      14
_space_group_name_Hall           '-P 2yn'
loop_
_symmetry_equiv_pos_site_id
_symmetry_equiv_pos_as_xyz
1 x,y,z
2 1/2+x,1/2-y,1/2+z
3 -x,-y,-z
4 1/2-x,1/2+y,1/2-z
_cell_length_a                   8.3868(5)
_cell_length_b                   17.6878(8)
_cell_length_c                   10.6643(9)
_cell_angle_alpha                90
_cell_angle_beta                 99.485(6)
_cell_angle_gamma                90
_cell_volume                     1560.36
_exptl_crystal_colour            colorless
_exptl_crystal_description       Block
_cell_formula_units_Z            4
loop_
_atom_site_label
_atom_site_type_symbol
_atom_site_fract_x
_atom_site_fract_y
_atom_site_fract_z
N1 N 0.3038(2) 0.13220(11) 0.37119(19)
N2 N 0.5348(3) 0.12143(11) 0.2277(2)
C1 C 0.3853(3) 0.26900(13) 0.3551(2)
C2 C 0.5203(3) 0.26330(13) 0.2667(2)
C3 C 0.3588(3) 0.20320(13) 0.4408(2)
H1 H 0.4592 0.1931 0.4977
H2 H 0.2790 0.2178 0.4925
C4 C 0.1425(3) 0.13820(16) 0.2906(3)
H3 H 0.0635 0.1515 0.3425
H4 H 0.1141 0.0905 0.2499
H5 H 0.1453 0.1764 0.2271
C5 C 0.3069(4) 0.06949(14) 0.4651(3)
H6 H 0.2293 0.0795 0.5199
H7 H 0.4129 0.0659 0.5150
H8 H 0.2806 0.0227 0.4208
C6 C 0.6243(3) 0.19201(14) 0.2684(2)
H9 H 0.7039 0.2003 0.2134
H10 H 0.6823 0.1848 0.3540
C7 C 0.4661(4) 0.12109(17) 0.0913(3)
H11 H 0.3917 0.1624 0.0730
H12 H 0.4103 0.0743 0.0700
H13 H 0.5516 0.1263 0.0421
C8 C 0.6438(4) 0.05529(16) 0.2570(3)
H14 H 0.5833 0.0095 0.2372
H15 H 0.6896 0.0557 0.3456
H16 H 0.7289 0.0579 0.2069
B1 B 0.4746(4) 0.31335(17) 0.1392(3)
H17 H 0.4711 0.2804 0.0512
B2 B 0.2844(4) 0.36257(17) 0.1494(3)
H18 H 0.1890 0.3592 0.0654
B3 B 0.2355(3) 0.32350(16) 0.2974(3)
H19 H 0.1167 0.2957 0.2868
B4 B 0.5665(3) 0.31480(16) 0.4060(3)
H20 H 0.6562 0.2984 0.4888
B5 B 0.6240(4) 0.34770(17) 0.2648(3)
H21 H 0.7519 0.3546 0.2557
B6 B 0.4724(4) 0.40832(17) 0.1901(3)
H22 H 0.5026 0.4551 0.1303
B7 B 0.3196(4) 0.41422(16) 0.2915(3)
H23 H 0.2470 0.4652 0.2999
B8 B 0.3838(4) 0.35753(16) 0.4241(3)
H24 H 0.3560 0.3708 0.5190
B9 B 0.5302(4) 0.40935(17) 0.3597(3)
H25 H 0.5954 0.4572 0.4104
H26 H 0.280(4) 0.3002(18) 0.151(3)
H27 H 0.405(5) 0.119(2) 0.310(4)
loop_
_geom_bond_atom_site_label_1
_geom_bond_atom_site_label_2
_geom_bond_site_symmetry_1
_geom_bond_site_symmetry_2
N1 C3 1_555 1_555
N2 C6 1_555 1_555
C1 C2 1_555 1_555
C2 C6 1_555 1_555
C3 C1 1_555 1_555
H1 C3 1_555 1_555
H2 C3 1_555 1_555
C4 N1 1_555 1_555
H3 C4 1_555 1_555
H4 C4 1_555 1_555
H5 C4 1_555 1_555
C5 N1 1_555 1_555
H6 C5 1_555 1_555
H7 C5 1_555 1_555
H8 C5 1_555 1_555
C6 H9 1_555 1_555
H10 C6 1_555 1_555
C7 N2 1_555 1_555
H11 C7 1_555 1_555
H12 C7 1_555 1_555
H13 C7 1_555 1_555
C8 N2 1_555 1_555
H14 C8 1_555 1_555
H15 C8 1_555 1_555
H16 C8 1_555 1_555
B1 C2 1_555 1_555
H17 B1 1_555 1_555
B2 B1 1_555 1_555
H18 B2 1_555 1_555
B3 C1 1_555 1_555
H19 B3 1_555 1_555
B4 C1 1_555 1_555
H20 B4 1_555 1_555
B5 C2 1_555 1_555
H21 B5 1_555 1_555
B6 B1 1_555 1_555
H22 B6 1_555 1_555
B7 B2 1_555 1_555
H23 B7 1_555 1_555
B8 C1 1_555 1_555
H24 B8 1_555 1_555
B9 B4 1_555 1_555
H25 B9 1_555 1_555
H26 B1 1_555 1_555
H27 N1 1_555 1_555
C2 B4 1_555 1_555
B1 B5 1_555 1_555
B2 B3 1_555 1_555
B2 H26 1_555 1_555
B2 B6 1_555 1_555
B3 B8 1_555 1_555
B3 B7 1_555 1_555
B4 B8 1_555 1_555
B4 B5 1_555 1_555
B5 B6 1_555 1_555
B5 B9 1_555 1_555
B6 B7 1_555 1_555
B6 B9 1_555 1_555
B7 B8 1_555 1_555
B7 B9 1_555 1_555
B8 B9 1_555 1_555

#END
