
#######################################################################
#
#                 Cambridge Crystallographic Data Centre
#                                CCDC 
#
#######################################################################
#
# If this CIF has been generated from an entry in the Cambridge 
# Structural Database, then it will include bibliographic, chemical, 
# crystal, experimental, refinement or atomic coordinate data resulting 
# from the CCDC's data processing and validation procedures.
#
#######################################################################

data_VAMMOO
_chemical_formula_moiety         'C27 H24 Cl6 N4 O3'
_chemical_name_systematic        
2-(((2-(bis(2-((3,5-dichloro-2-hydroxybenzylidene)amino)ethyl)amino)ethyl)imino)methyl)-4,6-dichlorophenol
_symmetry_cell_setting           rhombohedral
_symmetry_space_group_name_H-M   'R 3'
_symmetry_Int_Tables_number      146
_space_group_name_Hall           'R 3'
loop_
_symmetry_equiv_pos_site_id
_symmetry_equiv_pos_as_xyz
1 x,y,z
2 -y,x-y,z
3 -x+y,-x,z
4 2/3+x,1/3+y,1/3+z
5 2/3-y,1/3+x-y,1/3+z
6 2/3-x+y,1/3-x,1/3+z
7 1/3+x,2/3+y,2/3+z
8 1/3-y,2/3+x-y,2/3+z
9 1/3-x+y,2/3-x,2/3+z
_cell_length_a                   14.7047(4)
_cell_length_b                   14.7047(4)
_cell_length_c                   23.9058(8)
_cell_angle_alpha                90
_cell_angle_beta                 90
_cell_angle_gamma                120
_cell_volume                     4476.58
_exptl_crystal_colour            yellow
_exptl_crystal_description       block
_cell_formula_units_Z            6
loop_
_atom_site_label
_atom_site_type_symbol
_atom_site_fract_x
_atom_site_fract_y
_atom_site_fract_z
Cl1 Cl 1.05146(11) 0.43044(12) 0.34917(8)
Cl2 Cl 0.77595(12) 0.51761(14) 0.44816(7)
O1 O 0.9647(3) 0.4604(3) 0.2451(2)
H1 H 0.9260 0.4478 0.2180
N1 N 0.8442(3) 0.5009(4) 0.1875(2)
C1 C 0.8377(4) 0.4966(4) 0.2870(3)
C2 C 0.9063(4) 0.4740(4) 0.3918(3)
H2 H 0.9282 0.4650 0.4269
C3 C 0.9193(4) 0.4726(4) 0.2904(3)
C4 C 0.7936(4) 0.5096(4) 0.3355(3)
H3 H 0.7400 0.5256 0.3333
N2 N 0.6667 0.3333 0.1170(4)
C5 C 0.8039(4) 0.5104(4) 0.2323(3)
H4 H 0.7506 0.5269 0.2300
C6 C 0.9516(4) 0.4624(4) 0.3438(3)
C7 C 0.8292(4) 0.4989(4) 0.3871(3)
C8 C 0.7681(4) 0.4180(4) 0.0976(2)
H5 H 0.7608 0.4352 0.0593
H6 H 0.8183 0.3935 0.0978
C9 C 0.8107(5) 0.5164(4) 0.1328(3)
H7 H 0.8698 0.5738 0.1138
H8 H 0.7568 0.5355 0.1375
Cl1A Cl 0.56956(12) 0.62102(16) 0.34917(8)
Cl2A Cl 0.48239(14) 0.25834(18) 0.44816(7)
O1A O 0.5396(3) 0.5043(4) 0.2451(2)
H1A H 0.5522 0.4782 0.2180
N1A N 0.4991(4) 0.3433(5) 0.1875(2)
C1A C 0.5034(4) 0.3411(6) 0.2870(3)
C2A C 0.5260(4) 0.4323(6) 0.3918(3)
H2A H 0.5350 0.4632 0.4269
C3A C 0.5274(4) 0.4467(6) 0.2904(3)
C4A C 0.4904(4) 0.2840(6) 0.3355(3)
H3A H 0.4744 0.2144 0.3333
C5A C 0.4896(4) 0.2935(6) 0.2323(3)
H4A H 0.4731 0.2237 0.2300
C6A C 0.5376(4) 0.4892(6) 0.3438(3)
C7A C 0.5011(4) 0.3303(6) 0.3871(3)
C8A C 0.5820(4) 0.3501(6) 0.0976(2)
H5A H 0.5648 0.3256 0.0593
H6A H 0.6065 0.4248 0.0978
C9A C 0.4836(4) 0.2943(6) 0.1328(3)
H7A H 0.4262 0.2960 0.1138
H8A H 0.4645 0.2213 0.1375
Cl1B Cl 0.37898(16) -0.05146(11) 0.34917(8)
Cl2B Cl 0.74166(18) 0.22405(12) 0.44816(7)
O1B O 0.4957(4) 0.0353(3) 0.2451(2)
H1B H 0.5218 0.0740 0.2180
N1B N 0.6567(5) 0.1558(3) 0.1875(2)
C1B C 0.6589(6) 0.1623(4) 0.2870(3)
C2B C 0.5677(6) 0.0937(4) 0.3918(3)
H2B H 0.5368 0.0718 0.4269
C3B C 0.5533(6) 0.0807(4) 0.2904(3)
C4B C 0.7160(6) 0.2064(4) 0.3355(3)
H3B H 0.7856 0.2600 0.3333
C5B C 0.7065(6) 0.1961(4) 0.2323(3)
H4B H 0.7763 0.2494 0.2300
C6B C 0.5108(6) 0.0484(4) 0.3438(3)
C7B C 0.6697(6) 0.1708(4) 0.3871(3)
C8B C 0.6499(6) 0.2319(4) 0.0976(2)
H5B H 0.6744 0.2392 0.0593
H6B H 0.5752 0.1817 0.0978
C9B C 0.7057(6) 0.1893(5) 0.1328(3)
H7B H 0.7040 0.1302 0.1138
H8B H 0.7787 0.2432 0.1375
Cl3 Cl 0.29259(12) 0.21630(13) 0.65673(8)
Cl4 Cl 0.63478(17) 0.52057(18) 0.55308(9)
O2 O 0.4118(4) 0.3067(4) 0.7593(2)
H9 H 0.3984 0.2454 0.7590
N3 N 0.6667 0.3333 0.8863(3)
N4 N 0.5730(4) 0.4365(4) 0.8142(3)
C10 C 0.6192(4) 0.4767(4) 0.7705(3)
H10 H 0.6883 0.5315 0.7721
C11 C 0.6181(5) 0.4879(5) 0.6669(3)
H11 H 0.6860 0.5448 0.6688
C12 C 0.6242(4) 0.4749(4) 0.8688(3)
H12 H 0.5945 0.5125 0.8876
H13 H 0.6987 0.5226 0.8636
C13 C 0.5680(5) 0.4402(5) 0.7144(3)
C14 C 0.4640(5) 0.3547(5) 0.7125(3)
C15 C 0.4199(5) 0.3217(5) 0.6598(3)
C16 C 0.4705(6) 0.3694(5) 0.6109(3)
H14 H 0.4380 0.3450 0.5764
C17 C 0.6071(5) 0.3825(6) 0.9034(3)
H15 H 0.6248 0.4052 0.9419
H16 H 0.5331 0.3301 0.9023
C18 C 0.5692(5) 0.4531(6) 0.6144(4)
Cl3A Cl 0.78370(13) 0.07629(18) 0.65673(8)
Cl4A Cl 0.47943(18) 0.11421(25) 0.55308(9)
O2A O 0.6933(4) 0.1051(6) 0.7593(2)
H9A H 0.7546 0.1530 0.7590
N4A N 0.5635(4) 0.1365(6) 0.8142(3)
C10A C 0.5233(4) 0.1425(6) 0.7705(3)
H10A H 0.4685 0.1568 0.7721
C11A C 0.5121(5) 0.1302(7) 0.6669(3)
H11A H 0.4552 0.1412 0.6688
C12A C 0.5251(4) 0.1493(6) 0.8688(3)
H12A H 0.4875 0.0820 0.8876
H13A H 0.4774 0.1761 0.8636
C13A C 0.5598(5) 0.1278(7) 0.7144(3)
C14A C 0.6453(5) 0.1093(7) 0.7125(3)
C15A C 0.6783(5) 0.0982(7) 0.6598(3)
C16A C 0.6306(5) 0.1011(8) 0.6109(3)
H14A H 0.6550 0.0930 0.5764
C17A C 0.6175(6) 0.2246(8) 0.9034(3)
H15A H 0.5948 0.2196 0.9419
H16A H 0.6699 0.2030 0.9023
C18A C 0.5469(6) 0.1161(8) 0.6144(4)
Cl3B Cl 0.92371(18) 0.70741(12) 0.65673(8)
Cl4B Cl 0.88579(25) 0.36522(17) 0.55308(9)
O2B O 0.8949(6) 0.5882(4) 0.7593(2)
H9B H 0.8470 0.6016 0.7590
N4B N 0.8635(6) 0.4270(4) 0.8142(3)
C10B C 0.8575(6) 0.3808(4) 0.7705(3)
H10B H 0.8432 0.3117 0.7721
C11B C 0.8698(7) 0.3819(5) 0.6669(3)
H11B H 0.8588 0.3140 0.6688
C12B C 0.8507(6) 0.3758(4) 0.8688(3)
H12B H 0.9180 0.4055 0.8876
H13B H 0.8239 0.3013 0.8636
C13B C 0.8722(7) 0.4320(5) 0.7144(3)
C14B C 0.8907(7) 0.5360(5) 0.7125(3)
C15B C 0.9018(7) 0.5801(5) 0.6598(3)
C16B C 0.8989(8) 0.5295(6) 0.6109(3)
H14B H 0.9070 0.5620 0.5764
C17B C 0.7754(8) 0.3929(5) 0.9034(3)
H15B H 0.7804 0.3752 0.9419
H16B H 0.7970 0.4669 0.9023
C18B C 0.8839(8) 0.4308(5) 0.6144(4)
Cl5? Cl 0.5678(7) 0.4503(7) 0.5633(4)
Cl6? Cl 0.3184(7) 0.2683(7) 0.6551(5)
loop_
_geom_bond_atom_site_label_1
_geom_bond_atom_site_label_2
_geom_bond_site_symmetry_1
_geom_bond_site_symmetry_2
Cl1 C6 1_555 1_555
Cl2 C7 1_555 1_555
O1 H1 1_555 1_555
N1 C5 1_555 1_555
C1 C3 1_555 1_555
C2 H2 1_555 1_555
C3 O1 1_555 1_555
C4 C1 1_555 1_555
H3 C4 1_555 1_555
N2 C8 1_555 1_555
C5 C1 1_555 1_555
H4 C5 1_555 1_555
C6 C2 1_555 1_555
C7 C2 1_555 1_555
C8 H5 1_555 1_555
H6 C8 1_555 1_555
C9 N1 1_555 1_555
H7 C9 1_555 1_555
H8 C9 1_555 1_555
Cl3 C15 1_555 1_555
Cl4 C18 1_555 1_555
O2 H9 1_555 1_555
N3 C17 1_555 1_555
N4 C10 1_555 1_555
C10 H10 1_555 1_555
C11 H11 1_555 1_555
C12 N4 1_555 1_555
H12 C12 1_555 1_555
H13 C12 1_555 1_555
C13 C10 1_555 1_555
C14 O2 1_555 1_555
C15 C14 1_555 1_555
C16 C15 1_555 1_555
H14 C16 1_555 1_555
C17 C12 1_555 1_555
H15 C17 1_555 1_555
H16 C17 1_555 1_555
C18 C11 1_555 1_555
Cl1A C6A 1_555 1_555
Cl2A C7A 1_555 1_555
O1A H1A 1_555 1_555
N1A C5A 1_555 1_555
C1A C3A 1_555 1_555
C2A H2A 1_555 1_555
C3A O1A 1_555 1_555
C4A C1A 1_555 1_555
H3A C4A 1_555 1_555
C5A C1A 1_555 1_555
H4A C5A 1_555 1_555
C6A C2A 1_555 1_555
C7A C2A 1_555 1_555
C8A N2 1_555 1_555
H5A C8A 1_555 1_555
H6A C8A 1_555 1_555
C9A N1A 1_555 1_555
H7A C9A 1_555 1_555
H8A C9A 1_555 1_555
Cl1B C6B 1_555 1_555
Cl2B C7B 1_555 1_555
O1B H1B 1_555 1_555
N1B C5B 1_555 1_555
C1B C3B 1_555 1_555
C2B H2B 1_555 1_555
C3B O1B 1_555 1_555
C4B C1B 1_555 1_555
H3B C4B 1_555 1_555
C5B C1B 1_555 1_555
H4B C5B 1_555 1_555
C6B C2B 1_555 1_555
C7B C2B 1_555 1_555
C8B N2 1_555 1_555
H5B C8B 1_555 1_555
H6B C8B 1_555 1_555
C9B N1B 1_555 1_555
H7B C9B 1_555 1_555
H8B C9B 1_555 1_555
Cl3A C15A 1_555 1_555
Cl4A C18A 1_555 1_555
O2A H9A 1_555 1_555
N4A C10A 1_555 1_555
C10A H10A 1_555 1_555
C11A H11A 1_555 1_555
C12A N4A 1_555 1_555
H12A C12A 1_555 1_555
H13A C12A 1_555 1_555
C13A C10A 1_555 1_555
C14A O2A 1_555 1_555
C15A C14A 1_555 1_555
C16A C15A 1_555 1_555
H14A C16A 1_555 1_555
C17A N3 1_555 1_555
H15A C17A 1_555 1_555
H16A C17A 1_555 1_555
C18A C11A 1_555 1_555
Cl3B C15B 1_555 1_555
Cl4B C18B 1_555 1_555
O2B H9B 1_555 1_555
N4B C10B 1_555 1_555
C10B H10B 1_555 1_555
C11B H11B 1_555 1_555
C12B N4B 1_555 1_555
H12B C12B 1_555 1_555
H13B C12B 1_555 1_555
C13B C10B 1_555 1_555
C14B O2B 1_555 1_555
C15B C14B 1_555 1_555
C16B C15B 1_555 1_555
H14B C16B 1_555 1_555
C17B N3 1_555 1_555
H15B C17B 1_555 1_555
H16B C17B 1_555 1_555
C18B C11B 1_555 1_555
C3 C6 1_555 1_555
C4 C7 1_555 1_555
C8 C9 1_555 1_555
C11 C13 1_555 1_555
C13 C14 1_555 1_555
C16 C18 1_555 1_555
C3A C6A 1_555 1_555
C4A C7A 1_555 1_555
C8A C9A 1_555 1_555
C3B C6B 1_555 1_555
C4B C7B 1_555 1_555
C8B C9B 1_555 1_555
C11A C13A 1_555 1_555
C12A C17A 1_555 1_555
C13A C14A 1_555 1_555
C16A C18A 1_555 1_555
C11B C13B 1_555 1_555
C12B C17B 1_555 1_555
C13B C14B 1_555 1_555
C16B C18B 1_555 1_555

#END
