
#######################################################################
#
#                 Cambridge Crystallographic Data Centre
#                                CCDC 
#
#######################################################################
#
# If this CIF has been generated from an entry in the Cambridge 
# Structural Database, then it will include bibliographic, chemical, 
# crystal, experimental, refinement or atomic coordinate data resulting 
# from the CCDC's data processing and validation procedures.
#
#######################################################################

data_VAMPEH
_chemical_formula_moiety         'C25 H18 F3 N1 O3'
_chemical_name_systematic        
1-benzyl-2'-phenyl-2'-(trifluoromethyl)-5'H-spiro[indole-3,3'-oxolane]-2,5'(1H)-dione
_symmetry_cell_setting           monoclinic
_symmetry_space_group_name_H-M   'P 21/n'
_symmetry_Int_Tables_number      14
_space_group_name_Hall           '-P 2yn'
loop_
_symmetry_equiv_pos_site_id
_symmetry_equiv_pos_as_xyz
1 x,y,z
2 1/2-x,1/2+y,1/2-z
3 -x,-y,-z
4 1/2+x,1/2-y,1/2+z
_cell_length_a                   20.103(5)
_cell_length_b                   9.362(2)
_cell_length_c                   23.211(5)
_cell_angle_alpha                90
_cell_angle_beta                 108.062(6)
_cell_angle_gamma                90
_cell_volume                     4153.14
_cell_formula_units_Z            8
loop_
_atom_site_label
_atom_site_type_symbol
_atom_site_fract_x
_atom_site_fract_y
_atom_site_fract_z
F1 F 0.40455(8) 0.35670(16) 0.01112(6)
F2 F 0.30452(8) 0.41694(16) 0.01997(6)
F3 F 0.31180(8) 0.23330(14) -0.03355(6)
O1 O 0.34312(9) 0.60273(15) -0.05037(7)
O2 O 0.31807(9) 0.62376(16) -0.19021(7)
N1 N 0.32441(9) 0.39344(17) -0.22309(7)
C1 C 0.32018(12) 0.4638(2) -0.07542(9)
C2 C 0.34225(12) 0.4372(2) -0.32417(9)
C3 C 0.41455(13) 0.4368(2) -0.29880(11)
C4 C 0.37907(11) 0.2778(2) -0.13316(9)
C5 C 0.43425(13) 0.5179(2) -0.08553(11)
C6 C 0.24106(11) 0.4646(2) -0.10604(9)
C7 C 0.36813(11) 0.4308(2) -0.11723(9)
C8 C 0.33293(11) 0.4979(2) -0.18050(9)
O3 O 0.43917(10) 0.73934(18) -0.02912(8)
C9 C 0.40933(13) 0.6330(2) -0.05221(10)
C10 C 0.35216(11) 0.2620(2) -0.19613(9)
C11 C 0.33551(13) 0.3663(3) -0.01925(10)
C12 C 0.20000(14) 0.5757(2) -0.09553(11)
C13 C 0.35536(12) 0.1340(2) -0.22496(11)
C14 C 0.41253(13) 0.1626(2) -0.09828(10)
C15 C 0.20732(13) 0.3491(2) -0.14109(11)
C16 C 0.31410(16) 0.4569(2) -0.38642(10)
C17 C 0.29174(13) 0.4182(3) -0.28797(10)
C18 C 0.38629(13) 0.0186(2) -0.18871(12)
C19 C 0.41456(13) 0.0320(2) -0.12699(12)
C20 C 0.45777(17) 0.4526(3) -0.33528(14)
C21 C 0.12728(15) 0.5703(3) -0.11949(12)
C22 C 0.13495(14) 0.3437(3) -0.16420(12)
C23 C 0.35705(19) 0.4739(3) -0.42262(12)
C24 C 0.09446(16) 0.4544(3) -0.15337(13)
C25 C 0.4291(2) 0.4712(3) -0.39687(14)
H1 H 0.4353(12) -0.048(2) -0.1020(10)
H2 H 0.4342(12) 0.172(2) -0.0557(10)
H3 H 0.4560(13) 0.561(2) -0.1144(10)
H4 H 0.3358(12) 0.126(2) -0.2677(10)
H5 H 0.4339(11) 0.426(2) -0.2570(10)
H6 H 0.3896(12) -0.071(2) -0.2096(10)
H7 H 0.4695(11) 0.462(2) -0.0556(9)
H8 H 0.1014(15) 0.653(3) -0.1113(11)
H9 H 0.5067(15) 0.452(3) -0.3165(12)
H10 H 0.1129(15) 0.264(3) -0.1866(12)
H11 H 0.0433(17) 0.448(3) -0.1672(13)
H12 H 0.4597(16) 0.480(3) -0.4236(13)
H13 H 0.2337(11) 0.274(2) -0.1479(8)
H14 H 0.2615(12) 0.334(2) -0.3030(10)
H15 H 0.3351(13) 0.491(3) -0.4664(12)
H16 H 0.2216(12) 0.657(2) -0.0723(10)
H17 H 0.2642(14) 0.460(3) -0.4028(11)
H18 H 0.2652(13) 0.498(3) -0.2901(11)
O4 O 0.35922(8) -0.29195(15) 0.10459(7)
N2 N 0.32721(10) -0.08646(17) 0.26206(7)
C26 C 0.37845(11) -0.1197(2) 0.18394(9)
O5 O 0.32641(9) -0.31653(15) 0.22688(7)
C27 C 0.34134(12) -0.1361(2) 0.37116(9)
C28 C 0.25495(11) -0.1580(2) 0.10247(8)
C29 C 0.34042(11) -0.1901(2) 0.22593(9)
C30 C 0.21939(13) -0.0419(2) 0.11724(10)
O6 O 0.45123(10) -0.43545(18) 0.14379(9)
C31 C 0.35640(11) 0.0461(2) 0.25279(9)
C32 C 0.21607(14) -0.2737(2) 0.07204(10)
C33 C 0.42269(13) -0.3244(3) 0.14655(11)
C34 C 0.38779(11) 0.0324(2) 0.20688(9)
C35 C 0.14348(14) -0.2730(3) 0.05653(11)
C36 C 0.31155(15) -0.1571(2) 0.41751(10)
C37 C 0.44589(13) -0.2049(3) 0.19091(11)
C38 C 0.41341(14) -0.1377(3) 0.38567(11)
C39 C 0.35731(14) 0.1715(3) 0.28391(11)
C40 C 0.14695(14) -0.0413(3) 0.10079(11)
C41 C 0.29199(13) -0.1131(3) 0.30763(10)
C42 C 0.42345(14) 0.1472(3) 0.19333(12)
C43 C 0.42459(16) 0.2758(3) 0.22433(13)
C44 C 0.42556(18) -0.1765(3) 0.49060(13)
C45 C 0.35367(18) -0.1769(3) 0.47681(12)
C46 C 0.10868(15) -0.1571(3) 0.07005(12)
C47 C 0.45556(17) -0.1580(3) 0.44499(12)
C48 C 0.39166(16) 0.2872(3) 0.26833(13)
F4 F 0.41944(8) -0.04488(16) 0.07650(6)
F5 F 0.32727(8) 0.07921(14) 0.07210(6)
C49 C 0.33408(11) -0.1533(2) 0.11607(9)
C50 C 0.35032(13) -0.0542(3) 0.06897(10)
F6 F 0.31964(8) -0.10104(17) 0.01288(6)
H19 H 0.4663(12) -0.244(2) 0.2323(11)
H20 H 0.1223(15) 0.037(3) 0.1151(12)
H21 H 0.4362(15) -0.132(3) 0.3533(12)
H22 H 0.4473(12) 0.139(2) 0.1650(10)
H23 H 0.4808(14) -0.150(2) 0.1797(11)
H24 H 0.3345(13) 0.178(2) 0.3152(11)
H25 H 0.4539(14) -0.183(3) 0.5306(13)
H26 H 0.3924(14) 0.384(3) 0.2895(12)
H27 H 0.2459(12) 0.040(2) 0.1378(10)
H28 H 0.5060(19) -0.156(3) 0.4542(15)
H29 H 0.1164(15) -0.356(3) 0.0361(12)
H30 H 0.0570(16) -0.158(3) 0.0588(12)
H31 H 0.2638(14) -0.204(3) 0.2944(11)
H32 H 0.2604(14) -0.029(3) 0.3070(11)
H33 H 0.4473(16) 0.356(3) 0.2151(13)
H34 H 0.2407(13) -0.355(3) 0.0620(11)
H35 H 0.3331(14) -0.195(3) 0.5102(12)
H36 H 0.2599(14) -0.165(3) 0.4064(11)
loop_
_geom_bond_atom_site_label_1
_geom_bond_atom_site_label_2
_geom_bond_site_symmetry_1
_geom_bond_site_symmetry_2
F1 C11 1_555 1_555
F2 C11 1_555 1_555
F3 C11 1_555 1_555
O1 C1 1_555 1_555
O2 C8 1_555 1_555
N1 C8 1_555 1_555
C1 C6 1_555 1_555
C2 C3 1_555 1_555
C3 C20 1_555 1_555
C4 C7 1_555 1_555
C5 C7 1_555 1_555
C6 C12 1_555 1_555
C7 C1 1_555 1_555
C8 C7 1_555 1_555
O3 C9 1_555 1_555
C9 O1 1_555 1_555
C10 N1 1_555 1_555
C11 C1 1_555 1_555
C12 C21 1_555 1_555
C13 C10 1_555 1_555
C14 C4 1_555 1_555
C15 C6 1_555 1_555
C16 C2 1_555 1_555
C17 N1 1_555 1_555
C18 C13 1_555 1_555
C19 C14 1_555 1_555
C20 C25 1_555 1_555
C21 C24 1_555 1_555
C22 C15 1_555 1_555
C23 C16 1_555 1_555
C24 C22 1_555 1_555
C25 C23 1_555 1_555
H1 C19 1_555 1_555
H2 C14 1_555 1_555
H3 C5 1_555 1_555
H4 C13 1_555 1_555
H5 C3 1_555 1_555
H6 C18 1_555 1_555
H7 C5 1_555 1_555
H8 C21 1_555 1_555
H9 C20 1_555 1_555
H10 C22 1_555 1_555
H11 C24 1_555 1_555
H12 C25 1_555 1_555
H13 C15 1_555 1_555
H14 C17 1_555 1_555
H15 C23 1_555 1_555
H16 C12 1_555 1_555
H17 C16 1_555 1_555
H18 C17 1_555 1_555
O4 C33 1_555 1_555
N2 C29 1_555 1_555
C26 C29 1_555 1_555
O5 C29 1_555 1_555
C27 C36 1_555 1_555
C28 C30 1_555 1_555
C30 C40 1_555 1_555
O6 C33 1_555 1_555
C31 N2 1_555 1_555
C32 C28 1_555 1_555
C33 C37 1_555 1_555
C34 C26 1_555 1_555
C35 C32 1_555 1_555
C36 C45 1_555 1_555
C37 C26 1_555 1_555
C38 C27 1_555 1_555
C39 C31 1_555 1_555
C40 C46 1_555 1_555
C41 N2 1_555 1_555
C42 C34 1_555 1_555
C43 C42 1_555 1_555
C44 C45 1_555 1_555
C45 H35 1_555 1_555
C46 C35 1_555 1_555
C47 C38 1_555 1_555
C48 C39 1_555 1_555
F4 C50 1_555 1_555
F5 C50 1_555 1_555
C49 O4 1_555 1_555
C50 C49 1_555 1_555
F6 C50 1_555 1_555
H19 C37 1_555 1_555
H20 C40 1_555 1_555
H21 C38 1_555 1_555
H22 C42 1_555 1_555
H23 C37 1_555 1_555
H24 C39 1_555 1_555
H25 C44 1_555 1_555
H26 C48 1_555 1_555
H27 C30 1_555 1_555
H28 C47 1_555 1_555
H29 C35 1_555 1_555
H30 C46 1_555 1_555
H31 C41 1_555 1_555
H32 C41 1_555 1_555
H33 C43 1_555 1_555
H34 C32 1_555 1_555
H36 C36 1_555 1_555
C2 C17 1_555 1_555
C4 C10 1_555 1_555
C5 C9 1_555 1_555
C18 C19 1_555 1_555
C26 C49 1_555 1_555
C27 C41 1_555 1_555
C28 C49 1_555 1_555
C31 C34 1_555 1_555
C43 C48 1_555 1_555
C44 C47 1_555 1_555

#END
