
#######################################################################
#
#                 Cambridge Crystallographic Data Centre
#                                CCDC 
#
#######################################################################
#
# If this CIF has been generated from an entry in the Cambridge 
# Structural Database, then it will include bibliographic, chemical, 
# crystal, experimental, refinement or atomic coordinate data resulting 
# from the CCDC's data processing and validation procedures.
#
#######################################################################

data_VAMRUW10
_chemical_formula_moiety         'C20 H24'
_chemical_name_systematic        
bis-spiro(Cyclopentane)-syn-sesquinorbornatriene
_symmetry_cell_setting           monoclinic
_symmetry_space_group_name_H-M   'C 2/c'
_symmetry_Int_Tables_number      15
_space_group_name_Hall           '-C 2yn'
loop_
_symmetry_equiv_pos_site_id
_symmetry_equiv_pos_as_xyz
1 x,y,z
2 1/2+x,1/2+y,z
3 -x,y,1/2-z
4 1/2-x,1/2+y,1/2-z
5 -x,-y,-z
6 1/2-x,1/2-y,-z
7 x,-y,1/2+z
8 1/2+x,1/2-y,1/2+z
_cell_length_a                   21.004(7)
_cell_length_b                   7.782(2)
_cell_length_c                   9.972(2)
_cell_angle_alpha                90
_cell_angle_beta                 114.28(2)
_cell_angle_gamma                90
_cell_volume                     1485.78
_exptl_crystal_colour            colorless
_chemical_melting_point          86deg.C
_cell_formula_units_Z            4
loop_
_atom_site_label
_atom_site_type_symbol
_atom_site_fract_x
_atom_site_fract_y
_atom_site_fract_z
C1 C 0.4874(2) 0.2160(6) 0.6772(4)
C2 C 0.4092(2) 0.2530(7) 0.6190(4)
C3 C 0.4037(3) 0.4357(7) 0.6687(8)
C4 C 0.4291(3) 0.4386(8) 0.8099(7)
C5 C 0.5470(3) 0.2515(8) 0.6350(5)
C6 C 0.3938(2) 0.1516(6) 0.7370(4)
C7 C 0.3194(3) 0.1766(8) 0.7274(5)
C8 C 0.2810(3) 0.021(1) 0.656(1)
C9 C 0.3295(3) -0.1203(8) 0.6739(6)
C10 C 0.4014(2) -0.0433(7) 0.7340(6)
H1 H 0.375 0.221 0.505
H2 H 0.382 0.542 0.600
H3 H 0.433 0.545 0.877
H4 H 0.540 0.221 0.523
H5 H 0.295 0.288 0.663
H6 H 0.320 0.188 0.837
H7 H 0.245 -0.013 0.703
H8 H 0.251 0.047 0.541
H9 H 0.318 -0.179 0.568
H10 H 0.325 -0.214 0.749
H11 H 0.431 -0.092 0.844
H12 H 0.428 -0.078 0.665
C1B C 0.5126(2) 0.2160(6) 0.8228(4)
C5B C 0.4530(3) 0.2515(8) 0.8650(5)
C4B C 0.5709(3) 0.4386(8) 0.6901(7)
C6B C 0.6062(2) 0.1516(6) 0.7630(4)
C2B C 0.5908(2) 0.2530(7) 0.8810(4)
H4B H 0.460 0.221 0.977
C3B C 0.5963(3) 0.4357(7) 0.8313(8)
H3B H 0.567 0.545 0.623
C7B C 0.6806(3) 0.1766(8) 0.7726(5)
C10B C 0.5986(2) -0.0433(7) 0.7660(6)
H1B H 0.625 0.221 0.995
H2B H 0.618 0.542 0.900
C8B C 0.7190(3) 0.021(1) 0.844(1)
H5B H 0.705 0.288 0.837
H6B H 0.680 0.188 0.663
C9B C 0.6705(3) -0.1203(8) 0.8261(6)
H11B H 0.569 -0.092 0.656
H12B H 0.572 -0.078 0.835
H7B H 0.755 -0.013 0.797
H8B H 0.749 0.047 0.959
H9B H 0.682 -0.179 0.932
H10B H 0.675 -0.214 0.751
loop_
_geom_bond_atom_site_label_1
_geom_bond_atom_site_label_2
_geom_bond_site_symmetry_1
_geom_bond_site_symmetry_2
C1 C2 1_555 1_555
C2 C3 1_555 1_555
C3 C4 1_555 1_555
C4 H3 1_555 1_555
C5 C1 1_555 1_555
C6 C2 1_555 1_555
C7 C6 1_555 1_555
C8 C7 1_555 1_555
C9 C8 1_555 1_555
C10 C6 1_555 1_555
H1 C2 1_555 1_555
H2 C3 1_555 1_555
H4 C5 1_555 1_555
H5 C7 1_555 1_555
H6 C7 1_555 1_555
H7 C8 1_555 1_555
H8 C8 1_555 1_555
H9 C9 1_555 1_555
H10 C9 1_555 1_555
H11 C10 1_555 1_555
H12 C10 1_555 1_555
C1B C1 1_555 1_555
C5B C4 1_555 1_555
C4B C5 1_555 1_555
C6B C5 1_555 1_555
C2B C1B 1_555 1_555
H4B C5B 1_555 1_555
C3B C4B 1_555 1_555
H3B C4B 1_555 1_555
C7B C6B 1_555 1_555
C10B C6B 1_555 1_555
H1B C2B 1_555 1_555
H2B C3B 1_555 1_555
C8B C7B 1_555 1_555
H5B C7B 1_555 1_555
H6B C7B 1_555 1_555
C9B C10B 1_555 1_555
H11B C10B 1_555 1_555
H12B C10B 1_555 1_555
H7B C8B 1_555 1_555
H8B C8B 1_555 1_555
H9B C9B 1_555 1_555
H10B C9B 1_555 1_555
C6 C5B 1_555 1_555
C9 C10 1_555 1_555
C1B C5B 1_555 1_555
C6B C2B 1_555 1_555
C2B C3B 1_555 1_555
C8B C9B 1_555 1_555

#END
