
#######################################################################
#
#                 Cambridge Crystallographic Data Centre
#                                CCDC 
#
#######################################################################
#
# If this CIF has been generated from an entry in the Cambridge 
# Structural Database, then it will include bibliographic, chemical, 
# crystal, experimental, refinement or atomic coordinate data resulting 
# from the CCDC's data processing and validation procedures.
#
#######################################################################

data_VAMSIN
_chemical_formula_moiety         'C26 H25 N1 O4 S1'
_chemical_name_systematic        
'Methyl 3-(diphenylmethylene)-1-(phenylsulfonyl)piperidine-2-carboxylate'
_symmetry_cell_setting           monoclinic
_symmetry_space_group_name_H-M   'P 21/c'
_symmetry_Int_Tables_number      14
_space_group_name_Hall           '-P 2ybc'
loop_
_symmetry_equiv_pos_site_id
_symmetry_equiv_pos_as_xyz
1 x,y,z
2 -x,1/2+y,1/2-z
3 -x,-y,-z
4 x,1/2-y,1/2+z
_cell_length_a                   16.898(3)
_cell_length_b                   7.5954(11)
_cell_length_c                   17.046(3)
_cell_angle_alpha                90
_cell_angle_beta                 98.370(3)
_cell_angle_gamma                90
_cell_volume                     2164.5
_exptl_crystal_colour            colorless
_cell_formula_units_Z            4
loop_
_atom_site_label
_atom_site_type_symbol
_atom_site_fract_x
_atom_site_fract_y
_atom_site_fract_z
S1 S 0.88513(2) 0.35941(5) 0.25129(2)
O1 O 0.83205(7) 0.50773(15) 0.24040(7)
O2 O 0.62581(6) 0.06316(15) 0.16089(6)
O3 O 0.73204(7) 0.05785(16) 0.09529(6)
O4 O 0.95355(7) 0.35305(16) 0.21058(6)
N1 N 0.83160(7) 0.18490(17) 0.22352(7)
C1 C 0.67719(10) -0.0357(2) 0.58933(9)
H1 H 0.6744 -0.0826 0.6405
C2 C 0.60935(10) 0.0333(2) 0.54434(9)
H2 H 0.5600 0.0344 0.5649
C3 C 0.61338(9) 0.1013(2) 0.46906(9)
H3 H 0.5666 0.1489 0.4388
C4 C 0.68515(9) 0.10031(19) 0.43749(9)
C5 C 0.68943(9) 0.1780(2) 0.35754(8)
C6 C 0.72783(9) 0.0963(2) 0.30364(8)
C7 C 0.74512(9) 0.1855(2) 0.22804(8)
H4 H 0.7265 0.3104 0.2283
C8 C 0.92056(9) 0.3387(2) 0.35398(9)
C9 C 0.99184(9) 0.2502(2) 0.37875(9)
H5 H 1.0245 0.2111 0.3413
C10 C 1.01441(10) 0.2199(2) 0.45954(10)
H6 H 1.0629 0.1596 0.4774
C11 C 0.96654(11) 0.2772(2) 0.51399(9)
H7 H 0.9820 0.2539 0.5688
C12 C 0.87132(9) 0.0108(2) 0.23363(9)
H8 H 0.9298 0.0267 0.2366
H9 H 0.8527 -0.0633 0.1868
C13 C 0.85373(9) -0.0832(2) 0.30831(9)
H10 H 0.8812 -0.0214 0.3558
H11 H 0.8746 -0.2051 0.3090
C14 C 0.76348(9) -0.0872(2) 0.31096(9)
H12 H 0.7370 -0.1615 0.2671
H13 H 0.7534 -0.1405 0.3616
C15 C 0.65075(9) 0.3553(2) 0.34485(8)
C16 C 0.66369(9) 0.4811(2) 0.40569(8)
H14 H 0.6960 0.4515 0.4543
C17 C 0.63015(9) 0.6480(2) 0.39613(9)
H15 H 0.6398 0.7312 0.4380
C18 C 0.58248(9) 0.6940(2) 0.32549(9)
H16 H 0.5609 0.8093 0.3182
C19 C 0.56688(9) 0.5690(2) 0.26580(9)
H17 H 0.5330 0.5981 0.2181
C20 C 0.60029(9) 0.4014(2) 0.27515(8)
H18 H 0.5888 0.3173 0.2338
C21 C 0.74917(10) -0.0361(2) 0.55931(9)
H19 H 0.7958 -0.0833 0.5899
C22 C 0.75317(9) 0.0328(2) 0.48429(9)
H20 H 0.8029 0.0340 0.4646
C23 C 0.70249(9) 0.0950(2) 0.15299(8)
C24 C 0.57820(10) -0.0182(2) 0.09288(9)
H21 H 0.5732 0.0630 0.0478
H22 H 0.5249 -0.0457 0.1057
H23 H 0.6043 -0.1269 0.0792
C25 C 0.87284(10) 0.4002(2) 0.40836(9)
H24 H 0.8249 0.4631 0.3908
C26 C 0.89638(10) 0.3682(2) 0.48882(9)
H25 H 0.8643 0.4088 0.5265
loop_
_geom_bond_atom_site_label_1
_geom_bond_atom_site_label_2
_geom_bond_site_symmetry_1
_geom_bond_site_symmetry_2
S1 O1 1_555 1_555
O2 C23 1_555 1_555
O3 C23 1_555 1_555
O4 S1 1_555 1_555
N1 S1 1_555 1_555
C1 H1 1_555 1_555
C2 C1 1_555 1_555
H2 C2 1_555 1_555
C3 C2 1_555 1_555
H3 C3 1_555 1_555
C4 C3 1_555 1_555
C5 C4 1_555 1_555
C6 C5 1_555 1_555
C7 N1 1_555 1_555
H4 C7 1_555 1_555
C8 S1 1_555 1_555
C9 C8 1_555 1_555
H5 C9 1_555 1_555
C10 C9 1_555 1_555
H6 C10 1_555 1_555
C11 C10 1_555 1_555
H7 C11 1_555 1_555
C12 N1 1_555 1_555
H8 C12 1_555 1_555
H9 C12 1_555 1_555
C13 C12 1_555 1_555
H10 C13 1_555 1_555
H11 C13 1_555 1_555
C14 C6 1_555 1_555
H12 C14 1_555 1_555
H13 C14 1_555 1_555
C15 C5 1_555 1_555
C16 C15 1_555 1_555
H14 C16 1_555 1_555
C17 C16 1_555 1_555
H15 C17 1_555 1_555
C18 C17 1_555 1_555
H16 C18 1_555 1_555
C19 C18 1_555 1_555
H17 C19 1_555 1_555
C20 C15 1_555 1_555
H18 C20 1_555 1_555
C21 C1 1_555 1_555
H19 C21 1_555 1_555
C22 C4 1_555 1_555
H20 C22 1_555 1_555
C23 C7 1_555 1_555
C24 O2 1_555 1_555
H21 C24 1_555 1_555
H22 C24 1_555 1_555
H23 C24 1_555 1_555
C25 C8 1_555 1_555
H24 C25 1_555 1_555
C26 C11 1_555 1_555
H25 C26 1_555 1_555
C6 C7 1_555 1_555
C13 C14 1_555 1_555
C19 C20 1_555 1_555
C21 C22 1_555 1_555
C25 C26 1_555 1_555

#END
