
#######################################################################
#
#                 Cambridge Crystallographic Data Centre
#                                CCDC 
#
#######################################################################
#
# If this CIF has been generated from an entry in the Cambridge 
# Structural Database, then it will include bibliographic, chemical, 
# crystal, experimental, refinement or atomic coordinate data resulting 
# from the CCDC's data processing and validation procedures.
#
#######################################################################

data_VAMSEJ
_chemical_formula_moiety         'C26 H25 N1 O4 S1'
_chemical_name_systematic        
'(3-(Diphenylmethylene)-1-(phenylsulfonyl)piperidin-2-yl)acetic acid'
_symmetry_cell_setting           monoclinic
_symmetry_space_group_name_H-M   'P 21/c'
_symmetry_Int_Tables_number      14
_space_group_name_Hall           '-P 2ybc'
loop_
_symmetry_equiv_pos_site_id
_symmetry_equiv_pos_as_xyz
1 x,y,z
2 -x,1/2+y,1/2-z
3 -x,-y,-z
4 x,1/2-y,1/2+z
_cell_length_a                   10.3841(7)
_cell_length_b                   11.6213(7)
_cell_length_c                   18.4095(12)
_cell_angle_alpha                90
_cell_angle_beta                 93.430(3)
_cell_angle_gamma                90
_cell_volume                     2217.62
_exptl_crystal_colour            colorless
_cell_formula_units_Z            4
loop_
_atom_site_label
_atom_site_type_symbol
_atom_site_fract_x
_atom_site_fract_y
_atom_site_fract_z
S1 S 0.33357(4) 0.67895(4) 0.36418(2)
O1 O 0.37074(14) 0.58549(12) 0.31867(7)
O2 O 0.40098(13) 0.78628(11) 0.35861(7)
O3 O -0.05026(14) 0.54476(11) 0.40722(7)
H1 H -0.0460 0.4875 0.4351
O4 O 0.01065(14) 0.63865(11) 0.50979(7)
N1 N 0.17626(15) 0.69401(12) 0.34800(8)
C1 C 0.3837(2) 0.5637(2) 0.59844(12)
H2 H 0.3965 0.5390 0.6475
C2 C 0.3442(2) 0.4853(2) 0.54490(12)
H3 H 0.3294 0.4073 0.5574
C3 C 0.32625(19) 0.52073(18) 0.47307(11)
H4 H 0.2995 0.4674 0.4361
C4 C 0.34786(18) 0.63522(17) 0.45599(10)
C5 C 0.11446(18) 0.78502(15) 0.39120(9)
H5 H 0.1604 0.7874 0.4405
C6 C 0.12737(18) 0.90250(15) 0.35675(9)
C7 C 0.18059(17) 0.99282(15) 0.39297(9)
C8 C 0.21587(18) 1.09994(15) 0.35348(9)
C9 C 0.16170(19) 1.20601(16) 0.36939(10)
H6 H 0.0991 1.2106 0.4048
C10 C 0.1984(2) 1.30506(17) 0.33391(12)
H7 H 0.1596 1.3767 0.3444
C11 C 0.2911(2) 1.29964(19) 0.28340(12)
H8 H 0.3165 1.3677 0.2595
C12 C 0.4046(2) 0.6772(2) 0.58106(12)
H9 H 0.4307 0.7303 0.6183
C13 C 0.3876(2) 0.71440(19) 0.50941(11)
H10 H 0.4030 0.7924 0.4971
C14 C 0.1330(2) 0.69266(16) 0.26980(10)
H11 H 0.0414 0.6689 0.2647
H12 H 0.1842 0.6352 0.2443
C15 C 0.1478(2) 0.81038(16) 0.23402(10)
H13 H 0.1085 0.8082 0.1837
H14 H 0.2406 0.8286 0.2315
C16 C 0.0826(2) 0.90432(16) 0.27710(10)
H15 H 0.1021 0.9805 0.2563
H16 H -0.0121 0.8932 0.2724
C17 C -0.02576(18) 0.74771(16) 0.40092(10)
H17 H -0.0720 0.8083 0.4267
H18 H -0.0714 0.7348 0.3529
C18 C -0.02171(18) 0.63808(16) 0.44457(10)
C19 C 0.21741(18) 0.99343(14) 0.47249(10)
C20 C 0.3312(2) 1.04635(17) 0.49866(11)
H19 H 0.3827 1.0858 0.4658
C21 C 0.3705(2) 1.04253(18) 0.57185(11)
H20 H 0.4496 1.0775 0.5884
C22 C 0.2956(2) 0.98817(17) 0.62103(10)
H21 H 0.3235 0.9843 0.6711
C23 C 0.1796(2) 0.93945(16) 0.59664(10)
H22 H 0.1263 0.9038 0.6303
C24 C 0.14071(19) 0.94234(15) 0.52334(10)
H23 H 0.0604 0.9090 0.5074
C25 C 0.3096(2) 1.09586(17) 0.30234(10)
H24 H 0.3481 1.0244 0.2911
C26 C 0.3471(2) 1.19559(19) 0.26760(12)
H25 H 0.4113 1.1921 0.2330
loop_
_geom_bond_atom_site_label_1
_geom_bond_atom_site_label_2
_geom_bond_site_symmetry_1
_geom_bond_site_symmetry_2
S1 O1 1_555 1_555
O2 S1 1_555 1_555
O3 H1 1_555 1_555
O4 C18 1_555 1_555
N1 S1 1_555 1_555
C1 H2 1_555 1_555
C2 C1 1_555 1_555
H3 C2 1_555 1_555
C3 C2 1_555 1_555
H4 C3 1_555 1_555
C4 S1 1_555 1_555
C5 N1 1_555 1_555
H5 C5 1_555 1_555
C6 C5 1_555 1_555
C7 C6 1_555 1_555
C8 C7 1_555 1_555
C9 C8 1_555 1_555
H6 C9 1_555 1_555
C10 C9 1_555 1_555
H7 C10 1_555 1_555
C11 C10 1_555 1_555
H8 C11 1_555 1_555
C12 C1 1_555 1_555
H9 C12 1_555 1_555
C13 C4 1_555 1_555
H10 C13 1_555 1_555
C14 N1 1_555 1_555
H11 C14 1_555 1_555
H12 C14 1_555 1_555
C15 C14 1_555 1_555
H13 C15 1_555 1_555
H14 C15 1_555 1_555
C16 C6 1_555 1_555
H15 C16 1_555 1_555
H16 C16 1_555 1_555
C17 C5 1_555 1_555
H17 C17 1_555 1_555
H18 C17 1_555 1_555
C18 O3 1_555 1_555
C19 C7 1_555 1_555
C20 C19 1_555 1_555
H19 C20 1_555 1_555
C21 C20 1_555 1_555
H20 C21 1_555 1_555
C22 C21 1_555 1_555
H21 C22 1_555 1_555
C23 C22 1_555 1_555
H22 C23 1_555 1_555
C24 C19 1_555 1_555
H23 C24 1_555 1_555
C25 C8 1_555 1_555
H24 C25 1_555 1_555
C26 C11 1_555 1_555
H25 C26 1_555 1_555
C3 C4 1_555 1_555
C12 C13 1_555 1_555
C15 C16 1_555 1_555
C17 C18 1_555 1_555
C23 C24 1_555 1_555
C25 C26 1_555 1_555

#END
