
#######################################################################
#
#                 Cambridge Crystallographic Data Centre
#                                CCDC 
#
#######################################################################
#
# If this CIF has been generated from an entry in the Cambridge 
# Structural Database, then it will include bibliographic, chemical, 
# crystal, experimental, refinement or atomic coordinate data resulting 
# from the CCDC's data processing and validation procedures.
#
#######################################################################

data_VAMVUC
_chemical_formula_moiety         'C124 H130 N6 O14,2(C2 H3 N1),3(C6 H5 N1 O2)'
_chemical_name_systematic        
'5,11,17,23,29,35,41,47-Octa-t-butyl-52,56-dihydroxycalix(4)arene-49,50,51,53,54,55-hexayl hexaisonicotinate acetonitrile nitrobenzene solvate'
_symmetry_cell_setting           triclinic
_symmetry_space_group_name_H-M   'P -1'
_symmetry_Int_Tables_number      2
_space_group_name_Hall           '-P 1'
loop_
_symmetry_equiv_pos_site_id
_symmetry_equiv_pos_as_xyz
1 x,y,z
2 -x,-y,-z
_cell_length_a                   14.9020(3)
_cell_length_b                   16.9285(3)
_cell_length_c                   16.9329(3)
_cell_angle_alpha                65.5780(10)
_cell_angle_beta                 89.2960(10)
_cell_angle_gamma                67.0070(10)
_cell_volume                     3523.23
_exptl_crystal_colour            colorless
_exptl_crystal_description       block
_cell_formula_units_Z            1
loop_
_atom_site_label
_atom_site_type_symbol
_atom_site_fract_x
_atom_site_fract_y
_atom_site_fract_z
O1 O 0.2306(3) 0.4717(3) 0.4649(2)
O2 O 0.3173(2) 0.4784(3) 0.3555(2)
O3 O 0.3968(3) 0.1059(3) 0.4671(2)
O4 O 0.4606(2) 0.2131(2) 0.4382(2)
O5 O 0.8930(3) -0.0468(3) 0.5097(3)
O6 O 0.7537(2) 0.0408(2) 0.5400(2)
O7 O 0.7733(2) 0.1860(2) 0.6811(2)
H1 H 0.7517 0.1758 0.6437
N1 N 0.5852(3) 0.3345(3) 0.6094(3)
N2 N 0.5511(4) 0.0397(4) 0.7638(3)
N3 N 0.8554(4) -0.2703(4) 0.8031(3)
C1 C 0.4994(4) 0.3501(4) 0.6383(4)
H2 H 0.5005 0.3329 0.6982
C2 C 0.4100(4) 0.3896(4) 0.5858(4)
H3 H 0.3524 0.3985 0.6097
C3 C 0.4059(4) 0.4165(3) 0.4967(3)
C4 C 0.4940(4) 0.4013(4) 0.4647(4)
H4 H 0.4948 0.4177 0.4052
C5 C 0.5814(4) 0.3609(4) 0.5241(4)
H5 H 0.6403 0.3521 0.5023
C6 C 0.3080(4) 0.4597(4) 0.4379(4)
C7 C 0.2298(3) 0.5154(4) 0.2940(3)
C8 C 0.1780(3) 0.6132(4) 0.2485(3)
C9 C 0.0989(4) 0.6482(4) 0.1826(3)
H6 H 0.0636 0.7141 0.1499
C10 C 0.0710(4) 0.5871(4) 0.1644(3)
C11 C 0.1256(4) 0.4896(4) 0.2128(3)
H7 H 0.1079 0.4480 0.2011
C12 C 0.2066(3) 0.4516(4) 0.2787(3)
C13 C -0.0182(4) 0.6270(5) 0.0922(4)
C14 C -0.0691(7) 0.7318(7) 0.0492(8)
H8 H -0.1273 0.7519 0.0090
H9 H -0.0256 0.7576 0.0173
H10 H -0.0878 0.7545 0.0929
C15 C -0.0812(8) 0.5771(10) 0.1245(8)
H11 H -0.1359 0.6022 0.0786
H12 H -0.1058 0.5864 0.1742
H13 H -0.0436 0.5100 0.1421
C16 C 0.0183(8) 0.6000(9) 0.0197(6)
H14 H -0.0370 0.6234 -0.0250
H15 H 0.0522 0.5316 0.0434
H16 H 0.0630 0.6279 -0.0055
C17 C 0.2023(4) 0.6825(4) 0.2682(3)
H17 H 0.1968 0.7358 0.2130
H18 H 0.2705 0.6506 0.2983
C18 C 0.2655(3) 0.3440(4) 0.3312(3)
H19 H 0.2869 0.3296 0.3914
H20 H 0.2226 0.3128 0.3328
C19 C 0.4872(6) 0.0145(5) 0.7382(4)
H21 H 0.4667 -0.0271 0.7816
C20 C 0.4492(5) 0.0456(4) 0.6518(4)
H22 H 0.4058 0.0242 0.6379
C21 C 0.4766(4) 0.1095(3) 0.5856(3)
C22 C 0.5420(4) 0.1390(4) 0.6111(3)
H23 H 0.5614 0.1828 0.5691
C23 C 0.5772(5) 0.1020(4) 0.6997(4)
H24 H 0.6214 0.1213 0.7160
C24 C 0.4393(4) 0.1412(4) 0.4927(3)
C25 C 0.4463(4) 0.2378(3) 0.3470(3)
C26 C 0.3550(4) 0.3034(3) 0.2940(3)
C27 C 0.3489(4) 0.3272(3) 0.2036(3)
H25 H 0.2888 0.3717 0.1660
C28 C 0.4288(4) 0.2869(4) 0.1678(3)
C29 C 0.5186(4) 0.2208(4) 0.2261(3)
H26 H 0.5732 0.1929 0.2039
C30 C 0.5290(3) 0.1957(3) 0.3150(3)
C31 C 0.4212(4) 0.3154(4) 0.0692(3)
C32 C 0.3133(4) 0.3639(5) 0.0219(4)
H27 H 0.2781 0.4211 0.0287
H28 H 0.2825 0.3209 0.0470
H29 H 0.3119 0.3800 -0.0396
C33 C 0.4704(6) 0.2255(5) 0.0538(4)
H30 H 0.4377 0.1842 0.0792
H31 H 0.5390 0.1921 0.0808
H32 H 0.4650 0.2441 -0.0084
C34 C 0.4723(5) 0.3792(6) 0.0294(4)
H33 H 0.4409 0.4361 0.0375
H34 H 0.4684 0.3962 -0.0325
H35 H 0.5406 0.3462 0.0575
C35 C 0.6269(3) 0.1259(4) 0.3767(3)
H36 H 0.6144 0.0859 0.4321
H37 H 0.6663 0.0846 0.3513
C36 C 0.7738(5) -0.1898(5) 0.7663(4)
H38 H 0.7212 -0.1843 0.7969
C37 C 0.7601(4) -0.1140(4) 0.6873(3)
H39 H 0.7004 -0.0595 0.6656
C38 C 0.8370(4) -0.1200(4) 0.6402(3)
C39 C 0.9231(4) -0.2039(4) 0.6760(4)
H40 H 0.9764 -0.2118 0.6463
C40 C 0.9283(5) -0.2772(4) 0.7583(5)
H41 H 0.9865 -0.3333 0.7822
C41 C 0.8325(4) -0.0409(4) 0.5568(3)
C42 C 0.7525(3) 0.1269(3) 0.4741(3)
C43 C 0.6857(3) 0.1733(3) 0.3952(3)
C44 C 0.6797(4) 0.2612(4) 0.3346(3)
H42 H 0.6341 0.2942 0.2824
C45 C 0.7388(3) 0.3028(3) 0.3482(3)
C46 C 0.8057(3) 0.2512(3) 0.4283(3)
H43 H 0.8465 0.2769 0.4390
C47 C 0.8138(3) 0.1631(3) 0.4925(3)
C48 C 0.7302(4) 0.3984(4) 0.2779(3)
C49 C 0.6255(4) 0.4733(4) 0.2526(4)
H44 H 0.5830 0.4519 0.2333
H45 H 0.6215 0.5318 0.2056
H46 H 0.6050 0.4840 0.3026
C50 C 0.7630(5) 0.3884(5) 0.1951(4)
H47 H 0.7231 0.3656 0.1743
H48 H 0.8313 0.3436 0.2090
H49 H 0.7551 0.4496 0.1501
C51 C 0.7962(5) 0.4368(4) 0.3094(4)
H50 H 0.7780 0.4420 0.3622
H51 H 0.7861 0.4986 0.2641
H52 H 0.8646 0.3931 0.3210
C52 C 0.8887(3) 0.1085(3) 0.5762(3)
H53 H 0.9496 0.0658 0.5674
H54 H 0.8640 0.0694 0.6225
C53 C 0.9109(3) 0.1726(3) 0.6056(3)
C54 C 0.9909(3) 0.1958(3) 0.5819(3)
H55 H 1.0344 0.1660 0.5525
C55 C 1.0075(4) 0.2618(4) 0.6008(3)
C56 C 0.9417(4) 0.3026(4) 0.6480(3)
H56 H 0.9508 0.3474 0.6611
C57 C 0.8643(3) 0.2786(3) 0.6755(3)
C58 C 0.8495(3) 0.2134(3) 0.6537(3)
C59 C 1.0897(4) 0.2942(4) 0.5666(4)
C60 C 1.0469(5) 0.3750(5) 0.4748(4)
H57 H 1.0962 0.3972 0.4515
H58 H 0.9906 0.4266 0.4770
H59 H 1.0268 0.3525 0.4377
C61 C 1.1785(4) 0.2140(5) 0.5638(6)
H60 H 1.2282 0.2363 0.5423
H61 H 1.1596 0.1924 0.5252
H62 H 1.2045 0.1621 0.6220
C62 C 1.1214(5) 0.3313(6) 0.6243(5)
H63 H 1.1724 0.3510 0.6017
H64 H 1.1462 0.2813 0.6835
H65 H 1.0655 0.3848 0.6239
O1A O 0.7694(3) 0.5283(3) 0.5351(2)
O2A O 0.6827(2) 0.5216(3) 0.6445(2)
O3A O 0.6032(3) 0.8941(3) 0.5329(2)
O4A O 0.5394(2) 0.7869(2) 0.5618(2)
O5A O 0.1070(3) 1.0468(3) 0.4903(3)
O6A O 0.2463(2) 0.9592(2) 0.4600(2)
O7A O 0.2267(2) 0.8140(2) 0.3189(2)
H1A H 0.2483 0.8242 0.3563
N1A N 0.4148(3) 0.6655(3) 0.3906(3)
N2A N 0.4489(4) 0.9603(4) 0.2362(3)
N3A N 0.1446(4) 1.2703(4) 0.1969(3)
C1A C 0.5006(4) 0.6499(4) 0.3617(4)
H2A H 0.4995 0.6671 0.3018
C2A C 0.5900(4) 0.6104(4) 0.4142(4)
H3A H 0.6476 0.6015 0.3903
C3A C 0.5941(4) 0.5835(3) 0.5033(3)
C4A C 0.5060(4) 0.5987(4) 0.5353(4)
H4A H 0.5052 0.5823 0.5948
C5A C 0.4186(4) 0.6391(4) 0.4759(4)
H5A H 0.3597 0.6479 0.4977
C6A C 0.6920(4) 0.5403(4) 0.5621(4)
C7A C 0.7702(3) 0.4846(4) 0.7060(3)
C8A C 0.8220(3) 0.3868(4) 0.7515(3)
C9A C 0.9011(4) 0.3518(4) 0.8174(3)
H6A H 0.9364 0.2859 0.8501
C10A C 0.9290(4) 0.4129(4) 0.8356(3)
C11A C 0.8744(4) 0.5104(4) 0.7872(3)
H7A H 0.8921 0.5520 0.7989
C12A C 0.7934(3) 0.5484(4) 0.7213(3)
C13A C 1.0182(4) 0.3730(5) 0.9078(4)
C14A C 1.0691(7) 0.2682(7) 0.9508(8)
H8A H 1.1273 0.2481 0.9910
H9A H 1.0256 0.2424 0.9827
H10A H 1.0878 0.2455 0.9071
C15A C 1.0812(8) 0.4229(10) 0.8755(8)
H11A H 1.1359 0.3978 0.9214
H12A H 1.1058 0.4136 0.8258
H13A H 1.0436 0.4900 0.8579
C16A C 0.9817(8) 0.4000(9) 0.9803(6)
H14A H 1.0370 0.3766 1.0250
H15A H 0.9478 0.4684 0.9566
H16A H 0.9370 0.3721 1.0055
C17A C 0.7977(4) 0.3175(4) 0.7318(3)
H17A H 0.8032 0.2642 0.7870
H18A H 0.7295 0.3494 0.7017
C18A C 0.7345(3) 0.6560(4) 0.6688(3)
H19A H 0.7131 0.6704 0.6086
H20A H 0.7774 0.6872 0.6672
C19A C 0.5128(6) 0.9855(5) 0.2618(4)
H21A H 0.5333 1.0271 0.2184
C20A C 0.5508(5) 0.9544(4) 0.3482(4)
H22A H 0.5942 0.9758 0.3621
C21A C 0.5234(4) 0.8905(3) 0.4144(3)
C22A C 0.4580(4) 0.8610(4) 0.3889(3)
H23A H 0.4386 0.8172 0.4309
C23A C 0.4228(5) 0.8980(4) 0.3003(4)
H24A H 0.3786 0.8787 0.2840
C24A C 0.5607(4) 0.8588(4) 0.5073(3)
C25A C 0.5537(4) 0.7622(3) 0.6530(3)
C26A C 0.6450(4) 0.6966(3) 0.7060(3)
C27A C 0.6511(4) 0.6728(3) 0.7964(3)
H25A H 0.7112 0.6283 0.8340
C28A C 0.5712(4) 0.7131(4) 0.8322(3)
C29A C 0.4814(4) 0.7792(4) 0.7739(3)
H26A H 0.4268 0.8071 0.7961
C30A C 0.4710(3) 0.8043(3) 0.6850(3)
C31A C 0.5788(4) 0.6846(4) 0.9308(3)
C32A C 0.6867(4) 0.6361(5) 0.9781(4)
H27A H 0.7219 0.5789 0.9713
H28A H 0.7175 0.6791 0.9530
H29A H 0.6881 0.6200 1.0396
C33A C 0.5296(6) 0.7745(5) 0.9462(4)
H30A H 0.5623 0.8158 0.9208
H31A H 0.4610 0.8079 0.9192
H32A H 0.5350 0.7559 1.0084
C34A C 0.5277(5) 0.6208(6) 0.9706(4)
H33A H 0.5591 0.5639 0.9625
H34A H 0.5316 0.6038 1.0325
H35A H 0.4594 0.6538 0.9425
C35A C 0.3731(3) 0.8741(4) 0.6233(3)
H36A H 0.3856 0.9141 0.5679
H37A H 0.3337 0.9154 0.6487
C36A C 0.2262(5) 1.1898(5) 0.2337(4)
H38A H 0.2788 1.1843 0.2031
C37A C 0.2399(4) 1.1140(4) 0.3127(3)
H39A H 0.2996 1.0595 0.3344
C38A C 0.1630(4) 1.1200(4) 0.3598(3)
C39A C 0.0769(4) 1.2039(4) 0.3240(4)
H40A H 0.0236 1.2118 0.3537
C40A C 0.0717(5) 1.2772(4) 0.2417(5)
H41A H 0.0135 1.3333 0.2178
C41A C 0.1675(4) 1.0409(4) 0.4432(3)
C42A C 0.2475(3) 0.8731(3) 0.5259(3)
C43A C 0.3143(3) 0.8267(3) 0.6048(3)
C44A C 0.3203(4) 0.7388(4) 0.6654(3)
H42A H 0.3659 0.7058 0.7176
C45A C 0.2612(3) 0.6972(3) 0.6518(3)
C46A C 0.1943(3) 0.7488(3) 0.5717(3)
H43A H 0.1535 0.7231 0.5610
C47A C 0.1862(3) 0.8369(3) 0.5075(3)
C48A C 0.2698(4) 0.6016(4) 0.7221(3)
C49A C 0.3745(4) 0.5267(4) 0.7474(4)
H44A H 0.4170 0.5481 0.7667
H45A H 0.3785 0.4682 0.7944
H46A H 0.3950 0.5160 0.6974
C50A C 0.2370(5) 0.6116(5) 0.8049(4)
H47A H 0.2769 0.6344 0.8257
H48A H 0.1687 0.6564 0.7910
H49A H 0.2449 0.5504 0.8499
C51A C 0.2038(5) 0.5632(4) 0.6906(4)
H50A H 0.2220 0.5580 0.6378
H51A H 0.2139 0.5014 0.7359
H52A H 0.1354 0.6069 0.6790
C52A C 0.1113(3) 0.8915(3) 0.4238(3)
H53A H 0.0504 0.9342 0.4326
H54A H 0.1360 0.9306 0.3775
C53A C 0.0891(3) 0.8274(3) 0.3944(3)
C54A C 0.0091(3) 0.8042(3) 0.4181(3)
H55A H -0.0344 0.8340 0.4475
C55A C -0.0075(4) 0.7382(4) 0.3992(3)
C56A C 0.0583(4) 0.6974(4) 0.3520(3)
H56A H 0.0492 0.6526 0.3389
C57A C 0.1357(3) 0.7214(3) 0.3245(3)
C58A C 0.1505(3) 0.7866(3) 0.3463(3)
C59A C -0.0897(4) 0.7058(4) 0.4334(4)
C60A C -0.0469(5) 0.6250(5) 0.5252(4)
H57A H -0.0962 0.6028 0.5485
H58A H 0.0094 0.5734 0.5230
H59A H -0.0268 0.6475 0.5623
C61A C -0.1785(4) 0.7860(5) 0.4362(6)
H60A H -0.2282 0.7637 0.4577
H61A H -0.1596 0.8076 0.4748
H62A H -0.2045 0.8379 0.3780
C62A C -0.1214(5) 0.6687(6) 0.3757(5)
H63A H -0.1724 0.6490 0.3983
H64A H -0.1462 0.7187 0.3165
H65A H -0.0655 0.6152 0.3761
O8 O 0.6208(6) 0.1989(6) 0.8483(6)
O9 O 0.6941(11) 0.0944(9) 0.9807(8)
N4 N 0.6660(9) 0.1770(9) 0.9164(9)
C63 C 0.6313(6) 0.3436(8) 0.8687(5)
H66 H 0.5850 0.3595 0.8221
C64 C 0.6514(8) 0.4122(9) 0.8821(8)
H67 H 0.6177 0.4767 0.8428
C65 C 0.6838(7) 0.2555(8) 0.9279(6)
C66 C 0.7171(9) 0.3867(10) 0.9492(10)
H68 H 0.7281 0.4349 0.9543
C67 C 0.7562(8) 0.2259(9) 0.9997(7)
H69 H 0.7927 0.1613 1.0371
C68 C 0.7710(9) 0.2942(10) 1.0126(8)
H70 H 0.8143 0.2796 1.0608
N5 N 0.6393(7) 0.7087(8) 0.1966(7)
C69 C 0.6364(7) 0.7781(9) 0.1664(10)
C70 C 0.6373(10) 0.8622(11) 0.1175(10)
H71 H 0.6582 0.8637 0.0632
H72 H 0.6824 0.8717 0.1487
H73 H 0.5719 0.9121 0.1049
C71 C -0.0925(15) 1.0999(12) 0.2651(13)
H74 H -0.1034 1.1245 0.3060
N6 N -0.1641(12) 0.9574(12) 0.1934(13)
O10 O -0.2449(13) 0.9981(15) 0.2077(12)
C72 C -0.0180(19) 1.1023(17) 0.2142(14)
H75 H 0.0072 1.1442 0.2152
O11 O -0.1492(13) 0.9024(10) 0.1614(11)
C73 C 0.0278(16) 1.057(2) 0.1624(17)
H76 H 0.0811 1.0651 0.1365
C74 C -0.1031(11) 1.0086(10) 0.1998(10)
C75 C -0.0136(17) 0.9997(13) 0.1531(11)
H77 H 0.0095 0.9621 0.1234
C76 C -0.1485(17) 1.0575(17) 0.2489(15)
H78 H -0.2081 1.0612 0.2681
loop_
_geom_bond_atom_site_label_1
_geom_bond_atom_site_label_2
_geom_bond_site_symmetry_1
_geom_bond_site_symmetry_2
O1 C6 1_555 1_555
O2 C6 1_555 1_555
O3 C24 1_555 1_555
O4 C24 1_555 1_555
O5 C41 1_555 1_555
O6 C41 1_555 1_555
O7 H1 1_555 1_555
O8 N4 1_555 1_555
O9 N4 1_555 1_555
N1 C1 1_555 1_555
N2 C19 1_555 1_555
N3 C36 1_555 1_555
N4 C65 1_555 1_555
N5 C69 1_555 1_555
C1 H2 1_555 1_555
C2 C1 1_555 1_555
H3 C2 1_555 1_555
C3 C2 1_555 1_555
C4 C3 1_555 1_555
H4 C4 1_555 1_555
C5 N1 1_555 1_555
H5 C5 1_555 1_555
C6 C3 1_555 1_555
C7 O2 1_555 1_555
C8 C7 1_555 1_555
C9 C8 1_555 1_555
H6 C9 1_555 1_555
C10 C9 1_555 1_555
C11 C10 1_555 1_555
H7 C11 1_555 1_555
C12 C7 1_555 1_555
C13 C10 1_555 1_555
C14 C13 1_555 1_555
H8 C14 1_555 1_555
H9 C14 1_555 1_555
H10 C14 1_555 1_555
C15 C13 1_555 1_555
H11 C15 1_555 1_555
H12 C15 1_555 1_555
H13 C15 1_555 1_555
C16 C13 1_555 1_555
H14 C16 1_555 1_555
H15 C16 1_555 1_555
H16 C16 1_555 1_555
C17 C8 1_555 1_555
H17 C17 1_555 1_555
H18 C17 1_555 1_555
C18 C12 1_555 1_555
H19 C18 1_555 1_555
H20 C18 1_555 1_555
C19 H21 1_555 1_555
C20 C19 1_555 1_555
H22 C20 1_555 1_555
C21 C20 1_555 1_555
C22 C21 1_555 1_555
H23 C22 1_555 1_555
C23 N2 1_555 1_555
H24 C23 1_555 1_555
C24 C21 1_555 1_555
C25 O4 1_555 1_555
C26 C18 1_555 1_555
C27 C26 1_555 1_555
H25 C27 1_555 1_555
C28 C27 1_555 1_555
C29 C28 1_555 1_555
H26 C29 1_555 1_555
C30 C25 1_555 1_555
C31 C28 1_555 1_555
C32 C31 1_555 1_555
H27 C32 1_555 1_555
H28 C32 1_555 1_555
H29 C32 1_555 1_555
C33 C31 1_555 1_555
H30 C33 1_555 1_555
H31 C33 1_555 1_555
H32 C33 1_555 1_555
C34 C31 1_555 1_555
H33 C34 1_555 1_555
H34 C34 1_555 1_555
H35 C34 1_555 1_555
C35 C30 1_555 1_555
H36 C35 1_555 1_555
H37 C35 1_555 1_555
C36 H38 1_555 1_555
C37 C36 1_555 1_555
H39 C37 1_555 1_555
C38 C37 1_555 1_555
C39 C38 1_555 1_555
H40 C39 1_555 1_555
C40 N3 1_555 1_555
H41 C40 1_555 1_555
C41 C38 1_555 1_555
C42 O6 1_555 1_555
C43 C35 1_555 1_555
C44 C43 1_555 1_555
H42 C44 1_555 1_555
C45 C44 1_555 1_555
C46 C45 1_555 1_555
H43 C46 1_555 1_555
C47 C42 1_555 1_555
C48 C45 1_555 1_555
C49 C48 1_555 1_555
H44 C49 1_555 1_555
H45 C49 1_555 1_555
H46 C49 1_555 1_555
C50 C48 1_555 1_555
H47 C50 1_555 1_555
H48 C50 1_555 1_555
H49 C50 1_555 1_555
C51 C48 1_555 1_555
H50 C51 1_555 1_555
H51 C51 1_555 1_555
H52 C51 1_555 1_555
C52 C47 1_555 1_555
H53 C52 1_555 1_555
H54 C52 1_555 1_555
C53 C52 1_555 1_555
C54 C53 1_555 1_555
H55 C54 1_555 1_555
C55 C54 1_555 1_555
C56 C55 1_555 1_555
H56 C56 1_555 1_555
C57 C56 1_555 1_555
C58 O7 1_555 1_555
C59 C55 1_555 1_555
C60 C59 1_555 1_555
H57 C60 1_555 1_555
H58 C60 1_555 1_555
H59 C60 1_555 1_555
C61 C59 1_555 1_555
H60 C61 1_555 1_555
H61 C61 1_555 1_555
H62 C61 1_555 1_555
C62 C59 1_555 1_555
H63 C62 1_555 1_555
H64 C62 1_555 1_555
H65 C62 1_555 1_555
C63 H66 1_555 1_555
C64 C63 1_555 1_555
H67 C64 1_555 1_555
C65 C63 1_555 1_555
C66 C64 1_555 1_555
H68 C66 1_555 1_555
C67 C65 1_555 1_555
H69 C67 1_555 1_555
C68 C66 1_555 1_555
H70 C68 1_555 1_555
C69 C70 1_555 1_555
C70 H71 1_555 1_555
H72 C70 1_555 1_555
H73 C70 1_555 1_555
C71 H74 1_555 1_555
N6 O10 1_555 1_555
C72 C71 1_555 1_555
H75 C72 1_555 1_555
O11 N6 1_555 1_555
C73 C72 1_555 1_555
H76 C73 1_555 1_555
C74 N6 1_555 1_555
C75 C73 1_555 1_555
H77 C75 1_555 1_555
C76 C71 1_555 1_555
H78 C76 1_555 1_555
O1A C6A 1_555 1_555
O2A C6A 1_555 1_555
O3A C24A 1_555 1_555
O4A C24A 1_555 1_555
O5A C41A 1_555 1_555
O6A C41A 1_555 1_555
O7A H1A 1_555 1_555
N1A C1A 1_555 1_555
N2A C19A 1_555 1_555
N3A C36A 1_555 1_555
C1A H2A 1_555 1_555
C2A C1A 1_555 1_555
H3A C2A 1_555 1_555
C3A C2A 1_555 1_555
C4A C3A 1_555 1_555
H4A C4A 1_555 1_555
C5A N1A 1_555 1_555
H5A C5A 1_555 1_555
C6A C3A 1_555 1_555
C7A O2A 1_555 1_555
C8A C7A 1_555 1_555
C9A C8A 1_555 1_555
H6A C9A 1_555 1_555
C10A C9A 1_555 1_555
C11A C10A 1_555 1_555
H7A C11A 1_555 1_555
C12A C7A 1_555 1_555
C13A C10A 1_555 1_555
C14A C13A 1_555 1_555
H8A C14A 1_555 1_555
H9A C14A 1_555 1_555
H10A C14A 1_555 1_555
C15A C13A 1_555 1_555
H11A C15A 1_555 1_555
H12A C15A 1_555 1_555
H13A C15A 1_555 1_555
C16A C13A 1_555 1_555
H14A C16A 1_555 1_555
H15A C16A 1_555 1_555
H16A C16A 1_555 1_555
C17A C57 1_555 1_555
H17A C17A 1_555 1_555
H18A C17A 1_555 1_555
C18A C12A 1_555 1_555
H19A C18A 1_555 1_555
H20A C18A 1_555 1_555
C19A H21A 1_555 1_555
C20A C19A 1_555 1_555
H22A C20A 1_555 1_555
C21A C20A 1_555 1_555
C22A C21A 1_555 1_555
H23A C22A 1_555 1_555
C23A N2A 1_555 1_555
H24A C23A 1_555 1_555
C24A C21A 1_555 1_555
C25A O4A 1_555 1_555
C26A C18A 1_555 1_555
C27A C26A 1_555 1_555
H25A C27A 1_555 1_555
C28A C27A 1_555 1_555
C29A C28A 1_555 1_555
H26A C29A 1_555 1_555
C30A C25A 1_555 1_555
C31A C28A 1_555 1_555
C32A C31A 1_555 1_555
H27A C32A 1_555 1_555
H28A C32A 1_555 1_555
H29A C32A 1_555 1_555
C33A C31A 1_555 1_555
H30A C33A 1_555 1_555
H31A C33A 1_555 1_555
H32A C33A 1_555 1_555
C34A C31A 1_555 1_555
H33A C34A 1_555 1_555
H34A C34A 1_555 1_555
H35A C34A 1_555 1_555
C35A C30A 1_555 1_555
H36A C35A 1_555 1_555
H37A C35A 1_555 1_555
C36A H38A 1_555 1_555
C37A C36A 1_555 1_555
H39A C37A 1_555 1_555
C38A C37A 1_555 1_555
C39A C38A 1_555 1_555
H40A C39A 1_555 1_555
C40A N3A 1_555 1_555
H41A C40A 1_555 1_555
C41A C38A 1_555 1_555
C42A O6A 1_555 1_555
C43A C35A 1_555 1_555
C44A C43A 1_555 1_555
H42A C44A 1_555 1_555
C45A C44A 1_555 1_555
C46A C45A 1_555 1_555
H43A C46A 1_555 1_555
C47A C42A 1_555 1_555
C48A C45A 1_555 1_555
C49A C48A 1_555 1_555
H44A C49A 1_555 1_555
H45A C49A 1_555 1_555
H46A C49A 1_555 1_555
C50A C48A 1_555 1_555
H47A C50A 1_555 1_555
H48A C50A 1_555 1_555
H49A C50A 1_555 1_555
C51A C48A 1_555 1_555
H50A C51A 1_555 1_555
H51A C51A 1_555 1_555
H52A C51A 1_555 1_555
C52A C47A 1_555 1_555
H53A C52A 1_555 1_555
H54A C52A 1_555 1_555
C53A C52A 1_555 1_555
C54A C53A 1_555 1_555
H55A C54A 1_555 1_555
C55A C54A 1_555 1_555
C56A C55A 1_555 1_555
H56A C56A 1_555 1_555
C57A C17 1_555 1_555
C58A O7A 1_555 1_555
C59A C55A 1_555 1_555
C60A C59A 1_555 1_555
H57A C60A 1_555 1_555
H58A C60A 1_555 1_555
H59A C60A 1_555 1_555
C61A C59A 1_555 1_555
H60A C61A 1_555 1_555
H61A C61A 1_555 1_555
H62A C61A 1_555 1_555
C62A C59A 1_555 1_555
H63A C62A 1_555 1_555
H64A C62A 1_555 1_555
H65A C62A 1_555 1_555
C4 C5 1_555 1_555
C11 C12 1_555 1_555
C22 C23 1_555 1_555
C25 C26 1_555 1_555
C29 C30 1_555 1_555
C39 C40 1_555 1_555
C42 C43 1_555 1_555
C46 C47 1_555 1_555
C53 C58 1_555 1_555
C57 C58 1_555 1_555
C67 C68 1_555 1_555
C74 C75 1_555 1_555
C74 C76 1_555 1_555
C4A C5A 1_555 1_555
C8A C17A 1_555 1_555
C11A C12A 1_555 1_555
C22A C23A 1_555 1_555
C25A C26A 1_555 1_555
C29A C30A 1_555 1_555
C39A C40A 1_555 1_555
C42A C43A 1_555 1_555
C46A C47A 1_555 1_555
C53A C58A 1_555 1_555
C56A C57A 1_555 1_555
C57A C58A 1_555 1_555

#END
