
#######################################################################
#
#                 Cambridge Crystallographic Data Centre
#                                CCDC 
#
#######################################################################
#
# If this CIF has been generated from an entry in the Cambridge 
# Structural Database, then it will include bibliographic, chemical, 
# crystal, experimental, refinement or atomic coordinate data resulting 
# from the CCDC's data processing and validation procedures.
#
#######################################################################

data_VAMWUE
_chemical_formula_moiety         'C19 H15 Cl1 N2 O4,C1 H2 Cl2'
_chemical_name_systematic        
'N-(4-chlorobenzoyl)-3-(2-oxo-1,2-dihydroquinolin-4-yl)alanine dichloromethane solvate'
_symmetry_cell_setting           monoclinic
_symmetry_space_group_name_H-M   'P 21/c'
_symmetry_Int_Tables_number      14
_space_group_name_Hall           '-P 2ybc'
loop_
_symmetry_equiv_pos_site_id
_symmetry_equiv_pos_as_xyz
1 x,y,z
2 -x,1/2+y,1/2-z
3 -x,-y,-z
4 x,1/2-y,1/2+z
_cell_length_a                   14.3285(16)
_cell_length_b                   9.7542(4)
_cell_length_c                   21.475(2)
_cell_angle_alpha                90
_cell_angle_beta                 136.08(2)
_cell_angle_gamma                90
_cell_volume                     2081.94
_exptl_crystal_colour            colorless
_exptl_crystal_description       block
_cell_formula_units_Z            4
loop_
_atom_site_label
_atom_site_type_symbol
_atom_site_fract_x
_atom_site_fract_y
_atom_site_fract_z
Cl1 Cl 0.44575(8) 0.27972(12) 0.39439(5)
O1 O 0.60502(13) 0.63500(12) 0.82879(9)
O2 O 0.85501(15) 0.03512(18) 0.81047(10)
O3 O 0.85392(14) -0.12788(13) 0.96695(9)
O4 O 0.65480(14) -0.12048(15) 0.82547(9)
H1 H 0.643(2) -0.209(3) 0.8320(16)
N1 N 0.81476(16) 0.58810(17) 0.96497(10)
H2 H 0.830(2) 0.677(2) 0.9700(15)
N2 N 0.70155(16) 0.12935(14) 0.80026(10)
H3 H 0.6262 0.1759 0.7681
C1 C 0.69146(19) 0.54824(19) 0.88822(13)
C2 C 0.66408(18) 0.40460(18) 0.87774(12)
H4 H 0.5764 0.3732 0.8252
C3 C 0.75819(19) 0.31182(18) 0.93973(12)
C4 C 0.89068(19) 0.35918(18) 1.02052(12)
C5 C 0.9973(2) 0.2720(2) 1.09025(13)
H5 H 0.9832 0.1757 1.0848
C6 C 1.1192(2) 0.3236(2) 1.16468(13)
H6 H 1.1893 0.2633 1.2108
C7 C 1.1423(2) 0.4644(2) 1.17399(14)
H7 H 1.2283 0.4993 1.2264
C8 C 1.0425(2) 0.5529(2) 1.10845(13)
H8 H 1.0585 0.6489 1.1149
C9 C 0.91641(18) 0.49979(18) 1.03180(12)
C10 C 0.7247(2) 0.16174(17) 0.92375(13)
H9 H 0.6258 0.1509 0.8787
H10 H 0.7642 0.1189 0.9803
C11 C 0.77646(19) 0.08637(18) 0.89081(12)
H11 H 0.8733 0.1105 0.9312
C12 C 0.7664(2) -0.06610(19) 0.89829(13)
C13 C 0.7485(2) 0.0973(2) 0.76627(13)
C14 C 0.6685(2) 0.1438(2) 0.67271(13)
C15 C 0.5765(2) 0.2506(2) 0.63177(15)
H12 H 0.5601 0.2948 0.6626
C16 C 0.5086(2) 0.2931(3) 0.54632(16)
H13 H 0.4462 0.3667 0.5183
C17 C 0.5329(2) 0.2268(3) 0.50266(16)
C18 C 0.6221(3) 0.1214(3) 0.54122(17)
H14 H 0.6368 0.0766 0.5096
C19 C 0.6907(2) 0.0807(3) 0.62664(15)
H15 H 0.7542 0.0082 0.6544
Cl2 Cl 0.18809(11) 0.53831(11) 0.36461(7)
Cl3 Cl 0.14339(14) 0.24972(12) 0.36263(10)
C20 C 0.0738(3) 0.4104(5) 0.3127(3)
H16 H 0.0264 0.4055 0.2494
H17 H 0.0062 0.4326 0.3126
loop_
_geom_bond_atom_site_label_1
_geom_bond_atom_site_label_2
_geom_bond_site_symmetry_1
_geom_bond_site_symmetry_2
Cl1 C17 1_555 1_555
O1 C1 1_555 1_555
O2 C13 1_555 1_555
O3 C12 1_555 1_555
O4 H1 1_555 1_555
N1 H2 1_555 1_555
N2 H3 1_555 1_555
C1 N1 1_555 1_555
C2 C1 1_555 1_555
H4 C2 1_555 1_555
C3 C2 1_555 1_555
C4 C3 1_555 1_555
C5 C4 1_555 1_555
H5 C5 1_555 1_555
C6 C5 1_555 1_555
H6 C6 1_555 1_555
C7 C6 1_555 1_555
H7 C7 1_555 1_555
C8 C7 1_555 1_555
H8 C8 1_555 1_555
C9 N1 1_555 1_555
C10 C3 1_555 1_555
H9 C10 1_555 1_555
H10 C10 1_555 1_555
C11 N2 1_555 1_555
H11 C11 1_555 1_555
C12 O4 1_555 1_555
C13 N2 1_555 1_555
C14 C13 1_555 1_555
C15 C14 1_555 1_555
H12 C15 1_555 1_555
C16 C15 1_555 1_555
H13 C16 1_555 1_555
C17 C16 1_555 1_555
C18 C17 1_555 1_555
H14 C18 1_555 1_555
C19 C14 1_555 1_555
H15 C19 1_555 1_555
Cl2 C20 1_555 1_555
Cl3 C20 1_555 1_555
C20 H16 1_555 1_555
H17 C20 1_555 1_555
C4 C9 1_555 1_555
C8 C9 1_555 1_555
C10 C11 1_555 1_555
C11 C12 1_555 1_555
C18 C19 1_555 1_555

#END
