
#######################################################################
#
#                 Cambridge Crystallographic Data Centre
#                                CCDC 
#
#######################################################################
#
# If this CIF has been generated from an entry in the Cambridge 
# Structural Database, then it will include bibliographic, chemical, 
# crystal, experimental, refinement or atomic coordinate data resulting 
# from the CCDC's data processing and validation procedures.
#
#######################################################################

data_VAMYAK
_chemical_formula_moiety         'C22 H40 N4 O7'
_chemical_name_systematic        
't-butoxycarbonyl-\a-amino-isobutyryl-valyl-\a-amino-isobutyryl-\b-alanine methyl ester'
_symmetry_cell_setting           orthorhombic
_symmetry_space_group_name_H-M   'P 21 21 21'
_symmetry_Int_Tables_number      19
_space_group_name_Hall           'P 2ac 2ab'
loop_
_symmetry_equiv_pos_site_id
_symmetry_equiv_pos_as_xyz
1 x,y,z
2 -x,1/2+y,1/2-z
3 1/2+x,1/2-y,-z
4 1/2-x,-y,1/2+z
_cell_length_a                   9.167(15)
_cell_length_b                   15.61(2)
_cell_length_c                   19.07(3)
_cell_angle_alpha                90
_cell_angle_beta                 90
_cell_angle_gamma                90
_cell_volume                     2728.86
_exptl_crystal_colour            white
_exptl_crystal_description       needle
_cell_formula_units_Z            4
loop_
_atom_site_label
_atom_site_type_symbol
_atom_site_fract_x
_atom_site_fract_y
_atom_site_fract_z
C1 C 1.1837(7) 0.2733(3) 0.1053(3)
O1 O 1.2912(5) 0.3286(3) 0.1208(2)
C2 C 1.3401(11) 0.3290(6) 0.1919(4)
H1 H 1.4062 0.3759 0.1989
H2 H 1.3891 0.2761 0.2020
H3 H 1.2578 0.3353 0.2227
O2 O 1.1344(5) 0.2245(2) 0.1474(2)
C3 C 1.1369(8) 0.2831(3) 0.0304(3)
H4 H 1.0383 0.2614 0.0255
H5 H 1.1999 0.2484 0.0011
C4 C 1.1411(8) 0.3756(3) 0.0039(3)
H6 H 1.2383 0.3986 0.0108
H7 H 1.1206 0.3761 -0.0460
N1 N 1.0365(6) 0.4299(2) 0.0397(2)
H8 H 1.0651 0.4622 0.0736
C5 C 0.8957(8) 0.4302(3) 0.0205(2)
O3 O 0.8507(6) 0.3868(2) -0.0302(2)
C6 C 0.7889(6) 0.4901(3) 0.0585(2)
C7 C 0.6381(7) 0.4480(4) 0.0619(3)
H9 H 0.6088 0.4308 0.0157
H10 H 0.5687 0.4882 0.0803
H11 H 0.6423 0.3987 0.0919
C8 C 0.7782(8) 0.5713(3) 0.0137(3)
H12 H 0.7464 0.5565 -0.0327
H13 H 0.8721 0.5983 0.0112
H14 H 0.7093 0.6101 0.0345
N2 N 0.8413(4) 0.5167(2) 0.12867(16)
H15 H 0.8625 0.5698 0.1347
C9 C 0.8582(5) 0.4637(2) 0.1836(2)
O4 O 0.8439(4) 0.38477(16) 0.17902(14)
C10 C 0.8931(5) 0.5049(2) 0.2545(2)
H16 H 0.9563 0.4650 0.2800
N3 N 0.9714(4) 0.58511(19) 0.24882(18)
H17 H 0.9341 0.6305 0.2670
C11 C 0.7543(5) 0.5179(3) 0.2996(2)
H18 H 0.7850 0.5460 0.3432
C12 C 1.1008(5) 0.5907(3) 0.2159(2)
O5 O 1.1585(4) 0.52879(17) 0.18643(16)
C13 C 1.1801(5) 0.6768(2) 0.2214(2)
C14 C 1.2457(6) 0.6814(3) 0.2958(3)
H19 H 1.3088 0.6332 0.3032
H20 H 1.1685 0.6804 0.3298
H21 H 1.3005 0.7334 0.3007
C15 C 1.2981(6) 0.6834(3) 0.1649(3)
H22 H 1.3615 0.6346 0.1679
H23 H 1.3538 0.7348 0.1720
H24 H 1.2532 0.6850 0.1195
N4 N 1.0749(4) 0.74749(19) 0.21500(18)
H25 H 1.0709 0.7855 0.2476
C16 C 0.9844(5) 0.7546(2) 0.1595(2)
O6 O 0.9658(4) 0.69914(18) 0.11542(15)
O7 O 0.9173(4) 0.83300(17) 0.15963(14)
C17 C 0.8097(6) 0.8558(3) 0.1049(2)
C18 C 0.7693(8) 0.9490(3) 0.1252(3)
H26 H 0.6885 0.9680 0.0972
H27 H 0.8516 0.9858 0.1171
H28 H 0.7430 0.9511 0.1739
C19 C 0.8786(9) 0.8522(5) 0.0323(3)
H29 H 0.8154 0.8796 -0.0010
H30 H 0.8929 0.7935 0.0189
H31 H 0.9710 0.8811 0.0331
C20 C 0.6766(6) 0.7974(3) 0.1099(3)
H32 H 0.7059 0.7391 0.1022
H33 H 0.6064 0.8137 0.0750
H34 H 0.6338 0.8026 0.1556
C21 C 0.6433(6) 0.5779(4) 0.2638(3)
H35 H 0.6918 0.6294 0.2490
H36 H 0.5671 0.5921 0.2963
H37 H 0.6020 0.5496 0.2237
C22 C 0.6851(7) 0.4325(3) 0.3202(3)
H38 H 0.6045 0.4427 0.3513
H39 H 0.7563 0.3975 0.3435
H40 H 0.6511 0.4036 0.2789
loop_
_geom_bond_atom_site_label_1
_geom_bond_atom_site_label_2
_geom_bond_site_symmetry_1
_geom_bond_site_symmetry_2
C1 O1 1_555 1_555
O1 C2 1_555 1_555
C2 H1 1_555 1_555
H2 C2 1_555 1_555
H3 C2 1_555 1_555
O2 C1 1_555 1_555
C3 C1 1_555 1_555
H4 C3 1_555 1_555
H5 C3 1_555 1_555
C4 C3 1_555 1_555
H6 C4 1_555 1_555
H7 C4 1_555 1_555
N1 C4 1_555 1_555
H8 N1 1_555 1_555
C5 N1 1_555 1_555
O3 C5 1_555 1_555
C6 C5 1_555 1_555
C7 C6 1_555 1_555
H9 C7 1_555 1_555
H10 C7 1_555 1_555
H11 C7 1_555 1_555
C8 C6 1_555 1_555
H12 C8 1_555 1_555
H13 C8 1_555 1_555
H14 C8 1_555 1_555
N2 C6 1_555 1_555
H15 N2 1_555 1_555
C9 N2 1_555 1_555
O4 C9 1_555 1_555
C10 C9 1_555 1_555
H16 C10 1_555 1_555
N3 C10 1_555 1_555
H17 N3 1_555 1_555
C11 C10 1_555 1_555
H18 C11 1_555 1_555
C12 N3 1_555 1_555
O5 C12 1_555 1_555
C13 C12 1_555 1_555
C14 C13 1_555 1_555
H19 C14 1_555 1_555
H20 C14 1_555 1_555
H21 C14 1_555 1_555
C15 C13 1_555 1_555
H22 C15 1_555 1_555
H23 C15 1_555 1_555
H24 C15 1_555 1_555
N4 C13 1_555 1_555
H25 N4 1_555 1_555
C16 N4 1_555 1_555
O6 C16 1_555 1_555
O7 C16 1_555 1_555
C17 O7 1_555 1_555
C18 C17 1_555 1_555
H26 C18 1_555 1_555
H27 C18 1_555 1_555
H28 C18 1_555 1_555
C19 C17 1_555 1_555
H29 C19 1_555 1_555
H30 C19 1_555 1_555
H31 C19 1_555 1_555
C20 C17 1_555 1_555
H32 C20 1_555 1_555
H33 C20 1_555 1_555
H34 C20 1_555 1_555
C21 C11 1_555 1_555
H35 C21 1_555 1_555
H36 C21 1_555 1_555
H37 C21 1_555 1_555
C22 C11 1_555 1_555
H38 C22 1_555 1_555
H39 C22 1_555 1_555
H40 C22 1_555 1_555

#END
