
#######################################################################
#
#                 Cambridge Crystallographic Data Centre
#                                CCDC 
#
#######################################################################
#
# If this CIF has been generated from an entry in the Cambridge 
# Structural Database, then it will include bibliographic, chemical, 
# crystal, experimental, refinement or atomic coordinate data resulting 
# from the CCDC's data processing and validation procedures.
#
#######################################################################

data_VANXAK
_chemical_formula_moiety         'C20 H14 N2,2(C3 H7 N1 O1)'
_chemical_name_systematic        
'6,13-Dihydro-6,13-diazapentacene N,N-dimethylformamide solvate'
_symmetry_cell_setting           monoclinic
_symmetry_space_group_name_H-M   'P 21/n'
_symmetry_Int_Tables_number      14
_space_group_name_Hall           '-P 2yn'
loop_
_symmetry_equiv_pos_site_id
_symmetry_equiv_pos_as_xyz
1 x,y,z
2 1/2-x,1/2+y,1/2-z
3 -x,-y,-z
4 1/2+x,1/2-y,1/2+z
_cell_length_a                   6.1863(5)
_cell_length_b                   17.0800(16)
_cell_length_c                   10.7410(10)
_cell_angle_alpha                90
_cell_angle_beta                 99.767(2)
_cell_angle_gamma                90
_cell_volume                     1118.47
_cell_formula_units_Z            2
loop_
_atom_site_label
_atom_site_type_symbol
_atom_site_fract_x
_atom_site_fract_y
_atom_site_fract_z
N1 N 0.17178(17) 0.49667(7) 0.93412(10)
H1 H 0.2802 0.4944 0.8921
C1 C 0.4524(2) 0.21430(9) 1.27421(15)
H2 H 0.5622 0.1762 1.2948
C2 C 0.4675(2) 0.26849(8) 1.18157(14)
H3 H 0.5883 0.2669 1.1391
C3 C 0.3052(2) 0.32643(8) 1.14896(12)
C4 C 0.31695(19) 0.38362(7) 1.05405(12)
H4 H 0.4352 0.3824 1.0095
C5 C 0.16060(19) 0.44027(7) 1.02612(11)
C6 C 0.01943(19) 0.55625(7) 0.90575(11)
C7 C 0.03513(19) 0.61112(7) 0.81458(11)
H5 H 0.1545 0.6090 0.7710
C8 C 0.1240(2) 0.32907(8) 1.21568(12)
C9 C 0.1117(2) 0.27156(8) 1.30947(13)
H6 H -0.0086 0.2716 1.3525
C10 C 0.2716(3) 0.21610(9) 1.33837(15)
H7 H 0.2610 0.1789 1.4015
N1B N -0.17178(17) 0.50333(7) 1.06588(10)
H1B H -0.2802 0.5056 1.1079
C1B C -0.4524(2) 0.78570(9) 0.72579(15)
H2B H -0.5622 0.8238 0.7052
C2B C -0.4675(2) 0.73151(8) 0.81843(14)
H3B H -0.5883 0.7331 0.8609
C3B C -0.3052(2) 0.67357(8) 0.85104(12)
C4B C -0.31695(19) 0.61638(7) 0.94595(12)
H4B H -0.4352 0.6176 0.9905
C5B C -0.16060(19) 0.55973(7) 0.97388(11)
C6B C -0.01943(19) 0.44375(7) 1.09425(11)
C7B C -0.03513(19) 0.38888(7) 1.18542(11)
H5B H -0.1545 0.3910 1.2290
C8B C -0.1240(2) 0.67093(8) 0.78432(12)
C9B C -0.1117(2) 0.72844(8) 0.69053(13)
H6B H 0.0086 0.7284 0.6475
C10B C -0.2716(3) 0.78390(9) 0.66163(15)
H7B H -0.2610 0.8211 0.5985
O1 O 0.37885(19) 0.44882(8) 0.73541(11)
N2 N 0.61503(17) 0.42490(7) 0.60116(10)
C11 C 0.5531(3) 0.46120(9) 0.69781(14)
H8 H 0.6483 0.4990 0.7408
C12 C 0.8236(3) 0.44320(11) 0.56237(18)
H9 H 0.8969 0.4843 0.6160
H10 H 0.7977 0.4608 0.4752
H11 H 0.9151 0.3968 0.5700
C13 C 0.4807(3) 0.36510(10) 0.53211(15)
H12 H 0.3388 0.3639 0.5591
H13 H 0.5518 0.3146 0.5483
H14 H 0.4610 0.3765 0.4424
loop_
_geom_bond_atom_site_label_1
_geom_bond_atom_site_label_2
_geom_bond_site_symmetry_1
_geom_bond_site_symmetry_2
N1 H1 1_555 1_555
C1 H2 1_555 1_555
C2 C1 1_555 1_555
H3 C2 1_555 1_555
C3 C2 1_555 1_555
C4 C3 1_555 1_555
H4 C4 1_555 1_555
C5 N1 1_555 1_555
C6 N1 1_555 1_555
C7 C6 1_555 1_555
H5 C7 1_555 1_555
C8 C3 1_555 1_555
C9 C8 1_555 1_555
H6 C9 1_555 1_555
C10 C1 1_555 1_555
H7 C10 1_555 1_555
O1 C11 1_555 1_555
N2 C11 1_555 1_555
C11 H8 1_555 1_555
C12 N2 1_555 1_555
H9 C12 1_555 1_555
H10 C12 1_555 1_555
H11 C12 1_555 1_555
C13 N2 1_555 1_555
H12 C13 1_555 1_555
H13 C13 1_555 1_555
H14 C13 1_555 1_555
N1B H1B 1_555 1_555
C1B H2B 1_555 1_555
C2B C1B 1_555 1_555
H3B C2B 1_555 1_555
C3B C2B 1_555 1_555
C4B C3B 1_555 1_555
H4B C4B 1_555 1_555
C5B C6 1_555 1_555
C6B C5 1_555 1_555
C7B C8 1_555 1_555
H5B C7B 1_555 1_555
C8B C7 1_555 1_555
C9B C8B 1_555 1_555
H6B C9B 1_555 1_555
C10B C1B 1_555 1_555
H7B C10B 1_555 1_555
C4 C5 1_555 1_555
C9 C10 1_555 1_555
N1B C5B 1_555 1_555
N1B C6B 1_555 1_555
C3B C8B 1_555 1_555
C4B C5B 1_555 1_555
C6B C7B 1_555 1_555
C9B C10B 1_555 1_555

#END
