
#######################################################################
#
#                 Cambridge Crystallographic Data Centre
#                                CCDC 
#
#######################################################################
#
# If this CIF has been generated from an entry in the Cambridge 
# Structural Database, then it will include bibliographic, chemical, 
# crystal, experimental, refinement or atomic coordinate data resulting 
# from the CCDC's data processing and validation procedures.
#
#######################################################################

data_VAPKII
_chemical_formula_moiety         'C22 H28 N4 O5'
_chemical_name_systematic        
'Isopropyl 9-((5-methyl-6-((2-methylpyridin-3-yl)oxy)pyrimidin-4-yl)oxy)-3-oxa-7-azabicyclo[3.3.1]nonane-7-carboxylate'
_symmetry_cell_setting           orthorhombic
_symmetry_space_group_name_H-M   'P c a 21'
_symmetry_Int_Tables_number      29
_space_group_name_Hall           'P 2c -2ac'
loop_
_symmetry_equiv_pos_site_id
_symmetry_equiv_pos_as_xyz
1 x,y,z
2 -x,-y,1/2+z
3 1/2+x,-y,z
4 1/2-x,y,1/2+z
_cell_length_a                   11.2563(2)
_cell_length_b                   7.04310(10)
_cell_length_c                   27.9107(5)
_cell_angle_alpha                90
_cell_angle_beta                 90
_cell_angle_gamma                90
_cell_volume                     2212.74
_cell_formula_units_Z            4
loop_
_atom_site_label
_atom_site_type_symbol
_atom_site_fract_x
_atom_site_fract_y
_atom_site_fract_z
C1 C -0.0002(3) -0.3429(4) 0.3233(1)
C2 C 0.0147(2) -0.1802(3) 0.3569(1)
C3 C -0.0596(2) -0.0098(4) 0.4199(1)
C4 C 0.0344(3) 0.1132(4) 0.4203(1)
C5 C 0.1236(2) 0.0877(4) 0.3872(1)
C6 C 0.1122(2) -0.0604(3) 0.3553(1)
C7 C 0.2286(2) 0.0246(3) 0.2877(1)
C8 C 0.3143(2) -0.0292(3) 0.2548(1)
C9 C 0.3763(2) -0.2168(3) 0.2565(1)
C10 C 0.3347(2) 0.1061(3) 0.2190(1)
C11 C 0.1992(2) 0.3020(3) 0.2509(1)
C12 C 0.4284(2) 0.1937(3) 0.1457(1)
C13 C 0.5057(2) 0.3654(3) 0.1569(1)
C14 C 0.6315(2) 0.3029(4) 0.1689(1)
C15 C 0.6147(2) 0.0319(3) 0.1199(1)
C16 C 0.4899(2) 0.0876(3) 0.1052(1)
C17 C 0.4975(3) 0.4974(3) 0.1142(1)
C18 C 0.4867(2) 0.2161(3) 0.0608(1)
C19 C 0.6318(2) 0.4776(3) 0.0467(1)
C20 C 0.7706(3) 0.4272(5) -0.0164(1)
C21 C 0.7469(4) 0.4303(5) -0.0690(2)
C22 C 0.8604(4) 0.2796(10) -0.0028(2)
N1 N -0.0705(2) -0.1535(3) 0.3895(1)
N2 N 0.1703(2) 0.1887(3) 0.2867(1)
N3 N 0.2777(2) 0.2715(3) 0.2166(1)
N4 N 0.5384(2) 0.4035(3) 0.0700(1)
O1 O 0.2016(1) -0.1037(2) 0.3224(1)
O2 O 0.4173(1) 0.0649(2) 0.1858(1)
O3 O 0.6854(1) 0.1923(3) 0.1321(1)
O4 O 0.6837(2) 0.6207(3) 0.0586(1)
O5 O 0.6589(2) 0.3774(3) 0.0072(1)
H1 H -0.0795 -0.3918 0.3258
H2 H 0.0556 -0.4409 0.3313
H3 H 0.0138 -0.3007 0.2910
H4 H -0.1195 0.0085 0.4424
H5 H 0.0380 0.2118 0.4424
H6 H 0.1893 0.1677 0.3864
H7 H 0.4418 -0.2099 0.2785
H8 H 0.4053 -0.2482 0.2251
H9 H 0.3217 -0.3129 0.2670
H10 H 0.1593 0.4175 0.2496
H11 H 0.3495 0.2356 0.1353
H12 H 0.4724 0.4306 0.1849
H13 H 0.6799 0.4146 0.1746
H14 H 0.6300 0.2292 0.1982
H15 H 0.6105 -0.0530 0.1472
H16 H 0.6523 -0.0362 0.0938
H17 H 0.4447 -0.0281 0.0982
H18 H 0.4158 0.5381 0.1101
H19 H 0.5456 0.6093 0.1200
H20 H 0.5302 0.1554 0.0350
H21 H 0.4050 0.2316 0.0505
H22 H 0.7973 0.5526 -0.0056
H23 H 0.7219 0.3065 -0.0792
H24 H 0.8180 0.4656 -0.0857
H25 H 0.6854 0.5209 -0.0757
H26 H 0.8774 0.2891 0.0309
H27 H 0.9321 0.2995 -0.0207
H28 H 0.8293 0.1557 -0.0097
loop_
_geom_bond_atom_site_label_1
_geom_bond_atom_site_label_2
_geom_bond_site_symmetry_1
_geom_bond_site_symmetry_2
C1 C2 1_555 1_555
C2 C6 1_555 1_555
C3 C4 1_555 1_555
C4 C5 1_555 1_555
C5 C6 1_555 1_555
C6 O1 1_555 1_555
C7 C8 1_555 1_555
C8 C9 1_555 1_555
C9 H7 1_555 1_555
C10 C8 1_555 1_555
C11 N2 1_555 1_555
C12 C13 1_555 1_555
C13 C14 1_555 1_555
C14 O3 1_555 1_555
C15 C16 1_555 1_555
C16 C12 1_555 1_555
C17 C13 1_555 1_555
C18 C16 1_555 1_555
C19 N4 1_555 1_555
C20 C21 1_555 1_555
C21 H23 1_555 1_555
C22 C20 1_555 1_555
N1 C2 1_555 1_555
N2 C7 1_555 1_555
N3 C10 1_555 1_555
N4 C17 1_555 1_555
O1 C7 1_555 1_555
O2 C10 1_555 1_555
O3 C15 1_555 1_555
O4 C19 1_555 1_555
O5 C19 1_555 1_555
H1 C1 1_555 1_555
H2 C1 1_555 1_555
H3 C1 1_555 1_555
H4 C3 1_555 1_555
H5 C4 1_555 1_555
H6 C5 1_555 1_555
H8 C9 1_555 1_555
H9 C9 1_555 1_555
H10 C11 1_555 1_555
H11 C12 1_555 1_555
H12 C13 1_555 1_555
H13 C14 1_555 1_555
H14 C14 1_555 1_555
H15 C15 1_555 1_555
H16 C15 1_555 1_555
H17 C16 1_555 1_555
H18 C17 1_555 1_555
H19 C17 1_555 1_555
H20 C18 1_555 1_555
H21 C18 1_555 1_555
H22 C20 1_555 1_555
H24 C21 1_555 1_555
H25 C21 1_555 1_555
H26 C22 1_555 1_555
H27 C22 1_555 1_555
H28 C22 1_555 1_555
C3 N1 1_555 1_555
C11 N3 1_555 1_555
C12 O2 1_555 1_555
C18 N4 1_555 1_555
C20 O5 1_555 1_555

#END
