
#######################################################################
#
#                 Cambridge Crystallographic Data Centre
#                                CCDC 
#
#######################################################################
#
# If this CIF has been generated from an entry in the Cambridge 
# Structural Database, then it will include bibliographic, chemical, 
# crystal, experimental, refinement or atomic coordinate data resulting 
# from the CCDC's data processing and validation procedures.
#
#######################################################################

data_VAPVUG
_chemical_formula_moiety         'C27 H28 O5,0.5(C1 H2 Cl2)'
_chemical_name_systematic        
'dimethyl 23-oxopentacyclo[16.4.1.0^2,15^.0^6,14^.0^8,13^]tricosa-8,10,12,15,19,21-hexaene-4,4-dicarboxylate dichloromethane solvate'
_symmetry_cell_setting           monoclinic
_symmetry_space_group_name_H-M   'C 2'
_symmetry_Int_Tables_number      5
_space_group_name_Hall           'C 2y'
loop_
_symmetry_equiv_pos_site_id
_symmetry_equiv_pos_as_xyz
1 x,y,z
2 -x,y,-z
3 1/2+x,1/2+y,z
4 1/2-x,1/2+y,-z
_cell_length_a                   21.4552(6)
_cell_length_b                   10.5783(3)
_cell_length_c                   22.0392(6)
_cell_angle_alpha                90
_cell_angle_beta                 94.087(2)
_cell_angle_gamma                90
_cell_volume                     4989.29
_exptl_crystal_colour            colorless
_exptl_crystal_description       block
_cell_formula_units_Z            8
loop_
_atom_site_label
_atom_site_type_symbol
_atom_site_fract_x
_atom_site_fract_y
_atom_site_fract_z
O1 O 0.07503(18) -0.0721(5) 0.45461(18)
O2 O 0.1159(2) -0.2618(6) 0.4727(2)
O3 O -0.00346(17) -0.2954(5) 0.3801(2)
O4 O 0.00104(17) -0.1698(6) 0.3003(2)
O5 O 0.29040(18) 0.2041(5) 0.3229(2)
C1 C 0.0971(2) -0.1826(6) 0.4375(2)
C2 C 0.09412(19) -0.1953(5) 0.3688(2)
C3 C 0.0249(2) -0.2161(5) 0.3456(3)
C4 C -0.0673(3) -0.3255(10) 0.3588(4)
H1 H -0.0886 -0.3616 0.3916
H2 H -0.0671 -0.3851 0.3260
H3 H -0.0884 -0.2498 0.3449
C5 C 0.11558(19) -0.0743(5) 0.3383(2)
H4 H 0.0814 -0.0141 0.3372
H5 H 0.1231 -0.0944 0.2965
C6 C 0.17427(18) -0.0087(4) 0.36736(19)
H6 H 0.1645 0.0220 0.4075
C7 C 0.1907(2) 0.1085(5) 0.3284(2)
H7 H 0.1985 0.0785 0.2876
C8 C 0.2503(2) 0.1706(5) 0.3555(2)
C9 C 0.2578(3) 0.1881(5) 0.4236(3)
H8 H 0.2941 0.2433 0.4315
C10 C 0.2741(3) 0.0614(6) 0.4570(2)
H9 H 0.3139 0.0715 0.4803
H10 H 0.2427 0.0453 0.4856
C11 C 0.2782(2) -0.0526(5) 0.4165(2)
H11 H 0.3146 -0.1004 0.4202
C12 C 0.23302(19) -0.0895(4) 0.37580(18)
C13 C 0.23626(19) -0.2050(4) 0.3366(2)
H12 H 0.2172 -0.1853 0.2960
C14 C 0.19983(19) -0.3177(5) 0.3632(2)
H13 H 0.2079 -0.3160 0.4076
C15 C 0.1291(2) -0.3149(5) 0.3492(2)
H14 H 0.1114 -0.3874 0.3686
H15 H 0.1207 -0.3252 0.3056
C16 C 0.2303(3) -0.4364(5) 0.3398(3)
H16 H 0.2294 -0.5049 0.3690
H17 H 0.2097 -0.4636 0.3014
C17 C 0.2966(2) -0.3933(6) 0.3320(3)
C18 C 0.3003(2) -0.2637(5) 0.3299(2)
C19 C 0.3563(2) -0.2024(6) 0.3203(2)
H18 H 0.3587 -0.1147 0.3182
C20 C 0.4089(3) -0.2786(8) 0.3141(3)
H19 H 0.4472 -0.2408 0.3083
C21 C 0.4050(3) -0.4079(8) 0.3162(3)
H20 H 0.4404 -0.4561 0.3110
C22 C 0.3503(3) -0.4667(7) 0.3256(3)
H21 H 0.3484 -0.5544 0.3278
C23 C 0.2053(4) 0.2506(8) 0.4516(4)
H22 H 0.2114 0.2626 0.4934
C24 C 0.1500(4) 0.2933(9) 0.4264(4)
H23 H 0.1253 0.3353 0.4530
C25 C 0.1237(3) 0.2838(6) 0.3655(4)
H24 H 0.0910 0.3387 0.3547
C26 C 0.1404(2) 0.2058(5) 0.3220(3)
H25 H 0.1186 0.2128 0.2842
C27 C 0.0813(3) -0.0455(11) 0.5189(3)
H26 H 0.0648 -0.1149 0.5408
H27 H 0.0586 0.0301 0.5271
H28 H 0.1246 -0.0339 0.5317
O6 O 0.4238(2) 0.1110(5) 0.0524(2)
O7 O 0.3826(2) -0.0765(6) 0.0290(2)
O8 O 0.5030(2) -0.0949(7) 0.1219(3)
O9 O 0.4845(2) -0.0278(7) 0.2121(3)
O10 O 0.2080(2) 0.3908(6) 0.1783(3)
C28 C 0.4002(2) -0.0013(7) 0.0664(3)
C29 C 0.4001(2) -0.0205(5) 0.1350(2)
C30 C 0.4675(2) -0.0462(7) 0.1601(4)
C31 C 0.5652(4) -0.1357(14) 0.1502(7)
H29 H 0.5765 -0.0836 0.1849
H30 H 0.5962 -0.1274 0.1210
H31 H 0.5629 -0.2224 0.1628
C32 C 0.3772(2) 0.0985(5) 0.1669(2)
H32 H 0.3676 0.0753 0.2078
H33 H 0.4114 0.1588 0.1706
C33 C 0.3199(2) 0.1650(5) 0.13603(19)
H34 H 0.3316 0.1942 0.0962
C34 C 0.3048(2) 0.2851(5) 0.1737(2)
H35 H 0.2964 0.2575 0.2148
C35 C 0.2473(3) 0.3509(6) 0.1465(3)
C36 C 0.2392(3) 0.3671(6) 0.0783(3)
H36 H 0.2032 0.4229 0.0702
C37 C 0.2227(3) 0.2402(6) 0.0447(3)
H37 H 0.1835 0.2517 0.0207
H38 H 0.2546 0.2238 0.0166
C38 C 0.2170(2) 0.1249(5) 0.0837(2)
H39 H 0.1806 0.0773 0.0785
C39 C 0.2612(2) 0.0870(5) 0.12534(19)
C40 C 0.2561(2) -0.0340(5) 0.16094(19)
H40 H 0.2734 -0.0190 0.2027
C41 C 0.2939(2) -0.1420(5) 0.1334(2)
H41 H 0.2872 -0.1365 0.0890
C42 C 0.3641(2) -0.1416(5) 0.1493(3)
H42 H 0.3821 -0.2112 0.1280
H43 H 0.3711 -0.1585 0.1925
C43 C 0.2624(3) -0.2644(6) 0.1537(3)
H44 H 0.2647 -0.3305 0.1234
H45 H 0.2816 -0.2944 0.1922
C44 C 0.1959(3) -0.2244(6) 0.1598(2)
C45 C 0.1918(2) -0.0939(5) 0.1635(2)
C46 C 0.1347(2) -0.0383(7) 0.1714(2)
H46 H 0.1313 0.0491 0.1742
C47 C 0.0826(3) -0.1139(8) 0.1750(3)
H47 H 0.0440 -0.0771 0.1805
C48 C 0.0873(3) -0.2423(8) 0.1705(3)
H48 H 0.0515 -0.2915 0.1725
C49 C 0.1433(3) -0.3005(8) 0.1631(3)
H49 H 0.1461 -0.3880 0.1604
C50 C 0.2925(5) 0.4287(9) 0.0506(4)
H50 H 0.2858 0.4428 0.0090
C51 C 0.3474(4) 0.4670(9) 0.0739(4)
H51 H 0.3719 0.5082 0.0469
C52 C 0.3753(3) 0.4548(7) 0.1352(4)
H52 H 0.4100 0.5055 0.1451
C53 C 0.3573(3) 0.3790(6) 0.1794(3)
H53 H 0.3795 0.3852 0.2172
C54 C 0.4190(4) 0.1447(12) -0.0108(4)
H54 H 0.4427 0.2202 -0.0166
H55 H 0.3760 0.1592 -0.0239
H56 H 0.4351 0.0772 -0.0343
C55 C 0.5000 -0.312(2) 0.0000
H57 H 0.5321 -0.2583 -0.0152
Cl1 Cl 0.53204(18) -0.4080(5) 0.05798(18)
H57A H 0.4679 -0.2583 0.0152
Cl1A Cl 0.46796(18) -0.4080(5) -0.05798(18)
C56 C 0.5000 -0.0231(16) 0.5000
H59 H 0.4687 0.0309 0.5163
Cl2 Cl 0.46529(12) -0.1134(4) 0.44218(12)
H59A H 0.5313 0.0309 0.4837
Cl2A Cl 0.53471(12) -0.1134(4) 0.55782(12)
H58? H 0.5321 -0.2583 -0.0152
H60? H 0.4687 0.0309 0.5163
loop_
_geom_bond_atom_site_label_1
_geom_bond_atom_site_label_2
_geom_bond_site_symmetry_1
_geom_bond_site_symmetry_2
O1 C1 1_555 1_555
O2 C1 1_555 1_555
O3 C3 1_555 1_555
O4 C3 1_555 1_555
O5 C8 1_555 1_555
C1 C2 1_555 1_555
C2 C3 1_555 1_555
C4 O3 1_555 1_555
H1 C4 1_555 1_555
H2 C4 1_555 1_555
H3 C4 1_555 1_555
C5 C2 1_555 1_555
H4 C5 1_555 1_555
H5 C5 1_555 1_555
C6 C5 1_555 1_555
H6 C6 1_555 1_555
C7 C6 1_555 1_555
H7 C7 1_555 1_555
C8 C7 1_555 1_555
C9 C8 1_555 1_555
H8 C9 1_555 1_555
C10 C9 1_555 1_555
H9 C10 1_555 1_555
H10 C10 1_555 1_555
C11 C10 1_555 1_555
H11 C11 1_555 1_555
C12 C6 1_555 1_555
C13 C12 1_555 1_555
H12 C13 1_555 1_555
C14 C13 1_555 1_555
H13 C14 1_555 1_555
C15 C2 1_555 1_555
H14 C15 1_555 1_555
H15 C15 1_555 1_555
C16 C14 1_555 1_555
H16 C16 1_555 1_555
H17 C16 1_555 1_555
C17 C16 1_555 1_555
C18 C13 1_555 1_555
C19 C18 1_555 1_555
H18 C19 1_555 1_555
C20 C19 1_555 1_555
H19 C20 1_555 1_555
C21 C20 1_555 1_555
H20 C21 1_555 1_555
C22 C17 1_555 1_555
H21 C22 1_555 1_555
C23 C9 1_555 1_555
H22 C23 1_555 1_555
C24 C23 1_555 1_555
H23 C24 1_555 1_555
C25 C24 1_555 1_555
H24 C25 1_555 1_555
C26 C7 1_555 1_555
H25 C26 1_555 1_555
C27 O1 1_555 1_555
H26 C27 1_555 1_555
H27 C27 1_555 1_555
H28 C27 1_555 1_555
O6 C28 1_555 1_555
O7 C28 1_555 1_555
O8 C30 1_555 1_555
O9 C30 1_555 1_555
O10 C35 1_555 1_555
C28 C29 1_555 1_555
C29 C30 1_555 1_555
C31 O8 1_555 1_555
H29 C31 1_555 1_555
H30 C31 1_555 1_555
H31 C31 1_555 1_555
C32 C29 1_555 1_555
H32 C32 1_555 1_555
H33 C32 1_555 1_555
C33 C32 1_555 1_555
H34 C33 1_555 1_555
C34 C33 1_555 1_555
H35 C34 1_555 1_555
C35 C34 1_555 1_555
C36 C35 1_555 1_555
H36 C36 1_555 1_555
C37 C36 1_555 1_555
H37 C37 1_555 1_555
H38 C37 1_555 1_555
C38 C37 1_555 1_555
H39 C38 1_555 1_555
C39 C33 1_555 1_555
C40 C39 1_555 1_555
H40 C40 1_555 1_555
C41 C40 1_555 1_555
H41 C41 1_555 1_555
C42 C29 1_555 1_555
H42 C42 1_555 1_555
H43 C42 1_555 1_555
C43 C41 1_555 1_555
H44 C43 1_555 1_555
H45 C43 1_555 1_555
C44 C43 1_555 1_555
C45 C40 1_555 1_555
C46 C45 1_555 1_555
H46 C46 1_555 1_555
C47 C46 1_555 1_555
H47 C47 1_555 1_555
C48 C47 1_555 1_555
H48 C48 1_555 1_555
C49 C44 1_555 1_555
H49 C49 1_555 1_555
C50 C36 1_555 1_555
H50 C50 1_555 1_555
C51 C50 1_555 1_555
H51 C51 1_555 1_555
C52 C51 1_555 1_555
H52 C52 1_555 1_555
C53 C34 1_555 1_555
H53 C53 1_555 1_555
C54 O6 1_555 1_555
H54 C54 1_555 1_555
H55 C54 1_555 1_555
H56 C54 1_555 1_555
C55 H57 1_555 1_555
Cl1 C55 1_555 1_555
C56 H59 1_555 1_555
Cl2 C56 1_555 1_555
H57A C55 1_555 1_555
Cl1A C55 1_555 1_555
H59A C56 1_555 1_555
Cl2A C56 1_555 1_555
C11 C12 1_555 1_555
C14 C15 1_555 1_555
C17 C18 1_555 1_555
C21 C22 1_555 1_555
C25 C26 1_555 1_555
C38 C39 1_555 1_555
C41 C42 1_555 1_555
C44 C45 1_555 1_555
C48 C49 1_555 1_555
C52 C53 1_555 1_555

#END
