
#######################################################################
#
#                 Cambridge Crystallographic Data Centre
#                                CCDC 
#
#######################################################################
#
# If this CIF has been generated from an entry in the Cambridge 
# Structural Database, then it will include bibliographic, chemical, 
# crystal, experimental, refinement or atomic coordinate data resulting 
# from the CCDC's data processing and validation procedures.
#
#######################################################################

data_VAQJEC
_chemical_formula_moiety         'C24 H18 N9 P1 S1'
_chemical_name_systematic        (3-(2-Pyridyl)pyrazolyl)thiophosphine
_symmetry_cell_setting           triclinic
_symmetry_space_group_name_H-M   'P -1'
_symmetry_Int_Tables_number      2
_space_group_name_Hall           '-P 1'
loop_
_symmetry_equiv_pos_site_id
_symmetry_equiv_pos_as_xyz
1 x,y,z
2 -x,-y,-z
_cell_length_a                   9.863(2)
_cell_length_b                   11.363(4)
_cell_length_c                   11.449(2)
_cell_angle_alpha                74.36(2)
_cell_angle_beta                 71.99(2)
_cell_angle_gamma                80.00(2)
_cell_volume                     1169.35
_cell_formula_units_Z            2
loop_
_atom_site_label
_atom_site_type_symbol
_atom_site_fract_x
_atom_site_fract_y
_atom_site_fract_z
P1 P 0.3429(1) 0.9736(1) 0.2221(1)
S1 S 0.3147(1) 0.9220(1) 0.0871(1)
N1 N 0.3285(3) 1.1293(3) 0.1976(3)
N2 N 0.3262(3) 1.1896(3) 0.2889(3)
C1 C 0.3480(4) 1.3050(3) 0.2238(3)
C2 C 0.3645(4) 1.3201(3) 0.0939(3)
C3 C 0.3526(4) 1.2076(3) 0.0796(3)
N3 N 0.4008(3) 1.5061(3) 0.2045(3)
C4 C 0.3563(4) 1.4014(3) 0.2854(3)
C5 C 0.3174(5) 1.3865(4) 0.4152(4)
C6 C 0.3285(5) 1.4823(4) 0.4644(4)
C7 C 0.3755(4) 1.5902(3) 0.3826(4)
C8 C 0.4109(4) 1.5977(4) 0.2542(4)
N4 N 0.2290(3) 0.9197(3) 0.3647(3)
N5 N 0.2661(3) 0.8973(3) 0.4763(3)
C9 C 0.1516(4) 0.8512(3) 0.5642(3)
C10 C 0.0420(4) 0.8431(3) 0.5116(4)
C11 C 0.0938(4) 0.8854(3) 0.3850(4)
N6 N 0.0223(4) 0.8424(3) 0.7807(3)
C12 C 0.1502(4) 0.8165(3) 0.6983(3)
C13 C 0.2705(4) 0.7627(4) 0.7378(4)
C14 C 0.2646(5) 0.7353(4) 0.8638(4)
C15 C 0.1347(5) 0.7650(4) 0.9495(4)
C16 C 0.0207(5) 0.8164(4) 0.9024(4)
N7 N 0.5058(3) 0.9338(3) 0.2509(3)
N8 N 0.5877(3) 0.8307(3) 0.2159(3)
C17 C 0.6984(4) 0.8163(3) 0.2630(3)
C18 C 0.6903(4) 0.9060(3) 0.3300(4)
C19 C 0.5670(4) 0.9781(4) 0.3221(4)
N9 N 0.9158(3) 0.7038(3) 0.2984(3)
C20 C 0.8107(4) 0.7112(3) 0.2463(3)
C21 C 0.8015(4) 0.6236(3) 0.1836(3)
C22 C 0.9040(5) 0.5241(4) 0.1787(4)
C23 C 1.0105(5) 0.5127(4) 0.2361(4)
C24 C 1.0130(5) 0.6052(4) 0.2937(4)
H1 H 0.3806(4) 1.3934(3) 0.0298(3)
H2 H 0.3596(4) 1.1869(3) 0.0027(3)
H3 H 0.2836(5) 1.3119(4) 0.4696(4)
H4 H 0.3042(5) 1.4737(4) 0.5531(4)
H5 H 0.3834(4) 1.6576(3) 0.4137(4)
H6 H 0.4441(4) 1.6718(4) 0.1981(4)
H7 H -0.0490(4) 0.8142(3) 0.5557(4)
H8 H 0.0467(4) 0.8904(3) 0.3227(4)
H9 H 0.3576(4) 0.7446(4) 0.6776(4)
H10 H 0.3461(5) 0.6974(4) 0.8920(4)
H11 H 0.1262(5) 0.7499(4) 1.0371(4)
H12 H -0.0672(5) 0.8353(4) 0.9611(4)
H13 H 0.7567(4) 0.9141(3) 0.3717(4)
H14 H 0.5294(4) 1.0467(4) 0.3588(4)
H15 H 0.7263(4) 0.6326(3) 0.1454(3)
H16 H 0.9009(5) 0.4640(4) 0.1360(4)
H17 H 1.0803(5) 0.4436(4) 0.2365(4)
H18 H 1.0879(5) 0.5984(4) 0.3318(4)
loop_
_geom_bond_atom_site_label_1
_geom_bond_atom_site_label_2
_geom_bond_site_symmetry_1
_geom_bond_site_symmetry_2
P1 S1 1_555 1_555
N1 P1 1_555 1_555
N2 N1 1_555 1_555
C1 N2 1_555 1_555
C2 C1 1_555 1_555
C3 N1 1_555 1_555
N3 C4 1_555 1_555
C4 C1 1_555 1_555
C5 C4 1_555 1_555
C6 C5 1_555 1_555
C7 C6 1_555 1_555
C8 N3 1_555 1_555
N4 P1 1_555 1_555
N5 N4 1_555 1_555
C9 N5 1_555 1_555
C10 C9 1_555 1_555
C11 N4 1_555 1_555
N6 C12 1_555 1_555
C12 C9 1_555 1_555
C13 C12 1_555 1_555
C14 C13 1_555 1_555
C15 C14 1_555 1_555
C16 N6 1_555 1_555
N7 P1 1_555 1_555
N8 N7 1_555 1_555
C17 N8 1_555 1_555
C18 C17 1_555 1_555
C19 N7 1_555 1_555
N9 C20 1_555 1_555
C20 C17 1_555 1_555
C21 C20 1_555 1_555
C22 C21 1_555 1_555
C23 C22 1_555 1_555
C24 N9 1_555 1_555
H1 C2 1_555 1_555
H2 C3 1_555 1_555
H3 C5 1_555 1_555
H4 C6 1_555 1_555
H5 C7 1_555 1_555
H6 C8 1_555 1_555
H7 C10 1_555 1_555
H8 C11 1_555 1_555
H9 C13 1_555 1_555
H10 C14 1_555 1_555
H11 C15 1_555 1_555
H12 C16 1_555 1_555
H13 C18 1_555 1_555
H14 C19 1_555 1_555
H15 C21 1_555 1_555
H16 C22 1_555 1_555
H17 C23 1_555 1_555
H18 C24 1_555 1_555
C2 C3 1_555 1_555
C7 C8 1_555 1_555
C10 C11 1_555 1_555
C15 C16 1_555 1_555
C18 C19 1_555 1_555
C23 C24 1_555 1_555

#END
