
#######################################################################
#
#                 Cambridge Crystallographic Data Centre
#                                CCDC 
#
#######################################################################
#
# If this CIF has been generated from an entry in the Cambridge 
# Structural Database, then it will include bibliographic, chemical, 
# crystal, experimental, refinement or atomic coordinate data resulting 
# from the CCDC's data processing and validation procedures.
#
#######################################################################

data_VAQLAD
_chemical_formula_moiety         'C36 H42 N2 P4,C6 H14'
_chemical_name_systematic        
'1,4-dicyclohexyl-2,3,5,6-tetraphenyl-1,4,2,3,5,6-diazatetraphosphinane n-hexane solvate'
_symmetry_cell_setting           monoclinic
_symmetry_space_group_name_H-M   'P 21/c'
_symmetry_Int_Tables_number      14
_space_group_name_Hall           '-P 2ybc'
loop_
_symmetry_equiv_pos_site_id
_symmetry_equiv_pos_as_xyz
1 x,y,z
2 -x,1/2+y,1/2-z
3 -x,-y,-z
4 x,1/2-y,1/2+z
_cell_length_a                   17.4215(5)
_cell_length_b                   10.1355(3)
_cell_length_c                   22.8418(7)
_cell_angle_alpha                90
_cell_angle_beta                 95.1470(14)
_cell_angle_gamma                90
_cell_volume                     4017.04
_exptl_crystal_colour            colorless
_exptl_crystal_description       plate
_cell_formula_units_Z            4
loop_
_atom_site_label
_atom_site_type_symbol
_atom_site_fract_x
_atom_site_fract_y
_atom_site_fract_z
C1 C 0.29492(10) 0.24940(18) 0.13393(8)
H1 H 0.3523 0.2397 0.1378
C2 C 0.26840(11) 0.2308(2) 0.06928(8)
H2 H 0.2117 0.2400 0.0633
H3 H 0.2821 0.1409 0.0568
C3 C 0.30625(13) 0.3330(2) 0.03181(9)
H4 H 0.3626 0.3175 0.0346
H5 H 0.2861 0.3225 -0.0098
C4 C 0.29064(14) 0.4723(2) 0.05175(10)
H6 H 0.2349 0.4914 0.0444
H7 H 0.3188 0.5355 0.0285
C5 C 0.31549(13) 0.4913(2) 0.11666(10)
H8 H 0.3009 0.5809 0.1288
H9 H 0.3722 0.4834 0.1233
C6 C 0.27764(11) 0.38856(19) 0.15396(9)
H10 H 0.2971 0.3994 0.1957
H11 H 0.2212 0.4027 0.1506
C7 C 0.13952(10) -0.03206(18) 0.15197(8)
C8 C 0.07168(11) -0.0885(2) 0.16883(9)
H12 H 0.0409 -0.0414 0.1940
C9 C 0.04931(14) -0.2126(2) 0.14893(10)
H13 H 0.0040 -0.2514 0.1616
C10 C 0.09193(15) -0.2804(2) 0.11097(11)
H14 H 0.0761 -0.3658 0.0976
C11 C 0.15779(14) -0.2242(2) 0.09234(10)
H15 H 0.1869 -0.2704 0.0657
C12 C 0.18138(11) -0.10042(19) 0.11255(8)
H16 H 0.2265 -0.0619 0.0994
C13 C 0.17404(10) 0.30876(18) 0.28028(8)
C14 C 0.13051(12) 0.4114(2) 0.25364(9)
H17 H 0.0847 0.3920 0.2294
C15 C 0.15332(15) 0.5411(2) 0.26216(10)
H18 H 0.1239 0.6103 0.2431
C16 C 0.21889(14) 0.5700(2) 0.29836(10)
H19 H 0.2347 0.6591 0.3041
C17 C 0.26127(12) 0.4701(2) 0.32607(10)
H20 H 0.3059 0.4904 0.3514
C18 C 0.23900(10) 0.33934(18) 0.31710(8)
H21 H 0.2686 0.2707 0.3364
C19 C 0.15908(10) -0.04507(17) 0.35098(8)
H22 H 0.1992 -0.1063 0.3696
C20 C 0.13284(11) 0.04181(19) 0.39982(8)
H23 H 0.0944 0.1064 0.3829
H24 H 0.1775 0.0915 0.4185
C21 C 0.09719(13) -0.0416(2) 0.44637(9)
H25 H 0.1378 -0.0971 0.4671
H26 H 0.0767 0.0176 0.4757
C22 C 0.03270(13) -0.1297(2) 0.41987(10)
H27 H 0.0143 -0.1866 0.4510
H28 H -0.0110 -0.0744 0.4037
C23 C 0.05980(12) -0.2155(2) 0.37138(10)
H29 H 0.0160 -0.2679 0.3532
H30 H 0.0998 -0.2775 0.3882
C24 C 0.09289(11) -0.13050(18) 0.32445(9)
H31 H 0.1116 -0.1882 0.2938
H32 H 0.0518 -0.0732 0.3056
C25 C 0.34442(10) -0.06945(18) 0.33260(8)
C26 C 0.35626(11) 0.0193(2) 0.37894(8)
H33 H 0.3208 0.0894 0.3825
C27 C 0.41923(12) 0.0064(3) 0.41982(9)
H34 H 0.4271 0.0677 0.4512
C28 C 0.47067(13) -0.0959(3) 0.41493(10)
H35 H 0.5139 -0.1047 0.4431
C29 C 0.45963(13) -0.1850(3) 0.36960(10)
H36 H 0.4953 -0.2549 0.3664
C30 C 0.39638(11) -0.1729(2) 0.32848(9)
H37 H 0.3885 -0.2352 0.2975
C31 C 0.40222(10) 0.00715(18) 0.20557(8)
C32 C 0.47757(11) 0.0352(2) 0.22777(9)
H38 H 0.4874 0.1083 0.2533
C33 C 0.53831(11) -0.0429(2) 0.21286(10)
H39 H 0.5895 -0.0233 0.2284
C34 C 0.52445(11) -0.1486(2) 0.17561(9)
H40 H 0.5661 -0.2017 0.1653
C35 C 0.45024(12) -0.1776(2) 0.15329(10)
H41 H 0.4409 -0.2506 0.1275
C36 C 0.38932(11) -0.1007(2) 0.16831(9)
H42 H 0.3383 -0.1218 0.1531
N1 N 0.26397(8) 0.14303(14) 0.17072(6)
N2 N 0.19707(8) 0.03594(14) 0.30665(6)
P1 P 0.16559(2) 0.13808(4) 0.17256(2)
P2 P 0.13674(2) 0.14173(4) 0.26510(2)
P3 P 0.26641(2) -0.05379(4) 0.27289(2)
P4 P 0.32682(2) 0.11209(4) 0.23280(2)
C37 C 0.15266(14) 0.4162(3) 0.44334(11)
H43 H 0.1316 0.4289 0.4025
H44 H 0.1870 0.3394 0.4458
H45 H 0.1817 0.4948 0.4570
C38 C 0.08751(12) 0.3937(2) 0.48151(9)
H46 H 0.1092 0.3778 0.5225
H47 H 0.0586 0.3137 0.4677
C39 C 0.03258(11) 0.5095(2) 0.48050(8)
H48 H 0.0104 0.5242 0.4396
H49 H 0.0619 0.5897 0.4934
C37B C -0.15266(14) 0.5838(3) 0.55666(11)
H43B H -0.1316 0.5711 0.5975
H44B H -0.1870 0.6606 0.5542
H45B H -0.1817 0.5052 0.5430
C38B C -0.08751(12) 0.6063(2) 0.51849(9)
H46B H -0.1092 0.6222 0.4775
H47B H -0.0586 0.6863 0.5323
C39B C -0.03258(11) 0.4905(2) 0.51950(8)
H48B H -0.0104 0.4758 0.5604
H49B H -0.0619 0.4103 0.5066
C40 C 0.6578(2) 0.3470(4) 0.51426(19)
H50 H 0.7110 0.3605 0.5310
H51 H 0.6373 0.2660 0.5304
H52 H 0.6566 0.3392 0.4714
C41 C 0.6079(2) 0.4653(6) 0.5299(4)
H53 H 0.6086 0.4743 0.5731
H54 H 0.6280 0.5479 0.5139
C42 C 0.52550(18) 0.4384(2) 0.5027(2)
H55 H 0.5281 0.3999 0.4631
H56 H 0.5012 0.3723 0.5270
C40B C 0.3422(2) 0.6530(4) 0.48574(19)
H50B H 0.2890 0.6395 0.4690
H51B H 0.3627 0.7340 0.4696
H52B H 0.3434 0.6608 0.5286
C41B C 0.3921(2) 0.5347(6) 0.4701(4)
H53B H 0.3914 0.5257 0.4269
H54B H 0.3720 0.4521 0.4861
C42B C 0.47450(18) 0.5616(2) 0.4973(2)
H55B H 0.4719 0.6001 0.5369
H56B H 0.4988 0.6277 0.4730
H57? H 0.7124 0.3641 0.5102
H58? H 0.6508 0.3258 0.5553
H59? H 0.6404 0.2725 0.4891
C43? C 0.6103(2) 0.4701(5) 0.4956(4)
H60? H 0.6275 0.5461 0.5206
H61? H 0.6170 0.4926 0.4542
H62? H 0.5065 0.3739 0.4722
H63? H 0.5215 0.3973 0.5416
loop_
_geom_bond_atom_site_label_1
_geom_bond_atom_site_label_2
_geom_bond_site_symmetry_1
_geom_bond_site_symmetry_2
C1 H1 1_555 1_555
C2 C1 1_555 1_555
H2 C2 1_555 1_555
H3 C2 1_555 1_555
C3 C2 1_555 1_555
H4 C3 1_555 1_555
H5 C3 1_555 1_555
C4 C3 1_555 1_555
H6 C4 1_555 1_555
H7 C4 1_555 1_555
C5 C4 1_555 1_555
H8 C5 1_555 1_555
H9 C5 1_555 1_555
C6 C1 1_555 1_555
H10 C6 1_555 1_555
H11 C6 1_555 1_555
C7 C8 1_555 1_555
C8 H12 1_555 1_555
C9 C8 1_555 1_555
H13 C9 1_555 1_555
C10 C9 1_555 1_555
H14 C10 1_555 1_555
C11 C10 1_555 1_555
H15 C11 1_555 1_555
C12 C7 1_555 1_555
H16 C12 1_555 1_555
C13 C14 1_555 1_555
C14 H17 1_555 1_555
C15 C14 1_555 1_555
H18 C15 1_555 1_555
C16 C15 1_555 1_555
H19 C16 1_555 1_555
C17 C16 1_555 1_555
H20 C17 1_555 1_555
C18 C13 1_555 1_555
H21 C18 1_555 1_555
C19 H22 1_555 1_555
C20 C19 1_555 1_555
H23 C20 1_555 1_555
H24 C20 1_555 1_555
C21 C20 1_555 1_555
H25 C21 1_555 1_555
H26 C21 1_555 1_555
C22 C21 1_555 1_555
H27 C22 1_555 1_555
H28 C22 1_555 1_555
C23 C22 1_555 1_555
H29 C23 1_555 1_555
H30 C23 1_555 1_555
C24 C19 1_555 1_555
H31 C24 1_555 1_555
H32 C24 1_555 1_555
C25 C26 1_555 1_555
C26 H33 1_555 1_555
C27 C26 1_555 1_555
H34 C27 1_555 1_555
C28 C27 1_555 1_555
H35 C28 1_555 1_555
C29 C28 1_555 1_555
H36 C29 1_555 1_555
C30 C25 1_555 1_555
H37 C30 1_555 1_555
C31 C32 1_555 1_555
C32 H38 1_555 1_555
C33 C32 1_555 1_555
H39 C33 1_555 1_555
C34 C33 1_555 1_555
H40 C34 1_555 1_555
C35 C34 1_555 1_555
H41 C35 1_555 1_555
C36 C31 1_555 1_555
H42 C36 1_555 1_555
N1 C1 1_555 1_555
N2 C19 1_555 1_555
P1 C7 1_555 1_555
P2 C13 1_555 1_555
P3 C25 1_555 1_555
P4 C31 1_555 1_555
C37 H43 1_555 1_555
H44 C37 1_555 1_555
H45 C37 1_555 1_555
C38 C37 1_555 1_555
H46 C38 1_555 1_555
H47 C38 1_555 1_555
C39 C38 1_555 1_555
H48 C39 1_555 1_555
H49 C39 1_555 1_555
C40 H50 1_555 1_555
H51 C40 1_555 1_555
H52 C40 1_555 1_555
C41 C40 1_555 1_555
H53 C41 1_555 1_555
H54 C41 1_555 1_555
C42 C41 1_555 1_555
H55 C42 1_555 1_555
H56 C42 1_555 1_555
C37B H43B 1_555 1_555
H44B C37B 1_555 1_555
H45B C37B 1_555 1_555
C38B C37B 1_555 1_555
H46B C38B 1_555 1_555
H47B C38B 1_555 1_555
C39B C39 1_555 1_555
H48B C39B 1_555 1_555
H49B C39B 1_555 1_555
C40B H50B 1_555 1_555
H51B C40B 1_555 1_555
H52B C40B 1_555 1_555
C41B C40B 1_555 1_555
H53B C41B 1_555 1_555
H54B C41B 1_555 1_555
C42B C42 1_555 1_555
H55B C42B 1_555 1_555
H56B C42B 1_555 1_555
C5 C6 1_555 1_555
C11 C12 1_555 1_555
C17 C18 1_555 1_555
C23 C24 1_555 1_555
C29 C30 1_555 1_555
C35 C36 1_555 1_555
N1 P1 1_555 1_555
N1 P4 1_555 1_555
N2 P2 1_555 1_555
N2 P3 1_555 1_555
P1 P2 1_555 1_555
P3 P4 1_555 1_555
C38B C39B 1_555 1_555
C41B C42B 1_555 1_555

#END
