
#######################################################################
#
#                 Cambridge Crystallographic Data Centre
#                                CCDC 
#
#######################################################################
#
# If this CIF has been generated from an entry in the Cambridge 
# Structural Database, then it will include bibliographic, chemical, 
# crystal, experimental, refinement or atomic coordinate data resulting 
# from the CCDC's data processing and validation procedures.
#
#######################################################################

data_VAQLEH
_chemical_formula_moiety         'C28 H32 N4 P4,2(C1 H2 Cl2)'
_chemical_name_systematic        
'1,3,5,7-tetramethyl-2,4,6,8-tetraphenyl-1,3,5,7,2,4,6,8-tetrazatetraphosphocane dichloromethane solvate'
_symmetry_cell_setting           orthorhombic
_symmetry_space_group_name_H-M   'C m c 21'
_symmetry_Int_Tables_number      36
_space_group_name_Hall           'C 2n -2'
loop_
_symmetry_equiv_pos_site_id
_symmetry_equiv_pos_as_xyz
1 x,y,z
2 -x,-y,1/2+z
3 -x,y,z
4 x,-y,1/2+z
5 1/2+x,1/2+y,z
6 1/2-x,1/2-y,1/2+z
7 1/2-x,1/2+y,z
8 1/2+x,1/2-y,1/2+z
_cell_length_a                   17.6279(4)
_cell_length_b                   12.8066(3)
_cell_length_c                   15.3527(3)
_cell_angle_alpha                90
_cell_angle_beta                 90
_cell_angle_gamma                90
_cell_volume                     3465.93
_exptl_crystal_colour            colorless
_exptl_crystal_description       prism
_cell_formula_units_Z            4
loop_
_atom_site_label
_atom_site_type_symbol
_atom_site_fract_x
_atom_site_fract_y
_atom_site_fract_z
C1 C 1.0000 0.2323(4) 0.2451(3)
C2 C 0.84831(19) 0.3085(2) 0.32904(19)
C3 C 0.8641(2) 0.3955(3) 0.2777(2)
H1 H 0.9138 0.4239 0.2772
C4 C 0.8080(2) 0.4408(3) 0.2274(2)
H2 H 0.8195 0.5001 0.1926
C5 C 0.7354(2) 0.4004(3) 0.2273(2)
H3 H 0.6974 0.4303 0.1910
C6 C 0.7183(2) 0.3165(3) 0.2801(2)
H4 H 0.6681 0.2897 0.2814
C7 C 0.77399(18) 0.2715(3) 0.3311(2)
H5 H 0.7614 0.2146 0.3681
C8 C 0.87683(19) 0.0640(2) 0.3346(2)
H6 H 0.9247 0.0452 0.3063
H7 H 0.8450 0.1029 0.2936
H8 H 0.8504 0.0005 0.3530
C9 C 0.84900(15) -0.0246(2) 0.52594(18)
C10 C 0.77355(15) -0.0082(2) 0.5022(2)
H9 H 0.7599 0.0531 0.4711
C11 C 0.71839(17) -0.0808(2) 0.5237(2)
H10 H 0.6672 -0.0693 0.5067
C12 C 0.73724(16) -0.1697(2) 0.5697(2)
H11 H 0.6995 -0.2202 0.5831
C13 C 0.81141(18) -0.1848(3) 0.5961(2)
H12 H 0.8242 -0.2446 0.6296
C14 C 0.86729(17) -0.1132(3) 0.5741(2)
H13 H 0.9182 -0.1247 0.5920
C15 C 1.0000 -0.0907(3) 0.4338(3)
N1 N 1.0000 0.2623(3) 0.3381(2)
N2 N 0.89252(13) 0.12953(17) 0.41129(16)
N3 N 1.0000 0.0025(2) 0.4904(2)
P1 P 0.92032(4) 0.25727(5) 0.40274(5)
P2 P 0.92038(3) 0.07670(5) 0.50915(4)
C2B C 1.15169(19) 0.3085(2) 0.32904(19)
C3B C 1.1359(2) 0.3955(3) 0.2777(2)
H1B H 1.0862 0.4239 0.2772
C4B C 1.1920(2) 0.4408(3) 0.2274(2)
H2B H 1.1805 0.5001 0.1926
C5B C 1.2646(2) 0.4004(3) 0.2273(2)
H3B H 1.3026 0.4303 0.1910
C6B C 1.2817(2) 0.3165(3) 0.2801(2)
H4B H 1.3319 0.2897 0.2814
C7B C 1.22601(18) 0.2715(3) 0.3311(2)
H5B H 1.2386 0.2146 0.3681
C8B C 1.12317(19) 0.0640(2) 0.3346(2)
H6B H 1.0753 0.0452 0.3063
H7B H 1.1550 0.1029 0.2936
H8B H 1.1496 0.0005 0.3530
C9B C 1.15100(15) -0.0246(2) 0.52594(18)
C10B C 1.22645(15) -0.0082(2) 0.5022(2)
H9B H 1.2401 0.0531 0.4711
C11B C 1.28161(17) -0.0808(2) 0.5237(2)
H10B H 1.3328 -0.0693 0.5067
C12B C 1.26276(16) -0.1697(2) 0.5697(2)
H11B H 1.3005 -0.2202 0.5831
C13B C 1.18859(18) -0.1848(3) 0.5961(2)
H12B H 1.1758 -0.2446 0.6296
C14B C 1.13271(17) -0.1132(3) 0.5741(2)
H13B H 1.0818 -0.1247 0.5920
N2B N 1.10748(13) 0.12953(17) 0.41129(16)
P1B P 1.07968(4) 0.25727(5) 0.40274(5)
P2B P 1.07962(3) 0.07670(5) 0.50915(4)
C16 C 1.0000 0.3018(5) 0.6379(4)
H14 H 1.0453 0.2791 0.6048
Cl1 Cl 1.0000 0.2377(2) 0.73782(12)
Cl2 Cl 1.0000 0.43576(15) 0.64234(16)
H14B H 0.9547 0.2791 0.6048
C17 C 0.0000 0.4317(4) 0.9237(5)
H15 H 0.0000 0.4347 0.8593
H16 H 0.0000 0.5043 0.9459
Cl3 Cl 0.08187(8) 0.36869(11) 0.95888(14)
Cl3B Cl -0.08187(8) 0.36869(11) 0.95888(14)
H17? H 1.0453 0.2791 0.6048
H18? H 1.0322 -0.1448 0.4597
H19? H 0.9481 -0.1171 0.4279
H20? H 1.0198 -0.0719 0.3762
H21? H 0.9689 0.2817 0.2120
H22? H 1.0521 0.2335 0.2228
H23? H 0.9791 0.1618 0.2389
loop_
_geom_bond_atom_site_label_1
_geom_bond_atom_site_label_2
_geom_bond_site_symmetry_1
_geom_bond_site_symmetry_2
C1 N1 1_555 1_555
C2 C3 1_555 1_555
C3 H1 1_555 1_555
C4 C3 1_555 1_555
H2 C4 1_555 1_555
C5 C4 1_555 1_555
H3 C5 1_555 1_555
C6 C5 1_555 1_555
H4 C6 1_555 1_555
C7 C2 1_555 1_555
H5 C7 1_555 1_555
C8 H6 1_555 1_555
H7 C8 1_555 1_555
H8 C8 1_555 1_555
C9 C10 1_555 1_555
C10 H9 1_555 1_555
C11 C10 1_555 1_555
H10 C11 1_555 1_555
C12 C11 1_555 1_555
H11 C12 1_555 1_555
C13 C12 1_555 1_555
H12 C13 1_555 1_555
C14 C9 1_555 1_555
H13 C14 1_555 1_555
C15 N3 1_555 1_555
N1 P1 1_555 1_555
N2 C8 1_555 1_555
N3 P2 1_555 1_555
P1 C2 1_555 1_555
P2 C9 1_555 1_555
C16 H14 1_555 1_555
Cl1 C16 1_555 1_555
Cl2 C16 1_555 1_555
C17 H15 1_555 1_555
H16 C17 1_555 1_555
Cl3 C17 1_555 1_555
C2B C3B 1_555 1_555
C3B H1B 1_555 1_555
C4B C3B 1_555 1_555
H2B C4B 1_555 1_555
C5B C4B 1_555 1_555
H3B C5B 1_555 1_555
C6B C5B 1_555 1_555
H4B C6B 1_555 1_555
C7B C2B 1_555 1_555
H5B C7B 1_555 1_555
C8B H6B 1_555 1_555
H7B C8B 1_555 1_555
H8B C8B 1_555 1_555
C9B C10B 1_555 1_555
C10B H9B 1_555 1_555
C11B C10B 1_555 1_555
H10B C11B 1_555 1_555
C12B C11B 1_555 1_555
H11B C12B 1_555 1_555
C13B C12B 1_555 1_555
H12B C13B 1_555 1_555
C14B C9B 1_555 1_555
H13B C14B 1_555 1_555
N2B C8B 1_555 1_555
P1B N1 1_555 1_555
P2B N3 1_555 1_555
H14B C16 1_555 1_555
Cl3B C17 1_555 1_555
C6 C7 1_555 1_555
C13 C14 1_555 1_555
N2 P1 1_555 1_555
N2 P2 1_555 1_555
C2B P1B 1_555 1_555
C6B C7B 1_555 1_555
C9B P2B 1_555 1_555
C13B C14B 1_555 1_555
N2B P1B 1_555 1_555
N2B P2B 1_555 1_555

#END
