
#######################################################################
#
#                 Cambridge Crystallographic Data Centre
#                                CCDC 
#
#######################################################################
#
# If this CIF has been generated from an entry in the Cambridge 
# Structural Database, then it will include bibliographic, chemical, 
# crystal, experimental, refinement or atomic coordinate data resulting 
# from the CCDC's data processing and validation procedures.
#
#######################################################################

data_VAQPOU
_chemical_formula_moiety         'C18 H35 O8 P1 Si1'
_chemical_name_systematic        
'Diethyl ((8-((t-butyl(dimethyl)silyl)oxy)-9-hydroxy-2,4,10-trioxatricyclo[3.3.1.1^3,7^]dec-6-yl)methyl)phosphonate'
_symmetry_cell_setting           monoclinic
_symmetry_space_group_name_H-M   'P 21/n'
_symmetry_Int_Tables_number      14
_space_group_name_Hall           '-P 2yn'
loop_
_symmetry_equiv_pos_site_id
_symmetry_equiv_pos_as_xyz
1 x,y,z
2 1/2-x,1/2+y,1/2-z
3 -x,-y,-z
4 1/2+x,1/2-y,1/2+z
_cell_length_a                   10.934(3)
_cell_length_b                   9.844(3)
_cell_length_c                   20.898(6)
_cell_angle_alpha                90
_cell_angle_beta                 95.979(10)
_cell_angle_gamma                90
_cell_volume                     2237.11
_exptl_crystal_colour            colorless
_exptl_crystal_description       prism
_cell_formula_units_Z            4
loop_
_atom_site_label
_atom_site_type_symbol
_atom_site_fract_x
_atom_site_fract_y
_atom_site_fract_z
P1 P 1.22139(3) 0.78253(4) 0.130430(18)
Si1 Si 0.74711(4) 1.11802(5) 0.13846(2)
O1 O 0.84565(11) 0.70034(12) 0.12337(5)
O2 O 1.25593(11) 0.90197(13) 0.09372(6)
O3 O 0.85770(10) 0.57539(12) 0.03015(5)
O4 O 0.73402(10) 0.96450(12) 0.10698(5)
O5 O 0.68786(10) 0.71308(12) 0.03999(6)
O6 O 0.88941(12) 0.87664(14) -0.06743(5)
H1 H 0.842(2) 0.935(3) -0.0769(12)
O7 O 1.16497(10) 0.81565(14) 0.19474(5)
O8 O 1.33389(11) 0.68796(13) 0.15316(6)
C1 C 0.99940(14) 0.76440(17) 0.05339(7)
H2 H 1.0354 0.8448 0.0329
C2 C 1.10475(14) 0.67959(17) 0.08750(7)
H3 H 1.1424 0.6244 0.0552
H4 H 1.0708 0.6165 0.1180
C3 C 0.90923(14) 0.81525(17) 0.09974(7)
H5 H 0.9556 0.8638 0.1367
C4 C 0.82678(14) 0.77417(17) -0.03656(7)
H6 H 0.7768 0.7186 -0.0697
C5 C 0.92278(14) 0.68293(17) 0.00095(7)
H7 H 0.9782 0.6429 -0.0293
C6 C 0.81568(13) 0.91155(17) 0.06461(7)
H8 H 0.8594 0.9878 0.0450
C7 C 0.77865(15) 0.63068(18) 0.07290(8)
H9 H 0.7359 0.5532 0.0921
C8 C 0.74285(14) 0.82933(17) 0.01183(7)
H10 H 0.6771 0.8874 -0.0110
C9 C 0.60526(15) 1.14013(18) 0.18090(8)
C10 C 1.22210(18) 0.9173(2) 0.23964(9)
H11 H 1.1574 0.9703 0.2582
H12 H 1.2719 0.9809 0.2163
C11 C 0.60956(17) 1.27812(19) 0.21528(9)
H13 H 0.5339 1.2909 0.2359
H14 H 0.6170 1.3508 0.1839
H15 H 0.6805 1.2807 0.2480
C12 C 0.5969(2) 1.0262(2) 0.23023(9)
H16 H 0.5220 1.0376 0.2516
H17 H 0.6689 1.0299 0.2623
H18 H 0.5946 0.9381 0.2083
C13 C 1.43941(15) 0.6738(2) 0.11609(9)
H19 H 1.5165 0.6776 0.1455
H20 H 1.4402 0.7498 0.0851
C14 C 1.43277(17) 0.5422(2) 0.08069(10)
H21 H 1.4318 0.4671 0.1114
H22 H 1.5046 0.5333 0.0566
H23 H 1.3576 0.5397 0.0508
C15 C 1.3023(2) 0.8493(2) 0.29241(9)
H24 H 1.2543 0.7812 0.3132
H25 H 1.3340 0.9172 0.3242
H26 H 1.3713 0.8048 0.2744
C16 C 0.49160(17) 1.1338(2) 0.13137(11)
H27 H 0.4898 1.0462 0.1089
H28 H 0.4952 1.2076 0.1001
H29 H 0.4172 1.1434 0.1534
C17 C 0.7539(3) 1.2453(2) 0.07265(12)
H30 H 0.8128 1.2149 0.0434
H31 H 0.7801 1.3333 0.0913
H32 H 0.6723 1.2545 0.0488
C18 C 0.89070(18) 1.1307(3) 0.19463(12)
H33 H 0.8888 1.0629 0.2288
H34 H 0.8967 1.2218 0.2137
H35 H 0.9621 1.1142 0.1709
loop_
_geom_bond_atom_site_label_1
_geom_bond_atom_site_label_2
_geom_bond_site_symmetry_1
_geom_bond_site_symmetry_2
P1 O2 1_555 1_555
Si1 O4 1_555 1_555
O1 C3 1_555 1_555
O3 C5 1_555 1_555
O4 C6 1_555 1_555
O5 C7 1_555 1_555
O6 H1 1_555 1_555
O7 P1 1_555 1_555
O8 P1 1_555 1_555
C1 H2 1_555 1_555
C2 P1 1_555 1_555
H3 C2 1_555 1_555
H4 C2 1_555 1_555
C3 C1 1_555 1_555
H5 C3 1_555 1_555
C4 O6 1_555 1_555
H6 C4 1_555 1_555
C5 C1 1_555 1_555
H7 C5 1_555 1_555
C6 C3 1_555 1_555
H8 C6 1_555 1_555
C7 O1 1_555 1_555
H9 C7 1_555 1_555
C8 O5 1_555 1_555
H10 C8 1_555 1_555
C9 Si1 1_555 1_555
C10 O7 1_555 1_555
H11 C10 1_555 1_555
H12 C10 1_555 1_555
C11 C9 1_555 1_555
H13 C11 1_555 1_555
H14 C11 1_555 1_555
H15 C11 1_555 1_555
C12 C9 1_555 1_555
H16 C12 1_555 1_555
H17 C12 1_555 1_555
H18 C12 1_555 1_555
C13 O8 1_555 1_555
H19 C13 1_555 1_555
H20 C13 1_555 1_555
C14 C13 1_555 1_555
H21 C14 1_555 1_555
H22 C14 1_555 1_555
H23 C14 1_555 1_555
C15 C10 1_555 1_555
H24 C15 1_555 1_555
H25 C15 1_555 1_555
H26 C15 1_555 1_555
C16 C9 1_555 1_555
H27 C16 1_555 1_555
H28 C16 1_555 1_555
H29 C16 1_555 1_555
C17 Si1 1_555 1_555
H30 C17 1_555 1_555
H31 C17 1_555 1_555
H32 C17 1_555 1_555
C18 Si1 1_555 1_555
H33 C18 1_555 1_555
H34 C18 1_555 1_555
H35 C18 1_555 1_555
O3 C7 1_555 1_555
C1 C2 1_555 1_555
C4 C5 1_555 1_555
C4 C8 1_555 1_555
C6 C8 1_555 1_555

#END
