
#######################################################################
#
#                 Cambridge Crystallographic Data Centre
#                                CCDC 
#
#######################################################################
#
# If this CIF has been generated from an entry in the Cambridge 
# Structural Database, then it will include bibliographic, chemical, 
# crystal, experimental, refinement or atomic coordinate data resulting 
# from the CCDC's data processing and validation procedures.
#
#######################################################################

data_VAQXOB
_chemical_compound_source        'Flowers of Dregea volubilis'
_chemical_name_common            'Volubilol hemihydrate'
_chemical_formula_moiety         'C21 H34 O6,0.5(H2 O1)'
_chemical_name_systematic        
'17(S),20(R)-Pregn-5-ene-3\b,11\a,12\b,14\b,19,20-hexol hemihydrate'
_chemical_properties_biological  
'potential antitumour and anticancer activity; used in folk medicine in S.E.Asia as an antifebrile and emetic'
_symmetry_cell_setting           orthorhombic
_symmetry_space_group_name_H-M   'P 21 21 2'
_symmetry_Int_Tables_number      18
_space_group_name_Hall           'P 2 2ab'
loop_
_symmetry_equiv_pos_site_id
_symmetry_equiv_pos_as_xyz
1 x,y,z
2 -x,-y,z
3 1/2+x,1/2-y,-z
4 1/2-x,1/2+y,-z
_cell_length_a                   19.559(9)
_cell_length_b                   12.716(7)
_cell_length_c                   7.739(3)
_cell_angle_alpha                90
_cell_angle_beta                 90
_cell_angle_gamma                90
_cell_volume                     1924.78
_exptl_crystal_colour            colorless
_exptl_crystal_description       plate
_chemical_melting_point          233-234deg.C
_cell_formula_units_Z            4
_exptl_crystal_recrystallization_method methanol
loop_
_atom_site_label
_atom_site_type_symbol
_atom_site_fract_x
_atom_site_fract_y
_atom_site_fract_z
C1 C 0.4125(3) 0.9187(5) 0.4848(8)
C2 C 0.3994(4) 0.8099(6) 0.4087(11)
C3 C 0.3874(3) 0.7294(5) 0.5485(10)
C4 C 0.3280(3) 0.7653(5) 0.6623(8)
C5 C 0.3439(3) 0.8711(5) 0.7401(7)
C6 C 0.3526(3) 0.8819(5) 0.9112(8)
C7 C 0.3701(4) 0.9816(5) 0.9989(7)
C8 C 0.3558(3) 1.0783(4) 0.8883(7)
C9 C 0.3869(3) 1.0617(4) 0.7049(6)
C10 C 0.3573(3) 0.9614(5) 0.6117(7)
C11 C 0.3786(3) 1.1630(5) 0.5996(7)
C12 C 0.4075(3) 1.2591(5) 0.6908(7)
C13 C 0.3745(3) 1.2803(5) 0.8714(7)
C14 C 0.3830(3) 1.1782(4) 0.9773(6)
C15 C 0.4587(3) 1.1786(5) 1.0281(8)
C16 C 0.4760(3) 1.2930(5) 1.0625(9)
C17 C 0.4223(3) 1.3618(5) 0.9648(7)
C18 C 0.2998(3) 1.3114(5) 0.8470(9)
C19 C 0.2922(3) 0.9850(5) 0.5122(7)
C20 C 0.3918(3) 1.4452(5) 1.0882(8)
C21 C 0.3517(4) 1.5326(6) 1.0044(10)
O1 O 0.3736(3) 0.6271(4) 0.4797(8)
O2 O 0.2395(2) 1.0248(4) 0.6229(6)
O3 O 0.4161(2) 1.1568(4) 0.4407(5)
O4 O 0.4008(3) 1.3513(4) 0.5885(6)
O5 O 0.3423(2) 1.1865(3) 1.1346(5)
O6 O 0.3517(3) 1.3917(4) 1.2192(6)
H1 H 0.460(3) 0.920(4) 0.543(7)
H2 H 0.419(3) 0.974(5) 0.389(8)
H3 H 0.445(4) 0.791(6) 0.336(11)
H4 H 0.370(3) 0.807(5) 0.351(9)
H5 H 0.433(3) 0.721(4) 0.626(8)
H6 H 0.327(3) 0.708(5) 0.761(9)
H7 H 0.283(3) 0.764(5) 0.589(8)
H8 H 0.344(3) 0.817(5) 0.975(9)
H9 H 0.419(5) 0.974(7) 1.023(11)
H10 H 0.341(4) 0.987(6) 1.073(11)
H11 H 0.298(2) 1.090(3) 0.878(6)
H12 H 0.440(3) 1.048(5) 0.718(8)
H13 H 0.327(3) 1.166(4) 0.570(8)
H14 H 0.462(3) 1.247(4) 0.712(7)
H15 H 0.488(3) 1.149(5) 0.938(7)
H16 H 0.469(3) 1.132(4) 1.108(8)
H17 H 0.525(3) 1.311(5) 1.002(9)
H18 H 0.478(4) 1.326(6) 1.173(11)
H19 H 0.449(2) 1.406(4) 0.878(6)
H20 H 0.300(3) 1.373(5) 0.776(8)
H21 H 0.270(3) 1.250(5) 0.798(8)
H22 H 0.273(4) 1.338(6) 0.953(10)
H23 H 0.303(2) 1.041(4) 0.414(7)
H24 H 0.278(3) 0.927(5) 0.443(9)
H25 H 0.434(2) 1.479(4) 1.154(6)
H26 H 0.311(4) 1.504(6) 0.957(11)
H27 H 0.340(4) 1.592(7) 1.097(12)
H28 H 0.376(3) 1.565(5) 0.910(8)
H29 H 0.413(4) 0.582(6) 0.457(11)
H30 H 0.199(5) 1.053(7) 0.554(12)
H31 H 0.383(3) 1.155(4) 0.364(8)
H32 H 0.378(4) 1.346(7) 0.525(12)
H33 H 0.343(5) 1.268(9) 1.157(16)
H34 H 0.320(4) 1.437(6) 1.263(10)
O7 O 0.5000 0.5000 0.5007(12)
loop_
_geom_bond_atom_site_label_1
_geom_bond_atom_site_label_2
_geom_bond_site_symmetry_1
_geom_bond_site_symmetry_2
C1 C2 1_555 1_555
C2 C3 1_555 1_555
C3 C4 1_555 1_555
C4 C5 1_555 1_555
C5 C6 1_555 1_555
C6 C7 1_555 1_555
C7 C8 1_555 1_555
C8 C9 1_555 1_555
C9 C10 1_555 1_555
C10 C1 1_555 1_555
C11 C9 1_555 1_555
C12 C11 1_555 1_555
C13 C12 1_555 1_555
C14 C8 1_555 1_555
C15 C14 1_555 1_555
C16 C15 1_555 1_555
C17 C13 1_555 1_555
C18 C13 1_555 1_555
C19 C10 1_555 1_555
C20 C17 1_555 1_555
C21 C20 1_555 1_555
O1 C3 1_555 1_555
O2 C19 1_555 1_555
O3 C11 1_555 1_555
O4 C12 1_555 1_555
O5 C14 1_555 1_555
O6 C20 1_555 1_555
H1 C1 1_555 1_555
H2 C1 1_555 1_555
H3 C2 1_555 1_555
H4 C2 1_555 1_555
H5 C3 1_555 1_555
H6 C4 1_555 1_555
H7 C4 1_555 1_555
H8 C6 1_555 1_555
H9 C7 1_555 1_555
H10 C7 1_555 1_555
H11 C8 1_555 1_555
H12 C9 1_555 1_555
H13 C11 1_555 1_555
H14 C12 1_555 1_555
H15 C15 1_555 1_555
H16 C15 1_555 1_555
H17 C16 1_555 1_555
H18 C16 1_555 1_555
H19 C17 1_555 1_555
H20 C18 1_555 1_555
H21 C18 1_555 1_555
H22 C18 1_555 1_555
H23 C19 1_555 1_555
H24 C19 1_555 1_555
H25 C20 1_555 1_555
H26 C21 1_555 1_555
H27 C21 1_555 1_555
H28 C21 1_555 1_555
H29 O1 1_555 1_555
H30 O2 1_555 1_555
H31 O3 1_555 1_555
H32 O4 1_555 1_555
H33 O5 1_555 1_555
H34 O6 1_555 1_555
C5 C10 1_555 1_555
C13 C14 1_555 1_555
C16 C17 1_555 1_555

#END
