
#######################################################################
#
#                 Cambridge Crystallographic Data Centre
#                                CCDC 
#
#######################################################################
#
# If this CIF has been generated from an entry in the Cambridge 
# Structural Database, then it will include bibliographic, chemical, 
# crystal, experimental, refinement or atomic coordinate data resulting 
# from the CCDC's data processing and validation procedures.
#
#######################################################################

data_VARCUP
_chemical_formula_moiety         'C28 H28 S3'
_chemical_name_systematic        
2,6-bis(4-t-butylphenyl)bisthieno[3,2-b:2',3'-d]thiophene
_symmetry_cell_setting           orthorhombic
_symmetry_space_group_name_H-M   'P n a 21'
_symmetry_Int_Tables_number      33
_space_group_name_Hall           'P 2c -2n'
loop_
_symmetry_equiv_pos_site_id
_symmetry_equiv_pos_as_xyz
1 x,y,z
2 1/2-x,1/2+y,1/2+z
3 1/2+x,1/2-y,z
4 -x,-y,1/2+z
_cell_length_a                   37.342(6)
_cell_length_b                   10.5610(18)
_cell_length_c                   5.9981(10)
_cell_angle_alpha                90
_cell_angle_beta                 90
_cell_angle_gamma                90
_cell_volume                     2365.46
_exptl_crystal_colour            yellow
_chemical_melting_point          '563 K'
_cell_formula_units_Z            4
_exptl_crystal_recrystallization_method 'Vapour deposition'
loop_
_atom_site_label
_atom_site_type_symbol
_atom_site_fract_x
_atom_site_fract_y
_atom_site_fract_z
S1 S 0.117838(13) 0.50112(5) 0.83115(10)
S2 S 0.036450(12) 0.26963(5) 0.71985(9)
S3 S 0.053948(13) 0.56649(5) 0.27053(9)
C1 C 0.20984(5) 0.73154(19) 1.0868(4)
C2 C 0.00741(5) 0.35276(18) 0.3541(4)
C3 C 0.16533(5) 0.70352(18) 0.7935(4)
C4 C 0.05495(5) 0.4022(2) 0.5962(4)
C5 C 0.03647(5) 0.4341(2) 0.4035(4)
C6 C -0.10494(5) -0.21998(18) 0.7206(5)
C7 C 0.18208(5) 0.80239(19) 0.6794(4)
C8 C 0.08705(5) 0.57772(19) 0.4735(4)
C9 C 0.13465(5) 0.63653(19) 0.6993(4)
C10 C 0.11547(5) 0.6651(2) 0.5088(4)
C11 C -0.08270(5) -0.00976(19) 0.5694(4)
C12 C 0.00367(5) 0.25911(19) 0.5104(4)
C13 C 0.21183(5) 0.86277(19) 0.7659(4)
C14 C 0.17954(5) 0.6716(2) 1.0028(4)
C15 C -0.13343(5) -0.1308(3) 0.3810(4)
C16 C -0.02492(5) 0.1638(2) 0.5281(4)
C17 C 0.25983(5) 0.8967(2) 1.0606(4)
C18 C 0.22689(5) 0.8275(2) 0.9700(4)
C19 C -0.14271(5) -0.0255(2) 0.7482(5)
C20 C 0.08441(5) 0.48460(19) 0.6351(4)
C21 C -0.11547(5) -0.0968(2) 0.6023(4)
C22 C 0.24836(6) 1.0295(2) 1.1386(5)
C23 C 0.28862(5) 0.9083(3) 0.8763(4)
C24 C -0.05193(7) 0.1583(3) 0.3719(5)
C25 C -0.05541(6) -0.0045(3) 0.7224(5)
C26 C 0.27715(5) 0.8260(2) 1.2558(4)
C27 C -0.08030(6) 0.0729(3) 0.3940(5)
C28 C -0.02707(6) 0.0799(3) 0.7033(5)
H1 H 0.2191 0.7061 1.2275
H2 H -0.0077 0.3620 0.2277
H3 H -0.1259 -0.2754 0.7317
H4 H -0.0961 -0.2005 0.8705
H5 H -0.0861 -0.2628 0.6352
H6 H 0.1728 0.8287 0.5393
H7 H 0.1206 0.7344 0.4132
H8 H 0.2223 0.9303 0.6842
H9 H 0.1682 0.6077 1.0890
H10 H -0.1428 -0.0538 0.3109
H11 H -0.1532 -0.1899 0.4085
H12 H -0.1158 -0.1705 0.2818
H13 H -0.1637 -0.0795 0.7740
H14 H -0.1502 0.0522 0.6721
H15 H -0.1316 -0.0040 0.8914
H16 H 0.2694 1.0762 1.1911
H17 H 0.2310 1.0216 1.2605
H18 H 0.2374 1.0752 1.0140
H19 H 0.2789 0.9572 0.7511
H20 H 0.2954 0.8237 0.8246
H21 H 0.3097 0.9516 0.9364
H22 H -0.0513 0.2136 0.2470
H23 H -0.0559 -0.0607 0.8460
H24 H 0.2826 0.7389 1.2107
H25 H 0.2606 0.8249 1.3827
H26 H 0.2994 0.8689 1.2989
H27 H -0.0985 0.0721 0.2836
H28 H -0.0088 0.0797 0.8134
loop_
_geom_bond_atom_site_label_1
_geom_bond_atom_site_label_2
_geom_bond_site_symmetry_1
_geom_bond_site_symmetry_2
S1 C9 1_555 1_555
S2 C4 1_555 1_555
S3 C5 1_555 1_555
C1 C14 1_555 1_555
C2 C5 1_555 1_555
C3 C7 1_555 1_555
C4 C5 1_555 1_555
C6 C21 1_555 1_555
C7 C13 1_555 1_555
C8 S3 1_555 1_555
C9 C3 1_555 1_555
C10 C8 1_555 1_555
C11 C21 1_555 1_555
C12 S2 1_555 1_555
C13 C18 1_555 1_555
C14 C3 1_555 1_555
C15 C21 1_555 1_555
C16 C12 1_555 1_555
C17 C18 1_555 1_555
C18 C1 1_555 1_555
C19 C21 1_555 1_555
C20 S1 1_555 1_555
C22 C17 1_555 1_555
C23 C17 1_555 1_555
C24 C16 1_555 1_555
C25 C11 1_555 1_555
C26 C17 1_555 1_555
C27 C11 1_555 1_555
C28 C16 1_555 1_555
H1 C1 1_555 1_555
H2 C2 1_555 1_555
H3 C6 1_555 1_555
H4 C6 1_555 1_555
H5 C6 1_555 1_555
H6 C7 1_555 1_555
H7 C10 1_555 1_555
H8 C13 1_555 1_555
H9 C14 1_555 1_555
H10 C15 1_555 1_555
H11 C15 1_555 1_555
H12 C15 1_555 1_555
H13 C19 1_555 1_555
H14 C19 1_555 1_555
H15 C19 1_555 1_555
H16 C22 1_555 1_555
H17 C22 1_555 1_555
H18 C22 1_555 1_555
H19 C23 1_555 1_555
H20 C23 1_555 1_555
H21 C23 1_555 1_555
H22 C24 1_555 1_555
H23 C25 1_555 1_555
H24 C26 1_555 1_555
H25 C26 1_555 1_555
H26 C26 1_555 1_555
H27 C27 1_555 1_555
H28 C28 1_555 1_555
C2 C12 1_555 1_555
C4 C20 1_555 1_555
C8 C20 1_555 1_555
C9 C10 1_555 1_555
C24 C27 1_555 1_555
C25 C28 1_555 1_555

#END
