
#######################################################################
#
#                 Cambridge Crystallographic Data Centre
#                                CCDC 
#
#######################################################################
#
# If this CIF has been generated from an entry in the Cambridge 
# Structural Database, then it will include bibliographic, chemical, 
# crystal, experimental, refinement or atomic coordinate data resulting 
# from the CCDC's data processing and validation procedures.
#
#######################################################################

data_VARMEH
_chemical_name_common            
25,27-bis(3-Pyridylcarboxylate)-26,28-dihydroxycalix(4)arene
_chemical_formula_moiety         'C40 H30 N2 O6'
_chemical_name_systematic        
26,28-Dihydroxy-25,27-bis(3-pyridylcarbonyloxy)calix(4)arene
_symmetry_cell_setting           monoclinic
_symmetry_space_group_name_H-M   'P 21/c'
_symmetry_Int_Tables_number      14
_space_group_name_Hall           '-P 2ybc'
loop_
_symmetry_equiv_pos_site_id
_symmetry_equiv_pos_as_xyz
1 x,y,z
2 x,1/2-y,1/2+z
3 -x,-y,-z
4 -x,1/2+y,1/2-z
_cell_length_a                   10.064(3)
_cell_length_b                   8.046(3)
_cell_length_c                   38.756(14)
_cell_angle_alpha                90
_cell_angle_beta                 93.822(7)
_cell_angle_gamma                90
_cell_volume                     3131.29
_exptl_crystal_colour            colorless
_cell_formula_units_Z            4
_exptl_crystal_recrystallization_method dichloromethane/methanol
loop_
_atom_site_label
_atom_site_type_symbol
_atom_site_fract_x
_atom_site_fract_y
_atom_site_fract_z
O1 O 0.5496(2) 0.5818(3) 0.14193(6)
O2 O 0.3973(2) 0.7431(3) 0.16577(7)
O3 O 0.96262(19) 0.3755(2) 0.09488(5)
O4 O 1.1617(2) 0.3704(3) 0.07177(6)
O5 O 0.8498(2) 0.5764(3) 0.14898(5)
H1 H 0.8942 0.5192 0.1366
O6 O 0.6849(2) 0.0704(3) 0.14064(6)
H2 H 0.7557 0.0210 0.1394
N1 N 0.5004(3) 0.8186(4) 0.04849(8)
N2 N 1.0409(3) 0.7701(4) 0.00852(8)
C1 C 0.7068(3) 0.7120(4) 0.20182(9)
H3 H 0.6797 0.7809 0.2207
H4 H 0.6851 0.7706 0.1803
C2 C 0.6317(3) 0.5490(4) 0.20163(9)
C3 C 0.6365(3) 0.4504(5) 0.23086(9)
H5 H 0.6811 0.4891 0.2511
C4 C 0.5769(4) 0.2956(5) 0.23083(10)
H6 H 0.5774 0.2337 0.2511
C5 C 0.5167(3) 0.2339(4) 0.20053(10)
H7 H 0.4807 0.1274 0.2003
C6 C 0.5087(3) 0.3260(4) 0.17058(9)
C7 C 0.5631(3) 0.4857(4) 0.17262(9)
C8 C 0.4463(3) 0.2568(4) 0.13723(9)
H8 H 0.3706 0.3258 0.1299
H9 H 0.4125 0.1466 0.1418
C9 C 0.5357(3) 0.2442(4) 0.10745(9)
C10 C 0.4995(3) 0.3185(5) 0.07594(10)
H10 H 0.4210 0.3796 0.0736
C11 C 0.5775(4) 0.3039(5) 0.04784(10)
H11 H 0.5508 0.3525 0.0267
C12 C 0.6950(4) 0.2164(4) 0.05173(9)
H12 H 0.7480 0.2076 0.0331
C13 C 0.7364(3) 0.1409(4) 0.08284(9)
C14 C 0.6534(3) 0.1531(4) 0.11002(9)
C15 C 0.8664(3) 0.0463(4) 0.08637(9)
H13 H 0.9113 0.0601 0.0652
H14 H 0.8464 -0.0710 0.0886
C16 C 0.9621(3) 0.0963(4) 0.11649(8)
C17 C 1.0050(3) -0.0158(4) 0.14165(9)
H15 H 0.9765 -0.1256 0.1398
C18 C 1.0891(4) 0.0302(5) 0.16941(9)
H16 H 1.1184 -0.0482 0.1858
C19 C 1.1295(3) 0.1930(5) 0.17277(9)
H17 H 1.1858 0.2240 0.1917
C20 C 1.0881(3) 0.3120(4) 0.14844(8)
C21 C 1.0080(3) 0.2592(4) 0.12042(8)
C22 C 1.1270(3) 0.4921(4) 0.15440(8)
H18 H 1.2225 0.4983 0.1597
H19 H 1.1063 0.5541 0.1333
C23 C 1.0576(3) 0.5720(4) 0.18331(8)
C24 C 1.1263(4) 0.6135(4) 0.21422(9)
H20 H 1.2167 0.5898 0.2172
C25 C 1.0647(4) 0.6885(5) 0.24051(9)
H21 H 1.1128 0.7166 0.2610
C26 C 0.9297(4) 0.7220(4) 0.23618(9)
H22 H 0.8877 0.7726 0.2541
C27 C 0.8557(3) 0.6823(4) 0.20607(8)
C28 C 0.9223(3) 0.6075(4) 0.17988(8)
C29 C 0.4557(3) 0.7045(4) 0.14117(10)
C30 C 0.4354(3) 0.7800(4) 0.10668(9)
C31 C 0.3288(3) 0.8838(5) 0.10015(10)
H23 H 0.2702 0.9051 0.1172
C32 C 0.3097(4) 0.9557(5) 0.06826(11)
H24 H 0.2388 1.0280 0.0634
C33 C 0.3964(4) 0.9201(5) 0.04346(11)
H25 H 0.3818 0.9697 0.0219
C34 C 0.5178(4) 0.7509(4) 0.08024(10)
H26 H 0.5899 0.6799 0.0846
C35 C 1.0515(3) 0.4270(4) 0.07243(8)
C36 C 0.9955(3) 0.5597(4) 0.04948(7)
C37 C 0.8614(3) 0.5995(4) 0.04678(8)
H27 H 0.8017 0.5436 0.0599
C38 C 0.8181(4) 0.7235(4) 0.02429(9)
H28 H 0.7283 0.7514 0.0215
C39 C 0.9109(4) 0.8047(4) 0.00611(9)
H29 H 0.8813 0.8893 -0.0089
C40 C 1.0803(3) 0.6474(4) 0.02977(9)
H30 H 1.1701 0.6191 0.0314
loop_
_geom_bond_atom_site_label_1
_geom_bond_atom_site_label_2
_geom_bond_site_symmetry_1
_geom_bond_site_symmetry_2
O1 C7 1_555 1_555
O2 C29 1_555 1_555
O3 C21 1_555 1_555
O4 C35 1_555 1_555
O5 H1 1_555 1_555
O6 H2 1_555 1_555
N1 C33 1_555 1_555
N2 C39 1_555 1_555
C1 H3 1_555 1_555
H4 C1 1_555 1_555
C2 C1 1_555 1_555
C3 C2 1_555 1_555
H5 C3 1_555 1_555
C4 C3 1_555 1_555
H6 C4 1_555 1_555
C5 C4 1_555 1_555
H7 C5 1_555 1_555
C6 C5 1_555 1_555
C7 C2 1_555 1_555
C8 C6 1_555 1_555
H8 C8 1_555 1_555
H9 C8 1_555 1_555
C9 C8 1_555 1_555
C10 C9 1_555 1_555
H10 C10 1_555 1_555
C11 C10 1_555 1_555
H11 C11 1_555 1_555
C12 C11 1_555 1_555
H12 C12 1_555 1_555
C13 C12 1_555 1_555
C14 O6 1_555 1_555
C15 C13 1_555 1_555
H13 C15 1_555 1_555
H14 C15 1_555 1_555
C16 C15 1_555 1_555
C17 C16 1_555 1_555
H15 C17 1_555 1_555
C18 C17 1_555 1_555
H16 C18 1_555 1_555
C19 C18 1_555 1_555
H17 C19 1_555 1_555
C20 C19 1_555 1_555
C21 C16 1_555 1_555
C22 C20 1_555 1_555
H18 C22 1_555 1_555
H19 C22 1_555 1_555
C23 C22 1_555 1_555
C24 C23 1_555 1_555
H20 C24 1_555 1_555
C25 C24 1_555 1_555
H21 C25 1_555 1_555
C26 C25 1_555 1_555
H22 C26 1_555 1_555
C27 C1 1_555 1_555
C28 O5 1_555 1_555
C29 O1 1_555 1_555
C30 C29 1_555 1_555
C31 C30 1_555 1_555
H23 C31 1_555 1_555
C32 C31 1_555 1_555
H24 C32 1_555 1_555
C33 C32 1_555 1_555
H25 C33 1_555 1_555
C34 N1 1_555 1_555
H26 C34 1_555 1_555
C35 O3 1_555 1_555
C36 C35 1_555 1_555
C37 C36 1_555 1_555
H27 C37 1_555 1_555
C38 C37 1_555 1_555
H28 C38 1_555 1_555
C39 C38 1_555 1_555
H29 C39 1_555 1_555
C40 N2 1_555 1_555
H30 C40 1_555 1_555
C6 C7 1_555 1_555
C9 C14 1_555 1_555
C13 C14 1_555 1_555
C20 C21 1_555 1_555
C23 C28 1_555 1_555
C26 C27 1_555 1_555
C27 C28 1_555 1_555
C30 C34 1_555 1_555
C36 C40 1_555 1_555

#END
