
#######################################################################
#
#                 Cambridge Crystallographic Data Centre
#                                CCDC 
#
#######################################################################
#
# If this CIF has been generated from an entry in the Cambridge 
# Structural Database, then it will include bibliographic, chemical, 
# crystal, experimental, refinement or atomic coordinate data resulting 
# from the CCDC's data processing and validation procedures.
#
#######################################################################

data_VASKIL
_chemical_formula_moiety         'C54 H52 N2 S2'
_chemical_name_systematic        
3,3'-(Anthracene-9,10-diyldiethene-2,1-diyl)bis(10-hexyl-10H-phenothiazine)
_symmetry_cell_setting           triclinic
_symmetry_space_group_name_H-M   'P -1'
_symmetry_Int_Tables_number      2
_space_group_name_Hall           '-P 1'
loop_
_symmetry_equiv_pos_site_id
_symmetry_equiv_pos_as_xyz
1 x,y,z
2 -x,-y,-z
_cell_length_a                   5.7587(10)
_cell_length_b                   17.681(3)
_cell_length_c                   21.772(4)
_cell_angle_alpha                111.793(3)
_cell_angle_beta                 91.700(3)
_cell_angle_gamma                92.295(3)
_cell_volume                     2054.36
_exptl_crystal_colour            yellow
_exptl_crystal_description       plate
_cell_formula_units_Z            2
loop_
_atom_site_label
_atom_site_type_symbol
_atom_site_fract_x
_atom_site_fract_y
_atom_site_fract_z
S1 S 0.36102(11) 0.57386(4) 1.32288(3)
S2 S 0.13094(11) 0.93435(4) 0.70472(3)
N1 N -0.0829(4) 0.47666(12) 1.30449(9)
N2 N 0.5745(3) 1.03236(12) 0.72782(9)
C1 C 0.2291(4) 0.70053(15) 1.05256(11)
C2 C 0.0815(4) 0.76417(14) 1.05701(11)
C3 C -0.0868(4) 0.79096(15) 1.10624(12)
H1 H -0.1011 0.7652 1.1373
C4 C -0.2277(4) 0.85245(16) 1.10999(12)
H2 H -0.3407 0.8679 1.1427
C5 C -0.2069(4) 0.89345(15) 1.06563(12)
H3 H -0.3057 0.9362 1.0683
C6 C -0.0445(4) 0.87132(15) 1.01908(11)
H4 H -0.0286 0.9005 0.9904
C7 C 0.1031(4) 0.80592(15) 1.01170(11)
C8 C 0.2669(4) 0.78325(15) 0.96227(11)
C9 C 0.4135(4) 0.71902(15) 0.95725(11)
C10 C 0.5799(4) 0.69098(15) 0.90738(11)
H5 H 0.5941 0.7165 0.8761
C11 C 0.7185(4) 0.62884(16) 0.90325(12)
H6 H 0.8294 0.6123 0.8700
C12 C 0.6973(4) 0.58897(16) 0.94853(12)
H7 H 0.7954 0.5461 0.9460
C13 C 0.5377(4) 0.61179(15) 0.99542(11)
H8 H 0.5220 0.5830 1.0243
C14 C 0.3927(4) 0.67754(15) 1.00282(11)
C15 C 0.2207(5) 0.65934(15) 1.10045(11)
H9 H 0.3613 0.6599 1.1246
C16 C 0.0358(4) 0.62206(15) 1.11257(11)
H10 H -0.1005 0.6196 1.0861
C17 C 0.0117(4) 0.58356(15) 1.16173(11)
C18 C -0.1868(4) 0.53426(15) 1.15865(11)
H11 H -0.3019 0.5249 1.1241
C19 C -0.2202(4) 0.49856(15) 1.20476(11)
H12 H -0.3568 0.4650 1.2013
C20 C -0.0547(4) 0.51152(14) 1.25620(11)
C21 C 0.1446(4) 0.56070(15) 1.25961(11)
C22 C 0.1775(4) 0.59631(15) 1.21348(11)
H13 H 0.3142 0.6298 1.2169
C23 C -0.0294(4) 0.52798(15) 1.37143(11)
C24 C -0.1735(5) 0.53057(16) 1.42227(12)
H14 H -0.3167 0.4989 1.4125
C25 C -0.1078(5) 0.57949(17) 1.48739(12)
H15 H -0.2045 0.5795 1.5220
C26 C 0.0950(5) 0.62792(17) 1.50251(13)
H16 H 0.1383 0.6610 1.5472
C27 C 0.2361(5) 0.62800(16) 1.45180(12)
H17 H 0.3736 0.6627 1.4615
C28 C 0.1755(4) 0.57731(15) 1.38706(12)
C29 C -0.2428(4) 0.40526(15) 1.28924(12)
H18 H -0.3990 0.4184 1.2772
H19 H -0.2559 0.3916 1.3292
C30 C -0.1625(5) 0.33131(15) 1.23248(12)
H20 H -0.2766 0.2848 1.2242
H21 H -0.1602 0.3439 1.1918
C31 C 0.0780(4) 0.30606(15) 1.24601(12)
H22 H 0.1123 0.2555 1.2089
H23 H 0.1950 0.3492 1.2471
C32 C 0.1044(4) 0.29144(16) 1.31046(12)
H24 H 0.1090 0.3446 1.3481
H25 H -0.0336 0.2587 1.3145
C33 C 0.2760(5) 0.82647(15) 0.91579(11)
H26 H 0.1356 0.8269 0.8920
C34 C 0.4621(5) 0.86441(15) 0.90453(11)
H27 H 0.5994 0.8643 0.9298
C35 C 0.4859(4) 0.90685(15) 0.85817(11)
C36 C 0.6827(4) 0.95730(15) 0.86384(11)
H28 H 0.7980 0.9635 0.8977
C37 C 0.7165(4) 0.99874(15) 0.82188(11)
H29 H 0.8538 1.0326 0.8271
C38 C 0.5490(4) 0.99098(14) 0.77157(11)
C39 C 0.3503(4) 0.94045(15) 0.76563(11)
C40 C 0.3180(4) 0.89875(14) 0.80769(11)
H30 H 0.1815 0.8645 0.8024
C41 C 0.5195(4) 0.98616(15) 0.65989(12)
C42 C 0.6663(5) 0.98686(16) 0.61044(12)
H31 H 0.8107 1.0178 0.6220
C43 C 0.6025(5) 0.94250(17) 0.54420(12)
H32 H 0.7024 0.9440 0.5107
C44 C 0.3962(5) 0.89656(17) 0.52697(12)
H33 H 0.3514 0.8676 0.4816
C45 C 0.2539(5) 0.89248(16) 0.57564(12)
H34 H 0.1150 0.8584 0.5639
C46 C 0.3134(4) 0.93802(15) 0.64186(11)
C47 C 0.7292(4) 1.10562(15) 0.74700(12)
H35 H 0.8856 1.0903 0.7305
H36 H 0.7443 1.1313 0.7959
C48 C 0.6380(4) 1.16712(16) 0.71927(12)
H37 H 0.7474 1.2158 0.7337
H38 H 0.6346 1.1425 0.6703
C49 C 0.3967(4) 1.19393(16) 0.74091(12)
H39 H 0.4069 1.2280 0.7888
H40 H 0.2950 1.1449 0.7348
C50 C 0.2840(5) 1.24187(16) 0.70368(12)
H41 H 0.1443 1.2666 0.7268
H42 H 0.3944 1.2868 0.7048
C51 C 0.2134(5) 1.19046(17) 0.63208(13)
H43 H 0.1062 1.1446 0.6307
H44 H 0.3536 1.1671 0.6084
C52 C 0.0949(6) 1.2392(2) 0.59645(15)
H45 H 0.0523 1.2034 0.5506
H46 H 0.2016 1.2839 0.5967
H47 H -0.0457 1.2617 0.6191
C53 C 0.3211(5) 0.24786(17) 1.31506(14)
H48 H 0.4571 0.2775 1.3060
H49 H 0.3081 0.1924 1.2803
C54 C 0.3643(6) 0.24072(19) 1.38202(14)
H50 H 0.5070 0.2121 1.3814
H51 H 0.2326 0.2101 1.3909
H52 H 0.3812 0.2954 1.4167
loop_
_geom_bond_atom_site_label_1
_geom_bond_atom_site_label_2
_geom_bond_site_symmetry_1
_geom_bond_site_symmetry_2
S1 C21 1_555 1_555
S2 C39 1_555 1_555
N1 C20 1_555 1_555
N2 C38 1_555 1_555
C1 C2 1_555 1_555
C2 C3 1_555 1_555
C3 H1 1_555 1_555
C4 C3 1_555 1_555
H2 C4 1_555 1_555
C5 C4 1_555 1_555
H3 C5 1_555 1_555
C6 C5 1_555 1_555
H4 C6 1_555 1_555
C7 C2 1_555 1_555
C8 C7 1_555 1_555
C9 C8 1_555 1_555
C10 C9 1_555 1_555
H5 C10 1_555 1_555
C11 C10 1_555 1_555
H6 C11 1_555 1_555
C12 C11 1_555 1_555
H7 C12 1_555 1_555
C13 C12 1_555 1_555
H8 C13 1_555 1_555
C14 C1 1_555 1_555
C15 C1 1_555 1_555
H9 C15 1_555 1_555
C16 C15 1_555 1_555
H10 C16 1_555 1_555
C17 C16 1_555 1_555
C18 C17 1_555 1_555
H11 C18 1_555 1_555
C19 C18 1_555 1_555
H12 C19 1_555 1_555
C20 C19 1_555 1_555
C21 C20 1_555 1_555
C22 C17 1_555 1_555
H13 C22 1_555 1_555
C23 N1 1_555 1_555
C24 C23 1_555 1_555
H14 C24 1_555 1_555
C25 C24 1_555 1_555
H15 C25 1_555 1_555
C26 C25 1_555 1_555
H16 C26 1_555 1_555
C27 C26 1_555 1_555
H17 C27 1_555 1_555
C28 S1 1_555 1_555
C29 N1 1_555 1_555
H18 C29 1_555 1_555
H19 C29 1_555 1_555
C30 C29 1_555 1_555
H20 C30 1_555 1_555
H21 C30 1_555 1_555
C31 C30 1_555 1_555
H22 C31 1_555 1_555
H23 C31 1_555 1_555
C32 C31 1_555 1_555
H24 C32 1_555 1_555
H25 C32 1_555 1_555
C33 C8 1_555 1_555
H26 C33 1_555 1_555
C34 C33 1_555 1_555
H27 C34 1_555 1_555
C35 C34 1_555 1_555
C36 C35 1_555 1_555
H28 C36 1_555 1_555
C37 C36 1_555 1_555
H29 C37 1_555 1_555
C38 C37 1_555 1_555
C39 C38 1_555 1_555
C40 C35 1_555 1_555
H30 C40 1_555 1_555
C41 N2 1_555 1_555
C42 C41 1_555 1_555
H31 C42 1_555 1_555
C43 C42 1_555 1_555
H32 C43 1_555 1_555
C44 C43 1_555 1_555
H33 C44 1_555 1_555
C45 C44 1_555 1_555
H34 C45 1_555 1_555
C46 S2 1_555 1_555
C47 N2 1_555 1_555
H35 C47 1_555 1_555
H36 C47 1_555 1_555
C48 C47 1_555 1_555
H37 C48 1_555 1_555
H38 C48 1_555 1_555
C49 C48 1_555 1_555
H39 C49 1_555 1_555
H40 C49 1_555 1_555
C50 C49 1_555 1_555
H41 C50 1_555 1_555
H42 C50 1_555 1_555
C51 C50 1_555 1_555
H43 C51 1_555 1_555
H44 C51 1_555 1_555
C52 C51 1_555 1_555
H45 C52 1_555 1_555
H46 C52 1_555 1_555
H47 C52 1_555 1_555
C53 C32 1_555 1_555
H48 C53 1_555 1_555
H49 C53 1_555 1_555
C54 C53 1_555 1_555
H50 C54 1_555 1_555
H51 C54 1_555 1_555
H52 C54 1_555 1_555
C6 C7 1_555 1_555
C9 C14 1_555 1_555
C13 C14 1_555 1_555
C21 C22 1_555 1_555
C23 C28 1_555 1_555
C27 C28 1_555 1_555
C39 C40 1_555 1_555
C41 C46 1_555 1_555
C45 C46 1_555 1_555

#END
