
#######################################################################
#
#                 Cambridge Crystallographic Data Centre
#                                CCDC 
#
#######################################################################
#
# If this CIF has been generated from an entry in the Cambridge 
# Structural Database, then it will include bibliographic, chemical, 
# crystal, experimental, refinement or atomic coordinate data resulting 
# from the CCDC's data processing and validation procedures.
#
#######################################################################

data_VASMOT
_chemical_formula_moiety         'C24 H19 N1 O2 S2,C7 H16 O1,C4 H8 O2'
_chemical_name_systematic        
'5-(1,3-Dithiolan-2-ylidene)-6-hydroxy-3-phenyl-6-(2-phenylvinyl)-5,6-dihydrocyclopenta[b]pyrrol-4(1H)-one ethyl acetate 3-ethylpentan-3-ol solvate'
_symmetry_cell_setting           triclinic
_symmetry_space_group_name_H-M   'P -1'
_symmetry_Int_Tables_number      2
_space_group_name_Hall           '-P 1'
loop_
_symmetry_equiv_pos_site_id
_symmetry_equiv_pos_as_xyz
1 x,y,z
2 -x,-y,-z
_cell_length_a                   10.7164(13)
_cell_length_b                   11.9069(15)
_cell_length_c                   13.9345(17)
_cell_angle_alpha                79.906(2)
_cell_angle_beta                 81.040(2)
_cell_angle_gamma                70.081(2)
_cell_volume                     1636.9
_cell_formula_units_Z            2
loop_
_atom_site_label
_atom_site_type_symbol
_atom_site_fract_x
_atom_site_fract_y
_atom_site_fract_z
O1 O 0.5377(3) 0.8866(3) 0.3589(2)
C1 C 0.6476(4) 0.8839(4) 0.2931(3)
C2 C 0.6053(8) 0.9685(7) 0.1992(4)
H1 H 0.5685 1.0502 0.2155
H2 H 0.6848 0.9642 0.1540
C4 C 0.5114(7) 0.9477(7) 0.1495(5)
H3 H 0.4929 1.0063 0.0923
H4 H 0.4304 0.9543 0.1921
H5 H 0.5471 0.8683 0.1303
C7 C 0.7158(9) 0.7652(8) 0.2691(7)
H11 H 0.7992 0.7663 0.2308
H12 H 0.6628 0.7485 0.2264
C8 C 0.7179(11) 0.9458(11) 0.3393(7)
H13 H 0.6468 1.0105 0.3676
H14 H 0.7546 0.8883 0.3945
C9 C 0.7467(10) 0.6649(8) 0.3458(6)
H15 H 0.7925 0.5920 0.3173
H16 H 0.6656 0.6589 0.3833
H17 H 0.8028 0.6769 0.3878
C10 C 0.8088(11) 0.9923(9) 0.3038(9)
H18 H 0.8277 1.0298 0.3530
H19 H 0.7792 1.0516 0.2488
H20 H 0.8882 0.9304 0.2830
O2 O 0.7392(5) 0.3507(4) 0.8689(5)
O3 O 0.9391(6) 0.2182(5) 0.8523(5)
C3 C 0.8666(8) 0.3247(8) 0.8435(6)
C5 C 0.9027(9) 0.4326(8) 0.8149(8)
H6 H 0.8234 0.5016 0.8144
H7 H 0.9503 0.4307 0.7506
H8 H 0.9584 0.4374 0.8607
C6 C 0.6860(14) 0.2462(9) 0.8935(9)
H9 H 0.6004 0.2674 0.8683
H10 H 0.7473 0.1771 0.8642
C11 C 0.6729(12) 0.2203(10) 0.9897(8)
H21 H 0.6368 0.1551 1.0075
H22 H 0.6138 0.2898 1.0180
H23 H 0.7586 0.1971 1.0137
H24 H 0.446(5) 0.178(4) 0.505(4)
H25 H 0.373(5) 0.012(5) 0.373(4)
S1 S 0.11215(14) 0.08020(12) 0.23326(10)
S2 S 0.20823(14) 0.22333(13) 0.06135(9)
O4 O 0.2964(3) 0.0512(3) 0.3902(2)
O5 O 0.3776(3) 0.3255(3) 0.1217(2)
N1 N 0.4527(4) 0.2139(3) 0.4470(3)
C12 C 0.3850(4) 0.2196(4) 0.3719(3)
C13 C 0.3650(4) 0.2805(4) 0.2070(3)
C14 C 0.4341(4) 0.2801(4) 0.2892(3)
C15 C 0.0564(4) 0.1972(4) 0.4655(3)
H26 H 0.0805 0.1136 0.4731
C16 C 0.1415(4) 0.2446(4) 0.4097(3)
H27 H 0.1184 0.3281 0.4009
C17 C 0.5421(4) 0.3107(4) 0.3148(3)
C18 C 0.5488(5) 0.2677(4) 0.4124(3)
H28 H 0.6099 0.2741 0.4501
C19 C 0.6320(4) 0.3685(4) 0.2504(3)
C20 C -0.0720(4) 0.2603(4) 0.5172(3)
C21 C 0.2735(4) 0.1754(4) 0.3587(3)
C22 C 0.2722(4) 0.2110(4) 0.2462(3)
C23 C -0.1504(5) 0.1940(4) 0.5708(3)
H29 H -0.1202 0.1107 0.5725
C24 C 0.2043(4) 0.1770(4) 0.1891(3)
C25 C 0.7617(5) 0.3456(5) 0.2722(4)
H30 H 0.7903 0.2954 0.3291
C26 C 0.5914(5) 0.4462(4) 0.1661(3)
H31 H 0.5048 0.4643 0.1506
C27 C -0.1219(5) 0.3842(4) 0.5159(4)
H32 H -0.0726 0.4315 0.4805
C28 C -0.2713(5) 0.2479(5) 0.6213(4)
H33 H -0.3210 0.2011 0.6573
C29 C 0.6786(6) 0.4971(5) 0.1047(4)
H34 H 0.6506 0.5484 0.0481
C30 C -0.3179(5) 0.3702(5) 0.6183(4)
H35 H -0.4001 0.4073 0.6516
C31 C -0.2430(6) 0.4386(5) 0.5659(4)
H36 H -0.2744 0.5219 0.5642
C32 C 0.8486(5) 0.3961(5) 0.2110(4)
H37 H 0.9351 0.3788 0.2264
C33 C 0.8073(6) 0.4713(5) 0.1280(4)
H38 H 0.8658 0.5053 0.0869
C34 C 0.0324(6) 0.1019(6) 0.1230(4)
H39 H 0.0070 0.0321 0.1194
H40 H -0.0472 0.1721 0.1230
C35 C 0.1307(7) 0.1193(6) 0.0371(4)
H41 H 0.0854 0.1511 -0.0217
H42 H 0.1982 0.0426 0.0268
loop_
_geom_bond_atom_site_label_1
_geom_bond_atom_site_label_2
_geom_bond_site_symmetry_1
_geom_bond_site_symmetry_2
O1 C1 1_555 1_555
C1 C2 1_555 1_555
O2 C3 1_555 1_555
O3 C3 1_555 1_555
C2 H1 1_555 1_555
H2 C2 1_555 1_555
C3 C5 1_555 1_555
C4 C2 1_555 1_555
H3 C4 1_555 1_555
H4 C4 1_555 1_555
H5 C4 1_555 1_555
C5 H6 1_555 1_555
H7 C5 1_555 1_555
H8 C5 1_555 1_555
C6 O2 1_555 1_555
H9 C6 1_555 1_555
H10 C6 1_555 1_555
C7 C1 1_555 1_555
H11 C7 1_555 1_555
H12 C7 1_555 1_555
C8 C1 1_555 1_555
H13 C8 1_555 1_555
H14 C8 1_555 1_555
C9 C7 1_555 1_555
H15 C9 1_555 1_555
H16 C9 1_555 1_555
H17 C9 1_555 1_555
C10 C8 1_555 1_555
H18 C10 1_555 1_555
H19 C10 1_555 1_555
H20 C10 1_555 1_555
C11 C6 1_555 1_555
H21 C11 1_555 1_555
H22 C11 1_555 1_555
H23 C11 1_555 1_555
H24 N1 1_555 1_555
H25 O4 1_555 1_555
S1 C24 1_555 1_555
S2 C24 1_555 1_555
O4 C21 1_555 1_555
O5 C13 1_555 1_555
N1 C12 1_555 1_555
C12 C14 1_555 1_555
C13 C14 1_555 1_555
C14 C17 1_555 1_555
C15 H26 1_555 1_555
C16 C15 1_555 1_555
H27 C16 1_555 1_555
C17 C18 1_555 1_555
C18 N1 1_555 1_555
H28 C18 1_555 1_555
C19 C17 1_555 1_555
C20 C15 1_555 1_555
C21 C12 1_555 1_555
C22 C13 1_555 1_555
C23 C20 1_555 1_555
H29 C23 1_555 1_555
C24 C22 1_555 1_555
C25 C19 1_555 1_555
H30 C25 1_555 1_555
C26 C19 1_555 1_555
H31 C26 1_555 1_555
C27 C20 1_555 1_555
H32 C27 1_555 1_555
C28 C23 1_555 1_555
H33 C28 1_555 1_555
C29 C26 1_555 1_555
H34 C29 1_555 1_555
C30 C28 1_555 1_555
H35 C30 1_555 1_555
C31 C27 1_555 1_555
H36 C31 1_555 1_555
C32 C25 1_555 1_555
H37 C32 1_555 1_555
C33 C29 1_555 1_555
H38 C33 1_555 1_555
C34 S1 1_555 1_555
H39 C34 1_555 1_555
H40 C34 1_555 1_555
C35 S2 1_555 1_555
H41 C35 1_555 1_555
H42 C35 1_555 1_555
C16 C21 1_555 1_555
C21 C22 1_555 1_555
C30 C31 1_555 1_555
C32 C33 1_555 1_555
C34 C35 1_555 1_555

#END
