
#######################################################################
#
#                 Cambridge Crystallographic Data Centre
#                                CCDC 
#
#######################################################################
#
# If this CIF has been generated from an entry in the Cambridge 
# Structural Database, then it will include bibliographic, chemical, 
# crystal, experimental, refinement or atomic coordinate data resulting 
# from the CCDC's data processing and validation procedures.
#
#######################################################################

data_VAVLIP
_chemical_formula_moiety         'C26 H24 N6,C1 H4 O1'
_chemical_name_systematic        
'(4-(2-(Cyanoimino)-1,2-bis(4-(dimethylamino)phenyl)ethylidene)cyclohexa-2,5-dien-1-ylidene)cyanamide methanol solvate'
_symmetry_cell_setting           triclinic
_symmetry_space_group_name_H-M   'P -1'
_symmetry_Int_Tables_number      2
_space_group_name_Hall           '-P 1'
loop_
_symmetry_equiv_pos_site_id
_symmetry_equiv_pos_as_xyz
1 x,y,z
2 -x,-y,-z
_cell_length_a                   12.3190(3)
_cell_length_b                   14.5330(3)
_cell_length_c                   16.0170(4)
_cell_angle_alpha                64.0820(11)
_cell_angle_beta                 69.3300(11)
_cell_angle_gamma                66.1260(13)
_cell_volume                     2303.78
_exptl_crystal_colour            'dark blue'
_exptl_crystal_description       plate
_cell_formula_units_Z            4
loop_
_atom_site_label
_atom_site_type_symbol
_atom_site_fract_x
_atom_site_fract_y
_atom_site_fract_z
O1 O 0.2532(2) 0.3328(2) 0.49930(18)
H1 H 0.3147 0.3638 0.4483
C53 C 0.1373(3) 0.4013(3) 0.4858(3)
H51 H 0.1214 0.3988 0.4325
H52 H 0.1331 0.4732 0.4740
H53 H 0.0777 0.3788 0.5418
O2 O 0.3246(4) 0.1333(3) 0.4749(2)
H2 H 0.2459 0.1831 0.4924
C54 C 0.3592(4) 0.0545(4) 0.5544(4)
H54 H 0.4044 -0.0110 0.5414
H55 H 0.2885 0.0447 0.6039
H56 H 0.4093 0.0740 0.5744
N1 N 0.12390(18) 0.65078(16) 0.53762(14)
N2 N 0.85129(18) 0.91644(17) 0.17283(15)
N3 N 0.9296(2) 0.8639(2) 0.31516(18)
N4 N 0.63025(17) 0.51825(16) 0.25984(14)
N5 N 0.82358(19) 0.48467(17) 0.14071(15)
N6 N 0.38189(17) 0.75015(16) -0.13678(14)
C1 C 0.5461(2) 0.61220(19) 0.24845(16)
C2 C 0.5634(2) 0.70759(19) 0.16000(16)
C3 C 0.4389(2) 0.62342(19) 0.32228(16)
C4 C 0.3459(2) 0.7212(2) 0.31420(17)
H3 H 0.357(2) 0.784(2) 0.258(2)
C5 C 0.2428(2) 0.7318(2) 0.38415(17)
H4 H 0.184(2) 0.796(2) 0.3725(18)
C6 C 0.2270(2) 0.6430(2) 0.46861(16)
C7 C 0.3225(2) 0.5449(2) 0.47801(17)
H5 H 0.318(2) 0.479(2) 0.533(2)
C8 C 0.4238(2) 0.5364(2) 0.40692(17)
H6 H 0.483(3) 0.470(2) 0.414(2)
C9 C 0.0255(2) 0.7508(2) 0.52785(19)
H7 H 0.005(2) 0.778(2) 0.469(2)
H8 H -0.044(2) 0.7312(19) 0.5742(17)
H9 H 0.048(2) 0.809(2) 0.5373(19)
C10 C 0.1171(3) 0.5654(2) 0.63015(19)
H10 H 0.114(3) 0.502(3) 0.630(2)
H11 H 0.043(3) 0.595(3) 0.671(2)
H12 H 0.193(3) 0.540(3) 0.657(2)
C11 C 0.63660(19) 0.76038(18) 0.16116(16)
C12 C 0.6707(2) 0.7341(2) 0.24735(17)
H13 H 0.643(2) 0.683(2) 0.3032(17)
C13 C 0.7402(2) 0.7827(2) 0.25401(18)
H14 H 0.760(2) 0.756(2) 0.3168(19)
C14 C 0.7824(2) 0.86483(19) 0.17263(17)
C15 C 0.7509(2) 0.8904(2) 0.08543(17)
H15 H 0.778(2) 0.948(2) 0.0306(19)
C16 C 0.6834(2) 0.84013(19) 0.07933(17)
H16 H 0.671(2) 0.8577(19) 0.0153(17)
C17 C 0.8891(2) 0.8859(2) 0.25144(19)
C18 C 0.7319(2) 0.50756(19) 0.19124(17)
C19 C 0.5095(2) 0.72634(19) 0.08641(16)
C20 C 0.4932(2) 0.82119(19) 0.00520(16)
H17 H 0.507(2) 0.888(2) -0.0018(19)
C21 C 0.4502(2) 0.8302(2) -0.06699(17)
H18 H 0.437(2) 0.902(2) -0.1228(19)
C22 C 0.4178(2) 0.74435(19) -0.06359(16)
C23 C 0.4229(2) 0.6532(2) 0.02168(17)
H19 H 0.399(2) 0.599(2) 0.0245(18)
C24 C 0.4659(2) 0.6455(2) 0.09257(17)
H20 H 0.476(2) 0.577(2) 0.1466(17)
C25 C 0.3752(3) 0.8444(2) -0.2233(2)
H21 H 0.352(4) 0.834(4) -0.273(3)
H22 H 0.307(4) 0.911(3) -0.209(3)
H23 H 0.451(3) 0.858(2) -0.254(2)
C26 C 0.3434(2) 0.6641(2) -0.13005(19)
H24 H 0.257(3) 0.663(2) -0.092(2)
H25 H 0.405(2) 0.593(2) -0.103(2)
H26 H 0.338(2) 0.677(2) -0.194(2)
N7 N -0.12432(17) 0.25059(16) -0.13648(14)
N8 N 0.34628(18) 0.42363(17) 0.16715(14)
N9 N 0.4068(2) 0.3843(2) 0.31437(16)
N10 N 0.13897(17) 0.01634(16) 0.25339(13)
N11 N 0.33393(19) -0.01424(17) 0.13491(15)
N12 N -0.36585(17) 0.14660(16) 0.53288(14)
C27 C 0.0696(2) 0.20550(19) 0.15404(16)
C28 C 0.0538(2) 0.10956(19) 0.24262(16)
C29 C 0.01184(19) 0.22529(18) 0.08241(16)
C30 C -0.0066(2) 0.3210(2) 0.00145(16)
H27 H 0.006(2) 0.382(2) -0.0039(17)
C31 C -0.0530(2) 0.3301(2) -0.06878(17)
H28 H -0.070(3) 0.401(2) -0.122(2)
C32 C -0.0860(2) 0.24438(19) -0.06445(16)
C33 C -0.0802(2) 0.1529(2) 0.02024(17)
H29 H -0.110(2) 0.093(2) 0.0280(18)
C34 C -0.0333(2) 0.1448(2) 0.08983(17)
H30 H -0.026(2) 0.079(2) 0.1422(18)
C35 C -0.1317(3) 0.3437(2) -0.2227(2)
H31 H -0.049(3) 0.354(2) -0.252(2)
H32 H -0.154(3) 0.329(3) -0.266(3)
H33 H -0.187(3) 0.407(3) -0.212(3)
C36 C -0.1623(2) 0.1633(2) -0.1289(2)
H34 H -0.095(2) 0.095(2) -0.1082(18)
H35 H -0.246(2) 0.166(2) -0.0852(19)
H36 H -0.168(3) 0.178(3) -0.191(3)
C37 C 0.1426(2) 0.25927(18) 0.15418(16)
C38 C 0.1783(2) 0.2323(2) 0.24015(17)
H37 H 0.151(2) 0.179(2) 0.297(2)
C39 C 0.2457(2) 0.2823(2) 0.24653(17)
H38 H 0.268(2) 0.261(2) 0.305(2)
C40 C 0.28316(19) 0.36708(19) 0.16614(17)
C41 C 0.2529(2) 0.3921(2) 0.07911(17)
H39 H 0.281(3) 0.448(2) 0.023(2)
C42 C 0.1877(2) 0.33978(19) 0.07285(17)
H40 H 0.1742(19) 0.3587(17) 0.0084(16)
C43 C 0.3756(2) 0.3991(2) 0.24769(18)
C44 C 0.2410(2) 0.00687(19) 0.18545(17)
C45 C -0.0527(2) 0.12006(19) 0.31638(16)
C46 C -0.1466(2) 0.2190(2) 0.30784(17)
H41 H -0.138(2) 0.2873(19) 0.2497(17)
C47 C -0.2490(2) 0.2283(2) 0.37929(17)
H42 H -0.310(2) 0.296(2) 0.3698(18)
C48 C -0.2641(2) 0.13915(19) 0.46391(16)
C49 C -0.1675(2) 0.0412(2) 0.47243(17)
H43 H -0.175(2) -0.029(2) 0.534(2)
C50 C -0.0671(2) 0.0332(2) 0.40063(17)
H44 H -0.010(2) -0.031(2) 0.4089(17)
C51 C -0.4666(2) 0.2449(2) 0.52238(19)
H45 H -0.480(3) 0.280(3) 0.459(2)
H46 H -0.445(2) 0.303(2) 0.5308(17)
H47 H -0.540(3) 0.230(2) 0.570(2)
C52 C -0.3728(3) 0.0598(2) 0.62427(18)
H48 H -0.374(3) -0.008(3) 0.616(2)
H49 H -0.309(3) 0.040(2) 0.651(2)
H50 H -0.441(3) 0.082(2) 0.665(2)
loop_
_geom_bond_atom_site_label_1
_geom_bond_atom_site_label_2
_geom_bond_site_symmetry_1
_geom_bond_site_symmetry_2
O1 H1 1_555 1_555
O2 H2 1_555 1_555
N1 C6 1_555 1_555
N2 C14 1_555 1_555
N3 C17 1_555 1_555
N4 C1 1_555 1_555
N5 C18 1_555 1_555
N6 C22 1_555 1_555
N7 C32 1_555 1_555
N8 C40 1_555 1_555
N9 C43 1_555 1_555
N10 C28 1_555 1_555
N11 C44 1_555 1_555
N12 C48 1_555 1_555
C1 C2 1_555 1_555
C2 C11 1_555 1_555
C3 C1 1_555 1_555
C4 C3 1_555 1_555
H3 C4 1_555 1_555
C5 C4 1_555 1_555
H4 C5 1_555 1_555
C6 C5 1_555 1_555
C7 C6 1_555 1_555
H5 C7 1_555 1_555
C8 C3 1_555 1_555
H6 C8 1_555 1_555
C9 N1 1_555 1_555
H7 C9 1_555 1_555
H8 C9 1_555 1_555
H9 C9 1_555 1_555
C10 N1 1_555 1_555
H10 C10 1_555 1_555
H11 C10 1_555 1_555
H12 C10 1_555 1_555
C11 C12 1_555 1_555
C12 H13 1_555 1_555
C13 C12 1_555 1_555
H14 C13 1_555 1_555
C14 C13 1_555 1_555
C15 C14 1_555 1_555
H15 C15 1_555 1_555
C16 C11 1_555 1_555
H16 C16 1_555 1_555
C17 N2 1_555 1_555
C18 N4 1_555 1_555
C19 C2 1_555 1_555
C20 C19 1_555 1_555
H17 C20 1_555 1_555
C21 C20 1_555 1_555
H18 C21 1_555 1_555
C22 C21 1_555 1_555
C23 C22 1_555 1_555
H19 C23 1_555 1_555
C24 C19 1_555 1_555
H20 C24 1_555 1_555
C25 N6 1_555 1_555
H21 C25 1_555 1_555
H22 C25 1_555 1_555
H23 C25 1_555 1_555
C26 N6 1_555 1_555
H24 C26 1_555 1_555
H25 C26 1_555 1_555
H26 C26 1_555 1_555
C27 C28 1_555 1_555
C28 C45 1_555 1_555
C29 C27 1_555 1_555
C30 C29 1_555 1_555
H27 C30 1_555 1_555
C31 C30 1_555 1_555
H28 C31 1_555 1_555
C32 C31 1_555 1_555
C33 C32 1_555 1_555
H29 C33 1_555 1_555
C34 C29 1_555 1_555
H30 C34 1_555 1_555
C35 N7 1_555 1_555
H31 C35 1_555 1_555
H32 C35 1_555 1_555
H33 C35 1_555 1_555
C36 N7 1_555 1_555
H34 C36 1_555 1_555
H35 C36 1_555 1_555
H36 C36 1_555 1_555
C37 C27 1_555 1_555
C38 C37 1_555 1_555
H37 C38 1_555 1_555
C39 C38 1_555 1_555
H38 C39 1_555 1_555
C40 C39 1_555 1_555
C41 C40 1_555 1_555
H39 C41 1_555 1_555
C42 C37 1_555 1_555
H40 C42 1_555 1_555
C43 N8 1_555 1_555
C44 N10 1_555 1_555
C45 C46 1_555 1_555
C46 H41 1_555 1_555
C47 C46 1_555 1_555
H42 C47 1_555 1_555
C48 C47 1_555 1_555
C49 C48 1_555 1_555
H43 C49 1_555 1_555
C50 C45 1_555 1_555
H44 C50 1_555 1_555
C51 N12 1_555 1_555
H45 C51 1_555 1_555
H46 C51 1_555 1_555
H47 C51 1_555 1_555
C52 N12 1_555 1_555
H48 C52 1_555 1_555
H49 C52 1_555 1_555
H50 C52 1_555 1_555
C53 O1 1_555 1_555
H51 C53 1_555 1_555
H52 C53 1_555 1_555
H53 C53 1_555 1_555
C54 O2 1_555 1_555
H54 C54 1_555 1_555
H55 C54 1_555 1_555
H56 C54 1_555 1_555
C7 C8 1_555 1_555
C15 C16 1_555 1_555
C23 C24 1_555 1_555
C33 C34 1_555 1_555
C41 C42 1_555 1_555
C49 C50 1_555 1_555

#END
