
#######################################################################
#
#                 Cambridge Crystallographic Data Centre
#                                CCDC 
#
#######################################################################
#
# If this CIF has been generated from an entry in the Cambridge 
# Structural Database, then it will include bibliographic, chemical, 
# crystal, experimental, refinement or atomic coordinate data resulting 
# from the CCDC's data processing and validation procedures.
#
#######################################################################

data_VAVMUC
_chemical_formula_moiety         'C54 H66 S2 Si2'
_chemical_name_systematic        
([1]Benzothieno[3',2':6,7]anthra[2,3-b][1]benzothiene-7,15-diyldiethyne-2,1-diyl)bis(tributylsilane)
_symmetry_cell_setting           triclinic
_symmetry_space_group_name_H-M   'P -1'
_symmetry_Int_Tables_number      2
_space_group_name_Hall           '-P 1'
loop_
_symmetry_equiv_pos_site_id
_symmetry_equiv_pos_as_xyz
1 x,y,z
2 -x,-y,-z
_cell_length_a                   8.9292(4)
_cell_length_b                   15.2194(6)
_cell_length_c                   18.4144(8)
_cell_angle_alpha                83.0261(5)
_cell_angle_beta                 76.3552(5)
_cell_angle_gamma                88.7465(5)
_cell_volume                     2413.78
_exptl_crystal_colour            pink
_exptl_crystal_description       prism
_cell_formula_units_Z            2
_exptl_crystal_recrystallization_method dichloromethane/acetone
loop_
_atom_site_label
_atom_site_type_symbol
_atom_site_fract_x
_atom_site_fract_y
_atom_site_fract_z
S1 S 0.59679(6) 0.57964(3) 0.32487(3)
S2 S -0.17128(8) 0.03959(4) 0.45952(3)
Si1 Si -0.09287(6) 0.43052(4) 0.76671(3)
Si2 Si 0.38138(7) 0.20302(4) 0.17068(3)
C1 C 0.5705(2) 0.65270(12) 0.39340(10)
C2 C 0.6601(2) 0.72747(13) 0.39048(12)
H1 H 0.7426 0.7444 0.3482
C3 C 0.6258(2) 0.77630(13) 0.45070(12)
H2 H 0.6861 0.8272 0.4499
C4 C 0.5044(2) 0.75226(13) 0.51253(12)
H3 H 0.4827 0.7870 0.5533
C5 C 0.4151(2) 0.67829(12) 0.51520(11)
H4 H 0.3322 0.6623 0.5574
C6 C 0.4478(2) 0.62743(11) 0.45535(10)
C7 C 0.37164(19) 0.54656(11) 0.44729(9)
C8 C 0.25122(19) 0.50086(11) 0.49607(10)
H5 H 0.2048 0.5224 0.5424
C9 C 0.19467(19) 0.42155(11) 0.47827(9)
C10 C 0.07434(19) 0.37194(11) 0.52925(9)
C11 C 0.01826(19) 0.29309(11) 0.51081(10)
C12 C -0.1047(2) 0.24382(12) 0.56117(10)
H6 H -0.1514 0.2641 0.6080
C13 C -0.1568(2) 0.16724(12) 0.54295(11)
C14 C -0.2834(2) 0.10952(13) 0.58521(12)
C15 C -0.3839(2) 0.11848(14) 0.65386(12)
H7 H -0.3724 0.1665 0.6806
C16 C -0.5012(3) 0.05694(16) 0.68318(14)
H8 H -0.5701 0.0630 0.7302
C17 C -0.5190(3) -0.01284(18) 0.64486(15)
H9 H -0.6000 -0.0544 0.6658
C18 C -0.4213(3) -0.02322(17) 0.57670(15)
H10 H -0.4338 -0.0716 0.5505
C19 C -0.3036(3) 0.03855(14) 0.54689(13)
C20 C -0.0850(2) 0.13685(12) 0.47274(11)
C21 C 0.0346(2) 0.18152(12) 0.42282(11)
H11 H 0.0812 0.1593 0.3768
C22 C 0.0888(2) 0.26166(12) 0.44039(10)
C23 C 0.2124(2) 0.30983(12) 0.39004(10)
C24 C 0.26495(19) 0.39006(11) 0.40742(9)
C25 C 0.3898(2) 0.43836(12) 0.35771(10)
H12 H 0.4373 0.4184 0.3108
C26 C 0.4412(2) 0.51346(12) 0.37755(10)
C27 C 0.01348(19) 0.39801(11) 0.60267(10)
C28 C -0.0336(2) 0.41483(12) 0.66640(10)
C29 C -0.0696(2) 0.54906(14) 0.77876(11)
H13 H -0.1573 0.5823 0.7649
H14 H -0.0779 0.5527 0.8329
C30 C 0.0791(2) 0.59653(14) 0.73435(13)
H15 H 0.1683 0.5617 0.7446
H16 H 0.0837 0.5992 0.6799
C31 C 0.0917(3) 0.68988(14) 0.75375(13)
H17 H -0.0019 0.7228 0.7472
H18 H 0.0938 0.6864 0.8075
C32 C 0.2310(3) 0.74174(16) 0.70766(15)
H19 H 0.2296 0.8009 0.7238
H20 H 0.2292 0.7471 0.6543
H21 H 0.3248 0.7109 0.7150
C33 C 0.0291(2) 0.35564(15) 0.81744(12)
H22 H 0.0271 0.2956 0.8022
H23 H 0.1370 0.3773 0.8016
C34 C -0.0232(3) 0.3496(2) 0.90310(13)
H24 H -0.0106 0.4085 0.9186
H25 H -0.1343 0.3343 0.9184
C35 C 0.0640(3) 0.2819(3) 0.94490(16)
H26 H 0.0524 0.2231 0.9290
H27 H 0.1750 0.2976 0.9300
C36 C 0.0128(4) 0.2754(3) 1.02695(19)
H28 H 0.0741 0.2308 1.0498
H29 H -0.0962 0.2582 1.0425
H30 H 0.0263 0.3329 1.0435
C37 C -0.2990(2) 0.39626(14) 0.80538(11)
H31 H -0.3315 0.4118 0.8575
H32 H -0.3625 0.4313 0.7751
C38 C -0.3335(3) 0.29971(19) 0.8067(2)
H33 H -0.2560 0.2641 0.8276
H34 H -0.3230 0.2867 0.7543
C39 C -0.4931(3) 0.2712(2) 0.85252(19)
H35 H -0.5097 0.2937 0.9020
H36 H -0.5701 0.2998 0.8266
C40 C -0.5226(5) 0.1754(3) 0.8653(3)
H37 H -0.6283 0.1637 0.8949
H38 H -0.4500 0.1462 0.8928
H39 H -0.5090 0.1522 0.8168
C41 C 0.2834(2) 0.27616(12) 0.32075(10)
C42 C 0.3354(2) 0.24549(13) 0.26273(11)
C43 C 0.2141(2) 0.13241(14) 0.16815(12)
H40 H 0.1200 0.1690 0.1776
H41 H 0.2295 0.1159 0.1165
C44 C 0.1842(3) 0.04778(15) 0.22314(13)
H42 H 0.2679 0.0053 0.2077
H43 H 0.1873 0.0619 0.2739
C45 C 0.0306(3) 0.00398(18) 0.22758(15)
H44 H -0.0531 0.0448 0.2471
H45 H 0.0242 -0.0050 0.1761
C46 C 0.0037(4) -0.0837(2) 0.27657(19)
H46 H -0.0974 -0.1074 0.2764
H47 H 0.0067 -0.0755 0.3282
H48 H 0.0841 -0.1253 0.2570
C47 C 0.5637(2) 0.13800(14) 0.15787(11)
H49 H 0.6488 0.1767 0.1615
H50 H 0.5524 0.0887 0.1992
C48 C 0.6064(3) 0.10020(17) 0.08246(13)
H51 H 0.5188 0.0641 0.0780
H52 H 0.6218 0.1499 0.0414
C49 C 0.7500(3) 0.04369(19) 0.07177(15)
H53 H 0.7350 -0.0064 0.1125
H54 H 0.8382 0.0796 0.0758
C50 C 0.7878(4) 0.0076(3) -0.00384(19)
H55 H 0.8810 -0.0285 -0.0081
H56 H 0.8052 0.0569 -0.0444
H57 H 0.7016 -0.0289 -0.0078
C51 C 0.3865(15) 0.2941(12) 0.0931(10)
H58 H 0.3709 0.2683 0.0486
H59 H 0.2991 0.3342 0.1087
C52 C 0.5407(6) 0.3511(4) 0.0689(3)
H60 H 0.6297 0.3107 0.0588
H61 H 0.5409 0.3896 0.0215
C53 C 0.5602(7) 0.4069(4) 0.1265(4)
H62 H 0.5736 0.3677 0.1715
H63 H 0.4646 0.4410 0.1416
C54 C 0.6963(9) 0.4716(5) 0.1013(4)
H64 H 0.7015 0.5054 0.1428
H65 H 0.6825 0.5124 0.0580
H66 H 0.7921 0.4386 0.0872
C55? C 0.4235(16) 0.3054(12) 0.0994(11)
C56? C 0.5447(10) 0.3655(5) 0.1105(4)
C57? C 0.5826(9) 0.4437(4) 0.0518(4)
C58? C 0.7081(13) 0.5006(6) 0.0623(6)
H67? H 0.4563 0.2867 0.0485
H68? H 0.3269 0.3393 0.1016
H69? H 0.5095 0.3868 0.1603
H70? H 0.6398 0.3309 0.1108
H71? H 0.6140 0.4227 0.0017
H72? H 0.4888 0.4799 0.0529
H73? H 0.7269 0.5509 0.0226
H74? H 0.8025 0.4658 0.0596
H75? H 0.6773 0.5224 0.1115
loop_
_geom_bond_atom_site_label_1
_geom_bond_atom_site_label_2
_geom_bond_site_symmetry_1
_geom_bond_site_symmetry_2
S1 C1 1_555 1_555
S2 C19 1_555 1_555
Si1 C28 1_555 1_555
Si2 C42 1_555 1_555
C1 C2 1_555 1_555
C2 H1 1_555 1_555
C3 C2 1_555 1_555
H2 C3 1_555 1_555
C4 C3 1_555 1_555
H3 C4 1_555 1_555
C5 C4 1_555 1_555
H4 C5 1_555 1_555
C6 C1 1_555 1_555
C7 C6 1_555 1_555
C8 C7 1_555 1_555
H5 C8 1_555 1_555
C9 C8 1_555 1_555
C10 C9 1_555 1_555
C11 C10 1_555 1_555
C12 C11 1_555 1_555
H6 C12 1_555 1_555
C13 C12 1_555 1_555
C14 C13 1_555 1_555
C15 C14 1_555 1_555
H7 C15 1_555 1_555
C16 C15 1_555 1_555
H8 C16 1_555 1_555
C17 C16 1_555 1_555
H9 C17 1_555 1_555
C18 C17 1_555 1_555
H10 C18 1_555 1_555
C19 C14 1_555 1_555
C20 S2 1_555 1_555
C21 C20 1_555 1_555
H11 C21 1_555 1_555
C22 C11 1_555 1_555
C23 C22 1_555 1_555
C24 C9 1_555 1_555
C25 C24 1_555 1_555
H12 C25 1_555 1_555
C26 S1 1_555 1_555
C27 C10 1_555 1_555
C28 C27 1_555 1_555
C29 Si1 1_555 1_555
H13 C29 1_555 1_555
H14 C29 1_555 1_555
C30 C29 1_555 1_555
H15 C30 1_555 1_555
H16 C30 1_555 1_555
C31 C30 1_555 1_555
H17 C31 1_555 1_555
H18 C31 1_555 1_555
C32 C31 1_555 1_555
H19 C32 1_555 1_555
H20 C32 1_555 1_555
H21 C32 1_555 1_555
C33 Si1 1_555 1_555
H22 C33 1_555 1_555
H23 C33 1_555 1_555
C34 C33 1_555 1_555
H24 C34 1_555 1_555
H25 C34 1_555 1_555
C35 C34 1_555 1_555
H26 C35 1_555 1_555
H27 C35 1_555 1_555
C36 C35 1_555 1_555
H28 C36 1_555 1_555
H29 C36 1_555 1_555
H30 C36 1_555 1_555
C37 Si1 1_555 1_555
H31 C37 1_555 1_555
H32 C37 1_555 1_555
C38 C37 1_555 1_555
H33 C38 1_555 1_555
H34 C38 1_555 1_555
C39 C38 1_555 1_555
H35 C39 1_555 1_555
H36 C39 1_555 1_555
C40 C39 1_555 1_555
H37 C40 1_555 1_555
H38 C40 1_555 1_555
H39 C40 1_555 1_555
C41 C23 1_555 1_555
C42 C41 1_555 1_555
C43 Si2 1_555 1_555
H40 C43 1_555 1_555
H41 C43 1_555 1_555
C44 C43 1_555 1_555
H42 C44 1_555 1_555
H43 C44 1_555 1_555
C45 C44 1_555 1_555
H44 C45 1_555 1_555
H45 C45 1_555 1_555
C46 C45 1_555 1_555
H46 C46 1_555 1_555
H47 C46 1_555 1_555
H48 C46 1_555 1_555
C47 Si2 1_555 1_555
H49 C47 1_555 1_555
H50 C47 1_555 1_555
C48 C47 1_555 1_555
H51 C48 1_555 1_555
H52 C48 1_555 1_555
C49 C48 1_555 1_555
H53 C49 1_555 1_555
H54 C49 1_555 1_555
C50 C49 1_555 1_555
H55 C50 1_555 1_555
H56 C50 1_555 1_555
H57 C50 1_555 1_555
C51 Si2 1_555 1_555
H58 C51 1_555 1_555
H59 C51 1_555 1_555
C52 C51 1_555 1_555
H60 C52 1_555 1_555
H61 C52 1_555 1_555
C53 C52 1_555 1_555
H62 C53 1_555 1_555
H63 C53 1_555 1_555
C54 C53 1_555 1_555
H64 C54 1_555 1_555
H65 C54 1_555 1_555
H66 C54 1_555 1_555
C5 C6 1_555 1_555
C7 C26 1_555 1_555
C13 C20 1_555 1_555
C18 C19 1_555 1_555
C21 C22 1_555 1_555
C23 C24 1_555 1_555
C25 C26 1_555 1_555

#END
