
#######################################################################
#
#                 Cambridge Crystallographic Data Centre
#                                CCDC 
#
#######################################################################
#
# If this CIF has been generated from an entry in the Cambridge 
# Structural Database, then it will include bibliographic, chemical, 
# crystal, experimental, refinement or atomic coordinate data resulting 
# from the CCDC's data processing and validation procedures.
#
#######################################################################

data_VAVMAI
_chemical_formula_moiety         'C24 H19 N5,0.5(C7 H8)'
_chemical_name_systematic        
'(2-(4-(Cyanimino)cyclohexa-2,5-dien-1-ylidene)-2-(4-(dimethylamino)phenyl)-1-phenylethylidene)cyanamide toluene solvate'
_symmetry_cell_setting           triclinic
_symmetry_space_group_name_H-M   'P 1'
_symmetry_Int_Tables_number      1
_space_group_name_Hall           'P 1'
loop_
_symmetry_equiv_pos_site_id
_symmetry_equiv_pos_as_xyz
1 x,y,z
_cell_length_a                   7.2402(13)
_cell_length_b                   11.587(2)
_cell_length_c                   13.950(4)
_cell_angle_alpha                89.683(8)
_cell_angle_beta                 78.116(9)
_cell_angle_gamma                74.635(13)
_cell_volume                     1102.79
_exptl_crystal_colour            'dark blue'
_exptl_crystal_description       plate
_cell_formula_units_Z            2
loop_
_atom_site_label
_atom_site_type_symbol
_atom_site_fract_x
_atom_site_fract_y
_atom_site_fract_z
N1 N -0.487(3) 1.5062(15) -0.1771(13)
N2 N -0.794(3) 1.6125(17) -0.0630(15)
N3 N -0.256(3) 1.2276(16) 0.2341(14)
N4 N -0.321(2) 2.0372(15) -0.0611(13)
N5 N -0.351(3) 2.1632(18) -0.2133(16)
C1 C -0.315(3) 1.4959(15) -0.1538(13)
C2 C -0.289(3) 1.5496(18) -0.0687(16)
C3 C -0.260(3) 1.4606(15) 0.0156(14)
C4 C -0.292(2) 1.3443(14) 0.0003(13)
C5 C -0.285(3) 1.2643(15) 0.0760(12)
C6 C -0.239(3) 1.3009(18) 0.1644(15)
C7 C -0.194(2) 1.4097(13) 0.1720(13)
C8 C -0.194(2) 1.4875(13) 0.1016(11)
C9 C -0.644(3) 1.5564(18) -0.1066(15)
C10 C -0.217(2) 1.2467(15) 0.3304(13)
C11 C -0.284(4) 1.104(2) 0.218(2)
C12 C -0.144(3) 1.434(2) -0.2276(18)
C13 C -0.157(3) 1.3785(16) -0.3170(13)
C14 C 0.012(4) 1.313(3) -0.380(2)
C15 C 0.194(5) 1.307(3) -0.372(2)
C16 C 0.208(3) 1.3672(19) -0.2866(16)
C17 C 0.050(3) 1.431(2) -0.2182(18)
C18 C -0.297(3) 1.6700(15) -0.0632(12)
C19 C -0.320(4) 1.745(2) 0.0228(19)
C20 C -0.326(3) 1.8622(17) 0.0236(16)
C21 C -0.309(3) 1.9211(19) -0.0673(16)
C22 C -0.300(4) 1.849(2) -0.157(2)
C23 C -0.283(3) 1.7331(18) -0.1527(17)
C24 C -0.326(3) 2.092(2) -0.1415(18)
H1 H -0.3210 1.3202 -0.0674
H2 H -0.3132 1.1799 0.0683
H3 H -0.1584 1.4320 0.2381
H4 H -0.1475 1.5658 0.1083
H5 H -0.0642 1.2436 0.3240
H6 H -0.2572 1.1865 0.3851
H7 H -0.3062 1.3369 0.3519
H8 H -0.4143 1.1157 0.1890
H9 H -0.3027 1.0629 0.2877
H10 H -0.1600 1.0469 0.1673
H11 H -0.2963 1.3873 -0.3342
H12 H -0.0054 1.2643 -0.4403
H13 H 0.3189 1.2613 -0.4251
H14 H 0.3504 1.3622 -0.2748
H15 H 0.0712 1.4788 -0.1584
H16 H -0.3318 1.7050 0.0913
H17 H -0.3440 1.9105 0.0907
H18 H -0.3066 1.8907 -0.2246
H19 H -0.2579 1.6827 -0.2196
N6 N 0.418(3) 0.8416(17) 0.3752(15)
N7 N 0.729(3) 0.7479(18) 0.2542(16)
N8 N 0.192(2) 1.1282(14) -0.0369(13)
N9 N 0.279(3) 0.3065(16) 0.2619(14)
N10 N 0.292(3) 0.1852(16) 0.4017(14)
C25 C 0.239(3) 0.8493(19) 0.3684(16)
C26 C 0.219(3) 0.8008(18) 0.2604(16)
C27 C 0.246(4) 0.674(2) 0.2612(14)
C28 C 0.265(3) 0.6059(15) 0.1733(16)
C29 C 0.264(3) 0.4859(16) 0.1773(15)
C30 C 0.268(3) 0.4251(16) 0.2642(12)
C31 C 0.249(2) 0.4892(12) 0.3527(12)
C32 C 0.248(3) 0.6108(15) 0.3491(15)
C33 C 0.578(3) 0.779(2) 0.3114(17)
C34 C 0.205(3) 0.8742(15) 0.1955(14)
C35 C 0.233(3) 0.9891(16) 0.2047(17)
C36 C 0.227(4) 1.071(2) 0.1324(15)
C37 C 0.193(3) 1.0508(17) 0.0388(15)
C38 C 0.136(4) 0.9421(17) 0.0302(18)
C39 C 0.153(4) 0.861(2) 0.1038(15)
C40 C 0.243(3) 1.2374(16) -0.0262(15)
C41 C 0.169(5) 1.091(3) -0.133(3)
C42 C 0.073(2) 0.9119(16) 0.4302(13)
C43 C -0.116(2) 0.9244(17) 0.4129(15)
C44 C -0.279(3) 0.982(2) 0.4798(14)
C45 C -0.256(2) 1.0348(16) 0.5649(13)
C46 C -0.071(2) 1.0286(14) 0.5839(13)
C47 C 0.091(3) 0.970(2) 0.5148(15)
C48 C 0.287(3) 0.2420(18) 0.3431(17)
H20 H 0.2809 0.6465 0.1049
H21 H 0.2597 0.4394 0.1129
H22 H 0.2359 0.4469 0.4204
H23 H 0.2483 0.6572 0.4142
H24 H 0.2606 1.0146 0.2722
H25 H 0.2505 1.1546 0.1483
H26 H 0.0806 0.9244 -0.0314
H27 H 0.1238 0.7780 0.0898
H28 H 0.1182 1.3003 0.0193
H29 H 0.2754 1.2725 -0.0977
H30 H 0.3679 1.2238 0.0073
H31 H 0.3040 1.0784 -0.1867
H32 H 0.0624 1.1699 -0.1481
H33 H 0.1136 1.0138 -0.1352
H34 H -0.1314 0.8881 0.3462
H35 H -0.4208 0.9867 0.4678
H36 H -0.3833 1.0810 0.6168
H37 H -0.0569 1.0680 0.6495
H38 H 0.2327 0.9685 0.5254
C49 C 0.546(3) 0.6318(18) 0.5565(16)
C50 C 0.578(3) 0.734(2) 0.5958(19)
C51 C 0.424(3) 0.806(2) 0.6627(17)
C52 C 0.220(3) 0.6779(19) 0.6627(16)
C53 C 0.372(3) 0.6047(19) 0.5883(17)
C54 C 0.698(6) 0.561(4) 0.486(3)
C55 C 0.244(4) 0.784(3) 0.705(2)
H39 H 0.7145 0.7544 0.5751
H40 H 0.4448 0.8878 0.6851
H41 H 0.0882 0.6532 0.6869
H42 H 0.3485 0.5278 0.5573
H43 H 0.7422 0.4670 0.5004
H44 H 0.8141 0.6013 0.4921
H45 H 0.6691 0.5707 0.4134
H46 H 0.1379 0.8394 0.7616
loop_
_geom_bond_atom_site_label_1
_geom_bond_atom_site_label_2
_geom_bond_site_symmetry_1
_geom_bond_site_symmetry_2
N1 C1 1_555 1_555
N2 C9 1_555 1_555
N3 C6 1_555 1_555
N4 C21 1_555 1_555
N5 C24 1_555 1_555
N6 C25 1_555 1_555
N7 C33 1_555 1_555
N8 C37 1_555 1_555
N9 C30 1_555 1_555
N10 C48 1_555 1_555
C1 C2 1_555 1_555
C2 C3 1_555 1_555
C3 C4 1_555 1_555
C4 C5 1_555 1_555
C5 C6 1_555 1_555
C6 C7 1_555 1_555
C7 C8 1_555 1_555
C8 C3 1_555 1_555
C9 N1 1_555 1_555
C10 N3 1_555 1_555
C11 N3 1_555 1_555
C12 C1 1_555 1_555
C13 C12 1_555 1_555
C14 C13 1_555 1_555
C15 C14 1_555 1_555
C16 C15 1_555 1_555
C17 C12 1_555 1_555
C18 C2 1_555 1_555
C19 C18 1_555 1_555
C20 C19 1_555 1_555
C21 C20 1_555 1_555
C22 C21 1_555 1_555
C23 C18 1_555 1_555
C24 N4 1_555 1_555
C25 C26 1_555 1_555
C26 C27 1_555 1_555
C27 C28 1_555 1_555
C28 C29 1_555 1_555
C29 C30 1_555 1_555
C30 C31 1_555 1_555
C31 C32 1_555 1_555
C32 C27 1_555 1_555
C33 N6 1_555 1_555
C34 C26 1_555 1_555
C35 C34 1_555 1_555
C36 C35 1_555 1_555
C37 C36 1_555 1_555
C38 C37 1_555 1_555
C39 C34 1_555 1_555
C40 N8 1_555 1_555
C41 N8 1_555 1_555
C42 C25 1_555 1_555
C43 C42 1_555 1_555
C44 C43 1_555 1_555
C45 C44 1_555 1_555
C46 C45 1_555 1_555
C47 C42 1_555 1_555
C48 N9 1_555 1_555
C49 C50 1_555 1_555
C50 C51 1_555 1_555
C51 C55 1_555 1_555
C52 C53 1_555 1_555
C53 C49 1_555 1_555
C54 C49 1_555 1_555
C55 C52 1_555 1_555
H1 C4 1_555 1_555
H2 C5 1_555 1_555
H3 C7 1_555 1_555
H4 C8 1_555 1_555
H5 C10 1_555 1_555
H6 C10 1_555 1_555
H7 C10 1_555 1_555
H8 C11 1_555 1_555
H9 C11 1_555 1_555
H10 C11 1_555 1_555
H11 C13 1_555 1_555
H12 C14 1_555 1_555
H13 C15 1_555 1_555
H14 C16 1_555 1_555
H15 C17 1_555 1_555
H16 C19 1_555 1_555
H17 C20 1_555 1_555
H18 C22 1_555 1_555
H19 C23 1_555 1_555
H20 C28 1_555 1_555
H21 C29 1_555 1_555
H22 C31 1_555 1_555
H23 C32 1_555 1_555
H24 C35 1_555 1_555
H25 C36 1_555 1_555
H26 C38 1_555 1_555
H27 C39 1_555 1_555
H28 C40 1_555 1_555
H29 C40 1_555 1_555
H30 C40 1_555 1_555
H31 C41 1_555 1_555
H32 C41 1_555 1_555
H33 C41 1_555 1_555
H34 C43 1_555 1_555
H35 C44 1_555 1_555
H36 C45 1_555 1_555
H37 C46 1_555 1_555
H38 C47 1_555 1_555
H39 C50 1_555 1_555
H40 C51 1_555 1_555
H41 C52 1_555 1_555
H42 C53 1_555 1_555
H43 C54 1_555 1_555
H44 C54 1_555 1_555
H45 C54 1_555 1_555
H46 C55 1_555 1_555
C16 C17 1_555 1_555
C22 C23 1_555 1_555
C38 C39 1_555 1_555
C46 C47 1_555 1_555

#END
