
#######################################################################
#
#                 Cambridge Crystallographic Data Centre
#                                CCDC 
#
#######################################################################
#
# If this CIF has been generated from an entry in the Cambridge 
# Structural Database, then it will include bibliographic, chemical, 
# crystal, experimental, refinement or atomic coordinate data resulting 
# from the CCDC's data processing and validation procedures.
#
#######################################################################

data_VAVWAS
_chemical_formula_moiety         'C30 H44 N1 O9 1+,F6 P1 1-'
_chemical_name_systematic        
'N-(4-((2,3,5,6,8,9,11,12,14,15,17,18-Dodecahydro-1,4,7,10,13,16,19-benzoheptaoxacyclohenicosin-21-ylcarbonyl)oxy)benzyl)butan-1-aminium hexafluorophosphate'
_symmetry_cell_setting           triclinic
_symmetry_space_group_name_H-M   'P -1'
_symmetry_Int_Tables_number      2
_space_group_name_Hall           '-P 1'
loop_
_symmetry_equiv_pos_site_id
_symmetry_equiv_pos_as_xyz
1 x,y,z
2 -x,-y,-z
_cell_length_a                   7.9713(4)
_cell_length_b                   11.8560(8)
_cell_length_c                   19.9106(13)
_cell_angle_alpha                89.124(5)
_cell_angle_beta                 87.531(4)
_cell_angle_gamma                86.362(5)
_cell_volume                     1876.02
_exptl_crystal_colour            colorless
_exptl_crystal_description       block
_cell_formula_units_Z            2
loop_
_atom_site_label
_atom_site_type_symbol
_atom_site_fract_x
_atom_site_fract_y
_atom_site_fract_z
P1 P 0.45075(8) 0.78403(6) 0.29945(4)
F1 F 0.27500(18) 0.81890(14) 0.33744(8)
F2 F 0.46975(19) 0.91153(13) 0.27605(9)
F3 F 0.4294(2) 0.65608(13) 0.32375(9)
F4 F 0.5458(2) 0.80516(15) 0.36671(9)
F5 F 0.6237(2) 0.74739(16) 0.26203(11)
F6 F 0.3500(2) 0.76243(15) 0.23367(8)
N1 N 0.0638(2) 0.70223(19) -0.28191(10)
H1 H 0.0469 0.6336 -0.2638
H2 H 0.0345 0.7539 -0.2502
C1 C -0.3066(4) 0.8208(4) -0.4309(2)
H3 H -0.3880 0.8195 -0.4650
H4 H -0.1958 0.8062 -0.4509
H5 H -0.3142 0.8937 -0.4103
C2 C -0.3402(3) 0.7333(3) -0.37953(14)
H6 H -0.3294 0.6602 -0.4011
H7 H -0.4560 0.7454 -0.3629
C3 C -0.2293(3) 0.7284(4) -0.32031(15)
H8 H -0.2558 0.7951 -0.2933
H9 H -0.2543 0.6629 -0.2927
C4 C -0.0472(2) 0.7218(2) -0.33893(11)
H10 H -0.0238 0.6612 -0.3708
H11 H -0.0199 0.7918 -0.3615
C5 C 0.2461(2) 0.7082(2) -0.30016(11)
H12 H 0.2683 0.7850 -0.3136
H13 H 0.2759 0.6595 -0.3381
C6 C 0.3537(2) 0.67225(19) -0.24201(11)
C7 C 0.3899(3) 0.7481(2) -0.19328(12)
H14 H 0.3491 0.8231 -0.1968
C8 C 0.4863(3) 0.7138(2) -0.13904(12)
H15 H 0.5090 0.7647 -0.1061
C9 C 0.5472(3) 0.6029(2) -0.13537(12)
C10 C 0.5172(3) 0.5264(2) -0.18369(12)
H16 H 0.5611 0.4520 -0.1807
C11 C 0.4195(3) 0.5622(2) -0.23748(12)
H17 H 0.3986 0.5112 -0.2707
O1 O 0.6450(5) 0.5375(4) -0.0877(2)
O2 O 0.6558(4) 0.6805(3) -0.01488(16)
C12 C 0.6840(5) 0.5825(5) -0.0303(3)
C13 C 0.7717(4) 0.4966(2) 0.01356(13)
C14 C 0.8004(4) 0.3849(2) -0.00636(11)
H18 H 0.7623 0.3622 -0.0472
C15 C 0.8859(3) 0.30710(18) 0.03479(14)
H19 H 0.9050 0.2324 0.0215
C16 C 0.9428(3) 0.3410(2) 0.09588(13)
C17 C 0.9142(4) 0.4526(3) 0.11581(11)
C18 C 0.8286(4) 0.53043(19) 0.07465(14)
H20 H 0.8095 0.6051 0.0880
O3 O 1.0268(5) 0.2703(3) 0.1396(2)
O4 O 1.0061(5) 0.0740(4) 0.2246(2)
O5 O 0.8926(6) 0.0399(4) 0.3678(2)
O6 O 0.7348(7) 0.2140(3) 0.4526(2)
O7 O 0.8268(6) 0.4476(3) 0.4427(2)
O8 O 0.9187(6) 0.5556(4) 0.3138(2)
O9 O 0.9752(6) 0.4776(4) 0.1770(2)
C19 C 1.0669(7) 0.1578(4) 0.1174(3)
H21 H 1.1491 0.1580 0.0800
H22 H 0.9667 0.1252 0.1023
C20 C 1.1372(6) 0.0887(4) 0.1751(3)
H23 H 1.1827 0.0156 0.1591
H24 H 1.2273 0.1271 0.1944
C21 C 1.0479(6) -0.0202(4) 0.2677(3)
H25 H 1.1453 -0.0052 0.2929
H26 H 1.0755 -0.0871 0.2410
C22 C 0.9012(7) -0.0400(5) 0.3152(3)
H27 H 0.7979 -0.0331 0.2910
H28 H 0.9132 -0.1159 0.3340
C23 C 0.7570(7) 0.0228(5) 0.4141(3)
H29 H 0.7619 -0.0553 0.4295
H30 H 0.6512 0.0386 0.3924
C24 C 0.7669(7) 0.0994(4) 0.4725(3)
H31 H 0.6852 0.0797 0.5075
H32 H 0.8780 0.0896 0.4906
C25 C 0.7416(8) 0.2874(4) 0.5073(3)
H33 H 0.8536 0.2810 0.5248
H34 H 0.6628 0.2656 0.5430
C26 C 0.6993(7) 0.4075(4) 0.4865(3)
H35 H 0.5933 0.4123 0.4641
H36 H 0.6864 0.4546 0.5260
C27 C 0.7994(7) 0.5632(4) 0.4264(3)
H37 H 0.7975 0.6075 0.4670
H38 H 0.6913 0.5762 0.4061
C28 C 0.9366(7) 0.6003(5) 0.3783(3)
H39 H 0.9316 0.6821 0.3754
H40 H 1.0454 0.5746 0.3948
C29 C 1.0290(7) 0.6045(5) 0.2650(3)
H41 H 1.1402 0.5664 0.2663
H42 H 1.0384 0.6837 0.2747
C30 C 0.9599(6) 0.5928(4) 0.1966(3)
H43 H 0.8424 0.6199 0.1975
H44 H 1.0210 0.6382 0.1641
C31? C 0.6976(6) 0.4960(5) -0.0513(3)
C32? C 0.7713(4) 0.5051(3) 0.01589(13)
C33? C 0.7648(4) 0.6060(2) 0.05076(15)
C34? C 0.8365(4) 0.6098(2) 0.11304(14)
C35? C 0.9147(4) 0.5126(3) 0.14044(12)
C36? C 0.9212(4) 0.4117(2) 0.10556(16)
C37? C 0.8495(4) 0.4079(2) 0.04329(16)
C38? C 0.9974(8) 0.6108(5) 0.2357(3)
C39? C 1.0487(7) 0.5873(5) 0.3071(3)
C40? C 0.8925(9) 0.5773(6) 0.4100(3)
C41? C 0.7570(9) 0.5168(6) 0.4466(4)
C42? C 0.6965(8) 0.3436(6) 0.4974(4)
C43? C 0.7593(9) 0.2225(5) 0.5044(4)
C44? C 0.8121(10) 0.0515(5) 0.4472(4)
C45? C 0.7962(10) -0.0105(7) 0.3835(3)
C46? C 0.9242(10) -0.0420(6) 0.2773(3)
C47? C 1.0546(8) -0.0054(6) 0.2266(4)
C48? C 1.1046(8) 0.1272(6) 0.1401(3)
C49? C 1.0167(7) 0.2185(4) 0.0985(3)
H45? H 0.7125 0.6710 0.0324
H46? H 0.8321 0.6774 0.1364
H47? H 0.8539 0.3403 0.0199
H48? H 0.8894 0.6534 0.2361
H49? H 1.0797 0.6556 0.2123
H50? H 1.1491 0.5366 0.3071
H51? H 1.0734 0.6572 0.3283
H52? H 0.8625 0.6578 0.4092
H53? H 0.9970 0.5647 0.4330
H54? H 0.7281 0.5528 0.4893
H55? H 0.6572 0.5198 0.4203
H56? H 0.5887 0.3483 0.4764
H57? H 0.6812 0.3775 0.5415
H58? H 0.8735 0.2186 0.5197
H59? H 0.6894 0.1849 0.5378
H60? H 0.7470 0.0157 0.4829
H61? H 0.9290 0.0461 0.4592
H62? H 0.8196 -0.0908 0.3912
H63? H 0.6822 0.0011 0.3685
H64? H 0.8162 -0.0411 0.2566
H65? H 0.9536 -0.1189 0.2919
H66? H 1.1586 0.0052 0.2485
H67? H 1.0768 -0.0633 0.1929
H68? H 1.1336 0.0614 0.1127
H69? H 1.2076 0.1541 0.1564
H70? H 1.0805 0.2295 0.0566
H71? H 0.9058 0.1963 0.0880
O10? O 0.6346(5) 0.5988(4) -0.0733(2)
O11? O 0.6997(5) 0.4103(3) -0.0822(2)
O12? O 0.9862(6) 0.5068(4) 0.2018(2)
O13? O 0.9145(7) 0.5372(5) 0.3434(2)
O14? O 0.8149(7) 0.4025(5) 0.4576(3)
O15? O 0.7561(9) 0.1666(5) 0.4422(3)
O16? O 0.9104(8) 0.0289(6) 0.3337(3)
O17? O 0.9966(6) 0.0976(4) 0.1953(3)
O18? O 1.0018(6) 0.3207(3) 0.1353(3)
loop_
_geom_bond_atom_site_label_1
_geom_bond_atom_site_label_2
_geom_bond_site_symmetry_1
_geom_bond_site_symmetry_2
P1 F1 1_555 1_555
F2 P1 1_555 1_555
F3 P1 1_555 1_555
F4 P1 1_555 1_555
F5 P1 1_555 1_555
F6 P1 1_555 1_555
N1 H1 1_555 1_555
H2 N1 1_555 1_555
C1 H3 1_555 1_555
H4 C1 1_555 1_555
H5 C1 1_555 1_555
C2 C1 1_555 1_555
H6 C2 1_555 1_555
H7 C2 1_555 1_555
C3 C2 1_555 1_555
H8 C3 1_555 1_555
H9 C3 1_555 1_555
C4 N1 1_555 1_555
H10 C4 1_555 1_555
H11 C4 1_555 1_555
C5 N1 1_555 1_555
H12 C5 1_555 1_555
H13 C5 1_555 1_555
C6 C5 1_555 1_555
C7 C6 1_555 1_555
H14 C7 1_555 1_555
C8 C7 1_555 1_555
H15 C8 1_555 1_555
C9 C8 1_555 1_555
C10 C9 1_555 1_555
H16 C10 1_555 1_555
C11 C6 1_555 1_555
H17 C11 1_555 1_555
O1 C9 1_555 1_555
O2 C12 1_555 1_555
C12 O1 1_555 1_555
C13 C12 1_555 1_555
C14 C13 1_555 1_555
H18 C14 1_555 1_555
C15 C14 1_555 1_555
H19 C15 1_555 1_555
C16 C15 1_555 1_555
C17 C16 1_555 1_555
C18 C13 1_555 1_555
H20 C18 1_555 1_555
O3 C16 1_555 1_555
O4 C20 1_555 1_555
O5 C22 1_555 1_555
O6 C24 1_555 1_555
O7 C26 1_555 1_555
O8 C28 1_555 1_555
O9 C17 1_555 1_555
C19 O3 1_555 1_555
H21 C19 1_555 1_555
H22 C19 1_555 1_555
C20 C19 1_555 1_555
H23 C20 1_555 1_555
H24 C20 1_555 1_555
C21 O4 1_555 1_555
H25 C21 1_555 1_555
H26 C21 1_555 1_555
C22 C21 1_555 1_555
H27 C22 1_555 1_555
H28 C22 1_555 1_555
C23 O5 1_555 1_555
H29 C23 1_555 1_555
H30 C23 1_555 1_555
C24 C23 1_555 1_555
H31 C24 1_555 1_555
H32 C24 1_555 1_555
C25 O6 1_555 1_555
H33 C25 1_555 1_555
H34 C25 1_555 1_555
C26 C25 1_555 1_555
H35 C26 1_555 1_555
H36 C26 1_555 1_555
C27 O7 1_555 1_555
H37 C27 1_555 1_555
H38 C27 1_555 1_555
C28 C27 1_555 1_555
H39 C28 1_555 1_555
H40 C28 1_555 1_555
C29 O8 1_555 1_555
H41 C29 1_555 1_555
H42 C29 1_555 1_555
C30 O9 1_555 1_555
H43 C30 1_555 1_555
H44 C30 1_555 1_555
C3 C4 1_555 1_555
C10 C11 1_555 1_555
C17 C18 1_555 1_555
C29 C30 1_555 1_555

#END
