
#######################################################################
#
#                 Cambridge Crystallographic Data Centre
#                                CCDC 
#
#######################################################################
#
# If this CIF has been generated from an entry in the Cambridge 
# Structural Database, then it will include bibliographic, chemical, 
# crystal, experimental, refinement or atomic coordinate data resulting 
# from the CCDC's data processing and validation procedures.
#
#######################################################################

data_VAWCII
_chemical_formula_moiety         'C40 H33 Br2 N3 O1'
_chemical_name_systematic        
1-benzyl-3',5'-bis(4-bromophenyl)-4'-(3,3-dimethyl-3H-indol-2-yl)spiro[indole-3,2'-pyrrolidin]-2(1H)-one
_symmetry_cell_setting           triclinic
_symmetry_space_group_name_H-M   'P -1'
_symmetry_Int_Tables_number      2
_space_group_name_Hall           '-P 1'
loop_
_symmetry_equiv_pos_site_id
_symmetry_equiv_pos_as_xyz
1 x,y,z
2 -x,-y,-z
_cell_length_a                   11.2235(2)
_cell_length_b                   12.7822(3)
_cell_length_c                   13.1058(3)
_cell_angle_alpha                62.5490(10)
_cell_angle_beta                 83.9160(10)
_cell_angle_gamma                87.4370(10)
_cell_volume                     1659.06
_exptl_crystal_description       block
_cell_formula_units_Z            2
loop_
_atom_site_label
_atom_site_type_symbol
_atom_site_fract_x
_atom_site_fract_y
_atom_site_fract_z
Br1 Br 0.46117(4) 0.16704(3) 0.42184(3)
Br2 Br -0.48252(3) 0.50963(3) -0.24203(3)
C1 C -0.3973(3) 0.4136(3) -0.1133(3)
N1 N -0.2164(2) 0.2436(2) 0.3664(2)
C2 C 0.3133(3) 0.1515(3) 0.3709(3)
C3 C 0.1650(3) 0.2327(3) 0.2378(3)
H1 H 0.1399 0.2931 0.1701
C4 C -0.1042(3) 0.2341(2) 0.2025(2)
H2 H -0.0560 0.2877 0.1319
N2 N -0.1467(2) 0.0879(2) 0.1468(2)
H3 H -0.1739 0.0594 0.1059
C5 C -0.1518(2) 0.2988(2) 0.2692(2)
C6 C 0.0912(3) 0.1344(2) 0.3027(2)
C7 C 0.1354(3) 0.0425(3) 0.3992(3)
H4 H 0.0896 -0.0256 0.4419
C8 C -0.0346(3) 0.0517(3) 0.2013(3)
N3 N 0.1428(2) -0.0148(2) 0.1355(2)
C9 C -0.2734(3) 0.2644(3) 0.0711(2)
C10 C -0.0310(3) 0.1219(2) 0.2718(2)
H5 H -0.0795 0.0765 0.3451
C11 C -0.0191(3) -0.0787(3) 0.2720(3)
C12 C -0.2167(3) 0.3171(3) -0.0400(3)
H6 H -0.1364 0.3010 -0.0526
C13 C -0.2070(3) 0.1798(3) 0.1714(3)
H7 H -0.2647 0.1418 0.2396
O1 O 0.0953(3) 0.1807(2) 0.0275(2)
C14 C -0.2772(3) 0.3927(3) -0.1321(3)
H8 H -0.2378 0.4293 -0.2061
C15 C -0.2133(3) 0.4407(3) 0.3267(3)
C16 C -0.4549(3) 0.3636(3) -0.0042(3)
H9 H -0.5353 0.3798 0.0079
C17 C -0.1380(3) 0.4315(3) 0.2284(3)
C18 C -0.2553(3) 0.3284(3) 0.4044(3)
C19 C 0.2465(3) 0.0501(3) 0.4332(3)
H10 H 0.2752 -0.0125 0.4972
C20 C 0.0736(3) 0.0839(3) 0.1095(3)
C21 C 0.2739(3) 0.2423(3) 0.2718(3)
H11 H 0.3209 0.3094 0.2285
C22 C -0.0886(3) -0.1604(3) 0.3653(3)
H12 H -0.1597 -0.1379 0.3928
C23 C -0.3931(3) 0.2890(3) 0.0879(3)
H13 H -0.4323 0.2549 0.1621
C24 C -0.0512(4) -0.2773(3) 0.4183(3)
H14 H -0.0978 -0.3333 0.4813
C25 C 0.0871(3) -0.1131(3) 0.2315(3)
C26 C 0.1250(4) -0.2278(3) 0.2828(3)
H15 H 0.1959 -0.2505 0.2550
C27 C 0.3619(3) -0.0541(3) 0.1279(3)
C28 C -0.2424(3) 0.5348(3) 0.3486(3)
H16 H -0.2143 0.6101 0.2971
C29 C 0.0537(4) -0.3099(3) 0.3781(4)
H17 H 0.0781 -0.3880 0.4148
C30 C -0.1858(4) 0.5071(3) 0.1107(3)
H18 H -0.2670 0.4845 0.1134
H19 H -0.1370 0.4953 0.0521
H20 H -0.1833 0.5887 0.0930
C31 C -0.3268(3) 0.3084(3) 0.5042(3)
H21 H -0.3541 0.2329 0.5562
C32 C -0.0080(3) 0.4666(3) 0.2255(4)
H22 H 0.0212 0.4186 0.2994
H23 H -0.0051 0.5480 0.2084
H24 H 0.0412 0.4550 0.1670
C33 C -0.3566(3) 0.4032(4) 0.5246(3)
H25 H -0.4060 0.3916 0.5906
C34 C 0.2502(3) -0.0201(4) 0.0657(3)
H26 H 0.2630 0.0565 -0.0011
H27 H 0.2370 -0.0766 0.0378
C35 C -0.3145(3) 0.5155(4) 0.4486(4)
H28 H -0.3345 0.5781 0.4647
C36 C 0.3918(4) -0.0018(3) 0.1938(3)
H29 H 0.3415 0.0551 0.2003
C37 C 0.4372(4) -0.1395(3) 0.1199(4)
H30 H 0.4183 -0.1765 0.0769
C38 C 0.4942(4) -0.0323(4) 0.2496(4)
H31 H 0.5138 0.0044 0.2925
C39 C 0.5393(4) -0.1694(4) 0.1753(5)
H32 H 0.5904 -0.2254 0.1680
C40 C 0.5679(4) -0.1185(4) 0.2413(4)
H33 H 0.6365 -0.1415 0.2804
loop_
_geom_bond_atom_site_label_1
_geom_bond_atom_site_label_2
_geom_bond_site_symmetry_1
_geom_bond_site_symmetry_2
Br1 C2 1_555 1_555
Br2 C1 1_555 1_555
C1 C14 1_555 1_555
N1 C5 1_555 1_555
C2 C19 1_555 1_555
C3 H1 1_555 1_555
C4 H2 1_555 1_555
N2 H3 1_555 1_555
C5 C4 1_555 1_555
C6 C3 1_555 1_555
C7 C6 1_555 1_555
H4 C7 1_555 1_555
C8 N2 1_555 1_555
N3 C20 1_555 1_555
C9 C12 1_555 1_555
C10 C4 1_555 1_555
H5 C10 1_555 1_555
C11 C8 1_555 1_555
C12 H6 1_555 1_555
C13 C4 1_555 1_555
H7 C13 1_555 1_555
O1 C20 1_555 1_555
C14 C12 1_555 1_555
H8 C14 1_555 1_555
C15 C17 1_555 1_555
C16 C1 1_555 1_555
H9 C16 1_555 1_555
C17 C5 1_555 1_555
C18 N1 1_555 1_555
C19 C7 1_555 1_555
H10 C19 1_555 1_555
C20 C8 1_555 1_555
C21 C2 1_555 1_555
H11 C21 1_555 1_555
C22 C11 1_555 1_555
H12 C22 1_555 1_555
C23 C9 1_555 1_555
H13 C23 1_555 1_555
C24 C22 1_555 1_555
H14 C24 1_555 1_555
C25 N3 1_555 1_555
C26 C25 1_555 1_555
H15 C26 1_555 1_555
C27 C34 1_555 1_555
C28 C15 1_555 1_555
H16 C28 1_555 1_555
C29 C24 1_555 1_555
H17 C29 1_555 1_555
C30 C17 1_555 1_555
H18 C30 1_555 1_555
H19 C30 1_555 1_555
H20 C30 1_555 1_555
C31 C18 1_555 1_555
H21 C31 1_555 1_555
C32 C17 1_555 1_555
H22 C32 1_555 1_555
H23 C32 1_555 1_555
H24 C32 1_555 1_555
C33 C31 1_555 1_555
H25 C33 1_555 1_555
C34 N3 1_555 1_555
H26 C34 1_555 1_555
H27 C34 1_555 1_555
C35 C28 1_555 1_555
H28 C35 1_555 1_555
C36 C27 1_555 1_555
H29 C36 1_555 1_555
C37 C27 1_555 1_555
H30 C37 1_555 1_555
C38 C36 1_555 1_555
H31 C38 1_555 1_555
C39 C37 1_555 1_555
H32 C39 1_555 1_555
C40 C38 1_555 1_555
H33 C40 1_555 1_555
C3 C21 1_555 1_555
N2 C13 1_555 1_555
C6 C10 1_555 1_555
C8 C10 1_555 1_555
C9 C13 1_555 1_555
C11 C25 1_555 1_555
C15 C18 1_555 1_555
C16 C23 1_555 1_555
C26 C29 1_555 1_555
C33 C35 1_555 1_555
C39 C40 1_555 1_555

#END
