
#######################################################################
#
#                 Cambridge Crystallographic Data Centre
#                                CCDC 
#
#######################################################################
#
# If this CIF has been generated from an entry in the Cambridge 
# Structural Database, then it will include bibliographic, chemical, 
# crystal, experimental, refinement or atomic coordinate data resulting 
# from the CCDC's data processing and validation procedures.
#
#######################################################################

data_VAWCAA
_chemical_formula_moiety         'C16 H14 N2 O2'
_chemical_name_systematic        
'ethyl 2-methylbenzo[f]quinoxaline-3-carboxylate'
_symmetry_cell_setting           monoclinic
_symmetry_space_group_name_H-M   'P 21/c'
_symmetry_Int_Tables_number      14
_space_group_name_Hall           '-P 2ybc'
loop_
_symmetry_equiv_pos_site_id
_symmetry_equiv_pos_as_xyz
1 x,y,z
2 -x,1/2+y,1/2-z
3 -x,-y,-z
4 x,1/2-y,1/2+z
_cell_length_a                   12.177(3)
_cell_length_b                   8.5411(14)
_cell_length_c                   14.152(4)
_cell_angle_alpha                90
_cell_angle_beta                 117.632(19)
_cell_angle_gamma                90
_cell_volume                     1304
_cell_formula_units_Z            4
loop_
_atom_site_label
_atom_site_type_symbol
_atom_site_fract_x
_atom_site_fract_y
_atom_site_fract_z
O1 O 0.4195(2) 0.4377(3) 0.68248(16)
O2 O 0.3666(2) 0.3911(2) 0.51337(15)
N1 N 0.0782(2) 0.6713(2) 0.58066(15)
N2 N 0.1851(2) 0.5959(3) 0.45040(16)
C1 C -0.2295(3) 0.9729(3) 0.2946(2)
H1 H -0.2622 1.0098 0.2250
C2 C -0.2840(3) 1.0143(3) 0.3559(2)
H2 H -0.3547 1.0765 0.3278
C3 C -0.2335(3) 0.9632(3) 0.4603(2)
H3 H -0.2692 0.9942 0.5028
C4 C -0.1324(3) 0.8683(3) 0.5017(2)
H4 H -0.1004 0.8336 0.5718
C5 C -0.0768(3) 0.8228(3) 0.43957(19)
C6 C 0.0296(3) 0.7244(3) 0.47965(18)
C7 C 0.0851(3) 0.6855(3) 0.41447(19)
C8 C 0.0310(3) 0.7423(3) 0.3080(2)
H5 H 0.0658 0.7153 0.2640
C9 C -0.0682(3) 0.8333(3) 0.2708(2)
H6 H -0.1011 0.8699 0.2011
C10 C -0.1262(3) 0.8770(3) 0.33405(19)
C11 C 0.2309(3) 0.5299(3) 0.72987(19)
H7 H 0.3030 0.5906 0.7741
H8 H 0.2535 0.4215 0.7338
H9 H 0.1699 0.5422 0.7542
C12 C 0.1786(3) 0.5851(3) 0.61657(19)
C13 C 0.2336(3) 0.5474(3) 0.55059(19)
C14 C 0.3487(3) 0.4536(4) 0.5906(2)
C15 C 0.4760(3) 0.2975(4) 0.5463(2)
H10 H 0.4780 0.2161 0.5949
H11 H 0.5494 0.3621 0.5828
C16 C 0.4733(4) 0.2264(4) 0.4492(3)
H12 H 0.4663 0.3076 0.3998
H13 H 0.4036 0.1571 0.4165
H14 H 0.5484 0.1686 0.4688
loop_
_geom_bond_atom_site_label_1
_geom_bond_atom_site_label_2
_geom_bond_site_symmetry_1
_geom_bond_site_symmetry_2
O1 C14 1_555 1_555
O2 C14 1_555 1_555
N1 C6 1_555 1_555
N2 C7 1_555 1_555
C1 H1 1_555 1_555
C2 C1 1_555 1_555
H2 C2 1_555 1_555
C3 C2 1_555 1_555
H3 C3 1_555 1_555
C4 C3 1_555 1_555
H4 C4 1_555 1_555
C5 C4 1_555 1_555
C6 C5 1_555 1_555
C7 C6 1_555 1_555
C8 C7 1_555 1_555
H5 C8 1_555 1_555
C9 C8 1_555 1_555
H6 C9 1_555 1_555
C10 C1 1_555 1_555
C11 H7 1_555 1_555
H8 C11 1_555 1_555
H9 C11 1_555 1_555
C12 N1 1_555 1_555
C13 N2 1_555 1_555
C14 C13 1_555 1_555
C15 O2 1_555 1_555
H10 C15 1_555 1_555
H11 C15 1_555 1_555
C16 C15 1_555 1_555
H12 C16 1_555 1_555
H13 C16 1_555 1_555
H14 C16 1_555 1_555
C5 C10 1_555 1_555
C9 C10 1_555 1_555
C11 C12 1_555 1_555
C12 C13 1_555 1_555

#END
