
#######################################################################
#
#                 Cambridge Crystallographic Data Centre
#                                CCDC 
#
#######################################################################
#
# If this CIF has been generated from an entry in the Cambridge 
# Structural Database, then it will include bibliographic, chemical, 
# crystal, experimental, refinement or atomic coordinate data resulting 
# from the CCDC's data processing and validation procedures.
#
#######################################################################

data_VAWGAC
_chemical_formula_moiety         'C21 H20 F3 N3 O2'
_chemical_name_systematic        
'(E)-Ethyl 3-((R)-1-phenylethylamino)-3-(4-(trifluoromethyl)phenylamino)-2-cyanoacrylate'
_symmetry_cell_setting           orthorhombic
_symmetry_space_group_name_H-M   'P 21 21 21'
_symmetry_Int_Tables_number      19
_space_group_name_Hall           'P 2ac 2ab'
loop_
_symmetry_equiv_pos_site_id
_symmetry_equiv_pos_as_xyz
1 x,y,z
2 1/2-x,-y,1/2+z
3 -x,1/2+y,1/2-z
4 1/2+x,1/2-y,-z
_cell_length_a                   9.152(3)
_cell_length_b                   11.221(4)
_cell_length_c                   20.691(6)
_cell_angle_alpha                90
_cell_angle_beta                 90
_cell_angle_gamma                90
_cell_volume                     2124.85
_chemical_melting_point          145-147deg.C
_cell_formula_units_Z            4
loop_
_atom_site_label
_atom_site_type_symbol
_atom_site_fract_x
_atom_site_fract_y
_atom_site_fract_z
F1 F 0.0232(15) 0.9686(7) 0.0569(5)
F2 F -0.0410(14) 0.8188(9) -0.0018(5)
F3 F 0.1876(13) 0.8638(10) 0.0074(6)
O1 O 0.1244(5) 0.7758(4) 0.4349(2)
O2 O 0.2744(6) 0.6196(5) 0.4378(2)
N1 N 0.2556(5) 0.4706(4) 0.3389(2)
H1 H 0.2586 0.4741 0.3804
N2 N 0.1422(4) 0.5332(3) 0.24713(19)
H2 H 0.1300 0.4599 0.2362
N3 N -0.0825(6) 0.7808(4) 0.3047(3)
C1 C 0.5528(8) 0.5041(6) 0.2800(4)
H3 H 0.5459 0.5403 0.3203
C2 C 0.6662(10) 0.5377(7) 0.2370(7)
H4 H 0.7348 0.5950 0.2486
C3 C 0.6714(10) 0.4831(10) 0.1778(7)
H5 H 0.7461 0.5024 0.1491
C4 C 0.5733(11) 0.4042(9) 0.1609(4)
H6 H 0.5784 0.3712 0.1197
C5 C 0.4621(7) 0.3678(7) 0.2019(3)
H7 H 0.3948 0.3106 0.1889
C6 C 0.4539(6) 0.4189(5) 0.2627(3)
C7 C 0.3383(6) 0.3752(5) 0.3098(3)
H8 H 0.2700 0.3243 0.2859
C8 C 0.4064(8) 0.3003(5) 0.3640(3)
H9 H 0.4770 0.3474 0.3869
H10 H 0.4536 0.2317 0.3456
H11 H 0.3313 0.2748 0.3933
C9 C 0.1763(5) 0.5531(4) 0.3104(2)
C10 C 0.1274(5) 0.6526(4) 0.3456(2)
C11 C 0.0117(6) 0.7227(5) 0.3230(2)
C12 C 0.1836(7) 0.6783(6) 0.4098(3)
C13 C 0.1939(13) 0.8158(11) 0.4961(5)
H12 H 0.1994 0.7492 0.5259
H13 H 0.2927 0.8423 0.4873
C14 C 0.113(2) 0.9118(16) 0.5259(10)
H14 H 0.1616 0.9366 0.5647
H15 H 0.0160 0.8847 0.5363
H16 H 0.1068 0.9777 0.4964
C17 C 0.1245(5) 0.6174(4) 0.1976(2)
C18 C 0.0527(6) 0.5826(5) 0.1428(3)
H22 H 0.0178 0.5050 0.1397
C19 C 0.0312(7) 0.6593(6) 0.0929(3)
H23 H -0.0176 0.6334 0.0560
C20 C 0.0798(6) 0.7724(5) 0.0962(2)
C21 C 0.1529(7) 0.8083(5) 0.1482(3)
H24 H 0.1877 0.8860 0.1504
C22 C 0.1779(6) 0.7303(5) 0.1998(3)
H25 H 0.2310 0.7557 0.2355
C23 C 0.0567(8) 0.8595(6) 0.0416(3)
F4? F 0.090(2) 0.9703(9) 0.0630(7)
F5? F -0.0876(14) 0.8645(16) 0.0244(10)
F6? F 0.1349(18) 0.8459(13) -0.0090(5)
C15? C 0.1939(13) 0.8158(11) 0.4961(5)
H17? H 0.2974 0.7973 0.4960
H18? H 0.1820 0.9011 0.5017
C16? C 0.121(2) 0.7527(18) 0.5467(9)
H19? H 0.1641 0.7738 0.5875
H20? H 0.1317 0.6685 0.5398
H21? H 0.0196 0.7733 0.5468
loop_
_geom_bond_atom_site_label_1
_geom_bond_atom_site_label_2
_geom_bond_site_symmetry_1
_geom_bond_site_symmetry_2
F1 C23 1_555 1_555
F2 C23 1_555 1_555
F3 C23 1_555 1_555
O1 C12 1_555 1_555
O2 C12 1_555 1_555
N1 H1 1_555 1_555
N2 H2 1_555 1_555
N3 C11 1_555 1_555
C1 H3 1_555 1_555
C2 C1 1_555 1_555
H4 C2 1_555 1_555
C3 C2 1_555 1_555
H5 C3 1_555 1_555
C4 C3 1_555 1_555
H6 C4 1_555 1_555
C5 C4 1_555 1_555
H7 C5 1_555 1_555
C6 C1 1_555 1_555
C7 N1 1_555 1_555
H8 C7 1_555 1_555
C8 C7 1_555 1_555
H9 C8 1_555 1_555
H10 C8 1_555 1_555
H11 C8 1_555 1_555
C9 N1 1_555 1_555
C10 C9 1_555 1_555
C11 C10 1_555 1_555
C12 C10 1_555 1_555
C13 O1 1_555 1_555
H12 C13 1_555 1_555
H13 C13 1_555 1_555
C14 C13 1_555 1_555
H14 C14 1_555 1_555
H15 C14 1_555 1_555
H16 C14 1_555 1_555
C17 N2 1_555 1_555
C18 C17 1_555 1_555
H22 C18 1_555 1_555
C19 C18 1_555 1_555
H23 C19 1_555 1_555
C20 C19 1_555 1_555
C21 C20 1_555 1_555
H24 C21 1_555 1_555
C22 C17 1_555 1_555
H25 C22 1_555 1_555
C23 C20 1_555 1_555
N2 C9 1_555 1_555
C5 C6 1_555 1_555
C6 C7 1_555 1_555
C21 C22 1_555 1_555

#END
