
#######################################################################
#
#                 Cambridge Crystallographic Data Centre
#                                CCDC 
#
#######################################################################
#
# If this CIF has been generated from an entry in the Cambridge 
# Structural Database, then it will include bibliographic, chemical, 
# crystal, experimental, refinement or atomic coordinate data resulting 
# from the CCDC's data processing and validation procedures.
#
#######################################################################

data_VAWGAD
_chemical_formula_moiety         'C16 H12 Cl1 N3'
_chemical_name_systematic        
9-(4-Chlorophenyl)-6-methyl-9H-imidazo[1,2-a]benzimidazole
_symmetry_cell_setting           monoclinic
_symmetry_space_group_name_H-M   'P 21/c'
_symmetry_Int_Tables_number      14
_space_group_name_Hall           '-P 2ybc'
loop_
_symmetry_equiv_pos_site_id
_symmetry_equiv_pos_as_xyz
1 x,y,z
2 -x,1/2+y,1/2-z
3 -x,-y,-z
4 x,1/2-y,1/2+z
_cell_length_a                   8.5445(6)
_cell_length_b                   13.2014(10)
_cell_length_c                   12.4279(11)
_cell_angle_alpha                90
_cell_angle_beta                 102.815(2)
_cell_angle_gamma                90
_cell_volume                     1366.94
_exptl_crystal_colour            yellow
_exptl_crystal_description       prism
_cell_formula_units_Z            4
loop_
_atom_site_label
_atom_site_type_symbol
_atom_site_fract_x
_atom_site_fract_y
_atom_site_fract_z
Cl1 Cl 0.98629(7) 1.03273(4) 0.66016(5)
N1 N 0.68750(16) 0.62852(9) 0.65509(11)
N2 N 0.54526(18) 0.63676(11) 0.81042(12)
N3 N 0.57640(15) 0.49415(10) 0.71801(11)
C1 C 0.60496(18) 0.59538(12) 0.73266(13)
C2 C 0.4710(2) 0.55370(16) 0.84846(16)
H1 H 0.4164 0.5578 0.9052
C3 C 0.4870(2) 0.46698(15) 0.79426(15)
H2 H 0.4470 0.4033 0.8055
C4 C 0.64036(18) 0.45880(12) 0.63058(13)
C5 C 0.6462(2) 0.36365(13) 0.58587(15)
H3 H 0.6017 0.3080 0.6139
C6 C 0.7206(2) 0.35330(14) 0.49765(16)
C7 C 0.7874(2) 0.43806(14) 0.45806(15)
H4 H 0.8359 0.4302 0.3986
C8 C 0.7841(2) 0.53392(13) 0.50407(14)
H5 H 0.8306 0.5893 0.4770
C9 C 0.70950(18) 0.54377(11) 0.59126(13)
C10 C 0.7310(3) 0.25038(16) 0.4447(2)
H6 H 0.7711 0.2586 0.3790
H7 H 0.6262 0.2202 0.4262
H8 H 0.8021 0.2073 0.4955
C11 C 0.76058(18) 0.72552(11) 0.65571(13)
C12 C 0.74212(19) 0.78036(12) 0.55881(13)
H9 H 0.6819 0.7539 0.4932
C13 C 0.8135(2) 0.87465(13) 0.55964(14)
H10 H 0.8017 0.9120 0.4949
C14 C 0.90220(19) 0.91249(12) 0.65787(14)
C15 C 0.92127(19) 0.85900(12) 0.75500(14)
H11 H 0.9818 0.8857 0.8203
C16 C 0.84931(19) 0.76503(12) 0.75420(13)
H12 H 0.8602 0.7284 0.8194
loop_
_geom_bond_atom_site_label_1
_geom_bond_atom_site_label_2
_geom_bond_site_symmetry_1
_geom_bond_site_symmetry_2
Cl1 C14 1_555 1_555
N1 C1 1_555 1_555
N2 C1 1_555 1_555
N3 C1 1_555 1_555
C2 N2 1_555 1_555
H1 C2 1_555 1_555
C3 N3 1_555 1_555
H2 C3 1_555 1_555
C4 N3 1_555 1_555
C5 C4 1_555 1_555
H3 C5 1_555 1_555
C6 C5 1_555 1_555
C7 C6 1_555 1_555
H4 C7 1_555 1_555
C8 C7 1_555 1_555
H5 C8 1_555 1_555
C9 N1 1_555 1_555
C10 C6 1_555 1_555
H6 C10 1_555 1_555
H7 C10 1_555 1_555
H8 C10 1_555 1_555
C11 N1 1_555 1_555
C12 C11 1_555 1_555
H9 C12 1_555 1_555
C13 C12 1_555 1_555
H10 C13 1_555 1_555
C14 C13 1_555 1_555
C15 C14 1_555 1_555
H11 C15 1_555 1_555
C16 C11 1_555 1_555
H12 C16 1_555 1_555
C2 C3 1_555 1_555
C4 C9 1_555 1_555
C8 C9 1_555 1_555
C15 C16 1_555 1_555

#END
