
#######################################################################
#
#                 Cambridge Crystallographic Data Centre
#                                CCDC 
#
#######################################################################
#
# If this CIF has been generated from an entry in the Cambridge 
# Structural Database, then it will include bibliographic, chemical, 
# crystal, experimental, refinement or atomic coordinate data resulting 
# from the CCDC's data processing and validation procedures.
#
#######################################################################

data_VAWJOU
_chemical_formula_moiety         'C30 H36 N4,x(C1 H2 Cl2)'
_chemical_name_systematic        
'2,2,7,8,13,13,18,19-Octamethyl-23,24,25,26-tetraazapentacyclo[18.2.1.1^3,6^.1^9,12^.1^14,17^]hexacosa-1(22),3,5,7,9,11,14,16,18,20-decaene dichloromethane solvate'
_symmetry_cell_setting           triclinic
_symmetry_space_group_name_H-M   'P -1'
_symmetry_Int_Tables_number      2
_space_group_name_Hall           '-P 1'
loop_
_symmetry_equiv_pos_site_id
_symmetry_equiv_pos_as_xyz
1 x,y,z
2 -x,-y,-z
_cell_length_a                   10.0710(10)
_cell_length_b                   11.9300(12)
_cell_length_c                   13.1405(13)
_cell_angle_alpha                76.838(2)
_cell_angle_beta                 83.588(2)
_cell_angle_gamma                71.284(2)
_cell_volume                     1454.75
_exptl_crystal_colour            brown
_exptl_crystal_description       block
_cell_formula_units_Z            2
loop_
_atom_site_label
_atom_site_type_symbol
_atom_site_fract_x
_atom_site_fract_y
_atom_site_fract_z
C1 C 0.4203(2) 0.79484(18) 0.16032(17)
C2 C 0.4189(2) 0.7891(2) 0.05928(18)
H1 H 0.3951 0.8549 0.0037
C3 C 0.4594(3) 0.6670(2) 0.05186(19)
H2 H 0.4685 0.6383 -0.0095
C4 C 0.4829(2) 0.59846(19) 0.14911(18)
C5 C 0.5230(2) 0.46574(19) 0.18977(18)
C6 C 0.4319(2) 0.40253(18) 0.20852(17)
C7 C 0.2808(2) 0.45165(18) 0.19269(17)
C8 C 0.1827(3) 0.3932(2) 0.2130(2)
H3 H 0.1994 0.3114 0.2421
C9 C 0.0518(3) 0.4757(2) 0.1831(2)
H4 H -0.0329 0.4585 0.1901
C10 C 0.0706(2) 0.58537(19) 0.14217(17)
C11 C -0.0297(2) 0.7051(2) 0.09284(17)
C12 C -0.0514(2) 0.79788(19) 0.15973(17)
C13 C -0.0835(2) 0.9201(2) 0.13603(18)
H5 H -0.0903 0.9681 0.0691
C14 C -0.1048(2) 0.9612(2) 0.2304(2)
H6 H -0.1286 1.0415 0.2364
C15 C -0.0851(2) 0.8650(2) 0.31098(18)
C16 C -0.0941(2) 0.8530(2) 0.42615(19)
C17 C 0.0137(2) 0.8434(2) 0.48274(17)
C18 C 0.1526(2) 0.84778(19) 0.43992(17)
C19 C 0.2665(3) 0.8380(3) 0.4923(2)
H7 H 0.2711 0.8238 0.5646
C20 C 0.3750(3) 0.8529(3) 0.4201(2)
H8 H 0.4641 0.8497 0.4360
C21 C 0.3282(2) 0.87301(18) 0.32212(18)
C22 C 0.3972(2) 0.89825(18) 0.21546(18)
C23 C 0.6794(3) 0.4088(3) 0.2045(3)
H9 H 0.7019 0.3223 0.2187
H10 H 0.7055 0.4333 0.2621
H11 H 0.7300 0.4347 0.1419
C24 C 0.4804(3) 0.2672(2) 0.2501(2)
H12 H 0.5811 0.2387 0.2503
H13 H 0.4484 0.2276 0.2063
H14 H 0.4426 0.2494 0.3202
C25 C 0.0300(3) 0.7515(2) -0.01573(19)
H15 H 0.1197 0.7604 -0.0088
H16 H -0.0331 0.8283 -0.0465
H17 H 0.0405 0.6947 -0.0596
C26 C -0.1713(2) 0.6878(2) 0.0807(2)
H18 H -0.1583 0.6306 0.0367
H19 H -0.2355 0.7638 0.0496
H20 H -0.2086 0.6581 0.1482
C27 C -0.2370(3) 0.8507(4) 0.4757(2)
H21 H -0.2519 0.8813 0.5390
H22 H -0.2408 0.7692 0.4916
H23 H -0.3085 0.9002 0.4280
C28 C -0.0022(3) 0.8283(3) 0.59970(19)
H24 H -0.1001 0.8518 0.6204
H25 H 0.0424 0.8781 0.6220
H26 H 0.0408 0.7452 0.6315
C29 C 0.3038(3) 1.0148(2) 0.1493(2)
H27 H 0.2166 1.0035 0.1385
H28 H 0.3508 1.0335 0.0829
H29 H 0.2857 1.0802 0.1852
C30 C 0.5403(3) 0.9143(2) 0.2260(2)
H30 H 0.5272 0.9797 0.2611
H31 H 0.5831 0.9322 0.1578
H32 H 0.5999 0.8412 0.2659
H33 H 0.249(2) 0.623(2) 0.1174(18)
H34 H 0.470(2) 0.6604(17) 0.2792(16)
H35 H -0.039(2) 0.6952(19) 0.2979(16)
H36 H 0.137(2) 0.885(2) 0.2857(18)
N1 N 0.20960(19) 0.56952(16) 0.14979(15)
N2 N 0.45975(18) 0.67772(16) 0.21483(16)
N3 N -0.05439(19) 0.76567(19) 0.26635(15)
N4 N 0.19393(19) 0.86800(16) 0.33609(15)
loop_
_geom_bond_atom_site_label_1
_geom_bond_atom_site_label_2
_geom_bond_site_symmetry_1
_geom_bond_site_symmetry_2
C1 C2 1_555 1_555
C2 H1 1_555 1_555
C3 C2 1_555 1_555
H2 C3 1_555 1_555
C4 C3 1_555 1_555
C5 C4 1_555 1_555
C6 C5 1_555 1_555
C7 C6 1_555 1_555
C8 C7 1_555 1_555
H3 C8 1_555 1_555
C9 C8 1_555 1_555
H4 C9 1_555 1_555
C10 C9 1_555 1_555
C11 C10 1_555 1_555
C12 C11 1_555 1_555
C13 C12 1_555 1_555
H5 C13 1_555 1_555
C14 C13 1_555 1_555
H6 C14 1_555 1_555
C15 C14 1_555 1_555
C16 C15 1_555 1_555
C17 C16 1_555 1_555
C18 C17 1_555 1_555
C19 C18 1_555 1_555
H7 C19 1_555 1_555
C20 C19 1_555 1_555
H8 C20 1_555 1_555
C21 C20 1_555 1_555
C22 C1 1_555 1_555
C23 C5 1_555 1_555
H9 C23 1_555 1_555
H10 C23 1_555 1_555
H11 C23 1_555 1_555
C24 C6 1_555 1_555
H12 C24 1_555 1_555
H13 C24 1_555 1_555
H14 C24 1_555 1_555
C25 C11 1_555 1_555
H15 C25 1_555 1_555
H16 C25 1_555 1_555
H17 C25 1_555 1_555
C26 C11 1_555 1_555
H18 C26 1_555 1_555
H19 C26 1_555 1_555
H20 C26 1_555 1_555
C27 C16 1_555 1_555
H21 C27 1_555 1_555
H22 C27 1_555 1_555
H23 C27 1_555 1_555
C28 C17 1_555 1_555
H24 C28 1_555 1_555
H25 C28 1_555 1_555
H26 C28 1_555 1_555
C29 C22 1_555 1_555
H27 C29 1_555 1_555
H28 C29 1_555 1_555
H29 C29 1_555 1_555
C30 C22 1_555 1_555
H30 C30 1_555 1_555
H31 C30 1_555 1_555
H32 C30 1_555 1_555
H33 N1 1_555 1_555
H34 N2 1_555 1_555
H35 N3 1_555 1_555
H36 N4 1_555 1_555
N1 C7 1_555 1_555
N2 C1 1_555 1_555
N3 C12 1_555 1_555
N4 C18 1_555 1_555
C4 N2 1_555 1_555
C10 N1 1_555 1_555
C15 N3 1_555 1_555
C21 C22 1_555 1_555
C21 N4 1_555 1_555

#END
