
#######################################################################
#
#                 Cambridge Crystallographic Data Centre
#                                CCDC 
#
#######################################################################
#
# If this CIF has been generated from an entry in the Cambridge 
# Structural Database, then it will include bibliographic, chemical, 
# crystal, experimental, refinement or atomic coordinate data resulting 
# from the CCDC's data processing and validation procedures.
#
#######################################################################

data_VAWJEK
_chemical_formula_moiety         'C15 H18 N2 O2'
_chemical_name_systematic        
1,1'-(Propane-2,2-diylbis(1H-pyrrole-5,2-diyl))diethanone
_symmetry_cell_setting           monoclinic
_symmetry_space_group_name_H-M   'P 21/c'
_symmetry_Int_Tables_number      14
_space_group_name_Hall           '-P 2ybc'
loop_
_symmetry_equiv_pos_site_id
_symmetry_equiv_pos_as_xyz
1 x,y,z
2 -x,1/2+y,1/2-z
3 -x,-y,-z
4 x,1/2-y,1/2+z
_cell_length_a                   5.6131(5)
_cell_length_b                   25.331(2)
_cell_length_c                   10.1079(9)
_cell_angle_alpha                90
_cell_angle_beta                 91.766(2)
_cell_angle_gamma                90
_cell_volume                     1436.51
_exptl_crystal_colour            colorless
_exptl_crystal_description       block
_cell_formula_units_Z            4
loop_
_atom_site_label
_atom_site_type_symbol
_atom_site_fract_x
_atom_site_fract_y
_atom_site_fract_z
O1 O 1.1303(3) 0.48095(7) 0.65041(16)
N1 N 0.8165(3) 0.56478(8) 0.6167(2)
N2 N 0.7968(4) 0.63252(9) 0.3302(2)
O2 O 1.0980(4) 0.60191(9) 0.13261(19)
C1 C 0.5166(4) 0.62843(10) 0.5180(3)
C2 C 0.9471(4) 0.55563(10) 0.7323(2)
C3 C 0.6777(4) 0.60792(10) 0.6300(2)
C4 C 1.1110(4) 0.51223(10) 0.7423(2)
C5 C 0.9192(5) 0.66777(11) 0.2553(3)
C6 C 0.6647(4) 0.65776(10) 0.4196(3)
C7 C 0.8852(5) 0.59436(11) 0.8197(3)
H1 H 0.9447 0.5982 0.9061
C8 C 0.8577(6) 0.71709(12) 0.2988(3)
H2 H 0.9115 0.7490 0.2655
C9 C 0.3831(4) 0.58226(10) 0.4504(3)
H3 H 0.2801 0.5956 0.3805
H4 H 0.2898 0.5641 0.5142
H5 H 0.4961 0.5582 0.4141
C10 C 0.7016(6) 0.71094(11) 0.4009(3)
H6 H 0.6333 0.7381 0.4487
C11 C 0.7178(5) 0.62671(11) 0.7563(3)
H7 H 0.6453 0.6561 0.7929
C12 C 1.0773(5) 0.64886(13) 0.1561(3)
C13 C 1.2642(6) 0.50664(12) 0.8658(3)
H8 H 1.2428 0.4721 0.9026
H9 H 1.2194 0.5328 0.9290
H10 H 1.4284 0.5114 0.8448
C14 C 0.3327(5) 0.66620(12) 0.5755(3)
H11 H 0.4136 0.6954 0.6176
H12 H 0.2407 0.6478 0.6393
H13 H 0.2288 0.6791 0.5055
C15 C 1.2219(7) 0.68855(14) 0.0819(4)
H14 H 1.3356 0.7049 0.1418
H15 H 1.1179 0.7150 0.0441
H16 H 1.3044 0.6710 0.0127
H17 H 0.830(4) 0.5437(10) 0.543(2)
H18 H 0.815(4) 0.5979(11) 0.323(2)
loop_
_geom_bond_atom_site_label_1
_geom_bond_atom_site_label_2
_geom_bond_site_symmetry_1
_geom_bond_site_symmetry_2
O1 C4 1_555 1_555
N1 C2 1_555 1_555
N2 C5 1_555 1_555
O2 C12 1_555 1_555
C1 C3 1_555 1_555
C2 C4 1_555 1_555
C3 N1 1_555 1_555
C4 C13 1_555 1_555
C5 C8 1_555 1_555
C6 N2 1_555 1_555
C7 C2 1_555 1_555
H1 C7 1_555 1_555
C8 H2 1_555 1_555
C9 C1 1_555 1_555
H3 C9 1_555 1_555
H4 C9 1_555 1_555
H5 C9 1_555 1_555
C10 C6 1_555 1_555
H6 C10 1_555 1_555
C11 C3 1_555 1_555
H7 C11 1_555 1_555
C12 C5 1_555 1_555
C13 H8 1_555 1_555
H9 C13 1_555 1_555
H10 C13 1_555 1_555
C14 C1 1_555 1_555
H11 C14 1_555 1_555
H12 C14 1_555 1_555
H13 C14 1_555 1_555
C15 C12 1_555 1_555
H14 C15 1_555 1_555
H15 C15 1_555 1_555
H16 C15 1_555 1_555
H17 N1 1_555 1_555
H18 N2 1_555 1_555
C1 C6 1_555 1_555
C7 C11 1_555 1_555
C8 C10 1_555 1_555

#END
