
#######################################################################
#
#                 Cambridge Crystallographic Data Centre
#                                CCDC 
#
#######################################################################
#
# If this CIF has been generated from an entry in the Cambridge 
# Structural Database, then it will include bibliographic, chemical, 
# crystal, experimental, refinement or atomic coordinate data resulting 
# from the CCDC's data processing and validation procedures.
#
#######################################################################

data_VAWMEM
_chemical_formula_moiety         '2(C1 H6 N3 1+),C20 H12 O6 S2 2-,2(C1 H4 O1)'
_chemical_name_systematic        
"bis(Guanidinium) (4,4'-binaphthyldisulfonate) bis(methanol) clathrate"
_symmetry_cell_setting           monoclinic
_symmetry_space_group_name_H-M   'C 2'
_symmetry_Int_Tables_number      5
_space_group_name_Hall           'C 2y'
loop_
_symmetry_equiv_pos_site_id
_symmetry_equiv_pos_as_xyz
1 x,y,z
2 -x,y,-z
3 1/2+x,1/2+y,z
4 1/2-x,1/2+y,-z
_cell_length_a                   13.1051(15)
_cell_length_b                   7.1018(8)
_cell_length_c                   14.6446(17)
_cell_angle_alpha                90
_cell_angle_beta                 94.154(2)
_cell_angle_gamma                90
_cell_volume                     1359.39
_cell_formula_units_Z            2
loop_
_atom_site_label
_atom_site_type_symbol
_atom_site_fract_x
_atom_site_fract_y
_atom_site_fract_z
S1 S 0.39691(8) 0.2607(2) 0.34559(7)
O1 O 0.4463(3) 0.4288(5) 0.3850(3)
O2 O 0.2867(2) 0.2603(7) 0.3538(2)
O3 O 0.4461(3) 0.0875(6) 0.3814(3)
C1 C 0.4807(3) 0.2640(11) 0.0471(3)
C2 C 0.4188(3) 0.2669(11) 0.2265(3)
C3 C 0.3778(4) -0.0251(8) 0.0128(4)
H1 H 0.3969 -0.0239 -0.0471
C4 C 0.2852(5) -0.1680(9) 0.1307(4)
H2 H 0.2442 -0.2653 0.1496
C5 C 0.3161(4) -0.1660(9) 0.0406(4)
H3 H 0.2944 -0.2607 -0.0002
C6 C 0.3820(4) 0.1197(8) 0.1660(4)
C7 C 0.4132(4) 0.1199(7) 0.0744(3)
C8 C 0.3155(4) -0.0270(9) 0.1907(4)
H4 H 0.2918 -0.0273 0.2491
C10 C 0.5084(4) 0.4087(8) 0.1060(4)
H11 H 0.5473 0.5078 0.0857
C11 C 0.4786(4) 0.4100(8) 0.1980(4)
H12 H 0.4996 0.5067 0.2379
S1A S 0.60309(8) 0.2607(2) -0.34559(7)
O1A O 0.5537(3) 0.4288(5) -0.3850(3)
O2A O 0.7133(2) 0.2603(7) -0.3538(2)
O3A O 0.5539(3) 0.0875(6) -0.3814(3)
C1A C 0.5193(3) 0.2640(11) -0.0471(3)
C2A C 0.5812(3) 0.2669(11) -0.2265(3)
C3A C 0.6222(4) -0.0251(8) -0.0128(4)
H1A H 0.6031 -0.0239 0.0471
C4A C 0.7148(5) -0.1680(9) -0.1307(4)
H2A H 0.7558 -0.2653 -0.1496
C5A C 0.6839(4) -0.1660(9) -0.0406(4)
H3A H 0.7056 -0.2607 0.0002
C6A C 0.6180(4) 0.1197(8) -0.1660(4)
C7A C 0.5868(4) 0.1199(7) -0.0744(3)
C8A C 0.6845(4) -0.0270(9) -0.1907(4)
H4A H 0.7082 -0.0273 -0.2491
C10A C 0.4916(4) 0.4087(8) -0.1060(4)
H11A H 0.4527 0.5078 -0.0857
C11A C 0.5214(4) 0.4100(8) -0.1980(4)
H12A H 0.5004 0.5067 -0.2379
C9 C 0.7218(3) 0.2617(11) 0.4127(3)
N1 N 0.8229(3) 0.2624(9) 0.4158(3)
H5 H 0.8556 0.3674 0.4181
H6 H 0.8560 0.1577 0.4156
N2 N 0.6713(4) 0.4230(7) 0.4130(3)
H7 H 0.7043 0.5278 0.4152
H8 H 0.6056 0.4230 0.4109
N3 N 0.6713(4) 0.0991(7) 0.4112(4)
H9 H 0.7044 -0.0055 0.4124
H10 H 0.6055 0.0987 0.4092
C12 C 0.0625(7) 0.277(2) 0.3070(6)
O4 O 0.1086(13) 0.337(2) 0.2140(9)
loop_
_geom_bond_atom_site_label_1
_geom_bond_atom_site_label_2
_geom_bond_site_symmetry_1
_geom_bond_site_symmetry_2
S1 O1 1_555 1_555
O2 S1 1_555 1_555
O3 S1 1_555 1_555
C1 C7 1_555 1_555
C2 S1 1_555 1_555
C3 H1 1_555 1_555
C4 H2 1_555 1_555
C5 C3 1_555 1_555
H3 C5 1_555 1_555
C6 C2 1_555 1_555
C7 C3 1_555 1_555
C8 C4 1_555 1_555
H4 C8 1_555 1_555
C9 N1 1_555 1_555
N1 H5 1_555 1_555
H6 N1 1_555 1_555
N2 C9 1_555 1_555
H7 N2 1_555 1_555
H8 N2 1_555 1_555
N3 C9 1_555 1_555
H9 N3 1_555 1_555
H10 N3 1_555 1_555
C10 C1 1_555 1_555
H11 C10 1_555 1_555
C11 C2 1_555 1_555
H12 C11 1_555 1_555
C12 O4 1_555 1_555
S1A O1A 1_555 1_555
O2A S1A 1_555 1_555
O3A S1A 1_555 1_555
C1A C1 1_555 1_555
C2A S1A 1_555 1_555
C3A H1A 1_555 1_555
C4A H2A 1_555 1_555
C5A C3A 1_555 1_555
H3A C5A 1_555 1_555
C6A C2A 1_555 1_555
C7A C1A 1_555 1_555
C8A C4A 1_555 1_555
H4A C8A 1_555 1_555
C10A C1A 1_555 1_555
H11A C10A 1_555 1_555
C11A C2A 1_555 1_555
H12A C11A 1_555 1_555
C4 C5 1_555 1_555
C6 C7 1_555 1_555
C6 C8 1_555 1_555
C10 C11 1_555 1_555
C3A C7A 1_555 1_555
C4A C5A 1_555 1_555
C6A C7A 1_555 1_555
C6A C8A 1_555 1_555
C10A C11A 1_555 1_555

#END
