
#######################################################################
#
#                 Cambridge Crystallographic Data Centre
#                                CCDC 
#
#######################################################################
#
# If this CIF has been generated from an entry in the Cambridge 
# Structural Database, then it will include bibliographic, chemical, 
# crystal, experimental, refinement or atomic coordinate data resulting 
# from the CCDC's data processing and validation procedures.
#
#######################################################################

data_VAWNUE
_chemical_formula_moiety         'C20 H16 F2 O4'
_chemical_name_systematic        
1-(2,6-Difluorophenyl)-6,6-dimethyl-2-phenyl-5,7-dioxaspiro[2.5]octane-4,8-dione
_symmetry_cell_setting           triclinic
_symmetry_space_group_name_H-M   'P -1'
_symmetry_Int_Tables_number      2
_space_group_name_Hall           '-P 1'
loop_
_symmetry_equiv_pos_site_id
_symmetry_equiv_pos_as_xyz
1 x,y,z
2 -x,-y,-z
_cell_length_a                   9.431(2)
_cell_length_b                   9.805(2)
_cell_length_c                   10.489(2)
_cell_angle_alpha                100.525(3)
_cell_angle_beta                 100.321(3)
_cell_angle_gamma                111.131(2)
_cell_volume                     857.153
_cell_formula_units_Z            2
loop_
_atom_site_label
_atom_site_type_symbol
_atom_site_fract_x
_atom_site_fract_y
_atom_site_fract_z
C1 C 0.2822(4) 0.3813(3) 0.2414(3)
C2 C 0.2284(3) 0.4987(3) 0.3166(3)
H1 H 0.2544 0.5146 0.4144
C3 C 0.1070(4) 0.3453(4) 0.2411(3)
H2 H 0.0441 0.3450 0.1558
C4 C 0.0164(3) 0.2272(4) 0.3008(3)
C5 C -0.0477(5) 0.0773(4) 0.2293(4)
C6 C -0.1389(5) -0.0381(5) 0.2729(5)
H3 H -0.1782 -0.1380 0.2209
C7 C -0.1722(5) -0.0063(5) 0.3928(5)
H4 H -0.2342 -0.0840 0.4237
C8 C -0.1127(5) 0.1429(5) 0.4683(4)
H5 H -0.1348 0.1665 0.5504
C9 C -0.0209(4) 0.2561(4) 0.4215(4)
C10 C 0.2421(4) 0.6394(4) 0.2746(3)
C11 C 0.1189(4) 0.6478(4) 0.1859(4)
H6 H 0.0243 0.5627 0.1488
C12 C 0.1360(5) 0.7805(4) 0.1526(4)
H7 H 0.0527 0.7846 0.0930
C13 C 0.2741(5) 0.9070(4) 0.2061(4)
H8 H 0.2853 0.9958 0.1812
C14 C 0.3955(5) 0.9029(4) 0.2962(5)
H9 H 0.4882 0.9899 0.3352
C15 C 0.3800(4) 0.7677(4) 0.3295(4)
H10 H 0.4636 0.7643 0.3892
C16 C 0.3115(4) 0.3864(4) 0.1078(3)
C17 C 0.5531(4) 0.3618(4) 0.1926(4)
C18 C 0.3722(4) 0.3229(4) 0.3308(3)
C19 C 0.6333(6) 0.2692(6) 0.1315(6)
H11 H 0.5583 0.1661 0.0917
H12 H 0.7173 0.2719 0.2003
H13 H 0.6756 0.3106 0.0636
C20 C 0.6562(5) 0.5237(5) 0.2581(4)
H14 H 0.6994 0.5708 0.1931
H15 H 0.7405 0.5316 0.3297
H16 H 0.5958 0.5739 0.2941
F1 F -0.0248(6) 0.0460(4) 0.1075(4)
F2 F 0.0132(10) 0.3924(9) 0.4807(7)
O1 O 0.4295(3) 0.3492(3) 0.0822(2)
O2 O 0.4853(3) 0.2903(3) 0.2885(3)
O3 O 0.2327(3) 0.4135(3) 0.0221(2)
O4 O 0.3484(3) 0.2995(3) 0.4354(2)
loop_
_geom_bond_atom_site_label_1
_geom_bond_atom_site_label_2
_geom_bond_site_symmetry_1
_geom_bond_site_symmetry_2
C1 C2 1_555 1_555
C2 H1 1_555 1_555
C3 C1 1_555 1_555
H2 C3 1_555 1_555
C4 C3 1_555 1_555
C5 C4 1_555 1_555
C6 C5 1_555 1_555
H3 C6 1_555 1_555
C7 C6 1_555 1_555
H4 C7 1_555 1_555
C8 C7 1_555 1_555
H5 C8 1_555 1_555
C9 C4 1_555 1_555
C10 C2 1_555 1_555
C11 C10 1_555 1_555
H6 C11 1_555 1_555
C12 C11 1_555 1_555
H7 C12 1_555 1_555
C13 C12 1_555 1_555
H8 C13 1_555 1_555
C14 C13 1_555 1_555
H9 C14 1_555 1_555
C15 C10 1_555 1_555
H10 C15 1_555 1_555
C16 C1 1_555 1_555
C17 C19 1_555 1_555
C18 C1 1_555 1_555
C19 H11 1_555 1_555
H12 C19 1_555 1_555
H13 C19 1_555 1_555
C20 C17 1_555 1_555
H14 C20 1_555 1_555
H15 C20 1_555 1_555
H16 C20 1_555 1_555
F1 C5 1_555 1_555
F2 C9 1_555 1_555
O1 C16 1_555 1_555
O2 C17 1_555 1_555
O3 C16 1_555 1_555
O4 C18 1_555 1_555
C2 C3 1_555 1_555
C8 C9 1_555 1_555
C14 C15 1_555 1_555
C17 O1 1_555 1_555
C18 O2 1_555 1_555

#END
