
#######################################################################
#
#                 Cambridge Crystallographic Data Centre
#                                CCDC 
#
#######################################################################
#
# If this CIF has been generated from an entry in the Cambridge 
# Structural Database, then it will include bibliographic, chemical, 
# crystal, experimental, refinement or atomic coordinate data resulting 
# from the CCDC's data processing and validation procedures.
#
#######################################################################

data_VAWQUI
_chemical_formula_moiety         'C32 H26 O4'
_chemical_name_systematic        
2,2'-[(5,8-dimethoxy-1,4-dihydronaphthalene-1,4-diyl)bis(4,1-phenylene)]difuran
_symmetry_cell_setting           monoclinic
_symmetry_space_group_name_H-M   'C 2/c'
_symmetry_Int_Tables_number      15
_space_group_name_Hall           '-C 2yn'
loop_
_symmetry_equiv_pos_site_id
_symmetry_equiv_pos_as_xyz
1 x,y,z
2 -x,y,1/2-z
3 1/2+x,1/2+y,z
4 1/2-x,1/2+y,1/2-z
5 -x,-y,-z
6 x,-y,1/2+z
7 1/2-x,1/2-y,-z
8 1/2+x,1/2-y,1/2+z
_cell_length_a                   25.5180(10)
_cell_length_b                   8.0088(3)
_cell_length_c                   23.3552(9)
_cell_angle_alpha                90
_cell_angle_beta                 93.9449(12)
_cell_angle_gamma                90
_cell_volume                     4761.76
_exptl_crystal_colour            colorless
_exptl_crystal_description       irregular
_cell_formula_units_Z            8
loop_
_atom_site_label
_atom_site_type_symbol
_atom_site_fract_x
_atom_site_fract_y
_atom_site_fract_z
O1 O 0.17956(4) 0.36578(11) 0.01860(4)
O2 O 0.16899(4) 0.30007(11) 0.25239(4)
O3 O -0.00356(3) -0.21588(12) -0.07507(4)
O4 O 0.01856(4) -0.29211(14) 0.33185(5)
C1 C 0.17519(5) 0.36000(15) 0.07680(6)
C2 C 0.19013(4) 0.20674(14) 0.10364(6)
C3 C 0.20876(4) 0.06724(14) 0.06591(5)
H1 H 0.2374 0.113 0.0434
C4 C 0.23086(4) -0.07828(14) 0.10056(5)
H2 H 0.246 -0.1671 0.0804
C5 C 0.23068(4) -0.09151(15) 0.15686(5)
H3 H 0.2448 -0.1904 0.1742
C6 C 0.20960(4) 0.03923(15) 0.19557(5)
H4 H 0.2403 0.0797 0.2207
C7 C 0.18801(4) 0.19082(14) 0.16266(6)
C8 C 0.16953(5) 0.32662(15) 0.19449(6)
C9 C 0.15501(5) 0.47495(16) 0.16770(7)
H5 H 0.1427 0.5652 0.1895
C10 C 0.15836(5) 0.49241(15) 0.10886(7)
H6 H 0.1491 0.5953 0.0906
C11 C 0.16379(6) 0.51785(17) -0.00959(7)
H7 H 0.1271 0.5419 -0.0027
H8 H 0.1673 0.5065 -0.0509
H9 H 0.1862 0.6094 0.0055
C12 C 0.14528(5) 0.42698(18) 0.28492(7)
H10 H 0.165 0.5313 0.2821
H11 H 0.1456 0.3925 0.3252
H12 H 0.1089 0.4442 0.2697
C13 C 0.16545(4) 0.00138(14) 0.02328(5)
C14 C 0.17589(5) -0.03885(15) -0.03269(5)
H13 H 0.2102 -0.0217 -0.045
C15 C 0.13711(5) -0.10371(15) -0.07098(5)
H14 H 0.1454 -0.133 -0.1087
C16 C 0.08592(5) -0.12625(14) -0.05435(5)
C17 C 0.07563(5) -0.08887(16) 0.00208(6)
H15 H 0.0413 -0.1053 0.0144
C18 C 0.11495(5) -0.02798(16) 0.04034(6)
H16 H 0.1074 -0.0058 0.0789
C19 C 0.04394(5) -0.17773(15) -0.09626(6)
C20 C 0.03948(6) -0.18581(18) -0.15419(6)
H17 H 0.0664 -0.1649 -0.1794
C21 C -0.01365(6) -0.23188(18) -0.17026(7)
H18 H -0.0289 -0.2476 -0.2081
C22 C -0.03757(5) -0.24846(18) -0.12155(7)
H19 H -0.0734 -0.2788 -0.1194
C23 C 0.17203(4) -0.04194(14) 0.23533(5)
C24 C 0.11953(5) -0.07291(16) 0.21805(6)
H20 H 0.1066 -0.0446 0.1802
C25 C 0.08590(5) -0.14446(16) 0.25533(6)
H21 H 0.0502 -0.1636 0.2428
C26 C 0.10400(5) -0.18865(15) 0.31115(6)
C27 C 0.15727(5) -0.16377(16) 0.32765(6)
H22 H 0.1708 -0.1974 0.3648
C28 C 0.19029(5) -0.09059(15) 0.29029(6)
H23 H 0.2262 -0.0732 0.3024
C29 C 0.06884(5) -0.25435(16) 0.35240(6)
C30 C 0.07444(6) -0.27847(16) 0.40958(6)
H24 H 0.1053 -0.2605 0.434
C31 C 0.02453(6) -0.33678(18) 0.42619(7)
H25 H 0.0158 -0.3661 0.4638
C32 C -0.00726(6) -0.3417(2) 0.37838(7)
H26 H -0.043 -0.3752 0.3769
loop_
_geom_bond_atom_site_label_1
_geom_bond_atom_site_label_2
_geom_bond_site_symmetry_1
_geom_bond_site_symmetry_2
O1 C1 1_555 1_555
O2 C8 1_555 1_555
O3 C19 1_555 1_555
O4 C29 1_555 1_555
C1 C2 1_555 1_555
C2 C3 1_555 1_555
C3 H1 1_555 1_555
C4 C3 1_555 1_555
H2 C4 1_555 1_555
C5 C4 1_555 1_555
H3 C5 1_555 1_555
C6 C5 1_555 1_555
H4 C6 1_555 1_555
C7 C2 1_555 1_555
C8 C7 1_555 1_555
C9 C8 1_555 1_555
H5 C9 1_555 1_555
C10 C1 1_555 1_555
H6 C10 1_555 1_555
C11 O1 1_555 1_555
H7 C11 1_555 1_555
H8 C11 1_555 1_555
H9 C11 1_555 1_555
C12 O2 1_555 1_555
H10 C12 1_555 1_555
H11 C12 1_555 1_555
H12 C12 1_555 1_555
C13 C3 1_555 1_555
C14 C13 1_555 1_555
H13 C14 1_555 1_555
C15 C14 1_555 1_555
H14 C15 1_555 1_555
C16 C15 1_555 1_555
C17 C16 1_555 1_555
H15 C17 1_555 1_555
C18 C13 1_555 1_555
H16 C18 1_555 1_555
C19 C16 1_555 1_555
C20 C19 1_555 1_555
H17 C20 1_555 1_555
C21 C20 1_555 1_555
H18 C21 1_555 1_555
C22 O3 1_555 1_555
H19 C22 1_555 1_555
C23 C6 1_555 1_555
C24 C23 1_555 1_555
H20 C24 1_555 1_555
C25 C24 1_555 1_555
H21 C25 1_555 1_555
C26 C25 1_555 1_555
C27 C26 1_555 1_555
H22 C27 1_555 1_555
C28 C23 1_555 1_555
H23 C28 1_555 1_555
C29 C26 1_555 1_555
C30 C29 1_555 1_555
H24 C30 1_555 1_555
C31 C30 1_555 1_555
H25 C31 1_555 1_555
C32 O4 1_555 1_555
H26 C32 1_555 1_555
C6 C7 1_555 1_555
C9 C10 1_555 1_555
C17 C18 1_555 1_555
C21 C22 1_555 1_555
C27 C28 1_555 1_555
C31 C32 1_555 1_555

#END
