
#######################################################################
#
#                 Cambridge Crystallographic Data Centre
#                                CCDC 
#
#######################################################################
#
# If this CIF has been generated from an entry in the Cambridge 
# Structural Database, then it will include bibliographic, chemical, 
# crystal, experimental, refinement or atomic coordinate data resulting 
# from the CCDC's data processing and validation procedures.
#
#######################################################################

data_VAXJUB01
_chemical_formula_moiety         'C15 H13 N1 O1'
_chemical_name_systematic        2-phenyl-2,3-dihydroquinolin-4(1H)-one
_symmetry_cell_setting           orthorhombic
_symmetry_space_group_name_H-M   'P 21 21 21'
_symmetry_Int_Tables_number      19
_space_group_name_Hall           'P 2ac 2ab'
loop_
_symmetry_equiv_pos_site_id
_symmetry_equiv_pos_as_xyz
1 x,y,z
2 1/2-x,-y,1/2+z
3 -x,1/2+y,1/2-z
4 1/2+x,1/2-y,-z
_cell_length_a                   5.764(3)
_cell_length_b                   13.551(7)
_cell_length_c                   15.030(7)
_cell_angle_alpha                90
_cell_angle_beta                 90
_cell_angle_gamma                90
_cell_volume                     1173.96
_exptl_crystal_colour            colorless
_exptl_crystal_description       block
_cell_formula_units_Z            4
loop_
_atom_site_label
_atom_site_type_symbol
_atom_site_fract_x
_atom_site_fract_y
_atom_site_fract_z
N1 N 1.0127(8) 0.3609(3) 0.7745(3)
O1 O 0.8741(6) 0.07586(19) 0.7182(2)
C1 C 0.8782(10) 0.3650(4) 0.9886(4)
H1 H 1.0168 0.3315 0.9980
C2 C 0.7792(12) 0.4159(4) 1.0564(4)
H2 H 0.8512 0.4175 1.1118
C3 C 0.5819(12) 0.4632(4) 1.0446(4)
H3 H 0.5167 0.4975 1.0920
C4 C 0.4726(10) 0.4630(4) 0.9654(5)
H4 H 0.3331 0.4965 0.9575
C5 C 0.5748(12) 0.4113(4) 0.8956(4)
H5 H 0.5028 0.4102 0.8403
C6 C 0.7768(11) 0.3627(3) 0.9072(4)
C7 C 0.8878(17) 0.3057(5) 0.8321(5)
H6 H 1.0191 0.2794 0.8661
C8 C 0.7938(9) 0.2151(3) 0.8062(3)
H7 H 0.6365 0.2261 0.7855
H8 H 0.7855 0.1726 0.8580
C9 C 0.9259(8) 0.1622(3) 0.7345(3)
C10 C 1.1023(8) 0.2171(3) 0.6877(3)
C11 C 1.2368(10) 0.1725(3) 0.6225(3)
H9 H 1.2152 0.1060 0.6097
C12 C 1.3973(11) 0.2239(4) 0.5779(3)
H10 H 1.4838 0.1930 0.5338
C13 C 1.4366(10) 0.3235(4) 0.5967(3)
H11 H 1.5488 0.3589 0.5657
C14 C 1.3076(8) 0.3678(3) 0.6613(3)
H12 H 1.3316 0.4344 0.6733
C15 C 1.1433(8) 0.3175(3) 0.7093(3)
H13 H 1.050(7) 0.412(4) 0.785(3)
loop_
_geom_bond_atom_site_label_1
_geom_bond_atom_site_label_2
_geom_bond_site_symmetry_1
_geom_bond_site_symmetry_2
N1 C7 1_555 1_555
O1 C9 1_555 1_555
C1 H1 1_555 1_555
C2 C1 1_555 1_555
H2 C2 1_555 1_555
C3 C2 1_555 1_555
H3 C3 1_555 1_555
C4 C3 1_555 1_555
H4 C4 1_555 1_555
C5 C4 1_555 1_555
H5 C5 1_555 1_555
C6 C1 1_555 1_555
C7 C6 1_555 1_555
H6 C7 1_555 1_555
C8 C7 1_555 1_555
H7 C8 1_555 1_555
H8 C8 1_555 1_555
C9 C8 1_555 1_555
C10 C9 1_555 1_555
C11 C10 1_555 1_555
H9 C11 1_555 1_555
C12 C11 1_555 1_555
H10 C12 1_555 1_555
C13 C12 1_555 1_555
H11 C13 1_555 1_555
C14 C13 1_555 1_555
H12 C14 1_555 1_555
C15 N1 1_555 1_555
H13 N1 1_555 1_555
C5 C6 1_555 1_555
C10 C15 1_555 1_555
C14 C15 1_555 1_555

#END
