
#######################################################################
#
#                 Cambridge Crystallographic Data Centre
#                                CCDC 
#
#######################################################################
#
# If this CIF has been generated from an entry in the Cambridge 
# Structural Database, then it will include bibliographic, chemical, 
# crystal, experimental, refinement or atomic coordinate data resulting 
# from the CCDC's data processing and validation procedures.
#
#######################################################################

data_VAXLIR
_chemical_formula_moiety         'C18 H18 N2 O2'
_chemical_name_systematic        
2-(2-Allyl-3,4-dimethoxyphenyl)-1H-benzimidazole
_symmetry_cell_setting           monoclinic
_symmetry_space_group_name_H-M   'P c'
_symmetry_Int_Tables_number      7
_space_group_name_Hall           'P -2yc'
loop_
_symmetry_equiv_pos_site_id
_symmetry_equiv_pos_as_xyz
1 x,y,z
2 x,-y,1/2+z
_cell_length_a                   10.4512(7)
_cell_length_b                   7.7638(6)
_cell_length_c                   9.9161(7)
_cell_angle_alpha                90
_cell_angle_beta                 100.2230(10)
_cell_angle_gamma                90
_cell_volume                     791.829
_exptl_crystal_colour            colorless
_cell_formula_units_Z            2
loop_
_atom_site_label
_atom_site_type_symbol
_atom_site_fract_x
_atom_site_fract_y
_atom_site_fract_z
O1 O 0.35266(19) 0.8223(3) 0.7438(2)
O2 O 0.5188(2) 0.9629(2) 0.6019(2)
N1 N 0.91152(19) 0.4606(3) 0.87785(18)
N2 N 0.8958(2) 0.4607(3) 0.65149(18)
H1 H 0.8671 0.4771 0.5657
C1 C 0.2660(3) 0.7563(6) 0.8245(4)
H2 H 0.2413 0.6413 0.7954
H3 H 0.1900 0.8279 0.8143
H4 H 0.3076 0.7549 0.9189
C2 C 0.4687(2) 0.7389(3) 0.7507(3)
C3 C 0.5564(3) 0.8154(3) 0.6762(3)
C4 C 0.6782(2) 0.7429(3) 0.6745(2)
C5 C 0.7121(2) 0.5908(3) 0.7487(2)
C6 C 0.8397(2) 0.5071(3) 0.7547(2)
C7 C 1.0225(2) 0.3804(3) 0.8532(2)
C8 C 1.1280(3) 0.3077(4) 0.9369(3)
H5 H 1.1358 0.3106 1.0318
C9 C 1.2214(3) 0.2308(4) 0.8758(3)
H6 H 1.2932 0.1801 0.9302
C10 C 0.5047(3) 0.5906(4) 0.8254(3)
H7 H 0.4481 0.5397 0.8761
C11 C 0.6252(3) 0.5189(3) 0.8240(3)
H8 H 0.6490 0.4197 0.8748
C12 C 1.0102(3) 0.3806(3) 0.7096(2)
C13 C 1.2102(3) 0.2275(4) 0.7334(3)
H9 H 1.2748 0.1742 0.6948
C14 C 1.1059(3) 0.3014(4) 0.6487(3)
H10 H 1.0993 0.2988 0.5539
C15 C 0.5534(4) 1.1191(4) 0.6788(5)
H11 H 0.5240 1.1122 0.7649
H12 H 0.5133 1.2158 0.6277
H13 H 0.6462 1.1330 0.6948
C16 C 0.7726(3) 0.8367(3) 0.6010(3)
H14 H 0.8097 0.7547 0.5450
H15 H 0.7250 0.9217 0.5400
C17 C 0.8811(3) 0.9255(4) 0.6946(4)
H16 H 0.9417 0.9820 0.6522
C18 C 0.9008(4) 0.9331(4) 0.8270(4)
H17 H 0.8435 0.8791 0.8752
H18 H 0.9722 0.9927 0.8740
loop_
_geom_bond_atom_site_label_1
_geom_bond_atom_site_label_2
_geom_bond_site_symmetry_1
_geom_bond_site_symmetry_2
O1 C1 1_555 1_555
O2 C3 1_555 1_555
N1 C6 1_555 1_555
N2 H1 1_555 1_555
C1 H2 1_555 1_555
H3 C1 1_555 1_555
H4 C1 1_555 1_555
C2 O1 1_555 1_555
C3 C2 1_555 1_555
C4 C3 1_555 1_555
C5 C4 1_555 1_555
C6 N2 1_555 1_555
C7 N1 1_555 1_555
C8 C7 1_555 1_555
H5 C8 1_555 1_555
C9 C8 1_555 1_555
H6 C9 1_555 1_555
C10 C2 1_555 1_555
H7 C10 1_555 1_555
C11 C5 1_555 1_555
H8 C11 1_555 1_555
C12 N2 1_555 1_555
C13 C9 1_555 1_555
H9 C13 1_555 1_555
C14 C12 1_555 1_555
H10 C14 1_555 1_555
C15 O2 1_555 1_555
H11 C15 1_555 1_555
H12 C15 1_555 1_555
H13 C15 1_555 1_555
C16 C4 1_555 1_555
H14 C16 1_555 1_555
H15 C16 1_555 1_555
C17 C16 1_555 1_555
H16 C17 1_555 1_555
C18 C17 1_555 1_555
H17 C18 1_555 1_555
H18 C18 1_555 1_555
C5 C6 1_555 1_555
C7 C12 1_555 1_555
C10 C11 1_555 1_555
C13 C14 1_555 1_555

#END
