
#######################################################################
#
#                 Cambridge Crystallographic Data Centre
#                                CCDC 
#
#######################################################################
#
# If this CIF has been generated from an entry in the Cambridge 
# Structural Database, then it will include bibliographic, chemical, 
# crystal, experimental, refinement or atomic coordinate data resulting 
# from the CCDC's data processing and validation procedures.
#
#######################################################################

data_VAXQOB
_chemical_formula_moiety         'C49 H45 N3 O2,C2 H6 O1 S1'
_chemical_name_systematic        
'syn-23-Benzyl-26,27-diphenyl-6,7,8,9,10,11,12,13,14,15-decahydro-22H-5,25:16,21-dimethenodibenzo(b,h)pyrrolo(3,4-e,1,10)diazacycloicosine-22,24-dione dimethylsulfoxide solvate'
_symmetry_cell_setting           monoclinic
_symmetry_space_group_name_H-M   'P 21/n'
_symmetry_Int_Tables_number      14
_space_group_name_Hall           '-P 2yn'
loop_
_symmetry_equiv_pos_site_id
_symmetry_equiv_pos_as_xyz
1 x,y,z
2 1/2-x,1/2+y,1/2-z
3 -x,-y,-z
4 1/2+x,1/2-y,1/2+z
_cell_length_a                   17.9260(2)
_cell_length_b                   10.94670(10)
_cell_length_c                   21.8905(3)
_cell_angle_alpha                90
_cell_angle_beta                 99.2750(5)
_cell_angle_gamma                90
_cell_volume                     4239.42
_exptl_crystal_colour            yellow
_exptl_crystal_description       prism
_chemical_melting_point          304-306deg.C
_cell_formula_units_Z            4
loop_
_atom_site_label
_atom_site_type_symbol
_atom_site_fract_x
_atom_site_fract_y
_atom_site_fract_z
S1 S 0.24719(2) 0.04114(4) 0.23859(2)
O3 O 0.16608(7) 0.03516(12) 0.20929(6)
C50 C 0.28141(14) 0.1862(2) 0.21896(16)
H46 H 0.3303(15) 0.197(2) 0.2417(11)
H47 H 0.2769(19) 0.188(3) 0.1743(17)
H48 H 0.2467(18) 0.250(3) 0.2287(14)
C51 C 0.24696(14) 0.0688(3) 0.31877(10)
H49 H 0.2973(14) 0.090(2) 0.3384(10)
H50 H 0.2306(17) -0.012(3) 0.3361(15)
H51 H 0.2112(17) 0.133(3) 0.3193(12)
O1 O 0.57327(7) -0.27859(9) 0.33324(5)
O2 O 0.42410(6) 0.05885(10) 0.30935(5)
N1 N 0.48615(7) -0.12486(11) 0.30825(6)
N2 N 0.56063(7) 0.35266(11) 0.40828(6)
C1 C 0.73517(9) -0.07614(14) 0.41640(7)
N3 N 0.78518(7) -0.13000(12) 0.46434(6)
C2 C 0.58054(10) 0.47980(14) 0.39416(8)
H1 H 0.5658(9) 0.4896(15) 0.3504(9)
H2 H 0.5499(10) 0.5378(17) 0.4161(8)
C3 C 0.47908(9) -0.00464(14) 0.32599(7)
C4 C 0.66203(9) -0.10413(13) 0.42326(7)
C5 C 0.76345(8) -0.01489(14) 0.36462(7)
C6 C 0.57991(8) 0.17651(14) 0.46338(7)
C7 C 0.76262(10) 0.15481(16) 0.29396(8)
H3 H 0.7422(10) 0.2336(18) 0.2790(9)
C8 C 0.73606(9) 0.09898(15) 0.34330(8)
H4 H 0.6982(10) 0.1396(15) 0.3639(8)
C9 C 0.74333(9) -0.19457(14) 0.50166(7)
C10 C 0.56022(8) 0.14703(13) 0.39879(7)
C11 C 0.66611(9) -0.18083(13) 0.47698(7)
C12 C 0.71422(10) 0.40950(17) 0.38806(9)
H5 H 0.7001(10) 0.4086(17) 0.3423(9)
H6 H 0.7020(11) 0.3276(18) 0.4049(9)
C13 C 0.59573(9) 0.10759(15) 0.51813(7)
H7 H 0.5955(9) 0.0170(16) 0.5161(7)
C14 C 0.63514(11) -0.30625(15) 0.55901(8)
H8 H 0.5978(11) -0.3409(17) 0.5809(9)
C15 C 0.53739(10) 0.21028(16) 0.19481(8)
H9 H 0.5619(11) 0.1591(18) 0.1672(9)
C16 C 0.59138(8) -0.07725(13) 0.38121(7)
C17 C 0.86358(10) -0.09145(18) 0.48454(9)
H10 H 0.8797(10) -0.0422(16) 0.4524(9)
H11 H 0.8938(11) -0.1638(18) 0.4912(9)
C18 C 0.81689(10) 0.09855(17) 0.26560(8)
H12 H 0.8351(10) 0.1352(17) 0.2305(9)
C19 C 0.76705(11) -0.26517(15) 0.55442(8)
H13 H 0.8169(11) -0.2753(16) 0.5700(8)
C20 C 0.55984(10) 0.20024(15) 0.25829(8)
H14 H 0.5972(10) 0.1424(16) 0.2744(8)
C21 C 0.57878(9) 0.30489(14) 0.46765(7)
C22 C 0.47288(9) 0.35981(15) 0.27487(8)
H15 H 0.4480(10) 0.4090(16) 0.3021(8)
C23 C 0.71189(11) -0.32103(15) 0.58208(8)
H16 H 0.7265(11) -0.3708(18) 0.6184(9)
C24 C 0.79891(10) 0.43081(19) 0.40490(9)
H17 H 0.8111(10) 0.5079(18) 0.3867(9)
H18 H 0.8263(11) 0.3632(19) 0.3845(9)
C25 C 0.84445(10) -0.01498(17) 0.28652(8)
H19 H 0.8818(10) -0.0531(16) 0.2675(8)
C26 C 0.54902(8) 0.25659(14) 0.36666(7)
C27 C 0.66495(10) 0.50481(15) 0.41310(8)
H20 H 0.6756(9) 0.5833(17) 0.3987(8)
H21 H 0.6775(9) 0.5105(16) 0.4606(9)
C28 C 0.54922(8) 0.02578(13) 0.37146(7)
C29 C 0.59292(10) 0.36625(16) 0.52398(8)
H22 H 0.5915(9) 0.4536(17) 0.5257(8)
C30 C 0.82557(11) 0.10226(18) 0.54027(9)
H23 H 0.8275(11) 0.1376(17) 0.5834(10)
H24 H 0.7713(12) 0.0819(17) 0.5272(9)
C31 C 0.55252(9) -0.17500(14) 0.33992(7)
C32 C 0.45046(9) -0.18511(15) 0.19972(8)
C33 C 0.48347(10) 0.29600(17) 0.17124(9)
H25 H 0.4682(12) 0.3029(18) 0.1271(10)
C34 C 0.60930(10) 0.29670(16) 0.57715(8)
H26 H 0.6211(11) 0.3379(18) 0.6176(10)
C35 C 0.84715(11) 0.20669(17) 0.50045(9)
H27 H 0.9049(12) 0.2164(17) 0.5101(9)
H28 H 0.8332(11) 0.1847(18) 0.4543(10)
C36 C 0.81778(10) -0.07153(16) 0.33514(8)
H29 H 0.8375(10) -0.1527(18) 0.3492(8)
C37 C 0.61152(10) -0.23746(14) 0.50640(8)
H30 H 0.5589(10) -0.2281(14) 0.4892(7)
C38 C 0.43093(10) -0.19116(16) 0.26389(8)
H31 H 0.4303(10) -0.2739(17) 0.2786(8)
H32 H 0.3810(11) -0.1544(16) 0.2655(8)
C39 C 0.43472(11) -0.07997(18) 0.16451(9)
H33 H 0.4107(11) -0.0141(19) 0.1816(10)
C40 C 0.52792(9) 0.27440(14) 0.29926(7)
C41 C 0.87377(11) -0.01207(18) 0.54349(9)
H34 H 0.8632(10) -0.0649(18) 0.5802(9)
H35 H 0.9318(11) 0.0120(17) 0.5541(9)
C42 C 0.45162(10) 0.37013(16) 0.21130(8)
H36 H 0.4137(10) 0.4293(17) 0.1938(8)
C43 C 0.61115(10) 0.16915(16) 0.57393(8)
H37 H 0.6245(10) 0.1211(16) 0.6120(9)
C44 C 0.82800(11) 0.43590(17) 0.47452(9)
H38 H 0.8854(12) 0.4475(17) 0.4828(9)
H39 H 0.8073(10) 0.5117(18) 0.4921(9)
C45 C 0.48779(11) -0.28072(18) 0.17583(10)
H40 H 0.4990(12) -0.350(2) 0.2020(10)
C46 C 0.80916(12) 0.32679(18) 0.51237(9)
H41 H 0.8246(12) 0.3468(19) 0.5600(10)
H42 H 0.7515(12) 0.3128(16) 0.5057(9)
C47 C 0.49235(12) -0.1669(2) 0.08328(10)
H43 H 0.5052(13) -0.159(2) 0.0423(12)
C48 C 0.45577(12) -0.0707(2) 0.10632(9)
H44 H 0.4432(13) 0.008(2) 0.0823(11)
C49 C 0.50861(12) -0.2707(2) 0.11768(11)
H45 H 0.5343(14) -0.336(2) 0.1018(12)
loop_
_geom_bond_atom_site_label_1
_geom_bond_atom_site_label_2
_geom_bond_site_symmetry_1
_geom_bond_site_symmetry_2
S1 O3 1_555 1_555
O1 C31 1_555 1_555
O2 C3 1_555 1_555
N1 C3 1_555 1_555
N2 C2 1_555 1_555
C1 N3 1_555 1_555
N3 C9 1_555 1_555
C2 H1 1_555 1_555
H2 C2 1_555 1_555
C3 C28 1_555 1_555
C4 C1 1_555 1_555
C5 C1 1_555 1_555
C6 C10 1_555 1_555
C7 H3 1_555 1_555
C8 C5 1_555 1_555
H4 C8 1_555 1_555
C9 C11 1_555 1_555
C10 C26 1_555 1_555
C11 C4 1_555 1_555
C12 H5 1_555 1_555
H6 C12 1_555 1_555
C13 C6 1_555 1_555
H7 C13 1_555 1_555
C14 H8 1_555 1_555
C15 H9 1_555 1_555
C16 C4 1_555 1_555
C17 N3 1_555 1_555
H10 C17 1_555 1_555
H11 C17 1_555 1_555
C18 C7 1_555 1_555
H12 C18 1_555 1_555
C19 C9 1_555 1_555
H13 C19 1_555 1_555
C20 C15 1_555 1_555
H14 C20 1_555 1_555
C21 N2 1_555 1_555
C22 H15 1_555 1_555
C23 C14 1_555 1_555
H16 C23 1_555 1_555
C24 C12 1_555 1_555
H17 C24 1_555 1_555
H18 C24 1_555 1_555
C25 C18 1_555 1_555
H19 C25 1_555 1_555
C26 N2 1_555 1_555
C27 C2 1_555 1_555
H20 C27 1_555 1_555
H21 C27 1_555 1_555
C28 C10 1_555 1_555
C29 C21 1_555 1_555
H22 C29 1_555 1_555
C30 H23 1_555 1_555
H24 C30 1_555 1_555
C31 N1 1_555 1_555
C32 C38 1_555 1_555
C33 C15 1_555 1_555
H25 C33 1_555 1_555
C34 C29 1_555 1_555
H26 C34 1_555 1_555
C35 C30 1_555 1_555
H27 C35 1_555 1_555
H28 C35 1_555 1_555
C36 C5 1_555 1_555
H29 C36 1_555 1_555
C37 C11 1_555 1_555
H30 C37 1_555 1_555
C38 N1 1_555 1_555
H31 C38 1_555 1_555
H32 C38 1_555 1_555
C39 C32 1_555 1_555
H33 C39 1_555 1_555
C40 C20 1_555 1_555
C41 C17 1_555 1_555
H34 C41 1_555 1_555
H35 C41 1_555 1_555
C42 C22 1_555 1_555
H36 C42 1_555 1_555
C43 C13 1_555 1_555
H37 C43 1_555 1_555
C44 C24 1_555 1_555
H38 C44 1_555 1_555
H39 C44 1_555 1_555
C45 C32 1_555 1_555
H40 C45 1_555 1_555
C46 C35 1_555 1_555
H41 C46 1_555 1_555
H42 C46 1_555 1_555
C47 H43 1_555 1_555
C48 C39 1_555 1_555
H44 C48 1_555 1_555
C49 C45 1_555 1_555
H45 C49 1_555 1_555
C50 S1 1_555 1_555
H46 C50 1_555 1_555
H47 C50 1_555 1_555
H48 C50 1_555 1_555
C51 S1 1_555 1_555
H49 C51 1_555 1_555
H50 C51 1_555 1_555
H51 C51 1_555 1_555
C6 C21 1_555 1_555
C7 C8 1_555 1_555
C12 C27 1_555 1_555
C14 C37 1_555 1_555
C16 C28 1_555 1_555
C16 C31 1_555 1_555
C19 C23 1_555 1_555
C22 C40 1_555 1_555
C25 C36 1_555 1_555
C26 C40 1_555 1_555
C30 C41 1_555 1_555
C33 C42 1_555 1_555
C34 C43 1_555 1_555
C44 C46 1_555 1_555
C47 C48 1_555 1_555
C47 C49 1_555 1_555

#END
