
#######################################################################
#
#                 Cambridge Crystallographic Data Centre
#                                CCDC 
#
#######################################################################
#
# If this CIF has been generated from an entry in the Cambridge 
# Structural Database, then it will include bibliographic, chemical, 
# crystal, experimental, refinement or atomic coordinate data resulting 
# from the CCDC's data processing and validation procedures.
#
#######################################################################

data_VAXTIZ01
_chemical_formula_moiety         'C22 H22 N2 O2'
_chemical_name_systematic        
2,15-Dioxa-7,10-diazatetracyclo[14.5.3.2^7,10^.0^19,23^]hexacosa-1(22),16,18,20,23-pentaene-4,12-diyne
_symmetry_cell_setting           monoclinic
_symmetry_space_group_name_H-M   'P 21/n'
_symmetry_Int_Tables_number      14
_space_group_name_Hall           '-P 2yn'
loop_
_symmetry_equiv_pos_site_id
_symmetry_equiv_pos_as_xyz
1 x,y,z
2 1/2-x,1/2+y,1/2-z
3 -x,-y,-z
4 1/2+x,1/2-y,1/2+z
_cell_length_a                   11.4965(14)
_cell_length_b                   9.5446(12)
_cell_length_c                   17.128(2)
_cell_angle_alpha                90
_cell_angle_beta                 95.203(2)
_cell_angle_gamma                90
_cell_volume                     1871.7
_exptl_crystal_colour            colorless
_exptl_crystal_description       block
_cell_formula_units_Z            4
_exptl_crystal_recrystallization_method chloroform
loop_
_atom_site_label
_atom_site_type_symbol
_atom_site_fract_x
_atom_site_fract_y
_atom_site_fract_z
C1 C 0.7104(3) 0.3440(3) 0.97513(16)
C2 C 0.7831(3) 0.4481(4) 1.00895(19)
H1 H 0.7808 0.4697 1.0617
C3 C 0.8570(3) 0.5184(3) 0.9661(2)
H2 H 0.9048 0.5879 0.9897
C4 C 0.8628(2) 0.4878(3) 0.88548(17)
C5 C 0.9401(3) 0.5554(3) 0.8390(2)
H3 H 0.9910 0.6225 0.8618
C6 C 0.9426(2) 0.5257(3) 0.76141(19)
H4 H 0.9944 0.5720 0.7316
C7 C 0.8666(2) 0.4249(3) 0.72732(15)
C8 C 0.79112(19) 0.3547(3) 0.77031(14)
H5 H 0.7419 0.2868 0.7466
C9 C 0.78743(19) 0.3850(2) 0.85107(14)
C10 C 0.7115(2) 0.3131(3) 0.89781(14)
H6 H 0.6619 0.2441 0.8754
C11 C 0.7813(2) 0.3384(4) 0.60439(16)
H7 H 0.7629 0.2502 0.6285
H8 H 0.8027 0.3185 0.5520
C12 C 0.6781(3) 0.4281(4) 0.59892(15)
C13 C 0.5987(3) 0.5067(4) 0.59793(16)
C14 C 0.4969(3) 0.5993(3) 0.60662(17)
H9 H 0.5250 0.6926 0.6207
H10 H 0.4505 0.6058 0.5566
C15 C 0.4895(2) 0.5371(3) 0.74255(15)
H11 H 0.5192 0.6284 0.7593
H12 H 0.5559 0.4758 0.7379
C16 C 0.4160(2) 0.4793(3) 0.80313(16)
H13 H 0.4632 0.4685 0.8527
H14 H 0.3528 0.5437 0.8110
C17 C 0.2935(2) 0.3637(3) 0.70453(18)
H15 H 0.2317 0.4297 0.7129
H16 H 0.2580 0.2751 0.6880
C18 C 0.3663(2) 0.4184(3) 0.64204(17)
H17 H 0.4254 0.3498 0.6321
H18 H 0.3168 0.4325 0.5937
C19 C 0.3089(2) 0.2763(3) 0.83775(18)
H19 H 0.2662 0.1955 0.8160
H20 H 0.2534 0.3405 0.8578
C20 C 0.3945(3) 0.2319(3) 0.90138(19)
C21 C 0.4720(3) 0.2005(3) 0.94635(18)
C22 C 0.5733(3) 0.1627(3) 1.00111(18)
H21 H 0.5458 0.1160 1.0463
H22 H 0.6217 0.0969 0.9755
N1 N 0.42233(17) 0.5499(2) 0.66603(13)
N2 N 0.36860(16) 0.3445(2) 0.77720(13)
O1 O 0.64299(19) 0.2807(2) 1.02740(10)
O2 O 0.87794(15) 0.4019(2) 0.64911(11)
loop_
_geom_bond_atom_site_label_1
_geom_bond_atom_site_label_2
_geom_bond_site_symmetry_1
_geom_bond_site_symmetry_2
C1 C2 1_555 1_555
C2 H1 1_555 1_555
C3 C2 1_555 1_555
H2 C3 1_555 1_555
C4 C3 1_555 1_555
C5 C4 1_555 1_555
H3 C5 1_555 1_555
C6 C5 1_555 1_555
H4 C6 1_555 1_555
C7 C6 1_555 1_555
C8 C7 1_555 1_555
H5 C8 1_555 1_555
C9 C4 1_555 1_555
C10 C1 1_555 1_555
H6 C10 1_555 1_555
C11 H7 1_555 1_555
H8 C11 1_555 1_555
C12 C11 1_555 1_555
C13 C12 1_555 1_555
C14 C13 1_555 1_555
H9 C14 1_555 1_555
H10 C14 1_555 1_555
C15 H11 1_555 1_555
H12 C15 1_555 1_555
C16 C15 1_555 1_555
H13 C16 1_555 1_555
H14 C16 1_555 1_555
C17 H15 1_555 1_555
H16 C17 1_555 1_555
C18 C17 1_555 1_555
H17 C18 1_555 1_555
H18 C18 1_555 1_555
C19 H19 1_555 1_555
H20 C19 1_555 1_555
C20 C19 1_555 1_555
C21 C20 1_555 1_555
C22 C21 1_555 1_555
H21 C22 1_555 1_555
H22 C22 1_555 1_555
N1 C14 1_555 1_555
N2 C16 1_555 1_555
O1 C1 1_555 1_555
O2 C7 1_555 1_555
C8 C9 1_555 1_555
C9 C10 1_555 1_555
C11 O2 1_555 1_555
C15 N1 1_555 1_555
C17 N2 1_555 1_555
C18 N1 1_555 1_555
C19 N2 1_555 1_555
C22 O1 1_555 1_555

#END
