
#######################################################################
#
#                 Cambridge Crystallographic Data Centre
#                                CCDC 
#
#######################################################################
#
# If this CIF has been generated from an entry in the Cambridge 
# Structural Database, then it will include bibliographic, chemical, 
# crystal, experimental, refinement or atomic coordinate data resulting 
# from the CCDC's data processing and validation procedures.
#
#######################################################################

data_VAYCIK
_chemical_formula_moiety         'C12 H12 Br3 N1 O1'
_chemical_name_systematic        
1,3-dimethyl-3-(2,2,2-tribromoethyl)-1,3-dihydro-2H-indol-2-one
_symmetry_cell_setting           orthorhombic
_symmetry_space_group_name_H-M   'P b c a'
_symmetry_Int_Tables_number      61
_space_group_name_Hall           '-P 2ac 2ab'
loop_
_symmetry_equiv_pos_site_id
_symmetry_equiv_pos_as_xyz
1 x,y,z
2 1/2-x,-y,1/2+z
3 1/2+x,1/2-y,-z
4 -x,1/2+y,1/2-z
5 -x,-y,-z
6 1/2+x,y,1/2-z
7 1/2-x,1/2+y,z
8 x,1/2-y,1/2+z
_cell_length_a                   9.8885(4)
_cell_length_b                   11.7756(4)
_cell_length_c                   24.4823(10)
_cell_angle_alpha                90
_cell_angle_beta                 90
_cell_angle_gamma                90
_cell_volume                     2850.79
_exptl_crystal_colour            colorless
_exptl_crystal_description       block
_cell_formula_units_Z            8
loop_
_atom_site_label
_atom_site_type_symbol
_atom_site_fract_x
_atom_site_fract_y
_atom_site_fract_z
Br1 Br 0.07810(6) 0.48252(5) 0.13391(2)
Br2 Br -0.16774(6) 0.51709(5) 0.05544(3)
Br3 Br -0.19425(6) 0.35261(5) 0.15600(3)
O1 O 0.2691(3) 0.3259(3) 0.03227(14)
N1 N 0.2914(4) 0.2651(3) 0.12059(16)
C1 C 0.2104(5) 0.2082(4) 0.15876(19)
C2 C 0.2449(6) 0.1787(5) 0.2112(2)
H1 H 0.3267 0.2013 0.2265
C3 C 0.1524(7) 0.1136(5) 0.2406(2)
H2 H 0.1718 0.0927 0.2764
C4 C 0.0324(6) 0.0799(5) 0.2170(3)
H3 H -0.0265 0.0342 0.2369
C5 C -0.0030(5) 0.1125(4) 0.1644(2)
H4 H -0.0846 0.0898 0.1489
C6 C 0.0863(5) 0.1791(4) 0.13590(18)
C7 C 0.0840(5) 0.2224(4) 0.07776(18)
C8 C 0.2236(5) 0.2794(4) 0.0726(2)
C9 C 0.4259(5) 0.3082(5) 0.1305(3)
H5 H 0.4237 0.3605 0.1605
H6 H 0.4580 0.3465 0.0984
H7 H 0.4853 0.2462 0.1391
C10 C 0.0780(5) 0.1243(4) 0.0367(2)
H8 H 0.1500 0.0719 0.0441
H9 H 0.0873 0.1537 0.0003
H10 H -0.0073 0.0859 0.0401
C11 C -0.0282(5) 0.3091(4) 0.06095(18)
H11 H 0.0009 0.3440 0.0270
H12 H -0.1088 0.2655 0.0527
C12 C -0.0707(4) 0.4045(4) 0.09877(19)
loop_
_geom_bond_atom_site_label_1
_geom_bond_atom_site_label_2
_geom_bond_site_symmetry_1
_geom_bond_site_symmetry_2
Br1 C12 1_555 1_555
Br2 C12 1_555 1_555
Br3 C12 1_555 1_555
O1 C8 1_555 1_555
N1 C1 1_555 1_555
C1 C2 1_555 1_555
C2 H1 1_555 1_555
C3 C2 1_555 1_555
H2 C3 1_555 1_555
C4 C3 1_555 1_555
H3 C4 1_555 1_555
C5 C4 1_555 1_555
H4 C5 1_555 1_555
C6 C1 1_555 1_555
C7 C6 1_555 1_555
C8 N1 1_555 1_555
C9 N1 1_555 1_555
H5 C9 1_555 1_555
H6 C9 1_555 1_555
H7 C9 1_555 1_555
C10 C7 1_555 1_555
H8 C10 1_555 1_555
H9 C10 1_555 1_555
H10 C10 1_555 1_555
C11 C7 1_555 1_555
H11 C11 1_555 1_555
H12 C11 1_555 1_555
C12 C11 1_555 1_555
C5 C6 1_555 1_555
C7 C8 1_555 1_555

#END
