
#######################################################################
#
#                 Cambridge Crystallographic Data Centre
#                                CCDC 
#
#######################################################################
#
# If this CIF has been generated from an entry in the Cambridge 
# Structural Database, then it will include bibliographic, chemical, 
# crystal, experimental, refinement or atomic coordinate data resulting 
# from the CCDC's data processing and validation procedures.
#
#######################################################################

data_VAYPAN
_chemical_formula_moiety         'C25 H22 O3'
_chemical_name_systematic        
10,11-Dibenzoyltricyclo(5.2.2.0^1,5^)undec-10-en-8-one
_symmetry_cell_setting           monoclinic
_symmetry_space_group_name_H-M   'P 21'
_symmetry_Int_Tables_number      4
_space_group_name_Hall           'P 2yb'
loop_
_symmetry_equiv_pos_site_id
_symmetry_equiv_pos_as_xyz
1 x,y,z
2 -x,1/2+y,-z
_cell_length_a                   6.1243(3)
_cell_length_b                   14.4240(8)
_cell_length_c                   10.7673(5)
_cell_angle_alpha                90
_cell_angle_beta                 104.165(2)
_cell_angle_gamma                90
_cell_volume                     922.23
_exptl_crystal_colour            colorless
_exptl_crystal_description       plate
_chemical_melting_point          '448 K'
_cell_formula_units_Z            2
loop_
_atom_site_label
_atom_site_type_symbol
_atom_site_fract_x
_atom_site_fract_y
_atom_site_fract_z
C1 C 0.5135(5) 0.0395(2) 1.2622(3)
C2 C 0.5544(5) 0.1144(2) 1.1719(3)
C3 C 0.4491(5) 0.1201(2) 1.0472(3)
C4 C 0.5064(5) 0.2076(2) 0.9827(3)
H1 H 0.4247 0.2105 0.8923
C5 C 0.4511(6) 0.2921(2) 1.0595(3)
H2 H 0.4879 0.3492 1.0215
H3 H 0.2914 0.2928 1.0562
C6 C 0.5874(6) 0.2857(3) 1.1996(3)
H4 H 0.6966 0.3367 1.2146
C7 C 0.7227(5) 0.1930(2) 1.2227(3)
C8 C 0.8905(5) 0.1956(3) 1.1376(3)
H5 H 0.9881 0.2492 1.1592
H6 H 0.9836 0.1403 1.1517
C9 C 0.7612(5) 0.2008(3) 0.9980(3)
C10 C 0.8214(6) 0.1940(3) 1.3675(3)
H7 H 0.9677 0.2239 1.3881
H8 H 0.8385 0.1312 1.4010
C11 C 0.6526(6) 0.2490(3) 1.4253(3)
H9 H 0.5857 0.2090 1.4783
H10 H 0.7277 0.3000 1.4773
C12 C 0.4711(6) 0.2855(3) 1.3101(3)
H11 H 0.3406 0.2451 1.2914
H12 H 0.4238 0.3475 1.3266
C13 C 0.6457(5) -0.0482(2) 1.2715(3)
C14 C 0.8222(5) -0.0574(2) 1.2110(3)
H13 H 0.8539 -0.0095 1.1603
C15 C 0.9505(6) -0.1379(3) 1.2265(3)
H14 H 1.0696 -0.1433 1.1874
C16 C 0.9016(6) -0.2098(3) 1.2996(3)
H15 H 0.9868 -0.2639 1.3092
C17 C 0.7246(6) -0.2015(3) 1.3593(3)
H16 H 0.6915 -0.2504 1.4081
C18 C 0.5976(6) -0.1209(2) 1.3465(3)
H17 H 0.4811 -0.1153 1.3876
C19 C 0.2860(5) 0.0476(2) 0.9810(3)
C20 C 0.2385(5) 0.0352(2) 0.8381(3)
C21 C 0.3992(6) 0.0522(2) 0.7688(3)
H18 H 0.5395 0.0758 0.8100
C22 C 0.3493(6) 0.0337(3) 0.6373(3)
H19 H 0.4576 0.0444 0.5917
C23 C 0.1415(6) -0.0003(3) 0.5750(3)
H20 H 0.1089 -0.0119 0.4875
C24 C -0.0200(6) -0.0170(3) 0.6435(3)
H21 H -0.1608 -0.0396 0.6011
C25 C 0.0271(6) -0.0003(3) 0.7747(3)
H22 H -0.0808 -0.0127 0.8201
O1 O 0.3874(4) 0.05552(17) 1.3316(2)
O2 O 0.1940(4) -0.00229(18) 1.0440(2)
O3 O 0.8510(4) 0.1968(2) 0.9091(2)
loop_
_geom_bond_atom_site_label_1
_geom_bond_atom_site_label_2
_geom_bond_site_symmetry_1
_geom_bond_site_symmetry_2
C1 C2 1_555 1_555
C2 C3 1_555 1_555
C3 C4 1_555 1_555
C4 H1 1_555 1_555
C5 C4 1_555 1_555
H2 C5 1_555 1_555
H3 C5 1_555 1_555
C6 C5 1_555 1_555
H4 C6 1_555 1_555
C7 C2 1_555 1_555
C8 C7 1_555 1_555
H5 C8 1_555 1_555
H6 C8 1_555 1_555
C9 C4 1_555 1_555
C10 C7 1_555 1_555
H7 C10 1_555 1_555
H8 C10 1_555 1_555
C11 C10 1_555 1_555
H9 C11 1_555 1_555
H10 C11 1_555 1_555
C12 C6 1_555 1_555
H11 C12 1_555 1_555
H12 C12 1_555 1_555
C13 C1 1_555 1_555
C14 C13 1_555 1_555
H13 C14 1_555 1_555
C15 C14 1_555 1_555
H14 C15 1_555 1_555
C16 C15 1_555 1_555
H15 C16 1_555 1_555
C17 C16 1_555 1_555
H16 C17 1_555 1_555
C18 C13 1_555 1_555
H17 C18 1_555 1_555
C19 C3 1_555 1_555
C20 C19 1_555 1_555
C21 C20 1_555 1_555
H18 C21 1_555 1_555
C22 C21 1_555 1_555
H19 C22 1_555 1_555
C23 C22 1_555 1_555
H20 C23 1_555 1_555
C24 C23 1_555 1_555
H21 C24 1_555 1_555
C25 C20 1_555 1_555
H22 C25 1_555 1_555
O1 C1 1_555 1_555
O2 C19 1_555 1_555
O3 C9 1_555 1_555
C6 C7 1_555 1_555
C8 C9 1_555 1_555
C11 C12 1_555 1_555
C17 C18 1_555 1_555
C24 C25 1_555 1_555

#END
