
#######################################################################
#
#                 Cambridge Crystallographic Data Centre
#                                CCDC 
#
#######################################################################
#
# If this CIF has been generated from an entry in the Cambridge 
# Structural Database, then it will include bibliographic, chemical, 
# crystal, experimental, refinement or atomic coordinate data resulting 
# from the CCDC's data processing and validation procedures.
#
#######################################################################

data_VAZHEK
_chemical_formula_moiety         'C20 H26 N4'
_chemical_name_systematic        
N,N'-bis(4-(dimethylamino)benzylidene)ethane-1,2-diamine
_symmetry_cell_setting           monoclinic
_symmetry_space_group_name_H-M   'C 2/c'
_symmetry_Int_Tables_number      15
_space_group_name_Hall           '-C 2yn'
loop_
_symmetry_equiv_pos_site_id
_symmetry_equiv_pos_as_xyz
1 x,y,z
2 1/2+x,1/2+y,z
3 -x,y,1/2-z
4 1/2-x,1/2+y,1/2-z
5 -x,-y,-z
6 1/2-x,1/2-y,-z
7 x,-y,1/2+z
8 1/2+x,1/2-y,1/2+z
_cell_length_a                   24.151(10)
_cell_length_b                   6.503(3)
_cell_length_c                   12.390(5)
_cell_angle_alpha                90
_cell_angle_beta                 114.869(8)
_cell_angle_gamma                90
_cell_volume                     1765.46
_exptl_crystal_colour            red
_exptl_crystal_description       plate
_cell_formula_units_Z            4
_exptl_crystal_recrystallization_method dichloromethane
loop_
_atom_site_label
_atom_site_type_symbol
_atom_site_fract_x
_atom_site_fract_y
_atom_site_fract_z
C1 C 0.41021(12) 0.0696(4) 0.5065(2)
C2 C 0.34589(11) -0.2914(4) 0.3996(2)
C3 C 0.44526(12) 0.2529(4) 0.5597(2)
H1 H 0.4721 0.2994 0.5289
C4 C 0.33896(12) -0.1966(4) 0.4942(2)
H2 H 0.3123 -0.2533 0.5227
C5 C 0.37052(12) -0.0218(4) 0.5460(2)
H3 H 0.3651 0.0368 0.6094
C6 C 0.41614(13) -0.0230(5) 0.4118(2)
H4 H 0.4421 0.0366 0.3826
C7 C 0.38566(13) -0.1981(5) 0.3591(2)
H5 H 0.3914 -0.2556 0.2958
C8 C 0.48226(13) 0.5303(4) 0.6834(3)
H6 H 0.4580 0.6548 0.6592
H7 H 0.5105 0.5298 0.6462
C9 C 0.32328(16) -0.5642(5) 0.2532(3)
H8 H 0.3478 -0.4782 0.2276
H9 H 0.2844 -0.5873 0.1878
H10 H 0.3435 -0.6935 0.2805
C10 C 0.27889(15) -0.5716(5) 0.3976(3)
H11 H 0.2763 -0.4902 0.4600
H12 H 0.2978 -0.7011 0.4294
H13 H 0.2386 -0.5949 0.3367
N1 N 0.44267(10) 0.3541(4) 0.6433(2)
N2 N 0.31453(12) -0.4652(4) 0.3481(2)
C1B C 0.58979(12) 0.0696(4) 0.9935(2)
C2B C 0.65411(11) -0.2914(4) 1.1004(2)
C3B C 0.55474(12) 0.2529(4) 0.9403(2)
H1B H 0.5279 0.2994 0.9711
C4B C 0.66104(12) -0.1966(4) 1.0058(2)
H2B H 0.6877 -0.2533 0.9773
C5B C 0.62948(12) -0.0218(4) 0.9540(2)
H3B H 0.6349 0.0368 0.8906
C6B C 0.58386(13) -0.0230(5) 1.0882(2)
H4B H 0.5579 0.0366 1.1174
C7B C 0.61434(13) -0.1981(5) 1.1409(2)
H5B H 0.6086 -0.2556 1.2042
C8B C 0.51774(13) 0.5303(4) 0.8166(3)
H6B H 0.5420 0.6548 0.8408
H7B H 0.4895 0.5298 0.8538
C9B C 0.67672(16) -0.5642(5) 1.2468(3)
H8B H 0.6522 -0.4782 1.2724
H9B H 0.7156 -0.5873 1.3122
H10B H 0.6565 -0.6935 1.2195
C10B C 0.72111(15) -0.5716(5) 1.1024(3)
H11B H 0.7237 -0.4902 1.0400
H12B H 0.7022 -0.7011 1.0706
H13B H 0.7614 -0.5949 1.1633
N1B N 0.55733(10) 0.3541(4) 0.8567(2)
N2B N 0.68547(12) -0.4652(4) 1.1519(2)
loop_
_geom_bond_atom_site_label_1
_geom_bond_atom_site_label_2
_geom_bond_site_symmetry_1
_geom_bond_site_symmetry_2
C1 C3 1_555 1_555
C2 C4 1_555 1_555
C3 H1 1_555 1_555
C4 H2 1_555 1_555
C5 C1 1_555 1_555
H3 C5 1_555 1_555
C6 C1 1_555 1_555
H4 C6 1_555 1_555
C7 C2 1_555 1_555
H5 C7 1_555 1_555
C8 H6 1_555 1_555
H7 C8 1_555 1_555
C9 H8 1_555 1_555
H9 C9 1_555 1_555
H10 C9 1_555 1_555
C10 H11 1_555 1_555
H12 C10 1_555 1_555
H13 C10 1_555 1_555
N1 C3 1_555 1_555
N2 C2 1_555 1_555
C1B C3B 1_555 1_555
C2B C4B 1_555 1_555
C3B H1B 1_555 1_555
C4B H2B 1_555 1_555
C5B C1B 1_555 1_555
H3B C5B 1_555 1_555
C6B C1B 1_555 1_555
H4B C6B 1_555 1_555
C7B C2B 1_555 1_555
H5B C7B 1_555 1_555
C8B C8 1_555 1_555
H6B C8B 1_555 1_555
H7B C8B 1_555 1_555
C9B H8B 1_555 1_555
H9B C9B 1_555 1_555
H10B C9B 1_555 1_555
C10B H11B 1_555 1_555
H12B C10B 1_555 1_555
H13B C10B 1_555 1_555
N1B C3B 1_555 1_555
N2B C2B 1_555 1_555
C4 C5 1_555 1_555
C6 C7 1_555 1_555
C8 N1 1_555 1_555
C9 N2 1_555 1_555
C10 N2 1_555 1_555
C4B C5B 1_555 1_555
C6B C7B 1_555 1_555
C8B N1B 1_555 1_555
C9B N2B 1_555 1_555
C10B N2B 1_555 1_555

#END
