
#######################################################################
#
#                 Cambridge Crystallographic Data Centre
#                                CCDC 
#
#######################################################################
#
# If this CIF has been generated from an entry in the Cambridge 
# Structural Database, then it will include bibliographic, chemical, 
# crystal, experimental, refinement or atomic coordinate data resulting 
# from the CCDC's data processing and validation procedures.
#
#######################################################################

data_VAZJEL
_chemical_formula_moiety         'C10 H10 S6'
_chemical_name_systematic        
4,8-Diethylbenzo(1,2-d;4,5-d')bis(1,2,3-trithiole)
_symmetry_cell_setting           monoclinic
_symmetry_space_group_name_H-M   'P 21/n'
_symmetry_Int_Tables_number      14
_space_group_name_Hall           '-P 2yn'
loop_
_symmetry_equiv_pos_site_id
_symmetry_equiv_pos_as_xyz
1 x,y,z
2 1/2-x,1/2+y,1/2-z
3 -x,-y,-z
4 1/2+x,1/2-y,1/2+z
_cell_length_a                   14.755(1)
_cell_length_b                   8.620(1)
_cell_length_c                   5.191(1)
_cell_angle_alpha                90
_cell_angle_beta                 89.00(1)
_cell_angle_gamma                90
_cell_volume                     660.133
_exptl_crystal_colour            'dark red'
_chemical_melting_point          143deg.C
_cell_formula_units_Z            2
loop_
_atom_site_label
_atom_site_type_symbol
_atom_site_fract_x
_atom_site_fract_y
_atom_site_fract_z
S1 S 0.1903(1) 0.4822(1) 0.2186(2)
S2 S 0.2020(1) 0.2462(1) 0.2651(1)
S3 S 0.1458(1) 0.2445(1) 0.6301(1)
C1 C 0.0809(2) 0.4932(3) 0.3652(5)
C2 C 0.0612(2) 0.3843(3) 0.5579(5)
C3 C 0.0206(2) 0.6114(3) 0.3019(5)
C4 C 0.0425(2) 0.7297(4) 0.0965(6)
C5 C 0.0921(3) 0.8694(4) 0.2012(8)
H1 H -0.015(2) 0.759(4) 0.006(7)
H2 H 0.077(2) 0.679(4) -0.046(7)
H3 H 0.155(3) 0.840(5) 0.274(7)
H4 H 0.099(3) 0.938(5) 0.097(8)
H5 H 0.061(3) 0.916(5) 0.347(8)
C3B C -0.0206(2) 0.3886(3) 0.6981(5)
C2B C -0.0612(2) 0.6157(3) 0.4421(5)
C1B C -0.0809(2) 0.5068(3) 0.6348(5)
C4B C -0.0425(2) 0.2703(4) 0.9035(6)
S3B S -0.1458(1) 0.7555(1) 0.3699(1)
S1B S -0.1903(1) 0.5178(1) 0.7814(2)
C5B C -0.0921(3) 0.1306(4) 0.7988(8)
H1B H 0.015(2) 0.241(4) 0.994(7)
H2B H -0.077(2) 0.321(4) 1.046(7)
S2B S -0.2020(1) 0.7538(1) 0.7349(1)
H3B H -0.155(3) 0.160(5) 0.726(7)
H4B H -0.099(3) 0.062(5) 0.903(8)
H5B H -0.061(3) 0.084(5) 0.653(8)
loop_
_geom_bond_atom_site_label_1
_geom_bond_atom_site_label_2
_geom_bond_site_symmetry_1
_geom_bond_site_symmetry_2
S1 S2 1_555 1_555
S2 S3 1_555 1_555
S3 C2 1_555 1_555
C1 S1 1_555 1_555
C2 C1 1_555 1_555
C3 C1 1_555 1_555
C4 C3 1_555 1_555
C5 C4 1_555 1_555
H1 C4 1_555 1_555
H2 C4 1_555 1_555
H3 C5 1_555 1_555
H4 C5 1_555 1_555
H5 C5 1_555 1_555
C3B C2 1_555 1_555
C2B C3 1_555 1_555
C1B C3B 1_555 1_555
C4B C3B 1_555 1_555
S3B C2B 1_555 1_555
S1B C1B 1_555 1_555
C5B C4B 1_555 1_555
H1B C4B 1_555 1_555
H2B C4B 1_555 1_555
S2B S3B 1_555 1_555
H3B C5B 1_555 1_555
H4B C5B 1_555 1_555
H5B C5B 1_555 1_555
C2B C1B 1_555 1_555
S1B S2B 1_555 1_555

#END
