
#######################################################################
#
#                 Cambridge Crystallographic Data Centre
#                                CCDC 
#
#######################################################################
#
# If this CIF has been generated from an entry in the Cambridge 
# Structural Database, then it will include bibliographic, chemical, 
# crystal, experimental, refinement or atomic coordinate data resulting 
# from the CCDC's data processing and validation procedures.
#
#######################################################################

data_VAZLUG
_chemical_formula_moiety         'C96 H86 N6 O8,2(C1 H4 O1),2(C1 H1 Cl3)'
_chemical_name_systematic        
'N-{1-[3-{[5,6-bis(2,6-dimethylphenoxy)-2,3-dihydro-1H-isoindol-1-ylidene]amino}-5,6-bis(2,6-dimethylphenoxy)-1H-isoindol-1-ylidene]-5,6-bis(2,6-dimethylphenoxy)-1H-isoindol-3-yl}-5,6-bis(2,6-dimethylphenoxy)-2,3-dihydro-1H-isoindol-1-imine chloroform methanol solvate'
_symmetry_cell_setting           triclinic
_symmetry_space_group_name_H-M   'P -1'
_symmetry_Int_Tables_number      2
_space_group_name_Hall           '-P 1'
loop_
_symmetry_equiv_pos_site_id
_symmetry_equiv_pos_as_xyz
1 x,y,z
2 -x,-y,-z
_cell_length_a                   9.8074(5)
_cell_length_b                   13.2321(5)
_cell_length_c                   17.7176(7)
_cell_angle_alpha                100.836(3)
_cell_angle_beta                 99.601(4)
_cell_angle_gamma                93.264(3)
_cell_volume                     2217.36
_exptl_crystal_colour            red
_exptl_crystal_description       block
_cell_formula_units_Z            1
loop_
_atom_site_label
_atom_site_type_symbol
_atom_site_fract_x
_atom_site_fract_y
_atom_site_fract_z
O1 O 0.1577(2) 1.26116(14) 0.12092(11)
O2 O 0.3219(2) 0.54566(15) 0.34152(12)
O3 O 0.1100(2) 1.15510(16) 0.22433(12)
O4 O 0.5220(2) 0.43141(15) 0.32168(12)
N1 N 0.5026(2) 0.90321(16) 0.06394(12)
N2 N 0.4169(2) 0.83365(17) 0.16633(12)
C1 C 0.4298(3) 0.9053(2) 0.12089(15)
C2 C 0.4945(3) 0.7561(2) 0.16308(15)
C3 C 0.3522(3) 0.9961(2) 0.13085(15)
N3 N 0.5988(3) 0.73770(19) 0.12375(14)
H1 H 0.6216 0.7749 0.0921
C4 C 0.4054(3) 0.5739(2) 0.29262(15)
C5 C 0.4725(3) 0.99029(19) 0.03095(15)
C6 C 0.3897(3) 0.6562(2) 0.25586(15)
H2 H 0.3189 0.6989 0.2631
C7 C 0.3090(3) 1.1389(2) 0.06666(15)
H3 H 0.3221 1.1757 0.0282
C8 C 0.2013(3) 1.1161(2) 0.17765(16)
C9 C 0.4832(3) 0.6740(2) 0.20727(15)
C10 C 0.2225(3) 1.1710(2) 0.11921(16)
C11 C 0.6059(3) 0.5284(2) 0.23299(17)
H4 H 0.6769 0.4860 0.2255
C12 C 0.5151(3) 0.5108(2) 0.28184(16)
C13 C 0.3761(3) 1.0496(2) 0.07311(14)
C14 C 0.5884(3) 0.6109(2) 0.19539(16)
C15 C 0.2660(3) 1.0279(2) 0.18383(15)
H5 H 0.2526 0.9908 0.2221
C16 C 0.6812(3) 0.3067(2) 0.28603(18)
C17 C 0.6517(3) 0.3925(2) 0.33727(17)
C18 C 0.1470(3) 1.3710(2) 0.02876(17)
C19 C 0.1135(3) 1.1196(2) 0.29474(17)
C20 C 0.7408(3) 0.4389(2) 0.40589(18)
C21 C 0.6701(3) 0.6481(2) 0.14009(18)
H6 H 0.7666 0.6677 0.1644
H7 H 0.6656 0.5961 0.0930
C22 C 0.2161(3) 0.6088(2) 0.35853(17)
C23 C 0.0831(3) 0.5781(3) 0.31668(19)
C24 C 0.0216(3) 1.0370(3) 0.2969(2)
C25 C 0.0949(3) 1.2830(2) 0.05008(17)
C26 C 0.3038(4) 1.2619(3) 0.3545(2)
H8 H 0.3741 1.2356 0.3263
H9 H 0.3466 1.2976 0.4060
H10 H 0.2538 1.3087 0.3274
C27 C 0.8649(3) 0.3950(3) 0.4236(2)
H11 H 0.9263 0.4231 0.4698
C28 C 0.2057(3) 1.1742(2) 0.36009(18)
C29 C -0.0213(3) 0.6391(3) 0.3384(2)
H12 H -0.1123 0.6213 0.3121
C30 C 0.2490(3) 0.6937(2) 0.41976(18)
C31 C 0.2733(4) 1.4357(3) 0.0773(2)
H13 H 0.2557 1.4613 0.1289
H14 H 0.2945 1.4927 0.0536
H15 H 0.3505 1.3943 0.0806
C32 C 0.8089(3) 0.2676(2) 0.3061(2)
H16 H 0.8336 0.2114 0.2728
C33 C 0.2029(4) 1.1436(3) 0.43109(19)
H17 H 0.2623 1.1786 0.4761
C34 C 0.0074(4) 0.7245(3) 0.3977(2)
H18 H -0.0637 0.7640 0.4108
C35 C -0.0234(4) 1.2217(3) 0.0077(2)
C36 C 0.8980(3) 0.3110(3) 0.3742(2)
H19 H 0.9817 0.2831 0.3869
C37 C 0.7051(4) 0.5321(3) 0.4595(2)
H20 H 0.7130 0.5916 0.4363
H21 H 0.7678 0.5434 0.5087
H22 H 0.6116 0.5206 0.4678
C38 C 0.0771(3) 1.3974(3) -0.03936(18)
H23 H 0.1074 1.4572 -0.0543
C39 C 0.3942(4) 0.7178(3) 0.4661(2)
H24 H 0.3978 0.7785 0.5060
H25 H 0.4572 0.7298 0.4320
H26 H 0.4204 0.6606 0.4898
C40 C 0.1422(4) 0.7523(3) 0.4382(2)
H27 H 0.1609 0.8107 0.4780
C41 C 0.1130(4) 1.0621(3) 0.4349(2)
H28 H 0.1127 1.0423 0.4826
C42 C -0.0358(4) 1.3356(3) -0.0844(2)
H29 H -0.0791 1.3528 -0.1305
C43 C 0.5814(4) 0.2571(3) 0.2133(2)
H30 H 0.5087 0.2158 0.2265
H31 H 0.6295 0.2139 0.1786
H32 H 0.5420 0.3096 0.1880
C44 C 0.0241(4) 1.0096(3) 0.3699(2)
H33 H -0.0359 0.9547 0.3741
C45 C -0.0855(4) 1.2488(3) -0.0621(2)
H34 H -0.1612 1.2073 -0.0936
C46 C 0.0519(4) 0.4840(3) 0.2525(2)
H35 H 0.1105 0.4888 0.2148
H36 H -0.0436 0.4794 0.2277
H37 H 0.0689 0.4235 0.2740
C47 C -0.0743(4) 0.9807(3) 0.2250(2)
H38 H -0.1353 1.0275 0.2050
H39 H -0.1281 0.9252 0.2375
H40 H -0.0211 0.9531 0.1863
C48 C -0.0850(4) 1.1330(3) 0.0370(3)
H41 H -0.0292 1.0758 0.0293
H42 H -0.1777 1.1124 0.0086
H43 H -0.0872 1.1540 0.0916
O1A O 0.8423(2) 0.73884(14) -0.12092(11)
O2A O 0.6781(2) 1.45434(15) -0.34152(12)
O3A O 0.8900(2) 0.84490(16) -0.22433(12)
O4A O 0.4780(2) 1.56859(15) -0.32168(12)
N1A N 0.4974(2) 1.09679(16) -0.06394(12)
N2A N 0.5831(2) 1.16635(17) -0.16633(12)
C1A C 0.5702(3) 1.0947(2) -0.12089(15)
C2A C 0.5055(3) 1.2439(2) -0.16308(15)
C3A C 0.6478(3) 1.0039(2) -0.13085(15)
N3A N 0.4012(3) 1.26230(19) -0.12375(14)
H1A H 0.3784 1.2251 -0.0921
C4A C 0.5946(3) 1.4261(2) -0.29262(15)
C5A C 0.5275(3) 1.00971(19) -0.03095(15)
C6A C 0.6103(3) 1.3438(2) -0.25586(15)
H2A H 0.6811 1.3011 -0.2631
C7A C 0.6910(3) 0.8611(2) -0.06666(15)
H3A H 0.6779 0.8243 -0.0282
C8A C 0.7987(3) 0.8839(2) -0.17765(16)
C9A C 0.5168(3) 1.3260(2) -0.20727(15)
C10A C 0.7775(3) 0.8290(2) -0.11921(16)
C11A C 0.3941(3) 1.4716(2) -0.23299(17)
H4A H 0.3231 1.5140 -0.2255
C12A C 0.4849(3) 1.4892(2) -0.28184(16)
C13A C 0.6239(3) 0.9504(2) -0.07311(14)
C14A C 0.4116(3) 1.3891(2) -0.19539(16)
C15A C 0.7340(3) 0.9721(2) -0.18383(15)
H5A H 0.7474 1.0092 -0.2221
C16A C 0.3188(3) 1.6933(2) -0.28603(18)
C17A C 0.3483(3) 1.6075(2) -0.33727(17)
C18A C 0.8530(3) 0.6290(2) -0.02876(17)
C19A C 0.8865(3) 0.8804(2) -0.29474(17)
C20A C 0.2592(3) 1.5611(2) -0.40589(18)
C21A C 0.3299(3) 1.3519(2) -0.14009(18)
H6A H 0.2334 1.3323 -0.1644
H7A H 0.3344 1.4039 -0.0930
C22A C 0.7839(3) 1.3912(2) -0.35853(17)
C23A C 0.9169(3) 1.4219(3) -0.31668(19)
C24A C 0.9784(3) 0.9630(3) -0.2969(2)
C25A C 0.9051(3) 0.7170(2) -0.05008(17)
C26A C 0.6962(4) 0.7381(3) -0.3545(2)
H8A H 0.6259 0.7644 -0.3263
H9A H 0.6534 0.7024 -0.4060
H10A H 0.7462 0.6913 -0.3274
C27A C 0.1351(3) 1.6050(3) -0.4236(2)
H11A H 0.0737 1.5769 -0.4698
C28A C 0.7943(3) 0.8258(2) -0.36009(18)
C29A C 1.0213(3) 1.3609(3) -0.3384(2)
H12A H 1.1123 1.3787 -0.3121
C30A C 0.7510(3) 1.3063(2) -0.41976(18)
C31A C 0.7267(4) 0.5643(3) -0.0773(2)
H13A H 0.7443 0.5387 -0.1289
H14A H 0.7055 0.5073 -0.0536
H15A H 0.6495 0.6057 -0.0806
C32A C 0.1911(3) 1.7324(2) -0.3061(2)
H16A H 0.1664 1.7886 -0.2728
C33A C 0.7971(4) 0.8564(3) -0.43109(19)
H17A H 0.7377 0.8214 -0.4761
C34A C 0.9926(4) 1.2755(3) -0.3977(2)
H18A H 1.0637 1.2360 -0.4108
C35A C 1.0234(4) 0.7783(3) -0.0077(2)
C36A C 0.1020(3) 1.6890(3) -0.3742(2)
H19A H 0.0183 1.7169 -0.3869
C37A C 0.2949(4) 1.4679(3) -0.4595(2)
H20A H 0.2870 1.4084 -0.4363
H21A H 0.2322 1.4566 -0.5087
H22A H 0.3884 1.4794 -0.4678
C38A C 0.9229(3) 0.6026(3) 0.03936(18)
H23A H 0.8926 0.5428 0.0543
C39A C 0.6058(4) 1.2822(3) -0.4661(2)
H24A H 0.6022 1.2215 -0.5060
H25A H 0.5428 1.2702 -0.4320
H26A H 0.5796 1.3394 -0.4898
C40A C 0.8578(4) 1.2477(3) -0.4382(2)
H27A H 0.8391 1.1893 -0.4780
C41A C 0.8870(4) 0.9379(3) -0.4349(2)
H28A H 0.8873 0.9577 -0.4826
C42A C 1.0358(4) 0.6644(3) 0.0844(2)
H29A H 1.0791 0.6472 0.1305
C43A C 0.4186(4) 1.7429(3) -0.2133(2)
H30A H 0.4913 1.7842 -0.2265
H31A H 0.3705 1.7861 -0.1786
H32A H 0.4580 1.6904 -0.1880
C44A C 0.9759(4) 0.9904(3) -0.3699(2)
H33A H 1.0359 1.0453 -0.3741
C45A C 1.0855(4) 0.7512(3) 0.0621(2)
H34A H 1.1612 0.7927 0.0936
C46A C 0.9481(4) 1.5160(3) -0.2525(2)
H35A H 0.8895 1.5112 -0.2148
H36A H 1.0436 1.5206 -0.2277
H37A H 0.9311 1.5765 -0.2740
C47A C 1.0743(4) 1.0193(3) -0.2250(2)
H38A H 1.1353 0.9725 -0.2050
H39A H 1.1281 1.0748 -0.2375
H40A H 1.0211 1.0469 -0.1863
C48A C 1.0850(4) 0.8670(3) -0.0370(3)
H41A H 1.0292 0.9242 -0.0293
H42A H 1.1777 0.8876 -0.0086
H43A H 1.0872 0.8460 -0.0916
O5 O 0.2272(4) 0.6085(3) 0.9054(2)
H44 H 0.1734 0.6527 0.8990
C49 C 0.3454(6) 0.6532(4) 0.9621(3)
H45 H 0.3676 0.7229 0.9569
H46 H 0.4227 0.6136 0.9544
H47 H 0.3258 0.6535 1.0135
Cl1 Cl 0.66642(9) 0.85899(7) 0.36152(6)
Cl2 Cl 0.41598(17) 0.95512(12) 0.39242(10)
C50 C 0.5481(4) 0.9487(3) 0.3391(2)
H48 H 0.5043 0.9246 0.2842
Cl3 Cl 0.63436(15) 1.06980(8) 0.34552(9)
loop_
_geom_bond_atom_site_label_1
_geom_bond_atom_site_label_2
_geom_bond_site_symmetry_1
_geom_bond_site_symmetry_2
O1 C10 1_555 1_555
O2 C4 1_555 1_555
O3 C8 1_555 1_555
O4 C12 1_555 1_555
N1 C1 1_555 1_555
N2 C1 1_555 1_555
C1 C3 1_555 1_555
C2 N2 1_555 1_555
C3 C13 1_555 1_555
N3 C2 1_555 1_555
H1 N3 1_555 1_555
C4 C6 1_555 1_555
C5 N1 1_555 1_555
C6 H2 1_555 1_555
C7 H3 1_555 1_555
C8 C10 1_555 1_555
C9 C2 1_555 1_555
C10 C7 1_555 1_555
C11 H4 1_555 1_555
C12 C4 1_555 1_555
C13 C5 1_555 1_555
C14 C9 1_555 1_555
C15 C3 1_555 1_555
H5 C15 1_555 1_555
C16 C17 1_555 1_555
C17 O4 1_555 1_555
C18 C25 1_555 1_555
C19 O3 1_555 1_555
C20 C17 1_555 1_555
C21 N3 1_555 1_555
H6 C21 1_555 1_555
H7 C21 1_555 1_555
C22 O2 1_555 1_555
C23 C22 1_555 1_555
C24 C19 1_555 1_555
C25 O1 1_555 1_555
C26 H8 1_555 1_555
H9 C26 1_555 1_555
H10 C26 1_555 1_555
C27 C20 1_555 1_555
H11 C27 1_555 1_555
C28 C19 1_555 1_555
C29 C23 1_555 1_555
H12 C29 1_555 1_555
C30 C22 1_555 1_555
C31 C18 1_555 1_555
H13 C31 1_555 1_555
H14 C31 1_555 1_555
H15 C31 1_555 1_555
C32 C16 1_555 1_555
H16 C32 1_555 1_555
C33 C28 1_555 1_555
H17 C33 1_555 1_555
C34 C29 1_555 1_555
H18 C34 1_555 1_555
C35 C25 1_555 1_555
C36 C27 1_555 1_555
H19 C36 1_555 1_555
C37 C20 1_555 1_555
H20 C37 1_555 1_555
H21 C37 1_555 1_555
H22 C37 1_555 1_555
C38 C18 1_555 1_555
H23 C38 1_555 1_555
C39 C30 1_555 1_555
H24 C39 1_555 1_555
H25 C39 1_555 1_555
H26 C39 1_555 1_555
C40 C30 1_555 1_555
H27 C40 1_555 1_555
C41 C33 1_555 1_555
H28 C41 1_555 1_555
C42 C38 1_555 1_555
H29 C42 1_555 1_555
C43 C16 1_555 1_555
H30 C43 1_555 1_555
H31 C43 1_555 1_555
H32 C43 1_555 1_555
C44 C24 1_555 1_555
H33 C44 1_555 1_555
C45 C35 1_555 1_555
H34 C45 1_555 1_555
C46 C23 1_555 1_555
H35 C46 1_555 1_555
H36 C46 1_555 1_555
H37 C46 1_555 1_555
C47 C24 1_555 1_555
H38 C47 1_555 1_555
H39 C47 1_555 1_555
H40 C47 1_555 1_555
C48 C35 1_555 1_555
H41 C48 1_555 1_555
H42 C48 1_555 1_555
H43 C48 1_555 1_555
O5 H44 1_555 1_555
C49 O5 1_555 1_555
H45 C49 1_555 1_555
H46 C49 1_555 1_555
H47 C49 1_555 1_555
Cl1 C50 1_555 1_555
Cl2 C50 1_555 1_555
C50 H48 1_555 1_555
Cl3 C50 1_555 1_555
O1A C10A 1_555 1_555
O2A C4A 1_555 1_555
O3A C8A 1_555 1_555
O4A C12A 1_555 1_555
N1A C1A 1_555 1_555
N2A C1A 1_555 1_555
C1A C3A 1_555 1_555
C2A N2A 1_555 1_555
C3A C13A 1_555 1_555
N3A C2A 1_555 1_555
H1A N3A 1_555 1_555
C4A C6A 1_555 1_555
C5A C5 1_555 1_555
C6A H2A 1_555 1_555
C7A H3A 1_555 1_555
C8A C10A 1_555 1_555
C9A C2A 1_555 1_555
C10A C7A 1_555 1_555
C11A H4A 1_555 1_555
C12A C4A 1_555 1_555
C13A C5A 1_555 1_555
C14A C9A 1_555 1_555
C15A C3A 1_555 1_555
H5A C15A 1_555 1_555
C16A C17A 1_555 1_555
C17A O4A 1_555 1_555
C18A C25A 1_555 1_555
C19A O3A 1_555 1_555
C20A C17A 1_555 1_555
C21A N3A 1_555 1_555
H6A C21A 1_555 1_555
H7A C21A 1_555 1_555
C22A O2A 1_555 1_555
C23A C22A 1_555 1_555
C24A C19A 1_555 1_555
C25A O1A 1_555 1_555
C26A H8A 1_555 1_555
H9A C26A 1_555 1_555
H10A C26A 1_555 1_555
C27A C20A 1_555 1_555
H11A C27A 1_555 1_555
C28A C19A 1_555 1_555
C29A C23A 1_555 1_555
H12A C29A 1_555 1_555
C30A C22A 1_555 1_555
C31A C18A 1_555 1_555
H13A C31A 1_555 1_555
H14A C31A 1_555 1_555
H15A C31A 1_555 1_555
C32A C16A 1_555 1_555
H16A C32A 1_555 1_555
C33A C28A 1_555 1_555
H17A C33A 1_555 1_555
C34A C29A 1_555 1_555
H18A C34A 1_555 1_555
C35A C25A 1_555 1_555
C36A C27A 1_555 1_555
H19A C36A 1_555 1_555
C37A C20A 1_555 1_555
H20A C37A 1_555 1_555
H21A C37A 1_555 1_555
H22A C37A 1_555 1_555
C38A C18A 1_555 1_555
H23A C38A 1_555 1_555
C39A C30A 1_555 1_555
H24A C39A 1_555 1_555
H25A C39A 1_555 1_555
H26A C39A 1_555 1_555
C40A C30A 1_555 1_555
H27A C40A 1_555 1_555
C41A C33A 1_555 1_555
H28A C41A 1_555 1_555
C42A C38A 1_555 1_555
H29A C42A 1_555 1_555
C43A C16A 1_555 1_555
H30A C43A 1_555 1_555
H31A C43A 1_555 1_555
H32A C43A 1_555 1_555
C44A C24A 1_555 1_555
H33A C44A 1_555 1_555
C45A C35A 1_555 1_555
H34A C45A 1_555 1_555
C46A C23A 1_555 1_555
H35A C46A 1_555 1_555
H36A C46A 1_555 1_555
H37A C46A 1_555 1_555
C47A C24A 1_555 1_555
H38A C47A 1_555 1_555
H39A C47A 1_555 1_555
H40A C47A 1_555 1_555
C48A C35A 1_555 1_555
H41A C48A 1_555 1_555
H42A C48A 1_555 1_555
H43A C48A 1_555 1_555
C6 C9 1_555 1_555
C7 C13 1_555 1_555
C8 C15 1_555 1_555
C11 C12 1_555 1_555
C11 C14 1_555 1_555
C14 C21 1_555 1_555
C26 C28 1_555 1_555
C32 C36 1_555 1_555
C34 C40 1_555 1_555
C41 C44 1_555 1_555
C42 C45 1_555 1_555
N1A C5A 1_555 1_555
C6A C9A 1_555 1_555
C7A C13A 1_555 1_555
C8A C15A 1_555 1_555
C11A C12A 1_555 1_555
C11A C14A 1_555 1_555
C14A C21A 1_555 1_555
C26A C28A 1_555 1_555
C32A C36A 1_555 1_555
C34A C40A 1_555 1_555
C41A C44A 1_555 1_555
C42A C45A 1_555 1_555

#END
