
#######################################################################
#
#                 Cambridge Crystallographic Data Centre
#                                CCDC 
#
#######################################################################
#
# If this CIF has been generated from an entry in the Cambridge 
# Structural Database, then it will include bibliographic, chemical, 
# crystal, experimental, refinement or atomic coordinate data resulting 
# from the CCDC's data processing and validation procedures.
#
#######################################################################

data_VAZYUT
_chemical_compound_source        'isolated from the twigs of Croton laevigatus'
_chemical_name_common            'crolaevinoid F'
_chemical_formula_moiety         'C20 H24 O6'
_chemical_name_systematic        
1-(furan-3-yl)-6,7-dihydroxy-5a,6,9b-trimethyldecahydro-3H,4H-naphtho[2',1':1,3]cyclopropa[1,2-c]furan-3,4-dione
_symmetry_cell_setting           orthorhombic
_symmetry_space_group_name_H-M   'P 21 21 21'
_symmetry_Int_Tables_number      19
_space_group_name_Hall           'P 2ac 2ab'
loop_
_symmetry_equiv_pos_site_id
_symmetry_equiv_pos_as_xyz
1 x,y,z
2 1/2+x,1/2-y,-z
3 -x,1/2+y,1/2-z
4 1/2-x,-y,1/2+z
_cell_length_a                   10.34903(5)
_cell_length_b                   11.11834(6)
_cell_length_c                   15.31295(9)
_cell_angle_alpha                90
_cell_angle_beta                 90
_cell_angle_gamma                90
_cell_volume                     1761.97
_exptl_crystal_colour            colorless
_exptl_crystal_description       plate
_cell_formula_units_Z            4
loop_
_atom_site_label
_atom_site_type_symbol
_atom_site_fract_x
_atom_site_fract_y
_atom_site_fract_z
O1 O 0.02878(9) 0.97439(8) 0.33133(6)
O2 O -0.52215(8) 0.62957(8) 0.25824(6)
O3 O 0.09341(8) 0.83794(8) 0.23429(6)
O4 O -0.51766(10) 0.61114(8) 0.49529(6)
O5 O -0.23900(9) 1.01078(8) 0.26112(7)
C1 C -0.02085(12) 0.65679(11) 0.36750(8)
C2 C -0.50522(12) 0.67634(11) 0.34528(8)
C3 C -0.36996(11) 0.73946(11) 0.34407(8)
C4 C 0.05841(12) 0.75692(12) 0.08972(8)
C5 C 0.04163(12) 0.73433(11) 0.18526(8)
C6 C -0.24398(12) 0.90109(11) 0.26754(8)
C7 C -0.26511(11) 0.64307(11) 0.32426(7)
C8 C -0.39665(12) 0.48120(11) 0.39536(8)
O6 O 0.13897(11) 0.74373(12) -0.04525(7)
C9 C -0.36875(12) 0.83295(11) 0.26935(8)
C10 C -0.09877(11) 0.72194(10) 0.21341(8)
C11 C 0.00285(12) 0.89059(10) 0.28491(8)
C12 C -0.50979(12) 0.56669(11) 0.40788(8)
C13 C -0.26583(12) 0.54493(11) 0.39516(8)
C14 C -0.01103(14) 0.83774(12) 0.03402(9)
C15 C -0.61700(12) 0.76145(12) 0.36601(9)
C16 C -0.12469(12) 0.82894(10) 0.27394(8)
C17 C -0.34088(12) 0.80661(11) 0.42988(8)
C18 C 0.14685(15) 0.70313(15) 0.03849(10)
C19 C -0.12846(12) 0.69583(10) 0.30669(8)
C20 C 0.04109(16) 0.82661(14) -0.04583(10)
H1 H -0.5948(6) 0.6008(14) 0.2535(3)
H2 H -0.5025(18) 0.5564(4) 0.52966(7)
H3 H -0.0436(4) 0.6765(8) 0.42656(11)
H4 H -0.0084(7) 0.57151(18) 0.3625(5)
H5 H 0.0576(3) 0.6976(7) 0.3519(4)
H6 H 0.08916(12) 0.66154(11) 0.20170(8)
H7 H -0.29175(11) 0.60350(11) 0.26998(7)
H8 H -0.39753(12) 0.42194(11) 0.44184(8)
H9 H -0.40737(12) 0.43883(11) 0.34046(8)
H10 H -0.38093(12) 0.79220(11) 0.21394(8)
H11 H -0.43981(12) 0.88880(11) 0.27723(8)
H12 H -0.16354(11) 0.70166(10) 0.16911(8)
H13 H -0.58938(12) 0.52199(11) 0.39567(8)
H14 H -0.19763(12) 0.48720(11) 0.38371(8)
H15 H -0.25012(12) 0.58093(11) 0.45187(8)
H16 H -0.07885(14) 0.88800(12) 0.05002(9)
H17 H -0.6207(7) 0.8237(6) 0.3226(4)
H18 H -0.69670(17) 0.7173(2) 0.3659(7)
H19 H -0.6038(6) 0.7968(8) 0.4225(3)
H20 H -0.3976(7) 0.8746(5) 0.4351(3)
H21 H -0.3542(9) 0.7534(3) 0.47841(9)
H22 H -0.2528(3) 0.8337(8) 0.4296(3)
H23 H 0.20566(15) 0.64572(15) 0.05775(10)
H24 H 0.01440(16) 0.86932(14) -0.09484(10)
loop_
_geom_bond_atom_site_label_1
_geom_bond_atom_site_label_2
_geom_bond_site_symmetry_1
_geom_bond_site_symmetry_2
O1 C11 1_555 1_555
O2 C2 1_555 1_555
O3 C5 1_555 1_555
O4 C12 1_555 1_555
O5 C6 1_555 1_555
C1 C19 1_555 1_555
C2 C3 1_555 1_555
C3 C7 1_555 1_555
C4 C5 1_555 1_555
C5 C10 1_555 1_555
C6 C9 1_555 1_555
C7 C13 1_555 1_555
C8 C12 1_555 1_555
O6 C18 1_555 1_555
C9 C3 1_555 1_555
C10 C16 1_555 1_555
C11 O3 1_555 1_555
C12 C2 1_555 1_555
C13 C8 1_555 1_555
C14 C4 1_555 1_555
C15 C2 1_555 1_555
C16 C6 1_555 1_555
C17 C3 1_555 1_555
C18 C4 1_555 1_555
C19 C7 1_555 1_555
C20 O6 1_555 1_555
H1 O2 1_555 1_555
H2 O4 1_555 1_555
H3 C1 1_555 1_555
H4 C1 1_555 1_555
H5 C1 1_555 1_555
H6 C5 1_555 1_555
H7 C7 1_555 1_555
H8 C8 1_555 1_555
H9 C8 1_555 1_555
H10 C9 1_555 1_555
H11 C9 1_555 1_555
H12 C10 1_555 1_555
H13 C12 1_555 1_555
H14 C13 1_555 1_555
H15 C13 1_555 1_555
H16 C14 1_555 1_555
H17 C15 1_555 1_555
H18 C15 1_555 1_555
H19 C15 1_555 1_555
H20 C17 1_555 1_555
H21 C17 1_555 1_555
H22 C17 1_555 1_555
H23 C18 1_555 1_555
H24 C20 1_555 1_555
C10 C19 1_555 1_555
C11 C16 1_555 1_555
C14 C20 1_555 1_555
C16 C19 1_555 1_555

#END
