
#######################################################################
#
#                 Cambridge Crystallographic Data Centre
#                                CCDC 
#
#######################################################################
#
# If this CIF has been generated from an entry in the Cambridge 
# Structural Database, then it will include bibliographic, chemical, 
# crystal, experimental, refinement or atomic coordinate data resulting 
# from the CCDC's data processing and validation procedures.
#
#######################################################################

data_VECDOZ
_chemical_formula_moiety         'C16 H22 O4'
_chemical_name_systematic        
10-(methoxymethoxy)-6-methyl-6-(prop-2-yn-1-yl)spiro[4.5]decane-1,7-dione
_symmetry_cell_setting           orthorhombic
_symmetry_space_group_name_H-M   'P b c a'
_symmetry_Int_Tables_number      61
_space_group_name_Hall           '-P 2ac 2ab'
loop_
_symmetry_equiv_pos_site_id
_symmetry_equiv_pos_as_xyz
1 x,y,z
2 1/2-x,-y,1/2+z
3 1/2+x,1/2-y,-z
4 -x,1/2+y,1/2-z
5 -x,-y,-z
6 1/2+x,y,1/2-z
7 1/2-x,1/2+y,z
8 x,1/2-y,1/2+z
_cell_length_a                   14.4398(5)
_cell_length_b                   8.7058(3)
_cell_length_c                   23.2532(7)
_cell_angle_alpha                90
_cell_angle_beta                 90
_cell_angle_gamma                90
_cell_volume                     2923.16
_exptl_crystal_colour            colorless
_exptl_crystal_description       block
_cell_formula_units_Z            8
loop_
_atom_site_label
_atom_site_type_symbol
_atom_site_fract_x
_atom_site_fract_y
_atom_site_fract_z
C1 C 0.24633(11) 0.8912(2) -0.04004(7)
C2 C 0.22161(10) 0.83021(17) 0.00307(6)
C3 C 0.19296(9) 0.75029(17) 0.05585(6)
H1 H 0.2303 0.7877 0.0876
H2 H 0.2058 0.6416 0.0514
C4 C 0.08934(9) 0.77038(15) 0.07162(5)
C5 C 0.07279(10) 0.93693(16) 0.09040(6)
C6 C -0.02235(11) 0.97373(19) 0.11359(8)
H3 H -0.0680 0.9621 0.0833
H4 H -0.0240 1.0794 0.1268
C7 C -0.04599(10) 0.86592(17) 0.16358(7)
H5 H -0.0057 0.8882 0.1959
H6 H -0.1094 0.8837 0.1756
C8 C -0.03456(9) 0.69863(16) 0.14626(6)
H7 H -0.0815 0.6735 0.1173
C9 C 0.06243(9) 0.65777(14) 0.12187(5)
C10 C 0.06676(10) 0.48559(15) 0.10543(6)
H8 H 0.0055 0.4480 0.0957
H9 H 0.1070 0.4708 0.0725
C11 C 0.10508(10) 0.39915(16) 0.15815(6)
H10 H 0.0556 0.3706 0.1842
H11 H 0.1381 0.3072 0.1465
C12 C 0.13303(9) 0.66964(15) 0.17114(5)
C13 C 0.17033(10) 0.51409(17) 0.18617(6)
H12 H 0.1714 0.5000 0.2275
H13 H 0.2327 0.5018 0.1715
C14 C -0.13983(9) 0.58092(17) 0.21318(6)
H14 H -0.1407 0.5218 0.2485
H15 H -0.1660 0.6811 0.2214
C15 C -0.17000(12) 0.3500(2) 0.16401(7)
H16 H -0.2098 0.3045 0.1356
H17 H -0.1069 0.3443 0.1512
H18 H -0.1764 0.2955 0.1997
C16 C 0.02900(11) 0.7368(2) 0.01831(6)
H19 H 0.0387 0.6327 0.0061
H20 H -0.0351 0.7512 0.0279
H21 H 0.0458 0.8056 -0.0122
O1 O 0.13188(8) 1.03444(12) 0.08615(5)
O2 O 0.15627(7) 0.78990(11) 0.19311(4)
O3 O -0.04728(6) 0.59951(11) 0.19519(4)
O4 O -0.19521(7) 0.50681(13) 0.17217(5)
loop_
_geom_bond_atom_site_label_1
_geom_bond_atom_site_label_2
_geom_bond_site_symmetry_1
_geom_bond_site_symmetry_2
C1 C2 1_555 1_555
C2 C3 1_555 1_555
C3 H1 1_555 1_555
H2 C3 1_555 1_555
C4 C3 1_555 1_555
C5 C4 1_555 1_555
C6 C5 1_555 1_555
H3 C6 1_555 1_555
H4 C6 1_555 1_555
C7 C6 1_555 1_555
H5 C7 1_555 1_555
H6 C7 1_555 1_555
C8 C7 1_555 1_555
H7 C8 1_555 1_555
C9 C4 1_555 1_555
C10 C9 1_555 1_555
H8 C10 1_555 1_555
H9 C10 1_555 1_555
C11 C10 1_555 1_555
H10 C11 1_555 1_555
H11 C11 1_555 1_555
C12 C9 1_555 1_555
C13 C11 1_555 1_555
H12 C13 1_555 1_555
H13 C13 1_555 1_555
C14 H14 1_555 1_555
H15 C14 1_555 1_555
C15 H16 1_555 1_555
H17 C15 1_555 1_555
H18 C15 1_555 1_555
C16 C4 1_555 1_555
H19 C16 1_555 1_555
H20 C16 1_555 1_555
H21 C16 1_555 1_555
O1 C5 1_555 1_555
O2 C12 1_555 1_555
O3 C8 1_555 1_555
O4 C14 1_555 1_555
C8 C9 1_555 1_555
C12 C13 1_555 1_555
C14 O3 1_555 1_555
C15 O4 1_555 1_555

#END
