
#######################################################################
#
#                 Cambridge Crystallographic Data Centre
#                                CCDC 
#
#######################################################################
#
# If this CIF has been generated from an entry in the Cambridge 
# Structural Database, then it will include bibliographic, chemical, 
# crystal, experimental, refinement or atomic coordinate data resulting 
# from the CCDC's data processing and validation procedures.
#
#######################################################################

data_VEDDUG
_chemical_name_common            'Vindorosine perdeuterobenzene solvate'
_chemical_formula_moiety         'C24 H30 N2 O5,C6 D6'
_chemical_name_systematic        
'methyl 4-(acetyloxy)-3-hydroxy-1-methyl-6,7-didehydroaspidospermidine-3-carboxylate perdeuterobenzene solvate'
_symmetry_cell_setting           orthorhombic
_symmetry_space_group_name_H-M   'P 21 21 21'
_symmetry_Int_Tables_number      19
_space_group_name_Hall           'P 2ac 2ab'
loop_
_symmetry_equiv_pos_site_id
_symmetry_equiv_pos_as_xyz
1 x,y,z
2 1/2-x,-y,1/2+z
3 1/2+x,1/2-y,-z
4 -x,1/2+y,1/2-z
_cell_length_a                   8.150(3)
_cell_length_b                   10.583(3)
_cell_length_c                   31.189(10)
_cell_angle_alpha                90
_cell_angle_beta                 90
_cell_angle_gamma                90
_cell_volume                     2690.1
_exptl_crystal_colour            colorless
_exptl_crystal_description       block
_cell_formula_units_Z            4
loop_
_atom_site_label
_atom_site_type_symbol
_atom_site_fract_x
_atom_site_fract_y
_atom_site_fract_z
C1 C 0.5242(11) 0.4028(5) 0.6899(4)
D1 D 0.4893 0.3241 0.6995
C2 C 0.4726(6) 0.4476(10) 0.6502(3)
D2 D 0.4030 0.3989 0.6333
C3 C 0.5248(12) 0.5652(12) 0.6358(2)
D3 D 0.4902 0.5952 0.6093
C4 C 0.6288(12) 0.6380(5) 0.6611(4)
D4 D 0.6637 0.7167 0.6515
C5 C 0.6804(7) 0.5932(11) 0.7008(4)
D5 D 0.7500 0.6419 0.7177
C6 C 0.6282(11) 0.4755(12) 0.71515(19)
D6 D 0.6627 0.4456 0.7417
O1 O 0.8251(4) -0.1397(3) 0.58341(10)
H1 H 0.7660 -0.1076 0.6017
O2 O 1.0423(4) -0.1856(3) 0.64643(10)
O3 O 1.2733(5) -0.1516(4) 0.68431(13)
C7 C 1.1399(8) -0.3545(5) 0.6880(2)
H2 H 1.1670 -0.4112 0.6650
H3 H 1.0275 -0.3667 0.6962
H4 H 1.2099 -0.3711 0.7121
O4 O 1.2234(5) -0.1984(4) 0.56500(12)
O5 O 1.0192(5) -0.1851(3) 0.51793(11)
N1 N 1.1158(5) 0.1221(4) 0.55534(13)
N2 N 0.6801(5) 0.0268(4) 0.63573(12)
C8 C 1.0823(7) 0.2516(5) 0.56170(16)
C9 C 0.9280(6) 0.2690(5) 0.57975(16)
C10 C 0.8792(8) 0.3896(5) 0.59043(17)
H5 H 0.7777 0.4021 0.6033
C11 C 0.9782(10) 0.4911(6) 0.5823(2)
H6 H 0.9428 0.5722 0.5890
C12 C 1.1311(10) 0.4729(7) 0.5641(2)
H7 H 1.1983 0.5422 0.5588
C13 C 1.1854(8) 0.3526(6) 0.55352(18)
H8 H 1.2882 0.3403 0.5413
C14 C 0.9595(6) 0.0525(4) 0.56063(15)
H9 H 0.9118 0.0385 0.5322
C15 C 0.8432(6) 0.1430(4) 0.58632(14)
C16 C 0.8270(6) 0.1086(5) 0.63413(14)
H10 H 0.8023 0.1863 0.6500
C17 C 0.9738(6) 0.0433(4) 0.65629(14)
C18 C 1.0547(6) -0.0611(4) 0.62722(14)
H11 H 1.1712 -0.0406 0.6237
C19 C 0.9795(6) -0.0771(4) 0.58300(15)
C20 C 0.6623(6) 0.1396(6) 0.57039(16)
H12 H 0.6251 0.2239 0.5629
H13 H 0.6520 0.0856 0.5454
C21 C 0.5632(7) 0.0876(6) 0.60737(18)
H14 H 0.5063 0.1552 0.6222
H15 H 0.4829 0.0271 0.5972
C22 C 0.6209(7) 0.0075(6) 0.67920(17)
H16 H 0.5409 -0.0603 0.6794
H17 H 0.5671 0.0838 0.6892
C23 C 0.7580(8) -0.0246(5) 0.70853(16)
H18 H 0.7330 -0.0559 0.7356
C24 C 0.9118(7) -0.0111(5) 0.69807(15)
H19 H 0.9899 -0.0370 0.7180
C25 C 1.2156(7) 0.0876(6) 0.51783(19)
H20 H 1.1481 0.0879 0.4926
H21 H 1.2609 0.0047 0.5219
H22 H 1.3031 0.1476 0.5145
C26 C 1.1098(6) 0.1419(5) 0.66691(16)
H23 H 1.1992 0.0980 0.6811
H24 H 1.1522 0.1748 0.6401
C27 C 1.0595(8) 0.2543(5) 0.69510(19)
H25 H 0.9946 0.3122 0.6785
H26 H 1.1560 0.2966 0.7054
H27 H 0.9964 0.2245 0.7190
C28 C 1.1639(8) -0.2212(6) 0.67338(17)
C29 C 1.0900(8) -0.1614(5) 0.55532(16)
C30 C 1.1114(8) -0.2563(6) 0.48618(18)
H28 H 1.0511 -0.2586 0.4598
H29 H 1.1285 -0.3409 0.4963
H30 H 1.2156 -0.2163 0.4815
loop_
_geom_bond_atom_site_label_1
_geom_bond_atom_site_label_2
_geom_bond_site_symmetry_1
_geom_bond_site_symmetry_2
C1 D1 1_555 1_555
C2 C1 1_555 1_555
D2 C2 1_555 1_555
C3 C2 1_555 1_555
D3 C3 1_555 1_555
C4 C3 1_555 1_555
D4 C4 1_555 1_555
C5 C4 1_555 1_555
D5 C5 1_555 1_555
C6 C1 1_555 1_555
D6 C6 1_555 1_555
O1 H1 1_555 1_555
O2 C18 1_555 1_555
O3 C28 1_555 1_555
C7 H2 1_555 1_555
H3 C7 1_555 1_555
H4 C7 1_555 1_555
O4 C29 1_555 1_555
O5 C29 1_555 1_555
N1 C8 1_555 1_555
N2 C16 1_555 1_555
C8 C9 1_555 1_555
C9 C10 1_555 1_555
C10 H5 1_555 1_555
C11 C10 1_555 1_555
H6 C11 1_555 1_555
C12 C11 1_555 1_555
H7 C12 1_555 1_555
C13 C8 1_555 1_555
H8 C13 1_555 1_555
C14 N1 1_555 1_555
H9 C14 1_555 1_555
C15 C9 1_555 1_555
C16 C15 1_555 1_555
H10 C16 1_555 1_555
C17 C16 1_555 1_555
C18 C17 1_555 1_555
H11 C18 1_555 1_555
C19 O1 1_555 1_555
C20 C15 1_555 1_555
H12 C20 1_555 1_555
H13 C20 1_555 1_555
C21 N2 1_555 1_555
H14 C21 1_555 1_555
H15 C21 1_555 1_555
C22 N2 1_555 1_555
H16 C22 1_555 1_555
H17 C22 1_555 1_555
C23 C22 1_555 1_555
H18 C23 1_555 1_555
C24 C17 1_555 1_555
H19 C24 1_555 1_555
C25 N1 1_555 1_555
H20 C25 1_555 1_555
H21 C25 1_555 1_555
H22 C25 1_555 1_555
C26 C17 1_555 1_555
H23 C26 1_555 1_555
H24 C26 1_555 1_555
C27 C26 1_555 1_555
H25 C27 1_555 1_555
H26 C27 1_555 1_555
H27 C27 1_555 1_555
C28 O2 1_555 1_555
C29 C19 1_555 1_555
C30 O5 1_555 1_555
H28 C30 1_555 1_555
H29 C30 1_555 1_555
H30 C30 1_555 1_555
C5 C6 1_555 1_555
C7 C28 1_555 1_555
C12 C13 1_555 1_555
C14 C15 1_555 1_555
C14 C19 1_555 1_555
C18 C19 1_555 1_555
C20 C21 1_555 1_555
C23 C24 1_555 1_555

#END
