
#######################################################################
#
#                 Cambridge Crystallographic Data Centre
#                                CCDC 
#
#######################################################################
#
# If this CIF has been generated from an entry in the Cambridge 
# Structural Database, then it will include bibliographic, chemical, 
# crystal, experimental, refinement or atomic coordinate data resulting 
# from the CCDC's data processing and validation procedures.
#
#######################################################################

data_VEDFES
_chemical_formula_moiety         'C25 H28 N2 O7,C1 H2 Cl2'
_chemical_name_systematic        
'methyl 3a-ethyl-3-hydroxy-5,5-dimethyl-7,14-dioxo-2,3,3a,13,14,15a-hexahydro-1H,5H,7H-[1,3]dioxino[5,4-a]indolizino[8,1-cd]carbazole-8(7bH)-carboxylate dichloromethane solvate'
_symmetry_cell_setting           orthorhombic
_symmetry_space_group_name_H-M   'P 21 21 21'
_symmetry_Int_Tables_number      19
_space_group_name_Hall           'P 2ac 2ab'
loop_
_symmetry_equiv_pos_site_id
_symmetry_equiv_pos_as_xyz
1 x,y,z
2 1/2+x,1/2-y,-z
3 -x,1/2+y,1/2-z
4 1/2-x,-y,1/2+z
_cell_length_a                   8.5455(8)
_cell_length_b                   16.8338(16)
_cell_length_c                   18.2703(18)
_cell_angle_alpha                90
_cell_angle_beta                 90
_cell_angle_gamma                90
_cell_volume                     2628.24
_exptl_crystal_colour            colorless
_exptl_crystal_description       prism
_cell_formula_units_Z            4
loop_
_atom_site_label
_atom_site_type_symbol
_atom_site_fract_x
_atom_site_fract_y
_atom_site_fract_z
Cl1 Cl 0.20408(7) 0.20621(4) 0.94293(3)
Cl2 Cl 0.52301(8) 0.17991(4) 0.88960(4)
C1 C 0.3502(3) 0.23579(12) 0.87930(11)
H1 H 0.3097 0.2290 0.8289
H2 H 0.3741 0.2928 0.8865
O1 O 0.37151(18) 0.73235(8) 0.10564(8)
O2 O 0.55458(15) 0.95393(7) 0.21513(7)
O3 O 0.4650(2) 0.69485(9) -0.00473(9)
O4 O 0.00378(15) 1.09072(9) 0.09998(9)
O5 O 0.72244(17) 1.08260(8) 0.17069(7)
H3 H 0.798(4) 1.0744(17) 0.1425(15)
O6 O 0.17951(17) 0.82064(9) 0.20691(7)
O7 O 0.40081(17) 0.85109(9) 0.26343(7)
N1 N 0.38529(18) 0.82270(9) 0.01727(8)
N2 N 0.26814(17) 1.07311(9) 0.09028(8)
C2 C 0.7154(2) 1.01995(12) -0.01812(10)
H4 H 0.6301 1.0237 -0.0538
H5 H 0.8062 0.9944 -0.0410
H6 H 0.7445 1.0734 -0.0017
C3 C 0.6616(2) 0.97063(11) 0.04760(9)
H7 H 0.7526 0.9614 0.0800
H8 H 0.6257 0.9182 0.0297
C4 C 0.5285(2) 1.00854(10) 0.09339(9)
C5 C 0.38253(19) 1.02812(10) 0.04661(9)
H9 H 0.4159 1.0616 0.0042
C6 C 0.28402(19) 0.95671(10) 0.01697(9)
C7 C 0.2961(2) 0.87979(9) 0.06469(9)
H10 H 0.1882 0.8583 0.0722
C8 C 0.4117(2) 0.74521(11) 0.03539(10)
C9 C 0.3932(4) 0.65261(13) 0.13253(13)
H11 H 0.3321 0.6156 0.1026
H12 H 0.3578 0.6495 0.1835
H13 H 0.5043 0.6385 0.1298
C10 C 0.6090(3) 0.90512(15) 0.33250(10)
H14 H 0.7145 0.9278 0.3304
H15 H 0.6094 0.8582 0.3643
H16 H 0.5362 0.9447 0.3521
C11 C 0.5580(2) 0.88144(12) 0.25663(10)
C12 C 0.4800(2) 0.94838(10) 0.15025(9)
C13 C 0.3696(2) 0.89273(10) 0.13846(9)
C14 C 0.3958(2) 0.85232(11) -0.05534(9)
C15 C 0.3373(2) 0.92954(10) -0.05779(9)
C16 C 0.1157(2) 0.99000(10) 0.01851(10)
H17 H 0.0858 1.0109 -0.0302
H18 H 0.0403 0.9481 0.0328
C17 C 0.1180(2) 1.05589(10) 0.07459(10)
C18 C 0.5861(2) 1.08866(11) 0.12752(9)
H19 H 0.6094 1.1259 0.0863
C19 C 0.4603(2) 1.12729(11) 0.17509(10)
H20 H 0.4335 1.0914 0.2162
H21 H 0.5010 1.1775 0.1959
C20 C 0.3144(2) 1.14433(11) 0.13021(10)
H22 H 0.2283 1.1612 0.1630
H23 H 0.3356 1.1880 0.0953
C21 C 0.3363(2) 0.97164(12) -0.12310(10)
H24 H 0.2948 1.0240 -0.1250
C22 C 0.3971(3) 0.93609(14) -0.18593(10)
H25 H 0.3980 0.9643 -0.2309
C23 C 0.4564(3) 0.85908(14) -0.18260(11)
H26 H 0.4973 0.8354 -0.2258
C24 C 0.4572(3) 0.81587(13) -0.11747(10)
H27 H 0.4982 0.7635 -0.1155
C25 C 0.3075(2) 0.85047(11) 0.20227(9)
C26 C 0.6656(2) 0.82167(13) 0.22042(11)
H28 H 0.6279 0.8103 0.1709
H29 H 0.6668 0.7725 0.2491
H30 H 0.7718 0.8435 0.2178
loop_
_geom_bond_atom_site_label_1
_geom_bond_atom_site_label_2
_geom_bond_site_symmetry_1
_geom_bond_site_symmetry_2
Cl1 C1 1_555 1_555
Cl2 C1 1_555 1_555
C1 H1 1_555 1_555
H2 C1 1_555 1_555
O1 C8 1_555 1_555
O2 C11 1_555 1_555
O3 C8 1_555 1_555
O4 C17 1_555 1_555
O5 H3 1_555 1_555
O6 C25 1_555 1_555
O7 C11 1_555 1_555
N1 C7 1_555 1_555
N2 C5 1_555 1_555
C2 H4 1_555 1_555
H5 C2 1_555 1_555
H6 C2 1_555 1_555
C3 C2 1_555 1_555
H7 C3 1_555 1_555
H8 C3 1_555 1_555
C4 C3 1_555 1_555
C5 C4 1_555 1_555
H9 C5 1_555 1_555
C6 C5 1_555 1_555
C7 C6 1_555 1_555
H10 C7 1_555 1_555
C8 N1 1_555 1_555
C9 O1 1_555 1_555
H11 C9 1_555 1_555
H12 C9 1_555 1_555
H13 C9 1_555 1_555
C10 H14 1_555 1_555
H15 C10 1_555 1_555
H16 C10 1_555 1_555
C11 C10 1_555 1_555
C12 O2 1_555 1_555
C13 C7 1_555 1_555
C14 N1 1_555 1_555
C15 C6 1_555 1_555
C16 C6 1_555 1_555
H17 C16 1_555 1_555
H18 C16 1_555 1_555
C17 N2 1_555 1_555
C18 O5 1_555 1_555
H19 C18 1_555 1_555
C19 C18 1_555 1_555
H20 C19 1_555 1_555
H21 C19 1_555 1_555
C20 N2 1_555 1_555
H22 C20 1_555 1_555
H23 C20 1_555 1_555
C21 C15 1_555 1_555
H24 C21 1_555 1_555
C22 C21 1_555 1_555
H25 C22 1_555 1_555
C23 C22 1_555 1_555
H26 C23 1_555 1_555
C24 C14 1_555 1_555
H27 C24 1_555 1_555
C25 O7 1_555 1_555
C26 C11 1_555 1_555
H28 C26 1_555 1_555
H29 C26 1_555 1_555
H30 C26 1_555 1_555
C4 C12 1_555 1_555
C4 C18 1_555 1_555
C12 C13 1_555 1_555
C13 C25 1_555 1_555
C14 C15 1_555 1_555
C16 C17 1_555 1_555
C19 C20 1_555 1_555
C23 C24 1_555 1_555

#END
