
#######################################################################
#
#                 Cambridge Crystallographic Data Centre
#                                CCDC 
#
#######################################################################
#
# If this CIF has been generated from an entry in the Cambridge 
# Structural Database, then it will include bibliographic, chemical, 
# crystal, experimental, refinement or atomic coordinate data resulting 
# from the CCDC's data processing and validation procedures.
#
#######################################################################

data_VEDGUI
_chemical_formula_moiety         'C31 H35 N3 O9,0.5(C4 H8 O1)'
_chemical_name_systematic        
'Methyl 3-isopropoxy-4-((3-isopropoxy-4-((3-isopropoxy-4-nitrobenzoyl)amino)benzoyl)amino)benzoate tetrahydrofuran solvate'
_symmetry_cell_setting           triclinic
_symmetry_space_group_name_H-M   'P -1'
_symmetry_Int_Tables_number      2
_space_group_name_Hall           '-P 1'
loop_
_symmetry_equiv_pos_site_id
_symmetry_equiv_pos_as_xyz
1 x,y,z
2 -x,-y,-z
_cell_length_a                   8.0564(5)
_cell_length_b                   14.5528(8)
_cell_length_c                   15.2944(8)
_cell_angle_alpha                61.687(2)
_cell_angle_beta                 87.605(2)
_cell_angle_gamma                88.859(2)
_cell_volume                     1577.27
_exptl_crystal_colour            colorless
_exptl_crystal_description       needle
_cell_formula_units_Z            2
loop_
_atom_site_label
_atom_site_type_symbol
_atom_site_fract_x
_atom_site_fract_y
_atom_site_fract_z
C1 C 0.6415(2) 0.09478(16) 0.57406(14)
C2 C 0.5739(2) 0.17444(16) 0.59069(14)
C3 C 0.5113(2) 0.26180(16) 0.50917(14)
H1 H 0.4646 0.3177 0.5175
C4 C 0.5170(2) 0.26742(16) 0.41528(14)
C5 C 0.5879(2) 0.18735(16) 0.40131(14)
H2 H 0.5951 0.1929 0.3368
C6 C 0.6484(3) 0.09901(17) 0.48204(15)
H3 H 0.6935 0.0426 0.4739
O1 O 0.6464(2) -0.08335(12) 0.67865(11)
N1 N 0.7081(2) 0.00113(14) 0.65877(12)
O2 O 0.8221(2) 0.01239(13) 0.70301(12)
O3 O 0.56721(17) 0.15524(11) 0.68691(9)
C7 C 0.5199(3) 0.23829(17) 0.70998(15)
H4 H 0.4175 0.2738 0.6742
C8 C 0.4828(3) 0.1836(2) 0.82096(16)
H5 H 0.3929 0.1331 0.8370
H6 H 0.4488 0.2353 0.8422
H7 H 0.5826 0.1472 0.8556
C9 C 0.6587(4) 0.3160(2) 0.67980(19)
H8 H 0.7566 0.2817 0.7181
H9 H 0.6239 0.3734 0.6928
H10 H 0.6861 0.3436 0.6088
O4 O 0.4238(2) 0.44411(12) 0.33852(10)
C10 C 0.4440(2) 0.36357(16) 0.33228(14)
N2 N 0.4017(2) 0.35386(13) 0.25175(11)
H11 H 0.4147 0.2914 0.2568
C11 C 0.3397(2) 0.43134(15) 0.16133(14)
C12 C 0.2910(2) 0.53064(16) 0.14405(14)
H12 H 0.2964 0.5497 0.1953
C13 C 0.2341(3) 0.60215(16) 0.05095(15)
H13 H 0.2021 0.6701 0.0392
C14 C 0.2236(2) 0.57579(16) -0.02454(14)
C15 C 0.2718(2) 0.47547(16) -0.00694(14)
H14 H 0.2653 0.4568 -0.0584
C16 C 0.3289(2) 0.40319(15) 0.08495(14)
O5 O 0.38178(18) 0.30402(11) 0.11044(9)
C17 C 0.3684(3) 0.26246(16) 0.04081(14)
H15 H 0.4100 0.3155 -0.0267
C18 C 0.1892(3) 0.23594(18) 0.03586(16)
H16 H 0.1475 0.1854 0.1024
H17 H 0.1826 0.2057 -0.0091
H18 H 0.1217 0.2995 0.0111
C19 C 0.4810(3) 0.16731(17) 0.07947(15)
H19 H 0.5928 0.1872 0.0872
H20 H 0.4862 0.1396 0.0322
H21 H 0.4366 0.1138 0.1440
O6 O 0.17318(19) 0.75104(11) -0.14683(10)
C20 C 0.1646(2) 0.65802(16) -0.12271(14)
N3 N 0.0996(2) 0.62253(13) -0.18177(11)
H22 H 0.0935 0.5543 -0.1565
C21 C 0.0405(2) 0.68178(16) -0.27902(14)
C22 C -0.0061(2) 0.78608(16) -0.32008(14)
H23 H -0.0001 0.8224 -0.2825
C23 C -0.0616(2) 0.83682(16) -0.41663(14)
H24 H -0.0918 0.9084 -0.4453
C24 C -0.0733(2) 0.78436(16) -0.47160(14)
C25 C -0.0304(2) 0.67890(16) -0.42964(14)
H25 H -0.0410 0.6424 -0.4667
C26 C 0.0276(2) 0.62728(15) -0.33403(14)
O7 O 0.07468(18) 0.52502(11) -0.28390(10)
C27 C 0.0643(3) 0.45763(16) -0.32931(15)
H26 H -0.0456 0.4672 -0.3606
C28 C 0.2031(3) 0.48102(18) -0.40676(16)
H27 H 0.1903 0.5522 -0.4611
H28 H 0.1984 0.4314 -0.4330
H29 H 0.3104 0.4746 -0.3764
C29 C 0.0767(3) 0.34812(17) -0.24366(16)
H30 H 0.1821 0.3402 -0.2110
H31 H 0.0719 0.2976 -0.2688
H32 H -0.0159 0.3356 -0.1957
O8 O -0.13509(18) 0.79486(11) -0.62830(10)
C30 C -0.1302(2) 0.83638(16) -0.57592(14)
O9 O -0.17615(17) 0.93636(11) -0.60612(9)
C31 C -0.2226(3) 0.99507(17) -0.70921(14)
H33 H -0.1261 1.0015 -0.7530
H34 H -0.2607 1.0648 -0.7227
H35 H -0.3121 0.9585 -0.7215
O10? O -0.0960(5) 1.1271(3) -0.0680(2)
C32? C -0.1275(8) 1.0597(4) 0.0359(4)
H36? H -0.1178 1.0987 0.0737
H37? H -0.2408 1.0299 0.0479
C33? C 0.0039(10) 0.9724(6) 0.0679(5)
H38? H -0.0481 0.9030 0.1079
H39? H 0.0895 0.9821 0.1075
C34? C 0.0800(9) 0.9836(6) -0.0306(5)
H40? H 0.1942 1.0120 -0.0429
H41? H 0.0825 0.9156 -0.0308
C35? C -0.0386(12) 1.0608(6) -0.1086(5)
H42? H -0.1325 1.0234 -0.1174
H43? H 0.0208 1.1016 -0.1735
loop_
_geom_bond_atom_site_label_1
_geom_bond_atom_site_label_2
_geom_bond_site_symmetry_1
_geom_bond_site_symmetry_2
C1 C2 1_555 1_555
C2 C3 1_555 1_555
C3 H1 1_555 1_555
C4 C3 1_555 1_555
C5 C4 1_555 1_555
H2 C5 1_555 1_555
C6 C1 1_555 1_555
H3 C6 1_555 1_555
O1 N1 1_555 1_555
N1 C1 1_555 1_555
O2 N1 1_555 1_555
O3 C2 1_555 1_555
C7 O3 1_555 1_555
H4 C7 1_555 1_555
C8 C7 1_555 1_555
H5 C8 1_555 1_555
H6 C8 1_555 1_555
H7 C8 1_555 1_555
C9 C7 1_555 1_555
H8 C9 1_555 1_555
H9 C9 1_555 1_555
H10 C9 1_555 1_555
O4 C10 1_555 1_555
C10 C4 1_555 1_555
N2 C10 1_555 1_555
H11 N2 1_555 1_555
C11 N2 1_555 1_555
C12 C11 1_555 1_555
H12 C12 1_555 1_555
C13 C12 1_555 1_555
H13 C13 1_555 1_555
C14 C13 1_555 1_555
C15 C14 1_555 1_555
H14 C15 1_555 1_555
C16 C11 1_555 1_555
O5 C16 1_555 1_555
C17 O5 1_555 1_555
H15 C17 1_555 1_555
C18 C17 1_555 1_555
H16 C18 1_555 1_555
H17 C18 1_555 1_555
H18 C18 1_555 1_555
C19 C17 1_555 1_555
H19 C19 1_555 1_555
H20 C19 1_555 1_555
H21 C19 1_555 1_555
O6 C20 1_555 1_555
C20 C14 1_555 1_555
N3 C20 1_555 1_555
H22 N3 1_555 1_555
C21 N3 1_555 1_555
C22 C21 1_555 1_555
H23 C22 1_555 1_555
C23 C22 1_555 1_555
H24 C23 1_555 1_555
C24 C23 1_555 1_555
C25 C24 1_555 1_555
H25 C25 1_555 1_555
C26 C21 1_555 1_555
O7 C26 1_555 1_555
C27 O7 1_555 1_555
H26 C27 1_555 1_555
C28 C27 1_555 1_555
H27 C28 1_555 1_555
H28 C28 1_555 1_555
H29 C28 1_555 1_555
C29 C27 1_555 1_555
H30 C29 1_555 1_555
H31 C29 1_555 1_555
H32 C29 1_555 1_555
O8 C30 1_555 1_555
C30 C24 1_555 1_555
O9 C30 1_555 1_555
C31 O9 1_555 1_555
H33 C31 1_555 1_555
H34 C31 1_555 1_555
H35 C31 1_555 1_555
C5 C6 1_555 1_555
C15 C16 1_555 1_555
C25 C26 1_555 1_555

#END
