
#######################################################################
#
#                 Cambridge Crystallographic Data Centre
#                                CCDC 
#
#######################################################################
#
# If this CIF has been generated from an entry in the Cambridge 
# Structural Database, then it will include bibliographic, chemical, 
# crystal, experimental, refinement or atomic coordinate data resulting 
# from the CCDC's data processing and validation procedures.
#
#######################################################################

data_VEDLOI
_chemical_name_common            'bis(N-imidazolyl)methane suberic acid'
_chemical_formula_moiety         'C7 H8 N4,C8 H14 O4'
_chemical_name_systematic        
"1,1'-methylenebis(1H-imidazole) octanedioic acid"
_symmetry_cell_setting           monoclinic
_symmetry_space_group_name_H-M   'P 21/c'
_symmetry_Int_Tables_number      14
_space_group_name_Hall           '-P 2ybc'
loop_
_symmetry_equiv_pos_site_id
_symmetry_equiv_pos_as_xyz
1 x,y,z
2 -x,1/2+y,1/2-z
3 -x,-y,-z
4 x,1/2-y,1/2+z
_cell_length_a                   15.2554(16)
_cell_length_b                   9.8853(11)
_cell_length_c                   11.8917(12)
_cell_angle_alpha                90
_cell_angle_beta                 107.639(3)
_cell_angle_gamma                90
_cell_volume                     1709
_exptl_crystal_colour            colorless
_exptl_crystal_description       block
_cell_formula_units_Z            4
loop_
_atom_site_label
_atom_site_type_symbol
_atom_site_fract_x
_atom_site_fract_y
_atom_site_fract_z
N1 N 0.61865(18) 0.2800(2) 0.18289(19)
N2 N 0.4976(2) 0.3009(3) 0.2447(2)
N3 N 0.69773(18) 0.3263(3) 0.0417(2)
N4 N 0.7755(2) 0.4352(3) -0.0587(2)
C1 C 0.5325(2) 0.2387(3) 0.1718(3)
H1 H 0.5014 0.1733 0.1183
C2 C 0.5648(3) 0.3872(4) 0.3058(3)
H2 H 0.5597 0.4458 0.3646
C3 C 0.6398(3) 0.3756(3) 0.2690(3)
H3 H 0.6947 0.4232 0.2969
C4 C 0.7795(2) 0.3472(3) 0.0253(3)
H4 H 0.8334 0.3042 0.0687
C5 C 0.6855(3) 0.4715(4) -0.0984(3)
H5 H 0.6612 0.5336 -0.1585
C6 C 0.6360(2) 0.4051(3) -0.0388(3)
H6 H 0.5731 0.4118 -0.0502
C7 C 0.6781(2) 0.2259(3) 0.1200(3)
H7 H 0.6490 0.1479 0.0743
H8 H 0.7353 0.1961 0.1762
O1 O 0.34707(16) 0.2411(2) 0.30157(18)
H9 H 0.3962 0.2598 0.2906
O2 O 0.38770(16) 0.4086(2) 0.43009(18)
O3 O -0.08560(19) 0.5048(2) 0.8608(2)
H10 H -0.1320 0.4785 0.8753
O4 O -0.10321(19) 0.3141(3) 0.7652(2)
C8 C 0.3336(2) 0.3220(3) 0.3828(3)
C9 C 0.2453(2) 0.2924(3) 0.4075(3)
H11 H 0.2453 0.1980 0.4299
H12 H 0.1951 0.3050 0.3353
C10 C 0.2265(2) 0.3781(3) 0.5033(2)
H13 H 0.2784 0.3709 0.5743
H14 H 0.2213 0.4720 0.4785
C11 C 0.1400(2) 0.3378(3) 0.5318(3)
H15 H 0.1446 0.2433 0.5547
H16 H 0.0879 0.3469 0.4611
C12 C 0.1220(2) 0.4212(3) 0.6295(2)
H17 H 0.1155 0.5154 0.6055
H18 H 0.1749 0.4144 0.6995
C13 C 0.0365(2) 0.3777(3) 0.6607(2)
H19 H -0.0168 0.3885 0.5918
H20 H 0.0418 0.2824 0.6813
C14 C 0.0215(2) 0.4573(3) 0.7619(2)
H21 H 0.0747 0.4453 0.8309
H22 H 0.0176 0.5526 0.7416
C15 C -0.0628(2) 0.4183(4) 0.7932(3)
loop_
_geom_bond_atom_site_label_1
_geom_bond_atom_site_label_2
_geom_bond_site_symmetry_1
_geom_bond_site_symmetry_2
N1 C1 1_555 1_555
N2 C1 1_555 1_555
N3 C4 1_555 1_555
N4 C4 1_555 1_555
C1 H1 1_555 1_555
C2 N2 1_555 1_555
H2 C2 1_555 1_555
C3 N1 1_555 1_555
H3 C3 1_555 1_555
C4 H4 1_555 1_555
C5 N4 1_555 1_555
H5 C5 1_555 1_555
C6 N3 1_555 1_555
H6 C6 1_555 1_555
C7 N1 1_555 1_555
H7 C7 1_555 1_555
H8 C7 1_555 1_555
O1 H9 1_555 1_555
O2 C8 1_555 1_555
O3 H10 1_555 1_555
O4 C15 1_555 1_555
C8 O1 1_555 1_555
C9 C8 1_555 1_555
H11 C9 1_555 1_555
H12 C9 1_555 1_555
C10 C9 1_555 1_555
H13 C10 1_555 1_555
H14 C10 1_555 1_555
C11 C10 1_555 1_555
H15 C11 1_555 1_555
H16 C11 1_555 1_555
C12 C11 1_555 1_555
H17 C12 1_555 1_555
H18 C12 1_555 1_555
C13 C12 1_555 1_555
H19 C13 1_555 1_555
H20 C13 1_555 1_555
C14 C13 1_555 1_555
H21 C14 1_555 1_555
H22 C14 1_555 1_555
C15 O3 1_555 1_555
N3 C7 1_555 1_555
C2 C3 1_555 1_555
C5 C6 1_555 1_555
C14 C15 1_555 1_555

#END
