
#######################################################################
#
#                 Cambridge Crystallographic Data Centre
#                                CCDC 
#
#######################################################################
#
# If this CIF has been generated from an entry in the Cambridge 
# Structural Database, then it will include bibliographic, chemical, 
# crystal, experimental, refinement or atomic coordinate data resulting 
# from the CCDC's data processing and validation procedures.
#
#######################################################################

data_VEDLUO
_chemical_formula_moiety         'C7 H10 N4 2+,2(C8 H4 N1 O6 1-),3(H2 O1)'
_chemical_name_systematic        
"1,1'-methylenebis(1H-imidazol-3-ium) 2-carboxy-6-nitrobenzoate trihydrate"
_symmetry_cell_setting           orthorhombic
_symmetry_space_group_name_H-M   'I b a 2'
_symmetry_Int_Tables_number      45
_space_group_name_Hall           'I 2 -2c'
loop_
_symmetry_equiv_pos_site_id
_symmetry_equiv_pos_as_xyz
1 x,y,z
2 -x,-y,z
3 1/2+x,1/2-y,z
4 1/2-x,1/2+y,z
5 1/2+x,1/2+y,1/2+z
6 1/2-x,1/2-y,1/2+z
7 x,-y,1/2+z
8 -x,y,1/2+z
_cell_length_a                   26.8432(19)
_cell_length_b                   29.487(3)
_cell_length_c                   13.5285(12)
_cell_angle_alpha                90
_cell_angle_beta                 90
_cell_angle_gamma                90
_cell_volume                     10708.2
_exptl_crystal_colour            colorless
_exptl_crystal_description       block
_cell_formula_units_Z            16
loop_
_atom_site_label
_atom_site_type_symbol
_atom_site_fract_x
_atom_site_fract_y
_atom_site_fract_z
N1 N 0.5320(3) 0.2538(3) 0.2087(6)
N2 N 0.6100(3) 0.2452(3) 0.1969(6)
H1 H 0.6413 0.2511 0.1909
N3 N 0.4589(3) 0.2696(3) 0.3102(6)
N4 N 0.4185(3) 0.2870(3) 0.4403(6)
H2 H 0.4051 0.3031 0.4861
C1 C 0.5758(3) 0.2753(4) 0.2062(7)
H3 H 0.5806 0.3064 0.2105
C2 C 0.5895(4) 0.2021(3) 0.1979(8)
H4 H 0.6065 0.1746 0.1962
C3 C 0.5407(4) 0.2082(4) 0.2018(8)
H5 H 0.5166 0.1855 0.2001
C4 C 0.4419(4) 0.3033(4) 0.3638(8)
H6 H 0.4460 0.3339 0.3494
C5 C 0.4183(3) 0.2412(3) 0.4374(8)
H7 H 0.4035 0.2216 0.4827
C6 C 0.4443(4) 0.2294(3) 0.3537(8)
H8 H 0.4508 0.2002 0.3310
C7 C 0.4828(3) 0.2746(3) 0.2123(8)
H9 H 0.4618 0.2608 0.1624
H10 H 0.4858 0.3066 0.1968
N5 N 0.3171(3) 0.2511(2) 0.2880(6)
N6 N 0.3542(3) 0.2276(3) 0.1552(6)
H11 H 0.3672 0.2098 0.1118
N7 N 0.2422(3) 0.2523(2) 0.3873(6)
N8 N 0.1661(3) 0.2327(3) 0.3972(6)
H12 H 0.1397 0.2163 0.4008
C8 C 0.3329(3) 0.2150(3) 0.2373(7)
H13 H 0.3292 0.1851 0.2577
C9 C 0.3524(3) 0.2737(3) 0.1503(8)
H14 H 0.3649 0.2916 0.0994
C10 C 0.3293(4) 0.2888(3) 0.2320(8)
H15 H 0.3228 0.3189 0.2480
C11 C 0.2112(4) 0.2173(3) 0.3910(7)
H16 H 0.2203 0.1869 0.3894
C12 C 0.1671(4) 0.2792(3) 0.3971(7)
H17 H 0.1395 0.2982 0.4004
C13 C 0.2143(4) 0.2924(3) 0.3915(7)
H18 H 0.2263 0.3220 0.3906
C14 C 0.2974(3) 0.2500(3) 0.3873(7)
H19 H 0.3107 0.2754 0.4246
H20 H 0.3080 0.2223 0.4196
N9 N 0.4304(4) 0.0839(4) -0.1284(8)
O1 O 0.4445(2) 0.0744(2) 0.3197(5)
H21 H 0.4444 0.0915 0.3675
O2 O 0.4331(3) 0.1386(2) 0.2403(6)
O3 O 0.3890(2) 0.1597(2) 0.0460(5)
O4 O 0.4723(2) 0.1653(2) 0.0415(5)
O5 O 0.4358(4) 0.1238(3) -0.1379(6)
O6 O 0.4187(4) 0.0592(3) -0.1949(7)
C15 C 0.4387(4) 0.0979(4) 0.2387(8)
C16 C 0.4325(4) 0.1434(3) 0.0463(8)
C17 C 0.4383(3) 0.0701(3) 0.1472(8)
C18 C 0.4351(3) 0.0920(3) 0.0560(8)
C19 C 0.4334(3) 0.0644(3) -0.0277(8)
C20 C 0.4350(3) 0.0174(4) -0.0239(8)
H22 H 0.4339 0.0001 -0.0813
C21 C 0.4384(3) -0.0030(3) 0.0681(9)
H23 H 0.4401 -0.0345 0.0725
C22 C 0.4391(3) 0.0225(3) 0.1529(8)
H24 H 0.4401 0.0083 0.2143
N10 N 0.1820(3) 0.0889(3) -0.1089(7)
O7 O 0.1920(2) 0.0723(2) 0.3365(5)
H25 H 0.1896 0.0881 0.3862
O8 O 0.1698(3) 0.1376(2) 0.2643(5)
O9 O 0.1388(2) 0.1638(2) 0.0617(5)
O10 O 0.2214(2) 0.1670(2) 0.0753(5)
O11 O 0.1876(4) 0.1292(3) -0.1168(6)
O12 O 0.1735(4) 0.0650(3) -0.1802(6)
C23 C 0.1813(3) 0.0968(3) 0.2576(8)
C24 C 0.1813(3) 0.1456(3) 0.0697(8)
C25 C 0.1844(3) 0.0711(3) 0.1637(8)
C26 C 0.1831(3) 0.0945(3) 0.0733(8)
C27 C 0.1833(3) 0.0669(3) -0.0103(9)
C28 C 0.1858(3) 0.0212(3) -0.0081(8)
H26 H 0.1862 0.0048 -0.0668
C29 C 0.1876(3) -0.0013(4) 0.0815(10)
H27 H 0.1894 -0.0328 0.0835
C30 C 0.1866(3) 0.0237(3) 0.1683(9)
H28 H 0.1874 0.0090 0.2292
N11 N 0.3084(3) 0.0889(3) 0.7226(8)
O13 O 0.3170(2) 0.0718(2) 0.2755(6)
H29 H 0.3147 0.0875 0.2257
O14 O 0.2918(3) 0.1349(2) 0.3500(5)
O15 O 0.2694(2) 0.1654(2) 0.5594(5)
O16 O 0.3506(2) 0.1645(2) 0.5254(5)
O17 O 0.3226(3) 0.1282(3) 0.7318(6)
O18 O 0.2927(4) 0.0671(3) 0.7927(7)
C31 C 0.3051(3) 0.0965(4) 0.3549(8)
C32 C 0.3101(3) 0.1460(3) 0.5416(7)
C33 C 0.3090(3) 0.0706(3) 0.4499(8)
C34 C 0.3094(3) 0.0932(4) 0.5392(8)
C35 C 0.3098(3) 0.0683(4) 0.6247(9)
C36 C 0.3109(3) 0.0203(3) 0.6241(8)
H30 H 0.3115 0.0037 0.6826
C37 C 0.3111(4) -0.0011(4) 0.5326(9)
H31 H 0.3114 -0.0327 0.5298
C38 C 0.3109(3) 0.0232(3) 0.4468(9)
H32 H 0.3121 0.0083 0.3863
N12 N 0.0709(3) 0.0906(3) 0.6822(8)
O19 O 0.0623(2) 0.0699(2) 0.2365(6)
H33 H 0.0585 0.0849 0.1861
O20 O 0.0363(2) 0.1332(2) 0.3095(5)
O21 O 0.1036(2) 0.16321(19) 0.4778(5)
O22 O 0.0233(2) 0.1660(2) 0.5208(5)
O23 O 0.0846(3) 0.1303(2) 0.6833(6)
O24 O 0.0612(3) 0.0692(3) 0.7563(7)
C39 C 0.0515(3) 0.0952(4) 0.3147(8)
C40 C 0.0626(3) 0.1456(3) 0.5000(7)
C41 C 0.0581(3) 0.0698(3) 0.4100(8)
C42 C 0.0616(3) 0.0933(3) 0.4980(9)
C43 C 0.0649(3) 0.0681(3) 0.5848(9)
C44 C 0.0648(3) 0.0203(3) 0.5851(9)
H34 H 0.0665 0.0041 0.6439
C45 C 0.0621(3) -0.0013(4) 0.4962(9)
H35 H 0.0620 -0.0328 0.4940
C46 C 0.0595(3) 0.0230(3) 0.4103(8)
H36 H 0.0587 0.0076 0.3504
O25 O 0.3059(2) 0.1136(2) 0.1095(5)
H37 H 0.3315 0.1279 0.0895
H38 H 0.2804 0.1298 0.0987
O26 O 0.0555(2) 0.1119(2) 0.0686(6)
H39 H 0.0818 0.1280 0.0663
H40 H 0.0308 0.1285 0.0535
O27 O 0.1875(2) 0.1132(2) 0.5096(5)
H41 H 0.2119 0.1302 0.5248
H42 H 0.1620 0.1298 0.5004
O28 O 0.5597(2) 0.1184(2) 0.9846(5)
H43 H 0.5344 0.1337 1.0028
H44 H 0.5858 0.1334 0.9984
O29 O 0.0582(2) 0.2537(2) 0.4444(6)
H45 H 0.0476 0.2764 0.4770
H46 H 0.0468 0.2297 0.4705
O30 O 0.7098(2) 0.24846(19) 0.1641(5)
H47 H 0.7143 0.2726 0.1311
H48 H 0.7167 0.2259 0.1275
loop_
_geom_bond_atom_site_label_1
_geom_bond_atom_site_label_2
_geom_bond_site_symmetry_1
_geom_bond_site_symmetry_2
N1 C1 1_555 1_555
N2 H1 1_555 1_555
N3 C4 1_555 1_555
N4 H2 1_555 1_555
C1 N2 1_555 1_555
H3 C1 1_555 1_555
C2 N2 1_555 1_555
H4 C2 1_555 1_555
C3 N1 1_555 1_555
H5 C3 1_555 1_555
C4 N4 1_555 1_555
H6 C4 1_555 1_555
C5 N4 1_555 1_555
H7 C5 1_555 1_555
C6 N3 1_555 1_555
H8 C6 1_555 1_555
C7 N1 1_555 1_555
H9 C7 1_555 1_555
H10 C7 1_555 1_555
N5 C8 1_555 1_555
N6 H11 1_555 1_555
N7 C11 1_555 1_555
N8 H12 1_555 1_555
C8 N6 1_555 1_555
H13 C8 1_555 1_555
C9 N6 1_555 1_555
H14 C9 1_555 1_555
C10 N5 1_555 1_555
H15 C10 1_555 1_555
C11 N8 1_555 1_555
H16 C11 1_555 1_555
C12 N8 1_555 1_555
H17 C12 1_555 1_555
C13 N7 1_555 1_555
H18 C13 1_555 1_555
C14 N5 1_555 1_555
H19 C14 1_555 1_555
H20 C14 1_555 1_555
N9 O5 1_555 1_555
O1 H21 1_555 1_555
O2 C15 1_555 1_555
O3 C16 1_555 1_555
O4 C16 1_555 1_555
O6 N9 1_555 1_555
C15 O1 1_555 1_555
C16 C18 1_555 1_555
C17 C15 1_555 1_555
C18 C17 1_555 1_555
C19 N9 1_555 1_555
C20 C19 1_555 1_555
H22 C20 1_555 1_555
C21 C20 1_555 1_555
H23 C21 1_555 1_555
C22 C17 1_555 1_555
H24 C22 1_555 1_555
N10 O11 1_555 1_555
O7 H25 1_555 1_555
O8 C23 1_555 1_555
O9 C24 1_555 1_555
O10 C24 1_555 1_555
O12 N10 1_555 1_555
C23 O7 1_555 1_555
C24 C26 1_555 1_555
C25 C23 1_555 1_555
C26 C25 1_555 1_555
C27 N10 1_555 1_555
C28 C27 1_555 1_555
H26 C28 1_555 1_555
C29 C28 1_555 1_555
H27 C29 1_555 1_555
C30 C25 1_555 1_555
H28 C30 1_555 1_555
N11 O17 1_555 1_555
O13 H29 1_555 1_555
O14 C31 1_555 1_555
O15 C32 1_555 1_555
O16 C32 1_555 1_555
O18 N11 1_555 1_555
C31 O13 1_555 1_555
C32 C34 1_555 1_555
C33 C31 1_555 1_555
C34 C33 1_555 1_555
C35 N11 1_555 1_555
C36 C35 1_555 1_555
H30 C36 1_555 1_555
C37 C36 1_555 1_555
H31 C37 1_555 1_555
C38 C33 1_555 1_555
H32 C38 1_555 1_555
N12 O23 1_555 1_555
O19 H33 1_555 1_555
O20 C39 1_555 1_555
O21 C40 1_555 1_555
O22 C40 1_555 1_555
O24 N12 1_555 1_555
C39 O19 1_555 1_555
C40 C42 1_555 1_555
C41 C39 1_555 1_555
C42 C41 1_555 1_555
C43 N12 1_555 1_555
C44 C43 1_555 1_555
H34 C44 1_555 1_555
C45 C44 1_555 1_555
H35 C45 1_555 1_555
C46 C41 1_555 1_555
H36 C46 1_555 1_555
O25 H37 1_555 1_555
H38 O25 1_555 1_555
O26 H39 1_555 1_555
H40 O26 1_555 1_555
O27 H41 1_555 1_555
H42 O27 1_555 1_555
O28 H43 1_555 1_555
H44 O28 1_555 1_555
O29 H45 1_555 1_555
H46 O29 1_555 1_555
O30 H47 1_555 1_555
H48 O30 1_555 1_555
N3 C7 1_555 1_555
C2 C3 1_555 1_555
C5 C6 1_555 1_555
N7 C14 1_555 1_555
C9 C10 1_555 1_555
C12 C13 1_555 1_555
C18 C19 1_555 1_555
C21 C22 1_555 1_555
C26 C27 1_555 1_555
C29 C30 1_555 1_555
C34 C35 1_555 1_555
C37 C38 1_555 1_555
C42 C43 1_555 1_555
C45 C46 1_555 1_555

#END
