
#######################################################################
#
#                 Cambridge Crystallographic Data Centre
#                                CCDC 
#
#######################################################################
#
# If this CIF has been generated from an entry in the Cambridge 
# Structural Database, then it will include bibliographic, chemical, 
# crystal, experimental, refinement or atomic coordinate data resulting 
# from the CCDC's data processing and validation procedures.
#
#######################################################################

data_VEDMID
_chemical_formula_moiety         'C17 H18 N4 2+,C8 H3 N1 O6 2-'
_chemical_name_systematic        
"1,1'-(propane-1,3-diyl)bis(1H-benzimidazol-3-ium) 3-nitrobenzene-1,2-dicarboxylate"
_symmetry_cell_setting           monoclinic
_symmetry_space_group_name_H-M   'P 21/n'
_symmetry_Int_Tables_number      14
_space_group_name_Hall           '-P 2yn'
loop_
_symmetry_equiv_pos_site_id
_symmetry_equiv_pos_as_xyz
1 x,y,z
2 1/2-x,1/2+y,1/2-z
3 -x,-y,-z
4 1/2+x,1/2-y,1/2+z
_cell_length_a                   16.7202(12)
_cell_length_b                   7.8516(6)
_cell_length_c                   18.2325(15)
_cell_angle_alpha                90
_cell_angle_beta                 111.912(2)
_cell_angle_gamma                90
_cell_volume                     2220.65
_exptl_crystal_colour            colorless
_exptl_crystal_description       block
_cell_formula_units_Z            4
loop_
_atom_site_label
_atom_site_type_symbol
_atom_site_fract_x
_atom_site_fract_y
_atom_site_fract_z
N1 N 0.72883(13) 0.4609(3) 0.38771(12)
N2 N 0.80908(14) 0.3413(3) 0.49963(13)
H1 H 0.8535 0.3018 0.5374
N3 N 0.66618(14) 0.4490(3) 0.09956(12)
N4 N 0.61599(14) 0.2966(3) -0.00759(13)
H2 H 0.5806 0.2395 -0.0464
C1 C 0.80893(17) 0.4169(4) 0.43494(16)
H3 H 0.8579 0.4370 0.4236
C2 C 0.72515(16) 0.3368(4) 0.49591(16)
C3 C 0.67314(17) 0.4105(4) 0.42453(15)
C4 C 0.58446(17) 0.4244(4) 0.40184(17)
H4 H 0.5501 0.4726 0.3538
C5 C 0.55035(19) 0.3630(5) 0.45437(19)
H5 H 0.4912 0.3703 0.4416
C6 C 0.6016(2) 0.2903(5) 0.5260(2)
H6 H 0.5757 0.2507 0.5599
C7 C 0.68926(19) 0.2753(4) 0.54826(18)
H7 H 0.7231 0.2261 0.5962
C8 C 0.59784(18) 0.3700(4) 0.04895(16)
H8 H 0.5440 0.3669 0.0530
C9 C 0.70230(17) 0.3268(4) 0.00593(16)
C10 C 0.73534(17) 0.4217(4) 0.07559(15)
C11 C 0.82140(18) 0.4688(4) 0.10959(18)
H9 H 0.8431 0.5305 0.1564
C12 C 0.8725(2) 0.4178(5) 0.0692(2)
H10 H 0.9307 0.4461 0.0895
C13 C 0.8400(2) 0.3255(5) -0.0009(2)
H11 H 0.8771 0.2948 -0.0259
C14 C 0.7547(2) 0.2779(4) -0.03439(18)
H12 H 0.7333 0.2166 -0.0814
C15 C 0.70527(18) 0.5557(4) 0.31301(15)
H13 H 0.7466 0.6466 0.3195
H14 H 0.6490 0.6073 0.3007
C16 C 0.70287(16) 0.4438(4) 0.24460(14)
H15 H 0.7604 0.4029 0.2532
H16 H 0.6661 0.3459 0.2408
C17 C 0.66848(18) 0.5455(4) 0.16901(15)
H17 H 0.6106 0.5839 0.1608
H18 H 0.7043 0.6455 0.1745
N5 N 0.34995(15) 0.3519(4) 0.25961(17)
O1 O 0.59188(12) 0.0873(3) 0.17280(13)
O2 O 0.51508(13) -0.1267(3) 0.10226(12)
O3 O 0.43436(11) 0.3344(3) 0.09188(11)
O4 O 0.50364(12) 0.4449(3) 0.21159(12)
O5 O 0.32760(15) 0.4540(3) 0.20482(15)
O6 O 0.34322(16) 0.3786(4) 0.32324(14)
C18 C 0.52873(16) -0.0082(4) 0.15178(16)
C19 C 0.46060(16) 0.3332(4) 0.16750(17)
C20 C 0.46410(16) 0.0142(4) 0.19174(15)
C21 C 0.43566(15) 0.1755(4) 0.20297(15)
C22 C 0.38398(16) 0.1857(4) 0.24761(16)
C23 C 0.36040(19) 0.0445(5) 0.28045(18)
H19 H 0.3276 0.0565 0.3116
C24 C 0.3865(2) -0.1142(5) 0.26595(19)
H20 H 0.3695 -0.2111 0.2856
C25 C 0.43822(18) -0.1290(4) 0.22209(17)
H21 H 0.4559 -0.2363 0.2128
loop_
_geom_bond_atom_site_label_1
_geom_bond_atom_site_label_2
_geom_bond_site_symmetry_1
_geom_bond_site_symmetry_2
N1 C1 1_555 1_555
N2 H1 1_555 1_555
N3 C8 1_555 1_555
N4 H2 1_555 1_555
C1 N2 1_555 1_555
H3 C1 1_555 1_555
C2 N2 1_555 1_555
C3 N1 1_555 1_555
C4 C3 1_555 1_555
H4 C4 1_555 1_555
C5 C4 1_555 1_555
H5 C5 1_555 1_555
C6 C5 1_555 1_555
H6 C6 1_555 1_555
C7 C2 1_555 1_555
H7 C7 1_555 1_555
C8 N4 1_555 1_555
H8 C8 1_555 1_555
C9 N4 1_555 1_555
C10 N3 1_555 1_555
C11 C10 1_555 1_555
H9 C11 1_555 1_555
C12 C11 1_555 1_555
H10 C12 1_555 1_555
C13 C12 1_555 1_555
H11 C13 1_555 1_555
C14 C9 1_555 1_555
H12 C14 1_555 1_555
C15 N1 1_555 1_555
H13 C15 1_555 1_555
H14 C15 1_555 1_555
C16 C15 1_555 1_555
H15 C16 1_555 1_555
H16 C16 1_555 1_555
C17 N3 1_555 1_555
H17 C17 1_555 1_555
H18 C17 1_555 1_555
N5 O5 1_555 1_555
O1 C18 1_555 1_555
O2 C18 1_555 1_555
O3 C19 1_555 1_555
O4 C19 1_555 1_555
O6 N5 1_555 1_555
C18 C20 1_555 1_555
C19 C21 1_555 1_555
C20 C21 1_555 1_555
C21 C22 1_555 1_555
C22 N5 1_555 1_555
C23 C22 1_555 1_555
H19 C23 1_555 1_555
C24 C23 1_555 1_555
H20 C24 1_555 1_555
C25 C20 1_555 1_555
H21 C25 1_555 1_555
C2 C3 1_555 1_555
C6 C7 1_555 1_555
C9 C10 1_555 1_555
C13 C14 1_555 1_555
C16 C17 1_555 1_555
C24 C25 1_555 1_555

#END
