
#######################################################################
#
#                 Cambridge Crystallographic Data Centre
#                                CCDC 
#
#######################################################################
#
# If this CIF has been generated from an entry in the Cambridge 
# Structural Database, then it will include bibliographic, chemical, 
# crystal, experimental, refinement or atomic coordinate data resulting 
# from the CCDC's data processing and validation procedures.
#
#######################################################################

data_VEDTUW
_chemical_formula_moiety         
'C40 H36 Cl4 N8,C4 H12 N1 1+,4.6(C1 H4 O1),Cl1 1-,0.4(C2 H3 N1)'
_chemical_name_systematic        
'tetramethylammonium 5,15-bis(5,6-dichloro-1H-benzimidazol-2-yl)-5,10,10,15,20,20-hexamethyl-5,10,15,20,22,24-hexahydroporphyrin chloride acetonitrile methanol solvate'
_symmetry_cell_setting           monoclinic
_symmetry_space_group_name_H-M   'P 21/c'
_symmetry_Int_Tables_number      14
_space_group_name_Hall           '-P 2ybc'
loop_
_symmetry_equiv_pos_site_id
_symmetry_equiv_pos_as_xyz
1 x,y,z
2 -x,1/2+y,1/2-z
3 -x,-y,-z
4 x,1/2-y,1/2+z
_cell_length_a                   11.3297(3)
_cell_length_b                   20.0087(4)
_cell_length_c                   24.2219(5)
_cell_angle_alpha                90
_cell_angle_beta                 101.342(3)
_cell_angle_gamma                90
_cell_volume                     5383.69
_exptl_crystal_colour            colorless
_exptl_crystal_description       block
_cell_formula_units_Z            4
loop_
_atom_site_label
_atom_site_type_symbol
_atom_site_fract_x
_atom_site_fract_y
_atom_site_fract_z
N9 N 0.6632(3) 0.56013(16) 0.76410(13)
C41 C 0.5881(5) 0.4994(2) 0.7583(2)
H37 H 0.6172 0.4693 0.7900
H38 H 0.5928 0.4768 0.7229
H39 H 0.5043 0.5118 0.7582
C42 C 0.6359(16) 0.5988(7) 0.7116(5)
H40 H 0.6654 0.5746 0.6818
H41 H 0.6755 0.6425 0.7174
H42 H 0.5487 0.6050 0.7005
C43 C 0.6432(12) 0.6084(6) 0.8081(5)
H43 H 0.7044 0.6436 0.8122
H44 H 0.6490 0.5849 0.8441
H45 H 0.5630 0.6284 0.7971
C44 C 0.7891(11) 0.5349(7) 0.7752(7)
H46 H 0.7980 0.5013 0.7469
H47 H 0.8078 0.5147 0.8128
H48 H 0.8444 0.5721 0.7734
O1 O 0.8793(6) 0.6994(3) 0.7664(3)
H49 H 0.9622 0.7614 0.8243
H50 H 1.0170 0.6875 0.8292
H51 H 0.8923 0.7022 0.8486
C45 C 0.9425(14) 0.7137(5) 0.8213(7)
O2 O 0.6230(6) 0.2186(4) 0.9698(3)
H52 H 0.6350 0.2450 0.9974
C46 C 0.7040(14) 0.2274(7) 0.9405(7)
H53 H 0.7314 0.2739 0.9441
H54 H 0.6704 0.2174 0.9009
H55 H 0.7722 0.1976 0.9541
O3 O 0.0801(8) 0.4593(4) 0.5561(4)
H56 H 0.0626 0.4802 0.5255
C47 C -0.0046(12) 0.4198(7) 0.5604(6)
H57 H 0.0239 0.3736 0.5601
H58 H -0.0716 0.4268 0.5286
H59 H -0.0318 0.4285 0.5958
Cl5 Cl 0.33912(8) 0.30264(4) 0.73916(4)
C48 C 0.0570(7) 0.4939(4) 0.8889(3)
H60 H 0.1338 0.5100 0.9108
H61 H 0.0002 0.4868 0.9141
H62 H 0.0241 0.5272 0.8603
O4 O 0.0746(5) 0.4362(4) 0.8637(2)
H63 H 0.1317 0.4407 0.8465
O5 O 0.6350(5) 0.2223(4) 0.5644(3)
H64 H 0.5944 0.2536 0.5745
C49 C 0.7397(7) 0.2199(4) 0.5976(3)
H65 H 0.7910 0.1878 0.5828
H66 H 0.7302 0.2058 0.6352
H67 H 0.7771 0.2642 0.5999
C1 C 0.4737(4) 0.40148(17) 0.89706(15)
Cl1 Cl 0.19534(13) 0.05990(5) 0.92187(5)
N1 N 0.3377(3) 0.44422(13) 0.80888(12)
H1 H 0.3320 0.4053 0.7917
C2 C 0.4038(3) 0.45594(17) 0.86198(15)
Cl2 Cl -0.02869(12) 0.15474(6) 0.91137(5)
N2 N 0.3268(3) 0.44576(14) 0.66880(12)
H2 H 0.3258 0.4068 0.6856
C3 C 0.3932(4) 0.52301(18) 0.87295(17)
H3 H 0.4306 0.5460 0.9061
Cl3 Cl -0.03182(12) 0.14586(6) 0.50328(6)
N3 N 0.5749(3) 0.34842(14) 0.68757(12)
H4 H 0.5114 0.3312 0.6982
C4 C 0.3159(4) 0.55141(18) 0.82544(17)
H5 H 0.2920 0.5970 0.8215
Cl4 Cl 0.20352(12) 0.05827(5) 0.52380(5)
N4 N 0.5842(3) 0.34671(13) 0.82786(12)
H6 H 0.5183 0.3318 0.8058
C5 C 0.2815(3) 0.50224(17) 0.78617(16)
N5 N 0.4357(3) 0.27869(14) 0.90648(13)
H7 H 0.5112 0.2657 0.9107
C6 C 0.1986(4) 0.50367(18) 0.72936(17)
N6 N 0.2746(3) 0.34512(14) 0.89333(13)
C7 C 0.2706(4) 0.50274(17) 0.68286(16)
N7 N 0.2586(3) 0.34412(15) 0.57127(13)
H8 H 0.2109 0.3789 0.5711
C8 C 0.2957(4) 0.55269(19) 0.64786(18)
H9 H 0.2699 0.5978 0.6479
N8 N 0.4259(3) 0.28231(16) 0.58176(13)
C9 C 0.3668(5) 0.5249(2) 0.61183(18)
H10 H 0.3971 0.5482 0.5834
C10 C 0.3845(4) 0.45813(18) 0.62508(15)
C11 C 0.4548(4) 0.40529(19) 0.60079(15)
C12 C 0.5711(4) 0.38747(19) 0.64008(15)
C13 C 0.6870(4) 0.4048(2) 0.63904(18)
H11 H 0.7128 0.4317 0.6113
C14 C 0.7628(4) 0.3754(2) 0.68694(19)
H12 H 0.8479 0.3797 0.6969
C15 C 0.6917(4) 0.34025(18) 0.71588(16)
C16 C 0.7239(3) 0.29822(17) 0.76873(16)
C17 C 0.6985(3) 0.33708(16) 0.81882(15)
C18 C 0.7762(4) 0.36883(19) 0.86169(17)
H13 H 0.8612 0.3714 0.8662
C19 C 0.7047(4) 0.39717(19) 0.89814(17)
H14 H 0.7340 0.4215 0.9317
C20 C 0.5869(3) 0.38317(16) 0.87640(15)
C21 C 0.3926(4) 0.34112(17) 0.89749(14)
C22 C 0.2346(4) 0.28045(17) 0.90001(14)
C23 C 0.1203(4) 0.2558(2) 0.89980(16)
H15 H 0.0517 0.2841 0.8945
C24 C 0.1116(4) 0.1871(2) 0.90784(16)
C25 C 0.2124(4) 0.14574(18) 0.91442(15)
C26 C 0.3260(4) 0.17035(18) 0.91512(16)
H16 H 0.3944 0.1419 0.9204
C27 C 0.3361(4) 0.23917(17) 0.90773(14)
C28 C 0.5089(4) 0.4255(2) 0.95916(15)
H17 H 0.5606 0.4650 0.9611
H18 H 0.5523 0.3898 0.9824
H19 H 0.4359 0.4369 0.9732
C29 C 0.1103(4) 0.4440(2) 0.72257(18)
H20 H 0.1558 0.4020 0.7251
H21 H 0.0558 0.4467 0.6858
H22 H 0.0634 0.4454 0.7525
C30 C 0.1224(4) 0.5677(2) 0.7247(2)
H23 H 0.0779 0.5691 0.7555
H24 H 0.0654 0.5679 0.6886
H25 H 0.1752 0.6068 0.7270
C31 C 0.3784(4) 0.34347(18) 0.58572(15)
C32 C 0.3293(4) 0.24027(19) 0.56347(14)
C33 C 0.3255(4) 0.17179(19) 0.55346(16)
H26 H 0.3967 0.1455 0.5587
C34 C 0.2125(4) 0.14380(19) 0.53550(16)
C35 C 0.1076(4) 0.1822(2) 0.52808(16)
C36 C 0.1119(4) 0.2505(2) 0.53852(16)
H27 H 0.0405 0.2766 0.5335
C37 C 0.2243(4) 0.27892(19) 0.55658(15)
C38 C 0.4850(4) 0.4317(2) 0.54481(17)
H28 H 0.5400 0.4698 0.5528
H29 H 0.4107 0.4459 0.5195
H30 H 0.5234 0.3961 0.5268
C39 C 0.6521(4) 0.23282(18) 0.76204(16)
H31 H 0.6736 0.2064 0.7966
H32 H 0.6711 0.2073 0.7303
H33 H 0.5658 0.2429 0.7549
C40 C 0.8579(4) 0.2809(2) 0.77865(19)
H34 H 0.9053 0.3222 0.7828
H35 H 0.8745 0.2554 0.7465
H36 H 0.8796 0.2542 0.8130
H68? H 0.2302 0.3815 0.8875
H69? H 0.5026 0.2714 0.5893
C50? C 0.5884(11) 0.6156(5) 0.7372(7)
H70? H 0.5279 0.6268 0.7596
H71? H 0.5480 0.6023 0.6992
H72? H 0.6393 0.6547 0.7348
C51? C 0.7001(13) 0.5744(7) 0.8246(4)
H73? H 0.7326 0.5338 0.8444
H74? H 0.6302 0.5898 0.8393
H75? H 0.7620 0.6093 0.8302
C52? C 0.7673(10) 0.5514(7) 0.7385(6)
H76? H 0.8082 0.5944 0.7375
H77? H 0.7415 0.5346 0.7000
H78? H 0.8227 0.5193 0.7606
N10? N 0.9609(12) 0.6571(5) 0.8269(6)
C53? C 0.9553(12) 0.7866(5) 0.8336(5)
H79? H 0.9520 0.8057 0.7960
H80? H 1.0268 0.8034 0.8594
H81? H 0.8830 0.7996 0.8475
C54? C 0.962(2) 0.7122(6) 0.8304(11)
O6? O 0.6713(15) 0.2231(8) 0.9097(6)
H82? H 0.6161 0.1953 0.8990
C55? C 0.7366(12) 0.2033(7) 0.9557(5)
H83? H 0.7670 0.2421 0.9789
H84? H 0.8045 0.1774 0.9475
H85? H 0.6886 0.1752 0.9760
O7? O -0.0978(16) 0.3851(10) 0.5615(8)
H86? H -0.1153 0.3575 0.5847
C56? C -0.1863(18) 0.3904(11) 0.5195(8)
H87? H -0.2515 0.4158 0.5309
H88? H -0.2155 0.3458 0.5069
H89? H -0.1593 0.4137 0.4887
loop_
_geom_bond_atom_site_label_1
_geom_bond_atom_site_label_2
_geom_bond_site_symmetry_1
_geom_bond_site_symmetry_2
C1 C2 1_555 1_555
Cl1 C25 1_555 1_555
N1 H1 1_555 1_555
C2 N1 1_555 1_555
Cl2 C24 1_555 1_555
N2 H2 1_555 1_555
C3 C2 1_555 1_555
H3 C3 1_555 1_555
Cl3 C35 1_555 1_555
N3 H4 1_555 1_555
C4 C3 1_555 1_555
H5 C4 1_555 1_555
Cl4 C34 1_555 1_555
N4 H6 1_555 1_555
C5 N1 1_555 1_555
N5 H7 1_555 1_555
C6 C5 1_555 1_555
N6 C21 1_555 1_555
C7 N2 1_555 1_555
N7 H8 1_555 1_555
C8 C7 1_555 1_555
H9 C8 1_555 1_555
N8 C31 1_555 1_555
C9 C8 1_555 1_555
H10 C9 1_555 1_555
C10 N2 1_555 1_555
C11 C10 1_555 1_555
C12 N3 1_555 1_555
C13 C12 1_555 1_555
H11 C13 1_555 1_555
C14 C13 1_555 1_555
H12 C14 1_555 1_555
C15 N3 1_555 1_555
C16 C15 1_555 1_555
C17 N4 1_555 1_555
C18 C17 1_555 1_555
H13 C18 1_555 1_555
C19 C18 1_555 1_555
H14 C19 1_555 1_555
C20 C1 1_555 1_555
C21 C1 1_555 1_555
C22 N6 1_555 1_555
C23 C22 1_555 1_555
H15 C23 1_555 1_555
C24 C23 1_555 1_555
C25 C24 1_555 1_555
C26 C25 1_555 1_555
H16 C26 1_555 1_555
C27 N5 1_555 1_555
C28 C1 1_555 1_555
H17 C28 1_555 1_555
H18 C28 1_555 1_555
H19 C28 1_555 1_555
C29 C6 1_555 1_555
H20 C29 1_555 1_555
H21 C29 1_555 1_555
H22 C29 1_555 1_555
C30 C6 1_555 1_555
H23 C30 1_555 1_555
H24 C30 1_555 1_555
H25 C30 1_555 1_555
C31 N7 1_555 1_555
C32 N8 1_555 1_555
C33 C32 1_555 1_555
H26 C33 1_555 1_555
C34 C33 1_555 1_555
C35 C34 1_555 1_555
C36 C35 1_555 1_555
H27 C36 1_555 1_555
C37 N7 1_555 1_555
C38 C11 1_555 1_555
H28 C38 1_555 1_555
H29 C38 1_555 1_555
H30 C38 1_555 1_555
C39 C16 1_555 1_555
H31 C39 1_555 1_555
H32 C39 1_555 1_555
H33 C39 1_555 1_555
C40 C16 1_555 1_555
H34 C40 1_555 1_555
H35 C40 1_555 1_555
H36 C40 1_555 1_555
N9 C41 1_555 1_555
C41 H37 1_555 1_555
H38 C41 1_555 1_555
H39 C41 1_555 1_555
C42 N9 1_555 1_555
H40 C42 1_555 1_555
H41 C42 1_555 1_555
H42 C42 1_555 1_555
C43 N9 1_555 1_555
H43 C43 1_555 1_555
H44 C43 1_555 1_555
H45 C43 1_555 1_555
C44 N9 1_555 1_555
H46 C44 1_555 1_555
H47 C44 1_555 1_555
H48 C44 1_555 1_555
O1 C45 1_555 1_555
H49 C45 1_555 1_555
H50 C45 1_555 1_555
H51 C45 1_555 1_555
O2 H52 1_555 1_555
C46 O2 1_555 1_555
H53 C46 1_555 1_555
H54 C46 1_555 1_555
H55 C46 1_555 1_555
O3 H56 1_555 1_555
C47 O3 1_555 1_555
H57 C47 1_555 1_555
H58 C47 1_555 1_555
H59 C47 1_555 1_555
C48 H60 1_555 1_555
H61 C48 1_555 1_555
H62 C48 1_555 1_555
O4 C48 1_555 1_555
H63 O4 1_555 1_555
O5 H64 1_555 1_555
C49 O5 1_555 1_555
H65 C49 1_555 1_555
H66 C49 1_555 1_555
H67 C49 1_555 1_555
C4 C5 1_555 1_555
N4 C20 1_555 1_555
N5 C21 1_555 1_555
C6 C7 1_555 1_555
C9 C10 1_555 1_555
C11 C12 1_555 1_555
C11 C31 1_555 1_555
C14 C15 1_555 1_555
C16 C17 1_555 1_555
C19 C20 1_555 1_555
C22 C27 1_555 1_555
C26 C27 1_555 1_555
C32 C37 1_555 1_555
C36 C37 1_555 1_555

#END
