
#######################################################################
#
#                 Cambridge Crystallographic Data Centre
#                                CCDC 
#
#######################################################################
#
# If this CIF has been generated from an entry in the Cambridge 
# Structural Database, then it will include bibliographic, chemical, 
# crystal, experimental, refinement or atomic coordinate data resulting 
# from the CCDC's data processing and validation procedures.
#
#######################################################################

data_VEFCOA
_chemical_formula_moiety         'C33 H19 N1 O1'
_chemical_name_systematic        
5H-Spiro(dibenzo(c,h)acridine-7,9'-fluoren)-5-one
_symmetry_cell_setting           orthorhombic
_symmetry_space_group_name_H-M   'P 21 21 21'
_symmetry_Int_Tables_number      19
_space_group_name_Hall           'P 2ac 2ab'
loop_
_symmetry_equiv_pos_site_id
_symmetry_equiv_pos_as_xyz
1 x,y,z
2 1/2-x,-y,1/2+z
3 -x,1/2+y,1/2-z
4 1/2+x,1/2-y,-z
_cell_length_a                   11.260(2)
_cell_length_b                   12.060(2)
_cell_length_c                   16.530(3)
_cell_angle_alpha                90
_cell_angle_beta                 90
_cell_angle_gamma                90
_cell_volume                     2244.7
_cell_formula_units_Z            4
loop_
_atom_site_label
_atom_site_type_symbol
_atom_site_fract_x
_atom_site_fract_y
_atom_site_fract_z
N1 N 0.93786(13) 0.90195(12) 0.16319(9)
C1 C 0.92037(15) 0.79714(14) 0.17717(10)
C2 C 1.09031(15) 0.86264(14) 0.06157(11)
C3 C 1.01889(14) 0.93488(13) 0.10392(11)
C4 C 1.02245(16) 1.05191(13) 0.08672(11)
C5 C 1.09025(15) 0.74005(13) 0.08318(10)
C6 C 0.98605(16) 0.70902(15) 0.13679(10)
C7 C 1.16669(18) 0.90247(17) 0.00168(12)
H1 H 1.2154 0.8531 -0.0261
C8 C 1.1004(2) 1.20450(17) 0.00603(14)
H2 H 1.1499 1.2304 -0.0348
C9 C 1.0308(2) 1.27640(17) 0.04717(15)
H3 H 1.0325 1.3514 0.0340
C10 C 0.9571(2) 1.23958(15) 0.10879(13)
H4 H 0.9104 1.2902 0.1369
C11 C 0.95235(18) 1.12971(14) 0.12862(11)
H5 H 0.9025 1.1061 0.1701
C12 C 1.09829(18) 1.09002(15) 0.02471(12)
C13 C 1.17096(19) 1.01278(18) -0.01675(13)
H6 H 1.2222 1.0375 -0.0570
C14 C 0.82689(15) 0.76595(15) 0.23521(10)
C15 C 0.79883(16) 0.65412(14) 0.24697(10)
C16 C 0.7647(2) 0.84497(16) 0.27911(13)
H7 H 0.7805 0.9199 0.2715
C17 C 1.19789(16) 0.59684(14) 0.01351(11)
C18 C 0.86047(19) 0.56854(15) 0.20094(12)
C19 C 1.09683(16) 0.66332(14) 0.01001(11)
C20 C 1.26737(15) 0.62773(13) 0.08445(11)
C21 C 0.95647(19) 0.60241(16) 0.14899(13)
H8 H 1.0001 0.5478 0.1226
C22 C 1.25420(19) 0.75663(16) 0.19579(12)
H9 H 1.2142 0.8123 0.2236
C23 C 1.1359(2) 0.50470(18) -0.10616(13)
H10 H 1.1483 0.4511 -0.1457
O1 O 0.83022(17) 0.47122(12) 0.20367(11)
C24 C 0.71271(18) 0.62369(18) 0.30321(12)
H11 H 0.6950 0.5492 0.3112
C25 C 1.4236(2) 0.6362(2) 0.18123(14)
H12 H 1.4968 0.6118 0.2002
C26 C 1.01587(19) 0.65070(17) -0.05161(12)
H13 H 0.9481 0.6947 -0.0539
C27 C 1.21634(19) 0.51644(17) -0.04468(12)
H14 H 1.2828 0.4707 -0.0421
C28 C 1.3629(2) 0.7174(2) 0.22289(13)
H15 H 1.3955 0.7464 0.2701
C29 C 1.37687(17) 0.59136(16) 0.11214(13)
H16 H 1.4183 0.5369 0.0840
C30 C 1.20720(16) 0.71090(14) 0.12653(10)
C31 C 1.0375(2) 0.57116(19) -0.11000(13)
H17 H 0.9843 0.5626 -0.1526
C32 C 0.6794(2) 0.8125(2) 0.33406(15)
H18 H 0.6381 0.8661 0.3631
C33 C 0.6544(2) 0.7026(2) 0.34656(14)
H19 H 0.5977 0.6821 0.3846
loop_
_geom_bond_atom_site_label_1
_geom_bond_atom_site_label_2
_geom_bond_site_symmetry_1
_geom_bond_site_symmetry_2
N1 C1 1_555 1_555
C1 C6 1_555 1_555
C2 C3 1_555 1_555
C3 N1 1_555 1_555
C4 C3 1_555 1_555
C5 C2 1_555 1_555
C6 C5 1_555 1_555
C7 C2 1_555 1_555
H1 C7 1_555 1_555
C8 H2 1_555 1_555
C9 C8 1_555 1_555
H3 C9 1_555 1_555
C10 C9 1_555 1_555
H4 C10 1_555 1_555
C11 C4 1_555 1_555
H5 C11 1_555 1_555
C12 C4 1_555 1_555
C13 C7 1_555 1_555
H6 C13 1_555 1_555
C14 C1 1_555 1_555
C15 C14 1_555 1_555
C16 C14 1_555 1_555
H7 C16 1_555 1_555
C17 C19 1_555 1_555
C18 C15 1_555 1_555
C19 C5 1_555 1_555
C20 C17 1_555 1_555
C21 C6 1_555 1_555
H8 C21 1_555 1_555
C22 H9 1_555 1_555
C23 H10 1_555 1_555
O1 C18 1_555 1_555
C24 C15 1_555 1_555
H11 C24 1_555 1_555
C25 H12 1_555 1_555
C26 C19 1_555 1_555
H13 C26 1_555 1_555
C27 C17 1_555 1_555
H14 C27 1_555 1_555
C28 C22 1_555 1_555
H15 C28 1_555 1_555
C29 C20 1_555 1_555
H16 C29 1_555 1_555
C30 C5 1_555 1_555
C31 C23 1_555 1_555
H17 C31 1_555 1_555
C32 C16 1_555 1_555
H18 C32 1_555 1_555
C33 C24 1_555 1_555
H19 C33 1_555 1_555
C8 C12 1_555 1_555
C10 C11 1_555 1_555
C12 C13 1_555 1_555
C18 C21 1_555 1_555
C20 C30 1_555 1_555
C22 C30 1_555 1_555
C23 C27 1_555 1_555
C25 C28 1_555 1_555
C25 C29 1_555 1_555
C26 C31 1_555 1_555
C32 C33 1_555 1_555

#END
