
#######################################################################
#
#                 Cambridge Crystallographic Data Centre
#                                CCDC 
#
#######################################################################
#
# If this CIF has been generated from an entry in the Cambridge 
# Structural Database, then it will include bibliographic, chemical, 
# crystal, experimental, refinement or atomic coordinate data resulting 
# from the CCDC's data processing and validation procedures.
#
#######################################################################

data_VEFSAB
_chemical_formula_moiety         'C25 H31 N5 Si1,C1 H2 Cl2'
_chemical_name_systematic        
'2-(4-(Dimethylamino)phenyl)-3-(tri-isopropylsilyl)buta-1,3-diene-1,1,4,4-tetracarbonitrile dichloromethane solvate'
_symmetry_cell_setting           monoclinic
_symmetry_space_group_name_H-M   'P 21/n'
_symmetry_Int_Tables_number      14
_space_group_name_Hall           '-P 2yn'
loop_
_symmetry_equiv_pos_site_id
_symmetry_equiv_pos_as_xyz
1 x,y,z
2 1/2-x,1/2+y,1/2-z
3 -x,-y,-z
4 1/2+x,1/2-y,1/2+z
_cell_length_a                   13.2717(4)
_cell_length_b                   14.2125(4)
_cell_length_c                   15.8651(5)
_cell_angle_alpha                90
_cell_angle_beta                 110.061(1)
_cell_angle_gamma                90
_cell_volume                     2810.98
_exptl_crystal_colour            colorless
_cell_formula_units_Z            4
_exptl_crystal_recrystallization_method hexane/dichloromethane
loop_
_atom_site_label
_atom_site_type_symbol
_atom_site_fract_x
_atom_site_fract_y
_atom_site_fract_z
C1 C 0.8223(2) 0.6123(2) 0.7202(2)
C2 C 0.7603(3) 0.5679(2) 0.6366(2)
C3 C 0.7810(2) 0.4737(2) 0.6197(2)
H1 H 0.8361 0.4411 0.6636
C4 C 0.7246(3) 0.4279(2) 0.5426(2)
H2 H 0.7407 0.3647 0.5349
C5 C 0.6418(3) 0.4743(2) 0.4735(2)
C6 C 0.6211(3) 0.5689(3) 0.4892(2)
H3 H 0.5669 0.6020 0.4450
C7 C 0.6785(3) 0.6138(3) 0.5677(2)
H4 H 0.6628 0.6769 0.5757
N1 N 0.5865(2) 0.4297(2) 0.39623(19)
C8 C 0.5024(4) 0.4787(4) 0.3251(3)
H5 H 0.4501 0.5044 0.3491
H6 H 0.4673 0.4347 0.2773
H7 H 0.5342 0.5293 0.3018
C9 C 0.6109(4) 0.3326(3) 0.3809(3)
H8 H 0.6861 0.3273 0.3875
H9 H 0.5670 0.3136 0.3208
H10 H 0.5957 0.2922 0.4244
C10 C 0.7958(3) 0.6917(2) 0.7575(2)
C11 C 0.6979(3) 0.7434(2) 0.7228(2)
N2 N 0.6211(3) 0.7875(2) 0.7015(3)
C12 C 0.8667(3) 0.7293(2) 0.8410(3)
N3 N 0.9211(3) 0.7610(3) 0.9070(2)
C13 C 0.9271(2) 0.5674(2) 0.7749(2)
C14 C 0.9219(2) 0.5068(2) 0.8386(2)
C15 C 1.0129(3) 0.4583(2) 0.9009(2)
N4 N 1.0831(3) 0.4209(2) 0.9520(2)
C16 C 0.8202(3) 0.4839(2) 0.8487(2)
N5 N 0.7379(3) 0.4655(2) 0.8529(2)
Si1 Si 1.05418(7) 0.59877(7) 0.74560(6)
C17 C 1.1777(4) 0.6002(4) 0.8493(4)
C18 C 1.1631(4) 0.6564(3) 0.9308(3)
C19 C 1.2784(5) 0.6344(8) 0.8286(5)
C20 C 1.0641(5) 0.4937(5) 0.6675(4)
C21 C 1.0817(4) 0.4008(3) 0.7130(4)
C22 C 1.1453(7) 0.5125(7) 0.6183(7)
C23 C 1.0330(5) 0.6977(5) 0.6670(5)
H11 H 1.0981 0.7010 0.6500
C24 C 1.0312(8) 0.7961(6) 0.7199(6)
H12 H 1.0663 0.8448 0.6971
H13 H 1.0674 0.7894 0.7840
H14 H 0.9569 0.8135 0.7080
C25 C 0.9508(7) 0.7076(7) 0.5846(6)
H15 H 0.8864 0.7229 0.5975
H16 H 0.9388 0.6510 0.5484
H17 H 0.9683 0.7592 0.5520
C26 C 0.8452(6) 0.1115(7) 0.5280(5)
H18 H 0.8873 0.0536 0.5458
H19 H 0.7742 0.1006 0.5323
Cl1 Cl 0.91057(17) 0.19946(16) 0.60023(14)
Cl2 Cl 0.8331(3) 0.1368(3) 0.42510(18)
C27? C 1.1244(10) 0.6935(9) 0.8442(10)
C28? C 1.2219(15) 0.7392(15) 0.8236(14)
C29? C 1.1350(9) 0.4964(8) 0.7544(9)
C30? C 1.2229(13) 0.5157(12) 0.7098(14)
loop_
_geom_bond_atom_site_label_1
_geom_bond_atom_site_label_2
_geom_bond_site_symmetry_1
_geom_bond_site_symmetry_2
C1 C2 1_555 1_555
C2 C3 1_555 1_555
C3 H1 1_555 1_555
C4 C3 1_555 1_555
H2 C4 1_555 1_555
C5 C4 1_555 1_555
C6 C5 1_555 1_555
H3 C6 1_555 1_555
C7 C2 1_555 1_555
H4 C7 1_555 1_555
N1 C5 1_555 1_555
C8 N1 1_555 1_555
H5 C8 1_555 1_555
H6 C8 1_555 1_555
H7 C8 1_555 1_555
C9 N1 1_555 1_555
H8 C9 1_555 1_555
H9 C9 1_555 1_555
H10 C9 1_555 1_555
C10 C1 1_555 1_555
C11 C10 1_555 1_555
N2 C11 1_555 1_555
C12 C10 1_555 1_555
N3 C12 1_555 1_555
C13 C1 1_555 1_555
C14 C13 1_555 1_555
C15 C14 1_555 1_555
N4 C15 1_555 1_555
C16 C14 1_555 1_555
N5 C16 1_555 1_555
Si1 C13 1_555 1_555
C17 Si1 1_555 1_555
C18 C17 1_555 1_555
C19 C17 1_555 1_555
C20 Si1 1_555 1_555
C21 C20 1_555 1_555
C22 C20 1_555 1_555
C23 Si1 1_555 1_555
H11 C23 1_555 1_555
C24 C23 1_555 1_555
H12 C24 1_555 1_555
H13 C24 1_555 1_555
H14 C24 1_555 1_555
C25 C23 1_555 1_555
H15 C25 1_555 1_555
H16 C25 1_555 1_555
H17 C25 1_555 1_555
C26 H18 1_555 1_555
H19 C26 1_555 1_555
Cl1 C26 1_555 1_555
Cl2 C26 1_555 1_555
C6 C7 1_555 1_555

#END
