
#######################################################################
#
#                 Cambridge Crystallographic Data Centre
#                                CCDC 
#
#######################################################################
#
# If this CIF has been generated from an entry in the Cambridge 
# Structural Database, then it will include bibliographic, chemical, 
# crystal, experimental, refinement or atomic coordinate data resulting 
# from the CCDC's data processing and validation procedures.
#
#######################################################################

data_VEFZAI
_chemical_formula_moiety         'C45 H60 N6,0.67(C2 H6 O1)'
_chemical_name_systematic        
'3,6:13,16;23,26-trimethano-4,5:14,15:24,25-tris(tetramethylene)-3,6,13,16,23,26-hexaazatetracyclo[19.2.2.2^8,11^]hexatricosa-1(30),8,10,18,20,28,31,33,35-nonaene ethanol clathrate'
_symmetry_cell_setting           orthorhombic
_symmetry_space_group_name_H-M   'P 21 21 21'
_symmetry_Int_Tables_number      19
_space_group_name_Hall           'P 2ac 2ab'
loop_
_symmetry_equiv_pos_site_id
_symmetry_equiv_pos_as_xyz
1 x,y,z
2 1/2-x,-y,1/2+z
3 -x,1/2+y,1/2-z
4 1/2+x,1/2-y,-z
_cell_length_a                   9.288(2)
_cell_length_b                   18.162(4)
_cell_length_c                   25.796(5)
_cell_angle_alpha                90
_cell_angle_beta                 90
_cell_angle_gamma                90
_cell_volume                     4351.49
_exptl_crystal_colour            colorless
_exptl_crystal_description       plate
_cell_formula_units_Z            4
loop_
_atom_site_label
_atom_site_type_symbol
_atom_site_fract_x
_atom_site_fract_y
_atom_site_fract_z
N1 N -0.5611(4) -0.0344(2) -0.18724(14)
N2 N -0.7312(4) -0.10852(19) -0.23058(13)
C1 C -0.6879(4) -0.0470(3) -0.15500(16)
H1 H -0.7590 -0.0099 -0.1619
C2 C -0.7387(5) -0.1186(2) -0.17516(16)
H2 H -0.6698 -0.1555 -0.1656
C3 C -0.8842(5) -0.1387(3) -0.1509(2)
H3 H -0.9137 -0.1864 -0.1630
H4 H -0.9564 -0.1035 -0.1608
C4 C -0.8661(6) -0.1400(3) -0.0922(2)
H5 H -0.8034 -0.1798 -0.0827
H6 H -0.9583 -0.1489 -0.0766
C5 C -0.8029(6) -0.0686(3) -0.0706(2)
H7 H -0.7900 -0.0724 -0.0337
H8 H -0.8683 -0.0288 -0.0774
C6 C -0.6620(5) -0.0488(3) -0.09726(18)
H9 H -0.6229 -0.0028 -0.0857
H10 H -0.5946 -0.0873 -0.0893
C7 C -0.7185(6) -0.1771(3) -0.25957(17)
H11 H -0.7999 -0.2070 -0.2504
H12 H -0.6333 -0.2034 -0.2494
C8 C -0.7217(6) -0.1682(2) -0.31736(19)
C9 C -0.6399(5) -0.2113(3) -0.3498(2)
H13 H -0.5747 -0.2462 -0.3346
C10 C -0.6479(5) -0.2057(2) -0.40258(19)
H14 H -0.5872 -0.2368 -0.4233
C11 C -0.7370(5) -0.1563(2) -0.42611(18)
C12 C -0.8216(6) -0.1132(3) -0.3945(2)
H15 H -0.8870 -0.0783 -0.4095
C13 C -0.8138(7) -0.1182(3) -0.3412(2)
H16 H -0.8725 -0.0870 -0.3199
C14 C -0.7552(5) -0.1503(3) -0.48410(18)
H17 H -0.7766 -0.1000 -0.4926
H18 H -0.8360 -0.1797 -0.4946
C15 C -0.6080(6) -0.0601(3) -0.23879(18)
H19 H -0.5310 -0.0867 -0.2551
H20 H -0.6343 -0.0193 -0.2605
N3 N -0.6297(4) -0.1730(2) -0.51351(13)
N4 N -0.4503(4) -0.10890(19) -0.56019(13)
C16 C -0.6557(4) -0.1772(2) -0.56874(17)
H21 H -0.7099 -0.1347 -0.5792
C17 C -0.5064(4) -0.1707(2) -0.59089(16)
H22 H -0.4528 -0.2146 -0.5833
C18 C -0.5117(5) -0.1607(3) -0.64895(17)
H23 H -0.4164 -0.1544 -0.6626
H24 H -0.5670 -0.1174 -0.6567
C19 C -0.5881(6) -0.2265(3) -0.6725(2)
H25 H -0.5305 -0.2693 -0.6655
H26 H -0.5958 -0.2209 -0.7094
C20 C -0.7340(6) -0.2401(3) -0.6489(2)
H27 H -0.7782 -0.2830 -0.6638
H28 H -0.7922 -0.1983 -0.6578
C21 C -0.7297(6) -0.2449(3) -0.59010(19)
H29 H -0.8258 -0.2481 -0.5766
H30 H -0.6775 -0.2883 -0.5801
C22 C -0.2943(5) -0.1057(3) -0.5613(2)
H31 H -0.2619 -0.1070 -0.5966
H32 H -0.2583 -0.1489 -0.5441
C23 C -0.2297(5) -0.0405(3) -0.53452(17)
C24 C -0.2909(6) 0.0297(3) -0.5374(2)
H33 H -0.3801 0.0354 -0.5558
C25 C -0.2252(6) 0.0883(3) -0.5153(2)
H34 H -0.2697 0.1358 -0.5187
C26 C -0.0997(5) 0.0831(3) -0.48889(16)
C27 C -0.0384(5) 0.0134(3) -0.48613(18)
H35 H 0.0527 0.0083 -0.4689
C28 C -0.1042(5) -0.0469(3) -0.50785(18)
H36 H -0.0612 -0.0947 -0.5041
C29 C -0.0214(5) 0.1487(3) -0.46714(18)
H37 H -0.0895 0.1868 -0.4591
H38 H 0.0439 0.1674 -0.4928
C30 C -0.5081(5) -0.1211(3) -0.50860(17)
H39 H -0.4353 -0.1418 -0.4866
H40 H -0.5399 -0.0754 -0.4938
N5 N 0.0604(4) 0.1315(2) -0.42059(14)
N6 N 0.0446(4) 0.1403(2) -0.33035(14)
C31 C 0.1602(5) 0.1865(3) -0.40195(17)
H41 H 0.1118 0.2331 -0.3994
C32 C 0.1898(5) 0.1585(3) -0.34804(17)
H42 H 0.2469 0.1146 -0.3507
C33 C 0.2739(7) 0.2145(4) -0.3166(2)
H43 H 0.2894 0.1981 -0.2817
H44 H 0.2213 0.2600 -0.3161
C34 C 0.4155(7) 0.2281(5) -0.3450(2)
H45 H 0.4625 0.1812 -0.3478
H46 H 0.4782 0.2611 -0.3268
C35 C 0.3923(8) 0.2513(4) -0.4020(3)
H47 H 0.4807 0.2618 -0.4198
H48 H 0.3387 0.2964 -0.3991
C36 C 0.2987(6) 0.1958(4) -0.43128(19)
H49 H 0.2798 0.2132 -0.4658
H50 H 0.3484 0.1496 -0.4332
C37 C 0.0448(5) 0.0851(3) -0.28916(18)
H51 H 0.1103 0.1000 -0.2624
H52 H 0.0786 0.0392 -0.3032
C38 C -0.1010(5) 0.0719(3) -0.26544(16)
C39 C -0.1260(6) 0.0095(3) -0.23722(19)
H53 H -0.0515 -0.0270 -0.2345
C40 C -0.2588(6) -0.0026(3) -0.2123(2)
H54 H -0.2729 -0.0463 -0.1920
C41 C -0.3668(5) 0.0495(3) -0.21557(19)
C42 C -0.3409(5) 0.1110(3) -0.24465(18)
H55 H -0.4161 0.1471 -0.2478
C43 C -0.2108(5) 0.1229(3) -0.26923(17)
H56 H -0.1965 0.1673 -0.2888
C44 C -0.5065(6) 0.0396(3) -0.1872(2)
H57 H -0.4943 0.0553 -0.1519
H58 H -0.5773 0.0710 -0.2028
C45 C -0.0308(6) 0.1152(3) -0.37692(19)
H59 H -0.0526 0.0636 -0.3751
H60 H -0.1193 0.1420 -0.3803
O1 O -0.3287(9) -0.0501(5) -0.3706(3)
C46 C -0.4293(12) 0.0106(6) -0.3814(4)
C47 C -0.401(3) 0.0877(9) -0.4031(10)
C48? C -0.5851(15) 0.0076(12) -0.3928(8)
loop_
_geom_bond_atom_site_label_1
_geom_bond_atom_site_label_2
_geom_bond_site_symmetry_1
_geom_bond_site_symmetry_2
N1 C1 1_555 1_555
N2 C2 1_555 1_555
C1 H1 1_555 1_555
C2 C1 1_555 1_555
H2 C2 1_555 1_555
C3 C2 1_555 1_555
H3 C3 1_555 1_555
H4 C3 1_555 1_555
C4 C3 1_555 1_555
H5 C4 1_555 1_555
H6 C4 1_555 1_555
C5 C4 1_555 1_555
H7 C5 1_555 1_555
H8 C5 1_555 1_555
C6 C1 1_555 1_555
H9 C6 1_555 1_555
H10 C6 1_555 1_555
C7 N2 1_555 1_555
H11 C7 1_555 1_555
H12 C7 1_555 1_555
C8 C7 1_555 1_555
C9 C8 1_555 1_555
H13 C9 1_555 1_555
C10 C9 1_555 1_555
H14 C10 1_555 1_555
C11 C10 1_555 1_555
C12 C11 1_555 1_555
H15 C12 1_555 1_555
C13 C8 1_555 1_555
H16 C13 1_555 1_555
C14 C11 1_555 1_555
H17 C14 1_555 1_555
H18 C14 1_555 1_555
C15 N1 1_555 1_555
H19 C15 1_555 1_555
H20 C15 1_555 1_555
N3 C14 1_555 1_555
N4 C17 1_555 1_555
C16 N3 1_555 1_555
H21 C16 1_555 1_555
C17 C16 1_555 1_555
H22 C17 1_555 1_555
C18 C17 1_555 1_555
H23 C18 1_555 1_555
H24 C18 1_555 1_555
C19 C18 1_555 1_555
H25 C19 1_555 1_555
H26 C19 1_555 1_555
C20 C19 1_555 1_555
H27 C20 1_555 1_555
H28 C20 1_555 1_555
C21 C16 1_555 1_555
H29 C21 1_555 1_555
H30 C21 1_555 1_555
C22 N4 1_555 1_555
H31 C22 1_555 1_555
H32 C22 1_555 1_555
C23 C22 1_555 1_555
C24 C23 1_555 1_555
H33 C24 1_555 1_555
C25 C24 1_555 1_555
H34 C25 1_555 1_555
C26 C25 1_555 1_555
C27 C26 1_555 1_555
H35 C27 1_555 1_555
C28 C23 1_555 1_555
H36 C28 1_555 1_555
C29 C26 1_555 1_555
H37 C29 1_555 1_555
H38 C29 1_555 1_555
C30 N3 1_555 1_555
H39 C30 1_555 1_555
H40 C30 1_555 1_555
N5 C29 1_555 1_555
N6 C32 1_555 1_555
C31 N5 1_555 1_555
H41 C31 1_555 1_555
C32 C31 1_555 1_555
H42 C32 1_555 1_555
C33 C32 1_555 1_555
H43 C33 1_555 1_555
H44 C33 1_555 1_555
C34 C33 1_555 1_555
H45 C34 1_555 1_555
H46 C34 1_555 1_555
C35 C34 1_555 1_555
H47 C35 1_555 1_555
H48 C35 1_555 1_555
C36 C31 1_555 1_555
H49 C36 1_555 1_555
H50 C36 1_555 1_555
C37 N6 1_555 1_555
H51 C37 1_555 1_555
H52 C37 1_555 1_555
C38 C37 1_555 1_555
C39 C38 1_555 1_555
H53 C39 1_555 1_555
C40 C39 1_555 1_555
H54 C40 1_555 1_555
C41 C40 1_555 1_555
C42 C41 1_555 1_555
H55 C42 1_555 1_555
C43 C38 1_555 1_555
H56 C43 1_555 1_555
C44 N1 1_555 1_555
H57 C44 1_555 1_555
H58 C44 1_555 1_555
C45 N5 1_555 1_555
H59 C45 1_555 1_555
H60 C45 1_555 1_555
O1 C46 1_555 1_555
C46 C47 1_555 1_555
N2 C15 1_555 1_555
C5 C6 1_555 1_555
C12 C13 1_555 1_555
N4 C30 1_555 1_555
C20 C21 1_555 1_555
C27 C28 1_555 1_555
N6 C45 1_555 1_555
C35 C36 1_555 1_555
C41 C44 1_555 1_555
C42 C43 1_555 1_555

#END
