
#######################################################################
#
#                 Cambridge Crystallographic Data Centre
#                                CCDC 
#
#######################################################################
#
# If this CIF has been generated from an entry in the Cambridge 
# Structural Database, then it will include bibliographic, chemical, 
# crystal, experimental, refinement or atomic coordinate data resulting 
# from the CCDC's data processing and validation procedures.
#
#######################################################################

data_VEFZOW
_chemical_name_common            
"tris(N,N'-(p-phenylene)cyclohexane-1,2-diammonium) hexabromide hexakis(methanol) clathrate dibromide hydrate"
_chemical_formula_moiety         
'C42 H66 N6 6+,6(Br1 1-),6(C1 H4 O1),0.5(Br2),11.5(H2 O1)'
_chemical_name_systematic        
'3,10,17,24,31,38-hexaazoniaheptacyclo[38.2.2.2^12,15^.2^26,29^.0^4,9^.0^18,23^.0^32,37^] octatetraconta-1(42),12,14,26,28,40,43,45,47-nonaene hexabromide hexakis(methanol) clathrate dibromide hydrate'
_symmetry_cell_setting           trigonal
_symmetry_space_group_name_H-M   'P 3 2 1'
_symmetry_Int_Tables_number      150
_space_group_name_Hall           'P 3 2"'
loop_
_symmetry_equiv_pos_site_id
_symmetry_equiv_pos_as_xyz
1 x,y,z
2 -y,x-y,z
3 -x+y,-x,z
4 y,x,-z
5 x-y,-y,-z
6 -x,-x+y,-z
_cell_length_a                   22.478(3)
_cell_length_b                   22.478(3)
_cell_length_c                   7.4760(10)
_cell_angle_alpha                90
_cell_angle_beta                 90
_cell_angle_gamma                120
_cell_volume                     3271.26
_exptl_crystal_colour            colorless
_exptl_crystal_description       plate
_cell_formula_units_Z            2
_exptl_crystal_recrystallization_method methanol/water
loop_
_atom_site_label
_atom_site_type_symbol
_atom_site_fract_x
_atom_site_fract_y
_atom_site_fract_z
Br1 Br 0.28358(6) 0.89643(5) 0.77860(14)
Br2 Br 0.09633(7) 0.71584(6) -0.14585(16)
Br3 Br 0.3333 0.6667 0.4846(5)
Br4 Br 0.3333 0.6667 0.1617(6)
N1 N 0.2722(3) 0.8635(3) 0.3366(9)
H1 H 0.2753 0.8294 0.3227
H2 H 0.2703 0.8618 0.4448
N2 N 0.1379(4) 0.7326(4) 0.2869(9)
H3 H 0.1698 0.7335 0.2872
H4 H 0.1317 0.7270 0.1610
C1 C 0.2079(4) 0.8610(4) 0.2788(11)
H5 H 0.2065 0.8582 0.1506
C2 C 0.1440(4) 0.7989(4) 0.3506(10)
H6 H 0.1470 0.7961 0.4865
C3 C 0.0790(5) 0.7996(5) 0.3000(12)
H7 H 0.0407 0.7614 0.3569
H8 H 0.0723 0.7937 0.1730
C4 C 0.0819(5) 0.8666(5) 0.3580(13)
H9 H 0.0816 0.8697 0.4860
H10 H 0.0420 0.8666 0.3122
C5 C 0.1446(6) 0.9279(6) 0.2864(14)
H11 H 0.1472 0.9694 0.3287
H12 H 0.1411 0.9274 0.1584
C6 C 0.2097(5) 0.9281(4) 0.3334(12)
H13 H 0.2479 0.9662 0.2757
H14 H 0.2165 0.9343 0.4603
C7 C 0.3377(5) 0.9247(5) 0.2745(12)
H15 H 0.3450 0.9649 0.3386
H16 H 0.3326 0.9318 0.1501
C8 C 0.3997(4) 0.9163(4) 0.2941(11)
C9 C 0.4218(6) 0.9096(6) 0.4603(12)
H17 H 0.3941 0.9047 0.5630
C10 C 0.4383(5) 0.9237(5) 0.1517(13)
H18 H 0.4213 0.9255 0.0351
C11 C 0.0761(5) 0.6684(4) 0.3561(14)
H19 H 0.0361 0.6618 0.2926
H20 H 0.0699 0.6747 0.4803
C12 C 0.0829(4) 0.6061(5) 0.3338(13)
C13 C 0.5011(6) 0.9258(5) 0.1700(13)
H21 H 0.5305 0.9360 0.0678
C14 C 0.4826(6) 0.9090(5) 0.4804(12)
H22 H 0.4963 0.9022 0.5967
N1A N 0.1365(3) 0.4087(4) 0.3366(9)
N1B N 0.5913(4) 0.7278(3) 0.3366(9)
H1A H 0.1706 0.4459 0.3227
H1B H 0.5541 0.7247 0.3227
H2A H 0.1382 0.4085 0.4448
H2B H 0.5915 0.7297 0.4448
N2A N 0.2674(4) 0.4053(6) 0.2869(9)
N2B N 0.5947(6) 0.8621(4) 0.2869(9)
H3A H 0.2665 0.4363 0.2872
H3B H 0.5637 0.8302 0.2872
H4A H 0.2730 0.4047 0.1610
H4B H 0.5953 0.8683 0.1610
C1A C 0.1390(4) 0.3469(6) 0.2788(11)
C1B C 0.6531(6) 0.7921(4) 0.2788(11)
H5A H 0.1418 0.3483 0.1506
H5B H 0.6517 0.7935 0.1506
C2A C 0.2011(4) 0.3451(6) 0.3506(10)
C2B C 0.6549(6) 0.8560(4) 0.3506(10)
H6B H 0.6491 0.8530 0.4865
H6A H 0.2039 0.3509 0.4865
C3B C 0.7206(7) 0.9210(5) 0.3000(12)
C3A C 0.2004(5) 0.2794(7) 0.3000(12)
H7B H 0.7207 0.9593 0.3569
H7A H 0.2386 0.2793 0.3569
H8B H 0.7214 0.9277 0.1730
H8A H 0.2063 0.2786 0.1730
C4B C 0.7847(7) 0.9181(5) 0.3580(13)
C4A C 0.1334(5) 0.2153(7) 0.3580(13)
H9B H 0.7881 0.9184 0.4860
H9A H 0.1303 0.2119 0.4860
H10B H 0.8246 0.9580 0.3122
H10A H 0.1334 0.1754 0.3122
C5B C 0.7833(8) 0.8554(6) 0.2864(14)
C5A C 0.0721(6) 0.2167(8) 0.2864(14)
H11B H 0.8222 0.8528 0.3287
H11A H 0.0306 0.1778 0.3287
H12B H 0.7863 0.8589 0.1584
H12A H 0.0726 0.2137 0.1584
C6B C 0.7184(6) 0.7903(5) 0.3334(12)
C6A C 0.0719(4) 0.2816(6) 0.3334(12)
H13B H 0.7183 0.7521 0.2757
H13A H 0.0338 0.2817 0.2757
H14B H 0.7178 0.7835 0.4603
H14A H 0.0657 0.2822 0.4603
C7A C 0.0753(5) 0.4130(7) 0.2745(12)
C7B C 0.5870(7) 0.6623(5) 0.2745(12)
H15B H 0.6199 0.6550 0.3386
H15A H 0.0351 0.3801 0.3386
H16B H 0.5992 0.6674 0.1501
H16A H 0.0682 0.4008 0.1501
C8A C 0.0837(4) 0.4834(6) 0.2941(11)
C8B C 0.5166(6) 0.6003(4) 0.2941(11)
C9B C 0.4878(8) 0.5782(6) 0.4603(12)
C9A C 0.0904(6) 0.5122(8) 0.4603(12)
H17B H 0.5106 0.6059 0.5630
H17A H 0.0953 0.4894 0.5630
C10A C 0.0763(5) 0.5146(7) 0.1517(13)
C10B C 0.4854(7) 0.5617(5) 0.1517(13)
H18B H 0.5042 0.5787 0.0351
H18A H 0.0745 0.4958 0.0351
C11A C 0.3316(4) 0.4077(6) 0.3561(14)
C11B C 0.5923(6) 0.9239(5) 0.3561(14)
H19A H 0.3382 0.3743 0.2926
H19B H 0.6257 0.9639 0.2926
H20A H 0.3253 0.3952 0.4803
H20B H 0.6048 0.9301 0.4803
C12A C 0.3939(5) 0.4768(6) 0.3338(13)
C12B C 0.5232(6) 0.9171(4) 0.3338(13)
C13A C 0.0742(5) 0.5753(8) 0.1700(13)
C13B C 0.4247(8) 0.4989(6) 0.1700(13)
H21B H 0.4055 0.4695 0.0678
H21A H 0.0640 0.5945 0.0678
C14B C 0.4264(8) 0.5174(6) 0.4804(12)
C14A C 0.0910(5) 0.5736(8) 0.4804(12)
H22B H 0.4059 0.5037 0.5967
H22A H 0.0978 0.5941 0.5967
O1 O 0.0000 1.0000 0.3205(18)
O2 O 0.1187(3) 1.0612(4) 0.1106(9)
H23 H 0.1579 1.0839 0.1460
H24 H 0.1111 1.0859 0.0474
O3 O 0.2564(3) 1.1277(6) 0.1785(10)
H25 H 0.2895 1.1209 0.1722
H26 H 0.2688 1.1650 0.2050
O4 O 0.3395(8) 0.7844(8) -0.114(2)
H27 H 0.3883 0.7892 -0.1510
H28 H 0.2872 0.7688 -0.0763
O5 O 0.2247(7) 0.7344(6) 0.589(2)
H29 H 0.1924 0.7248 0.6714
C15 C 0.2511(6) 0.7261(7) 0.4169(18)
O6 O 0.2196(6) 0.6706(7) 0.764(2)
H30 H 0.2169 0.6902 0.8758
H31? H -0.0319 1.0118 0.2883
O7? O 0.2728(8) 0.7448(7) 0.2309(16)
O8? O 0.2742(7) 0.7804(7) 0.033(2)
H32? H 0.2718 0.7431 0.0979
loop_
_geom_bond_atom_site_label_1
_geom_bond_atom_site_label_2
_geom_bond_site_symmetry_1
_geom_bond_site_symmetry_2
Br3 Br4 1_555 1_555
N1 H1 1_555 1_555
H2 N1 1_555 1_555
N2 H3 1_555 1_555
H4 N2 1_555 1_555
C1 N1 1_555 1_555
H5 C1 1_555 1_555
C2 N2 1_555 1_555
H6 C2 1_555 1_555
C3 C2 1_555 1_555
H7 C3 1_555 1_555
H8 C3 1_555 1_555
C4 C3 1_555 1_555
H9 C4 1_555 1_555
H10 C4 1_555 1_555
C5 C4 1_555 1_555
H11 C5 1_555 1_555
H12 C5 1_555 1_555
C6 C1 1_555 1_555
H13 C6 1_555 1_555
H14 C6 1_555 1_555
C7 N1 1_555 1_555
H15 C7 1_555 1_555
H16 C7 1_555 1_555
C8 C7 1_555 1_555
C9 C8 1_555 1_555
H17 C9 1_555 1_555
C10 C8 1_555 1_555
H18 C10 1_555 1_555
C11 N2 1_555 1_555
H19 C11 1_555 1_555
H20 C11 1_555 1_555
C12 C11 1_555 1_555
C13 C10 1_555 1_555
H21 C13 1_555 1_555
C14 C9 1_555 1_555
H22 C14 1_555 1_555
O2 H23 1_555 1_555
H24 O2 1_555 1_555
O3 H25 1_555 1_555
H26 O3 1_555 1_555
O4 H27 1_555 1_555
H28 O4 1_555 1_555
O5 H29 1_555 1_555
C15 O5 1_555 1_555
O6 H30 1_555 1_555
N1A H1A 1_555 1_555
N1B H1B 1_555 1_555
H2A N1A 1_555 1_555
H2B N1B 1_555 1_555
N2A H3A 1_555 1_555
N2B H3B 1_555 1_555
H4A N2A 1_555 1_555
H4B N2B 1_555 1_555
C1A N1A 1_555 1_555
C1B N1B 1_555 1_555
H5A C1A 1_555 1_555
H5B C1B 1_555 1_555
C2A N2A 1_555 1_555
C2B N2B 1_555 1_555
H6B C2B 1_555 1_555
H6A C2A 1_555 1_555
C3B C2B 1_555 1_555
C3A C2A 1_555 1_555
H7B C3B 1_555 1_555
H7A C3A 1_555 1_555
H8B C3B 1_555 1_555
H8A C3A 1_555 1_555
C4B C3B 1_555 1_555
C4A C3A 1_555 1_555
H9B C4B 1_555 1_555
H9A C4A 1_555 1_555
H10B C4B 1_555 1_555
H10A C4A 1_555 1_555
C5B C4B 1_555 1_555
C5A C4A 1_555 1_555
H11B C5B 1_555 1_555
H11A C5A 1_555 1_555
H12B C5B 1_555 1_555
H12A C5A 1_555 1_555
C6B C1B 1_555 1_555
C6A C1A 1_555 1_555
H13B C6B 1_555 1_555
H13A C6A 1_555 1_555
H14B C6B 1_555 1_555
H14A C6A 1_555 1_555
C7A N1A 1_555 1_555
C7B N1B 1_555 1_555
H15B C7B 1_555 1_555
H15A C7A 1_555 1_555
H16B C7B 1_555 1_555
H16A C7A 1_555 1_555
C8A C7A 1_555 1_555
C8B C7B 1_555 1_555
C9B C8B 1_555 1_555
C9A C8A 1_555 1_555
H17B C9B 1_555 1_555
H17A C9A 1_555 1_555
C10A C8A 1_555 1_555
C10B C8B 1_555 1_555
H18B C10B 1_555 1_555
H18A C10A 1_555 1_555
C11A N2A 1_555 1_555
C11B N2B 1_555 1_555
H19A C11A 1_555 1_555
H19B C11B 1_555 1_555
H20A C11A 1_555 1_555
H20B C11B 1_555 1_555
C12A C11A 1_555 1_555
C12B C13 1_555 1_555
C13A C12 1_555 1_555
C13B C10B 1_555 1_555
H21B C13B 1_555 1_555
H21A C13A 1_555 1_555
C14B C9B 1_555 1_555
C14A C12 1_555 1_555
H22B C14B 1_555 1_555
H22A C14A 1_555 1_555
C1 C2 1_555 1_555
C5 C6 1_555 1_555
C14 C12B 1_555 1_555
C1A C2A 1_555 1_555
C1B C2B 1_555 1_555
C5B C6B 1_555 1_555
C5A C6A 1_555 1_555
C9A C14A 1_555 1_555
C10A C13A 1_555 1_555
C11B C12B 1_555 1_555
C12A C13B 1_555 1_555
C12A C14B 1_555 1_555

#END
