
#######################################################################
#
#                 Cambridge Crystallographic Data Centre
#                                CCDC 
#
#######################################################################
#
# If this CIF has been generated from an entry in the Cambridge 
# Structural Database, then it will include bibliographic, chemical, 
# crystal, experimental, refinement or atomic coordinate data resulting 
# from the CCDC's data processing and validation procedures.
#
#######################################################################

data_VEGFAO
_chemical_formula_moiety         'C45 H63 Li3 N6 O3'
_chemical_name_systematic        
tris(\m~2~-(2,6-bis(N-Isopropylformimidoyl)-4-methylphenolato-O,O,N,N')-lithium)
_symmetry_cell_setting           monoclinic
_symmetry_space_group_name_H-M   'P 21/c'
_symmetry_Int_Tables_number      14
_space_group_name_Hall           '-P 2ybc'
loop_
_symmetry_equiv_pos_site_id
_symmetry_equiv_pos_as_xyz
1 x,y,z
2 -x,1/2+y,1/2-z
3 -x,-y,-z
4 x,1/2-y,1/2+z
_cell_length_a                   16.867(1)
_cell_length_b                   11.987(2)
_cell_length_c                   24.026(2)
_cell_angle_alpha                90
_cell_angle_beta                 92.37(1)
_cell_angle_gamma                90
_cell_volume                     4853.54
_cell_formula_units_Z            4
loop_
_atom_site_label
_atom_site_type_symbol
_atom_site_fract_x
_atom_site_fract_y
_atom_site_fract_z
Li1 Li 0.8451(14) -0.0615(22) 0.3410(10)
Li2 Li 0.6571(14) -0.0706(22) 0.3359(11)
Li3 Li 0.7547(14) -0.2494(22) 0.4126(10)
O1 O 0.7484(5) -0.0050(7) 0.3115(3)
O2 O 0.6584(5) -0.1912(7) 0.3874(14)
O3 O 0.8489(5) -0.1848(8) 0.3894(4)
N1 N 0.8907(6) -0.0596(10) 0.2597(5)
N2 N 0.6086(6) 0.0861(9) 0.3547(4)
N3 N 0.5798(6) -0.1669(9) 0.2817(4)
N4 N 0.7173(6) -0.2424(10) 0.4966(4)
N5 N 0.7994(6) -0.4082(9) 0.3876(4)
N6 N 0.9190(6) 0.0238(10) 0.3964(5)
C1 C 0.7472(7) 0.0791(11) 0.2784(6)
C2 C 0.6891(7) 0.1676(11) 0.2814(5)
C3 C 0.6895(7) 0.2588(12) 0.2450(6)
C4 C 0.7418(8) 0.2666(12) 0.2041(6)
C5 C 0.7962(8) 0.1839(12) 0.1974(6)
C6 C 0.8023(7) 0.0933(12) 0.2354(6)
C7 C 0.8632(8) 0.0108(13) 0.2249(6)
C8 C 0.6323(7) 0.1666(12) 0.3243(6)
C9 C 0.5500(8) 0.1067(11) 0.3970(6)
C10 C 0.5890(10) 0.0811(15) 0.4527(7)
C11 C 0.4760(9) 0.0431(14) 0.3848(8)
C12 C 0.9525(10) -0.1369(14) 0.2403(8)
C13 C 0.9269(12) -0.2545(17) 0.2503(8)
C14 C 1.0297(11) -0.1095(17) 0.2691(9)
C15 C 0.7376(10) 0.3640(15) 0.1635(7)
C16 C 0.5928(7) -0.2395(12) 0.4038(6)
C17 C 0.5828(7) -0.2748(12) 0.4589(6)
C18 C 0.5095(8) -0.3237(13) 0.4732(6)
C19 C 0.4517(8) -0.3403(12) 0.4326(6)
C20 C 0.4600(8) -0.3115(12) 0.3807(6)
C21 C 0.5303(7) -0.2567(12) 0.3634(5)
C22 C 0.5328(8) -0.2349(12) 0.3059(6)
C23 C 0.6427(7) -0.2580(12) 0.5019(6)
C24 C 0.7662(9) -0.2228(14) 0.5463(6)
C25 C 0.8285(13) -0.3076(18) 0.5504(8)
C26 C 0.8030(11) -0.1114(16) 0.5447(8)
C27 C 0.5765(10) -0.1603(14) 0.2219(8)
C28 C 0.6541(11) -0.1823(16) 0.1994(7)
C29 C 0.5473(12) -0.0500(16) 0.2052(8)
C30 C 0.3741(10) -0.3944(16) 0.4513(7)
C31 C 0.9190(8) -0.2222(12) 0.4064(6)
C32 C 0.9841(8) -0.1531(12) 0.4211(6)
C33 C 1.0587(8) -0.1986(13) 0.4392(6)
C34 C 1.0680(8) -0.3120(13) 0.4384(6)
C35 C 1.0092(8) -0.3820(13) 0.4224(6)
C36 C 0.9339(8) -0.3442(12) 0.4079(6)
C37 C 0.8739(8) -0.4308(13) 0.3899(6)
C38 C 0.9726(8) -0.0321(12) 0.4228(6)
C39 C 0.9136(10) 0.1442(13) 0.4099(7)
C40 C 0.9407(14) 0.2047(16) 0.3646(9)
C41 C 0.8306(9) 0.1722(13) 0.4215(7)
C42 C 0.7484(9) -0.4973(12) 0.3640(7)
C43 C 0.7106(10) -0.4509(14) 0.3110(8)
C44 C 0.6874(10) -0.5336(14) 0.4002(8)
C45 C 1.1508(10) -0.3548(15) 0.4565(8)
loop_
_geom_bond_atom_site_label_1
_geom_bond_atom_site_label_2
_geom_bond_site_symmetry_1
_geom_bond_site_symmetry_2
Li1 O1 1_555 1_555
Li2 O1 1_555 1_555
Li3 O2 1_555 1_555
O1 C1 1_555 1_555
O2 Li2 1_555 1_555
O3 Li1 1_555 1_555
N1 Li1 1_555 1_555
N2 Li2 1_555 1_555
N3 Li2 1_555 1_555
N4 Li3 1_555 1_555
N5 Li3 1_555 1_555
N6 Li1 1_555 1_555
C1 C2 1_555 1_555
C2 C3 1_555 1_555
C3 C4 1_555 1_555
C4 C5 1_555 1_555
C5 C6 1_555 1_555
C6 C1 1_555 1_555
C7 N1 1_555 1_555
C8 N2 1_555 1_555
C9 N2 1_555 1_555
C10 C9 1_555 1_555
C11 C9 1_555 1_555
C12 N1 1_555 1_555
C13 C12 1_555 1_555
C14 C12 1_555 1_555
C15 C4 1_555 1_555
C16 O2 1_555 1_555
C17 C16 1_555 1_555
C18 C17 1_555 1_555
C19 C18 1_555 1_555
C20 C19 1_555 1_555
C21 C16 1_555 1_555
C22 N3 1_555 1_555
C23 N4 1_555 1_555
C24 N4 1_555 1_555
C25 C24 1_555 1_555
C26 C24 1_555 1_555
C27 N3 1_555 1_555
C28 C27 1_555 1_555
C29 C27 1_555 1_555
C30 C19 1_555 1_555
C31 O3 1_555 1_555
C32 C31 1_555 1_555
C33 C32 1_555 1_555
C34 C33 1_555 1_555
C35 C34 1_555 1_555
C36 C31 1_555 1_555
C37 N5 1_555 1_555
C38 N6 1_555 1_555
C39 N6 1_555 1_555
C40 C39 1_555 1_555
C41 C39 1_555 1_555
C42 N5 1_555 1_555
C43 C42 1_555 1_555
C44 C42 1_555 1_555
C45 C34 1_555 1_555
Li3 O3 1_555 1_555
C2 C8 1_555 1_555
C6 C7 1_555 1_555
C17 C23 1_555 1_555
C20 C21 1_555 1_555
C21 C22 1_555 1_555
C32 C38 1_555 1_555
C35 C36 1_555 1_555
C36 C37 1_555 1_555

#END
