
#######################################################################
#
#                 Cambridge Crystallographic Data Centre
#                                CCDC 
#
#######################################################################
#
# If this CIF has been generated from an entry in the Cambridge 
# Structural Database, then it will include bibliographic, chemical, 
# crystal, experimental, refinement or atomic coordinate data resulting 
# from the CCDC's data processing and validation procedures.
#
#######################################################################

data_VEGKOJ
_chemical_formula_moiety         'C21 H19 B1 F2 O4'
_chemical_name_systematic        
(1,3-bis(4-(Allyloxy)phenyl)prop-2-en-1,3-diolato)-(difluoro)boron
_symmetry_cell_setting           monoclinic
_symmetry_space_group_name_H-M   'C 2/c'
_symmetry_Int_Tables_number      15
_space_group_name_Hall           '-C 2yn'
loop_
_symmetry_equiv_pos_site_id
_symmetry_equiv_pos_as_xyz
1 x,y,z
2 -x,y,1/2-z
3 1/2+x,1/2+y,z
4 1/2-x,1/2+y,1/2-z
5 -x,-y,-z
6 x,-y,1/2+z
7 1/2-x,1/2-y,-z
8 1/2+x,1/2-y,1/2+z
_cell_length_a                   26.2572(17)
_cell_length_b                   7.2012(3)
_cell_length_c                   10.3231(5)
_cell_angle_alpha                90
_cell_angle_beta                 98.870(5)
_cell_angle_gamma                90
_cell_volume                     1928.58
_cell_formula_units_Z            4
loop_
_atom_site_label
_atom_site_type_symbol
_atom_site_fract_x
_atom_site_fract_y
_atom_site_fract_z
F1 F 1.03201(5) 0.54320(18) 0.19006(12)
O1 O 0.96793(6) 0.31854(18) 0.15044(14)
O2 O 0.83664(7) -0.1915(2) -0.26252(16)
C1 C 1.0000 0.0446(4) 0.2500
H1 H 1.0000 -0.0845 0.2500
C2 C 0.93434(7) 0.0469(2) 0.04593(18)
C3 C 0.96868(8) 0.1375(3) 0.15237(19)
C4 C 0.86929(8) -0.1227(3) -0.1583(2)
C5 C 0.89756(10) -0.2293(3) -0.0624(2)
H2 H 0.8949 -0.3581 -0.0657
C6 C 0.87339(9) 0.0690(3) -0.1525(2)
H3 H 0.8543 0.1415 -0.2170
C7 C 0.92969(9) -0.1450(3) 0.0384(2)
H4 H 0.9487 -0.2180 0.1028
C8 C 0.90547(9) 0.1520(3) -0.0521(2)
H5 H 0.9080 0.2808 -0.0493
B1 B 1.0000 0.4342(4) 0.2500
C9 C 0.83361(11) -0.3888(4) -0.2800(3)
H6 H 0.8216 -0.4472 -0.2056
H7 H 0.8672 -0.4392 -0.2884
C10 C 0.79681(13) -0.4230(5) -0.4010(3)
H8 H 0.8021 -0.3566 -0.4751
C11 C 0.75951(15) -0.5315(6) -0.4141(4)
H9 H 0.7526 -0.6012 -0.3429
H10 H 0.7385 -0.5429 -0.4949
F1A F 0.96799(5) 0.54320(18) 0.30994(12)
O1A O 1.03207(6) 0.31854(18) 0.34956(14)
O2A O 1.16336(7) -0.1915(2) 0.76252(16)
C2A C 1.06566(7) 0.0469(2) 0.45407(18)
C3A C 1.03132(8) 0.1375(3) 0.34763(19)
C4A C 1.13071(8) -0.1227(3) 0.6583(2)
C5A C 1.10244(10) -0.2293(3) 0.5624(2)
H2A H 1.1051 -0.3581 0.5657
C6A C 1.12661(9) 0.0690(3) 0.6525(2)
H3A H 1.1457 0.1415 0.7170
C7A C 1.07031(9) -0.1450(3) 0.4616(2)
H4A H 1.0513 -0.2180 0.3972
C8A C 1.09453(9) 0.1520(3) 0.5521(2)
H5A H 1.0920 0.2808 0.5493
C9A C 1.16639(11) -0.3888(4) 0.7800(3)
H6A H 1.1784 -0.4472 0.7056
H7A H 1.1328 -0.4392 0.7884
C10A C 1.20319(13) -0.4230(5) 0.9010(3)
H8A H 1.1979 -0.3566 0.9751
C11A C 1.24049(15) -0.5315(6) 0.9141(4)
H9A H 1.2474 -0.6012 0.8429
H10A H 1.2615 -0.5429 0.9949
loop_
_geom_bond_atom_site_label_1
_geom_bond_atom_site_label_2
_geom_bond_site_symmetry_1
_geom_bond_site_symmetry_2
F1 B1 1_555 1_555
O1 C3 1_555 1_555
O2 C4 1_555 1_555
C1 H1 1_555 1_555
C2 C3 1_555 1_555
C3 C1 1_555 1_555
C4 C5 1_555 1_555
C5 H2 1_555 1_555
C6 C4 1_555 1_555
H3 C6 1_555 1_555
C7 C2 1_555 1_555
H4 C7 1_555 1_555
C8 C2 1_555 1_555
H5 C8 1_555 1_555
B1 O1 1_555 1_555
C9 O2 1_555 1_555
H6 C9 1_555 1_555
H7 C9 1_555 1_555
C10 C9 1_555 1_555
H8 C10 1_555 1_555
C11 C10 1_555 1_555
H9 C11 1_555 1_555
H10 C11 1_555 1_555
F1A B1 1_555 1_555
O1A B1 1_555 1_555
O2A C4A 1_555 1_555
C2A C3A 1_555 1_555
C3A C1 1_555 1_555
C4A C5A 1_555 1_555
C5A H2A 1_555 1_555
C6A C4A 1_555 1_555
H3A C6A 1_555 1_555
C7A C2A 1_555 1_555
H4A C7A 1_555 1_555
C8A C2A 1_555 1_555
H5A C8A 1_555 1_555
C9A O2A 1_555 1_555
H6A C9A 1_555 1_555
H7A C9A 1_555 1_555
C10A C9A 1_555 1_555
H8A C10A 1_555 1_555
C11A C10A 1_555 1_555
H9A C11A 1_555 1_555
H10A C11A 1_555 1_555
C5 C7 1_555 1_555
C6 C8 1_555 1_555
O1A C3A 1_555 1_555
C5A C7A 1_555 1_555
C6A C8A 1_555 1_555

#END
