
#######################################################################
#
#                 Cambridge Crystallographic Data Centre
#                                CCDC 
#
#######################################################################
#
# If this CIF has been generated from an entry in the Cambridge 
# Structural Database, then it will include bibliographic, chemical, 
# crystal, experimental, refinement or atomic coordinate data resulting 
# from the CCDC's data processing and validation procedures.
#
#######################################################################

data_VEHDIV
_chemical_formula_moiety         'C36 H34 O6'
_chemical_name_systematic        
1,14-((Z)-9',9''-Bifluorenylidene-2',2''-diyldioxy)-3,6,9,12-tetraoxatetradecane
_symmetry_cell_setting           orthorhombic
_symmetry_space_group_name_H-M   'P b c n'
_symmetry_Int_Tables_number      60
_space_group_name_Hall           '-P 2n 2ab'
loop_
_symmetry_equiv_pos_site_id
_symmetry_equiv_pos_as_xyz
1 x,y,z
2 1/2-x,1/2+y,z
3 x,-y,1/2+z
4 1/2-x,1/2-y,1/2+z
5 -x,-y,-z
6 1/2+x,1/2-y,-z
7 -x,y,1/2-z
8 1/2+x,1/2+y,1/2-z
_cell_length_a                   37.14(2)
_cell_length_b                   16.606(3)
_cell_length_c                   9.540(3)
_cell_angle_alpha                90
_cell_angle_beta                 90
_cell_angle_gamma                90
_cell_volume                     5883.76
_chemical_melting_point          158-160deg.C
_cell_formula_units_Z            8
loop_
_atom_site_label
_atom_site_type_symbol
_atom_site_fract_x
_atom_site_fract_y
_atom_site_fract_z
O1 O 0.4555(2) 0.3548(5) 0.1866(10)
O2 O 0.4392(2) 0.5254(5) 0.2540(10)
O3 O 0.4105(3) 0.6884(6) 0.2100(11)
O4 O 0.3635(2) 0.7086(6) -0.0185(11)
O5 O 0.3367(3) 0.5631(6) -0.1213(13)
O6 O 0.3106(2) 0.4025(6) -0.0987(11)
C1 C 0.3868(3) 0.1147(7) 0.0111(12)
C2 C 0.4029(3) 0.0418(7) -0.0434(13)
C3 C 0.3884(4) -0.0306(8) -0.0892(13)
C4 C 0.4109(3) -0.0886(8) -0.1491(14)
C5 C 0.4468(4) -0.0752(9) -0.1670(14)
C6 C 0.4626(4) -0.0032(10) -0.1252(14)
C7 C 0.4396(3) 0.0557(7) -0.0679(13)
C8 C 0.4483(3) 0.1383(7) -0.0219(12)
C9 C 0.4817(3) 0.1754(9) -0.0010(14)
C10 C 0.4816(3) 0.2495(8) 0.0669(15)
C11 C 0.4504(3) 0.2839(7) 0.1174(13)
C12 C 0.4176(3) 0.2472(8) 0.0966(13)
C13 C 0.4160(3) 0.1736(8) 0.0256(13)
C14 C 0.3517(3) 0.1255(7) 0.0502(13)
C15 C 0.3269(3) 0.0638(8) 0.1122(13)
C16 C 0.3335(3) -0.0128(8) 0.1604(14)
C17 C 0.3073(5) -0.0549(10) 0.2349(16)
C18 C 0.2750(5) -0.0188(10) 0.2630(17)
C19 C 0.2676(4) 0.0591(10) 0.2218(15)
C20 C 0.2937(3) 0.1007(8) 0.1462(14)
C21 C 0.2952(3) 0.1828(8) 0.0959(14)
C22 C 0.2680(3) 0.2412(10) 0.0898(16)
C23 C 0.2749(3) 0.3118(10) 0.0245(16)
C24 C 0.3085(3) 0.3303(8) -0.0343(15)
C25 C 0.3357(3) 0.2724(7) -0.0272(13)
C26 C 0.3298(3) 0.2001(8) 0.0413(14)
C27 C 0.4260(4) 0.3858(8) 0.2644(16)
C28 C 0.4378(4) 0.4582(8) 0.3457(16)
C29 C 0.4500(4) 0.5955(8) 0.3252(17)
C30 C 0.4463(4) 0.6673(9) 0.2302(17)
C31 C 0.4069(4) 0.7599(9) 0.1344(18)
C32 C 0.3690(5) 0.7662(8) 0.0874(18)
C33 C 0.3276(4) 0.6972(9) -0.0529(19)
C34 C 0.3245(4) 0.6361(10) -0.1644(20)
C35 C 0.3388(4) 0.5041(9) -0.2336(18)
C36 C 0.3448(4) 0.4240(8) -0.1671(18)
H1 H 0.3631 -0.0407 -0.0800
H2 H 0.4008 -0.1391 -0.1783
H3 H 0.4615 -0.1162 -0.2091
H4 H 0.4880 0.0060 -0.1351
H5 H 0.5036 0.1511 -0.0335
H6 H 0.5041 0.2771 0.0801
H7 H 0.3960 0.2759 0.1307
H8 H 0.3564 -0.0377 0.1429
H9 H 0.3118 -0.1090 0.2661
H10 H 0.2568 -0.0485 0.3130
H11 H 0.2450 0.0842 0.2449
H12 H 0.2448 0.2308 0.1308
H13 H 0.2560 0.3510 0.0189
H14 H 0.3587 0.2831 -0.0695
H15 H 0.4071 0.4008 0.2013
H16 H 0.4174 0.3452 0.3278
H17 H 0.4612 0.4487 0.3849
H18 H 0.4210 0.4686 0.4198
H19 H 0.4350 0.6032 0.4061
H20 H 0.4747 0.5901 0.3544
H21 H 0.4567 0.6540 0.1410
H22 H 0.4590 0.7121 0.2703
H23 H 0.4128 0.8049 0.1932
H24 H 0.4226 0.7591 0.0547
H25 H 0.3645 0.8192 0.0512
H26 H 0.3531 0.7559 0.1646
H27 H 0.3147 0.6791 0.0284
H28 H 0.3176 0.7471 -0.0851
H29 H 0.3383 0.6533 -0.2440
H30 H 0.2997 0.6312 -0.1908
H31 H 0.3167 0.5038 -0.2856
H32 H 0.3584 0.5168 -0.2954
H33 H 0.3638 0.4272 -0.0992
H34 H 0.3509 0.3847 -0.2371
loop_
_geom_bond_atom_site_label_1
_geom_bond_atom_site_label_2
_geom_bond_site_symmetry_1
_geom_bond_site_symmetry_2
O1 C11 1_555 1_555
O2 C28 1_555 1_555
O3 C30 1_555 1_555
O4 C32 1_555 1_555
O5 C34 1_555 1_555
O6 C24 1_555 1_555
C1 C2 1_555 1_555
C2 C3 1_555 1_555
C3 C4 1_555 1_555
C4 C5 1_555 1_555
C5 C6 1_555 1_555
C6 C7 1_555 1_555
C7 C2 1_555 1_555
C8 C7 1_555 1_555
C9 C8 1_555 1_555
C10 C9 1_555 1_555
C11 C10 1_555 1_555
C12 C11 1_555 1_555
C13 C1 1_555 1_555
C14 C1 1_555 1_555
C15 C14 1_555 1_555
C16 C15 1_555 1_555
C17 C16 1_555 1_555
C18 C17 1_555 1_555
C19 C18 1_555 1_555
C20 C15 1_555 1_555
C21 C20 1_555 1_555
C22 C21 1_555 1_555
C23 C22 1_555 1_555
C24 C23 1_555 1_555
C25 C24 1_555 1_555
C26 C14 1_555 1_555
C27 O1 1_555 1_555
C28 C27 1_555 1_555
C29 O2 1_555 1_555
C30 C29 1_555 1_555
C31 O3 1_555 1_555
C32 C31 1_555 1_555
C33 O4 1_555 1_555
C34 C33 1_555 1_555
C35 O5 1_555 1_555
C36 O6 1_555 1_555
H1 C3 1_555 1_555
H2 C4 1_555 1_555
H3 C5 1_555 1_555
H4 C6 1_555 1_555
H5 C9 1_555 1_555
H6 C10 1_555 1_555
H7 C12 1_555 1_555
H8 C16 1_555 1_555
H9 C17 1_555 1_555
H10 C18 1_555 1_555
H11 C19 1_555 1_555
H12 C22 1_555 1_555
H13 C23 1_555 1_555
H14 C25 1_555 1_555
H15 C27 1_555 1_555
H16 C27 1_555 1_555
H17 C28 1_555 1_555
H18 C28 1_555 1_555
H19 C29 1_555 1_555
H20 C29 1_555 1_555
H21 C30 1_555 1_555
H22 C30 1_555 1_555
H23 C31 1_555 1_555
H24 C31 1_555 1_555
H25 C32 1_555 1_555
H26 C32 1_555 1_555
H27 C33 1_555 1_555
H28 C33 1_555 1_555
H29 C34 1_555 1_555
H30 C34 1_555 1_555
H31 C35 1_555 1_555
H32 C35 1_555 1_555
H33 C36 1_555 1_555
H34 C36 1_555 1_555
C8 C13 1_555 1_555
C12 C13 1_555 1_555
C19 C20 1_555 1_555
C21 C26 1_555 1_555
C25 C26 1_555 1_555
C35 C36 1_555 1_555

#END
