
#######################################################################
#
#                 Cambridge Crystallographic Data Centre
#                                CCDC 
#
#######################################################################
#
# If this CIF has been generated from an entry in the Cambridge 
# Structural Database, then it will include bibliographic, chemical, 
# crystal, experimental, refinement or atomic coordinate data resulting 
# from the CCDC's data processing and validation procedures.
#
#######################################################################

data_VEHREF
_chemical_formula_moiety         'C22 H28 Br1 N1 O6'
_chemical_name_systematic        
N-(5-Bromo-2-hydroxy-3-(hydroxymethyl)benzyl)-benzo-9-aza-15-crown-5
_symmetry_cell_setting           monoclinic
_symmetry_space_group_name_H-M   'P 21/c'
_symmetry_Int_Tables_number      14
_space_group_name_Hall           '-P 2ybc'
loop_
_symmetry_equiv_pos_site_id
_symmetry_equiv_pos_as_xyz
1 x,y,z
2 -x,1/2+y,1/2-z
3 -x,-y,-z
4 x,1/2-y,1/2+z
_cell_length_a                   7.647(6)
_cell_length_b                   33.278(5)
_cell_length_c                   9.162(1)
_cell_angle_alpha                90
_cell_angle_beta                 109.84
_cell_angle_gamma                90
_cell_volume                     2193.13
_chemical_melting_point          148-149deg.C
_cell_formula_units_Z            4
loop_
_atom_site_label
_atom_site_type_symbol
_atom_site_fract_x
_atom_site_fract_y
_atom_site_fract_z
Br1 Br 0.7459(1) 0.03849(3) 0.99386(9)
O1 O 0.7384(7) 0.0503(2) 0.3361(5)
O2 O 0.8621(7) -0.0592(2) 0.5680(6)
O3 O 0.2878(7) 0.1196(2) 0.0083(6)
O4 O 0.3800(7) 0.1469(2) -0.2417(6)
O5 O 0.6890(7) 0.1844(2) -0.1693(6)
O6 O 0.8662(7) 0.1889(2) 0.1542(6)
N1 N 0.5963(8) 0.1223(2) 0.3156(6)
C1 C 0.7396(9) 0.0428(2) 0.7838(7)
C2 C 0.711(1) 0.0805(2) 0.7143(8)
C3 C 0.7123(9) 0.0829(2) 0.5614(7)
C4 C 0.7347(9) 0.0481(2) 0.4842(7)
C5 C 0.7590(9) 0.0105(2) 0.5562(7)
C6 C 0.7627(9) 0.0079(2) 0.7100(7)
C7 C 0.777(1) -0.0264(2) 0.4667(8)
C8 C 0.703(1) 0.1241(2) 0.4855(8)
C9 C 0.394(1) 0.1171(3) 0.2878(8)
C10 C 0.301(1) 0.0940(3) 0.1381(9)
C11 C 0.240(1) 0.0972(3) -0.1339(9)
C12 C 0.206(1) 0.1280(3) -0.2647(9)
C13 C 0.380(1) 0.1790(2) -0.3348(8)
C14 C 0.229(1) 0.1906(3) -0.4618(8)
C15 C 0.250(1) 0.2249(3) -0.5475(9)
C16 C 0.414(1) 0.2458(3) -0.5058(9)
C17 C 0.570(1) 0.2335(2) -0.3774(6)
C18 C 0.550(1) 0.1998(2) -0.2941(8)
C19 C 0.853(1) 0.2085(3) -0.1036(9)
C20 C 0.966(1) 0.1874(3) 0.0461(8)
C21 C 0.800(1) 0.1505(2) 0.1833(9)
C22 C 0.637(1) 0.1592(2) 0.2410(8)
loop_
_geom_bond_atom_site_label_1
_geom_bond_atom_site_label_2
_geom_bond_site_symmetry_1
_geom_bond_site_symmetry_2
Br1 C1 1_555 1_555
O1 C4 1_555 1_555
O2 C7 1_555 1_555
O3 C10 1_555 1_555
O4 C12 1_555 1_555
O5 C18 1_555 1_555
O6 C20 1_555 1_555
N1 C8 1_555 1_555
C1 C2 1_555 1_555
C2 C3 1_555 1_555
C3 C4 1_555 1_555
C4 C5 1_555 1_555
C5 C6 1_555 1_555
C6 C1 1_555 1_555
C7 C5 1_555 1_555
C8 C3 1_555 1_555
C9 N1 1_555 1_555
C10 C9 1_555 1_555
C11 O3 1_555 1_555
C12 C11 1_555 1_555
C13 O4 1_555 1_555
C14 C13 1_555 1_555
C15 C14 1_555 1_555
C16 C15 1_555 1_555
C17 C16 1_555 1_555
C18 C13 1_555 1_555
C19 O5 1_555 1_555
C20 C19 1_555 1_555
C21 O6 1_555 1_555
C22 N1 1_555 1_555
C17 C18 1_555 1_555
C21 C22 1_555 1_555

#END
