
#######################################################################
#
#                 Cambridge Crystallographic Data Centre
#                                CCDC 
#
#######################################################################
#
# If this CIF has been generated from an entry in the Cambridge 
# Structural Database, then it will include bibliographic, chemical, 
# crystal, experimental, refinement or atomic coordinate data resulting 
# from the CCDC's data processing and validation procedures.
#
#######################################################################

data_VEJFIB
_chemical_formula_moiety         
'C16 H36 N1 1+,C90 H66 N6 S24,Cl1 1-,4(C1 H2 Cl2)'
_chemical_name_systematic        
'Tetra-n-butylammonium 6,14,22,30,38,46-hexakis(1,3-benzodithiol-2-ylidene)-2,2,10,10,18,18,26,26,34,34,42,42-dodecamethyl-5,7,13,15,21,23,29,31,37,39,45,47-dodecathia-49,50,51,52,53,54-hexa-azatridecacyclo-[41.5.1.1^3,9^.1^11,17^.1^19,25^.1^27,33^.1^35,41^.0^4,8^.-0^12,16^.0^20,24^.0^28,32^.0^36,40^.0^44,48^]tetrapentaconta-1(48),3,8,11,16,19,24,27,32,35,40,43-dodecaene chloride dichloromethane solvate'
_symmetry_cell_setting           monoclinic
_symmetry_space_group_name_H-M   'C 2/c'
_symmetry_Int_Tables_number      15
_space_group_name_Hall           '-C 2yn'
loop_
_symmetry_equiv_pos_site_id
_symmetry_equiv_pos_as_xyz
1 x,y,z
2 -x,y,1/2-z
3 1/2+x,1/2+y,z
4 1/2-x,1/2+y,1/2-z
5 -x,-y,-z
6 x,-y,1/2+z
7 1/2-x,1/2-y,-z
8 1/2+x,1/2-y,1/2+z
_cell_length_a                   31.769(2)
_cell_length_b                   20.0818(12)
_cell_length_c                   24.852(2)
_cell_angle_alpha                90
_cell_angle_beta                 129.585(3)
_cell_angle_gamma                90
_cell_volume                     12219.2
_cell_formula_units_Z            4
loop_
_atom_site_label
_atom_site_type_symbol
_atom_site_fract_x
_atom_site_fract_y
_atom_site_fract_z
S1 S 0.36281(13) 0.24316(14) 0.52554(18)
S2 S 0.35312(12) 0.35717(14) 0.59545(18)
S3 S 0.29890(13) 0.14871(14) 0.55282(18)
S4 S 0.28805(13) 0.25731(14) 0.62442(18)
S5 S 0.29510(11) 0.59813(14) 0.51630(16)
S6 S 0.26964(11) 0.68002(14) 0.39810(16)
S7 S 0.19467(11) 0.66646(15) 0.49653(16)
S8 S 0.16859(12) 0.74555(15) 0.37845(16)
S9 S 0.38258(12) 0.81925(14) 0.36985(17)
S10 S 0.50267(12) 0.84913(13) 0.46811(17)
S11 S 0.36124(14) 0.96959(17) 0.3101(2)
S12 S 0.48072(13) 0.99464(14) 0.40725(17)
N1 N 0.4225(3) 0.4095(4) 0.5153(4)
H1 H 0.4388 0.4356 0.5052
N2 N 0.3969(3) 0.5679(4) 0.4800(5)
H2 H 0.4249 0.5505 0.4856
N3 N 0.4715(4) 0.6575(4) 0.4617(4)
H3 H 0.4788 0.6150 0.4719
C1 C 0.4103(4) 0.3450(5) 0.4963(5)
C2 C 0.3870(4) 0.3240(5) 0.5244(6)
C3 C 0.3830(4) 0.3749(5) 0.5586(5)
C4 C 0.4059(4) 0.4298(5) 0.5532(6)
C5 C 0.3376(4) 0.2745(5) 0.5674(5)
C6 C 0.3106(4) 0.2327(5) 0.5787(5)
C7 C 0.2704(4) 0.1273(5) 0.5915(6)
C8 C 0.2518(4) 0.0644(5) 0.5892(6)
H4 H 0.2539 0.0299 0.5648
C9 C 0.2307(4) 0.0508(6) 0.6211(6)
H5 H 0.2178 0.0074 0.6189
C10 C 0.2282(4) 0.1003(6) 0.6561(6)
H6 H 0.2136 0.0900 0.6787
C11 C 0.2460(4) 0.1659(6) 0.6612(5)
H7 H 0.2439 0.2001 0.6858
C12 C 0.2671(4) 0.1762(5) 0.6269(6)
C13 C 0.4154(4) 0.5002(5) 0.5820(6)
C14 C 0.3983(4) 0.5056(5) 0.6268(6)
H8 H 0.4005 0.5522 0.6400
H9 H 0.4228 0.4785 0.6690
H10 H 0.3608 0.4895 0.6003
C15 C 0.4786(4) 0.5173(5) 0.6318(6)
H11 H 0.4927 0.5092 0.6069
H12 H 0.4981 0.4890 0.6734
H13 H 0.4840 0.5642 0.6457
C16 C 0.3832(4) 0.5511(5) 0.5216(6)
C17 C 0.3376(4) 0.5899(5) 0.4944(6)
C18 C 0.3255(4) 0.6271(5) 0.4400(6)
C19 C 0.3629(4) 0.6138(5) 0.4300(6)
C20 C 0.2539(4) 0.6569(5) 0.4516(5)
C21 C 0.2101(4) 0.6851(5) 0.4424(5)
C22 C 0.1354(4) 0.7167(5) 0.4501(6)
C23 C 0.1016(4) 0.7215(5) 0.4686(5)
H14 H 0.1103 0.6974 0.5074
C24 C 0.0567(4) 0.7609(5) 0.4305(6)
H15 H 0.0345 0.7660 0.4434
C25 C 0.0440(4) 0.7923(5) 0.3746(6)
H16 H 0.0114 0.8180 0.3471
C26 C 0.0762(4) 0.7896(5) 0.3544(5)
H17 H 0.0661 0.8126 0.3143
C27 C 0.1231(4) 0.7521(5) 0.3951(6)
C28 C 0.3693(5) 0.6395(5) 0.3795(6)
C29 C 0.3207(4) 0.6803(5) 0.3229(5)
H18 H 0.2877 0.6529 0.2980
H19 H 0.3259 0.6958 0.2901
H20 H 0.3169 0.7187 0.3438
C30 C 0.3742(4) 0.5809(5) 0.3419(6)
H21 H 0.3422 0.5519 0.3189
H22 H 0.4073 0.5551 0.3765
H23 H 0.3762 0.5991 0.3070
C31 C 0.4205(4) 0.6823(6) 0.4170(6)
C32 C 0.4267(4) 0.7509(6) 0.4140(6)
C33 C 0.4823(4) 0.7669(5) 0.4607(5)
C34 C 0.5105(4) 0.7059(6) 0.4895(6)
C35 C 0.4367(4) 0.8749(5) 0.4007(6)
C36 C 0.4262(4) 0.9376(6) 0.3743(6)
C37 C 0.3854(5) 1.0486(6) 0.3118(6)
C38 C 0.3484(5) 1.0962(7) 0.2675(6)
H24 H 0.3104 1.0870 0.2361
C39 C 0.3692(6) 1.1617(6) 0.2701(6)
H25 H 0.3452 1.1976 0.2430
C40 C 0.4245(5) 1.1699(6) 0.3129(6)
H26 H 0.4390 1.2117 0.3138
C41 C 0.4592(5) 1.1203(6) 0.3540(6)
H27 H 0.4975 1.1276 0.3827
C42 C 0.4402(5) 1.0591(6) 0.3551(6)
C43 C 0.5714(5) 0.6888(6) 0.5402(7)
C44 C 0.5844(4) 0.6460(5) 0.5992(6)
H28 H 0.5768 0.6710 0.6260
H29 H 0.6231 0.6334 0.6299
H30 H 0.5618 0.6057 0.5800
C45 C 0.6067(4) 0.7567(5) 0.5748(5)
H31 H 0.5982 0.7866 0.5378
H32 H 0.6458 0.7460 0.6060
H33 H 0.5977 0.7787 0.6015
S1D S 0.63719(13) 0.75684(14) 0.47446(18)
S2D S 0.64688(12) 0.64283(14) 0.40455(18)
S3D S 0.70110(13) 0.85129(14) 0.44718(18)
S4D S 0.71195(13) 0.74269(14) 0.37558(18)
S5D S 0.70490(11) 0.40187(14) 0.48370(16)
S6D S 0.73036(11) 0.31998(14) 0.60190(16)
S7D S 0.80533(11) 0.33354(15) 0.50347(16)
S8D S 0.83141(12) 0.25445(15) 0.62155(16)
S9D S 0.61742(12) 0.18075(14) 0.63015(17)
S10D S 0.49733(12) 0.15087(13) 0.53189(17)
S11D S 0.63876(14) 0.03041(17) 0.6899(2)
S12D S 0.51928(13) 0.00536(14) 0.59275(17)
N1D N 0.5775(3) 0.5905(4) 0.4847(4)
H1D H 0.5612 0.5644 0.4948
N2D N 0.6031(3) 0.4321(4) 0.5200(5)
H2D H 0.5751 0.4495 0.5144
N3D N 0.5285(4) 0.3425(4) 0.5383(4)
H3D H 0.5212 0.3850 0.5281
C1D C 0.5897(4) 0.6550(5) 0.5037(5)
C2D C 0.6130(4) 0.6760(5) 0.4756(6)
C3D C 0.6170(4) 0.6251(5) 0.4414(5)
C4D C 0.5941(4) 0.5702(5) 0.4468(6)
C5D C 0.6624(4) 0.7255(5) 0.4326(5)
C6D C 0.6894(4) 0.7673(5) 0.4213(5)
C7D C 0.7296(4) 0.8727(5) 0.4085(6)
C8D C 0.7482(4) 0.9356(5) 0.4108(6)
H4D H 0.7461 0.9701 0.4352
C9D C 0.7693(4) 0.9492(6) 0.3789(6)
H5D H 0.7822 0.9926 0.3811
C10D C 0.7718(4) 0.8997(6) 0.3439(6)
H6D H 0.7864 0.9100 0.3213
C11D C 0.7540(4) 0.8341(6) 0.3388(5)
H7D H 0.7561 0.7999 0.3142
C12D C 0.7329(4) 0.8238(5) 0.3731(6)
C13D C 0.5846(4) 0.4998(5) 0.4180(6)
C14D C 0.6017(4) 0.4944(5) 0.3732(6)
H8D H 0.5995 0.4478 0.3600
H9D H 0.5772 0.5215 0.3310
H10D H 0.6392 0.5105 0.3997
C15D C 0.5214(4) 0.4827(5) 0.3682(6)
H11D H 0.5073 0.4908 0.3931
H12D H 0.5019 0.5110 0.3266
H13D H 0.5160 0.4358 0.3543
C16D C 0.6168(4) 0.4489(5) 0.4784(6)
C17D C 0.6624(4) 0.4101(5) 0.5056(6)
C18D C 0.6745(4) 0.3729(5) 0.5600(6)
C19D C 0.6371(4) 0.3862(5) 0.5700(6)
C20D C 0.7461(4) 0.3431(5) 0.5484(5)
C21D C 0.7899(4) 0.3149(5) 0.5576(5)
C22D C 0.8646(4) 0.2833(5) 0.5499(6)
C23D C 0.8984(4) 0.2785(5) 0.5314(5)
H14D H 0.8897 0.3026 0.4926
C24D C 0.9433(4) 0.2391(5) 0.5695(6)
H15D H 0.9655 0.2340 0.5566
C25D C 0.9560(4) 0.2077(5) 0.6254(6)
H16D H 0.9886 0.1820 0.6529
C26D C 0.9238(4) 0.2104(5) 0.6456(5)
H17D H 0.9339 0.1874 0.6857
C27D C 0.8769(4) 0.2479(5) 0.6049(6)
C28D C 0.6307(5) 0.3605(5) 0.6205(6)
C29D C 0.6793(4) 0.3197(5) 0.6771(5)
H18D H 0.7123 0.3471 0.7020
H19D H 0.6741 0.3042 0.7099
H20D H 0.6831 0.2813 0.6562
C30D C 0.6258(4) 0.4191(5) 0.6581(6)
H21D H 0.6578 0.4481 0.6811
H22D H 0.5927 0.4449 0.6235
H23D H 0.6238 0.4009 0.6930
C31D C 0.5795(4) 0.3177(6) 0.5830(6)
C32D C 0.5733(4) 0.2491(6) 0.5860(6)
C33D C 0.5177(4) 0.2331(5) 0.5393(5)
C34D C 0.4895(4) 0.2941(6) 0.5105(6)
C35D C 0.5633(4) 0.1251(5) 0.5993(6)
C36D C 0.5738(4) 0.0624(6) 0.6257(6)
C37D C 0.6146(5) -0.0486(6) 0.6882(6)
C38D C 0.6516(5) -0.0962(7) 0.7325(6)
H24D H 0.6896 -0.0870 0.7639
C39D C 0.6308(6) -0.1617(6) 0.7299(6)
H25D H 0.6548 -0.1976 0.7570
C40D C 0.5755(5) -0.1699(6) 0.6871(6)
H26D H 0.5610 -0.2117 0.6862
C41D C 0.5408(5) -0.1203(6) 0.6460(6)
H27D H 0.5025 -0.1276 0.6173
C42D C 0.5598(5) -0.0591(6) 0.6449(6)
C43D C 0.4286(5) 0.3112(6) 0.4598(7)
C44D C 0.4156(4) 0.3540(5) 0.4008(6)
H28D H 0.4232 0.3290 0.3740
H29D H 0.3769 0.3666 0.3701
H30D H 0.4382 0.3943 0.4200
C45D C 0.3933(4) 0.2433(5) 0.4252(5)
H31D H 0.4018 0.2134 0.4622
H32D H 0.3542 0.2540 0.3940
H33D H 0.4023 0.2213 0.3985
N4 N 0.0000 0.3732(6) 0.2500
C46 C 0.0496(5) 0.4165(6) 0.3082(6)
H34 H 0.0381 0.4458 0.3287
H35 H 0.0787 0.3867 0.3456
C47 C 0.0733(5) 0.4596(6) 0.2823(6)
H36 H 0.0938 0.4314 0.2734
H37 H 0.0433 0.4819 0.2381
C48 C 0.1103(5) 0.5104(6) 0.3366(7)
H38 H 0.1363 0.5265 0.3302
H39 H 0.1316 0.4900 0.3836
C49 C 0.0759(6) 0.5703(7) 0.3308(7)
H40 H 0.0518 0.5870 0.2827
H41 H 0.1005 0.6059 0.3625
H42 H 0.0538 0.5553 0.3434
C50 C 0.0131(4) 0.3284(5) 0.2118(5)
H43 H -0.0194 0.3008 0.1772
H44 H 0.0200 0.3571 0.1859
C51 C 0.0615(5) 0.2829(6) 0.2591(6)
H45 H 0.0956 0.3094 0.2871
H46 H 0.0584 0.2596 0.2915
C52 C 0.0637(5) 0.2319(6) 0.2154(6)
H47 H 0.0563 0.2548 0.1748
H48 H 0.1010 0.2131 0.2438
C53 C 0.0249(5) 0.1779(6) 0.1904(6)
H49 H 0.0320 0.1550 0.2303
H50 H 0.0288 0.1463 0.1638
H51 H -0.0123 0.1959 0.1603
C46A C -0.0496(5) 0.4165(6) 0.1918(6)
H34A H -0.0381 0.4458 0.1713
H35A H -0.0787 0.3867 0.1544
C47A C -0.0733(5) 0.4596(6) 0.2177(6)
H36A H -0.0938 0.4314 0.2266
H37A H -0.0433 0.4819 0.2619
C48A C -0.1103(5) 0.5104(6) 0.1634(7)
H38A H -0.1363 0.5265 0.1698
H39A H -0.1316 0.4900 0.1164
C49A C -0.0759(6) 0.5703(7) 0.1692(7)
H40A H -0.0518 0.5870 0.2173
H41A H -0.1005 0.6059 0.1375
H42A H -0.0538 0.5553 0.1566
C50A C -0.0131(4) 0.3284(5) 0.2882(5)
H43A H 0.0194 0.3008 0.3228
H44A H -0.0200 0.3571 0.3141
C51A C -0.0615(5) 0.2829(6) 0.2409(6)
H45A H -0.0956 0.3094 0.2129
H46A H -0.0584 0.2596 0.2085
C52A C -0.0637(5) 0.2319(6) 0.2846(6)
H47A H -0.0563 0.2548 0.3252
H48A H -0.1010 0.2131 0.2562
C53A C -0.0249(5) 0.1779(6) 0.3096(6)
H49A H -0.0320 0.1550 0.2697
H50A H -0.0288 0.1463 0.3362
H51A H 0.0123 0.1959 0.3397
C54 C 0.2973(7) 0.5976(9) 0.6696(9)
H52 H 0.2917 0.6182 0.6292
H53 H 0.2764 0.5554 0.6537
Cl2 Cl 0.2738(2) 0.6512(3) 0.7005(3)
Cl3 Cl 0.3682(2) 0.5808(3) 0.7370(2)
Cl1 Cl 0.5000 0.5000 0.5000
loop_
_geom_bond_atom_site_label_1
_geom_bond_atom_site_label_2
_geom_bond_site_symmetry_1
_geom_bond_site_symmetry_2
S1 C2 1_555 1_555
S2 C3 1_555 1_555
S3 C6 1_555 1_555
S4 C6 1_555 1_555
S5 C17 1_555 1_555
S6 C18 1_555 1_555
S7 C21 1_555 1_555
S8 C21 1_555 1_555
S9 C32 1_555 1_555
S10 C33 1_555 1_555
S11 C36 1_555 1_555
S12 C36 1_555 1_555
N1 H1 1_555 1_555
N2 H2 1_555 1_555
N3 H3 1_555 1_555
C1 N1 1_555 1_555
C2 C1 1_555 1_555
C3 C2 1_555 1_555
C4 N1 1_555 1_555
C5 S1 1_555 1_555
C6 C5 1_555 1_555
C7 S3 1_555 1_555
C8 C7 1_555 1_555
H4 C8 1_555 1_555
C9 C8 1_555 1_555
H5 C9 1_555 1_555
C10 C9 1_555 1_555
H6 C10 1_555 1_555
C11 C10 1_555 1_555
H7 C11 1_555 1_555
C12 S4 1_555 1_555
C13 C4 1_555 1_555
C14 C13 1_555 1_555
H8 C14 1_555 1_555
H9 C14 1_555 1_555
H10 C14 1_555 1_555
C15 C13 1_555 1_555
H11 C15 1_555 1_555
H12 C15 1_555 1_555
H13 C15 1_555 1_555
C16 N2 1_555 1_555
C17 C16 1_555 1_555
C18 C17 1_555 1_555
C19 N2 1_555 1_555
C20 S5 1_555 1_555
C21 C20 1_555 1_555
C22 S7 1_555 1_555
C23 C22 1_555 1_555
H14 C23 1_555 1_555
C24 C23 1_555 1_555
H15 C24 1_555 1_555
C25 C24 1_555 1_555
H16 C25 1_555 1_555
C26 C25 1_555 1_555
H17 C26 1_555 1_555
C27 S8 1_555 1_555
C28 C19 1_555 1_555
C29 C28 1_555 1_555
H18 C29 1_555 1_555
H19 C29 1_555 1_555
H20 C29 1_555 1_555
C30 C28 1_555 1_555
H21 C30 1_555 1_555
H22 C30 1_555 1_555
H23 C30 1_555 1_555
C31 N3 1_555 1_555
C32 C31 1_555 1_555
C33 C32 1_555 1_555
C34 N3 1_555 1_555
C35 S9 1_555 1_555
C36 C35 1_555 1_555
C37 S11 1_555 1_555
C38 C37 1_555 1_555
H24 C38 1_555 1_555
C39 C38 1_555 1_555
H25 C39 1_555 1_555
C40 C39 1_555 1_555
H26 C40 1_555 1_555
C41 C40 1_555 1_555
H27 C41 1_555 1_555
C42 S12 1_555 1_555
C43 C34 1_555 1_555
C44 C43 1_555 1_555
H28 C44 1_555 1_555
H29 C44 1_555 1_555
H30 C44 1_555 1_555
C45 C43 1_555 1_555
H31 C45 1_555 1_555
H32 C45 1_555 1_555
H33 C45 1_555 1_555
N4 C46 1_555 1_555
C46 H34 1_555 1_555
H35 C46 1_555 1_555
C47 C46 1_555 1_555
H36 C47 1_555 1_555
H37 C47 1_555 1_555
C48 C47 1_555 1_555
H38 C48 1_555 1_555
H39 C48 1_555 1_555
C49 C48 1_555 1_555
H40 C49 1_555 1_555
H41 C49 1_555 1_555
H42 C49 1_555 1_555
C50 N4 1_555 1_555
H43 C50 1_555 1_555
H44 C50 1_555 1_555
C51 C50 1_555 1_555
H45 C51 1_555 1_555
H46 C51 1_555 1_555
C52 C51 1_555 1_555
H47 C52 1_555 1_555
H48 C52 1_555 1_555
C53 C52 1_555 1_555
H49 C53 1_555 1_555
H50 C53 1_555 1_555
H51 C53 1_555 1_555
C54 H52 1_555 1_555
H53 C54 1_555 1_555
Cl2 C54 1_555 1_555
Cl3 C54 1_555 1_555
S1D C2D 1_555 1_555
S2D C3D 1_555 1_555
S3D C6D 1_555 1_555
S4D C6D 1_555 1_555
S5D C17D 1_555 1_555
S6D C18D 1_555 1_555
S7D C21D 1_555 1_555
S8D C21D 1_555 1_555
S9D C32D 1_555 1_555
S10D C33D 1_555 1_555
S11D C36D 1_555 1_555
S12D C36D 1_555 1_555
N1D H1D 1_555 1_555
N2D H2D 1_555 1_555
N3D H3D 1_555 1_555
C1D C43 1_555 1_555
C2D C1D 1_555 1_555
C3D C2D 1_555 1_555
C4D N1D 1_555 1_555
C5D S1D 1_555 1_555
C6D C5D 1_555 1_555
C7D S3D 1_555 1_555
C8D C7D 1_555 1_555
H4D C8D 1_555 1_555
C9D C8D 1_555 1_555
H5D C9D 1_555 1_555
C10D C9D 1_555 1_555
H6D C10D 1_555 1_555
C11D C10D 1_555 1_555
H7D C11D 1_555 1_555
C12D S4D 1_555 1_555
C13D C4D 1_555 1_555
C14D C13D 1_555 1_555
H8D C14D 1_555 1_555
H9D C14D 1_555 1_555
H10D C14D 1_555 1_555
C15D C13D 1_555 1_555
H11D C15D 1_555 1_555
H12D C15D 1_555 1_555
H13D C15D 1_555 1_555
C16D N2D 1_555 1_555
C17D C16D 1_555 1_555
C18D C17D 1_555 1_555
C19D N2D 1_555 1_555
C20D S5D 1_555 1_555
C21D C20D 1_555 1_555
C22D S7D 1_555 1_555
C23D C22D 1_555 1_555
H14D C23D 1_555 1_555
C24D C23D 1_555 1_555
H15D C24D 1_555 1_555
C25D C24D 1_555 1_555
H16D C25D 1_555 1_555
C26D C25D 1_555 1_555
H17D C26D 1_555 1_555
C27D S8D 1_555 1_555
C28D C19D 1_555 1_555
C29D C28D 1_555 1_555
H18D C29D 1_555 1_555
H19D C29D 1_555 1_555
H20D C29D 1_555 1_555
C30D C28D 1_555 1_555
H21D C30D 1_555 1_555
H22D C30D 1_555 1_555
H23D C30D 1_555 1_555
C31D N3D 1_555 1_555
C32D C31D 1_555 1_555
C33D C32D 1_555 1_555
C34D N3D 1_555 1_555
C35D S9D 1_555 1_555
C36D C35D 1_555 1_555
C37D S11D 1_555 1_555
C38D C37D 1_555 1_555
H24D C38D 1_555 1_555
C39D C38D 1_555 1_555
H25D C39D 1_555 1_555
C40D C39D 1_555 1_555
H26D C40D 1_555 1_555
C41D C40D 1_555 1_555
H27D C41D 1_555 1_555
C42D S12D 1_555 1_555
C43D C1 1_555 1_555
C44D C43D 1_555 1_555
H28D C44D 1_555 1_555
H29D C44D 1_555 1_555
H30D C44D 1_555 1_555
C45D C43D 1_555 1_555
H31D C45D 1_555 1_555
H32D C45D 1_555 1_555
H33D C45D 1_555 1_555
C46A N4 1_555 1_555
H34A C46A 1_555 1_555
H35A C46A 1_555 1_555
C47A C46A 1_555 1_555
H36A C47A 1_555 1_555
H37A C47A 1_555 1_555
C48A C47A 1_555 1_555
H38A C48A 1_555 1_555
H39A C48A 1_555 1_555
C49A C48A 1_555 1_555
H40A C49A 1_555 1_555
H41A C49A 1_555 1_555
H42A C49A 1_555 1_555
C50A N4 1_555 1_555
H43A C50A 1_555 1_555
H44A C50A 1_555 1_555
C51A C50A 1_555 1_555
H45A C51A 1_555 1_555
H46A C51A 1_555 1_555
C52A C51A 1_555 1_555
H47A C52A 1_555 1_555
H48A C52A 1_555 1_555
C53A C52A 1_555 1_555
H49A C53A 1_555 1_555
H50A C53A 1_555 1_555
H51A C53A 1_555 1_555
S2 C5 1_555 1_555
S6 C20 1_555 1_555
S10 C35 1_555 1_555
C3 C4 1_555 1_555
C7 C12 1_555 1_555
C11 C12 1_555 1_555
C13 C16 1_555 1_555
C18 C19 1_555 1_555
C22 C27 1_555 1_555
C26 C27 1_555 1_555
C28 C31 1_555 1_555
C33 C34 1_555 1_555
C37 C42 1_555 1_555
C41 C42 1_555 1_555
S2D C5D 1_555 1_555
S6D C20D 1_555 1_555
S10D C35D 1_555 1_555
N1D C1D 1_555 1_555
C3D C4D 1_555 1_555
C7D C12D 1_555 1_555
C11D C12D 1_555 1_555
C13D C16D 1_555 1_555
C18D C19D 1_555 1_555
C22D C27D 1_555 1_555
C26D C27D 1_555 1_555
C28D C31D 1_555 1_555
C33D C34D 1_555 1_555
C34D C43D 1_555 1_555
C37D C42D 1_555 1_555
C41D C42D 1_555 1_555

#END
