
#######################################################################
#
#                 Cambridge Crystallographic Data Centre
#                                CCDC 
#
#######################################################################
#
# If this CIF has been generated from an entry in the Cambridge 
# Structural Database, then it will include bibliographic, chemical, 
# crystal, experimental, refinement or atomic coordinate data resulting 
# from the CCDC's data processing and validation procedures.
#
#######################################################################

data_VEJKUT
_chemical_formula_moiety         'C19 H17 N5 O2'
_chemical_name_systematic        
3-(2-(4-(4-methylphenyl)-1H-1,2,3-triazol-1-yl)ethyl)quinazoline-2,4(1H,3H)-dione
_symmetry_cell_setting           triclinic
_symmetry_space_group_name_H-M   'P -1'
_symmetry_Int_Tables_number      2
_space_group_name_Hall           '-P 1'
loop_
_symmetry_equiv_pos_site_id
_symmetry_equiv_pos_as_xyz
1 x,y,z
2 -x,-y,-z
_cell_length_a                   5.4500(10)
_cell_length_b                   12.5800(10)
_cell_length_c                   13.1400(10)
_cell_angle_alpha                96.7530(10)
_cell_angle_beta                 101.4830(10)
_cell_angle_gamma                101.2910(10)
_cell_volume                     854.205
_exptl_crystal_colour            colorless
_exptl_crystal_description       needle
_cell_formula_units_Z            2
_exptl_crystal_recrystallization_method 'heptane/ethyl acetate/methanol.'
loop_
_atom_site_label
_atom_site_type_symbol
_atom_site_fract_x
_atom_site_fract_y
_atom_site_fract_z
O1 O 1.2010(6) 0.1090(3) 0.9616(2)
N1 N 1.0240(8) 0.1520(4) 0.8037(3)
O2 O 0.8510(7) 0.1882(4) 0.6438(3)
N2 N 0.7973(8) 0.0191(4) 0.8804(3)
H1 H 0.7887 -0.0166 0.9321
N3 N 1.1529(8) 0.3614(4) 0.9465(3)
C1 C 1.1487(10) 0.3679(5) 1.1109(4)
C2 C 0.5863(9) -0.0040(4) 0.7951(3)
N4 N 0.9119(9) 0.3581(5) 0.9543(4)
C3 C 1.0152(10) 0.0950(5) 0.8858(4)
N5 N 0.9091(8) 0.3616(5) 1.0545(4)
C4 C 0.5991(10) 0.0494(5) 0.7100(3)
C5 C 0.8259(10) 0.1355(5) 0.7134(4)
C6 C 1.2153(10) 0.3504(5) 0.8451(4)
H2 H 1.3712 0.4042 0.8476
H3 H 1.0779 0.3653 0.7933
C7 C 0.1801(12) -0.0554(6) 0.6230(5)
H4 H 0.0468 -0.0769 0.5631
C8 C 1.2085(9) 0.3674(5) 1.2239(4)
C9 C 1.2527(9) 0.2387(5) 0.8121(4)
H5 H 1.2991 0.2358 0.7445
H6 H 1.3943 0.2252 0.8627
C10 C 0.3879(12) 0.0239(5) 0.6230(4)
H7 H 0.3910 0.0612 0.5660
C11 C 1.3098(12) 0.3563(6) 1.4406(4)
C12 C 0.3694(11) -0.0815(5) 0.7964(4)
H8 H 0.3608 -0.1177 0.8538
C13 C 0.1636(11) -0.1038(5) 0.7088(5)
H9 H 0.0123 -0.1527 0.7095
C14 C 1.4052(11) 0.3225(6) 1.2716(5)
H10 H 1.5095 0.2959 1.2315
C15 C 1.0653(10) 0.4080(5) 1.2881(5)
H11 H 0.9321 0.4395 1.2594
C16 C 1.3020(10) 0.3668(5) 1.0412(4)
H12 H 1.4773 0.3693 1.0567
C17 C 1.1163(13) 0.4026(5) 1.3936(5)
H13 H 1.0167 0.4311 1.4349
C18 C 1.3553(14) 0.3489(6) 1.5553(5)
H14 H 1.3912 0.4212 1.5955
H15 H 1.4990 0.3160 1.5746
H16 H 1.2050 0.3047 1.5694
C19 C 1.4489(11) 0.3166(5) 1.3774(5)
H17 H 1.5795 0.2839 1.4064
loop_
_geom_bond_atom_site_label_1
_geom_bond_atom_site_label_2
_geom_bond_site_symmetry_1
_geom_bond_site_symmetry_2
O1 C3 1_555 1_555
N1 C3 1_555 1_555
O2 C5 1_555 1_555
N2 H1 1_555 1_555
N3 N4 1_555 1_555
C1 N5 1_555 1_555
C2 N2 1_555 1_555
N4 N5 1_555 1_555
C3 N2 1_555 1_555
C4 C2 1_555 1_555
C5 N1 1_555 1_555
C6 N3 1_555 1_555
H2 C6 1_555 1_555
H3 C6 1_555 1_555
C7 H4 1_555 1_555
C8 C1 1_555 1_555
C9 N1 1_555 1_555
H5 C9 1_555 1_555
H6 C9 1_555 1_555
C10 C4 1_555 1_555
H7 C10 1_555 1_555
C11 C17 1_555 1_555
C12 C2 1_555 1_555
H8 C12 1_555 1_555
C13 C7 1_555 1_555
H9 C13 1_555 1_555
C14 C8 1_555 1_555
H10 C14 1_555 1_555
C15 C8 1_555 1_555
H11 C15 1_555 1_555
C16 N3 1_555 1_555
H12 C16 1_555 1_555
C17 C15 1_555 1_555
H13 C17 1_555 1_555
C18 C11 1_555 1_555
H14 C18 1_555 1_555
H15 C18 1_555 1_555
H16 C18 1_555 1_555
C19 C11 1_555 1_555
H17 C19 1_555 1_555
C1 C16 1_555 1_555
C4 C5 1_555 1_555
C6 C9 1_555 1_555
C7 C10 1_555 1_555
C12 C13 1_555 1_555
C14 C19 1_555 1_555

#END
