
#######################################################################
#
#                 Cambridge Crystallographic Data Centre
#                                CCDC 
#
#######################################################################
#
# If this CIF has been generated from an entry in the Cambridge 
# Structural Database, then it will include bibliographic, chemical, 
# crystal, experimental, refinement or atomic coordinate data resulting 
# from the CCDC's data processing and validation procedures.
#
#######################################################################

data_VEJQOT
_chemical_formula_moiety         'C5 H6 N2 O2,C4 H7 N5,H2 O1'
_chemical_name_systematic        'thymine pyrimidine-2,4,6-triamine monohydrate'
_symmetry_cell_setting           triclinic
_symmetry_space_group_name_H-M   'P -1'
_symmetry_Int_Tables_number      2
_space_group_name_Hall           '-P 1'
loop_
_symmetry_equiv_pos_site_id
_symmetry_equiv_pos_as_xyz
1 x,y,z
2 -x,-y,-z
_cell_length_a                   6.7793(2)
_cell_length_b                   12.3197(4)
_cell_length_c                   14.8694(4)
_cell_angle_alpha                104.7164(14)
_cell_angle_beta                 96.7763(13)
_cell_angle_gamma                90.5177(14)
_cell_volume                     1191.76
_exptl_crystal_colour            colorless
_exptl_crystal_description       needle
_cell_formula_units_Z            4
loop_
_atom_site_label
_atom_site_type_symbol
_atom_site_fract_x
_atom_site_fract_y
_atom_site_fract_z
C1 C 0.4408(2) 0.25447(13) 0.15126(10)
O1 O 0.41018(18) 0.16811(9) 0.08664(7)
N1 N 0.4942(2) 0.24497(10) 0.24192(9)
H1 H 0.4990 0.1767 0.2502
C2 C 0.5400(2) 0.33259(13) 0.31941(10)
O2 O 0.59237(17) 0.31656(9) 0.39787(7)
N2 N 0.5271(2) 0.43692(10) 0.30544(9)
H2 H 0.5551 0.4957 0.3535
C3 C 0.4711(2) 0.45328(12) 0.21766(11)
H3 H 0.4626 0.5280 0.2114
C4 C 0.4279(2) 0.36747(13) 0.14056(10)
C5 C 0.3733(3) 0.38413(13) 0.04422(11)
H4 H 0.3575 0.4643 0.0487
H5 H 0.2480 0.3425 0.0157
H6 H 0.4786 0.3565 0.0054
N3 N 0.9272(2) 0.59217(11) 0.62895(9)
C6 C 0.9160(2) 0.49077(12) 0.64707(10)
N4 N 0.8466(2) 0.40353(11) 0.57549(9)
H7 H 0.810(3) 0.4129(17) 0.5180(16)
H8 H 0.843(3) 0.3332(19) 0.5839(15)
N5 N 0.9663(2) 0.46779(10) 0.73119(9)
C7 C 1.0349(2) 0.55621(12) 0.80288(10)
N6 N 1.0880(2) 0.53197(11) 0.88700(9)
H9 H 1.034(3) 0.4687(18) 0.8954(14)
H10 H 1.119(3) 0.5865(18) 0.9373(15)
C8 C 1.0552(2) 0.66440(12) 0.79212(10)
H11 H 1.1063 0.7255 0.8429
C9 C 0.9962(2) 0.67862(12) 0.70234(11)
N7 N 1.0005(2) 0.78231(11) 0.68570(10)
H12 H 0.973(3) 0.7832(17) 0.6252(16)
H13 H 1.085(4) 0.8280(18) 0.7199(15)
C10 C 0.8549(2) 0.24371(13) 0.85215(10)
O3 O 0.86543(18) 0.33108(9) 0.91610(7)
N8 N 0.8489(2) 0.25114(10) 0.76024(9)
H14 H 0.8474 0.3188 0.7508
C11 C 0.8451(2) 0.16204(12) 0.68309(10)
O4 O 0.84147(18) 0.17592(9) 0.60319(7)
N9 N 0.8460(2) 0.05857(10) 0.69971(9)
H15 H 0.8464 -0.0011 0.6523
C12 C 0.8463(2) 0.04449(12) 0.78891(11)
H16 H 0.8444 -0.0296 0.7968
C13 C 0.8493(2) 0.13152(13) 0.86500(10)
C14 C 0.8540(3) 0.11732(13) 0.96274(11)
H17 H 0.8390 0.0373 0.9601
H18 H 0.7449 0.1576 0.9924
H19 H 0.9812 0.1478 0.9994
N10 N 0.6400(2) -0.09893(11) 0.36794(9)
C15 C 0.6140(2) 0.00242(12) 0.35080(10)
N11 N 0.5794(2) 0.08789(11) 0.42355(9)
H20 H 0.616(3) 0.0831(17) 0.4824(16)
H21 H 0.585(3) 0.1584(18) 0.4182(15)
N12 N 0.6149(2) 0.02732(10) 0.26730(9)
C16 C 0.6438(2) -0.05952(12) 0.19409(10)
N13 N 0.6467(2) -0.03376(11) 0.11048(9)
H22 H 0.592(3) 0.0310(18) 0.1071(14)
H23 H 0.643(3) -0.0883(18) 0.0592(15)
C17 C 0.6734(2) -0.16796(12) 0.20366(10)
H24 H 0.6946 -0.2282 0.1519
C18 C 0.6703(2) -0.18363(12) 0.29348(11)
N14 N 0.6935(2) -0.28678(11) 0.30986(10)
H25 H 0.706(3) -0.2857(17) 0.3731(15)
H26 H 0.751(3) -0.3361(18) 0.2718(15)
O5 O 0.66660(19) 0.60951(9) 0.46616(8)
H27 H 0.764(4) 0.6096(18) 0.5055(16)
H28 H 0.571(3) 0.6317(17) 0.4980(16)
O6 O 0.8931(2) -0.10791(9) 0.53365(8)
H29 H 0.995(4) -0.1078(17) 0.5052(16)
H30 H 0.798(4) -0.1153(18) 0.4909(17)
loop_
_geom_bond_atom_site_label_1
_geom_bond_atom_site_label_2
_geom_bond_site_symmetry_1
_geom_bond_site_symmetry_2
C1 O1 1_555 1_555
N1 C1 1_555 1_555
H1 N1 1_555 1_555
C2 N1 1_555 1_555
O2 C2 1_555 1_555
N2 C2 1_555 1_555
H2 N2 1_555 1_555
C3 N2 1_555 1_555
H3 C3 1_555 1_555
C4 C1 1_555 1_555
C5 C4 1_555 1_555
H4 C5 1_555 1_555
H5 C5 1_555 1_555
H6 C5 1_555 1_555
N3 C6 1_555 1_555
C6 N4 1_555 1_555
N4 H7 1_555 1_555
H8 N4 1_555 1_555
N5 C6 1_555 1_555
C7 N5 1_555 1_555
N6 C7 1_555 1_555
H9 N6 1_555 1_555
H10 N6 1_555 1_555
C8 C7 1_555 1_555
H11 C8 1_555 1_555
C9 N3 1_555 1_555
N7 C9 1_555 1_555
H12 N7 1_555 1_555
H13 N7 1_555 1_555
C10 O3 1_555 1_555
N8 C10 1_555 1_555
H14 N8 1_555 1_555
C11 N8 1_555 1_555
O4 C11 1_555 1_555
N9 C11 1_555 1_555
H15 N9 1_555 1_555
C12 N9 1_555 1_555
H16 C12 1_555 1_555
C13 C10 1_555 1_555
C14 C13 1_555 1_555
H17 C14 1_555 1_555
H18 C14 1_555 1_555
H19 C14 1_555 1_555
N10 C15 1_555 1_555
C15 N11 1_555 1_555
N11 H20 1_555 1_555
H21 N11 1_555 1_555
N12 C15 1_555 1_555
C16 N12 1_555 1_555
N13 C16 1_555 1_555
H22 N13 1_555 1_555
H23 N13 1_555 1_555
C17 C16 1_555 1_555
H24 C17 1_555 1_555
C18 N10 1_555 1_555
N14 C18 1_555 1_555
H25 N14 1_555 1_555
H26 N14 1_555 1_555
O5 H27 1_555 1_555
H28 O5 1_555 1_555
O6 H29 1_555 1_555
H30 O6 1_555 1_555
C3 C4 1_555 1_555
C8 C9 1_555 1_555
C12 C13 1_555 1_555
C17 C18 1_555 1_555

#END
