
#######################################################################
#
#                 Cambridge Crystallographic Data Centre
#                                CCDC 
#
#######################################################################
#
# If this CIF has been generated from an entry in the Cambridge 
# Structural Database, then it will include bibliographic, chemical, 
# crystal, experimental, refinement or atomic coordinate data resulting 
# from the CCDC's data processing and validation procedures.
#
#######################################################################

data_VEKJAZ
_chemical_formula_moiety         'C33 H23 N1 O1 S1'
_chemical_name_systematic        
2-(1,3-benzothiazol-2-yl)-4-(triphenylethenyl)phenol
_symmetry_cell_setting           monoclinic
_symmetry_space_group_name_H-M   'P 21/c'
_symmetry_Int_Tables_number      14
_space_group_name_Hall           '-P 2ybc'
loop_
_symmetry_equiv_pos_site_id
_symmetry_equiv_pos_as_xyz
1 x,y,z
2 -x,1/2+y,1/2-z
3 -x,-y,-z
4 x,1/2-y,1/2+z
_cell_length_a                   13.4121(18)
_cell_length_b                   9.7801(12)
_cell_length_c                   20.066(3)
_cell_angle_alpha                90
_cell_angle_beta                 108.949(14)
_cell_angle_gamma                90
_cell_volume                     2489.45
_exptl_crystal_colour            yellow
_cell_formula_units_Z            4
loop_
_atom_site_label
_atom_site_type_symbol
_atom_site_fract_x
_atom_site_fract_y
_atom_site_fract_z
S1 S 0.72839(5) 0.44079(7) 0.40210(3)
O1 O 0.73274(12) 0.6437(2) 0.19616(9)
H1 H 0.7812 0.6097 0.2280
N1 N 0.82046(14) 0.5053(2) 0.31218(10)
C1 C 0.72926(17) 0.5083(2) 0.32201(12)
C2 C 0.63525(17) 0.5613(2) 0.27028(11)
C3 C 0.44502(17) 0.5879(2) 0.22743(12)
C4 C 0.53590(16) 0.5453(2) 0.27786(12)
H2 H 0.5313 0.5044 0.3186
C5 C 0.64112(17) 0.6259(2) 0.20957(12)
C6 C 0.33976(17) 0.5608(2) 0.23556(12)
C7 C 0.32893(16) 0.6065(3) 0.30383(12)
C8 C 0.15324(17) 0.4809(2) 0.18638(12)
C9 C 0.85955(18) 0.3993(3) 0.42217(13)
C10 C 0.26268(17) 0.4999(2) 0.18461(12)
C11 C 0.89620(18) 0.4431(2) 0.36812(12)
C12 C 0.45422(18) 0.6554(3) 0.16890(13)
H3 H 0.3938 0.6880 0.1349
C13 C 0.55051(19) 0.6751(3) 0.15996(13)
H4 H 0.5548 0.7215 0.1205
C14 C 0.10646(19) 0.3536(3) 0.17072(13)
H5 H 0.1444 0.2811 0.1610
C15 C 0.27908(18) 0.4471(2) 0.11908(12)
C16 C 0.35175(19) 0.7406(3) 0.32531(14)
H6 H 0.3731 0.8008 0.2968
C17 C 0.09420(18) 0.5870(3) 0.19898(13)
H7 H 0.1240 0.6735 0.2094
C18 C 0.3567(2) 0.3532(3) 0.12121(14)
H8 H 0.4002 0.3207 0.1644
C19 C 0.0041(2) 0.3330(3) 0.16944(13)
H9 H -0.0259 0.2464 0.1599
C20 C -0.0531(2) 0.4392(3) 0.18213(13)
H10 H -0.1222 0.4254 0.1812
C21 C 1.00020(19) 0.4205(3) 0.37289(14)
H11 H 1.0259 0.4506 0.3376
C22 C -0.00852(19) 0.5660(3) 0.19621(14)
H12 H -0.0479 0.6388 0.2040
C23 C 0.2993(2) 0.5196(3) 0.34781(14)
H13 H 0.2833 0.4289 0.3347
C24 C 0.9253(2) 0.3329(3) 0.48056(14)
H14 H 0.9010 0.3050 0.5168
C25 C 0.3434(2) 0.7864(3) 0.38799(15)
H15 H 0.3574 0.8775 0.4009
C26 C 0.3147(2) 0.6987(4) 0.43127(16)
H16 H 0.3099 0.7291 0.4740
C27 C 1.0641(2) 0.3531(3) 0.43051(16)
H17 H 1.1339 0.3364 0.4341
C28 C 0.2136(2) 0.4913(3) 0.05407(14)
H18 H 0.1588 0.5515 0.0514
C29 C 1.0271(2) 0.3090(3) 0.48375(15)
H19 H 1.0722 0.2626 0.5222
C30 C 0.2932(2) 0.5659(3) 0.41113(16)
H20 H 0.2740 0.5055 0.4407
C31 C 0.3705(2) 0.3069(3) 0.05992(18)
H21 H 0.4230 0.2434 0.0620
C32 C 0.2297(3) 0.4459(4) -0.00677(15)
H22 H 0.1870 0.4784 -0.0502
C33 C 0.3072(3) 0.3542(4) -0.00400(18)
H23 H 0.3170 0.3237 -0.0453
loop_
_geom_bond_atom_site_label_1
_geom_bond_atom_site_label_2
_geom_bond_site_symmetry_1
_geom_bond_site_symmetry_2
S1 C1 1_555 1_555
O1 H1 1_555 1_555
N1 C1 1_555 1_555
C1 C2 1_555 1_555
C2 C4 1_555 1_555
C3 C4 1_555 1_555
C4 H2 1_555 1_555
C5 O1 1_555 1_555
C6 C3 1_555 1_555
C7 C6 1_555 1_555
C8 C10 1_555 1_555
C9 S1 1_555 1_555
C10 C6 1_555 1_555
C11 N1 1_555 1_555
C12 C3 1_555 1_555
H3 C12 1_555 1_555
C13 C5 1_555 1_555
H4 C13 1_555 1_555
C14 C8 1_555 1_555
H5 C14 1_555 1_555
C15 C10 1_555 1_555
C16 C7 1_555 1_555
H6 C16 1_555 1_555
C17 C8 1_555 1_555
H7 C17 1_555 1_555
C18 C15 1_555 1_555
H8 C18 1_555 1_555
C19 C14 1_555 1_555
H9 C19 1_555 1_555
C20 C19 1_555 1_555
H10 C20 1_555 1_555
C21 C11 1_555 1_555
H11 C21 1_555 1_555
C22 C17 1_555 1_555
H12 C22 1_555 1_555
C23 C7 1_555 1_555
H13 C23 1_555 1_555
C24 C9 1_555 1_555
H14 C24 1_555 1_555
C25 C16 1_555 1_555
H15 C25 1_555 1_555
C26 C25 1_555 1_555
H16 C26 1_555 1_555
C27 C21 1_555 1_555
H17 C27 1_555 1_555
C28 C15 1_555 1_555
H18 C28 1_555 1_555
C29 C24 1_555 1_555
H19 C29 1_555 1_555
C30 C23 1_555 1_555
H20 C30 1_555 1_555
C31 C18 1_555 1_555
H21 C31 1_555 1_555
C32 C28 1_555 1_555
H22 C32 1_555 1_555
C33 C31 1_555 1_555
H23 C33 1_555 1_555
C2 C5 1_555 1_555
C9 C11 1_555 1_555
C12 C13 1_555 1_555
C20 C22 1_555 1_555
C26 C30 1_555 1_555
C27 C29 1_555 1_555
C32 C33 1_555 1_555

#END
