
#######################################################################
#
#                 Cambridge Crystallographic Data Centre
#                                CCDC 
#
#######################################################################
#
# If this CIF has been generated from an entry in the Cambridge 
# Structural Database, then it will include bibliographic, chemical, 
# crystal, experimental, refinement or atomic coordinate data resulting 
# from the CCDC's data processing and validation procedures.
#
#######################################################################

data_VEKKOO
_chemical_formula_moiety         'C10 H12 N3 1+,0.5(C4 H4 O4 2-)'
_chemical_name_systematic        
'7-amino-2,4-dimethyl-1,8-naphthyridin-1-ium hemikis(succinate)'
_symmetry_cell_setting           monoclinic
_symmetry_space_group_name_H-M   'P 21/c'
_symmetry_Int_Tables_number      14
_space_group_name_Hall           '-P 2ybc'
loop_
_symmetry_equiv_pos_site_id
_symmetry_equiv_pos_as_xyz
1 x,y,z
2 -x,1/2+y,1/2-z
3 -x,-y,-z
4 x,1/2-y,1/2+z
_cell_length_a                   9.0930(7)
_cell_length_b                   17.9736(15)
_cell_length_c                   7.1688(5)
_cell_angle_alpha                90
_cell_angle_beta                 112.953(2)
_cell_angle_gamma                90
_cell_volume                     1078.86
_exptl_crystal_colour            colorless
_exptl_crystal_description       block
_cell_formula_units_Z            4
loop_
_atom_site_label
_atom_site_type_symbol
_atom_site_fract_x
_atom_site_fract_y
_atom_site_fract_z
N1 N 0.7604(2) 0.32605(10) 0.7342(3)
N2 N 0.5666(2) 0.24281(10) 0.5545(3)
H1 H 0.5087 0.2807 0.4979
N3 N 0.9507(3) 0.41006(11) 0.9136(3)
H2 H 0.8869 0.4453 0.8500
H3 H 1.0439 0.4204 1.0031
C1 C 0.9054(3) 0.33941(13) 0.8736(4)
C2 C 1.0126(3) 0.28123(13) 0.9806(4)
H4 H 1.1123 0.2926 1.0795
C3 C 0.9672(3) 0.20978(14) 0.9360(4)
H5 H 1.0369 0.1716 1.0023
C4 C 0.8131(3) 0.19265(12) 0.7879(4)
C5 C 0.7171(3) 0.25471(12) 0.6958(3)
C6 C 0.5053(3) 0.17472(12) 0.5002(4)
C7 C 0.5992(3) 0.11353(13) 0.5887(4)
H6 H 0.5577 0.0661 0.5501
C8 C 0.7521(3) 0.12097(12) 0.7323(4)
C9 C 0.3399(3) 0.16854(14) 0.3450(4)
H7 H 0.2822 0.2134 0.3439
H8 H 0.2873 0.1270 0.3766
H9 H 0.3433 0.1612 0.2141
C10 C 0.8494(3) 0.05333(14) 0.8287(4)
H10 H 0.8577 0.0490 0.9660
H11 H 0.9542 0.0580 0.8277
H12 H 0.7983 0.0097 0.7541
O1 O 0.6442(2) 0.65068(9) 0.6413(3)
O2 O 0.7538(2) 0.54373(10) 0.7750(3)
C11 C 0.6464(3) 0.58038(14) 0.6458(4)
C12 C 0.5105(3) 0.54002(13) 0.4828(4)
H13 H 0.4119 0.5656 0.4648
H14 H 0.5257 0.5445 0.3567
O1B O 0.3558(2) 0.34932(9) 0.3587(3)
O2B O 0.2462(2) 0.45627(10) 0.2250(3)
C11B C 0.3536(3) 0.41962(14) 0.3542(4)
C12B C 0.4895(3) 0.45998(13) 0.5172(4)
H13B H 0.5881 0.4344 0.5352
H14B H 0.4743 0.4555 0.6433
loop_
_geom_bond_atom_site_label_1
_geom_bond_atom_site_label_2
_geom_bond_site_symmetry_1
_geom_bond_site_symmetry_2
N1 C1 1_555 1_555
N2 H1 1_555 1_555
N3 H2 1_555 1_555
H3 N3 1_555 1_555
C1 N3 1_555 1_555
C2 C1 1_555 1_555
H4 C2 1_555 1_555
C3 C2 1_555 1_555
H5 C3 1_555 1_555
C4 C3 1_555 1_555
C5 N1 1_555 1_555
C6 N2 1_555 1_555
C7 C6 1_555 1_555
H6 C7 1_555 1_555
C8 C4 1_555 1_555
C9 C6 1_555 1_555
H7 C9 1_555 1_555
H8 C9 1_555 1_555
H9 C9 1_555 1_555
C10 C8 1_555 1_555
H10 C10 1_555 1_555
H11 C10 1_555 1_555
H12 C10 1_555 1_555
O1 C11 1_555 1_555
O2 C11 1_555 1_555
C11 C12 1_555 1_555
C12 H13 1_555 1_555
H14 C12 1_555 1_555
O1B C11B 1_555 1_555
O2B C11B 1_555 1_555
C11B C12B 1_555 1_555
C12B C12 1_555 1_555
H13B C12B 1_555 1_555
H14B C12B 1_555 1_555
N2 C5 1_555 1_555
C4 C5 1_555 1_555
C7 C8 1_555 1_555

#END
