
#######################################################################
#
#                 Cambridge Crystallographic Data Centre
#                                CCDC 
#
#######################################################################
#
# If this CIF has been generated from an entry in the Cambridge 
# Structural Database, then it will include bibliographic, chemical, 
# crystal, experimental, refinement or atomic coordinate data resulting 
# from the CCDC's data processing and validation procedures.
#
#######################################################################

data_VEKLEF
_chemical_formula_moiety         
'C10 H12 N3 1+,C10 H11 N3,0.5(C8 H10 O4 2-),4(H2 O1)'
_chemical_name_systematic        
'7-amino-2,4-dimethyl-1,8-naphthyridin-8-ium 7-amino-2,4-dimethyl-1,8-naphthyridine hemikis(cyclohexane-1,4-dicarboxylate) tetrahydrate'
_symmetry_cell_setting           triclinic
_symmetry_space_group_name_H-M   'P -1'
_symmetry_Int_Tables_number      2
_space_group_name_Hall           '-P 1'
loop_
_symmetry_equiv_pos_site_id
_symmetry_equiv_pos_as_xyz
1 x,y,z
2 -x,-y,-z
_cell_length_a                   9.6051(8)
_cell_length_b                   11.0207(11)
_cell_length_c                   13.3122(14)
_cell_angle_alpha                110.297(2)
_cell_angle_beta                 103.8920(10)
_cell_angle_gamma                92.1330(10)
_cell_volume                     1271.72
_exptl_crystal_colour            colorless
_exptl_crystal_description       block
_cell_formula_units_Z            2
loop_
_atom_site_label
_atom_site_type_symbol
_atom_site_fract_x
_atom_site_fract_y
_atom_site_fract_z
N1 N 0.4984(3) 0.7832(3) 0.0533(2)
N2 N 0.5624(3) 0.6424(3) -0.0951(2)
N3 N 0.4265(3) 0.9212(3) 0.1973(2)
H1 H 0.3754 0.9530 0.1523
H2 H 0.4278 0.9510 0.2664
C1 C 0.5032(4) 0.8265(3) 0.1602(3)
C2 C 0.5872(4) 0.7756(4) 0.2349(3)
H3 H 0.5905 0.8096 0.3100
C3 C 0.6610(4) 0.6795(4) 0.1972(3)
H4 H 0.7165 0.6457 0.2463
C4 C 0.6573(4) 0.6270(3) 0.0838(3)
C5 C 0.5746(4) 0.6837(3) 0.0149(3)
C6 C 0.6311(4) 0.5446(4) -0.1388(3)
C7 C 0.7150(4) 0.4855(4) -0.0756(3)
H5 H 0.7633 0.4180 -0.1094
C8 C 0.7294(4) 0.5237(4) 0.0360(3)
C9 C 0.6126(5) 0.4987(4) -0.2605(3)
H6 H 0.5202 0.4465 -0.2988
H7 H 0.6879 0.4474 -0.2789
H8 H 0.6180 0.5726 -0.2825
C10 C 0.8175(5) 0.4554(4) 0.1040(3)
H9 H 0.8508 0.3822 0.0560
H10 H 0.7589 0.4254 0.1421
H11 H 0.8992 0.5149 0.1575
N4 N 0.6739(3) 1.1055(3) 0.1027(2)
H12 H 0.6228 1.1358 0.0566
N5 N 0.7462(3) 0.9724(3) -0.0438(2)
N6 N 0.5898(3) 1.2444(3) 0.2402(2)
H13 H 0.5402 1.2737 0.1927
H14 H 0.5867 1.2754 0.3083
C11 C 0.6695(4) 1.1533(3) 0.2090(3)
C12 C 0.7572(4) 1.1038(4) 0.2843(3)
H15 H 0.7569 1.1358 0.3587
C13 C 0.8391(4) 1.0127(4) 0.2498(3)
H16 H 0.8956 0.9817 0.3005
C14 C 0.8423(4) 0.9622(3) 0.1383(3)
C15 C 0.7563(4) 1.0103(3) 0.0649(3)
C16 C 0.8246(4) 0.8804(4) -0.0834(3)
C17 C 0.9140(4) 0.8277(4) -0.0167(4)
H17 H 0.9681 0.7640 -0.0482
C18 C 0.9252(4) 0.8660(4) 0.0929(4)
C19 C 0.8110(5) 0.8373(4) -0.2052(3)
H18 H 0.7167 0.7896 -0.2461
H19 H 0.8835 0.7822 -0.2232
H20 H 0.8239 0.9123 -0.2246
C20 C 1.0245(5) 0.8094(4) 0.1655(4)
H21 H 0.9699 0.7721 0.2018
H22 H 1.0977 0.8771 0.2204
H23 H 1.0694 0.7430 0.1207
O1 O 0.6738(3) 0.6079(2) 0.5324(2)
O2 O 0.7705(3) 0.7763(3) 0.5102(2)
C21 C 0.7756(4) 0.6705(4) 0.5221(3)
C22 C 0.9165(4) 0.6109(3) 0.5227(3)
H24 H 0.9951 0.6824 0.5458
C23 C 0.9104(4) 0.5235(4) 0.4071(3)
H25 H 0.8945 0.5735 0.3591
H26 H 0.8288 0.4554 0.3804
C24 C 0.9529(4) 0.5389(4) 0.6007(3)
H27 H 0.8732 0.4717 0.5832
H28 H 0.9652 0.5990 0.6763
O1A O 1.3262(3) 0.3921(2) 0.4676(2)
O2A O 1.2295(3) 0.2237(3) 0.4898(2)
C21A C 1.2244(4) 0.3295(4) 0.4779(3)
C22A C 1.0835(4) 0.3891(3) 0.4773(3)
H24A H 1.0049 0.3176 0.4542
C23A C 1.0896(4) 0.4765(4) 0.5929(3)
H25A H 1.1055 0.4265 0.6409
H26A H 1.1712 0.5446 0.6196
C24A C 1.0471(4) 0.4611(4) 0.3993(3)
H27A H 1.1268 0.5283 0.4168
H28A H 1.0348 0.4010 0.3237
O3 O 0.6186(3) 0.9849(2) 0.5788(2)
H29 H 0.6664 0.9218 0.5580
H30 H 0.6649 1.0539 0.5819
O4 O 0.4046(2) 0.6553(2) 0.53302(18)
H32 H 0.4940 0.6543 0.5365
H33 H 0.3658 0.5770 0.5128
O5 O 0.9747(3) 0.8702(3) 0.4381(2)
H34 H 0.9104 0.8383 0.4593
H35 H 0.9930 0.9518 0.4753
O6 O 0.7679(3) 0.2138(3) 0.5908(3)
H37 H 0.7133 0.2510 0.5534
H38 H 0.8414 0.1955 0.5661
H31? H 0.5353 0.9695 0.5331
H36? H 1.0510 0.8345 0.4489
H39? H 0.7198 0.1446 0.5855
loop_
_geom_bond_atom_site_label_1
_geom_bond_atom_site_label_2
_geom_bond_site_symmetry_1
_geom_bond_site_symmetry_2
N1 C1 1_555 1_555
N2 C5 1_555 1_555
N3 H1 1_555 1_555
H2 N3 1_555 1_555
C1 N3 1_555 1_555
C2 C1 1_555 1_555
H3 C2 1_555 1_555
C3 C2 1_555 1_555
H4 C3 1_555 1_555
C4 C3 1_555 1_555
C5 N1 1_555 1_555
C6 N2 1_555 1_555
C7 C6 1_555 1_555
H5 C7 1_555 1_555
C8 C4 1_555 1_555
C9 C6 1_555 1_555
H6 C9 1_555 1_555
H7 C9 1_555 1_555
H8 C9 1_555 1_555
C10 C8 1_555 1_555
H9 C10 1_555 1_555
H10 C10 1_555 1_555
H11 C10 1_555 1_555
N4 H12 1_555 1_555
N5 C15 1_555 1_555
N6 H13 1_555 1_555
H14 N6 1_555 1_555
C11 N4 1_555 1_555
C12 C11 1_555 1_555
H15 C12 1_555 1_555
C13 C12 1_555 1_555
H16 C13 1_555 1_555
C14 C13 1_555 1_555
C15 N4 1_555 1_555
C16 N5 1_555 1_555
C17 C16 1_555 1_555
H17 C17 1_555 1_555
C18 C14 1_555 1_555
C19 C16 1_555 1_555
H18 C19 1_555 1_555
H19 C19 1_555 1_555
H20 C19 1_555 1_555
C20 C18 1_555 1_555
H21 C20 1_555 1_555
H22 C20 1_555 1_555
H23 C20 1_555 1_555
O1 C21 1_555 1_555
O2 C21 1_555 1_555
C21 C22 1_555 1_555
C22 H24 1_555 1_555
C23 C22 1_555 1_555
H25 C23 1_555 1_555
H26 C23 1_555 1_555
C24 C22 1_555 1_555
H27 C24 1_555 1_555
H28 C24 1_555 1_555
O3 H29 1_555 1_555
H30 O3 1_555 1_555
O4 H32 1_555 1_555
H33 O4 1_555 1_555
O5 H34 1_555 1_555
H35 O5 1_555 1_555
O6 H37 1_555 1_555
H38 O6 1_555 1_555
O1A C21A 1_555 1_555
O2A C21A 1_555 1_555
C21A C22A 1_555 1_555
C22A H24A 1_555 1_555
C23A C24 1_555 1_555
H25A C23A 1_555 1_555
H26A C23A 1_555 1_555
C24A C23 1_555 1_555
H27A C24A 1_555 1_555
H28A C24A 1_555 1_555
C4 C5 1_555 1_555
C7 C8 1_555 1_555
N6 C11 1_555 1_555
C14 C15 1_555 1_555
C17 C18 1_555 1_555
C22A C23A 1_555 1_555
C22A C24A 1_555 1_555

#END
