
#######################################################################
#
#                 Cambridge Crystallographic Data Centre
#                                CCDC 
#
#######################################################################
#
# If this CIF has been generated from an entry in the Cambridge 
# Structural Database, then it will include bibliographic, chemical, 
# crystal, experimental, refinement or atomic coordinate data resulting 
# from the CCDC's data processing and validation procedures.
#
#######################################################################

data_VEKPAD
_chemical_formula_moiety         'C8 H4 Br2 S4 Se2'
_chemical_name_systematic        
4,5-Dibromo-4',5'-ethylenedithiodiselenadithiafulvalene
_symmetry_cell_setting           monoclinic
_symmetry_space_group_name_H-M   'P 21/n'
_symmetry_Int_Tables_number      14
_space_group_name_Hall           '-P 2yn'
loop_
_symmetry_equiv_pos_site_id
_symmetry_equiv_pos_as_xyz
1 x,y,z
2 1/2-x,1/2+y,1/2-z
3 -x,-y,-z
4 1/2+x,1/2-y,1/2+z
_cell_length_a                   6.67520(10)
_cell_length_b                   8.1972(2)
_cell_length_c                   24.320(5)
_cell_angle_alpha                90
_cell_angle_beta                 96.35(3)
_cell_angle_gamma                90
_cell_volume                     1322.58
_exptl_crystal_colour            red
_exptl_crystal_description       rods
_chemical_melting_point          271deg.C
_cell_formula_units_Z            4
loop_
_atom_site_label
_atom_site_type_symbol
_atom_site_fract_x
_atom_site_fract_y
_atom_site_fract_z
Se1 Se 0.18823(14) 0.44848(14) 0.09934(4)
Br1 Br 0.83417(17) 0.06010(16) -0.08088(5)
Se2 Se 0.65334(15) 0.39493(15) 0.14286(4)
Br2 Br 0.33122(16) 0.11574(15) -0.13310(4)
S1 S 0.2870(3) 0.2810(3) -0.02040(9)
S2 S 0.6187(4) 0.5743(4) 0.25116(9)
S3 S 0.7219(3) 0.2368(3) 0.02290(9)
S4 S 0.1096(3) 0.6329(3) 0.20494(9)
C1 C 0.4892(14) 0.5102(12) 0.1884(4)
C2 C 0.2918(14) 0.5358(12) 0.1696(4)
C3 C 0.4314(17) 0.6669(15) 0.2873(4)
H1 H 0.4730 0.6577 0.3267
H2 H 0.4257 0.7822 0.2783
C4 C 0.4479(13) 0.3714(12) 0.0839(4)
C5 C 0.4453(14) 0.1815(13) -0.0622(4)
C6 C 0.4775(14) 0.3070(13) 0.0349(4)
C7 C 0.6380(14) 0.1576(12) -0.0430(4)
C8 C 0.2166(16) 0.5949(16) 0.2753(4)
H3 H 0.1302 0.6427 0.3005
H4 H 0.2219 0.4782 0.2818
loop_
_geom_bond_atom_site_label_1
_geom_bond_atom_site_label_2
_geom_bond_site_symmetry_1
_geom_bond_site_symmetry_2
Se1 C2 1_555 1_555
Br1 C7 1_555 1_555
Se2 C1 1_555 1_555
Br2 C5 1_555 1_555
S1 C5 1_555 1_555
S2 C1 1_555 1_555
S3 C6 1_555 1_555
S4 C2 1_555 1_555
C1 C2 1_555 1_555
C3 S2 1_555 1_555
H1 C3 1_555 1_555
H2 C3 1_555 1_555
C4 Se1 1_555 1_555
C5 C7 1_555 1_555
C6 S1 1_555 1_555
C7 S3 1_555 1_555
C8 S4 1_555 1_555
H3 C8 1_555 1_555
H4 C8 1_555 1_555
Se2 C4 1_555 1_555
C3 C8 1_555 1_555
C4 C6 1_555 1_555

#END
