
#######################################################################
#
#                 Cambridge Crystallographic Data Centre
#                                CCDC 
#
#######################################################################
#
# If this CIF has been generated from an entry in the Cambridge 
# Structural Database, then it will include bibliographic, chemical, 
# crystal, experimental, refinement or atomic coordinate data resulting 
# from the CCDC's data processing and validation procedures.
#
#######################################################################

data_VEKRIN
_chemical_formula_moiety         'C22 H28 O6'
_chemical_name_systematic        3,3'-Dimethyldibenzo-18-crown-6
_symmetry_cell_setting           orthorhombic
_symmetry_space_group_name_H-M   'P n a 21'
_symmetry_Int_Tables_number      33
_space_group_name_Hall           'P 2c -2n'
loop_
_symmetry_equiv_pos_site_id
_symmetry_equiv_pos_as_xyz
1 x,y,z
2 -x,-y,1/2+z
3 1/2+x,1/2-y,z
4 1/2-x,1/2+y,1/2+z
_cell_length_a                   8.0790(18)
_cell_length_b                   16.780(4)
_cell_length_c                   15.222(3)
_cell_angle_alpha                90
_cell_angle_beta                 90
_cell_angle_gamma                90
_cell_volume                     2063.58
_chemical_melting_point          '89-92 deg.C'
_cell_formula_units_Z            4
_exptl_crystal_recrystallization_method n-heptane
loop_
_atom_site_label
_atom_site_type_symbol
_atom_site_fract_x
_atom_site_fract_y
_atom_site_fract_z
O1 O 0.2596(4) 0.42585(18) 0.57398(19)
O2 O 0.2163(4) 0.27122(18) 0.60249(18)
O3 O 0.1978(4) 0.20463(19) 0.77210(19)
O4 O 0.3559(4) 0.26021(19) 0.98340(19)
O5 O 0.3850(4) 0.4180(2) 0.9629(2)
O6 O 0.3040(4) 0.48401(19) 0.7991(2)
C1 C 0.1515(5) 0.3840(3) 0.5206(3)
C2 C 0.0717(6) 0.4226(3) 0.4525(3)
C3 C -0.0240(6) 0.3765(4) 0.3956(3)
H1 H -0.0769 0.4012 0.3487
C4 C -0.0423(6) 0.2971(4) 0.4068(3)
H2 H -0.1077 0.2681 0.3679
C5 C 0.0350(6) 0.2590(3) 0.4750(3)
H3 H 0.0219 0.2044 0.4828
C6 C 0.1330(5) 0.3027(3) 0.5323(3)
C7 C 0.2006(6) 0.1882(3) 0.6188(3)
H4 H 0.2498 0.1578 0.5713
H5 H 0.0849 0.1735 0.6237
C8 C 0.2887(6) 0.1721(3) 0.7028(3)
H6 H 0.3009 0.1151 0.7111
H7 H 0.3983 0.1958 0.7011
C9 C 0.2849(10) 0.2055(4) 0.8507(4)
H8 H 0.2614 0.1561 0.8814
H9 H 0.4021 0.2054 0.8368
C10 C 0.2568(7) 0.2650(4) 0.9058(4)
H10 H 0.1408 0.2647 0.9223
H11 H 0.2794 0.3150 0.8763
C11 C 0.3069(6) 0.3100(3) 1.0512(3)
C12 C 0.2535(6) 0.2760(4) 1.1289(3)
C13 C 0.2101(6) 0.3275(4) 1.1977(3)
H12 H 0.1726 0.3064 1.2506
C14 C 0.2222(7) 0.4075(5) 1.1881(4)
H13 H 0.1926 0.4403 1.2347
C15 C 0.2774(6) 0.4420(3) 1.1107(4)
H14 H 0.2844 0.4971 1.1051
C16 C 0.3219(6) 0.3923(3) 1.0417(3)
C17 C 0.3936(6) 0.5001(3) 0.9458(3)
H15 H 0.4769 0.5249 0.9827
H16 H 0.2877 0.5252 0.9575
C18 C 0.4382(6) 0.5089(3) 0.8513(3)
H17 H 0.4643 0.5642 0.8387
H18 H 0.5350 0.4769 0.8382
C19 C 0.3502(6) 0.4700(3) 0.7109(3)
H19 H 0.4388 0.4310 0.7087
H20 H 0.3898 0.5190 0.6845
C20 C 0.2052(6) 0.4402(3) 0.6621(3)
H21 H 0.1645 0.3913 0.6884
H22 H 0.1170 0.4794 0.6628
C21 C 0.0920(6) 0.5096(3) 0.4397(3)
H23 H 0.0278 0.5265 0.3900
H24 H 0.2066 0.5216 0.4296
H25 H 0.0548 0.5372 0.4913
C22 C 0.2419(8) 0.1890(4) 1.1394(4)
H26 H 0.2002 0.1767 1.1969
H27 H 0.3497 0.1657 1.1324
H28 H 0.1684 0.1677 1.0958
loop_
_geom_bond_atom_site_label_1
_geom_bond_atom_site_label_2
_geom_bond_site_symmetry_1
_geom_bond_site_symmetry_2
O1 C1 1_555 1_555
O2 C6 1_555 1_555
O3 C8 1_555 1_555
O4 C10 1_555 1_555
O5 C16 1_555 1_555
O6 C18 1_555 1_555
C1 C2 1_555 1_555
C2 C3 1_555 1_555
C3 H1 1_555 1_555
C4 C3 1_555 1_555
H2 C4 1_555 1_555
C5 C4 1_555 1_555
H3 C5 1_555 1_555
C6 C1 1_555 1_555
C7 O2 1_555 1_555
H4 C7 1_555 1_555
H5 C7 1_555 1_555
C8 C7 1_555 1_555
H6 C8 1_555 1_555
H7 C8 1_555 1_555
C9 O3 1_555 1_555
H8 C9 1_555 1_555
H9 C9 1_555 1_555
C10 C9 1_555 1_555
H10 C10 1_555 1_555
H11 C10 1_555 1_555
C11 O4 1_555 1_555
C12 C11 1_555 1_555
C13 C12 1_555 1_555
H12 C13 1_555 1_555
C14 C13 1_555 1_555
H13 C14 1_555 1_555
C15 C14 1_555 1_555
H14 C15 1_555 1_555
C16 C11 1_555 1_555
C17 O5 1_555 1_555
H15 C17 1_555 1_555
H16 C17 1_555 1_555
C18 C17 1_555 1_555
H17 C18 1_555 1_555
H18 C18 1_555 1_555
C19 O6 1_555 1_555
H19 C19 1_555 1_555
H20 C19 1_555 1_555
C20 O1 1_555 1_555
H21 C20 1_555 1_555
H22 C20 1_555 1_555
C21 C2 1_555 1_555
H23 C21 1_555 1_555
H24 C21 1_555 1_555
H25 C21 1_555 1_555
C22 C12 1_555 1_555
H26 C22 1_555 1_555
H27 C22 1_555 1_555
H28 C22 1_555 1_555
C5 C6 1_555 1_555
C15 C16 1_555 1_555
C19 C20 1_555 1_555

#END
