
#######################################################################
#
#                 Cambridge Crystallographic Data Centre
#                                CCDC 
#
#######################################################################
#
# If this CIF has been generated from an entry in the Cambridge 
# Structural Database, then it will include bibliographic, chemical, 
# crystal, experimental, refinement or atomic coordinate data resulting 
# from the CCDC's data processing and validation procedures.
#
#######################################################################

data_VEKRAG
_chemical_formula_moiety         'C18 H21 N1'
_chemical_name_systematic        
12,12-Dimethyl-8,9,10,11,11a,12-hexahydrobenzo[e]pyrido[1,2-a]indole
_symmetry_cell_setting           tetragonal
_symmetry_space_group_name_H-M   'I 41/a'
_symmetry_Int_Tables_number      88
_space_group_name_Hall           '-I 4ad'
loop_
_symmetry_equiv_pos_site_id
_symmetry_equiv_pos_as_xyz
1 x,y,z
2 3/4-y,1/4+x,1/4+z
3 1/2-x,-y,1/2+z
4 3/4+y,3/4-x,3/4+z
5 1/2+x,1/2+y,1/2+z
6 1/4-y,3/4+x,3/4+z
7 -x,1/2-y,z
8 1/4+y,1/4-x,1/4+z
9 -x,-y,-z
10 1/4+y,3/4-x,3/4-z
11 1/2+x,y,1/2-z
12 1/4-y,1/4+x,1/4-z
13 1/2-x,1/2-y,1/2-z
14 3/4+y,1/4-x,1/4-z
15 x,1/2+y,-z
16 3/4-y,3/4+x,3/4-z
_cell_length_a                   22.0448(7)
_cell_length_b                   22.0448(7)
_cell_length_c                   11.7136(4)
_cell_angle_alpha                90
_cell_angle_beta                 90
_cell_angle_gamma                90
_cell_volume                     5692.5
_exptl_crystal_colour            colorless
_exptl_crystal_description       prism
_cell_formula_units_Z            16
loop_
_atom_site_label
_atom_site_type_symbol
_atom_site_fract_x
_atom_site_fract_y
_atom_site_fract_z
C1 C 0.90529(8) 0.08805(7) 0.24596(15)
C2 C 0.90053(8) 0.13890(8) 0.17735(15)
C3 C 0.92202(8) 0.09408(8) 0.36217(15)
C4 C 0.93325(8) 0.15344(9) 0.40572(16)
C5 C 0.92825(10) 0.04451(10) 0.43955(18)
C6 C 0.89551(9) 0.03125(8) 0.17236(16)
C7 C 0.92738(9) 0.20401(9) 0.33231(18)
C8 C 0.91114(9) 0.19800(9) 0.22022(18)
N1 N 0.88892(8) 0.12342(7) 0.06449(14)
C9 C 0.84986(14) -0.01450(11) 0.2182(2)
C10 C 0.95696(12) 0.00194(13) 0.1471(2)
C11 C 0.86806(11) 0.06159(9) 0.06313(17)
C12 C 0.95031(10) 0.16041(11) 0.52211(19)
C13 C 0.94452(11) 0.05350(12) 0.55101(19)
C14 C 0.87567(12) 0.03289(12) -0.0520(2)
C15 C 0.86250(11) 0.16431(11) -0.01739(18)
C16 C 0.84659(13) 0.07247(14) -0.1429(2)
C17 C 0.95571(12) 0.11179(12) 0.59259(19)
C18 C 0.86565(14) 0.13826(14) -0.1363(2)
H1 H 0.9346(10) 0.2454(11) 0.362(2)
H2 H 0.9055(9) 0.2328(10) 0.1719(18)
H3 H 0.9579(11) 0.2015(12) 0.549(2)
H4 H 0.9507(11) -0.0357(12) 0.102(2)
H5 H 0.9719(10) -0.0149(10) 0.217(2)
H6 H 0.9890(15) 0.0336(15) 0.104(3)
H7 H 0.9476(11) 0.0187(12) 0.606(2)
H8 H 0.9688(12) 0.1167(12) 0.673(2)
H9 H 0.8369(12) -0.0412(13) 0.160(2)
H10 H 0.8144(15) 0.0076(13) 0.247(2)
H11 H 0.8719(14) -0.0380(14) 0.281(3)
H12 H 0.8157(12) 0.1707(12) 0.004(2)
H13 H 0.8794(11) 0.2047(12) -0.011(2)
H14 H 0.8439(12) 0.1667(12) -0.192(2)
H15 H 0.9128(14) 0.1363(13) -0.164(3)
H16 H 0.8533(12) 0.0548(12) -0.215(2)
H17 H 0.7978(16) 0.0711(14) -0.127(3)
H18 H 0.9235(14) 0.0303(12) -0.070(2)
H19 H 0.8622(11) -0.0070(12) -0.051(2)
H20 H 0.9195(11) 0.0052(11) 0.417(2)
H21 H 0.8194(12) 0.0639(11) 0.076(2)
loop_
_geom_bond_atom_site_label_1
_geom_bond_atom_site_label_2
_geom_bond_site_symmetry_1
_geom_bond_site_symmetry_2
C1 C2 1_555 1_555
C2 C8 1_555 1_555
C3 C1 1_555 1_555
C4 C3 1_555 1_555
C5 C3 1_555 1_555
C6 C1 1_555 1_555
C7 C4 1_555 1_555
C8 C7 1_555 1_555
N1 C2 1_555 1_555
C9 C6 1_555 1_555
C10 C6 1_555 1_555
C11 C6 1_555 1_555
C12 C4 1_555 1_555
C13 C5 1_555 1_555
C14 C11 1_555 1_555
C15 N1 1_555 1_555
C16 C14 1_555 1_555
C17 C12 1_555 1_555
C18 C15 1_555 1_555
H1 C7 1_555 1_555
H2 C8 1_555 1_555
H3 C12 1_555 1_555
H4 C10 1_555 1_555
H5 C10 1_555 1_555
H6 C10 1_555 1_555
H7 C13 1_555 1_555
H8 C17 1_555 1_555
H9 C9 1_555 1_555
H10 C9 1_555 1_555
H11 C9 1_555 1_555
H12 C15 1_555 1_555
H13 C15 1_555 1_555
H14 C18 1_555 1_555
H15 C18 1_555 1_555
H16 C16 1_555 1_555
H17 C16 1_555 1_555
H18 C14 1_555 1_555
H19 C14 1_555 1_555
H20 C5 1_555 1_555
H21 C11 1_555 1_555
N1 C11 1_555 1_555
C13 C17 1_555 1_555
C16 C18 1_555 1_555

#END
