
#######################################################################
#
#                 Cambridge Crystallographic Data Centre
#                                CCDC 
#
#######################################################################
#
# If this CIF has been generated from an entry in the Cambridge 
# Structural Database, then it will include bibliographic, chemical, 
# crystal, experimental, refinement or atomic coordinate data resulting 
# from the CCDC's data processing and validation procedures.
#
#######################################################################

data_VEKTIQ
_chemical_formula_moiety         'C33 H33 N3 O5'
_chemical_name_systematic        
(6-(2-Allyl-3,4-dimethoxyphenyl)-2,4-dihydroxy-2,4-bis(pyridin-2-yl)cyclohexyl)(pyridin-2-yl)methanone
_symmetry_cell_setting           triclinic
_symmetry_space_group_name_H-M   'P -1'
_symmetry_Int_Tables_number      2
_space_group_name_Hall           '-P 1'
loop_
_symmetry_equiv_pos_site_id
_symmetry_equiv_pos_as_xyz
1 x,y,z
2 -x,-y,-z
_cell_length_a                   10.3140(3)
_cell_length_b                   11.3462(3)
_cell_length_c                   13.1298(4)
_cell_angle_alpha                77.8390(10)
_cell_angle_beta                 79.7900(10)
_cell_angle_gamma                67.9980(10)
_cell_volume                     1384.42
_exptl_crystal_colour            colorless
_cell_formula_units_Z            2
loop_
_atom_site_label
_atom_site_type_symbol
_atom_site_fract_x
_atom_site_fract_y
_atom_site_fract_z
O1 O 0.13671(10) 1.22538(9) 0.14904(7)
O2 O 0.13731(9) 1.13662(8) 0.35442(7)
O3 O 0.69991(10) 0.82164(9) 0.41045(7)
O4 O 0.76779(10) 0.56104(9) 0.42309(7)
H1 H 0.7452 0.6295 0.4477
O5 O 0.55978(10) 0.46724(9) 0.39678(7)
H2 H 0.6026 0.4901 0.4333
N1 N 0.78503(11) 0.93255(10) 0.14471(9)
N2 N 0.98460(11) 0.57661(10) 0.17312(8)
N3 N 0.60571(12) 0.42482(11) 0.12668(9)
C1 C 0.53585(15) 0.24675(14) 0.12195(12)
H3 H 0.5201 0.1942 0.0814
C2 C 0.51336(14) 0.22509(13) 0.22931(12)
H4 H 0.4829 0.1562 0.2644
C3 C 0.53565(14) 0.30498(13) 0.28633(11)
H5 H 0.5198 0.2923 0.3607
C4 C 0.58189(13) 0.40420(12) 0.23162(10)
C5 C 0.60413(13) 0.49862(12) 0.28817(10)
C6 C 0.51272(13) 0.63674(12) 0.24594(10)
H6 H 0.5338 0.6528 0.1688
H7 H 0.4123 0.6455 0.2618
C7 C 0.53737(13) 0.73821(12) 0.29334(10)
H8 H 0.5173 0.7196 0.3712
C8 C 0.69366(13) 0.72554(12) 0.26759(10)
H9 H 0.7158 0.7421 0.1898
C9 C 0.72414(13) 0.82186(12) 0.31556(10)
C10 C 0.78918(13) 0.91423(12) 0.24881(10)
C11 C 0.84944(14) 0.97633(13) 0.29703(11)
H10 H 0.8515 0.9591 0.3708
C12 C 0.90644(15) 1.06406(14) 0.23472(12)
H11 H 0.9487 1.1079 0.2649
C13 C 0.90029(15) 1.08599(14) 0.12809(12)
H12 H 0.9372 1.1462 0.0835
C14 C 0.14591(15) 1.28419(13) 0.04174(10)
H13 H 0.2366 1.2967 0.0223
H14 H 0.0695 1.3677 0.0322
H15 H 0.1379 1.2285 -0.0028
C15 C 0.24033(13) 1.11045(12) 0.17773(10)
C16 C 0.24128(13) 1.06653(12) 0.28568(10)
C17 C 0.15168(15) 1.25467(13) 0.36407(11)
H16 H 0.2377 1.2354 0.3962
H17 H 0.0701 1.3032 0.4082
H18 H 0.1570 1.3061 0.2945
C18 C 0.33944(13) 0.94971(12) 0.32581(10)
C19 C 0.33233(14) 0.91050(13) 0.44336(10)
H19 H 0.4283 0.8585 0.4626
H20 H 0.2987 0.9890 0.4765
C20 C 0.23741(16) 0.83419(14) 0.48674(11)
H21 H 0.2320 0.8045 0.5601
C21 C 0.16180(17) 0.80502(16) 0.43292(13)
H22 H 0.1638 0.8327 0.3593
H23 H 0.1048 0.7562 0.4674
C22 C 0.43722(13) 0.87255(12) 0.25554(10)
C23 C 0.83917(15) 1.01845(14) 0.08681(11)
H24 H 0.8357 1.0344 0.0132
C24 C 0.79159(13) 0.58742(12) 0.31068(9)
C25 C 0.94448(13) 0.57708(11) 0.27599(10)
C26 C 1.11810(14) 0.56591(13) 0.13873(11)
H25 H 1.1474 0.5658 0.0659
C27 C 1.21570(14) 0.55504(13) 0.20314(11)
H26 H 1.3101 0.5453 0.1756
C28 C 1.17276(14) 0.55870(13) 0.30870(11)
H27 H 1.2368 0.5529 0.3550
C29 C 1.03451(14) 0.57101(12) 0.34585(10)
H28 H 1.0018 0.5752 0.4178
C30 C 0.75980(13) 0.48563(12) 0.26910(10)
H29 H 0.8165 0.3992 0.3029
H30 H 0.7897 0.4917 0.1928
C31 C 0.58187(15) 0.34679(14) 0.07439(12)
H31 H 0.5976 0.3612 0.0000
C32 C 0.43564(13) 0.91823(12) 0.14871(10)
H32 H 0.5028 0.8674 0.1011
C33 C 0.33907(13) 1.03601(12) 0.10886(10)
H33 H 0.3410 1.0648 0.0354
loop_
_geom_bond_atom_site_label_1
_geom_bond_atom_site_label_2
_geom_bond_site_symmetry_1
_geom_bond_site_symmetry_2
O1 C14 1_555 1_555
O2 C16 1_555 1_555
O3 C9 1_555 1_555
O4 H1 1_555 1_555
O5 H2 1_555 1_555
N1 C10 1_555 1_555
N2 C25 1_555 1_555
N3 C4 1_555 1_555
C1 H3 1_555 1_555
C2 C1 1_555 1_555
H4 C2 1_555 1_555
C3 C2 1_555 1_555
H5 C3 1_555 1_555
C4 C3 1_555 1_555
C5 O5 1_555 1_555
C6 C5 1_555 1_555
H6 C6 1_555 1_555
H7 C6 1_555 1_555
C7 C6 1_555 1_555
H8 C7 1_555 1_555
C8 C7 1_555 1_555
H9 C8 1_555 1_555
C9 C8 1_555 1_555
C10 C9 1_555 1_555
C11 C10 1_555 1_555
H10 C11 1_555 1_555
C12 C11 1_555 1_555
H11 C12 1_555 1_555
C13 C12 1_555 1_555
H12 C13 1_555 1_555
C14 H13 1_555 1_555
H14 C14 1_555 1_555
H15 C14 1_555 1_555
C15 O1 1_555 1_555
C16 C15 1_555 1_555
C17 O2 1_555 1_555
H16 C17 1_555 1_555
H17 C17 1_555 1_555
H18 C17 1_555 1_555
C18 C16 1_555 1_555
C19 C18 1_555 1_555
H19 C19 1_555 1_555
H20 C19 1_555 1_555
C20 C19 1_555 1_555
H21 C20 1_555 1_555
C21 C20 1_555 1_555
H22 C21 1_555 1_555
H23 C21 1_555 1_555
C22 C7 1_555 1_555
C23 N1 1_555 1_555
H24 C23 1_555 1_555
C24 O4 1_555 1_555
C25 C24 1_555 1_555
C26 N2 1_555 1_555
H25 C26 1_555 1_555
C27 C26 1_555 1_555
H26 C27 1_555 1_555
C28 C27 1_555 1_555
H27 C28 1_555 1_555
C29 C25 1_555 1_555
H28 C29 1_555 1_555
C30 C5 1_555 1_555
H29 C30 1_555 1_555
H30 C30 1_555 1_555
C31 N3 1_555 1_555
H31 C31 1_555 1_555
C32 C22 1_555 1_555
H32 C32 1_555 1_555
C33 C15 1_555 1_555
H33 C33 1_555 1_555
C1 C31 1_555 1_555
C4 C5 1_555 1_555
C8 C24 1_555 1_555
C13 C23 1_555 1_555
C18 C22 1_555 1_555
C24 C30 1_555 1_555
C28 C29 1_555 1_555
C32 C33 1_555 1_555

#END
