
#######################################################################
#
#                 Cambridge Crystallographic Data Centre
#                                CCDC 
#
#######################################################################
#
# If this CIF has been generated from an entry in the Cambridge 
# Structural Database, then it will include bibliographic, chemical, 
# crystal, experimental, refinement or atomic coordinate data resulting 
# from the CCDC's data processing and validation procedures.
#
#######################################################################

data_VELBOF
_chemical_formula_moiety         'C28 H22 I1 N1 O3 S1'
_chemical_name_systematic        
4-Iodo-2-((4-methylphenyl)sulfonyl)-3,5,5-triphenyl-2,5-dihydro-1,2-oxazole
_symmetry_cell_setting           monoclinic
_symmetry_space_group_name_H-M   'P 21/c'
_symmetry_Int_Tables_number      14
_space_group_name_Hall           '-P 2ybc'
loop_
_symmetry_equiv_pos_site_id
_symmetry_equiv_pos_as_xyz
1 x,y,z
2 -x,1/2+y,1/2-z
3 -x,-y,-z
4 x,1/2-y,1/2+z
_cell_length_a                   10.0453(4)
_cell_length_b                   18.0101(7)
_cell_length_c                   14.2109(4)
_cell_angle_alpha                90
_cell_angle_beta                 105.850(4)
_cell_angle_gamma                90
_cell_volume                     2473.24
_exptl_crystal_colour            yellow
_exptl_crystal_description       block
_cell_formula_units_Z            4
loop_
_atom_site_label
_atom_site_type_symbol
_atom_site_fract_x
_atom_site_fract_y
_atom_site_fract_z
I1 I 0.47331(2) 0.106386(13) 0.126324(13)
S1 S 0.40708(8) 0.16599(4) 0.49337(5)
O1 O 0.5488(2) 0.17355(11) 0.54643(14)
O2 O 0.3067(2) 0.14347(11) 0.54136(14)
O3 O 0.26649(19) 0.08532(10) 0.35399(12)
N1 N 0.4082(2) 0.09550(11) 0.41143(15)
C1 C 0.2141(5) 0.4458(2) 0.2637(4)
H1 H 0.1178 0.4409 0.2297
H2 H 0.2666 0.4527 0.2171
H3 H 0.2269 0.4879 0.3067
C2 C 0.4434(3) 0.28871(16) 0.3927(2)
H4 H 0.5350 0.2737 0.4044
C3 C 0.3980(4) 0.35306(17) 0.3410(3)
H5 H 0.4601 0.3813 0.3180
C4 C 0.2632(4) 0.37629(17) 0.3228(3)
C5 C 0.1737(3) 0.33453(18) 0.3597(3)
H6 H 0.0829 0.3505 0.3498
C6 C 0.2155(3) 0.26994(16) 0.4108(2)
H7 H 0.1534 0.2421 0.4342
C7 C 0.3512(3) 0.24700(14) 0.42678(19)
C8 C 0.4879(3) 0.10752(13) 0.34336(18)
C9 C 0.4080(3) 0.10628(14) 0.25230(18)
C10 C 0.2602(3) 0.08718(14) 0.24913(18)
C11 C 0.1493(3) 0.14289(15) 0.20173(18)
C12 C 0.0126(3) 0.12650(17) 0.1957(2)
H8 H -0.0094 0.0811 0.2188
C13 C -0.0915(3) 0.17675(19) 0.1558(2)
H9 H -0.1830 0.1649 0.1517
C14 C -0.0602(4) 0.2437(2) 0.1224(2)
H10 H -0.1303 0.2773 0.0948
C15 C 0.0739(4) 0.26124(18) 0.1295(2)
H11 H 0.0952 0.3072 0.1076
C16 C 0.1788(3) 0.21135(16) 0.1689(2)
H12 H 0.2701 0.2240 0.1734
C17 C 0.2285(3) 0.00894(15) 0.20835(19)
C18 C 0.2702(3) -0.05265(16) 0.2659(2)
H13 H 0.3102 -0.0466 0.3327
C19 C 0.2539(4) -0.12323(17) 0.2267(3)
H14 H 0.2820 -0.1643 0.2669
C20 C 0.1966(4) -0.13269(19) 0.1288(3)
H15 H 0.1859 -0.1802 0.1020
C21 C 0.1548(3) -0.07187(19) 0.0699(3)
H16 H 0.1160 -0.0784 0.0031
C22 C 0.1696(3) -0.00132(17) 0.1087(2)
H17 H 0.1401 0.0395 0.0683
C23 C 0.6397(3) 0.10881(14) 0.38267(19)
C24 C 0.7031(3) 0.05751(15) 0.4533(2)
H18 H 0.6500 0.0240 0.4773
C25 C 0.8459(4) 0.05622(18) 0.4880(2)
H19 H 0.8886 0.0223 0.5361
C26 C 0.9247(3) 0.10470(19) 0.4518(3)
H20 H 1.0207 0.1025 0.4740
C27 C 0.8626(3) 0.15645(18) 0.3831(2)
H21 H 0.9163 0.1902 0.3600
C28 C 0.7200(3) 0.15826(16) 0.3480(2)
H22 H 0.6779 0.1930 0.3009
loop_
_geom_bond_atom_site_label_1
_geom_bond_atom_site_label_2
_geom_bond_site_symmetry_1
_geom_bond_site_symmetry_2
I1 C9 1_555 1_555
S1 O1 1_555 1_555
O2 S1 1_555 1_555
O3 N1 1_555 1_555
N1 S1 1_555 1_555
C1 H1 1_555 1_555
H2 C1 1_555 1_555
H3 C1 1_555 1_555
C2 H4 1_555 1_555
C3 C2 1_555 1_555
H5 C3 1_555 1_555
C4 C1 1_555 1_555
C5 C4 1_555 1_555
H6 C5 1_555 1_555
C6 C5 1_555 1_555
H7 C6 1_555 1_555
C7 S1 1_555 1_555
C8 N1 1_555 1_555
C9 C8 1_555 1_555
C10 O3 1_555 1_555
C11 C10 1_555 1_555
C12 C11 1_555 1_555
H8 C12 1_555 1_555
C13 C12 1_555 1_555
H9 C13 1_555 1_555
C14 C13 1_555 1_555
H10 C14 1_555 1_555
C15 C14 1_555 1_555
H11 C15 1_555 1_555
C16 C11 1_555 1_555
H12 C16 1_555 1_555
C17 C10 1_555 1_555
C18 C17 1_555 1_555
H13 C18 1_555 1_555
C19 C18 1_555 1_555
H14 C19 1_555 1_555
C20 C19 1_555 1_555
H15 C20 1_555 1_555
C21 C20 1_555 1_555
H16 C21 1_555 1_555
C22 C17 1_555 1_555
H17 C22 1_555 1_555
C23 C8 1_555 1_555
C24 C23 1_555 1_555
H18 C24 1_555 1_555
C25 C24 1_555 1_555
H19 C25 1_555 1_555
C26 C25 1_555 1_555
H20 C26 1_555 1_555
C27 C26 1_555 1_555
H21 C27 1_555 1_555
C28 C23 1_555 1_555
H22 C28 1_555 1_555
C2 C7 1_555 1_555
C3 C4 1_555 1_555
C6 C7 1_555 1_555
C9 C10 1_555 1_555
C15 C16 1_555 1_555
C21 C22 1_555 1_555
C27 C28 1_555 1_555

#END
