
#######################################################################
#
#                 Cambridge Crystallographic Data Centre
#                                CCDC 
#
#######################################################################
#
# If this CIF has been generated from an entry in the Cambridge 
# Structural Database, then it will include bibliographic, chemical, 
# crystal, experimental, refinement or atomic coordinate data resulting 
# from the CCDC's data processing and validation procedures.
#
#######################################################################

data_VELHEB
_chemical_formula_moiety         'C44 H32 B1 N3'
_chemical_name_systematic        
1,3,5,5,7,9-Hexaphenyl-5H-dipyrrolo[1,2-c:2',1'-f][1,3,5,2]triazaborinine
_symmetry_cell_setting           triclinic
_symmetry_space_group_name_H-M   'P -1'
_symmetry_Int_Tables_number      2
_space_group_name_Hall           '-P 1'
loop_
_symmetry_equiv_pos_site_id
_symmetry_equiv_pos_as_xyz
1 x,y,z
2 -x,-y,-z
_cell_length_a                   9.8383(2)
_cell_length_b                   12.8641(2)
_cell_length_c                   14.2264(3)
_cell_angle_alpha                76.980(2)
_cell_angle_beta                 80.145(2)
_cell_angle_gamma                79.912(3)
_cell_volume                     1710.74
_cell_formula_units_Z            2
loop_
_atom_site_label
_atom_site_type_symbol
_atom_site_fract_x
_atom_site_fract_y
_atom_site_fract_z
C1 C 0.2798(4) 0.5149(3) 0.7885(3)
C2 C 0.4085(4) 0.5114(3) 0.8255(3)
C3 C 0.4514(5) 0.4027(3) 0.8586(3)
H1 H 0.5324 0.3739 0.8863
C4 C 0.3530(5) 0.3430(3) 0.8436(3)
C5 C -0.0665(5) 0.5217(3) 0.6624(3)
C6 C -0.1154(5) 0.6331(3) 0.6534(3)
H2 H -0.1970 0.6685 0.6293
C7 C -0.0230(5) 0.6804(3) 0.6858(3)
C8 C 0.0845(4) 0.5939(3) 0.7166(3)
N1 N 0.1964(4) 0.6036(2) 0.7525(2)
N2 N 0.2485(4) 0.4117(2) 0.8001(2)
N3 N 0.0558(4) 0.4971(2) 0.7011(2)
B1 B 0.1267(5) 0.3813(3) 0.7538(3)
C9 C 0.4830(4) 0.6008(3) 0.8251(3)
C10 C 0.4556(5) 0.7026(3) 0.7670(3)
H3 H 0.3865 0.7157 0.7269
C11 C 0.5288(6) 0.7847(4) 0.7675(4)
H4 H 0.5079 0.8524 0.7287
C12 C 0.6332(6) 0.7665(4) 0.8258(4)
H5 H 0.6829 0.8215 0.8263
C13 C 0.6625(5) 0.6665(4) 0.8828(4)
H6 H 0.7331 0.6539 0.9216
C14 C 0.5893(5) 0.5844(4) 0.8836(3)
H7 H 0.6105 0.5173 0.9234
C15 C 0.3644(5) 0.2242(3) 0.8684(3)
C16 C 0.4846(6) 0.1643(4) 0.8291(3)
H8 H 0.5552 0.1992 0.7894
C17 C 0.4983(6) 0.0534(4) 0.8492(4)
H9 H 0.5773 0.0141 0.8212
C18 C 0.3988(7) 0.0005(4) 0.9088(4)
H10 H 0.4104 -0.0744 0.9218
C19 C 0.2793(7) 0.0578(4) 0.9508(4)
H11 H 0.2108 0.0216 0.9919
C20 C 0.2634(5) 0.1696(3) 0.9307(3)
H12 H 0.1844 0.2084 0.9592
C21 C -0.0333(5) 0.7957(3) 0.6881(3)
C22 C -0.1081(6) 0.8731(3) 0.6227(4)
H13 H -0.1467 0.8516 0.5762
C23 C -0.1252(7) 0.9805(4) 0.6264(4)
H14 H -0.1746 1.0306 0.5819
C24 C -0.0713(8) 1.0148(4) 0.6939(5)
H15 H -0.0844 1.0875 0.6964
C25 C 0.0038(8) 0.9392(4) 0.7593(5)
H16 H 0.0420 0.9617 0.8054
C26 C 0.0222(6) 0.8304(4) 0.7564(4)
H17 H 0.0722 0.7806 0.8008
C27 C -0.1390(5) 0.4463(3) 0.6325(3)
C28 C -0.2834(5) 0.4560(3) 0.6557(3)
H18 H -0.3295 0.5078 0.6907
C29 C -0.3596(5) 0.3901(4) 0.6277(3)
H19 H -0.4559 0.3972 0.6444
C30 C -0.2914(6) 0.3132(4) 0.5747(3)
H20 H -0.3417 0.2679 0.5564
C31 C -0.1496(5) 0.3043(3) 0.5494(3)
H21 H -0.1041 0.2534 0.5132
C32 C -0.0731(5) 0.3705(3) 0.5773(3)
H22 H 0.0229 0.3643 0.5588
C33 C 0.2077(4) 0.3091(3) 0.6752(3)
C34 C 0.2839(5) 0.3578(4) 0.5905(3)
H23 H 0.2809 0.4322 0.5777
C35 C 0.3642(5) 0.3004(5) 0.5240(3)
H24 H 0.4157 0.3359 0.4688
C36 C 0.3673(6) 0.1907(5) 0.5401(4)
H25 H 0.4191 0.1516 0.4952
C37 C 0.2937(7) 0.1394(4) 0.6227(4)
H26 H 0.2966 0.0650 0.6340
C38 C 0.2135(5) 0.1975(3) 0.6908(3)
H27 H 0.1641 0.1612 0.7466
C39 C 0.0068(5) 0.3367(3) 0.8387(3)
C40 C -0.0759(5) 0.2612(3) 0.8335(3)
H28 H -0.0594 0.2306 0.7786
C41 C -0.1818(6) 0.2298(4) 0.9069(4)
H29 H -0.2345 0.1790 0.9005
C42 C -0.2090(6) 0.2733(4) 0.9886(4)
H30 H -0.2784 0.2512 1.0387
C43 C -0.1325(6) 0.3502(4) 0.9956(3)
H31 H -0.1519 0.3819 1.0500
C44 C -0.0267(5) 0.3809(3) 0.9222(3)
H32 H 0.0239 0.4329 0.9287
loop_
_geom_bond_atom_site_label_1
_geom_bond_atom_site_label_2
_geom_bond_site_symmetry_1
_geom_bond_site_symmetry_2
C1 C2 1_555 1_555
C2 C3 1_555 1_555
C3 H1 1_555 1_555
C4 C3 1_555 1_555
C5 C6 1_555 1_555
C6 H2 1_555 1_555
C7 C6 1_555 1_555
C8 C7 1_555 1_555
N1 C1 1_555 1_555
N2 C1 1_555 1_555
N3 C5 1_555 1_555
B1 N2 1_555 1_555
C9 C2 1_555 1_555
C10 C9 1_555 1_555
H3 C10 1_555 1_555
C11 C10 1_555 1_555
H4 C11 1_555 1_555
C12 C11 1_555 1_555
H5 C12 1_555 1_555
C13 C12 1_555 1_555
H6 C13 1_555 1_555
C14 C9 1_555 1_555
H7 C14 1_555 1_555
C15 C4 1_555 1_555
C16 C15 1_555 1_555
H8 C16 1_555 1_555
C17 C16 1_555 1_555
H9 C17 1_555 1_555
C18 C17 1_555 1_555
H10 C18 1_555 1_555
C19 C18 1_555 1_555
H11 C19 1_555 1_555
C20 C15 1_555 1_555
H12 C20 1_555 1_555
C21 C7 1_555 1_555
C22 C21 1_555 1_555
H13 C22 1_555 1_555
C23 C22 1_555 1_555
H14 C23 1_555 1_555
C24 C23 1_555 1_555
H15 C24 1_555 1_555
C25 C24 1_555 1_555
H16 C25 1_555 1_555
C26 C21 1_555 1_555
H17 C26 1_555 1_555
C27 C5 1_555 1_555
C28 C27 1_555 1_555
H18 C28 1_555 1_555
C29 C28 1_555 1_555
H19 C29 1_555 1_555
C30 C29 1_555 1_555
H20 C30 1_555 1_555
C31 C30 1_555 1_555
H21 C31 1_555 1_555
C32 C27 1_555 1_555
H22 C32 1_555 1_555
C33 B1 1_555 1_555
C34 C33 1_555 1_555
H23 C34 1_555 1_555
C35 C34 1_555 1_555
H24 C35 1_555 1_555
C36 C35 1_555 1_555
H25 C36 1_555 1_555
C37 C36 1_555 1_555
H26 C37 1_555 1_555
C38 C33 1_555 1_555
H27 C38 1_555 1_555
C39 B1 1_555 1_555
C40 C39 1_555 1_555
H28 C40 1_555 1_555
C41 C40 1_555 1_555
H29 C41 1_555 1_555
C42 C41 1_555 1_555
H30 C42 1_555 1_555
C43 C42 1_555 1_555
H31 C43 1_555 1_555
C44 C39 1_555 1_555
H32 C44 1_555 1_555
C4 N2 1_555 1_555
C8 N1 1_555 1_555
C8 N3 1_555 1_555
N3 B1 1_555 1_555
C13 C14 1_555 1_555
C19 C20 1_555 1_555
C25 C26 1_555 1_555
C31 C32 1_555 1_555
C37 C38 1_555 1_555
C43 C44 1_555 1_555

#END
