
#######################################################################
#
#                 Cambridge Crystallographic Data Centre
#                                CCDC 
#
#######################################################################
#
# If this CIF has been generated from an entry in the Cambridge 
# Structural Database, then it will include bibliographic, chemical, 
# crystal, experimental, refinement or atomic coordinate data resulting 
# from the CCDC's data processing and validation procedures.
#
#######################################################################

data_VELQOU
_chemical_formula_moiety         'C14 H17 N1 O3 S1'
_chemical_name_systematic        
4-Isopropylidene-1-((4-methylphenyl)sulfonyl)pyrrolidin-3-one
_symmetry_cell_setting           monoclinic
_symmetry_space_group_name_H-M   'P 21/n'
_symmetry_Int_Tables_number      14
_space_group_name_Hall           '-P 2yn'
loop_
_symmetry_equiv_pos_site_id
_symmetry_equiv_pos_as_xyz
1 x,y,z
2 1/2-x,1/2+y,1/2-z
3 -x,-y,-z
4 1/2+x,1/2-y,1/2+z
_cell_length_a                   5.2624(2)
_cell_length_b                   11.5073(5)
_cell_length_c                   22.9797(9)
_cell_angle_alpha                90
_cell_angle_beta                 92.5620(10)
_cell_angle_gamma                90
_cell_volume                     1390.17
_exptl_crystal_colour            colorless
_exptl_crystal_description       block
_cell_formula_units_Z            4
loop_
_atom_site_label
_atom_site_type_symbol
_atom_site_fract_x
_atom_site_fract_y
_atom_site_fract_z
S1 S 0.09928(9) 0.75129(4) 0.05573(2)
O1 O 0.2596(3) 0.84978(15) 0.04890(7)
O2 O 0.2051(3) 0.63799(14) 0.06373(7)
O3 O -0.4655(4) 0.95315(15) 0.19131(8)
N1 N -0.0601(3) 0.77705(14) 0.11318(7)
C1 C -0.7110(5) 0.7356(3) -0.13816(12)
H1 H -0.7725 0.6574 -0.1427
H2 H -0.6483 0.7623 -0.1744
H3 H -0.8471 0.7851 -0.1269
C2 C -0.5001(4) 0.7385(2) -0.09207(9)
C3 C -0.3781(5) 0.8418(2) -0.07716(10)
H4 H -0.4230 0.9094 -0.0973
C4 C -0.1931(4) 0.84663(19) -0.03342(9)
H5 H -0.1154 0.9169 -0.0235
C5 C -0.1226(4) 0.74575(16) -0.00403(9)
C6 C -0.2368(4) 0.64101(18) -0.01904(9)
H6 H -0.1876 0.5730 0.0002
C7 C -0.4238(4) 0.6386(2) -0.06271(9)
H7 H -0.5008 0.5683 -0.0728
C8 C -0.1744(4) 0.89177(18) 0.12061(10)
H8 H -0.2598 0.9179 0.0847
H9 H -0.0465 0.9485 0.1328
C9 C -0.3618(4) 0.87324(18) 0.16735(9)
C10 C -0.3916(4) 0.74768(17) 0.17607(9)
C11 C -0.2266(4) 0.68499(17) 0.13479(9)
H10 H -0.1278 0.6247 0.1547
H11 H -0.3281 0.6502 0.1031
C12 C -0.5471(4) 0.6948(2) 0.21246(9)
C13 C -0.5613(5) 0.5654(2) 0.21437(12)
H12 H -0.4450 0.5331 0.1877
H13 H -0.7313 0.5409 0.2035
H14 H -0.5169 0.5390 0.2531
C14 C -0.7180(5) 0.7576(2) 0.25179(11)
H15 H -0.6951 0.8399 0.2474
H16 H -0.6772 0.7358 0.2914
H17 H -0.8917 0.7377 0.2418
loop_
_geom_bond_atom_site_label_1
_geom_bond_atom_site_label_2
_geom_bond_site_symmetry_1
_geom_bond_site_symmetry_2
S1 O1 1_555 1_555
O2 S1 1_555 1_555
O3 C9 1_555 1_555
N1 S1 1_555 1_555
C1 H1 1_555 1_555
H2 C1 1_555 1_555
H3 C1 1_555 1_555
C2 C1 1_555 1_555
C3 C2 1_555 1_555
H4 C3 1_555 1_555
C4 C3 1_555 1_555
H5 C4 1_555 1_555
C5 S1 1_555 1_555
C6 C5 1_555 1_555
H6 C6 1_555 1_555
C7 C2 1_555 1_555
H7 C7 1_555 1_555
C8 N1 1_555 1_555
H8 C8 1_555 1_555
H9 C8 1_555 1_555
C9 C8 1_555 1_555
C10 C9 1_555 1_555
C11 N1 1_555 1_555
H10 C11 1_555 1_555
H11 C11 1_555 1_555
C12 C10 1_555 1_555
C13 C12 1_555 1_555
H12 C13 1_555 1_555
H13 C13 1_555 1_555
H14 C13 1_555 1_555
C14 C12 1_555 1_555
H15 C14 1_555 1_555
H16 C14 1_555 1_555
H17 C14 1_555 1_555
C4 C5 1_555 1_555
C6 C7 1_555 1_555
C10 C11 1_555 1_555

#END
