
#######################################################################
#
#                 Cambridge Crystallographic Data Centre
#                                CCDC 
#
#######################################################################
#
# If this CIF has been generated from an entry in the Cambridge 
# Structural Database, then it will include bibliographic, chemical, 
# crystal, experimental, refinement or atomic coordinate data resulting 
# from the CCDC's data processing and validation procedures.
#
#######################################################################

data_VELTIS
_chemical_formula_moiety         'C23 H24 O2'
_chemical_name_systematic        
5-benzylidene-8-hydroxy-8-phenyloctahydronaphthalen-1(2H)-one
_symmetry_cell_setting           orthorhombic
_symmetry_space_group_name_H-M   'P 21 21 21'
_symmetry_Int_Tables_number      19
_space_group_name_Hall           'P 2ac 2ab'
loop_
_symmetry_equiv_pos_site_id
_symmetry_equiv_pos_as_xyz
1 x,y,z
2 1/2-x,-y,1/2+z
3 -x,1/2+y,1/2-z
4 1/2+x,1/2-y,-z
_cell_length_a                   9.7798(2)
_cell_length_b                   10.6568(2)
_cell_length_c                   17.5257(3)
_cell_angle_alpha                90
_cell_angle_beta                 90
_cell_angle_gamma                90
_cell_volume                     1826.55
_exptl_crystal_colour            colorless
_exptl_crystal_description       block
_cell_formula_units_Z            4
loop_
_atom_site_label
_atom_site_type_symbol
_atom_site_fract_x
_atom_site_fract_y
_atom_site_fract_z
O1 O 0.6921(2) -0.06348(16) 0.40520(10)
H1 H 0.644203 -0.038888 0.440593
O2 O 0.5016(2) -0.15420(18) 0.30380(13)
C1 C 0.6940(2) 0.0298(2) 0.34586(12)
C2 C 0.7667(2) 0.1428(2) 0.38082(12)
H2 H 0.856508 0.117543 0.398573
H3 H 0.778885 0.206861 0.342076
C3 C 0.6859(3) 0.1971(2) 0.44711(12)
H4 H 0.674535 0.133828 0.486367
H5 H 0.735424 0.267284 0.469044
C4 C 0.5480(2) 0.2405(2) 0.41964(11)
C5 C 0.4639(2) 0.1337(2) 0.38747(11)
H6 H 0.449217 0.073393 0.428883
C6 C 0.3233(2) 0.1698(3) 0.35639(14)
H7 H 0.271614 0.211598 0.396177
H8 H 0.334695 0.228408 0.314539
C7 C 0.2436(3) 0.0565(3) 0.32858(15)
H9 H 0.224445 0.001525 0.371372
H10 H 0.156960 0.083988 0.307448
C8 C 0.3226(3) -0.0154(3) 0.26829(17)
H11 H 0.273938 -0.091875 0.255421
H12 H 0.330411 0.035056 0.222451
C9 C 0.4625(3) -0.0473(3) 0.29751(14)
C10 C 0.5464(2) 0.0647(2) 0.32369(12)
H13 H 0.552416 0.122388 0.280281
C11 C 0.7782(2) -0.0165(2) 0.27769(14)
C12 C 0.8681(3) -0.1164(3) 0.28614(18)
H14 H 0.873577 -0.158181 0.332622
C13 C 0.9501(3) -0.1545(4) 0.2253(2)
H15 H 1.011222 -0.220425 0.232028
C14 C 0.9421(3) -0.0960(3) 0.1558(2)
H16 H 0.995179 -0.123715 0.115085
C15 C 0.8550(3) 0.0036(3) 0.14683(19)
H17 H 0.850439 0.045041 0.100195
C16 C 0.7734(3) 0.0430(3) 0.20726(15)
H18 H 0.714421 0.110553 0.200360
C17 C 0.5048(2) 0.3592(2) 0.42150(12)
H19 H 0.417230 0.373715 0.402798
C18 C 0.5797(2) 0.4701(2) 0.44976(13)
C19 C 0.5130(3) 0.5604(2) 0.49315(17)
H20 H 0.420365 0.550767 0.503724
C20 C 0.5811(3) 0.6638(2) 0.5208(2)
H21 H 0.534711 0.721849 0.550836
C21 C 0.7175(3) 0.6821(2) 0.50437(19)
H22 H 0.763322 0.752087 0.523119
C22 C 0.7851(3) 0.5957(3) 0.45996(17)
H23 H 0.876925 0.607644 0.448222
C23 C 0.7176(3) 0.4919(2) 0.43286(14)
H24 H 0.764644 0.434639 0.402571
loop_
_geom_bond_atom_site_label_1
_geom_bond_atom_site_label_2
_geom_bond_site_symmetry_1
_geom_bond_site_symmetry_2
O1 H1 1_555 1_555
O2 C9 1_555 1_555
C1 O1 1_555 1_555
C2 C1 1_555 1_555
H2 C2 1_555 1_555
H3 C2 1_555 1_555
C3 C2 1_555 1_555
H4 C3 1_555 1_555
H5 C3 1_555 1_555
C4 C3 1_555 1_555
C5 C4 1_555 1_555
H6 C5 1_555 1_555
C6 C5 1_555 1_555
H7 C6 1_555 1_555
H8 C6 1_555 1_555
C7 C6 1_555 1_555
H9 C7 1_555 1_555
H10 C7 1_555 1_555
C8 C7 1_555 1_555
H11 C8 1_555 1_555
H12 C8 1_555 1_555
C9 C8 1_555 1_555
C10 C1 1_555 1_555
H13 C10 1_555 1_555
C11 C1 1_555 1_555
C12 C11 1_555 1_555
H14 C12 1_555 1_555
C13 C12 1_555 1_555
H15 C13 1_555 1_555
C14 C13 1_555 1_555
H16 C14 1_555 1_555
C15 C14 1_555 1_555
H17 C15 1_555 1_555
C16 C11 1_555 1_555
H18 C16 1_555 1_555
C17 C4 1_555 1_555
H19 C17 1_555 1_555
C18 C17 1_555 1_555
C19 C18 1_555 1_555
H20 C19 1_555 1_555
C20 C19 1_555 1_555
H21 C20 1_555 1_555
C21 C20 1_555 1_555
H22 C21 1_555 1_555
C22 C21 1_555 1_555
H23 C22 1_555 1_555
C23 C18 1_555 1_555
H24 C23 1_555 1_555
C5 C10 1_555 1_555
C9 C10 1_555 1_555
C15 C16 1_555 1_555
C22 C23 1_555 1_555

#END
