
#######################################################################
#
#                 Cambridge Crystallographic Data Centre
#                                CCDC 
#
#######################################################################
#
# If this CIF has been generated from an entry in the Cambridge 
# Structural Database, then it will include bibliographic, chemical, 
# crystal, experimental, refinement or atomic coordinate data resulting 
# from the CCDC's data processing and validation procedures.
#
#######################################################################

data_VELVUF
_chemical_formula_moiety         'C10 H22 N2 S2'
_chemical_name_systematic        1,8-Dithia-4,11-diazacyclotetradecane
_symmetry_cell_setting           triclinic
_symmetry_space_group_name_H-M   'P -1'
_symmetry_Int_Tables_number      2
_space_group_name_Hall           '-P 1'
loop_
_symmetry_equiv_pos_site_id
_symmetry_equiv_pos_as_xyz
1 x,y,z
2 -x,-y,-z
_cell_length_a                   5.366(2)
_cell_length_b                   7.833(3)
_cell_length_c                   8.520(5)
_cell_angle_alpha                115.532(5)
_cell_angle_beta                 106.338(5)
_cell_angle_gamma                93.272(4)
_cell_volume                     303.445
_exptl_crystal_description       block
_cell_formula_units_Z            1
loop_
_atom_site_label
_atom_site_type_symbol
_atom_site_fract_x
_atom_site_fract_y
_atom_site_fract_z
S1 S 1.14654(7) 0.83992(5) 0.79447(5)
N1 N 0.6914(3) 0.5596(2) 0.28269(19)
C1 C 0.7878(3) 0.7638(2) 0.7000(2)
H1 H 0.7394 0.6238 0.6390
H2 H 0.7151 0.8136 0.7994
C2 C 0.6714(3) 0.8377(2) 0.5616(2)
H3 H 0.4798 0.7966 0.5148
H4 H 0.7128 0.9779 0.6260
C3 C 0.7712(3) 0.7690(2) 0.3982(2)
H5 H 0.7015 0.8319 0.3239
H6 H 0.9633 0.8061 0.4438
C4 C 0.8259(3) 0.4870(2) 0.1471(2)
H7 H 1.0154 0.5378 0.2084
H8 H 0.7641 0.5314 0.0555
C5 C 1.2271(3) 0.7332(2) 0.9488(2)
H9 H 1.4135 0.7819 1.0238
H10 H 1.1252 0.7756 1.0314
H11 H 0.742(4) 0.506(3) 0.352(3)
S1A S 0.85346(7) 0.16008(5) 0.20553(5)
N1A N 1.3086(3) 0.4404(2) 0.71731(19)
C1A C 1.2122(3) 0.2362(2) 0.3000(2)
H1A H 1.2606 0.3762 0.3610
H2A H 1.2849 0.1864 0.2006
C2A C 1.3286(3) 0.1623(2) 0.4384(2)
H3A H 1.5202 0.2034 0.4852
H4A H 1.2872 0.0221 0.3740
C3A C 1.2288(3) 0.2310(2) 0.6018(2)
H5A H 1.2985 0.1681 0.6761
H6A H 1.0367 0.1939 0.5562
C4A C 1.1741(3) 0.5130(2) 0.8529(2)
H7A H 0.9846 0.4622 0.7916
H8A H 1.2359 0.4686 0.9445
C5A C 0.7729(3) 0.2668(2) 0.0512(2)
H9A H 0.5865 0.2181 -0.0238
H10A H 0.8748 0.2244 -0.0314
H11A H 1.258(4) 0.494(3) 0.648(3)
loop_
_geom_bond_atom_site_label_1
_geom_bond_atom_site_label_2
_geom_bond_site_symmetry_1
_geom_bond_site_symmetry_2
S1 C1 1_555 1_555
N1 C3 1_555 1_555
C1 H1 1_555 1_555
H2 C1 1_555 1_555
C2 C1 1_555 1_555
H3 C2 1_555 1_555
H4 C2 1_555 1_555
C3 C2 1_555 1_555
H5 C3 1_555 1_555
H6 C3 1_555 1_555
C4 N1 1_555 1_555
H7 C4 1_555 1_555
H8 C4 1_555 1_555
C5 S1 1_555 1_555
H9 C5 1_555 1_555
H10 C5 1_555 1_555
H11 N1 1_555 1_555
S1A C1A 1_555 1_555
N1A C3A 1_555 1_555
C1A H1A 1_555 1_555
H2A C1A 1_555 1_555
C2A C1A 1_555 1_555
H3A C2A 1_555 1_555
H4A C2A 1_555 1_555
C3A C2A 1_555 1_555
H5A C3A 1_555 1_555
H6A C3A 1_555 1_555
C4A C5 1_555 1_555
H7A C4A 1_555 1_555
H8A C4A 1_555 1_555
C5A C4 1_555 1_555
H9A C5A 1_555 1_555
H10A C5A 1_555 1_555
H11A N1A 1_555 1_555
S1A C5A 1_555 1_555
N1A C4A 1_555 1_555

#END
