
#######################################################################
#
#                 Cambridge Crystallographic Data Centre
#                                CCDC 
#
#######################################################################
#
# If this CIF has been generated from an entry in the Cambridge 
# Structural Database, then it will include bibliographic, chemical, 
# crystal, experimental, refinement or atomic coordinate data resulting 
# from the CCDC's data processing and validation procedures.
#
#######################################################################

data_VEMBOF
_chemical_formula_moiety         'C13 H16 N1 1+,Br1 1-'
_chemical_name_systematic        '1-Butylquinolinium bromide'
_symmetry_cell_setting           monoclinic
_symmetry_space_group_name_H-M   'P 21/n'
_symmetry_Int_Tables_number      14
_space_group_name_Hall           '-P 2yn'
loop_
_symmetry_equiv_pos_site_id
_symmetry_equiv_pos_as_xyz
1 x,y,z
2 1/2-x,1/2+y,1/2-z
3 -x,-y,-z
4 1/2+x,1/2-y,1/2+z
_cell_length_a                   9.8621(5)
_cell_length_b                   11.0998(6)
_cell_length_c                   11.6013(6)
_cell_angle_alpha                90
_cell_angle_beta                 103.0020(10)
_cell_angle_gamma                90
_cell_volume                     1237.4
_exptl_crystal_colour            yellow
_exptl_crystal_description       block
_chemical_melting_point          '431.5 K'
_cell_formula_units_Z            4
_exptl_crystal_recrystallization_method 'dichloromethane/diethyl ether'
loop_
_atom_site_label
_atom_site_type_symbol
_atom_site_fract_x
_atom_site_fract_y
_atom_site_fract_z
Br1 Br 0.94982(2) 0.72491(2) 0.056236(19)
N1 N 0.89612(17) 0.59023(14) 0.72150(14)
C1 C 1.0055(2) 0.56651(19) 0.80841(18)
H1 H 0.9912 0.5422 0.8815
C2 C 1.1408(2) 0.5770(2) 0.7934(2)
H2 H 1.2158 0.5586 0.8552
C3 C 1.1625(2) 0.61445(19) 0.6875(2)
H3 H 1.2528 0.6248 0.6775
C4 C 1.0484(2) 0.63759(16) 0.59275(17)
C5 C 1.0661(2) 0.67352(19) 0.4800(2)
H4 H 1.1551 0.6870 0.4684
C6 C 0.9544(3) 0.6884(2) 0.3887(2)
H5 H 0.9670 0.7104 0.3145
C7 C 0.8206(3) 0.6706(2) 0.40646(19)
H6 H 0.7450 0.6794 0.3427
C8 C 0.7968(2) 0.64059(19) 0.51446(18)
H7 H 0.7065 0.6320 0.5249
C9 C 0.91210(19) 0.62303(16) 0.60969(16)
C10 C 0.7552(2) 0.5780(2) 0.7473(2)
H8 H 0.6927 0.6367 0.7014
H9 H 0.7610 0.5940 0.8304
C11 C 0.6976(2) 0.4518(2) 0.7170(2)
H10 H 0.6971 0.4346 0.6349
H11 H 0.7583 0.3937 0.7657
C12 C 0.5510(3) 0.4376(2) 0.7361(2)
H12 H 0.4909 0.4956 0.6868
H13 H 0.5174 0.3578 0.7101
C13 C 0.5389(3) 0.4544(3) 0.8616(3)
H14 H 0.6076 0.4059 0.9129
H15 H 0.4478 0.4304 0.8690
H16 H 0.5537 0.5376 0.8832
loop_
_geom_bond_atom_site_label_1
_geom_bond_atom_site_label_2
_geom_bond_site_symmetry_1
_geom_bond_site_symmetry_2
N1 C1 1_555 1_555
C1 H1 1_555 1_555
C2 C1 1_555 1_555
H2 C2 1_555 1_555
C3 C2 1_555 1_555
H3 C3 1_555 1_555
C4 C3 1_555 1_555
C5 C4 1_555 1_555
H4 C5 1_555 1_555
C6 C5 1_555 1_555
H5 C6 1_555 1_555
C7 C6 1_555 1_555
H6 C7 1_555 1_555
C8 C7 1_555 1_555
H7 C8 1_555 1_555
C9 N1 1_555 1_555
C10 N1 1_555 1_555
H8 C10 1_555 1_555
H9 C10 1_555 1_555
C11 C10 1_555 1_555
H10 C11 1_555 1_555
H11 C11 1_555 1_555
C12 C11 1_555 1_555
H12 C12 1_555 1_555
H13 C12 1_555 1_555
C13 C12 1_555 1_555
H14 C13 1_555 1_555
H15 C13 1_555 1_555
H16 C13 1_555 1_555
C4 C9 1_555 1_555
C8 C9 1_555 1_555

#END
