
#######################################################################
#
#                 Cambridge Crystallographic Data Centre
#                                CCDC 
#
#######################################################################
#
# If this CIF has been generated from an entry in the Cambridge 
# Structural Database, then it will include bibliographic, chemical, 
# crystal, experimental, refinement or atomic coordinate data resulting 
# from the CCDC's data processing and validation procedures.
#
#######################################################################

data_VEMBUN
_chemical_formula_moiety         'C13 H10 B1 F5 O3'
_chemical_name_systematic        
'[6-methoxy-2-(2,2,2-trifluoroacetyl)-3,4-dihydronaphthalen-1(2H)-one]difluoroborane'
_symmetry_cell_setting           triclinic
_symmetry_space_group_name_H-M   'P -1'
_symmetry_Int_Tables_number      2
_space_group_name_Hall           '-P 1'
loop_
_symmetry_equiv_pos_site_id
_symmetry_equiv_pos_as_xyz
1 x,y,z
2 -x,-y,-z
_cell_length_a                   7.737(2)
_cell_length_b                   7.8600(19)
_cell_length_c                   11.803(3)
_cell_angle_alpha                82.03(2)
_cell_angle_beta                 76.91(2)
_cell_angle_gamma                69.69(2)
_cell_volume                     654.239
_exptl_crystal_colour            yellow
_exptl_crystal_description       block
_cell_formula_units_Z            2
loop_
_atom_site_label
_atom_site_type_symbol
_atom_site_fract_x
_atom_site_fract_y
_atom_site_fract_z
O1 O 1.27975(16) 0.64622(17) 0.18252(10)
O2 O 1.27631(15) 0.66809(17) 0.38618(10)
F1 F 1.54142(15) 0.50139(17) 0.26436(10)
F2 F 1.44395(16) 0.80795(16) 0.23748(10)
F3 F 1.13462(17) 0.6912(2) 0.00592(9)
C1 C 1.0947(2) 0.7234(2) 0.40694(13)
C2 C 0.9995(2) 0.7440(2) 0.52610(13)
C3 C 0.9934(2) 0.7570(2) 0.31505(13)
F4 F 0.89597(18) 0.89960(17) 0.08623(10)
F5 F 0.90317(18) 0.62390(17) 0.11558(10)
O3 O 0.7459(2) 0.7796(2) 0.87210(11)
C4 C 0.7181(2) 0.7771(2) 0.67251(14)
H1 H 0.5910 0.7900 0.6933
C5 C 1.0965(2) 0.7117(2) 0.20787(13)
C6 C 0.8070(2) 0.7643(2) 0.55668(13)
C7 C 1.0988(2) 0.7362(2) 0.61380(14)
H2 H 1.2264 0.7207 0.5942
C8 C 0.7042(2) 0.7612(2) 0.46317(14)
H3 H 0.5724 0.8307 0.4860
H4 H 0.7134 0.6368 0.4559
C9 C 0.8187(3) 0.7707(2) 0.75780(14)
C10 C 0.7827(2) 0.8397(2) 0.34558(14)
H5 H 0.7273 0.8167 0.2858
H6 H 0.7490 0.9703 0.3478
C11 C 1.0076(3) 0.7301(3) 0.10214(14)
C12 C 1.0094(3) 0.7511(3) 0.72725(15)
H7 H 1.0756 0.7482 0.7845
B1 B 1.3926(3) 0.6553(3) 0.26566(17)
C13 C 0.5527(3) 0.7938(3) 0.91341(17)
H8 H 0.4742 0.9037 0.8798
H9 H 0.5236 0.7962 0.9968
H10 H 0.5308 0.6911 0.8913
loop_
_geom_bond_atom_site_label_1
_geom_bond_atom_site_label_2
_geom_bond_site_symmetry_1
_geom_bond_site_symmetry_2
O1 C5 1_555 1_555
O2 C1 1_555 1_555
F1 B1 1_555 1_555
F2 B1 1_555 1_555
F3 C11 1_555 1_555
C1 C2 1_555 1_555
C2 C6 1_555 1_555
C3 C1 1_555 1_555
F4 C11 1_555 1_555
F5 C11 1_555 1_555
O3 C9 1_555 1_555
C4 H1 1_555 1_555
C5 C3 1_555 1_555
C6 C4 1_555 1_555
C7 C2 1_555 1_555
H2 C7 1_555 1_555
C8 C6 1_555 1_555
H3 C8 1_555 1_555
H4 C8 1_555 1_555
C9 C4 1_555 1_555
C10 C3 1_555 1_555
H5 C10 1_555 1_555
H6 C10 1_555 1_555
C11 C5 1_555 1_555
C12 C7 1_555 1_555
H7 C12 1_555 1_555
B1 O1 1_555 1_555
C13 O3 1_555 1_555
H8 C13 1_555 1_555
H9 C13 1_555 1_555
H10 C13 1_555 1_555
O2 B1 1_555 1_555
C8 C10 1_555 1_555
C9 C12 1_555 1_555

#END
