
#######################################################################
#
#                 Cambridge Crystallographic Data Centre
#                                CCDC 
#
#######################################################################
#
# If this CIF has been generated from an entry in the Cambridge 
# Structural Database, then it will include bibliographic, chemical, 
# crystal, experimental, refinement or atomic coordinate data resulting 
# from the CCDC's data processing and validation procedures.
#
#######################################################################

data_VEMCAU
_chemical_formula_moiety         'C26 H30 Br1 F1 N4 O4'
_chemical_name_systematic        
't-butyl 4-[({4-[(4-bromo-2-fluorophenyl)amino]-6-methoxyquinazolin-7-yl}oxy)methyl]piperidine-1-carboxylate'
_symmetry_cell_setting           monoclinic
_symmetry_space_group_name_H-M   'P 21/c'
_symmetry_Int_Tables_number      14
_space_group_name_Hall           '-P 2ybc'
loop_
_symmetry_equiv_pos_site_id
_symmetry_equiv_pos_as_xyz
1 x,y,z
2 -x,1/2+y,1/2-z
3 -x,-y,-z
4 x,1/2-y,1/2+z
_cell_length_a                   10.9035(6)
_cell_length_b                   8.0936(6)
_cell_length_c                   29.429(2)
_cell_angle_alpha                90
_cell_angle_beta                 98.136(2)
_cell_angle_gamma                90
_cell_volume                     2570.93
_exptl_crystal_colour            colorless
_exptl_crystal_description       column
_cell_formula_units_Z            4
loop_
_atom_site_label
_atom_site_type_symbol
_atom_site_fract_x
_atom_site_fract_y
_atom_site_fract_z
Br1 Br -0.74155(3) 0.56733(5) 0.382867(12)
C1 C 0.0090(3) 0.3728(4) 0.44747(10)
H1 H 0.0326 0.4305 0.4220
C2 C -0.1479(2) 0.2825(4) 0.48415(10)
C3 C -0.0605(2) 0.2049(4) 0.51821(10)
C4 C 0.0648(3) 0.2267(4) 0.51284(10)
C5 C 0.1581(3) 0.1568(4) 0.54559(10)
H2 H 0.2428 0.1728 0.5424
C6 C 0.1280(2) 0.0675(4) 0.58140(10)
C7 C 0.0001(3) 0.0429(4) 0.58647(10)
C8 C -0.0900(3) 0.1110(4) 0.55562(10)
H3 H -0.1744 0.0952 0.5592
C9 C -0.5941(3) 0.4738(4) 0.41522(10)
C10 C -0.6013(3) 0.3723(4) 0.45233(10)
H4 H -0.6782 0.3474 0.4624
C11 C -0.4914(3) 0.3089(4) 0.47392(10)
C12 C -0.3756(2) 0.3422(4) 0.46127(10)
C13 C -0.3735(3) 0.4459(4) 0.42347(10)
H5 H -0.2966 0.4726 0.4136
C14 C -0.4827(3) 0.5104(4) 0.40020(11)
H6 H -0.4808 0.5792 0.3741
C15 C 0.3381(2) 0.0172(4) 0.61442(10)
H7 H 0.3603 0.1353 0.6188
H8 H 0.3618 -0.0202 0.5848
C16 C 0.6061(3) -0.1935(4) 0.69183(10)
H9 H 0.5781 -0.3093 0.6870
H10 H 0.6970 -0.1906 0.6921
C17 C 0.5431(2) -0.0859(4) 0.65289(10)
H11 H 0.5612 -0.1295 0.6231
H12 H 0.5757 0.0282 0.6564
C18 C 0.4032(2) -0.0847(4) 0.65348(10)
H13 H 0.3727 -0.2010 0.6493
C19 C 0.3761(3) -0.0244(4) 0.70036(10)
H14 H 0.4026 0.0922 0.7048
H15 H 0.2857 -0.0295 0.7013
C20 C 0.4434(2) -0.1292(4) 0.73915(10)
H16 H 0.4302 -0.0818 0.7691
H17 H 0.4094 -0.2428 0.7372
C21 C 0.6592(3) -0.0862(4) 0.77188(10)
C22 C 0.8817(3) -0.0395(4) 0.79543(10)
C23 C 0.8677(3) 0.1345(5) 0.81255(12)
H18 H 0.8444 0.2083 0.7864
H19 H 0.9464 0.1712 0.8298
H20 H 0.8031 0.1368 0.8326
C24 C 0.9882(3) -0.0511(5) 0.76730(11)
H21 H 0.9942 -0.1644 0.7561
H22 H 1.0658 -0.0210 0.7865
H23 H 0.9731 0.0247 0.7411
C25 C 0.8962(3) -0.1658(5) 0.83382(12)
H24 H 0.8292 -0.1520 0.8525
H25 H 0.9762 -0.1498 0.8531
H26 H 0.8925 -0.2773 0.8207
C26 C -0.1428(3) -0.0798(5) 0.63013(12)
H27 H -0.1834 0.0256 0.6348
H28 H -0.1441 -0.1501 0.6572
H29 H -0.1868 -0.1353 0.6030
F1 F -0.49413(14) 0.2067(3) 0.51079(6)
N1 N 0.1000(2) 0.3128(3) 0.47649(8)
N2 N -0.1146(2) 0.3637(3) 0.44897(8)
N3 N -0.2727(2) 0.2710(4) 0.48780(9)
H30 H -0.289(3) 0.221(4) 0.5115(8)
N4 N 0.5760(2) -0.1341(3) 0.73596(8)
O1 O 0.20758(17) -0.0061(3) 0.61485(7)
O2 O 0.77538(17) -0.0854(3) 0.76081(7)
O3 O 0.63249(18) -0.0475(3) 0.80921(7)
O4 O -0.01761(17) -0.0503(3) 0.62350(7)
loop_
_geom_bond_atom_site_label_1
_geom_bond_atom_site_label_2
_geom_bond_site_symmetry_1
_geom_bond_site_symmetry_2
Br1 C9 1_555 1_555
C1 H1 1_555 1_555
C2 C3 1_555 1_555
C3 C4 1_555 1_555
C4 C5 1_555 1_555
C5 H2 1_555 1_555
C6 C5 1_555 1_555
C7 C6 1_555 1_555
C8 C3 1_555 1_555
H3 C8 1_555 1_555
C9 C10 1_555 1_555
C10 H4 1_555 1_555
C11 C10 1_555 1_555
C12 C11 1_555 1_555
C13 C12 1_555 1_555
H5 C13 1_555 1_555
C14 C9 1_555 1_555
H6 C14 1_555 1_555
C15 H7 1_555 1_555
H8 C15 1_555 1_555
C16 H9 1_555 1_555
H10 C16 1_555 1_555
C17 C16 1_555 1_555
H11 C17 1_555 1_555
H12 C17 1_555 1_555
C18 C15 1_555 1_555
H13 C18 1_555 1_555
C19 C18 1_555 1_555
H14 C19 1_555 1_555
H15 C19 1_555 1_555
C20 C19 1_555 1_555
H16 C20 1_555 1_555
H17 C20 1_555 1_555
C21 N4 1_555 1_555
C22 C23 1_555 1_555
C23 H18 1_555 1_555
H19 C23 1_555 1_555
H20 C23 1_555 1_555
C24 C22 1_555 1_555
H21 C24 1_555 1_555
H22 C24 1_555 1_555
H23 C24 1_555 1_555
C25 C22 1_555 1_555
H24 C25 1_555 1_555
H25 C25 1_555 1_555
H26 C25 1_555 1_555
C26 H27 1_555 1_555
H28 C26 1_555 1_555
H29 C26 1_555 1_555
F1 C11 1_555 1_555
N1 C1 1_555 1_555
N2 C1 1_555 1_555
N3 C2 1_555 1_555
H30 N3 1_555 1_555
N4 C16 1_555 1_555
O1 C6 1_555 1_555
O2 C21 1_555 1_555
O3 C21 1_555 1_555
O4 C7 1_555 1_555
C2 N2 1_555 1_555
C4 N1 1_555 1_555
C7 C8 1_555 1_555
C12 N3 1_555 1_555
C13 C14 1_555 1_555
C15 O1 1_555 1_555
C17 C18 1_555 1_555
C20 N4 1_555 1_555
C22 O2 1_555 1_555
C26 O4 1_555 1_555

#END
