
#######################################################################
#
#                 Cambridge Crystallographic Data Centre
#                                CCDC 
#
#######################################################################
#
# If this CIF has been generated from an entry in the Cambridge 
# Structural Database, then it will include bibliographic, chemical, 
# crystal, experimental, refinement or atomic coordinate data resulting 
# from the CCDC's data processing and validation procedures.
#
#######################################################################

data_VEMFEB
_chemical_formula_moiety         'C68 H74 O4'
_chemical_name_systematic        
(2,7-di-t-butylpyrene-4,5,9,10-tetrayl)tetrakis[(4-t-butylphenyl)methanone]
_symmetry_cell_setting           triclinic
_symmetry_space_group_name_H-M   'P -1'
_symmetry_Int_Tables_number      2
_space_group_name_Hall           '-P 1'
loop_
_symmetry_equiv_pos_site_id
_symmetry_equiv_pos_as_xyz
1 x,y,z
2 -x,-y,-z
_cell_length_a                   12.286(2)
_cell_length_b                   12.902(3)
_cell_length_c                   18.803(4)
_cell_angle_alpha                88.35(3)
_cell_angle_beta                 82.23(3)
_cell_angle_gamma                67.72(3)
_cell_volume                     2731.88
_exptl_crystal_colour            yellow
_exptl_crystal_description       polyhedron
_cell_formula_units_Z            2
loop_
_atom_site_label
_atom_site_type_symbol
_atom_site_fract_x
_atom_site_fract_y
_atom_site_fract_z
C1 C 0.9970(3) 0.5514(3) -0.01615(18)
C2 C 0.9526(3) 0.6521(3) 0.02646(19)
C3 C 0.9523(3) 0.7506(3) -0.0060(2)
H1 H 0.9232 0.8177 0.0223
C4 C 0.9931(4) 0.7545(3) -0.0784(2)
C5 C 1.0342(3) 0.6572(3) -0.11924(19)
H2 H 1.0615 0.6591 -0.1688
C6 C 1.0371(3) 0.5548(3) -0.08986(18)
C7 C 0.9140(3) 0.6466(3) 0.10195(19)
C8 C 0.9905(4) 0.8669(4) -0.1093(2)
C9 C 1.0800(3) 0.4529(3) -0.13203(19)
C10 C 0.8746(4) 0.7474(3) 0.1525(2)
O1 O 0.9313(3) 0.7420(3) 0.20220(16)
C11 C 0.7677(4) 0.8483(3) 0.14402(19)
C12 C 0.7523(4) 0.9478(3) 0.1794(2)
H3 H 0.8124 0.9498 0.2056
C13 C 0.6528(4) 1.0419(3) 0.1768(2)
H4 H 0.6461 1.1089 0.2000
C14 C 0.5621(4) 1.0420(3) 0.1417(2)
C15 C 0.5748(4) 0.9429(4) 0.1079(2)
H5 H 0.5122 0.9407 0.0842
C16 C 0.6773(4) 0.8467(4) 0.1081(2)
H6 H 0.6850 0.7804 0.0836
C17 C 0.4444(4) 1.1460(4) 0.1432(2)
C18 C 1.1285(4) 0.4560(3) -0.2101(2)
O2 O 1.2357(2) 0.4146(2) -0.22698(14)
C19 C 1.0479(3) 0.5091(3) -0.26273(19)
C20 C 1.0938(4) 0.5346(4) -0.3306(2)
H7 H 1.1765 0.5185 -0.3413
C21 C 1.0213(4) 0.5822(4) -0.3813(2)
H8 H 1.0545 0.5999 -0.4263
C22 C 0.9006(4) 0.6054(3) -0.3690(2)
C23 C 0.8546(4) 0.5811(4) -0.3015(2)
H9 H 0.7719 0.5972 -0.2912
C24 C 0.9265(3) 0.5345(3) -0.2496(2)
H10 H 0.8925 0.5193 -0.2040
C25 C 0.8199(4) 0.6546(4) -0.4264(2)
C26 C 1.0149(5) 0.8609(4) -0.1918(2)
H11 H 0.9540 0.8423 -0.2110
H12 H 1.0129 0.9336 -0.2098
H13 H 1.0932 0.8031 -0.2072
C27 C 1.0840(5) 0.8957(4) -0.0785(3)
H14 H 1.0841 0.9672 -0.0974
H15 H 1.0660 0.9018 -0.0260
H16 H 1.1623 0.8366 -0.0922
C28 C 0.8676(5) 0.9604(4) -0.0877(3)
H17 H 0.8070 0.9422 -0.1074
H18 H 0.8497 0.9666 -0.0352
H19 H 0.8681 1.0317 -0.1068
C29 C 0.4036(5) 1.1651(4) 0.0703(3)
H20 H 0.4644 1.1777 0.0357
H21 H 0.3908 1.0991 0.0550
H22 H 0.3293 1.2308 0.0727
C30 C 0.4576(5) 1.2531(4) 0.1667(3)
H23 H 0.4842 1.2429 0.2141
H24 H 0.5162 1.2687 0.1319
H25 H 0.3809 1.3160 0.1689
C31 C 0.3515(4) 1.1260(4) 0.1987(3)
H26 H 0.3799 1.1138 0.2457
H27 H 0.2769 1.1916 0.2018
H28 H 0.3384 1.0598 0.1841
C32 C 0.7628(4) 0.5715(5) -0.4435(3)
H29 H 0.8254 0.4997 -0.4604
H30 H 0.7153 0.5600 -0.4000
H31 H 0.7117 0.6020 -0.4809
C33 C 0.8871(5) 0.6755(5) -0.4967(3)
H32 H 0.9506 0.6050 -0.5149
H33 H 0.8322 0.7045 -0.5323
H34 H 0.9216 0.7303 -0.4878
C34 C 0.7225(5) 0.7659(5) -0.4002(3)
H35 H 0.6714 0.7964 -0.4377
H36 H 0.6749 0.7542 -0.3568
H37 H 0.7583 0.8186 -0.3893
C1A C 1.0030(3) 0.4486(3) 0.01615(18)
C2A C 1.0474(3) 0.3479(3) -0.02646(19)
C3A C 1.0477(3) 0.2494(3) 0.0060(2)
H1A H 1.0768 0.1823 -0.0223
C4A C 1.0069(4) 0.2455(3) 0.0784(2)
C5A C 0.9658(3) 0.3428(3) 0.11924(19)
H2A H 0.9385 0.3409 0.1688
C6A C 0.9629(3) 0.4452(3) 0.08986(18)
C7A C 1.0860(3) 0.3534(3) -0.10195(19)
C8A C 1.0095(4) 0.1331(4) 0.1093(2)
C9A C 0.9200(3) 0.5471(3) 0.13203(19)
C10A C 1.1254(4) 0.2526(3) -0.1525(2)
O1A O 1.0687(3) 0.2580(3) -0.20220(16)
C11A C 1.2323(4) 0.1517(3) -0.14402(19)
C12A C 1.2477(4) 0.0522(3) -0.1794(2)
H3A H 1.1876 0.0502 -0.2056
C13A C 1.3472(4) -0.0419(3) -0.1768(2)
H4A H 1.3539 -0.1089 -0.2000
C14A C 1.4379(4) -0.0420(3) -0.1417(2)
C15A C 1.4252(4) 0.0571(4) -0.1079(2)
H5A H 1.4878 0.0593 -0.0842
C16A C 1.3227(4) 0.1533(4) -0.1081(2)
H6A H 1.3150 0.2196 -0.0836
C17A C 1.5556(4) -0.1460(4) -0.1432(2)
C18A C 0.8715(4) 0.5440(3) 0.2101(2)
O2A O 0.7643(2) 0.5854(2) 0.22698(14)
C19A C 0.9521(3) 0.4909(3) 0.26273(19)
C20A C 0.9062(4) 0.4654(4) 0.3306(2)
H7A H 0.8235 0.4815 0.3413
C21A C 0.9787(4) 0.4178(4) 0.3813(2)
H8A H 0.9455 0.4001 0.4263
C22A C 1.0994(4) 0.3946(3) 0.3690(2)
C23A C 1.1454(4) 0.4189(4) 0.3015(2)
H9A H 1.2281 0.4028 0.2912
C24A C 1.0735(3) 0.4655(3) 0.2496(2)
H10A H 1.1075 0.4807 0.2040
C25A C 1.1801(4) 0.3454(4) 0.4264(2)
C26A C 0.9851(5) 0.1391(4) 0.1918(2)
H11A H 1.0460 0.1577 0.2110
H12A H 0.9871 0.0664 0.2098
H13A H 0.9068 0.1969 0.2072
C27A C 0.9160(5) 0.1043(4) 0.0785(3)
H14A H 0.9159 0.0328 0.0974
H15A H 0.9340 0.0982 0.0260
H16A H 0.8377 0.1634 0.0922
C28A C 1.1324(5) 0.0396(4) 0.0877(3)
H17A H 1.1930 0.0578 0.1074
H18A H 1.1503 0.0334 0.0352
H19A H 1.1319 -0.0317 0.1068
C29A C 1.5964(5) -0.1651(4) -0.0703(3)
H20A H 1.5356 -0.1777 -0.0357
H21A H 1.6092 -0.0991 -0.0550
H22A H 1.6707 -0.2308 -0.0727
C30A C 1.5424(5) -0.2531(4) -0.1667(3)
H23A H 1.5158 -0.2429 -0.2141
H24A H 1.4838 -0.2687 -0.1319
H25A H 1.6191 -0.3160 -0.1689
C31A C 1.6485(4) -0.1260(4) -0.1987(3)
H26A H 1.6201 -0.1138 -0.2457
H27A H 1.7231 -0.1916 -0.2018
H28A H 1.6616 -0.0598 -0.1841
C32A C 1.2372(4) 0.4285(5) 0.4435(3)
H29A H 1.1746 0.5003 0.4604
H30A H 1.2847 0.4400 0.4000
H31A H 1.2883 0.3980 0.4809
C33A C 1.1129(5) 0.3245(5) 0.4967(3)
H32A H 1.0494 0.3950 0.5149
H33A H 1.1678 0.2955 0.5323
H34A H 1.0784 0.2697 0.4878
C34A C 1.2775(5) 0.2341(5) 0.4002(3)
H35A H 1.3286 0.2036 0.4377
H36A H 1.3251 0.2458 0.3568
H37A H 1.2417 0.1814 0.3893
C35 C 0.4991(3) 0.4523(3) 0.51925(18)
C36 C 0.4527(3) 0.4629(3) 0.59314(18)
C37 C 0.4438(3) 0.3687(3) 0.62875(18)
H38 H 0.4120 0.3761 0.6781
C38 C 0.4793(3) 0.2663(3) 0.59458(19)
C39 C 0.5300(3) 0.2551(3) 0.5226(2)
H39 H 0.5587 0.1836 0.4994
C40 C 0.5398(3) 0.3459(3) 0.48397(18)
C41 C 0.4146(3) 0.5707(3) 0.62864(18)
C42 C 0.4556(4) 0.1714(3) 0.6371(2)
C43 C 0.5854(3) 0.3378(3) 0.40886(18)
C44 C 0.3716(3) 0.5854(3) 0.70848(19)
O3 O 0.2701(3) 0.6468(3) 0.72965(14)
C45 C 0.4546(3) 0.5244(3) 0.75890(19)
C46 C 0.4115(4) 0.5136(4) 0.8293(2)
H40 H 0.3284 0.5443 0.8447
C47 C 0.4882(4) 0.4586(4) 0.8773(2)
H41 H 0.4563 0.4489 0.9248
C48 C 0.6114(4) 0.4164(4) 0.8586(2)
C49 C 0.6531(4) 0.4292(3) 0.7892(2)
H42 H 0.7364 0.4022 0.7748
C50 C 0.5774(3) 0.4807(3) 0.7389(2)
H43 H 0.6094 0.4861 0.6907
C51 C 0.6958(4) 0.3628(4) 0.9149(2)
C52 C 0.6256(3) 0.2245(3) 0.3705(2)
O4 O 0.5568(3) 0.2047(2) 0.33804(16)
C53 C 0.7459(3) 0.1419(3) 0.3746(2)
C54 C 0.7733(4) 0.0312(4) 0.3564(3)
H44 H 0.7130 0.0090 0.3436
C55 C 0.8872(4) -0.0482(3) 0.3563(2)
H45 H 0.9038 -0.1235 0.3426
C56 C 0.9768(4) -0.0202(4) 0.3757(2)
C57 C 0.9499(4) 0.0911(4) 0.3946(2)
H46 H 1.0101 0.1131 0.4078
C58 C 0.8355(4) 0.1703(3) 0.3941(2)
H47 H 0.8186 0.2458 0.4075
C59 C 1.1028(4) -0.1084(4) 0.3726(3)
C60 C 0.5084(5) 0.0610(4) 0.5955(3)
H48 H 0.4771 0.0702 0.5494
H49 H 0.5950 0.0371 0.5868
H50 H 0.4872 0.0043 0.6232
C61 C 0.3197(4) 0.2042(4) 0.6524(2)
H51 H 0.2835 0.2757 0.6794
H52 H 0.2871 0.2119 0.6069
H53 H 0.3023 0.1460 0.6806
C62 C 0.5039(4) 0.1574(4) 0.7088(2)
H54 H 0.4696 0.2290 0.7357
H55 H 0.4828 0.1008 0.7365
H56 H 0.5905 0.1335 0.7002
C63 C 0.8101(5) 0.2753(5) 0.8793(3)
H57 H 0.8455 0.3090 0.8402
H58 H 0.8654 0.2462 0.9147
H59 H 0.7935 0.2138 0.8601
C64 C 0.6385(5) 0.3144(6) 0.9754(3)
H60 H 0.5647 0.3728 0.9975
H61 H 0.6208 0.2532 0.9568
H62 H 0.6926 0.2855 1.0115
C65 C 0.7303(5) 0.4566(5) 0.9441(3)
H63 H 0.7676 0.4875 0.9042
H64 H 0.6588 0.5162 0.9675
H65 H 0.7862 0.4249 0.9789
C66 C 1.1547(5) -0.1347(5) 0.2943(3)
H66 H 1.1541 -0.0659 0.2706
H67 H 1.2365 -0.1895 0.2911
H68 H 1.1070 -0.1658 0.2707
C67 C 1.1030(6) -0.2140(5) 0.4100(4)
H69 H 1.0693 -0.1960 0.4605
H70 H 1.0552 -0.2453 0.3867
H71 H 1.1846 -0.2690 0.4071
C68 C 1.1835(5) -0.0665(5) 0.4090(3)
H72 H 1.1856 0.0021 0.3861
H73 H 1.1524 -0.0506 0.4600
H74 H 1.2639 -0.1241 0.4042
C35A C 0.5009(3) 0.5477(3) 0.48075(18)
C36A C 0.5473(3) 0.5371(3) 0.40686(18)
C37A C 0.5562(3) 0.6313(3) 0.37125(18)
H38A H 0.5880 0.6239 0.3219
C38A C 0.5207(3) 0.7337(3) 0.40542(19)
C39A C 0.4700(3) 0.7449(3) 0.4774(2)
H39A H 0.4413 0.8164 0.5006
C40A C 0.4602(3) 0.6541(3) 0.51603(18)
C41A C 0.5854(3) 0.4293(3) 0.37136(18)
C42A C 0.5444(4) 0.8286(3) 0.3629(2)
C43A C 0.4146(3) 0.6622(3) 0.59114(18)
C44A C 0.6284(3) 0.4146(3) 0.29152(19)
O3A O 0.7299(3) 0.3532(3) 0.27035(14)
C45A C 0.5454(3) 0.4756(3) 0.24110(19)
C46A C 0.5885(4) 0.4864(4) 0.1707(2)
H40A H 0.6716 0.4557 0.1553
C47A C 0.5118(4) 0.5414(4) 0.1227(2)
H41A H 0.5437 0.5511 0.0752
C48A C 0.3886(4) 0.5836(4) 0.1414(2)
C49A C 0.3469(4) 0.5708(3) 0.2108(2)
H42A H 0.2636 0.5978 0.2252
C50A C 0.4226(3) 0.5193(3) 0.2611(2)
H43A H 0.3906 0.5139 0.3093
C51A C 0.3042(4) 0.6372(4) 0.0851(2)
C52A C 0.3744(3) 0.7755(3) 0.6295(2)
O4A O 0.4432(3) 0.7953(2) 0.66196(16)
C53A C 0.2541(3) 0.8581(3) 0.6254(2)
C54A C 0.2267(4) 0.9688(4) 0.6436(3)
H44A H 0.2870 0.9910 0.6564
C55A C 0.1128(4) 1.0482(3) 0.6437(2)
H45A H 0.0962 1.1235 0.6574
C56A C 0.0232(4) 1.0202(4) 0.6243(2)
C57A C 0.0501(4) 0.9089(4) 0.6054(2)
H46A H -0.0101 0.8869 0.5922
C58A C 0.1645(4) 0.8297(3) 0.6059(2)
H47A H 0.1814 0.7542 0.5925
C59A C -0.1028(4) 1.1084(4) 0.6274(3)
C60A C 0.4916(5) 0.9390(4) 0.4045(3)
H48A H 0.5229 0.9298 0.4506
H49A H 0.4050 0.9629 0.4132
H50A H 0.5128 0.9957 0.3768
C61A C 0.6803(4) 0.7958(4) 0.3476(2)
H51A H 0.7165 0.7243 0.3206
H52A H 0.7129 0.7881 0.3931
H53A H 0.6977 0.8540 0.3194
C62A C 0.4961(4) 0.8426(4) 0.2912(2)
H54A H 0.5304 0.7710 0.2643
H55A H 0.5172 0.8992 0.2635
H56A H 0.4095 0.8665 0.2998
C63A C 0.1899(5) 0.7247(5) 0.1207(3)
H57A H 0.1545 0.6910 0.1598
H58A H 0.1346 0.7538 0.0853
H59A H 0.2065 0.7862 0.1399
C64A C 0.3615(5) 0.6856(6) 0.0246(3)
H60A H 0.4353 0.6272 0.0025
H61A H 0.3792 0.7468 0.0432
H62A H 0.3074 0.7145 -0.0115
C65A C 0.2697(5) 0.5434(5) 0.0559(3)
H63A H 0.2324 0.5125 0.0958
H64A H 0.3412 0.4838 0.0325
H65A H 0.2138 0.5751 0.0211
C66A C -0.1547(5) 1.1347(5) 0.7057(3)
H66A H -0.1541 1.0659 0.7294
H67A H -0.2365 1.1895 0.7089
H68A H -0.1070 1.1658 0.7293
C67A C -0.1030(6) 1.2140(5) 0.5900(4)
H69A H -0.0693 1.1960 0.5395
H70A H -0.0552 1.2453 0.6133
H71A H -0.1846 1.2690 0.5929
C68A C -0.1835(5) 1.0665(5) 0.5910(3)
H72A H -0.1856 0.9979 0.6139
H73A H -0.1524 1.0506 0.5400
H74A H -0.2639 1.1241 0.5958
loop_
_geom_bond_atom_site_label_1
_geom_bond_atom_site_label_2
_geom_bond_site_symmetry_1
_geom_bond_site_symmetry_2
C1 C2 1_555 1_555
C2 C3 1_555 1_555
C3 H1 1_555 1_555
C4 C3 1_555 1_555
C5 C4 1_555 1_555
H2 C5 1_555 1_555
C6 C1 1_555 1_555
C7 C2 1_555 1_555
C8 C4 1_555 1_555
C9 C6 1_555 1_555
C10 C7 1_555 1_555
O1 C10 1_555 1_555
C11 C10 1_555 1_555
C12 C11 1_555 1_555
H3 C12 1_555 1_555
C13 C12 1_555 1_555
H4 C13 1_555 1_555
C14 C13 1_555 1_555
C15 C14 1_555 1_555
H5 C15 1_555 1_555
C16 C11 1_555 1_555
H6 C16 1_555 1_555
C17 C14 1_555 1_555
C18 C9 1_555 1_555
O2 C18 1_555 1_555
C19 C18 1_555 1_555
C20 C19 1_555 1_555
H7 C20 1_555 1_555
C21 C20 1_555 1_555
H8 C21 1_555 1_555
C22 C21 1_555 1_555
C23 C22 1_555 1_555
H9 C23 1_555 1_555
C24 C19 1_555 1_555
H10 C24 1_555 1_555
C25 C22 1_555 1_555
C26 C8 1_555 1_555
H11 C26 1_555 1_555
H12 C26 1_555 1_555
H13 C26 1_555 1_555
C27 C8 1_555 1_555
H14 C27 1_555 1_555
H15 C27 1_555 1_555
H16 C27 1_555 1_555
C28 C8 1_555 1_555
H17 C28 1_555 1_555
H18 C28 1_555 1_555
H19 C28 1_555 1_555
C29 C17 1_555 1_555
H20 C29 1_555 1_555
H21 C29 1_555 1_555
H22 C29 1_555 1_555
C30 C17 1_555 1_555
H23 C30 1_555 1_555
H24 C30 1_555 1_555
H25 C30 1_555 1_555
C31 C17 1_555 1_555
H26 C31 1_555 1_555
H27 C31 1_555 1_555
H28 C31 1_555 1_555
C32 C25 1_555 1_555
H29 C32 1_555 1_555
H30 C32 1_555 1_555
H31 C32 1_555 1_555
C33 C25 1_555 1_555
H32 C33 1_555 1_555
H33 C33 1_555 1_555
H34 C33 1_555 1_555
C34 C25 1_555 1_555
H35 C34 1_555 1_555
H36 C34 1_555 1_555
H37 C34 1_555 1_555
C35 C36 1_555 1_555
C36 C37 1_555 1_555
C37 H38 1_555 1_555
C38 C37 1_555 1_555
C39 C38 1_555 1_555
H39 C39 1_555 1_555
C40 C35 1_555 1_555
C41 C36 1_555 1_555
C42 C38 1_555 1_555
C43 C40 1_555 1_555
C44 C41 1_555 1_555
O3 C44 1_555 1_555
C45 C44 1_555 1_555
C46 C45 1_555 1_555
H40 C46 1_555 1_555
C47 C46 1_555 1_555
H41 C47 1_555 1_555
C48 C47 1_555 1_555
C49 C48 1_555 1_555
H42 C49 1_555 1_555
C50 C45 1_555 1_555
H43 C50 1_555 1_555
C51 C48 1_555 1_555
C52 C43 1_555 1_555
O4 C52 1_555 1_555
C53 C52 1_555 1_555
C54 C53 1_555 1_555
H44 C54 1_555 1_555
C55 C54 1_555 1_555
H45 C55 1_555 1_555
C56 C55 1_555 1_555
C57 C56 1_555 1_555
H46 C57 1_555 1_555
C58 C53 1_555 1_555
H47 C58 1_555 1_555
C59 C56 1_555 1_555
C60 C42 1_555 1_555
H48 C60 1_555 1_555
H49 C60 1_555 1_555
H50 C60 1_555 1_555
C61 C42 1_555 1_555
H51 C61 1_555 1_555
H52 C61 1_555 1_555
H53 C61 1_555 1_555
C62 C42 1_555 1_555
H54 C62 1_555 1_555
H55 C62 1_555 1_555
H56 C62 1_555 1_555
C63 C51 1_555 1_555
H57 C63 1_555 1_555
H58 C63 1_555 1_555
H59 C63 1_555 1_555
C64 C51 1_555 1_555
H60 C64 1_555 1_555
H61 C64 1_555 1_555
H62 C64 1_555 1_555
C65 C51 1_555 1_555
H63 C65 1_555 1_555
H64 C65 1_555 1_555
H65 C65 1_555 1_555
C66 C59 1_555 1_555
H66 C66 1_555 1_555
H67 C66 1_555 1_555
H68 C66 1_555 1_555
C67 C59 1_555 1_555
H69 C67 1_555 1_555
H70 C67 1_555 1_555
H71 C67 1_555 1_555
C68 C59 1_555 1_555
H72 C68 1_555 1_555
H73 C68 1_555 1_555
H74 C68 1_555 1_555
C1A C1 1_555 1_555
C2A C1A 1_555 1_555
C3A C2A 1_555 1_555
H1A C3A 1_555 1_555
C4A C3A 1_555 1_555
C5A C4A 1_555 1_555
H2A C5A 1_555 1_555
C6A C1A 1_555 1_555
C7A C9 1_555 1_555
C8A C4A 1_555 1_555
C9A C7 1_555 1_555
C10A C7A 1_555 1_555
O1A C10A 1_555 1_555
C11A C10A 1_555 1_555
C12A C11A 1_555 1_555
H3A C12A 1_555 1_555
C13A C12A 1_555 1_555
H4A C13A 1_555 1_555
C14A C13A 1_555 1_555
C15A C14A 1_555 1_555
H5A C15A 1_555 1_555
C16A C11A 1_555 1_555
H6A C16A 1_555 1_555
C17A C14A 1_555 1_555
C18A C9A 1_555 1_555
O2A C18A 1_555 1_555
C19A C18A 1_555 1_555
C20A C19A 1_555 1_555
H7A C20A 1_555 1_555
C21A C20A 1_555 1_555
H8A C21A 1_555 1_555
C22A C21A 1_555 1_555
C23A C22A 1_555 1_555
H9A C23A 1_555 1_555
C24A C19A 1_555 1_555
H10A C24A 1_555 1_555
C25A C22A 1_555 1_555
C26A C8A 1_555 1_555
H11A C26A 1_555 1_555
H12A C26A 1_555 1_555
H13A C26A 1_555 1_555
C27A C8A 1_555 1_555
H14A C27A 1_555 1_555
H15A C27A 1_555 1_555
H16A C27A 1_555 1_555
C28A C8A 1_555 1_555
H17A C28A 1_555 1_555
H18A C28A 1_555 1_555
H19A C28A 1_555 1_555
C29A C17A 1_555 1_555
H20A C29A 1_555 1_555
H21A C29A 1_555 1_555
H22A C29A 1_555 1_555
C30A C17A 1_555 1_555
H23A C30A 1_555 1_555
H24A C30A 1_555 1_555
H25A C30A 1_555 1_555
C31A C17A 1_555 1_555
H26A C31A 1_555 1_555
H27A C31A 1_555 1_555
H28A C31A 1_555 1_555
C32A C25A 1_555 1_555
H29A C32A 1_555 1_555
H30A C32A 1_555 1_555
H31A C32A 1_555 1_555
C33A C25A 1_555 1_555
H32A C33A 1_555 1_555
H33A C33A 1_555 1_555
H34A C33A 1_555 1_555
C34A C25A 1_555 1_555
H35A C34A 1_555 1_555
H36A C34A 1_555 1_555
H37A C34A 1_555 1_555
C35A C35 1_555 1_555
C36A C35A 1_555 1_555
C37A C36A 1_555 1_555
H38A C37A 1_555 1_555
C38A C37A 1_555 1_555
C39A C38A 1_555 1_555
H39A C39A 1_555 1_555
C40A C35A 1_555 1_555
C41A C43 1_555 1_555
C42A C38A 1_555 1_555
C43A C41 1_555 1_555
C44A C41A 1_555 1_555
O3A C44A 1_555 1_555
C45A C44A 1_555 1_555
C46A C45A 1_555 1_555
H40A C46A 1_555 1_555
C47A C46A 1_555 1_555
H41A C47A 1_555 1_555
C48A C47A 1_555 1_555
C49A C48A 1_555 1_555
H42A C49A 1_555 1_555
C50A C45A 1_555 1_555
H43A C50A 1_555 1_555
C51A C48A 1_555 1_555
C52A C43A 1_555 1_555
O4A C52A 1_555 1_555
C53A C52A 1_555 1_555
C54A C53A 1_555 1_555
H44A C54A 1_555 1_555
C55A C54A 1_555 1_555
H45A C55A 1_555 1_555
C56A C55A 1_555 1_555
C57A C56A 1_555 1_555
H46A C57A 1_555 1_555
C58A C53A 1_555 1_555
H47A C58A 1_555 1_555
C59A C56A 1_555 1_555
C60A C42A 1_555 1_555
H48A C60A 1_555 1_555
H49A C60A 1_555 1_555
H50A C60A 1_555 1_555
C61A C42A 1_555 1_555
H51A C61A 1_555 1_555
H52A C61A 1_555 1_555
H53A C61A 1_555 1_555
C62A C42A 1_555 1_555
H54A C62A 1_555 1_555
H55A C62A 1_555 1_555
H56A C62A 1_555 1_555
C63A C51A 1_555 1_555
H57A C63A 1_555 1_555
H58A C63A 1_555 1_555
H59A C63A 1_555 1_555
C64A C51A 1_555 1_555
H60A C64A 1_555 1_555
H61A C64A 1_555 1_555
H62A C64A 1_555 1_555
C65A C51A 1_555 1_555
H63A C65A 1_555 1_555
H64A C65A 1_555 1_555
H65A C65A 1_555 1_555
C66A C59A 1_555 1_555
H66A C66A 1_555 1_555
H67A C66A 1_555 1_555
H68A C66A 1_555 1_555
C67A C59A 1_555 1_555
H69A C67A 1_555 1_555
H70A C67A 1_555 1_555
H71A C67A 1_555 1_555
C68A C59A 1_555 1_555
H72A C68A 1_555 1_555
H73A C68A 1_555 1_555
H74A C68A 1_555 1_555
C5 C6 1_555 1_555
C15 C16 1_555 1_555
C23 C24 1_555 1_555
C39 C40 1_555 1_555
C49 C50 1_555 1_555
C57 C58 1_555 1_555
C2A C7A 1_555 1_555
C5A C6A 1_555 1_555
C6A C9A 1_555 1_555
C15A C16A 1_555 1_555
C23A C24A 1_555 1_555
C36A C41A 1_555 1_555
C39A C40A 1_555 1_555
C40A C43A 1_555 1_555
C49A C50A 1_555 1_555
C57A C58A 1_555 1_555

#END
