
#######################################################################
#
#                 Cambridge Crystallographic Data Centre
#                                CCDC 
#
#######################################################################
#
# If this CIF has been generated from an entry in the Cambridge 
# Structural Database, then it will include bibliographic, chemical, 
# crystal, experimental, refinement or atomic coordinate data resulting 
# from the CCDC's data processing and validation procedures.
#
#######################################################################

data_VEMJII
_chemical_formula_moiety         'C9 H14 N1 O2 1+,C8 H7 O3 1-,H2 O1'
_chemical_name_systematic        
'2-Hydroxy-3-phenoxypropan-1-aminium hydroxy(phenyl)acetate monohydrate'
_symmetry_cell_setting           orthorhombic
_symmetry_space_group_name_H-M   'P 21 21 21'
_symmetry_Int_Tables_number      19
_space_group_name_Hall           'P 2ac 2ab'
loop_
_symmetry_equiv_pos_site_id
_symmetry_equiv_pos_as_xyz
1 x,y,z
2 1/2-x,-y,1/2+z
3 -x,1/2+y,1/2-z
4 1/2+x,1/2-y,-z
_cell_length_a                   5.3846(11)
_cell_length_b                   9.0623(18)
_cell_length_c                   34.541(7)
_cell_angle_alpha                90
_cell_angle_beta                 90
_cell_angle_gamma                90
_cell_volume                     1685.49
_cell_formula_units_Z            4
loop_
_atom_site_label
_atom_site_type_symbol
_atom_site_fract_x
_atom_site_fract_y
_atom_site_fract_z
C1 C 0.4014(8) -0.0282(4) 0.13797(12)
H1 H 0.2678 -0.0550 0.1535
C2 C 0.4079(10) -0.0723(5) 0.09976(13)
H2 H 0.2793 -0.1289 0.0896
C3 C 0.6033(11) -0.0328(6) 0.07682(13)
H3 H 0.6081 -0.0646 0.0512
C4 C 0.7940(9) 0.0537(6) 0.09099(13)
H4 H 0.9235 0.0838 0.0750
C5 C 0.7868(8) 0.0948(5) 0.12999(12)
H5 H 0.9167 0.1499 0.1403
C6 C 0.5915(7) 0.0552(4) 0.15332(10)
C7 C 0.5864(7) 0.0983(4) 0.19564(11)
H6 H 0.7246 0.1661 0.2006
C8 C 0.3424(7) 0.1771(4) 0.20636(11)
O1 O 0.6151(6) -0.0271(3) 0.22012(8)
H20 H 0.7606 -0.0538 0.2199
O2 O 0.2155(5) 0.1276(3) 0.23324(8)
O3 O 0.2927(5) 0.2882(3) 0.18611(8)
C9 C 1.2032(9) 0.5863(5) 0.04971(12)
H7 H 1.0895 0.6616 0.0542
C10 C 1.3765(10) 0.5982(6) 0.02014(13)
H8 H 1.3798 0.6830 0.0050
C11 C 1.5424(10) 0.4875(7) 0.01295(14)
H9 H 1.6580 0.4970 -0.0069
C12 C 1.5371(10) 0.3609(7) 0.03541(14)
H10 H 1.6477 0.2845 0.0304
C13 C 1.3688(9) 0.3481(5) 0.06508(15)
H11 H 1.3672 0.2634 0.0803
C14 C 1.2017(8) 0.4603(5) 0.07256(11)
C15 C 0.8825(8) 0.5531(4) 0.11468(11)
H12 H 0.7618 0.5730 0.0945
H13 H 0.9764 0.6426 0.1195
C16 C 0.7547(8) 0.5042(4) 0.15073(10)
H14 H 0.6681 0.4109 0.1459
C17 C 0.5697(8) 0.6199(4) 0.16334(12)
H15 H 0.6520 0.7149 0.1651
H16 H 0.4389 0.6277 0.1441
N1 N 0.4594(6) 0.5823(4) 0.20141(9)
H17 H 0.3843 0.4951 0.1999
H18 H 0.3490 0.6510 0.2080
H19 H 0.5786 0.5784 0.2192
O4 O 1.0442(6) 0.4376(3) 0.10309(9)
O5 O 0.9222(5) 0.4863(3) 0.18200(8)
H21 H 1.0107 0.4142 0.1780
O6 O 0.9084(6) 0.3073(4) 0.27692(10)
H22 H 1.011(12) 0.256(7) 0.2633(17)
H23 H 0.857(13) 0.382(5) 0.2637(19)
loop_
_geom_bond_atom_site_label_1
_geom_bond_atom_site_label_2
_geom_bond_site_symmetry_1
_geom_bond_site_symmetry_2
C1 H1 1_555 1_555
C2 C1 1_555 1_555
H2 C2 1_555 1_555
C3 C2 1_555 1_555
H3 C3 1_555 1_555
C4 C3 1_555 1_555
H4 C4 1_555 1_555
C5 C4 1_555 1_555
H5 C5 1_555 1_555
C6 C1 1_555 1_555
C7 C6 1_555 1_555
H6 C7 1_555 1_555
C8 C7 1_555 1_555
C9 H7 1_555 1_555
C10 C9 1_555 1_555
H8 C10 1_555 1_555
C11 C10 1_555 1_555
H9 C11 1_555 1_555
C12 C11 1_555 1_555
H10 C12 1_555 1_555
C13 C12 1_555 1_555
H11 C13 1_555 1_555
C14 C9 1_555 1_555
C15 H12 1_555 1_555
H13 C15 1_555 1_555
C16 C15 1_555 1_555
H14 C16 1_555 1_555
C17 C16 1_555 1_555
H15 C17 1_555 1_555
H16 C17 1_555 1_555
N1 C17 1_555 1_555
H17 N1 1_555 1_555
H18 N1 1_555 1_555
H19 N1 1_555 1_555
O1 C7 1_555 1_555
H20 O1 1_555 1_555
O2 C8 1_555 1_555
O3 C8 1_555 1_555
O4 C14 1_555 1_555
O5 C16 1_555 1_555
H21 O5 1_555 1_555
O6 H22 1_555 1_555
H23 O6 1_555 1_555
C5 C6 1_555 1_555
C13 C14 1_555 1_555
C15 O4 1_555 1_555

#END
