
#######################################################################
#
#                 Cambridge Crystallographic Data Centre
#                                CCDC 
#
#######################################################################
#
# If this CIF has been generated from an entry in the Cambridge 
# Structural Database, then it will include bibliographic, chemical, 
# crystal, experimental, refinement or atomic coordinate data resulting 
# from the CCDC's data processing and validation procedures.
#
#######################################################################

data_VEMMOP
_chemical_compound_source        'Chrysanthemum indicum'
_chemical_formula_moiety         'C30 H38 O7'
_chemical_name_systematic        Chrysanthelide
_symmetry_cell_setting           monoclinic
_symmetry_space_group_name_H-M   'P 21'
_symmetry_Int_Tables_number      4
_space_group_name_Hall           'P 2yb'
loop_
_symmetry_equiv_pos_site_id
_symmetry_equiv_pos_as_xyz
1 x,y,z
2 -x,1/2+y,-z
_cell_length_a                   11.997(3)
_cell_length_b                   11.359(2)
_cell_length_c                   9.838(1)
_cell_angle_alpha                90
_cell_angle_beta                 102.22(2)
_cell_angle_gamma                90
_cell_volume                     1310.29
_cell_formula_units_Z            2
loop_
_atom_site_label
_atom_site_type_symbol
_atom_site_fract_x
_atom_site_fract_y
_atom_site_fract_z
O1 O 0.4917(3) 0.1506(4) 0.4314(3)
O2 O 0.4261(3) 0.1299(4) 0.2063(3)
O3 O 0.1949(2) 0.3713(4) 0.5692(4)
O4 O 0.3895(3) 0.4589(3) 0.7111(3)
O5 O -0.0057(3) 0.4123(8) 0.2224(3)
O6 O -0.1244(3) 0.5619(4) 0.2366(4)
O7 O -0.0033(3) 0.0249(4) 0.4226(3)
C1 C 0.5366(4) 0.3151(5) 0.7775(5)
C2 C 0.5954(4) 0.2189(6) 0.8795(5)
C3 C 0.6857(4) 0.1744(5) 0.8079(5)
C4 C 0.6632(4) 0.2014(5) 0.6749(5)
C5 C 0.5503(4) 0.2698(5) 0.6340(4)
C6 C 0.4546(4) 0.1909(5) 0.5561(4)
C7 C 0.3406(4) 0.2534(4) 0.4977(4)
C8 C 0.2625(3) 0.2671(5) 0.6024(4)
C9 C 0.3233(4) 0.2690(5) 0.7555(4)
C10 C 0.4210(4) 0.357 0.7981(4)
C11 C 0.2937(4) 0.1870(5) 0.3577(4)
C12 C 0.4060(4) 0.1538(5) 0.3181(5)
C13 C 0.2248(4) 0.0707(5) 0.3674(5)
C14 C 0.1081(4) 0.0933(5) 0.2642(5)
C15 C 0.1346(4) 0.0920(5) 0.1199(5)
C16 C 0.1948(4) 0.1873(5) 0.1081(5)
C17 C 0.2107(4) 0.2590(5) 0.2422(4)
C18 C 0.0965(4) 0.2275(4) 0.2874(4)
C19 C -0.0130(4) 0.2827(5) 0.2094(5)
C20 C -0.1148(4) 0.2469(5) 0.2712(5)
C21 C -0.1763(4) 0.1357(6) 0.2106(5)
C22 C -0.1011(4) 0.0368(5) 0.1772(5)
C23 C 0.0120(4) 0.0097(5) 0.2832(5)
C24 C -0.1843(4) 0.3589(5) 0.2531(5)
C25 C -0.1078(5) 0.4577(6) 0.2377(5)
C26 C -0.2970(5) 0.3745(7) 0.2472(6)
C27 C 0.2419(4) 0.3860(5) 0.2289(5)
C28 C 0.7356(4) 0.1708(6) 0.5730(6)
C29 C 0.4298(4) 0.3936(5) 0.9487(5)
C30 C 0.0445(5) -0.1192(5) 0.2623(6)
loop_
_geom_bond_atom_site_label_1
_geom_bond_atom_site_label_2
_geom_bond_site_symmetry_1
_geom_bond_site_symmetry_2
O1 C6 1_555 1_555
O2 C12 1_555 1_555
O3 C8 1_555 1_555
O4 C10 1_555 1_555
O5 C19 1_555 1_555
O6 C25 1_555 1_555
O7 C23 1_555 1_555
C1 C2 1_555 1_555
C2 C3 1_555 1_555
C3 C4 1_555 1_555
C4 C5 1_555 1_555
C5 C1 1_555 1_555
C6 C5 1_555 1_555
C7 C6 1_555 1_555
C8 C7 1_555 1_555
C9 C8 1_555 1_555
C10 C1 1_555 1_555
C11 C7 1_555 1_555
C12 O1 1_555 1_555
C13 C11 1_555 1_555
C14 C13 1_555 1_555
C15 C14 1_555 1_555
C16 C15 1_555 1_555
C17 C11 1_555 1_555
C18 C14 1_555 1_555
C19 C18 1_555 1_555
C20 C19 1_555 1_555
C21 C20 1_555 1_555
C22 C21 1_555 1_555
C23 C14 1_555 1_555
C24 C20 1_555 1_555
C25 O5 1_555 1_555
C26 C24 1_555 1_555
C27 C17 1_555 1_555
C28 C4 1_555 1_555
C29 C10 1_555 1_555
C30 C23 1_555 1_555
C9 C10 1_555 1_555
C11 C12 1_555 1_555
C16 C17 1_555 1_555
C17 C18 1_555 1_555
C22 C23 1_555 1_555
C24 C25 1_555 1_555

#END
