
#######################################################################
#
#                 Cambridge Crystallographic Data Centre
#                                CCDC 
#
#######################################################################
#
# If this CIF has been generated from an entry in the Cambridge 
# Structural Database, then it will include bibliographic, chemical, 
# crystal, experimental, refinement or atomic coordinate data resulting 
# from the CCDC's data processing and validation procedures.
#
#######################################################################

data_VEMNUZ
_chemical_formula_moiety         'C22 H24 S2'
_chemical_name_systematic        
2,7-di-t-butyl[1]benzothieno[3,2-b][1]benzothiophene
_symmetry_cell_setting           monoclinic
_symmetry_space_group_name_H-M   'P 21/c'
_symmetry_Int_Tables_number      14
_space_group_name_Hall           '-P 2ybc'
loop_
_symmetry_equiv_pos_site_id
_symmetry_equiv_pos_as_xyz
1 x,y,z
2 -x,1/2+y,1/2-z
3 -x,-y,-z
4 x,1/2-y,1/2+z
_cell_length_a                   14.6338(12)
_cell_length_b                   6.3264(6)
_cell_length_c                   10.4185(9)
_cell_angle_alpha                90
_cell_angle_beta                 93.755(3)
_cell_angle_gamma                90
_cell_volume                     962.466
_exptl_crystal_colour            colorless
_exptl_crystal_description       tablet
_cell_formula_units_Z            2
_exptl_crystal_preparation       
'The data crystal was mounted using super glue to affix the crystal to a  glass fiber.'
loop_
_atom_site_label
_atom_site_type_symbol
_atom_site_fract_x
_atom_site_fract_y
_atom_site_fract_z
S1 S 0.59343(4) 0.25062(9) 1.00329(6)
C1 C 0.49958(13) 0.4099(3) 0.96464(17)
C2 C 0.42216(13) 0.3889(3) 0.87340(18)
C3 C 0.36483(14) 0.5655(3) 0.88147(18)
C4 C 0.28369(14) 0.5808(4) 0.8042(2)
H1 H 0.2466 0.6993 0.8103
C5 C 0.25780(14) 0.4222(4) 0.71873(18)
C6 C 0.31658(17) 0.2512(4) 0.7093(2)
H2 H 0.3009 0.1451 0.6501
C7 C 0.39720(16) 0.2329(4) 0.7846(2)
H3 H 0.4348 0.1161 0.7758
C8 C 0.1652(5) 0.4175(16) 0.6379(8)
C9 C 0.1775(7) 0.5532(17) 0.5182(9)
H4 H 0.1897 0.6968 0.5437
H5 H 0.1226 0.5479 0.4625
H6 H 0.2279 0.4997 0.4733
C10 C 0.0898(6) 0.5091(18) 0.7165(8)
H7 H 0.1046 0.6525 0.7396
H8 H 0.0850 0.4266 0.7930
H9 H 0.0325 0.5056 0.6660
C11 C 0.1335(8) 0.1950(14) 0.5932(10)
H10 H 0.0712 0.2017 0.5584
H11 H 0.1378 0.0998 0.6650
H12 H 0.1718 0.1454 0.5282
S1B S 0.40657(4) 0.74938(9) 0.99671(6)
C1B C 0.50042(13) 0.5901(3) 1.03536(17)
C2B C 0.57784(13) 0.6111(3) 1.12660(18)
C3B C 0.63517(14) 0.4345(3) 1.11853(18)
C4B C 0.71631(14) 0.4192(4) 1.1958(2)
H1B H 0.7534 0.3007 1.1897
C5B C 0.74220(14) 0.5778(4) 1.28127(18)
C6B C 0.68342(17) 0.7488(4) 1.2907(2)
H2B H 0.6991 0.8549 1.3499
C7B C 0.60280(16) 0.7671(4) 1.2154(2)
H3B H 0.5652 0.8839 1.2242
C8B C 0.8348(5) 0.5825(16) 1.3621(8)
C9B C 0.8225(7) 0.4468(17) 1.4818(9)
H4B H 0.8103 0.3032 1.4563
H5B H 0.8774 0.4521 1.5375
H6B H 0.7721 0.5003 1.5267
C10B C 0.9102(6) 0.4909(18) 1.2835(8)
H7B H 0.8954 0.3475 1.2604
H8B H 0.9150 0.5734 1.2070
H9B H 0.9675 0.4944 1.3340
C11B C 0.8665(8) 0.8050(14) 1.4068(10)
H10B H 0.9288 0.7983 1.4416
H11B H 0.8622 0.9002 1.3350
H12B H 0.8282 0.8546 1.4718
C12? C 0.1705(5) 0.4612(14) 0.6301(9)
C13? C 0.1818(9) 0.3609(19) 0.4977(9)
H13? H 0.2366 0.4137 0.4632
H14? H 0.1299 0.3962 0.4405
H15? H 0.1859 0.2101 0.5066
C14? C 0.1425(6) 0.6932(12) 0.6105(9)
H16? H 0.1934 0.7720 0.5817
H17? H 0.1247 0.7508 0.6903
H18? H 0.0920 0.7019 0.5471
C15? C 0.0950(6) 0.345(2) 0.6973(10)
H19? H 0.0393 0.3473 0.6432
H20? H 0.0851 0.4136 0.7774
H21? H 0.1132 0.2011 0.7134
C16? C 0.1657(7) 0.423(2) 0.6372(13)
C17? C 0.1905(14) 0.456(3) 0.4977(16)
H22? H 0.2195 0.5909 0.4900
H23? H 0.1358 0.4510 0.4416
H24? H 0.2316 0.3462 0.4743
C18? C 0.1025(13) 0.597(3) 0.6807(17)
H25? H 0.1293 0.7327 0.6653
H26? H 0.0942 0.5818 0.7709
H27? H 0.0442 0.5871 0.6332
C19? C 0.1159(13) 0.209(3) 0.6470(17)
H28? H 0.0568 0.2179 0.6017
H29? H 0.1087 0.1771 0.7358
H30? H 0.1513 0.1004 0.6097
loop_
_geom_bond_atom_site_label_1
_geom_bond_atom_site_label_2
_geom_bond_site_symmetry_1
_geom_bond_site_symmetry_2
S1 C1 1_555 1_555
C1 C2 1_555 1_555
C2 C3 1_555 1_555
C3 C4 1_555 1_555
C4 H1 1_555 1_555
C5 C4 1_555 1_555
C6 C5 1_555 1_555
H2 C6 1_555 1_555
C7 C2 1_555 1_555
H3 C7 1_555 1_555
C8 C5 1_555 1_555
C9 C8 1_555 1_555
H4 C9 1_555 1_555
H5 C9 1_555 1_555
H6 C9 1_555 1_555
C10 C8 1_555 1_555
H7 C10 1_555 1_555
H8 C10 1_555 1_555
H9 C10 1_555 1_555
C11 C8 1_555 1_555
H10 C11 1_555 1_555
H11 C11 1_555 1_555
H12 C11 1_555 1_555
S1B C3 1_555 1_555
C1B C1 1_555 1_555
C2B C1B 1_555 1_555
C3B S1 1_555 1_555
C4B C3B 1_555 1_555
H1B C4B 1_555 1_555
C5B C4B 1_555 1_555
C6B C5B 1_555 1_555
H2B C6B 1_555 1_555
C7B C2B 1_555 1_555
H3B C7B 1_555 1_555
C8B C5B 1_555 1_555
C9B C8B 1_555 1_555
H4B C9B 1_555 1_555
H5B C9B 1_555 1_555
H6B C9B 1_555 1_555
C10B C8B 1_555 1_555
H7B C10B 1_555 1_555
H8B C10B 1_555 1_555
H9B C10B 1_555 1_555
C11B C8B 1_555 1_555
H10B C11B 1_555 1_555
H11B C11B 1_555 1_555
H12B C11B 1_555 1_555
C6 C7 1_555 1_555
S1B C1B 1_555 1_555
C2B C3B 1_555 1_555
C6B C7B 1_555 1_555

#END
