
#######################################################################
#
#                 Cambridge Crystallographic Data Centre
#                                CCDC 
#
#######################################################################
#
# If this CIF has been generated from an entry in the Cambridge 
# Structural Database, then it will include bibliographic, chemical, 
# crystal, experimental, refinement or atomic coordinate data resulting 
# from the CCDC's data processing and validation procedures.
#
#######################################################################

data_VEMYOC
_chemical_formula_moiety         'C36 H52 N6 Se2 6+,6(Cl1 O4 1-),9(H2 O1)'
_chemical_name_systematic        
'11,12,13,14,15,16,17,18,29,30,31,32,33,34,35,36-hexadecahydrotetrabenzo(b,m,p,a)-1,15-diselena-5,8,11,19,22,25-hexaazoniacyclooctacosine hexaperchlorate nonahydrate'
_symmetry_cell_setting           monoclinic
_symmetry_space_group_name_H-M   'P 21/m'
_symmetry_Int_Tables_number      11
_space_group_name_Hall           '-P 2yb'
loop_
_symmetry_equiv_pos_site_id
_symmetry_equiv_pos_as_xyz
1 x,y,z
2 -x,1/2+y,-z
3 -x,-y,-z
4 x,1/2-y,z
_cell_length_a                   7.6167(5)
_cell_length_b                   31.034(2)
_cell_length_c                   12.9377(9)
_cell_angle_alpha                90
_cell_angle_beta                 99.1000(10)
_cell_angle_gamma                90
_cell_volume                     3019.68
_exptl_crystal_description       plate
_cell_formula_units_Z            2
loop_
_atom_site_label
_atom_site_type_symbol
_atom_site_fract_x
_atom_site_fract_y
_atom_site_fract_z
Se1 Se 0.81898(10) 0.06687(2) 0.19533(5)
N1 N 1.1190(8) 0.13086(15) 0.0674(4)
H11 H 1.1088 0.1302 0.1357
H12 H 1.2356 0.1300 0.0626
N2 N 1.0690(11) 0.2500 0.0225(6)
H13 H 1.1042 0.2500 -0.0406
H14 H 0.9493 0.2500 0.0122
N3 N 0.8598(6) 0.13188(13) 0.4533(4)
H15 H 0.7703 0.1345 0.3993
H16 H 0.8118 0.1283 0.5120
N4 N 0.9610(9) 0.2500 0.4785(6)
H17 H 1.0144 0.2500 0.4212
H18 H 1.0465 0.2500 0.5351
C1 C 1.0175(7) 0.03560(17) 0.1562(4)
C2 C 1.0815(8) -0.0019(2) 0.2066(5)
H19 H 1.0317 -0.0124 0.2628
C3 C 1.2205(9) -0.0238(2) 0.1727(5)
H20 H 1.2624 -0.0491 0.2062
C4 C 1.2974(9) -0.0088(2) 0.0908(6)
H21 H 1.3924 -0.0234 0.0698
C5 C 1.2324(9) 0.0280(2) 0.0404(5)
H22 H 1.2823 0.0378 -0.0164
C6 C 1.0928(8) 0.05114(17) 0.0720(5)
C7 C 1.0293(9) 0.09155(18) 0.0141(5)
H23 H 0.9016 0.0941 0.0108
H24 H 1.0545 0.0899 -0.0569
C8 C 1.0425(10) 0.17184(19) 0.0213(5)
H25 H 0.9163 0.1728 0.0250
H26 H 1.0566 0.1733 -0.0518
C9 C 1.1344(10) 0.20990(18) 0.0796(5)
H27 H 1.1080 0.2107 0.1505
H28 H 1.2622 0.2074 0.0830
C10 C 0.7895(7) 0.03711(18) 0.3225(4)
C11 C 0.6881(9) -0.0008(2) 0.3141(6)
H29 H 0.6423 -0.0118 0.2485
C12 C 0.6566(9) -0.0217(2) 0.4028(7)
H30 H 0.5906 -0.0470 0.3971
C13 C 0.7208(8) -0.0056(2) 0.4991(6)
H31 H 0.6986 -0.0199 0.5589
C14 C 0.8180(8) 0.0315(2) 0.5079(5)
H32 H 0.8602 0.0426 0.5740
C15 C 0.8548(7) 0.05317(17) 0.4198(5)
C16 C 0.9694(7) 0.09293(17) 0.4365(5)
H33 H 1.0608 0.0888 0.4970
H34 H 1.0275 0.0975 0.3759
C17 C 0.9686(8) 0.17199(18) 0.4627(5)
H35 H 1.0204 0.1762 0.3996
H36 H 1.0645 0.1695 0.5214
C18 C 0.8523(8) 0.21005(17) 0.4790(6)
H37 H 0.7507 0.2112 0.4234
H38 H 0.8090 0.2073 0.5453
Se1C Se 0.81898(10) 0.43313(2) 0.19533(5)
N1C N 1.1190(8) 0.36914(15) 0.0674(4)
H11C H 1.1088 0.3698 0.1357
H12C H 1.2356 0.3700 0.0626
N3C N 0.8598(6) 0.36812(13) 0.4533(4)
H15C H 0.7703 0.3655 0.3993
H16C H 0.8118 0.3717 0.5120
C1C C 1.0175(7) 0.46440(17) 0.1562(4)
C2C C 1.0815(8) 0.5019(2) 0.2066(5)
H19C H 1.0317 0.5124 0.2628
C3C C 1.2205(9) 0.5238(2) 0.1727(5)
H20C H 1.2624 0.5491 0.2062
C4C C 1.2974(9) 0.5088(2) 0.0908(6)
H21C H 1.3924 0.5234 0.0698
C5C C 1.2324(9) 0.4720(2) 0.0404(5)
H22C H 1.2823 0.4622 -0.0164
C6C C 1.0928(8) 0.44886(17) 0.0720(5)
C7C C 1.0293(9) 0.40845(18) 0.0141(5)
H23C H 0.9016 0.4059 0.0108
H24C H 1.0545 0.4101 -0.0569
C8C C 1.0425(10) 0.32816(19) 0.0213(5)
H25C H 0.9163 0.3272 0.0250
H26C H 1.0566 0.3267 -0.0518
C9C C 1.1344(10) 0.29010(18) 0.0796(5)
H27C H 1.1080 0.2893 0.1505
H28C H 1.2622 0.2926 0.0830
C10C C 0.7895(7) 0.46289(18) 0.3225(4)
C11C C 0.6881(9) 0.5008(2) 0.3141(6)
H29C H 0.6423 0.5118 0.2485
C12C C 0.6566(9) 0.5217(2) 0.4028(7)
H30C H 0.5906 0.5470 0.3971
C13C C 0.7208(8) 0.5056(2) 0.4991(6)
H31C H 0.6986 0.5199 0.5589
C14C C 0.8180(8) 0.4685(2) 0.5079(5)
H32C H 0.8602 0.4574 0.5740
C15C C 0.8548(7) 0.44683(17) 0.4198(5)
C16C C 0.9694(7) 0.40707(17) 0.4365(5)
H33C H 1.0608 0.4112 0.4970
H34C H 1.0275 0.4025 0.3759
C17C C 0.9686(8) 0.32801(18) 0.4627(5)
H35C H 1.0204 0.3238 0.3996
H36C H 1.0645 0.3305 0.5214
C18C C 0.8523(8) 0.28995(17) 0.4790(6)
H37C H 0.7507 0.2888 0.4234
H38C H 0.8090 0.2927 0.5453
Cl1 Cl 0.39946(9) 0.13284(2) 0.33934(6)
O7 O 0.54431(15) 0.13879(8) 0.28800(14)
O8 O 0.25118(17) 0.15273(7) 0.28319(16)
O9 O 0.3666(3) 0.08911(3) 0.3475(2)
O10 O 0.4357(3) 0.15075(8) 0.43864(10)
Cl2 Cl 0.24649(16) 0.12576(4) 0.75049(10)
O19 O 0.3593(2) 0.09736(6) 0.81160(15)
O20 O 0.3221(3) 0.13796(9) 0.66427(13)
O21 O 0.2198(4) 0.16189(5) 0.8091(2)
O22 O 0.0847(2) 0.10570(9) 0.7170(2)
Cl3 Cl 0.70393(19) 0.2500 0.18050(11)
O23 O 0.5399(2) 0.2500 0.21407(19)
O24 O 0.6799(5) 0.2500 0.07204(12)
O25 O 0.7989(3) 0.21364(8) 0.2182(2)
O25C O 0.7989(3) 0.28636(8) 0.2182(2)
Cl4 Cl 0.7473(2) 0.2500 -0.22802(11)
O26 O 0.6189(3) 0.2500 -0.31686(13)
O27 O 0.6656(3) 0.2500 -0.13955(13)
O28 O 0.8528(3) 0.21356(8) -0.2278(2)
O28C O 0.8528(3) 0.28644(8) -0.2278(2)
O1 O 1.3027(15) 0.2500 0.8802(8)
H1 H 1.1899(18) 0.2500 0.867(3)
H2 H 1.327(6) 0.2500 0.9465(12)
O2 O 1.4690(10) 0.1383(3) 0.0531(8)
H3 H 1.539(3) 0.1582(12) 0.039(6)
H4 H 1.375(4) 0.142(2) 0.009(4)
O4 O 0.7077(10) 0.1273(2) 0.6331(5)
H6 H 0.676(4) 0.1536(5) 0.628(7)
H7 H 0.805(4) 0.1277(18) 0.675(4)
O6 O 1.629(3) 0.1401(6) -0.1074(15)
H9 H 1.555(9) 0.1445(12) -0.163(4)
H10 H 1.587(10) 0.119(3) -0.079(6)
O3? O 1.2319(15) 0.2500 0.6442(10)
H5? H 1.339(4) 0.247(13) 0.634(9)
O5? O 1.2302(11) 0.2500 0.3527(8)
H8? H 1.314(5) 0.238(3) 0.394(5)
O11? O 0.3972(3) 0.09869(4) 0.40827(13)
O12? O 0.4513(3) 0.17009(4) 0.39523(16)
O13? O 0.23073(15) 0.13855(9) 0.28257(17)
O14? O 0.5186(2) 0.12407(9) 0.27135(15)
O15? O 0.56584(14) 0.14508(7) 0.31909(19)
O16? O 0.4075(4) 0.12563(8) 0.44578(8)
O17? O 0.3468(3) 0.09531(5) 0.28483(17)
O18? O 0.2776(2) 0.16530(6) 0.3076(2)
loop_
_geom_bond_atom_site_label_1
_geom_bond_atom_site_label_2
_geom_bond_site_symmetry_1
_geom_bond_site_symmetry_2
Se1 C1 1_555 1_555
Cl1 O7 1_555 1_555
Cl2 O19 1_555 1_555
Cl3 O23 1_555 1_555
Cl4 O26 1_555 1_555
O1 H1 1_555 1_555
H2 O1 1_555 1_555
O2 H3 1_555 1_555
H4 O2 1_555 1_555
O4 H6 1_555 1_555
H7 O4 1_555 1_555
O6 H9 1_555 1_555
H10 O6 1_555 1_555
O8 Cl1 1_555 1_555
O9 Cl1 1_555 1_555
O10 Cl1 1_555 1_555
O20 Cl2 1_555 1_555
O21 Cl2 1_555 1_555
O22 Cl2 1_555 1_555
O24 Cl3 1_555 1_555
O25 Cl3 1_555 1_555
O27 Cl4 1_555 1_555
O28 Cl4 1_555 1_555
N1 H11 1_555 1_555
H12 N1 1_555 1_555
N2 H13 1_555 1_555
H14 N2 1_555 1_555
N3 H15 1_555 1_555
H16 N3 1_555 1_555
N4 H17 1_555 1_555
H18 N4 1_555 1_555
C1 C2 1_555 1_555
C2 H19 1_555 1_555
C3 C2 1_555 1_555
H20 C3 1_555 1_555
C4 C3 1_555 1_555
H21 C4 1_555 1_555
C5 C4 1_555 1_555
H22 C5 1_555 1_555
C6 C1 1_555 1_555
C7 N1 1_555 1_555
H23 C7 1_555 1_555
H24 C7 1_555 1_555
C8 N1 1_555 1_555
H25 C8 1_555 1_555
H26 C8 1_555 1_555
C9 N2 1_555 1_555
H27 C9 1_555 1_555
H28 C9 1_555 1_555
C10 Se1 1_555 1_555
C11 C10 1_555 1_555
H29 C11 1_555 1_555
C12 C11 1_555 1_555
H30 C12 1_555 1_555
C13 C12 1_555 1_555
H31 C13 1_555 1_555
C14 C13 1_555 1_555
H32 C14 1_555 1_555
C15 C10 1_555 1_555
C16 N3 1_555 1_555
H33 C16 1_555 1_555
H34 C16 1_555 1_555
C17 N3 1_555 1_555
H35 C17 1_555 1_555
H36 C17 1_555 1_555
C18 N4 1_555 1_555
H37 C18 1_555 1_555
H38 C18 1_555 1_555
Se1C C1C 1_555 1_555
O25C Cl3 1_555 1_555
O28C Cl4 1_555 1_555
N1C H11C 1_555 1_555
H12C N1C 1_555 1_555
N3C H15C 1_555 1_555
H16C N3C 1_555 1_555
C1C C2C 1_555 1_555
C2C H19C 1_555 1_555
C3C C2C 1_555 1_555
H20C C3C 1_555 1_555
C4C C3C 1_555 1_555
H21C C4C 1_555 1_555
C5C C4C 1_555 1_555
H22C C5C 1_555 1_555
C6C C1C 1_555 1_555
C7C N1C 1_555 1_555
H23C C7C 1_555 1_555
H24C C7C 1_555 1_555
C8C N1C 1_555 1_555
H25C C8C 1_555 1_555
H26C C8C 1_555 1_555
C9C N2 1_555 1_555
H27C C9C 1_555 1_555
H28C C9C 1_555 1_555
C10C Se1C 1_555 1_555
C11C C10C 1_555 1_555
H29C C11C 1_555 1_555
C12C C11C 1_555 1_555
H30C C12C 1_555 1_555
C13C C12C 1_555 1_555
H31C C13C 1_555 1_555
C14C C13C 1_555 1_555
H32C C14C 1_555 1_555
C15C C10C 1_555 1_555
C16C N3C 1_555 1_555
H33C C16C 1_555 1_555
H34C C16C 1_555 1_555
C17C N3C 1_555 1_555
H35C C17C 1_555 1_555
H36C C17C 1_555 1_555
C18C N4 1_555 1_555
H37C C18C 1_555 1_555
H38C C18C 1_555 1_555
C5 C6 1_555 1_555
C6 C7 1_555 1_555
C8 C9 1_555 1_555
C14 C15 1_555 1_555
C15 C16 1_555 1_555
C17 C18 1_555 1_555
C5C C6C 1_555 1_555
C6C C7C 1_555 1_555
C8C C9C 1_555 1_555
C14C C15C 1_555 1_555
C15C C16C 1_555 1_555
C17C C18C 1_555 1_555

#END
