
#######################################################################
#
#                 Cambridge Crystallographic Data Centre
#                                CCDC 
#
#######################################################################
#
# If this CIF has been generated from an entry in the Cambridge 
# Structural Database, then it will include bibliographic, chemical, 
# crystal, experimental, refinement or atomic coordinate data resulting 
# from the CCDC's data processing and validation procedures.
#
#######################################################################

data_VEMYAO
_chemical_formula_moiety         'C32 H40 N4 Se2 4+,4(I1 1-),2(H2 O1)'
_chemical_name_systematic        
'10,11,12,13,14,15,25,26,27,28,29,30-dodecahydrotetrabenzo(b,j,m,u)-1,12-diselena-5,8,16,19-tetraazoniacyclodocosine tetraiodide dihydrate'
_symmetry_cell_setting           monoclinic
_symmetry_space_group_name_H-M   'P 2/n'
_symmetry_Int_Tables_number      13
_space_group_name_Hall           '-P 2yac'
loop_
_symmetry_equiv_pos_site_id
_symmetry_equiv_pos_as_xyz
1 x,y,z
2 1/2-x,y,1/2-z
3 -x,-y,-z
4 1/2+x,-y,1/2+z
_cell_length_a                   10.8628(6)
_cell_length_b                   7.6435(4)
_cell_length_c                   24.5655(13)
_cell_angle_alpha                90
_cell_angle_beta                 95.0200(10)
_cell_angle_gamma                90
_cell_volume                     2031.85
_exptl_crystal_colour            colorless
_exptl_crystal_description       chunk
_chemical_melting_point          'decomposes above 208 deg.C'
_cell_formula_units_Z            2
loop_
_atom_site_label
_atom_site_type_symbol
_atom_site_fract_x
_atom_site_fract_y
_atom_site_fract_z
Se1 Se 1.22297(8) -0.74091(9) 0.59871(3)
N1 N 1.5494(5) -0.7163(7) 0.65774(19)
H3 H 1.6188 -0.7659 0.6475
H4 H 1.4928 -0.8017 0.6595
N2 N 1.0167(5) -0.5215(7) 0.70545(18)
H5 H 0.9638 -0.4311 0.7061
H6 H 0.9816 -0.6039 0.6830
C1 C 1.3490(7) -0.7461(8) 0.5478(3)
C2 C 1.3190(7) -0.8216(9) 0.4969(3)
H7 H 1.2392 -0.8623 0.4877
C3 C 1.4069(8) -0.8367(9) 0.4598(3)
H8 H 1.3863 -0.8881 0.4259
C4 C 1.5250(8) -0.7759(9) 0.4730(3)
H9 H 1.5845 -0.7868 0.4482
C5 C 1.5549(7) -0.6972(8) 0.5241(3)
H10 H 1.6345 -0.6555 0.5331
C6 C 1.4671(7) -0.6810(8) 0.5613(2)
C7 C 1.5032(7) -0.5906(8) 0.6150(2)
H11 H 1.5669 -0.5047 0.6099
H12 H 1.4320 -0.5294 0.6268
C8 C 1.5769(6) -0.6409(9) 0.7141(2)
H13 H 1.6275 -0.5369 0.7121
H14 H 1.6228 -0.7254 0.7372
C9 C 1.1567(6) -0.5077(8) 0.5830(2)
C10 C 1.1441(6) -0.4458(9) 0.5303(2)
H15 H 1.1680 -0.5155 0.5020
C11 C 1.0971(7) -0.2845(10) 0.5192(3)
H16 H 1.0886 -0.2447 0.4833
C12 C 1.0624(7) -0.1801(10) 0.5597(3)
H17 H 1.0306 -0.0692 0.5517
C13 C 1.0745(7) -0.2393(8) 0.6132(3)
H18 H 1.0524 -0.1667 0.6411
C14 C 1.1188(6) -0.4051(8) 0.6254(2)
C15 C 1.1347(6) -0.4608(9) 0.6845(3)
H19 H 1.1949 -0.5547 0.6885
H20 H 1.1671 -0.3631 0.7066
C16 C 1.4585(6) -0.5950(9) 0.7383(2)
H21 H 1.4131 -0.5100 0.7152
H22 H 1.4077 -0.6990 0.7398
Se1A Se 1.27703(8) -0.74091(9) 0.90129(3)
N1A N 0.9506(5) -0.7163(7) 0.84226(19)
H3A H 0.8812 -0.7659 0.8525
H4A H 1.0072 -0.8017 0.8405
N2A N 1.4833(5) -0.5215(7) 0.79455(18)
H5A H 1.5362 -0.4311 0.7939
H6A H 1.5184 -0.6039 0.8170
C1A C 1.1510(7) -0.7461(8) 0.9522(3)
C2A C 1.1810(7) -0.8216(9) 1.0031(3)
H7A H 1.2608 -0.8623 1.0123
C3A C 1.0931(8) -0.8367(9) 1.0402(3)
H8A H 1.1137 -0.8881 1.0741
C4A C 0.9750(8) -0.7759(9) 1.0270(3)
H9A H 0.9155 -0.7868 1.0518
C5A C 0.9451(7) -0.6972(8) 0.9759(3)
H10A H 0.8655 -0.6555 0.9669
C6A C 1.0329(7) -0.6810(8) 0.9387(2)
C7A C 0.9968(7) -0.5906(8) 0.8850(2)
H11A H 0.9331 -0.5047 0.8901
H12A H 1.0680 -0.5294 0.8732
C8A C 0.9231(6) -0.6409(9) 0.7859(2)
H13A H 0.8725 -0.5369 0.7879
H14A H 0.8772 -0.7254 0.7628
C9A C 1.3433(6) -0.5077(8) 0.9170(2)
C10A C 1.3559(6) -0.4458(9) 0.9697(2)
H15A H 1.3320 -0.5155 0.9980
C11A C 1.4029(7) -0.2845(10) 0.9808(3)
H16A H 1.4114 -0.2447 1.0167
C12A C 1.4376(7) -0.1801(10) 0.9403(3)
H17A H 1.4694 -0.0692 0.9483
C13A C 1.4255(7) -0.2393(8) 0.8868(3)
H18A H 1.4476 -0.1667 0.8589
C14A C 1.3812(6) -0.4051(8) 0.8746(2)
C15A C 1.3653(6) -0.4608(9) 0.8155(3)
H19A H 1.3051 -0.5547 0.8115
H20A H 1.3329 -0.3631 0.7934
C16A C 1.0415(6) -0.5950(9) 0.7617(2)
H21A H 1.0869 -0.5100 0.7848
H22A H 1.0923 -0.6990 0.7602
I1 I 1.84410(5) -0.84920(6) 0.637737(18)
I2 I 1.43565(8) -1.12705(7) 0.68705(3)
O1 O 0.8233(9) -0.2801(12) 0.7025(5)
H1 H 0.7877 -0.2389 0.6777
H2 H 0.8623 -0.2020 0.7198
loop_
_geom_bond_atom_site_label_1
_geom_bond_atom_site_label_2
_geom_bond_site_symmetry_1
_geom_bond_site_symmetry_2
Se1 C1 1_555 1_555
O1 H1 1_555 1_555
H2 O1 1_555 1_555
N1 H3 1_555 1_555
H4 N1 1_555 1_555
N2 H5 1_555 1_555
H6 N2 1_555 1_555
C1 C2 1_555 1_555
C2 H7 1_555 1_555
C3 C2 1_555 1_555
H8 C3 1_555 1_555
C4 C3 1_555 1_555
H9 C4 1_555 1_555
C5 C4 1_555 1_555
H10 C5 1_555 1_555
C6 C1 1_555 1_555
C7 N1 1_555 1_555
H11 C7 1_555 1_555
H12 C7 1_555 1_555
C8 N1 1_555 1_555
H13 C8 1_555 1_555
H14 C8 1_555 1_555
C9 Se1 1_555 1_555
C10 C9 1_555 1_555
H15 C10 1_555 1_555
C11 C10 1_555 1_555
H16 C11 1_555 1_555
C12 C11 1_555 1_555
H17 C12 1_555 1_555
C13 C12 1_555 1_555
H18 C13 1_555 1_555
C14 C9 1_555 1_555
C15 N2 1_555 1_555
H19 C15 1_555 1_555
H20 C15 1_555 1_555
C16 C8 1_555 1_555
H21 C16 1_555 1_555
H22 C16 1_555 1_555
Se1A C1A 1_555 1_555
N1A H3A 1_555 1_555
H4A N1A 1_555 1_555
N2A C16 1_555 1_555
H5A N2A 1_555 1_555
H6A N2A 1_555 1_555
C1A C2A 1_555 1_555
C2A H7A 1_555 1_555
C3A C2A 1_555 1_555
H8A C3A 1_555 1_555
C4A C3A 1_555 1_555
H9A C4A 1_555 1_555
C5A C4A 1_555 1_555
H10A C5A 1_555 1_555
C6A C1A 1_555 1_555
C7A N1A 1_555 1_555
H11A C7A 1_555 1_555
H12A C7A 1_555 1_555
C8A N1A 1_555 1_555
H13A C8A 1_555 1_555
H14A C8A 1_555 1_555
C9A Se1A 1_555 1_555
C10A C9A 1_555 1_555
H15A C10A 1_555 1_555
C11A C10A 1_555 1_555
H16A C11A 1_555 1_555
C12A C11A 1_555 1_555
H17A C12A 1_555 1_555
C13A C12A 1_555 1_555
H18A C13A 1_555 1_555
C14A C9A 1_555 1_555
C15A N2A 1_555 1_555
H19A C15A 1_555 1_555
H20A C15A 1_555 1_555
C16A N2 1_555 1_555
H21A C16A 1_555 1_555
H22A C16A 1_555 1_555
C5 C6 1_555 1_555
C6 C7 1_555 1_555
C13 C14 1_555 1_555
C14 C15 1_555 1_555
C5A C6A 1_555 1_555
C6A C7A 1_555 1_555
C8A C16A 1_555 1_555
C13A C14A 1_555 1_555
C14A C15A 1_555 1_555

#END
