
#######################################################################
#
#                 Cambridge Crystallographic Data Centre
#                                CCDC 
#
#######################################################################
#
# If this CIF has been generated from an entry in the Cambridge 
# Structural Database, then it will include bibliographic, chemical, 
# crystal, experimental, refinement or atomic coordinate data resulting 
# from the CCDC's data processing and validation procedures.
#
#######################################################################

data_VEMZIX
_chemical_formula_moiety         'C10 H8 O2,C12 H8 N4 O1'
_chemical_name_systematic        
'Naphthalene-2,7-diol 2,5-di-4-pyridyl-1,3,4-oxadiazole'
_symmetry_cell_setting           monoclinic
_symmetry_space_group_name_H-M   'C 2/c'
_symmetry_Int_Tables_number      15
_space_group_name_Hall           '-C 2yn'
loop_
_symmetry_equiv_pos_site_id
_symmetry_equiv_pos_as_xyz
1 x,y,z
2 1/2+x,1/2+y,z
3 -x,y,1/2-z
4 1/2-x,1/2+y,1/2-z
5 -x,-y,-z
6 1/2-x,1/2-y,-z
7 x,-y,1/2+z
8 1/2+x,1/2-y,1/2+z
_cell_length_a                   11.025(2)
_cell_length_b                   8.1452(16)
_cell_length_c                   40.417(8)
_cell_angle_alpha                90
_cell_angle_beta                 91.40(3)
_cell_angle_gamma                90
_cell_volume                     3628.4
_exptl_crystal_colour            'pale yellow'
_exptl_crystal_description       needle
_cell_formula_units_Z            8
_exptl_crystal_recrystallization_method methanol/water
loop_
_atom_site_label
_atom_site_type_symbol
_atom_site_fract_x
_atom_site_fract_y
_atom_site_fract_z
O1 O 0.75548(15) 0.06916(19) 0.10769(4)
N1 N 0.8241(3) 0.1713(3) 0.23012(5)
N2 N 0.8745(2) 0.2871(3) 0.10648(5)
N3 N 0.8450(2) 0.2407(3) 0.07375(5)
N4 N 0.6113(2) -0.1526(3) -0.00357(5)
C1 C 0.7650(3) 0.0600(4) 0.21222(8)
C2 C 0.7598(3) 0.0577(4) 0.17803(7)
H3 H 0.716(2) -0.024(3) 0.1665(6)
H4 H 0.719(3) -0.022(4) 0.2234(7)
C3 C 0.8205(2) 0.1779(3) 0.16121(6)
C4 C 0.8843(3) 0.2944(4) 0.17938(7)
H5 H 0.935(2) 0.380(3) 0.1684(6)
C5 C 0.8820(3) 0.2868(4) 0.21349(7)
H6 H 0.932(3) 0.376(3) 0.2264(7)
C6 C 0.8195(2) 0.1833(3) 0.12531(6)
C7 C 0.7755(2) 0.1137(3) 0.07581(6)
C8 C 0.7196(2) 0.0192(3) 0.04895(6)
C9 C 0.6337(3) -0.0991(3) 0.05461(7)
H7 H 0.609(2) -0.122(3) 0.0774(6)
C10 C 0.5831(3) -0.1821(4) 0.02785(7)
H8 H 0.520(3) -0.272(3) 0.0314(6)
C11 C 0.6948(3) -0.0369(3) -0.00862(7)
H9 H 0.715(2) -0.017(3) -0.0322(6)
C12 C 0.7517(3) 0.0492(4) 0.01657(7)
H10 H 0.810(2) 0.134(3) 0.0124(6)
O2 O 0.6993(2) 0.6704(2) 0.20229(5)
H1 H 0.685(3) 0.655(4) 0.2240(3)
O3 O 0.5246(2) 0.3636(3) 0.04217(5)
H2 H 0.478(3) 0.284(3) 0.0328(8)
C13 C 0.6401(3) 0.5680(3) 0.15026(6)
H11 H 0.691(2) 0.657(3) 0.1404(6)
C14 C 0.6379(3) 0.5564(3) 0.18389(6)
C15 C 0.5715(3) 0.4289(3) 0.19896(7)
H12 H 0.571(2) 0.423(3) 0.2236(6)
C16 C 0.5113(3) 0.3173(4) 0.17986(7)
H13 H 0.462(2) 0.235(3) 0.1910(6)
C17 C 0.5126(2) 0.3248(3) 0.14478(6)
C18 C 0.4506(3) 0.2107(4) 0.12412(7)
H14 H 0.406(2) 0.120(3) 0.1344(6)
C19 C 0.4541(3) 0.2221(3) 0.09058(7)
H15 H 0.413(2) 0.142(3) 0.0768(6)
C20 C 0.5196(2) 0.3487(3) 0.07570(6)
C21 C 0.5808(3) 0.4610(3) 0.09504(6)
H16 H 0.630(2) 0.548(3) 0.0832(6)
C22 C 0.5788(2) 0.4523(3) 0.12985(6)
loop_
_geom_bond_atom_site_label_1
_geom_bond_atom_site_label_2
_geom_bond_site_symmetry_1
_geom_bond_site_symmetry_2
O1 C6 1_555 1_555
O2 H1 1_555 1_555
O3 H2 1_555 1_555
N1 C1 1_555 1_555
N2 N3 1_555 1_555
N3 C7 1_555 1_555
N4 C10 1_555 1_555
C1 C2 1_555 1_555
C2 H3 1_555 1_555
H4 C1 1_555 1_555
C3 C2 1_555 1_555
C4 C3 1_555 1_555
H5 C4 1_555 1_555
C5 N1 1_555 1_555
H6 C5 1_555 1_555
C6 N2 1_555 1_555
C7 O1 1_555 1_555
C8 C7 1_555 1_555
C9 C8 1_555 1_555
H7 C9 1_555 1_555
C10 C9 1_555 1_555
H8 C10 1_555 1_555
C11 N4 1_555 1_555
H9 C11 1_555 1_555
C12 C8 1_555 1_555
H10 C12 1_555 1_555
C13 H11 1_555 1_555
C14 O2 1_555 1_555
C15 C14 1_555 1_555
H12 C15 1_555 1_555
C16 C15 1_555 1_555
H13 C16 1_555 1_555
C17 C16 1_555 1_555
C18 C17 1_555 1_555
H14 C18 1_555 1_555
C19 C18 1_555 1_555
H15 C19 1_555 1_555
C20 O3 1_555 1_555
C21 C20 1_555 1_555
H16 C21 1_555 1_555
C22 C13 1_555 1_555
C3 C6 1_555 1_555
C4 C5 1_555 1_555
C11 C12 1_555 1_555
C13 C14 1_555 1_555
C17 C22 1_555 1_555
C19 C20 1_555 1_555
C21 C22 1_555 1_555

#END
