
#######################################################################
#
#                 Cambridge Crystallographic Data Centre
#                                CCDC 
#
#######################################################################
#
# If this CIF has been generated from an entry in the Cambridge 
# Structural Database, then it will include bibliographic, chemical, 
# crystal, experimental, refinement or atomic coordinate data resulting 
# from the CCDC's data processing and validation procedures.
#
#######################################################################

data_VENMAE
_chemical_formula_moiety         'C36 H32 N6'
_chemical_name_systematic        5,15-diaza-10,20-dimesitylporphyrin
_symmetry_cell_setting           monoclinic
_symmetry_space_group_name_H-M   'P 21/c'
_symmetry_Int_Tables_number      14
_space_group_name_Hall           '-P 2ybc'
loop_
_symmetry_equiv_pos_site_id
_symmetry_equiv_pos_as_xyz
1 x,y,z
2 -x,1/2+y,1/2-z
3 -x,-y,-z
4 x,1/2-y,1/2+z
_cell_length_a                   8.412(4)
_cell_length_b                   23.757(10)
_cell_length_c                   7.831(4)
_cell_angle_alpha                90
_cell_angle_beta                 113.799(5)
_cell_angle_gamma                90
_cell_volume                     1431.9
_exptl_crystal_colour            purple
_exptl_crystal_description       prism
_cell_formula_units_Z            2
loop_
_atom_site_label
_atom_site_type_symbol
_atom_site_fract_x
_atom_site_fract_y
_atom_site_fract_z
N1 N 0.6957(2) 0.03307(7) 0.7113(2)
H1 H 0.6092 0.0183 0.6156
N2 N 0.4548(2) -0.05200(7) 0.6788(2)
N3 N 0.6857(2) -0.02142(7) 0.9688(2)
C1 C 0.8052(2) 0.07538(8) 0.7068(3)
C2 C 0.9291(3) 0.08821(9) 0.8949(3)
H3 H 1.0178 0.1160 0.9298
C3 C 0.8941(3) 0.05333(9) 1.0095(3)
H4 H 0.9535 0.0516 1.1415
C4 C 0.7484(3) 0.01873(9) 0.8940(3)
C5 C 0.5517(3) -0.05347(8) 0.8671(3)
C6 C 0.4819(3) -0.09692(9) 0.9445(3)
H5 H 0.5246 -0.1077 1.0720
C7 C 0.3441(3) -0.11966(8) 0.8023(3)
H6 H 0.2720 -0.1490 0.8130
C8 C 0.3258(2) -0.09192(8) 0.6333(3)
C9 C 0.7981(2) 0.10270(8) 0.5464(3)
C10 C 0.9277(2) 0.14837(8) 0.5667(3)
C11 C 1.0891(3) 0.13520(8) 0.5638(3)
C12 C 1.2041(3) 0.17905(9) 0.5778(3)
H7 H 1.3133 0.1704 0.5751
C13 C 1.1640(3) 0.23498(9) 0.5957(3)
C14 C 1.0049(3) 0.24668(9) 0.6010(3)
H8 H 0.9760 0.2846 0.6140
C15 C 0.8856(3) 0.20430(8) 0.5876(3)
C16 C 1.1412(3) 0.07491(9) 0.5519(3)
H9 H 1.0385 0.0531 0.4742
H10 H 1.1922 0.0586 0.6774
H11 H 1.2268 0.0739 0.4963
C17 C 1.2882(3) 0.28197(10) 0.6065(3)
H12 H 1.2794 0.3116 0.6892
H13 H 1.2587 0.2975 0.4815
H14 H 1.4072 0.2673 0.6557
C18 C 0.7153(3) 0.21930(10) 0.5970(4)
H15 H 0.7094 0.2020 0.7079
H16 H 0.6193 0.2054 0.4850
H17 H 0.7065 0.2603 0.6042
N1B N 0.3043(2) -0.03307(7) 0.2887(2)
H1B H 0.3908 -0.0183 0.3844
N2B N 0.5452(2) 0.05200(7) 0.3212(2)
N3B N 0.3143(2) 0.02142(7) 0.0312(2)
C1B C 0.1948(2) -0.07538(8) 0.2932(3)
C2B C 0.0709(3) -0.08821(9) 0.1051(3)
H3B H -0.0178 -0.1160 0.0702
C3B C 0.1059(3) -0.05333(9) -0.0095(3)
H4B H 0.0465 -0.0516 -0.1415
C4B C 0.2516(3) -0.01873(9) 0.1060(3)
C5B C 0.4483(3) 0.05347(8) 0.1329(3)
C6B C 0.5181(3) 0.09692(9) 0.0555(3)
H5B H 0.4754 0.1077 -0.0720
C7B C 0.6559(3) 0.11966(8) 0.1977(3)
H6B H 0.7280 0.1490 0.1870
C8B C 0.6742(2) 0.09192(8) 0.3667(3)
C9B C 0.2019(2) -0.10270(8) 0.4536(3)
C10B C 0.0723(2) -0.14837(8) 0.4333(3)
C11B C -0.0891(3) -0.13520(8) 0.4362(3)
C12B C -0.2041(3) -0.17905(9) 0.4222(3)
H7B H -0.3133 -0.1704 0.4249
C13B C -0.1640(3) -0.23498(9) 0.4043(3)
C14B C -0.0049(3) -0.24668(9) 0.3990(3)
H8B H 0.0240 -0.2846 0.3860
C15B C 0.1144(3) -0.20430(8) 0.4124(3)
C16B C -0.1412(3) -0.07491(9) 0.4481(3)
H9B H -0.0385 -0.0531 0.5258
H10B H -0.1922 -0.0586 0.3226
H11B H -0.2268 -0.0739 0.5037
C17B C -0.2882(3) -0.28197(10) 0.3935(3)
H12B H -0.2794 -0.3116 0.3108
H13B H -0.2587 -0.2975 0.5185
H14B H -0.4072 -0.2673 0.3443
C18B C 0.2847(3) -0.21930(10) 0.4030(4)
H15B H 0.2906 -0.2020 0.2921
H16B H 0.3807 -0.2054 0.5150
H17B H 0.2935 -0.2603 0.3958
H2? H 0.4721 -0.0292 0.5995
loop_
_geom_bond_atom_site_label_1
_geom_bond_atom_site_label_2
_geom_bond_site_symmetry_1
_geom_bond_site_symmetry_2
N1 H1 1_555 1_555
N2 C5 1_555 1_555
N3 C4 1_555 1_555
C1 N1 1_555 1_555
C2 C1 1_555 1_555
H3 C2 1_555 1_555
C3 C2 1_555 1_555
H4 C3 1_555 1_555
C4 N1 1_555 1_555
C5 N3 1_555 1_555
C6 C5 1_555 1_555
H5 C6 1_555 1_555
C7 C6 1_555 1_555
H6 C7 1_555 1_555
C8 N2 1_555 1_555
C9 C1 1_555 1_555
C10 C9 1_555 1_555
C11 C10 1_555 1_555
C12 C11 1_555 1_555
H7 C12 1_555 1_555
C13 C12 1_555 1_555
C14 C13 1_555 1_555
H8 C14 1_555 1_555
C15 C10 1_555 1_555
C16 C11 1_555 1_555
H9 C16 1_555 1_555
H10 C16 1_555 1_555
H11 C16 1_555 1_555
C17 C13 1_555 1_555
H12 C17 1_555 1_555
H13 C17 1_555 1_555
H14 C17 1_555 1_555
C18 C15 1_555 1_555
H15 C18 1_555 1_555
H16 C18 1_555 1_555
H17 C18 1_555 1_555
N1B H1B 1_555 1_555
N2B C5B 1_555 1_555
N3B C4B 1_555 1_555
C1B N1B 1_555 1_555
C2B C1B 1_555 1_555
H3B C2B 1_555 1_555
C3B C2B 1_555 1_555
H4B C3B 1_555 1_555
C4B N1B 1_555 1_555
C5B N3B 1_555 1_555
C6B C5B 1_555 1_555
H5B C6B 1_555 1_555
C7B C6B 1_555 1_555
H6B C7B 1_555 1_555
C8B C9 1_555 1_555
C9B C8 1_555 1_555
C10B C9B 1_555 1_555
C11B C10B 1_555 1_555
C12B C11B 1_555 1_555
H7B C12B 1_555 1_555
C13B C12B 1_555 1_555
C14B C13B 1_555 1_555
H8B C14B 1_555 1_555
C15B C10B 1_555 1_555
C16B C11B 1_555 1_555
H9B C16B 1_555 1_555
H10B C16B 1_555 1_555
H11B C16B 1_555 1_555
C17B C13B 1_555 1_555
H12B C17B 1_555 1_555
H13B C17B 1_555 1_555
H14B C17B 1_555 1_555
C18B C15B 1_555 1_555
H15B C18B 1_555 1_555
H16B C18B 1_555 1_555
H17B C18B 1_555 1_555
C3 C4 1_555 1_555
C7 C8 1_555 1_555
C14 C15 1_555 1_555
N2B C8B 1_555 1_555
C1B C9B 1_555 1_555
C3B C4B 1_555 1_555
C7B C8B 1_555 1_555
C14B C15B 1_555 1_555

#END
