
#######################################################################
#
#                 Cambridge Crystallographic Data Centre
#                                CCDC 
#
#######################################################################
#
# If this CIF has been generated from an entry in the Cambridge 
# Structural Database, then it will include bibliographic, chemical, 
# crystal, experimental, refinement or atomic coordinate data resulting 
# from the CCDC's data processing and validation procedures.
#
#######################################################################

data_VENVIV
_chemical_formula_moiety         'C9 H28 B11 N1'
_chemical_name_systematic        
1,2-(4-(Diethylammonio)butane-1,4-diyl)-1-carba-closo-dodecaborate
_symmetry_cell_setting           monoclinic
_symmetry_space_group_name_H-M   'C c'
_symmetry_Int_Tables_number      9
_space_group_name_Hall           'C -2yc'
loop_
_symmetry_equiv_pos_site_id
_symmetry_equiv_pos_as_xyz
1 x,y,z
2 x,-y,1/2+z
3 1/2+x,1/2+y,z
4 1/2+x,1/2-y,1/2+z
_cell_length_a                   12.2118(12)
_cell_length_b                   9.7445(10)
_cell_length_c                   14.4119(15)
_cell_angle_alpha                90
_cell_angle_beta                 93.958(2)
_cell_angle_gamma                90
_cell_volume                     1710.9
_exptl_crystal_colour            colorless
_exptl_crystal_description       block
_cell_formula_units_Z            4
loop_
_atom_site_label
_atom_site_type_symbol
_atom_site_fract_x
_atom_site_fract_y
_atom_site_fract_z
B1 B 0.16529(19) 0.2201(2) 0.58230(16)
B2 B 0.1237(2) 0.2252(3) 0.69721(18)
H1 H 0.0527 0.2861 0.7161
B3 B 0.1528(3) 0.0630(3) 0.7479(2)
H2 H 0.1005 0.0179 0.7991
B4 B 0.2141(3) -0.0407(3) 0.6655(2)
H3 H 0.2022 -0.1525 0.6633
B5 B 0.2221(2) 0.0575(3) 0.56232(19)
H4 H 0.2155 0.0090 0.4932
B6 B 0.2479(2) 0.3032(2) 0.67090(19)
H5 H 0.2589 0.4152 0.6724
B7 B 0.2403(3) 0.2054(3) 0.7739(2)
H6 H 0.2465 0.2541 0.8429
B8 B 0.2959(3) 0.0415(3) 0.7555(2)
H7 H 0.3378 -0.0170 0.8127
B9 B 0.3407(3) 0.0376(3) 0.6404(2)
H8 H 0.4122 -0.0232 0.6224
B10 B 0.3091(2) 0.1990(3) 0.58774(19)
H9 H 0.3596 0.2436 0.5351
B11 B 0.3563(2) 0.1883(3) 0.7070(2)
H10 H 0.4381 0.2252 0.7322
N1 N 0.15083(17) 0.37925(18) 0.43912(14)
H11 H 0.2098 0.4141 0.4734
C1 C 0.11429(18) 0.0778(2) 0.63139(15)
C2 C 0.0024(2) 0.0280(3) 0.5937(2)
H12 H -0.0391 0.0000 0.6455
H13 H 0.0121 -0.0523 0.5553
C3 C -0.0648(3) 0.1354(4) 0.5358(3)
H14 H -0.1285 0.0903 0.5055
H15 H -0.0912 0.2039 0.5777
C4 C -0.0038(3) 0.2073(3) 0.4627(2)
H16 H -0.0548 0.2619 0.4235
H17 H 0.0291 0.1397 0.4238
C5 C 0.0857(2) 0.2999(2) 0.50760(18)
H18 H 0.0475 0.3691 0.5428
C6 C 0.0923(3) 0.5014(4) 0.3956(3)
H19 H 0.0194 0.4743 0.3713
H20 H 0.1320 0.5344 0.3440
C7 C 0.0831(4) 0.6158(4) 0.4659(4)
H21 H 0.0450 0.6923 0.4367
H22 H 0.1552 0.6441 0.4889
H23 H 0.0432 0.5835 0.5167
C8 C 0.1987(3) 0.2902(3) 0.3641(2)
H24 H 0.2177 0.2007 0.3899
H25 H 0.1439 0.2774 0.3129
C9 C 0.2985(4) 0.3549(4) 0.3288(3)
H26 H 0.3261 0.2977 0.2814
H27 H 0.3537 0.3651 0.3790
H28 H 0.2798 0.4434 0.3031
loop_
_geom_bond_atom_site_label_1
_geom_bond_atom_site_label_2
_geom_bond_site_symmetry_1
_geom_bond_site_symmetry_2
B1 B2 1_555 1_555
B2 H1 1_555 1_555
B3 B2 1_555 1_555
H2 B3 1_555 1_555
B4 B3 1_555 1_555
H3 B4 1_555 1_555
B5 B1 1_555 1_555
H4 B5 1_555 1_555
B6 B1 1_555 1_555
H5 B6 1_555 1_555
B7 B2 1_555 1_555
H6 B7 1_555 1_555
B8 B3 1_555 1_555
H7 B8 1_555 1_555
B9 B4 1_555 1_555
H8 B9 1_555 1_555
B10 B1 1_555 1_555
H9 B10 1_555 1_555
B11 B6 1_555 1_555
H10 B11 1_555 1_555
N1 H11 1_555 1_555
C1 B1 1_555 1_555
C2 C1 1_555 1_555
H12 C2 1_555 1_555
H13 C2 1_555 1_555
C3 C2 1_555 1_555
H14 C3 1_555 1_555
H15 C3 1_555 1_555
C4 C3 1_555 1_555
H16 C4 1_555 1_555
H17 C4 1_555 1_555
C5 B1 1_555 1_555
H18 C5 1_555 1_555
C6 N1 1_555 1_555
H19 C6 1_555 1_555
H20 C6 1_555 1_555
C7 C6 1_555 1_555
H21 C7 1_555 1_555
H22 C7 1_555 1_555
H23 C7 1_555 1_555
C8 N1 1_555 1_555
H24 C8 1_555 1_555
H25 C8 1_555 1_555
C9 C8 1_555 1_555
H26 C9 1_555 1_555
H27 C9 1_555 1_555
H28 C9 1_555 1_555
B2 B6 1_555 1_555
B2 C1 1_555 1_555
B3 B7 1_555 1_555
B3 C1 1_555 1_555
B4 B5 1_555 1_555
B4 B8 1_555 1_555
B4 C1 1_555 1_555
B5 B9 1_555 1_555
B5 B10 1_555 1_555
B5 C1 1_555 1_555
B6 B7 1_555 1_555
B6 B10 1_555 1_555
B7 B8 1_555 1_555
B7 B11 1_555 1_555
B8 B9 1_555 1_555
B8 B11 1_555 1_555
B9 B10 1_555 1_555
B9 B11 1_555 1_555
B10 B11 1_555 1_555
N1 C5 1_555 1_555
C4 C5 1_555 1_555

#END
