
#######################################################################
#
#                 Cambridge Crystallographic Data Centre
#                                CCDC 
#
#######################################################################
#
# If this CIF has been generated from an entry in the Cambridge 
# Structural Database, then it will include bibliographic, chemical, 
# crystal, experimental, refinement or atomic coordinate data resulting 
# from the CCDC's data processing and validation procedures.
#
#######################################################################

data_VENWOC
_chemical_formula_moiety         'C17 H31 B11 N2'
_chemical_name_systematic        
2,4-(4-(bis(4-Methylpyridinio)hydroborato)butane-1,4-diyl)-2-carba-closo-undecaborate
_symmetry_cell_setting           monoclinic
_symmetry_space_group_name_H-M   'P 21/n'
_symmetry_Int_Tables_number      14
_space_group_name_Hall           '-P 2yn'
loop_
_symmetry_equiv_pos_site_id
_symmetry_equiv_pos_as_xyz
1 x,y,z
2 1/2-x,1/2+y,1/2-z
3 -x,-y,-z
4 1/2+x,1/2-y,1/2+z
_cell_length_a                   10.3177(8)
_cell_length_b                   14.8096(13)
_cell_length_c                   15.0601(13)
_cell_angle_alpha                90
_cell_angle_beta                 90.522(2)
_cell_angle_gamma                90
_cell_volume                     2301.1
_exptl_crystal_colour            colorless
_exptl_crystal_description       block
_cell_formula_units_Z            4
loop_
_atom_site_label
_atom_site_type_symbol
_atom_site_fract_x
_atom_site_fract_y
_atom_site_fract_z
N1 N 0.7403(4) 0.3082(3) 0.5452(3)
N2 N 0.5722(4) 0.1968(3) 0.4936(2)
C1 C 0.4391(4) 0.3799(3) 0.7723(3)
C2 C 0.3376(5) 0.3061(4) 0.7813(4)
H1 H 0.3410 0.2819 0.8412
H2 H 0.2522 0.3318 0.7718
C3 C 0.3574(8) 0.2350(6) 0.7197(7)
H3 H 0.2837 0.1945 0.7219
H4 H 0.4335 0.2011 0.7380
C4 C 0.3756(7) 0.2660(6) 0.6228(5)
H5 H 0.3826 0.2124 0.5861
H6 H 0.2974 0.2974 0.6043
C5 C 0.4906(5) 0.3268(4) 0.6024(4)
H7 H 0.4695 0.3659 0.5518
C6 C 0.7482(5) 0.3701(4) 0.4837(4)
H8 H 0.6721 0.3963 0.4624
C7 C 0.8647(6) 0.3983(3) 0.4491(3)
H9 H 0.8659 0.4428 0.4055
C8 C 0.9801(5) 0.3604(3) 0.4793(3)
C9 C 0.9671(4) 0.2978(3) 0.5483(3)
H10 H 1.0406 0.2722 0.5742
C10 C 0.8474(5) 0.2742(4) 0.5778(3)
H11 H 0.8416 0.2318 0.6232
C11 C 1.1112(6) 0.3835(5) 0.4419(4)
H12 H 1.1011 0.4277 0.3958
H13 H 1.1501 0.3300 0.4179
H14 H 1.1656 0.4074 0.4883
C12 C 0.4984(4) 0.2171(3) 0.4224(3)
H15 H 0.4600 0.2739 0.4191
C13 C 0.4778(4) 0.1571(3) 0.3546(3)
H16 H 0.4250 0.1728 0.3067
C14 C 0.5352(4) 0.0741(3) 0.3579(3)
C15 C 0.6130(5) 0.0552(3) 0.4309(3)
H17 H 0.6546 -0.0003 0.4348
C16 C 0.6293(5) 0.1154(4) 0.4959(3)
H18 H 0.6817 0.1005 0.5442
C17 C 0.5184(5) 0.0072(4) 0.2839(4)
H19 H 0.4613 0.0319 0.2394
H20 H 0.4820 -0.0476 0.3069
H21 H 0.6011 -0.0054 0.2580
B1 B 0.4068(6) 0.4796(5) 0.7437(7)
B2 B 0.4830(7) 0.5794(5) 0.7347(5)
H22 H 0.4281 0.6410 0.7183
B3 B 0.5270(4) 0.3877(3) 0.6881(3)
B4 B 0.4979(9) 0.4280(7) 0.8527(5)
H23 H 0.4649 0.4075 0.9190
B5 B 0.5243(8) 0.5481(5) 0.8365(5)
H24 H 0.5062 0.5936 0.8927
B6 B 0.5575(6) 0.5087(4) 0.6644(4)
H25 H 0.5653 0.5272 0.5939
B7 B 0.5998(8) 0.3696(6) 0.7910(5)
H26 H 0.6503 0.3072 0.8108
B8 B 0.6453(6) 0.5587(4) 0.7522(4)
H27 H 0.7200 0.6112 0.7459
B9 B 0.6726(5) 0.4440(4) 0.7213(4)
H28 H 0.7655 0.4258 0.6908
B10 B 0.6536(7) 0.4729(5) 0.8348(4)
H29 H 0.7305 0.4767 0.8857
B11 B 0.6067(6) 0.2607(6) 0.5769(6)
H30 H 0.309(4) 0.483(3) 0.737(3)
H31 H 0.5492(13) 0.2859(9) 0.6473(9)
loop_
_geom_bond_atom_site_label_1
_geom_bond_atom_site_label_2
_geom_bond_site_symmetry_1
_geom_bond_site_symmetry_2
N1 C6 1_555 1_555
N2 C12 1_555 1_555
C1 C2 1_555 1_555
C2 H1 1_555 1_555
H2 C2 1_555 1_555
C3 C2 1_555 1_555
H3 C3 1_555 1_555
H4 C3 1_555 1_555
C4 C3 1_555 1_555
H5 C4 1_555 1_555
H6 C4 1_555 1_555
C5 C4 1_555 1_555
H7 C5 1_555 1_555
C6 H8 1_555 1_555
C7 C6 1_555 1_555
H9 C7 1_555 1_555
C8 C7 1_555 1_555
C9 C8 1_555 1_555
H10 C9 1_555 1_555
C10 N1 1_555 1_555
H11 C10 1_555 1_555
C11 C8 1_555 1_555
H12 C11 1_555 1_555
H13 C11 1_555 1_555
H14 C11 1_555 1_555
C12 H15 1_555 1_555
C13 C12 1_555 1_555
H16 C13 1_555 1_555
C14 C13 1_555 1_555
C15 C14 1_555 1_555
H17 C15 1_555 1_555
C16 N2 1_555 1_555
H18 C16 1_555 1_555
C17 C14 1_555 1_555
H19 C17 1_555 1_555
H20 C17 1_555 1_555
H21 C17 1_555 1_555
B1 C1 1_555 1_555
B2 B1 1_555 1_555
H22 B2 1_555 1_555
B3 C1 1_555 1_555
B4 C1 1_555 1_555
H23 B4 1_555 1_555
B5 B1 1_555 1_555
H24 B5 1_555 1_555
B6 B1 1_555 1_555
H25 B6 1_555 1_555
B7 C1 1_555 1_555
H26 B7 1_555 1_555
B8 B2 1_555 1_555
H27 B8 1_555 1_555
B9 B3 1_555 1_555
H28 B9 1_555 1_555
B10 B4 1_555 1_555
H29 B10 1_555 1_555
B11 N1 1_555 1_555
H30 B1 1_555 1_555
H31 B11 1_555 1_555
N2 B11 1_555 1_555
C5 B3 1_555 1_555
C5 B11 1_555 1_555
C9 C10 1_555 1_555
C15 C16 1_555 1_555
B1 B3 1_555 1_555
B1 B4 1_555 1_555
B2 B5 1_555 1_555
B2 B6 1_555 1_555
B3 B6 1_555 1_555
B3 B7 1_555 1_555
B4 B5 1_555 1_555
B4 B7 1_555 1_555
B5 B8 1_555 1_555
B5 B10 1_555 1_555
B6 B8 1_555 1_555
B6 B9 1_555 1_555
B7 B9 1_555 1_555
B7 B10 1_555 1_555
B8 B9 1_555 1_555
B8 B10 1_555 1_555
B9 B10 1_555 1_555

#END
