
#######################################################################
#
#                 Cambridge Crystallographic Data Centre
#                                CCDC 
#
#######################################################################
#
# If this CIF has been generated from an entry in the Cambridge 
# Structural Database, then it will include bibliographic, chemical, 
# crystal, experimental, refinement or atomic coordinate data resulting 
# from the CCDC's data processing and validation procedures.
#
#######################################################################

data_VENXET
_chemical_formula_moiety         'C11 H24 B11 N1,C1 H2 Cl2'
_chemical_name_systematic        
'1,2-(4-(4-Methylpyridinio)butane-1,4-diyl)-1-carba-closo-dodecaborate dichloromethane solvate'
_symmetry_cell_setting           monoclinic
_symmetry_space_group_name_H-M   'C c'
_symmetry_Int_Tables_number      9
_space_group_name_Hall           'C -2yc'
loop_
_symmetry_equiv_pos_site_id
_symmetry_equiv_pos_as_xyz
1 x,y,z
2 x,-y,1/2+z
3 1/2+x,1/2+y,z
4 1/2+x,1/2-y,1/2+z
_cell_length_a                   16.7150(10)
_cell_length_b                   16.0143(9)
_cell_length_c                   8.6111(5)
_cell_angle_alpha                90
_cell_angle_beta                 115.9900(10)
_cell_angle_gamma                90
_cell_volume                     2071.91
_exptl_crystal_colour            yellow
_exptl_crystal_description       block
_cell_formula_units_Z            4
loop_
_atom_site_label
_atom_site_type_symbol
_atom_site_fract_x
_atom_site_fract_y
_atom_site_fract_z
N1 N 0.49125(19) 0.35952(16) 0.6382(3)
C1 C 0.6758(2) 0.3012(2) 0.4710(4)
C2 C 0.7560(3) 0.3321(3) 0.6313(5)
H1 H 0.7690 0.3890 0.6114
H2 H 0.8072 0.2981 0.6484
C3 C 0.7429(3) 0.3298(3) 0.7968(5)
H3 H 0.7416 0.2721 0.8298
H4 H 0.7933 0.3567 0.8892
C4 C 0.6577(3) 0.3728(3) 0.7765(4)
H5 H 0.6587 0.3804 0.8891
H6 H 0.6535 0.4275 0.7248
C5 C 0.5778(2) 0.3205(2) 0.6631(4)
H7 H 0.5828 0.2679 0.7252
C6 C 0.4717(3) 0.4390(2) 0.5839(5)
H8 H 0.5126 0.4704 0.5624
C7 C 0.3935(3) 0.4739(3) 0.5600(5)
H9 H 0.3820 0.5292 0.5239
C8 C 0.3306(3) 0.4295(3) 0.5879(5)
C9 C 0.3507(3) 0.3479(3) 0.6397(5)
H10 H 0.3094 0.3152 0.6571
C10 C 0.4315(3) 0.3142(2) 0.6661(5)
H11 H 0.4447 0.2592 0.7038
C11 C 0.2442(4) 0.4671(4) 0.5644(9)
H12 H 0.2099 0.4262 0.5906
H13 H 0.2116 0.4854 0.4470
H14 H 0.2555 0.5140 0.6407
B1 B 0.5754(2) 0.2957(2) 0.4799(4)
B2 B 0.5959(3) 0.3727(3) 0.3534(5)
H17 H 0.5993 0.4395 0.3850
B3 B 0.6668(3) 0.3287(3) 0.2720(6)
H18 H 0.7161 0.3667 0.2513
B4 B 0.6898(3) 0.2247(3) 0.3462(6)
H19 H 0.7541 0.1954 0.3729
B5 B 0.6342(3) 0.2037(3) 0.4768(5)
H20 H 0.6621 0.1610 0.5879
B6 B 0.4942(3) 0.3170(2) 0.2686(4)
H21 H 0.4306 0.3472 0.2440
B7 B 0.5502(3) 0.3373(3) 0.1372(5)
H22 H 0.5231 0.3807 0.0271
B8 B 0.6083(3) 0.2447(3) 0.1324(5)
H23 H 0.6186 0.2278 0.0186
B9 B 0.5894(3) 0.1671(3) 0.2607(5)
H24 H 0.5875 0.1002 0.2306
B10 B 0.5183(3) 0.2120(2) 0.3451(5)
H25 H 0.4703 0.1739 0.3695
B11 B 0.5017(3) 0.2381(3) 0.1293(5)
H26 H 0.4429 0.2171 0.0140
C12 C 0.9706(5) 0.4701(4) 0.3157(10)
H15 H 1.0081 0.4601 0.4374
H16 H 0.9750 0.5289 0.2939
Cl1 Cl 1.01166(14) 0.41335(8) 0.1978(2)
Cl2 Cl 0.86395(15) 0.44884(15) 0.2743(4)
loop_
_geom_bond_atom_site_label_1
_geom_bond_atom_site_label_2
_geom_bond_site_symmetry_1
_geom_bond_site_symmetry_2
N1 C5 1_555 1_555
C1 C2 1_555 1_555
C2 H1 1_555 1_555
H2 C2 1_555 1_555
C3 C2 1_555 1_555
H3 C3 1_555 1_555
H4 C3 1_555 1_555
C4 C3 1_555 1_555
H5 C4 1_555 1_555
H6 C4 1_555 1_555
C5 C4 1_555 1_555
H7 C5 1_555 1_555
C6 N1 1_555 1_555
H8 C6 1_555 1_555
C7 C6 1_555 1_555
H9 C7 1_555 1_555
C8 C7 1_555 1_555
C9 C8 1_555 1_555
H10 C9 1_555 1_555
C10 N1 1_555 1_555
H11 C10 1_555 1_555
C11 C8 1_555 1_555
H12 C11 1_555 1_555
H13 C11 1_555 1_555
H14 C11 1_555 1_555
C12 H15 1_555 1_555
H16 C12 1_555 1_555
B1 C1 1_555 1_555
B2 C1 1_555 1_555
H17 B2 1_555 1_555
B3 C1 1_555 1_555
H18 B3 1_555 1_555
B4 C1 1_555 1_555
H19 B4 1_555 1_555
B5 C1 1_555 1_555
H20 B5 1_555 1_555
B6 B1 1_555 1_555
H21 B6 1_555 1_555
B7 B2 1_555 1_555
H22 B7 1_555 1_555
B8 B3 1_555 1_555
H23 B8 1_555 1_555
B9 B4 1_555 1_555
H24 B9 1_555 1_555
B10 B1 1_555 1_555
H25 B10 1_555 1_555
B11 B6 1_555 1_555
H26 B11 1_555 1_555
Cl1 C12 1_555 1_555
Cl2 C12 1_555 1_555
C5 B1 1_555 1_555
C9 C10 1_555 1_555
B1 B2 1_555 1_555
B1 B5 1_555 1_555
B2 B3 1_555 1_555
B2 B6 1_555 1_555
B3 B4 1_555 1_555
B3 B7 1_555 1_555
B4 B5 1_555 1_555
B4 B8 1_555 1_555
B5 B9 1_555 1_555
B5 B10 1_555 1_555
B6 B7 1_555 1_555
B6 B10 1_555 1_555
B7 B8 1_555 1_555
B7 B11 1_555 1_555
B8 B9 1_555 1_555
B8 B11 1_555 1_555
B9 B10 1_555 1_555
B9 B11 1_555 1_555
B10 B11 1_555 1_555

#END
