
#######################################################################
#
#                 Cambridge Crystallographic Data Centre
#                                CCDC 
#
#######################################################################
#
# If this CIF has been generated from an entry in the Cambridge 
# Structural Database, then it will include bibliographic, chemical, 
# crystal, experimental, refinement or atomic coordinate data resulting 
# from the CCDC's data processing and validation procedures.
#
#######################################################################

data_VEPDAY
_chemical_formula_moiety         'C28 H24 F1 N1 O1'
_chemical_name_systematic        
2-{1-[(3-fluorophenyl)methyl]-4-phenyl-1,2,3,4-tetrahydroquinolin-2-yl}phenol
_symmetry_cell_setting           orthorhombic
_symmetry_space_group_name_H-M   'P 21 21 2'
_symmetry_Int_Tables_number      18
_space_group_name_Hall           'P 2 2ab'
loop_
_symmetry_equiv_pos_site_id
_symmetry_equiv_pos_as_xyz
1 x,y,z
2 -x,-y,z
3 1/2-x,1/2+y,-z
4 1/2+x,1/2-y,-z
_cell_length_a                   16.6532(3)
_cell_length_b                   21.5744(4)
_cell_length_c                   6.15200(10)
_cell_angle_alpha                90
_cell_angle_beta                 90
_cell_angle_gamma                90
_cell_volume                     2210.31
_exptl_crystal_colour            yellow
_exptl_crystal_description       block
_cell_formula_units_Z            4
loop_
_atom_site_label
_atom_site_type_symbol
_atom_site_fract_x
_atom_site_fract_y
_atom_site_fract_z
F1 F 0.36159(17) 0.43054(9) 0.8546(5)
O1 O 0.66518(13) 0.21390(9) 0.1635(3)
H1 H 0.644292 0.247068 0.195716
N1 N 0.58776(10) 0.29536(8) 0.4230(3)
C1 C 0.62509(12) 0.25829(9) 0.5980(4)
H2 H 0.591773 0.262034 0.728657
C2 C 0.70847(12) 0.28254(9) 0.6505(4)
H3 H 0.742400 0.279146 0.522928
H4 H 0.732073 0.257629 0.765191
C3 C 0.70438(13) 0.35023(9) 0.7232(4)
H5 H 0.670006 0.352110 0.852319
C4 C 0.66361(13) 0.38756(9) 0.5447(4)
C5 C 0.60908(12) 0.35938(10) 0.4034(4)
C6 C 0.57720(15) 0.39347(12) 0.2298(5)
H6 H 0.542773 0.374169 0.131892
C7 C 0.59597(18) 0.45487(14) 0.2020(6)
H7 H 0.574335 0.476950 0.086093
C8 C 0.64743(19) 0.48395(12) 0.3476(7)
H8 H 0.659222 0.525867 0.332718
C9 C 0.68065(15) 0.45011(11) 0.5138(6)
H9 H 0.715808 0.469666 0.609104
C10 C 0.78639(13) 0.37490(9) 0.7868(4)
C11 C 0.84962(14) 0.37375(11) 0.6401(4)
H10 H 0.841100 0.358571 0.500475
C12 C 0.92500(15) 0.39475(12) 0.6977(5)
H11 H 0.966660 0.393515 0.597114
C13 C 0.93868(17) 0.41740(12) 0.9023(6)
H12 H 0.989497 0.431472 0.940995
C14 C 0.87698(19) 0.41920(12) 1.0499(5)
H13 H 0.885914 0.434615 1.189004
C15 C 0.80088(17) 0.39795(11) 0.9917(4)
H14 H 0.759363 0.399367 1.092707
C16 C 0.62812(13) 0.19043(9) 0.5328(4)
C17 C 0.61233(16) 0.14516(11) 0.6886(5)
H15 H 0.595930 0.156828 0.827231
C18 C 0.6209(2) 0.08295(12) 0.6387(6)
H16 H 0.610404 0.052953 0.743474
C19 C 0.64491(19) 0.06560(12) 0.4332(6)
H17 H 0.650991 0.023788 0.400342
C20 C 0.65997(16) 0.10929(13) 0.2769(6)
H18 H 0.676069 0.097042 0.138679
C21 C 0.65123(14) 0.17184(11) 0.3245(4)
C22 C 0.50095(14) 0.28086(11) 0.3988(4)
H19 H 0.495143 0.236818 0.371271
H20 H 0.480412 0.302760 0.272768
C23 C 0.45049(12) 0.29784(11) 0.5938(4)
C24 C 0.42883(16) 0.35883(12) 0.6353(5)
H21 H 0.445350 0.390623 0.543566
C25 C 0.38256(18) 0.37124(13) 0.8146(6)
C26 C 0.35581(17) 0.32714(16) 0.9556(5)
H22 H 0.324104 0.337443 1.074665
C27 C 0.37762(17) 0.26677(15) 0.9147(6)
H23 H 0.360592 0.235425 1.007658
C28 C 0.42429(15) 0.25235(12) 0.7377(5)
H24 H 0.438721 0.211286 0.713553
loop_
_geom_bond_atom_site_label_1
_geom_bond_atom_site_label_2
_geom_bond_site_symmetry_1
_geom_bond_site_symmetry_2
F1 C25 1_555 1_555
O1 H1 1_555 1_555
N1 C1 1_555 1_555
C1 H2 1_555 1_555
C2 C1 1_555 1_555
H3 C2 1_555 1_555
H4 C2 1_555 1_555
C3 C2 1_555 1_555
H5 C3 1_555 1_555
C4 C3 1_555 1_555
C5 N1 1_555 1_555
C6 C5 1_555 1_555
H6 C6 1_555 1_555
C7 C6 1_555 1_555
H7 C7 1_555 1_555
C8 C7 1_555 1_555
H8 C8 1_555 1_555
C9 C4 1_555 1_555
H9 C9 1_555 1_555
C10 C3 1_555 1_555
C11 C10 1_555 1_555
H10 C11 1_555 1_555
C12 C11 1_555 1_555
H11 C12 1_555 1_555
C13 C12 1_555 1_555
H12 C13 1_555 1_555
C14 C13 1_555 1_555
H13 C14 1_555 1_555
C15 C10 1_555 1_555
H14 C15 1_555 1_555
C16 C1 1_555 1_555
C17 C16 1_555 1_555
H15 C17 1_555 1_555
C18 C17 1_555 1_555
H16 C18 1_555 1_555
C19 C18 1_555 1_555
H17 C19 1_555 1_555
C20 C19 1_555 1_555
H18 C20 1_555 1_555
C21 O1 1_555 1_555
C22 N1 1_555 1_555
H19 C22 1_555 1_555
H20 C22 1_555 1_555
C23 C22 1_555 1_555
C24 C23 1_555 1_555
H21 C24 1_555 1_555
C25 C24 1_555 1_555
C26 C25 1_555 1_555
H22 C26 1_555 1_555
C27 C26 1_555 1_555
H23 C27 1_555 1_555
C28 C23 1_555 1_555
H24 C28 1_555 1_555
C4 C5 1_555 1_555
C8 C9 1_555 1_555
C14 C15 1_555 1_555
C16 C21 1_555 1_555
C20 C21 1_555 1_555
C27 C28 1_555 1_555

#END
