
#######################################################################
#
#                 Cambridge Crystallographic Data Centre
#                                CCDC 
#
#######################################################################
#
# If this CIF has been generated from an entry in the Cambridge 
# Structural Database, then it will include bibliographic, chemical, 
# crystal, experimental, refinement or atomic coordinate data resulting 
# from the CCDC's data processing and validation procedures.
#
#######################################################################

data_VEPFOM
_chemical_compound_source        'Streptomyces mediterranei'
_chemical_formula_moiety         'C42 H55 N3 O11 S1,C2 H6 O1,H2 O1'
_chemical_name_systematic        'Rifamexil ethanol solvate monohydrate'
_chemical_properties_biological  
'Rifamexil is active against Mycobacterium avium and other mycobacteria'
_symmetry_cell_setting           orthorhombic
_symmetry_space_group_name_H-M   'P 21 21 21'
_symmetry_Int_Tables_number      19
_space_group_name_Hall           'P 2ac 2ab'
loop_
_symmetry_equiv_pos_site_id
_symmetry_equiv_pos_as_xyz
1 x,y,z
2 1/2-x,-y,1/2+z
3 1/2+x,1/2-y,-z
4 -x,1/2+y,1/2-z
_cell_length_a                   31.319(9)
_cell_length_b                   27.669(8)
_cell_length_c                   11.624(4)
_cell_angle_alpha                90
_cell_angle_beta                 90
_cell_angle_gamma                90
_cell_volume                     10073
_cell_formula_units_Z            8
loop_
_atom_site_label
_atom_site_type_symbol
_atom_site_fract_x
_atom_site_fract_y
_atom_site_fract_z
S1 S -0.4473(2) -0.1671(2) -0.1076(5)
O1 O -0.4802(4) -0.1328(4) -0.5388(12)
O2 O -0.4758(4) -0.0483(4) -0.5995(14)
O3 O -0.4300(4) 0.0759(4) -0.3512(14)
O4 O -0.4326(5) 0.0181(5) -0.0773(13)
O5 O -0.3805(4) 0.0911(4) -0.2030(11)
O6 O -0.2828(4) -0.0027(4) -0.3247(11)
O7 O -0.2318(4) -0.0757(4) -0.1250(11)
O8 O -0.1899(5) -0.0521(6) -0.2702(17)
O9 O -0.2308(4) -0.1618(4) -0.3423(13)
O10 O -0.2827(4) -0.2375(5) -0.3952(14)
O11 O -0.4095(5) -0.2034(5) -0.4806(14)
N1 N -0.4671(4) -0.2010(5) -0.3629(14)
N2 N -0.4431(4) -0.0744(5) -0.0937(15)
N3 N -0.4322(5) -0.1139(5) 0.0778(19)
C1 C -0.4694(5) -0.1179(6) -0.4355(21)
C2 C -0.4634(6) -0.1493(5) -0.3419(21)
C3 C -0.4403(6) -0.1115(8) -0.0301(23)
C4 C -0.4547(6) -0.1335(6) -0.2326(18)
C5 C -0.4512(5) -0.0850(5) -0.2108(18)
C6 C -0.4451(5) 0.0017(7) -0.2770(25)
C7 C -0.4424(5) 0.0288(6) -0.3752(29)
C8 C -0.4539(6) 0.0167(7) -0.4847(23)
C9 C -0.4642(6) -0.0333(8) -0.5010(20)
C10 C -0.4617(5) -0.0684(6) -0.4065(19)
C11 C -0.4531(5) -0.0506(6) -0.2979(21)
C12 C -0.4343(5) 0.0283(7) -0.1776(28)
C13 C -0.4257(6) 0.0781(6) -0.2302(22)
C14 C -0.4523(6) 0.1188(7) -0.1795(18)
C15 C -0.4524(6) 0.0497(7) -0.5948(19)
C16 C -0.4397(7) -0.2234(7) -0.4240(19)
C17 C -0.4431(6) -0.2801(6) -0.4296(16)
C18 C -0.4104(7) -0.3083(7) -0.4062(21)
C19 C -0.3722(7) -0.2877(8) -0.3518(21)
C20 C -0.3387(7) -0.3138(7) -0.3130(20)
C21 C -0.3002(7) -0.2996(7) -0.2558(20)
C22 C -0.2914(6) -0.2440(7) -0.2753(19)
C23 C -0.2508(6) -0.2285(6) -0.2116(18)
C24 C -0.2396(6) -0.1741(7) -0.2212(18)
C25 C -0.2773(5) -0.1425(6) -0.1867(16)
C26 C -0.2675(5) -0.0879(5) -0.2056(15)
C27 C -0.3028(5) -0.0519(5) -0.1715(14)
C28 C -0.2903(5) 0.0005(6) -0.2089(17)
C29 C -0.3250(6) 0.0354(6) -0.1626(17)
C30 C -0.3507(6) 0.0564(6) -0.2438(17)
C31 C -0.4859(7) -0.2943(7) -0.4805(20)
C32 C -0.3046(8) -0.3105(8) -0.1277(24)
C33 C -0.2073(7) -0.2580(8) -0.2560(23)
C34 C -0.2914(6) -0.1508(7) -0.0567(20)
C35 C -0.3447(6) -0.0659(7) -0.2401(17)
C36 C -0.1929(7) -0.0572(7) -0.1729(21)
C37 C -0.1614(8) -0.0495(9) -0.0822(23)
C38 C -0.2523(8) 0.0389(9) -0.3513(23)
C39 C -0.4273(7) -0.0664(8) 0.1463(20)
C40 C -0.3783(7) -0.0460(7) 0.1287(20)
C41 C -0.4154(11) -0.1626(12) 0.1432(31)
C42 C -0.4559(16) -0.1693(16) 0.1796(39)
O12 O -0.6575(5) -0.1828(6) -0.0119(16)
C43 C -0.6613(14) -0.1246(16) 0.0169(38)
C44 C -0.6948(16) -0.1130(17) 0.0391(44)
O13 O -0.1333(14) -0.1670(15) -0.3818(38)
C45 C -0.0792(24) -0.1366(27) -0.3467(70)
C46 C -0.1175(28) -0.1122(29) -0.3737(78)
O14 O -0.5944(8) 0.0530(8) -0.6790(22)
O15 O -0.5255(11) 0.0107(12) -0.7416(28)
S2 S -0.5814(2) -0.1856(2) -0.3844(5)
O16 O -0.5503(4) -0.1280(4) 0.0345(12)
O17 O -0.5375(4) -0.0412(4) 0.0693(12)
O18 O -0.5643(4) 0.0710(4) -0.2311(14)
O19 O -0.5730(4) -0.0021(5) -0.4769(14)
O20 O -0.6167(4) 0.0817(4) -0.3761(11)
O21 O -0.7184(3) 0.0096(4) -0.2156(11)
O22 O -0.7770(4) -0.0724(4) -0.4027(10)
O23 O -0.8144(5) -0.0340(5) -0.2647(15)
O24 O -0.7822(4) -0.1527(4) -0.1775(12)
O25 O -0.7308(4) -0.2244(4) -0.0998(13)
O26 O -0.5274(4) -0.2467(4) -0.2074(11)
N4 N -0.5746(5) -0.2012(4) -0.1071(14)
N5 N -0.5717(5) -0.0949(5) -0.4362(17)
N6 N -0.5893(5) -0.1413(5) -0.5945(17)
C47 C -0.5559(5) -0.1197(6) -0.0826(20)
C48 C -0.5662(6) -0.1568(6) -0.1579(22)
C49 C -0.5816(6) -0.1364(8) -0.4807(22)
C50 C -0.5684(5) -0.1445(5) -0.2669(20)
C51 C -0.5644(5) -0.1004(6) -0.3146(24)
C52 C -0.5605(5) -0.0088(6) -0.2724(20)
C53 C -0.5575(6) 0.0257(6) -0.1829(25)
C54 C -0.5477(6) 0.0176(7) -0.0680(23)
C55 C -0.5435(6) -0.0320(7) -0.0340(22)
C56 C -0.5533(5) -0.0706(6) -0.1272(23)
C57 C -0.5587(5) -0.0612(6) -0.2420(19)
C58 C -0.5684(5) 0.0128(7) -0.3788(24)
C59 C -0.5730(5) 0.0667(6) -0.3527(24)
C60 C -0.5469(6) 0.1008(6) -0.4199(17)
C61 C -0.5407(6) 0.0595(7) 0.0144(17)
C62 C -0.5536(6) -0.2426(7) -0.1327(18)
C63 C -0.5691(6) -0.2868(6) -0.0630(17)
C64 C -0.6086(6) -0.3053(6) -0.0724(16)
C65 C -0.6425(5) -0.2889(6) -0.1476(15)
C66 C -0.6814(5) -0.3069(6) -0.1428(16)
C67 C -0.7158(6) -0.2938(6) -0.2212(18)
C68 C -0.7260(5) -0.2376(5) -0.2181(16)
C69 C -0.7650(6) -0.2230(6) -0.2947(17)
C70 C -0.7733(6) -0.1671(6) -0.2912(18)
C71 C -0.7334(5) -0.1384(6) -0.3282(15)
C72 C -0.7430(5) -0.0839(5) -0.3205(15)
C73 C -0.7052(5) -0.0521(5) -0.3615(15)
C74 C -0.7145(5) 0.0026(6) -0.3366(15)
C75 C -0.6775(5) 0.0332(6) -0.3923(16)
C76 C -0.6487(5) 0.0528(6) -0.3201(15)
C77 C -0.5338(7) -0.3063(7) 0.0141(20)
C78 C -0.7086(8) -0.3120(8) -0.3463(24)
C79 C -0.8083(7) -0.2499(7) -0.2539(20)
C80 C -0.7204(7) -0.1508(7) -0.4542(20)
C81 C -0.6653(7) -0.0682(7) -0.2845(20)
C82 C -0.8126(7) -0.0460(7) -0.3548(22)
C83 C -0.8436(8) -0.0425(8) -0.4570(22)
C84 C -0.7443(6) 0.0520(7) -0.1950(18)
C85 C -0.5872(7) -0.1009(8) -0.6717(19)
C86 C -0.6304(7) -0.0714(8) -0.6682(20)
C87 C -0.6035(7) -0.1925(8) -0.6403(21)
C88 C -0.5646(8) -0.2137(9) -0.7069(24)
loop_
_geom_bond_atom_site_label_1
_geom_bond_atom_site_label_2
_geom_bond_site_symmetry_1
_geom_bond_site_symmetry_2
S1 C3 1_555 1_555
O1 C1 1_555 1_555
O2 C9 1_555 1_555
O3 C7 1_555 1_555
O4 C12 1_555 1_555
O5 C13 1_555 1_555
O6 C28 1_555 1_555
O7 C26 1_555 1_555
O8 C36 1_555 1_555
O9 C24 1_555 1_555
O10 C22 1_555 1_555
O11 C16 1_555 1_555
N1 C2 1_555 1_555
N2 C3 1_555 1_555
N3 C3 1_555 1_555
C1 C2 1_555 1_555
C2 C4 1_555 1_555
C4 S1 1_555 1_555
C5 N2 1_555 1_555
C6 C7 1_555 1_555
C7 C8 1_555 1_555
C8 C9 1_555 1_555
C9 C10 1_555 1_555
C10 C1 1_555 1_555
C11 C5 1_555 1_555
C12 C6 1_555 1_555
C13 O3 1_555 1_555
C14 C13 1_555 1_555
C15 C8 1_555 1_555
C16 N1 1_555 1_555
C17 C16 1_555 1_555
C18 C17 1_555 1_555
C19 C18 1_555 1_555
C20 C19 1_555 1_555
C21 C20 1_555 1_555
C22 C21 1_555 1_555
C23 C22 1_555 1_555
C24 C23 1_555 1_555
C25 C24 1_555 1_555
C26 C25 1_555 1_555
C27 C26 1_555 1_555
C28 C27 1_555 1_555
C29 C28 1_555 1_555
C30 O5 1_555 1_555
C31 C17 1_555 1_555
C32 C21 1_555 1_555
C33 C23 1_555 1_555
C34 C25 1_555 1_555
C35 C27 1_555 1_555
C36 O7 1_555 1_555
C37 C36 1_555 1_555
C38 O6 1_555 1_555
C39 N3 1_555 1_555
C40 C39 1_555 1_555
C41 N3 1_555 1_555
C42 C41 1_555 1_555
O12 C43 1_555 1_555
C43 C44 1_555 1_555
O13 C46 1_555 1_555
C45 C46 1_555 1_555
S2 C49 1_555 1_555
O16 C47 1_555 1_555
O17 C55 1_555 1_555
O18 C53 1_555 1_555
O19 C58 1_555 1_555
O20 C59 1_555 1_555
O21 C74 1_555 1_555
O22 C72 1_555 1_555
O23 C82 1_555 1_555
O24 C70 1_555 1_555
O25 C68 1_555 1_555
O26 C62 1_555 1_555
N4 C48 1_555 1_555
N5 C49 1_555 1_555
N6 C49 1_555 1_555
C47 C48 1_555 1_555
C48 C50 1_555 1_555
C50 S2 1_555 1_555
C51 N5 1_555 1_555
C52 C53 1_555 1_555
C53 C54 1_555 1_555
C54 C55 1_555 1_555
C55 C56 1_555 1_555
C56 C47 1_555 1_555
C57 C51 1_555 1_555
C58 C52 1_555 1_555
C59 O18 1_555 1_555
C60 C59 1_555 1_555
C61 C54 1_555 1_555
C62 N4 1_555 1_555
C63 C62 1_555 1_555
C64 C63 1_555 1_555
C65 C64 1_555 1_555
C66 C65 1_555 1_555
C67 C66 1_555 1_555
C68 C67 1_555 1_555
C69 C68 1_555 1_555
C70 C69 1_555 1_555
C71 C70 1_555 1_555
C72 C71 1_555 1_555
C73 C72 1_555 1_555
C74 C73 1_555 1_555
C75 C74 1_555 1_555
C76 O20 1_555 1_555
C77 C63 1_555 1_555
C78 C67 1_555 1_555
C79 C69 1_555 1_555
C80 C71 1_555 1_555
C81 C73 1_555 1_555
C82 O22 1_555 1_555
C83 C82 1_555 1_555
C84 O21 1_555 1_555
C85 N6 1_555 1_555
C86 C85 1_555 1_555
C87 N6 1_555 1_555
C88 C87 1_555 1_555
C4 C5 1_555 1_555
C6 C11 1_555 1_555
C10 C11 1_555 1_555
C12 C13 1_555 1_555
C29 C30 1_555 1_555
C50 C51 1_555 1_555
C52 C57 1_555 1_555
C56 C57 1_555 1_555
C58 C59 1_555 1_555
C75 C76 1_555 1_555

#END
