
#######################################################################
#
#                 Cambridge Crystallographic Data Centre
#                                CCDC 
#
#######################################################################
#
# If this CIF has been generated from an entry in the Cambridge 
# Structural Database, then it will include bibliographic, chemical, 
# crystal, experimental, refinement or atomic coordinate data resulting 
# from the CCDC's data processing and validation procedures.
#
#######################################################################

data_VEPLEK
_chemical_formula_moiety         'C27 H33 N1 O4'
_chemical_name_systematic        
6-(6-(hexyloxy)-2,2-dimethyltetrahydrofuro[3,4-d][1,3]dioxol-4-yl)-2-methylphenanthridine
_symmetry_cell_setting           orthorhombic
_symmetry_space_group_name_H-M   'P 21 21 21'
_symmetry_Int_Tables_number      19
_space_group_name_Hall           'P 2ac 2ab'
loop_
_symmetry_equiv_pos_site_id
_symmetry_equiv_pos_as_xyz
1 x,y,z
2 1/2-x,-y,1/2+z
3 -x,1/2+y,1/2-z
4 1/2+x,1/2-y,-z
_cell_length_a                   12.0215(4)
_cell_length_b                   13.0351(5)
_cell_length_c                   29.9074(11)
_cell_angle_alpha                90
_cell_angle_beta                 90
_cell_angle_gamma                90
_cell_volume                     4686.53
_cell_formula_units_Z            8
loop_
_atom_site_label
_atom_site_type_symbol
_atom_site_fract_x
_atom_site_fract_y
_atom_site_fract_z
O1 O 0.49577(12) 0.38965(11) 0.43466(5)
O2 O 0.34547(13) 0.55862(11) 0.39465(5)
O3 O 0.52498(12) 0.60771(11) 0.40046(5)
O4 O 0.63595(13) 0.35979(12) 0.38144(5)
N1 N 0.39316(15) 0.28023(14) 0.33807(6)
C1 C 0.38341(19) 0.00170(17) 0.31103(7)
H1 H 0.3816 -0.0618 0.3252
C2 C 0.38476(19) 0.00487(18) 0.26500(8)
C3 C 0.3857(2) 0.10153(18) 0.24407(7)
H2 H 0.3849 0.1051 0.2130
C4 C 0.3876(2) 0.19041(18) 0.26846(7)
H3 H 0.3887 0.2534 0.2538
C5 C 0.38794(18) 0.18715(16) 0.31542(7)
C6 C 0.39559(17) 0.27930(16) 0.38146(7)
C7 C 0.39147(17) 0.18645(16) 0.40818(7)
C8 C 0.39280(19) 0.18829(18) 0.45539(7)
H4 H 0.3968 0.2507 0.4703
C9 C 0.3882(2) 0.09866(19) 0.47933(7)
H5 H 0.3901 0.1006 0.5104
C10 C 0.3806(2) 0.00420(18) 0.45721(8)
H6 H 0.3765 -0.0562 0.4737
C11 C 0.3791(2) 0.00053(17) 0.41140(8)
H7 H 0.3742 -0.0626 0.3970
C12 C 0.38474(17) 0.09117(16) 0.38572(7)
C13 C 0.38473(16) 0.09121(16) 0.33731(7)
C14 C 0.3879(2) -0.09207(19) 0.23760(8)
H8 H 0.4607 -0.1005 0.2250
H9 H 0.3339 -0.0877 0.2140
H10 H 0.3710 -0.1497 0.2564
C15 C 0.58334(18) 0.43166(16) 0.40922(7)
H11 H 0.6379 0.4647 0.4289
C16 C 0.52952(18) 0.51069(16) 0.37863(7)
H12 H 0.5660 0.5145 0.3494
C17 C 0.40729(19) 0.47594(16) 0.37514(7)
H13 H 0.3847 0.4613 0.3443
C18 C 0.39942(17) 0.38219(15) 0.40546(7)
H14 H 0.3322 0.3887 0.4238
C19 C 0.68934(19) 0.27849(17) 0.40557(8)
H15 H 0.6341 0.2375 0.4211
H16 H 0.7399 0.3069 0.4276
C20 C 0.75300(19) 0.21215(17) 0.37288(8)
H17 H 0.8032 0.2561 0.3562
H18 H 0.7984 0.1647 0.3899
C21 C 0.6854(2) 0.15069(19) 0.33969(9)
H19 H 0.6446 0.1974 0.3205
H20 H 0.6317 0.1091 0.3558
C22 C 0.7580(2) 0.0811(2) 0.31088(9)
H21 H 0.8144 0.1228 0.2965
H22 H 0.7960 0.0328 0.3303
C23 C 0.6964(3) 0.0212(2) 0.27517(10)
H23 H 0.6419 -0.0229 0.2894
H24 H 0.6567 0.0689 0.2561
C24 C 0.7723(3) -0.0434(3) 0.24678(12)
H25 H 0.8202 0.0003 0.2296
H26 H 0.7286 -0.0850 0.2270
H27 H 0.8164 -0.0868 0.2657
C25 C 0.41483(18) 0.64674(16) 0.39383(8)
C26 C 0.3848(2) 0.71453(18) 0.43281(9)
H28 H 0.3122 0.7432 0.4282
H29 H 0.4383 0.7689 0.4353
H30 H 0.3849 0.6747 0.4598
C27 C 0.4072(2) 0.70144(18) 0.34901(8)
H31 H 0.4243 0.6541 0.3254
H32 H 0.4593 0.7573 0.3484
H33 H 0.3332 0.7275 0.3449
O5 O -0.01792(12) 0.57795(11) 0.43839(5)
O6 O 0.13350(13) 0.40779(11) 0.40436(5)
O7 O -0.04667(13) 0.36421(11) 0.39944(6)
O8 O -0.14639(13) 0.61541(12) 0.38135(5)
N2 N 0.09496(16) 0.68776(13) 0.34526(6)
C28 C 0.0893(2) 0.96546(17) 0.31710(8)
H34 H 0.0854 1.0292 0.3310
C29 C 0.0946(2) 0.96113(18) 0.27106(8)
C30 C 0.1012(2) 0.86455(19) 0.25054(8)
H35 H 0.1051 0.8603 0.2195
C31 C 0.1021(2) 0.77638(18) 0.27546(7)
H36 H 0.1070 0.7132 0.2612
C32 C 0.09559(19) 0.78039(16) 0.32249(7)
C33 C 0.08843(17) 0.68902(15) 0.38863(7)
C34 C 0.08461(17) 0.78242(16) 0.41495(7)
C35 C 0.08328(19) 0.78214(18) 0.46227(7)
H37 H 0.0832 0.7200 0.4776
C36 C 0.0821(2) 0.87257(19) 0.48582(8)
H38 H 0.0817 0.8715 0.5169
C37 C 0.0813(2) 0.96642(18) 0.46297(8)
H39 H 0.0794 1.0275 0.4790
C38 C 0.0834(2) 0.96897(18) 0.41734(8)
H40 H 0.0835 1.0319 0.4027
C39 C 0.08551(18) 0.87744(16) 0.39216(7)
C40 C 0.08963(18) 0.87648(16) 0.34372(7)
C41 C 0.0939(2) 1.05737(19) 0.24306(9)
H41 H 0.0253 1.0615 0.2268
H42 H 0.1551 1.0557 0.2224
H43 H 0.1009 1.1162 0.2622
C42 C -0.10062(18) 0.53957(16) 0.40899(7)
H44 H -0.1595 0.5054 0.4261
C43 C -0.04135(18) 0.46283(16) 0.37933(7)
H45 H -0.0698 0.4630 0.3486
C44 C 0.08268(19) 0.49266(16) 0.38190(7)
H46 H 0.1155 0.5064 0.3525
C45 C 0.08433(18) 0.58636(16) 0.41276(7)
H47 H 0.1480 0.5812 0.4331
C46 C -0.20422(19) 0.69262(17) 0.40635(8)
H48 H -0.1540 0.7247 0.4275
H49 H -0.2651 0.6618 0.4229
C47 C -0.2487(2) 0.77196(18) 0.37425(8)
H50 H -0.2977 0.7392 0.3528
H51 H -0.1875 0.8028 0.3580
C48 C -0.3125(2) 0.85521(19) 0.39946(10)
H52 H -0.3490 0.8993 0.3778
H53 H -0.3701 0.8227 0.4172
C49 C -0.2413(2) 0.9216(2) 0.43015(9)
H54 H -0.2012 0.8773 0.4506
H55 H -0.1868 0.9577 0.4122
C50 C -0.3065(3) 0.9994(2) 0.45705(9)
H56 H -0.3478 1.0433 0.4368
H57 H -0.3597 0.9637 0.4758
C51 C -0.2325(3) 1.0648(3) 0.48604(10)
H58 H -0.1905 1.0216 0.5058
H59 H -0.2773 1.1111 0.5033
H60 H -0.1825 1.1033 0.4675
C52 C 0.06275(18) 0.32180(16) 0.39873(8)
C53 C 0.0745(2) 0.25163(18) 0.43830(9)
H61 H 0.1473 0.2213 0.4382
H62 H 0.0193 0.1985 0.4367
H63 H 0.0645 0.2902 0.4654
C54 C 0.0844(2) 0.26845(19) 0.35430(8)
H64 H 0.0794 0.3175 0.3305
H65 H 0.0300 0.2155 0.3498
H66 H 0.1574 0.2386 0.3546
loop_
_geom_bond_atom_site_label_1
_geom_bond_atom_site_label_2
_geom_bond_site_symmetry_1
_geom_bond_site_symmetry_2
O1 C15 1_555 1_555
O2 C17 1_555 1_555
O3 C16 1_555 1_555
O4 C15 1_555 1_555
N1 C5 1_555 1_555
C1 H1 1_555 1_555
C2 C1 1_555 1_555
C3 C2 1_555 1_555
H2 C3 1_555 1_555
C4 C3 1_555 1_555
H3 C4 1_555 1_555
C5 C4 1_555 1_555
C6 N1 1_555 1_555
C7 C6 1_555 1_555
C8 C7 1_555 1_555
H4 C8 1_555 1_555
C9 C8 1_555 1_555
H5 C9 1_555 1_555
C10 C9 1_555 1_555
H6 C10 1_555 1_555
C11 C10 1_555 1_555
H7 C11 1_555 1_555
C12 C7 1_555 1_555
C13 C1 1_555 1_555
C14 C2 1_555 1_555
H8 C14 1_555 1_555
H9 C14 1_555 1_555
H10 C14 1_555 1_555
C15 H11 1_555 1_555
C16 C15 1_555 1_555
H12 C16 1_555 1_555
C17 C16 1_555 1_555
H13 C17 1_555 1_555
C18 O1 1_555 1_555
H14 C18 1_555 1_555
C19 O4 1_555 1_555
H15 C19 1_555 1_555
H16 C19 1_555 1_555
C20 C19 1_555 1_555
H17 C20 1_555 1_555
H18 C20 1_555 1_555
C21 C20 1_555 1_555
H19 C21 1_555 1_555
H20 C21 1_555 1_555
C22 C21 1_555 1_555
H21 C22 1_555 1_555
H22 C22 1_555 1_555
C23 C22 1_555 1_555
H23 C23 1_555 1_555
H24 C23 1_555 1_555
C24 C23 1_555 1_555
H25 C24 1_555 1_555
H26 C24 1_555 1_555
H27 C24 1_555 1_555
C25 O2 1_555 1_555
C26 C25 1_555 1_555
H28 C26 1_555 1_555
H29 C26 1_555 1_555
H30 C26 1_555 1_555
C27 C25 1_555 1_555
H31 C27 1_555 1_555
H32 C27 1_555 1_555
H33 C27 1_555 1_555
O5 C42 1_555 1_555
O6 C44 1_555 1_555
O7 C43 1_555 1_555
O8 C42 1_555 1_555
N2 C32 1_555 1_555
C28 H34 1_555 1_555
C29 C28 1_555 1_555
C30 C29 1_555 1_555
H35 C30 1_555 1_555
C31 C30 1_555 1_555
H36 C31 1_555 1_555
C32 C31 1_555 1_555
C33 N2 1_555 1_555
C34 C33 1_555 1_555
C35 C34 1_555 1_555
H37 C35 1_555 1_555
C36 C35 1_555 1_555
H38 C36 1_555 1_555
C37 C36 1_555 1_555
H39 C37 1_555 1_555
C38 C37 1_555 1_555
H40 C38 1_555 1_555
C39 C34 1_555 1_555
C40 C28 1_555 1_555
C41 C29 1_555 1_555
H41 C41 1_555 1_555
H42 C41 1_555 1_555
H43 C41 1_555 1_555
C42 H44 1_555 1_555
C43 C42 1_555 1_555
H45 C43 1_555 1_555
C44 C43 1_555 1_555
H46 C44 1_555 1_555
C45 O5 1_555 1_555
H47 C45 1_555 1_555
C46 O8 1_555 1_555
H48 C46 1_555 1_555
H49 C46 1_555 1_555
C47 C46 1_555 1_555
H50 C47 1_555 1_555
H51 C47 1_555 1_555
C48 C47 1_555 1_555
H52 C48 1_555 1_555
H53 C48 1_555 1_555
C49 C48 1_555 1_555
H54 C49 1_555 1_555
H55 C49 1_555 1_555
C50 C49 1_555 1_555
H56 C50 1_555 1_555
H57 C50 1_555 1_555
C51 C50 1_555 1_555
H58 C51 1_555 1_555
H59 C51 1_555 1_555
H60 C51 1_555 1_555
C52 O6 1_555 1_555
C53 C52 1_555 1_555
H61 C53 1_555 1_555
H62 C53 1_555 1_555
H63 C53 1_555 1_555
C54 C52 1_555 1_555
H64 C54 1_555 1_555
H65 C54 1_555 1_555
H66 C54 1_555 1_555
O3 C25 1_555 1_555
C5 C13 1_555 1_555
C6 C18 1_555 1_555
C11 C12 1_555 1_555
C12 C13 1_555 1_555
C17 C18 1_555 1_555
O7 C52 1_555 1_555
C32 C40 1_555 1_555
C33 C45 1_555 1_555
C38 C39 1_555 1_555
C39 C40 1_555 1_555
C44 C45 1_555 1_555

#END
