
#######################################################################
#
#                 Cambridge Crystallographic Data Centre
#                                CCDC 
#
#######################################################################
#
# If this CIF has been generated from an entry in the Cambridge 
# Structural Database, then it will include bibliographic, chemical, 
# crystal, experimental, refinement or atomic coordinate data resulting 
# from the CCDC's data processing and validation procedures.
#
#######################################################################

data_VEPXEU
_chemical_formula_moiety         'C14 H19 Si2 1+,C24 B1 F20 1-,C6 F6'
_chemical_name_systematic        
'Naphthalene-1,8-diylbis(dimethylsilanyl)hydronium tetrakis(perfluorophenyl)borate perfluorobenzene solvate'
_symmetry_cell_setting           monoclinic
_symmetry_space_group_name_H-M   'P 21/c'
_symmetry_Int_Tables_number      14
_space_group_name_Hall           '-P 2ybc'
loop_
_symmetry_equiv_pos_site_id
_symmetry_equiv_pos_as_xyz
1 x,y,z
2 -x,1/2+y,1/2-z
3 -x,-y,-z
4 x,1/2-y,1/2+z
_cell_length_a                   14.9808(8)
_cell_length_b                   10.7169(4)
_cell_length_c                   27.4162(17)
_cell_angle_alpha                90
_cell_angle_beta                 93.974(5)
_cell_angle_gamma                90
_cell_volume                     4391.03
_exptl_crystal_colour            colorless
_exptl_crystal_description       plate
_cell_formula_units_Z            4
loop_
_atom_site_label
_atom_site_type_symbol
_atom_site_fract_x
_atom_site_fract_y
_atom_site_fract_z
Si1 Si 0.17827(7) 0.54472(13) 0.88621(4)
H1 H 0.286(3) 0.587(4) 0.8948(15)
C1 C 0.1587(3) 0.4444(6) 0.93893(18)
H2 H 0.1912 0.3657 0.9361
H3 H 0.0945 0.4274 0.9396
H4 H 0.1800 0.4869 0.9692
C2 C 0.1223(3) 0.6963(5) 0.88530(18)
H5 H 0.1271 0.7323 0.9182
H6 H 0.0591 0.6857 0.8744
H7 H 0.1509 0.7523 0.8628
Si2 Si 0.37429(7) 0.53024(13) 0.87518(5)
C3 C 0.4495(3) 0.6659(6) 0.8801(2)
H8 H 0.4656 0.6838 0.9146
H9 H 0.4193 0.7384 0.8648
H10 H 0.5039 0.6476 0.8634
C4 C 0.4041(3) 0.4054(6) 0.91911(18)
H11 H 0.4220 0.4421 0.9510
H12 H 0.4539 0.3567 0.9076
H13 H 0.3523 0.3508 0.9221
C5 C 0.1740(2) 0.4667(4) 0.82581(15)
C6 C 0.0889(3) 0.4319(5) 0.80755(18)
H14 H 0.0404 0.4387 0.8279
C7 C 0.0728(3) 0.3869(5) 0.75977(19)
H15 H 0.0142 0.3613 0.7487
C8 C 0.1405(3) 0.3795(5) 0.72901(17)
H16 H 0.1282 0.3529 0.6962
C9 C 0.2295(3) 0.4117(4) 0.74601(15)
C10 C 0.2467(2) 0.4539(4) 0.79506(15)
C11 C 0.3376(2) 0.4847(4) 0.81206(15)
C12 C 0.4038(3) 0.4734(5) 0.77960(17)
H17 H 0.4637 0.4928 0.7906
C13 C 0.3857(3) 0.4341(5) 0.73058(17)
H18 H 0.4327 0.4283 0.7091
C14 C 0.3001(3) 0.4048(5) 0.71458(15)
H19 H 0.2878 0.3792 0.6816
B1 B 0.2179(3) 0.7604(5) 0.59061(17)
C15 C 0.1200(2) 0.7009(4) 0.57198(14)
C16 C 0.0558(2) 0.7524(4) 0.53852(15)
C17 C -0.0239(3) 0.6931(5) 0.52382(16)
C18 C -0.0439(3) 0.5797(5) 0.54255(17)
C19 C 0.0178(3) 0.5226(4) 0.57481(18)
C20 C 0.0972(3) 0.5831(4) 0.58766(15)
F1 F 0.06838(15) 0.8662(2) 0.51852(9)
F2 F -0.08192(16) 0.7488(3) 0.49055(10)
F3 F -0.12205(15) 0.5220(3) 0.52893(11)
F4 F -0.00009(17) 0.4097(3) 0.59371(12)
F5 F 0.15525(15) 0.5195(2) 0.61915(9)
C21 C 0.2366(2) 0.7557(4) 0.65115(15)
C22 C 0.3211(3) 0.7828(4) 0.67292(16)
C23 C 0.3420(3) 0.7888(4) 0.72262(17)
C24 C 0.2760(3) 0.7721(4) 0.75402(16)
C25 C 0.1906(3) 0.7476(4) 0.73497(15)
C26 C 0.1730(2) 0.7407(4) 0.68534(15)
F6 F 0.38974(15) 0.8063(3) 0.64377(10)
F7 F 0.42616(17) 0.8159(3) 0.74096(11)
F8 F 0.29325(18) 0.7825(3) 0.80305(9)
F9 F 0.12408(17) 0.7333(3) 0.76570(9)
F10 F 0.08570(14) 0.7193(2) 0.67079(8)
C27 C 0.2869(2) 0.6738(4) 0.56000(16)
C28 C 0.2837(2) 0.6799(4) 0.50989(16)
C29 C 0.3266(3) 0.6002(5) 0.47909(17)
C30 C 0.3786(3) 0.5052(4) 0.49994(19)
C31 C 0.3870(2) 0.4962(4) 0.54981(18)
C32 C 0.3422(3) 0.5763(4) 0.57864(17)
F11 F 0.23266(16) 0.7712(2) 0.48636(9)
F12 F 0.31762(18) 0.6149(3) 0.42988(10)
F13 F 0.42060(17) 0.4246(3) 0.47123(12)
F14 F 0.43985(16) 0.4049(3) 0.57081(11)
F15 F 0.35265(15) 0.5550(3) 0.62733(9)
C33 C 0.2271(2) 0.9118(4) 0.58017(14)
C34 C 0.1656(2) 0.9939(4) 0.59836(15)
C35 C 0.1719(3) 1.1218(4) 0.59720(16)
C36 C 0.2433(3) 1.1779(4) 0.57685(16)
C37 C 0.3066(3) 1.1017(4) 0.55817(16)
C38 C 0.2980(2) 0.9735(4) 0.56035(15)
F16 F 0.09316(14) 0.9467(2) 0.61932(9)
F17 F 0.10943(16) 1.1937(3) 0.61713(10)
F18 F 0.25028(17) 1.3025(2) 0.57551(11)
F19 F 0.37675(16) 1.1542(3) 0.53694(10)
F20 F 0.36610(14) 0.9081(2) 0.54152(9)
F21 F 0.7638(4) 0.6336(5) 0.60952(16)
C39 C 0.7517(5) 0.6171(6) 0.6572(2)
C40 C 0.8233(4) 0.5959(6) 0.6897(3)
C41 C 0.8121(5) 0.5825(6) 0.7381(3)
C42 C 0.7278(5) 0.5903(5) 0.7545(2)
C43 C 0.6559(4) 0.6100(5) 0.7214(2)
C44 C 0.6677(4) 0.6237(6) 0.6727(2)
F22 F 0.9062(3) 0.5895(5) 0.6741(3)
F23 F 0.8794(3) 0.5614(4) 0.7716(2)
F24 F 0.7138(4) 0.5798(4) 0.80207(14)
F25 F 0.5732(3) 0.6171(4) 0.73731(17)
F26 F 0.5969(3) 0.6425(5) 0.64147(16)
loop_
_geom_bond_atom_site_label_1
_geom_bond_atom_site_label_2
_geom_bond_site_symmetry_1
_geom_bond_site_symmetry_2
Si1 H1 1_555 1_555
H1 Si2 1_555 1_555
C1 Si1 1_555 1_555
H2 C1 1_555 1_555
H3 C1 1_555 1_555
H4 C1 1_555 1_555
C2 Si1 1_555 1_555
H5 C2 1_555 1_555
H6 C2 1_555 1_555
H7 C2 1_555 1_555
Si2 C3 1_555 1_555
C3 H8 1_555 1_555
H9 C3 1_555 1_555
H10 C3 1_555 1_555
C4 Si2 1_555 1_555
H11 C4 1_555 1_555
H12 C4 1_555 1_555
H13 C4 1_555 1_555
C5 Si1 1_555 1_555
C6 C5 1_555 1_555
H14 C6 1_555 1_555
C7 C6 1_555 1_555
H15 C7 1_555 1_555
C8 C7 1_555 1_555
H16 C8 1_555 1_555
C9 C8 1_555 1_555
C10 C5 1_555 1_555
C11 Si2 1_555 1_555
C12 C11 1_555 1_555
H17 C12 1_555 1_555
C13 C12 1_555 1_555
H18 C13 1_555 1_555
C14 C9 1_555 1_555
H19 C14 1_555 1_555
B1 C15 1_555 1_555
C15 C16 1_555 1_555
C16 C17 1_555 1_555
C17 C18 1_555 1_555
C18 C19 1_555 1_555
C19 C20 1_555 1_555
C20 C15 1_555 1_555
F1 C16 1_555 1_555
F2 C17 1_555 1_555
F3 C18 1_555 1_555
F4 C19 1_555 1_555
F5 C20 1_555 1_555
C21 B1 1_555 1_555
C22 C21 1_555 1_555
C23 C22 1_555 1_555
C24 C23 1_555 1_555
C25 C24 1_555 1_555
C26 C21 1_555 1_555
F6 C22 1_555 1_555
F7 C23 1_555 1_555
F8 C24 1_555 1_555
F9 C25 1_555 1_555
F10 C26 1_555 1_555
C27 B1 1_555 1_555
C28 C27 1_555 1_555
C29 C28 1_555 1_555
C30 C29 1_555 1_555
C31 C30 1_555 1_555
C32 C27 1_555 1_555
F11 C28 1_555 1_555
F12 C29 1_555 1_555
F13 C30 1_555 1_555
F14 C31 1_555 1_555
F15 C32 1_555 1_555
C33 B1 1_555 1_555
C34 C33 1_555 1_555
C35 C34 1_555 1_555
C36 C35 1_555 1_555
C37 C36 1_555 1_555
C38 C33 1_555 1_555
F16 C34 1_555 1_555
F17 C35 1_555 1_555
F18 C36 1_555 1_555
F19 C37 1_555 1_555
F20 C38 1_555 1_555
F21 C39 1_555 1_555
C39 C40 1_555 1_555
C40 C41 1_555 1_555
C41 C42 1_555 1_555
C42 C43 1_555 1_555
C43 C44 1_555 1_555
C44 C39 1_555 1_555
F22 C40 1_555 1_555
F23 C41 1_555 1_555
F24 C42 1_555 1_555
F25 C43 1_555 1_555
F26 C44 1_555 1_555
C9 C10 1_555 1_555
C10 C11 1_555 1_555
C13 C14 1_555 1_555
C25 C26 1_555 1_555
C31 C32 1_555 1_555
C37 C38 1_555 1_555

#END
