
#######################################################################
#
#                 Cambridge Crystallographic Data Centre
#                                CCDC 
#
#######################################################################
#
# If this CIF has been generated from an entry in the Cambridge 
# Structural Database, then it will include bibliographic, chemical, 
# crystal, experimental, refinement or atomic coordinate data resulting 
# from the CCDC's data processing and validation procedures.
#
#######################################################################

data_VEQSAM
_chemical_formula_moiety         'C54 H39 N3 O3,2.5(C1 H1 Cl3)'
_chemical_name_systematic        
"1,3,5-tris(4'-(8''-Methoxyquinolin-5''-yl)phenyl)benzene chloroform solvate"
_symmetry_cell_setting           triclinic
_symmetry_space_group_name_H-M   'P -1'
_symmetry_Int_Tables_number      2
_space_group_name_Hall           '-P 1'
loop_
_symmetry_equiv_pos_site_id
_symmetry_equiv_pos_as_xyz
1 x,y,z
2 -x,-y,-z
_cell_length_a                   12.403(4)
_cell_length_b                   13.052(4)
_cell_length_c                   18.606(6)
_cell_angle_alpha                104.016(7)
_cell_angle_beta                 102.524(6)
_cell_angle_gamma                103.065(6)
_cell_volume                     2726.62
_cell_formula_units_Z            2
_exptl_crystal_recrystallization_method hexane/dichloromethane
_exptl_crystal_preparation       luminescent
loop_
_atom_site_label
_atom_site_type_symbol
_atom_site_fract_x
_atom_site_fract_y
_atom_site_fract_z
O1 O -0.3603(3) 0.0343(3) 0.44347(15)
O2 O -0.8777(2) 1.15009(18) 1.10141(13)
O3 O 0.3356(3) 0.4883(3) 1.53397(18)
N1 N -0.2632(4) -0.0155(3) 0.56512(19)
N2 N -0.9611(2) 0.9413(2) 1.08920(15)
N3 N 0.2050(4) 0.6145(4) 1.5780(2)
C1 C -0.3005(2) 0.5234(2) 0.96244(15)
C2 C -0.3078(3) 0.4496(2) 0.88598(15)
C3 C -0.4136(3) 0.3920(3) 0.83267(18)
H1 H -0.4807 0.4008 0.8445
C4 C -0.4215(3) 0.3215(3) 0.76201(19)
H2 H -0.4940 0.2838 0.7272
C5 C -0.3242(3) 0.3054(2) 0.74147(17)
C6 C -0.2184(3) 0.3636(3) 0.79604(18)
H3 H -0.1512 0.3537 0.7848
C7 C -0.2097(3) 0.4354(2) 0.86624(17)
H4 H -0.1371 0.4747 0.9007
C8 C -0.3360(3) 0.2318(3) 0.66279(18)
C9 C -0.3863(3) 0.2541(3) 0.59830(19)
H5 H -0.4155 0.3143 0.6041
C10 C -0.3963(4) 0.1904(4) 0.5232(2)
H6 H -0.4319 0.2086 0.4807
C11 C -0.3535(4) 0.1016(4) 0.5129(2)
C12 C -0.3034(3) 0.0736(3) 0.57789(19)
C13 C -0.2948(3) 0.1393(3) 0.65337(18)
C14 C -0.2467(4) 0.1025(3) 0.7160(2)
H7 H -0.2409 0.1405 0.7665
C15 C -0.2096(5) 0.0122(4) 0.7012(2)
H8 H -0.1782 -0.0126 0.7415
C16 C -0.2188(6) -0.0438(5) 0.6251(3)
H9 H -0.1916 -0.1051 0.6164
C17 C -0.4131(5) 0.0600(4) 0.3754(2)
H10 H -0.4119 0.0067 0.3300
H11 H -0.3708 0.1325 0.3774
H12 H -0.4915 0.0578 0.3735
C18 C -0.3684(2) 0.6615(2) 1.04028(15)
C19 C -0.4454(2) 0.7337(2) 1.04484(15)
C20 C -0.4152(3) 0.8321(3) 1.10384(18)
H13 H -0.3441 0.8540 1.1411
C21 C -0.4868(3) 0.8988(3) 1.10935(19)
H14 H -0.4627 0.9644 1.1499
C22 C -0.5940(2) 0.8699(2) 1.05548(16)
C23 C -0.6216(3) 0.7739(2) 0.99516(16)
H15 H -0.6912 0.7535 0.9566
C24 C -0.5512(3) 0.7078(2) 0.98970(16)
H16 H -0.5745 0.6436 0.9480
C25 C -0.6702(3) 0.9429(2) 1.06410(15)
C26 C -0.6330(3) 1.0503(3) 1.06863(18)
H17 H -0.5597 1.0772 1.0638
C27 C -0.6990(3) 1.1232(3) 1.08023(18)
H18 H -0.6695 1.1966 1.0830
C28 C -0.8070(3) 1.0864(3) 1.08756(16)
C29 C -0.8527(3) 0.9739(2) 1.08120(15)
C30 C -0.7855(2) 0.9008(2) 1.06917(14)
C31 C -0.8342(3) 0.7902(2) 1.06602(16)
H19 H -0.7920 0.7398 1.0596
C32 C -0.9417(3) 0.7582(3) 1.07238(19)
H20 H -0.9755 0.6854 1.0694
C33 C -1.0018(3) 0.8365(3) 1.0836(2)
H21 H -1.0763 0.8128 1.0875
C34 C -0.8339(4) 1.2659(3) 1.1145(2)
H22 H -0.8920 1.3007 1.1239
H23 H -0.8135 1.2785 1.0698
H24 H -0.7668 1.2964 1.1587
C35 C -0.2190(2) 0.5924(2) 1.10170(16)
C36 C -0.1403(3) 0.5845(3) 1.17280(16)
C37 C -0.1285(3) 0.4824(3) 1.1760(2)
H25 H -0.1711 0.4200 1.1344
C38 C -0.0563(4) 0.4704(3) 1.2383(2)
H26 H -0.0500 0.4006 1.2377
C39 C 0.0068(3) 0.5591(4) 1.3015(2)
C40 C -0.0058(3) 0.6628(3) 1.30061(17)
H27 H 0.0347 0.7241 1.3435
C41 C -0.0789(3) 0.6762(3) 1.23586(17)
H28 H -0.0856 0.7458 1.2358
C42 C 0.0964(4) 0.5439(3) 1.3668(2)
C43 C 0.1666(3) 0.4847(3) 1.3477(2)
H29 H 0.1611 0.4587 1.2954
C44 C 0.2464(4) 0.4589(3) 1.3991(3)
H30 H 0.2893 0.4135 1.3816
C45 C 0.2613(4) 0.5033(4) 1.4788(3)
C46 C 0.1903(3) 0.5706(3) 1.5001(2)
C47 C 0.1061(3) 0.5859(3) 1.4433(2)
C48 C 0.0296(4) 0.6475(4) 1.4712(2)
H31 H -0.0305 0.6574 1.4366
C49 C 0.0488(5) 0.6889(5) 1.5479(2)
H32 H 0.0040 0.7307 1.5673
C50 C 0.1390(7) 0.6676(6) 1.5995(3)
H33 H 0.1494 0.6950 1.6524
C51 C 0.3906(7) 0.3992(7) 1.5104(4)
H34 H 0.4448 0.3971 1.5551
H35 H 0.4302 0.4144 1.4734
H36 H 0.3320 0.3292 1.4876
C52 C -0.3731(2) 0.5918(2) 0.96899(15)
H37 H -0.4257 0.5906 0.9245
C53 C -0.2908(2) 0.6590(2) 1.10631(16)
H38 H -0.2875 0.7034 1.1546
C54 C -0.2249(2) 0.5258(2) 1.02936(16)
H39 H -0.1760 0.4814 1.0261
loop_
_geom_bond_atom_site_label_1
_geom_bond_atom_site_label_2
_geom_bond_site_symmetry_1
_geom_bond_site_symmetry_2
O1 C11 1_555 1_555
O2 C28 1_555 1_555
O3 C45 1_555 1_555
N1 C12 1_555 1_555
N2 C29 1_555 1_555
N3 C46 1_555 1_555
C1 C2 1_555 1_555
C2 C3 1_555 1_555
C3 H1 1_555 1_555
C4 C3 1_555 1_555
H2 C4 1_555 1_555
C5 C4 1_555 1_555
C6 C5 1_555 1_555
H3 C6 1_555 1_555
C7 C2 1_555 1_555
H4 C7 1_555 1_555
C8 C5 1_555 1_555
C9 C8 1_555 1_555
H5 C9 1_555 1_555
C10 C9 1_555 1_555
H6 C10 1_555 1_555
C11 C10 1_555 1_555
C12 C11 1_555 1_555
C13 C8 1_555 1_555
C14 C13 1_555 1_555
H7 C14 1_555 1_555
C15 C14 1_555 1_555
H8 C15 1_555 1_555
C16 N1 1_555 1_555
H9 C16 1_555 1_555
C17 O1 1_555 1_555
H10 C17 1_555 1_555
H11 C17 1_555 1_555
H12 C17 1_555 1_555
C18 C19 1_555 1_555
C19 C20 1_555 1_555
C20 H13 1_555 1_555
C21 C20 1_555 1_555
H14 C21 1_555 1_555
C22 C21 1_555 1_555
C23 C22 1_555 1_555
H15 C23 1_555 1_555
C24 C19 1_555 1_555
H16 C24 1_555 1_555
C25 C22 1_555 1_555
C26 C25 1_555 1_555
H17 C26 1_555 1_555
C27 C26 1_555 1_555
H18 C27 1_555 1_555
C28 C27 1_555 1_555
C29 C28 1_555 1_555
C30 C25 1_555 1_555
C31 C30 1_555 1_555
H19 C31 1_555 1_555
C32 C31 1_555 1_555
H20 C32 1_555 1_555
C33 N2 1_555 1_555
H21 C33 1_555 1_555
C34 O2 1_555 1_555
H22 C34 1_555 1_555
H23 C34 1_555 1_555
H24 C34 1_555 1_555
C35 C36 1_555 1_555
C36 C37 1_555 1_555
C37 H25 1_555 1_555
C38 C37 1_555 1_555
H26 C38 1_555 1_555
C39 C38 1_555 1_555
C40 C39 1_555 1_555
H27 C40 1_555 1_555
C41 C36 1_555 1_555
H28 C41 1_555 1_555
C42 C39 1_555 1_555
C43 C42 1_555 1_555
H29 C43 1_555 1_555
C44 C43 1_555 1_555
H30 C44 1_555 1_555
C45 C44 1_555 1_555
C46 C45 1_555 1_555
C47 C42 1_555 1_555
C48 C47 1_555 1_555
H31 C48 1_555 1_555
C49 C48 1_555 1_555
H32 C49 1_555 1_555
C50 N3 1_555 1_555
H33 C50 1_555 1_555
C51 O3 1_555 1_555
H34 C51 1_555 1_555
H35 C51 1_555 1_555
H36 C51 1_555 1_555
C52 C1 1_555 1_555
H37 C52 1_555 1_555
C53 C18 1_555 1_555
H38 C53 1_555 1_555
C54 C1 1_555 1_555
H39 C54 1_555 1_555
C6 C7 1_555 1_555
C12 C13 1_555 1_555
C15 C16 1_555 1_555
C18 C52 1_555 1_555
C23 C24 1_555 1_555
C29 C30 1_555 1_555
C32 C33 1_555 1_555
C35 C53 1_555 1_555
C35 C54 1_555 1_555
C40 C41 1_555 1_555
C46 C47 1_555 1_555
C49 C50 1_555 1_555

#END
