
#######################################################################
#
#                 Cambridge Crystallographic Data Centre
#                                CCDC 
#
#######################################################################
#
# If this CIF has been generated from an entry in the Cambridge 
# Structural Database, then it will include bibliographic, chemical, 
# crystal, experimental, refinement or atomic coordinate data resulting 
# from the CCDC's data processing and validation procedures.
#
#######################################################################

data_VERCED
_chemical_formula_moiety         'C18 H19 F3 O5'
_chemical_name_systematic        
'methyl 4-butyl-5-[2-hydroxy-5-(trifluoromethyl)phenyl]-2-methoxyfuran-3-carboxylate'
_symmetry_cell_setting           monoclinic
_symmetry_space_group_name_H-M   'P 21/c'
_symmetry_Int_Tables_number      14
_space_group_name_Hall           '-P 2ybc'
loop_
_symmetry_equiv_pos_site_id
_symmetry_equiv_pos_as_xyz
1 x,y,z
2 -x,1/2+y,1/2-z
3 -x,-y,-z
4 x,1/2-y,1/2+z
_cell_length_a                   10.1321(4)
_cell_length_b                   14.1151(5)
_cell_length_c                   12.6196(5)
_cell_angle_alpha                90
_cell_angle_beta                 105.843(2)
_cell_angle_gamma                90
_cell_volume                     1736.24
_exptl_crystal_colour            colorless
_exptl_crystal_description       plate
_cell_formula_units_Z            4
loop_
_atom_site_label
_atom_site_type_symbol
_atom_site_fract_x
_atom_site_fract_y
_atom_site_fract_z
O1 O 0.39329(14) 0.35728(9) 0.29755(10)
O2 O 0.51566(15) 0.46926(10) 0.23252(11)
O3 O 0.74161(14) 0.53254(9) 0.41101(11)
O4 O 0.75559(14) 0.46089(10) 0.57266(11)
O5 O 0.35798(15) 0.15972(10) 0.25800(12)
H1 H 0.340(3) 0.110(2) 0.218(2)
C1 C 0.4011(2) 0.31386(13) 0.40017(15)
C2 C 0.50895(19) 0.34901(13) 0.47807(16)
C3 C 0.57436(19) 0.41837(13) 0.42382(15)
C4 C 0.4978(2) 0.41884(13) 0.31644(15)
C5 C 0.4059(2) 0.46971(17) 0.13196(17)
H2 H 0.3938 0.4058 0.1005
H3 H 0.4285 0.5135 0.0793
H4 H 0.3207 0.4901 0.1477
C6 C 0.6959(2) 0.47625(13) 0.46590(15)
C7 C 0.8831(2) 0.50921(16) 0.61953(17)
H5 H 0.951 0.489 0.5818
H6 H 0.9164 0.4938 0.698
H7 H 0.8688 0.5777 0.6107
C8 C 0.2976(2) 0.24120(13) 0.40074(15)
C9 C 0.2791(2) 0.16350(13) 0.32864(15)
C10 C 0.1845(2) 0.09296(14) 0.33232(16)
H8 H 0.1735 0.0404 0.2837
C11 C 0.1065(2) 0.09911(14) 0.40656(16)
H9 H 0.0417 0.051 0.4085
C12 C 0.1230(2) 0.17555(14) 0.47827(15)
C13 C 0.21819(19) 0.24593(13) 0.47538(15)
H10 H 0.2294 0.2979 0.5249
C14 C 0.0409(2) 0.18005(15) 0.55991(17)
F1 F -0.08779(12) 0.14819(9) 0.51848(11)
F2 F 0.09396(14) 0.12560(11) 0.64900(10)
F3 F 0.03127(14) 0.26780(9) 0.59734(11)
C15 C 0.5508(2) 0.32165(14) 0.59749(15)
H11 H 0.4728 0.2887 0.6145
H12 H 0.5685 0.3803 0.6422
C16 C 0.6770(2) 0.25830(14) 0.63341(16)
H13 H 0.7501 0.283 0.6025
H14 H 0.6533 0.1935 0.6042
C17 C 0.7299(2) 0.25436(15) 0.75916(16)
H15 H 0.7644 0.3178 0.7869
H16 H 0.6526 0.2387 0.7899
C18 C 0.8430(2) 0.18272(16) 0.80009(18)
H17 H 0.8104 0.1199 0.7717
H18 H 0.8693 0.1815 0.8808
H19 H 0.9226 0.2003 0.7744
loop_
_geom_bond_atom_site_label_1
_geom_bond_atom_site_label_2
_geom_bond_site_symmetry_1
_geom_bond_site_symmetry_2
O1 C1 1_555 1_555
O2 C4 1_555 1_555
O3 C6 1_555 1_555
O4 C6 1_555 1_555
O5 H1 1_555 1_555
C1 C2 1_555 1_555
C2 C3 1_555 1_555
C3 C4 1_555 1_555
C4 O1 1_555 1_555
C5 O2 1_555 1_555
H2 C5 1_555 1_555
H3 C5 1_555 1_555
H4 C5 1_555 1_555
C6 C3 1_555 1_555
C7 O4 1_555 1_555
H5 C7 1_555 1_555
H6 C7 1_555 1_555
H7 C7 1_555 1_555
C8 C1 1_555 1_555
C9 O5 1_555 1_555
C10 C9 1_555 1_555
H8 C10 1_555 1_555
C11 C10 1_555 1_555
H9 C11 1_555 1_555
C12 C11 1_555 1_555
C13 C8 1_555 1_555
H10 C13 1_555 1_555
C14 C12 1_555 1_555
F1 C14 1_555 1_555
F2 C14 1_555 1_555
F3 C14 1_555 1_555
C15 C2 1_555 1_555
H11 C15 1_555 1_555
H12 C15 1_555 1_555
C16 C15 1_555 1_555
H13 C16 1_555 1_555
H14 C16 1_555 1_555
C17 C16 1_555 1_555
H15 C17 1_555 1_555
H16 C17 1_555 1_555
C18 C17 1_555 1_555
H17 C18 1_555 1_555
H18 C18 1_555 1_555
H19 C18 1_555 1_555
C8 C9 1_555 1_555
C12 C13 1_555 1_555

#END
