
#######################################################################
#
#                 Cambridge Crystallographic Data Centre
#                                CCDC 
#
#######################################################################
#
# If this CIF has been generated from an entry in the Cambridge 
# Structural Database, then it will include bibliographic, chemical, 
# crystal, experimental, refinement or atomic coordinate data resulting 
# from the CCDC's data processing and validation procedures.
#
#######################################################################

data_VERHUW
_chemical_formula_moiety         'C20 H11 I3,0.5(C5 H12)'
_chemical_name_systematic        '2,7,14-triiodotriptycene pentane solvate'
_symmetry_cell_setting           orthorhombic
_symmetry_space_group_name_H-M   'P 21 21 21'
_symmetry_Int_Tables_number      19
_space_group_name_Hall           'P 2ac 2ab'
loop_
_symmetry_equiv_pos_site_id
_symmetry_equiv_pos_as_xyz
1 x,y,z
2 1/2-x,-y,1/2+z
3 -x,1/2+y,1/2-z
4 1/2+x,1/2-y,-z
_cell_length_a                   12.6019(15)
_cell_length_b                   16.4583(19)
_cell_length_c                   20.154(2)
_cell_angle_alpha                90
_cell_angle_beta                 90
_cell_angle_gamma                90
_cell_volume                     4180.06
_chemical_melting_point          164-166deg.C
_cell_formula_units_Z            8
_exptl_crystal_recrystallization_method n-pentane/dichloromethane
loop_
_atom_site_label
_atom_site_type_symbol
_atom_site_fract_x
_atom_site_fract_y
_atom_site_fract_z
I1 I 0.65383(5) 0.96584(4) 0.93110(4)
I2 I -0.08844(6) 0.83250(5) 0.95214(4)
I3 I 0.24884(7) 0.81159(5) 0.53005(4)
C1 C 0.3968(7) 0.8347(5) 0.8401(5)
C2 C 0.4612(7) 0.8955(5) 0.8617(5)
H1 H 0.4433 0.9498 0.8554
C3 C 0.5534(7) 0.8740(5) 0.8930(5)
C4 C 0.5833(8) 0.7942(6) 0.9016(5)
H2 H 0.6476 0.7816 0.9216
C5 C 0.5172(7) 0.7338(6) 0.8803(6)
H3 H 0.5361 0.6798 0.8868
C6 C 0.4222(8) 0.7522(6) 0.8491(5)
C7 C 0.3373(7) 0.6968(5) 0.8253(5)
H4 H 0.3549 0.6396 0.8328
C8 C 0.2368(7) 0.7216(5) 0.8605(5)
C9 C 0.1697(8) 0.6712(6) 0.8975(5)
H5 H 0.1865 0.6168 0.9040
C10 C 0.0772(9) 0.7039(6) 0.9243(5)
H6 H 0.0312 0.6705 0.9480
C11 C 0.0534(7) 0.7840(6) 0.9164(5)
C12 C 0.1221(7) 0.8354(6) 0.8797(5)
H7 H 0.1074 0.8904 0.8746
C13 C 0.2106(7) 0.8015(5) 0.8522(5)
C14 C 0.2905(7) 0.8467(5) 0.8073(5)
H8 H 0.2725 0.9041 0.8007
C15 C 0.2920(7) 0.7975(5) 0.7420(5)
C16 C 0.2703(7) 0.8254(6) 0.6796(5)
H9 H 0.2516 0.8794 0.6728
C17 C 0.2763(8) 0.7725(7) 0.6271(6)
C18 C 0.3021(9) 0.6928(6) 0.6367(6)
H10 H 0.3041 0.6572 0.6009
C19 C 0.3256(10) 0.6646(6) 0.7004(7)
H11 H 0.3455 0.6107 0.7066
C20 C 0.3196(8) 0.7153(6) 0.7531(5)
I4 I -0.24514(6) 0.59780(5) 0.97755(5)
I5 I -0.04157(6) 0.05433(4) 0.90203(4)
I6 I 0.50925(6) 0.46944(6) 0.89103(5)
C21 C -0.0104(7) 0.4452(5) 0.8861(5)
C22 C -0.0715(7) 0.4869(5) 0.9305(5)
H12 H -0.0624 0.4792 0.9758
C23 C -0.1467(7) 0.5403(6) 0.9073(6)
C24 C -0.1636(8) 0.5515(6) 0.8411(6)
H13 H -0.2158 0.5871 0.8263
C25 C -0.1032(9) 0.5100(6) 0.7976(6)
H14 H -0.1131 0.5184 0.7524
C26 C -0.0270(7) 0.4552(5) 0.8182(5)
C27 C 0.0461(8) 0.4015(6) 0.7770(5)
H15 H 0.0346 0.4087 0.7293
C28 C 0.0243(7) 0.3147(5) 0.7993(4)
C29 C -0.0055(8) 0.2504(6) 0.7616(5)
H16 H -0.0114 0.2560 0.7158
C30 C -0.0273(9) 0.1762(6) 0.7912(5)
H17 H -0.0520 0.1327 0.7661
C31 C -0.0117(8) 0.1683(6) 0.8583(5)
C32 C 0.0211(6) 0.2315(5) 0.8980(5)
H18 H 0.0299 0.2247 0.9434
C33 C 0.0404(7) 0.3047(6) 0.8680(4)
C34 C 0.0771(7) 0.3830(5) 0.9031(5)
H19 H 0.0875 0.3760 0.9509
C35 C 0.1780(7) 0.4092(5) 0.8669(5)
C36 C 0.2754(7) 0.4219(5) 0.8924(5)
H20 H 0.2872 0.4146 0.9376
C37 C 0.3589(7) 0.4462(6) 0.8511(6)
C38 C 0.3449(9) 0.4529(7) 0.7838(6)
H21 H 0.4014 0.4660 0.7561
C39 C 0.2436(9) 0.4395(7) 0.7581(5)
H22 H 0.2326 0.4441 0.7126
C40 C 0.1619(8) 0.4200(5) 0.7974(5)
C41 C 0.581(2) 0.6227(17) 0.6167(16)
C42 C 0.699(2) 0.6170(15) 0.6374(14)
C43 C 0.7197(17) 0.6989(14) 0.6767(12)
C44 C 0.631(2) 0.6980(11) 0.7314(14)
C45 C 0.6016(15) 0.6061(11) 0.7390(10)
C46? C 0.7226(18) 0.5908(14) 0.6404(13)
C47? C 0.708(3) 0.6215(18) 0.731(3)
C48? C 0.696(2) 0.7160(16) 0.7334(14)
C49? C 0.5928(19) 0.7365(17) 0.6967(14)
C50? C 0.600(2) 0.708(2) 0.6249(13)
loop_
_geom_bond_atom_site_label_1
_geom_bond_atom_site_label_2
_geom_bond_site_symmetry_1
_geom_bond_site_symmetry_2
I1 C3 1_555 1_555
I2 C11 1_555 1_555
I3 C17 1_555 1_555
I4 C23 1_555 1_555
I5 C31 1_555 1_555
I6 C37 1_555 1_555
C1 C2 1_555 1_555
C2 H1 1_555 1_555
C3 C2 1_555 1_555
C4 C3 1_555 1_555
H2 C4 1_555 1_555
C5 C4 1_555 1_555
H3 C5 1_555 1_555
C6 C1 1_555 1_555
C7 C6 1_555 1_555
H4 C7 1_555 1_555
C8 C7 1_555 1_555
C9 C8 1_555 1_555
H5 C9 1_555 1_555
C10 C9 1_555 1_555
H6 C10 1_555 1_555
C11 C10 1_555 1_555
C12 C11 1_555 1_555
H7 C12 1_555 1_555
C13 C8 1_555 1_555
C14 C1 1_555 1_555
H8 C14 1_555 1_555
C15 C14 1_555 1_555
C16 C15 1_555 1_555
H9 C16 1_555 1_555
C17 C16 1_555 1_555
C18 C17 1_555 1_555
H10 C18 1_555 1_555
C19 C18 1_555 1_555
H11 C19 1_555 1_555
C20 C7 1_555 1_555
C21 C22 1_555 1_555
C22 H12 1_555 1_555
C23 C22 1_555 1_555
C24 C23 1_555 1_555
H13 C24 1_555 1_555
C25 C24 1_555 1_555
H14 C25 1_555 1_555
C26 C21 1_555 1_555
C27 C26 1_555 1_555
H15 C27 1_555 1_555
C28 C27 1_555 1_555
C29 C28 1_555 1_555
H16 C29 1_555 1_555
C30 C29 1_555 1_555
H17 C30 1_555 1_555
C31 C30 1_555 1_555
C32 C31 1_555 1_555
H18 C32 1_555 1_555
C33 C28 1_555 1_555
C34 C21 1_555 1_555
H19 C34 1_555 1_555
C35 C34 1_555 1_555
C36 C35 1_555 1_555
H20 C36 1_555 1_555
C37 C36 1_555 1_555
C38 C37 1_555 1_555
H21 C38 1_555 1_555
C39 C38 1_555 1_555
H22 C39 1_555 1_555
C40 C27 1_555 1_555
C41 C42 1_555 1_555
C42 C43 1_555 1_555
C43 C44 1_555 1_555
C44 C45 1_555 1_555
C5 C6 1_555 1_555
C12 C13 1_555 1_555
C13 C14 1_555 1_555
C15 C20 1_555 1_555
C19 C20 1_555 1_555
C25 C26 1_555 1_555
C32 C33 1_555 1_555
C33 C34 1_555 1_555
C35 C40 1_555 1_555
C39 C40 1_555 1_555

#END
