
#######################################################################
#
#                 Cambridge Crystallographic Data Centre
#                                CCDC 
#
#######################################################################
#
# If this CIF has been generated from an entry in the Cambridge 
# Structural Database, then it will include bibliographic, chemical, 
# crystal, experimental, refinement or atomic coordinate data resulting 
# from the CCDC's data processing and validation procedures.
#
#######################################################################

data_VESCII
_chemical_formula_moiety         'C24 H26 N4 O5'
_chemical_name_systematic        
'di-isopropyl 1-{4-[(pyridine-2-carbonyl)amino]naphthalen-1-yl}hydrazine-1,2-dicarboxylate'
_symmetry_cell_setting           monoclinic
_symmetry_space_group_name_H-M   'P 21/c'
_symmetry_Int_Tables_number      14
_space_group_name_Hall           '-P 2ybc'
loop_
_symmetry_equiv_pos_site_id
_symmetry_equiv_pos_as_xyz
1 x,y,z
2 -x,1/2+y,1/2-z
3 -x,-y,-z
4 x,1/2-y,1/2+z
_cell_length_a                   8.2498(6)
_cell_length_b                   15.5404(6)
_cell_length_c                   20.2899(14)
_cell_angle_alpha                90
_cell_angle_beta                 116.758(9)
_cell_angle_gamma                90
_cell_volume                     2322.72
_exptl_crystal_colour            colorless
_exptl_crystal_description       prism
_cell_formula_units_Z            4
loop_
_atom_site_label
_atom_site_type_symbol
_atom_site_fract_x
_atom_site_fract_y
_atom_site_fract_z
C1 C 0.1540(5) 0.71252(16) 0.35536(17)
H1 H 0.1613 0.7157 0.3110
C2 C 0.0976(4) 0.78391(15) 0.37871(17)
H2 H 0.0661 0.8339 0.3505
C3 C 0.0886(5) 0.78036(17) 0.44291(19)
H3 H 0.0514 0.8281 0.4602
C4 C 0.1350(5) 0.70535(16) 0.48287(17)
H4 H 0.1301 0.7015 0.5277
C5 C 0.1888(3) 0.63595(13) 0.45551(12)
C6 C 0.2331(4) 0.55131(13) 0.49603(13)
C7 C 0.2988(3) 0.40062(12) 0.47391(12)
C8 C 0.3075(4) 0.36422(14) 0.53648(12)
H5 H 0.3023 0.3990 0.5728
C9 C 0.3241(4) 0.27480(13) 0.54664(12)
H6 H 0.3276 0.2510 0.5893
C10 C 0.3352(3) 0.22228(12) 0.49523(11)
C11 C 0.3324(2) 0.25709(12) 0.43025(11)
C12 C 0.3139(3) 0.34769(12) 0.41907(11)
C13 C 0.3115(3) 0.38145(14) 0.35380(13)
H7 H 0.3008 0.4406 0.3460
C14 C 0.3246(4) 0.32986(16) 0.30224(14)
H8 H 0.3216 0.3536 0.2597
C15 C 0.3425(4) 0.24038(16) 0.31365(15)
H9 H 0.3517 0.2050 0.2785
C16 C 0.3464(3) 0.20530(13) 0.37568(13)
H10 H 0.3586 0.1460 0.3824
C17 C 0.5029(3) 0.08774(12) 0.63143(11)
C18 C 0.6928(3) 0.05496(14) 0.75778(11)
H11 H 0.5781 0.0446 0.7600
C19 C 0.7642(5) 0.14123(19) 0.78966(16)
H12 H 0.8794 0.1505 0.7898
H13 H 0.7790 0.1439 0.8393
H14 H 0.6803 0.1849 0.7604
C20 C 0.8218(4) -0.0168(2) 0.79610(15)
H15 H 0.7707 -0.0703 0.7720
H16 H 0.8431 -0.0196 0.8466
H17 H 0.9346 -0.0067 0.7943
C21 C 0.2151(3) 0.07264(11) 0.47156(10)
C22 C -0.0933(3) 0.06030(13) 0.38159(12)
H18 H -0.0963 0.0084 0.4085
C23 C -0.2587(3) 0.11419(17) 0.36543(17)
H19 H -0.2622 0.1282 0.4108
H20 H -0.3659 0.0825 0.3342
H21 H -0.2534 0.1662 0.3410
C24 C -0.0755(4) 0.0352(2) 0.31449(15)
H22 H -0.0691 0.0860 0.2888
H23 H -0.1790 0.0016 0.2827
H24 H 0.0329 0.0018 0.3285
N1 N 0.1993(3) 0.63846(12) 0.39270(12)
N2 N 0.2719(3) 0.48903(11) 0.45941(10)
H25 H 0.2818 0.5061 0.4211
N3 N 0.3532(2) 0.13044(10) 0.50691(9)
N4 N 0.5078(2) 0.09992(11) 0.56600(9)
H26 H 0.6045 0.0889 0.5615
O1 O 0.2301(4) 0.54238(12) 0.55419(12)
O2 O 0.3763(2) 0.10625(10) 0.64334(8)
O3 O 0.6600(2) 0.05345(10) 0.68044(8)
O4 O 0.2344(2) -0.00477(8) 0.47898(8)
O5 O 0.06166(18) 0.11343(8) 0.42907(8)
loop_
_geom_bond_atom_site_label_1
_geom_bond_atom_site_label_2
_geom_bond_site_symmetry_1
_geom_bond_site_symmetry_2
C1 H1 1_555 1_555
C2 C1 1_555 1_555
H2 C2 1_555 1_555
C3 C2 1_555 1_555
H3 C3 1_555 1_555
C4 C3 1_555 1_555
H4 C4 1_555 1_555
C5 C4 1_555 1_555
C6 C5 1_555 1_555
C7 C8 1_555 1_555
C8 H5 1_555 1_555
C9 C8 1_555 1_555
H6 C9 1_555 1_555
C10 C9 1_555 1_555
C11 C10 1_555 1_555
C12 C7 1_555 1_555
C13 C12 1_555 1_555
H7 C13 1_555 1_555
C14 C13 1_555 1_555
H8 C14 1_555 1_555
C15 C14 1_555 1_555
H9 C15 1_555 1_555
C16 C11 1_555 1_555
H10 C16 1_555 1_555
C17 N4 1_555 1_555
C18 H11 1_555 1_555
C19 C18 1_555 1_555
H12 C19 1_555 1_555
H13 C19 1_555 1_555
H14 C19 1_555 1_555
C20 C18 1_555 1_555
H15 C20 1_555 1_555
H16 C20 1_555 1_555
H17 C20 1_555 1_555
C21 N3 1_555 1_555
C22 H18 1_555 1_555
C23 C22 1_555 1_555
H19 C23 1_555 1_555
H20 C23 1_555 1_555
H21 C23 1_555 1_555
C24 C22 1_555 1_555
H22 C24 1_555 1_555
H23 C24 1_555 1_555
H24 C24 1_555 1_555
N1 C1 1_555 1_555
N2 C6 1_555 1_555
H25 N2 1_555 1_555
N3 C10 1_555 1_555
N4 N3 1_555 1_555
H26 N4 1_555 1_555
O1 C6 1_555 1_555
O2 C17 1_555 1_555
O3 C17 1_555 1_555
O4 C21 1_555 1_555
O5 C21 1_555 1_555
C5 N1 1_555 1_555
C7 N2 1_555 1_555
C11 C12 1_555 1_555
C15 C16 1_555 1_555
C18 O3 1_555 1_555
C22 O5 1_555 1_555

#END
