
#######################################################################
#
#                 Cambridge Crystallographic Data Centre
#                                CCDC 
#
#######################################################################
#
# If this CIF has been generated from an entry in the Cambridge 
# Structural Database, then it will include bibliographic, chemical, 
# crystal, experimental, refinement or atomic coordinate data resulting 
# from the CCDC's data processing and validation procedures.
#
#######################################################################

data_VESCOO
_chemical_formula_moiety         'C24 H26 N4 O5'
_chemical_name_systematic        
'di-isopropyl 1-{2-[(pyridine-2-carbonyl)amino]naphthalen-1-yl}hydrazine-1,2-dicarboxylate'
_symmetry_cell_setting           triclinic
_symmetry_space_group_name_H-M   'P 1'
_symmetry_Int_Tables_number      1
_space_group_name_Hall           'P 1'
loop_
_symmetry_equiv_pos_site_id
_symmetry_equiv_pos_as_xyz
1 x,y,z
_cell_length_a                   8.6633(5)
_cell_length_b                   8.7253(6)
_cell_length_c                   16.3406(11)
_cell_angle_alpha                77.682(6)
_cell_angle_beta                 80.372(5)
_cell_angle_gamma                86.728(5)
_cell_volume                     1189.46
_exptl_crystal_colour            colorless
_exptl_crystal_description       prism
_cell_formula_units_Z            2
loop_
_atom_site_label
_atom_site_type_symbol
_atom_site_fract_x
_atom_site_fract_y
_atom_site_fract_z
C1 C 0.8137(4) 0.4578(4) 0.7924(2)
C2 C 0.6567(4) 0.4879(4) 0.8155(2)
C3 C 0.5734(4) 0.5847(4) 0.7558(3)
H1 H 0.4676 0.6070 0.7714
C4 C 0.6464(5) 0.6457(5) 0.6757(3)
H2 H 0.5900 0.7104 0.6377
C5 C 0.8071(5) 0.6120(4) 0.6495(2)
C6 C 0.8911(4) 0.5148(4) 0.7085(2)
C7 C 1.0488(5) 0.4746(5) 0.6813(3)
H3 H 1.1050 0.4078 0.7186
C8 C 1.1189(6) 0.5340(6) 0.6001(3)
H4 H 1.2225 0.5063 0.5825
C9 C 1.0376(6) 0.6348(7) 0.5437(3)
H5 H 1.0885 0.6771 0.4894
C10 C 0.8849(6) 0.6725(6) 0.5665(3)
H6 H 0.8311 0.7382 0.5276
C11 C 0.8966(4) 0.2097(5) 0.8835(3)
C12 C 0.7884(6) -0.0225(5) 0.8631(4)
H7 H 0.8806 -0.0708 0.8868
C13 C 0.7860(9) -0.0680(7) 0.7800(5)
H8 H 0.6932 -0.0249 0.7580
H9 H 0.7865 -0.1803 0.7882
H10 H 0.8768 -0.0281 0.7406
C14 C 0.6464(10) -0.0647(8) 0.9264(5)
H11 H 0.6567 -0.0324 0.9778
H12 H 0.6337 -0.1762 0.9380
H13 H 0.5566 -0.0129 0.9046
C15 C 0.9564(5) 0.5180(5) 0.9507(2)
C16 C 1.0477(5) 0.6516(5) 1.0459(3)
H14 H 0.9404 0.6946 1.0522
C17 C 1.1607(7) 0.7828(7) 1.0292(4)
H15 H 1.2651 0.7436 1.0143
H16 H 1.1545 0.8252 1.0793
H17 H 1.1347 0.8636 0.9834
C18 C 1.0669(8) 0.5283(7) 1.1223(3)
H18 H 0.9944 0.4459 1.1281
H19 H 1.0466 0.5734 1.1718
H20 H 1.1719 0.4860 1.1162
C19 C 0.4380(4) 0.3640(5) 0.9176(2)
C20 C 0.3917(4) 0.2865(4) 1.0094(2)
C21 C 0.2532(5) 0.2068(5) 1.0348(3)
H21 H 0.1878 0.2002 0.9960
C22 C 0.2146(6) 0.1371(5) 1.1193(3)
H22 H 0.1214 0.0835 1.1387
C23 C 0.3140(6) 0.1473(5) 1.1743(3)
H23 H 0.2895 0.1015 1.2316
C24 C 0.4504(6) 0.2264(6) 1.1435(3)
H24 H 0.5186 0.2316 1.1812
N1 N 0.9020(3) 0.3688(3) 0.85448(18)
N2 N 1.0084(3) 0.4503(4) 0.88259(19)
H25 H 1.1042 0.4580 0.8579
N3 N 0.4910(4) 0.2968(4) 1.0619(2)
N4 N 0.5803(4) 0.4278(4) 0.8984(2)
H26 H 0.641(5) 0.411(5) 0.938(3)
O1 O 0.9710(4) 0.1389(4) 0.9361(2)
O2 O 0.8019(3) 0.1475(3) 0.84383(19)
O3 O 0.8220(3) 0.5242(4) 0.98386(19)
O4 O 1.0773(3) 0.5819(3) 0.97104(18)
O5 O 0.3496(3) 0.3644(4) 0.86575(17)
C25 C 0.4183(4) 0.1235(4) 0.5339(2)
C26 C 0.4783(4) 0.2715(4) 0.5205(2)
C27 C 0.4984(5) 0.3346(5) 0.5902(3)
H27 H 0.5458 0.4310 0.5813
C28 C 0.4488(5) 0.2550(5) 0.6708(3)
H28 H 0.4641 0.2978 0.7162
C29 C 0.3752(5) 0.1098(5) 0.6870(2)
C30 C 0.3630(4) 0.0392(4) 0.6179(2)
C31 C 0.2888(5) -0.1067(5) 0.6344(3)
H29 H 0.2813 -0.1548 0.5896
C32 C 0.2282(6) -0.1778(6) 0.7150(3)
H30 H 0.1790 -0.2735 0.7248
C33 C 0.2392(6) -0.1080(6) 0.7836(3)
H31 H 0.1967 -0.1569 0.8384
C34 C 0.3123(6) 0.0316(6) 0.7698(3)
H32 H 0.3209 0.0761 0.8157
C35 C 0.2660(4) 0.0603(4) 0.4316(2)
C36 C 0.0088(6) 0.1778(7) 0.4406(4)
H33 H -0.0114 0.0868 0.4180
C37 C -0.0994(7) 0.1760(13) 0.5229(5)
H34 H -0.0690 0.0914 0.5657
H35 H -0.2048 0.1615 0.5155
H36 H -0.0934 0.2737 0.5401
C38 C -0.0026(10) 0.3191(10) 0.3765(6)
H37 H 0.0312 0.4069 0.3952
H38 H -0.1093 0.3367 0.3672
H39 H 0.0627 0.3075 0.3245
C39 C 0.6294(5) -0.0060(5) 0.3745(3)
C40 C 0.8524(5) -0.0908(6) 0.2870(3)
H40 H 0.8982 0.0081 0.2893
C41 C 0.9675(6) -0.2214(8) 0.3040(4)
H41 H 1.0082 -0.2173 0.3547
H42 H 1.0518 -0.2119 0.2571
H43 H 0.9171 -0.3197 0.3114
C42 C 0.7983(6) -0.0765(8) 0.2042(3)
H44 H 0.7483 -0.1714 0.2034
H45 H 0.8865 -0.0589 0.1594
H46 H 0.7251 0.0102 0.1963
C43 C 0.4895(4) 0.5134(4) 0.4113(3)
C44 C 0.5120(4) 0.5687(4) 0.3163(2)
C45 C 0.4269(5) 0.6969(5) 0.2812(3)
H47 H 0.3620 0.7548 0.3153
C46 C 0.4411(7) 0.7372(6) 0.1933(3)
H48 H 0.3840 0.8216 0.1670
C47 C 0.5411(7) 0.6498(6) 0.1462(3)
H49 H 0.5524 0.6736 0.0873
C48 C 0.6243(6) 0.5268(6) 0.1868(3)
H50 H 0.6939 0.4705 0.1539
N5 N 0.4025(3) 0.0537(3) 0.46377(19)
N6 N 0.5155(4) -0.0571(4) 0.4416(2)
H51 H 0.5133 -0.1530 0.4690
N7 N 0.6107(4) 0.4837(4) 0.2712(2)
N8 N 0.5179(4) 0.3586(4) 0.4369(2)
H52 H 0.542(6) 0.303(6) 0.398(3)
O6 O 0.2424(3) -0.0152(3) 0.38089(17)
O7 O 0.1664(3) 0.1617(3) 0.46344(19)
O8 O 0.6516(4) 0.1290(3) 0.3402(2)
O9 O 0.7194(3) -0.1280(3) 0.35644(18)
O10 O 0.4425(4) 0.6033(3) 0.45910(19)
loop_
_geom_bond_atom_site_label_1
_geom_bond_atom_site_label_2
_geom_bond_site_symmetry_1
_geom_bond_site_symmetry_2
C1 C2 1_555 1_555
C2 C3 1_555 1_555
C3 H1 1_555 1_555
C4 C3 1_555 1_555
H2 C4 1_555 1_555
C5 C4 1_555 1_555
C6 C1 1_555 1_555
C7 C6 1_555 1_555
H3 C7 1_555 1_555
C8 C7 1_555 1_555
H4 C8 1_555 1_555
C9 C8 1_555 1_555
H5 C9 1_555 1_555
C10 C5 1_555 1_555
H6 C10 1_555 1_555
C11 N1 1_555 1_555
C12 H7 1_555 1_555
C13 C12 1_555 1_555
H8 C13 1_555 1_555
H9 C13 1_555 1_555
H10 C13 1_555 1_555
C14 C12 1_555 1_555
H11 C14 1_555 1_555
H12 C14 1_555 1_555
H13 C14 1_555 1_555
C15 N2 1_555 1_555
C16 H14 1_555 1_555
C17 C16 1_555 1_555
H15 C17 1_555 1_555
H16 C17 1_555 1_555
H17 C17 1_555 1_555
C18 C16 1_555 1_555
H18 C18 1_555 1_555
H19 C18 1_555 1_555
H20 C18 1_555 1_555
C19 C20 1_555 1_555
C20 C21 1_555 1_555
C21 H21 1_555 1_555
C22 C21 1_555 1_555
H22 C22 1_555 1_555
C23 C22 1_555 1_555
H23 C23 1_555 1_555
C24 C23 1_555 1_555
H24 C24 1_555 1_555
N1 C1 1_555 1_555
N2 N1 1_555 1_555
H25 N2 1_555 1_555
N3 C20 1_555 1_555
N4 C2 1_555 1_555
H26 N4 1_555 1_555
O1 C11 1_555 1_555
O2 C11 1_555 1_555
O3 C15 1_555 1_555
O4 C15 1_555 1_555
O5 C19 1_555 1_555
C25 C26 1_555 1_555
C26 C27 1_555 1_555
C27 H27 1_555 1_555
C28 C27 1_555 1_555
H28 C28 1_555 1_555
C29 C28 1_555 1_555
C30 C25 1_555 1_555
C31 C30 1_555 1_555
H29 C31 1_555 1_555
C32 C31 1_555 1_555
H30 C32 1_555 1_555
C33 C32 1_555 1_555
H31 C33 1_555 1_555
C34 C29 1_555 1_555
H32 C34 1_555 1_555
C35 N5 1_555 1_555
C36 H33 1_555 1_555
C37 C36 1_555 1_555
H34 C37 1_555 1_555
H35 C37 1_555 1_555
H36 C37 1_555 1_555
C38 C36 1_555 1_555
H37 C38 1_555 1_555
H38 C38 1_555 1_555
H39 C38 1_555 1_555
C39 N6 1_555 1_555
C40 H40 1_555 1_555
C41 C40 1_555 1_555
H41 C41 1_555 1_555
H42 C41 1_555 1_555
H43 C41 1_555 1_555
C42 C40 1_555 1_555
H44 C42 1_555 1_555
H45 C42 1_555 1_555
H46 C42 1_555 1_555
C43 C44 1_555 1_555
C44 C45 1_555 1_555
C45 H47 1_555 1_555
C46 C45 1_555 1_555
H48 C46 1_555 1_555
C47 C46 1_555 1_555
H49 C47 1_555 1_555
C48 C47 1_555 1_555
H50 C48 1_555 1_555
N5 C25 1_555 1_555
N6 N5 1_555 1_555
H51 N6 1_555 1_555
N7 C44 1_555 1_555
N8 C26 1_555 1_555
H52 N8 1_555 1_555
O6 C35 1_555 1_555
O7 C35 1_555 1_555
O8 C39 1_555 1_555
O9 C39 1_555 1_555
O10 C43 1_555 1_555
C5 C6 1_555 1_555
C9 C10 1_555 1_555
C12 O2 1_555 1_555
C16 O4 1_555 1_555
C19 N4 1_555 1_555
C24 N3 1_555 1_555
C29 C30 1_555 1_555
C33 C34 1_555 1_555
C36 O7 1_555 1_555
C40 O9 1_555 1_555
C43 N8 1_555 1_555
C48 N7 1_555 1_555

#END
