
#######################################################################
#
#                 Cambridge Crystallographic Data Centre
#                                CCDC 
#
#######################################################################
#
# If this CIF has been generated from an entry in the Cambridge 
# Structural Database, then it will include bibliographic, chemical, 
# crystal, experimental, refinement or atomic coordinate data resulting 
# from the CCDC's data processing and validation procedures.
#
#######################################################################

data_VESPIU
_chemical_formula_moiety         'C21 H21 N1 O4'
_chemical_name_systematic        
'Dimethyl 2-(10-methylphenanthridin-6-yl)pentanedioate'
_symmetry_cell_setting           monoclinic
_symmetry_space_group_name_H-M   'P 21/c'
_symmetry_Int_Tables_number      14
_space_group_name_Hall           '-P 2ybc'
loop_
_symmetry_equiv_pos_site_id
_symmetry_equiv_pos_as_xyz
1 x,y,z
2 -x,1/2+y,1/2-z
3 -x,-y,-z
4 x,1/2-y,1/2+z
_cell_length_a                   9.4611(6)
_cell_length_b                   8.6119(6)
_cell_length_c                   24.2419(16)
_cell_angle_alpha                90
_cell_angle_beta                 112.389(5)
_cell_angle_gamma                90
_cell_volume                     1826.29
_exptl_crystal_colour            yellow
_exptl_crystal_description       block
_cell_formula_units_Z            4
loop_
_atom_site_label
_atom_site_type_symbol
_atom_site_fract_x
_atom_site_fract_y
_atom_site_fract_z
O1 O 0.12920(18) 0.55824(17) 0.78301(6)
O2 O 0.25661(15) 0.62718(14) 0.87757(6)
O3 O 0.43644(17) 0.10680(18) 0.84651(7)
O4 O 0.46059(17) 0.1956(2) 0.76447(6)
N1 N -0.02247(14) 0.43125(16) 0.87934(6)
C1 C 0.0352(2) 0.1428(2) 1.08286(9)
H1 H 0.0162 0.2441 1.0951
H2 H 0.0996 0.0853 1.1171
H3 H -0.0600 0.0890 1.0640
C2 C 0.1135(2) 0.15877(19) 1.03941(7)
C3 C 0.2500(2) 0.0811(2) 1.05404(8)
H4 H 0.2850 0.0221 1.0888
C4 C 0.3375(2) 0.0863(2) 1.01972(8)
H5 H 0.4280 0.0299 1.0310
C5 C 0.29057(19) 0.1744(2) 0.96929(8)
H6 H 0.3500 0.1796 0.9464
C6 C 0.15240(17) 0.25757(17) 0.95176(7)
C7 C 0.05863(17) 0.24863(17) 0.98573(7)
C8 C -0.08659(17) 0.33231(18) 0.96210(7)
C9 C -0.1992(2) 0.3329(2) 0.98681(9)
H7 H -0.1824 0.2762 1.0214
C10 C -0.3325(2) 0.4142(2) 0.96161(10)
H8 H -0.4040 0.4119 0.9794
C11 C -0.3626(2) 0.4994(2) 0.91030(10)
H9 H -0.4538 0.5542 0.8934
C12 C -0.25748(19) 0.5023(2) 0.88476(9)
H10 H -0.2771 0.5599 0.8502
C13 C -0.11978(17) 0.42002(19) 0.90970(7)
C14 C 0.10433(17) 0.35361(17) 0.89922(7)
C15 C 0.19707(17) 0.36317(18) 0.85995(7)
H11 H 0.3043 0.3404 0.8843
C16 C 0.18662(19) 0.5246(2) 0.83460(8)
C17 C 0.2594(3) 0.7863(2) 0.85887(13)
H12 H 0.2974 0.8523 0.8933
H13 H 0.1578 0.8180 0.8339
H14 H 0.3249 0.7942 0.8369
C18 C 0.1368(2) 0.2395(2) 0.81118(8)
H15 H 0.1395 0.1398 0.8302
H16 H 0.0307 0.2627 0.7873
C19 C 0.2222(2) 0.2241(3) 0.76967(8)
H17 H 0.1667 0.1527 0.7378
H18 H 0.2232 0.3245 0.7517
C20 C 0.3822(2) 0.1685(2) 0.79885(9)
C21 C 0.6169(3) 0.1396(4) 0.78684(13)
H19 H 0.6724 0.1841 0.8254
H20 H 0.6645 0.1691 0.7598
H21 H 0.6173 0.0285 0.7902
loop_
_geom_bond_atom_site_label_1
_geom_bond_atom_site_label_2
_geom_bond_site_symmetry_1
_geom_bond_site_symmetry_2
O1 C16 1_555 1_555
O2 C16 1_555 1_555
O3 C20 1_555 1_555
O4 C20 1_555 1_555
N1 C13 1_555 1_555
C1 H1 1_555 1_555
H2 C1 1_555 1_555
H3 C1 1_555 1_555
C2 C1 1_555 1_555
C3 C2 1_555 1_555
H4 C3 1_555 1_555
C4 C3 1_555 1_555
H5 C4 1_555 1_555
C5 C4 1_555 1_555
H6 C5 1_555 1_555
C6 C5 1_555 1_555
C7 C2 1_555 1_555
C8 C7 1_555 1_555
C9 C8 1_555 1_555
H7 C9 1_555 1_555
C10 C9 1_555 1_555
H8 C10 1_555 1_555
C11 C10 1_555 1_555
H9 C11 1_555 1_555
C12 C11 1_555 1_555
H10 C12 1_555 1_555
C13 C8 1_555 1_555
C14 N1 1_555 1_555
C15 C14 1_555 1_555
H11 C15 1_555 1_555
C16 C15 1_555 1_555
C17 O2 1_555 1_555
H12 C17 1_555 1_555
H13 C17 1_555 1_555
H14 C17 1_555 1_555
C18 C15 1_555 1_555
H15 C18 1_555 1_555
H16 C18 1_555 1_555
C19 C18 1_555 1_555
H17 C19 1_555 1_555
H18 C19 1_555 1_555
C20 C19 1_555 1_555
C21 O4 1_555 1_555
H19 C21 1_555 1_555
H20 C21 1_555 1_555
H21 C21 1_555 1_555
C6 C7 1_555 1_555
C6 C14 1_555 1_555
C12 C13 1_555 1_555

#END
