
#######################################################################
#
#                 Cambridge Crystallographic Data Centre
#                                CCDC 
#
#######################################################################
#
# If this CIF has been generated from an entry in the Cambridge 
# Structural Database, then it will include bibliographic, chemical, 
# crystal, experimental, refinement or atomic coordinate data resulting 
# from the CCDC's data processing and validation procedures.
#
#######################################################################

data_VESPUG
_chemical_formula_moiety         'C22 H21 N1'
_chemical_name_systematic        
6,9-Dimethyl-6-phenyl-6,7-dihydro-5H-dibenzo[b,d]azepine
_symmetry_cell_setting           monoclinic
_symmetry_space_group_name_H-M   'P 21/c'
_symmetry_Int_Tables_number      14
_space_group_name_Hall           '-P 2ybc'
loop_
_symmetry_equiv_pos_site_id
_symmetry_equiv_pos_as_xyz
1 x,y,z
2 -x,1/2+y,1/2-z
3 -x,-y,-z
4 x,1/2-y,1/2+z
_cell_length_a                   10.3615(6)
_cell_length_b                   24.3613(16)
_cell_length_c                   6.5621(4)
_cell_angle_alpha                90
_cell_angle_beta                 92.732(6)
_cell_angle_gamma                90
_cell_volume                     1654.52
_exptl_crystal_colour            colorless
_exptl_crystal_description       block
_cell_formula_units_Z            4
loop_
_atom_site_label
_atom_site_type_symbol
_atom_site_fract_x
_atom_site_fract_y
_atom_site_fract_z
N1 N 0.08531(19) 0.42260(7) 0.4557(3)
H1 H 0.0906 0.4523 0.3860
C1 C 0.0408(2) 0.37381(9) 0.3576(3)
C2 C -0.0854(2) 0.37102(11) 0.2781(4)
H2 H -0.1424 0.3994 0.3038
C3 C -0.1279(3) 0.32719(13) 0.1623(4)
H3 H -0.2130 0.3261 0.1108
C4 C -0.0451(3) 0.28479(12) 0.1217(4)
H4 H -0.0733 0.2553 0.0412
C5 C 0.0801(2) 0.28659(10) 0.2020(3)
H5 H 0.1358 0.2578 0.1755
C6 C 0.1258(2) 0.33044(9) 0.3220(3)
C7 C 0.2613(2) 0.33052(9) 0.4066(3)
C8 C 0.3620(2) 0.31002(10) 0.2936(4)
H6 H 0.3443 0.2970 0.1620
C9 C 0.4872(2) 0.30890(11) 0.3754(5)
H7 H 0.5524 0.2952 0.2971
C10 C 0.5178(2) 0.32745(11) 0.5693(5)
C11 C 0.4183(2) 0.34754(9) 0.6811(4)
H8 H 0.4373 0.3605 0.8123
C12 C 0.2907(2) 0.34906(9) 0.6045(3)
C13 C 0.6550(3) 0.32590(14) 0.6585(6)
H9 H 0.6913 0.3622 0.6566
H10 H 0.7057 0.3017 0.5791
H11 H 0.6552 0.3129 0.7966
C14 C 0.1843(2) 0.36759(9) 0.7365(3)
H12 H 0.2185 0.3700 0.8764
H13 H 0.1171 0.3398 0.7320
C15 C 0.1228(2) 0.42315(9) 0.6763(3)
C16 C 0.0008(2) 0.43074(11) 0.7968(4)
H14 H -0.0352 0.4664 0.7690
H15 H 0.0227 0.4274 0.9401
H16 H -0.0614 0.4031 0.7567
C17 C 0.2196(2) 0.46951(9) 0.7206(3)
C18 C 0.2864(2) 0.49434(10) 0.5682(4)
H17 H 0.2710 0.4832 0.4336
C19 C 0.3758(2) 0.53548(11) 0.6123(5)
H18 H 0.4191 0.5519 0.5074
C20 C 0.4006(3) 0.55203(12) 0.8105(5)
H19 H 0.4607 0.5796 0.8405
C21 C 0.3361(3) 0.52765(13) 0.9627(5)
H20 H 0.3522 0.5388 1.0970
C22 C 0.2471(3) 0.48658(11) 0.9192(4)
H21 H 0.2049 0.4701 1.0252
loop_
_geom_bond_atom_site_label_1
_geom_bond_atom_site_label_2
_geom_bond_site_symmetry_1
_geom_bond_site_symmetry_2
N1 H1 1_555 1_555
C1 N1 1_555 1_555
C2 C1 1_555 1_555
H2 C2 1_555 1_555
C3 C2 1_555 1_555
H3 C3 1_555 1_555
C4 C3 1_555 1_555
H4 C4 1_555 1_555
C5 C4 1_555 1_555
H5 C5 1_555 1_555
C6 C1 1_555 1_555
C7 C6 1_555 1_555
C8 C7 1_555 1_555
H6 C8 1_555 1_555
C9 C8 1_555 1_555
H7 C9 1_555 1_555
C10 C9 1_555 1_555
C11 C10 1_555 1_555
H8 C11 1_555 1_555
C12 C7 1_555 1_555
C13 C10 1_555 1_555
H9 C13 1_555 1_555
H10 C13 1_555 1_555
H11 C13 1_555 1_555
C14 C12 1_555 1_555
H12 C14 1_555 1_555
H13 C14 1_555 1_555
C15 N1 1_555 1_555
C16 C15 1_555 1_555
H14 C16 1_555 1_555
H15 C16 1_555 1_555
H16 C16 1_555 1_555
C17 C15 1_555 1_555
C18 C17 1_555 1_555
H17 C18 1_555 1_555
C19 C18 1_555 1_555
H18 C19 1_555 1_555
C20 C19 1_555 1_555
H19 C20 1_555 1_555
C21 C20 1_555 1_555
H20 C21 1_555 1_555
C22 C17 1_555 1_555
H21 C22 1_555 1_555
C5 C6 1_555 1_555
C11 C12 1_555 1_555
C14 C15 1_555 1_555
C21 C22 1_555 1_555

#END
