
#######################################################################
#
#                 Cambridge Crystallographic Data Centre
#                                CCDC 
#
#######################################################################
#
# If this CIF has been generated from an entry in the Cambridge 
# Structural Database, then it will include bibliographic, chemical, 
# crystal, experimental, refinement or atomic coordinate data resulting 
# from the CCDC's data processing and validation procedures.
#
#######################################################################

data_VESSOE
_chemical_formula_moiety         'C45 H30 O3'
_chemical_name_systematic        3,5,6-triphenyl-1,2,4-tris(benzoyl)benzene
_symmetry_cell_setting           triclinic
_symmetry_space_group_name_H-M   'P -1'
_symmetry_Int_Tables_number      2
_space_group_name_Hall           '-P 1'
loop_
_symmetry_equiv_pos_site_id
_symmetry_equiv_pos_as_xyz
1 x,y,z
2 -x,-y,-z
_cell_length_a                   6.5834(4)
_cell_length_b                   12.5710(8)
_cell_length_c                   20.2038(13)
_cell_angle_alpha                97.333(2)
_cell_angle_beta                 94.773(2)
_cell_angle_gamma                102.775(2)
_cell_volume                     1606.57
_exptl_crystal_colour            colorless
_exptl_crystal_description       block
_cell_formula_units_Z            2
loop_
_atom_site_label
_atom_site_type_symbol
_atom_site_fract_x
_atom_site_fract_y
_atom_site_fract_z
O1 O 0.1987(2) 0.96327(12) 0.17269(7)
O2 O 0.8117(2) 0.60451(13) 0.31418(8)
C1 C 0.4367(3) 0.85758(14) 0.20672(8)
C2 C 0.3710(3) 0.94325(15) 0.16869(9)
C3 C 0.5195(3) 1.00006(14) 0.12572(9)
O3 O 1.0381(2) 0.86124(14) 0.32596(7)
C4 C 0.6721(3) 0.81188(15) 0.29090(9)
C5 C 0.4822(3) 0.55969(15) 0.35562(9)
C6 C 0.2991(3) 0.59312(17) 0.36901(9)
H1 H 0.2649 0.6529 0.3497
C7 C 0.6915(3) 1.01272(15) 0.28099(8)
C8 C 0.4048(3) 0.66608(15) 0.22073(9)
C9 C 0.3379(3) 0.74599(15) 0.18709(9)
C10 C 0.6336(3) 0.61815(15) 0.31400(9)
C11 C 0.6030(3) 0.89211(15) 0.25873(9)
C12 C 0.5678(3) 0.70082(15) 0.27366(9)
C13 C 0.3142(3) 0.54548(15) 0.19971(9)
C14 C 0.1029(3) 0.49771(16) 0.20159(10)
H2 H 0.0112 0.5426 0.2156
C15 C 0.7046(3) 0.96871(16) 0.11326(9)
H3 H 0.7419 0.9110 0.1340
C16 C 0.8994(3) 1.06424(16) 0.27586(9)
H4 H 0.9932 1.0215 0.2605
C17 C 0.1616(3) 0.71157(15) 0.13085(9)
C18 C 0.8624(3) 0.84378(16) 0.34351(9)
C19 C 0.6368(3) 0.86498(15) 0.43661(9)
H5 H 0.5230 0.8657 0.4046
C20 C 0.9691(3) 1.17781(17) 0.29321(10)
H6 H 1.1106 1.2125 0.2896
C21 C 0.5568(3) 1.07687(16) 0.30461(10)
H7 H 0.4157 1.0427 0.3089
C22 C 0.7815(3) 1.10579(17) 0.04047(10)
H8 H 0.8701 1.1413 0.0111
C23 C 0.4457(3) 0.47773(16) 0.17891(10)
H9 H 0.5899 0.5092 0.1771
C24 C 0.5991(3) 1.13827(16) 0.05314(10)
H10 H 0.5636 1.1969 0.0328
C25 C 0.8345(3) 1.02113(17) 0.07084(10)
H11 H 0.9602 0.9991 0.0625
C26 C 0.6284(3) 1.19034(17) 0.32177(11)
H12 H 0.5358 1.2334 0.3377
C27 C 0.4686(3) 1.08615(15) 0.09504(10)
H13 H 0.3433 1.1087 0.1032
C28 C 0.0262(3) 0.38503(18) 0.18307(11)
H14 H -0.1182 0.3532 0.1843
C29 C 0.7793(3) 0.87564(17) 0.55136(10)
H15 H 0.7632 0.8845 0.5979
C30 C 0.2148(4) 0.4513(2) 0.43795(11)
H16 H 0.1233 0.4142 0.4660
C31 C 0.1673(3) 0.5390(2) 0.41046(10)
H17 H 0.0437 0.5624 0.4200
C32 C 0.5291(3) 0.47131(16) 0.38421(10)
H18 H 0.6538 0.4483 0.3757
C33 C 0.3956(4) 0.41706(18) 0.42475(11)
H19 H 0.4275 0.3564 0.4436
C34 C 0.8273(3) 0.85089(14) 0.41541(9)
C35 C 0.9678(3) 0.86042(17) 0.53024(10)
H20 H 1.0802 0.8584 0.5624
C36 C 0.3678(4) 0.36506(18) 0.16082(11)
H21 H 0.4591 0.3198 0.1470
C37 C 0.9921(3) 0.84832(16) 0.46294(10)
H22 H 1.1214 0.8382 0.4487
C38 C -0.0376(3) 0.7229(2) 0.14273(12)
H23 H -0.0608 0.7535 0.1862
C39 C 0.1587(4) 0.31829(18) 0.16279(11)
H24 H 0.1056 0.2410 0.1504
C40 C 0.8332(4) 1.24102(17) 0.31583(11)
H25 H 0.8810 1.3188 0.3272
C41 C 0.6154(3) 0.87787(17) 0.50463(10)
H26 H 0.4868 0.8883 0.5192
C42 C 0.1914(3) 0.66779(17) 0.06725(10)
H27 H 0.3267 0.6591 0.0583
C43 C 0.0247(4) 0.63607(18) 0.01578(10)
H28 H 0.0473 0.6066 -0.0280
C44 C -0.1721(4) 0.64754(19) 0.02855(12)
H29 H -0.2860 0.6261 -0.0062
C45 C -0.2024(4) 0.6903(2) 0.09212(13)
H30 H -0.3383 0.6975 0.1013
loop_
_geom_bond_atom_site_label_1
_geom_bond_atom_site_label_2
_geom_bond_site_symmetry_1
_geom_bond_site_symmetry_2
O1 C2 1_555 1_555
O2 C10 1_555 1_555
C1 C2 1_555 1_555
C2 C3 1_555 1_555
C3 C15 1_555 1_555
O3 C18 1_555 1_555
C4 C11 1_555 1_555
C5 C6 1_555 1_555
C6 H1 1_555 1_555
C7 C11 1_555 1_555
C8 C9 1_555 1_555
C9 C1 1_555 1_555
C10 C5 1_555 1_555
C11 C1 1_555 1_555
C12 C4 1_555 1_555
C13 C8 1_555 1_555
C14 C13 1_555 1_555
H2 C14 1_555 1_555
C15 H3 1_555 1_555
C16 C7 1_555 1_555
H4 C16 1_555 1_555
C17 C9 1_555 1_555
C18 C4 1_555 1_555
C19 H5 1_555 1_555
C20 C16 1_555 1_555
H6 C20 1_555 1_555
C21 C7 1_555 1_555
H7 C21 1_555 1_555
C22 H8 1_555 1_555
C23 C13 1_555 1_555
H9 C23 1_555 1_555
C24 C22 1_555 1_555
H10 C24 1_555 1_555
C25 C15 1_555 1_555
H11 C25 1_555 1_555
C26 C21 1_555 1_555
H12 C26 1_555 1_555
C27 C3 1_555 1_555
H13 C27 1_555 1_555
C28 C14 1_555 1_555
H14 C28 1_555 1_555
C29 H15 1_555 1_555
C30 H16 1_555 1_555
C31 C6 1_555 1_555
H17 C31 1_555 1_555
C32 C5 1_555 1_555
H18 C32 1_555 1_555
C33 C30 1_555 1_555
H19 C33 1_555 1_555
C34 C18 1_555 1_555
C35 C29 1_555 1_555
H20 C35 1_555 1_555
C36 C23 1_555 1_555
H21 C36 1_555 1_555
C37 C34 1_555 1_555
H22 C37 1_555 1_555
C38 C17 1_555 1_555
H23 C38 1_555 1_555
C39 C28 1_555 1_555
H24 C39 1_555 1_555
C40 C20 1_555 1_555
H25 C40 1_555 1_555
C41 C19 1_555 1_555
H26 C41 1_555 1_555
C42 C17 1_555 1_555
H27 C42 1_555 1_555
C43 C42 1_555 1_555
H28 C43 1_555 1_555
C44 C43 1_555 1_555
H29 C44 1_555 1_555
C45 C38 1_555 1_555
H30 C45 1_555 1_555
C8 C12 1_555 1_555
C10 C12 1_555 1_555
C19 C34 1_555 1_555
C22 C25 1_555 1_555
C24 C27 1_555 1_555
C26 C40 1_555 1_555
C29 C41 1_555 1_555
C30 C31 1_555 1_555
C32 C33 1_555 1_555
C35 C37 1_555 1_555
C36 C39 1_555 1_555
C44 C45 1_555 1_555

#END
