
#######################################################################
#
#                 Cambridge Crystallographic Data Centre
#                                CCDC 
#
#######################################################################
#
# If this CIF has been generated from an entry in the Cambridge 
# Structural Database, then it will include bibliographic, chemical, 
# crystal, experimental, refinement or atomic coordinate data resulting 
# from the CCDC's data processing and validation procedures.
#
#######################################################################

data_VETNOA
_chemical_formula_moiety         'C9 H9 N1 O3'
_chemical_name_systematic        '2-(methylcarbamoyl)benzoic acid'
_symmetry_cell_setting           monoclinic
_symmetry_space_group_name_H-M   'P 21/c'
_symmetry_Int_Tables_number      14
_space_group_name_Hall           '-P 2ybc'
loop_
_symmetry_equiv_pos_site_id
_symmetry_equiv_pos_as_xyz
1 x,y,z
2 -x,1/2+y,1/2-z
3 -x,-y,-z
4 x,1/2-y,1/2+z
_cell_length_a                   8.7201(8)
_cell_length_b                   8.6453(9)
_cell_length_c                   11.8083(9)
_cell_angle_alpha                90
_cell_angle_beta                 100.830(3)
_cell_angle_gamma                90
_cell_volume                     874.347
_exptl_crystal_colour            colorless
_exptl_crystal_description       block
_cell_formula_units_Z            4
loop_
_atom_site_label
_atom_site_type_symbol
_atom_site_fract_x
_atom_site_fract_y
_atom_site_fract_z
C1 C 0.7659(2) 0.9801(2) 0.65405(17)
C2 C 0.7244(2) 0.9605(2) 0.76231(17)
C3 C 0.8129(3) 0.8626(3) 0.84236(19)
H1 H 0.7840 0.8476 0.9152
C4 C 0.9419(3) 0.7869(3) 0.81791(19)
H2 H 1.0025 0.7225 0.8745
C5 C 0.9830(3) 0.8044(3) 0.71166(19)
H3 H 1.0710 0.7511 0.6943
C6 C 0.8954(2) 0.9003(3) 0.63019(19)
H4 H 0.9238 0.9119 0.5569
C7 C 0.6744(2) 1.0860(2) 0.56710(17)
C8 C 0.5960(2) 1.0504(2) 0.80081(16)
C9 C 0.3470(3) 1.0341(3) 0.8655(2)
H5 H 0.3798 1.1326 0.9036
H6 H 0.3171 0.9621 0.9217
H7 H 0.2576 1.0516 0.8030
N1 N 0.4755(2) 0.9687(2) 0.81858(15)
H8 H 0.467(3) 0.871(3) 0.7987(19)
O1 O 0.74698(18) 1.1135(2) 0.47935(13)
H9 H 0.692(3) 1.175(3) 0.428(2)
O2 O 0.55076(17) 1.14259(18) 0.57593(11)
O3 O 0.61125(16) 1.19134(17) 0.82207(11)
loop_
_geom_bond_atom_site_label_1
_geom_bond_atom_site_label_2
_geom_bond_site_symmetry_1
_geom_bond_site_symmetry_2
C1 C2 1_555 1_555
C2 C3 1_555 1_555
C3 H1 1_555 1_555
C4 C3 1_555 1_555
H2 C4 1_555 1_555
C5 C4 1_555 1_555
H3 C5 1_555 1_555
C6 C1 1_555 1_555
H4 C6 1_555 1_555
C7 C1 1_555 1_555
C8 C2 1_555 1_555
C9 H5 1_555 1_555
H6 C9 1_555 1_555
H7 C9 1_555 1_555
N1 C8 1_555 1_555
H8 N1 1_555 1_555
O1 C7 1_555 1_555
H9 O1 1_555 1_555
O2 C7 1_555 1_555
O3 C8 1_555 1_555
C5 C6 1_555 1_555
C9 N1 1_555 1_555

#END
