
#######################################################################
#
#                 Cambridge Crystallographic Data Centre
#                                CCDC 
#
#######################################################################
#
# If this CIF has been generated from an entry in the Cambridge 
# Structural Database, then it will include bibliographic, chemical, 
# crystal, experimental, refinement or atomic coordinate data resulting 
# from the CCDC's data processing and validation procedures.
#
#######################################################################

data_VETROD
_chemical_formula_moiety         'C15 H18 N6 O3'
_chemical_name_systematic        
N,N-Dimethyl-2-(1,3,7-trimethyl-2,6-dioxo-2,3,6,7-tetrahydro-1H-purin-8-yl)-1H-pyrrole-1-carboxamide
_symmetry_cell_setting           monoclinic
_symmetry_space_group_name_H-M   'P 21/c'
_symmetry_Int_Tables_number      14
_space_group_name_Hall           '-P 2ybc'
loop_
_symmetry_equiv_pos_site_id
_symmetry_equiv_pos_as_xyz
1 x,y,z
2 -x,1/2+y,1/2-z
3 -x,-y,-z
4 x,1/2-y,1/2+z
_cell_length_a                   13.0575(4)
_cell_length_b                   20.7055(5)
_cell_length_c                   12.1512(3)
_cell_angle_alpha                90
_cell_angle_beta                 100.890(3)
_cell_angle_gamma                90
_cell_volume                     3226.06
_exptl_crystal_colour            yellow
_exptl_crystal_description       block
_cell_formula_units_Z            8
loop_
_atom_site_label
_atom_site_type_symbol
_atom_site_fract_x
_atom_site_fract_y
_atom_site_fract_z
O1 O 0.35882(15) 0.33345(8) 0.13185(17)
O2 O 0.18140(14) 0.40072(9) 0.40227(15)
O3 O 0.42132(12) 0.66778(8) 0.21918(13)
N1 N 0.40785(14) 0.42875(8) 0.21656(15)
N2 N 0.27319(15) 0.36708(8) 0.26840(17)
N3 N 0.32625(13) 0.51939(8) 0.42792(14)
N4 N 0.45108(13) 0.52652(8) 0.32456(13)
N5 N 0.50043(14) 0.65658(8) 0.40343(14)
N6 N 0.59315(14) 0.64547(9) 0.25732(15)
C1 C 0.34773(19) 0.37416(11) 0.2014(2)
C2 C 0.39373(15) 0.47255(9) 0.29761(16)
C3 C 0.31785(16) 0.46534(10) 0.35896(17)
C4 C 0.25056(18) 0.41118(11) 0.34935(19)
C5 C 0.40717(16) 0.55417(9) 0.40389(16)
C6 C 0.4825(2) 0.44148(13) 0.1438(2)
H1 H 0.5113 0.4014 0.1241
H2 H 0.5375 0.4685 0.1824
H3 H 0.4478 0.4629 0.0770
C7 C 0.2135(2) 0.30649(12) 0.2549(3)
H4 H 0.1850 0.2997 0.1770
H5 H 0.1579 0.3090 0.2963
H6 H 0.2587 0.2712 0.2826
C8 C 0.2529(2) 0.53745(13) 0.4991(2)
H7 H 0.1899 0.5128 0.4782
H8 H 0.2372 0.5827 0.4902
H9 H 0.2833 0.5288 0.5760
C9 C 0.44257(16) 0.61491(10) 0.45629(16)
C10 C 0.43905(19) 0.64090(11) 0.55884(18)
H10 H 0.4063 0.6228 0.6131
C11 C 0.4931(2) 0.69937(12) 0.5680(2)
H11 H 0.5024 0.7272 0.6292
C12 C 0.5295(2) 0.70835(11) 0.47204(19)
H12 H 0.5677 0.7437 0.4555
C13 C 0.50091(17) 0.65647(9) 0.28430(17)
C14 C 0.5980(2) 0.64098(14) 0.1389(2)
H13 H 0.5295 0.6472 0.0948
H14 H 0.6235 0.5991 0.1234
H15 H 0.6441 0.6736 0.1203
C15 C 0.6849(2) 0.62494(18) 0.3356(3)
H16 H 0.6722 0.6282 0.4106
H17 H 0.7428 0.6520 0.3278
H18 H 0.7007 0.5809 0.3202
O4 O 0.24584(12) 0.48076(8) -0.05346(14)
O5 O 0.10673(14) 0.56044(8) 0.23777(15)
O6 O 0.00123(14) 0.23491(9) 0.24149(15)
N7 N 0.11995(13) 0.42090(8) 0.00309(14)
N8 N 0.17590(13) 0.51968(8) 0.09203(15)
N9 N -0.03634(13) 0.44087(8) 0.20515(14)
N10 N -0.01847(13) 0.36728(8) 0.07486(14)
N11 N -0.15758(13) 0.28034(9) 0.16940(14)
N12 N -0.07544(16) 0.21066(10) 0.06386(18)
C16 C 0.18394(16) 0.47411(11) 0.00947(18)
C17 C 0.04998(14) 0.41610(10) 0.07410(16)
C18 C 0.04203(15) 0.46230(10) 0.15184(17)
C19 C 0.10657(17) 0.51790(10) 0.16793(18)
C20 C -0.06993(15) 0.38407(10) 0.15568(17)
C21 C 0.12406(19) 0.37082(12) -0.0805(2)
H19 H 0.1378 0.3903 -0.1479
H20 H 0.0585 0.3485 -0.0964
H21 H 0.1786 0.3407 -0.0521
C22 C 0.24601(18) 0.57586(11) 0.1001(2)
H22 H 0.2957 0.5738 0.1692
H23 H 0.2059 0.6148 0.0982
H24 H 0.2821 0.5755 0.0383
C23 C -0.0701(2) 0.47241(13) 0.2994(2)
H25 H -0.0119 0.4943 0.3442
H26 H -0.0967 0.4406 0.3442
H27 H -0.1239 0.5032 0.2719
C24 C -0.15629(16) 0.34681(11) 0.18150(17)
C25 C -0.25209(17) 0.36501(13) 0.2005(2)
H28 H -0.2738 0.4070 0.2103
C26 C -0.3118(2) 0.30875(14) 0.2025(2)
H29 H -0.3800 0.3069 0.2145
C27 C -0.25271(18) 0.25782(13) 0.18399(19)
H30 H -0.2732 0.2147 0.1815
C28 C -0.06884(17) 0.24023(11) 0.1615(2)
C29 C 0.0111(3) 0.16851(17) 0.0508(3)
H31 H 0.0406 0.1830 -0.0116
H32 H -0.0139 0.1251 0.0375
H33 H 0.0635 0.1698 0.1178
C30 C -0.1485(2) 0.22865(15) -0.0375(2)
H34 H -0.2076 0.2501 -0.0175
H35 H -0.1714 0.1905 -0.0801
H36 H -0.1148 0.2572 -0.0817
loop_
_geom_bond_atom_site_label_1
_geom_bond_atom_site_label_2
_geom_bond_site_symmetry_1
_geom_bond_site_symmetry_2
O1 C1 1_555 1_555
O2 C4 1_555 1_555
O3 C13 1_555 1_555
N1 C1 1_555 1_555
N2 C1 1_555 1_555
N3 C3 1_555 1_555
N4 C2 1_555 1_555
N5 C9 1_555 1_555
N6 C13 1_555 1_555
C2 N1 1_555 1_555
C3 C2 1_555 1_555
C4 N2 1_555 1_555
C5 N3 1_555 1_555
C6 N1 1_555 1_555
H1 C6 1_555 1_555
H2 C6 1_555 1_555
H3 C6 1_555 1_555
C7 N2 1_555 1_555
H4 C7 1_555 1_555
H5 C7 1_555 1_555
H6 C7 1_555 1_555
C8 N3 1_555 1_555
H7 C8 1_555 1_555
H8 C8 1_555 1_555
H9 C8 1_555 1_555
C9 C5 1_555 1_555
C10 C9 1_555 1_555
H10 C10 1_555 1_555
C11 C10 1_555 1_555
H11 C11 1_555 1_555
C12 N5 1_555 1_555
H12 C12 1_555 1_555
C13 N5 1_555 1_555
C14 N6 1_555 1_555
H13 C14 1_555 1_555
H14 C14 1_555 1_555
H15 C14 1_555 1_555
C15 N6 1_555 1_555
H16 C15 1_555 1_555
H17 C15 1_555 1_555
H18 C15 1_555 1_555
O4 C16 1_555 1_555
O5 C19 1_555 1_555
O6 C28 1_555 1_555
N7 C16 1_555 1_555
N8 C16 1_555 1_555
N9 C18 1_555 1_555
N10 C17 1_555 1_555
N11 C24 1_555 1_555
N12 C28 1_555 1_555
C17 N7 1_555 1_555
C18 C17 1_555 1_555
C19 N8 1_555 1_555
C20 N9 1_555 1_555
C21 N7 1_555 1_555
H19 C21 1_555 1_555
H20 C21 1_555 1_555
H21 C21 1_555 1_555
C22 N8 1_555 1_555
H22 C22 1_555 1_555
H23 C22 1_555 1_555
H24 C22 1_555 1_555
C23 N9 1_555 1_555
H25 C23 1_555 1_555
H26 C23 1_555 1_555
H27 C23 1_555 1_555
C24 C20 1_555 1_555
C25 C24 1_555 1_555
H28 C25 1_555 1_555
C26 C25 1_555 1_555
H29 C26 1_555 1_555
C27 N11 1_555 1_555
H30 C27 1_555 1_555
C28 N11 1_555 1_555
C29 N12 1_555 1_555
H31 C29 1_555 1_555
H32 C29 1_555 1_555
H33 C29 1_555 1_555
C30 N12 1_555 1_555
H34 C30 1_555 1_555
H35 C30 1_555 1_555
H36 C30 1_555 1_555
N4 C5 1_555 1_555
C3 C4 1_555 1_555
C11 C12 1_555 1_555
N10 C20 1_555 1_555
C18 C19 1_555 1_555
C26 C27 1_555 1_555

#END
