
#######################################################################
#
#                 Cambridge Crystallographic Data Centre
#                                CCDC 
#
#######################################################################
#
# If this CIF has been generated from an entry in the Cambridge 
# Structural Database, then it will include bibliographic, chemical, 
# crystal, experimental, refinement or atomic coordinate data resulting 
# from the CCDC's data processing and validation procedures.
#
#######################################################################

data_VEVKEO
_chemical_formula_moiety         'C30 H23 F2 N1'
_chemical_name_systematic        
1,2-Diethyl-9,9-difluoro-3-phenyl-9H-dibenzo[b,mn]acridine
_symmetry_cell_setting           monoclinic
_symmetry_space_group_name_H-M   'P 21/n'
_symmetry_Int_Tables_number      14
_space_group_name_Hall           '-P 2yn'
loop_
_symmetry_equiv_pos_site_id
_symmetry_equiv_pos_as_xyz
1 x,y,z
2 1/2-x,1/2+y,1/2-z
3 -x,-y,-z
4 1/2+x,1/2-y,1/2+z
_cell_length_a                   11.1529(9)
_cell_length_b                   11.5909(9)
_cell_length_c                   16.9314(14)
_cell_angle_alpha                90
_cell_angle_beta                 91.982(2)
_cell_angle_gamma                90
_cell_volume                     2187.45
_exptl_crystal_colour            yellow
_exptl_crystal_description       prismatic
_cell_formula_units_Z            4
loop_
_atom_site_label
_atom_site_type_symbol
_atom_site_fract_x
_atom_site_fract_y
_atom_site_fract_z
F1 F 0.71834(8) 0.27130(9) 0.34084(6)
F2 F 0.70347(8) 0.22439(9) 0.21710(6)
N1 N 0.57877(11) 0.41620(11) 0.22107(7)
C1 C 0.63665(13) 0.23827(14) 0.28211(9)
C2 C 0.57889(13) 0.12765(13) 0.30381(9)
C3 C 0.62278(15) 0.02250(15) 0.27897(10)
H1 H 0.6937 0.0200 0.2517
C4 C 0.56287(17) -0.07788(15) 0.29410(10)
H2 H 0.5937 -0.1484 0.2784
C5 C 0.45671(16) -0.07310(15) 0.33278(10)
H3 H 0.4134 -0.1404 0.3410
C6 C 0.41397(15) 0.03087(13) 0.35953(9)
H4 H 0.3424 0.0322 0.3861
C7 C 0.47472(13) 0.13349(13) 0.34785(8)
C8 C 0.42821(12) 0.24769(12) 0.37263(8)
C9 C 0.45113(12) 0.34260(12) 0.32250(8)
C10 C 0.54937(12) 0.33673(13) 0.27005(8)
C11 C 0.50655(13) 0.51230(13) 0.21576(8)
C12 C 0.53613(15) 0.59388(15) 0.15840(9)
H5 H 0.6008 0.5799 0.1265
C13 C 0.47213(16) 0.69278(16) 0.14850(10)
H6 H 0.4932 0.7466 0.1107
C14 C 0.37476(15) 0.71255(15) 0.19556(10)
H7 H 0.3295 0.7794 0.1883
C15 C 0.34453(14) 0.63516(14) 0.25237(9)
H8 H 0.2784 0.6503 0.2827
C16 C 0.41046(12) 0.53309(13) 0.26637(8)
C17 C 0.38825(11) 0.44741(12) 0.32752(8)
C18 C 0.31475(12) 0.46221(12) 0.39401(8)
C19 C 0.30931(12) 0.37554(13) 0.45088(8)
C20 C 0.36271(12) 0.26582(13) 0.43981(8)
C21 C 0.24930(13) 0.57248(13) 0.40872(8)
C22 C 0.30660(15) 0.66471(14) 0.44534(9)
H9 H 0.3872 0.6582 0.4605
C23 C 0.2469(2) 0.76602(16) 0.45981(12)
H10 H 0.2867 0.8268 0.4852
C24 C 0.1279(2) 0.77686(19) 0.43637(14)
H11 H 0.0875 0.8457 0.4449
C25 C 0.06924(17) 0.6862(2) 0.40051(12)
H12 H -0.0113 0.6934 0.3853
C26 C 0.12887(14) 0.58413(16) 0.38681(10)
H13 H 0.0881 0.5228 0.3628
C27 C 0.25100(14) 0.40187(14) 0.52834(9)
H14 H 0.2162 0.3318 0.5489
H15 H 0.1868 0.4573 0.5192
C28 C 0.34165(18) 0.45046(18) 0.58903(10)
H16 H 0.4005 0.3926 0.6024
H17 H 0.3010 0.4729 0.6357
H18 H 0.3805 0.5165 0.5672
C29 C 0.35618(15) 0.17602(15) 0.50474(9)
H19 H 0.3764 0.2137 0.5546
H20 H 0.4178 0.1188 0.4960
C30 C 0.23733(18) 0.11233(17) 0.51374(12)
H21 H 0.1766 0.1662 0.5284
H22 H 0.2468 0.0544 0.5540
H23 H 0.2140 0.0764 0.4645
loop_
_geom_bond_atom_site_label_1
_geom_bond_atom_site_label_2
_geom_bond_site_symmetry_1
_geom_bond_site_symmetry_2
F1 C1 1_555 1_555
F2 C1 1_555 1_555
N1 C10 1_555 1_555
C1 C2 1_555 1_555
C2 C3 1_555 1_555
C3 H1 1_555 1_555
C4 C3 1_555 1_555
H2 C4 1_555 1_555
C5 C4 1_555 1_555
H3 C5 1_555 1_555
C6 C5 1_555 1_555
H4 C6 1_555 1_555
C7 C2 1_555 1_555
C8 C7 1_555 1_555
C9 C8 1_555 1_555
C10 C1 1_555 1_555
C11 N1 1_555 1_555
C12 C11 1_555 1_555
H5 C12 1_555 1_555
C13 C12 1_555 1_555
H6 C13 1_555 1_555
C14 C13 1_555 1_555
H7 C14 1_555 1_555
C15 C14 1_555 1_555
H8 C15 1_555 1_555
C16 C11 1_555 1_555
C17 C9 1_555 1_555
C18 C17 1_555 1_555
C19 C18 1_555 1_555
C20 C8 1_555 1_555
C21 C18 1_555 1_555
C22 C21 1_555 1_555
H9 C22 1_555 1_555
C23 C22 1_555 1_555
H10 C23 1_555 1_555
C24 C23 1_555 1_555
H11 C24 1_555 1_555
C25 C24 1_555 1_555
H12 C25 1_555 1_555
C26 C21 1_555 1_555
H13 C26 1_555 1_555
C27 C19 1_555 1_555
H14 C27 1_555 1_555
H15 C27 1_555 1_555
C28 C27 1_555 1_555
H16 C28 1_555 1_555
H17 C28 1_555 1_555
H18 C28 1_555 1_555
C29 C20 1_555 1_555
H19 C29 1_555 1_555
H20 C29 1_555 1_555
C30 C29 1_555 1_555
H21 C30 1_555 1_555
H22 C30 1_555 1_555
H23 C30 1_555 1_555
C6 C7 1_555 1_555
C9 C10 1_555 1_555
C15 C16 1_555 1_555
C16 C17 1_555 1_555
C19 C20 1_555 1_555
C25 C26 1_555 1_555

#END
