
#######################################################################
#
#                 Cambridge Crystallographic Data Centre
#                                CCDC 
#
#######################################################################
#
# If this CIF has been generated from an entry in the Cambridge 
# Structural Database, then it will include bibliographic, chemical, 
# crystal, experimental, refinement or atomic coordinate data resulting 
# from the CCDC's data processing and validation procedures.
#
#######################################################################

data_VEVPOD
_chemical_name_common            'Mebendazole pentane-1,5-dioic acid'
_chemical_formula_moiety         'C16 H13 N3 O3,C5 H8 O4'
_chemical_name_systematic        
'methyl (6-benzoyl-1H-benzimidazol-2-yl)carbamate pentanedioic acid'
_symmetry_cell_setting           triclinic
_symmetry_space_group_name_H-M   'P -1'
_symmetry_Int_Tables_number      2
_space_group_name_Hall           '-P 1'
loop_
_symmetry_equiv_pos_site_id
_symmetry_equiv_pos_as_xyz
1 x,y,z
2 -x,-y,-z
_cell_length_a                   6.2151(3)
_cell_length_b                   10.7634(8)
_cell_length_c                   15.0123(9)
_cell_angle_alpha                85.260(5)
_cell_angle_beta                 87.897(5)
_cell_angle_gamma                81.635(5)
_cell_volume                     989.865
_exptl_crystal_colour            white
_exptl_crystal_description       Needle
_cell_formula_units_Z            2
loop_
_atom_site_label
_atom_site_type_symbol
_atom_site_fract_x
_atom_site_fract_y
_atom_site_fract_z
O1 O -0.6187(2) 0.83785(13) 0.09858(9)
N1 N -0.0792(2) 0.60873(14) 0.26285(9)
O2 O -0.3284(2) 0.75627(15) 0.01593(9)
N2 N -0.0006(2) 0.62141(14) 0.11580(11)
N3 N -0.3428(2) 0.72613(14) 0.16869(10)
O3 O 0.80082(19) 0.39228(13) 0.07449(8)
C1 C 0.1756(3) 0.54607(16) 0.15612(11)
C2 C 0.1249(3) 0.54025(16) 0.24776(11)
C3 C -0.1447(3) 0.65344(15) 0.18124(11)
C4 C 1.0379(3) 0.18457(18) 0.17537(12)
H1 H 1.1296 0.2414 0.1487
C5 C 0.5113(3) 0.41425(16) 0.18075(12)
C6 C 0.6832(3) 0.13879(17) 0.22524(11)
H2 H 0.5321 0.1656 0.2343
C7 C 0.8152(3) 0.22320(16) 0.18551(11)
C8 C 0.7168(3) 0.34816(17) 0.14300(11)
C9 C 1.1249(3) 0.06261(18) 0.20450(13)
H3 H 1.2773 0.0368 0.1991
C10 C 0.9923(3) -0.02172(18) 0.24127(12)
H4 H 1.0532 -0.1057 0.2595
C11 C 0.7711(3) 0.01596(18) 0.25157(12)
H5 H 0.6797 -0.0421 0.2766
C12 C -0.4216(3) 0.77212(17) 0.08656(12)
C13 C 0.3656(3) 0.48506(16) 0.12074(12)
H6 H 0.3966 0.4908 0.0582
C14 C 0.2728(3) 0.47111(17) 0.30778(12)
H7 H 0.2433 0.4673 0.3704
C15 C 0.4625(3) 0.40887(17) 0.27301(12)
H8 H 0.5638 0.3606 0.3127
C16 C -0.7285(4) 0.8929(2) 0.01851(14)
H9 H -0.6206 0.9061 -0.0293
H10 H -0.8141 0.9740 0.0305
H11 H -0.8253 0.8362 0.0000
H12 H -0.027(3) 0.634(2) 0.0608(16)
H13 H -0.423(3) 0.743(2) 0.2171(16)
O4 O -1.2731(2) 0.94130(14) 0.45515(9)
O5 O -1.3649(2) 0.90231(15) 0.59789(9)
O6 O -0.3276(2) 0.62175(13) 0.41328(9)
O7 O -0.5597(2) 0.75965(13) 0.33162(8)
C17 C -0.5120(3) 0.69810(17) 0.40169(12)
C18 C -0.6600(3) 0.70363(18) 0.48334(12)
H14 H -0.5885 0.7388 0.5314
H15 H -0.6843 0.6171 0.5047
C19 C -1.0201(3) 0.80498(19) 0.54822(12)
H16 H -1.0525 0.7227 0.5757
H17 H -0.9393 0.8430 0.5920
C20 C -0.8782(3) 0.78384(18) 0.46471(12)
H18 H -0.9572 0.7424 0.4222
H19 H -0.8525 0.8666 0.4357
C21 C -1.2298(3) 0.88921(18) 0.52848(12)
H20 H -0.237(4) 0.612(2) 0.3583(19)
H21 H -1.487(5) 0.957(3) 0.579(2)
loop_
_geom_bond_atom_site_label_1
_geom_bond_atom_site_label_2
_geom_bond_site_symmetry_1
_geom_bond_site_symmetry_2
O1 C12 1_555 1_555
N1 C2 1_555 1_555
O2 C12 1_555 1_555
N2 C1 1_555 1_555
N3 C3 1_555 1_555
O3 C8 1_555 1_555
C1 C2 1_555 1_555
C2 C14 1_555 1_555
C3 N1 1_555 1_555
C4 H1 1_555 1_555
C5 C8 1_555 1_555
C6 H2 1_555 1_555
C7 C4 1_555 1_555
C8 C7 1_555 1_555
C9 C4 1_555 1_555
H3 C9 1_555 1_555
C10 C9 1_555 1_555
H4 C10 1_555 1_555
C11 C6 1_555 1_555
H5 C11 1_555 1_555
C12 N3 1_555 1_555
C13 C1 1_555 1_555
H6 C13 1_555 1_555
C14 H7 1_555 1_555
C15 C5 1_555 1_555
H8 C15 1_555 1_555
C16 O1 1_555 1_555
H9 C16 1_555 1_555
H10 C16 1_555 1_555
H11 C16 1_555 1_555
H12 N2 1_555 1_555
H13 N3 1_555 1_555
O4 C21 1_555 1_555
O5 C21 1_555 1_555
O6 C17 1_555 1_555
O7 C17 1_555 1_555
C17 C18 1_555 1_555
C18 H14 1_555 1_555
H15 C18 1_555 1_555
C19 H16 1_555 1_555
H17 C19 1_555 1_555
C20 C18 1_555 1_555
H18 C20 1_555 1_555
H19 C20 1_555 1_555
C21 C19 1_555 1_555
H20 O6 1_555 1_555
H21 O5 1_555 1_555
N2 C3 1_555 1_555
C5 C13 1_555 1_555
C6 C7 1_555 1_555
C10 C11 1_555 1_555
C14 C15 1_555 1_555
C19 C20 1_555 1_555

#END
