
#######################################################################
#
#                 Cambridge Crystallographic Data Centre
#                                CCDC 
#
#######################################################################
#
# If this CIF has been generated from an entry in the Cambridge 
# Structural Database, then it will include bibliographic, chemical, 
# crystal, experimental, refinement or atomic coordinate data resulting 
# from the CCDC's data processing and validation procedures.
#
#######################################################################

data_VEVVOK
_chemical_formula_moiety         'C26 H27 N3 O4 S1'
_chemical_name_systematic        
(S,S)-N-[5'-(hydroxymethyl)-1-methyl-3'-(4-methylphenyl)spiro[indole-3,2'-[1,3]oxazolidin]-2(1H)-ylidene]-4-methylbenzene-1-sulfonamide
_symmetry_cell_setting           orthorhombic
_symmetry_space_group_name_H-M   'P 21 21 21'
_symmetry_Int_Tables_number      19
_space_group_name_Hall           'P 2ac 2ab'
loop_
_symmetry_equiv_pos_site_id
_symmetry_equiv_pos_as_xyz
1 x,y,z
2 1/2-x,-y,1/2+z
3 1/2+x,1/2-y,-z
4 -x,1/2+y,1/2-z
_cell_length_a                   8.6582(4)
_cell_length_b                   10.5543(6)
_cell_length_c                   25.8744(16)
_cell_angle_alpha                90
_cell_angle_beta                 90
_cell_angle_gamma                90
_cell_volume                     2364.43
_exptl_crystal_colour            yellow
_exptl_crystal_description       block
_cell_formula_units_Z            4
loop_
_atom_site_label
_atom_site_type_symbol
_atom_site_fract_x
_atom_site_fract_y
_atom_site_fract_z
S1 S 0.99893(8) 1.06023(7) 0.11490(3)
O1 O 0.8717(2) 1.14776(18) 0.11682(10)
O2 O 1.1281(3) 1.0994(2) 0.08457(9)
O3 O 0.6492(2) 0.99062(16) 0.04036(7)
O4 O 0.5046(6) 1.1454(2) -0.03793(11)
H1 H 0.5283 1.2012 -0.0585
N1 N 0.8297(2) 0.74132(19) 0.07419(8)
N2 N 0.5894(2) 0.98534(19) 0.12569(8)
N3 N 0.9577(2) 0.9198(2) 0.09543(8)
C1 C 0.4174(3) 0.7592(3) 0.06618(10)
H2 H 0.3426 0.8198 0.0736
C2 C 1.1625(3) 0.9726(3) 0.27745(11)
C3 C 0.3756(3) 0.6401(3) 0.04832(11)
H3 H 0.2719 0.6208 0.0432
C4 C 0.4866(3) 0.5505(2) 0.03810(10)
H4 H 0.4563 0.4718 0.0255
C5 C 0.6416(3) 0.5738(3) 0.04594(10)
H5 H 0.7160 0.5121 0.0397
C6 C 0.6810(3) 0.6936(2) 0.06357(9)
C7 C 0.5720(3) 0.7859(2) 0.07270(9)
C8 C 0.6538(3) 0.9105(2) 0.08422(9)
C9 C 0.8266(3) 0.8645(2) 0.08778(9)
C10 C 0.5277(3) 1.1038(2) 0.10520(11)
H6 H 0.5961 1.1744 0.1123
H7 H 0.4261 1.1220 0.1192
C11 C 0.5201(3) 1.0754(2) 0.04827(10)
H8 H 0.4237 1.0305 0.0406
C12 C 0.5349(5) 1.1874(3) 0.01298(14)
H9 H 0.4615 1.2526 0.0228
H10 H 0.6382 1.2225 0.0152
C13 C 0.6152(3) 0.9640(2) 0.17816(9)
C14 C 0.5826(3) 1.0573(3) 0.21459(11)
H11 H 0.5429 1.1348 0.2038
C15 C 0.6084(3) 1.0363(3) 0.26620(11)
H12 H 0.5859 1.1007 0.2896
C16 C 0.6664(3) 0.9232(3) 0.28480(10)
C17 C 0.6963(3) 0.8293(3) 0.24853(11)
H13 H 0.7348 0.7516 0.2596
C18 C 0.6701(3) 0.8486(2) 0.19638(10)
H14 H 0.6896 0.7834 0.1731
C19 C 0.7009(5) 0.9024(4) 0.34163(12)
H15 H 0.7683 0.9681 0.3538
H16 H 0.7500 0.8216 0.3461
H17 H 0.6062 0.9042 0.3609
C20 C 1.0626(3) 1.0277(2) 0.17811(11)
C21 C 0.9917(3) 1.0854(3) 0.21962(12)
H18 H 0.9111 1.1424 0.2147
C22 C 1.0436(3) 1.0565(3) 0.26883(12)
H19 H 0.9965 1.0951 0.2970
C23 C 0.9729(3) 0.6711(3) 0.06774(12)
H20 H 0.9500 0.5832 0.0623
H21 H 1.0351 0.6802 0.0982
H22 H 1.0282 0.7037 0.0385
C24 C 1.2309(3) 0.9165(3) 0.23542(12)
H23 H 1.3114 0.8593 0.2403
C25 C 1.1820(3) 0.9437(3) 0.18621(11)
H24 H 1.2298 0.9052 0.1581
C26 C 1.2178(4) 0.9425(4) 0.33160(12)
H25 H 1.2785 1.0118 0.3444
H26 H 1.2796 0.8670 0.3309
H27 H 1.1303 0.9297 0.3538
loop_
_geom_bond_atom_site_label_1
_geom_bond_atom_site_label_2
_geom_bond_site_symmetry_1
_geom_bond_site_symmetry_2
S1 O1 1_555 1_555
O2 S1 1_555 1_555
O3 C8 1_555 1_555
O4 H1 1_555 1_555
N1 C6 1_555 1_555
N2 C8 1_555 1_555
N3 S1 1_555 1_555
C1 H2 1_555 1_555
C2 C22 1_555 1_555
C3 C1 1_555 1_555
H3 C3 1_555 1_555
C4 C3 1_555 1_555
H4 C4 1_555 1_555
C5 C4 1_555 1_555
H5 C5 1_555 1_555
C6 C5 1_555 1_555
C7 C1 1_555 1_555
C8 C7 1_555 1_555
C9 N1 1_555 1_555
C10 N2 1_555 1_555
H6 C10 1_555 1_555
H7 C10 1_555 1_555
C11 O3 1_555 1_555
H8 C11 1_555 1_555
C12 O4 1_555 1_555
H9 C12 1_555 1_555
H10 C12 1_555 1_555
C13 N2 1_555 1_555
C14 C13 1_555 1_555
H11 C14 1_555 1_555
C15 C14 1_555 1_555
H12 C15 1_555 1_555
C16 C15 1_555 1_555
C17 C16 1_555 1_555
H13 C17 1_555 1_555
C18 C13 1_555 1_555
H14 C18 1_555 1_555
C19 C16 1_555 1_555
H15 C19 1_555 1_555
H16 C19 1_555 1_555
H17 C19 1_555 1_555
C20 S1 1_555 1_555
C21 C20 1_555 1_555
H18 C21 1_555 1_555
C22 C21 1_555 1_555
H19 C22 1_555 1_555
C23 N1 1_555 1_555
H20 C23 1_555 1_555
H21 C23 1_555 1_555
H22 C23 1_555 1_555
C24 C2 1_555 1_555
H23 C24 1_555 1_555
C25 C20 1_555 1_555
H24 C25 1_555 1_555
C26 C2 1_555 1_555
H25 C26 1_555 1_555
H26 C26 1_555 1_555
H27 C26 1_555 1_555
N3 C9 1_555 1_555
C6 C7 1_555 1_555
C8 C9 1_555 1_555
C10 C11 1_555 1_555
C11 C12 1_555 1_555
C17 C18 1_555 1_555
C24 C25 1_555 1_555

#END
