
#######################################################################
#
#                 Cambridge Crystallographic Data Centre
#                                CCDC 
#
#######################################################################
#
# If this CIF has been generated from an entry in the Cambridge 
# Structural Database, then it will include bibliographic, chemical, 
# crystal, experimental, refinement or atomic coordinate data resulting 
# from the CCDC's data processing and validation procedures.
#
#######################################################################

data_VEWKUD
_chemical_compound_source        'Aquilaria sinsensis'
_chemical_formula_moiety         'C15 H24 O3'
_chemical_name_systematic        'Sinenofuranic acid'
_symmetry_cell_setting           monoclinic
_symmetry_space_group_name_H-M   'P 21'
_symmetry_Int_Tables_number      4
_space_group_name_Hall           'P 2yb'
loop_
_symmetry_equiv_pos_site_id
_symmetry_equiv_pos_as_xyz
1 x,y,z
2 -x,1/2+y,-z
_cell_length_a                   9.240(2)
_cell_length_b                   14.545(2)
_cell_length_c                   11.254(2)
_cell_angle_alpha                90
_cell_angle_beta                 109.89(2)
_cell_angle_gamma                90
_cell_volume                     1422.27
_cell_formula_units_Z            4
loop_
_atom_site_label
_atom_site_type_symbol
_atom_site_fract_x
_atom_site_fract_y
_atom_site_fract_z
O1 O 0.0954(5) 0.1090 0.7330(4)
O2 O 0.2539(7) -0.0978(4) 0.7083(5)
O3 O 0.2949(7) -0.0380(4) 0.9002(5)
C1 C 0.2325(7) 0.1301(5) 0.6973(6)
C2 C 0.1695(8) 0.1399(6) 0.5533(6)
C3 C 0.0020(10) 0.1696(7) 0.5254(7)
C4 C -0.0448(9) 0.1119(6) 0.6200(7)
C5 C 0.3575(9) 0.0508(6) 0.7443(8)
C6 C 0.4987(9) 0.0972(7) 0.8430(10)
C7 C 0.4863(9) 0.1968(7) 0.8000(11)
C8 C 0.3123(8) 0.2173(7) 0.7711(7)
C9 C 0.2574(8) 0.3109(6) 0.7080(8)
C10 C 0.0802(10) 0.3207(7) 0.6618(8)
C11 C -0.0101(9) 0.2754(7) 0.5371(8)
C12 C 0.2982(8) -0.0338(7) 0.7920(7)
C25 C -0.0839(10) 0.0127(7) 0.5693(9)
C26 C -0.1745(9) 0.1472(8) 0.6678(9)
C27 C 0.3301(9) 0.3866(7) 0.8001(11)
O4 O 0.1866(5) 0.2319(4) 0.2555(4)
O5 O -0.1393(7) 0.3232(4) 0.0375(5)
O6 O -0.1564(6) 0.2517(5) 0.2067(4)
C13 C 0.1401(8) 0.1628(6) 0.1554(6)
C14 C 0.2429(9) 0.1784(6) 0.0751(6)
C15 C 0.3883(7) 0.2216(7) 0.1692(7)
C16 C 0.3164(9) 0.2870(6) 0.2432(7)
C17 C -0.0419(9) 0.1709(6) 0.0736(8)
C18 C -0.1151(10) 0.0794(7) 0.0959(9)
C19 C 0.0218(11) 0.0110(6) 0.1184(9)
C20 C 0.1541(8) 0.0658(5) 0.2164(7)
C21 C 0.3155(9) 0.0178(6) 0.2492(8)
C22 C 0.4460(8) 0.0811(7) 0.3276(8)
C23 C 0.5051(9) 0.1512(8) 0.2494(9)
C24 C -0.1176(8) 0.2527(6) 0.1141(8)
C28 C 0.4141(10) 0.3123(7) 0.3781(9)
C29 C 0.2519(10) 0.3711(7) 0.1642(10)
C30 C 0.3100(10) -0.0699(7) 0.3239(10)
loop_
_geom_bond_atom_site_label_1
_geom_bond_atom_site_label_2
_geom_bond_site_symmetry_1
_geom_bond_site_symmetry_2
O1 C1 1_555 1_555
O2 C12 1_555 1_555
O3 C12 1_555 1_555
C1 C2 1_555 1_555
C2 C3 1_555 1_555
C3 C4 1_555 1_555
C4 O1 1_555 1_555
C5 C1 1_555 1_555
C6 C5 1_555 1_555
C7 C6 1_555 1_555
C8 C1 1_555 1_555
C9 C8 1_555 1_555
C10 C9 1_555 1_555
C11 C3 1_555 1_555
C12 C5 1_555 1_555
O4 C13 1_555 1_555
O5 C24 1_555 1_555
O6 C24 1_555 1_555
C13 C14 1_555 1_555
C14 C15 1_555 1_555
C15 C16 1_555 1_555
C16 O4 1_555 1_555
C17 C13 1_555 1_555
C18 C17 1_555 1_555
C19 C18 1_555 1_555
C20 C13 1_555 1_555
C21 C20 1_555 1_555
C22 C21 1_555 1_555
C23 C15 1_555 1_555
C24 C17 1_555 1_555
C25 C4 1_555 1_555
C26 C4 1_555 1_555
C27 C9 1_555 1_555
C28 C16 1_555 1_555
C29 C16 1_555 1_555
C30 C21 1_555 1_555
C7 C8 1_555 1_555
C10 C11 1_555 1_555
C19 C20 1_555 1_555
C22 C23 1_555 1_555

#END
