
#######################################################################
#
#                 Cambridge Crystallographic Data Centre
#                                CCDC 
#
#######################################################################
#
# If this CIF has been generated from an entry in the Cambridge 
# Structural Database, then it will include bibliographic, chemical, 
# crystal, experimental, refinement or atomic coordinate data resulting 
# from the CCDC's data processing and validation procedures.
#
#######################################################################

data_VEWLEP
_chemical_formula_moiety         'C1 H3 Cl6 N3 P3 1+,C6 H16 B11 Br6 1-'
_chemical_name_systematic        
'2,2,4,4,6,6-Hexachloro-1-methylcyclotriphosphazen-1-ium 7,8,9,10,11,12-hexabromo-2,3,4,5,6-pentamethyl-1-carbadodecaborane'
_symmetry_cell_setting           monoclinic
_symmetry_space_group_name_H-M   'P 21'
_symmetry_Int_Tables_number      4
_space_group_name_Hall           'P 2yb'
loop_
_symmetry_equiv_pos_site_id
_symmetry_equiv_pos_as_xyz
1 x,y,z
2 -x,1/2+y,-z
_cell_length_a                   10.0373(7)
_cell_length_b                   12.0983(8)
_cell_length_c                   14.3169(10)
_cell_angle_alpha                90
_cell_angle_beta                 109.168(4)
_cell_angle_gamma                90
_cell_volume                     1642.18
_exptl_crystal_description       plate
_cell_formula_units_Z            2
loop_
_atom_site_label
_atom_site_type_symbol
_atom_site_fract_x
_atom_site_fract_y
_atom_site_fract_z
C1 C 0.2802(4) 0.8754(3) 0.7051(3)
H1 H 0.2823 0.9452 0.7403
H2 H 0.2724 0.8136 0.7472
H3 H 0.1989 0.8751 0.6441
N1 N 0.4130(2) 0.8638(2) 0.68008(19)
N2 N 0.6295(2) 0.95260(19) 0.63552(17)
N3 N 0.5981(2) 0.73396(18) 0.63095(17)
P1 P 0.48550(7) 0.97602(6) 0.64879(5)
P2 P 0.47739(7) 0.73799(6) 0.67628(5)
P3 P 0.67889(7) 0.83734(6) 0.60764(5)
Cl1 Cl 0.50081(7) 1.08724(6) 0.75027(5)
Cl2 Cl 0.34468(8) 1.03457(6) 0.52884(5)
Cl3 Cl 0.53405(7) 0.68152(6) 0.81276(4)
Cl4 Cl 0.31892(8) 0.64291(7) 0.60473(5)
Cl5 Cl 0.88294(7) 0.82252(7) 0.67770(5)
Cl6 Cl 0.66442(8) 0.83398(6) 0.46738(5)
B1 B 0.7977(3) 0.8834(2) 0.07822(19)
B2 B 0.9272(3) 0.7944(3) 0.0552(2)
B3 B 1.0971(3) 0.8294(3) 0.1408(2)
B4 B 1.0732(3) 0.9398(3) 0.2177(2)
B5 B 0.8883(3) 0.9738(2) 0.1785(2)
B6 B 0.8215(3) 0.7452(2) 0.12407(19)
B7 B 1.0040(3) 0.7132(3) 0.1623(2)
B8 B 1.0936(3) 0.8029(3) 0.2621(2)
B9 B 0.9653(3) 0.8912(2) 0.2847(2)
B10 B 0.7976(3) 0.8553(3) 0.19987(19)
B11 B 0.9238(3) 0.7496(2) 0.25305(19)
C2 C 0.9675(3) 0.9258(2) 0.09734(17)
C3 C 0.6673(3) 0.9282(2) -0.01059(18)
H4 H 0.6154 0.9828 0.0145
H5 H 0.6046 0.8665 -0.0408
H6 H 0.7016 0.9629 -0.0603
C4 C 0.9144(3) 0.7587(3) -0.05432(18)
H7 H 0.8350 0.7977 -0.1015
H8 H 0.8985 0.6788 -0.0618
H9 H 1.0017 0.7777 -0.0671
C5 C 1.2327(3) 0.8263(3) 0.1077(2)
H10 H 1.2422 0.7527 0.0820
H11 H 1.3165 0.8426 0.1647
H12 H 1.2236 0.8816 0.0560
C6 C 1.1893(3) 1.0329(2) 0.2541(2)
H13 H 1.2821 0.9986 0.2834
H14 H 1.1681 1.0792 0.3036
H15 H 1.1897 1.0787 0.1977
C7 C 0.8380(3) 1.0988(2) 0.1789(2)
H16 H 0.8965 1.1354 0.2396
H17 H 0.7391 1.1003 0.1760
H18 H 0.8477 1.1377 0.1214
Br1 Br 0.90301(3) 0.64446(2) 0.350698(17)
Br2 Br 0.67692(3) 0.63202(2) 0.069222(17)
Br3 Br 1.07102(3) 0.56324(2) 0.15217(2)
Br4 Br 1.26666(3) 0.75919(2) 0.366431(19)
Br5 Br 0.98479(3) 0.94997(2) 0.416133(17)
Br6 Br 0.62136(3) 0.87319(2) 0.228263(18)
H19 H 0.984(3) 0.975(3) 0.059(2)
loop_
_geom_bond_atom_site_label_1
_geom_bond_atom_site_label_2
_geom_bond_site_symmetry_1
_geom_bond_site_symmetry_2
C1 H1 1_555 1_555
H2 C1 1_555 1_555
H3 C1 1_555 1_555
N1 C1 1_555 1_555
N2 P1 1_555 1_555
N3 P2 1_555 1_555
P1 N1 1_555 1_555
P2 N1 1_555 1_555
P3 N2 1_555 1_555
Cl1 P1 1_555 1_555
Cl2 P1 1_555 1_555
Cl3 P2 1_555 1_555
Cl4 P2 1_555 1_555
Cl5 P3 1_555 1_555
Cl6 P3 1_555 1_555
B1 B2 1_555 1_555
B2 B3 1_555 1_555
B3 B4 1_555 1_555
B4 B5 1_555 1_555
B5 B1 1_555 1_555
B6 B1 1_555 1_555
B7 B2 1_555 1_555
B8 B3 1_555 1_555
B9 B4 1_555 1_555
B10 B1 1_555 1_555
B11 B6 1_555 1_555
C2 B1 1_555 1_555
C3 B1 1_555 1_555
H4 C3 1_555 1_555
H5 C3 1_555 1_555
H6 C3 1_555 1_555
C4 B2 1_555 1_555
H7 C4 1_555 1_555
H8 C4 1_555 1_555
H9 C4 1_555 1_555
C5 B3 1_555 1_555
H10 C5 1_555 1_555
H11 C5 1_555 1_555
H12 C5 1_555 1_555
C6 B4 1_555 1_555
H13 C6 1_555 1_555
H14 C6 1_555 1_555
H15 C6 1_555 1_555
C7 B5 1_555 1_555
H16 C7 1_555 1_555
H17 C7 1_555 1_555
H18 C7 1_555 1_555
Br1 B11 1_555 1_555
Br2 B6 1_555 1_555
Br3 B7 1_555 1_555
Br4 B8 1_555 1_555
Br5 B9 1_555 1_555
Br6 B10 1_555 1_555
H19 C2 1_555 1_555
N3 P3 1_555 1_555
B2 B6 1_555 1_555
B2 C2 1_555 1_555
B3 B7 1_555 1_555
B3 C2 1_555 1_555
B4 B8 1_555 1_555
B4 C2 1_555 1_555
B5 B9 1_555 1_555
B5 B10 1_555 1_555
B5 C2 1_555 1_555
B6 B7 1_555 1_555
B6 B10 1_555 1_555
B7 B8 1_555 1_555
B7 B11 1_555 1_555
B8 B9 1_555 1_555
B8 B11 1_555 1_555
B9 B10 1_555 1_555
B9 B11 1_555 1_555
B10 B11 1_555 1_555

#END
