
#######################################################################
#
#                 Cambridge Crystallographic Data Centre
#                                CCDC 
#
#######################################################################
#
# If this CIF has been generated from an entry in the Cambridge 
# Structural Database, then it will include bibliographic, chemical, 
# crystal, experimental, refinement or atomic coordinate data resulting 
# from the CCDC's data processing and validation procedures.
#
#######################################################################

data_VEWTID
_chemical_formula_moiety         'C73 H78 Cl6 N2'
_chemical_name_systematic        
1,1-bis[4-(tetradecan-6-yl)phenyl]-N^3^,N^10^-bis(2,4,6-trichlorophenyl)-1H-cyclopenta[ghi]perylene-3,10-diimine
_symmetry_cell_setting           monoclinic
_symmetry_space_group_name_H-M   'P 21/c'
_symmetry_Int_Tables_number      14
_space_group_name_Hall           '-P 2ybc'
loop_
_symmetry_equiv_pos_site_id
_symmetry_equiv_pos_as_xyz
1 x,y,z
2 -x,1/2+y,1/2-z
3 -x,-y,-z
4 x,1/2-y,1/2+z
_cell_length_a                   19.8100(6)
_cell_length_b                   22.6555(8)
_cell_length_c                   14.1721(3)
_cell_angle_alpha                90
_cell_angle_beta                 93.7243(18)
_cell_angle_gamma                90
_cell_volume                     6347.08
_exptl_crystal_colour            red
_exptl_crystal_description       platelet
_cell_formula_units_Z            4
loop_
_atom_site_label
_atom_site_type_symbol
_atom_site_fract_x
_atom_site_fract_y
_atom_site_fract_z
N1 N 0.6437(5) 0.3081(4) 0.0744(7)
N2 N 0.6641(5) 0.7234(4) 0.0431(7)
Cl1 Cl 0.59029(19) 0.23901(17) 0.2309(3)
Cl2 Cl 0.78852(17) 0.32413(15) 0.0260(2)
Cl3 Cl 0.8461(2) 0.1628(2) 0.2950(3)
Cl4 Cl 0.60456(17) 0.72320(15) 0.2335(3)
Cl5 Cl 0.79264(18) 0.77765(16) -0.0111(3)
Cl6 Cl 0.8133(2) 0.86179(16) 0.3454(3)
C1 C 0.7080(5) 0.5176(5) 0.1807(8)
C2 C 0.6734(5) 0.4634(4) 0.1280(7)
C3 C 0.6777(5) 0.4050(5) 0.1386(8)
H1 H 0.7055 0.3888 0.1893
C4 C 0.6396(5) 0.3653(5) 0.0722(8)
C5 C 0.5939(5) 0.3912(5) -0.0046(7)
C6 C 0.5561(6) 0.3576(5) -0.0713(8)
H2 H 0.5562 0.3157 -0.0669
C7 C 0.5180(6) 0.3857(5) -0.1446(8)
H3 H 0.4921 0.3623 -0.1892
C8 C 0.5167(5) 0.4461(5) -0.1543(8)
H4 H 0.4902 0.4634 -0.2053
C9 C 0.5541(5) 0.4827(5) -0.0897(7)
C10 C 0.5579(5) 0.5469(5) -0.0953(7)
C11 C 0.5231(5) 0.5822(5) -0.1640(8)
H5 H 0.4947 0.5637 -0.2119
C12 C 0.5290(6) 0.6423(5) -0.1638(8)
H6 H 0.5037 0.6646 -0.2106
C13 C 0.5711(6) 0.6718(5) -0.0966(8)
H7 H 0.5739 0.7137 -0.0976
C14 C 0.6092(5) 0.6398(5) -0.0280(7)
C15 C 0.6573(5) 0.6663(5) 0.0459(8)
C16 C 0.6944(5) 0.6283(5) 0.1155(8)
C17 C 0.6830(5) 0.5695(5) 0.1149(7)
C18 C 0.6362(5) 0.5457(4) 0.0433(7)
C19 C 0.6007(5) 0.5784(5) -0.0280(7)
C20 C 0.6314(5) 0.4867(4) 0.0513(7)
C21 C 0.5914(5) 0.4525(4) -0.0155(7)
C22 C 0.6805(5) 0.5294(5) 0.2767(8)
C23 C 0.6927(6) 0.2792(5) 0.1333(8)
C24 C 0.6273(5) 0.4985(5) 0.3126(7)
H8 H 0.6114 0.4637 0.2811
C25 C 0.7614(6) 0.2800(5) 0.1150(8)
C26 C 0.5969(6) 0.5166(5) 0.3922(9)
H9 H 0.5610 0.4937 0.4142
C27 C 0.8081(7) 0.2448(6) 0.1653(9)
H10 H 0.8544 0.2461 0.1518
C28 C 0.6170(7) 0.5670(6) 0.4411(9)
C29 C 0.7871(7) 0.2077(6) 0.2353(9)
C30 C 0.6737(7) 0.5965(6) 0.4090(10)
H11 H 0.6908 0.6301 0.4428
C31 C 0.7206(7) 0.2062(6) 0.2559(10)
H12 H 0.7063 0.1810 0.3043
C32 C 0.7055(6) 0.5781(6) 0.3295(9)
H13 H 0.7443 0.5986 0.3107
C33 C 0.6745(7) 0.2419(5) 0.2054(10)
C34 C 0.7844(5) 0.5077(5) 0.1857(8)
C35 C 0.7017(6) 0.7529(5) 0.1163(9)
C36 C 0.8230(6) 0.5245(6) 0.1125(9)
H14 H 0.8032 0.5467 0.0610
C37 C 0.7608(6) 0.7835(5) 0.0991(9)
C38 C 0.8916(7) 0.5087(7) 0.1142(11)
H15 H 0.9175 0.5195 0.0628
C39 C 0.7948(7) 0.8174(6) 0.1690(10)
H16 H 0.8347 0.8383 0.1555
C40 C 0.9222(7) 0.4774(7) 0.1901(11)
C41 C 0.7703(6) 0.8205(5) 0.2578(9)
C42 C 0.8835(7) 0.4611(6) 0.2608(11)
H17 H 0.9032 0.4389 0.3124
C43 C 0.7120(7) 0.7918(6) 0.2778(10)
H18 H 0.6949 0.7946 0.3387
C44 C 0.8154(6) 0.4762(5) 0.2597(9)
H19 H 0.7898 0.4645 0.3109
C45 C 0.6786(6) 0.7587(5) 0.2073(9)
C46 C 0.5772(7) 0.5912(6) 0.5244(9)
H20 H 0.5371 0.5652 0.5312
C47 C 0.5520(9) 0.6522(7) 0.5019(13)
H21 H 0.5918 0.6783 0.4983
H22 H 0.5268 0.6661 0.5559
C48 C 0.5074(12) 0.6610(15) 0.4134(16)
H23 H 0.5233 0.6376 0.3602
H24 H 0.5047 0.7032 0.3951
C49 C 0.4405(11) 0.639(2) 0.4437(19)
H25 H 0.4076 0.6639 0.4069
H26 H 0.4368 0.5995 0.4128
C50 C 0.4064(13) 0.6288(16) 0.534(2)
H27 H 0.3918 0.5870 0.5327
H28 H 0.4427 0.6318 0.5855
C51 C 0.3480(9) 0.6631(11) 0.5674(18)
H29 H 0.3528 0.7047 0.5477
H30 H 0.3506 0.6624 0.6374
C52 C 0.2793(8) 0.6416(12) 0.532(2)
H31 H 0.2722 0.6511 0.4640
H32 H 0.2779 0.5981 0.5386
C53 C 0.2226(9) 0.6678(13) 0.583(2)
H33 H 0.2261 0.7113 0.5791
H34 H 0.2296 0.6570 0.6508
C54 C 0.1521(11) 0.6506(16) 0.550(2)
H35 H 0.1198 0.6710 0.5877
H36 H 0.1467 0.6078 0.5565
H37 H 0.1438 0.6616 0.4831
C55 C 0.6229(9) 0.5853(8) 0.6123(12)
H38 H 0.6645 0.6080 0.6020
H39 H 0.6003 0.6054 0.6637
C56 C 0.6440(8) 0.5277(6) 0.6478(11)
H40 H 0.6676 0.5074 0.5974
H41 H 0.6028 0.5045 0.6583
C57 C 0.6888(9) 0.5252(7) 0.7361(11)
H42 H 0.6663 0.5474 0.7853
H43 H 0.7310 0.5466 0.7243
C58 C 0.7082(10) 0.4659(8) 0.7764(14)
H44 H 0.7329 0.4438 0.7291
H45 H 0.6665 0.4436 0.7872
C59 C 0.7516(9) 0.4683(8) 0.8676(11)
H46 H 0.7608 0.4280 0.8904
H47 H 0.7278 0.4902 0.9149
H48 H 0.7944 0.4881 0.8568
C60 C 0.9971(8) 0.4597(8) 0.1892(13)
H49 H 1.0054 0.4289 0.2391
C61 C 1.0130(14) 0.4322(11) 0.0971(16)
H50 H 1.0626 0.4295 0.0930
H51 H 0.9942 0.4567 0.0438
C62 C 0.9823(17) 0.3718(11) 0.092(2)
H52 H 0.9327 0.3734 0.0967
H53 H 1.0026 0.3457 0.1419
C63 C 0.999(5) 0.3512(15) -0.005(2)
H54 H 1.0399 0.3753 -0.0155
H55 H 0.9627 0.3692 -0.0457
C64 C 1.014(4) 0.2956(17) -0.058(4)
H56 H 1.0452 0.2724 -0.0153
H57 H 0.9705 0.2734 -0.0623
C65 C 1.041(2) 0.292(3) -0.154(3)
H58 H 1.0072 0.3100 -0.1998
H59 H 1.0450 0.2499 -0.1705
C66 C 1.1078(19) 0.321(2) -0.164(2)
H60 H 1.1062 0.3619 -0.1389
H61 H 1.1431 0.2995 -0.1259
C67 C 1.1276(18) 0.3240(19) -0.264(2)
H62 H 1.1418 0.2840 -0.2827
H63 H 1.1677 0.3500 -0.2660
C68 C 1.076(4) 0.345(7) -0.338(4)
H64 H 1.0754 0.3886 -0.3386
H65 H 1.0310 0.3309 -0.3232
H66 H 1.0867 0.3306 -0.4001
C69 C 1.0444(12) 0.5097(10) 0.2139(16)
H67 H 1.0913 0.4944 0.2145
H68 H 1.0393 0.5394 0.1627
C70 C 1.0367(14) 0.5396(11) 0.3030(17)
H69 H 0.9879 0.5478 0.3077
H70 H 1.0600 0.5782 0.3006
C71 C 1.0619(13) 0.5090(14) 0.3912(16)
H71 H 1.0339 0.4734 0.3983
H72 H 1.0539 0.5354 0.4450
C72 C 1.1348(13) 0.4904(15) 0.401(2)
H73 H 1.1636 0.5260 0.4079
H74 H 1.1461 0.4703 0.3415
C73 C 1.1516(15) 0.4496(13) 0.483(2)
H75 H 1.1839 0.4196 0.4643
H76 H 1.1102 0.4303 0.5012
H77 H 1.1716 0.4724 0.5363
C74? C 0.5181(17) 0.628(3) 0.489(2)
H78? H 0.5361 0.6630 0.4567
H79? H 0.4918 0.6048 0.4401
C75? C 0.4700(10) 0.650(2) 0.558(2)
H80? H 0.4815 0.6903 0.5797
H81? H 0.4701 0.6234 0.6142
C76? C 0.4032(8) 0.6480(9) 0.5025(14)
H82? H 0.4155 0.6266 0.4451
H83? H 0.3986 0.6897 0.4822
C77? C 0.3304(9) 0.6306(15) 0.506(2)
H84? H 0.3109 0.6325 0.4402
H85? H 0.3308 0.5883 0.5241
C78? C 0.2795(10) 0.6591(18) 0.565(3)
H86? H 0.2833 0.7024 0.5575
H87? H 0.2917 0.6498 0.6321
C79? C 0.2069(10) 0.6422(19) 0.544(3)
H88? H 0.1918 0.6569 0.4800
H89? H 0.2033 0.5986 0.5428
C80? C 0.1607(14) 0.666(3) 0.614(3)
H90? H 0.1616 0.6386 0.6683
H91? H 0.1798 0.7042 0.6380
C81? C 0.0884(16) 0.677(3) 0.581(4)
H92? H 0.0649 0.6956 0.6321
H93? H 0.0667 0.6388 0.5652
H94? H 0.0863 0.7023 0.5256
C82? C 1.006(4) 0.3964(13) 0.162(4)
H95? H 1.0290 0.3799 0.2204
H96? H 1.0421 0.3994 0.1170
C83? C 0.967(2) 0.344(2) 0.124(2)
H97? H 0.9174 0.3497 0.1302
H98? H 0.9814 0.3075 0.1568
C84? C 0.9831(17) 0.343(3) 0.022(2)
H99? H 0.9632 0.3811 -0.0014
H100? H 0.9519 0.3127 -0.0045
C85? C 1.0423(16) 0.3367(19) -0.038(2)
H101? H 1.0760 0.3663 -0.0144
H102? H 1.0622 0.2976 -0.0221
C86? C 1.040(3) 0.3410(19) -0.144(2)
H103? H 1.0744 0.3703 -0.1606
H104? H 0.9953 0.3564 -0.1661
C87? C 1.053(5) 0.285(2) -0.196(3)
H105? H 1.0828 0.2593 -0.1557
H106? H 1.0091 0.2639 -0.2081
C88? C 1.084(3) 0.295(3) -0.288(3)
H107? H 1.1203 0.3240 -0.2779
H108? H 1.1051 0.2571 -0.3063
C89? C 1.038(4) 0.315(4) -0.371(4)
H109? H 0.9921 0.3188 -0.3510
H110? H 1.0391 0.2856 -0.4217
H111? H 1.0542 0.3529 -0.3930
loop_
_geom_bond_atom_site_label_1
_geom_bond_atom_site_label_2
_geom_bond_site_symmetry_1
_geom_bond_site_symmetry_2
N1 C4 1_555 1_555
N2 C15 1_555 1_555
Cl1 C33 1_555 1_555
Cl2 C25 1_555 1_555
Cl3 C29 1_555 1_555
Cl4 C45 1_555 1_555
Cl5 C37 1_555 1_555
Cl6 C41 1_555 1_555
C1 C2 1_555 1_555
C2 C3 1_555 1_555
C3 H1 1_555 1_555
C4 C3 1_555 1_555
C5 C4 1_555 1_555
C6 C5 1_555 1_555
H2 C6 1_555 1_555
C7 C6 1_555 1_555
H3 C7 1_555 1_555
C8 C7 1_555 1_555
H4 C8 1_555 1_555
C9 C8 1_555 1_555
C10 C9 1_555 1_555
C11 C10 1_555 1_555
H5 C11 1_555 1_555
C12 C11 1_555 1_555
H6 C12 1_555 1_555
C13 C12 1_555 1_555
H7 C13 1_555 1_555
C14 C13 1_555 1_555
C15 C14 1_555 1_555
C16 C15 1_555 1_555
C17 C1 1_555 1_555
C18 C17 1_555 1_555
C19 C10 1_555 1_555
C20 C2 1_555 1_555
C21 C5 1_555 1_555
C22 C1 1_555 1_555
C23 N1 1_555 1_555
C24 C22 1_555 1_555
H8 C24 1_555 1_555
C25 C23 1_555 1_555
C26 C24 1_555 1_555
H9 C26 1_555 1_555
C27 C25 1_555 1_555
H10 C27 1_555 1_555
C28 C26 1_555 1_555
C29 C27 1_555 1_555
C30 C28 1_555 1_555
H11 C30 1_555 1_555
C31 C29 1_555 1_555
H12 C31 1_555 1_555
C32 C22 1_555 1_555
H13 C32 1_555 1_555
C33 C23 1_555 1_555
C34 C1 1_555 1_555
C35 N2 1_555 1_555
C36 C34 1_555 1_555
H14 C36 1_555 1_555
C37 C35 1_555 1_555
C38 C36 1_555 1_555
H15 C38 1_555 1_555
C39 C37 1_555 1_555
H16 C39 1_555 1_555
C40 C38 1_555 1_555
C41 C39 1_555 1_555
C42 C40 1_555 1_555
H17 C42 1_555 1_555
C43 C41 1_555 1_555
H18 C43 1_555 1_555
C44 C34 1_555 1_555
H19 C44 1_555 1_555
C45 C35 1_555 1_555
C46 C28 1_555 1_555
H20 C46 1_555 1_555
C47 C46 1_555 1_555
H21 C47 1_555 1_555
H22 C47 1_555 1_555
C48 C47 1_555 1_555
H23 C48 1_555 1_555
H24 C48 1_555 1_555
C49 C48 1_555 1_555
H25 C49 1_555 1_555
H26 C49 1_555 1_555
C50 C49 1_555 1_555
H27 C50 1_555 1_555
H28 C50 1_555 1_555
C51 C50 1_555 1_555
H29 C51 1_555 1_555
H30 C51 1_555 1_555
C52 C51 1_555 1_555
H31 C52 1_555 1_555
H32 C52 1_555 1_555
C53 C52 1_555 1_555
H33 C53 1_555 1_555
H34 C53 1_555 1_555
C54 C53 1_555 1_555
H35 C54 1_555 1_555
H36 C54 1_555 1_555
H37 C54 1_555 1_555
C55 C46 1_555 1_555
H38 C55 1_555 1_555
H39 C55 1_555 1_555
C56 C55 1_555 1_555
H40 C56 1_555 1_555
H41 C56 1_555 1_555
C57 C56 1_555 1_555
H42 C57 1_555 1_555
H43 C57 1_555 1_555
C58 C57 1_555 1_555
H44 C58 1_555 1_555
H45 C58 1_555 1_555
C59 C58 1_555 1_555
H46 C59 1_555 1_555
H47 C59 1_555 1_555
H48 C59 1_555 1_555
C60 C40 1_555 1_555
H49 C60 1_555 1_555
C61 C60 1_555 1_555
H50 C61 1_555 1_555
H51 C61 1_555 1_555
C62 C61 1_555 1_555
H52 C62 1_555 1_555
H53 C62 1_555 1_555
C63 C62 1_555 1_555
H54 C63 1_555 1_555
H55 C63 1_555 1_555
C64 C63 1_555 1_555
H56 C64 1_555 1_555
H57 C64 1_555 1_555
C65 C64 1_555 1_555
H58 C65 1_555 1_555
H59 C65 1_555 1_555
C66 C65 1_555 1_555
H60 C66 1_555 1_555
H61 C66 1_555 1_555
C67 C66 1_555 1_555
H62 C67 1_555 1_555
H63 C67 1_555 1_555
C68 C67 1_555 1_555
H64 C68 1_555 1_555
H65 C68 1_555 1_555
H66 C68 1_555 1_555
C69 C60 1_555 1_555
H67 C69 1_555 1_555
H68 C69 1_555 1_555
C70 C69 1_555 1_555
H69 C70 1_555 1_555
H70 C70 1_555 1_555
C71 C70 1_555 1_555
H71 C71 1_555 1_555
H72 C71 1_555 1_555
C72 C71 1_555 1_555
H73 C72 1_555 1_555
H74 C72 1_555 1_555
C73 C72 1_555 1_555
H75 C73 1_555 1_555
H76 C73 1_555 1_555
H77 C73 1_555 1_555
C9 C21 1_555 1_555
C14 C19 1_555 1_555
C16 C17 1_555 1_555
C18 C19 1_555 1_555
C18 C20 1_555 1_555
C20 C21 1_555 1_555
C30 C32 1_555 1_555
C31 C33 1_555 1_555
C42 C44 1_555 1_555
C43 C45 1_555 1_555

#END
