
#######################################################################
#
#                 Cambridge Crystallographic Data Centre
#                                CCDC 
#
#######################################################################
#
# If this CIF has been generated from an entry in the Cambridge 
# Structural Database, then it will include bibliographic, chemical, 
# crystal, experimental, refinement or atomic coordinate data resulting 
# from the CCDC's data processing and validation procedures.
#
#######################################################################

data_VEWXUS
_chemical_formula_moiety         'C34 H32 N4'
_chemical_name_systematic        
12,12,27,27-Tetramethyl-31,32,33,34-tetraazaheptacyclo[26.2.1.1^8,11^.1^13,16^.1^23,26^.0^2,7^.0^17,22^]tetratriaconta-1(30),2,4,6,8,10,13,15,17,19,21,23,25,28-tetradecaene
_symmetry_cell_setting           monoclinic
_symmetry_space_group_name_H-M   'P 21/c'
_symmetry_Int_Tables_number      14
_space_group_name_Hall           '-P 2ybc'
loop_
_symmetry_equiv_pos_site_id
_symmetry_equiv_pos_as_xyz
1 x,y,z
2 -x,1/2+y,1/2-z
3 -x,-y,-z
4 x,1/2-y,1/2+z
_cell_length_a                   13.046(3)
_cell_length_b                   18.896(4)
_cell_length_c                   21.809(6)
_cell_angle_alpha                90
_cell_angle_beta                 91.007(4)
_cell_angle_gamma                90
_cell_volume                     5375.46
_exptl_crystal_colour            colorless
_exptl_crystal_description       Block
_cell_formula_units_Z            8
loop_
_atom_site_label
_atom_site_type_symbol
_atom_site_fract_x
_atom_site_fract_y
_atom_site_fract_z
N1 N 0.4694(7) 0.4402(4) 0.1722(3)
H1 H 0.4239 0.4394 0.2003
C1 C 0.5247(8) 0.6959(5) 0.2887(4)
N2 N 0.4813(6) 0.6868(4) 0.2320(3)
H2 H 0.4174 0.6779 0.2253
N3 N 0.4137(7) 0.5835(5) 0.1006(3)
H3 H 0.4644 0.5546 0.0981
N4 N 0.5354(6) 0.5438(5) 0.3043(3)
H4 H 0.5749 0.5756 0.2892
C2 C 0.4332(7) 0.6262(6) 0.3696(4)
C3 C 0.5733(8) 0.4465(5) 0.1820(5)
C4 C 0.4499(8) 0.4354(5) 0.1093(5)
C5 C 0.3439(8) 0.4303(6) 0.0856(4)
C6 C 0.1799(9) 0.4822(7) 0.0579(4)
H5 H 0.1355 0.5206 0.0566
C7 C 0.4237(10) 0.6558(7) 0.1116(4)
C8 C 0.3124(9) 0.5641(7) 0.0941(4)
C9 C 0.4564(8) 0.5576(6) 0.3447(5)
C10 C 0.5256(9) 0.6884(6) 0.1200(4)
C11 C 0.4639(7) 0.6909(6) 0.3463(4)
C12 C 0.5417(9) 0.4736(7) 0.2918(5)
C13 C 0.5411(9) 0.4384(5) 0.0816(5)
H6 H 0.5507 0.4360 0.0395
C14 C 0.5517(9) 0.6938(5) 0.1875(5)
C15 C 0.6192(9) 0.4458(6) 0.2473(4)
C16 C 0.4149(9) 0.4947(7) 0.3570(5)
H7 H 0.3601 0.4871 0.3828
C17 C 0.6189(9) 0.4459(5) 0.1258(6)
H8 H 0.6887 0.4497 0.1185
C18 C 0.2802(9) 0.4906(7) 0.0792(4)
C19 C 0.1466(11) 0.4158(9) 0.0387(4)
H9 H 0.0801 0.4107 0.0233
C20 C 0.2084(12) 0.3585(8) 0.0419(5)
H10 H 0.1857 0.3145 0.0282
C21 C 0.2568(9) 0.6248(7) 0.1031(4)
H11 H 0.1858 0.6286 0.1032
C22 C 0.5188(10) 0.7662(5) 0.0932(5)
H12 H 0.4915 0.7647 0.0520
H13 H 0.5860 0.7869 0.0930
H14 H 0.4747 0.7943 0.1183
C23 C 0.4665(10) 0.4421(7) 0.3249(6)
H15 H 0.4521 0.3939 0.3259
C24 C 0.6253(9) 0.7080(6) 0.2796(5)
H16 H 0.6749 0.7152 0.3101
C25 C 0.3269(11) 0.6798(6) 0.1120(5)
H17 H 0.3089 0.7269 0.1175
C26 C 0.4404(8) 0.7541(6) 0.3758(5)
H18 H 0.4639 0.7968 0.3601
C27 C 0.3757(7) 0.6294(6) 0.4231(5)
H19 H 0.3545 0.5872 0.4408
C28 C 0.3043(10) 0.3670(6) 0.0656(5)
H20 H 0.3461 0.3272 0.0684
C29 C 0.6093(8) 0.6478(6) 0.0881(5)
H21 H 0.6139 0.6009 0.1048
H22 H 0.6736 0.6717 0.0942
H23 H 0.5936 0.6451 0.0450
C30 C 0.3491(8) 0.6924(8) 0.4509(5)
H24 H 0.3081 0.6925 0.4853
C31 C 0.3834(9) 0.7539(7) 0.4272(5)
H25 H 0.3679 0.7965 0.4464
C32 C 0.6428(9) 0.3688(6) 0.2627(5)
H26 H 0.6707 0.3657 0.3036
H27 H 0.6917 0.3506 0.2343
H28 H 0.5809 0.3414 0.2598
C33 C 0.7192(8) 0.4873(7) 0.2486(5)
H29 H 0.7072 0.5341 0.2328
H30 H 0.7685 0.4636 0.2237
H31 H 0.7449 0.4904 0.2900
C34 C 0.6421(9) 0.7077(6) 0.2171(6)
H32 H 0.7046 0.7157 0.1984
N5 N 0.9380(7) 0.4489(5) 0.4020(3)
H33 H 0.9802 0.4838 0.3995
N6 N 0.9540(7) 0.6003(4) 0.3332(3)
H34 H 0.9094 0.5973 0.3038
N7 N 1.0145(6) 0.3631(4) 0.2700(3)
H35 H 0.9503 0.3660 0.2780
C35 C 0.9658(10) 0.3795(6) 0.3947(4)
C36 C 0.9594(8) 0.4955(6) 0.1588(5)
C37 C 1.0579(9) 0.6049(5) 0.3253(4)
C38 C 0.9310(9) 0.6012(5) 0.3952(5)
C39 C 0.9434(8) 0.4259(5) 0.1338(4)
C40 C 1.0553(9) 0.3589(5) 0.2116(4)
N8 N 1.0349(6) 0.5113(4) 0.2009(3)
H36 H 1.0775 0.4812 0.2162
C41 C 1.0728(9) 0.3602(5) 0.3808(4)
C42 C 1.0996(8) 0.6102(5) 0.3824(5)
H37 H 1.1690 0.6150 0.3917
C43 C 0.8264(9) 0.5907(6) 0.4162(4)
C44 C 0.7845(9) 0.5241(7) 0.4259(4)
C45 C 1.1051(8) 0.6121(5) 0.2631(4)
C46 C 0.8645(9) 0.3572(8) 0.0506(5)
H38 H 0.8230 0.3560 0.0155
C47 C 1.0197(8) 0.6071(5) 0.4257(4)
H39 H 1.0280 0.6090 0.4681
C48 C 0.9548(9) 0.6120(6) 0.1821(5)
H40 H 0.9345 0.6591 0.1827
C49 C 0.7995(10) 0.3878(8) 0.4100(5)
H41 H 0.7316 0.3738 0.4137
C50 C 1.0921(8) 0.3620(5) 0.3123(4)
C51 C 0.8343(9) 0.4570(7) 0.4138(4)
C52 C 0.9858(7) 0.3626(6) 0.1553(4)
C53 C 1.1508(7) 0.4096(5) 0.4121(4)
H42 H 1.1479 0.4553 0.3929
H43 H 1.2184 0.3902 0.4083
H44 H 1.1348 0.4142 0.4547
C54 C 0.8807(8) 0.4208(7) 0.0804(5)
H45 H 0.8495 0.4614 0.0649
C55 C 1.0332(8) 0.5815(6) 0.2152(5)
C56 C 0.9076(9) 0.2968(7) 0.0715(5)
H46 H 0.8955 0.2542 0.0512
C57 C 0.6318(10) 0.5779(10) 0.4623(5)
H47 H 0.5664 0.5728 0.4780
C58 C 1.0943(9) 0.2864(5) 0.4056(4)
H48 H 1.0877 0.2865 0.4494
H49 H 1.1627 0.2726 0.3953
H50 H 1.0462 0.2536 0.3879
C59 C 0.6855(11) 0.5186(8) 0.4490(5)
H51 H 0.6565 0.4743 0.4552
C60 C 0.6695(11) 0.6461(9) 0.4538(5)
H52 H 0.6316 0.6863 0.4628
C61 C 0.9711(8) 0.2987(6) 0.1243(4)
H53 H 1.0031 0.2577 0.1384
C62 C 0.8791(12) 0.3439(7) 0.4002(5)
H54 H 0.8738 0.2949 0.3976
C63 C 1.1215(9) 0.6918(5) 0.2492(4)
H55 H 1.0585 0.7169 0.2548
H56 H 1.1429 0.6972 0.2075
H57 H 1.1733 0.7105 0.2765
C64 C 1.2088(8) 0.5762(6) 0.2649(5)
H58 H 1.2518 0.5983 0.2955
H59 H 1.2400 0.5804 0.2255
H60 H 1.2003 0.5270 0.2748
C65 C 0.7675(10) 0.6496(7) 0.4309(5)
H61 H 0.7960 0.6942 0.4249
C66 C 0.9112(9) 0.5563(7) 0.1469(5)
H62 H 0.8566 0.5614 0.1193
C67 C 1.1805(8) 0.3571(6) 0.2807(5)
H63 H 1.2461 0.3550 0.2979
C68 C 1.1561(9) 0.3555(6) 0.2176(4)
H64 H 1.2026 0.3525 0.1858
loop_
_geom_bond_atom_site_label_1
_geom_bond_atom_site_label_2
_geom_bond_site_symmetry_1
_geom_bond_site_symmetry_2
N1 H1 1_555 1_555
C1 N2 1_555 1_555
N2 H2 1_555 1_555
N3 H3 1_555 1_555
N4 H4 1_555 1_555
C2 C9 1_555 1_555
C3 N1 1_555 1_555
C4 N1 1_555 1_555
C5 C4 1_555 1_555
C6 H5 1_555 1_555
C7 N3 1_555 1_555
C8 N3 1_555 1_555
C9 N4 1_555 1_555
C10 C7 1_555 1_555
C11 C1 1_555 1_555
C12 N4 1_555 1_555
C13 C4 1_555 1_555
H6 C13 1_555 1_555
C14 N2 1_555 1_555
C15 C3 1_555 1_555
C16 C9 1_555 1_555
H7 C16 1_555 1_555
C17 C3 1_555 1_555
H8 C17 1_555 1_555
C18 C5 1_555 1_555
C19 C6 1_555 1_555
H9 C19 1_555 1_555
C20 C19 1_555 1_555
H10 C20 1_555 1_555
C21 C8 1_555 1_555
H11 C21 1_555 1_555
C22 C10 1_555 1_555
H12 C22 1_555 1_555
H13 C22 1_555 1_555
H14 C22 1_555 1_555
C23 C12 1_555 1_555
H15 C23 1_555 1_555
C24 C1 1_555 1_555
H16 C24 1_555 1_555
C25 C7 1_555 1_555
H17 C25 1_555 1_555
C26 C11 1_555 1_555
H18 C26 1_555 1_555
C27 C2 1_555 1_555
H19 C27 1_555 1_555
C28 C5 1_555 1_555
H20 C28 1_555 1_555
C29 C10 1_555 1_555
H21 C29 1_555 1_555
H22 C29 1_555 1_555
H23 C29 1_555 1_555
C30 C27 1_555 1_555
H24 C30 1_555 1_555
C31 C26 1_555 1_555
H25 C31 1_555 1_555
C32 C15 1_555 1_555
H26 C32 1_555 1_555
H27 C32 1_555 1_555
H28 C32 1_555 1_555
C33 C15 1_555 1_555
H29 C33 1_555 1_555
H30 C33 1_555 1_555
H31 C33 1_555 1_555
C34 C14 1_555 1_555
H32 C34 1_555 1_555
N5 H33 1_555 1_555
N6 H34 1_555 1_555
N7 H35 1_555 1_555
C35 N5 1_555 1_555
C36 C39 1_555 1_555
C37 N6 1_555 1_555
C38 N6 1_555 1_555
C39 C52 1_555 1_555
C40 N7 1_555 1_555
N8 C36 1_555 1_555
H36 N8 1_555 1_555
C41 C35 1_555 1_555
C42 C37 1_555 1_555
H37 C42 1_555 1_555
C43 C38 1_555 1_555
C44 C43 1_555 1_555
C45 C37 1_555 1_555
C46 H38 1_555 1_555
C47 C38 1_555 1_555
H39 C47 1_555 1_555
C48 H40 1_555 1_555
C49 H41 1_555 1_555
C50 N7 1_555 1_555
C51 N5 1_555 1_555
C52 C40 1_555 1_555
C53 C41 1_555 1_555
H42 C53 1_555 1_555
H43 C53 1_555 1_555
H44 C53 1_555 1_555
C54 C39 1_555 1_555
H45 C54 1_555 1_555
C55 N8 1_555 1_555
C56 C46 1_555 1_555
H46 C56 1_555 1_555
C57 H47 1_555 1_555
C58 C41 1_555 1_555
H48 C58 1_555 1_555
H49 C58 1_555 1_555
H50 C58 1_555 1_555
C59 C44 1_555 1_555
H51 C59 1_555 1_555
C60 C57 1_555 1_555
H52 C60 1_555 1_555
C61 C52 1_555 1_555
H53 C61 1_555 1_555
C62 C35 1_555 1_555
H54 C62 1_555 1_555
C63 C45 1_555 1_555
H55 C63 1_555 1_555
H56 C63 1_555 1_555
H57 C63 1_555 1_555
C64 C45 1_555 1_555
H58 C64 1_555 1_555
H59 C64 1_555 1_555
H60 C64 1_555 1_555
C65 C43 1_555 1_555
H61 C65 1_555 1_555
C66 C36 1_555 1_555
H62 C66 1_555 1_555
C67 C50 1_555 1_555
H63 C67 1_555 1_555
C68 C40 1_555 1_555
H64 C68 1_555 1_555
C2 C11 1_555 1_555
C6 C18 1_555 1_555
C8 C18 1_555 1_555
C10 C14 1_555 1_555
C12 C15 1_555 1_555
C13 C17 1_555 1_555
C16 C23 1_555 1_555
C20 C28 1_555 1_555
C21 C25 1_555 1_555
C24 C34 1_555 1_555
C30 C31 1_555 1_555
C41 C50 1_555 1_555
C42 C47 1_555 1_555
C44 C51 1_555 1_555
C45 C55 1_555 1_555
C46 C54 1_555 1_555
C48 C55 1_555 1_555
C48 C66 1_555 1_555
C49 C51 1_555 1_555
C49 C62 1_555 1_555
C56 C61 1_555 1_555
C57 C59 1_555 1_555
C60 C65 1_555 1_555
C67 C68 1_555 1_555

#END
