
#######################################################################
#
#                 Cambridge Crystallographic Data Centre
#                                CCDC 
#
#######################################################################
#
# If this CIF has been generated from an entry in the Cambridge 
# Structural Database, then it will include bibliographic, chemical, 
# crystal, experimental, refinement or atomic coordinate data resulting 
# from the CCDC's data processing and validation procedures.
#
#######################################################################

data_VEWYON
_chemical_formula_moiety         'C15 H22 O5'
_chemical_name_systematic        
'6-Hydroxy-7-methyl-4-methylene-1-oxooctahydrocyclopenta[c]pyran-7-yl 3-methylbutanoate'
_symmetry_cell_setting           orthorhombic
_symmetry_space_group_name_H-M   'P 21 21 21'
_symmetry_Int_Tables_number      19
_space_group_name_Hall           'P 2ac 2ab'
loop_
_symmetry_equiv_pos_site_id
_symmetry_equiv_pos_as_xyz
1 x,y,z
2 1/2+x,1/2-y,-z
3 -x,1/2+y,1/2-z
4 1/2-x,-y,1/2+z
_cell_length_a                   6.0684(2)
_cell_length_b                   13.4461(4)
_cell_length_c                   18.2271(4)
_cell_angle_alpha                90
_cell_angle_beta                 90
_cell_angle_gamma                90
_cell_volume                     1487.26
_exptl_crystal_colour            colorless
_exptl_crystal_description       plate
_cell_formula_units_Z            4
loop_
_atom_site_label
_atom_site_type_symbol
_atom_site_fract_x
_atom_site_fract_y
_atom_site_fract_z
O1 O 0.4146(3) 0.37635(13) 0.23381(9)
O2 O 0.7209(3) 0.42934(12) 0.18488(9)
O3 O 0.7386(4) 0.03989(12) 0.18274(9)
H1 H 0.6859 -0.0017 0.2123
O4 O 0.8418(3) 0.26429(11) 0.29492(8)
O5 O 0.9447(4) 0.15573(13) 0.38312(9)
C1 C 0.5845(4) 0.35631(17) 0.20285(12)
C2 C 0.9336(5) 0.40747(18) 0.15052(14)
H2 H 1.0402 0.3862 0.1885
H3 H 0.9918 0.4683 0.1269
C3 C 0.9089(4) 0.32738(18) 0.09459(12)
C4 C 0.8256(4) 0.23148(17) 0.12528(11)
H4 H 0.7635 0.1908 0.0842
C5 C 0.9988(4) 0.16881(18) 0.16604(12)
H5 H 1.0757 0.1232 0.1319
H6 H 1.1091 0.2119 0.1904
C6 C 0.8657(4) 0.11129(17) 0.22195(12)
H7 H 0.9606 0.0800 0.2604
C7 C 0.7116(5) 0.19128(18) 0.25385(12)
C8 C 0.6411(4) 0.24884(17) 0.18335(11)
H8 H 0.5037 0.2168 0.1644
C9 C 0.5179(4) 0.15490(19) 0.29902(13)
H9 H 0.5723 0.1195 0.3424
H10 H 0.4276 0.1098 0.2693
H11 H 0.4285 0.2119 0.3145
C10 C 0.9522(6) 0.3413(2) 0.02381(16)
H12 H 1.0011 0.4044 0.0070
H13 H 0.9341 0.2881 -0.0100
C11 C 0.9414(4) 0.23847(18) 0.35850(12)
C12 C 1.0414(5) 0.32768(19) 0.39532(12)
H14 H 1.0568 0.3821 0.3591
H15 H 1.1905 0.3105 0.4134
C13 C 0.8987(5) 0.36375(19) 0.46025(12)
H16 H 0.8823 0.3073 0.4955
C14 C 0.6715(5) 0.3945(3) 0.43546(18)
H17 H 0.5820 0.4120 0.4783
H18 H 0.6018 0.3393 0.4091
H19 H 0.6831 0.4523 0.4029
C15 C 1.0166(5) 0.4485(2) 0.49969(14)
H20 H 1.0370 0.5042 0.4658
H21 H 1.1607 0.4253 0.5170
H22 H 0.9279 0.4702 0.5417
loop_
_geom_bond_atom_site_label_1
_geom_bond_atom_site_label_2
_geom_bond_site_symmetry_1
_geom_bond_site_symmetry_2
O1 C1 1_555 1_555
O2 C1 1_555 1_555
O3 H1 1_555 1_555
O4 C7 1_555 1_555
O5 C11 1_555 1_555
C1 C8 1_555 1_555
C2 O2 1_555 1_555
H2 C2 1_555 1_555
H3 C2 1_555 1_555
C3 C2 1_555 1_555
C4 C3 1_555 1_555
H4 C4 1_555 1_555
C5 C4 1_555 1_555
H5 C5 1_555 1_555
H6 C5 1_555 1_555
C6 O3 1_555 1_555
H7 C6 1_555 1_555
C7 C6 1_555 1_555
C8 C4 1_555 1_555
H8 C8 1_555 1_555
C9 C7 1_555 1_555
H9 C9 1_555 1_555
H10 C9 1_555 1_555
H11 C9 1_555 1_555
C10 C3 1_555 1_555
H12 C10 1_555 1_555
H13 C10 1_555 1_555
C11 O4 1_555 1_555
C12 C11 1_555 1_555
H14 C12 1_555 1_555
H15 C12 1_555 1_555
C13 C12 1_555 1_555
H16 C13 1_555 1_555
C14 C13 1_555 1_555
H17 C14 1_555 1_555
H18 C14 1_555 1_555
H19 C14 1_555 1_555
C15 C13 1_555 1_555
H20 C15 1_555 1_555
H21 C15 1_555 1_555
H22 C15 1_555 1_555
C5 C6 1_555 1_555
C7 C8 1_555 1_555

#END
