
#######################################################################
#
#                 Cambridge Crystallographic Data Centre
#                                CCDC 
#
#######################################################################
#
# If this CIF has been generated from an entry in the Cambridge 
# Structural Database, then it will include bibliographic, chemical, 
# crystal, experimental, refinement or atomic coordinate data resulting 
# from the CCDC's data processing and validation procedures.
#
#######################################################################

data_VEXJAK
_chemical_formula_moiety         'C18 H25 N1 O6 S1'
_chemical_name_systematic        
'5-Phenylsulfonylpyrrolidin-1,2-dicarboxylic acid 1-t-butyl 2-ethyl diester'
_symmetry_cell_setting           monoclinic
_symmetry_space_group_name_H-M   'P 21'
_symmetry_Int_Tables_number      4
_space_group_name_Hall           'P 2yb'
loop_
_symmetry_equiv_pos_site_id
_symmetry_equiv_pos_as_xyz
1 x,y,z
2 -x,1/2+y,-z
_cell_length_a                   10.6783(3)
_cell_length_b                   8.1891(2)
_cell_length_c                   11.1365(3)
_cell_angle_alpha                90
_cell_angle_beta                 98.9319(17)
_cell_angle_gamma                90
_cell_volume                     962.029
_exptl_crystal_colour            colorless
_chemical_melting_point          122-124deg.C
_cell_formula_units_Z            2
_exptl_crystal_recrystallization_method 'diethyl ether'
loop_
_atom_site_label
_atom_site_type_symbol
_atom_site_fract_x
_atom_site_fract_y
_atom_site_fract_z
N1 N 0.39679(14) 0.3820(2) 0.26585(14)
C1 C 0.50485(18) 0.3652(3) 0.36097(17)
C2 C 0.4913(2) 0.1948(3) 0.4158(2)
C3 C 0.4053(2) 0.1023(3) 0.3153(2)
C4 C 0.3161(2) 0.2362(3) 0.2541(2)
C5 C 0.2046(2) 0.2617(3) 0.3225(2)
O1 O 0.20913(15) 0.3446(2) 0.41247(14)
O2 O 0.10289(14) 0.1778(2) 0.27051(14)
C6 C -0.0123(2) 0.1965(3) 0.3264(2)
C7 C -0.0139(2) 0.0828(3) 0.4314(2)
C8 C 0.3439(2) 0.5373(3) 0.24604(19)
O3 O 0.39237(16) 0.65974(18) 0.29006(15)
O4 O 0.23534(14) 0.52368(18) 0.16735(13)
C9 C 0.1545(2) 0.6701(3) 0.1353(2)
C10 C 0.0448(3) 0.5982(3) 0.0480(3)
C11 C 0.1101(2) 0.7354(3) 0.2484(2)
C12 C 0.2270(2) 0.7943(3) 0.0722(2)
S1 S 0.65473(5) 0.37412(8) 0.30277(5)
O5 O 0.65482(16) 0.24686(19) 0.21271(16)
O6 O 0.75137(13) 0.3740(3) 0.40889(14)
C13 C 0.6573(2) 0.5645(3) 0.2299(2)
C14 C 0.6065(2) 0.5768(3) 0.1069(2)
C15 C 0.6026(2) 0.7287(3) 0.0514(2)
C16 C 0.6501(2) 0.8651(3) 0.1180(2)
C17 C 0.7007(2) 0.8514(3) 0.2396(2)
C18 C 0.7050(2) 0.6993(3) 0.2965(2)
H1 H 0.5059 0.4563 0.4210
H2 H 0.5757 0.1401 0.4353
H3 H 0.4512 0.2022 0.4910
H4 H 0.4558 0.0526 0.2562
H5 H 0.3564 0.0149 0.3504
H6 H 0.2793 0.2091 0.1683
H7 H -0.0168 0.3114 0.3558
H8 H -0.0879 0.1733 0.2636
H9 H -0.0936 0.0997 0.4665
H10 H 0.0610 0.1055 0.4950
H11 H -0.0101 -0.0326 0.4029
H12 H -0.0175 0.6864 0.0193
H13 H 0.0775 0.5492 -0.0233
H14 H 0.0021 0.5118 0.0906
H15 H 0.0557 0.8339 0.2271
H16 H 0.1853 0.7662 0.3095
H17 H 0.0599 0.6495 0.2835
H18 H 0.1727 0.8927 0.0506
H19 H 0.3057 0.8270 0.1278
H20 H 0.2504 0.7452 -0.0035
H21 H 0.5735 0.4778 0.0597
H22 H 0.5657 0.7402 -0.0363
H23 H 0.6476 0.9743 0.0774
H24 H 0.7341 0.9503 0.2866
H25 H 0.7419 0.6880 0.3843
loop_
_geom_bond_atom_site_label_1
_geom_bond_atom_site_label_2
_geom_bond_site_symmetry_1
_geom_bond_site_symmetry_2
N1 C1 1_555 1_555
C1 C2 1_555 1_555
C2 C3 1_555 1_555
C3 C4 1_555 1_555
C4 N1 1_555 1_555
C5 C4 1_555 1_555
O1 C5 1_555 1_555
O2 C5 1_555 1_555
C6 O2 1_555 1_555
C7 C6 1_555 1_555
C8 N1 1_555 1_555
O3 C8 1_555 1_555
O4 C8 1_555 1_555
C9 O4 1_555 1_555
C10 C9 1_555 1_555
C11 C9 1_555 1_555
C12 C9 1_555 1_555
S1 C1 1_555 1_555
O5 S1 1_555 1_555
O6 S1 1_555 1_555
C13 S1 1_555 1_555
C14 C13 1_555 1_555
C15 C14 1_555 1_555
C16 C15 1_555 1_555
C17 C16 1_555 1_555
C18 C13 1_555 1_555
H1 C1 1_555 1_555
H2 C2 1_555 1_555
H3 C2 1_555 1_555
H4 C3 1_555 1_555
H5 C3 1_555 1_555
H6 C4 1_555 1_555
H7 C6 1_555 1_555
H8 C6 1_555 1_555
H9 C7 1_555 1_555
H10 C7 1_555 1_555
H11 C7 1_555 1_555
H12 C10 1_555 1_555
H13 C10 1_555 1_555
H14 C10 1_555 1_555
H15 C11 1_555 1_555
H16 C11 1_555 1_555
H17 C11 1_555 1_555
H18 C12 1_555 1_555
H19 C12 1_555 1_555
H20 C12 1_555 1_555
H21 C14 1_555 1_555
H22 C15 1_555 1_555
H23 C16 1_555 1_555
H24 C17 1_555 1_555
H25 C18 1_555 1_555
C17 C18 1_555 1_555

#END
