
#######################################################################
#
#                 Cambridge Crystallographic Data Centre
#                                CCDC 
#
#######################################################################
#
# If this CIF has been generated from an entry in the Cambridge 
# Structural Database, then it will include bibliographic, chemical, 
# crystal, experimental, refinement or atomic coordinate data resulting 
# from the CCDC's data processing and validation procedures.
#
#######################################################################

data_VEXQEX
_chemical_formula_moiety         'C9 H4 O6 2-,C4 H9 N5 2+,H2 O1'
_chemical_name_systematic        
'2,4,6-triaminopyrimidinedi-ium 4-carboxyphthalate monohydrate'
_symmetry_cell_setting           triclinic
_symmetry_space_group_name_H-M   'P -1'
_symmetry_Int_Tables_number      2
_space_group_name_Hall           '-P 1'
loop_
_symmetry_equiv_pos_site_id
_symmetry_equiv_pos_as_xyz
1 x,y,z
2 -x,-y,-z
_cell_length_a                   8.1521(6)
_cell_length_b                   8.8843(7)
_cell_length_c                   11.5409(8)
_cell_angle_alpha                93.720(6)
_cell_angle_beta                 99.445(6)
_cell_angle_gamma                111.138(8)
_cell_volume                     762.025
_cell_formula_units_Z            2
loop_
_atom_site_label
_atom_site_type_symbol
_atom_site_fract_x
_atom_site_fract_y
_atom_site_fract_z
O1 O 0.1682(3) 0.7421(2) 0.65932(19)
H1 H 0.2435 0.8237 0.6430
O2 O -0.6912(3) 0.1726(3) 0.70228(19)
O3 O -0.5750(3) 0.0010(2) 0.63312(19)
O4 O -0.3529(3) 0.1879(3) 0.88060(18)
O5 O 0.0001(3) 0.7635(3) 0.4919(2)
C1 C -0.2532(4) 0.3552(3) 0.7321(2)
C2 C -0.4113(4) 0.2841(3) 0.6466(2)
C3 C -0.1282(4) 0.5524(3) 0.6038(2)
C4 C -0.1131(4) 0.4889(3) 0.7102(2)
H2 H -0.0080 0.5364 0.7674
C5 C -0.2841(4) 0.4796(3) 0.5190(3)
H3 H -0.2948 0.5203 0.4471
O6 O -0.0617(3) 0.3331(3) 0.8994(2)
C6 C 0.0192(4) 0.6974(3) 0.5790(3)
C7 C -0.5707(4) 0.1404(4) 0.6636(2)
C8 C -0.4239(4) 0.3472(3) 0.5399(3)
H4 H -0.5279 0.2995 0.4819
C9 C -0.2296(4) 0.2845(4) 0.8448(3)
N1 N -0.0212(3) 0.0219(3) 1.2218(2)
H5 H -0.0971 -0.0436 1.2570
N2 N 0.0304(3) 0.1889(3) 1.0732(2)
H6 H -0.0100 0.2278 1.0135
N3 N 0.2070(3) -0.0061(3) 1.3550(2)
H7 H 0.1264 -0.0733 1.3863
H8 H 0.3189 0.0167 1.3832
N4 N -0.2576(3) 0.0346(3) 1.0886(2)
H9 H -0.2988 0.0726 1.0287
H10 H -0.3304 -0.0344 1.1236
C10 C 0.1584(4) 0.0624(3) 1.2632(2)
N5 N 0.3157(4) 0.3466(3) 1.0577(2)
H11 H 0.2700 0.3848 0.9999
H12 H 0.4304 0.3799 1.0801
C11 C -0.0820(4) 0.0824(3) 1.1269(2)
C12 C 0.2773(4) 0.1722(4) 1.2073(2)
H13 H 0.4006 0.2029 1.2326
C13 C 0.2087(4) 0.2354(3) 1.1129(2)
O7 O -0.6803(3) 0.4676(4) 0.8110(2)
H14 H -0.6805 0.3793 0.7779
H15 H -0.7758 0.4806 0.7809
loop_
_geom_bond_atom_site_label_1
_geom_bond_atom_site_label_2
_geom_bond_site_symmetry_1
_geom_bond_site_symmetry_2
O1 H1 1_555 1_555
O2 C7 1_555 1_555
O3 C7 1_555 1_555
O4 C9 1_555 1_555
O5 C6 1_555 1_555
C1 C2 1_555 1_555
C2 C7 1_555 1_555
C3 C4 1_555 1_555
C4 C1 1_555 1_555
H2 C4 1_555 1_555
C5 C3 1_555 1_555
H3 C5 1_555 1_555
O6 C9 1_555 1_555
C6 O1 1_555 1_555
C8 C2 1_555 1_555
H4 C8 1_555 1_555
C9 C1 1_555 1_555
N1 H5 1_555 1_555
N2 H6 1_555 1_555
N3 H7 1_555 1_555
H8 N3 1_555 1_555
N4 H9 1_555 1_555
H10 N4 1_555 1_555
C10 N1 1_555 1_555
N5 H11 1_555 1_555
H12 N5 1_555 1_555
C11 N1 1_555 1_555
C12 C10 1_555 1_555
H13 C12 1_555 1_555
C13 N2 1_555 1_555
O7 H14 1_555 1_555
H15 O7 1_555 1_555
C3 C6 1_555 1_555
C5 C8 1_555 1_555
N2 C11 1_555 1_555
N3 C10 1_555 1_555
N4 C11 1_555 1_555
N5 C13 1_555 1_555
C12 C13 1_555 1_555

#END
