
#######################################################################
#
#                 Cambridge Crystallographic Data Centre
#                                CCDC 
#
#######################################################################
#
# If this CIF has been generated from an entry in the Cambridge 
# Structural Database, then it will include bibliographic, chemical, 
# crystal, experimental, refinement or atomic coordinate data resulting 
# from the CCDC's data processing and validation procedures.
#
#######################################################################

data_VEXQOH
_chemical_formula_moiety         'C16 H8 O8 2-,2(C4 H8 N5 1+),H2 O1'
_chemical_name_systematic        
"bis(2,4,6-triaminopyrimidinium) 5,5'-dicarboxybiphenyl-2,2'-dicarboxylate monohydrate"
_symmetry_cell_setting           monoclinic
_symmetry_space_group_name_H-M   'C 2/c'
_symmetry_Int_Tables_number      15
_space_group_name_Hall           '-C 2yn'
loop_
_symmetry_equiv_pos_site_id
_symmetry_equiv_pos_as_xyz
1 x,y,z
2 -x,y,1/2-z
3 1/2+x,1/2+y,z
4 1/2-x,1/2+y,1/2-z
5 -x,-y,-z
6 x,-y,1/2+z
7 1/2-x,1/2-y,-z
8 1/2+x,1/2-y,1/2+z
_cell_length_a                   14.1580(7)
_cell_length_b                   7.4308(4)
_cell_length_c                   24.9890(12)
_cell_angle_alpha                90
_cell_angle_beta                 91.828(4)
_cell_angle_gamma                90
_cell_volume                     2627.64
_cell_formula_units_Z            4
loop_
_atom_site_label
_atom_site_type_symbol
_atom_site_fract_x
_atom_site_fract_y
_atom_site_fract_z
O1 O 0.59449(12) 0.1409(3) 0.81752(6)
O2 O 0.67015(12) 0.5643(3) 0.56206(6)
O3 O 0.52399(12) 0.6366(3) 0.58355(6)
H1 H 0.5213 0.6703 0.5523
O4 O 0.69179(12) 0.3579(3) 0.84454(6)
C1 C 0.60782(16) 0.5712(3) 0.59478(9)
C2 C 0.53965(15) 0.4964(3) 0.68247(8)
H2 H 0.4827 0.5431 0.6691
C3 C 0.64081(16) 0.2824(4) 0.80986(9)
C4 C 0.70367(16) 0.4382(4) 0.67115(9)
H3 H 0.7567 0.4398 0.6502
C5 C 0.54355(15) 0.4255(3) 0.73376(8)
C6 C 0.61752(15) 0.5000(3) 0.65044(8)
C7 C 0.71033(15) 0.3745(4) 0.72291(9)
H4 H 0.7687 0.3373 0.7370
C8 C 0.63144(15) 0.3648(3) 0.75437(8)
O1A O 0.40551(12) 0.1409(3) 0.68248(6)
O2A O 0.32985(12) 0.5643(3) 0.93794(6)
O3A O 0.47601(12) 0.6366(3) 0.91645(6)
H1A H 0.4787 0.6703 0.9477
O4A O 0.30821(12) 0.3579(3) 0.65546(6)
C1A C 0.39218(16) 0.5712(3) 0.90522(9)
C2A C 0.46035(15) 0.4964(3) 0.81753(8)
H2A H 0.5173 0.5431 0.8309
C3A C 0.35919(16) 0.2824(4) 0.69014(9)
C4A C 0.29633(16) 0.4382(4) 0.82885(9)
H3A H 0.2433 0.4398 0.8498
C5A C 0.45645(15) 0.4255(3) 0.76624(8)
C6A C 0.38248(15) 0.5000(3) 0.84956(8)
C7A C 0.28967(15) 0.3745(4) 0.77709(9)
H4A H 0.2313 0.3373 0.7630
C8A C 0.36856(15) 0.3648(3) 0.74563(8)
N1 N 0.49594(12) 0.8680(3) 0.40439(7)
H5 H 0.5319 0.8752 0.3774
N2 N 0.47733(12) 0.7758(3) 0.49282(7)
N3 N 0.34103(14) 0.8316(3) 0.53607(8)
H6 H 0.3797 0.8303 0.5636
H7 H 0.3033 0.9225 0.5389
N4 N 0.61521(13) 0.7187(3) 0.45027(8)
H8 H 0.6377 0.6673 0.4788
H9 H 0.6489 0.7255 0.4223
N5 N 0.37968(14) 1.0105(3) 0.35400(7)
H10 H 0.4175 1.0110 0.3277
H11 H 0.3242 1.0565 0.3501
C9 C 0.35196(16) 0.9298(3) 0.44518(9)
H12 H 0.2912 0.9774 0.4445
C10 C 0.38911(15) 0.8487(3) 0.49067(9)
C11 C 0.40692(15) 0.9391(3) 0.40043(9)
C12 C 0.52898(15) 0.7869(3) 0.44944(8)
O5 O 0.5000 1.0867(5) 0.2500
H13 H 0.4628 1.0160 0.2328
H13A H 0.5372 1.0160 0.2672
loop_
_geom_bond_atom_site_label_1
_geom_bond_atom_site_label_2
_geom_bond_site_symmetry_1
_geom_bond_site_symmetry_2
O1 C3 1_555 1_555
O2 C1 1_555 1_555
O3 H1 1_555 1_555
O4 C3 1_555 1_555
C1 O3 1_555 1_555
C2 H2 1_555 1_555
C3 C8 1_555 1_555
C4 H3 1_555 1_555
C5 C2 1_555 1_555
C6 C1 1_555 1_555
C7 C4 1_555 1_555
H4 C7 1_555 1_555
C8 C5 1_555 1_555
N1 H5 1_555 1_555
N2 C10 1_555 1_555
N3 H6 1_555 1_555
H7 N3 1_555 1_555
N4 H8 1_555 1_555
H9 N4 1_555 1_555
N5 H10 1_555 1_555
H11 N5 1_555 1_555
C9 H12 1_555 1_555
C10 N3 1_555 1_555
C11 N1 1_555 1_555
C12 N1 1_555 1_555
O5 H13 1_555 1_555
O1A C3A 1_555 1_555
O2A C1A 1_555 1_555
O3A H1A 1_555 1_555
O4A C3A 1_555 1_555
C1A O3A 1_555 1_555
C2A H2A 1_555 1_555
C3A C8A 1_555 1_555
C4A H3A 1_555 1_555
C5A C5 1_555 1_555
C6A C1A 1_555 1_555
C7A C4A 1_555 1_555
H4A C7A 1_555 1_555
C8A C5A 1_555 1_555
H13A O5 1_555 1_555
C2 C6 1_555 1_555
C4 C6 1_555 1_555
C7 C8 1_555 1_555
N2 C12 1_555 1_555
N4 C12 1_555 1_555
N5 C11 1_555 1_555
C9 C10 1_555 1_555
C9 C11 1_555 1_555
C2A C5A 1_555 1_555
C2A C6A 1_555 1_555
C4A C6A 1_555 1_555
C7A C8A 1_555 1_555

#END
