
#######################################################################
#
#                 Cambridge Crystallographic Data Centre
#                                CCDC 
#
#######################################################################
#
# If this CIF has been generated from an entry in the Cambridge 
# Structural Database, then it will include bibliographic, chemical, 
# crystal, experimental, refinement or atomic coordinate data resulting 
# from the CCDC's data processing and validation procedures.
#
#######################################################################

data_VEXYEF
_chemical_formula_moiety         'C21 H19 Cl1 N2 O4'
_chemical_name_systematic        
'methyl 2-(2-(((1-(4-chlorophenyl)-1H-pyrazol-3-yl)oxy)methyl)phenyl)-3-methoxyacrylate'
_symmetry_cell_setting           monoclinic
_symmetry_space_group_name_H-M   'P 21/c'
_symmetry_Int_Tables_number      14
_space_group_name_Hall           '-P 2ybc'
loop_
_symmetry_equiv_pos_site_id
_symmetry_equiv_pos_as_xyz
1 x,y,z
2 -x,1/2+y,1/2-z
3 -x,-y,-z
4 x,1/2-y,1/2+z
_cell_length_a                   11.773(2)
_cell_length_b                   7.8560(16)
_cell_length_c                   21.480(4)
_cell_angle_alpha                90
_cell_angle_beta                 93.27(3)
_cell_angle_gamma                90
_cell_volume                     1983.42
_exptl_crystal_colour            colorless
_exptl_crystal_description       plate
_cell_formula_units_Z            4
loop_
_atom_site_label
_atom_site_type_symbol
_atom_site_fract_x
_atom_site_fract_y
_atom_site_fract_z
Cl1 Cl 0.50568(11) 0.7410(2) 0.21906(7)
N1 N 0.0345(3) 0.8106(4) 0.29830(15)
O1 O -0.1502(2) 0.7651(4) 0.41417(14)
C1 C 0.2242(3) 0.6919(5) 0.31233(18)
H1 H 0.2021 0.6342 0.3474
O2 O -0.4181(3) 0.8152(4) 0.45438(14)
N2 N 0.0101(3) 0.7486(4) 0.35644(14)
C2 C 0.3343(4) 0.6763(6) 0.2936(2)
H2 H 0.3861 0.6084 0.3165
C3 C 0.3678(4) 0.7596(6) 0.2417(2)
O3 O -0.4611(4) 0.5748(5) 0.40085(19)
O4 O -0.2417(3) 0.3049(4) 0.51318(16)
C4 C 0.2899(5) 0.8658(7) 0.2073(2)
H3 H 0.3121 0.9246 0.1724
C5 C 0.1810(4) 0.8800(6) 0.2264(2)
H4 H 0.1290 0.9488 0.2040
C6 C 0.1472(3) 0.7941(5) 0.27842(18)
C7 C -0.0545(4) 0.8922(6) 0.27157(19)
H5 H -0.0577 0.9429 0.2324
C8 C -0.1396(4) 0.8888(6) 0.3114(2)
H6 H -0.2115 0.9375 0.3060
C9 C -0.0948(3) 0.7951(5) 0.36263(18)
C10 C -0.0923(3) 0.6591(6) 0.46035(19)
H7 H -0.0115 0.6841 0.4627
H8 H -0.1026 0.5401 0.4494
C11 C -0.1414(3) 0.6944(5) 0.52183(18)
C12 C -0.0750(4) 0.7714(5) 0.5700(2)
H9 H 0.0007 0.7964 0.5638
C13 C -0.1183(4) 0.8109(6) 0.6255(2)
H10 H -0.0722 0.8633 0.6564
C14 C -0.2296(4) 0.7741(6) 0.6362(2)
H11 H -0.2590 0.8019 0.6742
C15 C -0.2976(3) 0.6953(5) 0.59013(18)
H12 H -0.3729 0.6706 0.5974
C16 C -0.2552(3) 0.6528(5) 0.53347(18)
C17 C -0.3270(3) 0.5634(5) 0.48472(18)
C18 C -0.4070(3) 0.6480(6) 0.4439(2)
C19 C -0.4878(5) 0.9080(7) 0.4086(3)
H13 H -0.4899 1.0260 0.4202
H14 H -0.5637 0.8626 0.4067
H15 H -0.4565 0.8973 0.3686
C20 C -0.3200(4) 0.3903(5) 0.4771(2)
H16 H -0.3679 0.3337 0.4481
C21 C -0.2350(5) 0.1241(6) 0.5026(3)
H17 H -0.1774 0.0758 0.5307
H18 H -0.2159 0.1035 0.4604
H19 H -0.3071 0.0727 0.5096
loop_
_geom_bond_atom_site_label_1
_geom_bond_atom_site_label_2
_geom_bond_site_symmetry_1
_geom_bond_site_symmetry_2
Cl1 C3 1_555 1_555
N1 N2 1_555 1_555
O1 C9 1_555 1_555
C1 H1 1_555 1_555
O2 C18 1_555 1_555
N2 C9 1_555 1_555
C2 C1 1_555 1_555
H2 C2 1_555 1_555
C3 C2 1_555 1_555
O3 C18 1_555 1_555
O4 C20 1_555 1_555
C4 C3 1_555 1_555
H3 C4 1_555 1_555
C5 C4 1_555 1_555
H4 C5 1_555 1_555
C6 N1 1_555 1_555
C7 N1 1_555 1_555
H5 C7 1_555 1_555
C8 C7 1_555 1_555
H6 C8 1_555 1_555
C9 C8 1_555 1_555
C10 O1 1_555 1_555
H7 C10 1_555 1_555
H8 C10 1_555 1_555
C11 C10 1_555 1_555
C12 C11 1_555 1_555
H9 C12 1_555 1_555
C13 C12 1_555 1_555
H10 C13 1_555 1_555
C14 C13 1_555 1_555
H11 C14 1_555 1_555
C15 C14 1_555 1_555
H12 C15 1_555 1_555
C16 C11 1_555 1_555
C17 C16 1_555 1_555
C18 C17 1_555 1_555
C19 O2 1_555 1_555
H13 C19 1_555 1_555
H14 C19 1_555 1_555
H15 C19 1_555 1_555
C20 C17 1_555 1_555
H16 C20 1_555 1_555
C21 O4 1_555 1_555
H17 C21 1_555 1_555
H18 C21 1_555 1_555
H19 C21 1_555 1_555
C1 C6 1_555 1_555
C5 C6 1_555 1_555
C15 C16 1_555 1_555

#END
