
#######################################################################
#
#                 Cambridge Crystallographic Data Centre
#                                CCDC 
#
#######################################################################
#
# If this CIF has been generated from an entry in the Cambridge 
# Structural Database, then it will include bibliographic, chemical, 
# crystal, experimental, refinement or atomic coordinate data resulting 
# from the CCDC's data processing and validation procedures.
#
#######################################################################

data_VEZGEN
_chemical_formula_moiety         'C29 H26 F2 N4 O3'
_chemical_name_systematic        
4-(4-bis(4-fluorophenyl)-1-isobutyl-1H-imidazol-2-yl)-3-(4-ethoxyphenyl)sydnone
_symmetry_cell_setting           triclinic
_symmetry_space_group_name_H-M   'P -1'
_symmetry_Int_Tables_number      2
_space_group_name_Hall           '-P 1'
loop_
_symmetry_equiv_pos_site_id
_symmetry_equiv_pos_as_xyz
1 x,y,z
2 -x,-y,-z
_cell_length_a                   11.1312(2)
_cell_length_b                   11.1570(2)
_cell_length_c                   11.6784(2)
_cell_angle_alpha                81.0220(11)
_cell_angle_beta                 70.4990(12)
_cell_angle_gamma                78.3820(10)
_cell_volume                     1332.93
_exptl_crystal_colour            orange
_exptl_crystal_description       needles
_chemical_melting_point          '183-185 deg.C'
_cell_formula_units_Z            2
_exptl_crystal_recrystallization_method dichloromethane/ethanol
loop_
_atom_site_label
_atom_site_type_symbol
_atom_site_fract_x
_atom_site_fract_y
_atom_site_fract_z
F1 F 0.78924(19) 1.02687(16) 0.40873(17)
F2 F 1.00423(18) 0.2617(2) 0.5064(3)
O1 O -0.02656(13) 0.55808(16) 0.87282(15)
O2 O 0.11754(15) 0.43619(18) 0.73338(16)
O3 O 0.1887(3) 1.0389(2) 1.10998(18)
N1 N 0.09369(14) 0.66775(16) 0.90218(15)
N2 N -0.02773(16) 0.65215(19) 0.93685(19)
N3 N 0.35589(15) 0.70205(16) 0.71441(15)
N4 N 0.40614(14) 0.49792(15) 0.73997(15)
C1 C 0.09841(19) 0.5174(2) 0.7971(2)
C2 C 0.17501(17) 0.5915(2) 0.82082(18)
C3 C 0.12190(18) 0.7616(2) 0.95722(18)
C4 C 0.1151(3) 0.7424(3) 1.0773(2)
H1 H 0.0945 0.6688 1.1223
C5 C 0.1387(3) 0.8322(3) 1.1319(2)
H2 H 0.1356 0.8188 1.2134
C6 C 0.1669(3) 0.9419(2) 1.0653(2)
C7 C 0.1739(2) 0.9607(2) 0.9437(2)
H3 H 0.1940 1.0344 0.8985
C8 C 0.1513(2) 0.8707(2) 0.8895(2)
H4 H 0.1559 0.8831 0.8077
C9 C 0.1680(5) 1.0338(4) 1.2405(4)
H5 H 0.0852 1.0090 1.2865
H6 H 0.2353 0.9749 1.2630
C10 C 0.1711(7) 1.1557(6) 1.2661(5)
H7 H 0.1590 1.1556 1.3514
H8 H 0.1034 1.2129 1.2445
H9 H 0.2531 1.1796 1.2192
C11 C 0.31187(17) 0.5985(2) 0.76138(18)
C12 C 0.51981(17) 0.54299(18) 0.67450(17)
C13 C 0.48652(17) 0.66823(19) 0.65997(17)
C14 C 0.56707(17) 0.76252(19) 0.59275(18)
C15 C 0.5402(2) 0.8781(2) 0.6334(2)
H10 H 0.4716 0.8956 0.7035
C16 C 0.6139(3) 0.9678(2) 0.5713(3)
H11 H 0.5956 1.0454 0.5986
C17 C 0.7144(2) 0.9396(2) 0.4685(2)
C18 C 0.7428(2) 0.8289(2) 0.4237(2)
H12 H 0.8106 0.8134 0.3525
C19 C 0.66855(19) 0.7394(2) 0.48640(19)
H13 H 0.6868 0.6628 0.4569
C20 C 0.64642(17) 0.46451(18) 0.63245(16)
C21 C 0.6676(2) 0.3719(2) 0.5577(2)
H14 H 0.5995 0.3566 0.5358
C22 C 0.7874(2) 0.3027(2) 0.5157(2)
H15 H 0.8010 0.2397 0.4670
C23 C 0.8864(2) 0.3291(3) 0.5476(3)
C24 C 0.8715(2) 0.4198(3) 0.6185(2)
H16 H 0.9411 0.4359 0.6374
C25 C 0.75079(18) 0.4871(2) 0.66161(18)
H17 H 0.7385 0.5490 0.7112
C26 C 0.3962(2) 0.3707(2) 0.7921(2)
H18 H 0.4391 0.3165 0.7280
H19 H 0.3058 0.3614 0.8227
C27 C 0.4551(2) 0.3309(3) 0.8954(2)
H20 H 0.5440 0.3478 0.8656
C28 C 0.4599(4) 0.1912(3) 0.9263(4)
H21 H 0.4972 0.1643 0.9910
H22 H 0.5115 0.1501 0.8554
H23 H 0.3739 0.1721 0.9519
C29 C 0.3823(3) 0.4020(4) 1.0050(3)
H24 H 0.3824 0.4883 0.9812
H25 H 0.4234 0.3765 1.0671
H26 H 0.2950 0.3862 1.0361
loop_
_geom_bond_atom_site_label_1
_geom_bond_atom_site_label_2
_geom_bond_site_symmetry_1
_geom_bond_site_symmetry_2
F1 C17 1_555 1_555
F2 C23 1_555 1_555
O1 N2 1_555 1_555
O2 C1 1_555 1_555
O3 C6 1_555 1_555
N1 N2 1_555 1_555
N3 C11 1_555 1_555
N4 C11 1_555 1_555
C1 O1 1_555 1_555
C2 N1 1_555 1_555
C3 N1 1_555 1_555
C4 C3 1_555 1_555
H1 C4 1_555 1_555
C5 C4 1_555 1_555
H2 C5 1_555 1_555
C6 C5 1_555 1_555
C7 C6 1_555 1_555
H3 C7 1_555 1_555
C8 C3 1_555 1_555
H4 C8 1_555 1_555
C9 O3 1_555 1_555
H5 C9 1_555 1_555
H6 C9 1_555 1_555
C10 C9 1_555 1_555
H7 C10 1_555 1_555
H8 C10 1_555 1_555
H9 C10 1_555 1_555
C11 C2 1_555 1_555
C12 N4 1_555 1_555
C13 N3 1_555 1_555
C14 C13 1_555 1_555
C15 C14 1_555 1_555
H10 C15 1_555 1_555
C16 C15 1_555 1_555
H11 C16 1_555 1_555
C17 C16 1_555 1_555
C18 C17 1_555 1_555
H12 C18 1_555 1_555
C19 C14 1_555 1_555
H13 C19 1_555 1_555
C20 C12 1_555 1_555
C21 C20 1_555 1_555
H14 C21 1_555 1_555
C22 C21 1_555 1_555
H15 C22 1_555 1_555
C23 C22 1_555 1_555
C24 C23 1_555 1_555
H16 C24 1_555 1_555
C25 C20 1_555 1_555
H17 C25 1_555 1_555
C26 N4 1_555 1_555
H18 C26 1_555 1_555
H19 C26 1_555 1_555
C27 C26 1_555 1_555
H20 C27 1_555 1_555
C28 C27 1_555 1_555
H21 C28 1_555 1_555
H22 C28 1_555 1_555
H23 C28 1_555 1_555
C29 C27 1_555 1_555
H24 C29 1_555 1_555
H25 C29 1_555 1_555
H26 C29 1_555 1_555
C1 C2 1_555 1_555
C7 C8 1_555 1_555
C12 C13 1_555 1_555
C18 C19 1_555 1_555
C24 C25 1_555 1_555

#END
