
#######################################################################
#
#                 Cambridge Crystallographic Data Centre
#                                CCDC 
#
#######################################################################
#
# If this CIF has been generated from an entry in the Cambridge 
# Structural Database, then it will include bibliographic, chemical, 
# crystal, experimental, refinement or atomic coordinate data resulting 
# from the CCDC's data processing and validation procedures.
#
#######################################################################

data_VEZGAJ
_chemical_formula_moiety         'C32 H26 N4 O3'
_chemical_name_systematic        
4-(1-Benzyl-4,5-diphenyl-1H-imidazol-2-yl)-3-(4-ethoxyphenyl)sydnone
_symmetry_cell_setting           triclinic
_symmetry_space_group_name_H-M   'P -1'
_symmetry_Int_Tables_number      2
_space_group_name_Hall           '-P 1'
loop_
_symmetry_equiv_pos_site_id
_symmetry_equiv_pos_as_xyz
1 x,y,z
2 -x,-y,-z
_cell_length_a                   9.87880(10)
_cell_length_b                   11.2436(2)
_cell_length_c                   12.40500(10)
_cell_angle_alpha                81.4100(8)
_cell_angle_beta                 88.2550(9)
_cell_angle_gamma                88.7470(7)
_cell_volume                     1361.57
_exptl_crystal_colour            yellow
_exptl_crystal_description       needles
_chemical_melting_point          '185-186 deg.C'
_cell_formula_units_Z            2
_exptl_crystal_recrystallization_method 'dichloromethane/ethyl acetate'
loop_
_atom_site_label
_atom_site_type_symbol
_atom_site_fract_x
_atom_site_fract_y
_atom_site_fract_z
O1 O 1.13898(12) 0.06597(12) 0.43857(10)
O2 O 1.14429(12) 0.04019(12) 0.25971(11)
O3 O 0.64918(13) 0.53137(12) 0.61059(10)
N1 N 0.98909(12) 0.20376(12) 0.43958(9)
N2 N 1.06982(15) 0.13550(15) 0.50524(11)
N3 N 0.93251(11) 0.38333(10) 0.23744(9)
N4 N 0.87541(11) 0.22585(10) 0.16019(9)
C1 C 1.09655(15) 0.09325(15) 0.33019(14)
C2 C 0.99908(14) 0.18606(13) 0.33405(11)
C3 C 0.90150(15) 0.28718(15) 0.48739(11)
C4 C 0.95261(16) 0.35318(16) 0.56133(12)
H1 H 1.0426 0.3424 0.5812
C5 C 0.87159(17) 0.43482(17) 0.60586(12)
H2 H 0.9059 0.4787 0.6564
C6 C 0.73842(17) 0.45119(16) 0.57487(12)
C7 C 0.68665(17) 0.38222(18) 0.50143(14)
H3 H 0.5965 0.3921 0.4820
C8 C 0.76762(16) 0.30033(17) 0.45794(13)
H4 H 0.7331 0.2541 0.4092
C9 C 0.6912(2) 0.5998(2) 0.69179(17)
H5 H 0.7683 0.6486 0.6650
H6 H 0.7167 0.5467 0.7573
C10 C 0.5726(3) 0.6781(3) 0.7156(2)
H7 H 0.5961 0.7255 0.7702
H8 H 0.4970 0.6286 0.7415
H9 H 0.5488 0.7303 0.6501
C11 C 0.93656(13) 0.26520(12) 0.24499(10)
C12 C 0.82784(13) 0.32734(12) 0.09401(10)
C13 C 0.86355(13) 0.42338(12) 0.14334(10)
C14 C 0.83986(13) 0.55291(12) 0.10919(11)
C15 C 0.82276(16) 0.62838(14) 0.18762(13)
H10 H 0.8266 0.5964 0.2611
C16 C 0.8001(2) 0.75051(16) 0.15792(17)
H11 H 0.7887 0.8001 0.2113
C17 C 0.79427(19) 0.79873(15) 0.04946(17)
H12 H 0.7788 0.8809 0.0296
C18 C 0.81121(16) 0.72579(15) -0.02922(14)
H13 H 0.8071 0.7586 -0.1025
C19 C 0.83451(14) 0.60324(13) -0.00020(12)
H14 H 0.8466 0.5544 -0.0541
C20 C 0.75038(13) 0.31917(12) -0.00459(10)
C21 C 0.80608(16) 0.26494(14) -0.08985(11)
H15 H 0.8961 0.2388 -0.0880
C22 C 0.72792(19) 0.24978(16) -0.17741(12)
H16 H 0.7647 0.2115 -0.2333
C23 C 0.59578(19) 0.29135(16) -0.18189(13)
H17 H 0.5434 0.2808 -0.2407
C24 C 0.54116(16) 0.34816(15) -0.10012(13)
H18 H 0.4525 0.3776 -0.1043
C25 C 0.61764(14) 0.36179(13) -0.01137(12)
H19 H 0.5797 0.3999 0.0442
C26 C 0.84700(15) 0.10021(12) 0.14965(12)
H20 H 0.9200 0.0488 0.1815
H21 H 0.8446 0.0925 0.0729
C27 C 0.71451(14) 0.05797(12) 0.20469(11)
C28 C 0.59592(17) 0.06278(14) 0.14702(14)
H22 H 0.5969 0.0936 0.0731
C29 C 0.47593(18) 0.02180(17) 0.19903(18)
H23 H 0.3969 0.0252 0.1598
C30 C 0.47294(19) -0.02363(18) 0.30772(18)
H24 H 0.3921 -0.0504 0.3424
C31 C 0.5894(2) -0.02942(19) 0.36499(16)
H25 H 0.5879 -0.0608 0.4388
C32 C 0.70946(17) 0.01110(15) 0.31377(13)
H26 H 0.7881 0.0066 0.3536
loop_
_geom_bond_atom_site_label_1
_geom_bond_atom_site_label_2
_geom_bond_site_symmetry_1
_geom_bond_site_symmetry_2
O1 N2 1_555 1_555
O2 C1 1_555 1_555
O3 C6 1_555 1_555
N1 N2 1_555 1_555
N3 C11 1_555 1_555
N4 C11 1_555 1_555
C1 O1 1_555 1_555
C2 N1 1_555 1_555
C3 N1 1_555 1_555
C4 C3 1_555 1_555
H1 C4 1_555 1_555
C5 C4 1_555 1_555
H2 C5 1_555 1_555
C6 C5 1_555 1_555
C7 C6 1_555 1_555
H3 C7 1_555 1_555
C8 C3 1_555 1_555
H4 C8 1_555 1_555
C9 O3 1_555 1_555
H5 C9 1_555 1_555
H6 C9 1_555 1_555
C10 C9 1_555 1_555
H7 C10 1_555 1_555
H8 C10 1_555 1_555
H9 C10 1_555 1_555
C11 C2 1_555 1_555
C12 N4 1_555 1_555
C13 N3 1_555 1_555
C14 C13 1_555 1_555
C15 C14 1_555 1_555
H10 C15 1_555 1_555
C16 C15 1_555 1_555
H11 C16 1_555 1_555
C17 C16 1_555 1_555
H12 C17 1_555 1_555
C18 C17 1_555 1_555
H13 C18 1_555 1_555
C19 C14 1_555 1_555
H14 C19 1_555 1_555
C20 C12 1_555 1_555
C21 C20 1_555 1_555
H15 C21 1_555 1_555
C22 C21 1_555 1_555
H16 C22 1_555 1_555
C23 C22 1_555 1_555
H17 C23 1_555 1_555
C24 C23 1_555 1_555
H18 C24 1_555 1_555
C25 C20 1_555 1_555
H19 C25 1_555 1_555
C26 N4 1_555 1_555
H20 C26 1_555 1_555
H21 C26 1_555 1_555
C27 C26 1_555 1_555
C28 C27 1_555 1_555
H22 C28 1_555 1_555
C29 C28 1_555 1_555
H23 C29 1_555 1_555
C30 C29 1_555 1_555
H24 C30 1_555 1_555
C31 C30 1_555 1_555
H25 C31 1_555 1_555
C32 C27 1_555 1_555
H26 C32 1_555 1_555
C1 C2 1_555 1_555
C7 C8 1_555 1_555
C12 C13 1_555 1_555
C18 C19 1_555 1_555
C24 C25 1_555 1_555
C31 C32 1_555 1_555

#END
