
#######################################################################
#
#                 Cambridge Crystallographic Data Centre
#                                CCDC 
#
#######################################################################
#
# If this CIF has been generated from an entry in the Cambridge 
# Structural Database, then it will include bibliographic, chemical, 
# crystal, experimental, refinement or atomic coordinate data resulting 
# from the CCDC's data processing and validation procedures.
#
#######################################################################

data_VEZKAM
_chemical_formula_moiety         'C26 H29 Br1 O6'
_chemical_name_systematic        
6-(2-(4-Bromobenzoyloxy)ethyl)-7-benzoyloxy-8-methyl-2,3,4,4a,8,9-hexahydro-(4aS,8S,9aR)-pyrano(3,2-b)oxepin
_symmetry_cell_setting           triclinic
_symmetry_space_group_name_H-M   'P -1'
_symmetry_Int_Tables_number      2
_space_group_name_Hall           '-P 1'
loop_
_symmetry_equiv_pos_site_id
_symmetry_equiv_pos_as_xyz
1 x,y,z
2 -x,-y,-z
_cell_length_a                   14.783(6)
_cell_length_b                   17.449(6)
_cell_length_c                   4.939(2)
_cell_angle_alpha                95.68(3)
_cell_angle_beta                 98.76(3)
_cell_angle_gamma                104.73(4)
_cell_volume                     1205.06
_cell_formula_units_Z            2
loop_
_atom_site_label
_atom_site_type_symbol
_atom_site_fract_x
_atom_site_fract_y
_atom_site_fract_z
Br1 Br 0.46323(7) 0.38370(8) 0.1995(2)
C1 C 1.2496(5) 0.2061(6) -0.525(2)
C2 C 1.2500(6) 0.2903(6) -0.551(2)
C3 C 1.1650(5) 0.3103(5) -0.452(2)
C4 C 1.0741(4) 0.2475(4) -0.590(1)
C5 C 1.0824(5) 0.1631(4) -0.570(2)
C6 C 0.9987(5) 0.0980(4) -0.735(2)
C7 C 0.9006(4) 0.0987(4) -0.672(1)
C8 C 0.8702(4) 0.1683(4) -0.786(1)
C9 C 0.9097(4) 0.2497(4) -0.600(1)
C10 C 0.9057(5) 0.3189(4) -0.758(1)
C11 C 0.9200(5) 0.3959(4) -0.570(2)
C12 C 0.8277(5) 0.4480(4) -0.276(2)
C13 C 0.7401(5) 0.4279(4) -0.159(1)
C14 C 0.7275(7) 0.4869(5) 0.029(2)
C15 C 0.6443(7) 0.4720(5) 0.139(2)
C16 C 0.5797(6) 0.4026(5) 0.056(2)
C17 C 0.5896(6) 0.3432(6) -0.132(2)
C18 C 0.6724(6) 0.3583(5) -0.237(2)
C19 C 0.8296(6) 0.0174(5) -0.788(2)
C20 C 0.7100(5) 0.1291(5) -1.052(1)
C21 C 0.6110(5) 0.1269(4) -1.029(1)
C22 C 0.5392(6) 0.0812(7) -1.219(2)
C23 C 0.4459(6) 0.0782(7) -1.204(2)
C24 C 0.4247(5) 0.1227(5) -1.011(2)
C25 C 0.4952(6) 0.1689(6) -0.815(2)
C26 C 0.5879(6) 0.1688(6) -0.825(2)
O1 O 1.1630(3) 0.1531(3) -0.679(1)
O2 O 1.0018(3) 0.2594(3) -0.4418(8)
O3 O 0.8361(3) 0.3851(3) -0.440(1)
O4 O 0.8878(4) 0.5099(3) -0.230(1)
O5 O 0.7680(3) 0.1568(3) -0.8093(8)
O6 O 0.7343(4) 0.1052(4) -1.255(1)
H1 H 1.0611 0.2543 -0.7861
H2 H 1.0840 0.1574 -0.3722
H3 H 0.9026 0.1061 -0.4741
H4 H 0.8927 0.1687 -0.9617
H5 H 0.8702 0.2528 -0.4630
H6 H 1.2557 0.2072 -0.3218
H7 H 1.3071 0.2004 -0.5710
H8 H 1.2442 0.2994 -0.7522
H9 H 1.3073 0.3332 -0.4629
H10 H 1.1598 0.3629 -0.4860
H11 H 1.1731 0.3095 -0.2582
H12 H 1.0082 0.0457 -0.7191
H13 H 0.9964 0.1035 -0.9327
H14 H 0.8448 0.3060 -0.8814
H15 H 0.9534 0.3239 -0.8757
H16 H 0.9273 0.4413 -0.6716
H17 H 0.9782 0.4068 -0.4340
H18 H 0.7784 0.5384 0.0750
H19 H 0.6361 0.5130 0.2768
H20 H 0.5414 0.2899 -0.1826
H21 H 0.6811 0.3154 -0.3665
H22 H 0.5527 0.0514 -1.3763
H23 H 0.3948 0.0446 -1.3482
H24 H 0.3581 0.1223 -1.0076
H25 H 0.4792 0.1992 -0.6655
H26 H 0.6377 0.2010 -0.6741
H27 H 0.7695 0.0000 -0.7089
H28 H 0.8624 -0.0229 -0.7687
H29 H 0.8101 0.0180 -0.9822
loop_
_geom_bond_atom_site_label_1
_geom_bond_atom_site_label_2
_geom_bond_site_symmetry_1
_geom_bond_site_symmetry_2
Br1 C16 1_555 1_555
C1 C2 1_555 1_555
C2 C3 1_555 1_555
C3 C4 1_555 1_555
C4 C5 1_555 1_555
C5 C6 1_555 1_555
C6 C7 1_555 1_555
C7 C8 1_555 1_555
C8 C9 1_555 1_555
C9 C10 1_555 1_555
C10 C11 1_555 1_555
C11 O3 1_555 1_555
C12 C13 1_555 1_555
C13 C14 1_555 1_555
C14 C15 1_555 1_555
C15 C16 1_555 1_555
C16 C17 1_555 1_555
C17 C18 1_555 1_555
C18 C13 1_555 1_555
C19 C7 1_555 1_555
C20 C21 1_555 1_555
C21 C22 1_555 1_555
C22 C23 1_555 1_555
C23 C24 1_555 1_555
C24 C25 1_555 1_555
C25 C26 1_555 1_555
C26 C21 1_555 1_555
O1 C1 1_555 1_555
O2 C4 1_555 1_555
O3 C12 1_555 1_555
O4 C12 1_555 1_555
O5 C8 1_555 1_555
O6 C20 1_555 1_555
H1 C4 1_555 1_555
H2 C5 1_555 1_555
H3 C7 1_555 1_555
H4 C8 1_555 1_555
H5 C9 1_555 1_555
H6 C1 1_555 1_555
H7 C1 1_555 1_555
H8 C2 1_555 1_555
H9 C2 1_555 1_555
H10 C3 1_555 1_555
H11 C3 1_555 1_555
H12 C6 1_555 1_555
H13 C6 1_555 1_555
H14 C10 1_555 1_555
H15 C10 1_555 1_555
H16 C11 1_555 1_555
H17 C11 1_555 1_555
H18 C14 1_555 1_555
H19 C15 1_555 1_555
H20 C17 1_555 1_555
H21 C18 1_555 1_555
H22 C22 1_555 1_555
H23 C23 1_555 1_555
H24 C24 1_555 1_555
H25 C25 1_555 1_555
H26 C26 1_555 1_555
H27 C19 1_555 1_555
H28 C19 1_555 1_555
H29 C19 1_555 1_555
C5 O1 1_555 1_555
C9 O2 1_555 1_555
C20 O5 1_555 1_555

#END
