
#######################################################################
#
#                 Cambridge Crystallographic Data Centre
#                                CCDC 
#
#######################################################################
#
# If this CIF has been generated from an entry in the Cambridge 
# Structural Database, then it will include bibliographic, chemical, 
# crystal, experimental, refinement or atomic coordinate data resulting 
# from the CCDC's data processing and validation procedures.
#
#######################################################################

data_VICHEV
_chemical_formula_moiety         'C22 H18 N4 O4,C3 H7 N1 O1'
_chemical_name_systematic        
"2-amino-5-(2,3-dimethoxyphenyl)-5,11-dihydro-3H-indeno[2',1':5,6]pyrido[2,3-d]pyrimidine-4,6-dione dimethylformamide solvate"
_symmetry_cell_setting           monoclinic
_symmetry_space_group_name_H-M   'P 21/c'
_symmetry_Int_Tables_number      14
_space_group_name_Hall           '-P 2ybc'
loop_
_symmetry_equiv_pos_site_id
_symmetry_equiv_pos_as_xyz
1 x,y,z
2 -x,1/2+y,1/2-z
3 -x,-y,-z
4 x,1/2-y,1/2+z
_cell_length_a                   11.642(7)
_cell_length_b                   19.256(11)
_cell_length_c                   11.975(7)
_cell_angle_alpha                90
_cell_angle_beta                 118.172(11)
_cell_angle_gamma                90
_cell_volume                     2366.51
_exptl_crystal_colour            yellow
_exptl_crystal_description       block
_cell_formula_units_Z            4
_exptl_crystal_recrystallization_method ethanol/dimethylformamide
loop_
_atom_site_label
_atom_site_type_symbol
_atom_site_fract_x
_atom_site_fract_y
_atom_site_fract_z
N1 N 0.3101(4) 0.51085(17) 0.3795(4)
H1 H 0.2834 0.5344 0.3106
N2 N 0.3112(4) 0.41520(18) 0.2665(4)
N3 N 0.3665(4) 0.30513(18) 0.3657(4)
H2 H 0.3789 0.2618 0.3576
N4 N 0.3067(4) 0.31769(19) 0.1530(4)
H3 H 0.2808 0.3428 0.0860
H4 H 0.3181 0.2738 0.1493
O1 O 0.4177(3) 0.28683(15) 0.5716(3)
O2 O 0.4116(4) 0.54841(17) 0.8077(4)
O3 O 0.3837(3) 0.34369(14) 0.8166(3)
O4 O 0.1756(4) 0.31022(17) 0.8428(4)
C1 C 0.3300(5) 0.4392(2) 0.3811(5)
C2 C 0.3297(5) 0.3473(2) 0.2643(5)
C3 C 0.3851(5) 0.3289(2) 0.4820(5)
C4 C 0.3599(5) 0.4009(2) 0.4872(5)
C5 C 0.3674(5) 0.4301(2) 0.6090(5)
H5 H 0.4485 0.4151 0.6821
C6 C 0.3643(5) 0.5077(2) 0.5993(5)
C7 C 0.3832(5) 0.5586(2) 0.6970(6)
C8 C 0.3582(5) 0.6286(2) 0.6328(5)
C9 C 0.3592(5) 0.6945(2) 0.6792(6)
H6 H 0.3772 0.7012 0.7628
C10 C 0.3321(6) 0.7505(3) 0.5965(6)
H7 H 0.3356 0.7955 0.6265
C11 C 0.3005(5) 0.7405(2) 0.4718(6)
H8 H 0.2782 0.7786 0.4178
C12 C 0.3011(4) 0.6735(2) 0.4235(5)
H9 H 0.2848 0.6669 0.3404
C13 C 0.3272(5) 0.6185(2) 0.5062(5)
C14 C 0.3340(5) 0.5422(2) 0.4898(5)
C15 C 0.2501(5) 0.4046(2) 0.6226(5)
C16 C 0.2614(5) 0.3664(2) 0.7250(5)
C17 C 0.1508(6) 0.3460(2) 0.7323(6)
C18 C 0.0268(6) 0.3612(3) 0.6376(6)
H10 H -0.0464 0.3462 0.6428
C19 C 0.0148(6) 0.3995(3) 0.5347(6)
H11 H -0.0677 0.4110 0.4705
C20 C 0.1234(6) 0.4209(2) 0.5262(5)
H12 H 0.1132 0.4463 0.4561
C21 C 0.4423(5) 0.3849(2) 0.9315(5)
H13 H 0.4514 0.4321 0.9108
H14 H 0.5265 0.3664 0.9882
H15 H 0.3877 0.3836 0.9715
C22 C 0.0689(6) 0.2745(3) 0.8453(6)
H16 H 0.0045 0.3076 0.8392
H17 H 0.0999 0.2491 0.9231
H18 H 0.0308 0.2429 0.7751
N5 N 0.1305(6) 0.5586(3) 0.9438(6)
O5 O 0.2094(6) 0.5839(2) 1.1470(5)
C23 C 0.2159(10) 0.5491(4) 1.0570(9)
H19 H 0.2831 0.5176 1.0761
C24 C 0.0307(8) 0.6076(4) 0.9073(9)
H20 H -0.0180 0.5990 0.9520
H21 H -0.0261 0.6040 0.8178
H22 H 0.0676 0.6534 0.9271
C25 C 0.1251(10) 0.5181(5) 0.8391(8)
H23 H 0.1979 0.4869 0.8699
H24 H 0.1283 0.5487 0.7773
H25 H 0.0455 0.4920 0.8007
loop_
_geom_bond_atom_site_label_1
_geom_bond_atom_site_label_2
_geom_bond_site_symmetry_1
_geom_bond_site_symmetry_2
N1 H1 1_555 1_555
N2 C1 1_555 1_555
N3 H2 1_555 1_555
N4 H3 1_555 1_555
H4 N4 1_555 1_555
N5 C23 1_555 1_555
O1 C3 1_555 1_555
O2 C7 1_555 1_555
O3 C16 1_555 1_555
O4 C17 1_555 1_555
O5 C23 1_555 1_555
C1 N1 1_555 1_555
C2 N2 1_555 1_555
C3 N3 1_555 1_555
C4 C1 1_555 1_555
C5 C4 1_555 1_555
H5 C5 1_555 1_555
C6 C5 1_555 1_555
C7 C6 1_555 1_555
C8 C7 1_555 1_555
C9 C8 1_555 1_555
H6 C9 1_555 1_555
C10 C9 1_555 1_555
H7 C10 1_555 1_555
C11 C10 1_555 1_555
H8 C11 1_555 1_555
C12 C11 1_555 1_555
H9 C12 1_555 1_555
C13 C8 1_555 1_555
C14 N1 1_555 1_555
C15 C5 1_555 1_555
C16 C15 1_555 1_555
C17 C16 1_555 1_555
C18 C17 1_555 1_555
H10 C18 1_555 1_555
C19 C18 1_555 1_555
H11 C19 1_555 1_555
C20 C15 1_555 1_555
H12 C20 1_555 1_555
C21 O3 1_555 1_555
H13 C21 1_555 1_555
H14 C21 1_555 1_555
H15 C21 1_555 1_555
C22 O4 1_555 1_555
H16 C22 1_555 1_555
H17 C22 1_555 1_555
H18 C22 1_555 1_555
C23 H19 1_555 1_555
C24 N5 1_555 1_555
H20 C24 1_555 1_555
H21 C24 1_555 1_555
H22 C24 1_555 1_555
C25 N5 1_555 1_555
H23 C25 1_555 1_555
H24 C25 1_555 1_555
H25 C25 1_555 1_555
N3 C2 1_555 1_555
N4 C2 1_555 1_555
C3 C4 1_555 1_555
C6 C14 1_555 1_555
C12 C13 1_555 1_555
C13 C14 1_555 1_555
C19 C20 1_555 1_555

#END
