
#######################################################################
#
#                 Cambridge Crystallographic Data Centre
#                                CCDC 
#
#######################################################################
#
# If this CIF has been generated from an entry in the Cambridge 
# Structural Database, then it will include bibliographic, chemical, 
# crystal, experimental, refinement or atomic coordinate data resulting 
# from the CCDC's data processing and validation procedures.
#
#######################################################################

data_VIDFAS
_chemical_formula_moiety         'C41 H37 B1 F2 O3'
_chemical_name_systematic        
(3-[4-(hexyloxy)phenyl]-3-oxo-1-[4-(triphenylethenyl)phenyl]prop-1-en-1-olate)(difluoro)boron
_symmetry_cell_setting           triclinic
_symmetry_space_group_name_H-M   'P -1'
_symmetry_Int_Tables_number      2
_space_group_name_Hall           '-P 1'
loop_
_symmetry_equiv_pos_site_id
_symmetry_equiv_pos_as_xyz
1 x,y,z
2 -x,-y,-z
_cell_length_a                   9.163(3)
_cell_length_b                   10.232(3)
_cell_length_c                   17.761(5)
_cell_angle_alpha                79.786(6)
_cell_angle_beta                 81.679(7)
_cell_angle_gamma                88.050(7)
_cell_volume                     1621.5
_exptl_crystal_colour            yellow
_exptl_crystal_description       block
_cell_formula_units_Z            2
loop_
_atom_site_label
_atom_site_type_symbol
_atom_site_fract_x
_atom_site_fract_y
_atom_site_fract_z
F1 F 0.2795(3) 0.1917(2) 0.65107(13)
F2 F 0.4836(3) 0.2336(2) 0.56331(15)
O1 O 0.3783(3) 0.4016(2) 0.62626(17)
O2 O 0.2586(3) 0.3165(2) 0.53024(15)
O3 O -0.0640(3) 0.4929(3) 0.24009(15)
C1 C 0.7359(4) 1.0165(3) 0.6145(2)
H1 H 0.6557 1.0182 0.5860
C2 C 0.8725(4) 1.0551(3) 0.5764(2)
H2 H 0.8855 1.0854 0.5221
C3 C 0.9917(4) 1.0503(4) 0.6167(2)
H3 H 1.0868 1.0760 0.5902
C4 C 0.9705(4) 1.0077(4) 0.6959(2)
H4 H 1.0514 1.0054 0.7240
C5 C 0.8342(4) 0.9687(4) 0.7340(2)
H5 H 0.8220 0.9373 0.7881
C6 C 0.7124(4) 0.9747(3) 0.6939(2)
C7 C 0.5607(4) 0.9329(3) 0.7324(2)
C8 C 0.4900(4) 0.9836(3) 0.7926(2)
C9 C 0.5647(4) 1.0858(3) 0.8255(2)
C10 C 0.5980(4) 1.2118(3) 0.7838(2)
H6 H 0.5726 1.2368 0.7332
C11 C 0.6682(5) 1.3010(4) 0.8162(3)
H7 H 0.6917 1.3869 0.7874
C12 C 0.7044(5) 1.2663(4) 0.8899(3)
H8 H 0.7535 1.3278 0.9115
C13 C 0.6689(4) 1.1413(4) 0.9322(2)
H9 H 0.6933 1.1171 0.9831
C14 C 0.5983(4) 1.0526(4) 0.9004(2)
H10 H 0.5722 0.9677 0.9299
C15 C 0.3365(4) 0.9464(4) 0.8311(2)
C16 C 0.2441(4) 1.0465(4) 0.8534(2)
H11 H 0.2791 1.1351 0.8438
C17 C 0.1006(4) 1.0195(4) 0.8897(2)
H12 H 0.0386 1.0898 0.9043
C18 C 0.0479(4) 0.8928(4) 0.9046(2)
H13 H -0.0504 0.8744 0.9289
C19 C 0.1387(5) 0.7938(4) 0.8838(3)
H14 H 0.1030 0.7054 0.8944
C20 C 0.2824(5) 0.8180(4) 0.8476(2)
H15 H 0.3436 0.7465 0.8341
C21 C 0.4947(4) 0.8285(3) 0.6979(2)
C22 C 0.5562(4) 0.7018(3) 0.7088(2)
H16 H 0.6336 0.6834 0.7395
C23 C 0.5074(4) 0.6021(3) 0.6759(2)
H17 H 0.5496 0.5156 0.6849
C24 C 0.3960(4) 0.6284(3) 0.6293(2)
C25 C 0.3356(4) 0.7564(3) 0.6173(2)
H18 H 0.2611 0.7763 0.5849
C26 C 0.3833(4) 0.8542(3) 0.6521(2)
H19 H 0.3394 0.9401 0.6445
C27 C 0.3507(4) 0.5221(3) 0.5918(2)
C28 C 0.2822(4) 0.5433(3) 0.5270(2)
H20 H 0.2675 0.6316 0.5017
C29 C 0.2343(4) 0.4388(3) 0.4980(2)
C30 C 0.1523(4) 0.4541(3) 0.4328(2)
C31 C 0.1064(4) 0.5795(3) 0.3977(2)
H21 H 0.1274 0.6553 0.4182
C32 C 0.0322(4) 0.5965(4) 0.3349(2)
H22 H 0.0015 0.6825 0.3127
C33 C 0.0027(4) 0.4860(4) 0.3040(2)
C34 C 0.0451(4) 0.3601(3) 0.3379(2)
H23 H 0.0246 0.2846 0.3169
C35 C 0.1169(4) 0.3448(3) 0.4018(2)
H24 H 0.1430 0.2581 0.4254
C36 C -0.1044(7) 0.6222(5) 0.2029(3)
H25 H -0.0274 0.6871 0.2041
H26 H -0.1986 0.6512 0.2302
C37 C -0.1210(7) 0.6153(7) 0.1195(4)
H27 H -0.1151 0.7055 0.0880
H28 H -0.0407 0.5602 0.0973
C38 C -0.2695(8) 0.5545(8) 0.1189(4)
H29 H -0.3487 0.6112 0.1405
H30 H -0.2756 0.4661 0.1525
C39 C -0.2945(9) 0.5396(6) 0.0381(4)
H31 H -0.2093 0.4908 0.0151
H32 H -0.3829 0.4842 0.0426
C40 C -0.3147(6) 0.6644(4) -0.0161(3)
H33 H -0.2293 0.7221 -0.0178
H34 H -0.4036 0.7104 0.0055
C41 C -0.3305(7) 0.6526(5) -0.0977(3)
H35 H -0.2416 0.6107 -0.1211
H36 H -0.3436 0.7412 -0.1277
H37 H -0.4165 0.5982 -0.0975
B1 B 0.3522(5) 0.2831(4) 0.5931(3)
H38? H -0.0189 0.6692 0.1701
H39? H -0.1495 0.6773 0.2408
H40? H -0.2823 0.7545 -0.0133
H41? H -0.4090 0.6450 0.0186
C42? C -0.2326(15) 0.5805(13) 0.1477(6)
H42? H -0.2734 0.4905 0.1672
H43? H -0.3138 0.6465 0.1429
C43? C -0.1284(13) 0.5871(12) 0.0748(6)
H44? H -0.0492 0.5201 0.0835
H45? H -0.0818 0.6756 0.0620
C44? C -0.1998(13) 0.5629(11) 0.0049(7)
H46? H -0.1220 0.5637 -0.0401
H47? H -0.2452 0.4738 0.0171
loop_
_geom_bond_atom_site_label_1
_geom_bond_atom_site_label_2
_geom_bond_site_symmetry_1
_geom_bond_site_symmetry_2
F1 B1 1_555 1_555
F2 B1 1_555 1_555
O1 C27 1_555 1_555
O2 C29 1_555 1_555
O3 C33 1_555 1_555
C1 H1 1_555 1_555
C2 C1 1_555 1_555
H2 C2 1_555 1_555
C3 C2 1_555 1_555
H3 C3 1_555 1_555
C4 C3 1_555 1_555
H4 C4 1_555 1_555
C5 C4 1_555 1_555
H5 C5 1_555 1_555
C6 C1 1_555 1_555
C7 C6 1_555 1_555
C8 C7 1_555 1_555
C9 C8 1_555 1_555
C10 C9 1_555 1_555
H6 C10 1_555 1_555
C11 C10 1_555 1_555
H7 C11 1_555 1_555
C12 C11 1_555 1_555
H8 C12 1_555 1_555
C13 C12 1_555 1_555
H9 C13 1_555 1_555
C14 C9 1_555 1_555
H10 C14 1_555 1_555
C15 C8 1_555 1_555
C16 C15 1_555 1_555
H11 C16 1_555 1_555
C17 C16 1_555 1_555
H12 C17 1_555 1_555
C18 C17 1_555 1_555
H13 C18 1_555 1_555
C19 C18 1_555 1_555
H14 C19 1_555 1_555
C20 C15 1_555 1_555
H15 C20 1_555 1_555
C21 C7 1_555 1_555
C22 C21 1_555 1_555
H16 C22 1_555 1_555
C23 C22 1_555 1_555
H17 C23 1_555 1_555
C24 C23 1_555 1_555
C25 C24 1_555 1_555
H18 C25 1_555 1_555
C26 C21 1_555 1_555
H19 C26 1_555 1_555
C27 C24 1_555 1_555
C28 C27 1_555 1_555
H20 C28 1_555 1_555
C29 C28 1_555 1_555
C30 C29 1_555 1_555
C31 C30 1_555 1_555
H21 C31 1_555 1_555
C32 C31 1_555 1_555
H22 C32 1_555 1_555
C33 C32 1_555 1_555
C34 C33 1_555 1_555
H23 C34 1_555 1_555
C35 C30 1_555 1_555
H24 C35 1_555 1_555
C36 O3 1_555 1_555
H25 C36 1_555 1_555
H26 C36 1_555 1_555
C37 C36 1_555 1_555
H27 C37 1_555 1_555
H28 C37 1_555 1_555
C38 C37 1_555 1_555
H29 C38 1_555 1_555
H30 C38 1_555 1_555
C39 C38 1_555 1_555
H31 C39 1_555 1_555
H32 C39 1_555 1_555
C40 C39 1_555 1_555
H33 C40 1_555 1_555
H34 C40 1_555 1_555
C41 C40 1_555 1_555
H35 C41 1_555 1_555
H36 C41 1_555 1_555
H37 C41 1_555 1_555
B1 O1 1_555 1_555
O2 B1 1_555 1_555
C5 C6 1_555 1_555
C13 C14 1_555 1_555
C19 C20 1_555 1_555
C25 C26 1_555 1_555
C34 C35 1_555 1_555

#END
