
#######################################################################
#
#                 Cambridge Crystallographic Data Centre
#                                CCDC 
#
#######################################################################
#
# If this CIF has been generated from an entry in the Cambridge 
# Structural Database, then it will include bibliographic, chemical, 
# crystal, experimental, refinement or atomic coordinate data resulting 
# from the CCDC's data processing and validation procedures.
#
#######################################################################

data_VIDHAR10
_chemical_formula_moiety         'C8 H10 N2 O2'
_chemical_name_systematic        
1,3-Diazatricyclo(5.2.1.0^5,10^)decane-2,4-dione
_symmetry_cell_setting           monoclinic
_symmetry_space_group_name_H-M   'P 21/n'
_symmetry_Int_Tables_number      14
_space_group_name_Hall           '-P 2yn'
loop_
_symmetry_equiv_pos_site_id
_symmetry_equiv_pos_as_xyz
1 x,y,z
2 1/2-x,1/2+y,1/2-z
3 -x,-y,-z
4 1/2+x,1/2-y,1/2+z
_cell_length_a                   6.585(7)
_cell_length_b                   9.089(4)
_cell_length_c                   12.937(10)
_cell_angle_alpha                90
_cell_angle_beta                 95.72(5)
_cell_angle_gamma                90
_cell_volume                     770.438
_exptl_crystal_colour            white
_cell_formula_units_Z            4
loop_
_atom_site_label
_atom_site_type_symbol
_atom_site_fract_x
_atom_site_fract_y
_atom_site_fract_z
O1 O 0.4913(3) 0.3069(2) 0.4830(2)
O2 O 0.0281(3) 0.6245(2) 0.3407(2)
N1 N 0.1757(3) 0.2140(2) 0.4426(2)
C1 C 0.3102(4) 0.3251(2) 0.4560(2)
N2 N 0.2317(3) 0.4663(3) 0.4368(2)
C2 C 0.0609(4) 0.4999(3) 0.3706(2)
C3 C -0.0754(4) 0.3703(2) 0.3432(2)
C4 C -0.0410(5) 0.2687(4) 0.2509(2)
C5 C -0.0814(5) 0.1352(4) 0.3194(2)
C6 C 0.0714(5) 0.0096(4) 0.3343(3)
C7 C 0.2438(5) 0.0663(4) 0.4122(3)
C8 C -0.0447(3) 0.2372(3) 0.4139(2)
H1 H 0.322(4) 0.539(3) 0.453(2)
H2 H -0.211(4) 0.403(3) 0.337(2)
H3 H 0.117(4) 0.263(3) 0.238(2)
H4 H -0.132(4) 0.284(3) 0.194(2)
H5 H -0.218(4) 0.100(3) 0.307(2)
H6 H 0.009(4) -0.080(3) 0.360(2)
H7 H 0.123(5) -0.023(4) 0.271(2)
H8 H 0.368(5) 0.077(4) 0.377(2)
H9 H 0.263(4) 0.009(3) 0.471(2)
H10 H -0.131(4) 0.229(3) 0.478(2)
loop_
_geom_bond_atom_site_label_1
_geom_bond_atom_site_label_2
_geom_bond_site_symmetry_1
_geom_bond_site_symmetry_2
O1 C1 1_555 1_555
O2 C2 1_555 1_555
N1 C1 1_555 1_555
C1 N2 1_555 1_555
N2 C2 1_555 1_555
C2 C3 1_555 1_555
C3 C4 1_555 1_555
C4 C5 1_555 1_555
C5 C6 1_555 1_555
C6 C7 1_555 1_555
C7 N1 1_555 1_555
C8 N1 1_555 1_555
H1 N2 1_555 1_555
H2 C3 1_555 1_555
H3 C4 1_555 1_555
H4 C4 1_555 1_555
H5 C5 1_555 1_555
H6 C6 1_555 1_555
H7 C6 1_555 1_555
H8 C7 1_555 1_555
H9 C7 1_555 1_555
H10 C8 1_555 1_555
C3 C8 1_555 1_555
C5 C8 1_555 1_555

#END
