
#######################################################################
#
#                 Cambridge Crystallographic Data Centre
#                                CCDC 
#
#######################################################################
#
# If this CIF has been generated from an entry in the Cambridge 
# Structural Database, then it will include bibliographic, chemical, 
# crystal, experimental, refinement or atomic coordinate data resulting 
# from the CCDC's data processing and validation procedures.
#
#######################################################################

data_VIDTOT
_chemical_formula_moiety         'C43 H39 B1 F2 N2 Si1'
_chemical_name_systematic        
2-(4-(Cyclohexa-2,5-dien-1-yl(diphenyl)silyl)phenyl)-5,5-difluoro-1,3,7,9-tetramethyl-10-phenyl-5H-4\l^5^,5\l^5^-dipyrrolo[1,2-c:2',1'-f][1,3,2]diazaborinine
_symmetry_cell_setting           triclinic
_symmetry_space_group_name_H-M   'P -1'
_symmetry_Int_Tables_number      2
_space_group_name_Hall           '-P 1'
loop_
_symmetry_equiv_pos_site_id
_symmetry_equiv_pos_as_xyz
1 x,y,z
2 -x,-y,-z
_cell_length_a                   7.3278(7)
_cell_length_b                   10.7918(10)
_cell_length_c                   24.332(2)
_cell_angle_alpha                82.709(2)
_cell_angle_beta                 83.201(2)
_cell_angle_gamma                72.006(2)
_cell_volume                     1808.86
_cell_formula_units_Z            2
loop_
_atom_site_label
_atom_site_type_symbol
_atom_site_fract_x
_atom_site_fract_y
_atom_site_fract_z
F1 F 0.7824(4) 0.26667(19) 0.12185(11)
F2 F 0.9114(3) 0.2842(2) 0.19925(9)
N1 N 0.9935(4) 0.4003(2) 0.11462(10)
N2 N 0.6658(4) 0.46957(19) 0.16248(10)
Si1 Si -0.34916(13) 0.71915(10) 0.35977(4)
B1 B 0.8385(6) 0.3493(3) 0.14987(16)
C1 C 1.2144(5) 0.6527(3) 0.03974(16)
H1 H 1.3523 0.6293 0.0345
H2 H 1.1668 0.7244 0.0624
H3 H 1.1619 0.6781 0.0043
C2 C 1.1543(5) 0.5364(3) 0.06812(13)
C3 C 1.2726(5) 0.4089(3) 0.07136(14)
H4 H 1.4000 0.3817 0.0566
C4 C 1.1727(5) 0.3281(3) 0.09993(13)
C5 C 1.2413(6) 0.1820(3) 0.11348(16)
H5 H 1.2227 0.1612 0.1529
H6 H 1.3757 0.1498 0.1015
H7 H 1.1696 0.1419 0.0947
C6 C 0.9755(4) 0.5310(2) 0.09555(11)
C7 C 0.8020(4) 0.6285(2) 0.10938(10)
C8 C 0.7922(4) 0.7681(2) 0.09243(11)
C9 C 0.7550(5) 0.8240(3) 0.03886(12)
H8 H 0.7346 0.7747 0.0128
C10 C 0.7482(6) 0.9531(3) 0.02429(14)
H9 H 0.7211 0.9910 -0.0115
C11 C 0.7811(5) 1.0260(3) 0.06233(16)
H10 H 0.7796 1.1123 0.0521
C12 C 0.8161(5) 0.9714(3) 0.11521(15)
H11 H 0.8362 1.0211 0.1411
C13 C 0.8217(4) 0.8423(3) 0.13046(12)
H12 H 0.8456 0.8057 0.1666
C14 C 0.6473(4) 0.5988(2) 0.14143(11)
C15 C 0.4638(4) 0.6781(2) 0.16090(11)
C16 C 0.3758(5) 0.8227(3) 0.14648(13)
H13 H 0.2384 0.8448 0.1536
H14 H 0.4082 0.8449 0.1079
H15 H 0.4246 0.8705 0.1688
C17 C 0.3744(4) 0.5954(3) 0.19431(12)
C18 C 0.5037(5) 0.4666(3) 0.19412(13)
C19 C 0.4765(6) 0.3433(3) 0.22410(17)
H16 H 0.4450 0.2941 0.1984
H17 H 0.3738 0.3642 0.2530
H18 H 0.5933 0.2923 0.2402
C20 C 0.1865(4) 0.6314(3) 0.22785(12)
C21 C 0.1371(5) 0.7390(3) 0.25897(13)
H19 H 0.2151 0.7936 0.2553
C22 C -0.0273(5) 0.7646(3) 0.29518(14)
H20 H -0.0578 0.8371 0.3153
C23 C 0.0603(5) 0.5561(3) 0.23255(13)
H21 H 0.0863 0.4869 0.2107
C24 C -0.1037(5) 0.5831(3) 0.26939(14)
H22 H -0.1852 0.5310 0.2718
C25 C -0.1497(5) 0.6857(3) 0.30279(13)
C26 C -0.2469(5) 0.7633(4) 0.41930(14)
C27 C -0.0899(6) 0.6762(5) 0.44262(18)
H23 H -0.0384 0.5934 0.4302
C28 C -0.0071(8) 0.7102(6) 0.4846(2)
H24 H 0.1002 0.6500 0.4995
C29 C -0.0790(8) 0.8289(7) 0.50426(19)
H25 H -0.0244 0.8494 0.5332
C30 C -0.2340(8) 0.9188(6) 0.4809(2)
H26 H -0.2834 1.0017 0.4933
C31 C -0.3154(6) 0.8860(5) 0.43940(18)
H27 H -0.4204 0.9478 0.4240
C32 C -0.5556(5) 0.8632(3) 0.33782(13)
C33 C -0.5422(7) 0.9453(4) 0.28948(17)
H28 H -0.4297 0.9265 0.2659
C34 C -0.6943(9) 1.0544(4) 0.2762(2)
H29 H -0.6823 1.1083 0.2438
C35 C -0.8621(9) 1.0844(4) 0.3097(3)
H30 H -0.9638 1.1579 0.3004
C36 C -0.8779(7) 1.0053(4) 0.3569(2)
H31 H -0.9918 1.0242 0.3798
C37 C -0.7271(5) 0.8976(4) 0.37096(15)
H32 H -0.7407 0.8460 0.4039
C38 C -0.4298(5) 0.5708(4) 0.38022(17)
C39 C -0.5694(10) 0.5435(5) 0.3628(3)
H33 H -0.6391 0.6050 0.3367
C40 C -0.6305(10) 0.4356(6) 0.3776(3)
H34 H -0.7414 0.4321 0.3636
C41 C -0.5426(11) 0.3411(7) 0.4067(4)
H35 H -0.5986 0.2910 0.4333
C42 C -0.5024(14) 0.4165(9) 0.4598(4)
H36 H -0.5216 0.3883 0.4972
C43 C -0.4298(12) 0.5264(9) 0.4438(3)
H37 H -0.3876 0.5688 0.4684
C44? C -0.3400(13) 0.3240(8) 0.3959(4)
H38? H -0.2509 0.2412 0.3951
C45? C -0.2865(12) 0.4382(8) 0.3859(4)
H39? H -0.1560 0.4311 0.3822
loop_
_geom_bond_atom_site_label_1
_geom_bond_atom_site_label_2
_geom_bond_site_symmetry_1
_geom_bond_site_symmetry_2
F1 B1 1_555 1_555
F2 B1 1_555 1_555
N1 B1 1_555 1_555
N2 B1 1_555 1_555
Si1 C25 1_555 1_555
C1 H1 1_555 1_555
H2 C1 1_555 1_555
H3 C1 1_555 1_555
C2 C1 1_555 1_555
C3 C2 1_555 1_555
H4 C3 1_555 1_555
C4 N1 1_555 1_555
C5 C4 1_555 1_555
H5 C5 1_555 1_555
H6 C5 1_555 1_555
H7 C5 1_555 1_555
C6 N1 1_555 1_555
C7 C6 1_555 1_555
C8 C7 1_555 1_555
C9 C8 1_555 1_555
H8 C9 1_555 1_555
C10 C9 1_555 1_555
H9 C10 1_555 1_555
C11 C10 1_555 1_555
H10 C11 1_555 1_555
C12 C11 1_555 1_555
H11 C12 1_555 1_555
C13 C8 1_555 1_555
H12 C13 1_555 1_555
C14 N2 1_555 1_555
C15 C14 1_555 1_555
C16 C15 1_555 1_555
H13 C16 1_555 1_555
H14 C16 1_555 1_555
H15 C16 1_555 1_555
C17 C15 1_555 1_555
C18 N2 1_555 1_555
C19 C18 1_555 1_555
H16 C19 1_555 1_555
H17 C19 1_555 1_555
H18 C19 1_555 1_555
C20 C17 1_555 1_555
C21 C20 1_555 1_555
H19 C21 1_555 1_555
C22 C21 1_555 1_555
H20 C22 1_555 1_555
C23 C20 1_555 1_555
H21 C23 1_555 1_555
C24 C23 1_555 1_555
H22 C24 1_555 1_555
C25 C22 1_555 1_555
C26 Si1 1_555 1_555
C27 C26 1_555 1_555
H23 C27 1_555 1_555
C28 C27 1_555 1_555
H24 C28 1_555 1_555
C29 C28 1_555 1_555
H25 C29 1_555 1_555
C30 C29 1_555 1_555
H26 C30 1_555 1_555
C31 C26 1_555 1_555
H27 C31 1_555 1_555
C32 Si1 1_555 1_555
C33 C32 1_555 1_555
H28 C33 1_555 1_555
C34 C33 1_555 1_555
H29 C34 1_555 1_555
C35 C34 1_555 1_555
H30 C35 1_555 1_555
C36 C35 1_555 1_555
H31 C36 1_555 1_555
C37 C32 1_555 1_555
H32 C37 1_555 1_555
C38 Si1 1_555 1_555
C39 C38 1_555 1_555
H33 C39 1_555 1_555
C40 C39 1_555 1_555
H34 C40 1_555 1_555
C41 C40 1_555 1_555
H35 C41 1_555 1_555
C42 C41 1_555 1_555
H36 C42 1_555 1_555
C43 C38 1_555 1_555
H37 C43 1_555 1_555
C2 C6 1_555 1_555
C3 C4 1_555 1_555
C7 C14 1_555 1_555
C12 C13 1_555 1_555
C17 C18 1_555 1_555
C24 C25 1_555 1_555
C30 C31 1_555 1_555
C36 C37 1_555 1_555
C42 C43 1_555 1_555

#END
