
#######################################################################
#
#                 Cambridge Crystallographic Data Centre
#                                CCDC 
#
#######################################################################
#
# If this CIF has been generated from an entry in the Cambridge 
# Structural Database, then it will include bibliographic, chemical, 
# crystal, experimental, refinement or atomic coordinate data resulting 
# from the CCDC's data processing and validation procedures.
#
#######################################################################

data_VIDXEN
_chemical_formula_moiety         'C26 H18 F6 S5'
_chemical_name_systematic        
2-(2-(2,5-Dimethyl-3-thienyl)-3,3,4,4,5,5-hexafluorocyclopent-1-en-1-yl)-3,5-dimethyl-6-(5-methyl-2-thienyl)bisthieno[3,2-b:2',3'-d]thiophene
_symmetry_cell_setting           triclinic
_symmetry_space_group_name_H-M   'P -1'
_symmetry_Int_Tables_number      2
_space_group_name_Hall           '-P 1'
loop_
_symmetry_equiv_pos_site_id
_symmetry_equiv_pos_as_xyz
1 x,y,z
2 -x,-y,-z
_cell_length_a                   8.3470(1)
_cell_length_b                   8.9697(2)
_cell_length_c                   18.5753(5)
_cell_angle_alpha                83.975(7)
_cell_angle_beta                 77.106(8)
_cell_angle_gamma                75.289(6)
_cell_volume                     1309.5
_exptl_crystal_colour            yellow
_exptl_crystal_description       block
_cell_formula_units_Z            2
loop_
_atom_site_label
_atom_site_type_symbol
_atom_site_fract_x
_atom_site_fract_y
_atom_site_fract_z
S1 S 0.29053(9) -0.02827(9) 0.47897(4)
S2 S 0.04014(8) 0.04183(8) 0.18082(4)
S3 S 0.56097(8) 0.01132(8) 0.12165(4)
S4 S 0.20235(10) 0.30731(9) 0.01385(4)
S5 S 0.58906(11) 0.49510(10) -0.14049(4)
F1 F -0.1143(2) -0.3404(2) 0.46884(9)
F2 F 0.0600(2) -0.49557(19) 0.38917(10)
F3 F -0.3157(2) -0.2241(3) 0.38200(11)
F4 F -0.2176(3) -0.4506(3) 0.33812(13)
F5 F -0.2120(2) -0.1345(3) 0.25020(13)
F6 F -0.0291(3) -0.3502(3) 0.22323(12)
C1 C 0.3280(3) -0.2247(4) 0.50036(16)
C2 C 0.2473(3) -0.2905(3) 0.46123(15)
H1 H 0.2508 -0.3977 0.4657
C3 C 0.1562(3) -0.1844(3) 0.41252(15)
C4 C 0.1671(3) -0.0355(3) 0.41702(15)
C5 C 0.4336(4) -0.2978(4) 0.55568(19)
H2 H 0.3842 -0.2496 0.6031
H3 H 0.5487 -0.2834 0.5381
H4 H 0.4373 -0.4084 0.5621
C6 C 0.0852(4) 0.1096(3) 0.37917(17)
H5 H 0.0679 0.1969 0.4100
H6 H -0.0243 0.1008 0.3714
H7 H 0.1581 0.1265 0.3313
C7 C 0.0585(3) -0.2300(3) 0.36658(15)
C8 C -0.0402(3) -0.3504(3) 0.39617(16)
C9 C -0.1729(4) -0.3243(4) 0.34831(19)
C10 C -0.0935(4) -0.2464(4) 0.27641(18)
C11 C 0.0414(3) -0.1841(3) 0.29628(15)
C12 C 0.1384(3) -0.0974(3) 0.24127(15)
C13 C 0.3130(3) -0.1167(3) 0.22670(15)
C14 C 0.3627(3) -0.0163(3) 0.16732(15)
C15 C 0.2320(3) 0.0775(3) 0.13673(15)
C16 C 0.2907(4) 0.1721(3) 0.07547(15)
C17 C 0.4649(4) 0.1483(3) 0.06079(15)
C18 C 0.5316(4) 0.2388(3) -0.00081(16)
C19 C 0.4038(4) 0.3303(3) -0.03228(16)
C20 C 0.4340(3) -0.2299(3) 0.26597(15)
H8 H 0.5392 -0.2693 0.2307
H9 H 0.3836 -0.3159 0.2880
H10 H 0.4585 -0.1788 0.3050
C21 C 0.7184(4) 0.2301(4) -0.02418(18)
H11 H 0.7810 0.1423 0.0023
H12 H 0.7415 0.3257 -0.0125
H13 H 0.7542 0.2168 -0.0775
C22 C 0.4074(4) 0.4363(3) -0.09682(16)
C23 C 0.2853(4) 0.5113(4) -0.13211(15)
H14 H 0.1731 0.4987 -0.1154
C24 C 0.3234(4) 0.6067(4) -0.19275(18)
H15 H 0.2456 0.6605 -0.2224
C25 C 0.4863(4) 0.6134(3) -0.20429(16)
C26 C 0.5852(5) 0.7013(4) -0.26429(19)
H16 H 0.6650 0.7392 -0.2437
H17 H 0.5071 0.7889 -0.2838
H18 H 0.6477 0.6328 -0.3042
loop_
_geom_bond_atom_site_label_1
_geom_bond_atom_site_label_2
_geom_bond_site_symmetry_1
_geom_bond_site_symmetry_2
S1 C1 1_555 1_555
S2 C12 1_555 1_555
S3 C14 1_555 1_555
S4 C16 1_555 1_555
S5 C22 1_555 1_555
F1 C8 1_555 1_555
F2 C8 1_555 1_555
F3 C9 1_555 1_555
F4 C9 1_555 1_555
F5 C10 1_555 1_555
F6 C10 1_555 1_555
C1 C2 1_555 1_555
C2 H1 1_555 1_555
C3 C2 1_555 1_555
C4 S1 1_555 1_555
C5 C1 1_555 1_555
H2 C5 1_555 1_555
H3 C5 1_555 1_555
H4 C5 1_555 1_555
C6 C4 1_555 1_555
H5 C6 1_555 1_555
H6 C6 1_555 1_555
H7 C6 1_555 1_555
C7 C3 1_555 1_555
C8 C7 1_555 1_555
C9 C8 1_555 1_555
C10 C9 1_555 1_555
C11 C7 1_555 1_555
C12 C11 1_555 1_555
C13 C12 1_555 1_555
C14 C13 1_555 1_555
C15 S2 1_555 1_555
C16 C15 1_555 1_555
C17 S3 1_555 1_555
C18 C17 1_555 1_555
C19 S4 1_555 1_555
C20 C13 1_555 1_555
H8 C20 1_555 1_555
H9 C20 1_555 1_555
H10 C20 1_555 1_555
C21 C18 1_555 1_555
H11 C21 1_555 1_555
H12 C21 1_555 1_555
H13 C21 1_555 1_555
C22 C19 1_555 1_555
C23 C22 1_555 1_555
H14 C23 1_555 1_555
C24 C23 1_555 1_555
H15 C24 1_555 1_555
C25 S5 1_555 1_555
C26 C25 1_555 1_555
H16 C26 1_555 1_555
H17 C26 1_555 1_555
H18 C26 1_555 1_555
C3 C4 1_555 1_555
C10 C11 1_555 1_555
C14 C15 1_555 1_555
C16 C17 1_555 1_555
C18 C19 1_555 1_555
C24 C25 1_555 1_555

#END
