
#######################################################################
#
#                 Cambridge Crystallographic Data Centre
#                                CCDC 
#
#######################################################################
#
# If this CIF has been generated from an entry in the Cambridge 
# Structural Database, then it will include bibliographic, chemical, 
# crystal, experimental, refinement or atomic coordinate data resulting 
# from the CCDC's data processing and validation procedures.
#
#######################################################################

data_VIDYOZ
_chemical_formula_moiety         'C54 H46 O6'
_chemical_name_systematic        
4,4'-(1,3,12,14-tetramethoxyhexabenzo[a,cd,f,j,lm,o]perylene-5,10-diyl)bis(butan-1-ol)
_symmetry_cell_setting           triclinic
_symmetry_space_group_name_H-M   'P -1'
_symmetry_Int_Tables_number      2
_space_group_name_Hall           '-P 1'
loop_
_symmetry_equiv_pos_site_id
_symmetry_equiv_pos_as_xyz
1 x,y,z
2 -x,-y,-z
_cell_length_a                   8.5176(9)
_cell_length_b                   16.6522(15)
_cell_length_c                   29.005(3)
_cell_angle_alpha                90.729(3)
_cell_angle_beta                 92.772(3)
_cell_angle_gamma                100.351(3)
_cell_volume                     4041.33
_exptl_crystal_colour            red
_exptl_crystal_description       block
_cell_formula_units_Z            4
loop_
_atom_site_label
_atom_site_type_symbol
_atom_site_fract_x
_atom_site_fract_y
_atom_site_fract_z
O1 O -0.4876(7) 0.4665(3) -0.12383(19)
O2 O -0.3060(8) 0.4192(3) 0.02954(18)
O3 O -0.1107(11) 0.5294(5) 0.2882(3)
H1 H -0.1051 0.5174 0.3155
O4 O 0.1865(8) 0.7779(4) 0.2597(3)
H2 H 0.2534 0.7649 0.2431
O5 O 0.3532(6) 1.0731(3) 0.05278(16)
O6 O 0.3885(6) 1.0647(3) -0.11061(16)
C1 C -0.5803(11) 0.3867(5) -0.1262(3)
H3 H -0.6307 0.3763 -0.1566
H4 H -0.5124 0.3476 -0.1199
H5 H -0.6606 0.3823 -0.1038
C2 C -0.3767(12) 0.3362(4) 0.0251(3)
H6 H -0.3649 0.3101 0.0540
H7 H -0.4883 0.3316 0.0164
H8 H -0.3254 0.3104 0.0018
C3 C -0.4049(8) 0.4947(4) -0.0839(3)
C4 C -0.4014(8) 0.4445(4) -0.0476(3)
H9 H -0.4626 0.3923 -0.0495
C5 C -0.3076(8) 0.4697(4) -0.0074(2)
C6 C -0.2122(7) 0.5482(4) -0.0025(2)
C7 C -0.2210(7) 0.6006(3) -0.0410(2)
C8 C -0.3230(7) 0.5742(4) -0.0816(2)
C9 C -0.3387(8) 0.6352(4) -0.1173(2)
C10 C -0.4657(11) 0.6248(6) -0.1514(3)
H10 H -0.5392 0.5762 -0.1531
C11 C -0.4826(12) 0.6848(6) -0.1819(3)
H11 H -0.5638 0.6752 -0.2049
C12 C -0.3845(11) 0.7570(5) -0.1792(3)
H12 H -0.4022 0.7982 -0.1991
C13 C -0.2589(9) 0.7711(4) -0.1476(2)
H13 H -0.1904 0.8213 -0.1467
C14 C -0.2308(8) 0.7106(4) -0.1162(2)
C15 C -0.1105(7) 0.7287(3) -0.07895(19)
C16 C -0.1240(7) 0.6814(3) -0.0389(2)
C17 C -0.0415(6) 0.7134(3) 0.00329(18)
C18 C -0.0183(7) 0.6574(3) 0.0392(2)
C19 C 0.0969(7) 0.6812(4) 0.0755(2)
H14 H 0.1585 0.7334 0.0757
C20 C 0.1205(7) 0.6293(4) 0.1105(2)
H15 H 0.1959 0.6472 0.1344
C21 C 0.0341(8) 0.5513(4) 0.1107(2)
C22 C -0.0708(8) 0.5249(4) 0.0738(2)
H16 H -0.1232 0.4708 0.0729
C23 C -0.1031(7) 0.5759(3) 0.0371(2)
C24 C 0.0475(9) 0.4940(4) 0.1500(2)
H17 H 0.1568 0.5033 0.1628
H18 H 0.0213 0.4381 0.1384
C25 C -0.0642(9) 0.5063(4) 0.1880(2)
H19 H -0.0263 0.5593 0.2028
H20 H -0.1697 0.5069 0.1740
C26 C -0.0779(14) 0.4444(7) 0.2233(4)
H21 H 0.0276 0.4437 0.2373
H22 H -0.1161 0.3914 0.2085
C27 C -0.1877(14) 0.4569(6) 0.2605(3)
H23 H -0.2898 0.4653 0.2470
H24 H -0.2060 0.4094 0.2799
C28 C 0.0160(6) 0.7982(3) 0.00554(18)
C29 C 0.0262(6) 0.8477(3) 0.04792(18)
C30 C -0.0686(7) 0.8200(3) 0.0850(2)
H25 H -0.1382 0.7701 0.0817
C31 C -0.0629(7) 0.8628(4) 0.1254(2)
H26 H -0.1263 0.8420 0.1493
C32 C 0.0400(7) 0.9389(3) 0.1308(2)
C33 C 0.1230(7) 0.9703(3) 0.0930(2)
H27 H 0.1838 1.0226 0.0956
C34 C 0.1193(6) 0.9265(3) 0.05096(18)
C35 C 0.2009(6) 0.9603(3) 0.01031(19)
C36 C 0.3066(7) 1.0350(4) 0.0108(2)
C37 C 0.3662(8) 1.0687(4) -0.0289(2)
H28 H 0.4326 1.1196 -0.0273
C38 C 0.3308(7) 1.0293(4) -0.0714(2)
C39 C 0.2366(6) 0.9507(3) -0.0747(2)
C40 C 0.1680(6) 0.9174(3) -0.03317(19)
C41 C 0.0671(6) 0.8381(3) -0.03515(18)
C42 C 0.0164(7) 0.7978(3) -0.07856(19)
C43 C 0.1037(7) 0.8252(3) -0.1191(2)
C44 C 0.0947(9) 0.7736(4) -0.1578(2)
H29 H 0.0294 0.7224 -0.1579
C45 C 0.1814(11) 0.7973(5) -0.1962(2)
H30 H 0.1697 0.7633 -0.2223
C46 C 0.2833(11) 0.8702(5) -0.1957(2)
H31 H 0.3418 0.8859 -0.2214
C47 C 0.2993(9) 0.9202(4) -0.1575(2)
H32 H 0.3702 0.9697 -0.1577
C48 C 0.2125(7) 0.8996(4) -0.1178(2)
C49 C 0.4427(9) 1.1534(4) 0.0532(3)
H33 H 0.4672 1.1725 0.0846
H34 H 0.5403 1.1534 0.0379
H35 H 0.3815 1.1887 0.0374
C50 C 0.4904(10) 1.1432(5) -0.1072(3)
H36 H 0.5216 1.1603 -0.1374
H37 H 0.4341 1.1821 -0.0939
H38 H 0.5839 1.1399 -0.0880
C51 C 0.0645(9) 0.9851(4) 0.1758(2)
H39 H -0.0208 0.9636 0.1957
H40 H 0.0603 1.0421 0.1706
C52 C 0.2259(10) 0.9782(5) 0.1997(3)
H41 H 0.3096 1.0027 0.1800
H42 H 0.2383 1.0104 0.2282
C53 C 0.2515(10) 0.8961(6) 0.2106(3)
H43 H 0.3615 0.8996 0.2221
H44 H 0.2374 0.8635 0.1823
C54 C 0.1465(10) 0.8531(6) 0.2447(3)
H45 H 0.1489 0.8889 0.2715
H46 H 0.0378 0.8425 0.2315
O7 O 0.0828(6) -0.0575(3) 0.37919(18)
O8 O 0.1670(7) -0.0683(3) 0.54234(19)
O9 O 0.2947(9) 0.2257(4) 0.7641(2)
H47 H 0.3862 0.2512 0.7681
O10 O 0.6027(9) 0.3116(5) 0.7773(3)
H48 H 0.5085 0.2914 0.7717
O11 O 0.7893(6) 0.5900(3) 0.53800(17)
O12 O 0.9610(6) 0.5394(3) 0.38835(16)
C55 C -0.0200(11) -0.1359(6) 0.3808(4)
H49 H -0.0588 -0.1538 0.3500
H50 H 0.0389 -0.1747 0.3940
H51 H -0.1087 -0.1317 0.3993
C56 C 0.0773(10) -0.1497(5) 0.5415(4)
H52 H 0.0655 -0.1684 0.5725
H53 H -0.0264 -0.1503 0.5268
H54 H 0.1325 -0.1851 0.5246
C57 C 0.1504(8) -0.0220(4) 0.4209(2)
C58 C 0.1276(9) -0.0624(4) 0.4620(3)
H55 H 0.0620 -0.1135 0.4620
C59 C 0.1983(9) -0.0296(4) 0.5025(2)
C60 C 0.3037(7) 0.0458(3) 0.5043(2)
C61 C 0.3217(7) 0.0877(3) 0.4617(2)
C62 C 0.2444(7) 0.0564(4) 0.4196(2)
C63 C 0.2574(8) 0.1061(4) 0.3786(2)
C64 C 0.1583(9) 0.0885(5) 0.3369(3)
H56 H 0.0816 0.0410 0.3354
C65 C 0.1706(11) 0.1373(6) 0.2997(3)
H57 H 0.1078 0.1213 0.2729
C66 C 0.2751(12) 0.2100(6) 0.3016(3)
H58 H 0.2791 0.2446 0.2766
C67 C 0.3746(9) 0.2324(4) 0.3403(2)
H59 H 0.4452 0.2820 0.3411
C68 C 0.3705(8) 0.1810(4) 0.3784(2)
C69 C 0.4653(8) 0.2087(4) 0.4205(2)
C70 C 0.4257(7) 0.1688(3) 0.46221(19)
C71 C 0.4839(7) 0.2071(3) 0.50517(19)
C72 C 0.4863(6) 0.1584(3) 0.54570(18)
C73 C 0.5896(7) 0.1872(3) 0.5840(2)
H60 H 0.6564 0.2377 0.5824
C74 C 0.5952(7) 0.1444(4) 0.6228(2)
H61 H 0.6642 0.1657 0.6475
C75 C 0.4966(8) 0.0668(4) 0.6262(2)
C76 C 0.4044(8) 0.0372(4) 0.5881(2)
H62 H 0.3419 -0.0145 0.5898
C77 C 0.3962(7) 0.0785(3) 0.54638(19)
C78 C 0.4903(10) 0.0208(4) 0.6700(2)
H63 H 0.4744 -0.0371 0.6625
H64 H 0.5926 0.0355 0.6870
C79 C 0.3648(14) 0.0356(5) 0.6997(3)
H65 H 0.3706 0.0048 0.7277
H66 H 0.2615 0.0162 0.6841
C80 C 0.3792(12) 0.1305(6) 0.7132(3)
H67 H 0.4913 0.1547 0.7180
H68 H 0.3354 0.1579 0.6876
C81 C 0.2991(13) 0.1437(7) 0.7532(4)
H69 H 0.1901 0.1141 0.7494
H70 H 0.3502 0.1206 0.7791
C82 C 0.5418(7) 0.2928(3) 0.50466(18)
C83 C 0.5233(6) 0.3470(3) 0.54291(19)
C84 C 0.4147(7) 0.3234(4) 0.5769(2)
H71 H 0.3493 0.2722 0.5745
C85 C 0.4021(7) 0.3740(4) 0.6137(2)
H72 H 0.3321 0.3555 0.6365
C86 C 0.4913(7) 0.4516(4) 0.6175(2)
C87 C 0.5876(8) 0.4778(4) 0.5824(2)
H73 H 0.6437 0.5312 0.5843
C88 C 0.6083(7) 0.4298(3) 0.5435(2)
C89 C 0.7052(6) 0.4584(3) 0.5046(2)
C90 C 0.7924(7) 0.5387(4) 0.5017(2)
C91 C 0.8754(8) 0.5640(4) 0.4635(2)
H74 H 0.9286 0.6178 0.4626
C92 C 0.8825(7) 0.5135(4) 0.4271(2)
C93 C 0.8039(7) 0.4304(4) 0.4272(2)
C94 C 0.7097(6) 0.4063(3) 0.46556(19)
C95 C 0.6129(7) 0.3245(3) 0.46477(19)
C96 C 0.5932(7) 0.2763(3) 0.42357(19)
C97 C 0.7101(8) 0.2955(4) 0.3891(2)
C98 C 0.7331(10) 0.2353(4) 0.3564(2)
H75 H 0.6600 0.1865 0.3542
C99 C 0.8572(12) 0.2456(5) 0.3280(3)
H76 H 0.8676 0.2051 0.3065
C100 C 0.9704(12) 0.3193(6) 0.3317(3)
H77 H 1.0600 0.3269 0.3140
C101 C 0.9453(10) 0.3791(5) 0.3618(3)
H78 H 1.0167 0.4285 0.3625
C102 C 0.8189(8) 0.3709(4) 0.3915(2)
C103 C 0.8604(10) 0.6729(4) 0.5347(3)
H79 H 0.8488 0.7014 0.5629
H80 H 0.9719 0.6769 0.5293
H81 H 0.8090 0.6967 0.5095
C104 C 1.0495(10) 0.6202(4) 0.3886(3)
H82 H 1.0980 0.6303 0.3595
H83 H 0.9793 0.6583 0.3934
H84 H 1.1312 0.6267 0.4130
C105 C 0.4874(11) 0.5050(4) 0.6598(2)
H85 H 0.5068 0.5617 0.6509
H86 H 0.3815 0.4931 0.6718
C106 C 0.6084(13) 0.4936(6) 0.6977(3)
H87 H 0.6050 0.5328 0.7224
H88 H 0.7142 0.5052 0.6856
C107 C 0.582(2) 0.4054(8) 0.7181(4)
H89 H 0.4673 0.3850 0.7167
H90 H 0.6283 0.3709 0.6976
C108 C 0.635(3) 0.3949(10) 0.7593(5)
H91 H 0.5908 0.4303 0.7800
H92 H 0.7499 0.4133 0.7606
loop_
_geom_bond_atom_site_label_1
_geom_bond_atom_site_label_2
_geom_bond_site_symmetry_1
_geom_bond_site_symmetry_2
O1 C1 1_555 1_555
O2 C2 1_555 1_555
O3 H1 1_555 1_555
O4 H2 1_555 1_555
O5 C36 1_555 1_555
O6 C38 1_555 1_555
C1 H3 1_555 1_555
H4 C1 1_555 1_555
H5 C1 1_555 1_555
C2 H6 1_555 1_555
H7 C2 1_555 1_555
H8 C2 1_555 1_555
C3 O1 1_555 1_555
C4 C3 1_555 1_555
H9 C4 1_555 1_555
C5 O2 1_555 1_555
C6 C5 1_555 1_555
C7 C6 1_555 1_555
C8 C3 1_555 1_555
C9 C8 1_555 1_555
C10 C9 1_555 1_555
H10 C10 1_555 1_555
C11 C10 1_555 1_555
H11 C11 1_555 1_555
C12 C11 1_555 1_555
H12 C12 1_555 1_555
C13 C12 1_555 1_555
H13 C13 1_555 1_555
C14 C9 1_555 1_555
C15 C14 1_555 1_555
C16 C7 1_555 1_555
C17 C16 1_555 1_555
C18 C17 1_555 1_555
C19 C18 1_555 1_555
H14 C19 1_555 1_555
C20 C19 1_555 1_555
H15 C20 1_555 1_555
C21 C20 1_555 1_555
C22 C21 1_555 1_555
H16 C22 1_555 1_555
C23 C6 1_555 1_555
C24 C21 1_555 1_555
H17 C24 1_555 1_555
H18 C24 1_555 1_555
C25 C24 1_555 1_555
H19 C25 1_555 1_555
H20 C25 1_555 1_555
C26 C25 1_555 1_555
H21 C26 1_555 1_555
H22 C26 1_555 1_555
C27 O3 1_555 1_555
H23 C27 1_555 1_555
H24 C27 1_555 1_555
C28 C17 1_555 1_555
C29 C28 1_555 1_555
C30 C29 1_555 1_555
H25 C30 1_555 1_555
C31 C30 1_555 1_555
H26 C31 1_555 1_555
C32 C31 1_555 1_555
C33 C32 1_555 1_555
H27 C33 1_555 1_555
C34 C29 1_555 1_555
C35 C34 1_555 1_555
C36 C35 1_555 1_555
C37 C36 1_555 1_555
H28 C37 1_555 1_555
C38 C37 1_555 1_555
C39 C38 1_555 1_555
C40 C35 1_555 1_555
C41 C28 1_555 1_555
C42 C15 1_555 1_555
C43 C42 1_555 1_555
C44 C43 1_555 1_555
H29 C44 1_555 1_555
C45 C44 1_555 1_555
H30 C45 1_555 1_555
C46 C45 1_555 1_555
H31 C46 1_555 1_555
C47 C46 1_555 1_555
H32 C47 1_555 1_555
C48 C39 1_555 1_555
C49 O5 1_555 1_555
H33 C49 1_555 1_555
H34 C49 1_555 1_555
H35 C49 1_555 1_555
C50 O6 1_555 1_555
H36 C50 1_555 1_555
H37 C50 1_555 1_555
H38 C50 1_555 1_555
C51 C32 1_555 1_555
H39 C51 1_555 1_555
H40 C51 1_555 1_555
C52 C51 1_555 1_555
H41 C52 1_555 1_555
H42 C52 1_555 1_555
C53 C52 1_555 1_555
H43 C53 1_555 1_555
H44 C53 1_555 1_555
C54 O4 1_555 1_555
H45 C54 1_555 1_555
H46 C54 1_555 1_555
O7 C55 1_555 1_555
O8 C56 1_555 1_555
O9 H47 1_555 1_555
O10 H48 1_555 1_555
O11 C90 1_555 1_555
O12 C92 1_555 1_555
C55 H49 1_555 1_555
H50 C55 1_555 1_555
H51 C55 1_555 1_555
C56 H52 1_555 1_555
H53 C56 1_555 1_555
H54 C56 1_555 1_555
C57 O7 1_555 1_555
C58 C57 1_555 1_555
H55 C58 1_555 1_555
C59 O8 1_555 1_555
C60 C59 1_555 1_555
C61 C60 1_555 1_555
C62 C57 1_555 1_555
C63 C62 1_555 1_555
C64 C63 1_555 1_555
H56 C64 1_555 1_555
C65 C64 1_555 1_555
H57 C65 1_555 1_555
C66 C65 1_555 1_555
H58 C66 1_555 1_555
C67 C66 1_555 1_555
H59 C67 1_555 1_555
C68 C63 1_555 1_555
C69 C68 1_555 1_555
C70 C61 1_555 1_555
C71 C70 1_555 1_555
C72 C71 1_555 1_555
C73 C72 1_555 1_555
H60 C73 1_555 1_555
C74 C73 1_555 1_555
H61 C74 1_555 1_555
C75 C74 1_555 1_555
C76 C75 1_555 1_555
H62 C76 1_555 1_555
C77 C60 1_555 1_555
C78 C75 1_555 1_555
H63 C78 1_555 1_555
H64 C78 1_555 1_555
C79 C78 1_555 1_555
H65 C79 1_555 1_555
H66 C79 1_555 1_555
C80 C79 1_555 1_555
H67 C80 1_555 1_555
H68 C80 1_555 1_555
C81 O9 1_555 1_555
H69 C81 1_555 1_555
H70 C81 1_555 1_555
C82 C71 1_555 1_555
C83 C82 1_555 1_555
C84 C83 1_555 1_555
H71 C84 1_555 1_555
C85 C84 1_555 1_555
H72 C85 1_555 1_555
C86 C85 1_555 1_555
C87 C86 1_555 1_555
H73 C87 1_555 1_555
C88 C83 1_555 1_555
C89 C88 1_555 1_555
C90 C89 1_555 1_555
C91 C90 1_555 1_555
H74 C91 1_555 1_555
C92 C91 1_555 1_555
C93 C92 1_555 1_555
C94 C89 1_555 1_555
C95 C82 1_555 1_555
C96 C69 1_555 1_555
C97 C96 1_555 1_555
C98 C97 1_555 1_555
H75 C98 1_555 1_555
C99 C98 1_555 1_555
H76 C99 1_555 1_555
C100 C99 1_555 1_555
H77 C100 1_555 1_555
C101 C100 1_555 1_555
H78 C101 1_555 1_555
C102 C93 1_555 1_555
C103 O11 1_555 1_555
H79 C103 1_555 1_555
H80 C103 1_555 1_555
H81 C103 1_555 1_555
C104 O12 1_555 1_555
H82 C104 1_555 1_555
H83 C104 1_555 1_555
H84 C104 1_555 1_555
C105 C86 1_555 1_555
H85 C105 1_555 1_555
H86 C105 1_555 1_555
C106 C105 1_555 1_555
H87 C106 1_555 1_555
H88 C106 1_555 1_555
C107 C106 1_555 1_555
H89 C107 1_555 1_555
H90 C107 1_555 1_555
C108 O10 1_555 1_555
H91 C108 1_555 1_555
H92 C108 1_555 1_555
C4 C5 1_555 1_555
C7 C8 1_555 1_555
C13 C14 1_555 1_555
C15 C16 1_555 1_555
C18 C23 1_555 1_555
C22 C23 1_555 1_555
C26 C27 1_555 1_555
C33 C34 1_555 1_555
C39 C40 1_555 1_555
C40 C41 1_555 1_555
C41 C42 1_555 1_555
C43 C48 1_555 1_555
C47 C48 1_555 1_555
C53 C54 1_555 1_555
C58 C59 1_555 1_555
C61 C62 1_555 1_555
C67 C68 1_555 1_555
C69 C70 1_555 1_555
C72 C77 1_555 1_555
C76 C77 1_555 1_555
C80 C81 1_555 1_555
C87 C88 1_555 1_555
C93 C94 1_555 1_555
C94 C95 1_555 1_555
C95 C96 1_555 1_555
C97 C102 1_555 1_555
C101 C102 1_555 1_555
C107 C108 1_555 1_555

#END
