
#######################################################################
#
#                 Cambridge Crystallographic Data Centre
#                                CCDC 
#
#######################################################################
#
# If this CIF has been generated from an entry in the Cambridge 
# Structural Database, then it will include bibliographic, chemical, 
# crystal, experimental, refinement or atomic coordinate data resulting 
# from the CCDC's data processing and validation procedures.
#
#######################################################################

data_VIFFEW
_chemical_formula_moiety         'C18 H20 N2 O4'
_chemical_name_systematic        Phenylalanyltyrosine
_symmetry_cell_setting           orthorhombic
_symmetry_space_group_name_H-M   'P 21 21 21'
_symmetry_Int_Tables_number      19
_space_group_name_Hall           'P 2ac 2ab'
loop_
_symmetry_equiv_pos_site_id
_symmetry_equiv_pos_as_xyz
1 x,y,z
2 1/2-x,-y,1/2+z
3 -x,1/2+y,1/2-z
4 1/2+x,1/2-y,-z
_cell_length_a                   5.4527(9)
_cell_length_b                   12.754(2)
_cell_length_c                   23.021(3)
_cell_angle_alpha                90
_cell_angle_beta                 90
_cell_angle_gamma                90
_cell_volume                     1600.97
_exptl_crystal_colour            colorless
_exptl_crystal_description       tabular
_cell_formula_units_Z            4
_exptl_crystal_recrystallization_method dimethylsulfoxide/water
loop_
_atom_site_label
_atom_site_type_symbol
_atom_site_fract_x
_atom_site_fract_y
_atom_site_fract_z
C1 C 0.9829(8) 0.2051(3) 0.23266(16)
H1 H 1.1335 0.1662 0.2204
C2 C 0.8983(8) 0.1656(4) 0.29192(17)
H2 H 0.7688 0.2133 0.3065
H3 H 0.8234 0.0955 0.2868
C3 C 1.0977(8) 0.1575(3) 0.33774(17)
C4 C 1.0985(10) 0.2200(4) 0.38626(19)
H4 H 0.9755 0.2721 0.3908
C5 C 1.2780(12) 0.2079(5) 0.4291(2)
H5 H 1.2768 0.2518 0.4625
C6 C 1.4547(11) 0.1332(5) 0.4230(3)
H6 H 1.5769 0.1251 0.4520
C7 C 1.4566(10) 0.0697(5) 0.3750(3)
H7 H 1.5791 0.0173 0.3709
C8 C 1.2800(8) 0.0821(4) 0.3326(2)
H8 H 1.2833 0.0382 0.2993
C9 C 0.7796(8) 0.1865(3) 0.18900(17)
C10 C 0.5465(8) 0.0396(3) 0.14432(16)
H9 H 0.4263 0.0959 0.1341
C11 C 0.6141(9) -0.0218(3) 0.08948(17)
H10 H 0.7678 -0.0608 0.0971
H11 H 0.4837 -0.0742 0.0820
C12 C 0.6488(8) 0.0432(3) 0.03506(17)
C13 C 0.4707(9) 0.0407(4) -0.00786(18)
H12 H 0.3277 -0.0005 -0.0021
C14 C 0.4960(8) 0.0965(4) -0.05875(17)
H13 H 0.3706 0.0943 -0.0874
C15 C 0.7032(8) 0.1554(3) -0.06788(17)
C16 C 0.8815(8) 0.1621(4) -0.02553(17)
H14 H 1.0220 0.2049 -0.0314
C17 C 0.8543(8) 0.1059(4) 0.02567(19)
H15 H 0.9775 0.1102 0.0547
C18 C 0.4283(8) -0.0362(4) 0.18829(19)
N1 N 1.0365(8) 0.3205(3) 0.23495(15)
H16 H 1.057(9) 0.339(4) 0.1975(10)
H17 H 1.181(5) 0.330(4) 0.2537(17)
H18 H 0.906(6) 0.354(3) 0.2510(19)
N2 N 0.7646(6) 0.0873(3) 0.17017(15)
H19 H 0.894(6) 0.048(3) 0.1804(19)
O1 O 0.6350(5) 0.2576(2) 0.17612(13)
O2 O 0.7204(6) 0.2084(3) -0.12031(13)
H20 H 0.878(7) 0.224(4) -0.129(2)
O3 O 0.1995(5) -0.0397(2) 0.19046(14)
O4 O 0.5639(6) -0.0904(3) 0.21861(15)
loop_
_geom_bond_atom_site_label_1
_geom_bond_atom_site_label_2
_geom_bond_site_symmetry_1
_geom_bond_site_symmetry_2
C1 H1 1_555 1_555
C2 C1 1_555 1_555
H2 C2 1_555 1_555
H3 C2 1_555 1_555
C3 C2 1_555 1_555
C4 C3 1_555 1_555
H4 C4 1_555 1_555
C5 C4 1_555 1_555
H5 C5 1_555 1_555
C6 C5 1_555 1_555
H6 C6 1_555 1_555
C7 C6 1_555 1_555
H7 C7 1_555 1_555
C8 C3 1_555 1_555
H8 C8 1_555 1_555
C9 C1 1_555 1_555
C10 H9 1_555 1_555
C11 C10 1_555 1_555
H10 C11 1_555 1_555
H11 C11 1_555 1_555
C12 C11 1_555 1_555
C13 C12 1_555 1_555
H12 C13 1_555 1_555
C14 C13 1_555 1_555
H13 C14 1_555 1_555
C15 C14 1_555 1_555
C16 C15 1_555 1_555
H14 C16 1_555 1_555
C17 C12 1_555 1_555
H15 C17 1_555 1_555
C18 C10 1_555 1_555
N1 C1 1_555 1_555
H16 N1 1_555 1_555
H17 N1 1_555 1_555
H18 N1 1_555 1_555
N2 C9 1_555 1_555
H19 N2 1_555 1_555
O1 C9 1_555 1_555
O2 C15 1_555 1_555
H20 O2 1_555 1_555
O3 C18 1_555 1_555
O4 C18 1_555 1_555
C7 C8 1_555 1_555
C10 N2 1_555 1_555
C16 C17 1_555 1_555

#END
