
#######################################################################
#
#                 Cambridge Crystallographic Data Centre
#                                CCDC 
#
#######################################################################
#
# If this CIF has been generated from an entry in the Cambridge 
# Structural Database, then it will include bibliographic, chemical, 
# crystal, experimental, refinement or atomic coordinate data resulting 
# from the CCDC's data processing and validation procedures.
#
#######################################################################

data_VIFYOB
_chemical_formula_moiety         'C20 H15 N1 O2'
_chemical_name_systematic        'methyl 3-(9H-carbazol-9-yl)benzoate'
_symmetry_cell_setting           monoclinic
_symmetry_space_group_name_H-M   'P 21/c'
_symmetry_Int_Tables_number      14
_space_group_name_Hall           '-P 2ybc'
loop_
_symmetry_equiv_pos_site_id
_symmetry_equiv_pos_as_xyz
1 x,y,z
2 -x,1/2+y,1/2-z
3 -x,-y,-z
4 x,1/2-y,1/2+z
_cell_length_a                   14.5671(4)
_cell_length_b                   5.32140(14)
_cell_length_c                   19.3522(4)
_cell_angle_alpha                90
_cell_angle_beta                 95.089(2)
_cell_angle_gamma                90
_cell_volume                     1494.22
_exptl_crystal_colour            colorless
_exptl_crystal_description       plate
_cell_formula_units_Z            4
_exptl_crystal_preparation       Luminescent
loop_
_atom_site_label
_atom_site_type_symbol
_atom_site_fract_x
_atom_site_fract_y
_atom_site_fract_z
O1 O 0.60498(6) 0.60042(17) 0.41804(5)
O2 O 0.53716(6) 0.23404(16) 0.44007(4)
N1 N 0.23409(6) 0.21307(17) 0.29887(5)
C1 C 0.45993(7) 0.4986(2) 0.35692(6)
C2 C 0.38535(8) 0.3340(2) 0.35181(6)
H1 H 0.3850 0.1926 0.3817
C3 C 0.31130(7) 0.3773(2) 0.30266(6)
C4 C 0.31378(8) 0.5791(2) 0.25690(6)
H2 H 0.2643 0.6057 0.2223
C5 C 0.38884(8) 0.7409(2) 0.26211(6)
H3 H 0.3904 0.8781 0.2308
C6 C 0.46155(8) 0.7049(2) 0.31243(6)
H4 H 0.5119 0.8191 0.3166
C7 C 0.54142(8) 0.4555(2) 0.40789(6)
C8 C 0.61767(9) 0.1663(3) 0.48535(6)
H5 H 0.6727 0.1794 0.4599
H6 H 0.6113 -0.0068 0.5016
H7 H 0.6236 0.2802 0.5253
C9 C 0.19308(7) 0.1140(2) 0.35580(6)
C10 C 0.20578(8) 0.1795(2) 0.42604(6)
H8 H 0.2483 0.3067 0.4420
C11 C 0.15408(8) 0.0520(2) 0.47144(6)
H9 H 0.1613 0.0932 0.5194
C12 C 0.09120(8) -0.1366(2) 0.44851(6)
H10 H 0.0578 -0.2235 0.4811
C13 C 0.07747(8) -0.1968(2) 0.37885(6)
H11 H 0.0343 -0.3225 0.3631
C14 C 0.12828(7) -0.0694(2) 0.33216(5)
C15 C 0.12894(7) -0.0816(2) 0.25765(5)
C16 C 0.08252(7) -0.2340(2) 0.20739(6)
H12 H 0.0374 -0.3509 0.2197
C17 C 0.10332(8) -0.2118(2) 0.13921(6)
H13 H 0.0720 -0.3135 0.1043
C18 C 0.17024(8) -0.0405(2) 0.12131(6)
H14 H 0.1843 -0.0309 0.0744
C19 C 0.21655(8) 0.1156(2) 0.17013(6)
H15 H 0.2613 0.2326 0.1574
C20 C 0.19474(7) 0.0939(2) 0.23877(6)
loop_
_geom_bond_atom_site_label_1
_geom_bond_atom_site_label_2
_geom_bond_site_symmetry_1
_geom_bond_site_symmetry_2
O1 C7 1_555 1_555
O2 C7 1_555 1_555
N1 C3 1_555 1_555
C1 C2 1_555 1_555
C2 H1 1_555 1_555
C3 C2 1_555 1_555
C4 C3 1_555 1_555
H2 C4 1_555 1_555
C5 C4 1_555 1_555
H3 C5 1_555 1_555
C6 C1 1_555 1_555
H4 C6 1_555 1_555
C7 C1 1_555 1_555
C8 O2 1_555 1_555
H5 C8 1_555 1_555
H6 C8 1_555 1_555
H7 C8 1_555 1_555
C9 N1 1_555 1_555
C10 C9 1_555 1_555
H8 C10 1_555 1_555
C11 C10 1_555 1_555
H9 C11 1_555 1_555
C12 C11 1_555 1_555
H10 C12 1_555 1_555
C13 C12 1_555 1_555
H11 C13 1_555 1_555
C14 C9 1_555 1_555
C15 C14 1_555 1_555
C16 C15 1_555 1_555
H12 C16 1_555 1_555
C17 C16 1_555 1_555
H13 C17 1_555 1_555
C18 C17 1_555 1_555
H14 C18 1_555 1_555
C19 C18 1_555 1_555
H15 C19 1_555 1_555
C20 N1 1_555 1_555
C5 C6 1_555 1_555
C13 C14 1_555 1_555
C15 C20 1_555 1_555
C19 C20 1_555 1_555

#END
