
#######################################################################
#
#                 Cambridge Crystallographic Data Centre
#                                CCDC 
#
#######################################################################
#
# If this CIF has been generated from an entry in the Cambridge 
# Structural Database, then it will include bibliographic, chemical, 
# crystal, experimental, refinement or atomic coordinate data resulting 
# from the CCDC's data processing and validation procedures.
#
#######################################################################

data_VIGGUQ
_chemical_formula_moiety         'C22 H24 B1 N1 O2'
_chemical_name_systematic        
2-(3-phenyl-2-(4,4,5,5-tetramethyl-1,3,2-dioxaborolan-2-yl)prop-2-en-1-yl)benzonitrile
_symmetry_cell_setting           monoclinic
_symmetry_space_group_name_H-M   'P 21/c'
_symmetry_Int_Tables_number      14
_space_group_name_Hall           '-P 2ybc'
loop_
_symmetry_equiv_pos_site_id
_symmetry_equiv_pos_as_xyz
1 x,y,z
2 -x,1/2+y,1/2-z
3 -x,-y,-z
4 x,1/2-y,1/2+z
_cell_length_a                   11.4979(3)
_cell_length_b                   10.7617(2)
_cell_length_c                   16.2125(4)
_cell_angle_alpha                90
_cell_angle_beta                 103.0260(10)
_cell_angle_gamma                90
_cell_volume                     1954.46
_exptl_crystal_colour            colorless
_exptl_crystal_description       prismatic
_cell_formula_units_Z            4
loop_
_atom_site_label
_atom_site_type_symbol
_atom_site_fract_x
_atom_site_fract_y
_atom_site_fract_z
N1 N 0.12248(13) 0.35786(14) 0.70007(8)
O1 O 0.18564(8) 0.80314(9) 0.46280(6)
O2 O 0.37866(8) 0.85518(9) 0.46432(6)
B1 B 0.30396(13) 0.77608(14) 0.49339(10)
C1 C 0.12608(11) 0.39435(12) 0.54281(8)
C2 C 0.05943(12) 0.31209(13) 0.48425(9)
H1 H 0.0131 0.2490 0.5025
C3 C 0.06101(13) 0.32269(13) 0.39981(9)
H2 H 0.0152 0.2676 0.3594
C4 C 0.12975(13) 0.41404(14) 0.37437(9)
H3 H 0.1315 0.4213 0.3163
C5 C 0.19625(13) 0.49528(14) 0.43306(9)
H4 H 0.2443 0.5562 0.4144
C6 C 0.19438(11) 0.48990(12) 0.51799(8)
C7 C 0.25692(12) 0.58401(12) 0.58250(8)
H5 H 0.2974 0.5386 0.6341
H6 H 0.1955 0.6378 0.5982
C8 C 0.34815(12) 0.66668(12) 0.55512(8)
C9 C 0.46595(12) 0.65711(13) 0.58787(9)
H7 H 0.5146 0.7152 0.5670
C10 C 0.53013(12) 0.56895(14) 0.65164(9)
C11 C 0.62345(14) 0.61414(17) 0.71523(10)
H8 H 0.6450 0.6993 0.7149
C12 C 0.68486(16) 0.5374(2) 0.77845(11)
H9 H 0.7473 0.5702 0.8216
C13 C 0.65593(19) 0.4148(2) 0.77901(13)
H10 H 0.6976 0.3625 0.8230
C14 C 0.56631(19) 0.36625(18) 0.71596(15)
H11 H 0.5475 0.2803 0.7162
C15 C 0.50302(15) 0.44307(15) 0.65162(12)
H12 H 0.4417 0.4093 0.6081
C16 C 0.12408(12) 0.37716(13) 0.63074(9)
C17 C 0.17956(11) 0.89409(13) 0.39479(8)
C18 C 0.30528(11) 0.95665(13) 0.41995(9)
C19 C 0.35787(13) 0.99711(15) 0.34662(10)
H13 H 0.4375 1.0322 0.3684
H14 H 0.3062 1.0601 0.3132
H15 H 0.3639 0.9252 0.3107
C20 C 0.31112(14) 1.06227(15) 0.48279(10)
H16 H 0.2753 1.0355 0.5293
H17 H 0.2672 1.1340 0.4543
H18 H 0.3946 1.0855 0.5054
C21 C 0.16004(14) 0.82180(15) 0.31253(9)
H19 H 0.2286 0.7673 0.3136
H20 H 0.1515 0.8799 0.2650
H21 H 0.0874 0.7715 0.3059
C22 C 0.07480(13) 0.98000(15) 0.39343(10)
H22 H 0.0003 0.9324 0.3789
H23 H 0.0737 1.0453 0.3511
H24 H 0.0826 1.0179 0.4494
loop_
_geom_bond_atom_site_label_1
_geom_bond_atom_site_label_2
_geom_bond_site_symmetry_1
_geom_bond_site_symmetry_2
N1 C16 1_555 1_555
O1 B1 1_555 1_555
O2 B1 1_555 1_555
B1 C8 1_555 1_555
C1 C2 1_555 1_555
C2 H1 1_555 1_555
C3 C2 1_555 1_555
H2 C3 1_555 1_555
C4 C3 1_555 1_555
H3 C4 1_555 1_555
C5 C4 1_555 1_555
H4 C5 1_555 1_555
C6 C1 1_555 1_555
C7 C6 1_555 1_555
H5 C7 1_555 1_555
H6 C7 1_555 1_555
C8 C7 1_555 1_555
C9 C8 1_555 1_555
H7 C9 1_555 1_555
C10 C9 1_555 1_555
C11 C10 1_555 1_555
H8 C11 1_555 1_555
C12 C11 1_555 1_555
H9 C12 1_555 1_555
C13 C12 1_555 1_555
H10 C13 1_555 1_555
C14 C13 1_555 1_555
H11 C14 1_555 1_555
C15 C10 1_555 1_555
H12 C15 1_555 1_555
C16 C1 1_555 1_555
C17 O1 1_555 1_555
C18 O2 1_555 1_555
C19 C18 1_555 1_555
H13 C19 1_555 1_555
H14 C19 1_555 1_555
H15 C19 1_555 1_555
C20 C18 1_555 1_555
H16 C20 1_555 1_555
H17 C20 1_555 1_555
H18 C20 1_555 1_555
C21 C17 1_555 1_555
H19 C21 1_555 1_555
H20 C21 1_555 1_555
H21 C21 1_555 1_555
C22 C17 1_555 1_555
H22 C22 1_555 1_555
H23 C22 1_555 1_555
H24 C22 1_555 1_555
C5 C6 1_555 1_555
C14 C15 1_555 1_555
C17 C18 1_555 1_555

#END
