
#######################################################################
#
#                 Cambridge Crystallographic Data Centre
#                                CCDC 
#
#######################################################################
#
# If this CIF has been generated from an entry in the Cambridge 
# Structural Database, then it will include bibliographic, chemical, 
# crystal, experimental, refinement or atomic coordinate data resulting 
# from the CCDC's data processing and validation procedures.
#
#######################################################################

data_VIGHEZ
_chemical_formula_moiety         'C44 H32 Si1'
_chemical_name_systematic        2,3,3',4,4',5-Hexaphenyl-1,1'-spirobisilole
_symmetry_cell_setting           orthorhombic
_symmetry_space_group_name_H-M   'P b c a'
_symmetry_Int_Tables_number      61
_space_group_name_Hall           '-P 2ac 2ab'
loop_
_symmetry_equiv_pos_site_id
_symmetry_equiv_pos_as_xyz
1 x,y,z
2 1/2-x,-y,1/2+z
3 -x,1/2+y,1/2-z
4 1/2+x,1/2-y,-z
5 -x,-y,-z
6 1/2+x,y,1/2-z
7 x,1/2-y,1/2+z
8 1/2-x,1/2+y,z
_cell_length_a                   13.3463(6)
_cell_length_b                   18.1247(8)
_cell_length_c                   26.7769(12)
_cell_angle_alpha                90
_cell_angle_beta                 90
_cell_angle_gamma                90
_cell_volume                     6477.27
_exptl_crystal_colour            yellow-green
_exptl_crystal_description       plate
_cell_formula_units_Z            8
loop_
_atom_site_label
_atom_site_type_symbol
_atom_site_fract_x
_atom_site_fract_y
_atom_site_fract_z
Si1 Si 0.61200(10) 0.13103(7) 0.31691(5)
C1 C 0.5350(3) 0.0735(2) 0.27362(16)
C2 C 0.5683(3) 0.0873(2) 0.22638(16)
C3 C 0.6490(3) 0.1457(2) 0.22156(16)
C4 C 0.6816(3) 0.1766(2) 0.26514(17)
C5 C 0.4544(3) 0.0231(2) 0.28890(17)
C6 C 0.4551(4) -0.0066(2) 0.33765(18)
H1 H 0.5070 0.0072 0.3601
C7 C 0.3818(4) -0.0555(3) 0.3535(2)
H2 H 0.3844 -0.0751 0.3864
C8 C 0.3059(4) -0.0756(3) 0.3220(2)
H3 H 0.2567 -0.1100 0.3327
C9 C 0.3011(4) -0.0457(3) 0.2744(2)
H4 H 0.2475 -0.0589 0.2528
C10 C 0.3740(4) 0.0035(3) 0.25810(19)
H5 H 0.3691 0.0241 0.2256
C11 C 0.5341(3) 0.0466(2) 0.18125(16)
C12 C 0.5466(3) -0.0290(3) 0.17874(18)
H6 H 0.5805 -0.0540 0.2050
C13 C 0.5103(4) -0.0692(3) 0.13825(18)
H7 H 0.5195 -0.1211 0.1367
C14 C 0.4607(4) -0.0327(3) 0.10034(19)
H8 H 0.4348 -0.0598 0.0728
C15 C 0.4484(4) 0.0421(3) 0.10206(18)
H9 H 0.4140 0.0667 0.0758
C16 C 0.4860(3) 0.0822(3) 0.14199(17)
H10 H 0.4789 0.1344 0.1425
C17 C 0.6880(3) 0.1667(2) 0.17134(16)
C18 C 0.7522(3) 0.1196(2) 0.14573(16)
H11 H 0.7671 0.0722 0.1590
C19 C 0.7944(4) 0.1416(3) 0.10100(17)
H12 H 0.8398 0.1098 0.0841
C20 C 0.7710(4) 0.2091(3) 0.08077(17)
H13 H 0.8011 0.2245 0.0503
C21 C 0.7039(4) 0.2544(3) 0.10491(19)
H14 H 0.6850 0.3001 0.0902
C22 C 0.6636(4) 0.2339(3) 0.15053(18)
H15 H 0.6190 0.2662 0.1675
C23 C 0.7634(4) 0.2297(2) 0.27157(17)
C24 C 0.8516(4) 0.2289(3) 0.2430(2)
H16 H 0.8588 0.1932 0.2172
C25 C 0.9277(4) 0.2783(3) 0.2514(2)
H17 H 0.9860 0.2766 0.2310
C26 C 0.9213(4) 0.3305(3) 0.2888(2)
H18 H 0.9739 0.3649 0.2940
C27 C 0.8368(5) 0.3315(3) 0.3182(2)
H19 H 0.8319 0.3662 0.3447
C28 C 0.7585(4) 0.2826(3) 0.30986(19)
H20 H 0.7006 0.2849 0.3304
C29 C 0.5491(4) 0.1843(3) 0.36684(17)
H21 H 0.5007 0.2220 0.3615
C30 C 0.5820(3) 0.1619(2) 0.41163(17)
C31 C 0.6624(3) 0.1022(2) 0.40965(17)
C32 C 0.6870(3) 0.0797(3) 0.36314(16)
H22 H 0.7356 0.0431 0.3554
C33 C 0.5427(3) 0.1902(3) 0.45960(18)
C34 C 0.5400(4) 0.2656(3) 0.4684(2)
H23 H 0.5666 0.2984 0.4441
C35 C 0.4995(5) 0.2939(3) 0.5117(2)
H24 H 0.4988 0.3457 0.5171
C36 C 0.4602(4) 0.2475(4) 0.5470(2)
H25 H 0.4312 0.2669 0.5766
C37 C 0.4631(4) 0.1724(4) 0.5392(2)
H26 H 0.4362 0.1402 0.5637
C38 C 0.5043(4) 0.1435(3) 0.49631(18)
H27 H 0.5066 0.0915 0.4917
C39 C 0.7088(3) 0.0707(3) 0.45512(16)
C40 C 0.7489(4) 0.1151(3) 0.49274(17)
H28 H 0.7422 0.1672 0.4909
C41 C 0.7982(4) 0.0835(3) 0.53266(18)
H29 H 0.8264 0.1144 0.5577
C42 C 0.8074(4) 0.0080(3) 0.5369(2)
H30 H 0.8408 -0.0132 0.5648
C43 C 0.7674(4) -0.0362(3) 0.50021(18)
H31 H 0.7725 -0.0883 0.5029
C44 C 0.7201(4) -0.0052(3) 0.45952(18)
H32 H 0.6946 -0.0365 0.4340
loop_
_geom_bond_atom_site_label_1
_geom_bond_atom_site_label_2
_geom_bond_site_symmetry_1
_geom_bond_site_symmetry_2
Si1 C1 1_555 1_555
C1 C2 1_555 1_555
C2 C3 1_555 1_555
C3 C4 1_555 1_555
C4 Si1 1_555 1_555
C5 C1 1_555 1_555
C6 C5 1_555 1_555
H1 C6 1_555 1_555
C7 C6 1_555 1_555
H2 C7 1_555 1_555
C8 C7 1_555 1_555
H3 C8 1_555 1_555
C9 C8 1_555 1_555
H4 C9 1_555 1_555
C10 C5 1_555 1_555
H5 C10 1_555 1_555
C11 C2 1_555 1_555
C12 C11 1_555 1_555
H6 C12 1_555 1_555
C13 C12 1_555 1_555
H7 C13 1_555 1_555
C14 C13 1_555 1_555
H8 C14 1_555 1_555
C15 C14 1_555 1_555
H9 C15 1_555 1_555
C16 C11 1_555 1_555
H10 C16 1_555 1_555
C17 C3 1_555 1_555
C18 C17 1_555 1_555
H11 C18 1_555 1_555
C19 C18 1_555 1_555
H12 C19 1_555 1_555
C20 C19 1_555 1_555
H13 C20 1_555 1_555
C21 C20 1_555 1_555
H14 C21 1_555 1_555
C22 C17 1_555 1_555
H15 C22 1_555 1_555
C23 C4 1_555 1_555
C24 C23 1_555 1_555
H16 C24 1_555 1_555
C25 C24 1_555 1_555
H17 C25 1_555 1_555
C26 C25 1_555 1_555
H18 C26 1_555 1_555
C27 C26 1_555 1_555
H19 C27 1_555 1_555
C28 C23 1_555 1_555
H20 C28 1_555 1_555
C29 Si1 1_555 1_555
H21 C29 1_555 1_555
C30 C29 1_555 1_555
C31 C30 1_555 1_555
C32 Si1 1_555 1_555
H22 C32 1_555 1_555
C33 C30 1_555 1_555
C34 C33 1_555 1_555
H23 C34 1_555 1_555
C35 C34 1_555 1_555
H24 C35 1_555 1_555
C36 C35 1_555 1_555
H25 C36 1_555 1_555
C37 C36 1_555 1_555
H26 C37 1_555 1_555
C38 C33 1_555 1_555
H27 C38 1_555 1_555
C39 C31 1_555 1_555
C40 C39 1_555 1_555
H28 C40 1_555 1_555
C41 C40 1_555 1_555
H29 C41 1_555 1_555
C42 C41 1_555 1_555
H30 C42 1_555 1_555
C43 C42 1_555 1_555
H31 C43 1_555 1_555
C44 C39 1_555 1_555
H32 C44 1_555 1_555
C9 C10 1_555 1_555
C15 C16 1_555 1_555
C21 C22 1_555 1_555
C27 C28 1_555 1_555
C31 C32 1_555 1_555
C37 C38 1_555 1_555
C43 C44 1_555 1_555

#END
