
#######################################################################
#
#                 Cambridge Crystallographic Data Centre
#                                CCDC 
#
#######################################################################
#
# If this CIF has been generated from an entry in the Cambridge 
# Structural Database, then it will include bibliographic, chemical, 
# crystal, experimental, refinement or atomic coordinate data resulting 
# from the CCDC's data processing and validation procedures.
#
#######################################################################

data_VIGHUR
_chemical_formula_moiety         'C15 H17 N1 O3 S1'
_chemical_name_systematic        
N-[1-(4-methoxyphenyl)ethyl]benzenesulfonamide
_symmetry_cell_setting           monoclinic
_symmetry_space_group_name_H-M   'P 21'
_symmetry_Int_Tables_number      4
_space_group_name_Hall           'P 2yb'
loop_
_symmetry_equiv_pos_site_id
_symmetry_equiv_pos_as_xyz
1 x,y,z
2 -x,1/2+y,-z
_cell_length_a                   12.9864(7)
_cell_length_b                   7.3548(4)
_cell_length_c                   16.7305(9)
_cell_angle_alpha                90
_cell_angle_beta                 111.549(2)
_cell_angle_gamma                90
_cell_volume                     1486.28
_exptl_crystal_colour            colorless
_exptl_crystal_description       plate
_cell_formula_units_Z            4
loop_
_atom_site_label
_atom_site_type_symbol
_atom_site_fract_x
_atom_site_fract_y
_atom_site_fract_z
S1 S 0.79876(3) 0.91068(6) 0.21386(2)
N1 N 0.85503(13) 0.7141(2) 0.24310(10)
H1 H 0.8057(17) 0.628(3) 0.2490(14)
O1 O 0.73092(11) 0.9400(2) 0.26416(8)
O2 O 0.88550(12) 1.0359(2) 0.22031(10)
O3 O 0.81864(11) 0.5168(2) -0.13894(8)
C1 C 0.60771(18) 0.8092(3) 0.08499(15)
H2 H 0.5868 0.7578 0.1289
C2 C 0.5392(2) 0.7950(4) -0.00050(18)
H3 H 0.4704 0.7331 -0.0157
C3 C 0.5701(3) 0.8702(4) -0.06377(16)
H4 H 0.5229 0.8585 -0.1224
C4 C 0.6686(3) 0.9620(5) -0.04265(15)
H5 H 0.6885 1.0152 -0.0867
C5 C 0.7394(2) 0.9777(3) 0.04259(14)
H6 H 0.8079 1.0402 0.0575
C6 C 0.70786(15) 0.9003(3) 0.10516(11)
C7 C 0.94709(15) 0.6450(3) 0.21966(12)
H7 H 1.0074 0.7381 0.2372
C8 C 0.99026(16) 0.4748(3) 0.27373(13)
H8 H 1.0085 0.5038 0.3346
H9 H 1.0568 0.4312 0.2651
H10 H 0.9332 0.3801 0.2562
C9 C 0.91535(15) 0.6087(3) 0.12418(12)
C10 C 0.82506(15) 0.4977(3) 0.07898(12)
H11 H 0.7838 0.4408 0.1086
C11 C 0.79545(16) 0.4702(3) -0.00825(12)
H12 H 0.7339 0.3951 -0.0383
C12 C 0.85585(15) 0.5527(3) -0.05250(12)
C13 C 0.8693(2) 0.6167(4) -0.18801(15)
H13 H 0.8666 0.7470 -0.1766
H14 H 0.8295 0.5933 -0.2493
H15 H 0.9466 0.5784 -0.1717
C14 C 0.94628(16) 0.6604(3) -0.00875(13)
H16 H 0.9885 0.7150 -0.0382
C15 C 0.97473(16) 0.6879(3) 0.07935(13)
H17 H 1.0364 0.7629 0.1094
S2 S 0.65182(3) 0.41843(6) 0.30592(2)
N2 N 0.58916(13) 0.2251(2) 0.28709(10)
H18 H 0.6319(17) 0.133(3) 0.2733(14)
O4 O 0.70278(10) 0.4325(2) 0.24275(7)
O5 O 0.57378(11) 0.55307(19) 0.30846(9)
O6 O 0.73882(11) -0.0183(2) 0.68282(8)
C16 C 0.85537(16) 0.3131(3) 0.41730(13)
H19 H 0.8624 0.2521 0.3695
C17 C 0.93973(18) 0.3049(3) 0.49758(15)
H20 H 1.0053 0.2382 0.5051
C18 C 0.9282(2) 0.3941(4) 0.56653(13)
H21 H 0.9864 0.3891 0.6213
C19 C 0.8334(2) 0.4899(3) 0.55664(14)
H22 H 0.8264 0.5499 0.6047
C20 C 0.74727(18) 0.4998(3) 0.47668(13)
H23 H 0.6814 0.5650 0.4696
C21 C 0.76051(14) 0.4121(3) 0.40801(10)
C22 C 0.51468(15) 0.1689(3) 0.33151(13)
H24 H 0.4636 0.2724 0.3287
C23 C 0.44561(17) 0.0120(3) 0.27978(14)
H25 H 0.4061 0.0512 0.2203
H26 H 0.3920 -0.0259 0.3052
H27 H 0.4942 -0.0904 0.2805
C24 C 0.57453(14) 0.1193(3) 0.42561(12)
C25 C 0.66756(14) 0.0063(3) 0.45237(12)
H28 H 0.6940 -0.0431 0.4110
C26 C 0.72143(14) -0.0342(2) 0.53832(12)
H29 H 0.7854 -0.1094 0.5559
C27 C 0.68218(15) 0.0350(3) 0.59955(12)
C28 C 0.71996(18) 0.0836(4) 0.74863(13)
H30 H 0.7336 0.2127 0.7420
H31 H 0.7702 0.0411 0.8050
H32 H 0.6431 0.0669 0.7441
C29 C 0.58894(15) 0.1450(3) 0.57379(13)
H33 H 0.5609 0.1910 0.6149
C30 C 0.53691(15) 0.1874(3) 0.48718(13)
H34 H 0.4740 0.2650 0.4698
loop_
_geom_bond_atom_site_label_1
_geom_bond_atom_site_label_2
_geom_bond_site_symmetry_1
_geom_bond_site_symmetry_2
S1 N1 1_555 1_555
N1 H1 1_555 1_555
O1 S1 1_555 1_555
O2 S1 1_555 1_555
O3 C12 1_555 1_555
C1 H2 1_555 1_555
C2 C1 1_555 1_555
H3 C2 1_555 1_555
C3 C2 1_555 1_555
H4 C3 1_555 1_555
C4 C3 1_555 1_555
H5 C4 1_555 1_555
C5 C4 1_555 1_555
H6 C5 1_555 1_555
C6 S1 1_555 1_555
C7 N1 1_555 1_555
H7 C7 1_555 1_555
C8 C7 1_555 1_555
H8 C8 1_555 1_555
H9 C8 1_555 1_555
H10 C8 1_555 1_555
C9 C7 1_555 1_555
C10 C9 1_555 1_555
H11 C10 1_555 1_555
C11 C10 1_555 1_555
H12 C11 1_555 1_555
C12 C11 1_555 1_555
C13 O3 1_555 1_555
H13 C13 1_555 1_555
H14 C13 1_555 1_555
H15 C13 1_555 1_555
C14 C12 1_555 1_555
H16 C14 1_555 1_555
C15 C9 1_555 1_555
H17 C15 1_555 1_555
S2 N2 1_555 1_555
N2 H18 1_555 1_555
O4 S2 1_555 1_555
O5 S2 1_555 1_555
O6 C27 1_555 1_555
C16 H19 1_555 1_555
C17 C16 1_555 1_555
H20 C17 1_555 1_555
C18 C17 1_555 1_555
H21 C18 1_555 1_555
C19 C18 1_555 1_555
H22 C19 1_555 1_555
C20 C19 1_555 1_555
H23 C20 1_555 1_555
C21 S2 1_555 1_555
C22 N2 1_555 1_555
H24 C22 1_555 1_555
C23 C22 1_555 1_555
H25 C23 1_555 1_555
H26 C23 1_555 1_555
H27 C23 1_555 1_555
C24 C22 1_555 1_555
C25 C24 1_555 1_555
H28 C25 1_555 1_555
C26 C25 1_555 1_555
H29 C26 1_555 1_555
C27 C26 1_555 1_555
C28 O6 1_555 1_555
H30 C28 1_555 1_555
H31 C28 1_555 1_555
H32 C28 1_555 1_555
C29 C27 1_555 1_555
H33 C29 1_555 1_555
C30 C24 1_555 1_555
H34 C30 1_555 1_555
C1 C6 1_555 1_555
C5 C6 1_555 1_555
C14 C15 1_555 1_555
C16 C21 1_555 1_555
C20 C21 1_555 1_555
C29 C30 1_555 1_555

#END
