
#######################################################################
#
#                 Cambridge Crystallographic Data Centre
#                                CCDC 
#
#######################################################################
#
# If this CIF has been generated from an entry in the Cambridge 
# Structural Database, then it will include bibliographic, chemical, 
# crystal, experimental, refinement or atomic coordinate data resulting 
# from the CCDC's data processing and validation procedures.
#
#######################################################################

data_VIHGEZ
_chemical_compound_source        'Stem bark of Khaya Senegalensis (Meliaceae)'
_chemical_name_common            Khayanone
_chemical_formula_moiety         'C27 H34 O9,1.13(H2 O1)'
_chemical_name_systematic        '6S,8\a-dihydroxy-14,15-dihydrocarapin hydrate'
_symmetry_cell_setting           tetragonal
_symmetry_space_group_name_H-M   'P 41 21 2'
_symmetry_Int_Tables_number      92
_space_group_name_Hall           'P 4abw 2nw'
loop_
_symmetry_equiv_pos_site_id
_symmetry_equiv_pos_as_xyz
1 x,y,z
2 -x,-y,1/2+z
3 1/2-y,1/2+x,1/4+z
4 1/2+y,1/2-x,3/4+z
5 1/2-x,1/2+y,1/4-z
6 1/2+x,1/2-y,3/4-z
7 y,x,-z
8 -y,-x,1/2-z
_cell_length_a                   13.2315(19)
_cell_length_b                   13.2315(19)
_cell_length_c                   29.118(5)
_cell_angle_alpha                90
_cell_angle_beta                 90
_cell_angle_gamma                90
_cell_volume                     5097.76
_exptl_crystal_colour            colorless
_exptl_crystal_description       prism
_cell_formula_units_Z            8
_exptl_crystal_recrystallization_method chloroform/methanol
loop_
_atom_site_label
_atom_site_type_symbol
_atom_site_fract_x
_atom_site_fract_y
_atom_site_fract_z
O1 O 0.73466(9) 0.31073(10) 0.10598(5)
O2 O 1.00720(12) 0.18453(11) 0.02457(5)
O3 O 0.69181(10) 0.09245(10) 0.13738(6)
H1 H 0.6498 0.0500 0.1287
O4 O 0.72998(11) 0.00115(11) 0.22023(5)
O5 O 0.89061(11) -0.02923(10) 0.20003(5)
O6 O 0.92133(9) 0.43842(9) 0.14459(4)
H2 H 0.9297 0.4425 0.1728
O7 O 1.16564(12) 0.57443(11) 0.03382(5)
O8 O 1.23420(10) 0.43123(10) 0.05586(5)
O9 O 1.40195(17) 0.14131(14) 0.04459(6)
C1 C 0.82080(13) 0.27997(13) 0.10478(7)
C2 C 0.88845(14) 0.28992(14) 0.06334(6)
H7 H 0.8488 0.3122 0.0376
C3 C 0.93771(15) 0.18813(15) 0.05151(6)
C4 C 0.89014(16) 0.09541(14) 0.07296(7)
C5 C 0.87528(13) 0.11021(13) 0.12637(6)
H8 H 0.9342 0.0808 0.1402
C6 C 0.78618(14) 0.04539(13) 0.14343(7)
H9 H 0.7852 -0.0136 0.1242
C7 C 0.79731(14) 0.00674(13) 0.19255(7)
C8 C 0.99731(13) 0.37210(13) 0.12512(6)
C9 C 0.98601(13) 0.26819(13) 0.14893(6)
H10 H 0.9912 0.2833 0.1811
C10 C 0.87433(13) 0.22351(13) 0.14316(6)
C11 C 1.07779(13) 0.20024(13) 0.13914(7)
H11 H 1.0699 0.1368 0.1548
H12 H 1.0822 0.1870 0.1068
C12 C 1.17437(14) 0.25225(14) 0.15551(7)
H13 H 1.2305 0.2077 0.1503
H14 H 1.1695 0.2633 0.1880
C13 C 1.19614(14) 0.35347(14) 0.13200(7)
C14 C 1.10149(14) 0.42131(14) 0.13572(6)
H15 H 1.0982 0.4419 0.1673
C15 C 1.11735(15) 0.51880(14) 0.10810(7)
H16 H 1.0523 0.5484 0.1025
H17 H 1.1546 0.5652 0.1269
C16 C 1.17095(15) 0.50979(14) 0.06293(7)
C17 C 1.22195(15) 0.33569(14) 0.08097(7)
H18 H 1.1650 0.3017 0.0676
C18 C 1.28421(15) 0.40514(17) 0.15698(7)
H19 H 1.2618 0.4285 0.1865
H20 H 1.3075 0.4615 0.1391
H21 H 1.3384 0.3577 0.1610
C19 C 0.81903(14) 0.23627(14) 0.18887(7)
H22 H 0.8207 0.3060 0.1979
H23 H 0.8515 0.1959 0.2119
H24 H 0.7501 0.2149 0.1855
C20 C 1.31289(15) 0.27238(16) 0.07078(7)
C21 C 1.30853(19) 0.18280(17) 0.04890(8)
H25 H 1.2474 0.1523 0.0378
C22 C 1.41761(17) 0.2888(2) 0.08100(9)
H26 H 1.4469 0.3459 0.0964
C23 C 1.4664(2) 0.2067(2) 0.06447(11)
H27 H 1.5381 0.1964 0.0666
C24 C 0.9552(2) 0.00162(17) 0.06539(8)
H28 H 0.9611 -0.0114 0.0331
H29 H 0.9242 -0.0554 0.0802
H30 H 1.0211 0.0126 0.0782
C25 C 0.78980(19) 0.08382(17) 0.04548(8)
H31 H 0.7468 0.1407 0.0515
H32 H 0.7562 0.0228 0.0547
H33 H 0.8045 0.0808 0.0132
C26 C 0.96989(14) 0.37003(14) 0.07387(7)
H34 H 1.0294 0.3556 0.0562
H35 H 0.9455 0.4354 0.0648
C27 C 0.9030(2) -0.08651(18) 0.24197(7)
H36 H 0.8882 -0.0441 0.2679
H37 H 0.9714 -0.1103 0.2441
H38 H 0.8577 -0.1431 0.2418
O10 O 0.56985(15) 0.95545(13) 0.01172(6)
H3 H 0.5723 1.0166 -0.0020
H4 H 0.5596 0.9023 -0.0095
O11 O 0.7117(13) 0.9530(10) -0.0643(5)
H5 H 0.7174 1.0121 -0.0560
H6 H 0.6808 0.9407 -0.0510
loop_
_geom_bond_atom_site_label_1
_geom_bond_atom_site_label_2
_geom_bond_site_symmetry_1
_geom_bond_site_symmetry_2
O1 C1 1_555 1_555
O2 C3 1_555 1_555
O3 H1 1_555 1_555
O4 C7 1_555 1_555
O5 C7 1_555 1_555
O6 H2 1_555 1_555
O7 C16 1_555 1_555
O8 C16 1_555 1_555
O9 C21 1_555 1_555
O10 H3 1_555 1_555
H4 O10 1_555 1_555
O11 H5 1_555 1_555
H6 O11 1_555 1_555
C1 C2 1_555 1_555
C2 H7 1_555 1_555
C3 C2 1_555 1_555
C4 C3 1_555 1_555
C5 C4 1_555 1_555
H8 C5 1_555 1_555
C6 O3 1_555 1_555
H9 C6 1_555 1_555
C7 C6 1_555 1_555
C8 O6 1_555 1_555
C9 C8 1_555 1_555
H10 C9 1_555 1_555
C10 C1 1_555 1_555
C11 C9 1_555 1_555
H11 C11 1_555 1_555
H12 C11 1_555 1_555
C12 C11 1_555 1_555
H13 C12 1_555 1_555
H14 C12 1_555 1_555
C13 C12 1_555 1_555
C14 C8 1_555 1_555
H15 C14 1_555 1_555
C15 C14 1_555 1_555
H16 C15 1_555 1_555
H17 C15 1_555 1_555
C16 C15 1_555 1_555
C17 O8 1_555 1_555
H18 C17 1_555 1_555
C18 C13 1_555 1_555
H19 C18 1_555 1_555
H20 C18 1_555 1_555
H21 C18 1_555 1_555
C19 C10 1_555 1_555
H22 C19 1_555 1_555
H23 C19 1_555 1_555
H24 C19 1_555 1_555
C20 C17 1_555 1_555
C21 C20 1_555 1_555
H25 C21 1_555 1_555
C22 C20 1_555 1_555
H26 C22 1_555 1_555
C23 O9 1_555 1_555
H27 C23 1_555 1_555
C24 C4 1_555 1_555
H28 C24 1_555 1_555
H29 C24 1_555 1_555
H30 C24 1_555 1_555
C25 C4 1_555 1_555
H31 C25 1_555 1_555
H32 C25 1_555 1_555
H33 C25 1_555 1_555
C26 C2 1_555 1_555
H34 C26 1_555 1_555
H35 C26 1_555 1_555
C27 O5 1_555 1_555
H36 C27 1_555 1_555
H37 C27 1_555 1_555
H38 C27 1_555 1_555
C5 C6 1_555 1_555
C5 C10 1_555 1_555
C8 C26 1_555 1_555
C9 C10 1_555 1_555
C13 C14 1_555 1_555
C13 C17 1_555 1_555
C22 C23 1_555 1_555

#END
