
#######################################################################
#
#                 Cambridge Crystallographic Data Centre
#                                CCDC 
#
#######################################################################
#
# If this CIF has been generated from an entry in the Cambridge 
# Structural Database, then it will include bibliographic, chemical, 
# crystal, experimental, refinement or atomic coordinate data resulting 
# from the CCDC's data processing and validation procedures.
#
#######################################################################

data_VIHPUZ
_chemical_formula_moiety         'C22 H16 F1 N1 O3'
_chemical_name_systematic        
3-(4-Fluorophenyl)-2-((2-methoxybenzylidene)amino)-1-benzofuran-4-ol
_symmetry_cell_setting           orthorhombic
_symmetry_space_group_name_H-M   'F d d 2'
_symmetry_Int_Tables_number      43
_space_group_name_Hall           'F 2 -2d'
loop_
_symmetry_equiv_pos_site_id
_symmetry_equiv_pos_as_xyz
1 x,y,z
2 -x,-y,z
3 1/4-x,1/4+y,1/4+z
4 1/4+x,1/4-y,1/4+z
5 x,1/2+y,1/2+z
6 -x,1/2-y,1/2+z
7 1/4-x,3/4+y,3/4+z
8 1/4+x,3/4-y,3/4+z
9 1/2+x,y,1/2+z
10 1/2-x,-y,1/2+z
11 3/4-x,1/4+y,3/4+z
12 3/4+x,1/4-y,3/4+z
13 1/2+x,1/2+y,z
14 1/2-x,1/2-y,z
15 3/4-x,3/4+y,1/4+z
16 3/4+x,3/4-y,1/4+z
_cell_length_a                   23.214(7)
_cell_length_b                   23.757(12)
_cell_length_c                   13.166(4)
_cell_angle_alpha                90
_cell_angle_beta                 90
_cell_angle_gamma                90
_cell_volume                     7260.98
_exptl_crystal_colour            yellow
_exptl_crystal_description       block
_chemical_melting_point          '198-199 deg.C'
_cell_formula_units_Z            16
loop_
_atom_site_label
_atom_site_type_symbol
_atom_site_fract_x
_atom_site_fract_y
_atom_site_fract_z
O1 O 0.07217(7) 0.35724(7) 0.31308(12)
N1 N 0.19925(6) 0.40625(6) 0.49878(10)
C1 C 0.31524(9) 0.40272(8) 0.63607(14)
C2 C 0.37465(10) 0.40022(10) 0.62835(17)
F1 F 0.46345(5) 0.44719(7) 0.62747(13)
C3 C 0.32012(9) 0.50177(9) 0.66465(15)
C4 C 0.37951(10) 0.49958(11) 0.65616(18)
C5 C 0.15907(9) 0.38376(8) 0.44469(13)
C6 C 0.18647(8) 0.43159(7) 0.58931(12)
C7 C 0.22321(7) 0.45518(7) 0.65877(13)
C8 C 0.28683(7) 0.45314(8) 0.65359(12)
C9 C 0.40497(8) 0.44917(10) 0.63753(17)
C10 C 0.13792(13) 0.31692(10) 0.18907(16)
C11 C 0.12973(8) 0.46963(8) 0.70518(12)
C12 C 0.18639(8) 0.48050(7) 0.73462(11)
C13 C 0.19508(9) 0.51055(7) 0.82518(13)
C14 C 0.02412(14) 0.34217(15) 0.2515(3)
C15 C 0.12591(10) 0.34325(8) 0.28134(14)
C16 C 0.17141(8) 0.35776(7) 0.34659(13)
C17 C 0.19387(14) 0.30605(11) 0.16255(18)
C18 C 0.22746(10) 0.34583(8) 0.31682(15)
C19 C 0.14727(11) 0.52786(9) 0.87957(16)
C20 C 0.09145(11) 0.51563(10) 0.84665(17)
C21 C 0.08127(10) 0.48581(9) 0.75863(17)
O2 O 0.12903(5) 0.43933(5) 0.61601(8)
C22 C 0.23896(13) 0.32040(11) 0.22463(19)
O3 O 0.25041(6) 0.51987(6) 0.85546(10)
H1 H 0.2935(8) 0.3699(9) 0.6327(14)
H2 H 0.3009(8) 0.5368(9) 0.6775(14)
H3 H 0.3929(9) 0.3658(10) 0.6140(16)
H4 H 0.2569(9) 0.3564(8) 0.3619(16)
H5 H 0.1200(8) 0.3856(7) 0.4673(13)
H6 H 0.0572(11) 0.5285(10) 0.891(2)
H7 H 0.0293(11) 0.3594(12) 0.189(3)
H8 H 0.2496(10) 0.5433(10) 0.901(2)
H9 H 0.1987(10) 0.2835(11) 0.097(2)
H10 H 0.0436(8) 0.4779(8) 0.7362(16)
H11 H 0.1541(9) 0.5480(9) 0.9367(19)
H12 H 0.4023(10) 0.5327(11) 0.660(2)
H13 H 0.1041(10) 0.3077(9) 0.148(2)
H14 H -0.0126(14) 0.3563(13) 0.290(2)
H15 H 0.2758(12) 0.3122(10) 0.207(2)
H16 H 0.0268(13) 0.3002(13) 0.248(2)
loop_
_geom_bond_atom_site_label_1
_geom_bond_atom_site_label_2
_geom_bond_site_symmetry_1
_geom_bond_site_symmetry_2
O1 C14 1_555 1_555
N1 C5 1_555 1_555
C1 C2 1_555 1_555
C2 C9 1_555 1_555
F1 C9 1_555 1_555
C3 C4 1_555 1_555
C4 C9 1_555 1_555
C5 C16 1_555 1_555
C6 N1 1_555 1_555
C7 C6 1_555 1_555
C8 C1 1_555 1_555
C10 C15 1_555 1_555
C11 C12 1_555 1_555
C12 C7 1_555 1_555
C13 C12 1_555 1_555
C14 H7 1_555 1_555
C15 O1 1_555 1_555
C16 C15 1_555 1_555
C17 C10 1_555 1_555
C18 C16 1_555 1_555
C19 C13 1_555 1_555
C20 C19 1_555 1_555
C21 C11 1_555 1_555
O2 C6 1_555 1_555
C22 C17 1_555 1_555
O3 C13 1_555 1_555
H1 C1 1_555 1_555
H2 C3 1_555 1_555
H3 C2 1_555 1_555
H4 C18 1_555 1_555
H5 C5 1_555 1_555
H6 C20 1_555 1_555
H8 O3 1_555 1_555
H9 C17 1_555 1_555
H10 C21 1_555 1_555
H11 C19 1_555 1_555
H12 C4 1_555 1_555
H13 C10 1_555 1_555
H14 C14 1_555 1_555
H15 C22 1_555 1_555
H16 C14 1_555 1_555
C3 C8 1_555 1_555
C7 C8 1_555 1_555
C11 O2 1_555 1_555
C18 C22 1_555 1_555
C20 C21 1_555 1_555

#END
