
#######################################################################
#
#                 Cambridge Crystallographic Data Centre
#                                CCDC 
#
#######################################################################
#
# If this CIF has been generated from an entry in the Cambridge 
# Structural Database, then it will include bibliographic, chemical, 
# crystal, experimental, refinement or atomic coordinate data resulting 
# from the CCDC's data processing and validation procedures.
#
#######################################################################

data_VIHVEQ
_chemical_formula_moiety         'C22 H24 S4 Si2'
_chemical_name_systematic        
(cycloocta[1,2-b:4,3-b':5,6-b'':8,7-b''']tetrakisthiene-2,5-diyl)bis(trimethylsilane)
_symmetry_cell_setting           triclinic
_symmetry_space_group_name_H-M   'P -1'
_symmetry_Int_Tables_number      2
_space_group_name_Hall           '-P 1'
loop_
_symmetry_equiv_pos_site_id
_symmetry_equiv_pos_as_xyz
1 x,y,z
2 -x,-y,-z
_cell_length_a                   9.995(5)
_cell_length_b                   12.139(7)
_cell_length_c                   12.525(6)
_cell_angle_alpha                103.231(10)
_cell_angle_beta                 106.885(9)
_cell_angle_gamma                113.306(9)
_cell_volume                     1229.06
_exptl_crystal_colour            colorless
_exptl_crystal_description       block
_cell_formula_units_Z            2
loop_
_atom_site_label
_atom_site_type_symbol
_atom_site_fract_x
_atom_site_fract_y
_atom_site_fract_z
S1 S 0.71876(13) 0.43588(11) 0.62157(9)
S2 S 0.34191(15) 0.23475(12) 0.57677(11)
S3 S 0.27316(15) 0.13923(12) 0.04658(10)
Si1 Si 1.01106(14) 0.69650(12) 0.66112(11)
S4 S 0.47069(18) -0.01895(13) 0.13167(12)
Si2 Si 0.19659(17) 0.33996(15) -0.03825(12)
C1 C 0.4130(5) 0.3723(4) 0.1967(4)
H1 H 0.4480 0.4608 0.2311
C2 C 0.5789(5) 0.3722(4) 0.3935(4)
C3 C 0.5586(5) 0.3286(4) 0.4823(3)
C4 C 0.4634(5) 0.3056(4) 0.2637(3)
C5 C 0.8133(5) 0.5417(4) 0.5627(4)
C6 C 0.4046(5) 0.0315(4) 0.3138(4)
C7 C 0.7227(5) 0.4926(4) 0.4411(4)
H2 H 0.7535 0.5355 0.3924
C8 C 0.4250(5) 0.2141(4) 0.4756(4)
C9 C 0.3560(5) 0.0852(4) 0.4043(4)
C10 C 0.4229(5) 0.0740(4) 0.2236(4)
C11 C 0.3970(5) 0.1760(4) 0.1937(4)
C12 C 0.3086(5) 0.2965(4) 0.0772(4)
C13 C 0.2367(5) 0.0040(5) 0.4344(4)
H3 H 0.1778 -0.0864 0.3955
C14 C 1.0996(6) 0.7477(5) 0.5585(4)
H4 H 1.1071 0.6777 0.5113
H5 H 1.2052 0.8225 0.6055
H6 H 1.0326 0.7693 0.5053
C15 C 0.4295(6) -0.0773(4) 0.3052(4)
H7 H 0.4212 -0.1194 0.3583
C16 C 1.1406(6) 0.6616(5) 0.7720(4)
H8 H 1.0899 0.6334 0.8224
H9 H 1.2432 0.7391 0.8214
H10 H 1.1557 0.5942 0.7294
C17 C 0.9763(6) 0.8240(5) 0.7424(4)
H11 H 0.9024 0.8366 0.6846
H12 H 1.0766 0.9043 0.7882
H13 H 0.9318 0.7968 0.7962
C18 C 0.2185(6) 0.0712(5) 0.5242(5)
H14 H 0.1459 0.0327 0.5547
C19 C 0.4662(7) -0.1132(5) 0.2122(5)
H15 H 0.4867 -0.1820 0.1946
C20 C 0.2078(8) 0.2804(7) -0.1826(5)
H16 H 0.3179 0.3229 -0.1709
H17 H 0.1450 0.2993 -0.2421
H18 H 0.1663 0.1880 -0.2100
C21 C 0.2866(9) 0.5183(6) 0.0225(6)
H19 H 0.2890 0.5479 0.1014
H20 H 0.2234 0.5424 -0.0308
H21 H 0.3943 0.5576 0.0287
C22 C -0.0148(7) 0.2609(9) -0.0651(6)
H22 H -0.0559 0.1689 -0.0874
H23 H -0.0756 0.2759 -0.1294
H24 H -0.0241 0.2963 0.0075
loop_
_geom_bond_atom_site_label_1
_geom_bond_atom_site_label_2
_geom_bond_site_symmetry_1
_geom_bond_site_symmetry_2
S1 C3 1_555 1_555
S2 C8 1_555 1_555
S3 C11 1_555 1_555
Si1 C5 1_555 1_555
S4 C10 1_555 1_555
Si2 C12 1_555 1_555
C1 H1 1_555 1_555
C2 C3 1_555 1_555
C3 C8 1_555 1_555
C4 C1 1_555 1_555
C5 S1 1_555 1_555
C6 C9 1_555 1_555
C7 C2 1_555 1_555
H2 C7 1_555 1_555
C8 C9 1_555 1_555
C9 C13 1_555 1_555
C10 C6 1_555 1_555
C11 C4 1_555 1_555
C12 S3 1_555 1_555
C13 H3 1_555 1_555
C14 Si1 1_555 1_555
H4 C14 1_555 1_555
H5 C14 1_555 1_555
H6 C14 1_555 1_555
C15 C6 1_555 1_555
H7 C15 1_555 1_555
C16 Si1 1_555 1_555
H8 C16 1_555 1_555
H9 C16 1_555 1_555
H10 C16 1_555 1_555
C17 Si1 1_555 1_555
H11 C17 1_555 1_555
H12 C17 1_555 1_555
H13 C17 1_555 1_555
C18 S2 1_555 1_555
H14 C18 1_555 1_555
C19 S4 1_555 1_555
H15 C19 1_555 1_555
C20 Si2 1_555 1_555
H16 C20 1_555 1_555
H17 C20 1_555 1_555
H18 C20 1_555 1_555
C21 Si2 1_555 1_555
H19 C21 1_555 1_555
H20 C21 1_555 1_555
H21 C21 1_555 1_555
C22 Si2 1_555 1_555
H22 C22 1_555 1_555
H23 C22 1_555 1_555
H24 C22 1_555 1_555
C1 C12 1_555 1_555
C2 C4 1_555 1_555
C5 C7 1_555 1_555
C10 C11 1_555 1_555
C13 C18 1_555 1_555
C15 C19 1_555 1_555

#END
