
#######################################################################
#
#                 Cambridge Crystallographic Data Centre
#                                CCDC 
#
#######################################################################
#
# If this CIF has been generated from an entry in the Cambridge 
# Structural Database, then it will include bibliographic, chemical, 
# crystal, experimental, refinement or atomic coordinate data resulting 
# from the CCDC's data processing and validation procedures.
#
#######################################################################

data_VIJMEH
_chemical_formula_moiety         'C24 H22 N2 O4 S2'
_chemical_name_systematic        
'Ethyl 2-(1,3-dithian-2-ylidene)-2-(6-methyl-2-(4-nitrophenyl)quinolin-4-yl)acetate'
_symmetry_cell_setting           triclinic
_symmetry_space_group_name_H-M   'P -1'
_symmetry_Int_Tables_number      2
_space_group_name_Hall           '-P 1'
loop_
_symmetry_equiv_pos_site_id
_symmetry_equiv_pos_as_xyz
1 x,y,z
2 -x,-y,-z
_cell_length_a                   9.616(4)
_cell_length_b                   11.270(5)
_cell_length_c                   11.587(5)
_cell_angle_alpha                69.052(7)
_cell_angle_beta                 83.860(7)
_cell_angle_gamma                73.520(7)
_cell_volume                     1124.52
_exptl_crystal_colour            yellow
_exptl_crystal_description       block
_chemical_melting_point          '182-183 deg.C'
_cell_formula_units_Z            2
loop_
_atom_site_label
_atom_site_type_symbol
_atom_site_fract_x
_atom_site_fract_y
_atom_site_fract_z
S1 S 0.20806(11) 0.18586(9) 0.80837(8)
S2 S 0.23718(11) -0.09200(9) 0.97906(9)
C1 C 0.2207(5) -0.0831(5) 0.8207(4)
H1 H 0.222(4) -0.175(4) 0.834(3)
H2 H 0.319(6) -0.067(5) 0.770(4)
C2 C 0.0872(6) 0.0135(5) 0.7533(6)
C3 C 0.0553(4) 0.1456(4) 0.7675(4)
H3 H 0.013(4) 0.212(4) 0.697(4)
H4 H -0.016(4) 0.153(4) 0.837(4)
C4 C 0.2496(3) 0.0677(3) 0.9559(3)
C5 C 0.2907(3) 0.1024(3) 1.0465(3)
C6 C 0.3343(4) 0.0016(4) 1.1680(3)
C7 C 0.4327(5) -0.0516(5) 1.3647(4)
H5 H 0.493(4) -0.008(4) 1.392(3)
H6 H 0.491(4) -0.137(4) 1.361(3)
C8 C 0.3042(7) -0.0662(7) 1.4469(5)
H7 H 0.255(6) -0.118(5) 1.422(5)
H8 H 0.251(6) 0.009(6) 1.460(5)
H9 H 0.334(5) -0.119(4) 1.528(5)
C9 C 0.2935(3) 0.2408(3) 1.0216(3)
C10 C 0.1983(3) 0.3218(3) 1.0835(3)
C11 C 0.1004(4) 0.2772(3) 1.1787(3)
H10 H 0.099(3) 0.189(3) 1.197(2)
C12 C 0.0148(3) 0.3561(3) 1.2393(3)
C13 C 0.0226(4) 0.4878(4) 1.2029(3)
H11 H -0.039(4) 0.541(3) 1.245(3)
C14 C 0.1122(4) 0.5355(4) 1.1102(3)
H12 H 0.121(4) 0.616(4) 1.084(3)
C15 C 0.2031(3) 0.4554(3) 1.0472(3)
C16 C 0.3837(4) 0.2970(3) 0.9329(3)
H13 H 0.446(3) 0.244(3) 0.900(2)
C17 C 0.3790(3) 0.4318(3) 0.9000(3)
C18 C -0.0879(5) 0.3064(5) 1.3407(5)
H14 H -0.086(5) 0.330(4) 1.407(4)
H15 H -0.064(5) 0.218(5) 1.370(4)
H16 H -0.194(6) 0.352(5) 1.308(5)
C19 C 0.4749(4) 0.4919(3) 0.7990(3)
C20 C 0.5404(5) 0.4311(4) 0.7147(4)
H17 H 0.521(4) 0.356(4) 0.710(3)
C21 C 0.6318(5) 0.4859(4) 0.6236(4)
H18 H 0.676(4) 0.444(4) 0.566(3)
C22 C 0.6555(4) 0.6028(4) 0.6159(3)
C23 C 0.5910(4) 0.6652(4) 0.6970(3)
H19 H 0.602(4) 0.739(3) 0.691(3)
C24 C 0.5002(4) 0.6113(3) 0.7889(3)
H20 H 0.455(4) 0.652(3) 0.854(3)
O1 O 0.3207(3) -0.1104(2) 1.2010(2)
O2 O 0.3929(3) 0.0441(2) 1.2421(2)
O3 O 0.8285(4) 0.5926(3) 0.4632(3)
O4 O 0.7630(3) 0.7697(3) 0.5072(3)
N1 N 0.2914(3) 0.5087(2) 0.9553(2)
N2 N 0.7560(4) 0.6582(4) 0.5223(3)
H21 H -0.004(7) -0.033(6) 0.808(6)
H22 H 0.076(7) 0.019(6) 0.676(6)
loop_
_geom_bond_atom_site_label_1
_geom_bond_atom_site_label_2
_geom_bond_site_symmetry_1
_geom_bond_site_symmetry_2
S1 C3 1_555 1_555
S2 C1 1_555 1_555
C1 H1 1_555 1_555
H2 C1 1_555 1_555
C2 C1 1_555 1_555
C3 C2 1_555 1_555
H3 C3 1_555 1_555
H4 C3 1_555 1_555
C4 S1 1_555 1_555
C5 C4 1_555 1_555
C6 C5 1_555 1_555
C7 H5 1_555 1_555
H6 C7 1_555 1_555
C8 C7 1_555 1_555
H7 C8 1_555 1_555
H8 C8 1_555 1_555
H9 C8 1_555 1_555
C9 C5 1_555 1_555
C10 C9 1_555 1_555
C11 C10 1_555 1_555
H10 C11 1_555 1_555
C12 C11 1_555 1_555
C13 C12 1_555 1_555
H11 C13 1_555 1_555
C14 C13 1_555 1_555
H12 C14 1_555 1_555
C15 C10 1_555 1_555
C16 C9 1_555 1_555
H13 C16 1_555 1_555
C17 C16 1_555 1_555
C18 C12 1_555 1_555
H14 C18 1_555 1_555
H15 C18 1_555 1_555
H16 C18 1_555 1_555
C19 C17 1_555 1_555
C20 C19 1_555 1_555
H17 C20 1_555 1_555
C21 C20 1_555 1_555
H18 C21 1_555 1_555
C22 C21 1_555 1_555
C23 C22 1_555 1_555
H19 C23 1_555 1_555
C24 C19 1_555 1_555
H20 C24 1_555 1_555
O1 C6 1_555 1_555
O2 C6 1_555 1_555
O3 N2 1_555 1_555
O4 N2 1_555 1_555
N1 C15 1_555 1_555
N2 C22 1_555 1_555
H21 C2 1_555 1_555
H22 C2 1_555 1_555
S2 C4 1_555 1_555
C7 O2 1_555 1_555
C14 C15 1_555 1_555
C17 N1 1_555 1_555
C23 C24 1_555 1_555

#END
