
#######################################################################
#
#                 Cambridge Crystallographic Data Centre
#                                CCDC 
#
#######################################################################
#
# If this CIF has been generated from an entry in the Cambridge 
# Structural Database, then it will include bibliographic, chemical, 
# crystal, experimental, refinement or atomic coordinate data resulting 
# from the CCDC's data processing and validation procedures.
#
#######################################################################

data_VIKDEB
_chemical_formula_moiety         'C6 H16 N1 1+,C19 H26 B12 N1 O1 1-,C1 H2 Cl2'
_chemical_name_systematic        
'triethylammonium 1,2-benzamido-3-(2-(naphthalen-2-yl)ethyl)-closo-dodecaborate(9) dichloromethane solvate'
_symmetry_cell_setting           triclinic
_symmetry_space_group_name_H-M   'P -1'
_symmetry_Int_Tables_number      2
_space_group_name_Hall           '-P 1'
loop_
_symmetry_equiv_pos_site_id
_symmetry_equiv_pos_as_xyz
1 x,y,z
2 -x,-y,-z
_cell_length_a                   10.5913(6)
_cell_length_b                   11.8883(7)
_cell_length_c                   13.5910(9)
_cell_angle_alpha                81.212(5)
_cell_angle_beta                 85.469(5)
_cell_angle_gamma                78.386(5)
_cell_volume                     1654.5
_exptl_crystal_colour            yellow
_exptl_crystal_description       block
_cell_formula_units_Z            2
loop_
_atom_site_label
_atom_site_type_symbol
_atom_site_fract_x
_atom_site_fract_y
_atom_site_fract_z
Cl1 Cl 1.28250(14) 0.24001(11) 0.38645(11)
Cl2 Cl 1.0471(3) 0.37234(12) 0.46593(11)
C1 C 1.1296(4) 0.2355(3) 0.4463(3)
H1 H 1.078213 0.201647 0.404965
H2 H 1.140253 0.184764 0.511166
O1 O 0.82385(18) 0.30416(15) 0.12897(13)
N1 N 0.9362(2) 0.17860(17) 0.03414(15)
H3 H 0.982967 0.157546 -0.018799
C2 C 0.8873(3) 0.2861(2) 0.04449(19)
C3 C 0.8990(3) 0.3837(2) -0.03294(19)
C4 C 0.9762(3) 0.3669(3) -0.1187(2)
H4 H 1.022154 0.291383 -0.127139
C5 C 0.9868(4) 0.4591(3) -0.1916(2)
H5 H 1.040141 0.446848 -0.250065
C6 C 0.9208(3) 0.5684(3) -0.1806(2)
H6 H 0.928772 0.631881 -0.230821
C7 C 0.8430(3) 0.5855(2) -0.0961(2)
H7 H 0.796261 0.661045 -0.088715
C8 C 0.8320(3) 0.4940(2) -0.0220(2)
H8 H 0.778600 0.506786 0.036353
C9 C 0.6436(3) 0.1545(2) 0.05016(19)
H9 H 0.700423 0.173595 -0.008830
H10 H 0.600788 0.092510 0.035642
C10 C 0.5380(3) 0.2631(2) 0.0611(2)
H11 H 0.471683 0.242590 0.112541
H12 H 0.576899 0.323419 0.083290
C11 C 0.4755(3) 0.3101(2) -0.03618(19)
C12 C 0.3821(3) 0.2542(2) -0.0683(2)
H13 H 0.354814 0.191729 -0.025491
C13 C 0.3314(3) 0.2891(2) -0.1596(2)
H14 H 0.268470 0.251079 -0.178857
C14 C 0.3702(3) 0.3800(2) -0.2256(2)
C15 C 0.4613(3) 0.4387(2) -0.1945(2)
C16 C 0.5109(3) 0.4010(2) -0.0980(2)
H15 H 0.570653 0.440639 -0.076106
C17 C 0.5014(4) 0.5292(3) -0.2609(2)
H16 H 0.561063 0.569974 -0.240594
C18 C 0.4557(5) 0.5588(3) -0.3540(3)
H17 H 0.483783 0.620192 -0.397840
C19 C 0.3681(5) 0.5005(3) -0.3859(3)
H18 H 0.338145 0.521397 -0.451520
C20 C 0.3255(3) 0.4137(3) -0.3234(2)
H19 H 0.265068 0.375053 -0.345573
B1 B 0.8179(3) 0.1921(3) 0.1956(2)
B2 B 0.9042(3) 0.0944(3) 0.1223(2)
B3 B 0.7325(3) 0.1027(2) 0.1416(2)
B4 B 0.6947(3) 0.1318(2) 0.2672(2)
H20 H 0.599799 0.184789 0.289594
B5 B 0.8411(3) 0.1385(3) 0.3225(2)
H21 H 0.840811 0.195990 0.380674
B6 B 0.9717(3) 0.1134(3) 0.2324(2)
H22 H 1.058065 0.154548 0.232159
B7 B 0.9872(3) -0.0284(3) 0.1976(2)
H23 H 1.082252 -0.080163 0.173995
B8 B 0.8402(3) -0.0337(3) 0.1420(2)
H24 H 0.840243 -0.088837 0.082135
B9 B 0.7114(3) -0.0116(2) 0.2351(2)
H25 H 0.625926 -0.054345 0.237552
B10 B 0.7767(3) 0.0091(3) 0.3458(2)
H26 H 0.734154 -0.019815 0.421205
B11 B 0.9464(3) -0.0014(3) 0.3243(2)
H27 H 1.015330 -0.036718 0.385003
B12 B 0.8657(3) -0.0929(3) 0.2693(2)
H28 H 0.881631 -0.188792 0.294022
N2 N 0.7222(2) 0.1456(2) -0.32049(17)
H29 H 0.812777 0.108906 -0.303415
C21 C 0.6916(3) 0.0924(3) -0.4069(2)
H30 H 0.705350 0.007168 -0.388118
H31 H 0.752539 0.108982 -0.463806
C22 C 0.5557(3) 0.1355(4) -0.4399(2)
H32 H 0.545945 0.105310 -0.501489
H33 H 0.538061 0.220479 -0.451975
H34 H 0.494839 0.108799 -0.387788
C23 C 0.6381(3) 0.1235(3) -0.2291(2)
H35 H 0.661097 0.163919 -0.176548
H36 H 0.547117 0.156400 -0.244361
C24 C 0.6501(3) -0.0018(4) -0.1905(3)
H37 H 0.617859 -0.040882 -0.239088
H38 H 0.599438 -0.011045 -0.127326
H39 H 0.740978 -0.036290 -0.179788
C25 C 0.7192(4) 0.2737(3) -0.3509(4)
H40 H 0.745852 0.285970 -0.422549
H41 H 0.628465 0.314662 -0.343803
C26 C 0.7951(5) 0.3275(4) -0.2995(4)
H42 H 0.763868 0.324708 -0.229558
H43 H 0.789266 0.408566 -0.329913
H44 H 0.885176 0.286893 -0.303381
H45? H 0.646319 0.304016 -0.395006
H46? H 0.698130 0.311405 -0.289914
C27? C 0.8252(10) 0.3108(9) -0.3977(9)
H47? H 0.903343 0.263124 -0.368236
H48? H 0.820971 0.392045 -0.389880
H49? H 0.827565 0.303712 -0.468805
loop_
_geom_bond_atom_site_label_1
_geom_bond_atom_site_label_2
_geom_bond_site_symmetry_1
_geom_bond_site_symmetry_2
Cl1 C1 1_555 1_555
Cl2 C1 1_555 1_555
C1 H1 1_555 1_555
H2 C1 1_555 1_555
O1 C2 1_555 1_555
N1 H3 1_555 1_555
C2 N1 1_555 1_555
C3 C2 1_555 1_555
C4 C3 1_555 1_555
H4 C4 1_555 1_555
C5 C4 1_555 1_555
H5 C5 1_555 1_555
C6 C5 1_555 1_555
H6 C6 1_555 1_555
C7 C6 1_555 1_555
H7 C7 1_555 1_555
C8 C3 1_555 1_555
H8 C8 1_555 1_555
C9 H9 1_555 1_555
H10 C9 1_555 1_555
C10 C9 1_555 1_555
H11 C10 1_555 1_555
H12 C10 1_555 1_555
C11 C10 1_555 1_555
C12 C11 1_555 1_555
H13 C12 1_555 1_555
C13 C12 1_555 1_555
H14 C13 1_555 1_555
C14 C13 1_555 1_555
C15 C14 1_555 1_555
C16 C11 1_555 1_555
H15 C16 1_555 1_555
C17 C15 1_555 1_555
H16 C17 1_555 1_555
C18 C17 1_555 1_555
H17 C18 1_555 1_555
C19 C18 1_555 1_555
H18 C19 1_555 1_555
C20 C14 1_555 1_555
H19 C20 1_555 1_555
B1 O1 1_555 1_555
B2 N1 1_555 1_555
B3 C9 1_555 1_555
B4 B1 1_555 1_555
H20 B4 1_555 1_555
B5 B1 1_555 1_555
H21 B5 1_555 1_555
B6 B1 1_555 1_555
H22 B6 1_555 1_555
B7 B2 1_555 1_555
H23 B7 1_555 1_555
B8 B2 1_555 1_555
H24 B8 1_555 1_555
B9 B3 1_555 1_555
H25 B9 1_555 1_555
B10 B4 1_555 1_555
H26 B10 1_555 1_555
B11 B5 1_555 1_555
H27 B11 1_555 1_555
B12 B7 1_555 1_555
H28 B12 1_555 1_555
N2 H29 1_555 1_555
C21 N2 1_555 1_555
H30 C21 1_555 1_555
H31 C21 1_555 1_555
C22 C21 1_555 1_555
H32 C22 1_555 1_555
H33 C22 1_555 1_555
H34 C22 1_555 1_555
C23 N2 1_555 1_555
H35 C23 1_555 1_555
H36 C23 1_555 1_555
C24 C23 1_555 1_555
H37 C24 1_555 1_555
H38 C24 1_555 1_555
H39 C24 1_555 1_555
C25 N2 1_555 1_555
H40 C25 1_555 1_555
H41 C25 1_555 1_555
C26 C25 1_555 1_555
H42 C26 1_555 1_555
H43 C26 1_555 1_555
H44 C26 1_555 1_555
C7 C8 1_555 1_555
C15 C16 1_555 1_555
C19 C20 1_555 1_555
B1 B2 1_555 1_555
B1 B3 1_555 1_555
B2 B3 1_555 1_555
B2 B6 1_555 1_555
B3 B4 1_555 1_555
B3 B8 1_555 1_555
B4 B5 1_555 1_555
B4 B9 1_555 1_555
B5 B6 1_555 1_555
B5 B10 1_555 1_555
B6 B7 1_555 1_555
B6 B11 1_555 1_555
B7 B8 1_555 1_555
B7 B11 1_555 1_555
B8 B9 1_555 1_555
B8 B12 1_555 1_555
B9 B10 1_555 1_555
B9 B12 1_555 1_555
B10 B11 1_555 1_555
B10 B12 1_555 1_555
B11 B12 1_555 1_555

#END
