
#######################################################################
#
#                 Cambridge Crystallographic Data Centre
#                                CCDC 
#
#######################################################################
#
# If this CIF has been generated from an entry in the Cambridge 
# Structural Database, then it will include bibliographic, chemical, 
# crystal, experimental, refinement or atomic coordinate data resulting 
# from the CCDC's data processing and validation procedures.
#
#######################################################################

data_VIKJOP
_chemical_formula_moiety         'C14 H14 N2 O2'
_chemical_name_systematic        
6-Methoxy-2-(2-pyridylmethyliminomethyl)phenol
_symmetry_cell_setting           monoclinic
_symmetry_space_group_name_H-M   'P 21/c'
_symmetry_Int_Tables_number      14
_space_group_name_Hall           '-P 2ybc'
loop_
_symmetry_equiv_pos_site_id
_symmetry_equiv_pos_as_xyz
1 x,y,z
2 -x,1/2+y,1/2-z
3 -x,-y,-z
4 x,1/2-y,1/2+z
_cell_length_a                   9.0899(2)
_cell_length_b                   5.66260(10)
_cell_length_c                   24.2440(5)
_cell_angle_alpha                90
_cell_angle_beta                 92.626(2)
_cell_angle_gamma                90
_cell_volume                     1246.59
_exptl_crystal_colour            yellow
_exptl_crystal_description       strip
_cell_formula_units_Z            4
loop_
_atom_site_label
_atom_site_type_symbol
_atom_site_fract_x
_atom_site_fract_y
_atom_site_fract_z
O1 O 0.17097(10) 0.9235(2) 0.15683(4)
H1 H 0.1843 0.8212 0.1337
C1 C 0.29151(14) 1.0610(3) 0.16245(5)
O2 O 0.16576(11) 1.2706(2) 0.22814(4)
C2 C 0.41579(15) 1.0222(3) 0.13125(6)
N1 N 0.30337(15) 0.7011(3) 0.08109(5)
C3 C 0.29218(14) 1.2481(3) 0.20015(6)
C4 C 0.41632(17) 0.8307(3) 0.09163(6)
H2 H 0.5019 0.8009 0.0732
C5 C 0.53800(16) 1.1743(4) 0.13884(7)
H3 H 0.6205 1.1511 0.1182
C6 C 0.41353(16) 1.3924(3) 0.20683(6)
H4 H 0.4132 1.5160 0.2321
C7 C 0.22332(15) 0.5451(3) -0.01100(6)
N2 N 0.22922(16) 0.3658(2) -0.04625(6)
C8 C 0.3129(2) 0.5075(3) 0.04198(6)
H5 H 0.2799 0.3637 0.0593
H6 H 0.4152 0.4857 0.0334
C9 C 0.1541(2) 1.4681(4) 0.26385(7)
H7 H 0.0610 1.4632 0.2810
H8 H 0.1608 1.6112 0.2429
H9 H 0.2324 1.4634 0.2918
C10 C 0.14319(18) 0.7454(3) -0.02253(7)
H10 H 0.1425 0.8690 0.0027
C11 C 0.06709(19) 0.5785(4) -0.10834(7)
H11 H 0.0134 0.5838 -0.1419
C12 C 0.53675(17) 1.3544(4) 0.17593(7)
H12 H 0.6184 1.4525 0.1807
C13 C 0.0637(2) 0.7607(4) -0.07208(8)
H13 H 0.0081 0.8948 -0.0806
C14 C 0.1515(2) 0.3875(4) -0.09402(8)
H14 H 0.1553 0.2641 -0.1192
loop_
_geom_bond_atom_site_label_1
_geom_bond_atom_site_label_2
_geom_bond_site_symmetry_1
_geom_bond_site_symmetry_2
O1 H1 1_555 1_555
C1 O1 1_555 1_555
O2 C3 1_555 1_555
C2 C1 1_555 1_555
N1 C4 1_555 1_555
C3 C1 1_555 1_555
C4 C2 1_555 1_555
H2 C4 1_555 1_555
C5 C2 1_555 1_555
H3 C5 1_555 1_555
C6 C3 1_555 1_555
H4 C6 1_555 1_555
C7 N2 1_555 1_555
N2 C14 1_555 1_555
C8 N1 1_555 1_555
H5 C8 1_555 1_555
H6 C8 1_555 1_555
C9 O2 1_555 1_555
H7 C9 1_555 1_555
H8 C9 1_555 1_555
H9 C9 1_555 1_555
C10 C7 1_555 1_555
H10 C10 1_555 1_555
C11 H11 1_555 1_555
C12 C5 1_555 1_555
H12 C12 1_555 1_555
C13 C10 1_555 1_555
H13 C13 1_555 1_555
C14 C11 1_555 1_555
H14 C14 1_555 1_555
C6 C12 1_555 1_555
C7 C8 1_555 1_555
C11 C13 1_555 1_555

#END
