
#######################################################################
#
#                 Cambridge Crystallographic Data Centre
#                                CCDC 
#
#######################################################################
#
# If this CIF has been generated from an entry in the Cambridge 
# Structural Database, then it will include bibliographic, chemical, 
# crystal, experimental, refinement or atomic coordinate data resulting 
# from the CCDC's data processing and validation procedures.
#
#######################################################################

data_VIKJIJ
_chemical_formula_moiety         'C13 H15 N2 S1 1+,I1 1-'
_chemical_name_systematic        
'(E)-2-(2-Anilinovinyl)-3,4-dimethylthiazol-3-ium iodide'
_symmetry_cell_setting           monoclinic
_symmetry_space_group_name_H-M   'C 2/c'
_symmetry_Int_Tables_number      15
_space_group_name_Hall           '-C 2yn'
loop_
_symmetry_equiv_pos_site_id
_symmetry_equiv_pos_as_xyz
1 x,y,z
2 1/2+x,1/2+y,z
3 -x,y,1/2-z
4 1/2-x,1/2+y,1/2-z
5 -x,-y,-z
6 1/2-x,1/2-y,-z
7 x,-y,1/2+z
8 1/2+x,1/2-y,1/2+z
_cell_length_a                   15.830(3)
_cell_length_b                   11.3918(15)
_cell_length_c                   16.787(3)
_cell_angle_alpha                90
_cell_angle_beta                 114.118(11)
_cell_angle_gamma                90
_cell_volume                     2762.98
_exptl_crystal_colour            red
_exptl_crystal_description       block
_cell_formula_units_Z            8
_exptl_crystal_recrystallization_method 'methanol/diethyl ether'
loop_
_atom_site_label
_atom_site_type_symbol
_atom_site_fract_x
_atom_site_fract_y
_atom_site_fract_z
I1 I 0.910963(14) 0.004448(18) 0.580356(13)
S1 S 0.60582(5) 0.30762(7) 0.23224(5)
N1 N 0.75770(15) 0.2168(2) 0.24803(14)
C1 C 0.7179(2) 0.1634(3) 0.36907(18)
H1 H 0.7731 0.1220 0.3955
C2 C 0.6589(2) 0.1649(2) 0.40926(18)
H2 H 0.6023 0.2029 0.3819
C3 C 0.6462(2) 0.3346(3) 0.15299(18)
H3 H 0.6147 0.3797 0.1035
N2 N 0.67922(19) 0.1137(2) 0.48681(16)
C4 C 0.7276(2) 0.2835(3) 0.17069(18)
C5 C 0.5398(2) 0.1630(3) 0.5086(2)
H4 H 0.5172 0.2079 0.4579
C6 C 0.70041(19) 0.2212(2) 0.28914(18)
C7 C 0.6599(2) 0.0458(3) 0.61312(19)
H5 H 0.7181 0.0112 0.6324
C8 C 0.6249(2) 0.1085(2) 0.53502(17)
C9 C 0.6082(3) 0.0355(3) 0.6613(2)
H6 H 0.6315 -0.0070 0.7132
C10 C 0.4884(2) 0.1506(3) 0.5578(2)
H7 H 0.4304 0.1857 0.5391
C11 C 0.7850(3) 0.2912(3) 0.1196(2)
H8 H 0.7552 0.3418 0.0703
H9 H 0.7920 0.2143 0.0997
H10 H 0.8448 0.3224 0.1558
C12 C 0.5222(2) 0.0870(3) 0.6340(2)
H11 H 0.4874 0.0788 0.6668
C13 C 0.8446(2) 0.1497(3) 0.2817(2)
H12 H 0.8873 0.1849 0.3349
H13 H 0.8709 0.1501 0.2393
H14 H 0.8323 0.0703 0.2929
H15 H 0.730(2) 0.084(3) 0.508(2)
loop_
_geom_bond_atom_site_label_1
_geom_bond_atom_site_label_2
_geom_bond_site_symmetry_1
_geom_bond_site_symmetry_2
S1 C3 1_555 1_555
N1 C4 1_555 1_555
C1 H1 1_555 1_555
C2 C1 1_555 1_555
H2 C2 1_555 1_555
C3 H3 1_555 1_555
N2 C2 1_555 1_555
C4 C3 1_555 1_555
C5 H4 1_555 1_555
C6 S1 1_555 1_555
C7 H5 1_555 1_555
C8 N2 1_555 1_555
C9 C7 1_555 1_555
H6 C9 1_555 1_555
C10 C5 1_555 1_555
H7 C10 1_555 1_555
C11 C4 1_555 1_555
H8 C11 1_555 1_555
H9 C11 1_555 1_555
H10 C11 1_555 1_555
C12 C9 1_555 1_555
H11 C12 1_555 1_555
C13 N1 1_555 1_555
H12 C13 1_555 1_555
H13 C13 1_555 1_555
H14 C13 1_555 1_555
H15 N2 1_555 1_555
N1 C6 1_555 1_555
C1 C6 1_555 1_555
C5 C8 1_555 1_555
C7 C8 1_555 1_555
C10 C12 1_555 1_555

#END
