
#######################################################################
#
#                 Cambridge Crystallographic Data Centre
#                                CCDC 
#
#######################################################################
#
# If this CIF has been generated from an entry in the Cambridge 
# Structural Database, then it will include bibliographic, chemical, 
# crystal, experimental, refinement or atomic coordinate data resulting 
# from the CCDC's data processing and validation procedures.
#
#######################################################################

data_VIKTOZ
_chemical_formula_moiety         'C14 H16 N4 O8'
_chemical_name_systematic        
"cis-syn-3,3'-(Dodecahydro-2,4,5,7-tetraoxocyclobuta(1,2-d:4,3-d)dipyrimidine-1,8-diyl)dipropionic acid"
_symmetry_cell_setting           monoclinic
_symmetry_space_group_name_H-M   'C c'
_symmetry_Int_Tables_number      9
_space_group_name_Hall           'C -2yc'
loop_
_symmetry_equiv_pos_site_id
_symmetry_equiv_pos_as_xyz
1 x,y,z
2 x,-y,1/2+z
3 1/2+x,1/2+y,z
4 1/2+x,1/2-y,1/2+z
_cell_length_a                   15.260(5)
_cell_length_b                   14.656(4)
_cell_length_c                   7.037(2)
_cell_angle_alpha                90
_cell_angle_beta                 97.257(4)
_cell_angle_gamma                90
_cell_volume                     1561.22
_exptl_crystal_colour            colorless
_exptl_crystal_description       block
_chemical_melting_point          'above 250 deg.C'
_cell_formula_units_Z            4
_exptl_crystal_recrystallization_method water
loop_
_atom_site_label
_atom_site_type_symbol
_atom_site_fract_x
_atom_site_fract_y
_atom_site_fract_z
O1 O 0.14258(9) 0.00600(9) 0.7861(2)
O2 O 0.00558(9) 0.26658(10) 0.5706(2)
O3 O 0.10031(11) 0.39731(11) 1.2506(2)
O4 O -0.01591(10) 0.30353(10) 1.1988(2)
H1 H -0.001(2) 0.2890(18) 1.329(5)
O5 O 0.34713(9) 0.00380(9) 0.76433(19)
O6 O 0.28246(10) 0.22421(9) 0.32709(19)
O7 O 0.43961(9) 0.40979(9) 0.8245(2)
O8 O 0.51603(10) 0.41663(11) 0.5728(2)
H2 H 0.558(2) 0.436(2) 0.657(5)
N1 N 0.08532(10) 0.14005(11) 0.6640(2)
N2 N 0.12005(10) 0.28330(10) 0.8063(2)
N3 N 0.30077(11) 0.11381(11) 0.5529(2)
N4 N 0.28331(10) 0.26779(10) 0.6369(2)
C1 C 0.20159(11) 0.14122(12) 0.9372(3)
H3 H 0.1977 0.1192 1.0704
C2 C 0.14074(12) 0.08973(12) 0.7915(3)
C3 C 0.06837(12) 0.23407(13) 0.6766(3)
C4 C 0.19684(12) 0.24644(13) 0.9230(3)
H4 H 0.2030 0.2741 1.0540
C5 C 0.09784(13) 0.38050(13) 0.8266(3)
H5 H 0.0847 0.4082 0.6979
H6 H 0.1494 0.4127 0.8954
C6 C 0.01826(13) 0.39272(13) 0.9360(3)
H7 H -0.0007 0.4574 0.9283
H8 H -0.0314 0.3550 0.8752
C7 C 0.03950(12) 0.36556(13) 1.1440(3)
C8 C 0.30012(11) 0.14527(12) 0.8913(3)
H9 H 0.3428 0.1363 1.0098
C9 C 0.31996(11) 0.08216(12) 0.7345(3)
C10 C 0.28780(11) 0.20516(13) 0.4972(3)
C11 C 0.28873(12) 0.24798(12) 0.8409(3)
H10 H 0.3334 0.2870 0.9193
C12 C 0.27898(12) 0.36428(12) 0.5778(3)
H11 H 0.2684 0.4025 0.6887
H12 H 0.2284 0.3728 0.4766
C13 C 0.36307(13) 0.39633(14) 0.5029(3)
H13 H 0.3780 0.3522 0.4054
H14 H 0.3511 0.4558 0.4381
C14 C 0.44211(12) 0.40679(12) 0.6525(3)
H15 H 0.0470(19) 0.1092(18) 0.573(4)
H16 H 0.3102(16) 0.0745(17) 0.460(3)
loop_
_geom_bond_atom_site_label_1
_geom_bond_atom_site_label_2
_geom_bond_site_symmetry_1
_geom_bond_site_symmetry_2
O1 C2 1_555 1_555
O2 C3 1_555 1_555
O3 C7 1_555 1_555
O4 H1 1_555 1_555
O5 C9 1_555 1_555
O6 C10 1_555 1_555
O7 C14 1_555 1_555
O8 H2 1_555 1_555
N1 C2 1_555 1_555
N2 C3 1_555 1_555
N3 C9 1_555 1_555
N4 C10 1_555 1_555
C1 H3 1_555 1_555
C2 C1 1_555 1_555
C3 N1 1_555 1_555
C4 N2 1_555 1_555
H4 C4 1_555 1_555
C5 N2 1_555 1_555
H5 C5 1_555 1_555
H6 C5 1_555 1_555
C6 C5 1_555 1_555
H7 C6 1_555 1_555
H8 C6 1_555 1_555
C7 O4 1_555 1_555
C8 C1 1_555 1_555
H9 C8 1_555 1_555
C9 C8 1_555 1_555
C10 N3 1_555 1_555
C11 N4 1_555 1_555
H10 C11 1_555 1_555
C12 N4 1_555 1_555
H11 C12 1_555 1_555
H12 C12 1_555 1_555
C13 C12 1_555 1_555
H13 C13 1_555 1_555
H14 C13 1_555 1_555
C14 O8 1_555 1_555
H15 N1 1_555 1_555
H16 N3 1_555 1_555
C1 C4 1_555 1_555
C4 C11 1_555 1_555
C6 C7 1_555 1_555
C8 C11 1_555 1_555
C13 C14 1_555 1_555

#END
