
#######################################################################
#
#                 Cambridge Crystallographic Data Centre
#                                CCDC 
#
#######################################################################
#
# If this CIF has been generated from an entry in the Cambridge 
# Structural Database, then it will include bibliographic, chemical, 
# crystal, experimental, refinement or atomic coordinate data resulting 
# from the CCDC's data processing and validation procedures.
#
#######################################################################

data_VILBUQ
_chemical_formula_moiety         'C51 H60 O10,C3 H6 O1'
_chemical_name_systematic        
'9,14,19,24,26,28,30,32-octaethoxyhexacyclo[21.2.2.2^3,6^.2^8,11^.2^13,16^.2^18,21^]pentatriaconta-1(25),3(35),5,8,10,13,15,18,20,23,26,28,30,32-tetradecaene-4,34-dione propionaldehyde clathrate'
_symmetry_cell_setting           monoclinic
_symmetry_space_group_name_H-M   'P 21/n'
_symmetry_Int_Tables_number      14
_space_group_name_Hall           '-P 2yn'
loop_
_symmetry_equiv_pos_site_id
_symmetry_equiv_pos_as_xyz
1 x,y,z
2 1/2-x,1/2+y,1/2-z
3 -x,-y,-z
4 1/2+x,1/2-y,1/2+z
_cell_length_a                   13.6097(12)
_cell_length_b                   18.0867(11)
_cell_length_c                   21.2266(14)
_cell_angle_alpha                90
_cell_angle_beta                 95.041(7)
_cell_angle_gamma                90
_cell_volume                     5204.81
_exptl_crystal_colour            'dark red'
_exptl_crystal_description       block
_cell_formula_units_Z            4
loop_
_atom_site_label
_atom_site_type_symbol
_atom_site_fract_x
_atom_site_fract_y
_atom_site_fract_z
O1 O 0.57763(17) 0.93492(13) 0.19582(12)
O2 O 0.98155(18) 0.89693(14) 0.22470(13)
C1 C 0.6782(2) 0.92330(17) 0.20391(15)
O3 O 0.7243(2) 0.69326(14) 0.27475(14)
O4 O 1.0074(2) 0.62964(16) -0.05822(12)
C2 C 0.8236(3) 0.86064(17) 0.25086(14)
C3 C 0.8807(3) 0.90758(18) 0.21663(16)
C4 C 0.7218(2) 0.87007(17) 0.24365(15)
H1 H 0.681375 0.839096 0.266647
O5 O 0.51030(19) 0.86883(14) -0.03788(12)
C5 C 0.6763(3) 0.99512(16) 0.05732(15)
C6 C 0.8358(3) 0.96052(17) 0.17624(15)
H2 H 0.875924 0.991031 0.152605
C7 C 0.8864(3) 0.72932(18) 0.25945(15)
C8 C 0.7355(3) 0.97010(16) 0.16943(15)
O6 O 0.8209(2) 1.05456(16) 0.03240(14)
O7 O 1.0792(2) 0.63281(18) 0.17845(15)
C9 C 0.9163(3) 0.60003(19) 0.19029(17)
O8 O 0.6193(2) 0.63148(16) -0.11289(16)
C10 C 0.5847(3) 0.91604(17) -0.01941(17)
C11 C 0.9428(3) 0.59796(18) -0.02076(18)
C12 C 0.6801(3) 0.8212(2) -0.12924(14)
C13 C 0.7785(3) 0.6782(2) -0.12452(16)
C14 C 0.5977(3) 0.94868(17) 0.04013(16)
H3 H 0.551232 0.938730 0.069902
C15 C 0.9663(3) 0.57939(18) 0.04285(18)
H4 H 1.031626 0.587521 0.061120
C16 C 0.8503(3) 0.58322(19) -0.04912(18)
C17 C 0.8117(3) 0.67783(19) 0.24889(17)
C18 C 0.6355(3) 0.8977(2) -0.13021(16)
H5 H 0.564240 0.894743 -0.143978
H6 H 0.667411 0.929139 -0.160697
C19 C 0.7430(3) 1.00916(18) 0.01314(18)
C20 C 0.6270(3) 0.7605(2) -0.12102(16)
H7 H 0.558587 0.765582 -0.116293
C21 C 0.9750(3) 0.7147(2) 0.23559(16)
H8 H 1.026861 0.749708 0.242264
O9 O 0.8351(3) 0.86750(18) -0.14934(17)
C22 C 0.8037(4) 0.5375(2) 0.0516(2)
C23 C 0.8708(3) 0.80128(18) 0.29450(16)
H9 H 0.828002 0.791746 0.329008
H10 H 0.935128 0.819426 0.313822
C24 C 0.6501(3) 0.93194(18) -0.06414(16)
C25 C 0.6892(3) 1.02672(16) 0.12340(15)
H11 H 0.624229 1.041815 0.136677
H12 H 0.731753 1.071150 0.123745
C26 C 0.7854(3) 0.8133(2) -0.13794(18)
C27 C 0.5154(3) 0.8833(2) 0.2218(2)
H13 H 0.528943 0.882183 0.268396
H14 H 0.527636 0.833344 0.205198
C28 C 0.7280(3) 0.97835(19) -0.04730(17)
H15 H 0.773028 0.989820 -0.077655
C29 C 0.8984(3) 0.54994(18) 0.07956(18)
C30 C 0.9255(3) 0.53213(19) 0.14860(18)
H16 H 0.994089 0.513502 0.153986
H17 H 0.881522 0.492621 0.162078
C31 C 0.9914(3) 0.6505(2) 0.20201(17)
O10 O 0.7371(3) 0.5101(2) 0.09023(17)
C32 C 0.4119(3) 0.9048(3) 0.2048(3)
H18 H 0.397521 0.902029 0.158784
H19 H 0.401401 0.955564 0.218979
H20 H 0.368044 0.871229 0.225248
C33 C 0.7811(4) 0.5529(2) -0.0128(2)
H21 H 0.716891 0.542364 -0.031867
C34 C 0.8268(3) 0.61375(19) 0.21465(18)
H22 H 0.774863 0.578804 0.207855
C35 C 0.6713(3) 0.6852(2) -0.11898(17)
C36 C 0.8222(3) 0.6017(2) -0.11828(19)
H23 H 0.881430 0.598834 -0.142119
H24 H 0.773632 0.565077 -0.136574
C37 C 0.8288(3) 0.7389(2) -0.13423(18)
H25 H 0.897268 0.734201 -0.139126
C38 C 0.4477(3) 0.8455(2) 0.0083(2)
H26 H 0.410149 0.888110 0.023003
H27 H 0.487312 0.824035 0.045174
C39 C 1.1034(4) 0.6450(2) -0.0308(2)
H28 H 1.133708 0.599666 -0.011571
H29 H 1.101008 0.682944 0.002608
C40 C 1.1466(4) 0.9299(4) 0.2184(3)
H30 H 1.190258 0.962036 0.196275
H31 H 1.158139 0.878252 0.207376
H32 H 1.160198 0.936561 0.264182
C41 C 0.5562(4) 0.6750(3) 0.2870(4)
H33 H 0.496858 0.648325 0.270342
H34 H 0.546351 0.728194 0.280438
H35 H 0.569024 0.664905 0.332373
C42 C 0.6406(3) 0.6504(2) 0.2541(3)
H36 H 0.653966 0.597463 0.263136
H37 H 0.625578 0.656170 0.207838
C43 C 1.0432(3) 0.9495(3) 0.1996(3)
H38 H 1.028575 0.999285 0.215634
H39 H 1.031519 0.950135 0.152871
C44 C 1.1560(4) 0.6817(4) 0.1852(3)
H40 H 1.171221 0.694303 0.230344
H41 H 1.138364 0.727769 0.161625
C45 C 0.6363(6) 0.5038(5) 0.0656(4)
H42 H 0.613539 0.551227 0.046088
H43 H 0.629665 0.464940 0.032733
C46 C 1.1630(5) 0.6727(3) -0.0824(3)
H44 H 1.162191 0.635743 -0.116190
H45 H 1.231161 0.681360 -0.065052
H46 H 1.134496 0.719046 -0.099503
C47 C 0.3786(4) 0.7888(3) -0.0214(3)
H47 H 0.347517 0.807905 -0.061573
H48 H 0.327550 0.777802 0.007041
H49 H 0.415218 0.743606 -0.029251
C48 C 0.8847(5) 1.0780(4) -0.0110(3)
H50 H 0.849169 1.108779 -0.044256
H51 H 0.913967 1.035071 -0.031438
C49 C 1.2443(4) 0.6459(5) 0.1594(3)
H52 H 1.224236 0.622964 0.118471
H53 H 1.271356 0.608010 0.189067
H54 H 1.294764 0.683489 0.153994
C50 C 0.5810(6) 0.4865(6) 0.1131(4)
H55 H 0.570631 0.432924 0.113835
H56 H 0.517053 0.511600 0.106452
H57 H 0.614903 0.502451 0.153409
C51 C 0.9623(9) 1.1217(7) 0.0248(6)
H58 H 0.931938 1.162855 0.046109
H59 H 1.008001 1.141270 -0.004248
H60 H 0.998357 1.090115 0.056415
O11 O 0.8484(10) 0.7865(6) 0.0563(6)
C52 C 0.6986(14) 0.7358(9) 0.0670(8)
C53 C 0.7640(19) 0.7663(12) 0.0754(10)
C54 C 0.6187(11) 0.7328(7) 0.1000(7)
loop_
_geom_bond_atom_site_label_1
_geom_bond_atom_site_label_2
_geom_bond_site_symmetry_1
_geom_bond_site_symmetry_2
O1 C1 1_555 1_555
O2 C3 1_555 1_555
C1 C4 1_555 1_555
O3 C17 1_555 1_555
O4 C11 1_555 1_555
C2 C3 1_555 1_555
C3 C6 1_555 1_555
C4 C2 1_555 1_555
H1 C4 1_555 1_555
O5 C10 1_555 1_555
C5 C14 1_555 1_555
C6 H2 1_555 1_555
C7 C17 1_555 1_555
C8 C1 1_555 1_555
O6 C19 1_555 1_555
O7 C31 1_555 1_555
C9 C30 1_555 1_555
O8 C35 1_555 1_555
C10 C14 1_555 1_555
C11 C15 1_555 1_555
C12 C18 1_555 1_555
C13 C35 1_555 1_555
C14 H3 1_555 1_555
C15 H4 1_555 1_555
C16 C11 1_555 1_555
C17 C34 1_555 1_555
C18 H5 1_555 1_555
H6 C18 1_555 1_555
C19 C5 1_555 1_555
C20 C12 1_555 1_555
H7 C20 1_555 1_555
C21 C7 1_555 1_555
H8 C21 1_555 1_555
O9 C26 1_555 1_555
C22 C29 1_555 1_555
C23 C2 1_555 1_555
H9 C23 1_555 1_555
H10 C23 1_555 1_555
C24 C10 1_555 1_555
C25 C5 1_555 1_555
H11 C25 1_555 1_555
H12 C25 1_555 1_555
C26 C12 1_555 1_555
C27 O1 1_555 1_555
H13 C27 1_555 1_555
H14 C27 1_555 1_555
C28 C19 1_555 1_555
H15 C28 1_555 1_555
C29 C15 1_555 1_555
C30 C29 1_555 1_555
H16 C30 1_555 1_555
H17 C30 1_555 1_555
C31 C9 1_555 1_555
O10 C22 1_555 1_555
C32 C27 1_555 1_555
H18 C32 1_555 1_555
H19 C32 1_555 1_555
H20 C32 1_555 1_555
C33 C16 1_555 1_555
H21 C33 1_555 1_555
C34 C9 1_555 1_555
H22 C34 1_555 1_555
C35 C20 1_555 1_555
C36 C13 1_555 1_555
H23 C36 1_555 1_555
H24 C36 1_555 1_555
C37 C13 1_555 1_555
H25 C37 1_555 1_555
C38 O5 1_555 1_555
H26 C38 1_555 1_555
H27 C38 1_555 1_555
C39 O4 1_555 1_555
H28 C39 1_555 1_555
H29 C39 1_555 1_555
C40 H30 1_555 1_555
H31 C40 1_555 1_555
H32 C40 1_555 1_555
C41 H33 1_555 1_555
H34 C41 1_555 1_555
H35 C41 1_555 1_555
C42 O3 1_555 1_555
H36 C42 1_555 1_555
H37 C42 1_555 1_555
C43 O2 1_555 1_555
H38 C43 1_555 1_555
H39 C43 1_555 1_555
C44 O7 1_555 1_555
H40 C44 1_555 1_555
H41 C44 1_555 1_555
C45 O10 1_555 1_555
H42 C45 1_555 1_555
H43 C45 1_555 1_555
C46 C39 1_555 1_555
H44 C46 1_555 1_555
H45 C46 1_555 1_555
H46 C46 1_555 1_555
C47 C38 1_555 1_555
H47 C47 1_555 1_555
H48 C47 1_555 1_555
H49 C47 1_555 1_555
C48 O6 1_555 1_555
H50 C48 1_555 1_555
H51 C48 1_555 1_555
C49 C44 1_555 1_555
H52 C49 1_555 1_555
H53 C49 1_555 1_555
H54 C49 1_555 1_555
C50 C45 1_555 1_555
H55 C50 1_555 1_555
H56 C50 1_555 1_555
H57 C50 1_555 1_555
C51 C48 1_555 1_555
H58 C51 1_555 1_555
H59 C51 1_555 1_555
H60 C51 1_555 1_555
O11 C53 1_555 1_555
C52 C53 1_555 1_555
C54 C52 1_555 1_555
C6 C8 1_555 1_555
C7 C23 1_555 1_555
C8 C25 1_555 1_555
C16 C36 1_555 1_555
C18 C24 1_555 1_555
C21 C31 1_555 1_555
C22 C33 1_555 1_555
C24 C28 1_555 1_555
C26 C37 1_555 1_555
C40 C43 1_555 1_555
C41 C42 1_555 1_555

#END
