
#######################################################################
#
#                 Cambridge Crystallographic Data Centre
#                                CCDC 
#
#######################################################################
#
# If this CIF has been generated from an entry in the Cambridge 
# Structural Database, then it will include bibliographic, chemical, 
# crystal, experimental, refinement or atomic coordinate data resulting 
# from the CCDC's data processing and validation procedures.
#
#######################################################################

data_VILROZ
_chemical_formula_moiety         'C29 H29 N3 O3 S2'
_chemical_name_systematic        
5a-(2-(4-(1,2,5-Dithiazepan-5-yl)phenyl)vinyl)-6,6-dimethyl-2-nitro-5a,6-dihydro-12H-indolo[2,1-b][1,3]benzoxazine
_symmetry_cell_setting           monoclinic
_symmetry_space_group_name_H-M   'C 2/c'
_symmetry_Int_Tables_number      15
_space_group_name_Hall           '-C 2yn'
loop_
_symmetry_equiv_pos_site_id
_symmetry_equiv_pos_as_xyz
1 x,y,z
2 -x,y,1/2-z
3 1/2+x,1/2+y,z
4 1/2-x,1/2+y,1/2-z
5 -x,-y,-z
6 x,-y,1/2+z
7 1/2-x,1/2-y,-z
8 1/2+x,1/2-y,1/2+z
_cell_length_a                   23.621(5)
_cell_length_b                   10.344(5)
_cell_length_c                   21.808(5)
_cell_angle_alpha                90
_cell_angle_beta                 96.970(5)
_cell_angle_gamma                90
_cell_volume                     5289.09
_exptl_crystal_colour            purple
_exptl_crystal_description       block
_cell_formula_units_Z            8
loop_
_atom_site_label
_atom_site_type_symbol
_atom_site_fract_x
_atom_site_fract_y
_atom_site_fract_z
S1 S 0.52903(3) 0.97337(8) 0.11089(4)
S2 S 0.52150(3) 0.82902(9) 0.17114(3)
O1 O 0.71623(6) 0.04075(14) 0.17854(6)
O2 O 0.61593(11) -0.0115(3) 0.42635(10)
N1 N 0.52825(8) 0.6929(2) 0.04598(8)
N2 N 0.80064(7) 0.16352(18) 0.20828(7)
O3 O 0.67461(9) 0.1434(2) 0.45036(8)
C1 C 0.73226(9) 0.1287(2) 0.28165(10)
C2 C 0.65416(10) 0.4844(2) 0.08081(10)
H1 H 0.6933 0.4887 0.0792
C3 C 0.63121(9) 0.3717(2) 0.10190(9)
N3 N 0.65167(11) 0.0650(3) 0.41354(11)
C4 C 0.70096(9) 0.0542(2) 0.23620(10)
C5 C 0.62123(10) 0.5893(2) 0.06237(9)
H2 H 0.6384 0.6629 0.0486
C6 C 0.72126(10) 0.2582(2) 0.14098(10)
H3 H 0.7408 0.3362 0.1410
C7 C 0.66571(10) 0.2607(2) 0.12471(10)
H4 H 0.6463 0.1832 0.1281
C8 C 0.57265(10) 0.3692(2) 0.10148(10)
H5 H 0.5555 0.2939 0.1135
C9 C 0.84038(9) 0.0638(2) 0.20578(9)
C10 C 0.65324(10) -0.0130(2) 0.24888(11)
H6 H 0.6323 -0.0609 0.2179
C11 C 0.66797(11) 0.0625(2) 0.35129(11)
C12 C 0.75493(9) 0.1403(2) 0.15924(9)
C13 C 0.56206(10) 0.5878(2) 0.06388(9)
C14 C 0.83395(9) 0.0095(2) 0.14722(10)
C15 C 0.78554(9) 0.0764(2) 0.10786(10)
C16 C 0.71457(10) 0.1321(2) 0.33947(10)
H7 H 0.7344 0.1819 0.3705
C17 C 0.63660(11) -0.0096(2) 0.30663(12)
H8 H 0.6047 -0.0552 0.3155
C18 C 0.81045(11) 0.1816(3) 0.06955(10)
H9 H 0.7801 0.2249 0.0443
H10 H 0.8358 0.1429 0.0436
H11 H 0.8311 0.2430 0.0967
C19 C 0.74738(11) -0.0121(3) 0.06603(11)
H12 H 0.7180 0.0379 0.0428
H13 H 0.7303 -0.0749 0.0905
H14 H 0.7696 -0.0555 0.0382
C20 C 0.55071(12) 0.8055(3) 0.01811(11)
H15 H 0.5199 0.8460 -0.0086
H16 H 0.5790 0.7771 -0.0078
C21 C 0.53898(10) 0.4740(2) 0.08390(10)
H17 H 0.4999 0.4688 0.0854
C22 C 0.78250(10) 0.2044(2) 0.26644(10)
H18 H 0.7727 0.2955 0.2641
H19 H 0.8138 0.1934 0.2992
C23 C 0.88288(10) 0.0228(3) 0.25026(11)
H20 H 0.8875 0.0593 0.2895
C24 C 0.91844(11) -0.0743(3) 0.23473(13)
H21 H 0.9470 -0.1043 0.2644
C25 C 0.87025(11) -0.0854(3) 0.13242(12)
H22 H 0.8664 -0.1211 0.0930
C26 C 0.47183(10) 0.7038(3) 0.06480(11)
H23 H 0.4499 0.6280 0.0505
H24 H 0.4531 0.7786 0.0446
C27 C 0.91312(12) -0.1276(3) 0.17737(14)
H25 H 0.9381 -0.1923 0.1682
C28 C 0.47074(11) 0.7168(3) 0.13354(12)
H26 H 0.4778 0.6324 0.1524
H27 H 0.4328 0.7436 0.1409
C29 C 0.57766(12) 0.9061(3) 0.06230(12)
H28 H 0.5926 0.9752 0.0389
H29 H 0.6095 0.8674 0.0881
loop_
_geom_bond_atom_site_label_1
_geom_bond_atom_site_label_2
_geom_bond_site_symmetry_1
_geom_bond_site_symmetry_2
S1 S2 1_555 1_555
S2 C28 1_555 1_555
O1 C4 1_555 1_555
O2 N3 1_555 1_555
N1 C13 1_555 1_555
N2 C9 1_555 1_555
O3 N3 1_555 1_555
C1 C4 1_555 1_555
C2 H1 1_555 1_555
C3 C2 1_555 1_555
N3 C11 1_555 1_555
C4 C10 1_555 1_555
C5 C2 1_555 1_555
H2 C5 1_555 1_555
C6 H3 1_555 1_555
C7 C3 1_555 1_555
H4 C7 1_555 1_555
C8 C3 1_555 1_555
H5 C8 1_555 1_555
C9 C14 1_555 1_555
C10 H6 1_555 1_555
C11 C16 1_555 1_555
C12 O1 1_555 1_555
C13 C5 1_555 1_555
C14 C15 1_555 1_555
C15 C12 1_555 1_555
C16 C1 1_555 1_555
H7 C16 1_555 1_555
C17 C10 1_555 1_555
H8 C17 1_555 1_555
C18 C15 1_555 1_555
H9 C18 1_555 1_555
H10 C18 1_555 1_555
H11 C18 1_555 1_555
C19 C15 1_555 1_555
H12 C19 1_555 1_555
H13 C19 1_555 1_555
H14 C19 1_555 1_555
C20 N1 1_555 1_555
H15 C20 1_555 1_555
H16 C20 1_555 1_555
C21 C8 1_555 1_555
H17 C21 1_555 1_555
C22 N2 1_555 1_555
H18 C22 1_555 1_555
H19 C22 1_555 1_555
C23 C9 1_555 1_555
H20 C23 1_555 1_555
C24 C23 1_555 1_555
H21 C24 1_555 1_555
C25 C14 1_555 1_555
H22 C25 1_555 1_555
C26 N1 1_555 1_555
H23 C26 1_555 1_555
H24 C26 1_555 1_555
C27 C24 1_555 1_555
H25 C27 1_555 1_555
C28 C26 1_555 1_555
H26 C28 1_555 1_555
H27 C28 1_555 1_555
C29 S1 1_555 1_555
H28 C29 1_555 1_555
H29 C29 1_555 1_555
N2 C12 1_555 1_555
C1 C22 1_555 1_555
C6 C7 1_555 1_555
C6 C12 1_555 1_555
C11 C17 1_555 1_555
C13 C21 1_555 1_555
C20 C29 1_555 1_555
C25 C27 1_555 1_555

#END
