
#######################################################################
#
#                 Cambridge Crystallographic Data Centre
#                                CCDC 
#
#######################################################################
#
# If this CIF has been generated from an entry in the Cambridge 
# Structural Database, then it will include bibliographic, chemical, 
# crystal, experimental, refinement or atomic coordinate data resulting 
# from the CCDC's data processing and validation procedures.
#
#######################################################################

data_VIMGIK
_chemical_formula_moiety         'C12 H13 N1 O1 S1'
_chemical_name_systematic        4-(1-benzothiophen-2-yl)morpholine
_symmetry_cell_setting           monoclinic
_symmetry_space_group_name_H-M   'C c'
_symmetry_Int_Tables_number      9
_space_group_name_Hall           'C -2yc'
loop_
_symmetry_equiv_pos_site_id
_symmetry_equiv_pos_as_xyz
1 x,y,z
2 x,-y,1/2+z
3 1/2+x,1/2+y,z
4 1/2+x,1/2-y,1/2+z
_cell_length_a                   12.221(2)
_cell_length_b                   14.7841(9)
_cell_length_c                   8.3953(16)
_cell_angle_alpha                90
_cell_angle_beta                 136.65(3)
_cell_angle_gamma                90
_cell_volume                     1041.24
_exptl_crystal_colour            'light yellow'
_exptl_crystal_description       prism
_cell_formula_units_Z            4
loop_
_atom_site_label
_atom_site_type_symbol
_atom_site_fract_x
_atom_site_fract_y
_atom_site_fract_z
S1 S -0.3896(3) -0.43676(18) -0.2837(4)
N1 N -0.1002(8) -0.3792(6) -0.0616(16)
O1 O 0.1278(6) -0.3538(3) -0.0608(10)
C1 C -0.3562(8) -0.3474(4) 0.0318(10)
C2 C -0.6096(7) -0.4282(4) -0.2741(11)
H1 H -0.6789 -0.4627 -0.4089
C3 C -0.5551(8) -0.3464(5) 0.0261(11)
H2 H -0.5871 -0.3288 0.0938
C4 C -0.4067(8) -0.3188(4) 0.1204(12)
H3 H -0.3427 -0.2798 0.2471
C5 C -0.6518(7) -0.4006(4) -0.1708(12)
H4 H -0.7501 -0.4187 -0.2347
C6 C -0.4546(8) -0.4028(4) -0.1701(12)
C7 C 0.1715(9) -0.3530(5) 0.1376(16)
H5 H 0.2570 -0.3092 0.2394
H6 H 0.2159 -0.4119 0.2094
C8 C -0.0068(11) -0.4123(7) -0.2336(17)
H7 H 0.0276 -0.4747 -0.1887
H8 H -0.0436 -0.4025 -0.3807
C9 C -0.2182(7) -0.3790(4) -0.0725(14)
C10 C 0.0498(8) -0.3322(6) 0.1303(13)
H9 H 0.0889 -0.3502 0.2757
H10 H 0.0310 -0.2675 0.1126
C11 C -0.1448(12) -0.3969(7) -0.2659(18)
H11 H -0.2077 -0.3464 -0.3713
H12 H -0.2125 -0.4501 -0.3388
C12 C -0.2123(16) -0.3317(7) 0.081(2)
H13 H -0.1277 -0.2947 0.1997
S2? S -0.1726(5) -0.3169(3) 0.1513(6)
C13? C -0.366(2) -0.4108(12) -0.219(3)
H14? H -0.4112 -0.4387 -0.3554
loop_
_geom_bond_atom_site_label_1
_geom_bond_atom_site_label_2
_geom_bond_site_symmetry_1
_geom_bond_site_symmetry_2
S1 C6 1_555 1_555
N1 C9 1_555 1_555
O1 C7 1_555 1_555
C1 C4 1_555 1_555
C2 H1 1_555 1_555
C3 H2 1_555 1_555
C4 C3 1_555 1_555
H3 C4 1_555 1_555
C5 C2 1_555 1_555
H4 C5 1_555 1_555
C6 C1 1_555 1_555
C7 H5 1_555 1_555
H6 C7 1_555 1_555
C8 O1 1_555 1_555
H7 C8 1_555 1_555
H8 C8 1_555 1_555
C9 S1 1_555 1_555
C10 N1 1_555 1_555
H9 C10 1_555 1_555
H10 C10 1_555 1_555
C11 N1 1_555 1_555
H11 C11 1_555 1_555
H12 C11 1_555 1_555
C12 C1 1_555 1_555
H13 C12 1_555 1_555
C2 C6 1_555 1_555
C3 C5 1_555 1_555
C7 C10 1_555 1_555
C8 C11 1_555 1_555
C9 C12 1_555 1_555

#END
