
#######################################################################
#
#                 Cambridge Crystallographic Data Centre
#                                CCDC 
#
#######################################################################
#
# If this CIF has been generated from an entry in the Cambridge 
# Structural Database, then it will include bibliographic, chemical, 
# crystal, experimental, refinement or atomic coordinate data resulting 
# from the CCDC's data processing and validation procedures.
#
#######################################################################

data_VIMWUL
_chemical_formula_moiety         'C28 H29 N3 O1'
_chemical_name_systematic        
(1-Benzyl-5-cyclohexyl-1H-1,2,3-triazol-4-yl)(diphenyl)methanol
_symmetry_cell_setting           triclinic
_symmetry_space_group_name_H-M   'P -1'
_symmetry_Int_Tables_number      2
_space_group_name_Hall           '-P 1'
loop_
_symmetry_equiv_pos_site_id
_symmetry_equiv_pos_as_xyz
1 x,y,z
2 -x,-y,-z
_cell_length_a                   8.8770(3)
_cell_length_b                   11.0387(3)
_cell_length_c                   12.4077(3)
_cell_angle_alpha                95.9650(7)
_cell_angle_beta                 104.7706(7)
_cell_angle_gamma                103.4894(7)
_cell_volume                     1125.83
_exptl_crystal_colour            colorless
_exptl_crystal_description       block
_cell_formula_units_Z            2
loop_
_atom_site_label
_atom_site_type_symbol
_atom_site_fract_x
_atom_site_fract_y
_atom_site_fract_z
O1 O 0.02387(9) 0.09718(8) 0.66566(7)
N1 N 0.46928(11) 0.13995(9) 0.55976(8)
N2 N 0.32816(11) 0.09208(9) 0.47759(8)
N3 N 0.21419(11) 0.06163(9) 0.52762(8)
C1 C 0.44721(13) 0.13970(10) 0.66485(9)
C2 C 0.28168(13) 0.09001(10) 0.64198(9)
C3 C 0.57990(13) 0.18273(10) 0.77497(9)
C4 C 0.66218(14) 0.32549(11) 0.79577(10)
C5 C 0.78910(15) 0.36742(12) 0.91118(10)
C6 C 0.91212(15) 0.29051(13) 0.92234(11)
C7 C 0.82954(15) 0.15020(12) 0.90671(10)
C8 C 0.70374(14) 0.10410(11) 0.79049(10)
C9 C 0.16901(13) 0.06439(10) 0.71705(9)
C10 C 0.24087(13) 0.15415(11) 0.83168(9)
C11 C 0.26013(14) 0.28304(12) 0.83286(11)
C12 C 0.32663(15) 0.36846(13) 0.93413(11)
C13 C 0.37348(17) 0.32620(14) 1.03488(12)
C14 C 0.35289(18) 0.19858(15) 1.03509(11)
C15 C 0.28658(16) 0.11231(13) 0.93347(10)
C16 C 0.13053(14) -0.07472(11) 0.73254(9)
C17 C 0.24260(15) -0.14471(12) 0.73642(10)
C18 C 0.20852(17) -0.26837(12) 0.75658(11)
C19 C 0.06192(17) -0.32322(12) 0.77420(11)
C20 C -0.05088(16) -0.25427(12) 0.77070(11)
C21 C -0.01726(14) -0.13112(12) 0.74970(10)
C22 C 0.61454(13) 0.18402(11) 0.52279(10)
C23 C 0.63148(14) 0.31191(11) 0.48575(9)
C24 C 0.50539(15) 0.33533(11) 0.40486(10)
C25 C 0.52408(17) 0.45180(12) 0.37003(11)
C26 C 0.66840(18) 0.54541(12) 0.41424(11)
C27 C 0.79548(17) 0.52234(12) 0.49294(11)
C28 C 0.77676(15) 0.40573(12) 0.52868(10)
H1 H -0.0252 0.0483 0.6037
H2 H 0.5258 0.1688 0.8359
H3 H 0.7144 0.3452 0.7357
H4 H 0.5795 0.3728 0.7921
H5 H 0.8452 0.4582 0.9206
H6 H 0.7353 0.3564 0.9717
H7 H 0.9705 0.3055 0.8647
H8 H 0.9923 0.3183 0.9980
H9 H 0.7759 0.1346 0.9667
H10 H 0.9116 0.1020 0.9139
H11 H 0.6471 0.0138 0.7837
H12 H 0.7586 0.1118 0.7304
H13 H 0.2276 0.3130 0.7639
H14 H 0.3398 0.4563 0.9339
H15 H 0.4198 0.3848 1.1039
H16 H 0.3839 0.1691 1.1045
H17 H 0.2728 0.0245 0.9342
H18 H 0.3440 -0.1075 0.7251
H19 H 0.2860 -0.3152 0.7582
H20 H 0.0387 -0.4074 0.7886
H21 H -0.1518 -0.2915 0.7827
H22 H -0.0956 -0.0849 0.7470
H23 H 0.6118 0.1208 0.4590
H24 H 0.7113 0.1888 0.5858
H25 H 0.4064 0.2713 0.3735
H26 H 0.4373 0.4675 0.3155
H27 H 0.6802 0.6254 0.3906
H28 H 0.8952 0.5859 0.5225
H29 H 0.8640 0.3901 0.5829
loop_
_geom_bond_atom_site_label_1
_geom_bond_atom_site_label_2
_geom_bond_site_symmetry_1
_geom_bond_site_symmetry_2
O1 C9 1_555 1_555
N1 N2 1_555 1_555
N2 N3 1_555 1_555
N3 C2 1_555 1_555
C1 N1 1_555 1_555
C2 C1 1_555 1_555
C3 C1 1_555 1_555
C4 C3 1_555 1_555
C5 C4 1_555 1_555
C6 C5 1_555 1_555
C7 C6 1_555 1_555
C8 C3 1_555 1_555
C9 C2 1_555 1_555
C10 C9 1_555 1_555
C11 C10 1_555 1_555
C12 C11 1_555 1_555
C13 C12 1_555 1_555
C14 C13 1_555 1_555
C15 C10 1_555 1_555
C16 C9 1_555 1_555
C17 C16 1_555 1_555
C18 C17 1_555 1_555
C19 C18 1_555 1_555
C20 C19 1_555 1_555
C21 C16 1_555 1_555
C22 N1 1_555 1_555
C23 C22 1_555 1_555
C24 C23 1_555 1_555
C25 C24 1_555 1_555
C26 C25 1_555 1_555
C27 C26 1_555 1_555
C28 C23 1_555 1_555
H1 O1 1_555 1_555
H2 C3 1_555 1_555
H3 C4 1_555 1_555
H4 C4 1_555 1_555
H5 C5 1_555 1_555
H6 C5 1_555 1_555
H7 C6 1_555 1_555
H8 C6 1_555 1_555
H9 C7 1_555 1_555
H10 C7 1_555 1_555
H11 C8 1_555 1_555
H12 C8 1_555 1_555
H13 C11 1_555 1_555
H14 C12 1_555 1_555
H15 C13 1_555 1_555
H16 C14 1_555 1_555
H17 C15 1_555 1_555
H18 C17 1_555 1_555
H19 C18 1_555 1_555
H20 C19 1_555 1_555
H21 C20 1_555 1_555
H22 C21 1_555 1_555
H23 C22 1_555 1_555
H24 C22 1_555 1_555
H25 C24 1_555 1_555
H26 C25 1_555 1_555
H27 C26 1_555 1_555
H28 C27 1_555 1_555
H29 C28 1_555 1_555
C7 C8 1_555 1_555
C14 C15 1_555 1_555
C20 C21 1_555 1_555
C27 C28 1_555 1_555

#END
