
#######################################################################
#
#                 Cambridge Crystallographic Data Centre
#                                CCDC 
#
#######################################################################
#
# If this CIF has been generated from an entry in the Cambridge 
# Structural Database, then it will include bibliographic, chemical, 
# crystal, experimental, refinement or atomic coordinate data resulting 
# from the CCDC's data processing and validation procedures.
#
#######################################################################

data_VINKUB
_chemical_formula_moiety         'C23 H19 F1 N2 O2 S1'
_chemical_name_systematic        
3-(2-fluorophenyl)-3-[(6-methoxy-1,3-benzothiazol-2-yl)amino]-1-phenylpropan-1-one
_symmetry_cell_setting           orthorhombic
_symmetry_space_group_name_H-M   'P 21 21 21'
_symmetry_Int_Tables_number      19
_space_group_name_Hall           'P 2ac 2ab'
loop_
_symmetry_equiv_pos_site_id
_symmetry_equiv_pos_as_xyz
1 x,y,z
2 1/2-x,-y,1/2+z
3 -x,1/2+y,1/2-z
4 1/2+x,1/2-y,-z
_cell_length_a                   8.434(7)
_cell_length_b                   10.662(10)
_cell_length_c                   44.27(4)
_cell_angle_alpha                90
_cell_angle_beta                 90
_cell_angle_gamma                90
_cell_volume                     3980.9
_exptl_crystal_colour            colorless
_exptl_crystal_description       block
_cell_formula_units_Z            8
_exptl_crystal_recrystallization_method 
'Re-crystallisation from solvent: ethanol'
loop_
_atom_site_label
_atom_site_type_symbol
_atom_site_fract_x
_atom_site_fract_y
_atom_site_fract_z
C1 C 0.1488(5) 0.1417(6) 0.46718(13)
H1 H 0.259885 0.156336 0.467272
C2 C 0.0699(7) 0.1165(7) 0.49407(10)
H2 H 0.127091 0.113903 0.512545
C3 C -0.0927(7) 0.0951(7) 0.49393(11)
H3 H -0.146579 0.077901 0.512306
C4 C -0.1764(5) 0.0989(7) 0.46689(14)
H4 H -0.287457 0.084331 0.466794
C5 C -0.0975(7) 0.1242(6) 0.44000(11)
H5 H -0.154667 0.126763 0.421521
C6 C 0.0651(6) 0.1455(6) 0.44014(10)
C7 C 0.1541(6) 0.1669(5) 0.41301(12)
C8 C 0.3032(6) 0.2452(5) 0.41240(11)
H6 H 0.389934 0.196935 0.422013
H7 H 0.285647 0.321586 0.424652
C9 C 0.3560(5) 0.2843(4) 0.38077(9)
H8 H 0.344154 0.210442 0.367047
C10 C 0.5292(5) 0.3237(4) 0.38068(9)
C11 C 0.6405(5) 0.2636(5) 0.36266(10)
H9 H 0.607908 0.196853 0.349859
C12 C 0.7981(6) 0.2992(5) 0.36306(11)
H10 H 0.872909 0.257017 0.350650
C13 C 0.8471(7) 0.3970(5) 0.38167(12)
H11 H 0.955550 0.420909 0.382036
C14 C 0.7392(6) 0.4593(5) 0.39953(10)
H12 H 0.771526 0.526446 0.412221
C15 C 0.5836(5) 0.4216(5) 0.39851(10)
C16 C 0.2225(5) 0.4051(4) 0.34027(9)
C17 C 0.1290(5) 0.4982(5) 0.29875(9)
C18 C 0.0575(6) 0.5879(5) 0.28058(10)
H13 H 0.016549 0.662664 0.289250
C19 C 0.0461(6) 0.5677(5) 0.24954(11)
H14 H -0.002798 0.629096 0.237106
C20 C 0.1056(6) 0.4585(5) 0.23660(10)
C21 C 0.1776(5) 0.3662(5) 0.25432(10)
H15 H 0.219555 0.292006 0.245539
C22 C 0.1857(5) 0.3871(4) 0.28526(10)
C23 C 0.0879(8) 0.5344(6) 0.18606(13)
H16 H 0.080737 0.503528 0.165255
H17 H -0.005602 0.585386 0.190704
H18 H 0.183719 0.585556 0.188312
F1 F 0.4767(3) 0.4856(3) 0.41609(6)
N1 N 0.2521(4) 0.3846(4) 0.36975(7)
H19 H 0.206602 0.434028 0.383104
N2 N 0.1530(4) 0.5069(4) 0.33003(8)
O1 O 0.0962(5) 0.1238(4) 0.39008(10)
O2 O 0.0951(5) 0.4315(3) 0.20614(7)
S1 S 0.26923(14) 0.28974(11) 0.31275(2)
C30 C 0.2969(6) 0.8653(5) 0.25622(10)
H25 H 0.243545 0.797163 0.265567
C31 C 0.2991(6) 0.8747(5) 0.22490(11)
H26 H 0.247546 0.812784 0.212992
C32 C 0.3751(6) 0.9729(5) 0.21113(12)
H27 H 0.377734 0.978385 0.189720
C33 C 0.4481(7) 1.0639(6) 0.22851(12)
H28 H 0.498560 1.132823 0.218893
C34 C 0.4487(6) 1.0559(5) 0.25977(11)
H29 H 0.500419 1.118420 0.271455
C35 C 0.3727(5) 0.9553(4) 0.27406(10)
C36 C 0.3733(5) 0.9488(4) 0.30764(10)
C37 C 0.2875(6) 0.8414(5) 0.32306(9)
H30 H 0.320825 0.761612 0.313567
H31 H 0.172121 0.851062 0.319642
C38 C 0.3182(5) 0.8333(4) 0.35725(9)
C39 C 0.4935(5) 0.8105(7) 0.36214(16)
C40 C 0.5667(7) 0.7075(6) 0.34886(16)
H32 H 0.505687 0.648879 0.337634
C41 C 0.7292(7) 0.6903(7) 0.35200(17)
H33 H 0.779289 0.619927 0.342924
C42 C 0.8186(5) 0.7761(8) 0.36842(17)
H34 H 0.929633 0.764309 0.370572
C43 C 0.7453(7) 0.8790(7) 0.38171(15)
H35 H 0.806378 0.937643 0.392931
C44 C 0.5828(7) 0.8962(6) 0.37856(15)
F2 F 0.5007(6) 1.0049(4) 0.39200(9)
C45 C 0.1973(5) 0.7037(4) 0.39774(9)
C46 C 0.1117(5) 0.6083(4) 0.43887(9)
C47 C 0.0425(5) 0.5159(5) 0.45720(10)
H36 H 0.006496 0.439314 0.448650
C48 C 0.0273(6) 0.5380(5) 0.48807(10)
H37 H -0.020214 0.476019 0.500568
C49 C 0.0807(6) 0.6497(5) 0.50090(10)
C50 C 0.1477(6) 0.7434(5) 0.48332(11)
H38 H 0.183171 0.820019 0.491957
C51 C 0.1606(5) 0.7205(5) 0.45247(10)
C52 C 0.1194(8) 0.7699(6) 0.54595(13)
H39 H 0.099253 0.765860 0.567733
H40 H 0.233736 0.777122 0.542376
H41 H 0.065316 0.843111 0.537419
N3 N 0.2277(5) 0.7258(4) 0.36807(7)
H42 H 0.190743 0.672279 0.354667
N4 N 0.1353(4) 0.6000(4) 0.40786(8)
O3 O 0.4402(4) 1.0297(3) 0.32266(7)
O4 O 0.0609(5) 0.6581(4) 0.53181(7)
S2 S 0.23743(16) 0.82106(12) 0.42482(2)
C24? C 0.1831(11) 0.1913(9) 0.4757(2)
H20? H 0.268709 0.248464 0.473424
C25? C 0.1272(13) 0.1615(11) 0.50432(17)
H21? H 0.174598 0.198219 0.521656
C26? C 0.0019(14) 0.0779(12) 0.50760(19)
H22? H -0.036276 0.057455 0.527179
C27? C -0.0674(13) 0.0241(11) 0.4822(3)
H23? H -0.153040 -0.033065 0.484471
C28? C -0.0115(13) 0.0539(11) 0.4536(2)
H24? H -0.058930 0.017177 0.436239
C29? C 0.1137(12) 0.1375(9) 0.45030(17)
C53? C 0.4967(7) 0.8355(9) 0.3668(2)
C54? C 0.5603(9) 0.9354(8) 0.3830(2)
H43? H 0.493483 1.001545 0.389659
C55? C 0.7216(9) 0.9385(9) 0.3893(2)
H44? H 0.765063 1.006731 0.400385
C56? C 0.8194(6) 0.8417(10) 0.3796(2)
H45? H 0.929650 0.843806 0.383922
C57? C 0.7558(9) 0.7418(9) 0.3634(2)
H46? H 0.822658 0.675693 0.356732
C58? C 0.5945(9) 0.7388(8) 0.3570(2)
F3? F 0.549(2) 0.645(2) 0.3446(4)
loop_
_geom_bond_atom_site_label_1
_geom_bond_atom_site_label_2
_geom_bond_site_symmetry_1
_geom_bond_site_symmetry_2
C1 H1 1_555 1_555
C2 C1 1_555 1_555
H2 C2 1_555 1_555
C3 C2 1_555 1_555
H3 C3 1_555 1_555
C4 C3 1_555 1_555
H4 C4 1_555 1_555
C5 C4 1_555 1_555
H5 C5 1_555 1_555
C6 C1 1_555 1_555
C7 C6 1_555 1_555
C8 C7 1_555 1_555
H6 C8 1_555 1_555
H7 C8 1_555 1_555
C9 C8 1_555 1_555
H8 C9 1_555 1_555
C10 C9 1_555 1_555
C11 C10 1_555 1_555
H9 C11 1_555 1_555
C12 C11 1_555 1_555
H10 C12 1_555 1_555
C13 C12 1_555 1_555
H11 C13 1_555 1_555
C14 C13 1_555 1_555
H12 C14 1_555 1_555
C15 C10 1_555 1_555
C16 N1 1_555 1_555
C17 C18 1_555 1_555
C18 H13 1_555 1_555
C19 C18 1_555 1_555
H14 C19 1_555 1_555
C20 C19 1_555 1_555
C21 C20 1_555 1_555
H15 C21 1_555 1_555
C22 C17 1_555 1_555
C23 H16 1_555 1_555
H17 C23 1_555 1_555
H18 C23 1_555 1_555
F1 C15 1_555 1_555
N1 C9 1_555 1_555
H19 N1 1_555 1_555
N2 C16 1_555 1_555
O1 C7 1_555 1_555
O2 C20 1_555 1_555
S1 C16 1_555 1_555
C30 H25 1_555 1_555
C31 C30 1_555 1_555
H26 C31 1_555 1_555
C32 C31 1_555 1_555
H27 C32 1_555 1_555
C33 C32 1_555 1_555
H28 C33 1_555 1_555
C34 C33 1_555 1_555
H29 C34 1_555 1_555
C35 C30 1_555 1_555
C36 C35 1_555 1_555
C37 C36 1_555 1_555
H30 C37 1_555 1_555
H31 C37 1_555 1_555
C38 C37 1_555 1_555
C39 C38 1_555 1_555
C40 C39 1_555 1_555
H32 C40 1_555 1_555
C41 C40 1_555 1_555
H33 C41 1_555 1_555
C42 C41 1_555 1_555
H34 C42 1_555 1_555
C43 C42 1_555 1_555
H35 C43 1_555 1_555
C44 C39 1_555 1_555
F2 C44 1_555 1_555
C45 N3 1_555 1_555
C46 C47 1_555 1_555
C47 H36 1_555 1_555
C48 C47 1_555 1_555
H37 C48 1_555 1_555
C49 C48 1_555 1_555
C50 C49 1_555 1_555
H38 C50 1_555 1_555
C51 C46 1_555 1_555
C52 H39 1_555 1_555
H40 C52 1_555 1_555
H41 C52 1_555 1_555
N3 C38 1_555 1_555
H42 N3 1_555 1_555
N4 C45 1_555 1_555
O3 C36 1_555 1_555
O4 C49 1_555 1_555
S2 C45 1_555 1_555
C5 C6 1_555 1_555
C14 C15 1_555 1_555
C17 N2 1_555 1_555
C21 C22 1_555 1_555
C22 S1 1_555 1_555
C23 O2 1_555 1_555
C34 C35 1_555 1_555
C43 C44 1_555 1_555
C46 N4 1_555 1_555
C50 C51 1_555 1_555
C51 S2 1_555 1_555
C52 O4 1_555 1_555

#END
