
#######################################################################
#
#                 Cambridge Crystallographic Data Centre
#                                CCDC 
#
#######################################################################
#
# If this CIF has been generated from an entry in the Cambridge 
# Structural Database, then it will include bibliographic, chemical, 
# crystal, experimental, refinement or atomic coordinate data resulting 
# from the CCDC's data processing and validation procedures.
#
#######################################################################

data_VINLAG
_chemical_formula_moiety         'C26 H22 N4'
_chemical_name_systematic        1,3-bis(1-Allyl-2-benzimidazolyl)benzene
_symmetry_cell_setting           monoclinic
_symmetry_space_group_name_H-M   'P 21/c'
_symmetry_Int_Tables_number      14
_space_group_name_Hall           '-P 2ybc'
loop_
_symmetry_equiv_pos_site_id
_symmetry_equiv_pos_as_xyz
1 x,y,z
2 -x,1/2+y,1/2-z
3 -x,-y,-z
4 x,1/2-y,1/2+z
_cell_length_a                   11.776(3)
_cell_length_b                   16.143(4)
_cell_length_c                   12.074(3)
_cell_angle_alpha                90
_cell_angle_beta                 117.023(4)
_cell_angle_gamma                90
_cell_volume                     2044.68
_exptl_crystal_colour            colorless
_exptl_crystal_description       prism
_cell_formula_units_Z            4
_exptl_crystal_recrystallization_method dichloromethane/hexane
loop_
_atom_site_label
_atom_site_type_symbol
_atom_site_fract_x
_atom_site_fract_y
_atom_site_fract_z
N1 N 0.2179(3) 0.83967(19) 0.5305(3)
N2 N 0.2647(3) 0.78647(19) 0.7178(3)
N3 N 0.2948(3) 0.39389(19) 0.6304(3)
N4 N 0.3237(3) 0.47899(19) 0.7875(3)
C1 C 0.1780(4) 0.6877(2) 0.5455(4)
C2 C 0.2406(4) 0.6205(2) 0.6209(4)
H1 H 0.3062 0.6299 0.7002
C3 C 0.2066(4) 0.5397(2) 0.5795(4)
C4 C 0.1098(4) 0.5271(3) 0.4609(4)
H2 H 0.0868 0.4733 0.4319
C5 C 0.0467(4) 0.5928(3) 0.3846(4)
H3 H -0.0186 0.5832 0.3052
C6 C 0.0811(4) 0.6734(2) 0.4270(4)
H4 H 0.0390 0.7179 0.3758
C7 C 0.2175(4) 0.7714(2) 0.5989(4)
C8 C 0.2995(4) 0.8698(2) 0.7303(4)
C9 C 0.3595(4) 0.9179(3) 0.8359(4)
H5 H 0.3782 0.8968 0.9140
C10 C 0.3905(4) 0.9973(3) 0.8217(4)
H6 H 0.4319 1.0306 0.8916
C11 C 0.3617(4) 1.0295(2) 0.7057(5)
H7 H 0.3835 1.0841 0.6996
C12 C 0.3019(4) 0.9832(2) 0.5999(4)
H8 H 0.2827 1.0047 0.5219
C13 C 0.2718(4) 0.9029(2) 0.6150(4)
C14 C 0.1840(4) 0.8474(2) 0.3995(4)
H9 H 0.2514 0.8776 0.3921
H10 H 0.1811 0.7923 0.3663
C15 C 0.0664(5) 0.8875(3) 0.3243(4)
H11 H 0.0437 0.8917 0.2400
C16 C -0.0155(5) 0.9200(3) 0.3616(5)
H12 H 0.0025 0.9175 0.4449
H13 H -0.0903 0.9450 0.3040
C17 C 0.2754(4) 0.4722(2) 0.6664(4)
C18 C 0.3799(4) 0.4030(2) 0.8333(4)
C19 C 0.4503(4) 0.3778(3) 0.9566(4)
H14 H 0.4625 0.4130 1.0220
C20 C 0.5008(4) 0.2993(3) 0.9784(4)
H15 H 0.5470 0.2806 1.0596
C21 C 0.4832(4) 0.2471(3) 0.8786(5)
H16 H 0.5183 0.1942 0.8954
C22 C 0.4166(4) 0.2716(2) 0.7583(5)
H17 H 0.4065 0.2372 0.6927
C23 C 0.3647(4) 0.3498(2) 0.7382(4)
C24 C 0.2718(4) 0.3672(3) 0.5086(4)
H18 H 0.2288 0.4127 0.4525
H19 H 0.3546 0.3618 0.5104
C25 C 0.2065(6) 0.2986(3) 0.4547(6)
H20 H 0.2009 0.2943 0.3755
C26 C 0.1513(5) 0.2391(4) 0.4719(7)
H21 H 0.1477 0.2337 0.5469
H22 H 0.1130 0.1995 0.4099
loop_
_geom_bond_atom_site_label_1
_geom_bond_atom_site_label_2
_geom_bond_site_symmetry_1
_geom_bond_site_symmetry_2
N1 C7 1_555 1_555
N2 C7 1_555 1_555
N3 C17 1_555 1_555
N4 C17 1_555 1_555
C1 C2 1_555 1_555
C2 H1 1_555 1_555
C3 C2 1_555 1_555
C4 C3 1_555 1_555
H2 C4 1_555 1_555
C5 C4 1_555 1_555
H3 C5 1_555 1_555
C6 C1 1_555 1_555
H4 C6 1_555 1_555
C7 C1 1_555 1_555
C8 N2 1_555 1_555
C9 C8 1_555 1_555
H5 C9 1_555 1_555
C10 C9 1_555 1_555
H6 C10 1_555 1_555
C11 C10 1_555 1_555
H7 C11 1_555 1_555
C12 C11 1_555 1_555
H8 C12 1_555 1_555
C13 N1 1_555 1_555
C14 N1 1_555 1_555
H9 C14 1_555 1_555
H10 C14 1_555 1_555
C15 C14 1_555 1_555
H11 C15 1_555 1_555
C16 C15 1_555 1_555
H12 C16 1_555 1_555
H13 C16 1_555 1_555
C17 C3 1_555 1_555
C18 N4 1_555 1_555
C19 C18 1_555 1_555
H14 C19 1_555 1_555
C20 C19 1_555 1_555
H15 C20 1_555 1_555
C21 C20 1_555 1_555
H16 C21 1_555 1_555
C22 C21 1_555 1_555
H17 C22 1_555 1_555
C23 N3 1_555 1_555
C24 N3 1_555 1_555
H18 C24 1_555 1_555
H19 C24 1_555 1_555
C25 C24 1_555 1_555
H20 C25 1_555 1_555
C26 C25 1_555 1_555
H21 C26 1_555 1_555
H22 C26 1_555 1_555
C5 C6 1_555 1_555
C8 C13 1_555 1_555
C12 C13 1_555 1_555
C18 C23 1_555 1_555
C22 C23 1_555 1_555

#END
