
#######################################################################
#
#                 Cambridge Crystallographic Data Centre
#                                CCDC 
#
#######################################################################
#
# If this CIF has been generated from an entry in the Cambridge 
# Structural Database, then it will include bibliographic, chemical, 
# crystal, experimental, refinement or atomic coordinate data resulting 
# from the CCDC's data processing and validation procedures.
#
#######################################################################

data_VINRAM
_chemical_formula_moiety         'C62 H54 N10 O6,C1 H1 Cl3'
_chemical_name_systematic        
'5,17-(bis(p-Methoxyphenyl)azo)-26,28-dihydroxy-25,27-bis(1-benzyl-1,2,3-triazol-4-ylmethoxy)calix(4)arene chloroform solvate'
_symmetry_cell_setting           monoclinic
_symmetry_space_group_name_H-M   'P 21/c'
_symmetry_Int_Tables_number      14
_space_group_name_Hall           '-P 2ybc'
loop_
_symmetry_equiv_pos_site_id
_symmetry_equiv_pos_as_xyz
1 x,y,z
2 -x,1/2+y,1/2-z
3 -x,-y,-z
4 x,1/2-y,1/2+z
_cell_length_a                   25.3068(11)
_cell_length_b                   10.5670(4)
_cell_length_c                   21.5706(13)
_cell_angle_alpha                90
_cell_angle_beta                 101.372(3)
_cell_angle_gamma                90
_cell_volume                     5655.1
_exptl_crystal_colour            orange-yellow
_exptl_crystal_description       plate
_chemical_melting_point          179-181deg.C
_cell_formula_units_Z            4
loop_
_atom_site_label
_atom_site_type_symbol
_atom_site_fract_x
_atom_site_fract_y
_atom_site_fract_z
O1 O 0.22579(18) 0.1253(4) 0.49461(19)
H1 H 0.1992 0.1863 0.5029
O2 O 0.10341(18) 0.0779(4) 0.40076(17)
H2 H 0.1275 -0.0019 0.4120
O3 O 0.14392(16) 0.2922(4) 0.48111(17)
O4 O 0.17623(17) -0.1186(4) 0.43947(18)
O5 O -0.07574(18) 0.2727(4) -0.13480(18)
O6 O 0.6510(2) 0.4240(6) 0.4098(3)
N1 N 0.1259(2) 0.1803(5) 0.6046(2)
N2 N 0.1501(2) 0.1612(5) 0.6636(3)
N3 N 0.1741(3) 0.2699(5) 0.6854(2)
N4 N 0.1940(2) -0.3478(5) 0.5681(2)
N5 N 0.2084(2) -0.3167(5) 0.6280(3)
N6 N 0.2127(2) -0.1896(5) 0.6313(2)
N7 N 0.0150(2) 0.1335(5) 0.1452(2)
N8 N -0.0035(2) 0.2401(5) 0.1258(2)
N9 N 0.4281(3) 0.2552(7) 0.4558(3)
N10 N 0.4391(3) 0.3662(7) 0.4447(3)
C1 C 0.2909(3) -0.0641(6) 0.4634(3)
H3 H 0.3221 -0.1179 0.4699
H4 H 0.2696 -0.0829 0.4944
C2 C 0.3091(3) 0.0719(6) 0.4709(3)
C3 C 0.3595(3) 0.1082(7) 0.4635(3)
H5 H 0.3844 0.0437 0.4564
C4 C 0.3748(3) 0.2357(8) 0.4650(3)
C5 C 0.3383(3) 0.3279(7) 0.4743(3)
H6 H 0.3484 0.4153 0.4737
C6 C 0.2878(3) 0.2957(6) 0.4840(3)
C7 C 0.2480(3) 0.3977(6) 0.4942(3)
H7 H 0.2313 0.3726 0.5286
H8 H 0.2673 0.4755 0.5048
C8 C 0.2033(3) 0.4193(6) 0.4365(3)
C9 C 0.2134(3) 0.4936(6) 0.3862(3)
H9 H 0.2481 0.5326 0.3896
C10 C 0.1735(3) 0.5136(6) 0.3338(3)
H10 H 0.1797 0.5661 0.2997
C11 C 0.1245(3) 0.4572(6) 0.3290(3)
H11 H 0.0971 0.4699 0.2917
C12 C 0.1123(3) 0.3802(5) 0.3767(3)
C13 C 0.0594(3) 0.3100(6) 0.3673(3)
H12 H 0.0545 0.2746 0.4067
H13 H 0.0308 0.3687 0.3521
C14 C 0.0576(3) 0.2049(6) 0.3184(3)
C15 C 0.0347(3) 0.2232(6) 0.2548(3)
H14 H 0.0185 0.3033 0.2415
C16 C 0.0361(3) 0.1261(6) 0.2116(3)
C17 C 0.0597(2) 0.0107(6) 0.2320(3)
H15 H 0.0615 -0.0545 0.2015
C18 C 0.0828(2) -0.0104(6) 0.2953(3)
C19 C 0.1105(3) -0.1354(6) 0.3162(3)
H16 H 0.1003 -0.1614 0.3548
H17 H 0.0989 -0.1980 0.2841
C20 C 0.1709(3) -0.1226(5) 0.3271(3)
C21 C 0.1965(3) -0.1147(6) 0.2762(3)
H18 H 0.1756 -0.1244 0.2342
C22 C 0.2513(3) -0.0953(6) 0.2848(3)
H19 H 0.2687 -0.0908 0.2491
C23 C 0.2818(3) -0.0811(6) 0.3454(3)
H20 H 0.3197 -0.0657 0.3504
C24 C 0.2576(3) -0.0876(6) 0.3982(3)
C25 C 0.2734(3) 0.1664(7) 0.4836(3)
C26 C 0.1527(3) 0.3658(5) 0.4312(3)
C27 C 0.0820(2) 0.0884(6) 0.3382(3)
C28 C 0.2021(3) -0.1112(5) 0.3876(3)
C29 C 0.1161(3) 0.3550(6) 0.5252(3)
H21 H 0.1223 0.4446 0.5245
H22 H 0.0783 0.3383 0.5122
C30 C 0.1357(3) 0.3025(6) 0.5892(3)
C31 C 0.1664(3) 0.3586(6) 0.6401(3)
H23 H 0.1489 0.4300 0.6548
C32 C 0.2105(4) 0.2708(7) 0.7464(3)
H25 H 0.2094 0.3528 0.7653
H26 H 0.1997 0.2078 0.7736
C33 C 0.2682(4) 0.2440(7) 0.7404(4)
C34 C 0.2821(4) 0.2003(8) 0.6847(4)
H27 H 0.2536 0.1886 0.6486
C35 C 0.3346(5) 0.1755(9) 0.6810(5)
H28 H 0.3424 0.1416 0.6424
C36 C 0.3752(5) 0.1947(11) 0.7334(7)
H29 H 0.4121 0.1805 0.7304
C37 C 0.3621(6) 0.2369(11) 0.7894(6)
H30 H 0.3901 0.2529 0.8256
C38 C 0.3095(5) 0.2589(9) 0.7925(5)
H31 H 0.3002 0.2844 0.8317
C39 C 0.1733(3) -0.2442(6) 0.4638(3)
H32 H 0.1368 -0.2731 0.4518
H33 H 0.1967 -0.3000 0.4466
C40 C 0.1885(3) -0.2408(6) 0.5329(3)
C41 C 0.2003(3) -0.1404(6) 0.5724(3)
H34 H 0.1697 -0.0853 0.5692
C42 C 0.2313(3) -0.1264(7) 0.6911(3)
H36 H 0.2219 -0.0383 0.6869
H37 H 0.2144 -0.1641 0.7227
C43 C 0.2908(4) -0.1343(8) 0.7148(4)
C44 C 0.3258(5) -0.1822(10) 0.6806(5)
H38 H 0.3119 -0.2147 0.6390
C45 C 0.3805(5) -0.1880(12) 0.7044(6)
H39 H 0.4044 -0.2214 0.6790
C46 C 0.4001(5) -0.1457(11) 0.7649(6)
H40 H 0.4382 -0.1472 0.7818
C47 C 0.3646(5) -0.0984(11) 0.8009(5)
H41 H 0.3788 -0.0702 0.8432
C48 C 0.3110(5) -0.0941(9) 0.7747(4)
H42 H 0.2863 -0.0615 0.7992
C49 C -0.0235(3) 0.2445(6) 0.0593(3)
C50 C -0.0345(3) 0.3617(6) 0.0329(3)
H43 H -0.0292 0.4342 0.0602
C51 C -0.0533(3) 0.3767(6) -0.0317(3)
H44 H -0.0614 0.4595 -0.0494
C52 C -0.0595(3) 0.2707(6) -0.0694(3)
C53 C -0.0505(2) 0.1512(6) -0.0432(3)
H45 H -0.0560 0.0785 -0.0705
C54 C -0.0328(3) 0.1376(6) 0.0206(3)
H46 H -0.0271 0.0548 0.0390
C55 C -0.0802(3) 0.3940(6) -0.1647(3)
H47 H -0.0913 0.3825 -0.2095
H48 H -0.0460 0.4363 -0.1557
H49 H -0.1065 0.4441 -0.1493
C56 C 0.4947(3) 0.3824(8) 0.4373(4)
C57 C 0.5058(4) 0.4845(10) 0.4047(4)
H50 H 0.4779 0.5453 0.3902
C58 C 0.5586(3) 0.5022(10) 0.3931(4)
H51 H 0.5657 0.5717 0.3673
C59 C 0.5985(3) 0.4165(8) 0.4180(4)
C60 C 0.5873(4) 0.3186(9) 0.4542(5)
H52 H 0.6161 0.2622 0.4717
C61 C 0.5344(4) 0.2999(9) 0.4633(5)
H53 H 0.5252 0.2333 0.4896
C62 C 0.6626(4) 0.5147(10) 0.3668(4)
H54 H 0.7000 0.5107 0.3642
H55 H 0.6546 0.5973 0.3811
H56 H 0.6408 0.4989 0.3258
C63 C 0.4807(3) 0.0141(8) 0.3737(4)
H57 H 0.4688 0.0971 0.3885
Cl1 Cl 0.5428(2) -0.0438(6) 0.4098(3)
Cl2 Cl 0.4412(3) -0.1206(7) 0.3798(4)
Cl3 Cl 0.4807(6) -0.0043(15) 0.2921(5)
H24? H 0.2008 0.3842 0.6318
H35? H 0.2306 -0.0932 0.5642
H58? H 0.4663 0.0704 0.4038
Cl4? Cl 0.4303(4) -0.0787(10) 0.3344(5)
Cl5? Cl 0.4939(4) 0.1028(11) 0.3110(5)
loop_
_geom_bond_atom_site_label_1
_geom_bond_atom_site_label_2
_geom_bond_site_symmetry_1
_geom_bond_site_symmetry_2
O1 H1 1_555 1_555
O2 H2 1_555 1_555
O3 C26 1_555 1_555
O4 C28 1_555 1_555
O5 C52 1_555 1_555
O6 C59 1_555 1_555
N1 N2 1_555 1_555
N2 N3 1_555 1_555
N3 C31 1_555 1_555
N4 N5 1_555 1_555
N5 N6 1_555 1_555
N6 C41 1_555 1_555
N7 N8 1_555 1_555
N8 C49 1_555 1_555
N9 N10 1_555 1_555
N10 C56 1_555 1_555
C1 H3 1_555 1_555
H4 C1 1_555 1_555
C2 C1 1_555 1_555
C3 C2 1_555 1_555
H5 C3 1_555 1_555
C4 N9 1_555 1_555
C5 C4 1_555 1_555
H6 C5 1_555 1_555
C6 C5 1_555 1_555
C7 C6 1_555 1_555
H7 C7 1_555 1_555
H8 C7 1_555 1_555
C8 C7 1_555 1_555
C9 C8 1_555 1_555
H9 C9 1_555 1_555
C10 C9 1_555 1_555
H10 C10 1_555 1_555
C11 C10 1_555 1_555
H11 C11 1_555 1_555
C12 C11 1_555 1_555
C13 C12 1_555 1_555
H12 C13 1_555 1_555
H13 C13 1_555 1_555
C14 C13 1_555 1_555
C15 C14 1_555 1_555
H14 C15 1_555 1_555
C16 N7 1_555 1_555
C17 C16 1_555 1_555
H15 C17 1_555 1_555
C18 C17 1_555 1_555
C19 C18 1_555 1_555
H16 C19 1_555 1_555
H17 C19 1_555 1_555
C20 C19 1_555 1_555
C21 C20 1_555 1_555
H18 C21 1_555 1_555
C22 C21 1_555 1_555
H19 C22 1_555 1_555
C23 C22 1_555 1_555
H20 C23 1_555 1_555
C24 C1 1_555 1_555
C25 O1 1_555 1_555
C26 C8 1_555 1_555
C27 O2 1_555 1_555
C28 C20 1_555 1_555
C29 O3 1_555 1_555
H21 C29 1_555 1_555
H22 C29 1_555 1_555
C30 N1 1_555 1_555
C31 C30 1_555 1_555
H23 C31 1_555 1_555
C32 N3 1_555 1_555
H25 C32 1_555 1_555
H26 C32 1_555 1_555
C33 C32 1_555 1_555
C34 C33 1_555 1_555
H27 C34 1_555 1_555
C35 C34 1_555 1_555
H28 C35 1_555 1_555
C36 C35 1_555 1_555
H29 C36 1_555 1_555
C37 C36 1_555 1_555
H30 C37 1_555 1_555
C38 C33 1_555 1_555
H31 C38 1_555 1_555
C39 O4 1_555 1_555
H32 C39 1_555 1_555
H33 C39 1_555 1_555
C40 N4 1_555 1_555
C41 C40 1_555 1_555
H34 C41 1_555 1_555
C42 N6 1_555 1_555
H36 C42 1_555 1_555
H37 C42 1_555 1_555
C43 C42 1_555 1_555
C44 C43 1_555 1_555
H38 C44 1_555 1_555
C45 C44 1_555 1_555
H39 C45 1_555 1_555
C46 C45 1_555 1_555
H40 C46 1_555 1_555
C47 C46 1_555 1_555
H41 C47 1_555 1_555
C48 C43 1_555 1_555
H42 C48 1_555 1_555
C49 C50 1_555 1_555
C50 H43 1_555 1_555
C51 C50 1_555 1_555
H44 C51 1_555 1_555
C52 C51 1_555 1_555
C53 C52 1_555 1_555
H45 C53 1_555 1_555
C54 C49 1_555 1_555
H46 C54 1_555 1_555
C55 O5 1_555 1_555
H47 C55 1_555 1_555
H48 C55 1_555 1_555
H49 C55 1_555 1_555
C56 C57 1_555 1_555
C57 H50 1_555 1_555
C58 C57 1_555 1_555
H51 C58 1_555 1_555
C59 C58 1_555 1_555
C60 C59 1_555 1_555
H52 C60 1_555 1_555
C61 C56 1_555 1_555
H53 C61 1_555 1_555
C62 O6 1_555 1_555
H54 C62 1_555 1_555
H55 C62 1_555 1_555
H56 C62 1_555 1_555
C63 H57 1_555 1_555
Cl1 C63 1_555 1_555
Cl2 C63 1_555 1_555
Cl3 C63 1_555 1_555
C2 C25 1_555 1_555
C3 C4 1_555 1_555
C6 C25 1_555 1_555
C12 C26 1_555 1_555
C14 C27 1_555 1_555
C15 C16 1_555 1_555
C18 C27 1_555 1_555
C23 C24 1_555 1_555
C24 C28 1_555 1_555
C29 C30 1_555 1_555
C37 C38 1_555 1_555
C39 C40 1_555 1_555
C47 C48 1_555 1_555
C53 C54 1_555 1_555
C60 C61 1_555 1_555

#END
