
#######################################################################
#
#                 Cambridge Crystallographic Data Centre
#                                CCDC 
#
#######################################################################
#
# If this CIF has been generated from an entry in the Cambridge 
# Structural Database, then it will include bibliographic, chemical, 
# crystal, experimental, refinement or atomic coordinate data resulting 
# from the CCDC's data processing and validation procedures.
#
#######################################################################

data_VINTUH
_chemical_formula_moiety         'C36 H28 S4'
_chemical_name_systematic        
1,14-bis(4,5-Dimethyl-1,3-dithiol-2-ylidene)(1.1)(3,3')biphenylophane
_symmetry_cell_setting           monoclinic
_symmetry_space_group_name_H-M   'P 21/n'
_symmetry_Int_Tables_number      14
_space_group_name_Hall           '-P 2yn'
loop_
_symmetry_equiv_pos_site_id
_symmetry_equiv_pos_as_xyz
1 x,y,z
2 1/2-x,1/2+y,1/2-z
3 -x,-y,-z
4 1/2+x,1/2-y,1/2+z
_cell_length_a                   10.256(7)
_cell_length_b                   27.240(12)
_cell_length_c                   21.763(12)
_cell_angle_alpha                90
_cell_angle_beta                 100.83(5)
_cell_angle_gamma                90
_cell_volume                     5971.71
_chemical_melting_point          271deg.C
_cell_formula_units_Z            8
loop_
_atom_site_label
_atom_site_type_symbol
_atom_site_fract_x
_atom_site_fract_y
_atom_site_fract_z
S1 S 0.3317(1) 0.1574(1) 0.1978(1)
S2 S 0.1832(1) 0.0972(1) 0.2707(1)
S3 S 0.9868(1) -0.2065(1) 0.1681(1)
S4 S 0.7595(1) -0.2615(1) 0.1930(1)
C1 C 0.4048(4) 0.0612(1) 0.2330(2)
C2 C 0.5181(4) 0.0609(1) 0.1990(2)
C3 C 0.6205(4) 0.0265(1) 0.2156(2)
C4 C 0.7229(4) 0.0199(1) 0.1821(2)
C5 C 0.8137(4) -0.0226(1) 0.1985(2)
C6 C 0.7604(4) -0.0694(1) 0.1883(2)
C7 C 0.8326(4) -0.1122(1) 0.2067(2)
C8 C 0.7652(4) -0.1608(1) 0.2003(2)
C9 C 0.6198(4) -0.1610(1) 0.2027(2)
C10 C 0.5705(4) -0.1294(1) 0.2436(2)
C11 C 0.4360(4) -0.1190(1) 0.2376(2)
C12 C 0.3982(4) -0.0747(2) 0.2710(2)
C13 C 0.3903(4) -0.0305(1) 0.2389(2)
C14 C 0.3856(4) 0.0152(1) 0.2677(2)
C15 C 0.3759(4) 0.0145(2) 0.3313(2)
C16 C 0.3737(4) -0.0290(2) 0.3629(2)
C17 C 0.3891(4) -0.0739(2) 0.3343(2)
C18 C 0.3458(4) -0.1441(2) 0.1926(2)
C19 C 0.3922(4) -0.1780(2) 0.1548(2)
C20 C 0.5265(4) -0.1856(2) 0.1583(2)
C21 C 0.9662(4) -0.1058(2) 0.2347(2)
C22 C 1.0223(4) -0.0600(2) 0.2429(2)
C23 C 0.9472(4) -0.0180(2) 0.2254(2)
C24 C 0.7281(4) 0.0511(2) 0.1326(2)
C25 C 0.6319(4) 0.0865(2) 0.1160(2)
C26 C 0.5258(4) 0.0905(1) 0.1473(2)
C27 C 0.3218(4) 0.0999(1) 0.2338(2)
C28 C 0.1952(5) 0.1848(2) 0.2213(2)
C29 C 0.1734(5) 0.2381(2) 0.2027(2)
C30 C 0.1269(4) 0.1571(2) 0.2547(2)
C31 C 0.0107(5) 0.1720(2) 0.2831(3)
C32 C 0.8283(4) -0.2030(2) 0.1889(2)
C33 C 0.9882(5) -0.2701(2) 0.1561(2)
C34 C 1.1079(5) -0.2904(2) 0.1350(2)
C35 C 0.8837(5) -0.2953(2) 0.1675(2)
C36 C 0.8617(5) -0.3497(2) 0.1631(3)
H1 H 0.6205 0.0064 0.2518
H2 H 0.6692 -0.0725 0.1679
H3 H 0.6320 -0.1142 0.2768
H4 H 0.3889 -0.0314 0.1947
H5 H 0.3717 0.0451 0.3527
H6 H 0.3618 -0.0285 0.4056
H7 H 0.3929 -0.1040 0.3575
H8 H 0.2525 -0.1375 0.1879
H9 H 0.3299 -0.1967 0.1255
H10 H 0.5572 -0.2080 0.1300
H11 H 1.0189 -0.1342 0.2491
H12 H 1.1148 -0.0566 0.2610
H13 H 0.9869 0.0140 0.2313
H14 H 0.8001 0.0483 0.1103
H15 H 0.6371 0.1081 0.0817
H16 H 0.4573 0.1143 0.1338
H17 H 0.0969 0.2508 0.2169
H18 H 0.2504 0.2567 0.2213
H19 H 0.1603 0.2408 0.1580
H20 H -0.0118 0.2054 0.2715
H21 H -0.0638 0.1512 0.2678
H22 H 0.0332 0.1695 0.3278
H23 H 1.0987 -0.3253 0.1300
H24 H 1.1155 -0.2758 0.0957
H25 H 1.1861 -0.2832 0.1655
H26 H 0.9349 -0.3648 0.1486
H27 H 0.8559 -0.3626 0.2035
H28 H 0.7808 -0.3566 0.1342
S5 S -0.2141(1) 0.0977(1) 0.9787(1)
S6 S 0.0066(1) 0.0531(1) 0.9332(1)
S7 S 0.1866(1) 0.4689(1) 0.9400(1)
S8 S 0.4421(1) 0.4189(1) 0.9696(1)
C37 C 0.0313(4) 0.1396(1) 1.0044(2)
C38 C -0.0399(4) 0.1768(1) 1.0377(2)
C39 C -0.0511(4) 0.2253(1) 1.0179(2)
C40 C -0.1059(4) 0.2621(1) 1.0499(2)
C41 C -0.0853(4) 0.3139(1) 1.0326(2)
C42 C 0.0457(4) 0.3276(1) 1.0325(2)
C43 C 0.0839(4) 0.3734(1) 1.0119(2)
C44 C 0.2251(4) 0.3815(1) 1.0089(2)
C45 C 0.3235(4) 0.3437(1) 1.0388(2)
C46 C 0.3204(4) 0.2959(1) 1.0148(2)
C47 C 0.3975(4) 0.2580(1) 1.0456(2)
C48 C 0.3617(4) 0.2070(1) 1.0250(2)
C49 C 0.2319(4) 0.1927(1) 1.0272(2)
C50 C 0.1737(4) 0.1491(1) 1.0033(2)
C51 C 0.2580(4) 0.1170(2) 0.9788(2)
C52 C 0.3886(4) 0.1296(2) 0.9785(2)
C53 C 0.4414(4) 0.1743(2) 1.0007(2)
C54 C 0.4899(4) 0.2694(2) 1.0992(2)
C55 C 0.5005(4) 0.3167(2) 1.1218(2)
C56 C 0.4160(4) 0.3535(2) 1.0932(2)
C57 C -0.0198(4) 0.4071(1) 0.9947(2)
C58 C -0.1498(4) 0.3950(2) 0.9976(2)
C59 C -0.1844(4) 0.3488(2) 1.0155(2)
C60 C -0.1641(4) 0.2480(2) 1.1002(2)
C61 C -0.1594(4) 0.2000(2) 1.1193(2)
C62 C -0.0937(4) 0.1644(2) 1.0902(2)
C63 C -0.0433(4) 0.1017(1) 0.9767(2)
C64 C -0.2428(4) 0.0399(1) 0.9435(2)
C65 C -0.3768(4) 0.0184(2) 0.9432(2)
C66 C -0.1421(4) 0.0193(2) 0.9226(2)
C67 C -0.1378(4) -0.0298(2) 0.8918(2)
C68 C 0.2743(4) 0.4188(1) 0.9782(2)
C69 C 0.3185(4) 0.4951(2) 0.9099(2)
C70 C 0.2863(4) 0.5414(2) 0.8731(2)
C71 C 0.4341(4) 0.4716(2) 0.9231(2)
C72 C 0.5612(4) 0.4861(2) 0.9032(2)
H29 H -0.0199 0.2341 0.9804
H30 H 0.1141 0.3040 1.0468
H31 H 0.2628 0.2889 0.9757
H32 H 0.1792 0.2149 1.0466
H33 H 0.2242 0.0860 0.9619
H34 H 0.4447 0.1064 0.9628
H35 H 0.5319 0.1826 0.9995
H36 H 0.5458 0.2439 1.1202
H37 H 0.5684 0.3246 1.1572
H38 H 0.4204 0.3858 1.1110
H39 H 0.0001 0.4392 0.9810
H40 H -0.2182 0.4192 0.9865
H41 H -0.2751 0.3409 1.0167
H42 H -0.2073 0.2721 1.1215
H43 H -0.2015 0.1908 1.1531
H44 H -0.0858 0.1313 1.1059
H45 H -0.3834 -0.0131 0.9232
H46 H -0.3907 0.0149 0.9854
H47 H -0.4432 0.0400 0.9207
H48 H -0.2224 -0.0458 0.8879
H49 H -0.1169 -0.0252 0.8510
H50 H -0.0706 -0.0498 0.9166
H51 H 0.3643 0.5526 0.8589
H52 H 0.2171 0.5350 0.8378
H53 H 0.2574 0.5662 0.8989
H54 H 0.5466 0.5154 0.8782
H55 H 0.6285 0.4923 0.9394
H56 H 0.5896 0.4601 0.8790
loop_
_geom_bond_atom_site_label_1
_geom_bond_atom_site_label_2
_geom_bond_site_symmetry_1
_geom_bond_site_symmetry_2
S1 C27 1_555 1_555
S2 C27 1_555 1_555
S3 C32 1_555 1_555
S4 C32 1_555 1_555
C1 C2 1_555 1_555
C2 C3 1_555 1_555
C3 C4 1_555 1_555
C4 C5 1_555 1_555
C5 C6 1_555 1_555
C6 C7 1_555 1_555
C7 C8 1_555 1_555
C8 C9 1_555 1_555
C9 C10 1_555 1_555
C10 C11 1_555 1_555
C11 C12 1_555 1_555
C12 C13 1_555 1_555
C13 C14 1_555 1_555
C14 C1 1_555 1_555
C15 C14 1_555 1_555
C16 C15 1_555 1_555
C17 C12 1_555 1_555
C18 C11 1_555 1_555
C19 C18 1_555 1_555
C20 C9 1_555 1_555
C21 C7 1_555 1_555
C22 C21 1_555 1_555
C23 C5 1_555 1_555
C24 C4 1_555 1_555
C25 C24 1_555 1_555
C26 C2 1_555 1_555
C27 C1 1_555 1_555
C28 S1 1_555 1_555
C29 C28 1_555 1_555
C30 S2 1_555 1_555
C31 C30 1_555 1_555
C32 C8 1_555 1_555
C33 S3 1_555 1_555
C34 C33 1_555 1_555
C35 S4 1_555 1_555
C36 C35 1_555 1_555
H1 C3 1_555 1_555
H2 C6 1_555 1_555
H3 C10 1_555 1_555
H4 C13 1_555 1_555
H5 C15 1_555 1_555
H6 C16 1_555 1_555
H7 C17 1_555 1_555
H8 C18 1_555 1_555
H9 C19 1_555 1_555
H10 C20 1_555 1_555
H11 C21 1_555 1_555
H12 C22 1_555 1_555
H13 C23 1_555 1_555
H14 C24 1_555 1_555
H15 C25 1_555 1_555
H16 C26 1_555 1_555
H17 C29 1_555 1_555
H18 C29 1_555 1_555
H19 C29 1_555 1_555
H20 C31 1_555 1_555
H21 C31 1_555 1_555
H22 C31 1_555 1_555
H23 C34 1_555 1_555
H24 C34 1_555 1_555
H25 C34 1_555 1_555
H26 C36 1_555 1_555
H27 C36 1_555 1_555
H28 C36 1_555 1_555
S5 C63 1_555 1_555
S6 C63 1_555 1_555
S7 C68 1_555 1_555
S8 C68 1_555 1_555
C37 C38 1_555 1_555
C38 C39 1_555 1_555
C39 C40 1_555 1_555
C40 C41 1_555 1_555
C41 C42 1_555 1_555
C42 C43 1_555 1_555
C43 C44 1_555 1_555
C44 C45 1_555 1_555
C45 C46 1_555 1_555
C46 C47 1_555 1_555
C47 C48 1_555 1_555
C48 C49 1_555 1_555
C49 C50 1_555 1_555
C50 C37 1_555 1_555
C51 C50 1_555 1_555
C52 C51 1_555 1_555
C53 C48 1_555 1_555
C54 C47 1_555 1_555
C55 C54 1_555 1_555
C56 C45 1_555 1_555
C57 C43 1_555 1_555
C58 C57 1_555 1_555
C59 C41 1_555 1_555
C60 C40 1_555 1_555
C61 C60 1_555 1_555
C62 C38 1_555 1_555
C63 C37 1_555 1_555
C64 S5 1_555 1_555
C65 C64 1_555 1_555
C66 S6 1_555 1_555
C67 C66 1_555 1_555
C68 C44 1_555 1_555
C69 S7 1_555 1_555
C70 C69 1_555 1_555
C71 S8 1_555 1_555
C72 C71 1_555 1_555
H29 C39 1_555 1_555
H30 C42 1_555 1_555
H31 C46 1_555 1_555
H32 C49 1_555 1_555
H33 C51 1_555 1_555
H34 C52 1_555 1_555
H35 C53 1_555 1_555
H36 C54 1_555 1_555
H37 C55 1_555 1_555
H38 C56 1_555 1_555
H39 C57 1_555 1_555
H40 C58 1_555 1_555
H41 C59 1_555 1_555
H42 C60 1_555 1_555
H43 C61 1_555 1_555
H44 C62 1_555 1_555
H45 C65 1_555 1_555
H46 C65 1_555 1_555
H47 C65 1_555 1_555
H48 C67 1_555 1_555
H49 C67 1_555 1_555
H50 C67 1_555 1_555
H51 C70 1_555 1_555
H52 C70 1_555 1_555
H53 C70 1_555 1_555
H54 C72 1_555 1_555
H55 C72 1_555 1_555
H56 C72 1_555 1_555
C16 C17 1_555 1_555
C19 C20 1_555 1_555
C22 C23 1_555 1_555
C25 C26 1_555 1_555
C28 C30 1_555 1_555
C33 C35 1_555 1_555
C52 C53 1_555 1_555
C55 C56 1_555 1_555
C58 C59 1_555 1_555
C61 C62 1_555 1_555
C64 C66 1_555 1_555
C69 C71 1_555 1_555

#END
