
#######################################################################
#
#                 Cambridge Crystallographic Data Centre
#                                CCDC 
#
#######################################################################
#
# If this CIF has been generated from an entry in the Cambridge 
# Structural Database, then it will include bibliographic, chemical, 
# crystal, experimental, refinement or atomic coordinate data resulting 
# from the CCDC's data processing and validation procedures.
#
#######################################################################

data_VIPPIW
_chemical_formula_moiety         'C26 H25 N3 O3'
_chemical_name_systematic        
'n-propyl 5-oxo-4-(2-phenylhydrazinylidene)-2,3,4,5-tetrahydrobenzo[h]pyrrolo[1,2-a]quinoline-3a(1H)-carboxylate'
_symmetry_cell_setting           orthorhombic
_symmetry_space_group_name_H-M   'P 21 21 21'
_symmetry_Int_Tables_number      19
_space_group_name_Hall           'P 2ac 2ab'
loop_
_symmetry_equiv_pos_site_id
_symmetry_equiv_pos_as_xyz
1 x,y,z
2 1/2-x,-y,1/2+z
3 -x,1/2+y,1/2-z
4 1/2+x,1/2-y,-z
_cell_length_a                   21.5925(10)
_cell_length_b                   10.3309(5)
_cell_length_c                   9.9665(4)
_cell_angle_alpha                90
_cell_angle_beta                 90
_cell_angle_gamma                90
_cell_volume                     2223.23
_exptl_crystal_colour            red
_exptl_crystal_description       block
_cell_formula_units_Z            4
loop_
_atom_site_label
_atom_site_type_symbol
_atom_site_fract_x
_atom_site_fract_y
_atom_site_fract_z
O1 O 0.62047(14) 0.6931(3) 0.1519(3)
O2 O 0.61413(16) 0.6253(3) 0.5565(4)
N1 N 0.67954(13) 0.3791(3) 0.3631(3)
N2 N 0.72539(14) 0.7048(3) 0.3282(3)
N3 N 0.72227(16) 0.8011(3) 0.2407(3)
H1 H 0.6915 0.8051 0.1862
O3 O 0.62885(19) 0.4190(3) 0.6045(4)
C1 C 0.63461(17) 0.6008(3) 0.2244(3)
C2 C 0.68440(16) 0.6134(3) 0.3247(3)
C3 C 0.63860(17) 0.5253(4) 0.5353(4)
C4 C 0.63241(15) 0.3649(3) 0.2711(3)
C5 C 0.60711(16) 0.4732(4) 0.2076(3)
C6 C 0.68871(15) 0.5048(3) 0.4268(3)
C7 C 0.76804(18) 0.8958(3) 0.2355(4)
C8 C 0.60781(17) 0.2379(4) 0.2423(4)
C9 C 0.7656(2) 0.9860(4) 0.1332(4)
H2 H 0.7340 0.9816 0.0699
C10 C 0.75319(17) 0.4920(4) 0.4915(4)
H3 H 0.7738 0.5752 0.4973
H4 H 0.7506 0.4542 0.5805
C11 C 0.56103(18) 0.2276(4) 0.1426(4)
C12 C 0.81514(19) 0.9041(4) 0.3300(4)
H5 H 0.8178 0.8438 0.3990
C13 C 0.8095(3) 1.0825(4) 0.1244(5)
H6 H 0.8077 1.1420 0.0545
C14 C 0.5376(2) 0.3390(5) 0.0793(5)
H7 H 0.5072 0.3308 0.0138
C15 C 0.62490(19) 0.1266(4) 0.3128(5)
H8 H 0.6538 0.1333 0.3817
C16 C 0.55893(19) 0.4586(5) 0.1128(4)
H9 H 0.5416 0.5315 0.0729
C17 C 0.78610(18) 0.4022(5) 0.3945(4)
H10 H 0.7989 0.4478 0.3141
H11 H 0.8220 0.3624 0.4359
C18 C 0.5372(2) 0.1024(5) 0.1143(5)
H12 H 0.5072 0.0935 0.0479
C19 C 0.8554(2) 1.0910(5) 0.2173(6)
H13 H 0.8849 1.1563 0.2112
C20 C 0.6000(2) 0.0074(5) 0.2830(6)
H14 H 0.6122 -0.0654 0.3311
C21 C 0.7369(2) 0.3035(5) 0.3639(5)
H15 H 0.7440 0.2632 0.2773
H16 H 0.7356 0.2368 0.4324
C22 C 0.8580(2) 1.0028(5) 0.3204(6)
H17 H 0.8890 1.0097 0.3847
C23 C 0.5566(2) -0.0036(5) 0.1804(6)
H18 H 0.5410 -0.0846 0.1574
C24 C 0.5839(4) 0.4231(7) 0.7129(7)
H19 H 0.5939 0.4541 0.7978
C25 C 0.5193(4) 0.2440(8) 0.6155(9)
H20 H 0.5477 0.2361 0.5419
H21 H 0.4777 0.2352 0.5832
H22 H 0.5277 0.1773 0.6802
C26 C 0.5274(7) 0.380(2) 0.6829(16)
H23 H 0.5082 0.4428 0.6242
H24 H 0.5035 0.3787 0.7654
H25? H 0.5558 0.4953 0.7007
H26? H 0.6048 0.4333 0.7985
H27? H 0.5185 0.2883 0.5344
H28? H 0.4990 0.1650 0.6237
C27? C 0.5464(14) 0.288(4) 0.709(3)
H29? H 0.5759 0.2226 0.7364
H30? H 0.5162 0.2940 0.7810
loop_
_geom_bond_atom_site_label_1
_geom_bond_atom_site_label_2
_geom_bond_site_symmetry_1
_geom_bond_site_symmetry_2
O1 C1 1_555 1_555
O2 C3 1_555 1_555
N1 C4 1_555 1_555
N2 N3 1_555 1_555
N3 H1 1_555 1_555
O3 C3 1_555 1_555
C1 C2 1_555 1_555
C2 N2 1_555 1_555
C3 C6 1_555 1_555
C4 C5 1_555 1_555
C5 C1 1_555 1_555
C6 N1 1_555 1_555
C7 N3 1_555 1_555
C8 C4 1_555 1_555
C9 C7 1_555 1_555
H2 C9 1_555 1_555
C10 C6 1_555 1_555
H3 C10 1_555 1_555
H4 C10 1_555 1_555
C11 C8 1_555 1_555
C12 C7 1_555 1_555
H5 C12 1_555 1_555
C13 C9 1_555 1_555
H6 C13 1_555 1_555
C14 C11 1_555 1_555
H7 C14 1_555 1_555
C15 C8 1_555 1_555
H8 C15 1_555 1_555
C16 C5 1_555 1_555
H9 C16 1_555 1_555
C17 C10 1_555 1_555
H10 C17 1_555 1_555
H11 C17 1_555 1_555
C18 C11 1_555 1_555
H12 C18 1_555 1_555
C19 C13 1_555 1_555
H13 C19 1_555 1_555
C20 C15 1_555 1_555
H14 C20 1_555 1_555
C21 N1 1_555 1_555
H15 C21 1_555 1_555
H16 C21 1_555 1_555
C22 C12 1_555 1_555
H17 C22 1_555 1_555
C23 C18 1_555 1_555
H18 C23 1_555 1_555
C24 O3 1_555 1_555
H19 C24 1_555 1_555
C25 H20 1_555 1_555
H21 C25 1_555 1_555
H22 C25 1_555 1_555
C26 C24 1_555 1_555
H23 C26 1_555 1_555
H24 C26 1_555 1_555
C2 C6 1_555 1_555
C14 C16 1_555 1_555
C17 C21 1_555 1_555
C19 C22 1_555 1_555
C20 C23 1_555 1_555
C25 C26 1_555 1_555

#END
