
#######################################################################
#
#                 Cambridge Crystallographic Data Centre
#                                CCDC 
#
#######################################################################
#
# If this CIF has been generated from an entry in the Cambridge 
# Structural Database, then it will include bibliographic, chemical, 
# crystal, experimental, refinement or atomic coordinate data resulting 
# from the CCDC's data processing and validation procedures.
#
#######################################################################

data_VIQJEL
_chemical_formula_moiety         'C6 H18 Cl9 N3 Si6'
_chemical_name_systematic        
1-Trichlorosilyl-3-(bis(trichlorosilyl)aminodimethylsilyl)-2,2,4,4-tetramethylcyclodisilazane
_symmetry_cell_setting           monoclinic
_symmetry_space_group_name_H-M   'P 21'
_symmetry_Int_Tables_number      4
_space_group_name_Hall           'P 2yb'
loop_
_symmetry_equiv_pos_site_id
_symmetry_equiv_pos_as_xyz
1 x,y,z
2 -x,1/2+y,-z
_cell_length_a                   9.352(1)
_cell_length_b                   12.014(1)
_cell_length_c                   11.296(1)
_cell_angle_alpha                90
_cell_angle_beta                 100.2(3)
_cell_angle_gamma                90
_cell_volume                     1249.1
_exptl_crystal_colour            white
_exptl_crystal_description       needle
_cell_formula_units_Z            2
loop_
_atom_site_label
_atom_site_type_symbol
_atom_site_fract_x
_atom_site_fract_y
_atom_site_fract_z
Cl1 Cl 1.41693(5) 0.53843(4) 1.00810(5)
Cl2 Cl 1.38911(5) 0.80806(4) 1.00913(5)
Cl3 Cl 1.24600(5) 0.65677(5) 1.20163(4)
Cl4 Cl 0.71772(5) 0.94189(4) 0.55129(4)
Cl5 Cl 0.63620(5) 0.79199(4) 0.76559(4)
Cl6 Cl 0.43431(4) 0.77479(4) 0.49885(4)
Cl7 Cl 0.68110(5) 0.79785(4) 0.29438(4)
Cl8 Cl 0.63642(5) 0.53360(4) 0.32411(4)
Cl9 Cl 0.96496(4) 0.64349(4) 0.37716(4)
Si1 Si 0.79973(5) 0.56912(4) 0.65194(4)
Si2 Si 1.08308(5) 0.69739(4) 0.77850(4)
Si3 Si 0.96877(5) 0.57634(4) 0.91808(4)
Si4 Si 1.28003(5) 0.66518(4) 1.02970(4)
Si5 Si 0.64258(5) 0.78989(4) 0.58741(4)
Si6 Si 0.75580(5) 0.66508(4) 0.39786(4)
N1 N 0.74428(14) 0.68235(11) 0.54710(11)
N2 N 0.92240(14) 0.62128(11) 0.76886(12)
N3 N 1.12471(13) 0.66115(12) 0.93205(11)
C1 C 0.84177(19) 0.61668(16) 1.01856(15)
H1 H 0.8214 0.6966 1.0102
H2 H 0.8856 0.6000 1.1021
H3 H 0.7510 0.5748 0.9967
C2 C 1.0148(2) 0.42666(13) 0.93194(17)
H4 H 0.9253 0.3825 0.9186
H5 H 1.0694 0.4116 1.0127
H6 H 1.0742 0.4065 0.8719
C3 C 1.21804(19) 0.64107(18) 0.69357(16)
H7 H 1.2313 0.5613 0.7103
H8 H 1.3109 0.6797 0.7180
H9 H 1.1836 0.6522 0.6073
C4 C 1.0568(2) 0.84791(15) 0.75001(17)
H10 H 1.0375 0.8615 0.6631
H11 H 1.1448 0.8881 0.7867
H12 H 0.9743 0.8741 0.7851
C5 C 0.88769(17) 0.45478(13) 0.57605(14)
H13 H 0.9770 0.4829 0.5526
H14 H 0.8206 0.4297 0.5043
H15 H 0.9112 0.3922 0.6318
C6 C 0.63738(18) 0.51269(14) 0.70395(15)
H16 H 0.6628 0.4430 0.7476
H17 H 0.5607 0.4986 0.6344
H18 H 0.6026 0.5667 0.7574
loop_
_geom_bond_atom_site_label_1
_geom_bond_atom_site_label_2
_geom_bond_site_symmetry_1
_geom_bond_site_symmetry_2
Cl1 Si4 1_555 1_555
Cl2 Si4 1_555 1_555
Cl3 Si4 1_555 1_555
Cl4 Si5 1_555 1_555
Cl5 Si5 1_555 1_555
Cl6 Si5 1_555 1_555
Cl7 Si6 1_555 1_555
Cl8 Si6 1_555 1_555
Cl9 Si6 1_555 1_555
Si1 N1 1_555 1_555
Si2 N2 1_555 1_555
Si3 N2 1_555 1_555
Si4 N3 1_555 1_555
Si5 N1 1_555 1_555
Si6 N1 1_555 1_555
N2 Si1 1_555 1_555
N3 Si2 1_555 1_555
C1 Si3 1_555 1_555
H1 C1 1_555 1_555
H2 C1 1_555 1_555
H3 C1 1_555 1_555
C2 Si3 1_555 1_555
H4 C2 1_555 1_555
H5 C2 1_555 1_555
H6 C2 1_555 1_555
C3 Si2 1_555 1_555
H7 C3 1_555 1_555
H8 C3 1_555 1_555
H9 C3 1_555 1_555
C4 Si2 1_555 1_555
H10 C4 1_555 1_555
H11 C4 1_555 1_555
H12 C4 1_555 1_555
C5 Si1 1_555 1_555
H13 C5 1_555 1_555
H14 C5 1_555 1_555
H15 C5 1_555 1_555
C6 Si1 1_555 1_555
H16 C6 1_555 1_555
H17 C6 1_555 1_555
H18 C6 1_555 1_555
Si3 N3 1_555 1_555

#END
