
#######################################################################
#
#                 Cambridge Crystallographic Data Centre
#                                CCDC 
#
#######################################################################
#
# If this CIF has been generated from an entry in the Cambridge 
# Structural Database, then it will include bibliographic, chemical, 
# crystal, experimental, refinement or atomic coordinate data resulting 
# from the CCDC's data processing and validation procedures.
#
#######################################################################

data_VIQSOG
_chemical_formula_moiety         'C39 H29 Se2 1+,C32 H12 B1 F24 1-,2(C1 H1 Cl3)'
_chemical_name_systematic        
'4-(5-(2,6-diphenyl-4H-selenopyran-4-ylidene)penta-1,3-dien-1-yl)-2,6-diphenylselenopyranium tetrakis(3,5-bis(trifluoromethyl)phenyl)borate chloroform solvate'
_symmetry_cell_setting           triclinic
_symmetry_space_group_name_H-M   'P -1'
_symmetry_Int_Tables_number      2
_space_group_name_Hall           '-P 1'
loop_
_symmetry_equiv_pos_site_id
_symmetry_equiv_pos_as_xyz
1 x,y,z
2 -x,-y,-z
_cell_length_a                   13.837(6)
_cell_length_b                   16.036(6)
_cell_length_c                   17.709(7)
_cell_angle_alpha                69.886(5)
_cell_angle_beta                 69.696(5)
_cell_angle_gamma                65.617(5)
_cell_volume                     3262.69
_exptl_crystal_colour            purple
_exptl_crystal_description       prism
_cell_formula_units_Z            2
loop_
_atom_site_label
_atom_site_type_symbol
_atom_site_fract_x
_atom_site_fract_y
_atom_site_fract_z
F1 F 0.79192(14) 0.93883(15) 0.57971(14)
F2 F 0.83168(17) 1.06527(14) 0.52780(15)
F3 F 0.95372(13) 0.93525(19) 0.55731(16)
F4 F 0.8997(2) 1.1894(2) 0.7496(2)
F5 F 0.7470(2) 1.25431(19) 0.71697(19)
F6 F 0.7565(3) 1.19298(19) 0.84369(17)
F7 F 0.5307(3) 0.6859(3) 1.2107(2)
F8 F 0.6884(3) 0.6007(3) 1.1596(2)
F9 F 0.6753(3) 0.7065(3) 1.2107(2)
F10 F 0.4172(2) 1.00587(19) 0.92339(19)
F11 F 0.4471(2) 0.8909(2) 0.8770(2)
F12 F 0.3496(2) 0.8992(3) 0.9999(2)
F13 F 1.2631(2) 0.6181(2) 0.74103(18)
F14 F 1.1773(2) 0.7128(2) 0.64926(17)
F15 F 1.2146(3) 0.5647(2) 0.6701(2)
F16 F 0.8814(2) 0.47838(17) 1.00648(16)
F17 F 1.0149(2) 0.39900(17) 0.92484(17)
F18 F 0.8575(2) 0.46815(17) 0.89791(17)
F19 F 0.78921(15) 1.0075(2) 1.1163(2)
F20 F 0.8742(2) 0.88974(19) 1.19817(16)
F21 F 0.94853(17) 0.99052(18) 1.1184(2)
F22 F 1.2411(2) 0.6793(3) 1.04960(18)
F23 F 1.2785(2) 0.7822(2) 0.9414(2)
F24 F 1.2516(2) 0.66695(19) 0.9311(2)
C40 C 0.8399(3) 0.9219(3) 0.8159(3)
C41 C 0.8381(5) 0.9183(4) 0.7381(3)
H30 H 0.8399 0.8625 0.7317
C42 C 0.8337(2) 0.99721(18) 0.66866(11)
C43 C 0.8140(5) 1.0827(4) 0.6809(3)
H31 H 0.8022 1.1365 0.6381
C44 C 0.8117(3) 1.0888(3) 0.7579(3)
C45 C 0.8286(3) 1.0096(3) 0.8220(2)
H32 H 0.8325 1.0152 0.8713
C46 C 0.84344(14) 0.98527(13) 0.58700(16)
C47 C 0.8011(4) 1.1804(3) 0.7680(3)
C48 C 0.7346(3) 0.8256(3) 0.9531(3)
C49 C 0.7266(3) 0.7678(3) 1.0332(3)
H33 H 0.7891 0.7354 1.0536
C50 C 0.6290(3) 0.7574(3) 1.0827(3)
C51 C 0.5338(3) 0.8032(3) 1.0558(3)
H34 H 0.4681 0.7951 1.0893
C52 C 0.5392(3) 0.8613(3) 0.9773(3)
C53 C 0.6381(3) 0.8720(3) 0.9267(3)
H35 H 0.6396 0.9112 0.8738
C54 C 0.6276(4) 0.6913(4) 1.1667(3)
C55 C 0.4390(3) 0.9136(3) 0.9451(3)
C56 C 0.9192(3) 0.7313(3) 0.8600(2)
C57 C 1.0119(3) 0.7233(3) 0.7940(2)
H36 H 1.0303 0.7771 0.7637
C58 C 1.0776(3) 0.6387(3) 0.7719(3)
C59 C 1.0526(3) 0.5578(3) 0.8146(3)
H37 H 1.0970 0.5005 0.8008
C60 C 0.9598(3) 0.5640(3) 0.8784(2)
C61 C 0.8941(3) 0.6494(3) 0.8997(2)
H38 H 0.8310 0.6515 0.9420
C62 C 1.1816(4) 0.6333(3) 0.7079(3)
C63 C 0.9300(3) 0.4777(3) 0.9266(3)
C64 C 0.9268(3) 0.8313(3) 0.9487(2)
C65 C 0.8789(3) 0.8845(3) 1.0089(2)
H39 H 0.8045 0.9187 1.0176
C66 C 0.9389(3) 0.8879(3) 1.0562(3)
C67 C 1.0489(3) 0.8373(3) 1.0460(2)
H40 H 1.0894 0.8390 1.0775
C68 C 1.0970(3) 0.7839(3) 0.9878(2)
C69 C 1.0380(3) 0.7809(3) 0.9405(2)
H41 H 1.0736 0.7440 0.9018
C70 C 0.88709(15) 0.94264(14) 1.12035(14)
C71 C 1.2158(3) 0.7286(3) 0.9774(3)
B1 B 0.8552(3) 0.8287(3) 0.8934(3)
Se1 Se 0.25219(3) 0.48378(3) 0.41233(2)
Se2 Se 0.59613(3) 0.80707(3) -0.40517(3)
C1 C 0.2284(3) 0.5286(3) 0.3050(2)
C2 C 0.3103(3) 0.5329(3) 0.2365(2)
H1 H 0.2905 0.5577 0.1861
C3 C 0.4251(3) 0.5035(3) 0.2323(2)
C4 C 0.4626(3) 0.4618(3) 0.3072(3)
H2 H 0.5379 0.4416 0.3001
C5 C 0.4046(3) 0.4479(3) 0.3858(2)
C6 C 0.5036(3) 0.5151(3) 0.1586(2)
H3 H 0.5762 0.4870 0.1621
C7 C 0.4855(3) 0.5639(3) 0.0811(2)
H4 H 0.4140 0.5888 0.0753
C8 C 0.5681(3) 0.5780(3) 0.0110(2)
H5 H 0.6400 0.5507 0.0161
C9 C 0.5488(3) 0.6305(3) -0.0661(2)
H6 H 0.4767 0.6576 -0.0705
C10 C 0.6288(3) 0.6455(3) -0.1365(3)
H7 H 0.7002 0.6179 -0.1304
C11 C 0.4871(3) 0.8002(3) -0.3080(3)
C12 C 0.5103(3) 0.7501(3) -0.2336(3)
H8 H 0.4507 0.7500 -0.1883
C13 C 0.6159(3) 0.6974(3) -0.2167(2)
C14 C 0.7123(3) 0.6958(3) -0.2812(2)
H9 H 0.7781 0.6621 -0.2655
C15 C 0.7196(3) 0.7377(3) -0.3628(3)
C16 C 0.1125(3) 0.5578(3) 0.3044(2)
C17 C 0.0431(3) 0.5129(3) 0.3663(2)
H10 H 0.0697 0.4643 0.4090
C18 C -0.0644(3) 0.5398(3) 0.3647(3)
H11 H -0.1095 0.5081 0.4055
C19 C -0.1061(3) 0.6133(3) 0.3031(3)
H12 H -0.1792 0.6317 0.3028
C20 C -0.0389(3) 0.6590(3) 0.2422(2)
H13 H -0.0669 0.7087 0.2007
C21 C 0.0705(3) 0.6318(3) 0.2420(2)
H14 H 0.1154 0.6630 0.2004
C22 C 0.4537(3) 0.4076(3) 0.4576(3)
C23 C 0.5564(4) 0.3370(4) 0.4516(3)
H15 H 0.5914 0.3134 0.4043
C24 C 0.6049(4) 0.3031(5) 0.5179(3)
H16 H 0.6734 0.2567 0.5143
C25 C 0.5537(4) 0.3366(4) 0.5893(3)
H17 H 0.5879 0.3130 0.6328
C26 C 0.4520(4) 0.4049(4) 0.5955(3)
H18 H 0.4172 0.4274 0.6434
C27 C 0.4015(3) 0.4401(3) 0.5305(3)
H19 H 0.3324 0.4857 0.5353
C28 C 0.3762(4) 0.8569(4) -0.3195(3)
C29 C 0.2860(4) 0.8420(4) -0.2624(4)
H20 H 0.2952 0.7935 -0.2153
C30 C 0.1830(4) 0.8950(3) -0.2712(4)
H21 H 0.1239 0.8789 -0.2330
C31 C 0.1657(4) 0.9720(5) -0.3358(4)
H22 H 0.0952 1.0061 -0.3431
C32 C 0.2540(5) 0.9999(4) -0.3911(4)
H23 H 0.2420 1.0547 -0.4330
C33 C 0.3580(5) 0.9454(4) -0.3827(4)
H24 H 0.4170 0.9646 -0.4172
C34 C 0.8245(3) 0.7325(3) -0.4246(3)
C35 C 0.8361(3) 0.7345(3) -0.5067(3)
H25 H 0.7762 0.7396 -0.5226
C36 C 0.9327(4) 0.7291(3) -0.5639(3)
H26 H 0.9381 0.7312 -0.6183
C37 C 1.0231(4) 0.7206(3) -0.5412(3)
H27 H 1.0897 0.7158 -0.5800
C38 C 1.0135(4) 0.7191(3) -0.4604(3)
H28 H 1.0736 0.7146 -0.4450
C39 C 0.9158(3) 0.7243(3) -0.4028(3)
H29 H 0.9107 0.7223 -0.3485
F25? F 0.77064(14) 0.93895(15) 0.59970(15)
F26? F 0.80149(18) 1.06629(15) 0.53487(15)
F27? F 0.93398(15) 0.93702(19) 0.54609(15)
F28? F 0.8283(2) 0.9003(2) 1.1871(2)
F29? F 0.95309(17) 0.9616(2) 1.1465(2)
F30? F 0.8171(2) 1.0258(2) 1.0920(2)
loop_
_geom_bond_atom_site_label_1
_geom_bond_atom_site_label_2
_geom_bond_site_symmetry_1
_geom_bond_site_symmetry_2
Se1 C1 1_555 1_555
Se2 C11 1_555 1_555
C1 C2 1_555 1_555
C2 H1 1_555 1_555
C3 C2 1_555 1_555
C4 C3 1_555 1_555
H2 C4 1_555 1_555
C5 Se1 1_555 1_555
C6 C3 1_555 1_555
H3 C6 1_555 1_555
C7 C6 1_555 1_555
H4 C7 1_555 1_555
C8 C7 1_555 1_555
H5 C8 1_555 1_555
C9 C8 1_555 1_555
H6 C9 1_555 1_555
C10 C9 1_555 1_555
H7 C10 1_555 1_555
C11 C12 1_555 1_555
C12 H8 1_555 1_555
C13 C10 1_555 1_555
C14 C13 1_555 1_555
H9 C14 1_555 1_555
C15 Se2 1_555 1_555
C16 C1 1_555 1_555
C17 C16 1_555 1_555
H10 C17 1_555 1_555
C18 C17 1_555 1_555
H11 C18 1_555 1_555
C19 C18 1_555 1_555
H12 C19 1_555 1_555
C20 C19 1_555 1_555
H13 C20 1_555 1_555
C21 C16 1_555 1_555
H14 C21 1_555 1_555
C22 C5 1_555 1_555
C23 C22 1_555 1_555
H15 C23 1_555 1_555
C24 C23 1_555 1_555
H16 C24 1_555 1_555
C25 C24 1_555 1_555
H17 C25 1_555 1_555
C26 C25 1_555 1_555
H18 C26 1_555 1_555
C27 C22 1_555 1_555
H19 C27 1_555 1_555
C28 C11 1_555 1_555
C29 C28 1_555 1_555
H20 C29 1_555 1_555
C30 C29 1_555 1_555
H21 C30 1_555 1_555
C31 C30 1_555 1_555
H22 C31 1_555 1_555
C32 C31 1_555 1_555
H23 C32 1_555 1_555
C33 C28 1_555 1_555
H24 C33 1_555 1_555
C34 C15 1_555 1_555
C35 C34 1_555 1_555
H25 C35 1_555 1_555
C36 C35 1_555 1_555
H26 C36 1_555 1_555
C37 C36 1_555 1_555
H27 C37 1_555 1_555
C38 C37 1_555 1_555
H28 C38 1_555 1_555
C39 C34 1_555 1_555
H29 C39 1_555 1_555
F1 C46 1_555 1_555
F2 C46 1_555 1_555
F3 C46 1_555 1_555
F4 C47 1_555 1_555
F5 C47 1_555 1_555
F6 C47 1_555 1_555
F7 C54 1_555 1_555
F8 C54 1_555 1_555
F9 C54 1_555 1_555
F10 C55 1_555 1_555
F11 C55 1_555 1_555
F12 C55 1_555 1_555
F13 C62 1_555 1_555
F14 C62 1_555 1_555
F15 C62 1_555 1_555
F16 C63 1_555 1_555
F17 C63 1_555 1_555
F18 C63 1_555 1_555
F19 C70 1_555 1_555
F20 C70 1_555 1_555
F21 C70 1_555 1_555
F22 C71 1_555 1_555
F23 C71 1_555 1_555
F24 C71 1_555 1_555
C40 C41 1_555 1_555
C41 H30 1_555 1_555
C42 C41 1_555 1_555
C43 C42 1_555 1_555
H31 C43 1_555 1_555
C44 C43 1_555 1_555
C45 C40 1_555 1_555
H32 C45 1_555 1_555
C46 C42 1_555 1_555
C47 C44 1_555 1_555
C48 C49 1_555 1_555
C49 H33 1_555 1_555
C50 C49 1_555 1_555
C51 C50 1_555 1_555
H34 C51 1_555 1_555
C52 C51 1_555 1_555
C53 C48 1_555 1_555
H35 C53 1_555 1_555
C54 C50 1_555 1_555
C55 C52 1_555 1_555
C56 C57 1_555 1_555
C57 H36 1_555 1_555
C58 C57 1_555 1_555
C59 C58 1_555 1_555
H37 C59 1_555 1_555
C60 C59 1_555 1_555
C61 C56 1_555 1_555
H38 C61 1_555 1_555
C62 C58 1_555 1_555
C63 C60 1_555 1_555
C64 C65 1_555 1_555
C65 H39 1_555 1_555
C66 C65 1_555 1_555
C67 C66 1_555 1_555
H40 C67 1_555 1_555
C68 C67 1_555 1_555
C69 C64 1_555 1_555
H41 C69 1_555 1_555
C70 C66 1_555 1_555
C71 C68 1_555 1_555
B1 C40 1_555 1_555
C4 C5 1_555 1_555
C12 C13 1_555 1_555
C14 C15 1_555 1_555
C20 C21 1_555 1_555
C26 C27 1_555 1_555
C32 C33 1_555 1_555
C38 C39 1_555 1_555
C44 C45 1_555 1_555
C48 B1 1_555 1_555
C52 C53 1_555 1_555
C56 B1 1_555 1_555
C60 C61 1_555 1_555
C64 B1 1_555 1_555
C68 C69 1_555 1_555

#END
