
#######################################################################
#
#                 Cambridge Crystallographic Data Centre
#                                CCDC 
#
#######################################################################
#
# If this CIF has been generated from an entry in the Cambridge 
# Structural Database, then it will include bibliographic, chemical, 
# crystal, experimental, refinement or atomic coordinate data resulting 
# from the CCDC's data processing and validation procedures.
#
#######################################################################

data_VISCIM
_chemical_formula_moiety         'C46 H48 N4 O14'
_chemical_name_systematic        
'14,15,29,30,31,32,34,35-octamethoxy-7,22-bis[(prop-2-yn-1-yl)oxy]-3,11,18,26-tetra-azapentacyclo[26.2.2.2^13,16^.1^5,9^.1^20,24^]hexatriaconta-1(30),5(36),6,8,13,15,20(33),21,23,28,31,34-dodecaene-4,10,19,25-tetrone unknown solvate'
_symmetry_cell_setting           monoclinic
_symmetry_space_group_name_H-M   'P 21/n'
_symmetry_Int_Tables_number      14
_space_group_name_Hall           '-P 2yn'
loop_
_symmetry_equiv_pos_site_id
_symmetry_equiv_pos_as_xyz
1 x,y,z
2 1/2-x,1/2+y,1/2-z
3 -x,-y,-z
4 1/2+x,1/2-y,1/2+z
_cell_length_a                   16.2510(17)
_cell_length_b                   20.991(2)
_cell_length_c                   16.6756(17)
_cell_angle_alpha                90
_cell_angle_beta                 96.331(2)
_cell_angle_gamma                90
_cell_volume                     5653.77
_exptl_crystal_colour            colorless
_exptl_crystal_description       tablet
_cell_formula_units_Z            4
_exptl_crystal_preparation       Fluorescent
loop_
_atom_site_label
_atom_site_type_symbol
_atom_site_fract_x
_atom_site_fract_y
_atom_site_fract_z
O1 O 0.70207(8) 0.38128(5) 0.71071(7)
O2 O 0.53270(9) 0.49754(7) 0.38322(8)
O3 O 0.82814(11) 0.84475(6) 0.29122(8)
O4 O 0.90743(8) 0.70473(5) 0.62549(7)
O5 O 0.74944(9) 0.27040(6) 0.44703(7)
O6 O 0.53825(7) 0.63194(6) 0.24863(7)
O7 O 0.65186(8) 0.73259(5) 0.26260(8)
O8 O 0.87329(7) 0.58652(6) 0.24273(7)
O9 O 0.75947(7) 0.48619(5) 0.22239(7)
O10 O 0.81071(9) 0.97271(6) 0.55090(7)
O11 O 0.92716(7) 0.59764(6) 0.77077(8)
O12 O 0.81998(8) 0.49366(5) 0.74779(8)
O13 O 0.58800(7) 0.63207(6) 0.75784(7)
O14 O 0.69726(8) 0.73566(5) 0.78597(8)
N1 N 0.64281(9) 0.47476(7) 0.66950(9)
H1 H 0.620358 0.496903 0.627905
N2 N 0.60747(9) 0.45378(6) 0.29172(8)
H2 H 0.637189 0.420798 0.279652
N3 N 0.83274(10) 0.74360(7) 0.33263(9)
H3 H 0.839851 0.717650 0.374269
N4 N 0.85383(9) 0.76961(6) 0.71398(8)
H4 H 0.830174 0.806394 0.722180
C1 C 0.64853(11) 0.50431(8) 0.74889(11)
H5 H 0.670074 0.472735 0.790060
H6 H 0.592452 0.517068 0.760655
C2 C 0.66971(10) 0.41592(8) 0.65611(10)
C3 C 0.66131(10) 0.39419(7) 0.56976(10)
C4 C 0.61745(10) 0.42883(8) 0.50794(10)
H7 H 0.585447 0.464644 0.520391
C5 C 0.62044(10) 0.41104(8) 0.42785(10)
C6 C 0.66388(11) 0.35704(8) 0.40984(10)
H8 H 0.665516 0.344533 0.355288
C7 C 0.70504(11) 0.32126(8) 0.47196(10)
C8 C 0.70445(11) 0.33952(8) 0.55193(10)
H9 H 0.733139 0.315025 0.594032
C9 C 0.58161(11) 0.45689(8) 0.36525(10)
C10 C 0.58809(11) 0.50309(8) 0.23115(10)
H10 H 0.531913 0.519810 0.236119
H11 H 0.587517 0.483913 0.176849
C11 C 0.64910(10) 0.55792(8) 0.23869(10)
C12 C 0.62175(11) 0.62039(8) 0.24727(10)
C13 C 0.67769(11) 0.67080(8) 0.25122(10)
C14 C 0.76189(11) 0.66049(8) 0.24805(10)
C15 C 0.78962(10) 0.59822(8) 0.24113(10)
C16 C 0.73333(11) 0.54767(8) 0.23533(10)
C17 C 0.82048(12) 0.71637(8) 0.25149(10)
H12 H 0.874461 0.702301 0.235441
H13 H 0.797847 0.749401 0.212788
C18 C 0.83354(10) 0.80593(8) 0.34590(10)
C19 C 0.84126(10) 0.82720(8) 0.43280(10)
C20 C 0.85852(10) 0.78476(8) 0.49639(10)
H14 H 0.870156 0.741432 0.485640
C21 C 0.85883(10) 0.80541(8) 0.57581(10)
C22 C 0.84317(11) 0.86892(8) 0.59103(10)
H15 H 0.843035 0.883354 0.645008
C23 C 0.82760(11) 0.91164(8) 0.52710(10)
C24 C 0.82683(10) 0.89130(8) 0.44819(10)
H16 H 0.816585 0.920670 0.404897
C25 C 0.87574(11) 0.75600(8) 0.64073(10)
C26 C 0.86870(11) 0.72421(8) 0.78036(10)
H17 H 0.861973 0.746319 0.831678
H18 H 0.926586 0.708947 0.783225
C27 C 0.81118(11) 0.66755(8) 0.77182(9)
C28 C 0.84253(10) 0.60611(8) 0.76489(10)
C29 C 0.78917(11) 0.55434(8) 0.75689(10)
C30 C 0.70424(10) 0.56209(8) 0.75496(10)
C31 C 0.67270(10) 0.62346(8) 0.76271(10)
C32 C 0.72646(11) 0.67515(8) 0.77164(10)
C33 C 0.77058(12) 0.22003(8) 0.50314(11)
H19 H 0.796296 0.238302 0.554636
H20 H 0.811780 0.191811 0.481677
C34 C 0.69856(14) 0.18269(9) 0.51824(12)
C35 C 0.63994(17) 0.15255(11) 0.52792(14)
H21 H 0.592318 0.128064 0.535783
C36 C 0.51832(12) 0.65022(9) 0.32781(11)
H22 H 0.459315 0.660700 0.325054
H23 H 0.551290 0.687510 0.346539
H24 H 0.530856 0.614832 0.365523
C37 C 0.60257(14) 0.75960(9) 0.19412(13)
H25 H 0.637626 0.767761 0.151038
H26 H 0.578029 0.799716 0.209899
H27 H 0.558440 0.729747 0.174738
C38 C 0.89987(13) 0.57652(12) 0.16516(13)
H28 H 0.884565 0.613422 0.130709
H29 H 0.873222 0.538218 0.140784
H30 H 0.960114 0.571043 0.170597
C39 C 0.80811(12) 0.45781(9) 0.29083(12)
H31 H 0.817745 0.412746 0.279687
H32 H 0.778257 0.461461 0.338584
H33 H 0.861345 0.479966 0.300708
C40 C 0.79952(13) 1.02222(8) 0.49154(11)
H34 H 0.765244 1.056466 0.511615
H35 H 0.769141 1.004786 0.441616
C41 C 0.87746(13) 1.04929(9) 0.47249(11)
C42 C 0.93988(15) 1.07293(11) 0.45802(13)
H36 H 0.990219 1.092002 0.446345
C43 C 0.95785(12) 0.57137(9) 0.69984(13)
H37 H 0.925880 0.588682 0.651462
H38 H 0.952186 0.524894 0.700260
H39 H 1.016330 0.582691 0.699624
C44 C 0.85607(13) 0.46633(9) 0.82190(12)
H40 H 0.875862 0.423278 0.811836
H41 H 0.814445 0.464253 0.860106
H42 H 0.902664 0.492727 0.844609
C45 C 0.55674(13) 0.64130(11) 0.83357(13)
H43 H 0.496213 0.644171 0.825263
H44 H 0.579473 0.680798 0.858305
H45 H 0.573056 0.605278 0.869204
C46 C 0.64720(13) 0.76427(10) 0.71899(14)
H46 H 0.677093 0.763065 0.671087
H47 H 0.635248 0.808611 0.732013
H48 H 0.595149 0.740630 0.708245
loop_
_geom_bond_atom_site_label_1
_geom_bond_atom_site_label_2
_geom_bond_site_symmetry_1
_geom_bond_site_symmetry_2
O1 C2 1_555 1_555
O2 C9 1_555 1_555
O3 C18 1_555 1_555
O4 C25 1_555 1_555
O5 C7 1_555 1_555
O6 C12 1_555 1_555
O7 C13 1_555 1_555
O8 C15 1_555 1_555
O9 C16 1_555 1_555
O10 C23 1_555 1_555
O11 C28 1_555 1_555
O12 C29 1_555 1_555
O13 C31 1_555 1_555
O14 C32 1_555 1_555
N1 H1 1_555 1_555
N2 H2 1_555 1_555
N3 H3 1_555 1_555
N4 H4 1_555 1_555
C1 N1 1_555 1_555
H5 C1 1_555 1_555
H6 C1 1_555 1_555
C2 N1 1_555 1_555
C3 C2 1_555 1_555
C4 C3 1_555 1_555
H7 C4 1_555 1_555
C5 C4 1_555 1_555
C6 C5 1_555 1_555
H8 C6 1_555 1_555
C7 C6 1_555 1_555
C8 C3 1_555 1_555
H9 C8 1_555 1_555
C9 N2 1_555 1_555
C10 N2 1_555 1_555
H10 C10 1_555 1_555
H11 C10 1_555 1_555
C11 C10 1_555 1_555
C12 C11 1_555 1_555
C13 C12 1_555 1_555
C14 C13 1_555 1_555
C15 C14 1_555 1_555
C16 C11 1_555 1_555
C17 N3 1_555 1_555
H12 C17 1_555 1_555
H13 C17 1_555 1_555
C18 N3 1_555 1_555
C19 C18 1_555 1_555
C20 C19 1_555 1_555
H14 C20 1_555 1_555
C21 C20 1_555 1_555
C22 C21 1_555 1_555
H15 C22 1_555 1_555
C23 C22 1_555 1_555
C24 C19 1_555 1_555
H16 C24 1_555 1_555
C25 N4 1_555 1_555
C26 N4 1_555 1_555
H17 C26 1_555 1_555
H18 C26 1_555 1_555
C27 C26 1_555 1_555
C28 C27 1_555 1_555
C29 C28 1_555 1_555
C30 C1 1_555 1_555
C31 C30 1_555 1_555
C32 C27 1_555 1_555
C33 O5 1_555 1_555
H19 C33 1_555 1_555
H20 C33 1_555 1_555
C34 C33 1_555 1_555
C35 C34 1_555 1_555
H21 C35 1_555 1_555
C36 O6 1_555 1_555
H22 C36 1_555 1_555
H23 C36 1_555 1_555
H24 C36 1_555 1_555
C37 O7 1_555 1_555
H25 C37 1_555 1_555
H26 C37 1_555 1_555
H27 C37 1_555 1_555
C38 O8 1_555 1_555
H28 C38 1_555 1_555
H29 C38 1_555 1_555
H30 C38 1_555 1_555
C39 O9 1_555 1_555
H31 C39 1_555 1_555
H32 C39 1_555 1_555
H33 C39 1_555 1_555
C40 O10 1_555 1_555
H34 C40 1_555 1_555
H35 C40 1_555 1_555
C41 C40 1_555 1_555
C42 C41 1_555 1_555
H36 C42 1_555 1_555
C43 O11 1_555 1_555
H37 C43 1_555 1_555
H38 C43 1_555 1_555
H39 C43 1_555 1_555
C44 O12 1_555 1_555
H40 C44 1_555 1_555
H41 C44 1_555 1_555
H42 C44 1_555 1_555
C45 O13 1_555 1_555
H43 C45 1_555 1_555
H44 C45 1_555 1_555
H45 C45 1_555 1_555
C46 O14 1_555 1_555
H46 C46 1_555 1_555
H47 C46 1_555 1_555
H48 C46 1_555 1_555
C5 C9 1_555 1_555
C7 C8 1_555 1_555
C14 C17 1_555 1_555
C15 C16 1_555 1_555
C21 C25 1_555 1_555
C23 C24 1_555 1_555
C29 C30 1_555 1_555
C31 C32 1_555 1_555

#END
