
#######################################################################
#
#                 Cambridge Crystallographic Data Centre
#                                CCDC 
#
#######################################################################
#
# If this CIF has been generated from an entry in the Cambridge 
# Structural Database, then it will include bibliographic, chemical, 
# crystal, experimental, refinement or atomic coordinate data resulting 
# from the CCDC's data processing and validation procedures.
#
#######################################################################

data_VISMES
_chemical_compound_source        'twigs and leaves of Baeckea frutescens'
_chemical_name_common            'Baeckfrutone J'
_chemical_formula_moiety         'C24 H36 O3'
_chemical_name_systematic        
7-methoxy-6,6,8-trimethyl-4,5'-bis(propan-2-yl)-4,6-dihydrospiro[1-benzopyran-2,2'-bicyclo[3.1.0]hexan]-5(3H)-one
_chemical_properties_biological  'anti-inflammatory activity'
_symmetry_cell_setting           trigonal
_symmetry_space_group_name_H-M   'P 32'
_symmetry_Int_Tables_number      145
_space_group_name_Hall           'P 32'
loop_
_symmetry_equiv_pos_site_id
_symmetry_equiv_pos_as_xyz
1 x,y,z
2 -y,x-y,2/3+z
3 -x+y,-x,1/3+z
_cell_length_a                   12.3485(3)
_cell_length_b                   12.3485(3)
_cell_length_c                   12.1268(3)
_cell_angle_alpha                90
_cell_angle_beta                 90
_cell_angle_gamma                120
_cell_volume                     1601.42
_exptl_crystal_colour            colorless
_exptl_crystal_description       prism
_cell_formula_units_Z            3
_exptl_crystal_recrystallization_method 
'Re-crystallisation from solvent: chloroform/methanol'
loop_
_atom_site_label
_atom_site_type_symbol
_atom_site_fract_x
_atom_site_fract_y
_atom_site_fract_z
O1 O 0.7115(2) 0.1736(2) 0.26103(19)
O2 O 1.0302(2) 0.3188(2) 0.52897(18)
O3 O 0.9404(2) 0.6025(2) 0.3374(2)
C1 C 1.1369(3) 0.5304(4) 0.3616(4)
H1 H 1.1251 0.4820 0.2942
H2 H 1.2008 0.5280 0.4077
H3 H 1.1638 0.6173 0.3422
C2 C 1.0126(3) 0.4738(3) 0.4256(3)
C3 C 0.9769(3) 0.3376(3) 0.4525(3)
C4 C 0.8866(3) 0.2372(3) 0.3841(2)
C5 C 0.8093(3) 0.2608(3) 0.3208(2)
C6 C 0.6765(3) 0.0417(3) 0.2703(3)
C7 C 0.5718(3) -0.0146(3) 0.3570(3)
H4 H 0.5837 0.0282 0.4296
C8 C 0.4491(3) -0.0639(3) 0.2960(3)
C9 C 0.3407(3) -0.0522(4) 0.3423(4)
H5 H 0.3196 -0.0920 0.4169
C10 C 0.3763(3) 0.0848(4) 0.3554(3)
H6 H 0.4471 0.1264 0.4063
H7 H 0.3048 0.0894 0.3848
H8 H 0.3998 0.1264 0.2834
C11 C 0.2245(4) -0.1216(4) 0.2688(5)
H9 H 0.2421 -0.0822 0.1958
H10 H 0.1543 -0.1177 0.3024
H11 H 0.2028 -0.2092 0.2612
C12 C 1.0323(4) 0.5454(3) 0.5342(3)
H12 H 1.0675 0.6346 0.5185
H13 H 1.0900 0.5337 0.5814
H14 H 0.9519 0.5135 0.5720
C13 C 0.9168(3) 0.4826(3) 0.3552(2)
C14 C 0.8567(4) 0.6350(3) 0.3915(3)
H15 H 0.7802 0.5585 0.4131
H16 H 0.8355 0.6836 0.3410
H17 H 0.8974 0.6850 0.4573
C15 C 0.8215(3) 0.3841(3) 0.3063(2)
C16 C 0.7267(3) 0.3939(3) 0.2352(3)
H18 H 0.6453 0.3529 0.2723
H19 H 0.7196 0.3529 0.1642
H20 H 0.7534 0.4822 0.2229
C17 C 0.8714(3) 0.1073(3) 0.3892(2)
H21 H 0.8253 0.0658 0.4584
C18 C 0.7908(3) 0.0305(3) 0.2900(3)
H22 H 0.8432 0.0580 0.2227
H23 H 0.7641 -0.0587 0.3022
C19 C 0.9964(3) 0.1088(3) 0.3902(3)
H24 H 1.0359 0.1417 0.4637
C20 C 0.9743(3) -0.0246(3) 0.3802(3)
H25 H 0.9402 -0.0582 0.3071
H26 H 0.9150 -0.0776 0.4370
H27 H 1.0538 -0.0233 0.3901
C21 C 1.0893(3) 0.1928(3) 0.3026(3)
H28 H 1.1624 0.1815 0.3029
H29 H 1.1159 0.2804 0.3189
H30 H 1.0494 0.1706 0.2299
C22 C 0.6099(3) -0.0168(3) 0.1613(3)
H31 H 0.6525 0.0410 0.0990
H32 H 0.6093 -0.0961 0.1472
C23 C 0.4780(3) -0.0405(3) 0.1743(3)
H33 H 0.4187 -0.1142 0.1305
H34 H 0.4725 0.0330 0.1495
C24 C 0.4812(3) -0.1553(3) 0.3479(3)
H35 H 0.5043 -0.2042 0.2982
H36 H 0.4348 -0.2002 0.4150
loop_
_geom_bond_atom_site_label_1
_geom_bond_atom_site_label_2
_geom_bond_site_symmetry_1
_geom_bond_site_symmetry_2
O1 C5 1_555 1_555
O2 C3 1_555 1_555
O3 C13 1_555 1_555
C1 H1 1_555 1_555
H2 C1 1_555 1_555
H3 C1 1_555 1_555
C2 C1 1_555 1_555
C3 C2 1_555 1_555
C4 C3 1_555 1_555
C5 C4 1_555 1_555
C6 O1 1_555 1_555
C7 C6 1_555 1_555
H4 C7 1_555 1_555
C8 C7 1_555 1_555
C9 C8 1_555 1_555
H5 C9 1_555 1_555
C10 C9 1_555 1_555
H6 C10 1_555 1_555
H7 C10 1_555 1_555
H8 C10 1_555 1_555
C11 C9 1_555 1_555
H9 C11 1_555 1_555
H10 C11 1_555 1_555
H11 C11 1_555 1_555
C12 C2 1_555 1_555
H12 C12 1_555 1_555
H13 C12 1_555 1_555
H14 C12 1_555 1_555
C13 C2 1_555 1_555
C14 O3 1_555 1_555
H15 C14 1_555 1_555
H16 C14 1_555 1_555
H17 C14 1_555 1_555
C15 C5 1_555 1_555
C16 C15 1_555 1_555
H18 C16 1_555 1_555
H19 C16 1_555 1_555
H20 C16 1_555 1_555
C17 C4 1_555 1_555
H21 C17 1_555 1_555
C18 C6 1_555 1_555
H22 C18 1_555 1_555
H23 C18 1_555 1_555
C19 C17 1_555 1_555
H24 C19 1_555 1_555
C20 C19 1_555 1_555
H25 C20 1_555 1_555
H26 C20 1_555 1_555
H27 C20 1_555 1_555
C21 C19 1_555 1_555
H28 C21 1_555 1_555
H29 C21 1_555 1_555
H30 C21 1_555 1_555
C22 C6 1_555 1_555
H31 C22 1_555 1_555
H32 C22 1_555 1_555
C23 C8 1_555 1_555
H33 C23 1_555 1_555
H34 C23 1_555 1_555
C24 C7 1_555 1_555
H35 C24 1_555 1_555
H36 C24 1_555 1_555
C8 C24 1_555 1_555
C13 C15 1_555 1_555
C17 C18 1_555 1_555
C22 C23 1_555 1_555

#END
