
#######################################################################
#
#                 Cambridge Crystallographic Data Centre
#                                CCDC 
#
#######################################################################
#
# If this CIF has been generated from an entry in the Cambridge 
# Structural Database, then it will include bibliographic, chemical, 
# crystal, experimental, refinement or atomic coordinate data resulting 
# from the CCDC's data processing and validation procedures.
#
#######################################################################

data_VISQUK
_chemical_formula_moiety         'C22 H17 I1 O3'
_chemical_name_systematic        
3'-Iodo-5'-methoxy-2'-(4-methoxyphenyl)-4H-spiro(cyclohexa-2,5-diene-1,1'-inden)-4-one
_symmetry_cell_setting           monoclinic
_symmetry_space_group_name_H-M   'P 21/n'
_symmetry_Int_Tables_number      14
_space_group_name_Hall           '-P 2yn'
loop_
_symmetry_equiv_pos_site_id
_symmetry_equiv_pos_as_xyz
1 x,y,z
2 1/2-x,1/2+y,1/2-z
3 -x,-y,-z
4 1/2+x,1/2-y,1/2+z
_cell_length_a                   10.8190(7)
_cell_length_b                   9.8363(7)
_cell_length_c                   18.3221(12)
_cell_angle_alpha                90.00
_cell_angle_beta                 92.424(2)
_cell_angle_gamma                90.00
_cell_volume                     1948.07
_cell_formula_units_Z            4
loop_
_atom_site_label
_atom_site_type_symbol
_atom_site_fract_x
_atom_site_fract_y
_atom_site_fract_z
I1 I 0.84182(4) 0.31615(4) 0.085386(17)
O1 O 1.4427(4) 0.1848(5) 0.12275(19)
O2 O 0.4811(4) 0.3404(5) -0.15678(19)
O3 O 1.2553(3) 0.0838(4) -0.26917(18)
C1 C 0.8862(5) 0.2723(5) -0.0225(2)
C2 C 0.7948(5) 0.2795(5) -0.0813(3)
C3 C 0.8502(5) 0.2419(5) -0.1462(3)
C4 C 0.9873(5) 0.2061(6) -0.1285(2)
C5 C 0.9970(5) 0.2308(5) -0.0437(3)
C6 C 1.1150(5) 0.2136(6) -0.0011(3)
C7 C 1.1622(5) 0.3252(6) 0.0402(3)
C8 C 1.2728(5) 0.3124(7) 0.0817(3)
C9 C 1.3339(5) 0.1874(7) 0.0808(3)
C10 C 1.2903(6) 0.0747(6) 0.0409(3)
C11 C 1.1788(5) 0.0916(6) -0.0018(3)
C12 C 1.0702(4) 0.3075(6) -0.1645(2)
C13 C 1.1572(5) 0.2649(6) -0.2118(3)
C14 C 1.1733(5) 0.1204(6) -0.2280(3)
C15 C 1.0921(5) 0.0199(5) -0.1949(2)
C16 C 1.0079(5) 0.0583(6) -0.1475(2)
C17 C 0.7844(6) 0.2381(6) -0.2118(3)
C18 C 0.6579(6) 0.2740(6) -0.2143(3)
C19 C 0.6060(5) 0.3097(7) -0.1482(3)
C20 C 0.6690(5) 0.3147(6) -0.0803(3)
C21 C 1.5094(5) 0.0607(7) 0.1300(3)
H1 H 1.5820 0.0745 0.1611
H2 H 1.5333 0.0309 0.0827
H3 H 1.4579 -0.0071 0.1510
C22 C 0.4183(5) 0.3863(6) -0.0949(3)
H4 H 0.3332 0.4036 -0.1087
H5 H 0.4562 0.4685 -0.0767
H6 H 0.4231 0.3179 -0.0576
H7 H 0.6264 0.3237 -0.0400
H8 H 0.5920 0.2473 -0.2646
H9 H 1.1534 0.0158 -0.0376
H10 H 1.0972 -0.0960 -0.2113
H11 H 1.3575 -0.0007 0.0449
H12 H 1.0385 0.4184 -0.1579
H13 H 0.8183 0.1735 -0.2516
H14 H 1.3091 0.3806 0.1190
H15 H 1.1052 0.4153 0.0427
H16 H 1.2112 0.3298 -0.2341
H17 H 0.9587 -0.0084 -0.1222
loop_
_geom_bond_atom_site_label_1
_geom_bond_atom_site_label_2
_geom_bond_site_symmetry_1
_geom_bond_site_symmetry_2
I1 C1 1_555 1_555
O1 C9 1_555 1_555
O2 C19 1_555 1_555
O3 C14 1_555 1_555
C1 C2 1_555 1_555
C2 C3 1_555 1_555
C3 C4 1_555 1_555
C4 C5 1_555 1_555
C5 C1 1_555 1_555
C6 C5 1_555 1_555
C7 C6 1_555 1_555
C8 C7 1_555 1_555
C9 C8 1_555 1_555
C10 C9 1_555 1_555
C11 C6 1_555 1_555
C12 C4 1_555 1_555
C13 C12 1_555 1_555
C14 C13 1_555 1_555
C15 C14 1_555 1_555
C16 C4 1_555 1_555
C17 C3 1_555 1_555
C18 C17 1_555 1_555
C19 C18 1_555 1_555
C20 C2 1_555 1_555
C21 O1 1_555 1_555
H1 C21 1_555 1_555
H2 C21 1_555 1_555
H3 C21 1_555 1_555
C22 O2 1_555 1_555
H4 C22 1_555 1_555
H5 C22 1_555 1_555
H6 C22 1_555 1_555
H7 C20 1_555 1_555
H8 C18 1_555 1_555
H9 C11 1_555 1_555
H10 C15 1_555 1_555
H11 C10 1_555 1_555
H12 C12 1_555 1_555
H13 C17 1_555 1_555
H14 C8 1_555 1_555
H15 C7 1_555 1_555
H16 C13 1_555 1_555
H17 C16 1_555 1_555
C10 C11 1_555 1_555
C15 C16 1_555 1_555
C19 C20 1_555 1_555

#END
