
#######################################################################
#
#                 Cambridge Crystallographic Data Centre
#                                CCDC 
#
#######################################################################
#
# If this CIF has been generated from an entry in the Cambridge 
# Structural Database, then it will include bibliographic, chemical, 
# crystal, experimental, refinement or atomic coordinate data resulting 
# from the CCDC's data processing and validation procedures.
#
#######################################################################

data_VITCOT
_chemical_formula_moiety         'C30 H37 B1 O2 S1'
_chemical_name_systematic        
2-((1S,2S)-1-(2,6-dimethylphenyl)-4-phenyl-2-(phenylthio)butyl)-4,4,5,5-tetramethyl-1,3,2-dioxaborolane
_symmetry_cell_setting           orthorhombic
_symmetry_space_group_name_H-M   'P 21 21 21'
_symmetry_Int_Tables_number      19
_space_group_name_Hall           'P 2ac 2ab'
loop_
_symmetry_equiv_pos_site_id
_symmetry_equiv_pos_as_xyz
1 x,y,z
2 1/2+x,1/2-y,-z
3 -x,1/2+y,1/2-z
4 1/2-x,-y,1/2+z
_cell_length_a                   9.5200(2)
_cell_length_b                   13.4283(4)
_cell_length_c                   20.6016(6)
_cell_angle_alpha                90
_cell_angle_beta                 90
_cell_angle_gamma                90
_cell_volume                     2633.66
_exptl_crystal_colour            colorless
_exptl_crystal_description       block
_cell_formula_units_Z            4
_exptl_crystal_recrystallization_method 'Hexane/Diethyl ether'
loop_
_atom_site_label
_atom_site_type_symbol
_atom_site_fract_x
_atom_site_fract_y
_atom_site_fract_z
S1 S 0.37901(4) 0.65733(2) 0.510290(15)
O1 O 0.23720(9) 0.50566(7) 0.63213(5)
O2 O 0.26085(9) 0.65401(7) 0.68593(4)
C1 C 0.68061(15) 0.25499(11) 0.43328(7)
H1 H 0.67861(15) 0.18487(11) 0.42727(7)
C2 C 0.79399(15) 0.29997(12) 0.46412(7)
H2 H 0.87002(15) 0.26046(12) 0.47923(7)
C3 C 0.57054(15) 0.31367(10) 0.41143(7)
H3 H 0.49225(15) 0.28347(10) 0.39069(7)
C4 C 0.79636(14) 0.40235(11) 0.47285(6)
H4 H 0.87379(14) 0.43219(11) 0.49448(6)
C5 C 0.57389(14) 0.41639(10) 0.41964(6)
H5 H 0.49811(14) 0.45574(10) 0.40407(6)
C6 C 0.68678(14) 0.46234(10) 0.45037(6)
C7 C 0.69006(16) 0.57360(10) 0.46128(6)
H6 H 0.78459(16) 0.59923(10) 0.45024(6)
H7 H 0.62146(16) 0.60587(10) 0.43193(6)
C8 C 0.65522(13) 0.60158(10) 0.53187(6)
H8 H 0.72178(13) 0.56677(10) 0.56099(6)
H9 H 0.67005(13) 0.67404(10) 0.53747(6)
C9 C 0.50543(13) 0.57613(9) 0.55292(6)
H10 H 0.48508(13) 0.50505(9) 0.54191(6)
C10 C 0.48308(12) 0.59231(9) 0.62662(6)
H11 H 0.50946(12) 0.66330(9) 0.63478(6)
C11 C 0.57330(12) 0.53103(10) 0.67380(6)
C12 C 0.58838(12) 0.42669(10) 0.66956(6)
C13 C 0.63367(13) 0.58072(10) 0.72772(6)
C14 C 0.52427(14) 0.36410(9) 0.61617(7)
H12 H 0.5774(7) 0.3738(6) 0.57592(14)
H13 H 0.5275(10) 0.29369(12) 0.6286(2)
H14 H 0.4264(4) 0.3843(5) 0.6094(3)
C15 C 0.62111(16) 0.69221(10) 0.73714(6)
H15 H 0.6623(10) 0.71082(14) 0.7790(2)
H16 H 0.6711(9) 0.72661(10) 0.7021(3)
H17 H 0.52178(17) 0.71134(15) 0.7364(5)
C16 C 0.66380(13) 0.37535(11) 0.71756(7)
H18 H 0.67580(13) 0.30536(11) 0.71382(7)
C17 C 0.70548(13) 0.52689(11) 0.77508(6)
H19 H 0.74440(13) 0.56092(11) 0.81129(6)
C18 C 0.72103(14) 0.42472(12) 0.77025(7)
H20 H 0.77048(14) 0.38884(12) 0.80276(7)
C19 C 0.27465(13) 0.57724(10) 0.46143(6)
C20 C 0.24599(14) 0.47803(11) 0.47566(7)
H21 H 0.28421(14) 0.44860(11) 0.51369(7)
C21 C 0.21368(15) 0.61993(10) 0.40629(6)
H22 H 0.23336(15) 0.68733(10) 0.39561(6)
C22 C 0.16154(15) 0.42156(11) 0.43446(7)
H23 H 0.14605(15) 0.35308(11) 0.44354(7)
C23 C 0.12431(16) 0.56429(11) 0.36693(6)
H24 H 0.07980(16) 0.59474(11) 0.33074(6)
C24 C 0.10009(15) 0.46452(12) 0.38041(7)
H25 H 0.04170(15) 0.42596(12) 0.35272(7)
C25 C 0.10955(13) 0.51575(10) 0.67193(6)
C26 C -0.01545(14) 0.48278(11) 0.63209(7)
H26 H -0.0159(7) 0.5186(6) 0.5906(2)
H27 H -0.0092(6) 0.41101(19) 0.6240(5)
H28 H -0.10220(15) 0.4974(8) 0.6559(2)
C27 C 0.12852(17) 0.44748(11) 0.73029(8)
H29 H 0.1454(13) 0.3793(2) 0.71530(8)
H30 H 0.2089(8) 0.4702(6) 0.7561(3)
H31 H 0.0435(5) 0.4491(7) 0.7571(3)
C28 C 0.11140(13) 0.62884(9) 0.68967(6)
C29 C 0.03659(16) 0.69350(11) 0.63938(8)
H32 H 0.0534(10) 0.76393(11) 0.6491(3)
H33 H 0.0729(9) 0.6780(6) 0.59602(10)
H34 H -0.0645(2) 0.6800(6) 0.6407(4)
C30 C 0.05973(16) 0.65390(13) 0.75723(7)
H35 H 0.1188(8) 0.6203(7) 0.78943(7)
H36 H 0.0646(12) 0.72607(15) 0.7639(2)
H37 H -0.0377(4) 0.6316(8) 0.7621(2)
B1 B 0.32321(15) 0.58392(11) 0.64725(7)
loop_
_geom_bond_atom_site_label_1
_geom_bond_atom_site_label_2
_geom_bond_site_symmetry_1
_geom_bond_site_symmetry_2
S1 C9 1_555 1_555
O1 C25 1_555 1_555
O2 C28 1_555 1_555
C1 H1 1_555 1_555
C2 C1 1_555 1_555
H2 C2 1_555 1_555
C3 C1 1_555 1_555
H3 C3 1_555 1_555
C4 C2 1_555 1_555
H4 C4 1_555 1_555
C5 C3 1_555 1_555
H5 C5 1_555 1_555
C6 C4 1_555 1_555
C7 C6 1_555 1_555
H6 C7 1_555 1_555
H7 C7 1_555 1_555
C8 C7 1_555 1_555
H8 C8 1_555 1_555
H9 C8 1_555 1_555
C9 C8 1_555 1_555
H10 C9 1_555 1_555
C10 C9 1_555 1_555
H11 C10 1_555 1_555
C11 C10 1_555 1_555
C12 C11 1_555 1_555
C13 C11 1_555 1_555
C14 C12 1_555 1_555
H12 C14 1_555 1_555
H13 C14 1_555 1_555
H14 C14 1_555 1_555
C15 C13 1_555 1_555
H15 C15 1_555 1_555
H16 C15 1_555 1_555
H17 C15 1_555 1_555
C16 C12 1_555 1_555
H18 C16 1_555 1_555
C17 C13 1_555 1_555
H19 C17 1_555 1_555
C18 C16 1_555 1_555
H20 C18 1_555 1_555
C19 S1 1_555 1_555
C20 C19 1_555 1_555
H21 C20 1_555 1_555
C21 C19 1_555 1_555
H22 C21 1_555 1_555
C22 C20 1_555 1_555
H23 C22 1_555 1_555
C23 C21 1_555 1_555
H24 C23 1_555 1_555
C24 C22 1_555 1_555
H25 C24 1_555 1_555
C25 C26 1_555 1_555
C26 H26 1_555 1_555
H27 C26 1_555 1_555
H28 C26 1_555 1_555
C27 C25 1_555 1_555
H29 C27 1_555 1_555
H30 C27 1_555 1_555
H31 C27 1_555 1_555
C28 C25 1_555 1_555
C29 C28 1_555 1_555
H32 C29 1_555 1_555
H33 C29 1_555 1_555
H34 C29 1_555 1_555
C30 C28 1_555 1_555
H35 C30 1_555 1_555
H36 C30 1_555 1_555
H37 C30 1_555 1_555
B1 O1 1_555 1_555
O2 B1 1_555 1_555
C5 C6 1_555 1_555
C10 B1 1_555 1_555
C17 C18 1_555 1_555
C23 C24 1_555 1_555

#END
