
#######################################################################
#
#                 Cambridge Crystallographic Data Centre
#                                CCDC 
#
#######################################################################
#
# If this CIF has been generated from an entry in the Cambridge 
# Structural Database, then it will include bibliographic, chemical, 
# crystal, experimental, refinement or atomic coordinate data resulting 
# from the CCDC's data processing and validation procedures.
#
#######################################################################

data_VITLUG
_chemical_formula_moiety         'C32 H54 Li2 N4 O2'
_chemical_name_systematic        
bis(\m~2~-2-Methyl-1-phenylpropen-1-olato-O,O)-bis(N,N,N',N'-tetramethylethylenediamine-N,N')-di-lithium
_symmetry_cell_setting           monoclinic
_symmetry_space_group_name_H-M   'C 2/c'
_symmetry_Int_Tables_number      15
_space_group_name_Hall           '-C 2yn'
loop_
_symmetry_equiv_pos_site_id
_symmetry_equiv_pos_as_xyz
1 x,y,z
2 1/2+x,1/2+y,z
3 -x,y,1/2-z
4 1/2-x,1/2+y,1/2-z
5 -x,-y,-z
6 1/2-x,1/2-y,-z
7 x,-y,1/2+z
8 1/2+x,1/2-y,1/2+z
_cell_length_a                   11.8472(6)
_cell_length_b                   14.8268(7)
_cell_length_c                   19.2719(9)
_cell_angle_alpha                90
_cell_angle_beta                 98.8480(10)
_cell_angle_gamma                90
_cell_volume                     3344.94
_exptl_crystal_colour            colorless
_exptl_crystal_description       needle
_cell_formula_units_Z            4
loop_
_atom_site_label
_atom_site_type_symbol
_atom_site_fract_x
_atom_site_fract_y
_atom_site_fract_z
C1 C 0.68692(7) 0.36473(6) 0.44205(4)
H1 H 0.7228 0.3201 0.4733
C2 C 0.65457(8) 0.44638(6) 0.46888(4)
H2 H 0.6681 0.4567 0.5181
C3 C 0.60272(7) 0.51267(6) 0.42416(5)
H3 H 0.5804 0.5682 0.4425
C4 C 0.58378(7) 0.49690(6) 0.35218(5)
H4 H 0.5495 0.5423 0.3211
C5 C 0.61469(6) 0.41522(6) 0.32564(4)
H5 H 0.5998 0.4049 0.2764
C6 C 0.66740(6) 0.34750(5) 0.36990(4)
C7 C 0.69210(7) 0.25844(5) 0.33844(4)
C8 C 0.79446(7) 0.21622(6) 0.35387(4)
C9 C 0.89944(7) 0.25533(7) 0.39732(5)
H6 H 0.8832 0.3169 0.4115
H7 H 0.9621 0.2565 0.3695
H8 H 0.9214 0.2181 0.4392
C10 C 0.81233(8) 0.12660(7) 0.32080(5)
H9 H 0.7384 0.1020 0.2993
H10 H 0.8489 0.0849 0.3568
H11 H 0.8614 0.1345 0.2847
Li1 Li 0.44653(12) 0.22095(10) 0.30306(7)
O1 O 0.60445(5) 0.22675(4) 0.29374(3)
N1 N 0.44114(15) 0.11380(14) 0.37950(11)
N2 N 0.31438(17) 0.28534(12) 0.35977(13)
C11 C 0.5566(3) 0.0920(3) 0.4165(2)
H12 H 0.5510 0.0452 0.4517
H13 H 0.5913 0.1462 0.4397
H14 H 0.6039 0.0700 0.3826
C12 C 0.39296(13) 0.03279(9) 0.34273(7)
H15 H 0.4401 0.0151 0.3074
H16 H 0.3150 0.0454 0.3196
H17 H 0.3915 -0.0164 0.3766
C13 C 0.36701(11) 0.14621(12) 0.42882(7)
H18 H 0.4131 0.1815 0.4666
H19 H 0.3341 0.0939 0.4506
C14 C 0.27114(9) 0.20469(8) 0.39177(6)
H20 H 0.2242 0.1688 0.3548
H21 H 0.2214 0.2237 0.4260
C15 C 0.3642(3) 0.34922(15) 0.41400(12)
H22 H 0.3071 0.3651 0.4437
H23 H 0.3884 0.4038 0.3917
H24 H 0.4305 0.3215 0.4429
C16 C 0.21897(10) 0.32901(9) 0.31481(6)
H25 H 0.1595 0.3447 0.3429
H26 H 0.1874 0.2876 0.2771
H27 H 0.2462 0.3839 0.2944
C1B C 0.31308(7) 0.36473(6) 0.05795(4)
H1B H 0.2772 0.3201 0.0267
C2B C 0.34543(8) 0.44638(6) 0.03112(4)
H2B H 0.3319 0.4567 -0.0181
C3B C 0.39728(7) 0.51267(6) 0.07584(5)
H3B H 0.4196 0.5682 0.0575
C4B C 0.41622(7) 0.49690(6) 0.14782(5)
H4B H 0.4505 0.5423 0.1789
C5B C 0.38531(6) 0.41522(6) 0.17436(4)
H5B H 0.4002 0.4049 0.2236
C6B C 0.33260(6) 0.34750(5) 0.13010(4)
C7B C 0.30790(7) 0.25844(5) 0.16156(4)
C8B C 0.20554(7) 0.21622(6) 0.14613(4)
C9B C 0.10056(7) 0.25533(7) 0.10268(5)
H6B H 0.1168 0.3169 0.0885
H7B H 0.0379 0.2565 0.1305
H8B H 0.0786 0.2181 0.0608
C10B C 0.18767(8) 0.12660(7) 0.17920(5)
H9B H 0.2616 0.1020 0.2007
H10B H 0.1511 0.0849 0.1432
H11B H 0.1386 0.1345 0.2153
Li1B Li 0.55347(12) 0.22095(10) 0.19694(7)
O1B O 0.39555(5) 0.22675(4) 0.20626(3)
N1B N 0.55886(15) 0.11380(14) 0.12050(11)
N2B N 0.68562(17) 0.28534(12) 0.14023(13)
C11B C 0.4434(3) 0.0920(3) 0.0835(2)
H12B H 0.4490 0.0452 0.0483
H13B H 0.4087 0.1462 0.0603
H14B H 0.3961 0.0700 0.1174
C12B C 0.60704(13) 0.03279(9) 0.15727(7)
H15B H 0.5599 0.0151 0.1926
H16B H 0.6850 0.0454 0.1804
H17B H 0.6085 -0.0164 0.1234
C13B C 0.63299(11) 0.14621(12) 0.07118(7)
H18B H 0.5869 0.1815 0.0334
H19B H 0.6659 0.0939 0.0494
C14B C 0.72886(9) 0.20469(8) 0.10823(6)
H20B H 0.7758 0.1688 0.1452
H21B H 0.7786 0.2237 0.0740
C15B C 0.6358(3) 0.34922(15) 0.08600(12)
H22B H 0.6929 0.3651 0.0563
H23B H 0.6116 0.4038 0.1083
H24B H 0.5695 0.3215 0.0571
C16B C 0.78103(10) 0.32901(9) 0.18519(6)
H25B H 0.8405 0.3447 0.1571
H26B H 0.8126 0.2876 0.2229
H27B H 0.7538 0.3839 0.2056
N3? N 0.4578(10) 0.0926(8) 0.3669(7)
N4? N 0.3373(11) 0.2658(7) 0.3674(7)
C17? C 0.5598(14) 0.1038(16) 0.4196(7)
H28? H 0.5597 0.1641 0.4403
H29? H 0.6282 0.0963 0.3973
H30? H 0.5598 0.0583 0.4565
C18? C 0.4528(10) 0.0071(6) 0.3299(5)
H31? H 0.4434 -0.0420 0.3625
H32? H 0.5237 -0.0019 0.3104
H33? H 0.3878 0.0075 0.2916
C19? C 0.3620(8) 0.1056(7) 0.4031(5)
H34? H 0.3717 0.0665 0.4453
H35? H 0.2919 0.0858 0.3721
C20? C 0.3452(8) 0.2015(7) 0.4257(4)
H36? H 0.2745 0.2050 0.4471
H37? H 0.4100 0.2188 0.4621
C21? C 0.3578(15) 0.3596(9) 0.3936(7)
H38? H 0.3476 0.4015 0.3538
H39? H 0.4358 0.3647 0.4189
H40? H 0.3033 0.3744 0.4254
C22? C 0.2253(6) 0.2633(6) 0.3278(4)
H41? H 0.2068 0.2013 0.3123
H42? H 0.2222 0.3026 0.2867
H43? H 0.1699 0.2841 0.3571
loop_
_geom_bond_atom_site_label_1
_geom_bond_atom_site_label_2
_geom_bond_site_symmetry_1
_geom_bond_site_symmetry_2
C1 H1 1_555 1_555
C2 C1 1_555 1_555
H2 C2 1_555 1_555
C3 C2 1_555 1_555
H3 C3 1_555 1_555
C4 C3 1_555 1_555
H4 C4 1_555 1_555
C5 C4 1_555 1_555
H5 C5 1_555 1_555
C6 C1 1_555 1_555
C7 C6 1_555 1_555
C8 C7 1_555 1_555
C9 C8 1_555 1_555
H6 C9 1_555 1_555
H7 C9 1_555 1_555
H8 C9 1_555 1_555
C10 C8 1_555 1_555
H9 C10 1_555 1_555
H10 C10 1_555 1_555
H11 C10 1_555 1_555
Li1 O1 1_555 1_555
O1 C7 1_555 1_555
N1 Li1 1_555 1_555
N2 Li1 1_555 1_555
C11 N1 1_555 1_555
H12 C11 1_555 1_555
H13 C11 1_555 1_555
H14 C11 1_555 1_555
C12 N1 1_555 1_555
H15 C12 1_555 1_555
H16 C12 1_555 1_555
H17 C12 1_555 1_555
C13 N1 1_555 1_555
H18 C13 1_555 1_555
H19 C13 1_555 1_555
C14 N2 1_555 1_555
H20 C14 1_555 1_555
H21 C14 1_555 1_555
C15 N2 1_555 1_555
H22 C15 1_555 1_555
H23 C15 1_555 1_555
H24 C15 1_555 1_555
C16 N2 1_555 1_555
H25 C16 1_555 1_555
H26 C16 1_555 1_555
H27 C16 1_555 1_555
C1B H1B 1_555 1_555
C2B C1B 1_555 1_555
H2B C2B 1_555 1_555
C3B C2B 1_555 1_555
H3B C3B 1_555 1_555
C4B C3B 1_555 1_555
H4B C4B 1_555 1_555
C5B C4B 1_555 1_555
H5B C5B 1_555 1_555
C6B C1B 1_555 1_555
C7B C6B 1_555 1_555
C8B C7B 1_555 1_555
C9B C8B 1_555 1_555
H6B C9B 1_555 1_555
H7B C9B 1_555 1_555
H8B C9B 1_555 1_555
C10B C8B 1_555 1_555
H9B C10B 1_555 1_555
H10B C10B 1_555 1_555
H11B C10B 1_555 1_555
Li1B O1 1_555 1_555
O1B Li1 1_555 1_555
N1B Li1B 1_555 1_555
N2B Li1B 1_555 1_555
C11B N1B 1_555 1_555
H12B C11B 1_555 1_555
H13B C11B 1_555 1_555
H14B C11B 1_555 1_555
C12B N1B 1_555 1_555
H15B C12B 1_555 1_555
H16B C12B 1_555 1_555
H17B C12B 1_555 1_555
C13B N1B 1_555 1_555
H18B C13B 1_555 1_555
H19B C13B 1_555 1_555
C14B N2B 1_555 1_555
H20B C14B 1_555 1_555
H21B C14B 1_555 1_555
C15B N2B 1_555 1_555
H22B C15B 1_555 1_555
H23B C15B 1_555 1_555
H24B C15B 1_555 1_555
C16B N2B 1_555 1_555
H25B C16B 1_555 1_555
H26B C16B 1_555 1_555
H27B C16B 1_555 1_555
C5 C6 1_555 1_555
C13 C14 1_555 1_555
C5B C6B 1_555 1_555
C7B O1B 1_555 1_555
Li1B O1B 1_555 1_555
C13B C14B 1_555 1_555

#END
