
#######################################################################
#
#                 Cambridge Crystallographic Data Centre
#                                CCDC 
#
#######################################################################
#
# If this CIF has been generated from an entry in the Cambridge 
# Structural Database, then it will include bibliographic, chemical, 
# crystal, experimental, refinement or atomic coordinate data resulting 
# from the CCDC's data processing and validation procedures.
#
#######################################################################

data_VITMAN01
_chemical_formula_moiety         'C60 H66 Li6 O6'
_chemical_name_systematic        
hexakis(\m~3~-2-Methyl-1-phenylpropen-1-olato-O,O,O)-hexa-lithium
_symmetry_cell_setting           triclinic
_symmetry_space_group_name_H-M   'P -1'
_symmetry_Int_Tables_number      2
_space_group_name_Hall           '-P 1'
loop_
_symmetry_equiv_pos_site_id
_symmetry_equiv_pos_as_xyz
1 x,y,z
2 -x,-y,-z
_cell_length_a                   10.7944(7)
_cell_length_b                   11.9350(8)
_cell_length_c                   12.0956(8)
_cell_angle_alpha                117.5560(10)
_cell_angle_beta                 100.8090(10)
_cell_angle_gamma                92.3030(10)
_cell_volume                     1342.51
_exptl_crystal_colour            colorless
_exptl_crystal_description       block
_cell_formula_units_Z            1
loop_
_atom_site_label
_atom_site_type_symbol
_atom_site_fract_x
_atom_site_fract_y
_atom_site_fract_z
C1 C 0.72132(12) 0.77079(12) 0.62802(12)
C2 C 0.81097(12) 0.87810(12) 0.67087(12)
H1 H 0.8053 0.9249 0.6249
C3 C 0.90861(13) 0.91767(13) 0.77997(13)
H2 H 0.9694 0.9906 0.8076
C4 C 0.91710(14) 0.85068(14) 0.84833(13)
H3 H 0.9842 0.8767 0.9222
C5 C 0.82682(15) 0.74531(14) 0.80811(13)
H4 H 0.8316 0.6999 0.8554
C6 C 0.72981(14) 0.70596(13) 0.69958(13)
H5 H 0.6683 0.6340 0.6734
C7 C 0.61765(12) 0.73041(12) 0.51061(12)
C8 C 0.58710(12) 0.60947(12) 0.41469(13)
C9 C 0.65741(15) 0.50071(13) 0.40742(15)
H6 H 0.7370 0.5343 0.4739
H7 H 0.6768 0.4553 0.3228
H8 H 0.6042 0.4417 0.4208
C10 C 0.48352(13) 0.57640(13) 0.29740(13)
H9 H 0.4158 0.6286 0.3224
H10 H 0.4483 0.4858 0.2566
H11 H 0.5191 0.5933 0.2368
C11 C 0.16166(11) 0.73709(12) 0.34345(12)
C12 C 0.12295(12) 0.60717(13) 0.29552(13)
H12 H 0.1336 0.5479 0.2132
C13 C 0.06900(14) 0.56316(14) 0.36640(16)
H13 H 0.0422 0.4743 0.3320
C14 C 0.05418(14) 0.64830(16) 0.48696(15)
H14 H 0.0175 0.6180 0.5354
C15 C 0.09268(14) 0.77704(16) 0.53652(14)
H15 H 0.0830 0.8356 0.6195
C16 C 0.14569(13) 0.82126(14) 0.46533(13)
H16 H 0.1715 0.9103 0.5001
C17 C 0.23039(11) 0.78690(11) 0.27492(12)
C18 C 0.18604(12) 0.76026(12) 0.15241(12)
C19 C 0.05417(13) 0.69267(14) 0.07518(13)
H17 H 0.0069 0.6760 0.1291
H18 H 0.0600 0.6115 0.0018
H19 H 0.0096 0.7464 0.0444
C20 C 0.26492(14) 0.80677(13) 0.08729(13)
H20 H 0.2422 0.8889 0.0966
H21 H 0.2483 0.7442 -0.0040
H22 H 0.3556 0.8175 0.1269
C21 C 0.67571(12) 0.81613(12) 0.19698(12)
C22 C 0.64256(14) 0.71410(14) 0.07228(13)
H23 H 0.5921 0.7249 0.0055
C23 C 0.68275(16) 0.59691(14) 0.04508(15)
H24 H 0.6596 0.5282 -0.0402
C24 C 0.75604(14) 0.57936(14) 0.14097(15)
H25 H 0.7834 0.4990 0.1216
C25 C 0.78940(13) 0.67901(14) 0.26506(14)
H26 H 0.8398 0.6674 0.3313
C26 C 0.74904(12) 0.79595(12) 0.29258(12)
H27 H 0.7717 0.8638 0.3783
C27 C 0.62973(11) 0.94262(12) 0.23334(11)
C28 C 0.64797(13) 1.01394(13) 0.17703(13)
C29 C 0.72534(15) 0.98065(16) 0.07768(15)
H28 H 0.7677 0.9071 0.0700
H29 H 0.7897 1.0538 0.1034
H30 H 0.6691 0.9593 -0.0051
C30 C 0.59792(15) 1.13950(14) 0.21578(16)
H31 H 0.5338 1.1452 0.2650
H32 H 0.5591 1.1452 0.1389
H33 H 0.6683 1.2098 0.2686
O1 O 0.34282(8) 0.86090(8) 0.34974(8)
O2 O 0.56908(8) 0.97758(8) 0.33054(8)
O3 O 0.55997(8) 0.82830(8) 0.50763(8)
Li1 Li 0.5188(2) 0.8335(2) 0.3512(2)
Li2 Li 0.3889(2) 0.8666(2) 0.5151(2)
Li3 Li 0.6024(2) 0.9909(2) 0.6586(2)
C1A C 0.27868(12) 1.22921(12) 0.37198(12)
C2A C 0.18903(12) 1.12190(12) 0.32913(12)
H1A H 0.1947 1.0751 0.3751
C3A C 0.09139(13) 1.08233(13) 0.22003(13)
H2A H 0.0306 1.0094 0.1924
C4A C 0.08290(14) 1.14932(14) 0.15167(13)
H3A H 0.0158 1.1233 0.0778
C5A C 0.17318(15) 1.25469(14) 0.19189(13)
H4A H 0.1684 1.3001 0.1446
C6A C 0.27019(14) 1.29404(13) 0.30042(13)
H5A H 0.3317 1.3660 0.3266
C7A C 0.38235(12) 1.26959(12) 0.48939(12)
C8A C 0.41290(12) 1.39053(12) 0.58531(13)
C9A C 0.34259(15) 1.49929(13) 0.59258(15)
H6A H 0.2630 1.4657 0.5261
H7A H 0.3232 1.5447 0.6772
H8A H 0.3958 1.5583 0.5792
C10A C 0.51648(13) 1.42360(13) 0.70260(13)
H9A H 0.5842 1.3714 0.6776
H10A H 0.5517 1.5142 0.7434
H11A H 0.4809 1.4067 0.7632
C11A C 0.83834(11) 1.26291(12) 0.65655(12)
C12A C 0.87705(12) 1.39283(13) 0.70448(13)
H12A H 0.8664 1.4521 0.7868
C13A C 0.93100(14) 1.43684(14) 0.63360(16)
H13A H 0.9578 1.5257 0.6680
C14A C 0.94582(14) 1.35170(16) 0.51304(15)
H14A H 0.9825 1.3820 0.4646
C15A C 0.90732(14) 1.22296(16) 0.46348(14)
H15A H 0.9170 1.1644 0.3805
C16A C 0.85431(13) 1.17874(14) 0.53467(13)
H16A H 0.8285 1.0897 0.4999
C17A C 0.76961(11) 1.21310(11) 0.72508(12)
C18A C 0.81396(12) 1.23974(12) 0.84759(12)
C19A C 0.94583(13) 1.30733(14) 0.92482(13)
H17A H 0.9931 1.3240 0.8709
H18A H 0.9400 1.3885 0.9982
H19A H 0.9904 1.2536 0.9556
C20A C 0.73508(14) 1.19323(13) 0.91271(13)
H20A H 0.7578 1.1111 0.9034
H21A H 0.7517 1.2558 1.0040
H22A H 0.6444 1.1825 0.8731
C21A C 0.32429(12) 1.18387(12) 0.80302(12)
C22A C 0.35744(14) 1.28590(14) 0.92772(13)
H23A H 0.4079 1.2751 0.9945
C23A C 0.31725(16) 1.40309(14) 0.95492(15)
H24A H 0.3404 1.4718 1.0402
C24A C 0.24396(14) 1.42064(14) 0.85903(15)
H25A H 0.2166 1.5010 0.8784
C25A C 0.21060(13) 1.32099(14) 0.73494(14)
H26A H 0.1602 1.3326 0.6687
C26A C 0.25096(12) 1.20405(12) 0.70742(12)
H27A H 0.2283 1.1362 0.6217
C27A C 0.37027(11) 1.05738(12) 0.76666(11)
C28A C 0.35203(13) 0.98606(13) 0.82297(13)
C29A C 0.27466(15) 1.01935(16) 0.92232(15)
H28A H 0.2323 1.0929 0.9300
H29A H 0.2103 0.9462 0.8966
H30A H 0.3309 1.0407 1.0051
C30A C 0.40208(15) 0.86050(14) 0.78422(16)
H31A H 0.4662 0.8548 0.7350
H32A H 0.4409 0.8548 0.8611
H33A H 0.3317 0.7902 0.7314
O1A O 0.65718(8) 1.13910(8) 0.65026(8)
O2A O 0.43092(8) 1.02242(8) 0.66946(8)
O3A O 0.44003(8) 1.17170(8) 0.49237(8)
Li1A Li 0.4812(2) 1.1665(2) 0.6488(2)
Li2A Li 0.6111(2) 1.1334(2) 0.4849(2)
Li3A Li 0.3976(2) 1.0091(2) 0.3414(2)
loop_
_geom_bond_atom_site_label_1
_geom_bond_atom_site_label_2
_geom_bond_site_symmetry_1
_geom_bond_site_symmetry_2
C1 C2 1_555 1_555
C2 H1 1_555 1_555
C3 C2 1_555 1_555
H2 C3 1_555 1_555
C4 C3 1_555 1_555
H3 C4 1_555 1_555
C5 C4 1_555 1_555
H4 C5 1_555 1_555
C6 C1 1_555 1_555
H5 C6 1_555 1_555
C7 C1 1_555 1_555
C8 C7 1_555 1_555
C9 C8 1_555 1_555
H6 C9 1_555 1_555
H7 C9 1_555 1_555
H8 C9 1_555 1_555
C10 C8 1_555 1_555
H9 C10 1_555 1_555
H10 C10 1_555 1_555
H11 C10 1_555 1_555
C11 C12 1_555 1_555
C12 H12 1_555 1_555
C13 C12 1_555 1_555
H13 C13 1_555 1_555
C14 C13 1_555 1_555
H14 C14 1_555 1_555
C15 C14 1_555 1_555
H15 C15 1_555 1_555
C16 C11 1_555 1_555
H16 C16 1_555 1_555
C17 C11 1_555 1_555
C18 C17 1_555 1_555
C19 C18 1_555 1_555
H17 C19 1_555 1_555
H18 C19 1_555 1_555
H19 C19 1_555 1_555
C20 C18 1_555 1_555
H20 C20 1_555 1_555
H21 C20 1_555 1_555
H22 C20 1_555 1_555
C21 C22 1_555 1_555
C22 H23 1_555 1_555
C23 C22 1_555 1_555
H24 C23 1_555 1_555
C24 C23 1_555 1_555
H25 C24 1_555 1_555
C25 C24 1_555 1_555
H26 C25 1_555 1_555
C26 C21 1_555 1_555
H27 C26 1_555 1_555
C27 C21 1_555 1_555
C28 C27 1_555 1_555
C29 C28 1_555 1_555
H28 C29 1_555 1_555
H29 C29 1_555 1_555
H30 C29 1_555 1_555
C30 C28 1_555 1_555
H31 C30 1_555 1_555
H32 C30 1_555 1_555
H33 C30 1_555 1_555
O1 C17 1_555 1_555
O2 C27 1_555 1_555
O3 C7 1_555 1_555
Li1 O1 1_555 1_555
Li2 O1 1_555 1_555
Li3 O3 1_555 1_555
C1A C2A 1_555 1_555
C2A H1A 1_555 1_555
C3A C2A 1_555 1_555
H2A C3A 1_555 1_555
C4A C3A 1_555 1_555
H3A C4A 1_555 1_555
C5A C4A 1_555 1_555
H4A C5A 1_555 1_555
C6A C1A 1_555 1_555
H5A C6A 1_555 1_555
C7A C1A 1_555 1_555
C8A C7A 1_555 1_555
C9A C8A 1_555 1_555
H6A C9A 1_555 1_555
H7A C9A 1_555 1_555
H8A C9A 1_555 1_555
C10A C8A 1_555 1_555
H9A C10A 1_555 1_555
H10A C10A 1_555 1_555
H11A C10A 1_555 1_555
C11A C12A 1_555 1_555
C12A H12A 1_555 1_555
C13A C12A 1_555 1_555
H13A C13A 1_555 1_555
C14A C13A 1_555 1_555
H14A C14A 1_555 1_555
C15A C14A 1_555 1_555
H15A C15A 1_555 1_555
C16A C11A 1_555 1_555
H16A C16A 1_555 1_555
C17A C11A 1_555 1_555
C18A C17A 1_555 1_555
C19A C18A 1_555 1_555
H17A C19A 1_555 1_555
H18A C19A 1_555 1_555
H19A C19A 1_555 1_555
C20A C18A 1_555 1_555
H20A C20A 1_555 1_555
H21A C20A 1_555 1_555
H22A C20A 1_555 1_555
C21A C22A 1_555 1_555
C22A H23A 1_555 1_555
C23A C22A 1_555 1_555
H24A C23A 1_555 1_555
C24A C23A 1_555 1_555
H25A C24A 1_555 1_555
C25A C24A 1_555 1_555
H26A C25A 1_555 1_555
C26A C21A 1_555 1_555
H27A C26A 1_555 1_555
C27A C21A 1_555 1_555
C28A C27A 1_555 1_555
C29A C28A 1_555 1_555
H28A C29A 1_555 1_555
H29A C29A 1_555 1_555
H30A C29A 1_555 1_555
C30A C28A 1_555 1_555
H31A C30A 1_555 1_555
H32A C30A 1_555 1_555
H33A C30A 1_555 1_555
O1A Li3 1_555 1_555
O2A Li2 1_555 1_555
O3A C7A 1_555 1_555
Li1A O1A 1_555 1_555
Li2A O2 1_555 1_555
Li3A O1 1_555 1_555
C5 C6 1_555 1_555
C15 C16 1_555 1_555
C25 C26 1_555 1_555
O2 Li1 1_555 1_555
O2 Li3A 1_555 1_555
O3 Li1 1_555 1_555
O3 Li2 1_555 1_555
Li3 O2A 1_555 1_555
C5A C6A 1_555 1_555
C15A C16A 1_555 1_555
C17A O1A 1_555 1_555
C25A C26A 1_555 1_555
C27A O2A 1_555 1_555
O1A Li2A 1_555 1_555
O2A Li1A 1_555 1_555
O3A Li1A 1_555 1_555
O3A Li2A 1_555 1_555
O3A Li3A 1_555 1_555

#END
