
#######################################################################
#
#                 Cambridge Crystallographic Data Centre
#                                CCDC 
#
#######################################################################
#
# If this CIF has been generated from an entry in the Cambridge 
# Structural Database, then it will include bibliographic, chemical, 
# crystal, experimental, refinement or atomic coordinate data resulting 
# from the CCDC's data processing and validation procedures.
#
#######################################################################

data_VITMES
_chemical_formula_moiety         
'C10 H6 O8,C10 H4 O8 2-,2(C5 H6 N5 1+),2(H2 O1)'
_chemical_name_systematic        
'bis(Adeninium) dihydrogen benzene-1,2,4,5-tetracarboxylate benzene-1,2,4,5-tetracarboxylic acid dihydrate'
_symmetry_cell_setting           triclinic
_symmetry_space_group_name_H-M   'P -1'
_symmetry_Int_Tables_number      2
_space_group_name_Hall           '-P 1'
loop_
_symmetry_equiv_pos_site_id
_symmetry_equiv_pos_as_xyz
1 x,y,z
2 -x,-y,-z
_cell_length_a                   8.1813(16)
_cell_length_b                   9.7202(19)
_cell_length_c                   11.360(2)
_cell_angle_alpha                98.32(3)
_cell_angle_beta                 104.15(3)
_cell_angle_gamma                103.57(3)
_cell_volume                     831.732
_exptl_crystal_colour            yellow
_exptl_crystal_description       block
_cell_formula_units_Z            1
loop_
_atom_site_label
_atom_site_type_symbol
_atom_site_fract_x
_atom_site_fract_y
_atom_site_fract_z
O1 O 0.60509(16) 1.05500(13) 0.34012(10)
O2 O 0.72556(16) 0.89038(12) 0.28023(10)
H1 H 0.7292 0.8444 0.2149
O3 O 0.35082(16) 0.72990(12) 0.17317(10)
O4 O 0.27349(14) 0.62323(10) -0.02705(9)
H2 H 0.2198 0.5279 0.0088
C1 C 0.62692(18) 0.97685(14) 0.25600(12)
C2 C 0.62338(16) 1.11296(13) 0.08945(11)
H3 H 0.7061 1.1890 0.1496
C3 C 0.55559(16) 0.98400(13) 0.12245(11)
C4 C 0.43056(16) 0.87004(13) 0.03204(11)
C5 C 0.34734(17) 0.73140(13) 0.06495(12)
O1A O 0.39491(16) 0.94500(13) -0.34012(10)
O2A O 0.27444(16) 1.10962(12) -0.28023(10)
H1A H 0.2708 1.1556 -0.2149
O3A O 0.64918(16) 1.27010(12) -0.17317(10)
O4A O 0.72651(14) 1.37677(10) 0.02705(9)
H2A H 0.7802 1.4721 -0.0088
C1A C 0.37308(18) 1.02315(14) -0.25600(12)
C2A C 0.37662(16) 0.88704(13) -0.08945(11)
H3A H 0.2939 0.8110 -0.1496
C3A C 0.44441(16) 1.01600(13) -0.12245(11)
C4A C 0.56944(16) 1.12996(13) -0.03204(11)
C5A C 0.65266(17) 1.26860(13) -0.06495(12)
O5 O 0.86993(18) 0.10450(14) 0.56738(12)
H4 H 0.7808 0.0852 0.4971
H5 H 0.8658 0.0379 0.5843
O6 O 0.13647(14) 0.39442(10) 0.02653(10)
O7 O 0.25198(16) 0.29322(11) -0.10724(10)
O8 O -0.27498(14) -0.16529(12) -0.32022(9)
O9 O -0.38383(14) -0.28414(12) -0.18964(10)
H6 H -0.4625 -0.3279 -0.2532
C6 C 0.16792(17) 0.28676(13) -0.03020(12)
C7 C 0.08609(17) 0.13916(13) -0.00934(12)
C8 C -0.04111(17) 0.04421(13) -0.11089(12)
H7 H -0.0691 0.0736 -0.1859
C9 C -0.12812(16) -0.09444(13) -0.10312(11)
C10 C -0.26933(17) -0.18524(13) -0.21614(12)
O6A O -0.13647(14) -0.39442(10) -0.02653(10)
O7A O -0.25198(16) -0.29322(11) 0.10724(10)
O8A O 0.27498(14) 0.16529(12) 0.32022(9)
O9A O 0.38383(14) 0.28414(12) 0.18964(10)
H6A H 0.4625 0.3279 0.2532
C6A C -0.16792(17) -0.28676(13) 0.03020(12)
C7A C -0.08609(17) -0.13916(13) 0.00934(12)
C8A C 0.04111(17) -0.04421(13) 0.11089(12)
H7A H 0.0691 -0.0736 0.1859
C9A C 0.12812(16) 0.09444(13) 0.10312(11)
C10A C 0.26933(17) 0.18524(13) 0.21614(12)
N1 N 0.45077(17) 0.72339(14) 0.44403(11)
H8 H 0.4674 0.7664 0.3851
H9 H 0.5213 0.7563 0.5180
N2 N 0.20481(15) 0.55372(13) 0.30509(10)
H10 H 0.2293 0.5927 0.2486
N3 N 0.01847(15) 0.35666(13) 0.35108(11)
N4 N 0.35773(15) 0.54160(13) 0.63195(11)
N5 N 0.12553(16) 0.34682(13) 0.56835(11)
H11 H 0.0515 0.2649 0.5723
C11 C 0.31767(17) 0.60744(15) 0.42106(12)
C12 C 0.06272(19) 0.43552(17) 0.27502(13)
H12 H -0.0084 0.4092 0.1932
C13 C 0.13189(17) 0.40497(14) 0.46730(12)
C14 C 0.26327(19) 0.43236(16) 0.66426(14)
H13 H 0.2881 0.4154 0.7443
C15 C 0.27685(16) 0.52529(14) 0.50731(12)
loop_
_geom_bond_atom_site_label_1
_geom_bond_atom_site_label_2
_geom_bond_site_symmetry_1
_geom_bond_site_symmetry_2
O1 C1 1_555 1_555
O2 H1 1_555 1_555
O3 C5 1_555 1_555
O4 H2 1_555 1_555
C1 O2 1_555 1_555
C2 H3 1_555 1_555
C3 C1 1_555 1_555
C4 C3 1_555 1_555
C5 O4 1_555 1_555
O5 H4 1_555 1_555
H5 O5 1_555 1_555
O6 C6 1_555 1_555
O7 C6 1_555 1_555
O8 C10 1_555 1_555
O9 H6 1_555 1_555
C6 C7 1_555 1_555
C7 C8 1_555 1_555
C8 H7 1_555 1_555
C9 C8 1_555 1_555
C10 O9 1_555 1_555
N1 H8 1_555 1_555
H9 N1 1_555 1_555
N2 H10 1_555 1_555
N3 C12 1_555 1_555
N4 C14 1_555 1_555
N5 H11 1_555 1_555
C11 N1 1_555 1_555
C12 N2 1_555 1_555
H12 C12 1_555 1_555
C13 N3 1_555 1_555
C14 N5 1_555 1_555
H13 C14 1_555 1_555
C15 N4 1_555 1_555
O1A C1A 1_555 1_555
O2A H1A 1_555 1_555
O3A C5A 1_555 1_555
O4A H2A 1_555 1_555
C1A O2A 1_555 1_555
C2A C4 1_555 1_555
H3A C2A 1_555 1_555
C3A C1A 1_555 1_555
C4A C2 1_555 1_555
C5A O4A 1_555 1_555
O6A C6A 1_555 1_555
O7A C6A 1_555 1_555
O8A C10A 1_555 1_555
O9A H6A 1_555 1_555
C6A C7A 1_555 1_555
C7A C9 1_555 1_555
C8A C7A 1_555 1_555
H7A C8A 1_555 1_555
C9A C7 1_555 1_555
C10A O9A 1_555 1_555
C2 C3 1_555 1_555
C4 C5 1_555 1_555
C9 C10 1_555 1_555
N2 C11 1_555 1_555
N5 C13 1_555 1_555
C11 C15 1_555 1_555
C13 C15 1_555 1_555
C2A C3A 1_555 1_555
C3A C4A 1_555 1_555
C4A C5A 1_555 1_555
C8A C9A 1_555 1_555
C9A C10A 1_555 1_555

#END
