
#######################################################################
#
#                 Cambridge Crystallographic Data Centre
#                                CCDC 
#
#######################################################################
#
# If this CIF has been generated from an entry in the Cambridge 
# Structural Database, then it will include bibliographic, chemical, 
# crystal, experimental, refinement or atomic coordinate data resulting 
# from the CCDC's data processing and validation procedures.
#
#######################################################################

data_VITSIA
_chemical_formula_moiety         'C8 H13 O4 P1,0.5(H2 O1)'
_chemical_name_systematic        
'4-Oxo-3,5,9-trioxa-4\l^5^-phosphatricyclo(5.3.2.0^1,7^)dodecane hemihydrate'
_symmetry_cell_setting           monoclinic
_symmetry_space_group_name_H-M   'C 2/c'
_symmetry_Int_Tables_number      15
_space_group_name_Hall           '-C 2yn'
loop_
_symmetry_equiv_pos_site_id
_symmetry_equiv_pos_as_xyz
1 x,y,z
2 1/2+x,1/2+y,z
3 -x,y,1/2-z
4 1/2-x,1/2+y,1/2-z
5 -x,-y,-z
6 1/2-x,1/2-y,-z
7 x,-y,1/2+z
8 1/2+x,1/2-y,1/2+z
_cell_length_a                   11.452(8)
_cell_length_b                   6.451(3)
_cell_length_c                   26.03(5)
_cell_angle_alpha                90
_cell_angle_beta                 93.03(14)
_cell_angle_gamma                90
_cell_volume                     1920.33
_cell_formula_units_Z            8
loop_
_atom_site_label
_atom_site_type_symbol
_atom_site_fract_x
_atom_site_fract_y
_atom_site_fract_z
P1 P 0.8403(2) 0.2553(5) 0.2012(1)
O1 O 0.7364(4) 0.1723(9) 0.1653(2)
O2 O 0.8221(6) 0.4693(11) 0.2155(2)
O3 O 0.9556(4) 0.2296(9) 0.1727(2)
O4 O 0.8582(6) 0.0835(11) 0.0265(2)
C1 C 0.9532(9) 0.1170(17) 0.0624(3)
C2 C 0.7600(8) 0.0700(16) 0.0570(3)
C3 C 0.7987(6) -0.0711(12) 0.1013(2)
C4 C 0.9337(6) -0.0361(11) 0.1053(2)
C5 C 0.9922(8) 0.0254(16) 0.1559(3)
C6 C 0.8160(9) -0.2960(14) 0.0866(4)
C7 C 0.7325(7) -0.0413(15) 0.1481(3)
C8 C 0.9534(8) -0.2640(16) 0.0915(4)
H1 H 0.851(5) 0.111(9) 0.241(2)
H2 H 0.973(5) -0.063(9) 0.181(2)
H3 H 1.079(5) 0.034(9) 0.153(2)
H4 H 0.641(5) -0.059(9) 0.142(2)
H5 H 0.764(5) -0.136(9) 0.177(2)
H6 H 0.791(5) -0.405(9) 0.108(2)
H7 H 0.786(5) -0.340(9) 0.055(2)
H8 H 0.966(5) -0.289(9) 0.060(2)
H9 H 0.978(5) -0.345(9) 0.121(2)
H10 H 1.032(5) 0.086(9) 0.046(2)
H11 H 0.964(5) 0.267(9) 0.074(2)
H12 H 0.736(5) 0.219(9) 0.067(2)
H13 H 0.694(5) 0.010(9) 0.034(2)
O5 O 1.0000 0.7117(17) 0.2500
loop_
_geom_bond_atom_site_label_1
_geom_bond_atom_site_label_2
_geom_bond_site_symmetry_1
_geom_bond_site_symmetry_2
P1 O1 1_555 1_555
O1 C7 1_555 1_555
O2 P1 1_555 1_555
O3 P1 1_555 1_555
O4 C1 1_555 1_555
C1 C4 1_555 1_555
C2 O4 1_555 1_555
C3 C2 1_555 1_555
C4 C3 1_555 1_555
C5 O3 1_555 1_555
C6 C3 1_555 1_555
C7 C3 1_555 1_555
C8 C4 1_555 1_555
H1 P1 1_555 1_555
H2 C5 1_555 1_555
H3 C5 1_555 1_555
H4 C7 1_555 1_555
H5 C7 1_555 1_555
H6 C6 1_555 1_555
H7 C6 1_555 1_555
H8 C8 1_555 1_555
H9 C8 1_555 1_555
H10 C1 1_555 1_555
H11 C1 1_555 1_555
H12 C2 1_555 1_555
H13 C2 1_555 1_555
C4 C5 1_555 1_555
C6 C8 1_555 1_555

#END
