
#######################################################################
#
#                 Cambridge Crystallographic Data Centre
#                                CCDC 
#
#######################################################################
#
# If this CIF has been generated from an entry in the Cambridge 
# Structural Database, then it will include bibliographic, chemical, 
# crystal, experimental, refinement or atomic coordinate data resulting 
# from the CCDC's data processing and validation procedures.
#
#######################################################################

data_VIWGEP
_chemical_formula_moiety         'C17 H23 N3 O6,C2 H6 O1 S1'
_chemical_name_systematic        
'Methyl 4-(4-hydroxy-3-methoxyphenyl)-6-(morpholin-4-yl)-2-oxohexahydropyrimidine-5-carboxylate dimethyl sulfoxide solvate'
_symmetry_cell_setting           triclinic
_symmetry_space_group_name_H-M   'P -1'
_symmetry_Int_Tables_number      2
_space_group_name_Hall           '-P 1'
loop_
_symmetry_equiv_pos_site_id
_symmetry_equiv_pos_as_xyz
1 x,y,z
2 -x,-y,-z
_cell_length_a                   6.148(2)
_cell_length_b                   12.622(5)
_cell_length_c                   14.124(6)
_cell_angle_alpha                91.182(6)
_cell_angle_beta                 90.247(6)
_cell_angle_gamma                96.762(6)
_cell_volume                     1088.14
_cell_formula_units_Z            2
loop_
_atom_site_label
_atom_site_type_symbol
_atom_site_fract_x
_atom_site_fract_y
_atom_site_fract_z
C1 C -0.1931(9) 0.1317(5) 0.8194(4)
H1 H -0.2671 0.0988 0.7635
H2 H -0.2872 0.1795 0.8484
C2 C -0.1499(10) 0.0473(5) 0.8880(4)
H3 H -0.0804 0.0806 0.9446
H4 H -0.2875 0.0075 0.9061
C3 C 0.1895(10) 0.0321(5) 0.8142(4)
H5 H 0.2762 -0.0177 0.7831
H6 H 0.2727 0.0643 0.8681
C4 C 0.1468(9) 0.1180(5) 0.7459(4)
H7 H 0.2845 0.1565 0.7262
H8 H 0.0714 0.0859 0.6900
C5 C -0.0002(9) 0.2937(4) 0.7491(4)
H9 H -0.1093 0.3293 0.7841
C6 C -0.0245(9) 0.3697(5) 0.5868(4)
C7 C 0.1833(9) 0.4745(4) 0.7145(4)
H10 H 0.0627 0.5022 0.7486
C8 C 0.2177(8) 0.3664(4) 0.7559(4)
H11 H 0.3251 0.3345 0.7167
C9 C 0.2986(9) 0.3722(5) 0.8562(4)
C10 C 0.2020(11) 0.4085(6) 1.0162(4)
H12 H 0.1844 0.3360 1.0369
H13 H 0.1036 0.4486 1.0506
H14 H 0.3501 0.4396 1.0277
C11 C 0.3813(8) 0.5561(4) 0.7226(4)
C12 C 0.3833(9) 0.6373(5) 0.7916(4)
H15 H 0.2611 0.6406 0.8296
C13 C 0.5620(9) 0.7120(5) 0.8041(4)
C14 C 0.3992(10) 0.8026(5) 0.9314(4)
H16 H 0.2683 0.8085 0.8956
H17 H 0.4300 0.8640 0.9726
H18 H 0.3791 0.7393 0.9684
C15 C 0.7449(9) 0.7090(5) 0.7468(4)
C16 C 0.7419(9) 0.6313(5) 0.6776(4)
H19 H 0.8619 0.6302 0.6378
C17 C 0.5631(9) 0.5541(5) 0.6656(4)
H20 H 0.5655 0.5009 0.6191
N1 N 0.0126(7) 0.1914(4) 0.7926(3)
N2 N -0.0675(7) 0.2875(4) 0.6489(3)
H21 H -0.1381 0.2288 0.6278
N3 N 0.1153(7) 0.4536(4) 0.6156(3)
H22 H 0.1682 0.4978 0.5737
O1 O -0.0110(7) -0.0240(3) 0.8462(3)
O2 O 0.4704(7) 0.3458(4) 0.8827(3)
O3 O 0.1533(6) 0.4104(3) 0.9157(3)
O4 O -0.1091(6) 0.3628(3) 0.5066(3)
O5 O 0.5789(6) 0.7965(3) 0.8678(3)
O6 O 0.9262(6) 0.7822(3) 0.7546(3)
H23 H 0.8983 0.8328 0.7878
C18 C 0.6193(10) 0.1551(6) 0.3995(4)
H24 H 0.7670 0.1889 0.4058
H25 H 0.5565 0.1767 0.3417
H26 H 0.6194 0.0790 0.3982
C19 C 0.2163(9) 0.1134(6) 0.4663(5)
H27 H 0.2410 0.0397 0.4641
H28 H 0.1672 0.1334 0.4053
H29 H 0.1068 0.1236 0.5128
O7 O 0.5549(6) 0.1409(4) 0.5826(3)
S1 S 0.4622(3) 0.19310(15) 0.49709(12)
loop_
_geom_bond_atom_site_label_1
_geom_bond_atom_site_label_2
_geom_bond_site_symmetry_1
_geom_bond_site_symmetry_2
C1 H1 1_555 1_555
H2 C1 1_555 1_555
C2 C1 1_555 1_555
H3 C2 1_555 1_555
H4 C2 1_555 1_555
C3 H5 1_555 1_555
H6 C3 1_555 1_555
C4 C3 1_555 1_555
H7 C4 1_555 1_555
H8 C4 1_555 1_555
C5 H9 1_555 1_555
C6 N2 1_555 1_555
C7 H10 1_555 1_555
C8 C5 1_555 1_555
H11 C8 1_555 1_555
C9 C8 1_555 1_555
C10 H12 1_555 1_555
H13 C10 1_555 1_555
H14 C10 1_555 1_555
C11 C7 1_555 1_555
C12 C11 1_555 1_555
H15 C12 1_555 1_555
C13 C12 1_555 1_555
C14 H16 1_555 1_555
H17 C14 1_555 1_555
H18 C14 1_555 1_555
C15 C13 1_555 1_555
C16 C15 1_555 1_555
H19 C16 1_555 1_555
C17 C11 1_555 1_555
H20 C17 1_555 1_555
N1 C1 1_555 1_555
N2 C5 1_555 1_555
H21 N2 1_555 1_555
N3 C6 1_555 1_555
H22 N3 1_555 1_555
O1 C2 1_555 1_555
O2 C9 1_555 1_555
O3 C9 1_555 1_555
O4 C6 1_555 1_555
O5 C13 1_555 1_555
O6 C15 1_555 1_555
H23 O6 1_555 1_555
C18 H24 1_555 1_555
H25 C18 1_555 1_555
H26 C18 1_555 1_555
C19 H27 1_555 1_555
H28 C19 1_555 1_555
H29 C19 1_555 1_555
O7 S1 1_555 1_555
S1 C18 1_555 1_555
C3 O1 1_555 1_555
C4 N1 1_555 1_555
C5 N1 1_555 1_555
C7 C8 1_555 1_555
C7 N3 1_555 1_555
C10 O3 1_555 1_555
C14 O5 1_555 1_555
C16 C17 1_555 1_555
C19 S1 1_555 1_555

#END
