
#######################################################################
#
#                 Cambridge Crystallographic Data Centre
#                                CCDC 
#
#######################################################################
#
# If this CIF has been generated from an entry in the Cambridge 
# Structural Database, then it will include bibliographic, chemical, 
# crystal, experimental, refinement or atomic coordinate data resulting 
# from the CCDC's data processing and validation procedures.
#
#######################################################################

data_VIWPUO
_chemical_formula_moiety         'C26 H22 Cl1 N1 O4'
_chemical_name_systematic        
'Ethyl 7-anilino-7a-(4-chlorobenzoyl)-7,7a-dihydrocyclopropa[b]chromene-1a(1H)-carboxylate'
_symmetry_cell_setting           monoclinic
_symmetry_space_group_name_H-M   'P 21/n'
_symmetry_Int_Tables_number      14
_space_group_name_Hall           '-P 2yn'
loop_
_symmetry_equiv_pos_site_id
_symmetry_equiv_pos_as_xyz
1 x,y,z
2 1/2-x,1/2+y,1/2-z
3 -x,-y,-z
4 1/2+x,1/2-y,1/2+z
_cell_length_a                   10.330(2)
_cell_length_b                   11.014(3)
_cell_length_c                   20.136(4)
_cell_angle_alpha                90
_cell_angle_beta                 103.909(3)
_cell_angle_gamma                90
_cell_volume                     2223.79
_cell_formula_units_Z            4
loop_
_atom_site_label
_atom_site_type_symbol
_atom_site_fract_x
_atom_site_fract_y
_atom_site_fract_z
C1 C 0.32055(14) 0.52036(14) 0.17351(8)
C2 C 0.43272(15) 0.44964(13) 0.19658(9)
H1 H 0.4248 0.3663 0.2020
C3 C 0.55771(14) 0.50432(13) 0.21166(8)
H2 H 0.6338 0.4573 0.2271
C4 C 0.56949(13) 0.62924(11) 0.20374(7)
C5 C 0.45362(14) 0.69890(13) 0.18300(8)
H3 H 0.4605 0.7827 0.1793
C6 C 0.32892(15) 0.64509(15) 0.16795(10)
H4 H 0.2522 0.6919 0.1543
C7 C 0.70055(13) 0.69202(12) 0.21601(7)
C8 C 0.82664(12) 0.61966(11) 0.24437(7)
C9 C 0.94644(13) 0.63866(12) 0.21436(6)
C10 C 0.87223(13) 0.52015(12) 0.20330(7)
H5 H 0.9152 0.4496 0.2279
H6 H 0.8176 0.5034 0.1579
C11 C 0.85947(13) 0.60574(11) 0.32239(7)
H7 H 0.7936 0.5515 0.3345
C12 C 0.99675(14) 0.55173(12) 0.34895(7)
C13 C 1.09816(14) 0.57751(12) 0.31666(7)
C14 C 1.22773(16) 0.53571(16) 0.34279(8)
H8 H 1.2945 0.5531 0.3204
C15 C 1.25581(18) 0.46815(17) 0.40237(9)
H9 H 1.3422 0.4404 0.4203
C16 C 1.1564(2) 0.44134(16) 0.43564(9)
H10 H 1.1759 0.3957 0.4757
C17 C 1.02796(17) 0.48293(14) 0.40885(8)
H11 H 0.9613 0.4647 0.4312
C18 C 0.76747(15) 0.75092(13) 0.39652(7)
C19 C 0.80292(19) 0.84532(14) 0.44376(8)
H12 H 0.8834 0.8858 0.4476
C20 C 0.7188(2) 0.87894(18) 0.48488(9)
H13 H 0.7435 0.9420 0.5161
C21 C 0.5994(3) 0.8204(2) 0.48016(12)
H14 H 0.5435 0.8433 0.5079
C22 C 0.5641(2) 0.7279(2) 0.43405(11)
H15 H 0.4834 0.6880 0.4307
C23 C 0.64631(17) 0.69222(18) 0.39206(9)
H16 H 0.6203 0.6292 0.3610
C24 C 0.93733(15) 0.72567(14) 0.15617(7)
C25 C 0.7979(2) 0.78769(19) 0.05027(9)
H17 H 0.8724 0.8029 0.0299
H18 H 0.7732 0.8635 0.0684
C26 C 0.6839(4) 0.7376(2) -0.00119(14)
H19 H 0.7110 0.6650 -0.0204
H20 H 0.6537 0.7963 -0.0368
H21 H 0.6127 0.7190 0.0202
Cl1 Cl 0.16582(4) 0.45056(5) 0.14998(3)
N1 N 0.85248(15) 0.72405(12) 0.35461(7)
H22 H 0.926(2) 0.7612(19) 0.3624(11)
O1 O 0.70753(11) 0.80053(9) 0.20510(7)
O2 O 1.07558(9) 0.64647(9) 0.25797(5)
O3 O 1.01235(13) 0.80837(14) 0.15617(7)
O4 O 0.83409(12) 0.69785(11) 0.10431(6)
loop_
_geom_bond_atom_site_label_1
_geom_bond_atom_site_label_2
_geom_bond_site_symmetry_1
_geom_bond_site_symmetry_2
C1 C2 1_555 1_555
C2 H1 1_555 1_555
C3 C2 1_555 1_555
H2 C3 1_555 1_555
C4 C3 1_555 1_555
C5 C4 1_555 1_555
H3 C5 1_555 1_555
C6 C1 1_555 1_555
H4 C6 1_555 1_555
C7 C4 1_555 1_555
C8 C7 1_555 1_555
C9 C8 1_555 1_555
C10 C8 1_555 1_555
H5 C10 1_555 1_555
H6 C10 1_555 1_555
C11 C8 1_555 1_555
H7 C11 1_555 1_555
C12 C11 1_555 1_555
C13 C12 1_555 1_555
C14 C13 1_555 1_555
H8 C14 1_555 1_555
C15 C14 1_555 1_555
H9 C15 1_555 1_555
C16 C15 1_555 1_555
H10 C16 1_555 1_555
C17 C12 1_555 1_555
H11 C17 1_555 1_555
C18 C19 1_555 1_555
C19 H12 1_555 1_555
C20 C19 1_555 1_555
H13 C20 1_555 1_555
C21 C20 1_555 1_555
H14 C21 1_555 1_555
C22 C21 1_555 1_555
H15 C22 1_555 1_555
C23 C18 1_555 1_555
H16 C23 1_555 1_555
C24 C9 1_555 1_555
C25 H17 1_555 1_555
H18 C25 1_555 1_555
C26 C25 1_555 1_555
H19 C26 1_555 1_555
H20 C26 1_555 1_555
H21 C26 1_555 1_555
Cl1 C1 1_555 1_555
N1 C11 1_555 1_555
H22 N1 1_555 1_555
O1 C7 1_555 1_555
O2 C9 1_555 1_555
O3 C24 1_555 1_555
O4 C24 1_555 1_555
C5 C6 1_555 1_555
C9 C10 1_555 1_555
C13 O2 1_555 1_555
C16 C17 1_555 1_555
C18 N1 1_555 1_555
C22 C23 1_555 1_555
C25 O4 1_555 1_555

#END
