
#######################################################################
#
#                 Cambridge Crystallographic Data Centre
#                                CCDC 
#
#######################################################################
#
# If this CIF has been generated from an entry in the Cambridge 
# Structural Database, then it will include bibliographic, chemical, 
# crystal, experimental, refinement or atomic coordinate data resulting 
# from the CCDC's data processing and validation procedures.
#
#######################################################################

data_VIWPIC
_chemical_formula_moiety         'C12 H10 N2 O1'
_chemical_name_systematic        
2-Hydroxy-5,6-dihydro-4H-pyrrolo[3,2,1-ij]quinoline-1-carbonitrile
_symmetry_cell_setting           monoclinic
_symmetry_space_group_name_H-M   'P 21/c'
_symmetry_Int_Tables_number      14
_space_group_name_Hall           '-P 2ybc'
loop_
_symmetry_equiv_pos_site_id
_symmetry_equiv_pos_as_xyz
1 x,y,z
2 -x,1/2+y,1/2-z
3 -x,-y,-z
4 x,1/2-y,1/2+z
_cell_length_a                   7.8684(13)
_cell_length_b                   13.971(2)
_cell_length_c                   8.8557(16)
_cell_angle_alpha                90
_cell_angle_beta                 99.470(11)
_cell_angle_gamma                90
_cell_volume                     960.235
_exptl_crystal_colour            colorless
_exptl_crystal_description       Prism
_cell_formula_units_Z            4
loop_
_atom_site_label
_atom_site_type_symbol
_atom_site_fract_x
_atom_site_fract_y
_atom_site_fract_z
O1 O 0.20612(16) 0.36830(8) 0.22395(14)
N1 N 0.28261(17) 0.42507(9) 0.46983(15)
N2 N -0.0409(2) 0.60390(10) 0.06419(17)
C1 C 0.3788(2) 0.34145(12) 0.53921(19)
H1 H 0.4993 0.3441 0.5202
H2 H 0.3254 0.2819 0.4930
C2 C 0.3759(2) 0.34196(12) 0.71173(19)
H3 H 0.4533 0.2908 0.7603
H4 H 0.2578 0.3266 0.7289
C3 C 0.4313(2) 0.43744(12) 0.7908(2)
H5 H 0.4105 0.4354 0.8980
H6 H 0.5563 0.4472 0.7925
C4 C 0.3320(2) 0.52045(12) 0.70779(19)
C5 C 0.2974(2) 0.60890(13) 0.7692(2)
H7 H 0.3395 0.6221 0.8739
C6 C 0.2011(2) 0.67866(13) 0.6782(2)
H8 H 0.1807 0.7384 0.7232
C7 C 0.1346(2) 0.66339(12) 0.52465(19)
H9 H 0.0691 0.7115 0.4655
C8 C 0.1669(2) 0.57521(11) 0.45946(19)
C9 C 0.2645(2) 0.50740(11) 0.55408(19)
C10 C 0.1257(2) 0.52995(12) 0.31024(18)
C11 C 0.0342(2) 0.56992(11) 0.1748(2)
C12 C 0.2004(2) 0.43843(12) 0.32425(19)
H10 H 0.143(3) 0.3811(17) 0.122(3)
loop_
_geom_bond_atom_site_label_1
_geom_bond_atom_site_label_2
_geom_bond_site_symmetry_1
_geom_bond_site_symmetry_2
O1 C12 1_555 1_555
N1 C1 1_555 1_555
N2 C11 1_555 1_555
C1 H1 1_555 1_555
H2 C1 1_555 1_555
C2 C1 1_555 1_555
H3 C2 1_555 1_555
H4 C2 1_555 1_555
C3 C2 1_555 1_555
H5 C3 1_555 1_555
H6 C3 1_555 1_555
C4 C3 1_555 1_555
C5 C4 1_555 1_555
H7 C5 1_555 1_555
C6 C5 1_555 1_555
H8 C6 1_555 1_555
C7 C6 1_555 1_555
H9 C7 1_555 1_555
C8 C7 1_555 1_555
C9 N1 1_555 1_555
C10 C8 1_555 1_555
C11 C10 1_555 1_555
C12 N1 1_555 1_555
H10 O1 1_555 1_555
C4 C9 1_555 1_555
C8 C9 1_555 1_555
C10 C12 1_555 1_555

#END
