
#######################################################################
#
#                 Cambridge Crystallographic Data Centre
#                                CCDC 
#
#######################################################################
#
# If this CIF has been generated from an entry in the Cambridge 
# Structural Database, then it will include bibliographic, chemical, 
# crystal, experimental, refinement or atomic coordinate data resulting 
# from the CCDC's data processing and validation procedures.
#
#######################################################################

data_VIWXEG
_chemical_formula_moiety         'C17 H18 N2 O1'
_chemical_name_systematic        
2-(4-isopropylphenyl)-2,3-dihydroquinazolin-4(1H)-one
_symmetry_cell_setting           monoclinic
_symmetry_space_group_name_H-M   'P 21/c'
_symmetry_Int_Tables_number      14
_space_group_name_Hall           '-P 2ybc'
loop_
_symmetry_equiv_pos_site_id
_symmetry_equiv_pos_as_xyz
1 x,y,z
2 -x,1/2+y,1/2-z
3 -x,-y,-z
4 x,1/2-y,1/2+z
_cell_length_a                   13.7868(3)
_cell_length_b                   9.5016(2)
_cell_length_c                   10.9971(3)
_cell_angle_alpha                90
_cell_angle_beta                 104.522(1)
_cell_angle_gamma                90
_cell_volume                     1394.56
_exptl_crystal_colour            colorless
_exptl_crystal_description       plate
_cell_formula_units_Z            4
loop_
_atom_site_label
_atom_site_type_symbol
_atom_site_fract_x
_atom_site_fract_y
_atom_site_fract_z
C1 C 1.06102(9) 0.75742(13) 0.33539(11)
H1 H 1.0958 0.8139 0.2823
C2 C 1.12239(8) 0.86427(12) 0.54637(11)
C3 C 1.20964(8) 0.76897(12) 0.56466(11)
C4 C 1.29230(9) 0.78575(13) 0.66678(11)
H2 H 1.2924 0.8592 0.7255
C5 C 1.37394(9) 0.69711(15) 0.68381(13)
H3 H 1.4300 0.7093 0.7536
C6 C 1.37309(9) 0.58986(15) 0.59761(13)
H4 H 1.4297 0.5299 0.6080
C7 C 1.29120(9) 0.56898(14) 0.49702(12)
H5 H 1.2915 0.4943 0.4397
C8 C 1.20760(9) 0.65821(13) 0.47949(11)
C9 C 0.95906(9) 0.71342(12) 0.25693(11)
C10 C 0.92208(9) 0.77289(13) 0.14020(11)
H6 H 0.9608 0.8411 0.1103
C11 C 0.82920(9) 0.73449(14) 0.06593(11)
H7 H 0.8055 0.7766 -0.0144
C12 C 0.76996(9) 0.63601(12) 0.10621(11)
C13 C 0.80756(9) 0.57670(13) 0.22504(11)
H8 H 0.7685 0.5093 0.2555
C14 C 0.90080(9) 0.61445(13) 0.29921(11)
H9 H 0.9251 0.5724 0.3795
C15 C 0.66723(9) 0.59324(14) 0.02739(12)
H10 H 0.6624 0.4885 0.0324
C16 C 0.64920(10) 0.63223(16) -0.11082(13)
H11 H 0.6416 0.7345 -0.1203
H12 H 0.5881 0.5859 -0.1590
H13 H 0.7063 0.6014 -0.1421
C17 C 0.58492(10) 0.65632(17) 0.08217(15)
H14 H 0.5934 0.6228 0.1685
H15 H 0.5191 0.6273 0.0309
H16 H 0.5897 0.7592 0.0821
N1 N 1.12202(7) 0.63551(11) 0.38473(10)
N2 N 1.04951(7) 0.84344(11) 0.44134(9)
O1 O 1.11552(6) 0.95575(9) 0.62481(7)
H17 H 1.1308(10) 0.5804(16) 0.3234(14)
H18 H 0.9980(11) 0.9036(16) 0.4256(13)
loop_
_geom_bond_atom_site_label_1
_geom_bond_atom_site_label_2
_geom_bond_site_symmetry_1
_geom_bond_site_symmetry_2
C1 H1 1_555 1_555
C2 C3 1_555 1_555
C3 C4 1_555 1_555
C4 H2 1_555 1_555
C5 C4 1_555 1_555
H3 C5 1_555 1_555
C6 C5 1_555 1_555
H4 C6 1_555 1_555
C7 C6 1_555 1_555
H5 C7 1_555 1_555
C8 C3 1_555 1_555
C9 C1 1_555 1_555
C10 C9 1_555 1_555
H6 C10 1_555 1_555
C11 C10 1_555 1_555
H7 C11 1_555 1_555
C12 C11 1_555 1_555
C13 C12 1_555 1_555
H8 C13 1_555 1_555
C14 C9 1_555 1_555
H9 C14 1_555 1_555
C15 C12 1_555 1_555
H10 C15 1_555 1_555
C16 C15 1_555 1_555
H11 C16 1_555 1_555
H12 C16 1_555 1_555
H13 C16 1_555 1_555
C17 C15 1_555 1_555
H14 C17 1_555 1_555
H15 C17 1_555 1_555
H16 C17 1_555 1_555
N1 C1 1_555 1_555
N2 C1 1_555 1_555
O1 C2 1_555 1_555
H17 N1 1_555 1_555
H18 N2 1_555 1_555
C2 N2 1_555 1_555
C7 C8 1_555 1_555
C8 N1 1_555 1_555
C13 C14 1_555 1_555

#END
