
#######################################################################
#
#                 Cambridge Crystallographic Data Centre
#                                CCDC 
#
#######################################################################
#
# If this CIF has been generated from an entry in the Cambridge 
# Structural Database, then it will include bibliographic, chemical, 
# crystal, experimental, refinement or atomic coordinate data resulting 
# from the CCDC's data processing and validation procedures.
#
#######################################################################

data_VIXFEO
_chemical_name_common            
25,27-bis(N-Butylcarbamoylmethoxy)-5,11,17,23-tetra-t-butyl-26,28-bis(ethoxycarbonylmethoxy)-2,8,14,20-tetrathiacalix(4)arene
_chemical_formula_moiety         'C60 H82 N2 O10 S4'
_chemical_name_systematic        
25,27-bis(N-Butylcarbamoylmethoxy)-5,11,17,23-tetra-t-butyl-26,28-bis(ethoxycarbonylmethoxy)-2,8,14,20-tetrathiapentacyclo(19.3.1.1^3,7^.1^9,13^.1^15,19^)octacosa-1(25),3,5,7(28),9,11,13(27),15,17,19(26),21,23-dodecaene
_symmetry_cell_setting           monoclinic
_symmetry_space_group_name_H-M   'P 21/c'
_symmetry_Int_Tables_number      14
_space_group_name_Hall           '-P 2ybc'
loop_
_symmetry_equiv_pos_site_id
_symmetry_equiv_pos_as_xyz
1 x,y,z
2 -x,1/2+y,1/2-z
3 -x,-y,-z
4 x,1/2-y,1/2+z
_cell_length_a                   14.919(4)
_cell_length_b                   20.916(5)
_cell_length_c                   21.771(5)
_cell_angle_alpha                90
_cell_angle_beta                 100.288(4)
_cell_angle_gamma                90
_cell_volume                     6684.33
_exptl_crystal_colour            colorless
_exptl_crystal_description       block
_chemical_melting_point          '203 deg.C(dec.)'
_cell_formula_units_Z            4
_exptl_crystal_recrystallization_method dichloromethane/acetonitrile
loop_
_atom_site_label
_atom_site_type_symbol
_atom_site_fract_x
_atom_site_fract_y
_atom_site_fract_z
C1 C 0.485(2) 0.1944(15) 0.3496(17)
H1 H 0.4855 0.1681 0.3135
H2 H 0.4421 0.1779 0.3733
H3 H 0.5450 0.1944 0.3750
S1 S -0.00757(10) 0.28250(6) 0.64946(6)
S2 S 0.10138(12) 0.07605(6) 0.51976(5)
S3 S 0.15709(9) 0.24140(6) 0.32998(5)
S4 S 0.02223(9) 0.44151(6) 0.45142(5)
O1 O 0.1288(3) 0.18842(15) 0.60639(13)
O2 O 0.1504(3) 0.19900(16) 0.46833(14)
O3 O 0.1666(2) 0.35698(14) 0.41386(14)
O4 O -0.0716(2) 0.35049(14) 0.52665(14)
O5 O 0.2723(4) 0.1384(3) 0.7456(2)
O6 O 0.3431(4) 0.4017(4) 0.4626(3)
O7 O -0.2520(4) 0.3509(4) 0.4802(3)
O8 O -0.2779(3) 0.4148(3) 0.5534(3)
N1 N 0.3629(4) 0.3864(4) 0.3668(3)
H4 H 0.3369 0.3854 0.3283
N2 N 0.2675(6) 0.1122(4) 0.6457(3)
H5 H 0.2317 0.1063 0.6106
C2 C -0.0302(4) 0.2159(2) 0.5977(2)
C3 C -0.1195(4) 0.2012(3) 0.5743(2)
H6 H -0.1652 0.2269 0.5851
C4 C -0.1439(5) 0.1485(3) 0.5346(2)
C5 C -0.0736(5) 0.1130(3) 0.5186(2)
H7 H -0.0874 0.0786 0.4915
C6 C 0.0158(4) 0.1268(2) 0.5414(2)
C7 C 0.0388(4) 0.1771(2) 0.58316(19)
C8 C 0.0942(4) 0.0954(2) 0.4393(2)
C9 C 0.0599(4) 0.0508(2) 0.3946(2)
H8 H 0.0379 0.0123 0.4072
C10 C 0.0572(4) 0.0617(2) 0.3309(2)
C11 C 0.0890(3) 0.1200(2) 0.3146(2)
H9 H 0.0881 0.1285 0.2725
C12 C 0.1226(3) 0.1669(2) 0.35807(19)
C13 C 0.1265(3) 0.1543(2) 0.42148(19)
C14 C 0.0646(3) 0.2900(2) 0.34436(19)
C15 C -0.0233(4) 0.2754(2) 0.3159(2)
H10 H -0.0324 0.2415 0.2878
C16 C -0.0978(4) 0.3091(2) 0.3274(2)
C17 C -0.0814(4) 0.3598(2) 0.3705(2)
H11 H -0.1304 0.3827 0.3801
C18 C 0.0055(3) 0.3761(2) 0.39861(19)
C19 C 0.0803(3) 0.3421(2) 0.38469(19)
C20 C 0.0570(3) 0.3338(2) 0.6088(2)
C21 C 0.1445(4) 0.3493(2) 0.6360(2)
H12 H 0.1692 0.3306 0.6740
C22 C 0.1981(3) 0.3922(3) 0.6088(2)
C23 C 0.1589(3) 0.4163(2) 0.5509(2)
H13 H 0.1936 0.4430 0.5302
C24 C 0.0708(3) 0.4027(2) 0.5227(2)
C25 C 0.0186(3) 0.3621(2) 0.5526(2)
C26 C -0.2442(5) 0.1306(4) 0.5133(3)
C27 C -0.3038(7) 0.1866(6) 0.5035(8)
H14 H -0.3507 0.1797 0.4678
H15 H -0.2687 0.2235 0.4966
H16 H -0.3310 0.1933 0.5397
C28 C -0.2725(8) 0.0865(8) 0.5592(7)
H17 H -0.3134 0.1082 0.5816
H18 H -0.2198 0.0725 0.5881
H19 H -0.3027 0.0501 0.5379
C29 C -0.2604(9) 0.0959(8) 0.4531(7)
H20 H -0.3081 0.1167 0.4246
H21 H -0.2780 0.0526 0.4598
H22 H -0.2055 0.0958 0.4357
C30 C 0.0148(5) 0.0127(3) 0.2827(2)
C31 C -0.0875(8) 0.0009(6) 0.2928(5)
H23 H -0.1242 0.0374 0.2781
H24 H -0.0880 -0.0052 0.3365
H25 H -0.1117 -0.0364 0.2700
C32 C 0.0492(10) -0.0515(3) 0.2980(4)
H26 H 0.0421 -0.0768 0.2606
H27 H 0.0158 -0.0707 0.3270
H28 H 0.1126 -0.0493 0.3164
C33 C 0.0059(9) 0.0338(4) 0.2185(3)
H29 H 0.0650 0.0442 0.2096
H30 H -0.0324 0.0710 0.2122
H31 H -0.0207 0.0003 0.1910
C34 C -0.1946(4) 0.2913(3) 0.2971(3)
C35 C -0.2203(9) 0.2339(8) 0.3303(9)
H32 H -0.2825 0.2377 0.3358
H33 H -0.1814 0.2307 0.3704
H34 H -0.2135 0.1963 0.3062
C36 C -0.2020(6) 0.2813(8) 0.2299(4)
H35 H -0.2640 0.2876 0.2096
H36 H -0.1834 0.2385 0.2223
H37 H -0.1633 0.3112 0.2136
C37 C -0.2639(6) 0.3382(7) 0.3077(6)
H38 H -0.2523 0.3512 0.3506
H39 H -0.3233 0.3190 0.2979
H40 H -0.2613 0.3747 0.2814
C38 C 0.2939(4) 0.4085(4) 0.6405(3)
C39 C 0.3570(6) 0.3560(6) 0.6287(6)
H41 H 0.3631 0.3255 0.6621
H42 H 0.4157 0.3737 0.6264
H43 H 0.3328 0.3352 0.5900
C40 C 0.3000(7) 0.4145(9) 0.7103(4)
H44 H 0.2534 0.4430 0.7190
H45 H 0.3587 0.4311 0.7286
H46 H 0.2917 0.3732 0.7277
C41 C 0.3307(6) 0.4668(5) 0.6153(5)
H47 H 0.3147 0.4667 0.5706
H48 H 0.3958 0.4674 0.6274
H49 H 0.3054 0.5040 0.6316
C42 C 0.1568(4) 0.1801(3) 0.6729(2)
H50 H 0.1664 0.2219 0.6923
H51 H 0.1078 0.1595 0.6893
C43 C 0.2378(5) 0.1431(3) 0.6900(3)
C44 C 0.373(2) 0.0836(19) 0.6556(13)
H52 H 0.3975 0.0772 0.6174
H53 H 0.4169 0.1047 0.6877
C45 C 0.3259(13) 0.0269(14) 0.6771(11)
H54 H 0.2944 -0.0012 0.6449
H55 H 0.2928 0.0342 0.7110
C46 C 0.434(2) 0.018(4) 0.696(4)
H56 H 0.4666 0.0187 0.6614
H57 H 0.4629 0.0445 0.7303
C47 C 0.410(3) -0.051(2) 0.716(3)
H58 H 0.3446 -0.0558 0.7081
H59 H 0.4326 -0.0565 0.7597
H60 H 0.4365 -0.0818 0.6925
C48 C 0.2377(5) 0.2273(3) 0.4806(3)
H61 H 0.2500 0.2469 0.4426
H62 H 0.2381 0.2608 0.5114
C49 C 0.3105(7) 0.1816(6) 0.5035(6)
C50 C 0.2122(4) 0.4023(3) 0.3816(3)
H63 H 0.1909 0.4452 0.3880
H64 H 0.2006 0.3933 0.3371
C51 C 0.3124(5) 0.3968(4) 0.4073(3)
C52 C 0.4633(6) 0.3760(8) 0.3809(5)
H65 H 0.4885 0.3975 0.4196
H66 H 0.4907 0.3948 0.3479
C53 C 0.4879(10) 0.3033(12) 0.3867(12)
H67 H 0.5534 0.2995 0.3991
H68 H 0.4604 0.2853 0.4200
C54 C 0.4589(12) 0.2634(14) 0.3288(13)
H69 H 0.4904 0.2768 0.2957
H70 H 0.3937 0.2669 0.3141
C55 C -0.1302(3) 0.3931(3) 0.5517(3)
H71 H -0.1106 0.4239 0.5819
C56 C -0.2235(4) 0.3822(3) 0.5240(3)
C57 C -0.3763(6) 0.4147(8) 0.5300(6)
H72 H -0.3975 0.3710 0.5235
H73 H -0.3888 0.4367 0.4901
O9 O 0.3086(10) 0.1258(9) 0.5108(7)
O10 O 0.394(2) 0.2066(14) 0.5043(16)
C58 C 0.4618(13) 0.1812(12) 0.5628(12)
H74 H 0.4301 0.1456 0.5778
H75 H 0.5118 0.1625 0.5460
C59 C 0.5063(17) 0.2157(14) 0.6206(14)
H76 H 0.5679 0.2009 0.6326
H77 H 0.4732 0.2075 0.6537
H78 H 0.5065 0.2608 0.6124
C60 C -0.4243(15) 0.4453(16) 0.5725(14)
H79 H -0.4873 0.4497 0.5537
H80 H -0.3986 0.4868 0.5829
H81 H -0.4195 0.4200 0.6098
O11? O 0.3743(8) 0.2111(8) 0.5421(5)
O12? O 0.3166(11) 0.1371(10) 0.4614(13)
C61? C 0.389(2) 0.0876(18) 0.460(2)
H82? H 0.3848 0.0551 0.4914
H83? H 0.4487 0.1074 0.4706
C62? C 0.378(2) 0.0555(14) 0.393(2)
H84? H 0.3185 0.0366 0.3829
H85? H 0.4235 0.0231 0.3937
H86? H 0.3849 0.0874 0.3629
C63? C -0.412(2) 0.3693(17) 0.5753(15)
H87? H -0.3733 0.3719 0.6156
H88? H -0.4115 0.3263 0.5600
H89? H -0.4728 0.3811 0.5789
loop_
_geom_bond_atom_site_label_1
_geom_bond_atom_site_label_2
_geom_bond_site_symmetry_1
_geom_bond_site_symmetry_2
C1 H1 1_555 1_555
H2 C1 1_555 1_555
H3 C1 1_555 1_555
S1 C2 1_555 1_555
S2 C6 1_555 1_555
S3 C12 1_555 1_555
S4 C18 1_555 1_555
O1 C7 1_555 1_555
O2 C13 1_555 1_555
O3 C19 1_555 1_555
O4 C25 1_555 1_555
O5 C43 1_555 1_555
O6 C51 1_555 1_555
O7 C56 1_555 1_555
O8 C56 1_555 1_555
N1 H4 1_555 1_555
N2 H5 1_555 1_555
C2 C3 1_555 1_555
C3 H6 1_555 1_555
C4 C3 1_555 1_555
C5 C4 1_555 1_555
H7 C5 1_555 1_555
C6 C5 1_555 1_555
C7 C2 1_555 1_555
C8 S2 1_555 1_555
C9 C8 1_555 1_555
H8 C9 1_555 1_555
C10 C9 1_555 1_555
C11 C10 1_555 1_555
H9 C11 1_555 1_555
C12 C11 1_555 1_555
C13 C8 1_555 1_555
C14 S3 1_555 1_555
C15 C14 1_555 1_555
H10 C15 1_555 1_555
C16 C15 1_555 1_555
C17 C16 1_555 1_555
H11 C17 1_555 1_555
C18 C17 1_555 1_555
C19 C14 1_555 1_555
C20 S1 1_555 1_555
C21 C20 1_555 1_555
H12 C21 1_555 1_555
C22 C21 1_555 1_555
C23 C22 1_555 1_555
H13 C23 1_555 1_555
C24 S4 1_555 1_555
C25 C20 1_555 1_555
C26 C4 1_555 1_555
C27 C26 1_555 1_555
H14 C27 1_555 1_555
H15 C27 1_555 1_555
H16 C27 1_555 1_555
C28 C26 1_555 1_555
H17 C28 1_555 1_555
H18 C28 1_555 1_555
H19 C28 1_555 1_555
C29 C26 1_555 1_555
H20 C29 1_555 1_555
H21 C29 1_555 1_555
H22 C29 1_555 1_555
C30 C10 1_555 1_555
C31 C30 1_555 1_555
H23 C31 1_555 1_555
H24 C31 1_555 1_555
H25 C31 1_555 1_555
C32 C30 1_555 1_555
H26 C32 1_555 1_555
H27 C32 1_555 1_555
H28 C32 1_555 1_555
C33 C30 1_555 1_555
H29 C33 1_555 1_555
H30 C33 1_555 1_555
H31 C33 1_555 1_555
C34 C16 1_555 1_555
C35 C34 1_555 1_555
H32 C35 1_555 1_555
H33 C35 1_555 1_555
H34 C35 1_555 1_555
C36 C34 1_555 1_555
H35 C36 1_555 1_555
H36 C36 1_555 1_555
H37 C36 1_555 1_555
C37 C34 1_555 1_555
H38 C37 1_555 1_555
H39 C37 1_555 1_555
H40 C37 1_555 1_555
C38 C22 1_555 1_555
C39 C38 1_555 1_555
H41 C39 1_555 1_555
H42 C39 1_555 1_555
H43 C39 1_555 1_555
C40 C38 1_555 1_555
H44 C40 1_555 1_555
H45 C40 1_555 1_555
H46 C40 1_555 1_555
C41 C38 1_555 1_555
H47 C41 1_555 1_555
H48 C41 1_555 1_555
H49 C41 1_555 1_555
C42 O1 1_555 1_555
H50 C42 1_555 1_555
H51 C42 1_555 1_555
C43 N2 1_555 1_555
C44 N2 1_555 1_555
H52 C44 1_555 1_555
H53 C44 1_555 1_555
C45 C44 1_555 1_555
H54 C45 1_555 1_555
H55 C45 1_555 1_555
C46 C45 1_555 1_555
H56 C46 1_555 1_555
H57 C46 1_555 1_555
C47 C46 1_555 1_555
H58 C47 1_555 1_555
H59 C47 1_555 1_555
H60 C47 1_555 1_555
C48 O2 1_555 1_555
H61 C48 1_555 1_555
H62 C48 1_555 1_555
C49 C48 1_555 1_555
C50 O3 1_555 1_555
H63 C50 1_555 1_555
H64 C50 1_555 1_555
C51 N1 1_555 1_555
C52 N1 1_555 1_555
H65 C52 1_555 1_555
H66 C52 1_555 1_555
C53 C52 1_555 1_555
H67 C53 1_555 1_555
H68 C53 1_555 1_555
C54 C1 1_555 1_555
H69 C54 1_555 1_555
H70 C54 1_555 1_555
C55 O4 1_555 1_555
H71 C55 1_555 1_555
C56 C55 1_555 1_555
C57 O8 1_555 1_555
H72 C57 1_555 1_555
H73 C57 1_555 1_555
O9 C49 1_555 1_555
O10 C49 1_555 1_555
C58 O10 1_555 1_555
H74 C58 1_555 1_555
H75 C58 1_555 1_555
C59 C58 1_555 1_555
H76 C59 1_555 1_555
H77 C59 1_555 1_555
H78 C59 1_555 1_555
C60 C57 1_555 1_555
H79 C60 1_555 1_555
H80 C60 1_555 1_555
H81 C60 1_555 1_555
C6 C7 1_555 1_555
C12 C13 1_555 1_555
C18 C19 1_555 1_555
C23 C24 1_555 1_555
C24 C25 1_555 1_555
C42 C43 1_555 1_555
C50 C51 1_555 1_555
C53 C54 1_555 1_555

#END
