
#######################################################################
#
#                 Cambridge Crystallographic Data Centre
#                                CCDC 
#
#######################################################################
#
# If this CIF has been generated from an entry in the Cambridge 
# Structural Database, then it will include bibliographic, chemical, 
# crystal, experimental, refinement or atomic coordinate data resulting 
# from the CCDC's data processing and validation procedures.
#
#######################################################################

data_VIZLIZ
_chemical_formula_moiety         'C16 H18 S1'
_chemical_name_systematic        
(E)-3-(2-Methyl-1-phenylpropylidene)-2-thiabicyclo(2.2.1)hept-5-ene
_symmetry_cell_setting           triclinic
_symmetry_space_group_name_H-M   'P -1'
_symmetry_Int_Tables_number      2
_space_group_name_Hall           '-P 1'
loop_
_symmetry_equiv_pos_site_id
_symmetry_equiv_pos_as_xyz
1 x,y,z
2 -x,-y,-z
_cell_length_a                   7.349(1)
_cell_length_b                   12.262(2)
_cell_length_c                   15.659(3)
_cell_angle_alpha                76.97(2)
_cell_angle_beta                 88.89(2)
_cell_angle_gamma                88.83(2)
_cell_volume                     1374.31
_chemical_melting_point          75deg.C
_cell_formula_units_Z            4
loop_
_atom_site_label
_atom_site_type_symbol
_atom_site_fract_x
_atom_site_fract_y
_atom_site_fract_z
S1 S 0.0271(1) 0.3323(1) 0.9594(1)
C1 C -0.1902(5) 0.3820(3) 0.9024(2)
C2 C -0.0909(4) 0.2193(2) 1.0289(2)
C3 C -0.2906(4) 0.2283(3) 1.0005(2)
C4 C -0.3707(4) 0.3319(3) 1.0256(2)
C5 C -0.3082(5) 0.4210(3) 0.9692(2)
C6 C -0.2768(5) 0.2705(3) 0.8996(2)
C7 C -0.0137(4) 0.1435(2) 1.0930(2)
C8 C 0.1888(4) 0.1444(3) 1.1115(2)
C9 C 0.2850(5) 0.0332(3) 1.1107(3)
C10 C 0.2233(5) 0.1783(4) 1.1969(3)
C11 C -0.1275(4) 0.0556(2) 1.1510(2)
C12 C -0.1456(4) -0.0500(2) 1.1331(2)
C13 C -0.2527(5) -0.1307(3) 1.1865(3)
C14 C -0.3404(5) -0.1071(3) 1.2593(3)
C15 C -0.3238(5) -0.0036(4) 1.2782(2)
C16 C -0.2180(4) 0.0783(3) 1.2240(2)
H1 H -0.1525(50) 0.4410(30) 0.8379(20)
H2 H -0.3620(50) 0.1486(30) 1.0242(20)
H3 H -0.4539(50) 0.3288(30) 1.0835(20)
H4 H -0.3276(50) 0.5112(30) 0.9700(20)
H5 H -0.1916(50) 0.2161(30) 0.8664(20)
H6 H -0.4058(50) 0.2843(30) 0.8743(20)
H7 H 0.2466(50) 0.2064(30) 1.0579(20)
H8 H -0.0765(50) -0.0704(30) 1.0760(20)
H9 H -0.2598(50) -0.2143(30) 1.1691(20)
H10 H -0.4288(50) -0.1674(30) 1.2992(20)
H11 H -0.4015(50) 0.0159(30) 1.3333(20)
H12 H -0.2093(50) 0.1647(30) 1.2361(20)
H13 H 0.4211(50) 0.0431(30) 1.1188(20)
H14 H 0.2537(50) 0.0015(30) 1.0542(20)
H15 H 0.2325(50) -0.0264(30) 1.1658(20)
H16 H 0.1624(50) 0.2604(30) 1.1908(20)
H17 H 0.1600(50) 0.1204(30) 1.2479(20)
H18 H 0.3556(50) 0.1773(30) 1.2070(20)
S2 S -0.4882(1) 0.5675(1) 0.7438(1)
C17 C -0.7002(4) 0.4939(3) 0.7901(2)
C18 C -0.5980(4) 0.6146(2) 0.6408(2)
C19 C -0.7886(4) 0.5638(3) 0.6497(2)
C20 C -0.8954(4) 0.6237(3) 0.7095(2)
C21 C -0.8416(5) 0.5836(3) 0.7913(2)
C22 C -0.7605(5) 0.4475(3) 0.7123(2)
C23 C -0.5245(4) 0.6824(3) 0.5706(2)
C24 C -0.3282(4) 0.7213(3) 0.5690(2)
C25 C -0.2112(5) 0.6716(3) 0.5051(3)
C26 C -0.3123(6) 0.8487(3) 0.5478(3)
C27 C -0.6330(4) 0.7202(3) 0.4887(2)
C28 C -0.6434(4) 0.6529(3) 0.4279(2)
C29 C -0.7474(5) 0.6878(4) 0.3527(2)
C30 C -0.8394(5) 0.7889(4) 0.3379(2)
C31 C -0.8301(5) 0.8564(3) 0.3966(3)
C32 C -0.7264(5) 0.8223(3) 0.4727(2)
H19 H -0.6664(50) 0.4388(30) 0.8545(20)
H20 H -0.8449(50) 0.5650(30) 0.5865(20)
H21 H -0.9786(50) 0.6966(30) 0.6842(20)
H22 H -0.8746(50) 0.6152(30) 0.8503(20)
H23 H -0.8869(50) 0.4046(30) 0.7275(20)
H24 H -0.6618(50) 0.3953(30) 0.6889(20)
H25 H -0.2811(50) 0.6914(30) 0.6311(20)
H26 H -0.5641(50) 0.5696(30) 0.4375(20)
H27 H -0.7439(50) 0.6349(30) 0.3015(20)
H28 H -0.9260(50) 0.8115(30) 0.2807(20)
H29 H -0.8957(50) 0.9416(30) 0.3860(20)
H30 H -0.7341(50) 0.8762(30) 0.5216(20)
H31 H -0.0778(50) 0.6979(30) 0.5069(20)
H32 H -0.2636(50) 0.7044(30) 0.4395(20)
H33 H -0.2122(50) 0.5863(30) 0.5150(20)
H34 H -0.1739(50) 0.8620(30) 0.5528(20)
H35 H -0.3506(50) 0.8810(30) 0.4795(20)
H36 H -0.3888(50) 0.8814(30) 0.5942(20)
loop_
_geom_bond_atom_site_label_1
_geom_bond_atom_site_label_2
_geom_bond_site_symmetry_1
_geom_bond_site_symmetry_2
S1 C1 1_555 1_555
C1 C5 1_555 1_555
C2 S1 1_555 1_555
C3 C2 1_555 1_555
C4 C3 1_555 1_555
C5 C4 1_555 1_555
C6 C1 1_555 1_555
C7 C2 1_555 1_555
C8 C7 1_555 1_555
C9 C8 1_555 1_555
C10 C8 1_555 1_555
C11 C7 1_555 1_555
C12 C11 1_555 1_555
C13 C12 1_555 1_555
C14 C13 1_555 1_555
C15 C14 1_555 1_555
C16 C11 1_555 1_555
H1 C1 1_555 1_555
H2 C3 1_555 1_555
H3 C4 1_555 1_555
H4 C5 1_555 1_555
H5 C6 1_555 1_555
H6 C6 1_555 1_555
H7 C8 1_555 1_555
H8 C12 1_555 1_555
H9 C13 1_555 1_555
H10 C14 1_555 1_555
H11 C15 1_555 1_555
H12 C16 1_555 1_555
H13 C9 1_555 1_555
H14 C9 1_555 1_555
H15 C9 1_555 1_555
H16 C10 1_555 1_555
H17 C10 1_555 1_555
H18 C10 1_555 1_555
S2 C17 1_555 1_555
C17 C21 1_555 1_555
C18 S2 1_555 1_555
C19 C18 1_555 1_555
C20 C19 1_555 1_555
C21 C20 1_555 1_555
C22 C17 1_555 1_555
C23 C18 1_555 1_555
C24 C23 1_555 1_555
C25 C24 1_555 1_555
C26 C24 1_555 1_555
C27 C23 1_555 1_555
C28 C27 1_555 1_555
C29 C28 1_555 1_555
C30 C29 1_555 1_555
C31 C30 1_555 1_555
C32 C27 1_555 1_555
H19 C17 1_555 1_555
H20 C19 1_555 1_555
H21 C20 1_555 1_555
H22 C21 1_555 1_555
H23 C22 1_555 1_555
H24 C22 1_555 1_555
H25 C24 1_555 1_555
H26 C28 1_555 1_555
H27 C29 1_555 1_555
H28 C30 1_555 1_555
H29 C31 1_555 1_555
H30 C32 1_555 1_555
H31 C25 1_555 1_555
H32 C25 1_555 1_555
H33 C25 1_555 1_555
H34 C26 1_555 1_555
H35 C26 1_555 1_555
H36 C26 1_555 1_555
C3 C6 1_555 1_555
C15 C16 1_555 1_555
C19 C22 1_555 1_555
C31 C32 1_555 1_555

#END
