
#######################################################################
#
#                 Cambridge Crystallographic Data Centre
#                                CCDC 
#
#######################################################################
#
# If this CIF has been generated from an entry in the Cambridge 
# Structural Database, then it will include bibliographic, chemical, 
# crystal, experimental, refinement or atomic coordinate data resulting 
# from the CCDC's data processing and validation procedures.
#
#######################################################################

data_VOBCOG
_chemical_formula_moiety         'C22 H12 F4 N2 S2'
_chemical_name_systematic        
3-(1-Benzothiophen-3-yl)-1-(1-(1-benzothiophen-3-yl)-3,3,3-trifluoroprop-1-en-1-yl)-5-fluoro-1H-pyrazole
_symmetry_cell_setting           monoclinic
_symmetry_space_group_name_H-M   'P 21/c'
_symmetry_Int_Tables_number      14
_space_group_name_Hall           '-P 2ybc'
loop_
_symmetry_equiv_pos_site_id
_symmetry_equiv_pos_as_xyz
1 x,y,z
2 -x,1/2+y,1/2-z
3 -x,-y,-z
4 x,1/2-y,1/2+z
_cell_length_a                   18.2093(17)
_cell_length_b                   10.9559(11)
_cell_length_c                   9.6667(9)
_cell_angle_alpha                90
_cell_angle_beta                 90.363(6)
_cell_angle_gamma                90
_cell_volume                     1928.46
_exptl_crystal_colour            colorless
_exptl_crystal_description       plate
_cell_formula_units_Z            4
loop_
_atom_site_label
_atom_site_type_symbol
_atom_site_fract_x
_atom_site_fract_y
_atom_site_fract_z
C1 C 0.9246(3) 0.1353(5) -0.0579(6)
C2 C 0.9757(3) 0.0940(6) -0.1498(7)
H1 H 1.0175 0.1418 -0.1723
C3 C 0.9645(3) -0.0204(6) -0.2093(8)
H2 H 0.9969 -0.0522 -0.277
C4 C 0.9038(3) -0.0856(6) -0.1650(7)
H3 H 0.8985 -0.1656 -0.2015
C5 C 0.8523(3) -0.0493(5) -0.0772(6)
H4 H 0.8109 -0.0985 -0.0555
C6 C 0.8632(3) 0.0673(5) -0.0187(6)
C7 C 0.8184(3) 0.1305(5) 0.0793(6)
C8 C 0.8472(3) 0.2420(6) 0.1117(7)
H5 H 0.8246 0.2963 0.1752
C9 C 0.7481(3) 0.0770(5) 0.1295(5)
C10 C 0.7395(3) -0.0015(4) 0.2332(6)
H6 H 0.6906 -0.0236 0.256
C11 C 0.7994(3) -0.0578(5) 0.3162(7)
C12 C 0.6743(3) 0.1861(4) -0.0565(5)
C13 C 0.6038(3) 0.2080(4) -0.0819(5)
H7 H 0.5823 0.250 -0.1579
C14 C 0.5686(2) 0.1532(3) 0.0322(5)
C15 C 0.4901(3) 0.1526(3) 0.0594(4)
C16 C 0.4408(3) 0.2165(4) -0.0185(5)
H8 H 0.4547 0.2617 -0.098
C17 C 0.4538(3) 0.0895(4) 0.1721(4)
C18 C 0.3778(3) 0.1137(4) 0.1720(5)
C19 C 0.3309(3) 0.0641(4) 0.2728(5)
H9 H 0.2799 0.082 0.2729
C20 C 0.3618(3) -0.0113(4) 0.3714(5)
H10 H 0.3313 -0.0465 0.4401
C21 C 0.4365(3) -0.0371(4) 0.3725(5)
H11 H 0.4561 -0.0899 0.4415
C22 C 0.4830(3) 0.0128(4) 0.2747(5)
H12 H 0.5341 -0.0048 0.277
F1 F 0.7913(2) -0.0391(4) 0.4510(4)
F2 F 0.7972(2) -0.1798(3) 0.3027(6)
F3 F 0.86684(15) -0.0254(3) 0.2862(4)
F4 F 0.73257(16) 0.2149(2) -0.1342(3)
N1 N 0.6841(2) 0.1247(3) 0.0648(4)
N2 N 0.6167(2) 0.1020(3) 0.1201(4)
S1 S 0.92658(9) 0.27534(12) 0.02919(19)
S2 S 0.35210(7) 0.20927(10) 0.03737(14)
loop_
_geom_bond_atom_site_label_1
_geom_bond_atom_site_label_2
_geom_bond_site_symmetry_1
_geom_bond_site_symmetry_2
C1 C2 1_555 1_555
C2 H1 1_555 1_555
C3 C2 1_555 1_555
H2 C3 1_555 1_555
C4 C3 1_555 1_555
H3 C4 1_555 1_555
C5 C4 1_555 1_555
H4 C5 1_555 1_555
C6 C1 1_555 1_555
C7 C6 1_555 1_555
C8 C7 1_555 1_555
H5 C8 1_555 1_555
C9 C7 1_555 1_555
C10 C9 1_555 1_555
H6 C10 1_555 1_555
C11 C10 1_555 1_555
C12 C13 1_555 1_555
C13 H7 1_555 1_555
C14 C13 1_555 1_555
C15 C14 1_555 1_555
C16 C15 1_555 1_555
H8 C16 1_555 1_555
C17 C15 1_555 1_555
C18 C17 1_555 1_555
C19 C18 1_555 1_555
H9 C19 1_555 1_555
C20 C19 1_555 1_555
H10 C20 1_555 1_555
C21 C20 1_555 1_555
H11 C21 1_555 1_555
C22 C17 1_555 1_555
H12 C22 1_555 1_555
F1 C11 1_555 1_555
F2 C11 1_555 1_555
F3 C11 1_555 1_555
F4 C12 1_555 1_555
N1 C9 1_555 1_555
N2 C14 1_555 1_555
S1 C1 1_555 1_555
S2 C16 1_555 1_555
C5 C6 1_555 1_555
C8 S1 1_555 1_555
C12 N1 1_555 1_555
C18 S2 1_555 1_555
C21 C22 1_555 1_555
N1 N2 1_555 1_555

#END
