
#######################################################################
#
#                 Cambridge Crystallographic Data Centre
#                                CCDC 
#
#######################################################################
#
# If this CIF has been generated from an entry in the Cambridge 
# Structural Database, then it will include bibliographic, chemical, 
# crystal, experimental, refinement or atomic coordinate data resulting 
# from the CCDC's data processing and validation procedures.
#
#######################################################################

data_VOCZET04
_chemical_formula_moiety         'C6 H9 N3,C7 H6 O2'
_chemical_name_systematic        '4,6-dimethylpyrimidin-2-amine benzoic acid'
_symmetry_cell_setting           monoclinic
_symmetry_space_group_name_H-M   'P 21/c'
_symmetry_Int_Tables_number      14
_space_group_name_Hall           '-P 2ybc'
loop_
_symmetry_equiv_pos_site_id
_symmetry_equiv_pos_as_xyz
1 x,y,z
2 -x,1/2+y,1/2-z
3 -x,-y,-z
4 x,1/2-y,1/2+z
_cell_length_a                   6.6977(8)
_cell_length_b                   7.6442(9)
_cell_length_c                   25.255(3)
_cell_angle_alpha                90
_cell_angle_beta                 91.389(2)
_cell_angle_gamma                90
_cell_volume                     1292.64
_exptl_crystal_colour            colorless
_exptl_crystal_description       plates
_cell_formula_units_Z            4
loop_
_atom_site_label
_atom_site_type_symbol
_atom_site_fract_x
_atom_site_fract_y
_atom_site_fract_z
C1 C 0.2834(2) 0.3456(2) 0.50192(7)
C2 C 0.2979(3) 0.3835(2) 0.59171(7)
C3 C 0.4804(3) 0.3025(3) 0.59413(8)
H1 H 0.5479 0.2872 0.6264
C4 C 0.5622(3) 0.2439(2) 0.54755(7)
C5 C 0.1983(4) 0.4478(3) 0.64060(8)
H2 H 0.0714 0.4986 0.6310
H3 H 0.2811 0.5343 0.6578
H4 H 0.1785 0.3515 0.6643
C6 C 0.7599(3) 0.1544(3) 0.54612(8)
H5 H 0.7887 0.1238 0.5102
H6 H 0.7564 0.0503 0.5674
H7 H 0.8618 0.2314 0.5598
N1 N 0.4631(2) 0.26523(18) 0.50146(6)
N2 N 0.1975(2) 0.4071(2) 0.54593(6)
N3 N 0.1837(2) 0.3623(2) 0.45608(6)
H8 H 0.0680 0.4110 0.4551
H9 H 0.2349 0.3243 0.4274
C7 C 0.8891(3) 0.0338(3) 0.34043(8)
H10 H 0.9490 0.0595 0.3731
C8 C 0.9994(4) -0.0426(3) 0.30142(10)
H11 H 1.1336 -0.0678 0.3079
C9 C 0.9144(5) -0.0813(3) 0.25376(11)
H12 H 0.9898 -0.1352 0.2280
C10 C 0.7158(5) -0.0414(4) 0.24315(10)
H13 H 0.6582 -0.0675 0.2102
C11 C 0.6024(4) 0.0380(4) 0.28195(8)
H14 H 0.4698 0.0677 0.2749
C12 C 0.6900(3) 0.0724(2) 0.33125(7)
C13 C 0.5668(3) 0.1468(2) 0.37400(7)
O1 O 0.3935(2) 0.1935(2) 0.36608(6)
O2 O 0.65850(19) 0.1602(2) 0.41951(5)
H15 H 0.5826 0.2022 0.4411
loop_
_geom_bond_atom_site_label_1
_geom_bond_atom_site_label_2
_geom_bond_site_symmetry_1
_geom_bond_site_symmetry_2
C1 N1 1_555 1_555
C2 C3 1_555 1_555
C3 H1 1_555 1_555
C4 C3 1_555 1_555
C5 C2 1_555 1_555
H2 C5 1_555 1_555
H3 C5 1_555 1_555
H4 C5 1_555 1_555
C6 C4 1_555 1_555
H5 C6 1_555 1_555
H6 C6 1_555 1_555
H7 C6 1_555 1_555
N1 C4 1_555 1_555
N2 C1 1_555 1_555
N3 C1 1_555 1_555
H8 N3 1_555 1_555
H9 N3 1_555 1_555
C7 H10 1_555 1_555
C8 C7 1_555 1_555
H11 C8 1_555 1_555
C9 C8 1_555 1_555
H12 C9 1_555 1_555
C10 C9 1_555 1_555
H13 C10 1_555 1_555
C11 C10 1_555 1_555
H14 C11 1_555 1_555
C12 C7 1_555 1_555
C13 C12 1_555 1_555
O1 C13 1_555 1_555
O2 C13 1_555 1_555
H15 O2 1_555 1_555
C2 N2 1_555 1_555
C11 C12 1_555 1_555

#END
