
#######################################################################
#
#                 Cambridge Crystallographic Data Centre
#                                CCDC 
#
#######################################################################
#
# If this CIF has been generated from an entry in the Cambridge 
# Structural Database, then it will include bibliographic, chemical, 
# crystal, experimental, refinement or atomic coordinate data resulting 
# from the CCDC's data processing and validation procedures.
#
#######################################################################

data_VODFUP
_chemical_formula_moiety         'C18 H7 N5 O11,2(C4 H8 O2)'
_chemical_name_systematic        
'9-(5-Nitrofuran-2-methylidene)-2,4,5,7-tetranitrofluorene dioxane solvate'
_symmetry_cell_setting           monoclinic
_symmetry_space_group_name_H-M   'P 21/n'
_symmetry_Int_Tables_number      14
_space_group_name_Hall           '-P 2yn'
loop_
_symmetry_equiv_pos_site_id
_symmetry_equiv_pos_as_xyz
1 x,y,z
2 1/2+x,1/2-y,1/2+z
3 -x,-y,-z
4 1/2-x,1/2+y,1/2-z
_cell_length_a                   15.588(5)
_cell_length_b                   8.667(3)
_cell_length_c                   21.798(4)
_cell_angle_alpha                90
_cell_angle_beta                 109.43(2)
_cell_angle_gamma                90
_cell_volume                     2777.22
_exptl_crystal_colour            amber
_exptl_crystal_description       plate
_cell_formula_units_Z            4
loop_
_atom_site_label
_atom_site_type_symbol
_atom_site_fract_x
_atom_site_fract_y
_atom_site_fract_z
O1 O 0.59179(15) 0.3916(3) 0.50299(10)
O2 O 0.73832(16) 0.4063(2) 0.53394(9)
O3 O 0.90349(14) 0.4467(3) 0.76953(10)
O4 O 0.85174(13) 0.6525(3) 0.80236(10)
O5 O 0.80064(14) 0.3741(3) 0.85807(10)
O6 O 0.84648(14) 0.5587(3) 0.92939(10)
O7 O 0.57925(15) 0.6946(3) 0.99089(10)
O8 O 0.44664(17) 0.7017(3) 0.91700(10)
O9 O 0.30082(16) 0.8836(3) 0.81301(11)
O10 O 0.16623(18) 0.9421(3) 0.74617(12)
O11 O 0.34853(13) 0.7646(2) 0.71979(8)
N1 N 0.6660(2) 0.4186(3) 0.54399(11)
N2 N 0.84228(18) 0.5363(3) 0.76777(11)
N3 N 0.78888(18) 0.4953(3) 0.88354(12)
N4 N 0.5291(2) 0.6845(3) 0.93418(13)
N5 N 0.2426(2) 0.8855(3) 0.75899(14)
C1 C 0.5879(2) 0.5068(3) 0.61781(13)
H1 H 0.5323 0.5065 0.5823
C2 C 0.6678(2) 0.4660(3) 0.60920(13)
C3 C 0.7513(2) 0.4714(3) 0.65826(14)
H2 H 0.8060 0.4487 0.6499
C4 C 0.75204(19) 0.5116(3) 0.71968(13)
C5 C 0.69838(19) 0.5660(3) 0.85870(13)
C6 C 0.6606(2) 0.6066(3) 0.90516(14)
H3 H 0.6957 0.6056 0.9501
C7 C 0.5704(2) 0.6495(3) 0.88446(13)
C8 C 0.5169(2) 0.6538(3) 0.82014(13)
H4 H 0.4544 0.6812 0.8080
C9 C 0.51608(19) 0.6036(3) 0.70195(13)
C10 C 0.59016(19) 0.5481(3) 0.67995(13)
C11 C 0.6721(2) 0.5426(3) 0.73313(13)
C12 C 0.6499(2) 0.5757(3) 0.79232(13)
C13 C 0.55610(19) 0.6176(3) 0.77334(13)
C14 C 0.43261(19) 0.6348(3) 0.65833(13)
H5 H 0.4271 0.6040 0.6154
C15 C 0.3516(2) 0.7016(3) 0.66246(13)
C16 C 0.2681(2) 0.7171(3) 0.61564(14)
H6 H 0.2521 0.6836 0.5718
C17 C 0.2105(2) 0.7908(3) 0.64385(14)
H7 H 0.1483 0.8173 0.6236
C18 C 0.2626(2) 0.8161(3) 0.70609(14)
O12 O 0.55282(16) 0.9940(3) 0.87855(13)
C19 C 0.4895(2) 1.0673(4) 0.8235(2)
H8 H 0.4284 1.0667 0.8280
H9 H 0.4859 1.0092 0.7836
C20 C 0.5176(3) 1.2289(4) 0.81730(17)
H10 H 0.5772 1.2295 0.8103
H11 H 0.4723 1.2782 0.7792
O13 O 0.52328(15) 1.3141(3) 0.87465(11)
C21 C 0.5861(2) 1.2412(4) 0.92980(17)
H12 H 0.5884 1.2986 0.9696
H13 H 0.6476 1.2432 0.9260
C22 C 0.5589(3) 1.0803(4) 0.93585(18)
H14 H 0.6043 1.0311 0.9739
H15 H 0.4994 1.0791 0.9431
O14 O 0.6545(3) 0.7347(5) 0.4658(2)
C23 C 0.5678(3) 0.8205(4) 0.4390(2)
H16 H 0.5422 0.8386 0.4728
H17 H 0.5248 0.7626 0.4049
C24 C 0.5902(2) 0.9714(4) 0.4145(2)
H20 H 0.6293 1.0319 0.4496
H21 H 0.5349 1.0281 0.3951
O16 O 0.6369(3) 0.9429(4) 0.36224(16)
C25 C 0.7185(3) 0.8652(4) 0.3999(2)
H24 H 0.7522 0.9278 0.4363
H25 H 0.7557 0.8490 0.3731
C26 C 0.6960(3) 0.7124(4) 0.4233(2)
H28 H 0.6575 0.6534 0.3874
H29 H 0.7511 0.6554 0.4428
O15? O 0.5923(4) 0.7035(8) 0.4111(3)
H18? H 0.5035 0.8140 0.4310
H19? H 0.5980 0.8174 0.4852
H22? H 0.5586 1.0554 0.4262
H23? H 0.5747 0.9682 0.3681
O17? O 0.6876(4) 0.9841(7) 0.4456(3)
H26? H 0.6838 0.8810 0.3549
H27? H 0.7821 0.8741 0.4057
H30? H 0.7302 0.7012 0.4687
H31? H 0.7129 0.6302 0.4001
loop_
_geom_bond_atom_site_label_1
_geom_bond_atom_site_label_2
_geom_bond_site_symmetry_1
_geom_bond_site_symmetry_2
O1 N1 1_555 1_555
O2 N1 1_555 1_555
O3 N2 1_555 1_555
O4 N2 1_555 1_555
O5 N3 1_555 1_555
O6 N3 1_555 1_555
O7 N4 1_555 1_555
O8 N4 1_555 1_555
O9 N5 1_555 1_555
O10 N5 1_555 1_555
O11 C15 1_555 1_555
N1 C2 1_555 1_555
N2 C4 1_555 1_555
N3 C5 1_555 1_555
N4 C7 1_555 1_555
N5 C18 1_555 1_555
C1 H1 1_555 1_555
C2 C1 1_555 1_555
C3 C2 1_555 1_555
H2 C3 1_555 1_555
C4 C3 1_555 1_555
C5 C6 1_555 1_555
C6 H3 1_555 1_555
C7 C6 1_555 1_555
C8 C7 1_555 1_555
H4 C8 1_555 1_555
C9 C10 1_555 1_555
C10 C1 1_555 1_555
C11 C4 1_555 1_555
C12 C5 1_555 1_555
C13 C8 1_555 1_555
C14 C9 1_555 1_555
H5 C14 1_555 1_555
C15 C14 1_555 1_555
C16 C15 1_555 1_555
H6 C16 1_555 1_555
C17 C16 1_555 1_555
H7 C17 1_555 1_555
C18 O11 1_555 1_555
O12 C19 1_555 1_555
C19 H8 1_555 1_555
H9 C19 1_555 1_555
C20 C19 1_555 1_555
H10 C20 1_555 1_555
H11 C20 1_555 1_555
O13 C20 1_555 1_555
C21 O13 1_555 1_555
H12 C21 1_555 1_555
H13 C21 1_555 1_555
C22 O12 1_555 1_555
H14 C22 1_555 1_555
H15 C22 1_555 1_555
O14 C23 1_555 1_555
C23 H16 1_555 1_555
H17 C23 1_555 1_555
C24 C23 1_555 1_555
H20 C24 1_555 1_555
H21 C24 1_555 1_555
O16 C24 1_555 1_555
C25 O16 1_555 1_555
H24 C25 1_555 1_555
H25 C25 1_555 1_555
C26 O14 1_555 1_555
H28 C26 1_555 1_555
H29 C26 1_555 1_555
C9 C13 1_555 1_555
C10 C11 1_555 1_555
C11 C12 1_555 1_555
C12 C13 1_555 1_555
C17 C18 1_555 1_555
C21 C22 1_555 1_555
C25 C26 1_555 1_555

#END
