
#######################################################################
#
#                 Cambridge Crystallographic Data Centre
#                                CCDC 
#
#######################################################################
#
# If this CIF has been generated from an entry in the Cambridge 
# Structural Database, then it will include bibliographic, chemical, 
# crystal, experimental, refinement or atomic coordinate data resulting 
# from the CCDC's data processing and validation procedures.
#
#######################################################################

data_VOHDIH
_chemical_formula_moiety         'C25 H37 N1 O4'
_chemical_name_systematic        
3a-Hydroxy-3-isopropyl-2,5,5,9,11b-pentamethyl-3,3a,5b,7a,8,9,10,11,11a,11b-decahydro-5H-benzo[4',5']indeno[2',1':3,4]furo[2,3-c]pyrrole-1,12(2H,5aH)-dione
_symmetry_cell_setting           orthorhombic
_symmetry_space_group_name_H-M   'P 21 21 21'
_symmetry_Int_Tables_number      19
_space_group_name_Hall           'P 2ac 2ab'
loop_
_symmetry_equiv_pos_site_id
_symmetry_equiv_pos_as_xyz
1 x,y,z
2 1/2-x,-y,1/2+z
3 -x,1/2+y,1/2-z
4 1/2+x,1/2-y,-z
_cell_length_a                   6.8794(5)
_cell_length_b                   14.9305(10)
_cell_length_c                   22.2706(15)
_cell_angle_alpha                90
_cell_angle_beta                 90
_cell_angle_gamma                90
_cell_volume                     2287.48
_exptl_crystal_colour            colorless
_exptl_crystal_description       block
_cell_formula_units_Z            4
loop_
_atom_site_label
_atom_site_type_symbol
_atom_site_fract_x
_atom_site_fract_y
_atom_site_fract_z
O1 O 0.0402(2) 0.69430(12) 0.20610(9)
O2 O 0.6930(2) 0.61324(12) 0.23472(8)
O3 O 0.3697(3) 0.75616(11) 0.29552(7)
O4 O 0.1121(2) 0.55286(10) 0.17335(8)
N1 N 0.5105(3) 0.66097(13) 0.15459(8)
C1 C 0.3685(4) 0.60604(16) 0.39413(11)
H1 H 0.4691 0.5681 0.3740
C2 C 0.4758(4) 0.68483(17) 0.42228(12)
H2 H 0.5413 0.7199 0.3904
H3 H 0.3815 0.7246 0.4427
C3 C 0.6256(5) 0.65203(19) 0.46727(12)
H4 H 0.6898 0.7045 0.4859
H5 H 0.7264 0.6173 0.4457
C4 C 0.5389(4) 0.59370(18) 0.51662(12)
H6 H 0.4456 0.6308 0.5404
C5 C 0.4275(4) 0.51684(18) 0.48802(12)
H7 H 0.3627 0.4818 0.5200
H8 H 0.5208 0.4767 0.4675
C6 C 0.2749(4) 0.54762(19) 0.44280(11)
H9 H 0.1780 0.5853 0.4647
C7 C 0.1684(4) 0.47072(19) 0.41515(13)
H10 H 0.1373 0.4211 0.4401
C8 C 0.1150(4) 0.46751(19) 0.35854(13)
H11 H 0.0562 0.4140 0.3444
C9 C 0.1412(4) 0.54343(16) 0.31471(11)
H12 H 0.0114 0.5567 0.2966
C10 C 0.2149(4) 0.63021(16) 0.34505(11)
C11 C 0.3153(3) 0.67932(16) 0.29412(11)
C12 C 0.3401(3) 0.61783(15) 0.24019(10)
C13 C 0.2853(3) 0.52386(15) 0.26239(11)
H13 H 0.4024 0.4908 0.2771
C14 C 0.1989(4) 0.47844(15) 0.20679(12)
C15 C 0.1915(3) 0.63669(15) 0.18974(11)
C16 C 0.3089(3) 0.67544(16) 0.13621(11)
H14 H 0.2836 0.6363 0.1006
C17 C 0.5353(3) 0.62989(16) 0.21049(11)
C18 C 0.6713(4) 0.6695(3) 0.11267(14)
H15 H 0.709(4) 0.7310(19) 0.1089(12)
H16 H 0.783(4) 0.6298(17) 0.1263(11)
H17 H 0.627(4) 0.6510(17) 0.0716(13)
C19 C 0.2628(4) 0.77275(16) 0.11754(12)
H18 H 0.1192 0.7801 0.1224
C20 C 0.3554(4) 0.84256(16) 0.15761(12)
H19 H 0.3201 0.9025 0.1433
H20 H 0.4970 0.8358 0.1566
H21 H 0.3090 0.8347 0.1989
C21 C 0.3051(5) 0.7905(2) 0.05197(12)
H22 H 0.2733 0.8528 0.0424
H23 H 0.2262 0.7504 0.0271
H24 H 0.4432 0.7796 0.0440
C22 C 0.3554(5) 0.43593(19) 0.16834(13)
H25 H 0.2956 0.4080 0.1331
H26 H 0.4242 0.3903 0.1918
H27 H 0.4476 0.4820 0.1553
C23 C 0.0333(5) 0.41275(18) 0.21812(14)
H28 H -0.0121 0.3883 0.1798
H29 H -0.0740 0.4439 0.2382
H30 H 0.0795 0.3638 0.2437
C24 C 0.6964(5) 0.5596(2) 0.55873(13)
H31 H 0.6373 0.5226 0.5901
H32 H 0.7632 0.6106 0.5772
H33 H 0.7902 0.5237 0.5360
C25 C 0.0496(4) 0.6885(2) 0.36957(14)
H34 H -0.0435 0.7011 0.3373
H35 H 0.1030 0.7449 0.3848
H36 H -0.0165 0.6566 0.4022
H37 H -0.054(4) 0.6613(19) 0.2140(13)
loop_
_geom_bond_atom_site_label_1
_geom_bond_atom_site_label_2
_geom_bond_site_symmetry_1
_geom_bond_site_symmetry_2
O1 C15 1_555 1_555
O2 C17 1_555 1_555
O3 C11 1_555 1_555
O4 C14 1_555 1_555
N1 C16 1_555 1_555
C1 H1 1_555 1_555
C2 C1 1_555 1_555
H2 C2 1_555 1_555
H3 C2 1_555 1_555
C3 C2 1_555 1_555
H4 C3 1_555 1_555
H5 C3 1_555 1_555
C4 C3 1_555 1_555
H6 C4 1_555 1_555
C5 C4 1_555 1_555
H7 C5 1_555 1_555
H8 C5 1_555 1_555
C6 C1 1_555 1_555
H9 C6 1_555 1_555
C7 C6 1_555 1_555
H10 C7 1_555 1_555
C8 C7 1_555 1_555
H11 C8 1_555 1_555
C9 C8 1_555 1_555
H12 C9 1_555 1_555
C10 C1 1_555 1_555
C11 C10 1_555 1_555
C12 C11 1_555 1_555
C13 C9 1_555 1_555
H13 C13 1_555 1_555
C14 C13 1_555 1_555
C15 O4 1_555 1_555
C16 C15 1_555 1_555
H14 C16 1_555 1_555
C17 N1 1_555 1_555
C18 N1 1_555 1_555
H15 C18 1_555 1_555
H16 C18 1_555 1_555
H17 C18 1_555 1_555
C19 C16 1_555 1_555
H18 C19 1_555 1_555
C20 C19 1_555 1_555
H19 C20 1_555 1_555
H20 C20 1_555 1_555
H21 C20 1_555 1_555
C21 C19 1_555 1_555
H22 C21 1_555 1_555
H23 C21 1_555 1_555
H24 C21 1_555 1_555
C22 C14 1_555 1_555
H25 C22 1_555 1_555
H26 C22 1_555 1_555
H27 C22 1_555 1_555
C23 C14 1_555 1_555
H28 C23 1_555 1_555
H29 C23 1_555 1_555
H30 C23 1_555 1_555
C24 C4 1_555 1_555
H31 C24 1_555 1_555
H32 C24 1_555 1_555
H33 C24 1_555 1_555
C25 C10 1_555 1_555
H34 C25 1_555 1_555
H35 C25 1_555 1_555
H36 C25 1_555 1_555
H37 O1 1_555 1_555
C5 C6 1_555 1_555
C9 C10 1_555 1_555
C12 C13 1_555 1_555
C12 C15 1_555 1_555
C12 C17 1_555 1_555

#END
