
#######################################################################
#
#                 Cambridge Crystallographic Data Centre
#                                CCDC 
#
#######################################################################
#
# If this CIF has been generated from an entry in the Cambridge 
# Structural Database, then it will include bibliographic, chemical, 
# crystal, experimental, refinement or atomic coordinate data resulting 
# from the CCDC's data processing and validation procedures.
#
#######################################################################

data_VOHJOT
_chemical_formula_moiety         'C14 H21 N3 O5,C1 H4 O1'
_chemical_name_systematic        
'4-((N-(t-butoxycarbonyl)-\b-alanyl)amino)-1-methyl-1H-pyrrole-2-carboxylic acid methanol solvate'
_symmetry_cell_setting           monoclinic
_symmetry_space_group_name_H-M   'P 21/c'
_symmetry_Int_Tables_number      14
_space_group_name_Hall           '-P 2ybc'
loop_
_symmetry_equiv_pos_site_id
_symmetry_equiv_pos_as_xyz
1 x,y,z
2 -x,1/2+y,1/2-z
3 -x,-y,-z
4 x,1/2-y,1/2+z
_cell_length_a                   8.6327(4)
_cell_length_b                   8.4467(4)
_cell_length_c                   24.0094(12)
_cell_angle_alpha                90
_cell_angle_beta                 95.597(3)
_cell_angle_gamma                90
_cell_volume                     1742.37
_exptl_crystal_colour            colorless
_exptl_crystal_description       block
_cell_formula_units_Z            4
loop_
_atom_site_label
_atom_site_type_symbol
_atom_site_fract_x
_atom_site_fract_y
_atom_site_fract_z
O1 O 0.62939(9) 1.35880(9) 0.51688(3)
O2 O 0.43289(9) 1.35731(10) 0.44834(3)
O3 O 0.69214(9) 0.59078(10) 0.40811(3)
O4 O 0.69170(10) 0.40737(11) 0.21110(3)
O5 O 0.94176(9) 0.41613(10) 0.25147(3)
N1 N 0.70991(10) 1.04403(11) 0.48031(4)
N2 N 0.53940(10) 0.78895(11) 0.37135(4)
N3 N 0.75137(11) 0.39221(12) 0.30512(4)
C1 C 0.59034(11) 1.13670(12) 0.45685(4)
C2 C 0.51225(12) 1.05304(12) 0.41315(4)
H1 H 0.4248 1.0886 0.3894
C3 C 0.58650(12) 0.90613(12) 0.41057(4)
C4 C 0.70885(12) 0.90362(13) 0.45252(4)
H2 H 0.7796 0.8186 0.4605
C5 C 0.82253(13) 1.08476(14) 0.52720(5)
H3 H 0.8893 0.9931 0.5371
H4 H 0.7675 1.1150 0.5594
H5 H 0.8867 1.1736 0.5167
C6 C 0.55496(12) 1.29293(12) 0.47723(4)
C7 C 0.59164(12) 0.63883(13) 0.37222(4)
C8 C 0.51377(13) 0.53615(14) 0.32586(5)
H6 H 0.5119 0.5945 0.2900
H7 H 0.4046 0.5171 0.3333
C9 C 0.59311(13) 0.37776(13) 0.31958(5)
H8 H 0.5937 0.3185 0.3552
H9 H 0.5319 0.3155 0.2902
C10 C 0.78668(12) 0.40502(12) 0.25229(4)
C11 C 1.01458(13) 0.42735(15) 0.19862(4)
C12 C 0.95855(15) 0.57358(14) 0.16635(5)
H10 H 0.8494 0.5596 0.1517
H11 H 1.0221 0.5902 0.1352
H12 H 0.9679 0.6657 0.1912
C13 C 0.98512(16) 0.27564(15) 0.16528(5)
H13 H 1.0163 0.1845 0.1890
H14 H 1.0459 0.2770 0.1329
H15 H 0.8741 0.2675 0.1524
C14 C 1.18554(15) 0.4440(2) 0.21966(6)
H16 H 1.1998 0.5375 0.2438
H17 H 1.2472 0.4558 0.1877
H18 H 1.2199 0.3494 0.2411
H19 H 0.4672(13) 0.8132(19) 0.3442(4)
H20 H 0.413(2) 1.4455(10) 0.4624(7)
H21 H 0.8251(14) 0.390(2) 0.3331(5)
C15 C 1.06313(16) 0.41191(19) 0.43201(7)
H22 H 1.0755 0.5118 0.4121
H23 H 1.1388 0.3345 0.4208
H24 H 1.0807 0.4302 0.4724
O6 O 0.91209(10) 0.35368(11) 0.41860(4)
H25 H 0.8553(19) 0.4321(15) 0.4238(8)
loop_
_geom_bond_atom_site_label_1
_geom_bond_atom_site_label_2
_geom_bond_site_symmetry_1
_geom_bond_site_symmetry_2
O1 C6 1_555 1_555
O2 C6 1_555 1_555
O3 C7 1_555 1_555
O4 C10 1_555 1_555
O5 C10 1_555 1_555
N1 C1 1_555 1_555
N2 C3 1_555 1_555
N3 C9 1_555 1_555
C1 C2 1_555 1_555
C2 H1 1_555 1_555
C3 C2 1_555 1_555
C4 N1 1_555 1_555
H2 C4 1_555 1_555
C5 N1 1_555 1_555
H3 C5 1_555 1_555
H4 C5 1_555 1_555
H5 C5 1_555 1_555
C6 C1 1_555 1_555
C7 N2 1_555 1_555
C8 C7 1_555 1_555
H6 C8 1_555 1_555
H7 C8 1_555 1_555
C9 C8 1_555 1_555
H8 C9 1_555 1_555
H9 C9 1_555 1_555
C10 N3 1_555 1_555
C11 O5 1_555 1_555
C12 C11 1_555 1_555
H10 C12 1_555 1_555
H11 C12 1_555 1_555
H12 C12 1_555 1_555
C13 C11 1_555 1_555
H13 C13 1_555 1_555
H14 C13 1_555 1_555
H15 C13 1_555 1_555
C14 C11 1_555 1_555
H16 C14 1_555 1_555
H17 C14 1_555 1_555
H18 C14 1_555 1_555
H19 N2 1_555 1_555
H20 O2 1_555 1_555
H21 N3 1_555 1_555
C15 H22 1_555 1_555
H23 C15 1_555 1_555
H24 C15 1_555 1_555
O6 C15 1_555 1_555
H25 O6 1_555 1_555
C3 C4 1_555 1_555

#END
