
#######################################################################
#
#                 Cambridge Crystallographic Data Centre
#                                CCDC 
#
#######################################################################
#
# If this CIF has been generated from an entry in the Cambridge 
# Structural Database, then it will include bibliographic, chemical, 
# crystal, experimental, refinement or atomic coordinate data resulting 
# from the CCDC's data processing and validation procedures.
#
#######################################################################

data_VOHJAF
_chemical_formula_moiety         'C33 H27 N2 O2 P1'
_chemical_name_systematic        
'1,1-dicyano-3-(methoxycarbonyl)-2-(4-methylphenyl)-4-(triphenylphosphonio)but-2-en-1-ide unknown solvate'
_symmetry_cell_setting           monoclinic
_symmetry_space_group_name_H-M   'P 21/n'
_symmetry_Int_Tables_number      14
_space_group_name_Hall           '-P 2yn'
loop_
_symmetry_equiv_pos_site_id
_symmetry_equiv_pos_as_xyz
1 x,y,z
2 1/2-x,1/2+y,1/2-z
3 -x,-y,-z
4 1/2+x,1/2-y,1/2+z
_cell_length_a                   11.6581(8)
_cell_length_b                   18.6920(13)
_cell_length_c                   13.6525(10)
_cell_angle_alpha                90
_cell_angle_beta                 93.057(2)
_cell_angle_gamma                90
_cell_volume                     2970.83
_exptl_crystal_colour            yellow
_exptl_crystal_description       prismatic
_cell_formula_units_Z            4
loop_
_atom_site_label
_atom_site_type_symbol
_atom_site_fract_x
_atom_site_fract_y
_atom_site_fract_z
P1 P 0.81246(3) 0.08824(2) 0.63943(3)
N1 N 0.59569(14) 0.02399(11) 0.25822(17)
N2 N 0.78458(17) 0.19599(11) 0.13913(16)
O1 O 0.79108(11) -0.05668(7) 0.48561(10)
O2 O 0.83213(9) -0.04105(6) 0.32861(9)
C1 C 0.90502(12) 0.06937(9) 0.53841(12)
H1 H 0.9584 0.1090 0.5349
H2 H 0.9502 0.0274 0.5567
C2 C 0.85382(12) 0.05688(8) 0.43615(12)
C3 C 0.83911(12) 0.11183(9) 0.36929(13)
C4 C 0.76575(13) 0.10978(10) 0.28276(13)
C5 C 0.67320(14) 0.06096(10) 0.26944(14)
C6 C 0.77699(15) 0.15825(10) 0.20495(15)
C7 C 0.89782(14) 0.18226(9) 0.38865(13)
C8 C 0.83448(18) 0.24412(10) 0.39326(17)
H3 H 0.7551 0.2421 0.3825
C9 C 0.8867(2) 0.30902(11) 0.4136(2)
H4 H 0.8415 0.3498 0.4180
C10 C 1.0044(2) 0.31480(12) 0.42751(18)
C11 C 1.06806(18) 0.25302(12) 0.42220(17)
H5 H 1.1476 0.2554 0.4317
C12 C 1.01646(15) 0.18738(10) 0.40305(14)
H6 H 1.0615 0.1465 0.3998
C13 C 1.0620(3) 0.38683(14) 0.4488(3)
H7 H 1.1321 0.3896 0.4151
H8 H 1.0789 0.3915 0.5181
H9 H 1.0114 0.4247 0.4266
C14 C 0.81925(12) -0.01748(9) 0.42022(13)
C15 C 0.79431(17) -0.11344(11) 0.30737(17)
H10 H 0.8169 -0.1440 0.3615
H11 H 0.8287 -0.1302 0.2493
H12 H 0.7122 -0.1142 0.2972
C16 C 0.67261(12) 0.12077(9) 0.60283(13)
C17 C 0.60448(14) 0.08462(9) 0.53188(14)
H13 H 0.6337 0.0455 0.4994
C18 C 0.49374(14) 0.10719(11) 0.51027(16)
H14 H 0.4480 0.0832 0.4630
C19 C 0.45027(15) 0.16514(11) 0.55814(18)
H15 H 0.3755 0.1804 0.5428
C20 C 0.51644(17) 0.20041(11) 0.62817(19)
H16 H 0.4862 0.2392 0.6607
C21 C 0.62760(16) 0.17882(10) 0.65091(17)
H17 H 0.6724 0.2031 0.6985
C22 C 0.88537(14) 0.15625(10) 0.71201(15)
C23 C 0.93293(16) 0.21425(10) 0.66554(18)
H18 H 0.9267 0.2178 0.5975
C24 C 0.98968(18) 0.26674(12) 0.7206(2)
H19 H 1.0227 0.3052 0.6893
C25 C 0.9974(2) 0.26241(18) 0.8190(3)
H20 H 1.0360 0.2978 0.8556
C26 C 0.9497(3) 0.2073(2) 0.8647(3)
H21 H 0.9545 0.2055 0.9329
C27 C 0.8930(2) 0.15268(15) 0.81216(18)
H22 H 0.8610 0.1145 0.8447
C28 C 0.79886(14) 0.01005(9) 0.71301(12)
C29 C 0.69222(16) -0.01306(10) 0.74124(15)
H23 H 0.6262 0.0123 0.7220
C30 C 0.6849(2) -0.07331(12) 0.79757(18)
H24 H 0.6136 -0.0884 0.8171
C31 C 0.7816(2) -0.11156(13) 0.82541(18)
H25 H 0.7753 -0.1528 0.8628
C32 C 0.8874(2) -0.08927(12) 0.79844(17)
H26 H 0.9528 -0.1153 0.8177
C33 C 0.89695(17) -0.02845(11) 0.74286(15)
H27 H 0.9688 -0.0130 0.7252
loop_
_geom_bond_atom_site_label_1
_geom_bond_atom_site_label_2
_geom_bond_site_symmetry_1
_geom_bond_site_symmetry_2
P1 C1 1_555 1_555
N1 C5 1_555 1_555
N2 C6 1_555 1_555
O1 C14 1_555 1_555
O2 C14 1_555 1_555
C1 H1 1_555 1_555
H2 C1 1_555 1_555
C2 C1 1_555 1_555
C3 C2 1_555 1_555
C4 C3 1_555 1_555
C5 C4 1_555 1_555
C6 C4 1_555 1_555
C7 C3 1_555 1_555
C8 C7 1_555 1_555
H3 C8 1_555 1_555
C9 C8 1_555 1_555
H4 C9 1_555 1_555
C10 C9 1_555 1_555
C11 C10 1_555 1_555
H5 C11 1_555 1_555
C12 C7 1_555 1_555
H6 C12 1_555 1_555
C13 C10 1_555 1_555
H7 C13 1_555 1_555
H8 C13 1_555 1_555
H9 C13 1_555 1_555
C14 C2 1_555 1_555
C15 O2 1_555 1_555
H10 C15 1_555 1_555
H11 C15 1_555 1_555
H12 C15 1_555 1_555
C16 P1 1_555 1_555
C17 C16 1_555 1_555
H13 C17 1_555 1_555
C18 C17 1_555 1_555
H14 C18 1_555 1_555
C19 C18 1_555 1_555
H15 C19 1_555 1_555
C20 C19 1_555 1_555
H16 C20 1_555 1_555
C21 C16 1_555 1_555
H17 C21 1_555 1_555
C22 P1 1_555 1_555
C23 C22 1_555 1_555
H18 C23 1_555 1_555
C24 C23 1_555 1_555
H19 C24 1_555 1_555
C25 C24 1_555 1_555
H20 C25 1_555 1_555
C26 C25 1_555 1_555
H21 C26 1_555 1_555
C27 C22 1_555 1_555
H22 C27 1_555 1_555
C28 P1 1_555 1_555
C29 C28 1_555 1_555
H23 C29 1_555 1_555
C30 C29 1_555 1_555
H24 C30 1_555 1_555
C31 C30 1_555 1_555
H25 C31 1_555 1_555
C32 C31 1_555 1_555
H26 C32 1_555 1_555
C33 C28 1_555 1_555
H27 C33 1_555 1_555
C11 C12 1_555 1_555
C20 C21 1_555 1_555
C26 C27 1_555 1_555
C32 C33 1_555 1_555

#END
