
#######################################################################
#
#                 Cambridge Crystallographic Data Centre
#                                CCDC 
#
#######################################################################
#
# If this CIF has been generated from an entry in the Cambridge 
# Structural Database, then it will include bibliographic, chemical, 
# crystal, experimental, refinement or atomic coordinate data resulting 
# from the CCDC's data processing and validation procedures.
#
#######################################################################

data_VOHXIB
_chemical_formula_moiety         'C16 H20 O7'
_chemical_name_systematic        
(2R,3S,4R,1aS,4aS,10R)-2,3,4,8,10-Pentahydroxy-6-methoxy-3-methyl-1,3,4,4a,9a,10-hexahydroanthracen-9(2H)-one
_chemical_properties_biological  
'hydrolysis product from compound extracted from fermentation of fungus Stemphylium sp. 33231 from the mangrove Bruguiera sexangula var. rhynchopetala'
_symmetry_cell_setting           orthorhombic
_symmetry_space_group_name_H-M   'P 21 21 21'
_symmetry_Int_Tables_number      19
_space_group_name_Hall           'P 2ac 2ab'
loop_
_symmetry_equiv_pos_site_id
_symmetry_equiv_pos_as_xyz
1 x,y,z
2 1/2-x,-y,1/2+z
3 1/2+x,1/2-y,-z
4 -x,1/2+y,1/2-z
_cell_length_a                   5.66941(19)
_cell_length_b                   10.8760(4)
_cell_length_c                   23.9077(7)
_cell_angle_alpha                90
_cell_angle_beta                 90
_cell_angle_gamma                90
_cell_volume                     1474.16
_cell_formula_units_Z            4
_exptl_crystal_recrystallization_method chloroform/methanol
loop_
_atom_site_label
_atom_site_type_symbol
_atom_site_fract_x
_atom_site_fract_y
_atom_site_fract_z
O1 O 0.6388(2) 0.15631(10) 0.14118(5)
O2 O 0.39520(19) 0.41492(10) 0.31080(4)
H1 H 0.3959 0.4855 0.3229
O3 O 0.3056(2) 0.62881(10) 0.14407(5)
O4 O 0.1881(2) 0.17667(10) 0.32408(4)
O5 O 0.9091(2) 0.21512(11) 0.05997(5)
H2 H 0.8562 0.1722 0.0852
O6 O -0.0853(2) 0.43187(10) 0.20957(5)
H3 H -0.1391 0.4934 0.1944
C1 C 0.1403(3) 0.45936(13) 0.23250(6)
H4 H 0.1468 0.5475 0.2408
C2 C 0.5686(3) 0.55034(15) 0.05506(6)
H5 H 0.4935 0.6262 0.0528
C3 C 0.7530(3) 0.52233(15) 0.01820(6)
O7 O 0.8049(3) 0.61316(11) -0.01855(5)
C4 C 0.1685(3) 0.38782(13) 0.28769(6)
C5 C 0.3358(3) 0.42881(13) 0.19055(6)
H6 H 0.4871 0.4533 0.2069
C6 C 0.7955(3) 0.32352(15) 0.05927(6)
C7 C 0.3645(3) 0.21598(14) 0.23320(6)
H7 H 0.3543 0.1289 0.2248
H8 H 0.5169 0.2314 0.2502
C8 C 0.3044(3) 0.49796(13) 0.13544(6)
H9 H 0.1525 0.4745 0.1190
C9 C 0.1706(3) 0.25052(13) 0.27401(6)
H10 H 0.0196 0.2309 0.2562
C10 C 0.4985(3) 0.46614(14) 0.09445(6)
C11 C 0.3441(3) 0.29002(13) 0.17886(6)
H11 H 0.1950 0.2672 0.1610
C12 C 0.6094(3) 0.34938(14) 0.09716(6)
C13 C 0.8683(3) 0.41045(16) 0.02020(6)
H12 H 0.9922 0.3936 -0.0041
C14 C 0.5405(3) 0.25926(14) 0.13865(6)
C15 C -0.0252(3) 0.42041(15) 0.32898(6)
H13 H 0.0037 0.3794 0.3639
H14 H -0.1749 0.3947 0.3143
H15 H -0.0268 0.5077 0.3349
C16 C 0.9885(5) 0.59013(19) -0.05816(8)
H16 H 0.9983 0.6576 -0.0839
H17 H 0.9546 0.5158 -0.0783
H18 H 1.1361 0.5815 -0.0388
H19 H 0.321(5) 0.1866(19) 0.3367(9)
H20 H 0.163(6) 0.654(2) 0.1447(11)
loop_
_geom_bond_atom_site_label_1
_geom_bond_atom_site_label_2
_geom_bond_site_symmetry_1
_geom_bond_site_symmetry_2
O1 C14 1_555 1_555
O2 H1 1_555 1_555
O3 C8 1_555 1_555
O4 C9 1_555 1_555
O5 H2 1_555 1_555
O6 H3 1_555 1_555
C1 O6 1_555 1_555
H4 C1 1_555 1_555
C2 H5 1_555 1_555
C3 C2 1_555 1_555
O7 C3 1_555 1_555
C4 O2 1_555 1_555
C5 C1 1_555 1_555
H6 C5 1_555 1_555
C6 O5 1_555 1_555
C7 H7 1_555 1_555
H8 C7 1_555 1_555
C8 C5 1_555 1_555
H9 C8 1_555 1_555
C9 C4 1_555 1_555
H10 C9 1_555 1_555
C10 C2 1_555 1_555
C11 C5 1_555 1_555
H11 C11 1_555 1_555
C12 C6 1_555 1_555
C13 C3 1_555 1_555
H12 C13 1_555 1_555
C14 C11 1_555 1_555
C15 C4 1_555 1_555
H13 C15 1_555 1_555
H14 C15 1_555 1_555
H15 C15 1_555 1_555
C16 O7 1_555 1_555
H16 C16 1_555 1_555
H17 C16 1_555 1_555
H18 C16 1_555 1_555
H19 O4 1_555 1_555
H20 O3 1_555 1_555
C1 C4 1_555 1_555
C6 C13 1_555 1_555
C7 C9 1_555 1_555
C7 C11 1_555 1_555
C8 C10 1_555 1_555
C10 C12 1_555 1_555
C12 C14 1_555 1_555

#END
