
#######################################################################
#
#                 Cambridge Crystallographic Data Centre
#                                CCDC 
#
#######################################################################
#
# If this CIF has been generated from an entry in the Cambridge 
# Structural Database, then it will include bibliographic, chemical, 
# crystal, experimental, refinement or atomic coordinate data resulting 
# from the CCDC's data processing and validation procedures.
#
#######################################################################

data_VOHYEX
_chemical_formula_moiety         'C14 H17 Cl2 N1 O2'
_chemical_name_systematic        N-Cyclohexyl-2-(2,3-dichlorophenoxy)acetamide
_symmetry_cell_setting           monoclinic
_symmetry_space_group_name_H-M   'P 21/c'
_symmetry_Int_Tables_number      14
_space_group_name_Hall           '-P 2ybc'
loop_
_symmetry_equiv_pos_site_id
_symmetry_equiv_pos_as_xyz
1 x,y,z
2 -x,1/2+y,1/2-z
3 -x,-y,-z
4 x,1/2-y,1/2+z
_cell_length_a                   14.075(3)
_cell_length_b                   11.170(2)
_cell_length_c                   9.622(2)
_cell_angle_alpha                90
_cell_angle_beta                 102.945(4)
_cell_angle_gamma                90
_cell_volume                     1474.3
_exptl_crystal_colour            colorless
_exptl_crystal_description       needle
_cell_formula_units_Z            4
_exptl_crystal_recrystallization_method 'ethyl acetate/hexane'
loop_
_atom_site_label
_atom_site_type_symbol
_atom_site_fract_x
_atom_site_fract_y
_atom_site_fract_z
Cl1 Cl 0.33190(6) 0.95724(6) 0.17413(8)
Cl2 Cl 0.21347(6) 0.76080(8) -0.02939(8)
O1 O 0.47634(12) 0.86349(14) 0.40289(16)
O2 O 0.65219(13) 0.78839(16) 0.35750(16)
N1 N 0.70962(15) 0.74309(18) 0.5904(2)
H1 H 0.6959 0.7411 0.6731
C1 C 0.42841(18) 0.7721(2) 0.3221(3)
C2 C 0.35620(18) 0.8068(2) 0.2056(3)
C3 C 0.3039(2) 0.7195(3) 0.1162(3)
C4 C 0.3240(2) 0.5997(3) 0.1445(3)
H2 H 0.2891 0.5413 0.0852
C5 C 0.3949(2) 0.5672(3) 0.2594(3)
H3 H 0.4081 0.4864 0.2776
C6 C 0.4473(2) 0.6517(2) 0.3490(3)
H4 H 0.4952 0.6280 0.4273
C7 C 0.55203(18) 0.8342(2) 0.5232(2)
H5 H 0.5280 0.7747 0.5804
H6 H 0.5693 0.9052 0.5815
C8 C 0.64268(18) 0.7858(2) 0.4814(2)
C9 C 0.80516(18) 0.6994(2) 0.5773(2)
H7 H 0.7997 0.6746 0.4781
C10 C 0.8334(2) 0.5906(3) 0.6705(3)
H8 H 0.7849 0.5283 0.6421
H9 H 0.8354 0.6113 0.7690
C11 C 0.9331(3) 0.5441(3) 0.6577(4)
H10 H 0.9517 0.4775 0.7228
H11 H 0.9287 0.5147 0.5616
C12 C 1.0103(2) 0.6389(4) 0.6904(4)
H12 H 1.0712 0.6072 0.6749
H13 H 1.0203 0.6620 0.7899
C13 C 0.9811(3) 0.7474(3) 0.5972(5)
H14 H 0.9783 0.7262 0.4986
H15 H 1.0299 0.8095 0.6243
C14 C 0.8822(2) 0.7954(3) 0.6107(4)
H16 H 0.8867 0.8246 0.7069
H17 H 0.8637 0.8621 0.5456
loop_
_geom_bond_atom_site_label_1
_geom_bond_atom_site_label_2
_geom_bond_site_symmetry_1
_geom_bond_site_symmetry_2
Cl1 C2 1_555 1_555
Cl2 C3 1_555 1_555
O1 C1 1_555 1_555
O2 C8 1_555 1_555
N1 H1 1_555 1_555
C1 C2 1_555 1_555
C2 C3 1_555 1_555
C3 C4 1_555 1_555
C4 H2 1_555 1_555
C5 C4 1_555 1_555
H3 C5 1_555 1_555
C6 C1 1_555 1_555
H4 C6 1_555 1_555
C7 O1 1_555 1_555
H5 C7 1_555 1_555
H6 C7 1_555 1_555
C8 N1 1_555 1_555
C9 N1 1_555 1_555
H7 C9 1_555 1_555
C10 C9 1_555 1_555
H8 C10 1_555 1_555
H9 C10 1_555 1_555
C11 C10 1_555 1_555
H10 C11 1_555 1_555
H11 C11 1_555 1_555
C12 C11 1_555 1_555
H12 C12 1_555 1_555
H13 C12 1_555 1_555
C13 C12 1_555 1_555
H14 C13 1_555 1_555
H15 C13 1_555 1_555
C14 C9 1_555 1_555
H16 C14 1_555 1_555
H17 C14 1_555 1_555
C5 C6 1_555 1_555
C7 C8 1_555 1_555
C13 C14 1_555 1_555

#END
