
#######################################################################
#
#                 Cambridge Crystallographic Data Centre
#                                CCDC 
#
#######################################################################
#
# If this CIF has been generated from an entry in the Cambridge 
# Structural Database, then it will include bibliographic, chemical, 
# crystal, experimental, refinement or atomic coordinate data resulting 
# from the CCDC's data processing and validation procedures.
#
#######################################################################

data_VOHZUP
_chemical_compound_source        
'hydrolysis product from compound extracted from fermentation of fungus Stemphylium sp. 33231 from the mangrove Bruguiera sexangula var. rhynchopetala'
_chemical_name_common            'Altersolanol B 2,3-O-acetonide'
_chemical_formula_moiety         'C19 H20 O6'
_chemical_name_systematic        
(3aS,11aR)-9-Hydroxy-7-methoxy-2,2,3a-trimethyl-3a,4,11,11a-tetrahydroanthra[2,3-d][1,3]dioxole-5,10-dione
_symmetry_cell_setting           orthorhombic
_symmetry_space_group_name_H-M   'P 21 21 21'
_symmetry_Int_Tables_number      19
_space_group_name_Hall           'P 2ac 2ab'
loop_
_symmetry_equiv_pos_site_id
_symmetry_equiv_pos_as_xyz
1 x,y,z
2 1/2-x,-y,1/2+z
3 1/2+x,1/2-y,-z
4 -x,1/2+y,1/2-z
_cell_length_a                   7.97730(10)
_cell_length_b                   20.0228(3)
_cell_length_c                   20.8545(3)
_cell_angle_alpha                90
_cell_angle_beta                 90
_cell_angle_gamma                90
_cell_volume                     3331.05
_cell_formula_units_Z            8
loop_
_atom_site_label
_atom_site_type_symbol
_atom_site_fract_x
_atom_site_fract_y
_atom_site_fract_z
O1 O -0.66916(15) -0.32349(6) -0.19523(6)
O2 O -0.84810(14) -0.29730(5) -0.09503(5)
O3 O -0.57761(15) -0.15533(6) -0.34543(6)
O4 O -0.78173(14) -0.15872(5) 0.03475(5)
O5 O -0.92612(16) -0.04295(6) -0.17027(6)
C1 C -0.81493(18) -0.14968(8) -0.19503(7)
C2 C -0.69476(19) -0.25935(8) -0.21193(8)
O6 O -0.85210(13) -0.04972(5) 0.01933(6)
C3 C -0.79338(19) -0.21596(8) -0.17393(8)
C4 C -0.9122(2) -0.10154(8) -0.15461(8)
C5 C -0.74694(19) -0.12743(8) -0.25213(8)
H1 H -0.7653 -0.0829 -0.2663
C6 C -0.86660(19) -0.23882(8) -0.11398(8)
C7 C -0.6500(2) -0.17193(9) -0.28894(8)
C8 C -0.6118(2) -0.09073(9) -0.37200(9)
H2 H -0.5569 -0.0867 -0.4139
H3 H -0.5687 -0.0561 -0.3431
H4 H -0.7331 -0.0851 -0.3772
C9 C -0.6799(2) -0.07719(9) 0.11107(9)
H5 H -0.7807 -0.0832 0.1373
H6 H -0.6407 -0.0310 0.1148
H7 H -0.5920 -0.1076 0.1261
C10 C -0.98524(19) -0.12703(8) -0.09413(8)
C11 C -0.6215(2) -0.23668(8) -0.26819(8)
H8 H -0.5517 -0.2656 -0.2925
C12 C -1.0790(2) -0.08104(8) -0.05001(8)
H9 H -1.1992 -0.0934 -0.0498
H10 H -1.0695 -0.0346 -0.0659
C13 C -1.1300(2) -0.05339(8) 0.06614(8)
H11 H -1.0795 -0.0532 0.1090
H12 H -1.2344 -0.0791 0.0671
H13 H -1.1540 -0.0074 0.0529
C14 C -0.9602(2) -0.15736(8) 0.03776(8)
H14 H -0.9995 -0.1677 0.0822
C15 C -0.9630(2) -0.19074(8) -0.07478(8)
C16 C -1.00930(19) -0.08497(8) 0.01893(8)
C17 C -1.0243(2) -0.20987(8) -0.00949(8)
H15 H -0.9813 -0.2546 0.0024
H16 H -1.1483 -0.2113 -0.0089
C18 C -0.5707(2) -0.08520(10) -0.00200(10)
H17 H -0.4845 -0.1176 0.0104
H18 H -0.5253 -0.0399 0.0016
H19 H -0.6051 -0.0935 -0.0464
C19 C -0.7204(2) -0.09233(8) 0.04170(8)
H20 H -0.728(3) -0.3272(13) -0.1606(13)
O7 O -0.72519(16) -0.22192(6) 0.18549(6)
O8 O -0.87319(15) -0.32298(7) 0.13406(6)
O9 O -0.78083(14) -0.14286(6) 0.36052(5)
O10 O -0.66260(13) -0.18743(6) 0.44928(5)
O11 O -0.53050(16) -0.37024(6) 0.38653(6)
C20 C -0.8681(2) -0.42485(9) 0.18999(8)
H21 H -0.9335 -0.4447 0.1570
C21 C -0.5329(2) -0.26569(8) 0.33501(8)
O12 O -0.86286(17) -0.52621(6) 0.25344(6)
C22 C -0.5742(2) -0.33735(8) 0.34016(8)
C23 C -0.8189(2) -0.46214(9) 0.24252(8)
C24 C -0.82115(19) -0.35778(9) 0.18564(8)
C25 C -0.72469(19) -0.32791(8) 0.23433(8)
C26 C -0.67458(19) -0.36773(8) 0.28719(8)
C27 C -0.68178(19) -0.25770(8) 0.23150(8)
C28 C -0.4032(2) -0.12409(10) 0.44868(10)
H22 H -0.4647 -0.0863 0.4672
H23 H -0.3141 -0.1073 0.4206
H24 H -0.3536 -0.1508 0.4832
C29 C -0.5852(2) -0.22814(8) 0.28520(8)
C30 C -0.7187(2) -0.43368(8) 0.29113(8)
H25 H -0.6822 -0.4601 0.3263
C31 C -0.8123(2) -0.15657(8) 0.42649(8)
C32 C -0.6058(2) -0.12899(8) 0.35367(8)
H26 H -0.5840 -0.0800 0.3575
C33 C -0.5538(2) -0.15440(9) 0.28740(8)
H27 H -0.6200 -0.1316 0.2537
H28 H -0.4336 -0.1450 0.2798
C34 C -0.5231(2) -0.16740(8) 0.40991(8)
C35 C -0.4353(2) -0.23141(9) 0.38716(8)
H29 H -0.3221 -0.2201 0.3710
H30 H -0.4220 -0.2623 0.4239
C36 C -0.8505(2) -0.09284(9) 0.46298(9)
H31 H -0.7580 -0.0612 0.4574
H32 H -0.8640 -0.1031 0.5086
H33 H -0.9543 -0.0731 0.4465
C37 C -0.9540(2) -0.20646(10) 0.42999(9)
H34 H -1.0530 -0.1881 0.4085
H35 H -0.9807 -0.2156 0.4750
H36 H -0.9202 -0.2480 0.4088
C38 C -0.9772(3) -0.55755(10) 0.20979(10)
H37 H -0.9249 -0.5611 0.1674
H38 H -1.0796 -0.5307 0.2066
H39 H -1.0054 -0.6023 0.2255
H40 H -0.835(3) -0.2802(13) 0.1389(11)
loop_
_geom_bond_atom_site_label_1
_geom_bond_atom_site_label_2
_geom_bond_site_symmetry_1
_geom_bond_site_symmetry_2
O1 C2 1_555 1_555
O2 C6 1_555 1_555
O3 C7 1_555 1_555
O4 C14 1_555 1_555
O5 C4 1_555 1_555
C1 C3 1_555 1_555
C2 C3 1_555 1_555
O6 C16 1_555 1_555
C3 C6 1_555 1_555
C4 C1 1_555 1_555
C5 C1 1_555 1_555
H1 C5 1_555 1_555
C6 C15 1_555 1_555
C7 C5 1_555 1_555
C8 O3 1_555 1_555
H2 C8 1_555 1_555
H3 C8 1_555 1_555
H4 C8 1_555 1_555
C9 H5 1_555 1_555
H6 C9 1_555 1_555
H7 C9 1_555 1_555
C10 C4 1_555 1_555
C11 C2 1_555 1_555
H8 C11 1_555 1_555
C12 C10 1_555 1_555
H9 C12 1_555 1_555
H10 C12 1_555 1_555
C13 H11 1_555 1_555
H12 C13 1_555 1_555
H13 C13 1_555 1_555
C14 H14 1_555 1_555
C15 C10 1_555 1_555
C16 C12 1_555 1_555
C17 C14 1_555 1_555
H15 C17 1_555 1_555
H16 C17 1_555 1_555
C18 H17 1_555 1_555
H18 C18 1_555 1_555
H19 C18 1_555 1_555
C19 O4 1_555 1_555
H20 O1 1_555 1_555
O7 C27 1_555 1_555
O8 C24 1_555 1_555
O9 C31 1_555 1_555
O10 C31 1_555 1_555
O11 C22 1_555 1_555
C20 H21 1_555 1_555
C21 C22 1_555 1_555
O12 C23 1_555 1_555
C22 C26 1_555 1_555
C23 C20 1_555 1_555
C24 C20 1_555 1_555
C25 C24 1_555 1_555
C26 C25 1_555 1_555
C27 C25 1_555 1_555
C28 H22 1_555 1_555
H23 C28 1_555 1_555
H24 C28 1_555 1_555
C29 C21 1_555 1_555
C30 C23 1_555 1_555
H25 C30 1_555 1_555
C31 C36 1_555 1_555
C32 O9 1_555 1_555
H26 C32 1_555 1_555
C33 C29 1_555 1_555
H27 C33 1_555 1_555
H28 C33 1_555 1_555
C34 O10 1_555 1_555
C35 C21 1_555 1_555
H29 C35 1_555 1_555
H30 C35 1_555 1_555
C36 H31 1_555 1_555
H32 C36 1_555 1_555
H33 C36 1_555 1_555
C37 C31 1_555 1_555
H34 C37 1_555 1_555
H35 C37 1_555 1_555
H36 C37 1_555 1_555
C38 O12 1_555 1_555
H37 C38 1_555 1_555
H38 C38 1_555 1_555
H39 C38 1_555 1_555
H40 O8 1_555 1_555
O6 C19 1_555 1_555
C7 C11 1_555 1_555
C9 C19 1_555 1_555
C13 C16 1_555 1_555
C14 C16 1_555 1_555
C15 C17 1_555 1_555
C18 C19 1_555 1_555
C26 C30 1_555 1_555
C27 C29 1_555 1_555
C28 C34 1_555 1_555
C32 C33 1_555 1_555
C32 C34 1_555 1_555
C34 C35 1_555 1_555

#END
