
#######################################################################
#
#                 Cambridge Crystallographic Data Centre
#                                CCDC 
#
#######################################################################
#
# If this CIF has been generated from an entry in the Cambridge 
# Structural Database, then it will include bibliographic, chemical, 
# crystal, experimental, refinement or atomic coordinate data resulting 
# from the CCDC's data processing and validation procedures.
#
#######################################################################

data_VOJKEL
_chemical_formula_moiety         'C17 H17 Cl1 N2 O4'
_chemical_name_systematic        
(E)-N'-(4-chlorobenzylidene)-3,4,5-trimethoxybenzohydrazide
_symmetry_cell_setting           triclinic
_symmetry_space_group_name_H-M   'P -1'
_symmetry_Int_Tables_number      2
_space_group_name_Hall           '-P 1'
loop_
_symmetry_equiv_pos_site_id
_symmetry_equiv_pos_as_xyz
1 x,y,z
2 -x,-y,-z
_cell_length_a                   5.119(2)
_cell_length_b                   8.210(4)
_cell_length_c                   20.276(9)
_cell_angle_alpha                101.055(7)
_cell_angle_beta                 92.362(7)
_cell_angle_gamma                101.459(7)
_cell_volume                     816.865
_exptl_crystal_colour            yellow
_exptl_crystal_description       block
_cell_formula_units_Z            2
_exptl_crystal_recrystallization_method tetrahydrofuran
loop_
_atom_site_label
_atom_site_type_symbol
_atom_site_fract_x
_atom_site_fract_y
_atom_site_fract_z
Cl1 Cl 0.98386(15) -0.10593(8) 0.26691(3)
O1 O 0.5118(3) 0.4117(2) 0.66278(7)
O2 O 0.5848(4) 0.5136(2) 0.92020(8)
O3 O 0.9795(4) 0.7795(3) 0.95374(9)
O4 O 1.3253(4) 0.8754(2) 0.86389(9)
N1 N 0.8782(3) 0.3395(2) 0.57654(8)
N2 N 0.9449(3) 0.4260(2) 0.64227(8)
H1 H 1.1099 0.4630 0.6572
C1 C 0.8360(4) 0.5329(2) 0.75470(9)
C2 C 0.6692(4) 0.4815(3) 0.80214(10)
H2 H 0.5169 0.3961 0.7888
C3 C 0.7298(4) 0.5574(3) 0.86935(10)
C4 C 0.9504(5) 0.6916(3) 0.88879(11)
C5 C 1.1177(4) 0.7419(3) 0.84062(11)
C6 C 1.0627(4) 0.6603(3) 0.77344(10)
H3 H 1.1771 0.6909 0.7414
C7 C 0.3631(6) 0.3744(4) 0.90386(13)
H4 H 0.2345 0.3994 0.8736
H5 H 0.2821 0.3549 0.9443
H6 H 0.4225 0.2748 0.8827
C8 C 1.2015(8) 0.7925(6) 0.99320(16)
H7 H 1.2011 0.6860 1.0061
H8 H 1.2073 0.8791 1.0328
H9 H 1.3554 0.8220 0.9690
C9 C 1.5185(5) 0.9198(3) 0.81913(13)
H10 H 1.5826 0.8211 0.7990
H11 H 1.6651 1.0047 0.8435
H12 H 1.4392 0.9639 0.7845
C10 C 0.7487(4) 0.4520(2) 0.68292(10)
C11 C 1.0749(4) 0.3316(3) 0.54076(10)
H13 H 1.2448 0.3915 0.5585
C12 C 1.0395(4) 0.2302(3) 0.47225(10)
C13 C 1.2396(5) 0.2560(3) 0.42946(11)
H14 H 1.3898 0.3424 0.4438
C14 C 1.2205(5) 0.1556(3) 0.36576(11)
H15 H 1.3553 0.1749 0.3371
C15 C 1.0009(5) 0.0277(3) 0.34555(10)
C16 C 0.7968(5) -0.0006(3) 0.38638(12)
H16 H 0.6471 -0.0871 0.3717
C17 C 0.8181(4) 0.1019(3) 0.44969(11)
H17 H 0.6803 0.0841 0.4777
loop_
_geom_bond_atom_site_label_1
_geom_bond_atom_site_label_2
_geom_bond_site_symmetry_1
_geom_bond_site_symmetry_2
Cl1 C15 1_555 1_555
O1 C10 1_555 1_555
O2 C3 1_555 1_555
O3 C4 1_555 1_555
O4 C5 1_555 1_555
N1 N2 1_555 1_555
N2 H1 1_555 1_555
C1 C2 1_555 1_555
C2 H2 1_555 1_555
C3 C2 1_555 1_555
C4 C3 1_555 1_555
C5 C4 1_555 1_555
C6 C1 1_555 1_555
H3 C6 1_555 1_555
C7 O2 1_555 1_555
H4 C7 1_555 1_555
H5 C7 1_555 1_555
H6 C7 1_555 1_555
C8 O3 1_555 1_555
H7 C8 1_555 1_555
H8 C8 1_555 1_555
H9 C8 1_555 1_555
C9 O4 1_555 1_555
H10 C9 1_555 1_555
H11 C9 1_555 1_555
H12 C9 1_555 1_555
C10 N2 1_555 1_555
C11 N1 1_555 1_555
H13 C11 1_555 1_555
C12 C11 1_555 1_555
C13 C12 1_555 1_555
H14 C13 1_555 1_555
C14 C13 1_555 1_555
H15 C14 1_555 1_555
C15 C14 1_555 1_555
C16 C15 1_555 1_555
H16 C16 1_555 1_555
C17 C12 1_555 1_555
H17 C17 1_555 1_555
C1 C10 1_555 1_555
C5 C6 1_555 1_555
C16 C17 1_555 1_555

#END
