
#######################################################################
#
#                 Cambridge Crystallographic Data Centre
#                                CCDC 
#
#######################################################################
#
# If this CIF has been generated from an entry in the Cambridge 
# Structural Database, then it will include bibliographic, chemical, 
# crystal, experimental, refinement or atomic coordinate data resulting 
# from the CCDC's data processing and validation procedures.
#
#######################################################################

data_VOKSEV
_chemical_formula_moiety         'C13 H17 N1 O3'
_chemical_name_systematic        
15-Hydroxy-13-oxa-7-azatetracyclo[6.5.2.0^1,10^.0^2,7^]pentadec-10-en-12-one
_symmetry_cell_setting           monoclinic
_symmetry_space_group_name_H-M   'P 21'
_symmetry_Int_Tables_number      4
_space_group_name_Hall           'P 2yb'
loop_
_symmetry_equiv_pos_site_id
_symmetry_equiv_pos_as_xyz
1 x,y,z
2 -x,1/2+y,-z
_cell_length_a                   8.1579(2)
_cell_length_b                   6.4863(2)
_cell_length_c                   11.3679(4)
_cell_angle_alpha                90
_cell_angle_beta                 104.589(3)
_cell_angle_gamma                90
_cell_volume                     582.133
_exptl_crystal_colour            colorless
_exptl_crystal_description       Block
_cell_formula_units_Z            2
loop_
_atom_site_label
_atom_site_type_symbol
_atom_site_fract_x
_atom_site_fract_y
_atom_site_fract_z
N1 N 0.29665(16) 0.4433(2) 0.21223(11)
O1 O -0.31398(14) 0.1001(2) 0.27766(11)
O2 O 0.53006(13) 0.3364(2) 0.43690(11)
H1 H 0.5398 0.2855 0.3730
O3 O -0.04320(13) 0.10956(17) 0.26629(11)
C1 C 0.14964(19) 0.3066(3) 0.17289(14)
H2 H 0.0597 0.3841 0.1169
C2 C 0.1999(2) 0.1276(3) 0.10309(16)
H3 H 0.1061 0.0321 0.0779
H4 H 0.2953 0.0541 0.1540
C3 C 0.2478(2) 0.2168(3) -0.00815(17)
H5 H 0.2900 0.1069 -0.0504
H6 H 0.1475 0.2738 -0.0633
C4 C 0.3824(2) 0.3847(3) 0.02608(16)
H7 H 0.3967 0.4504 -0.0473
H8 H 0.4896 0.3224 0.0672
C5 C 0.3349(2) 0.5478(3) 0.10883(16)
H9 H 0.4282 0.6432 0.1367
H10 H 0.2370 0.6253 0.0646
C6 C 0.3004(2) 0.5537(3) 0.32522(15)
H11 H 0.3827 0.6665 0.3363
C7 C 0.35881(19) 0.3921(3) 0.42530(15)
H12 H 0.3486 0.4506 0.5026
C8 C 0.2391(2) 0.2029(3) 0.39409(15)
H13 H 0.2997 0.0864 0.3721
H14 H 0.1981 0.1646 0.4641
C9 C 0.0906(2) 0.2607(2) 0.28801(15)
C10 C -0.1859(2) 0.1996(3) 0.28660(15)
C11 C -0.1501(2) 0.4178(3) 0.31607(15)
H15 H -0.2268 0.5140 0.3312
C12 C 0.0107(2) 0.4545(3) 0.31749(14)
C13 C 0.1263(2) 0.6375(3) 0.33227(16)
H16 H 0.1346 0.7038 0.4100
H17 H 0.0845 0.7371 0.2681
loop_
_geom_bond_atom_site_label_1
_geom_bond_atom_site_label_2
_geom_bond_site_symmetry_1
_geom_bond_site_symmetry_2
N1 C1 1_555 1_555
O1 C10 1_555 1_555
O2 H1 1_555 1_555
O3 C9 1_555 1_555
C1 H2 1_555 1_555
C2 C1 1_555 1_555
H3 C2 1_555 1_555
H4 C2 1_555 1_555
C3 C2 1_555 1_555
H5 C3 1_555 1_555
H6 C3 1_555 1_555
C4 C3 1_555 1_555
H7 C4 1_555 1_555
H8 C4 1_555 1_555
C5 N1 1_555 1_555
H9 C5 1_555 1_555
H10 C5 1_555 1_555
C6 N1 1_555 1_555
H11 C6 1_555 1_555
C7 O2 1_555 1_555
H12 C7 1_555 1_555
C8 C7 1_555 1_555
H13 C8 1_555 1_555
H14 C8 1_555 1_555
C9 C1 1_555 1_555
C10 O3 1_555 1_555
C11 C10 1_555 1_555
H15 C11 1_555 1_555
C12 C9 1_555 1_555
C13 C6 1_555 1_555
H16 C13 1_555 1_555
H17 C13 1_555 1_555
C4 C5 1_555 1_555
C6 C7 1_555 1_555
C8 C9 1_555 1_555
C11 C12 1_555 1_555
C12 C13 1_555 1_555

#END
