
#######################################################################
#
#                 Cambridge Crystallographic Data Centre
#                                CCDC 
#
#######################################################################
#
# If this CIF has been generated from an entry in the Cambridge 
# Structural Database, then it will include bibliographic, chemical, 
# crystal, experimental, refinement or atomic coordinate data resulting 
# from the CCDC's data processing and validation procedures.
#
#######################################################################

data_VOMBEG
_chemical_formula_moiety         'C70 H68 N12'
_chemical_name_systematic        
3,4,12,13,30,31,39,40-octaethyl-55,56,57,58,59,60,61,62,63,64,65,66-dodecaazatridecacyclo[49.3.1.1^2,5^.1^6,10^.1^11,14^.1^15,19^.1^20,23^.1^24,28^.1^29,32^.1^33,37^.1^38,41^.1^42,46^.1^47,50^]hexahexaconta-1(55),2,4,6(65),7,9,11,13,15(63),16,18,20,22,24(61),25,27,29,31,33(59),34,36,38,40,42(57),43,45,47,49,51,53-triacontaene
_symmetry_cell_setting           monoclinic
_symmetry_space_group_name_H-M   'C 2/c'
_symmetry_Int_Tables_number      15
_space_group_name_Hall           '-C 2yn'
loop_
_symmetry_equiv_pos_site_id
_symmetry_equiv_pos_as_xyz
1 x,y,z
2 -x,y,1/2-z
3 1/2+x,1/2+y,z
4 1/2-x,1/2+y,1/2-z
5 -x,-y,-z
6 x,-y,1/2+z
7 1/2-x,1/2-y,-z
8 1/2+x,1/2-y,1/2+z
_cell_length_a                   23.774(2)
_cell_length_b                   12.5600(10)
_cell_length_c                   18.813(2)
_cell_angle_alpha                90
_cell_angle_beta                 91.960(2)
_cell_angle_gamma                90
_cell_volume                     5614.3
_exptl_crystal_colour            yellow
_exptl_crystal_description       prism
_cell_formula_units_Z            4
loop_
_atom_site_label
_atom_site_type_symbol
_atom_site_fract_x
_atom_site_fract_y
_atom_site_fract_z
N1 N 0.52669(17) 0.3540(3) 0.15757(19)
N2 N 0.44503(16) 0.4357(3) 0.06564(19)
H1 H 0.4467 0.3658 0.0675
N3 N 0.35436(16) 0.3403(3) -0.01374(18)
N4 N 0.33190(16) 0.1325(3) 0.01357(17)
H2 H 0.3557 0.1646 0.0433
N5 N 0.36288(17) 0.0214(3) 0.13230(18)
C1 C 0.5647(2) 0.3112(4) 0.2043(2)
C2 C 0.5992(2) 0.3749(5) 0.2483(3)
H3 H 0.6251 0.3439 0.2801
C3 C 0.5946(2) 0.4837(5) 0.2441(3)
H4 H 0.6171 0.5270 0.2733
C4 C 0.5566(2) 0.5280(4) 0.1967(3)
H5 H 0.5532 0.6016 0.1927
C5 C 0.5228(2) 0.4600(4) 0.1540(2)
C6 C 0.4800(2) 0.5023(4) 0.1047(2)
C7 C 0.4640(2) 0.6048(4) 0.0878(3)
H6 H 0.4798 0.6672 0.1062
C8 C 0.4192(2) 0.5972(4) 0.0375(3)
H7 H 0.4002 0.6548 0.0169
C9 C 0.4077(2) 0.4938(4) 0.0234(2)
C10 C 0.3656(2) 0.4435(4) -0.0236(2)
C11 C 0.3375(2) 0.5065(5) -0.0756(3)
H8 H 0.3464 0.5780 -0.0816
C12 C 0.2961(2) 0.4571(5) -0.1172(3)
H9 H 0.2765 0.4961 -0.1520
C13 C 0.2837(2) 0.3525(5) -0.1080(2)
H10 H 0.2556 0.3203 -0.1361
C14 C 0.31346(19) 0.2935(4) -0.0557(2)
C15 C 0.30349(19) 0.1821(4) -0.0421(2)
C16 C 0.2699(2) 0.1034(5) -0.0751(2)
C17 C 0.2797(2) 0.0057(4) -0.0386(2)
C18 C 0.31919(19) 0.0278(4) 0.0174(2)
C19 C 0.34113(19) -0.0368(4) 0.0769(2)
C20 C 0.3397(2) -0.1472(4) 0.0781(3)
H11 H 0.3253 -0.1850 0.0391
C21 C 0.3600(2) -0.2000(5) 0.1377(2)
H12 H 0.3589 -0.2739 0.1395
C22 C 0.3818(2) -0.1427(4) 0.1948(2)
H13 H 0.3953 -0.1771 0.2358
C23 C 0.3832(2) -0.0324(4) 0.1896(2)
C24 C 0.2288(2) 0.1176(5) -0.1375(2)
H14 H 0.2079 0.1830 -0.1311
H15 H 0.2021 0.0592 -0.1379
C25 C 0.2567(3) 0.1214(6) -0.2089(2)
H16 H 0.2765 0.0560 -0.2163
H17 H 0.2826 0.1799 -0.2094
H18 H 0.2284 0.1307 -0.2461
C26 C 0.2534(2) -0.0989(5) -0.0568(3)
H19 H 0.2159 -0.0865 -0.0770
H20 H 0.2495 -0.1396 -0.0134
C27 C 0.2867(3) -0.1658(6) -0.1096(3)
H21 H 0.2914 -0.1257 -0.1525
H22 H 0.2665 -0.2302 -0.1206
H23 H 0.3230 -0.1830 -0.0887
N6 N 0.4005(10) 0.1519(10) 0.2392(8)
H24 H 0.3889 0.1812 0.2000
C28 C 0.3967(5) 0.0455(10) 0.2512(4)
C29 C 0.4144(4) 0.0273(6) 0.3226(4)
C30 C 0.4327(4) 0.1278(7) 0.3505(4)
C31 C 0.5750(8) 0.2102(15) 0.2034(10)
C32 C 0.4121(4) -0.0738(7) 0.3631(4)
H25 H 0.3800 -0.1147 0.3455
H26 H 0.4061 -0.0572 0.4127
C33 C 0.4646(4) -0.1425(9) 0.3590(6)
H27 H 0.4708 -0.1601 0.3102
H28 H 0.4596 -0.2067 0.3858
H29 H 0.4965 -0.1041 0.3784
C34 C 0.4530(4) 0.1485(9) 0.4261(4)
H30 H 0.4346 0.0993 0.4575
H31 H 0.4425 0.2201 0.4395
C35 C 0.5164(4) 0.1361(10) 0.4360(5)
H32 H 0.5264 0.0625 0.4312
H33 H 0.5280 0.1608 0.4826
H34 H 0.5348 0.1774 0.4007
N1A N 0.47331(17) 0.3540(3) 0.34243(19)
N2A N 0.55497(16) 0.4357(3) 0.43436(19)
H1A H 0.5533 0.3658 0.4325
N3A N 0.64564(16) 0.3403(3) 0.51374(18)
N4A N 0.66810(16) 0.1325(3) 0.48643(17)
H2A H 0.6443 0.1646 0.4567
N5A N 0.63712(17) 0.0214(3) 0.36770(18)
C1A C 0.4353(2) 0.3112(4) 0.2957(2)
C2A C 0.4008(2) 0.3749(5) 0.2517(3)
H3A H 0.3749 0.3439 0.2199
C3A C 0.4054(2) 0.4837(5) 0.2559(3)
H4A H 0.3829 0.5270 0.2267
C4A C 0.4434(2) 0.5280(4) 0.3033(3)
H5A H 0.4468 0.6016 0.3073
C5A C 0.4772(2) 0.4600(4) 0.3460(2)
C6A C 0.5200(2) 0.5023(4) 0.3953(2)
C7A C 0.5360(2) 0.6048(4) 0.4122(3)
H6A H 0.5202 0.6672 0.3938
C8A C 0.5808(2) 0.5972(4) 0.4625(3)
H7A H 0.5998 0.6548 0.4831
C9A C 0.5923(2) 0.4938(4) 0.4766(2)
C10A C 0.6344(2) 0.4435(4) 0.5236(2)
C11A C 0.6625(2) 0.5065(5) 0.5756(3)
H8A H 0.6536 0.5780 0.5816
C12A C 0.7039(2) 0.4571(5) 0.6172(3)
H9A H 0.7235 0.4961 0.6520
C13A C 0.7163(2) 0.3525(5) 0.6080(2)
H10A H 0.7444 0.3203 0.6361
C14A C 0.68654(19) 0.2935(4) 0.5557(2)
C15A C 0.69651(19) 0.1821(4) 0.5421(2)
C16A C 0.7301(2) 0.1034(5) 0.5751(2)
C17A C 0.7203(2) 0.0057(4) 0.5386(2)
C18A C 0.68081(19) 0.0278(4) 0.4826(2)
C19A C 0.65887(19) -0.0368(4) 0.4231(2)
C20A C 0.6603(2) -0.1472(4) 0.4219(3)
H11A H 0.6747 -0.1850 0.4609
C21A C 0.6400(2) -0.2000(5) 0.3623(2)
H12A H 0.6411 -0.2739 0.3605
C22A C 0.6182(2) -0.1427(4) 0.3052(2)
H13A H 0.6047 -0.1771 0.2642
C23A C 0.6168(2) -0.0324(4) 0.3104(2)
C24A C 0.7712(2) 0.1176(5) 0.6375(2)
H14A H 0.7921 0.1830 0.6311
H15A H 0.7979 0.0592 0.6379
C25A C 0.7433(3) 0.1214(6) 0.7089(2)
H16A H 0.7235 0.0560 0.7163
H17A H 0.7174 0.1799 0.7094
H18A H 0.7716 0.1307 0.7461
C26A C 0.7466(2) -0.0989(5) 0.5568(3)
H19A H 0.7841 -0.0865 0.5770
H20A H 0.7505 -0.1396 0.5134
C27A C 0.7133(3) -0.1658(6) 0.6096(3)
H21A H 0.7086 -0.1257 0.6525
H22A H 0.7335 -0.2302 0.6206
H23A H 0.6770 -0.1830 0.5887
N6A N 0.5995(10) 0.1519(10) 0.2608(8)
H24A H 0.6111 0.1812 0.3000
C28A C 0.6033(5) 0.0455(10) 0.2488(4)
C29A C 0.5856(4) 0.0273(6) 0.1774(4)
C30A C 0.5673(4) 0.1278(7) 0.1495(4)
C31A C 0.4250(8) 0.2102(15) 0.2966(10)
C32A C 0.5879(4) -0.0738(7) 0.1369(4)
H25A H 0.6200 -0.1147 0.1545
H26A H 0.5939 -0.0572 0.0873
C33A C 0.5354(4) -0.1425(9) 0.1410(6)
H27A H 0.5292 -0.1601 0.1898
H28A H 0.5404 -0.2067 0.1142
H29A H 0.5035 -0.1041 0.1216
C34A C 0.5470(4) 0.1485(9) 0.0739(4)
H30A H 0.5654 0.0993 0.0425
H31A H 0.5575 0.2201 0.0605
C35A C 0.4836(4) 0.1361(10) 0.0640(5)
H32A H 0.4736 0.0625 0.0688
H33A H 0.4720 0.1608 0.0174
H34A H 0.4652 0.1774 0.0993
N7? N 0.4128(11) 0.1326(10) 0.2344(9)
H35? H 0.3955 0.1644 0.1997
C36? C 0.4173(5) 0.0255(9) 0.2422(5)
C37? C 0.4531(4) 0.0052(7) 0.3023(4)
C38? C 0.4687(4) 0.1066(8) 0.3304(4)
C39? C 0.5595(8) 0.1828(13) 0.2090(11)
C40? C 0.4684(4) -0.0992(8) 0.3331(5)
H36? H 0.5033 -0.0920 0.3608
H37? H 0.4749 -0.1488 0.2948
C41? C 0.4237(6) -0.1457(10) 0.3807(5)
H38? H 0.4162 -0.0963 0.4181
H39? H 0.4371 -0.2115 0.4009
H40? H 0.3898 -0.1585 0.3529
C42? C 0.5016(4) 0.1230(10) 0.3992(5)
H41? H 0.5261 0.1842 0.3944
H42? H 0.5252 0.0613 0.4085
C43? C 0.4642(5) 0.1406(12) 0.4622(5)
H43? H 0.4464 0.2090 0.4580
H44? H 0.4867 0.1378 0.5055
H45? H 0.4359 0.0861 0.4627
loop_
_geom_bond_atom_site_label_1
_geom_bond_atom_site_label_2
_geom_bond_site_symmetry_1
_geom_bond_site_symmetry_2
N1 C1 1_555 1_555
N2 H1 1_555 1_555
N3 C10 1_555 1_555
N4 H2 1_555 1_555
N5 C19 1_555 1_555
C1 C2 1_555 1_555
C2 H3 1_555 1_555
C3 C2 1_555 1_555
H4 C3 1_555 1_555
C4 C3 1_555 1_555
H5 C4 1_555 1_555
C5 N1 1_555 1_555
C6 N2 1_555 1_555
C7 C6 1_555 1_555
H6 C7 1_555 1_555
C8 C7 1_555 1_555
H7 C8 1_555 1_555
C9 N2 1_555 1_555
C10 C9 1_555 1_555
C11 C10 1_555 1_555
H8 C11 1_555 1_555
C12 C11 1_555 1_555
H9 C12 1_555 1_555
C13 C12 1_555 1_555
H10 C13 1_555 1_555
C14 N3 1_555 1_555
C15 N4 1_555 1_555
C16 C15 1_555 1_555
C17 C16 1_555 1_555
C18 N4 1_555 1_555
C19 C18 1_555 1_555
C20 C19 1_555 1_555
H11 C20 1_555 1_555
C21 C20 1_555 1_555
H12 C21 1_555 1_555
C22 C21 1_555 1_555
H13 C22 1_555 1_555
C23 N5 1_555 1_555
C24 C16 1_555 1_555
H14 C24 1_555 1_555
H15 C24 1_555 1_555
C25 C24 1_555 1_555
H16 C25 1_555 1_555
H17 C25 1_555 1_555
H18 C25 1_555 1_555
C26 C17 1_555 1_555
H19 C26 1_555 1_555
H20 C26 1_555 1_555
C27 C26 1_555 1_555
H21 C27 1_555 1_555
H22 C27 1_555 1_555
H23 C27 1_555 1_555
N6 H24 1_555 1_555
C28 C23 1_555 1_555
C29 C28 1_555 1_555
C30 C29 1_555 1_555
C31 C1 1_555 1_555
C32 C29 1_555 1_555
H25 C32 1_555 1_555
H26 C32 1_555 1_555
C33 C32 1_555 1_555
H27 C33 1_555 1_555
H28 C33 1_555 1_555
H29 C33 1_555 1_555
C34 C30 1_555 1_555
H30 C34 1_555 1_555
H31 C34 1_555 1_555
C35 C34 1_555 1_555
H32 C35 1_555 1_555
H33 C35 1_555 1_555
H34 C35 1_555 1_555
N1A C1A 1_555 1_555
N2A H1A 1_555 1_555
N3A C10A 1_555 1_555
N4A H2A 1_555 1_555
N5A C19A 1_555 1_555
C1A C2A 1_555 1_555
C2A H3A 1_555 1_555
C3A C2A 1_555 1_555
H4A C3A 1_555 1_555
C4A C3A 1_555 1_555
H5A C4A 1_555 1_555
C5A N1A 1_555 1_555
C6A N2A 1_555 1_555
C7A C6A 1_555 1_555
H6A C7A 1_555 1_555
C8A C7A 1_555 1_555
H7A C8A 1_555 1_555
C9A N2A 1_555 1_555
C10A C9A 1_555 1_555
C11A C10A 1_555 1_555
H8A C11A 1_555 1_555
C12A C11A 1_555 1_555
H9A C12A 1_555 1_555
C13A C12A 1_555 1_555
H10A C13A 1_555 1_555
C14A N3A 1_555 1_555
C15A N4A 1_555 1_555
C16A C15A 1_555 1_555
C17A C16A 1_555 1_555
C18A N4A 1_555 1_555
C19A C18A 1_555 1_555
C20A C19A 1_555 1_555
H11A C20A 1_555 1_555
C21A C20A 1_555 1_555
H12A C21A 1_555 1_555
C22A C21A 1_555 1_555
H13A C22A 1_555 1_555
C23A N5A 1_555 1_555
C24A C16A 1_555 1_555
H14A C24A 1_555 1_555
H15A C24A 1_555 1_555
C25A C24A 1_555 1_555
H16A C25A 1_555 1_555
H17A C25A 1_555 1_555
H18A C25A 1_555 1_555
C26A C17A 1_555 1_555
H19A C26A 1_555 1_555
H20A C26A 1_555 1_555
C27A C26A 1_555 1_555
H21A C27A 1_555 1_555
H22A C27A 1_555 1_555
H23A C27A 1_555 1_555
N6A C31 1_555 1_555
H24A N6A 1_555 1_555
C28A C23A 1_555 1_555
C29A C28A 1_555 1_555
C30A C31 1_555 1_555
C31A N6 1_555 1_555
C32A C29A 1_555 1_555
H25A C32A 1_555 1_555
H26A C32A 1_555 1_555
C33A C32A 1_555 1_555
H27A C33A 1_555 1_555
H28A C33A 1_555 1_555
H29A C33A 1_555 1_555
C34A C30A 1_555 1_555
H30A C34A 1_555 1_555
H31A C34A 1_555 1_555
C35A C34A 1_555 1_555
H32A C35A 1_555 1_555
H33A C35A 1_555 1_555
H34A C35A 1_555 1_555
C4 C5 1_555 1_555
C5 C6 1_555 1_555
C8 C9 1_555 1_555
C13 C14 1_555 1_555
C14 C15 1_555 1_555
C17 C18 1_555 1_555
C22 C23 1_555 1_555
N6 C28 1_555 1_555
C30 C31A 1_555 1_555
C1A C31A 1_555 1_555
C4A C5A 1_555 1_555
C5A C6A 1_555 1_555
C8A C9A 1_555 1_555
C13A C14A 1_555 1_555
C14A C15A 1_555 1_555
C17A C18A 1_555 1_555
C22A C23A 1_555 1_555
N6A C28A 1_555 1_555
C29A C30A 1_555 1_555

#END
