
#######################################################################
#
#                 Cambridge Crystallographic Data Centre
#                                CCDC 
#
#######################################################################
#
# If this CIF has been generated from an entry in the Cambridge 
# Structural Database, then it will include bibliographic, chemical, 
# crystal, experimental, refinement or atomic coordinate data resulting 
# from the CCDC's data processing and validation procedures.
#
#######################################################################

data_VOMDUY
_chemical_formula_moiety         'C91 H26 N2 O1 S1,C6 H5 Cl1'
_chemical_name_systematic        
'oxo-bis(6-t-butylpyridin-2-yl)-thia-open cage-C70fullerene toluene chlorobenzene solvate'
_symmetry_cell_setting           monoclinic
_symmetry_space_group_name_H-M   'P 21/n'
_symmetry_Int_Tables_number      14
_space_group_name_Hall           '-P 2yn'
loop_
_symmetry_equiv_pos_site_id
_symmetry_equiv_pos_as_xyz
1 x,y,z
2 1/2-x,1/2+y,1/2-z
3 -x,-y,-z
4 1/2+x,1/2-y,1/2+z
_cell_length_a                   10.99980(10)
_cell_length_b                   15.5835(2)
_cell_length_c                   32.7449(3)
_cell_angle_alpha                90
_cell_angle_beta                 96.8988(5)
_cell_angle_gamma                90
_cell_volume                     5572.34
_exptl_crystal_colour            black
_exptl_crystal_description       plate
_cell_formula_units_Z            4
loop_
_atom_site_label
_atom_site_type_symbol
_atom_site_fract_x
_atom_site_fract_y
_atom_site_fract_z
C1 C -0.1907(3) 0.5778(2) 0.23915(11)
C2 C -0.2104(3) 0.6731(2) 0.23693(11)
H1 H -0.1935 0.7054 0.2616
C3 C -0.2502(3) 0.7154(2) 0.20243(11)
H2 H -0.2624 0.7755 0.2042
C4 C -0.2771(3) 0.6736(2) 0.16076(10)
C5 C -0.1804(3) 0.7040(2) 0.13229(11)
C6 C -0.1292(3) 0.6384(2) 0.10651(10)
C7 C -0.0078(3) 0.63425(19) 0.09716(10)
C8 C 0.1093(3) 0.6451(2) 0.12458(11)
C9 C 0.1215(3) 0.6546(2) 0.16683(11)
S1 S 0.00649(7) 0.69072(5) 0.19507(3)
C10 C 0.0342(3) 0.6026(2) 0.22882(11)
C11 C -0.0550(3) 0.5510(2) 0.24279(10)
C12 C -0.2386(3) 0.5329(2) 0.19946(10)
C13 C -0.2711(3) 0.5768(2) 0.16378(10)
C14 C -0.2102(3) 0.56656(19) 0.09369(10)
C15 C 0.2082(3) 0.6023(2) 0.19237(11)
C16 C -0.2779(3) 0.5311(2) 0.12525(10)
C17 C 0.1536(3) 0.5698(2) 0.22641(10)
C18 C -0.0292(3) 0.4612(2) 0.24663(10)
C19 C -0.2191(3) 0.4415(2) 0.19954(10)
C20 C -0.1191(3) 0.4022(2) 0.22691(10)
C21 C 0.0972(3) 0.4330(2) 0.25454(10)
C22 C -0.2661(3) 0.3972(2) 0.16431(10)
C23 C 0.1918(3) 0.4910(2) 0.24492(11)
C24 C -0.2943(3) 0.4432(2) 0.12622(10)
C25 C 0.3038(3) 0.5585(2) 0.17661(11)
C26 C -0.1797(3) 0.5107(2) 0.06336(10)
C27 C 0.0211(3) 0.5750(2) 0.06609(10)
C28 C 0.2016(3) 0.5934(2) 0.10786(11)
C29 C 0.1490(3) 0.5524(2) 0.07164(11)
C30 C -0.0629(3) 0.5166(2) 0.04838(10)
C31 C 0.3026(3) 0.5542(2) 0.13246(12)
C32 C 0.3600(3) 0.4913(2) 0.20123(11)
C33 C -0.2102(3) 0.4208(2) 0.06279(10)
C34 C -0.2659(3) 0.3872(2) 0.09403(11)
C35 C 0.3043(3) 0.4579(2) 0.23464(11)
C36 C 0.3305(3) 0.3671(2) 0.23766(11)
C37 C -0.2266(3) 0.3048(2) 0.11197(11)
C38 C -0.2265(3) 0.3133(2) 0.15490(11)
C39 C 0.2409(3) 0.3117(2) 0.24731(12)
C40 C 0.1210(3) 0.3453(3) 0.25403(11)
C41 C -0.1401(3) 0.2688(2) 0.18295(12)
C42 C -0.0858(3) 0.3151(2) 0.21955(11)
C43 C 0.0311(3) 0.2857(2) 0.23707(11)
C44 C 0.0929(3) 0.2143(2) 0.22070(12)
C45 C -0.0758(3) 0.2030(2) 0.16546(12)
C46 C 0.2235(3) 0.2316(2) 0.22703(12)
C47 C -0.0731(3) 0.1958(2) 0.12201(13)
C48 C -0.1401(3) 0.2538(2) 0.09445(12)
C49 C 0.4058(3) 0.3452(2) 0.20653(11)
C50 C -0.0819(3) 0.2887(2) 0.06048(11)
C51 C 0.4224(3) 0.4228(2) 0.18304(12)
C52 C -0.1139(3) 0.3725(2) 0.04646(10)
C53 C -0.0250(3) 0.4325(2) 0.03744(10)
C54 C 0.4224(3) 0.4188(2) 0.14091(12)
C55 C 0.3590(3) 0.4843(2) 0.11507(12)
C56 C 0.1030(3) 0.4099(2) 0.04077(10)
C57 C 0.1922(3) 0.4730(2) 0.05799(10)
C58 C 0.3056(3) 0.4436(2) 0.07840(11)
C59 C 0.3336(3) 0.3532(2) 0.08121(12)
C60 C 0.1289(3) 0.3220(2) 0.04584(11)
C61 C 0.4082(3) 0.3373(2) 0.12040(12)
C62 C 0.0396(3) 0.2623(2) 0.05604(12)
C63 C 0.3911(3) 0.2633(2) 0.14229(13)
C64 C 0.3901(3) 0.2674(2) 0.18583(12)
C65 C 0.2965(3) 0.2084(2) 0.19682(13)
C66 C 0.1165(3) 0.1499(2) 0.15412(13)
C67 C 0.2423(3) 0.1671(2) 0.15941(13)
C68 C 0.0462(3) 0.1645(2) 0.11503(13)
C69 C 0.3001(3) 0.2009(2) 0.12592(12)
C70 C 0.1015(3) 0.1980(2) 0.08223(12)
C71 C 0.2307(3) 0.2156(2) 0.08789(12)
C72 C 0.0427(3) 0.1742(2) 0.18525(13)
O1 O -0.1578(2) 0.78038(14) 0.12895(8)
C73 C -0.4025(3) 0.70198(18) 0.13921(10)
C74 C -0.4951(3) 0.7289(2) 0.16141(11)
H3 H -0.4847 0.7280 0.1906
C75 C -0.6029(3) 0.7569(2) 0.13962(11)
H4 H -0.6679 0.7765 0.1538
C76 C -0.6162(3) 0.7566(2) 0.09754(11)
H5 H -0.6899 0.7764 0.0824
C77 C -0.5203(3) 0.72680(19) 0.07700(11)
N1 N -0.4141(2) 0.70054(15) 0.09849(9)
C78 C -0.2497(3) 0.5429(2) 0.27600(11)
C79 C -0.3692(3) 0.5137(2) 0.27075(12)
H6 H -0.4163 0.5148 0.2445
C80 C -0.4180(3) 0.4830(3) 0.30493(12)
H7 H -0.4992 0.4610 0.3024
C81 C -0.3477(3) 0.4846(2) 0.34265(12)
H8 H -0.3798 0.4636 0.3664
C82 C -0.2292(3) 0.5170(2) 0.34568(11)
N2 N -0.1816(3) 0.54561(17) 0.31242(9)
C83 C -0.1440(3) 0.5173(2) 0.38609(11)
C84 C -0.0749(4) 0.6011(2) 0.39034(13)
H9 H -0.1330 0.6485 0.3914
H10 H -0.0294 0.6088 0.3667
H11 H -0.0176 0.6003 0.4157
C85 C -0.2138(4) 0.5060(3) 0.42327(12)
H12 H -0.2705 0.5541 0.4247
H13 H -0.1557 0.5044 0.4484
H14 H -0.2600 0.4521 0.4206
C86 C -0.0563(4) 0.4423(3) 0.38432(14)
H15 H -0.1029 0.3886 0.3814
H16 H 0.0008 0.4405 0.4097
H17 H -0.0102 0.4494 0.3607
C87 C -0.5240(3) 0.7223(2) 0.03062(11)
C88 C -0.4151(4) 0.7735(3) 0.01810(12)
H18 H -0.4163 0.7715 -0.0119
H19 H -0.3385 0.7485 0.0312
H20 H -0.4211 0.8333 0.0269
C89 C -0.6423(4) 0.7594(3) 0.00830(13)
H21 H -0.6408 0.7548 -0.0215
H22 H -0.6495 0.8199 0.0159
H23 H -0.7125 0.7273 0.0162
C90 C -0.5117(4) 0.6285(2) 0.01802(13)
H24 H -0.5149 0.6248 -0.0120
H25 H -0.5791 0.5950 0.0270
H26 H -0.4334 0.6056 0.0309
C91 C 0.2479(3) 0.2935(2) 0.06569(11)
Cl1 Cl 0.1945(2) 0.93080(14) 0.15077(6)
C92 C 0.2150(6) 0.9775(4) 0.0730(4)
H27 H 0.2793 1.0145 0.0841
C93 C 0.0616(8) 0.8725(4) 0.0813(4)
H28 H 0.0179 0.8370 0.0981
C94 C 0.1829(6) 0.9734(4) 0.0319(2)
H29 H 0.2228 1.0101 0.0146
C95 C 0.1537(5) 0.9275(3) 0.09878(17)
C96 C 0.0354(6) 0.8712(5) 0.0388(3)
H30 H -0.0281 0.8348 0.0265
C97 C 0.0966(7) 0.9193(5) 0.0148(2)
H31 H 0.0795 0.9154 -0.0143
Cl2? Cl 0.2789(9) 1.0252(6) 0.0275(3)
C98? C 0.0862(15) 0.8756(11) 0.1171(6)
H32? H 0.0458 0.8436 0.1362
C99? C 0.1812(14) 0.9309(9) 0.1312(5)
H33? H 0.2058 0.9367 0.1599
C100? C 0.2403(15) 0.9777(10) 0.1033(6)
H34? H 0.3053 1.0155 0.1129
C101? C 0.204(2) 0.9693(15) 0.0613(6)
C102? C 0.109(3) 0.9140(18) 0.0473(5)
H35? H 0.0848 0.9082 0.0186
C103? C 0.0502(19) 0.8671(15) 0.0751(7)
H36? H -0.0147 0.8294 0.0655
loop_
_geom_bond_atom_site_label_1
_geom_bond_atom_site_label_2
_geom_bond_site_symmetry_1
_geom_bond_site_symmetry_2
C1 C2 1_555 1_555
C2 H1 1_555 1_555
C3 C2 1_555 1_555
H2 C3 1_555 1_555
C4 C3 1_555 1_555
C5 C4 1_555 1_555
C6 C5 1_555 1_555
C7 C6 1_555 1_555
C8 C7 1_555 1_555
C9 C8 1_555 1_555
S1 C9 1_555 1_555
C10 S1 1_555 1_555
C11 C1 1_555 1_555
C12 C1 1_555 1_555
C13 C4 1_555 1_555
C14 C6 1_555 1_555
C15 C9 1_555 1_555
C16 C13 1_555 1_555
C17 C10 1_555 1_555
C18 C11 1_555 1_555
C19 C12 1_555 1_555
C20 C18 1_555 1_555
C21 C18 1_555 1_555
C22 C19 1_555 1_555
C23 C17 1_555 1_555
C24 C16 1_555 1_555
C25 C15 1_555 1_555
C26 C14 1_555 1_555
C27 C7 1_555 1_555
C28 C8 1_555 1_555
C29 C27 1_555 1_555
C30 C26 1_555 1_555
C31 C25 1_555 1_555
C32 C25 1_555 1_555
C33 C26 1_555 1_555
C34 C24 1_555 1_555
C35 C23 1_555 1_555
C36 C35 1_555 1_555
C37 C34 1_555 1_555
C38 C22 1_555 1_555
C39 C36 1_555 1_555
C40 C21 1_555 1_555
C41 C38 1_555 1_555
C42 C20 1_555 1_555
C43 C40 1_555 1_555
C44 C43 1_555 1_555
C45 C41 1_555 1_555
C46 C39 1_555 1_555
C47 C45 1_555 1_555
C48 C37 1_555 1_555
C49 C36 1_555 1_555
C50 C48 1_555 1_555
C51 C32 1_555 1_555
C52 C33 1_555 1_555
C53 C30 1_555 1_555
C54 C51 1_555 1_555
C55 C31 1_555 1_555
C56 C53 1_555 1_555
C57 C29 1_555 1_555
C58 C55 1_555 1_555
C59 C58 1_555 1_555
C60 C56 1_555 1_555
C61 C54 1_555 1_555
C62 C50 1_555 1_555
C63 C61 1_555 1_555
C64 C49 1_555 1_555
C65 C46 1_555 1_555
C66 C67 1_555 1_555
C67 C65 1_555 1_555
C68 C47 1_555 1_555
C69 C63 1_555 1_555
C70 C62 1_555 1_555
C71 C69 1_555 1_555
C72 C44 1_555 1_555
O1 C5 1_555 1_555
C73 C4 1_555 1_555
C74 C73 1_555 1_555
H3 C74 1_555 1_555
C75 C74 1_555 1_555
H4 C75 1_555 1_555
C76 C75 1_555 1_555
H5 C76 1_555 1_555
C77 C76 1_555 1_555
N1 C73 1_555 1_555
C78 C1 1_555 1_555
C79 C78 1_555 1_555
H6 C79 1_555 1_555
C80 C79 1_555 1_555
H7 C80 1_555 1_555
C81 C80 1_555 1_555
H8 C81 1_555 1_555
C82 C81 1_555 1_555
N2 C78 1_555 1_555
C83 C82 1_555 1_555
C84 C83 1_555 1_555
H9 C84 1_555 1_555
H10 C84 1_555 1_555
H11 C84 1_555 1_555
C85 C83 1_555 1_555
H12 C85 1_555 1_555
H13 C85 1_555 1_555
H14 C85 1_555 1_555
C86 C83 1_555 1_555
H15 C86 1_555 1_555
H16 C86 1_555 1_555
H17 C86 1_555 1_555
C87 C77 1_555 1_555
C88 C87 1_555 1_555
H18 C88 1_555 1_555
H19 C88 1_555 1_555
H20 C88 1_555 1_555
C89 C87 1_555 1_555
H21 C89 1_555 1_555
H22 C89 1_555 1_555
H23 C89 1_555 1_555
C90 C87 1_555 1_555
H24 C90 1_555 1_555
H25 C90 1_555 1_555
H26 C90 1_555 1_555
C91 C59 1_555 1_555
Cl1 C95 1_555 1_555
C92 H27 1_555 1_555
C93 H28 1_555 1_555
C94 C92 1_555 1_555
H29 C94 1_555 1_555
C95 C92 1_555 1_555
C96 C93 1_555 1_555
H30 C96 1_555 1_555
C97 C94 1_555 1_555
H31 C97 1_555 1_555
C10 C11 1_555 1_555
C12 C13 1_555 1_555
C14 C16 1_555 1_555
C15 C17 1_555 1_555
C19 C20 1_555 1_555
C21 C23 1_555 1_555
C22 C24 1_555 1_555
C27 C30 1_555 1_555
C28 C29 1_555 1_555
C28 C31 1_555 1_555
C32 C35 1_555 1_555
C33 C34 1_555 1_555
C37 C38 1_555 1_555
C39 C40 1_555 1_555
C41 C42 1_555 1_555
C42 C43 1_555 1_555
C44 C46 1_555 1_555
C45 C72 1_555 1_555
C47 C48 1_555 1_555
C49 C51 1_555 1_555
C50 C52 1_555 1_555
C52 C53 1_555 1_555
C54 C55 1_555 1_555
C56 C57 1_555 1_555
C57 C58 1_555 1_555
C59 C61 1_555 1_555
C60 C62 1_555 1_555
C60 C91 1_555 1_555
C63 C64 1_555 1_555
C64 C65 1_555 1_555
C66 C68 1_555 1_555
C66 C72 1_555 1_555
C67 C69 1_555 1_555
C68 C70 1_555 1_555
C70 C71 1_555 1_555
C71 C91 1_555 1_555
C77 N1 1_555 1_555
C82 N2 1_555 1_555
C93 C95 1_555 1_555
C96 C97 1_555 1_555

#END
