
#######################################################################
#
#                 Cambridge Crystallographic Data Centre
#                                CCDC 
#
#######################################################################
#
# If this CIF has been generated from an entry in the Cambridge 
# Structural Database, then it will include bibliographic, chemical, 
# crystal, experimental, refinement or atomic coordinate data resulting 
# from the CCDC's data processing and validation procedures.
#
#######################################################################

data_VOMRIY
_chemical_formula_moiety         'C22 H16 Br1 N1'
_chemical_name_systematic        
trans-2-Bromo-8-(2-(7-methyl-2-naphthalenyl)ethenyl)quinoline
_symmetry_cell_setting           orthorhombic
_symmetry_space_group_name_H-M   'P b c a'
_symmetry_Int_Tables_number      61
_space_group_name_Hall           '-P 2ac 2ab'
loop_
_symmetry_equiv_pos_site_id
_symmetry_equiv_pos_as_xyz
1 x,y,z
2 1/2-x,1/2+y,z
3 x,1/2-y,1/2+z
4 1/2-x,-y,1/2+z
5 -x,-y,-z
6 1/2+x,1/2-y,-z
7 -x,1/2+y,1/2-z
8 1/2+x,y,1/2-z
_cell_length_a                   7.814(1)
_cell_length_b                   15.525(2)
_cell_length_c                   28.193(4)
_cell_angle_alpha                90
_cell_angle_beta                 90
_cell_angle_gamma                90
_cell_volume                     3420.16
_exptl_crystal_colour            'pale yellow'
_chemical_melting_point          148-149deg.C
_cell_formula_units_Z            8
loop_
_atom_site_label
_atom_site_type_symbol
_atom_site_fract_x
_atom_site_fract_y
_atom_site_fract_z
Br1 Br 0.13261(31) 0.19665(13) 0.03034(7)
C1 C 0.2266(22) 0.1016(10) -0.0025(6)
C2 C 0.2083(20) 0.0183(10) 0.0190(5)
H1 H 0.1538 0.0121 0.0509
C3 C 0.2704(21) -0.0509(10) -0.0049(5)
H2 H 0.2568 -0.1102 0.0083
C4 C 0.3535(21) -0.0399(10) -0.0490(5)
C5 C 0.4216(20) -0.1073(10) -0.0767(5)
H3 H 0.4061 -0.1679 -0.0655
C6 C 0.5051(22) -0.0922(11) -0.1171(6)
H4 H 0.5541 -0.1416 -0.1354
C7 C 0.5192(22) -0.0075(11) -0.1346(5)
H5 H 0.5846 0.0020 -0.1646
C8 C 0.4544(19) 0.0639(10) -0.1109(5)
C9 C 0.3716(21) 0.0469(9) -0.0663(5)
C10 C 0.4671(20) 0.1556(10) -0.1263(6)
H6 H 0.4371 0.2017 -0.1030
C11 C 0.5159(21) 0.1800(11) -0.1684(6)
H7 H 0.5393 0.1307 -0.1904
C12 C 0.5414(20) 0.2694(9) -0.1870(5)
C13 C 0.6091(20) 0.2797(8) -0.2324(5)
H8 H 0.6316 0.2278 -0.2525
C14 C 0.6403(25) 0.3614(8) -0.2498(6)
H9 H 0.6908 0.3690 -0.2821
C15 C 0.6042(20) 0.4349(8) -0.2221(5)
C16 C 0.6369(21) 0.5177(8) -0.2392(5)
H10 H 0.6836 0.5243 -0.2720
C17 C 0.6030(21) 0.5898(10) -0.2118(5)
H11 H 0.6316 0.6481 -0.2246
C18 C 0.5328(20) 0.5815(10) -0.1660(5)
C19 C 0.4935(19) 0.4997(9) -0.1492(5)
H12 H 0.4385 0.4941 -0.1173
C20 C 0.5292(19) 0.4250(10) -0.1765(5)
C21 C 0.4955(20) 0.3408(9) -0.1592(5)
H13 H 0.4409 0.3324 -0.1275
C22 C 0.5070(25) 0.6607(10) -0.1349(6)
H14 H 0.5004 0.7073 -0.1593
H15 H 0.6016 0.6738 -0.1121
H16 H 0.3961 0.6573 -0.1173
N1 N 0.3045(15) 0.1155(7) -0.0417(4)
loop_
_geom_bond_atom_site_label_1
_geom_bond_atom_site_label_2
_geom_bond_site_symmetry_1
_geom_bond_site_symmetry_2
Br1 C1 1_555 1_555
C1 C2 1_555 1_555
C2 H1 1_555 1_555
C3 C2 1_555 1_555
H2 C3 1_555 1_555
C4 C3 1_555 1_555
C5 C4 1_555 1_555
H3 C5 1_555 1_555
C6 C5 1_555 1_555
H4 C6 1_555 1_555
C7 C6 1_555 1_555
H5 C7 1_555 1_555
C8 C7 1_555 1_555
C9 C4 1_555 1_555
C10 C8 1_555 1_555
H6 C10 1_555 1_555
C11 C10 1_555 1_555
H7 C11 1_555 1_555
C12 C11 1_555 1_555
C13 C12 1_555 1_555
H8 C13 1_555 1_555
C14 C13 1_555 1_555
H9 C14 1_555 1_555
C15 C14 1_555 1_555
C16 C15 1_555 1_555
H10 C16 1_555 1_555
C17 C16 1_555 1_555
H11 C17 1_555 1_555
C18 C17 1_555 1_555
C19 C18 1_555 1_555
H12 C19 1_555 1_555
C20 C15 1_555 1_555
C21 C12 1_555 1_555
H13 C21 1_555 1_555
C22 C18 1_555 1_555
H14 C22 1_555 1_555
H15 C22 1_555 1_555
H16 C22 1_555 1_555
N1 C1 1_555 1_555
C8 C9 1_555 1_555
C9 N1 1_555 1_555
C19 C20 1_555 1_555
C20 C21 1_555 1_555

#END
