
#######################################################################
#
#                 Cambridge Crystallographic Data Centre
#                                CCDC 
#
#######################################################################
#
# If this CIF has been generated from an entry in the Cambridge 
# Structural Database, then it will include bibliographic, chemical, 
# crystal, experimental, refinement or atomic coordinate data resulting 
# from the CCDC's data processing and validation procedures.
#
#######################################################################

data_VOMZAZ
_chemical_name_common            
1,2,3,4-Tetrahydroxy-1,3,4,4a,5,11b-hexahydro[1,3]dioxolo[4,5-j]phenanthridin-6(2H)-one
_chemical_formula_moiety         'C14 H15 N1 O7'
_chemical_name_systematic        1,10b-Epi-7-deoxypancratistatin
_chemical_properties_biological  'anti-cancer activity'
_symmetry_cell_setting           orthorhombic
_symmetry_space_group_name_H-M   'C 2 2 21'
_symmetry_Int_Tables_number      20
_space_group_name_Hall           'C 2n 2'
loop_
_symmetry_equiv_pos_site_id
_symmetry_equiv_pos_as_xyz
1 x,y,z
2 -x,-y,1/2+z
3 -x,y,1/2-z
4 x,-y,-z
5 1/2+x,1/2+y,z
6 1/2-x,1/2-y,1/2+z
7 1/2-x,1/2+y,1/2-z
8 1/2+x,1/2-y,-z
_cell_length_a                   7.778(2)
_cell_length_b                   12.933(4)
_cell_length_c                   25.841(7)
_cell_angle_alpha                90
_cell_angle_beta                 90
_cell_angle_gamma                90
_cell_volume                     2599.42
_exptl_crystal_colour            colorless
_exptl_crystal_description       needles
_chemical_melting_point          298-305deg.C
_cell_formula_units_Z            8
loop_
_atom_site_label
_atom_site_type_symbol
_atom_site_fract_x
_atom_site_fract_y
_atom_site_fract_z
C1 C 0.1657(3) 0.81089(18) 0.10442(9)
C2 C 0.1888(3) 0.87622(18) 0.05515(9)
C3 C 0.3313(3) 0.83035(18) 0.02220(8)
C4 C 0.5000(3) 0.83439(17) 0.05147(9)
C5 C 0.4893(3) 0.76758(17) 0.10079(9)
C6 C 0.3929(3) 0.58731(17) 0.11521(9)
C7 C 0.3396(3) 0.61944(18) 0.16780(9)
C8 C 0.3097(3) 0.5434(2) 0.20588(10)
C9 C 0.2574(4) 0.57851(18) 0.25325(11)
C10 C 0.2326(3) 0.68239(19) 0.26344(8)
C11 C 0.2603(4) 0.7570(2) 0.22710(9)
C12 C 0.3160(3) 0.72432(17) 0.17839(8)
C13 C 0.3369(3) 0.79982(18) 0.13437(8)
C14 C 0.1527(4) 0.5943(2) 0.33345(11)
O1 O 0.1060(2) 0.71052(13) 0.09177(7)
O2 O 0.0323(2) 0.87625(13) 0.02640(6)
O3 O 0.3433(2) 0.87655(15) -0.02797(6)
O4 O 0.5327(3) 0.94018(13) 0.06397(7)
O5 O 0.3677(2) 0.49709(13) 0.09895(6)
O6 O 0.2249(3) 0.52190(15) 0.29748(7)
O7 O 0.1830(3) 0.69577(14) 0.31399(6)
N1 N 0.4729(3) 0.65812(15) 0.08614(8)
H1 H 0.082(3) 0.8491(17) 0.1277(9)
H2 H 0.012(4) 0.715(2) 0.0756(10)
H3 H 0.220(3) 0.9436(19) 0.0655(8)
H4 H -0.031(4) 0.922(2) 0.0403(12)
H5 H 0.306(3) 0.757(2) 0.0158(7)
H6 H 0.407(5) 0.928(3) -0.0233(13)
H7 H 0.590(3) 0.8100(17) 0.0303(8)
H8 H 0.635(4) 0.955(2) 0.0743(11)
H9 H 0.593(3) 0.7812(17) 0.1205(9)
H10 H 0.505(3) 0.6435(18) 0.0557(10)
H11 H 0.333(4) 0.464(2) 0.1954(10)
H12 H 0.241(4) 0.832(2) 0.2373(11)
H13 H 0.364(4) 0.862(2) 0.1494(10)
H14 H 0.200(4) 0.587(2) 0.3625(12)
H15 H 0.023(5) 0.581(2) 0.3300(13)
loop_
_geom_bond_atom_site_label_1
_geom_bond_atom_site_label_2
_geom_bond_site_symmetry_1
_geom_bond_site_symmetry_2
C1 C2 1_555 1_555
C2 C3 1_555 1_555
C3 C4 1_555 1_555
C4 C5 1_555 1_555
C5 C13 1_555 1_555
C6 C7 1_555 1_555
C7 C8 1_555 1_555
C8 C9 1_555 1_555
C9 C10 1_555 1_555
C10 C11 1_555 1_555
C11 C12 1_555 1_555
C12 C7 1_555 1_555
C13 C1 1_555 1_555
C14 O6 1_555 1_555
O1 C1 1_555 1_555
O2 C2 1_555 1_555
O3 C3 1_555 1_555
O4 C4 1_555 1_555
O5 C6 1_555 1_555
O6 C9 1_555 1_555
O7 C10 1_555 1_555
N1 C5 1_555 1_555
H1 C1 1_555 1_555
H2 O1 1_555 1_555
H3 C2 1_555 1_555
H4 O2 1_555 1_555
H5 C3 1_555 1_555
H6 O3 1_555 1_555
H7 C4 1_555 1_555
H8 O4 1_555 1_555
H9 C5 1_555 1_555
H10 N1 1_555 1_555
H11 C8 1_555 1_555
H12 C11 1_555 1_555
H13 C13 1_555 1_555
H14 C14 1_555 1_555
H15 C14 1_555 1_555
C6 N1 1_555 1_555
C12 C13 1_555 1_555
C14 O7 1_555 1_555

#END
