
#######################################################################
#
#                 Cambridge Crystallographic Data Centre
#                                CCDC 
#
#######################################################################
#
# If this CIF has been generated from an entry in the Cambridge 
# Structural Database, then it will include bibliographic, chemical, 
# crystal, experimental, refinement or atomic coordinate data resulting 
# from the CCDC's data processing and validation procedures.
#
#######################################################################

data_VOPNEV
_chemical_formula_moiety         'C34 H28 O4 S8,C60,C1 S2'
_chemical_name_systematic        
'2-(4,5-bis((3-methoxyphenyl)sulfanyl)-1,3-dithiol-2-ylidene)-4,5-bis((3-methoxyphenyl)sulfanyl)-1,3-dithiole C60fullerene methanedithione'
_symmetry_cell_setting           triclinic
_symmetry_space_group_name_H-M   'P -1'
_symmetry_Int_Tables_number      2
_space_group_name_Hall           '-P 1'
loop_
_symmetry_equiv_pos_site_id
_symmetry_equiv_pos_as_xyz
1 x,y,z
2 -x,-y,-z
_cell_length_a                   10.283(4)
_cell_length_b                   10.340(4)
_cell_length_c                   16.018(7)
_cell_angle_alpha                103.299(5)
_cell_angle_beta                 104.031(5)
_cell_angle_gamma                100.895(7)
_cell_volume                     1553.03
_exptl_crystal_colour            black
_exptl_crystal_description       platelet
_chemical_melting_point          '523 K'
_cell_formula_units_Z            1
_chemical_properties_physical    Heat-sensitive
_exptl_crystal_recrystallization_method 'carbon disulfide'
_exptl_crystal_preparation       'optical and electronic transport properties'
loop_
_atom_site_label
_atom_site_type_symbol
_atom_site_fract_x
_atom_site_fract_y
_atom_site_fract_z
C1 C 0.0296(2) 1.0237(2) 0.54515(13)
C2 C 0.1911(2) 1.0789(2) 0.70778(14)
C3 C 0.1070(2) 1.1640(2) 0.71355(14)
C4 C 0.3071(2) 0.9327(2) 0.81922(14)
C5 C 0.4181(2) 0.9141(2) 0.87984(14)
H1 H 0.5009 0.9829 0.9048
C6 C 0.4049(2) 0.7917(2) 0.90315(14)
C7 C 0.2816(2) 0.6885(2) 0.86541(14)
H2 H 0.2728 0.6065 0.8807
C8 C 0.1724(2) 0.7093(2) 0.80485(15)
H3 H 0.0901 0.6400 0.7793
C9 C 0.1824(2) 0.8311(2) 0.78116(14)
H4 H 0.1077 0.8443 0.7409
C10 C -0.0319(2) 1.2873(2) 0.82411(14)
C11 C -0.0570(2) 1.4104(2) 0.86584(14)
H5 H 0.0075 1.4938 0.8783
C12 C -0.1793(2) 1.4067(2) 0.88859(14)
C13 C -0.2779(3) 1.2826(2) 0.86650(17)
H6 H -0.3606 1.2804 0.8807
C14 C -0.2526(3) 1.1628(3) 0.82354(18)
H7 H -0.3198 1.0801 0.8080
C15 C -0.1290(3) 1.1626(2) 0.80290(16)
H8 H -0.1117 1.0807 0.7755
C16 C 0.5228(3) 0.6503(2) 0.97541(16)
H9 H 0.6083 0.6574 1.0191
H10 H 0.5159 0.5874 0.9192
H11 H 0.4462 0.6173 0.9959
C17 C -0.1237(3) 1.6523(2) 0.94423(16)
H12 H -0.1582 1.7233 0.9748
H13 H -0.1212 1.6639 0.8868
H14 H -0.0317 1.6580 0.9796
O1 O 0.52001(17) 0.78214(16) 0.96360(11)
O2 O -0.21288(18) 1.52079(16) 0.93154(11)
S1 S 0.16589(6) 0.96599(5) 0.60160(3)
S2 S -0.02063(5) 1.15130(5) 0.61420(3)
S3 S 0.33729(6) 1.09430(5) 0.79634(4)
S4 S 0.13471(6) 1.30122(6) 0.80872(4)
C1A C -0.0296(2) 0.9763(2) 0.45485(13)
C2A C -0.1911(2) 0.9211(2) 0.29222(14)
C3A C -0.1070(2) 0.8360(2) 0.28645(14)
C4A C -0.3071(2) 1.0673(2) 0.18078(14)
C5A C -0.4181(2) 1.0859(2) 0.12016(14)
H1A H -0.5009 1.0171 0.0952
C6A C -0.4049(2) 1.2083(2) 0.09685(14)
C7A C -0.2816(2) 1.3115(2) 0.13459(14)
H2A H -0.2728 1.3935 0.1193
C8A C -0.1724(2) 1.2907(2) 0.19515(15)
H3A H -0.0901 1.3600 0.2207
C9A C -0.1824(2) 1.1689(2) 0.21884(14)
H4A H -0.1077 1.1557 0.2591
C10A C 0.0319(2) 0.7127(2) 0.17589(14)
C11A C 0.0570(2) 0.5896(2) 0.13416(14)
H5A H -0.0075 0.5062 0.1217
C12A C 0.1793(2) 0.5933(2) 0.11141(14)
C13A C 0.2779(3) 0.7174(2) 0.13350(17)
H6A H 0.3606 0.7196 0.1193
C14A C 0.2526(3) 0.8372(3) 0.17646(18)
H7A H 0.3198 0.9199 0.1920
C15A C 0.1290(3) 0.8374(2) 0.19710(16)
H8A H 0.1117 0.9193 0.2245
C16A C -0.5228(3) 1.3497(2) 0.02459(16)
H9A H -0.6083 1.3426 -0.0191
H10A H -0.5159 1.4126 0.0808
H11A H -0.4462 1.3827 0.0041
C17A C 0.1237(3) 0.3477(2) 0.05577(16)
H12A H 0.1582 0.2767 0.0252
H13A H 0.1212 0.3361 0.1132
H14A H 0.0317 0.3420 0.0204
O1A O -0.52001(17) 1.21786(16) 0.03640(11)
O2A O 0.21288(18) 0.47921(16) 0.06846(11)
S1A S -0.16589(6) 1.03401(5) 0.39840(3)
S2A S 0.02063(5) 0.84870(5) 0.38580(3)
S3A S -0.33729(6) 0.90570(5) 0.20366(4)
S4A S -0.13471(6) 0.69878(6) 0.19128(4)
C18 C 0.2028(3) 0.4975(3) 0.57574(19)
C19 C 0.2518(2) 0.6421(2) 0.58174(17)
C20 C 0.2214(2) 0.6561(2) 0.49249(17)
C21 C 0.1536(2) 0.5226(3) 0.42777(17)
C22 C 0.1405(2) 0.4212(3) 0.47843(19)
C23 C 0.2783(3) 0.4404(3) 0.63283(19)
C24 C 0.4039(3) 0.5225(3) 0.69938(17)
C25 C 0.5030(3) 0.4355(3) 0.70771(17)
C26 C 0.4320(3) 0.3004(3) 0.64418(19)
C27 C 0.2953(3) 0.3028(3) 0.59728(19)
C28 C 0.3753(3) 0.7224(2) 0.64652(16)
C29 C 0.4711(3) 0.8189(2) 0.62343(18)
C30 C 0.6139(3) 0.8169(2) 0.67178(18)
C31 C 0.6016(3) 0.7177(3) 0.72304(15)
C32 C 0.4531(3) 0.6607(3) 0.70689(15)
C33 C 0.3152(3) 0.7501(3) 0.47058(18)
C34 C 0.4423(3) 0.8322(2) 0.5377(2)
C35 C 0.5529(3) 0.8457(2) 0.4945(2)
C36 C 0.4949(3) 0.7721(3) 0.4007(2)
C37 C 0.3442(3) 0.7119(3) 0.3849(2)
C38 C 0.1828(3) 0.4899(3) 0.34754(18)
C39 C 0.2797(3) 0.5854(3) 0.3266(2)
C40 C 0.2005(3) 0.3525(3) 0.31238(17)
C41 C 0.1580(3) 0.2939(3) 0.4463(2)
C42 C 0.1871(3) 0.2582(3) 0.36142(19)
C43 C 0.2840(3) 0.1708(3) 0.3697(2)
C44 C 0.3147(3) 0.1551(2) 0.45883(19)
C45 C 0.2356(3) 0.2333(2) 0.5066(2)
C46 C 0.6386(3) 0.4927(3) 0.72225(17)
C47 C 0.6907(3) 0.6333(3) 0.73005(16)
C18A C 0.7972(3) 0.5025(3) 0.42426(19)
C19A C 0.7482(2) 0.3579(2) 0.41826(17)
C20A C 0.7786(2) 0.3439(2) 0.50751(17)
C21A C 0.8464(2) 0.4774(3) 0.57223(17)
C22A C 0.8595(2) 0.5788(3) 0.52157(19)
C23A C 0.7217(3) 0.5596(3) 0.36717(19)
C24A C 0.5961(3) 0.4775(3) 0.30062(17)
C25A C 0.4970(3) 0.5645(3) 0.29229(17)
C26A C 0.5680(3) 0.6996(3) 0.35582(19)
C27A C 0.7047(3) 0.6972(3) 0.40272(19)
C28A C 0.6247(3) 0.2776(2) 0.35348(16)
C29A C 0.5289(3) 0.1811(2) 0.37657(18)
C30A C 0.3861(3) 0.1831(2) 0.32822(18)
C31A C 0.3984(3) 0.2823(3) 0.27696(15)
C32A C 0.5469(3) 0.3393(3) 0.29311(15)
C33A C 0.6848(3) 0.2499(3) 0.52942(18)
C34A C 0.5577(3) 0.1678(2) 0.4623(2)
C35A C 0.4471(3) 0.1543(2) 0.5055(2)
C36A C 0.5051(3) 0.2279(3) 0.5993(2)
C37A C 0.6558(3) 0.2881(3) 0.6151(2)
C38A C 0.8172(3) 0.5101(3) 0.65246(18)
C39A C 0.7203(3) 0.4146(3) 0.6734(2)
C40A C 0.7995(3) 0.6475(3) 0.68762(17)
C41A C 0.8420(3) 0.7061(3) 0.5537(2)
C42A C 0.8129(3) 0.7418(3) 0.63858(19)
C43A C 0.7160(3) 0.8292(3) 0.6303(2)
C44A C 0.6853(3) 0.8449(2) 0.54117(19)
C45A C 0.7644(3) 0.7667(2) 0.4934(2)
C46A C 0.3614(3) 0.5073(3) 0.27775(17)
C47A C 0.3093(3) 0.3667(3) 0.26995(16)
S5 S 0.13639(15) 0.97987(10) 0.97969(9)
C48 C 0.0000 1.0000 1.0000
S5A S -0.13639(15) 1.02013(10) 1.02031(9)
loop_
_geom_bond_atom_site_label_1
_geom_bond_atom_site_label_2
_geom_bond_site_symmetry_1
_geom_bond_site_symmetry_2
C1 S1 1_555 1_555
C2 C3 1_555 1_555
C3 S2 1_555 1_555
C4 C5 1_555 1_555
C5 H1 1_555 1_555
C6 C5 1_555 1_555
C7 C6 1_555 1_555
H2 C7 1_555 1_555
C8 C7 1_555 1_555
H3 C8 1_555 1_555
C9 C4 1_555 1_555
H4 C9 1_555 1_555
C10 C11 1_555 1_555
C11 H5 1_555 1_555
C12 C11 1_555 1_555
C13 C12 1_555 1_555
H6 C13 1_555 1_555
C14 C13 1_555 1_555
H7 C14 1_555 1_555
C15 C10 1_555 1_555
H8 C15 1_555 1_555
C16 H9 1_555 1_555
H10 C16 1_555 1_555
H11 C16 1_555 1_555
C17 H12 1_555 1_555
H13 C17 1_555 1_555
H14 C17 1_555 1_555
O1 C6 1_555 1_555
O2 C12 1_555 1_555
S1 C2 1_555 1_555
S2 C1 1_555 1_555
S3 C2 1_555 1_555
S4 C3 1_555 1_555
C18 C19 1_555 1_555
C19 C20 1_555 1_555
C20 C21 1_555 1_555
C21 C22 1_555 1_555
C22 C18 1_555 1_555
C23 C18 1_555 1_555
C24 C23 1_555 1_555
C25 C24 1_555 1_555
C26 C25 1_555 1_555
C27 C23 1_555 1_555
C28 C19 1_555 1_555
C29 C28 1_555 1_555
C30 C29 1_555 1_555
C31 C30 1_555 1_555
C32 C24 1_555 1_555
C33 C20 1_555 1_555
C34 C29 1_555 1_555
C35 C34 1_555 1_555
C36 C35 1_555 1_555
C37 C33 1_555 1_555
C38 C21 1_555 1_555
C39 C37 1_555 1_555
C40 C38 1_555 1_555
C41 C22 1_555 1_555
C42 C40 1_555 1_555
C43 C42 1_555 1_555
C44 C43 1_555 1_555
C45 C27 1_555 1_555
C46 C25 1_555 1_555
C47 C31 1_555 1_555
S5 C48 1_555 1_555
C48 S5A 1_555 1_555
C1A C1 1_555 1_555
C2A C3A 1_555 1_555
C3A S2A 1_555 1_555
C4A C5A 1_555 1_555
C5A H1A 1_555 1_555
C6A C5A 1_555 1_555
C7A C6A 1_555 1_555
H2A C7A 1_555 1_555
C8A C7A 1_555 1_555
H3A C8A 1_555 1_555
C9A C4A 1_555 1_555
H4A C9A 1_555 1_555
C10A C11A 1_555 1_555
C11A H5A 1_555 1_555
C12A C11A 1_555 1_555
C13A C12A 1_555 1_555
H6A C13A 1_555 1_555
C14A C13A 1_555 1_555
H7A C14A 1_555 1_555
C15A C10A 1_555 1_555
H8A C15A 1_555 1_555
C16A H9A 1_555 1_555
H10A C16A 1_555 1_555
H11A C16A 1_555 1_555
C17A H12A 1_555 1_555
H13A C17A 1_555 1_555
H14A C17A 1_555 1_555
O1A C6A 1_555 1_555
O2A C12A 1_555 1_555
S1A C1A 1_555 1_555
S2A C1A 1_555 1_555
S3A C2A 1_555 1_555
S4A C3A 1_555 1_555
C18A C19A 1_555 1_555
C19A C20A 1_555 1_555
C20A C21A 1_555 1_555
C21A C22A 1_555 1_555
C22A C18A 1_555 1_555
C23A C18A 1_555 1_555
C24A C23A 1_555 1_555
C25A C24A 1_555 1_555
C26A C36 1_555 1_555
C27A C23A 1_555 1_555
C28A C19A 1_555 1_555
C29A C28A 1_555 1_555
C30A C43 1_555 1_555
C31A C30A 1_555 1_555
C32A C24A 1_555 1_555
C33A C20A 1_555 1_555
C34A C29A 1_555 1_555
C35A C44 1_555 1_555
C36A C26 1_555 1_555
C37A C33A 1_555 1_555
C38A C21A 1_555 1_555
C39A C46 1_555 1_555
C40A C47 1_555 1_555
C41A C22A 1_555 1_555
C42A C40A 1_555 1_555
C43A C30 1_555 1_555
C44A C35 1_555 1_555
C45A C27A 1_555 1_555
C46A C39 1_555 1_555
C47A C40 1_555 1_555
C4 S3 1_555 1_555
C8 C9 1_555 1_555
C10 S4 1_555 1_555
C14 C15 1_555 1_555
C16 O1 1_555 1_555
C17 O2 1_555 1_555
C26 C27 1_555 1_555
C28 C32 1_555 1_555
C31 C32 1_555 1_555
C33 C34 1_555 1_555
C36 C37 1_555 1_555
C38 C39 1_555 1_555
C41 C42 1_555 1_555
C41 C45 1_555 1_555
C44 C45 1_555 1_555
C46 C47 1_555 1_555
C2A S1A 1_555 1_555
C4A S3A 1_555 1_555
C8A C9A 1_555 1_555
C10A S4A 1_555 1_555
C14A C15A 1_555 1_555
C16A O1A 1_555 1_555
C17A O2A 1_555 1_555
C25A C26A 1_555 1_555
C25A C46A 1_555 1_555
C26A C27A 1_555 1_555
C28A C32A 1_555 1_555
C29A C30A 1_555 1_555
C31A C32A 1_555 1_555
C31A C47A 1_555 1_555
C33A C34A 1_555 1_555
C34A C35A 1_555 1_555
C35A C36A 1_555 1_555
C36A C37A 1_555 1_555
C37A C39A 1_555 1_555
C38A C39A 1_555 1_555
C38A C40A 1_555 1_555
C41A C42A 1_555 1_555
C41A C45A 1_555 1_555
C42A C43A 1_555 1_555
C43A C44A 1_555 1_555
C44A C45A 1_555 1_555
C46A C47A 1_555 1_555

#END
