
#######################################################################
#
#                 Cambridge Crystallographic Data Centre
#                                CCDC 
#
#######################################################################
#
# If this CIF has been generated from an entry in the Cambridge 
# Structural Database, then it will include bibliographic, chemical, 
# crystal, experimental, refinement or atomic coordinate data resulting 
# from the CCDC's data processing and validation procedures.
#
#######################################################################

data_VOQLIX
_chemical_formula_moiety         'C11 H11 Br1 N2 O4'
_chemical_name_systematic        
(4S,5S)-2-(2-Bromophenyl)-1,3-dioxolane-4,5-dicarboxamide
_symmetry_cell_setting           monoclinic
_symmetry_space_group_name_H-M   'P 21'
_symmetry_Int_Tables_number      4
_space_group_name_Hall           'P 2yb'
loop_
_symmetry_equiv_pos_site_id
_symmetry_equiv_pos_as_xyz
1 x,y,z
2 -x,1/2+y,-z
_cell_length_a                   9.4150(19)
_cell_length_b                   14.458(3)
_cell_length_c                   9.6170(19)
_cell_angle_alpha                90
_cell_angle_beta                 111.14(3)
_cell_angle_gamma                90
_cell_volume                     1220.99
_exptl_crystal_colour            colorless
_exptl_crystal_description       block
_cell_formula_units_Z            4
_exptl_crystal_recrystallization_method methanol
loop_
_atom_site_label
_atom_site_type_symbol
_atom_site_fract_x
_atom_site_fract_y
_atom_site_fract_z
Br1 Br 0.02596(15) 0.99788(7) 0.97303(14)
O1 O 0.2071(7) 0.8476(4) 1.2310(7)
O2 O 0.3547(9) 0.7557(5) 1.1503(8)
O3 O 0.5492(8) 0.9264(5) 1.5118(7)
O4 O 0.5063(11) 0.6732(6) 1.5238(9)
N1 N 0.3494(10) 1.0032(7) 1.3501(9)
H1 H 0.3872 1.0569 1.3798
H2 H 0.2618 0.9983 1.2798
N2 N 0.3894(12) 0.6010(7) 1.3088(9)
H3 H 0.3936 0.5487 1.3527
H4 H 0.3480 0.6046 1.2133
C1 C -0.1253(13) 0.8539(9) 0.7843(12)
H9 H -0.1973 0.8994 0.7406
C2 C -0.1452(15) 0.7645(9) 0.7283(14)
H10 H -0.2335 0.7490 0.6491
C3 C -0.0347(14) 0.6989(9) 0.7897(12)
H11 H -0.0477 0.6397 0.7492
C4 C 0.0952(12) 0.7193(8) 0.9104(12)
H12 H 0.1685 0.6738 0.9501
C5 C 0.1177(10) 0.8071(7) 0.9733(10)
C6 C 0.0023(11) 0.8736(7) 0.9049(11)
C7 C 0.2506(12) 0.8300(7) 1.1051(11)
H13 H 0.3017 0.8846 1.0846
C8 C 0.4385(13) 0.7664(7) 1.3091(12)
H14 H 0.5406 0.7913 1.3284
C9 C 0.3383(11) 0.8363(7) 1.3586(10)
H15 H 0.3110 0.8091 1.4389
C10 C 0.4257(11) 0.9281(7) 1.4125(10)
C11 C 0.4458(12) 0.6747(7) 1.3868(11)
Br2 Br 0.51991(15) 0.59675(7) 0.96846(14)
O5 O 0.1786(8) 0.3598(6) 0.8478(8)
O6 O 0.3262(6) 0.4292(4) 0.7424(6)
O7 O -0.0743(8) 0.2608(5) 0.5162(8)
O8 O -0.0128(9) 0.5151(6) 0.4748(10)
N3 N 0.1299(12) 0.2007(8) 0.6938(12)
H5 H 0.1123 0.1461 0.6557
H6 H 0.2075 0.2103 0.7737
N4 N 0.2056(10) 0.5835(6) 0.5937(10)
H7 H 0.1804 0.6354 0.5475
H8 H 0.2946 0.5768 0.6609
C12 C 0.6632(12) 0.4664(8) 1.1863(12)
H16 H 0.7377 0.5119 1.2195
C13 C 0.6768(12) 0.3799(8) 1.2638(11)
H17 H 0.7629 0.3679 1.3475
C14 C 0.5657(12) 0.3166(9) 1.2157(12)
H18 H 0.5721 0.2619 1.2687
C15 C 0.4429(12) 0.3328(7) 1.0882(11)
H19 H 0.3687 0.2872 1.0542
C16 C 0.4242(11) 0.4149(7) 1.0072(10)
C17 C 0.5378(11) 0.4786(7) 1.0634(10)
C18 C 0.2854(10) 0.4319(7) 0.8716(10)
H20 H 0.2392 0.4915 0.8789
C19 C 0.0858(10) 0.3643(7) 0.6949(11)
H21 H -0.0053 0.4007 0.6842
C20 C 0.1849(12) 0.4189(7) 0.6234(10)
H22 H 0.1984 0.3824 0.5433
C21 C 0.0373(12) 0.2699(7) 0.6293(12)
C22 C 0.1035(12) 0.5114(7) 0.5599(10)
loop_
_geom_bond_atom_site_label_1
_geom_bond_atom_site_label_2
_geom_bond_site_symmetry_1
_geom_bond_site_symmetry_2
Br1 C6 1_555 1_555
Br2 C17 1_555 1_555
O1 C7 1_555 1_555
O2 C7 1_555 1_555
O3 C10 1_555 1_555
O4 C11 1_555 1_555
O5 C18 1_555 1_555
O6 C18 1_555 1_555
O7 C21 1_555 1_555
O8 C22 1_555 1_555
N1 H1 1_555 1_555
H2 N1 1_555 1_555
N2 H3 1_555 1_555
H4 N2 1_555 1_555
N3 H5 1_555 1_555
H6 N3 1_555 1_555
N4 H7 1_555 1_555
H8 N4 1_555 1_555
C1 H9 1_555 1_555
C2 C1 1_555 1_555
H10 C2 1_555 1_555
C3 C2 1_555 1_555
H11 C3 1_555 1_555
C4 C3 1_555 1_555
H12 C4 1_555 1_555
C5 C4 1_555 1_555
C6 C1 1_555 1_555
C7 C5 1_555 1_555
H13 C7 1_555 1_555
C8 O2 1_555 1_555
H14 C8 1_555 1_555
C9 O1 1_555 1_555
H15 C9 1_555 1_555
C10 N1 1_555 1_555
C11 N2 1_555 1_555
C12 H16 1_555 1_555
C13 C12 1_555 1_555
H17 C13 1_555 1_555
C14 C13 1_555 1_555
H18 C14 1_555 1_555
C15 C14 1_555 1_555
H19 C15 1_555 1_555
C16 C15 1_555 1_555
C17 C12 1_555 1_555
C18 C16 1_555 1_555
H20 C18 1_555 1_555
C19 O5 1_555 1_555
H21 C19 1_555 1_555
C20 O6 1_555 1_555
H22 C20 1_555 1_555
C21 N3 1_555 1_555
C22 N4 1_555 1_555
C5 C6 1_555 1_555
C8 C9 1_555 1_555
C8 C11 1_555 1_555
C9 C10 1_555 1_555
C16 C17 1_555 1_555
C19 C20 1_555 1_555
C19 C21 1_555 1_555
C20 C22 1_555 1_555

#END
