
#######################################################################
#
#                 Cambridge Crystallographic Data Centre
#                                CCDC 
#
#######################################################################
#
# If this CIF has been generated from an entry in the Cambridge 
# Structural Database, then it will include bibliographic, chemical, 
# crystal, experimental, refinement or atomic coordinate data resulting 
# from the CCDC's data processing and validation procedures.
#
#######################################################################

data_VOQTAW
_chemical_formula_moiety         'C6 H16 N2 2+,Br1 1-,Cl1 O4 1-'
_chemical_name_systematic        '1,5-Diazoniacyclo-octane bromide perchlorate'
_symmetry_cell_setting           orthorhombic
_symmetry_space_group_name_H-M   'P n m a'
_symmetry_Int_Tables_number      62
_space_group_name_Hall           '-P 2ac 2n'
loop_
_symmetry_equiv_pos_site_id
_symmetry_equiv_pos_as_xyz
1 x,y,z
2 1/2+x,y,1/2-z
3 x,1/2-y,z
4 1/2-x,1/2+y,1/2+z
5 -x,-y,-z
6 1/2-x,-y,1/2+z
7 -x,1/2+y,-z
8 1/2+x,1/2-y,1/2-z
_cell_length_a                   11.5744(13)
_cell_length_b                   8.4312(10)
_cell_length_c                   11.4607(13)
_cell_angle_alpha                90
_cell_angle_beta                 90
_cell_angle_gamma                90
_cell_volume                     1118.4
_cell_formula_units_Z            4
_exptl_crystal_recrystallization_method 'ethanol/diethyl ether'
loop_
_atom_site_label
_atom_site_type_symbol
_atom_site_fract_x
_atom_site_fract_y
_atom_site_fract_z
Br1 Br 0.41229(4) 0.2500 0.04719(4)
Cl1 Cl 0.58831(13) 0.2500 0.70138(15)
O1 O 0.7146(5) 0.2500 0.7045(7)
O2 O 0.5639(6) 0.1086(7) 0.7630(8)
O3 O 0.5557(8) 0.2500 0.5948(8)
O2B O 0.5639(6) 0.3914(7) 0.7630(8)
C1 C 0.6225(5) 0.2500 0.3026(5)
H1 H 0.5407 0.2500 0.2843
H2 H 0.6289 0.2500 0.3870
C2 C 0.6722(3) 0.0945(5) 0.2591(3)
H3 H 0.7555 0.0977 0.2676
H4 H 0.6435 0.0093 0.3080
N1 N 0.6440(2) 0.0573(3) 0.1354(3)
H5 H 0.5781 0.1082 0.1171
H6 H 0.6295 -0.0474 0.1304
C3 C 0.7329(4) 0.0983(4) 0.0442(4)
H7 H 0.7883 0.0123 0.0397
H8 H 0.6946 0.1053 -0.0309
C4 C 0.7974(5) 0.2500 0.0650(5)
H9 H 0.8739 0.2500 0.0896
C3B C 0.7329(4) 0.4017(4) 0.0442(4)
N1B N 0.6440(2) 0.4427(3) 0.1354(3)
C2B C 0.6722(3) 0.4055(5) 0.2591(3)
H3B H 0.7555 0.4023 0.2676
H4B H 0.6435 0.4907 0.3080
H5B H 0.5781 0.3918 0.1171
H6B H 0.6295 0.5474 0.1304
H7B H 0.7883 0.4877 0.0397
H8B H 0.6946 0.3947 -0.0309
loop_
_geom_bond_atom_site_label_1
_geom_bond_atom_site_label_2
_geom_bond_site_symmetry_1
_geom_bond_site_symmetry_2
Cl1 O1 1_555 1_555
O2 Cl1 1_555 1_555
O3 Cl1 1_555 1_555
C1 H1 1_555 1_555
H2 C1 1_555 1_555
C2 C1 1_555 1_555
H3 C2 1_555 1_555
H4 C2 1_555 1_555
N1 C2 1_555 1_555
H5 N1 1_555 1_555
H6 N1 1_555 1_555
C3 N1 1_555 1_555
H7 C3 1_555 1_555
H8 C3 1_555 1_555
C4 C3 1_555 1_555
H9 C4 1_555 1_555
O2B Cl1 1_555 1_555
C3B C4 1_555 1_555
N1B C3B 1_555 1_555
C2B C1 1_555 1_555
H3B C2B 1_555 1_555
H4B C2B 1_555 1_555
H5B N1B 1_555 1_555
H6B N1B 1_555 1_555
H7B C3B 1_555 1_555
H8B C3B 1_555 1_555
N1B C2B 1_555 1_555

#END
