
#######################################################################
#
#                 Cambridge Crystallographic Data Centre
#                                CCDC 
#
#######################################################################
#
# If this CIF has been generated from an entry in the Cambridge 
# Structural Database, then it will include bibliographic, chemical, 
# crystal, experimental, refinement or atomic coordinate data resulting 
# from the CCDC's data processing and validation procedures.
#
#######################################################################

data_VOQZAE
_chemical_formula_moiety         'C10 H26 B20'
_chemical_name_systematic        1,4-bis(1-ortho-carboranyl)benzene
_symmetry_cell_setting           monoclinic
_symmetry_space_group_name_H-M   'P 21/n'
_symmetry_Int_Tables_number      14
_space_group_name_Hall           '-P 2yn'
loop_
_symmetry_equiv_pos_site_id
_symmetry_equiv_pos_as_xyz
1 x,y,z
2 1/2-x,1/2+y,1/2-z
3 -x,-y,-z
4 1/2+x,1/2-y,1/2+z
_cell_length_a                   6.8195(2)
_cell_length_b                   12.6682(3)
_cell_length_c                   12.3936(3)
_cell_angle_alpha                90
_cell_angle_beta                 104.20(2)
_cell_angle_gamma                90
_cell_volume                     1037.98
_exptl_crystal_colour            colorless
_exptl_crystal_description       prism
_cell_formula_units_Z            2
loop_
_atom_site_label
_atom_site_type_symbol
_atom_site_fract_x
_atom_site_fract_y
_atom_site_fract_z
C1 C 0.51073(14) 0.38601(8) 0.70584(8)
C2 C 0.39631(15) 0.26974(8) 0.69894(8)
C3 C 0.50298(14) 0.44515(7) 0.59925(8)
C4 C 0.33334(15) 0.50321(8) 0.54537(8)
C5 C 0.66968(15) 0.44353(8) 0.55305(8)
B1 B 0.65489(18) 0.27074(9) 0.72683(10)
B2 B 0.72438(17) 0.38437(9) 0.81214(9)
B3 B 0.49941(18) 0.44876(9) 0.82669(9)
B4 B 0.28995(17) 0.37479(9) 0.75059(9)
B5 B 0.52262(19) 0.18332(9) 0.79600(10)
B6 B 0.73419(18) 0.25650(9) 0.87285(10)
B7 B 0.63722(18) 0.36622(9) 0.93473(9)
B8 B 0.36778(18) 0.36049(9) 0.89632(10)
B9 B 0.29826(18) 0.24729(9) 0.81019(10)
B10 B 0.51287(18) 0.24170(9) 0.92443(10)
H1 H 0.328(2) 0.2463(12) 0.6269(14)
H2 H 0.720(2) 0.2454(11) 0.6591(13)
H3 H 0.850(2) 0.4324(12) 0.8011(12)
H4 H 0.490(2) 0.5315(13) 0.8239(13)
H5 H 0.154(2) 0.4079(12) 0.6973(12)
H6 H 0.518(2) 0.1024(13) 0.7712(13)
H7 H 0.880(2) 0.2220(13) 0.9124(14)
H8 H 0.721(2) 0.3995(13) 1.0127(13)
H9 H 0.273(2) 0.3901(13) 0.9500(13)
H10 H 0.154(2) 0.2072(14) 0.7960(14)
H11 H 0.516(2) 0.1926(12) 0.9983(13)
H12 H 0.215(2) 0.5097(13) 0.5766(13)
H13 H 0.787(2) 0.4035(13) 0.5853(12)
C1B C 0.48927(14) 0.61399(8) 0.29416(8)
C2B C 0.60369(15) 0.73026(8) 0.30106(8)
C3B C 0.49702(14) 0.55485(7) 0.40075(8)
C4B C 0.66666(15) 0.49679(8) 0.45463(8)
C5B C 0.33032(15) 0.55647(8) 0.44695(8)
B1B B 0.34511(18) 0.72926(9) 0.27317(10)
B2B B 0.27562(17) 0.61563(9) 0.18786(9)
B3B B 0.50059(18) 0.55124(9) 0.17331(9)
B4B B 0.71005(17) 0.62521(9) 0.24941(9)
B5B B 0.47738(19) 0.81668(9) 0.20400(10)
B6B B 0.26581(18) 0.74350(9) 0.12715(10)
B7B B 0.36278(18) 0.63378(9) 0.06527(9)
B8B B 0.63222(18) 0.63951(9) 0.10368(10)
B9B B 0.70174(18) 0.75271(9) 0.18981(10)
B10B B 0.48713(18) 0.75830(9) 0.07557(10)
H1B H 0.672(2) 0.7537(12) 0.3731(14)
H2B H 0.280(2) 0.7546(11) 0.3409(13)
H3B H 0.150(2) 0.5676(12) 0.1989(12)
H4B H 0.510(2) 0.4685(13) 0.1761(13)
H5B H 0.846(2) 0.5921(12) 0.3027(12)
H6B H 0.482(2) 0.8976(13) 0.2288(13)
H7B H 0.120(2) 0.7780(13) 0.0876(14)
H8B H 0.279(2) 0.6005(13) -0.0127(13)
H9B H 0.727(2) 0.6099(13) 0.0500(13)
H10B H 0.846(2) 0.7928(14) 0.2040(14)
H11B H 0.484(2) 0.8074(12) 0.0017(13)
H12B H 0.785(2) 0.4903(13) 0.4234(13)
H13B H 0.213(2) 0.5965(13) 0.4147(12)
loop_
_geom_bond_atom_site_label_1
_geom_bond_atom_site_label_2
_geom_bond_site_symmetry_1
_geom_bond_site_symmetry_2
C1 C2 1_555 1_555
C2 B1 1_555 1_555
C3 C1 1_555 1_555
C4 C3 1_555 1_555
C5 C3 1_555 1_555
B1 C1 1_555 1_555
B2 C1 1_555 1_555
B3 C1 1_555 1_555
B4 C1 1_555 1_555
B5 C2 1_555 1_555
B6 B1 1_555 1_555
B7 B2 1_555 1_555
B8 B3 1_555 1_555
B9 C2 1_555 1_555
B10 B5 1_555 1_555
H1 C2 1_555 1_555
H2 B1 1_555 1_555
H3 B2 1_555 1_555
H4 B3 1_555 1_555
H5 B4 1_555 1_555
H6 B5 1_555 1_555
H7 B6 1_555 1_555
H8 B7 1_555 1_555
H9 B8 1_555 1_555
H10 B9 1_555 1_555
H11 B10 1_555 1_555
H12 C4 1_555 1_555
H13 C5 1_555 1_555
C1B C2B 1_555 1_555
C2B B1B 1_555 1_555
C3B C1B 1_555 1_555
C4B C5 1_555 1_555
C5B C4 1_555 1_555
B1B C1B 1_555 1_555
B2B C1B 1_555 1_555
B3B C1B 1_555 1_555
B4B C1B 1_555 1_555
B5B C2B 1_555 1_555
B6B B1B 1_555 1_555
B7B B2B 1_555 1_555
B8B B3B 1_555 1_555
B9B C2B 1_555 1_555
B10B B5B 1_555 1_555
H1B C2B 1_555 1_555
H2B B1B 1_555 1_555
H3B B2B 1_555 1_555
H4B B3B 1_555 1_555
H5B B4B 1_555 1_555
H6B B5B 1_555 1_555
H7B B6B 1_555 1_555
H8B B7B 1_555 1_555
H9B B8B 1_555 1_555
H10B B9B 1_555 1_555
H11B B10B 1_555 1_555
H12B C4B 1_555 1_555
H13B C5B 1_555 1_555
C2 B4 1_555 1_555
B1 B2 1_555 1_555
B1 B5 1_555 1_555
B2 B3 1_555 1_555
B2 B6 1_555 1_555
B3 B4 1_555 1_555
B3 B7 1_555 1_555
B4 B8 1_555 1_555
B4 B9 1_555 1_555
B5 B6 1_555 1_555
B5 B9 1_555 1_555
B6 B7 1_555 1_555
B6 B10 1_555 1_555
B7 B8 1_555 1_555
B7 B10 1_555 1_555
B8 B9 1_555 1_555
B8 B10 1_555 1_555
B9 B10 1_555 1_555
C2B B4B 1_555 1_555
C3B C4B 1_555 1_555
C3B C5B 1_555 1_555
B1B B2B 1_555 1_555
B1B B5B 1_555 1_555
B2B B3B 1_555 1_555
B2B B6B 1_555 1_555
B3B B4B 1_555 1_555
B3B B7B 1_555 1_555
B4B B8B 1_555 1_555
B4B B9B 1_555 1_555
B5B B6B 1_555 1_555
B5B B9B 1_555 1_555
B6B B7B 1_555 1_555
B6B B10B 1_555 1_555
B7B B8B 1_555 1_555
B7B B10B 1_555 1_555
B8B B9B 1_555 1_555
B8B B10B 1_555 1_555
B9B B10B 1_555 1_555

#END
