
#######################################################################
#
#                 Cambridge Crystallographic Data Centre
#                                CCDC 
#
#######################################################################
#
# If this CIF has been generated from an entry in the Cambridge 
# Structural Database, then it will include bibliographic, chemical, 
# crystal, experimental, refinement or atomic coordinate data resulting 
# from the CCDC's data processing and validation procedures.
#
#######################################################################

data_VORPEZ
_chemical_formula_moiety         'C19 H22 O6'
_chemical_name_systematic        
'2-hydroxy-1,7,16-trimethyl-13,17-dioxatetracyclo[9.5.2.0^3,14^.0^14,18^]octadeca-4,11(18)-diene-6,10,12-trione unknown solvate'
_symmetry_cell_setting           hexagonal
_symmetry_space_group_name_H-M   'P 65'
_symmetry_Int_Tables_number      170
_space_group_name_Hall           'P 65'
loop_
_symmetry_equiv_pos_site_id
_symmetry_equiv_pos_as_xyz
1 x,y,z
2 -y,x-y,2/3+z
3 -x+y,-x,1/3+z
4 -x,-y,1/2+z
5 y,-x+y,1/6+z
6 x-y,x,5/6+z
_cell_length_a                   17.3580(6)
_cell_length_b                   17.3580(6)
_cell_length_c                   10.3933(4)
_cell_angle_alpha                90
_cell_angle_beta                 90
_cell_angle_gamma                120
_cell_volume                     2711.96
_exptl_crystal_colour            colorless
_exptl_crystal_description       block
_cell_formula_units_Z            6
loop_
_atom_site_label
_atom_site_type_symbol
_atom_site_fract_x
_atom_site_fract_y
_atom_site_fract_z
O1 O 1.06062(9) 0.63289(9) 0.13511(14)
O2 O 1.07328(9) 0.66694(10) 0.34428(16)
O3 O 0.84621(11) 0.70168(11) 0.27194(15)
O4 O 0.78556(9) 0.34771(9) 0.33339(15)
O5 O 0.89184(11) 0.49655(10) -0.22873(15)
H1 H 0.8894 0.4470 -0.2252
O6 O 0.87418(8) 0.63985(8) 0.01327(13)
C1 C 1.00076(12) 0.62038(12) 0.0324(2)
C2 C 0.93985(11) 0.64868(12) 0.08802(19)
C3 C 0.95628(12) 0.66782(12) 0.21509(19)
C4 C 1.03397(12) 0.65828(13) 0.2442(2)
C5 C 0.89634(13) 0.67611(12) 0.30806(18)
C6 C 0.89397(14) 0.64450(13) 0.44450(19)
H2 H 0.8489 0.6510 0.4941
H3 H 0.9526 0.6827 0.4854
C7 C 0.87181(12) 0.54694(13) 0.4510(2)
H4 H 0.8760 0.5322 0.5419
H5 H 0.9176 0.5412 0.4019
C8 C 0.77803(12) 0.47682(12) 0.39813(19)
H6 H 0.7516 0.5085 0.3516
C9 C 0.79294(12) 0.41865(13) 0.30284(19)
C10 C 0.82357(13) 0.45834(12) 0.1727(2)
H7 H 0.7903 0.4796 0.1276
C11 C 0.89618(13) 0.46521(12) 0.1169(2)
H8 H 0.9221 0.4335 0.1542
C12 C 0.93942(12) 0.52029(12) -0.0016(2)
H9 H 0.9768 0.4980 -0.0424
C13 C 0.87356(12) 0.51873(12) -0.10479(19)
H10 H 0.8113 0.4743 -0.0793
C14 C 0.88217(12) 0.61163(12) -0.11937(18)
C15 C 0.97483(13) 0.67987(13) -0.1710(2)
H11 H 0.9798 0.6632 -0.2615
C16 C 1.04620(12) 0.67380(13) -0.0883(2)
H12 H 1.0728 0.6441 -0.1377
H13 H 1.0942 0.7342 -0.0645
C17 C 0.71552(13) 0.42122(14) 0.5062(2)
H14 H 0.7045 0.4597 0.5631
H15 H 0.7428 0.3929 0.5555
H16 H 0.6591 0.3753 0.4694
C18 C 0.80479(13) 0.60605(14) -0.19408(19)
H17 H 0.8043 0.5841 -0.2811
H18 H 0.8109 0.6652 -0.1991
H19 H 0.7490 0.5652 -0.1504
C19 C 0.98995(15) 0.77455(14) -0.1716(2)
H20 H 1.0494 0.8155 -0.2055
H21 H 0.9851 0.7920 -0.0837
H22 H 0.9451 0.7769 -0.2262
C20? C 0.934(3) 0.924(3) 0.404(6)
C21? C 1.017(2) 0.913(2) 0.380(4)
C22? C 0.995(5) 0.999(5) 0.291(6)
C23? C 0.992(4) 0.888(4) 0.478(6)
C24? C 0.935(2) 0.916(2) 0.323(4)
loop_
_geom_bond_atom_site_label_1
_geom_bond_atom_site_label_2
_geom_bond_site_symmetry_1
_geom_bond_site_symmetry_2
O1 C1 1_555 1_555
O2 C4 1_555 1_555
O3 C5 1_555 1_555
O4 C9 1_555 1_555
O5 H1 1_555 1_555
O6 C2 1_555 1_555
C1 C2 1_555 1_555
C2 C3 1_555 1_555
C3 C4 1_555 1_555
C4 O1 1_555 1_555
C5 C3 1_555 1_555
C6 C5 1_555 1_555
H2 C6 1_555 1_555
H3 C6 1_555 1_555
C7 C6 1_555 1_555
H4 C7 1_555 1_555
H5 C7 1_555 1_555
C8 C7 1_555 1_555
H6 C8 1_555 1_555
C9 C8 1_555 1_555
C10 C9 1_555 1_555
H7 C10 1_555 1_555
C11 C10 1_555 1_555
H8 C11 1_555 1_555
C12 C1 1_555 1_555
H9 C12 1_555 1_555
C13 O5 1_555 1_555
H10 C13 1_555 1_555
C14 O6 1_555 1_555
C15 C14 1_555 1_555
H11 C15 1_555 1_555
C16 C1 1_555 1_555
H12 C16 1_555 1_555
H13 C16 1_555 1_555
C17 C8 1_555 1_555
H14 C17 1_555 1_555
H15 C17 1_555 1_555
H16 C17 1_555 1_555
C18 C14 1_555 1_555
H17 C18 1_555 1_555
H18 C18 1_555 1_555
H19 C18 1_555 1_555
C19 C15 1_555 1_555
H20 C19 1_555 1_555
H21 C19 1_555 1_555
H22 C19 1_555 1_555
C11 C12 1_555 1_555
C12 C13 1_555 1_555
C13 C14 1_555 1_555
C15 C16 1_555 1_555

#END
