
#######################################################################
#
#                 Cambridge Crystallographic Data Centre
#                                CCDC 
#
#######################################################################
#
# If this CIF has been generated from an entry in the Cambridge 
# Structural Database, then it will include bibliographic, chemical, 
# crystal, experimental, refinement or atomic coordinate data resulting 
# from the CCDC's data processing and validation procedures.
#
#######################################################################

data_VORXAB
_chemical_formula_moiety         'C22 H17 N1 O1'
_chemical_name_systematic        3,6-Diphenyl-1-methylquinoline
_symmetry_cell_setting           monoclinic
_symmetry_space_group_name_H-M   'I c'
_symmetry_Int_Tables_number      9
_space_group_name_Hall           'I -2yc'
loop_
_symmetry_equiv_pos_site_id
_symmetry_equiv_pos_as_xyz
1 x,y,z
2 1/2+x,1/2+y,1/2+z
3 x,-y,1/2+z
4 1/2+x,1/2-y,z
_cell_length_a                   25.830(5)
_cell_length_b                   5.661(1)
_cell_length_c                   25.479(6)
_cell_angle_alpha                90
_cell_angle_beta                 117.65(2)
_cell_angle_gamma                90
_cell_volume                     3300.16
_exptl_crystal_colour            colorless
_chemical_melting_point          136-137deg.C
_cell_formula_units_Z            8
loop_
_atom_site_label
_atom_site_type_symbol
_atom_site_fract_x
_atom_site_fract_y
_atom_site_fract_z
O1 O 1.0485(3) -0.035(2) 0.0945(3)
N1 N 0.9602(64) 0.129(2) 0.0717(4)
C1 C 1.0068(5) -0.029(3) 0.1041(5)
C2 C 1.0003(4) -0.182(2) 0.1465(5)
C3 C 0.9474(5) -0.180(3) 0.1489(5)
C4 C 0.8483(4) -0.035(3) 0.1172(5)
C5 C 0.8037(4) 0.116(2) 0.0844(4)
C6 C 0.8125(5) 0.277(2) 0.0487(5)
C7 C 0.8651(4) 0.286(3) 0.0450(5)
C8 C 0.9076(4) 0.129(3) 0.0759(5)
C9 C 0.9010(4) -0.031(3) 0.1126(5)
C10 C 0.9679(4) 0.289(3) 0.0318(5)
C11 C 1.0492(4) -0.334(2) 0.1850(5)
C12 C 1.0399(5) -0.551(3) 0.2057(5)
C13 C 1.0839(6) -0.690(3) 0.2456(6)
C14 C 1.1402(5) -0.617(3) 0.2682(6)
C15 C 1.1522(5) -0.415(3) 0.2485(5)
C16 C 1.1071(4) -0.261(3) 0.2079(5)
C17 C 0.7483(5) 0.112(2) 0.0907(5)
C18 C 0.7354(5) -0.079(3) 0.1167(6)
C19 C 0.6847(5) -0.079(3) 0.1239(6)
C20 C 0.6467(5) 0.106(3) 0.1037(6)
C21 C 0.6582(5) 0.285(3) 0.0780(7)
C22 C 0.7086(5) 0.297(3) 0.0705(6)
loop_
_geom_bond_atom_site_label_1
_geom_bond_atom_site_label_2
_geom_bond_site_symmetry_1
_geom_bond_site_symmetry_2
O1 C1 1_555 1_555
N1 C1 1_555 1_555
C1 C2 1_555 1_555
C2 C3 1_555 1_555
C3 C9 1_555 1_555
C4 C5 1_555 1_555
C5 C6 1_555 1_555
C6 C7 1_555 1_555
C7 C8 1_555 1_555
C8 N1 1_555 1_555
C9 C4 1_555 1_555
C10 N1 1_555 1_555
C11 C2 1_555 1_555
C12 C11 1_555 1_555
C13 C12 1_555 1_555
C14 C13 1_555 1_555
C15 C14 1_555 1_555
C16 C11 1_555 1_555
C17 C5 1_555 1_555
C18 C17 1_555 1_555
C19 C18 1_555 1_555
C20 C19 1_555 1_555
C21 C20 1_555 1_555
C22 C17 1_555 1_555
C8 C9 1_555 1_555
C15 C16 1_555 1_555
C21 C22 1_555 1_555

#END
