
#######################################################################
#
#                 Cambridge Crystallographic Data Centre
#                                CCDC 
#
#######################################################################
#
# If this CIF has been generated from an entry in the Cambridge 
# Structural Database, then it will include bibliographic, chemical, 
# crystal, experimental, refinement or atomic coordinate data resulting 
# from the CCDC's data processing and validation procedures.
#
#######################################################################

data_VOTFOZ
_chemical_formula_moiety         'C14 H20 O10'
_chemical_name_systematic        
'Methyl (methyl 2,3,4-tri-O-acetyl-\b-L-idopyranosyl)uronate'
_symmetry_cell_setting           orthorhombic
_symmetry_space_group_name_H-M   'P 21 21 21'
_symmetry_Int_Tables_number      19
_space_group_name_Hall           'P 2ac 2ab'
loop_
_symmetry_equiv_pos_site_id
_symmetry_equiv_pos_as_xyz
1 x,y,z
2 1/2+x,1/2-y,-z
3 -x,1/2+y,1/2-z
4 1/2-x,-y,1/2+z
_cell_length_a                   7.748(1)
_cell_length_b                   10.203(1)
_cell_length_c                   22.000(1)
_cell_angle_alpha                90
_cell_angle_beta                 90
_cell_angle_gamma                90
_cell_volume                     1739.16
_exptl_crystal_colour            colorless
_chemical_melting_point          120-126deg.C
_cell_formula_units_Z            4
loop_
_atom_site_label
_atom_site_type_symbol
_atom_site_fract_x
_atom_site_fract_y
_atom_site_fract_z
C1 C 0.5798(6) 0.6823(4) 0.64283(20)
C2 C 0.6744(6) 0.5634(5) 0.66719(21)
C3 C 0.6490(6) 0.4448(4) 0.62565(24)
C4 C 0.6630(6) 0.4764(4) 0.55775(22)
C5 C 0.5672(6) 0.6046(4) 0.54385(19)
O1 O 0.6255(4) 0.7073(3) 0.58116(14)
C6 C 0.5894(6) 0.6442(5) 0.47790(21)
O2 O 0.6194(5) 0.7898(3) 0.67831(16)
C7 C 0.5007(11) 0.8946(6) 0.6711(3)
O3 O 0.8549(4) 0.5992(3) 0.66903(15)
C8 C 0.9534(6) 0.5404(5) 0.71105(23)
C9 C 1.1311(8) 0.5971(7) 0.7119(3)
O4 O 0.9001(6) 0.4529(5) 0.74350(20)
O5 O 0.4745(5) 0.4006(3) 0.63548(18)
C10 C 0.4531(8) 0.2808(5) 0.6584(3)
C11 C 0.2633(10) 0.2497(6) 0.6673(3)
O6 O 0.5705(8) 0.2129(5) 0.6728(4)
O7 O 0.8432(4) 0.4961(3) 0.54479(17)
C12 C 0.9215(8) 0.4189(5) 0.5048(3)
C13 C 1.1066(8) 0.4508(7) 0.4968(3)
O8 O 0.8432(10) 0.3358(10) 0.4799(5)
O9 O 0.4928(5) 0.5618(4) 0.44447(15)
O10 O 0.6726(7) 0.7308(4) 0.45843(19)
C14 C 0.4925(10) 0.5789(7) 0.3791(3)
H1 H 0.454 0.668 0.651
H2 H 0.620 0.532 0.707
H3 H 0.755 0.376 0.624
H4 H 0.621 0.402 0.534
H5 H 0.453 0.586 0.552
loop_
_geom_bond_atom_site_label_1
_geom_bond_atom_site_label_2
_geom_bond_site_symmetry_1
_geom_bond_site_symmetry_2
C1 C2 1_555 1_555
C2 C3 1_555 1_555
C3 C4 1_555 1_555
C4 C5 1_555 1_555
C5 O1 1_555 1_555
O1 C1 1_555 1_555
C6 C5 1_555 1_555
O2 C1 1_555 1_555
C7 O2 1_555 1_555
O3 C2 1_555 1_555
C8 O3 1_555 1_555
C9 C8 1_555 1_555
O4 C8 1_555 1_555
O5 C3 1_555 1_555
C10 O5 1_555 1_555
C11 C10 1_555 1_555
O6 C10 1_555 1_555
O7 C4 1_555 1_555
C12 O7 1_555 1_555
C13 C12 1_555 1_555
O8 C12 1_555 1_555
O9 C6 1_555 1_555
O10 C6 1_555 1_555
C14 O9 1_555 1_555
H1 C1 1_555 1_555
H2 C2 1_555 1_555
H3 C3 1_555 1_555
H4 C4 1_555 1_555
H5 C5 1_555 1_555

#END
