
#######################################################################
#
#                 Cambridge Crystallographic Data Centre
#                                CCDC 
#
#######################################################################
#
# If this CIF has been generated from an entry in the Cambridge 
# Structural Database, then it will include bibliographic, chemical, 
# crystal, experimental, refinement or atomic coordinate data resulting 
# from the CCDC's data processing and validation procedures.
#
#######################################################################

data_VOTJOF
_chemical_formula_moiety         'C35 H40 N20 O10,2(C6 H6 O2),11(H2 O1)'
_chemical_name_systematic        
'Pentamethylcucurbit(5)uril bis(hydroquinone) undecahydrate'
_symmetry_cell_setting           orthorhombic
_symmetry_space_group_name_H-M   'P m m n'
_symmetry_Int_Tables_number      59
_space_group_name_Hall           '-P 2ab 2a'
loop_
_symmetry_equiv_pos_site_id
_symmetry_equiv_pos_as_xyz
1 x,y,z
2 1/2-x,1/2-y,z
3 1/2+x,-y,-z
4 -x,1/2+y,-z
5 -x,-y,-z
6 1/2+x,1/2+y,-z
7 1/2-x,y,z
8 x,1/2-y,z
_cell_length_a                   17.916(13)
_cell_length_b                   11.364(8)
_cell_length_c                   14.414(11)
_cell_angle_alpha                90
_cell_angle_beta                 90
_cell_angle_gamma                90
_cell_volume                     2934.65
_exptl_crystal_colour            'light brown'
_exptl_crystal_description       block
_cell_formula_units_Z            2
loop_
_atom_site_label
_atom_site_type_symbol
_atom_site_fract_x
_atom_site_fract_y
_atom_site_fract_z
C4 C 0.7500 -0.0765(7) 0.8621(5)
C5 C 0.7079(5) -0.2500 0.7881(6)
C6 C 0.6148(3) -0.0986(5) 0.8507(4)
H4 H 0.5851 -0.1202 0.7971
H5 H 0.6167 -0.0134 0.8534
C7 C 0.5796(3) -0.0805(5) 1.0163(4)
C8 C 0.5335(4) -0.2500 0.9413(6)
C9 C 0.5093(4) -0.2500 1.0410(7)
H6 H 0.4547 -0.2500 1.0462
C10 C 0.5316(3) -0.1002(5) 1.1740(5)
H7 H 0.5342 -0.0149 1.1728
H8 H 0.4818 -0.1214 1.1945
C11 C 0.6436(3) -0.0791(5) 1.2674(4)
C12 C 0.5748(5) -0.2500 1.2953(6)
H9 H 0.5280 -0.2500 1.3305
C13 C 0.6437(4) -0.2500 1.3607(5)
C14 C 0.7500 -0.0979(7) 1.3752(6)
H10 H 0.7500 -0.1177 1.4406
H11 H 0.7500 -0.0128 1.3700
C15 C 0.6862(15) -0.2500 0.6935(12)
C16 C 0.4708(5) -0.2500 0.8678(7)
C17 C 0.6243(7) -0.2500 1.4600(7)
N1 N 0.6894(3) -0.1425(4) 0.8379(3)
N2 N 0.5775(3) -0.1416(4) 0.9338(4)
N3 N 0.5414(3) -0.1429(4) 1.0806(3)
N4 N 0.5832(2) -0.1415(4) 1.2403(3)
N5 N 0.6823(3) -0.1438(4) 1.3328(3)
O2 O 0.6081(2) 0.0159(3) 1.0279(3)
O3 O 0.6611(2) 0.0201(3) 1.2397(3)
O4 O 0.7500 0.0197(5) 0.8956(4)
C4A C 0.7500 -0.4235(7) 0.8621(5)
C5A C 0.7921(5) -0.2500 0.7881(6)
C6A C 0.8852(3) -0.4014(5) 0.8507(4)
H4A H 0.9149 -0.3798 0.7971
H5A H 0.8833 -0.4866 0.8534
C7A C 0.9204(3) -0.4195(5) 1.0163(4)
C8A C 0.9665(4) -0.2500 0.9413(6)
C9A C 0.9907(4) -0.2500 1.0410(7)
H6A H 1.0453 -0.2500 1.0462
C10A C 0.9684(3) -0.3998(5) 1.1740(5)
H7A H 0.9658 -0.4851 1.1728
H8A H 1.0182 -0.3786 1.1945
C11A C 0.8564(3) -0.4209(5) 1.2674(4)
C12A C 0.9252(5) -0.2500 1.2953(6)
H9A H 0.9720 -0.2500 1.3305
C13A C 0.8563(4) -0.2500 1.3607(5)
C14A C 0.7500 -0.4021(7) 1.3752(6)
H10A H 0.7500 -0.3823 1.4406
H11A H 0.7500 -0.4872 1.3700
C15A C 0.8138(15) -0.2500 0.6935(12)
C16A C 1.0292(5) -0.2500 0.8678(7)
C17A C 0.8757(7) -0.2500 1.4600(7)
N1A N 0.8106(3) -0.3575(4) 0.8379(3)
N2A N 0.9225(3) -0.3584(4) 0.9338(4)
N3A N 0.9586(3) -0.3571(4) 1.0806(3)
N4A N 0.9168(2) -0.3585(4) 1.2403(3)
N5A N 0.8177(3) -0.3562(4) 1.3328(3)
O2A O 0.8919(2) -0.5159(3) 1.0279(3)
O3A O 0.8389(2) -0.5201(3) 1.2397(3)
O4A O 0.7500 -0.5197(5) 0.8956(4)
C6F C 0.8852(3) -0.0986(5) 0.8507(4)
H4F H 0.9149 -0.1202 0.7971
H5F H 0.8833 -0.0134 0.8534
C7F C 0.9204(3) -0.0805(5) 1.0163(4)
C10F C 0.9684(3) -0.1002(5) 1.1740(5)
H7F H 0.9658 -0.0149 1.1728
H8F H 1.0182 -0.1214 1.1945
C11F C 0.8564(3) -0.0791(5) 1.2674(4)
N1F N 0.8106(3) -0.1425(4) 0.8379(3)
N2F N 0.9225(3) -0.1416(4) 0.9338(4)
N3F N 0.9586(3) -0.1429(4) 1.0806(3)
N4F N 0.9168(2) -0.1415(4) 1.2403(3)
N5F N 0.8177(3) -0.1438(4) 1.3328(3)
O2F O 0.8919(2) 0.0159(3) 1.0279(3)
O3F O 0.8389(2) 0.0201(3) 1.2397(3)
C6G C 0.6148(3) -0.4014(5) 0.8507(4)
H4G H 0.5851 -0.3798 0.7971
H5G H 0.6167 -0.4866 0.8534
C7G C 0.5796(3) -0.4195(5) 1.0163(4)
C10G C 0.5316(3) -0.3998(5) 1.1740(5)
H7G H 0.5342 -0.4851 1.1728
H8G H 0.4818 -0.3786 1.1945
C11G C 0.6436(3) -0.4209(5) 1.2674(4)
N1G N 0.6894(3) -0.3575(4) 0.8379(3)
N2G N 0.5775(3) -0.3584(4) 0.9338(4)
N3G N 0.5414(3) -0.3571(4) 1.0806(3)
N4G N 0.5832(2) -0.3585(4) 1.2403(3)
N5G N 0.6823(3) -0.3562(4) 1.3328(3)
O2G O 0.6081(2) -0.5159(3) 1.0279(3)
O3G O 0.6611(2) -0.5201(3) 1.2397(3)
C1 C 0.5458(6) 0.0073(10) 1.5764(6)
C2 C 0.5635(5) 0.0637(7) 1.4951(6)
H1 H 0.6082 0.1049 1.4905
C3 C 0.5164(6) 0.0600(7) 1.4208(5)
H2 H 0.5270 0.1040 1.3680
O1 O 0.5868(6) 0.0130(12) 1.6545(6)
H3 H 0.6231 0.0555 1.6458
C1D C 0.4542(6) -0.0073(10) 1.4236(6)
C2D C 0.4365(5) -0.0637(7) 1.5049(6)
H1D H 0.3918 -0.1049 1.5095
C3D C 0.4836(6) -0.0600(7) 1.5792(5)
H2D H 0.4730 -0.1040 1.6320
O1D O 0.4132(6) -0.0130(12) 1.3455(6)
H3D H 0.3769 -0.0555 1.3542
H12? H 0.4384 -0.1839 0.8781
H13? H 0.4923 -0.2446 0.8070
H14? H 0.4425 -0.3215 0.8727
H15? H 0.6330 -0.2416 0.6893
H16? H 0.7099 -0.1856 0.6620
H17? H 0.7010 -0.3228 0.6652
H18? H 0.5924 -0.1843 1.4732
H19? H 0.5989 -0.3218 1.4752
H20? H 0.6691 -0.2439 1.4963
loop_
_geom_bond_atom_site_label_1
_geom_bond_atom_site_label_2
_geom_bond_site_symmetry_1
_geom_bond_site_symmetry_2
C1 C2 1_555 1_555
C2 H1 1_555 1_555
C3 C2 1_555 1_555
H2 C3 1_555 1_555
O1 C1 1_555 1_555
H3 O1 1_555 1_555
C4 N1 1_555 1_555
C5 C15 1_555 1_555
C6 H4 1_555 1_555
H5 C6 1_555 1_555
C7 N2 1_555 1_555
C8 C9 1_555 1_555
C9 H6 1_555 1_555
C10 H7 1_555 1_555
H8 C10 1_555 1_555
C11 N4 1_555 1_555
C12 H9 1_555 1_555
C13 C12 1_555 1_555
C14 H10 1_555 1_555
H11 C14 1_555 1_555
C16 C8 1_555 1_555
C17 C13 1_555 1_555
N1 C5 1_555 1_555
N2 C6 1_555 1_555
N3 C7 1_555 1_555
N4 C10 1_555 1_555
N5 C11 1_555 1_555
O2 C7 1_555 1_555
O3 C11 1_555 1_555
O4 C4 1_555 1_555
C1D C3 1_555 1_555
C2D C1D 1_555 1_555
H1D C2D 1_555 1_555
C3D C1 1_555 1_555
H2D C3D 1_555 1_555
O1D C1D 1_555 1_555
H3D O1D 1_555 1_555
C4A N1A 1_555 1_555
C5A C5 1_555 1_555
C6A H4A 1_555 1_555
H5A C6A 1_555 1_555
C7A N2A 1_555 1_555
C8A C9A 1_555 1_555
C9A H6A 1_555 1_555
C10A H7A 1_555 1_555
H8A C10A 1_555 1_555
C11A N4A 1_555 1_555
C12A H9A 1_555 1_555
C13A C12A 1_555 1_555
C14A H10A 1_555 1_555
H11A C14A 1_555 1_555
C15A C5A 1_555 1_555
C16A C8A 1_555 1_555
C17A C13A 1_555 1_555
N1A C5A 1_555 1_555
N2A C6A 1_555 1_555
N3A C7A 1_555 1_555
N4A C10A 1_555 1_555
N5A C11A 1_555 1_555
O2A C7A 1_555 1_555
O3A C11A 1_555 1_555
O4A C4A 1_555 1_555
C6F H4F 1_555 1_555
H5F C6F 1_555 1_555
C7F N2F 1_555 1_555
C10F H7F 1_555 1_555
H8F C10F 1_555 1_555
C11F N4F 1_555 1_555
N1F C4 1_555 1_555
N2F C8A 1_555 1_555
N3F C9A 1_555 1_555
N4F C12A 1_555 1_555
N5F C14 1_555 1_555
O2F C7F 1_555 1_555
O3F C11F 1_555 1_555
C6G H4G 1_555 1_555
H5G C6G 1_555 1_555
C7G N2G 1_555 1_555
C10G H7G 1_555 1_555
H8G C10G 1_555 1_555
C11G N4G 1_555 1_555
N1G C5 1_555 1_555
N2G C8 1_555 1_555
N3G C9 1_555 1_555
N4G C12 1_555 1_555
N5G C13 1_555 1_555
O2G C7G 1_555 1_555
O3G C11G 1_555 1_555
C6 N1 1_555 1_555
C8 N2 1_555 1_555
C9 N3 1_555 1_555
C10 N3 1_555 1_555
C12 N4 1_555 1_555
C13 N5 1_555 1_555
C14 N5 1_555 1_555
C2D C3D 1_555 1_555
C4A N1G 1_555 1_555
C5A N1F 1_555 1_555
C6A N1A 1_555 1_555
C8A N2A 1_555 1_555
C9A N3A 1_555 1_555
C10A N3A 1_555 1_555
C12A N4A 1_555 1_555
C13A N5A 1_555 1_555
C13A N5F 1_555 1_555
C14A N5A 1_555 1_555
C14A N5G 1_555 1_555
C6F N1F 1_555 1_555
C6F N2F 1_555 1_555
C7F N3F 1_555 1_555
C10F N3F 1_555 1_555
C10F N4F 1_555 1_555
C11F N5F 1_555 1_555
C6G N1G 1_555 1_555
C6G N2G 1_555 1_555
C7G N3G 1_555 1_555
C10G N3G 1_555 1_555
C10G N4G 1_555 1_555
C11G N5G 1_555 1_555

#END
