
#######################################################################
#
#                 Cambridge Crystallographic Data Centre
#                                CCDC 
#
#######################################################################
#
# If this CIF has been generated from an entry in the Cambridge 
# Structural Database, then it will include bibliographic, chemical, 
# crystal, experimental, refinement or atomic coordinate data resulting 
# from the CCDC's data processing and validation procedures.
#
#######################################################################

data_VOWVAG
_chemical_formula_moiety         'C48 H42 N4 O6'
_chemical_name_systematic        
"3',3'',3'''-(Nitrilotris(ethane-2,1-diylnitrilomethylylidene))tris(4'-hydroxybiphenyl-4-carbaldehyde) unknown solvate"
_symmetry_cell_setting           trigonal
_symmetry_space_group_name_H-M   'P -3 c 1'
_symmetry_Int_Tables_number      165
_space_group_name_Hall           '-P 3 2"c'
loop_
_symmetry_equiv_pos_site_id
_symmetry_equiv_pos_as_xyz
1 x,y,z
2 -y,x-y,z
3 -x+y,-x,z
4 x-y,-y,1/2-z
5 -x,-x+y,1/2-z
6 y,x,1/2-z
7 -x,-y,-z
8 y,-x+y,-z
9 x-y,x,-z
10 -x+y,y,1/2+z
11 x,x-y,1/2+z
12 -y,-x,1/2+z
_cell_length_a                   13.5006(14)
_cell_length_b                   13.5006(14)
_cell_length_c                   29.691(3)
_cell_angle_alpha                90
_cell_angle_beta                 90
_cell_angle_gamma                120
_cell_volume                     4686.64
_exptl_crystal_colour            yellow
_exptl_crystal_description       rod
_cell_formula_units_Z            4
loop_
_atom_site_label
_atom_site_type_symbol
_atom_site_fract_x
_atom_site_fract_y
_atom_site_fract_z
C1 C 0.4996(4) 0.9319(4) 0.16384(17)
C2 C 0.5481(5) 0.9674(4) 0.12048(18)
H1 H 0.6270 1.0128 0.1177
C3 C 0.4828(5) 0.9371(4) 0.08302(17)
H2 H 0.5186 0.9625 0.0553
C4 C 0.3617(4) 0.8682(4) 0.08419(16)
C5 C 0.3135(5) 0.8349(4) 0.12629(18)
H3 H 0.2343 0.7913 0.1285
C6 C 0.2951(5) 0.8385(4) 0.04207(18)
C7 C 0.3425(5) 0.8304(4) 0.00121(18)
H4 H 0.4153 0.8391 0.0008
C8 C 0.3780(5) 0.8636(4) 0.16596(17)
C9 C 0.2818(5) 0.8098(4) -0.03861(18)
H5 H 0.3141 0.8043 -0.0655
C10 C 0.1732(5) 0.7970(5) -0.03875(17)
C11 C 0.1230(5) 0.7973(5) 0.00159(18)
H6 H 0.0482 0.7833 0.0019
C12 C 0.1827(5) 0.8181(5) 0.04165(18)
H7 H 0.1478 0.8187 0.0686
C13 C 0.1124(5) 0.7840(5) -0.0814(2)
H8 H 0.0381 0.7713 -0.0798
C14 C 0.3212(5) 0.8315(4) 0.20800(18)
H9 H 0.2418 0.7877 0.2084
C15 C 0.3221(5) 0.8401(5) 0.29047(16)
H10 H 0.2400 0.7916 0.2874
H11 H 0.3374 0.9119 0.3038
C16 C 0.3688(5) 0.7822(5) 0.32069(16)
H12 H 0.4517 0.8270 0.3210
H13 H 0.3419 0.7793 0.3512
N1 N 0.3760(4) 0.8611(4) 0.24642(13)
N2 N 0.3333 0.6667 0.3055(2)
O1 O 0.5634(3) 0.9605(3) 0.19990(12)
H14 H 0.5227 0.9335 0.2222
O2 O 0.1516(4) 0.7885(4) -0.11818(14)
C1A C 0.0681(4) 0.5677(6) 0.16384(17)
C2A C 0.0326(4) 0.5807(6) 0.12048(18)
H1A H -0.0128 0.6142 0.1177
C3A C 0.0629(4) 0.5457(6) 0.08302(17)
H2A H 0.0375 0.5561 0.0553
C4A C 0.1318(4) 0.4935(6) 0.08419(16)
C5A C 0.1651(4) 0.4786(6) 0.12629(18)
H3A H 0.2087 0.4430 0.1285
C6A C 0.1615(4) 0.4566(6) 0.04207(18)
C7A C 0.1696(4) 0.5121(6) 0.00121(18)
H4A H 0.1609 0.5762 0.0008
C8A C 0.1364(4) 0.5144(6) 0.16596(17)
C9A C 0.1902(4) 0.4720(6) -0.03861(18)
H5A H 0.1957 0.5098 -0.0655
C10A C 0.2030(5) 0.3762(7) -0.03875(17)
C11A C 0.2027(5) 0.3257(7) 0.00159(18)
H6A H 0.2167 0.2649 0.0019
C12A C 0.1819(5) 0.3646(7) 0.04165(18)
H7A H 0.1813 0.3291 0.0686
C13A C 0.2160(5) 0.3284(7) -0.0814(2)
H8A H 0.2287 0.2668 -0.0798
C14A C 0.1685(4) 0.4897(6) 0.20800(18)
H9A H 0.2123 0.4541 0.2084
C15A C 0.1599(5) 0.4820(7) 0.29047(16)
H10A H 0.2084 0.4484 0.2874
H11A H 0.0881 0.4255 0.3038
C16A C 0.2178(5) 0.5866(7) 0.32069(16)
H12A H 0.1730 0.6247 0.3210
H13A H 0.2207 0.5626 0.3512
N1A N 0.1389(4) 0.5149(6) 0.24642(13)
O1A O 0.0395(3) 0.6029(4) 0.19990(12)
H14A H 0.0665 0.5892 0.2222
O2A O 0.2115(4) 0.3631(6) -0.11818(14)
C1B C 0.4323(6) 0.5004(4) 0.16384(17)
C2B C 0.4193(6) 0.4519(5) 0.12048(18)
H1B H 0.3858 0.3730 0.1177
C3B C 0.4543(6) 0.5172(5) 0.08302(17)
H2B H 0.4439 0.4814 0.0553
C4B C 0.5065(6) 0.6383(4) 0.08419(16)
C5B C 0.5214(6) 0.6865(5) 0.12629(18)
H3B H 0.5570 0.7657 0.1285
C6B C 0.5434(6) 0.7049(5) 0.04207(18)
C7B C 0.4879(6) 0.6575(5) 0.00121(18)
H4B H 0.4238 0.5847 0.0008
C8B C 0.4856(6) 0.6220(5) 0.16596(17)
C9B C 0.5280(6) 0.7182(5) -0.03861(18)
H5B H 0.4902 0.6859 -0.0655
C10B C 0.6238(7) 0.8268(5) -0.03875(17)
C11B C 0.6743(7) 0.8770(5) 0.00159(18)
H6B H 0.7351 0.9518 0.0019
C12B C 0.6354(7) 0.8173(5) 0.04165(18)
H7B H 0.6709 0.8522 0.0686
C13B C 0.6716(7) 0.8876(5) -0.0814(2)
H8B H 0.7332 0.9619 -0.0798
C14B C 0.5103(6) 0.6788(5) 0.20800(18)
H9B H 0.5459 0.7582 0.2084
C15B C 0.5180(7) 0.6779(5) 0.29047(16)
H10B H 0.5516 0.7600 0.2874
H11B H 0.5745 0.6626 0.3038
C16B C 0.4134(7) 0.6312(5) 0.32069(16)
H12B H 0.3753 0.5483 0.3210
H13B H 0.4374 0.6581 0.3512
N1B N 0.4851(6) 0.6240(4) 0.24642(13)
O1B O 0.3971(4) 0.4366(3) 0.19990(12)
H14B H 0.4108 0.4773 0.2222
O2B O 0.6369(6) 0.8484(4) -0.11818(14)
loop_
_geom_bond_atom_site_label_1
_geom_bond_atom_site_label_2
_geom_bond_site_symmetry_1
_geom_bond_site_symmetry_2
C1 C2 1_555 1_555
C2 H1 1_555 1_555
C3 C2 1_555 1_555
H2 C3 1_555 1_555
C4 C3 1_555 1_555
C5 C4 1_555 1_555
H3 C5 1_555 1_555
C6 C4 1_555 1_555
C7 C6 1_555 1_555
H4 C7 1_555 1_555
C8 C1 1_555 1_555
C9 C7 1_555 1_555
H5 C9 1_555 1_555
C10 C9 1_555 1_555
C11 C10 1_555 1_555
H6 C11 1_555 1_555
C12 C6 1_555 1_555
H7 C12 1_555 1_555
C13 C10 1_555 1_555
H8 C13 1_555 1_555
C14 C8 1_555 1_555
H9 C14 1_555 1_555
C15 H10 1_555 1_555
H11 C15 1_555 1_555
C16 C15 1_555 1_555
H12 C16 1_555 1_555
H13 C16 1_555 1_555
N1 C14 1_555 1_555
N2 C16 1_555 1_555
O1 C1 1_555 1_555
H14 O1 1_555 1_555
O2 C13 1_555 1_555
C1A C2A 1_555 1_555
C2A H1A 1_555 1_555
C3A C2A 1_555 1_555
H2A C3A 1_555 1_555
C4A C3A 1_555 1_555
C5A C4A 1_555 1_555
H3A C5A 1_555 1_555
C6A C4A 1_555 1_555
C7A C6A 1_555 1_555
H4A C7A 1_555 1_555
C8A C1A 1_555 1_555
C9A C7A 1_555 1_555
H5A C9A 1_555 1_555
C10A C9A 1_555 1_555
C11A C10A 1_555 1_555
H6A C11A 1_555 1_555
C12A C6A 1_555 1_555
H7A C12A 1_555 1_555
C13A C10A 1_555 1_555
H8A C13A 1_555 1_555
C14A C8A 1_555 1_555
H9A C14A 1_555 1_555
C15A H10A 1_555 1_555
H11A C15A 1_555 1_555
C16A N2 1_555 1_555
H12A C16A 1_555 1_555
H13A C16A 1_555 1_555
N1A C14A 1_555 1_555
O1A C1A 1_555 1_555
H14A O1A 1_555 1_555
O2A C13A 1_555 1_555
C1B C2B 1_555 1_555
C2B H1B 1_555 1_555
C3B C2B 1_555 1_555
H2B C3B 1_555 1_555
C4B C3B 1_555 1_555
C5B C4B 1_555 1_555
H3B C5B 1_555 1_555
C6B C4B 1_555 1_555
C7B C6B 1_555 1_555
H4B C7B 1_555 1_555
C8B C1B 1_555 1_555
C9B C7B 1_555 1_555
H5B C9B 1_555 1_555
C10B C9B 1_555 1_555
C11B C10B 1_555 1_555
H6B C11B 1_555 1_555
C12B C6B 1_555 1_555
H7B C12B 1_555 1_555
C13B C10B 1_555 1_555
H8B C13B 1_555 1_555
C14B C8B 1_555 1_555
H9B C14B 1_555 1_555
C15B H10B 1_555 1_555
H11B C15B 1_555 1_555
C16B N2 1_555 1_555
H12B C16B 1_555 1_555
H13B C16B 1_555 1_555
N1B C14B 1_555 1_555
O1B C1B 1_555 1_555
H14B O1B 1_555 1_555
O2B C13B 1_555 1_555
C5 C8 1_555 1_555
C11 C12 1_555 1_555
C15 N1 1_555 1_555
C5A C8A 1_555 1_555
C11A C12A 1_555 1_555
C15A C16A 1_555 1_555
C15A N1A 1_555 1_555
C5B C8B 1_555 1_555
C11B C12B 1_555 1_555
C15B C16B 1_555 1_555
C15B N1B 1_555 1_555

#END
