
#######################################################################
#
#                 Cambridge Crystallographic Data Centre
#                                CCDC 
#
#######################################################################
#
# If this CIF has been generated from an entry in the Cambridge 
# Structural Database, then it will include bibliographic, chemical, 
# crystal, experimental, refinement or atomic coordinate data resulting 
# from the CCDC's data processing and validation procedures.
#
#######################################################################

data_VOXMIE
_chemical_formula_moiety         'C15 H26 O4 S2'
_chemical_name_systematic        
(2S,3R,4R,6S)-3,4-O-Carbonyl-7,7-dimethylenedithio-2,4,6-trimethylnonane-1,3,4-triol
_symmetry_cell_setting           monoclinic
_symmetry_space_group_name_H-M   'P 21'
_symmetry_Int_Tables_number      4
_space_group_name_Hall           'P 2yb'
loop_
_symmetry_equiv_pos_site_id
_symmetry_equiv_pos_as_xyz
1 x,y,z
2 -x,1/2+y,-z
_cell_length_a                   8.1849(8)
_cell_length_b                   8.9456(14)
_cell_length_c                   12.0258(14)
_cell_angle_alpha                90
_cell_angle_beta                 100.878(8)
_cell_angle_gamma                90
_cell_volume                     864.693
_exptl_crystal_colour            colorless
_cell_formula_units_Z            2
loop_
_atom_site_label
_atom_site_type_symbol
_atom_site_fract_x
_atom_site_fract_y
_atom_site_fract_z
C1 C -0.2525(6) -0.1077 0.1176(4)
C2 C -0.3152(5) 0.0364(7) 0.0557(3)
C3 C -0.1821(4) 0.1566(6) 0.0703(3)
C4 C -0.1095(5) 0.2176(7) 0.1886(3)
C5 C 0.0543(5) 0.1429(7) 0.2355(3)
C6 C 0.1443(6) 0.1820(7) 0.3571(4)
C7 C 0.2462(5) 0.0511(8) 0.4147(3)
C8 C 0.3515(7) 0.0873(10) 0.5326(4)
C9 C 0.2521(11) 0.1419(12) 0.6180(5)
O1 O -0.1137(4) -0.1651(7) 0.0775(4)
C10 C -0.3758(7) 0.0046(8) -0.0708(4)
O2 O -0.2521(3) 0.2905(6) 0.0105(2)
C11 C -0.1763(5) 0.4103(7) 0.0626(3)
O3 O -0.1968(5) 0.5348(6) 0.0242(3)
O4 O -0.0801(3) 0.3756(6) 0.1604(2)
C12 C -0.2328(6) 0.2221(8) 0.2682(4)
C13 C 0.2474(10) 0.3259(9) 0.3561(6)
S1 S 0.3977(2) -0.0218(6) 0.33118(13)
C14 C 0.2816(11) -0.1890(15) 0.2799(8)
C15 C 0.2046(12) -0.2496(12) 0.3721(11)
S2 S 0.1049(2) -0.1030(5) 0.42697(11)
H1 H -0.320(6) -0.166(6) 0.109(4)
H2 H -0.225(5) -0.090(5) 0.199(4)
H3 H -0.402(5) 0.072(5) 0.092(3)
H4 H -0.078(4) 0.123(4) 0.032(3)
H5 H 0.031(5) 0.039(5) 0.229(3)
H6 H 0.124(4) 0.163(4) 0.185(3)
H7 H 0.068(5) 0.196(4) 0.391(3)
H8 H 0.412(6) 0.002(7) 0.577(4)
H9 H 0.438(7) 0.188(7) 0.524(4)
H10 H 0.301(9) 0.120(10) 0.704(7)
H11 H 0.161(6) 0.086(6) 0.618(4)
H12 H 0.260(9) 0.252(10) 0.603(6)
H13 H -0.115(5) -0.251(6) 0.081(3)
H14 H -0.280(6) -0.027(6) -0.100(4)
H15 H -0.446(8) 0.094(9) -0.107(6)
H16 H -0.446(7) -0.072(8) -0.082(5)
H17 H -0.197(5) 0.284(6) 0.333(4)
H18 H -0.237(5) 0.116(6) 0.297(4)
H19 H -0.344(7) 0.260(6) 0.223(4)
H20 H 0.3366 0.3081 0.3162
H21 H 0.2925 0.3550 0.4326
H22 H 0.1774 0.4042 0.3192
H23 H 0.3544 -0.2624 0.2574
H24 H 0.1964 -0.1661 0.2157
H25 H 0.2885 -0.2906 0.4308
H26 H 0.1255 -0.3266 0.3447
loop_
_geom_bond_atom_site_label_1
_geom_bond_atom_site_label_2
_geom_bond_site_symmetry_1
_geom_bond_site_symmetry_2
C1 C2 1_555 1_555
C2 C3 1_555 1_555
C3 C4 1_555 1_555
C4 C5 1_555 1_555
C5 C6 1_555 1_555
C6 C7 1_555 1_555
C7 C8 1_555 1_555
C8 C9 1_555 1_555
C9 H10 1_555 1_555
O1 C1 1_555 1_555
C10 C2 1_555 1_555
O2 C3 1_555 1_555
C11 O2 1_555 1_555
O3 C11 1_555 1_555
O4 C4 1_555 1_555
C12 C4 1_555 1_555
C13 C6 1_555 1_555
S1 C7 1_555 1_555
C14 S1 1_555 1_555
C15 C14 1_555 1_555
S2 C7 1_555 1_555
H1 C1 1_555 1_555
H2 C1 1_555 1_555
H3 C2 1_555 1_555
H4 C3 1_555 1_555
H5 C5 1_555 1_555
H6 C5 1_555 1_555
H7 C6 1_555 1_555
H8 C8 1_555 1_555
H9 C8 1_555 1_555
H11 C9 1_555 1_555
H12 C9 1_555 1_555
H13 O1 1_555 1_555
H14 C10 1_555 1_555
H15 C10 1_555 1_555
H16 C10 1_555 1_555
H17 C12 1_555 1_555
H18 C12 1_555 1_555
H19 C12 1_555 1_555
H20 C13 1_555 1_555
H21 C13 1_555 1_555
H22 C13 1_555 1_555
H23 C14 1_555 1_555
H24 C14 1_555 1_555
H25 C15 1_555 1_555
H26 C15 1_555 1_555
C11 O4 1_555 1_555
C15 S2 1_555 1_555

#END
