
#######################################################################
#
#                 Cambridge Crystallographic Data Centre
#                                CCDC 
#
#######################################################################
#
# If this CIF has been generated from an entry in the Cambridge 
# Structural Database, then it will include bibliographic, chemical, 
# crystal, experimental, refinement or atomic coordinate data resulting 
# from the CCDC's data processing and validation procedures.
#
#######################################################################

data_VOYSOR
_chemical_formula_moiety         'C18 H20 O6,H2 O1'
_chemical_name_systematic        'trans-Dihydroxydibenzo-14-crown-4 monohydrate'
_symmetry_cell_setting           orthorhombic
_symmetry_space_group_name_H-M   'C m c 21'
_symmetry_Int_Tables_number      36
_space_group_name_Hall           'C 2n -2'
loop_
_symmetry_equiv_pos_site_id
_symmetry_equiv_pos_as_xyz
1 x,y,z
2 1/2+x,1/2+y,z
3 -x,y,z
4 1/2-x,1/2+y,z
5 x,-y,1/2+z
6 1/2+x,1/2-y,1/2+z
7 -x,-y,1/2+z
8 1/2-x,1/2-y,1/2+z
_cell_length_a                   16.503(2)
_cell_length_b                   12.297(2)
_cell_length_c                   8.557(3)
_cell_angle_alpha                90
_cell_angle_beta                 90
_cell_angle_gamma                90
_cell_volume                     1736.54
_cell_formula_units_Z            4
loop_
_atom_site_label
_atom_site_type_symbol
_atom_site_fract_x
_atom_site_fract_y
_atom_site_fract_z
O1 O 0.4115(3) 0.2356(3) 0.532
O2 O 0.5000 0.0420(5) 0.2664(9)
O3 O 0.4145(3) 0.3797(3) 0.7466(5)
O4 O 0.5000 0.3556(6) 1.0427(9)
C1 C 0.4220(5) 0.1754(5) 0.3935(9)
C2 C 0.5000 0.1103(7) 0.404(1)
C3 C 0.4229(4) 0.4659(5) 0.8577(9)
C4 C 0.5000 0.4514(8) 0.948(1)
C5 C 0.3431(4) 0.2982(5) 0.5432(9)
C6 C 0.2755(4) 0.2880(7) 0.449(1)
C7 C 0.2095(4) 0.3545(8) 0.475(1)
C8 C 0.2117(4) 0.4322(7) 0.585(1)
C9 C 0.2786(4) 0.4449(6) 0.6802(9)
C10 C 0.3446(3) 0.3768(5) 0.6605(8)
C1B C 0.5780(5) 0.1754(5) 0.3935(9)
C3B C 0.5771(4) 0.4659(5) 0.8577(9)
O1B O 0.5885(3) 0.2356(3) 0.532
O3B O 0.5855(3) 0.3797(3) 0.7466(5)
C5B C 0.6569(4) 0.2982(5) 0.5432(9)
C10B C 0.6554(3) 0.3768(5) 0.6605(8)
C6B C 0.7245(4) 0.2880(7) 0.449(1)
C9B C 0.7214(4) 0.4449(6) 0.6802(9)
C7B C 0.7905(4) 0.3545(8) 0.475(1)
C8B C 0.7883(4) 0.4322(7) 0.585(1)
O5 O 0.5000 0.1783(5) 0.8151(8)
loop_
_geom_bond_atom_site_label_1
_geom_bond_atom_site_label_2
_geom_bond_site_symmetry_1
_geom_bond_site_symmetry_2
O1 C1 1_555 1_555
O2 C2 1_555 1_555
O3 C3 1_555 1_555
O4 C4 1_555 1_555
C1 C2 1_555 1_555
C2 C1B 1_555 1_555
C3 C4 1_555 1_555
C4 C3B 1_555 1_555
C5 O1 1_555 1_555
C6 C5 1_555 1_555
C7 C6 1_555 1_555
C8 C7 1_555 1_555
C9 C8 1_555 1_555
C10 O3 1_555 1_555
C1B O1B 1_555 1_555
C3B O3B 1_555 1_555
O1B C5B 1_555 1_555
O3B C10B 1_555 1_555
C5B C10B 1_555 1_555
C10B C9B 1_555 1_555
C6B C5B 1_555 1_555
C9B C8B 1_555 1_555
C7B C6B 1_555 1_555
C8B C7B 1_555 1_555
C5 C10 1_555 1_555
C9 C10 1_555 1_555

#END
