
#######################################################################
#
#                 Cambridge Crystallographic Data Centre
#                                CCDC 
#
#######################################################################
#
# If this CIF has been generated from an entry in the Cambridge 
# Structural Database, then it will include bibliographic, chemical, 
# crystal, experimental, refinement or atomic coordinate data resulting 
# from the CCDC's data processing and validation procedures.
#
#######################################################################

data_VUBTUH04
_chemical_formula_moiety         'C17 H18 N2 O5'
_chemical_name_systematic        
'ethyl 2-amino-4-(1-cyano-2-ethoxy-2-oxoethyl)-4H-chromene-3-carboxylate'
_symmetry_cell_setting           monoclinic
_symmetry_space_group_name_H-M   'P 21/n'
_symmetry_Int_Tables_number      14
_space_group_name_Hall           '-P 2yn'
loop_
_symmetry_equiv_pos_site_id
_symmetry_equiv_pos_as_xyz
1 x,y,z
2 1/2-x,1/2+y,1/2-z
3 -x,-y,-z
4 1/2+x,1/2-y,1/2+z
_cell_length_a                   9.2759(5)
_cell_length_b                   8.5195(4)
_cell_length_c                   21.3359(10)
_cell_angle_alpha                90
_cell_angle_beta                 93.680(3)
_cell_angle_gamma                90
_cell_volume                     1682.61
_exptl_crystal_colour            yellow
_exptl_crystal_description       Block
_cell_formula_units_Z            4
loop_
_atom_site_label
_atom_site_type_symbol
_atom_site_fract_x
_atom_site_fract_y
_atom_site_fract_z
C1 C 0.6942(3) 0.3520(3) 0.03195(12)
C2 C 0.7704(3) 0.2968(3) 0.08445(11)
C3 C 0.6933(3) 0.2114(3) 0.13425(11)
C4 C 0.5595(2) 0.1325(3) 0.10523(11)
C5 C 0.4923(3) 0.1958(3) 0.05145(11)
C6 C 0.3659(3) 0.1352(3) 0.02400(13)
H1 H 0.3206 0.1829 -0.0112
C7 C 0.3074(3) 0.0025(4) 0.04950(14)
H2 H 0.2220 -0.0397 0.0315
C8 C 0.3750(3) -0.0669(4) 0.10115(15)
H3 H 0.3367 -0.1581 0.1174
C9 C 0.4995(3) -0.0029(3) 0.12934(13)
H4 H 0.5437 -0.0505 0.1648
C10 C 0.6587(3) 0.3247(3) 0.18857(11)
C11 C 0.5462(3) 0.4375(3) 0.16781(12)
C12 C 0.6244(3) 0.2407(3) 0.24876(12)
C13 C 0.5122(7) 0.2590(7) 0.34530(19)
H5 H 0.4086 0.2685 0.3481
H6 H 0.5355 0.1480 0.3452
C14 C 0.5768(7) 0.3236(9) 0.3946(2)
H7 H 0.6788 0.3045 0.3948
H8 H 0.5401 0.2795 0.4318
H9 H 0.5593 0.4347 0.3938
C15 C 0.9228(3) 0.3279(3) 0.09271(12)
C16 C 1.1341(3) 0.2975(4) 0.16120(15)
H10 H 1.1562 0.4088 0.1610
H11 H 1.1879 0.2464 0.1295
C17 C 1.1733(4) 0.2311(7) 0.22260(19)
H12 H 1.1305 0.2922 0.2543
H13 H 1.2765 0.2322 0.2299
H14 H 1.1390 0.1249 0.2241
H15 H 0.825(3) 0.466(3) -0.0145(13)
H16 H 0.756(3) 0.134(3) 0.1542(11)
H17 H 0.746(3) 0.382(3) 0.1994(13)
N1 N 0.4584(3) 0.5196(3) 0.14798(12)
N2 N 0.7410(3) 0.4377(3) -0.01491(11)
O1 O 0.6586(4) 0.1098(3) 0.26023(12)
O2 O 0.5519(3) 0.3284(3) 0.28559(11)
O3 O 0.98065(18) 0.2732(2) 0.14808(8)
O4 O 0.9960(2) 0.3966(3) 0.05605(10)
O5 O 0.55064(18) 0.3226(2) 0.02114(8)
loop_
_geom_bond_atom_site_label_1
_geom_bond_atom_site_label_2
_geom_bond_site_symmetry_1
_geom_bond_site_symmetry_2
C1 C2 1_555 1_555
C2 C3 1_555 1_555
C3 C4 1_555 1_555
C4 C5 1_555 1_555
C5 C6 1_555 1_555
C6 H1 1_555 1_555
C7 C6 1_555 1_555
H2 C7 1_555 1_555
C8 C7 1_555 1_555
H3 C8 1_555 1_555
C9 C4 1_555 1_555
H4 C9 1_555 1_555
C10 C3 1_555 1_555
C11 C10 1_555 1_555
C12 C10 1_555 1_555
C13 H5 1_555 1_555
H6 C13 1_555 1_555
C14 C13 1_555 1_555
H7 C14 1_555 1_555
H8 C14 1_555 1_555
H9 C14 1_555 1_555
C15 C2 1_555 1_555
C16 H10 1_555 1_555
H11 C16 1_555 1_555
C17 C16 1_555 1_555
H12 C17 1_555 1_555
H13 C17 1_555 1_555
H14 C17 1_555 1_555
H15 N2 1_555 1_555
H16 C3 1_555 1_555
H17 C10 1_555 1_555
N1 C11 1_555 1_555
N2 C1 1_555 1_555
O1 C12 1_555 1_555
O2 C12 1_555 1_555
O3 C15 1_555 1_555
O4 C15 1_555 1_555
O5 C1 1_555 1_555
C5 O5 1_555 1_555
C8 C9 1_555 1_555
C13 O2 1_555 1_555
C16 O3 1_555 1_555

#END
