
#######################################################################
#
#                 Cambridge Crystallographic Data Centre
#                                CCDC 
#
#######################################################################
#
# If this CIF has been generated from an entry in the Cambridge 
# Structural Database, then it will include bibliographic, chemical, 
# crystal, experimental, refinement or atomic coordinate data resulting 
# from the CCDC's data processing and validation procedures.
#
#######################################################################

data_VUBTOC
_chemical_formula_moiety         'C10 H12 O2'
_chemical_name_systematic        'Ethyl 4-methylbenzoate'
_symmetry_cell_setting           monoclinic
_symmetry_space_group_name_H-M   'P 21/c'
_symmetry_Int_Tables_number      14
_space_group_name_Hall           '-P 2ybc'
loop_
_symmetry_equiv_pos_site_id
_symmetry_equiv_pos_as_xyz
1 x,y,z
2 -x,1/2+y,1/2-z
3 -x,-y,-z
4 x,1/2-y,1/2+z
_cell_length_a                   11.7975(11)
_cell_length_b                   13.2088(12)
_cell_length_c                   11.5995(11)
_cell_angle_alpha                90
_cell_angle_beta                 107.706(2)
_cell_angle_gamma                90
_cell_volume                     1721.93
_exptl_crystal_colour            white
_exptl_crystal_description       plate
_cell_formula_units_Z            8
loop_
_atom_site_label
_atom_site_type_symbol
_atom_site_fract_x
_atom_site_fract_y
_atom_site_fract_z
O1 O 0.1962(2) 1.03297(19) 1.0399(2)
O2 O 0.1019(3) 0.9737(2) 1.1646(3)
C1 C 0.2989(5) 0.9315(4) 0.9342(5)
H1 H 0.3219 0.8640 0.9203
H2 H 0.3688 0.9721 0.9671
H3 H 0.2513 0.9603 0.8591
C2 C 0.2298(4) 0.9285(3) 1.0199(4)
H4 H 0.2769 0.8989 1.0959
H5 H 0.1590 0.8876 0.9875
C3 C 0.1333(3) 1.0457(3) 1.1153(3)
C4 C 0.1056(3) 1.1523(3) 1.1325(3)
C5 C 0.1331(4) 1.2289(3) 1.0652(4)
H6 H 0.1700 1.2132 1.0071
C6 C 0.1069(4) 1.3288(4) 1.0822(4)
H7 H 0.1281 1.3799 1.0375
C7 C 0.0496(4) 1.3522(3) 1.1656(4)
C8 C 0.0210(4) 1.2753(3) 1.2332(4)
H8 H -0.0172 1.2908 1.2903
C9 C 0.0481(3) 1.1773(3) 1.2167(3)
H9 H 0.0279 1.1265 1.2624
C10 C 0.0216(3) 1.4491(2) 1.1774(3)
H10 H -0.0168 1.4544 1.2392
H11 H -0.0311 1.4730 1.1020
H12 H 0.0928 1.4893 1.1995
O3 O -0.3046(2) 1.02805(19) 1.5398(2)
O4 O -0.4020(3) 1.0887(2) 1.6615(2)
C11 C -0.2248(5) 1.1254(4) 1.4107(5)
H13 H -0.2074 1.1927 1.3896
H14 H -0.2787 1.0933 1.3412
H15 H -0.1524 1.0870 1.4373
C12 C -0.2800(4) 1.1304(3) 1.5091(4)
H16 H -0.2266 1.1636 1.5794
H17 H -0.3533 1.1691 1.4830
C13 C -0.3657(3) 1.0166(3) 1.6172(3)
C14 C -0.3859(3) 0.9093(3) 1.6422(3)
C15 C -0.4396(3) 0.8857(3) 1.7299(3)
H18 H -0.4631 0.9374 1.7721
C16 C -0.4583(3) 0.7859(3) 1.7550(4)
H19 H -0.4938 0.7706 1.8143
C17 C -0.4250(3) 0.7103(3) 1.6932(4)
C18 C -0.3711(4) 0.7313(3) 1.6052(4)
H20 H -0.3475 0.6791 1.5638
C19 C -0.3528(3) 0.8321(3) 1.5798(3)
H21 H -0.3178 0.8472 1.5200
C20 C -0.4401(3) 0.6112(2) 1.7155(3)
H22 H -0.4776 0.6059 1.7780
H23 H -0.3641 0.5782 1.7413
H24 H -0.4894 0.5795 1.6431
loop_
_geom_bond_atom_site_label_1
_geom_bond_atom_site_label_2
_geom_bond_site_symmetry_1
_geom_bond_site_symmetry_2
O1 C2 1_555 1_555
O2 C3 1_555 1_555
O3 C12 1_555 1_555
O4 C13 1_555 1_555
C1 H1 1_555 1_555
H2 C1 1_555 1_555
H3 C1 1_555 1_555
C2 C1 1_555 1_555
H4 C2 1_555 1_555
H5 C2 1_555 1_555
C3 O1 1_555 1_555
C4 C3 1_555 1_555
C5 C4 1_555 1_555
H6 C5 1_555 1_555
C6 C5 1_555 1_555
H7 C6 1_555 1_555
C7 C6 1_555 1_555
C8 C7 1_555 1_555
H8 C8 1_555 1_555
C9 C4 1_555 1_555
H9 C9 1_555 1_555
C10 C7 1_555 1_555
H10 C10 1_555 1_555
H11 C10 1_555 1_555
H12 C10 1_555 1_555
C11 H13 1_555 1_555
H14 C11 1_555 1_555
H15 C11 1_555 1_555
C12 C11 1_555 1_555
H16 C12 1_555 1_555
H17 C12 1_555 1_555
C13 O3 1_555 1_555
C14 C13 1_555 1_555
C15 C14 1_555 1_555
H18 C15 1_555 1_555
C16 C15 1_555 1_555
H19 C16 1_555 1_555
C17 C16 1_555 1_555
C18 C17 1_555 1_555
H20 C18 1_555 1_555
C19 C14 1_555 1_555
H21 C19 1_555 1_555
C20 C17 1_555 1_555
H22 C20 1_555 1_555
H23 C20 1_555 1_555
H24 C20 1_555 1_555
C8 C9 1_555 1_555
C18 C19 1_555 1_555

#END
