
#######################################################################
#
#                 Cambridge Crystallographic Data Centre
#                                CCDC 
#
#######################################################################
#
# If this CIF has been generated from an entry in the Cambridge 
# Structural Database, then it will include bibliographic, chemical, 
# crystal, experimental, refinement or atomic coordinate data resulting 
# from the CCDC's data processing and validation procedures.
#
#######################################################################

data_VUCFOQ
_chemical_formula_moiety         'C26 H28 N4'
_chemical_name_systematic        
3,9-dipentylbenzo[de]phthalazino[1,8-gh]cinnoline
_symmetry_cell_setting           monoclinic
_symmetry_space_group_name_H-M   'P 21/c'
_symmetry_Int_Tables_number      14
_space_group_name_Hall           '-P 2ybc'
loop_
_symmetry_equiv_pos_site_id
_symmetry_equiv_pos_as_xyz
1 x,y,z
2 -x,1/2+y,1/2-z
3 -x,-y,-z
4 x,1/2-y,1/2+z
_cell_length_a                   4.7073(2)
_cell_length_b                   28.2422(10)
_cell_length_c                   8.1072(3)
_cell_angle_alpha                90
_cell_angle_beta                 105.4830(10)
_cell_angle_gamma                90
_cell_volume                     1038.69
_exptl_crystal_colour            colorless
_exptl_crystal_description       block
_cell_formula_units_Z            2
loop_
_atom_site_label
_atom_site_type_symbol
_atom_site_fract_x
_atom_site_fract_y
_atom_site_fract_z
N1 N 0.5985(2) 0.42221(4) 1.22578(15)
N2 N 0.4271(2) 0.45828(4) 1.25929(13)
C1 C 0.3539(3) 0.42658(4) 0.92471(16)
C2 C 0.3125(3) 0.41153(4) 0.75398(17)
H1 H 0.4314 0.3878 0.7287
C3 C 0.0978(3) 0.43176(4) 0.62582(16)
H2 H 0.0715 0.4215 0.5137
C4 C -0.0828(3) 0.46755(4) 0.66035(16)
H3 H -0.2301 0.4804 0.5714
C5 C -0.0452(3) 0.48406(4) 0.82465(15)
C6 C 0.1757(3) 0.46317(4) 0.95905(14)
C7 C 0.2256(3) 0.47770(4) 1.13297(15)
C8 C 0.5652(3) 0.40686(4) 1.06862(16)
C9 C 0.7530(3) 0.36502(4) 1.05233(18)
H4 H 0.9217 0.3636 1.1518
H5 H 0.8258 0.3690 0.9520
C10 C 0.5799(3) 0.31869(4) 1.03709(19)
H6 H 0.4854 0.3171 1.1296
H7 H 0.4259 0.3189 0.9302
C11 C 0.7666(3) 0.27462(4) 1.04261(19)
H8 H 0.8661 0.2766 0.9523
H9 H 0.9166 0.2737 1.1511
C12 C 0.5915(4) 0.22919(5) 1.0218(2)
H10 H 0.4481 0.2294 0.9108
H11 H 0.4840 0.2281 1.1085
C13 C 0.7778(5) 0.18483(5) 1.0359(2)
H12 H 0.6528 0.1574 1.0220
H13 H 0.9178 0.1839 1.1464
H14 H 0.8806 0.1851 0.9484
N1B N -0.5985(2) 0.57779(4) 0.77422(15)
N2B N -0.4271(2) 0.54172(4) 0.74071(13)
C1B C -0.3539(3) 0.57342(4) 1.07529(16)
C2B C -0.3125(3) 0.58847(4) 1.24602(17)
H1B H -0.4314 0.6122 1.2713
C3B C -0.0978(3) 0.56824(4) 1.37418(16)
H2B H -0.0715 0.5785 1.4863
C4B C 0.0828(3) 0.53245(4) 1.33965(16)
H3B H 0.2301 0.5196 1.4286
C5B C 0.0452(3) 0.51594(4) 1.17535(15)
C6B C -0.1757(3) 0.53683(4) 1.04095(14)
C7B C -0.2256(3) 0.52230(4) 0.86703(15)
C8B C -0.5652(3) 0.59314(4) 0.93138(16)
C9B C -0.7530(3) 0.63498(4) 0.94767(18)
H4B H -0.9217 0.6364 0.8482
H5B H -0.8258 0.6310 1.0480
C10B C -0.5799(3) 0.68131(4) 0.96291(19)
H6B H -0.4854 0.6829 0.8704
H7B H -0.4259 0.6811 1.0698
C11B C -0.7666(3) 0.72538(4) 0.95739(19)
H8B H -0.8661 0.7234 1.0477
H9B H -0.9166 0.7263 0.8489
C12B C -0.5915(4) 0.77081(5) 0.9782(2)
H10B H -0.4481 0.7706 1.0892
H11B H -0.4840 0.7719 0.8915
C13B C -0.7778(5) 0.81517(5) 0.9641(2)
H12B H -0.6528 0.8426 0.9780
H13B H -0.9178 0.8161 0.8536
H14B H -0.8806 0.8149 1.0516
loop_
_geom_bond_atom_site_label_1
_geom_bond_atom_site_label_2
_geom_bond_site_symmetry_1
_geom_bond_site_symmetry_2
N1 N2 1_555 1_555
N2 C7 1_555 1_555
C1 C2 1_555 1_555
C2 H1 1_555 1_555
C3 C2 1_555 1_555
H2 C3 1_555 1_555
C4 C3 1_555 1_555
H3 C4 1_555 1_555
C5 C4 1_555 1_555
C6 C1 1_555 1_555
C7 C6 1_555 1_555
C8 N1 1_555 1_555
C9 C8 1_555 1_555
H4 C9 1_555 1_555
H5 C9 1_555 1_555
C10 C9 1_555 1_555
H6 C10 1_555 1_555
H7 C10 1_555 1_555
C11 C10 1_555 1_555
H8 C11 1_555 1_555
H9 C11 1_555 1_555
C12 C11 1_555 1_555
H10 C12 1_555 1_555
H11 C12 1_555 1_555
C13 C12 1_555 1_555
H12 C13 1_555 1_555
H13 C13 1_555 1_555
H14 C13 1_555 1_555
N1B N2B 1_555 1_555
N2B C7B 1_555 1_555
C1B C2B 1_555 1_555
C2B H1B 1_555 1_555
C3B C2B 1_555 1_555
H2B C3B 1_555 1_555
C4B C3B 1_555 1_555
H3B C4B 1_555 1_555
C5B C7 1_555 1_555
C6B C1B 1_555 1_555
C7B C5 1_555 1_555
C8B N1B 1_555 1_555
C9B C8B 1_555 1_555
H4B C9B 1_555 1_555
H5B C9B 1_555 1_555
C10B C9B 1_555 1_555
H6B C10B 1_555 1_555
H7B C10B 1_555 1_555
C11B C10B 1_555 1_555
H8B C11B 1_555 1_555
H9B C11B 1_555 1_555
C12B C11B 1_555 1_555
H10B C12B 1_555 1_555
H11B C12B 1_555 1_555
C13B C12B 1_555 1_555
H12B C13B 1_555 1_555
H13B C13B 1_555 1_555
H14B C13B 1_555 1_555
C1 C8 1_555 1_555
C5 C6 1_555 1_555
C1B C8B 1_555 1_555
C4B C5B 1_555 1_555
C5B C6B 1_555 1_555
C6B C7B 1_555 1_555

#END
