
#######################################################################
#
#                 Cambridge Crystallographic Data Centre
#                                CCDC 
#
#######################################################################
#
# If this CIF has been generated from an entry in the Cambridge 
# Structural Database, then it will include bibliographic, chemical, 
# crystal, experimental, refinement or atomic coordinate data resulting 
# from the CCDC's data processing and validation procedures.
#
#######################################################################

data_VUFGEK
_chemical_formula_moiety         'C27 H27 N3 O2 S1'
_chemical_name_systematic        
2,6-Dimethyl-1-phenyl-4-(p-tosylmethyl)-1,2,3,6-tetrahydro-[1,4]diazepino[2,3-b]indole
_symmetry_cell_setting           monoclinic
_symmetry_space_group_name_H-M   'P 21/c'
_symmetry_Int_Tables_number      14
_space_group_name_Hall           '-P 2ybc'
loop_
_symmetry_equiv_pos_site_id
_symmetry_equiv_pos_as_xyz
1 x,y,z
2 -x,1/2+y,1/2-z
3 -x,-y,-z
4 x,1/2-y,1/2+z
_cell_length_a                   9.0312(4)
_cell_length_b                   13.3378(5)
_cell_length_c                   19.5264(8)
_cell_angle_alpha                90
_cell_angle_beta                 99.689(4)
_cell_angle_gamma                90
_cell_volume                     2318.53
_exptl_crystal_colour            yellow
_exptl_crystal_description       platelet
_chemical_melting_point          '520.15-521.15 K'
_cell_formula_units_Z            4
loop_
_atom_site_label
_atom_site_type_symbol
_atom_site_fract_x
_atom_site_fract_y
_atom_site_fract_z
S1 S 0.49517(6) 0.54459(4) 0.39548(3)
O1 O 0.61950(19) 0.60768(12) 0.42322(8)
O2 O 0.36134(19) 0.54865(13) 0.42596(9)
N1 N 0.72728(18) 0.34550(12) 0.19329(9)
N2 N 0.66903(18) 0.37859(12) 0.30426(9)
N3 N 1.02833(18) 0.36370(11) 0.34099(9)
C1 C 0.9795(2) 0.32922(14) 0.21242(11)
C2 C 1.1194(2) 0.31390(15) 0.19249(12)
H1 H 1.2066 0.3126 0.2255
C3 C 1.1254(3) 0.30081(17) 0.12331(13)
H2 H 1.2181 0.2917 0.1094
C4 C 0.9955(3) 0.30087(18) 0.07360(13)
H3 H 1.0032 0.2927 0.0270
C5 C 0.8563(3) 0.31274(16) 0.09181(11)
H4 H 0.7697 0.3110 0.0585
C6 C 0.8489(2) 0.32740(14) 0.16158(10)
C7 C 0.7776(2) 0.35957(14) 0.26432(10)
C8 C 0.9322(2) 0.35023(13) 0.27709(10)
C9 C 0.5746(2) 0.35800(18) 0.15799(12)
H5 H 0.5088 0.3635 0.1916
H6 H 0.5459 0.3011 0.1286
H7 H 0.5674 0.4177 0.1302
C10 C 0.6956(2) 0.39990(15) 0.36909(11)
C11 C 0.8429(3) 0.40643(19) 0.41749(11)
H8 H 0.8647 0.3409 0.4383
H9 H 0.8307 0.4523 0.4547
C12 C 0.9796(2) 0.44008(15) 0.38708(12)
H10 H 1.0621 0.4482 0.4263
C13 C 0.5564(2) 0.41709(16) 0.40104(11)
H11 H 0.5770 0.3973 0.4495
H12 H 0.4761 0.3748 0.3777
C14 C 0.4470(2) 0.56882(15) 0.30604(11)
C15 C 0.5423(2) 0.62371(16) 0.27245(12)
H13 H 0.6327 0.6478 0.2967
C16 C 0.5017(3) 0.64256(17) 0.20219(13)
H14 H 0.5650 0.6804 0.1794
C17 C 0.3689(3) 0.60618(16) 0.16527(12)
C18 C 0.2765(3) 0.54980(17) 0.19982(13)
H15 H 0.1876 0.5239 0.1752
C19 C 0.3137(2) 0.53112(17) 0.27030(12)
H16 H 0.2501 0.4938 0.2932
C20 C 0.3250(4) 0.6250(2) 0.08833(14)
H17 H 0.3611 0.6896 0.0772
H18 H 0.2176 0.6230 0.0758
H19 H 0.3684 0.5742 0.0630
C21 C 0.9565(3) 0.54138(17) 0.35150(16)
H20 H 1.0505 0.5651 0.3409
H21 H 0.9191 0.5882 0.3818
H22 H 0.8854 0.5349 0.3093
C22 C 1.1051(2) 0.27808(14) 0.37223(10)
C23 C 1.2174(2) 0.28803(17) 0.43043(11)
H23 H 1.2427 0.3513 0.4487
C24 C 1.2910(3) 0.20464(19) 0.46104(12)
H24 H 1.3648 0.2123 0.5001
C25 C 1.2567(3) 0.1107(2) 0.43466(14)
H25 H 1.3060 0.0548 0.4559
C26 C 1.1487(3) 0.10020(17) 0.37656(15)
H26 H 1.1263 0.0368 0.3579
C27 C 1.0731(3) 0.18280(16) 0.34551(13)
H27 H 1.0000 0.1744 0.3063
loop_
_geom_bond_atom_site_label_1
_geom_bond_atom_site_label_2
_geom_bond_site_symmetry_1
_geom_bond_site_symmetry_2
S1 O1 1_555 1_555
O2 S1 1_555 1_555
N1 C6 1_555 1_555
N2 C7 1_555 1_555
N3 C8 1_555 1_555
C1 C2 1_555 1_555
C2 H1 1_555 1_555
C3 C2 1_555 1_555
H2 C3 1_555 1_555
C4 C3 1_555 1_555
H3 C4 1_555 1_555
C5 C4 1_555 1_555
H4 C5 1_555 1_555
C6 C1 1_555 1_555
C7 N1 1_555 1_555
C8 C1 1_555 1_555
C9 N1 1_555 1_555
H5 C9 1_555 1_555
H6 C9 1_555 1_555
H7 C9 1_555 1_555
C10 N2 1_555 1_555
C11 C10 1_555 1_555
H8 C11 1_555 1_555
H9 C11 1_555 1_555
C12 N3 1_555 1_555
H10 C12 1_555 1_555
C13 S1 1_555 1_555
H11 C13 1_555 1_555
H12 C13 1_555 1_555
C14 S1 1_555 1_555
C15 C14 1_555 1_555
H13 C15 1_555 1_555
C16 C15 1_555 1_555
H14 C16 1_555 1_555
C17 C16 1_555 1_555
C18 C17 1_555 1_555
H15 C18 1_555 1_555
C19 C14 1_555 1_555
H16 C19 1_555 1_555
C20 C17 1_555 1_555
H17 C20 1_555 1_555
H18 C20 1_555 1_555
H19 C20 1_555 1_555
C21 C12 1_555 1_555
H20 C21 1_555 1_555
H21 C21 1_555 1_555
H22 C21 1_555 1_555
C22 N3 1_555 1_555
C23 C22 1_555 1_555
H23 C23 1_555 1_555
C24 C23 1_555 1_555
H24 C24 1_555 1_555
C25 C24 1_555 1_555
H25 C25 1_555 1_555
C26 C25 1_555 1_555
H26 C26 1_555 1_555
C27 C22 1_555 1_555
H27 C27 1_555 1_555
C5 C6 1_555 1_555
C7 C8 1_555 1_555
C10 C13 1_555 1_555
C11 C12 1_555 1_555
C18 C19 1_555 1_555
C26 C27 1_555 1_555

#END
