
#######################################################################
#
#                 Cambridge Crystallographic Data Centre
#                                CCDC 
#
#######################################################################
#
# If this CIF has been generated from an entry in the Cambridge 
# Structural Database, then it will include bibliographic, chemical, 
# crystal, experimental, refinement or atomic coordinate data resulting 
# from the CCDC's data processing and validation procedures.
#
#######################################################################

data_VUGREW
_chemical_formula_moiety         'C10 H11 N5 O1'
_chemical_name_systematic        
6-methyl-4-((pyridin-3-ylmethylene)amino)-4,5-dihydro-1,2,4-triazin-3(2H)-one
_symmetry_cell_setting           monoclinic
_symmetry_space_group_name_H-M   'P 21/n'
_symmetry_Int_Tables_number      14
_space_group_name_Hall           '-P 2yn'
loop_
_symmetry_equiv_pos_site_id
_symmetry_equiv_pos_as_xyz
1 x,y,z
2 1/2-x,1/2+y,1/2-z
3 -x,-y,-z
4 1/2+x,1/2-y,1/2+z
_cell_length_a                   8.0803(2)
_cell_length_b                   23.7497(6)
_cell_length_c                   10.7846(3)
_cell_angle_alpha                90
_cell_angle_beta                 98.9620(10)
_cell_angle_gamma                90
_cell_volume                     2044.35
_exptl_crystal_colour            colorless
_exptl_crystal_description       block
_cell_formula_units_Z            8
loop_
_atom_site_label
_atom_site_type_symbol
_atom_site_fract_x
_atom_site_fract_y
_atom_site_fract_z
O1 O 0.54588(13) 0.37396(4) 0.67454(12)
N1 N 1.18740(16) 0.17122(6) 0.90565(15)
N2 N 0.70889(14) 0.27719(5) 0.72493(13)
N3 N 0.54303(15) 0.27730(5) 0.67218(13)
N4 N 0.31072(15) 0.32889(5) 0.58809(14)
H1 H 0.2610 0.3618 0.5750
N5 N 0.21533(15) 0.28219(5) 0.54719(14)
C1 C 1.28109(19) 0.21759(7) 0.91859(17)
H2 H 1.3940 0.2145 0.9587
C2 C 1.22268(19) 0.26979(7) 0.87674(17)
H3 H 1.2949 0.3016 0.8865
C3 C 1.05822(19) 0.27537(6) 0.82046(17)
H4 H 1.0158 0.3109 0.7900
C4 C 0.95585(18) 0.22816(6) 0.80914(15)
C5 C 1.02808(19) 0.17746(6) 0.85192(16)
H5 H 0.9594 0.1448 0.8423
C6 C 0.77874(18) 0.22966(6) 0.75433(16)
H6 H 0.7162 0.1958 0.7407
C7 C 0.47257(18) 0.32978(6) 0.64618(16)
C8 C 0.28134(18) 0.23414(7) 0.57182(16)
C9 C 0.45481(18) 0.22477(6) 0.63922(16)
H7 H 0.4495 0.2029 0.7167
H8 H 0.5183 0.2022 0.5853
C10 C 0.1823(2) 0.18265(7) 0.53033(19)
H9 H 0.0639 0.1927 0.5073
H10 H 0.1946 0.1552 0.5989
H11 H 0.2234 0.1663 0.4575
O2 O 0.65704(12) 0.09515(4) -0.11461(10)
N6 N 0.56087(18) 0.08007(6) 0.54024(13)
N7 N 0.53681(14) 0.07233(5) 0.09543(12)
N8 N 0.43763(14) 0.06556(5) -0.01909(12)
N9 N 0.41093(15) 0.07374(5) -0.23457(12)
H12 H 0.4531 0.0850 -0.3008
N10 N 0.24931(16) 0.05238(5) -0.25699(13)
C11 C 0.7273(2) 0.08409(7) 0.55839(17)
H13 H 0.7839 0.0886 0.6418
C12 C 0.8219(2) 0.08200(7) 0.46212(17)
H14 H 0.9406 0.0842 0.4797
C13 C 0.74117(19) 0.07667(6) 0.34017(16)
H15 H 0.8032 0.0761 0.2722
C14 C 0.56786(18) 0.07210(6) 0.31837(15)
C15 C 0.4844(2) 0.07337(7) 0.42216(16)
H16 H 0.3661 0.0692 0.4080
C16 C 0.46794(19) 0.06629(6) 0.19390(15)
H17 H 0.3517 0.0580 0.1860
C17 C 0.51141(17) 0.07926(6) -0.12215(14)
C18 C 0.18317(18) 0.03964(6) -0.16097(15)
C19 C 0.26507(17) 0.04665(6) -0.02804(15)
H18 H 0.2010 0.0744 0.0140
H19 H 0.2626 0.0103 0.0164
C20 C 0.01097(18) 0.01533(7) -0.17992(17)
H20 H -0.0309 0.0125 -0.2700
H21 H -0.0633 0.0397 -0.1402
H22 H 0.0140 -0.0222 -0.1420
loop_
_geom_bond_atom_site_label_1
_geom_bond_atom_site_label_2
_geom_bond_site_symmetry_1
_geom_bond_site_symmetry_2
O1 C7 1_555 1_555
N1 C1 1_555 1_555
N2 N3 1_555 1_555
N3 C7 1_555 1_555
N4 H1 1_555 1_555
N5 N4 1_555 1_555
C1 H2 1_555 1_555
C2 C1 1_555 1_555
H3 C2 1_555 1_555
C3 C2 1_555 1_555
H4 C3 1_555 1_555
C4 C3 1_555 1_555
C5 N1 1_555 1_555
H5 C5 1_555 1_555
C6 N2 1_555 1_555
H6 C6 1_555 1_555
C7 N4 1_555 1_555
C8 N5 1_555 1_555
C9 N3 1_555 1_555
H7 C9 1_555 1_555
H8 C9 1_555 1_555
C10 C8 1_555 1_555
H9 C10 1_555 1_555
H10 C10 1_555 1_555
H11 C10 1_555 1_555
O2 C17 1_555 1_555
N6 C11 1_555 1_555
N7 N8 1_555 1_555
N8 C17 1_555 1_555
N9 H12 1_555 1_555
N10 N9 1_555 1_555
C11 H13 1_555 1_555
C12 C11 1_555 1_555
H14 C12 1_555 1_555
C13 C12 1_555 1_555
H15 C13 1_555 1_555
C14 C13 1_555 1_555
C15 N6 1_555 1_555
H16 C15 1_555 1_555
C16 N7 1_555 1_555
H17 C16 1_555 1_555
C17 N9 1_555 1_555
C18 N10 1_555 1_555
C19 N8 1_555 1_555
H18 C19 1_555 1_555
H19 C19 1_555 1_555
C20 C18 1_555 1_555
H20 C20 1_555 1_555
H21 C20 1_555 1_555
H22 C20 1_555 1_555
C4 C5 1_555 1_555
C4 C6 1_555 1_555
C8 C9 1_555 1_555
C14 C15 1_555 1_555
C14 C16 1_555 1_555
C18 C19 1_555 1_555

#END
