
#######################################################################
#
#                 Cambridge Crystallographic Data Centre
#                                CCDC 
#
#######################################################################
#
# If this CIF has been generated from an entry in the Cambridge 
# Structural Database, then it will include bibliographic, chemical, 
# crystal, experimental, refinement or atomic coordinate data resulting 
# from the CCDC's data processing and validation procedures.
#
#######################################################################

data_VUGSIB
_chemical_formula_moiety         'C13 H16 N10 O5 S1'
_chemical_name_systematic        
N-((4,6-dimethoxypyrimidin-2-yl)carbamoyl)-1-methyl-4-(2-methyl-2H-tetrazol-5-yl)-1H-pyrazole-5-sulfonamide
_symmetry_cell_setting           triclinic
_symmetry_space_group_name_H-M   'P -1'
_symmetry_Int_Tables_number      2
_space_group_name_Hall           '-P 1'
loop_
_symmetry_equiv_pos_site_id
_symmetry_equiv_pos_as_xyz
1 x,y,z
2 -x,-y,-z
_cell_length_a                   8.5884(7)
_cell_length_b                   9.9165(7)
_cell_length_c                   12.2788(13)
_cell_angle_alpha                73.190(5)
_cell_angle_beta                 75.819(4)
_cell_angle_gamma                66.374(3)
_cell_volume                     907.165
_exptl_crystal_colour            colorless
_exptl_crystal_description       block
_cell_formula_units_Z            2
loop_
_atom_site_label
_atom_site_type_symbol
_atom_site_fract_x
_atom_site_fract_y
_atom_site_fract_z
S1 S 0.74797(6) 0.79478(5) 0.73248(4)
O1 O 1.10371(18) -0.02315(15) 1.11503(12)
O2 O 1.32890(18) 0.30498(17) 0.81805(13)
O3 O 0.53148(17) 0.65412(16) 0.91451(13)
O4 O 0.6527(2) 0.91670(16) 0.78851(14)
O5 O 0.90400(19) 0.79382(17) 0.65785(14)
N1 N 0.9372(2) 0.21202(18) 1.04786(14)
N2 N 1.0436(2) 0.38255(18) 0.89699(14)
N3 N 0.7525(2) 0.44579(18) 0.97760(14)
H1 H 0.6779 0.4182 1.0336
N4 N 0.8032(2) 0.63736(17) 0.82771(13)
H2 H 0.9133 0.5838 0.8284
N5 N 0.4566(2) 0.88624(18) 0.63630(16)
N6 N 0.3789(2) 0.8477(2) 0.57414(18)
N7 N 0.7377(2) 0.40229(17) 0.58472(14)
N8 N 0.8855(2) 0.28937(17) 0.59920(14)
N9 N 0.9977(2) 0.32420(18) 0.63093(16)
N10 N 0.9232(2) 0.46781(18) 0.63767(15)
C1 C 1.2673(3) -0.1457(2) 1.11176(19)
H3 H 1.3074 -0.1629 1.0333
H4 H 1.2544 -0.2373 1.1643
H5 H 1.3512 -0.1201 1.1355
C2 C 1.0957(2) 0.1075(2) 1.04081(16)
C3 C 1.2338(2) 0.1330(2) 0.96351(17)
H6 H 1.3452 0.0575 0.9589
C4 C 1.1988(2) 0.2757(2) 0.89353(17)
C5 C 0.9207(2) 0.3420(2) 0.97398(16)
C6 C 1.2928(3) 0.4514(3) 0.7412(2)
H7 H 1.2067 0.4667 0.6948
H8 H 1.3985 0.4573 0.6904
H9 H 1.2486 0.5297 0.7861
C7 C 0.6855(2) 0.5842(2) 0.90723(16)
C8 C 0.6097(2) 0.7766(2) 0.65845(16)
C9 C 0.4833(3) 0.7125(2) 0.5569(2)
H10 H 0.4601 0.6571 0.5153
C10 C 0.6314(2) 0.6612(2) 0.60716(16)
C11 C 0.3620(3) 1.0278(3) 0.6757(3)
H11 H 0.2815 1.0973 0.6224
H12 H 0.4431 1.0732 0.6783
H13 H 0.2981 1.0074 0.7527
C12 C 0.7652(2) 0.5127(2) 0.60905(16)
C13 C 0.9157(3) 0.1370(2) 0.5897(2)
H14 H 1.0396 0.0807 0.5778
H15 H 0.8653 0.1424 0.5244
H16 H 0.8625 0.0857 0.6606
loop_
_geom_bond_atom_site_label_1
_geom_bond_atom_site_label_2
_geom_bond_site_symmetry_1
_geom_bond_site_symmetry_2
S1 O4 1_555 1_555
O1 C1 1_555 1_555
O2 C4 1_555 1_555
O3 C7 1_555 1_555
O5 S1 1_555 1_555
N1 C2 1_555 1_555
N2 C4 1_555 1_555
N3 H1 1_555 1_555
N4 S1 1_555 1_555
H2 N4 1_555 1_555
N5 N6 1_555 1_555
N6 C9 1_555 1_555
N7 N8 1_555 1_555
N8 N9 1_555 1_555
N9 N10 1_555 1_555
N10 C12 1_555 1_555
C1 H3 1_555 1_555
H4 C1 1_555 1_555
H5 C1 1_555 1_555
C2 O1 1_555 1_555
C3 C2 1_555 1_555
H6 C3 1_555 1_555
C4 C3 1_555 1_555
C5 N1 1_555 1_555
C6 O2 1_555 1_555
H7 C6 1_555 1_555
H8 C6 1_555 1_555
H9 C6 1_555 1_555
C7 N3 1_555 1_555
C8 S1 1_555 1_555
C9 H10 1_555 1_555
C10 C8 1_555 1_555
C11 N5 1_555 1_555
H11 C11 1_555 1_555
H12 C11 1_555 1_555
H13 C11 1_555 1_555
C12 N7 1_555 1_555
C13 N8 1_555 1_555
H14 C13 1_555 1_555
H15 C13 1_555 1_555
H16 C13 1_555 1_555
N2 C5 1_555 1_555
N3 C5 1_555 1_555
N4 C7 1_555 1_555
N5 C8 1_555 1_555
C9 C10 1_555 1_555
C10 C12 1_555 1_555

#END
