
#######################################################################
#
#                 Cambridge Crystallographic Data Centre
#                                CCDC 
#
#######################################################################
#
# If this CIF has been generated from an entry in the Cambridge 
# Structural Database, then it will include bibliographic, chemical, 
# crystal, experimental, refinement or atomic coordinate data resulting 
# from the CCDC's data processing and validation procedures.
#
#######################################################################

data_VUHCOR
_chemical_formula_moiety         'C16 H21 N7 O2,8(H2 O1)'
_chemical_name_systematic        
'bis(3-((pyrazin-2-yl)carbonylamino)propyl)amine octahydrate clathrate'
_symmetry_cell_setting           orthorhombic
_symmetry_space_group_name_H-M   'P 21 21 2'
_symmetry_Int_Tables_number      18
_space_group_name_Hall           'P 2 2ab'
loop_
_symmetry_equiv_pos_site_id
_symmetry_equiv_pos_as_xyz
1 x,y,z
2 -x,-y,z
3 1/2-x,1/2+y,-z
4 1/2+x,1/2-y,-z
_cell_length_a                   11.016(2)
_cell_length_b                   25.860(5)
_cell_length_c                   4.5170(9)
_cell_angle_alpha                90
_cell_angle_beta                 90
_cell_angle_gamma                90
_cell_volume                     1286.77
_exptl_crystal_colour            colorless
_exptl_crystal_description       block
_cell_formula_units_Z            2
_exptl_crystal_recrystallization_method methanol/water
loop_
_atom_site_label
_atom_site_type_symbol
_atom_site_fract_x
_atom_site_fract_y
_atom_site_fract_z
O1 O 0.34020(17) 0.31481(8) 1.0022(4)
N1 N 0.3897(2) 0.19824(8) 0.3855(5)
N2 N 0.15992(19) 0.23883(8) 0.5139(5)
N3 N 0.1380(2) 0.31961(8) 0.8959(4)
H1 H 0.074(3) 0.3081(11) 0.786(7)
N4 N 0.0000 0.5000 0.9334(7)
C1 C 0.2896(2) 0.18039(10) 0.2570(6)
H3 H 0.2962 0.1532 0.1163
C2 C 0.1759(3) 0.20027(10) 0.3224(6)
H4 H 0.1069 0.1859 0.2271
C3 C 0.2606(2) 0.25666(9) 0.6450(5)
C4 C 0.3736(2) 0.23647(10) 0.5836(6)
H5 H 0.4423 0.2500 0.6845
C5 C 0.2491(2) 0.30005(9) 0.8656(5)
C6 C 0.1090(2) 0.36279(9) 1.0919(5)
H6 H 0.1796 0.3702 1.2208
H7 H 0.0397 0.3532 1.2202
C7 C 0.0769(2) 0.41103(10) 0.9155(5)
H8 H 0.1482 0.4217 0.7970
H9 H 0.0102 0.4028 0.7766
C8 C 0.0384(2) 0.45553(9) 1.1137(6)
H10 H -0.0296 0.4444 1.2421
H11 H 0.1070 0.4658 1.2425
O1A O -0.34020(17) 0.68519(8) 1.0022(4)
N1A N -0.3897(2) 0.80176(8) 0.3855(5)
N2A N -0.15992(19) 0.76117(8) 0.5139(5)
N3A N -0.1380(2) 0.68039(8) 0.8959(4)
H1A H -0.074(3) 0.6919(11) 0.786(7)
C1A C -0.2896(2) 0.81961(10) 0.2570(6)
H3A H -0.2962 0.8468 0.1163
C2A C -0.1759(3) 0.79973(10) 0.3224(6)
H4A H -0.1069 0.8141 0.2271
C3A C -0.2606(2) 0.74334(9) 0.6450(5)
C4A C -0.3736(2) 0.76353(10) 0.5836(6)
H5A H -0.4423 0.7500 0.6845
C5A C -0.2491(2) 0.69995(9) 0.8656(5)
C6A C -0.1090(2) 0.63721(9) 1.0919(5)
H6A H -0.1796 0.6298 1.2208
H7A H -0.0397 0.6468 1.2202
C7A C -0.0769(2) 0.58897(10) 0.9155(5)
H8A H -0.1482 0.5783 0.7970
H9A H -0.0102 0.5972 0.7766
C8A C -0.0384(2) 0.54447(9) 1.1137(6)
H10A H 0.0296 0.5556 1.2421
H11A H -0.1070 0.5342 1.2425
O2 O 0.22876(19) 0.53588(8) 0.7059(5)
H12 H 0.279(3) 0.5104(11) 0.673(8)
H13 H 0.247(3) 0.5527(12) 0.860(7)
O3 O 0.2955(2) 0.59027(9) 0.2025(5)
H14 H 0.371(2) 0.5930(14) 0.194(10)
H15 H 0.266(3) 0.5768(15) 0.351(7)
O4 O 0.4497(2) 0.40449(9) 0.1741(5)
H16 H 0.408(3) 0.3758(11) 0.160(9)
H18 H 0.425(7) 0.420(3) 0.328(12)
O5 O 0.4098(2) 0.46264(8) 0.6728(5)
H20 H 0.425(7) 0.444(3) 0.826(12)
H21 H 0.468(5) 0.485(2) 0.663(16)
H2? H -0.069(2) 0.4908(12) 0.842(6)
H17? H 0.437(8) 0.423(3) 0.020(12)
H19? H 0.412(8) 0.441(2) 0.530(12)
loop_
_geom_bond_atom_site_label_1
_geom_bond_atom_site_label_2
_geom_bond_site_symmetry_1
_geom_bond_site_symmetry_2
O1 C5 1_555 1_555
N1 C1 1_555 1_555
N2 C2 1_555 1_555
N3 H1 1_555 1_555
N4 C8 1_555 1_555
C1 H3 1_555 1_555
C2 C1 1_555 1_555
H4 C2 1_555 1_555
C3 N2 1_555 1_555
C4 N1 1_555 1_555
H5 C4 1_555 1_555
C5 N3 1_555 1_555
C6 N3 1_555 1_555
H6 C6 1_555 1_555
H7 C6 1_555 1_555
C7 C6 1_555 1_555
H8 C7 1_555 1_555
H9 C7 1_555 1_555
C8 C7 1_555 1_555
H10 C8 1_555 1_555
H11 C8 1_555 1_555
O2 H12 1_555 1_555
H13 O2 1_555 1_555
O3 H14 1_555 1_555
H15 O3 1_555 1_555
O4 H16 1_555 1_555
H18 O4 1_555 1_555
O5 H20 1_555 1_555
H21 O5 1_555 1_555
O1A C5A 1_555 1_555
N1A C1A 1_555 1_555
N2A C2A 1_555 1_555
N3A H1A 1_555 1_555
C1A H3A 1_555 1_555
C2A C1A 1_555 1_555
H4A C2A 1_555 1_555
C3A N2A 1_555 1_555
C4A N1A 1_555 1_555
H5A C4A 1_555 1_555
C5A N3A 1_555 1_555
C6A N3A 1_555 1_555
H6A C6A 1_555 1_555
H7A C6A 1_555 1_555
C7A C6A 1_555 1_555
H8A C7A 1_555 1_555
H9A C7A 1_555 1_555
C8A N4 1_555 1_555
H10A C8A 1_555 1_555
H11A C8A 1_555 1_555
C3 C4 1_555 1_555
C3 C5 1_555 1_555
C3A C4A 1_555 1_555
C3A C5A 1_555 1_555
C7A C8A 1_555 1_555

#END
