
#######################################################################
#
#                 Cambridge Crystallographic Data Centre
#                                CCDC 
#
#######################################################################
#
# If this CIF has been generated from an entry in the Cambridge 
# Structural Database, then it will include bibliographic, chemical, 
# crystal, experimental, refinement or atomic coordinate data resulting 
# from the CCDC's data processing and validation procedures.
#
#######################################################################

data_VUJBIL
_chemical_formula_moiety         'C38 H31 K1 N2 O6 S1,H2 O1'
_chemical_name_systematic        
'(Benzodinaphthopyridino-21-crown-7)-thiocyanato-potassium monohydrate'
_symmetry_cell_setting           orthorhombic
_symmetry_space_group_name_H-M   'P n m a'
_symmetry_Int_Tables_number      62
_space_group_name_Hall           '-P 2ac 2n'
loop_
_symmetry_equiv_pos_site_id
_symmetry_equiv_pos_as_xyz
1 x,y,z
2 1/2-x,1/2+y,1/2+z
3 x,1/2-y,z
4 1/2-x,-y,1/2+z
5 -x,-y,-z
6 1/2+x,1/2-y,1/2-z
7 -x,1/2+y,-z
8 1/2+x,y,1/2-z
_cell_length_a                   16.946(4)
_cell_length_b                   22.298(4)
_cell_length_c                   10.390(8)
_cell_angle_alpha                90
_cell_angle_beta                 90
_cell_angle_gamma                90
_cell_volume                     3925.99
_exptl_crystal_colour            colorless
_chemical_melting_point          148-150deg.C
_cell_formula_units_Z            4
loop_
_atom_site_label
_atom_site_type_symbol
_atom_site_fract_x
_atom_site_fract_y
_atom_site_fract_z
O4 O 0.0583(4) -0.0081(3) 0.4484(7)
O5 O 0.1730(20) 0.1422(17) 0.4241(32)
N1 N 0.8581(5) 0.2500 -0.2245(7)
C1 C 0.8840(5) 0.3015(3) -0.2780(6)
C2 C 0.8500(5) 0.3570(3) -0.2170(7)
O1 O 0.8693(3) 0.3614(2) -0.0841(4)
C3 C 0.9417(5) 0.3877(3) -0.0511(6)
C4 C 0.9518(4) 0.3966(3) 0.0817(6)
O2 O 0.8899(3) 0.3764(2) 0.1575(4)
C5 C 0.8957(5) 0.3892(3) 0.2913(6)
C6 C 0.8200(5) 0.3714(3) 0.3556(6)
O3 O 0.8140(3) 0.3076(2) 0.3510(4)
C7 C 0.7586(4) 0.2818(3) 0.4316(7)
C8 C 0.7079(5) 0.3114(3) 0.5098(7)
C9 C 0.6566(5) 0.2806(3) 0.5904(7)
C10 C 1.0177(5) 0.4256(3) 0.1277(6)
C11 C 1.0790(4) 0.4450(3) 0.0413(7)
C12 C 1.1473(4) 0.4747(3) 0.0861(7)
C13 C 1.2052(5) 0.4916(3) 0.0045(9)
C14 C 1.1969(5) 0.4803(4) -0.1276(8)
C15 C 1.1316(6) 0.4521(3) -0.1747(7)
C16 C 1.0700(5) 0.4343(3) -0.09007
C17 C 0.9995(5) 0.4059(3) -0.1354(6)
C18 C 0.9347(5) 0.3043(4) -0.3800(7)
C19 C 0.9598(5) 0.2500 -0.4358(11)
K1 K 0.8401(2) 0.2500 0.0905(3)
C20 C 0.9952(8) 0.2500 0.0851(14)
C21 C 1.0335(11) 0.2500 0.2021(15)
C7B C 0.7586(4) 0.2182(3) 0.4316(7)
O3B O 0.8140(3) 0.1924(2) 0.3510(4)
C6B C 0.8200(5) 0.1286(3) 0.3556(6)
C5B C 0.8957(5) 0.1108(3) 0.2913(6)
O2B O 0.8899(3) 0.1236(2) 0.1575(4)
C4B C 0.9518(4) 0.1034(3) 0.0817(6)
C3B C 0.9417(5) 0.1123(3) -0.0511(6)
O1B O 0.8693(3) 0.1386(2) -0.0841(4)
C2B C 0.8500(5) 0.1430(3) -0.2170(7)
C1B C 0.8840(5) 0.1985(3) -0.2780(6)
C18B C 0.9347(5) 0.1957(4) -0.3800(7)
C17B C 0.9995(5) 0.0941(3) -0.1354(6)
C16B C 1.0700(5) 0.0657(3) -0.09007
C11B C 1.0790(4) 0.0550(3) 0.0413(7)
C10B C 1.0177(5) 0.0744(3) 0.1277(6)
C12B C 1.1473(4) 0.0253(3) 0.0861(7)
C13B C 1.2052(5) 0.0084(3) 0.0045(9)
C14B C 1.1969(5) 0.0197(4) -0.1276(8)
C15B C 1.1316(6) 0.0479(3) -0.1747(7)
C8B C 0.7079(5) 0.1886(3) 0.5098(7)
C9B C 0.6566(5) 0.2194(3) 0.5904(7)
loop_
_geom_bond_atom_site_label_1
_geom_bond_atom_site_label_2
_geom_bond_site_symmetry_1
_geom_bond_site_symmetry_2
N1 C1 1_555 1_555
C1 C2 1_555 1_555
C2 O1 1_555 1_555
O1 C3 1_555 1_555
C3 C4 1_555 1_555
C4 O2 1_555 1_555
O2 C5 1_555 1_555
C5 C6 1_555 1_555
C6 O3 1_555 1_555
O3 C7 1_555 1_555
C7 C8 1_555 1_555
C8 C9 1_555 1_555
C9 C9B 1_555 1_555
C10 C4 1_555 1_555
C11 C10 1_555 1_555
C12 C11 1_555 1_555
C13 C12 1_555 1_555
C14 C13 1_555 1_555
C15 C14 1_555 1_555
C16 C11 1_555 1_555
C17 C3 1_555 1_555
C18 C1 1_555 1_555
C19 C18 1_555 1_555
K1 N1 1_555 1_555
C20 K1 1_555 1_555
C21 C20 1_555 1_555
C7B C7 1_555 1_555
O3B K1 1_555 1_555
C6B O3B 1_555 1_555
C5B C6B 1_555 1_555
O2B K1 1_555 1_555
C4B O2B 1_555 1_555
C3B C4B 1_555 1_555
O1B K1 1_555 1_555
C2B O1B 1_555 1_555
C1B N1 1_555 1_555
C18B C19 1_555 1_555
C17B C3B 1_555 1_555
C16B C17B 1_555 1_555
C11B C16B 1_555 1_555
C10B C4B 1_555 1_555
C12B C11B 1_555 1_555
C13B C12B 1_555 1_555
C14B C13B 1_555 1_555
C15B C16B 1_555 1_555
C8B C7B 1_555 1_555
C9B C8B 1_555 1_555
O1 K1 1_555 1_555
O2 K1 1_555 1_555
O3 K1 1_555 1_555
C15 C16 1_555 1_555
C16 C17 1_555 1_555
C7B O3B 1_555 1_555
C5B O2B 1_555 1_555
C3B O1B 1_555 1_555
C2B C1B 1_555 1_555
C1B C18B 1_555 1_555
C11B C10B 1_555 1_555
C14B C15B 1_555 1_555

#END
