
#######################################################################
#
#                 Cambridge Crystallographic Data Centre
#                                CCDC 
#
#######################################################################
#
# If this CIF has been generated from an entry in the Cambridge 
# Structural Database, then it will include bibliographic, chemical, 
# crystal, experimental, refinement or atomic coordinate data resulting 
# from the CCDC's data processing and validation procedures.
#
#######################################################################

data_VUJGAJ
_chemical_formula_moiety         'C29 H23 N1 O1 S1'
_chemical_name_systematic        
2-(6-(9,9-Dimethyl-9H-fluoren-2-yl)-1,3-benzothiazol-2-yl)-4-methylphenol
_symmetry_cell_setting           orthorhombic
_symmetry_space_group_name_H-M   'P 21 21 21'
_symmetry_Int_Tables_number      19
_space_group_name_Hall           'P 2ac 2ab'
loop_
_symmetry_equiv_pos_site_id
_symmetry_equiv_pos_as_xyz
1 x,y,z
2 1/2-x,-y,1/2+z
3 -x,1/2+y,1/2-z
4 1/2+x,1/2-y,-z
_cell_length_a                   5.9659(4)
_cell_length_b                   17.8424(13)
_cell_length_c                   20.6658(15)
_cell_angle_alpha                90
_cell_angle_beta                 90
_cell_angle_gamma                90
_cell_volume                     2199.79
_exptl_crystal_colour            yellow
_exptl_crystal_description       block
_cell_formula_units_Z            4
loop_
_atom_site_label
_atom_site_type_symbol
_atom_site_fract_x
_atom_site_fract_y
_atom_site_fract_z
S1 S -0.14799(12) 0.51873(4) 0.12938(3)
O1 O 0.3832(4) 0.39729(12) 0.25407(11)
H1 H 0.3778 0.4421 0.2417
N1 N 0.2331(4) 0.51333(13) 0.18970(11)
C1 C 0.2465(5) 1.01113(16) 0.11024(13)
C2 C 0.1368(5) 1.06460(15) 0.06247(12)
C3 C 0.1522(6) 1.14142(16) 0.05816(14)
H2 H 0.2429 1.1687 0.0877
C4 C 0.0343(5) 1.17844(17) 0.01032(15)
H3 H 0.0440 1.2315 0.0073
C5 C -0.0978(5) 1.13948(18) -0.03334(15)
H4 H -0.1789 1.1658 -0.0657
C6 C -0.1114(5) 1.06258(17) -0.02984(14)
H5 H -0.2003 1.0356 -0.0600
C7 C 0.0055(4) 1.02495(16) 0.01805(12)
C8 C 0.0160(5) 0.94531(16) 0.03369(13)
C9 C -0.0847(5) 0.88334(16) 0.00568(14)
H6 H -0.1771 0.8889 -0.0314
C10 C -0.0489(5) 0.81325(16) 0.03242(14)
H7 H -0.1168 0.7707 0.0129
C11 C 0.0847(5) 0.80329(15) 0.08755(13)
C12 C 0.1826(5) 0.86630(15) 0.11593(13)
H8 H 0.2714 0.8610 0.1538
C13 C 0.1507(5) 0.93630(15) 0.08910(12)
C14 C 0.5028(5) 1.01086(17) 0.10262(16)
H9 H 0.5417 0.9991 0.0577
H10 H 0.5678 0.9730 0.1314
H11 H 0.5624 1.0604 0.1139
C15 C 0.1839(6) 1.02989(16) 0.18009(13)
H12 H 0.0204 1.0296 0.1847
H13 H 0.2420 1.0796 0.1912
H14 H 0.2492 0.9924 0.2092
C16 C 0.1217(5) 0.72754(15) 0.11452(12)
C17 C 0.3238(5) 0.71182(15) 0.14723(13)
H15 H 0.4326 0.7504 0.1512
C18 C 0.3695(5) 0.64275(15) 0.17362(13)
H16 H 0.5065 0.6339 0.1958
C19 C 0.2100(4) 0.58561(15) 0.16720(13)
C20 C 0.0611(5) 0.47176(15) 0.17329(12)
C21 C 0.0108(4) 0.60003(15) 0.13374(13)
C22 C -0.0349(5) 0.67047(15) 0.10747(13)
H17 H -0.1714 0.6793 0.0850
C23 C 0.0448(5) 0.39273(15) 0.18974(13)
C24 C -0.1288(5) 0.34795(15) 0.16529(14)
H18 H -0.2378 0.3702 0.1379
C25 C -0.1468(5) 0.27271(15) 0.17966(13)
C26 C 0.0142(5) 0.24218(17) 0.22055(15)
H19 H 0.0041 0.1908 0.2321
C27 C 0.1869(6) 0.28431(18) 0.24463(15)
H20 H 0.2946 0.2615 0.2722
C28 C 0.2071(5) 0.35932(17) 0.22957(14)
C29 C -0.3307(6) 0.22471(17) 0.15250(15)
H21 H -0.4290 0.2554 0.1253
H22 H -0.4180 0.2030 0.1880
H23 H -0.2653 0.1844 0.1265
loop_
_geom_bond_atom_site_label_1
_geom_bond_atom_site_label_2
_geom_bond_site_symmetry_1
_geom_bond_site_symmetry_2
S1 C20 1_555 1_555
O1 H1 1_555 1_555
N1 C19 1_555 1_555
C1 C2 1_555 1_555
C2 C3 1_555 1_555
C3 H2 1_555 1_555
C4 C3 1_555 1_555
H3 C4 1_555 1_555
C5 C4 1_555 1_555
H4 C5 1_555 1_555
C6 C5 1_555 1_555
H5 C6 1_555 1_555
C7 C2 1_555 1_555
C8 C7 1_555 1_555
C9 C8 1_555 1_555
H6 C9 1_555 1_555
C10 C9 1_555 1_555
H7 C10 1_555 1_555
C11 C10 1_555 1_555
C12 C11 1_555 1_555
H8 C12 1_555 1_555
C13 C1 1_555 1_555
C14 C1 1_555 1_555
H9 C14 1_555 1_555
H10 C14 1_555 1_555
H11 C14 1_555 1_555
C15 C1 1_555 1_555
H12 C15 1_555 1_555
H13 C15 1_555 1_555
H14 C15 1_555 1_555
C16 C11 1_555 1_555
C17 C16 1_555 1_555
H15 C17 1_555 1_555
C18 C17 1_555 1_555
H16 C18 1_555 1_555
C19 C18 1_555 1_555
C20 N1 1_555 1_555
C21 S1 1_555 1_555
C22 C16 1_555 1_555
H17 C22 1_555 1_555
C23 C20 1_555 1_555
C24 C23 1_555 1_555
H18 C24 1_555 1_555
C25 C24 1_555 1_555
C26 C25 1_555 1_555
H19 C26 1_555 1_555
C27 C26 1_555 1_555
H20 C27 1_555 1_555
C28 O1 1_555 1_555
C29 C25 1_555 1_555
H21 C29 1_555 1_555
H22 C29 1_555 1_555
H23 C29 1_555 1_555
C6 C7 1_555 1_555
C8 C13 1_555 1_555
C12 C13 1_555 1_555
C19 C21 1_555 1_555
C21 C22 1_555 1_555
C23 C28 1_555 1_555
C27 C28 1_555 1_555

#END
