
#######################################################################
#
#                 Cambridge Crystallographic Data Centre
#                                CCDC 
#
#######################################################################
#
# If this CIF has been generated from an entry in the Cambridge 
# Structural Database, then it will include bibliographic, chemical, 
# crystal, experimental, refinement or atomic coordinate data resulting 
# from the CCDC's data processing and validation procedures.
#
#######################################################################

data_VUJWUS
_chemical_formula_moiety         'C25 H22 O1'
_chemical_name_systematic        5,12-Methano(2.2.2)paracyclophan-25-one
_symmetry_cell_setting           monoclinic
_symmetry_space_group_name_H-M   'P 21/c'
_symmetry_Int_Tables_number      14
_space_group_name_Hall           '-P 2ybc'
loop_
_symmetry_equiv_pos_site_id
_symmetry_equiv_pos_as_xyz
1 x,y,z
2 -x,1/2+y,1/2-z
3 -x,-y,-z
4 x,1/2-y,1/2+z
_cell_length_a                   10.677(2)
_cell_length_b                   26.122(3)
_cell_length_c                   13.053(2)
_cell_angle_alpha                90
_cell_angle_beta                 92.96(2)
_cell_angle_gamma                90
_cell_volume                     3635.68
_exptl_crystal_colour            colorless
_cell_formula_units_Z            8
loop_
_atom_site_label
_atom_site_type_symbol
_atom_site_fract_x
_atom_site_fract_y
_atom_site_fract_z
C1 C 0.6070(2) 0.2878(1) 0.9005(2)
C2 C 0.5901(2) 0.3445(1) 0.8723(2)
C3 C 0.7087(2) 0.3745(1) 0.8920(1)
C4 C 0.7877(2) 0.3832(1) 0.8130(1)
C5 C 0.9055(2) 0.4045(1) 0.8332(1)
C6 C 0.9459(2) 0.4194(1) 0.9316(1)
C7 C 0.8635(2) 0.4134(1) 1.0090(2)
C8 C 0.7470(2) 0.3907(1) 0.9897(1)
C9 C 1.0783(2) 0.4389(1) 0.9470(2)
C10 C 1.1771(2) 0.3966(1) 0.9465(2)
C11 C 1.1697(2) 0.3575(1) 0.8612(1)
C12 C 1.0928(2) 0.3614(1) 0.7714(1)
C13 C 1.0830(2) 0.3209(1) 0.7023(1)
C14 C 1.1475(2) 0.2754(1) 0.7196(2)
C15 C 1.2321(2) 0.2737(1) 0.8041(2)
C16 C 1.2426(2) 0.3138(1) 0.8727(2)
C17 C 1.1146(2) 0.2282(1) 0.6577(2)
C18 C 1.0360(2) 0.1902(1) 0.7179(2)
C19 C 0.9230(2) 0.2142(1) 0.7648(1)
C20 C 0.8063(2) 0.2160(1) 0.7138(2)
C21 C 0.7051(2) 0.2391(1) 0.7569(2)
C22 C 0.7158(2) 0.2617(1) 0.8526(2)
C23 C 0.8332(2) 0.2594(1) 0.9037(2)
C24 C 0.9334(2) 0.2361(1) 0.8611(2)
C25 C 0.9977(2) 0.4027(1) 0.7519(1)
O1 O 0.9891(1) 0.4270(1) 0.6727(1)
H1 H 0.5313 0.2695 0.8817
H2 H 0.6201 0.2856 0.9737
H3 H 0.5651 0.3467 0.8007
H4 H 0.5249 0.3593 0.9106
H5 H 0.7609 0.3746 0.7438
H6 H 0.8869 0.4256 1.0767
H7 H 0.6927 0.3857 1.0452
H8 H 1.0939 0.4626 0.8929
H9 H 1.0862 0.4572 1.0108
H10 H 1.2581 0.4125 0.9464
H11 H 1.1733 0.3783 1.0101
H12 H 1.0309 0.3245 0.6405
H13 H 1.2830 0.2437 0.8149
H14 H 1.3023 0.3115 0.9300
H15 H 1.0671 0.2379 0.5963
H16 H 1.1905 0.2121 0.6380
H17 H 1.0893 0.1758 0.7719
H18 H 1.0077 0.1628 0.6735
H19 H 0.7958 0.2010 0.6467
H20 H 0.6249 0.2394 0.7201
H21 H 0.8441 0.2746 0.9706
H22 H 1.0127 0.2346 0.8992
C26 C 0.8503(2) 0.4549(1) 0.4478(2)
C27 C 0.8651(2) 0.4496(1) 0.3325(2)
C28 C 0.7447(2) 0.4609(1) 0.2720(1)
C29 C 0.6658(2) 0.4209(1) 0.2430(1)
C30 C 0.5476(2) 0.4305(1) 0.1987(1)
C31 C 0.5045(2) 0.4801(1) 0.1800(2)
C32 C 0.5863(2) 0.5196(1) 0.2049(2)
C33 C 0.7031(2) 0.5104(1) 0.2515(2)
C34 C 0.3704(2) 0.4865(1) 0.1382(2)
C35 C 0.2747(2) 0.4787(1) 0.2181(2)
C36 C 0.2835(2) 0.4317(1) 0.2843(2)
C37 C 0.3621(2) 0.3897(1) 0.2685(1)
C38 C 0.3744(2) 0.3513(1) 0.3418(1)
C39 C 0.3115(2) 0.3522(1) 0.4318(2)
C40 C 0.2268(2) 0.3914(1) 0.4434(2)
C41 C 0.2128(2) 0.4296(1) 0.3714(2)
C42 C 0.3469(2) 0.3150(1) 0.5160(2)
C43 C 0.4286(2) 0.3401(1) 0.6026(2)
C44 C 0.5406(2) 0.3692(1) 0.5650(1)
C45 C 0.6467(2) 0.3444(1) 0.5342(2)
C46 C 0.7462(2) 0.3718(1) 0.4973(2)
C47 C 0.7434(2) 0.4244(1) 0.4893(1)
C48 C 0.6380(2) 0.4487(1) 0.5206(2)
C49 C 0.5386(2) 0.4218(1) 0.5579(2)
C50 C 0.4572(2) 0.3872(1) 0.1891(1)
O2 O 0.4700(1) 0.3501(1) 0.1346(1)
H23 H 0.8376 0.4904 0.4628
H24 H 0.9268 0.4443 0.4836
H25 H 0.8898 0.4151 0.3184
H26 H 0.9297 0.4721 0.3109
H27 H 0.6928 0.3862 0.2539
H28 H 0.5609 0.5541 0.1891
H29 H 0.7565 0.5388 0.2705
H30 H 0.3544 0.4622 0.0839
H31 H 0.3607 0.5202 0.1096
H32 H 0.1929 0.4789 0.1841
H33 H 0.2795 0.5078 0.2628
H34 H 0.4286 0.3229 0.3293
H35 H 0.1776 0.3918 0.5029
H36 H 0.1519 0.4559 0.3810
H37 H 0.3934 0.2873 0.4881
H38 H 0.2720 0.3011 0.5428
H39 H 0.4584 0.3142 0.6501
H40 H 0.3769 0.3633 0.6387
H41 H 0.6510 0.3077 0.5387
H42 H 0.8194 0.3539 0.4768
H43 H 0.6336 0.4853 0.5170
H44 H 0.4665 0.4400 0.5799
loop_
_geom_bond_atom_site_label_1
_geom_bond_atom_site_label_2
_geom_bond_site_symmetry_1
_geom_bond_site_symmetry_2
C1 C2 1_555 1_555
C2 C3 1_555 1_555
C3 C4 1_555 1_555
C4 C5 1_555 1_555
C5 C6 1_555 1_555
C6 C7 1_555 1_555
C7 C8 1_555 1_555
C8 C3 1_555 1_555
C9 C6 1_555 1_555
C10 C9 1_555 1_555
C11 C10 1_555 1_555
C12 C11 1_555 1_555
C13 C12 1_555 1_555
C14 C13 1_555 1_555
C15 C14 1_555 1_555
C16 C11 1_555 1_555
C17 C14 1_555 1_555
C18 C17 1_555 1_555
C19 C18 1_555 1_555
C20 C19 1_555 1_555
C21 C20 1_555 1_555
C22 C1 1_555 1_555
C23 C22 1_555 1_555
C24 C19 1_555 1_555
C25 C5 1_555 1_555
O1 C25 1_555 1_555
C26 C27 1_555 1_555
C27 C28 1_555 1_555
C28 C29 1_555 1_555
C29 C30 1_555 1_555
C30 C31 1_555 1_555
C31 C32 1_555 1_555
C32 C33 1_555 1_555
C33 C28 1_555 1_555
C34 C31 1_555 1_555
C35 C34 1_555 1_555
C36 C35 1_555 1_555
C37 C36 1_555 1_555
C38 C37 1_555 1_555
C39 C38 1_555 1_555
C40 C39 1_555 1_555
C41 C36 1_555 1_555
C42 C39 1_555 1_555
C43 C42 1_555 1_555
C44 C43 1_555 1_555
C45 C44 1_555 1_555
C46 C45 1_555 1_555
C47 C26 1_555 1_555
C48 C47 1_555 1_555
C49 C44 1_555 1_555
C50 C30 1_555 1_555
O2 C50 1_555 1_555
H1 C1 1_555 1_555
H2 C1 1_555 1_555
H3 C2 1_555 1_555
H4 C2 1_555 1_555
H5 C4 1_555 1_555
H6 C7 1_555 1_555
H7 C8 1_555 1_555
H8 C9 1_555 1_555
H9 C9 1_555 1_555
H10 C10 1_555 1_555
H11 C10 1_555 1_555
H12 C13 1_555 1_555
H13 C15 1_555 1_555
H14 C16 1_555 1_555
H15 C17 1_555 1_555
H16 C17 1_555 1_555
H17 C18 1_555 1_555
H18 C18 1_555 1_555
H19 C20 1_555 1_555
H20 C21 1_555 1_555
H21 C23 1_555 1_555
H22 C24 1_555 1_555
H23 C26 1_555 1_555
H24 C26 1_555 1_555
H25 C27 1_555 1_555
H26 C27 1_555 1_555
H27 C29 1_555 1_555
H28 C32 1_555 1_555
H29 C33 1_555 1_555
H30 C34 1_555 1_555
H31 C34 1_555 1_555
H32 C35 1_555 1_555
H33 C35 1_555 1_555
H34 C38 1_555 1_555
H35 C40 1_555 1_555
H36 C41 1_555 1_555
H37 C42 1_555 1_555
H38 C42 1_555 1_555
H39 C43 1_555 1_555
H40 C43 1_555 1_555
H41 C45 1_555 1_555
H42 C46 1_555 1_555
H43 C48 1_555 1_555
H44 C49 1_555 1_555
C12 C25 1_555 1_555
C15 C16 1_555 1_555
C21 C22 1_555 1_555
C23 C24 1_555 1_555
C37 C50 1_555 1_555
C40 C41 1_555 1_555
C46 C47 1_555 1_555
C48 C49 1_555 1_555

#END
