
#######################################################################
#
#                 Cambridge Crystallographic Data Centre
#                                CCDC 
#
#######################################################################
#
# If this CIF has been generated from an entry in the Cambridge 
# Structural Database, then it will include bibliographic, chemical, 
# crystal, experimental, refinement or atomic coordinate data resulting 
# from the CCDC's data processing and validation procedures.
#
#######################################################################

data_VUKBAF
_chemical_name_common            
"bis(Diaminomethaniminium) 4,4'-diazene-1,2-diyldibenzenesulfonate hemikis(coumarin 334) clathrate"
_chemical_formula_moiety         
'2(C1 H6 N3 1+),C12 H8 N2 O6 S2 2-,0.5(C17 H17 N1 O3)'
_chemical_name_systematic        
"bis(Guanidinium) 4,4'-azobenzenedisulfonate hemikis(10-acetyl-2,3,6,7-tetrahydro-1H,5H,11H-pyrano[2,3-f]pyrido[3,2,1-ij]quinolin-11-one) clathrate"
_symmetry_cell_setting           triclinic
_symmetry_space_group_name_H-M   'P -1'
_symmetry_Int_Tables_number      2
_space_group_name_Hall           '-P 1'
loop_
_symmetry_equiv_pos_site_id
_symmetry_equiv_pos_as_xyz
1 x,y,z
2 -x,-y,-z
_cell_length_a                   6.2233(2)
_cell_length_b                   7.1835(2)
_cell_length_c                   15.9689(5)
_cell_angle_alpha                98.037(2)
_cell_angle_beta                 96.969(2)
_cell_angle_gamma                93.053(2)
_cell_volume                     699.863
_exptl_crystal_colour            red
_exptl_crystal_description       plate
_cell_formula_units_Z            1
loop_
_atom_site_label
_atom_site_type_symbol
_atom_site_fract_x
_atom_site_fract_y
_atom_site_fract_z
C31 C 0.9402(4) 0.7342(3) 0.41420(15)
N2 N 0.8261(3) 0.8853(3) 0.41420(13)
H5 H 0.8919 0.9967 0.4141
H6 H 0.6846 0.8740 0.4144
N3 N 0.8437(3) 0.5655(3) 0.41437(14)
H7 H 0.9209 0.4664 0.4143
H8 H 0.7024 0.5525 0.4145
N4 N 1.1517(3) 0.7531(3) 0.41397(16)
H9 H 1.2286 0.6538 0.4139
H10 H 1.2161 0.8651 0.4139
S1 S 0.69453(8) 0.76586(7) 0.62578(3)
O1 O 0.9277(2) 0.7816(2) 0.62141(10)
O2 O 0.5760(3) 0.8924(2) 0.57721(10)
O3 O 0.6036(3) 0.5715(2) 0.60584(10)
N1 N 0.5945(3) 0.9955(3) 0.99147(13)
C21 C 0.6627(4) 0.8382(3) 0.73394(14)
C22 C 0.6078(4) 0.9417(4) 0.90271(15)
C23 C 0.8379(10) 0.9077(19) 0.7929(4)
H1 H 0.9779 0.9208 0.7755
C24 C 0.8105(12) 0.9588(18) 0.8776(5)
H2 H 0.9320 1.0056 0.9185
C25 C 0.4324(16) 0.878(2) 0.8431(6)
H3 H 0.2916 0.8690 0.8602
C26 C 0.4577(14) 0.827(2) 0.7592(6)
H4 H 0.3350 0.7834 0.7184
S1A S 0.30547(8) 1.23414(7) 1.37422(3)
O1A O 0.0723(2) 1.2184(2) 1.37859(10)
O2A O 0.4240(3) 1.1076(2) 1.42279(10)
O3A O 0.3964(3) 1.4285(2) 1.39416(10)
N1A N 0.4055(3) 1.0045(3) 1.00853(13)
C21A C 0.3373(4) 1.1618(3) 1.26606(14)
C22A C 0.3922(4) 1.0583(4) 1.09729(15)
C23A C 0.1621(10) 1.0923(19) 1.2071(4)
H1A H 0.0221 1.0792 1.2245
C24A C 0.1895(12) 1.0412(18) 1.1224(5)
H2A H 0.0680 0.9944 1.0815
C25A C 0.5676(16) 1.122(2) 1.1569(6)
H3A H 0.7084 1.1310 1.1398
C26A C 0.5423(14) 1.173(2) 1.2408(6)
H4A H 0.6650 1.2166 1.2816
C1? C 0.6480(15) 0.4674(12) 0.9522(6)
C2? C 0.7701(19) 0.5028(15) 1.0080(7)
C3? C 0.950(2) 0.4215(17) 0.8725(9)
C4? C 0.516(3) 0.431(2) 0.8897(11)
C5? C 0.865(3) 0.471(2) 0.9540(11)
C6? C 0.745(3) 0.556(2) 1.0997(11)
C7? C 0.327(4) 0.377(3) 0.8299(14)
C8? C 0.188(3) 0.320(3) 0.8809(12)
C9? C 0.194(5) 0.366(4) 0.7798(18)
C10? C 1.078(4) 0.437(3) 0.9179(15)
C11? C 0.718(5) 0.427(4) 0.884(2)
C12? C 0.549(4) 0.304(3) 0.7316(16)
C13? C 0.859(6) 0.579(4) 1.162(2)
C14? C 1.045(7) 0.385(5) 0.788(3)
C15? C 0.377(4) 0.464(3) 0.9456(15)
C16? C 0.677(5) 0.409(4) 0.8281(19)
C17? C 0.535(3) 0.354(3) 0.8013(13)
C18? C 0.838(5) 0.369(3) 0.8240(17)
C19? C 0.5000 0.5000 1.0000
C20? C 1.0000 0.5000 1.0000
C27? C 0.831(2) 0.820(3) 0.7979(8)
C28? C 0.806(3) 0.870(4) 0.8824(9)
C29? C 0.471(3) 0.905(3) 0.7537(12)
C30? C 0.439(4) 0.953(3) 0.8384(14)
loop_
_geom_bond_atom_site_label_1
_geom_bond_atom_site_label_2
_geom_bond_site_symmetry_1
_geom_bond_site_symmetry_2
S1 O1 1_555 1_555
O2 S1 1_555 1_555
O3 S1 1_555 1_555
N1 C22 1_555 1_555
C21 S1 1_555 1_555
C22 C24 1_555 1_555
C23 C21 1_555 1_555
H1 C23 1_555 1_555
C24 C23 1_555 1_555
H2 C24 1_555 1_555
C25 C22 1_555 1_555
H3 C25 1_555 1_555
C26 C21 1_555 1_555
H4 C26 1_555 1_555
C31 N2 1_555 1_555
N2 H5 1_555 1_555
H6 N2 1_555 1_555
N3 C31 1_555 1_555
H7 N3 1_555 1_555
H8 N3 1_555 1_555
N4 C31 1_555 1_555
H9 N4 1_555 1_555
H10 N4 1_555 1_555
S1A O1A 1_555 1_555
O2A S1A 1_555 1_555
O3A S1A 1_555 1_555
N1A N1 1_555 1_555
C21A S1A 1_555 1_555
C22A N1A 1_555 1_555
C23A C21A 1_555 1_555
H1A C23A 1_555 1_555
C24A C22A 1_555 1_555
H2A C24A 1_555 1_555
C25A C22A 1_555 1_555
H3A C25A 1_555 1_555
C26A C21A 1_555 1_555
H4A C26A 1_555 1_555
C25 C26 1_555 1_555
C23A C24A 1_555 1_555
C25A C26A 1_555 1_555

#END
