
#######################################################################
#
#                 Cambridge Crystallographic Data Centre
#                                CCDC 
#
#######################################################################
#
# If this CIF has been generated from an entry in the Cambridge 
# Structural Database, then it will include bibliographic, chemical, 
# crystal, experimental, refinement or atomic coordinate data resulting 
# from the CCDC's data processing and validation procedures.
#
#######################################################################

data_VUKBIN
_chemical_name_common            
"bis(Diaminomethaniminium) 4,4'-ethane-1,2-diyldibenzenesulfonate bis(coumarin 1) clathrate"
_chemical_formula_moiety         
'2(C1 H6 N3 1+),C14 H12 O6 S2 2-,2(C14 H17 N1 O2)'
_chemical_name_systematic        
'bis(Guanidinium) 1,2-bis(4-sulfonatophenyl)ethane bis(7-diethylamino-4-methylcoumarin) clathrate'
_symmetry_cell_setting           monoclinic
_symmetry_space_group_name_H-M   'P 21/n'
_symmetry_Int_Tables_number      14
_space_group_name_Hall           '-P 2yn'
loop_
_symmetry_equiv_pos_site_id
_symmetry_equiv_pos_as_xyz
1 x,y,z
2 1/2-x,1/2+y,1/2-z
3 -x,-y,-z
4 1/2+x,1/2-y,1/2+z
_cell_length_a                   7.5933(8)
_cell_length_b                   32.042(4)
_cell_length_c                   9.7843(11)
_cell_angle_alpha                90
_cell_angle_beta                 91.672(2)
_cell_angle_gamma                90
_cell_volume                     2379.55
_exptl_crystal_colour            'light yellow'
_exptl_crystal_description       slab
_cell_formula_units_Z            2
loop_
_atom_site_label
_atom_site_type_symbol
_atom_site_fract_x
_atom_site_fract_y
_atom_site_fract_z
C1 C 0.3893(2) 0.23401(6) 0.44489(19)
N1 N 0.3873(2) 0.20718(5) 0.34176(17)
H1 H 0.4871 0.1984 0.3084
H2 H 0.2863 0.1982 0.3067
N2 N 0.2394(2) 0.24709(5) 0.49512(17)
H3 H 0.2405 0.2648 0.5638
H4 H 0.1385 0.2381 0.4599
N3 N 0.5410(2) 0.24744(5) 0.49726(18)
H5 H 0.5427 0.2652 0.5659
H6 H 0.6406 0.2387 0.4635
C2 C 0.8877(2) 0.13426(5) 0.35502(17)
C3 C 0.8965(2) 0.10292(6) 0.25797(18)
H7 H 0.9001 0.1098 0.1637
C4 C 0.8999(3) 0.06179(6) 0.29841(19)
H8 H 0.9053 0.0404 0.2314
C5 C 0.8954(2) 0.05105(6) 0.43569(19)
C6 C 0.8869(3) 0.08279(6) 0.5315(2)
H9 H 0.8839 0.0760 0.6259
C7 C 0.8826(3) 0.12428(6) 0.49166(18)
H10 H 0.8762 0.1457 0.5583
C8 C 0.9064(2) 0.00613(6) 0.4792(2)
H11 H 0.8643 -0.0119 0.4029
H12 H 0.8286 0.0016 0.5573
S1 S 0.88447(5) 0.186701(13) 0.30107(4)
O1 O 0.72361(15) 0.19238(4) 0.21791(12)
O2 O 0.88741(16) 0.21242(4) 0.42349(13)
O3 O 1.04101(16) 0.19262(4) 0.21998(13)
C2B C 1.1123(2) -0.13426(5) 0.64498(17)
C3B C 1.1035(2) -0.10292(6) 0.74203(18)
H7B H 1.0999 -0.1098 0.8363
C4B C 1.1001(3) -0.06179(6) 0.70159(19)
H8B H 1.0947 -0.0404 0.7686
C5B C 1.1046(2) -0.05105(6) 0.56431(19)
C6B C 1.1131(3) -0.08279(6) 0.4685(2)
H9B H 1.1161 -0.0760 0.3741
C7B C 1.1174(3) -0.12428(6) 0.50834(18)
H10B H 1.1238 -0.1457 0.4417
C8B C 1.0936(2) -0.00613(6) 0.5208(2)
H11B H 1.1357 0.0119 0.5971
H12B H 1.1714 -0.0016 0.4427
S1B S 1.11553(5) -0.186701(13) 0.69893(4)
O1B O 1.27639(15) -0.19238(4) 0.78209(12)
O2B O 1.11259(16) -0.21242(4) 0.57651(13)
O3B O 0.95899(16) -0.19262(4) 0.78002(13)
C9 C 0.6688(2) 0.05244(6) 0.91269(19)
H13 H 0.7173 0.0695 0.9838
C10 C 0.5741(2) 0.07086(6) 0.80347(19)
C11 C 0.5014(2) 0.04365(6) 0.70279(19)
H14 H 0.4328 0.0549 0.6288
C12 C 0.5282(2) 0.00154(6) 0.71001(19)
H15 H 0.4784 -0.0157 0.6400
C13 C 0.6268(2) -0.01727(6) 0.81713(18)
C14 C 0.6921(2) 0.01000(6) 0.91759(18)
C15 C 0.6635(2) -0.06108(6) 0.8320(2)
C16 C 0.7545(3) -0.07423(6) 0.9444(2)
H16 H 0.7756 -0.1033 0.9549
C17 C 0.8209(3) -0.04649(6) 1.0487(2)
C18 C 0.6054(3) -0.09112(7) 0.7216(3)
H17 H 0.6313 -0.1197 0.7514
H18 H 0.6686 -0.0851 0.6380
H19 H 0.4784 -0.0881 0.7036
O4 O 0.78791(17) -0.00449(4) 1.02936(13)
O5 O 0.90566(19) -0.05575(5) 1.15080(15)
N4 N 0.5533(2) 0.11345(5) 0.79564(18)
C19 C 0.6308(3) 0.14063(6) 0.9006(2)
H20 H 0.6172 0.1274 0.9912
H21 H 0.5655 0.1674 0.9006
C20 C 0.8244(3) 0.14954(7) 0.8803(2)
H22 H 0.8884 0.1231 0.8721
H23 H 0.8723 0.1653 0.9588
H24 H 0.8375 0.1660 0.7967
C21 C 0.4729(3) 0.13436(7) 0.6763(2)
H25 H 0.4874 0.1166 0.5946
H26 H 0.5351 0.1610 0.6607
C22 C 0.2813(4) 0.14299(10) 0.6933(4)
H27 H 0.2188 0.1166 0.7073
H28 H 0.2331 0.1568 0.6111
H29 H 0.2664 0.1611 0.7728
loop_
_geom_bond_atom_site_label_1
_geom_bond_atom_site_label_2
_geom_bond_site_symmetry_1
_geom_bond_site_symmetry_2
C1 N1 1_555 1_555
N1 H1 1_555 1_555
H2 N1 1_555 1_555
N2 C1 1_555 1_555
H3 N2 1_555 1_555
H4 N2 1_555 1_555
N3 C1 1_555 1_555
H5 N3 1_555 1_555
H6 N3 1_555 1_555
C2 C3 1_555 1_555
C3 H7 1_555 1_555
C4 C3 1_555 1_555
H8 C4 1_555 1_555
C5 C4 1_555 1_555
C6 C5 1_555 1_555
H9 C6 1_555 1_555
C7 C2 1_555 1_555
H10 C7 1_555 1_555
C8 C5 1_555 1_555
H11 C8 1_555 1_555
H12 C8 1_555 1_555
S1 C2 1_555 1_555
O1 S1 1_555 1_555
O2 S1 1_555 1_555
O3 S1 1_555 1_555
C9 H13 1_555 1_555
C10 C9 1_555 1_555
C11 C10 1_555 1_555
H14 C11 1_555 1_555
C12 C11 1_555 1_555
H15 C12 1_555 1_555
C13 C12 1_555 1_555
C14 C9 1_555 1_555
C15 C13 1_555 1_555
C16 C15 1_555 1_555
H16 C16 1_555 1_555
C17 C16 1_555 1_555
C18 C15 1_555 1_555
H17 C18 1_555 1_555
H18 C18 1_555 1_555
H19 C18 1_555 1_555
O4 C14 1_555 1_555
O5 C17 1_555 1_555
N4 C10 1_555 1_555
C19 N4 1_555 1_555
H20 C19 1_555 1_555
H21 C19 1_555 1_555
C20 C19 1_555 1_555
H22 C20 1_555 1_555
H23 C20 1_555 1_555
H24 C20 1_555 1_555
C21 N4 1_555 1_555
H25 C21 1_555 1_555
H26 C21 1_555 1_555
C22 C21 1_555 1_555
H27 C22 1_555 1_555
H28 C22 1_555 1_555
H29 C22 1_555 1_555
C2B C3B 1_555 1_555
C3B H7B 1_555 1_555
C4B C3B 1_555 1_555
H8B C4B 1_555 1_555
C5B C4B 1_555 1_555
C6B C5B 1_555 1_555
H9B C6B 1_555 1_555
C7B C2B 1_555 1_555
H10B C7B 1_555 1_555
C8B C8 1_555 1_555
H11B C8B 1_555 1_555
H12B C8B 1_555 1_555
S1B C2B 1_555 1_555
O1B S1B 1_555 1_555
O2B S1B 1_555 1_555
O3B S1B 1_555 1_555
C6 C7 1_555 1_555
C13 C14 1_555 1_555
C17 O4 1_555 1_555
C5B C8B 1_555 1_555
C6B C7B 1_555 1_555

#END
