
#######################################################################
#
#                 Cambridge Crystallographic Data Centre
#                                CCDC 
#
#######################################################################
#
# If this CIF has been generated from an entry in the Cambridge 
# Structural Database, then it will include bibliographic, chemical, 
# crystal, experimental, refinement or atomic coordinate data resulting 
# from the CCDC's data processing and validation procedures.
#
#######################################################################

data_VUKCEK
_chemical_name_common            
'bis(Diaminomethaniminium) anthracene-2,6-disulfonate bis(coumarin 1) clathrate'
_chemical_formula_moiety         
'2(C1 H6 N3 1+),C14 H8 O6 S2 2-,2(C14 H17 N1 O2)'
_chemical_name_systematic        
'bis(Guanidinium) 2,6-anthracenedisulfonate bis(7-diethylamino-4-methylcoumarin) clathrate'
_symmetry_cell_setting           orthorhombic
_symmetry_space_group_name_H-M   'P b c a'
_symmetry_Int_Tables_number      61
_space_group_name_Hall           '-P 2ac 2ab'
loop_
_symmetry_equiv_pos_site_id
_symmetry_equiv_pos_as_xyz
1 x,y,z
2 1/2-x,-y,1/2+z
3 -x,1/2+y,1/2-z
4 1/2+x,1/2-y,-z
5 -x,-y,-z
6 1/2+x,y,1/2-z
7 x,1/2-y,1/2+z
8 1/2-x,1/2+y,z
_cell_length_a                   14.5643(11)
_cell_length_b                   11.7978(9)
_cell_length_c                   26.4477(19)
_cell_angle_alpha                90
_cell_angle_beta                 90
_cell_angle_gamma                90
_cell_volume                     4544.42
_exptl_crystal_colour            yellow-green
_exptl_crystal_description       block
_cell_formula_units_Z            4
loop_
_atom_site_label
_atom_site_type_symbol
_atom_site_fract_x
_atom_site_fract_y
_atom_site_fract_z
C1 C 0.14461(11) -0.27661(15) 0.26941(6)
N1 N 0.21607(10) -0.21804(13) 0.28571(6)
H1 H 0.2688 -0.2524 0.2912
H2 H 0.2110 -0.1447 0.2910
N2 N 0.06518(10) -0.22448(13) 0.26235(6)
H3 H 0.0169 -0.2632 0.2522
H4 H 0.0606 -0.1511 0.2678
N3 N 0.15154(10) -0.38673(13) 0.26130(6)
H5 H 0.2040 -0.4216 0.2668
H6 H 0.1037 -0.4252 0.2504
C2 C -0.04548(11) 0.12911(15) 0.37424(6)
H7 H -0.0742 0.1698 0.3476
C3 C 0.04064(11) 0.07400(14) 0.36601(6)
C4 C 0.08374(11) 0.01610(13) 0.40352(6)
H8 H 0.1412 -0.0192 0.3972
C5 C 0.04298(11) 0.00808(13) 0.45245(6)
C6 C 0.08525(11) -0.05170(14) 0.49166(6)
H9 H 0.1432 -0.0864 0.4859
C7 C 0.04417(11) -0.06143(14) 0.53908(6)
C8 C 0.08581(11) -0.12290(15) 0.57966(6)
H10 H 0.1428 -0.1601 0.5742
S1 S 0.08837(3) 0.07676(3) 0.304535(14)
O1 O 0.02255(8) 0.01728(10) 0.27254(4)
O2 O 0.17699(8) 0.02012(10) 0.30767(4)
O3 O 0.09679(8) 0.19589(10) 0.29068(4)
C2D C 0.04548(11) -0.12911(15) 0.62576(6)
H7D H 0.0742 -0.1698 0.6524
C3D C -0.04064(11) -0.07400(14) 0.63399(6)
C4D C -0.08374(11) -0.01610(13) 0.59648(6)
H8D H -0.1412 0.0192 0.6028
C5D C -0.04298(11) -0.00808(13) 0.54755(6)
C6D C -0.08525(11) 0.05170(14) 0.50834(6)
H9D H -0.1432 0.0864 0.5141
C7D C -0.04417(11) 0.06143(14) 0.46092(6)
C8D C -0.08581(11) 0.12290(15) 0.42034(6)
H10D H -0.1428 0.1601 0.4258
S1D S -0.08837(3) -0.07676(3) 0.695465(14)
O1D O -0.02255(8) -0.01728(10) 0.72746(4)
O2D O -0.17699(8) -0.02012(10) 0.69233(4)
O3D O -0.09679(8) -0.19589(10) 0.70932(4)
C9 C 0.18946(14) 0.0183(2) 0.15409(7)
C10 C 0.16327(13) 0.1337(2) 0.16130(7)
H11 H 0.1614 0.1627 0.1948
C11 C 0.14104(12) 0.20345(18) 0.12289(7)
C12 C 0.14556(11) 0.16001(16) 0.07195(7)
C13 C 0.12460(12) 0.22205(16) 0.02803(7)
H12 H 0.1067 0.2991 0.0313
C14 C 0.12908(13) 0.17544(16) -0.01936(7)
H13 H 0.1134 0.2204 -0.0479
C15 C 0.15665(12) 0.06128(15) -0.02664(7)
C16 C 0.17571(12) -0.00257(16) 0.01695(7)
H14 H 0.1923 -0.0801 0.0140
C17 C 0.17036(12) 0.04714(16) 0.06417(6)
C18 C 0.11155(14) 0.32315(18) 0.13248(8)
H15 H 0.1123 0.3381 0.1689
H16 H 0.0493 0.3344 0.1194
H17 H 0.1538 0.3753 0.1154
C19 C 0.19234(13) -0.10196(16) -0.08185(7)
H18 H 0.2393 -0.1230 -0.0565
H19 H 0.2204 -0.1105 -0.1157
C20 C 0.11287(17) -0.1830(2) -0.07757(10)
H20 H 0.1348 -0.2607 -0.0827
H21 H 0.0668 -0.1647 -0.1033
H22 H 0.0853 -0.1765 -0.0439
C21 C 0.13629(13) 0.07884(17) -0.11923(7)
H23 H 0.1670 0.0466 -0.1494
H24 H 0.1561 0.1588 -0.1161
C22 C 0.03356(15) 0.07650(19) -0.12789(9)
H25 H 0.0187 0.1198 -0.1584
H26 H 0.0023 0.1103 -0.0988
H27 H 0.0132 -0.0021 -0.1321
N4 N 0.16759(11) 0.01688(13) -0.07447(6)
O4 O 0.20977(13) -0.04917(16) 0.18669(6)
O5 O 0.19193(9) -0.02214(12) 0.10443(5)
loop_
_geom_bond_atom_site_label_1
_geom_bond_atom_site_label_2
_geom_bond_site_symmetry_1
_geom_bond_site_symmetry_2
C1 N1 1_555 1_555
N1 H1 1_555 1_555
H2 N1 1_555 1_555
N2 C1 1_555 1_555
H3 N2 1_555 1_555
H4 N2 1_555 1_555
N3 C1 1_555 1_555
H5 N3 1_555 1_555
H6 N3 1_555 1_555
C2 H7 1_555 1_555
C3 C2 1_555 1_555
C4 C3 1_555 1_555
H8 C4 1_555 1_555
C5 C4 1_555 1_555
C6 C5 1_555 1_555
H9 C6 1_555 1_555
C7 C6 1_555 1_555
C8 C7 1_555 1_555
H10 C8 1_555 1_555
S1 C3 1_555 1_555
O1 S1 1_555 1_555
O2 S1 1_555 1_555
O3 S1 1_555 1_555
C9 C10 1_555 1_555
C10 H11 1_555 1_555
C11 C10 1_555 1_555
C12 C11 1_555 1_555
C13 C12 1_555 1_555
H12 C13 1_555 1_555
C14 C13 1_555 1_555
H13 C14 1_555 1_555
C15 C14 1_555 1_555
C16 C15 1_555 1_555
H14 C16 1_555 1_555
C17 C12 1_555 1_555
C18 C11 1_555 1_555
H15 C18 1_555 1_555
H16 C18 1_555 1_555
H17 C18 1_555 1_555
C19 H18 1_555 1_555
H19 C19 1_555 1_555
C20 C19 1_555 1_555
H20 C20 1_555 1_555
H21 C20 1_555 1_555
H22 C20 1_555 1_555
C21 H23 1_555 1_555
H24 C21 1_555 1_555
C22 C21 1_555 1_555
H25 C22 1_555 1_555
H26 C22 1_555 1_555
H27 C22 1_555 1_555
N4 C15 1_555 1_555
O4 C9 1_555 1_555
O5 C9 1_555 1_555
C2D C8 1_555 1_555
H7D C2D 1_555 1_555
C3D C2D 1_555 1_555
C4D C3D 1_555 1_555
H8D C4D 1_555 1_555
C5D C7 1_555 1_555
C6D C5D 1_555 1_555
H9D C6D 1_555 1_555
C7D C5 1_555 1_555
C8D C2 1_555 1_555
H10D C8D 1_555 1_555
S1D C3D 1_555 1_555
O1D S1D 1_555 1_555
O2D S1D 1_555 1_555
O3D S1D 1_555 1_555
C16 C17 1_555 1_555
C17 O5 1_555 1_555
C19 N4 1_555 1_555
C21 N4 1_555 1_555
C4D C5D 1_555 1_555
C6D C7D 1_555 1_555
C7D C8D 1_555 1_555

#END
