
#######################################################################
#
#                 Cambridge Crystallographic Data Centre
#                                CCDC 
#
#######################################################################
#
# If this CIF has been generated from an entry in the Cambridge 
# Structural Database, then it will include bibliographic, chemical, 
# crystal, experimental, refinement or atomic coordinate data resulting 
# from the CCDC's data processing and validation procedures.
#
#######################################################################

data_VUKDEL
_chemical_name_common            
"bis(Diaminomethaniminium) 4,4'-ethane-1,2-diyldibenzenesulfonate bis(coumarin 334) clathrate"
_chemical_formula_moiety         
'2(C1 H6 N3 1+),C14 H12 O6 S2 2-,2(C17 H17 N1 O3)'
_chemical_name_systematic        
'bis(Guanidinium) 1,2-bis(4-sulfonatophenyl)ethane bis(10-acetyl-2,3,6,7-tetrahydro-1H,5H,11H-pyrano[2,3-f]pyrido[3,2,1-ij]quinolin-11-one) clathrate'
_symmetry_cell_setting           orthorhombic
_symmetry_space_group_name_H-M   'P c a 21'
_symmetry_Int_Tables_number      29
_space_group_name_Hall           'P 2c -2ac'
loop_
_symmetry_equiv_pos_site_id
_symmetry_equiv_pos_as_xyz
1 x,y,z
2 -x,-y,1/2+z
3 1/2+x,-y,z
4 1/2-x,y,1/2+z
_cell_length_a                   13.5107(5)
_cell_length_b                   30.2800(11)
_cell_length_c                   12.6926(4)
_cell_angle_alpha                90
_cell_angle_beta                 90
_cell_angle_gamma                90
_cell_volume                     5192.59
_exptl_crystal_colour            orange-brown
_exptl_crystal_description       slab
_cell_formula_units_Z            4
loop_
_atom_site_label
_atom_site_type_symbol
_atom_site_fract_x
_atom_site_fract_y
_atom_site_fract_z
C1 C -0.3588(4) -0.49377(17) -0.5294(5)
N1 N -0.2818(3) -0.47814(16) -0.4757(4)
H1 H -0.2254 -0.4731 -0.5082
H2 H -0.2874 -0.4729 -0.4078
N2 N -0.4426(3) -0.50169(16) -0.4771(4)
H3 H -0.4943 -0.5125 -0.5106
H4 H -0.4462 -0.4962 -0.4092
N3 N -0.3521(3) -0.50178(16) -0.6303(3)
H5 H -0.2961 -0.4968 -0.6637
H6 H -0.4036 -0.5121 -0.6649
C2 C -0.6447(3) -0.00298(15) -0.5580(3)
N4 N -0.5604(3) 0.00472(15) -0.5064(3)
H7 H -0.5086 0.0150 -0.5404
H8 H -0.5567 -0.0005 -0.4383
N5 N -0.7217(3) -0.01844(16) -0.5062(3)
H9 H -0.7776 -0.0236 -0.5397
H10 H -0.7173 -0.0236 -0.4381
N6 N -0.6494(3) 0.00496(16) -0.6594(3)
H11 H -0.7047 0.0000 -0.6940
H12 H -0.5972 0.0153 -0.6928
C3 C -0.5804(3) -0.10078(15) -0.2474(4)
C4 C -0.4849(4) -0.1160(2) -0.2514(8)
H13 H -0.4309 -0.0959 -0.2533
C5 C -0.4687(5) -0.1610(2) -0.2527(11)
H14 H -0.4029 -0.1719 -0.2470
C6 C -0.5469(5) -0.1908(2) -0.2620(9)
C7 C -0.6401(4) -0.1746(2) -0.2490(7)
H15 H -0.6939 -0.1946 -0.2415
C8 C -0.6576(4) -0.13044(17) -0.2467(5)
H16 H -0.7238 -0.1199 -0.2445
C9 C -0.5219(7) -0.2414(2) -0.2845(7)
H17 H -0.5785 -0.2569 -0.3174
H18 H -0.4627 -0.2446 -0.3299
S1 S -0.60225(7) -0.04425(4) -0.23826(8)
O1 O -0.6978(2) -0.03652(12) -0.2876(3)
O2 O -0.6042(2) -0.03367(13) -0.1266(3)
O3 O -0.5204(2) -0.02255(11) -0.2919(3)
C10 C -0.4270(3) -0.39792(16) -0.2083(5)
C11 C -0.3534(4) -0.36634(18) -0.2121(5)
H19 H -0.2862 -0.3751 -0.2194
C12 C -0.3772(4) -0.32178(19) -0.2052(6)
H20 H -0.3270 -0.3002 -0.2150
C13 C -0.4743(5) -0.3082(2) -0.1841(6)
C14 C -0.5478(4) -0.3403(2) -0.1792(6)
H21 H -0.6146 -0.3317 -0.1679
C15 C -0.5243(4) -0.38522(19) -0.1909(6)
H22 H -0.5750 -0.4069 -0.1869
C16 C -0.5027(5) -0.2577(2) -0.1745(6)
H23 H -0.5626 -0.2541 -0.1304
H24 H -0.4479 -0.2408 -0.1419
S2 S -0.39832(8) -0.45429(4) -0.20655(10)
O4 O -0.4781(3) -0.47704(12) -0.2609(3)
O5 O -0.3030(3) -0.45943(13) -0.2568(3)
O6 O -0.3948(3) -0.46715(13) -0.0962(3)
C17 C -0.8894(4) -0.1931(2) -0.3504(4)
C18 C -0.9175(4) -0.17104(18) -0.2577(4)
C19 C -0.9144(4) -0.1932(2) -0.1607(4)
C20 C -0.8850(4) -0.23649(19) -0.1568(3)
H25 H -0.8838 -0.2512 -0.0907
C21 C -0.8566(3) -0.25980(16) -0.2481(3)
C22 C -0.8596(3) -0.23653(18) -0.3433(4)
C23 C -0.8259(3) -0.30413(18) -0.2483(4)
H26 H -0.8257 -0.3199 -0.1836
C24 C -0.7965(4) -0.3254(2) -0.3372(5)
C25 C -0.7920(6) -0.3013(3) -0.4334(6)
C26 C -0.7649(5) -0.3733(2) -0.3300(7)
C27 C -0.7285(10) -0.3975(3) -0.4283(11)
H27 H -0.7375 -0.4294 -0.4189
H28 H -0.6581 -0.3911 -0.4393
H29 H -0.7664 -0.3875 -0.4897
C28 C -0.9520(7) -0.1046(3) -0.3623(9)
H30 H -1.0205 -0.1074 -0.3892
H31 H -0.9385 -0.0728 -0.3511
C29 C -0.8836(9) -0.1215(3) -0.4412(8)
H32 H -0.8152 -0.1139 -0.4200
H33 H -0.8971 -0.1067 -0.5092
C30 C -0.8901(7) -0.1698(3) -0.4569(5)
H34 H -0.8333 -0.1801 -0.4997
H35 H -0.9518 -0.1772 -0.4952
C31 C -0.9817(6) -0.1057(2) -0.1686(8)
H36 H -0.9701 -0.0736 -0.1758
H37 H -1.0541 -0.1104 -0.1645
C32 C -0.9380(8) -0.1204(3) -0.0734(8)
H38 H -0.9711 -0.1058 -0.0132
H39 H -0.8674 -0.1118 -0.0725
C33 C -0.9461(7) -0.1690(2) -0.0613(7)
H40 H -1.0154 -0.1769 -0.0445
H41 H -0.9040 -0.1787 -0.0017
N7 N -0.9445(4) -0.12760(17) -0.2611(5)
O7 O -0.8282(4) -0.25811(17) -0.4324(3)
O8 O -0.7595(7) -0.3132(2) -0.5176(5)
O9 O -0.7726(4) -0.39185(16) -0.2454(5)
C34 C -0.1040(4) -0.30469(19) -0.3177(4)
C35 C -0.0933(4) -0.32460(19) -0.2187(6)
C36 C -0.1151(5) -0.2997(2) -0.1237(5)
C37 C -0.1449(5) -0.2572(2) -0.1351(5)
H42 H -0.1591 -0.2405 -0.0736
C38 C -0.1561(4) -0.23648(17) -0.2352(4)
C39 C -0.1339(4) -0.26173(19) -0.3227(4)
C40 C -0.1866(3) -0.19282(18) -0.2480(4)
H43 H -0.2020 -0.1760 -0.1870
C41 C -0.1952(3) -0.17326(18) -0.3436(5)
C42 C -0.1741(5) -0.2002(2) -0.4349(5)
C43 C -0.2298(4) -0.1270(2) -0.3504(7)
C44 C -0.2578(8) -0.1068(3) -0.4549(8)
H44 H -0.2763 -0.0758 -0.4445
H45 H -0.3141 -0.1230 -0.4848
H46 H -0.2014 -0.1086 -0.5032
C45 C -0.0804(6) -0.3312(2) -0.4130(6)
H47 H -0.0103 -0.3265 -0.4329
H48 H -0.1225 -0.3214 -0.4724
C46 C -0.0976(6) -0.3791(3) -0.3923(7)
H49 H -0.1693 -0.3843 -0.3819
H50 H -0.0763 -0.3964 -0.4545
C47 C -0.0431(6) -0.3945(2) -0.2985(7)
H51 H -0.0624 -0.4254 -0.2828
H52 H 0.0288 -0.3942 -0.3137
C48 C -0.1032(8) -0.3218(3) -0.0174(7)
H53 H -0.0625 -0.3022 0.0275
H54 H -0.1695 -0.3237 0.0155
C49 C -0.0628(17) -0.3620(6) -0.0153(9)
H55 H -0.1078 -0.3806 0.0274
H56 H -0.0007 -0.3592 0.0256
C50 C -0.0398(7) -0.3862(3) -0.1028(8)
H57 H -0.0745 -0.4149 -0.0971
H58 H 0.0321 -0.3925 -0.1005
N8 N -0.0626(4) -0.36745(18) -0.2079(5)
O10 O -0.1437(3) -0.24274(13) -0.4189(3)
O11 O -0.1764(5) -0.18882(18) -0.5271(4)
O12 O -0.2347(4) -0.10513(15) -0.2707(5)
loop_
_geom_bond_atom_site_label_1
_geom_bond_atom_site_label_2
_geom_bond_site_symmetry_1
_geom_bond_site_symmetry_2
C1 N1 1_555 1_555
N1 H1 1_555 1_555
H2 N1 1_555 1_555
N2 C1 1_555 1_555
H3 N2 1_555 1_555
H4 N2 1_555 1_555
N3 C1 1_555 1_555
H5 N3 1_555 1_555
H6 N3 1_555 1_555
C2 N4 1_555 1_555
N4 H7 1_555 1_555
H8 N4 1_555 1_555
N5 C2 1_555 1_555
H9 N5 1_555 1_555
H10 N5 1_555 1_555
N6 C2 1_555 1_555
H11 N6 1_555 1_555
H12 N6 1_555 1_555
C3 C4 1_555 1_555
C4 H13 1_555 1_555
C5 C4 1_555 1_555
H14 C5 1_555 1_555
C6 C5 1_555 1_555
C7 C6 1_555 1_555
H15 C7 1_555 1_555
C8 C3 1_555 1_555
H16 C8 1_555 1_555
C9 C6 1_555 1_555
H17 C9 1_555 1_555
H18 C9 1_555 1_555
S1 C3 1_555 1_555
O1 S1 1_555 1_555
O2 S1 1_555 1_555
O3 S1 1_555 1_555
C10 C11 1_555 1_555
C11 H19 1_555 1_555
C12 C11 1_555 1_555
H20 C12 1_555 1_555
C13 C12 1_555 1_555
C14 C13 1_555 1_555
H21 C14 1_555 1_555
C15 C10 1_555 1_555
H22 C15 1_555 1_555
C16 C9 1_555 1_555
H23 C16 1_555 1_555
H24 C16 1_555 1_555
S2 C10 1_555 1_555
O4 S2 1_555 1_555
O5 S2 1_555 1_555
O6 S2 1_555 1_555
C17 C18 1_555 1_555
C18 C19 1_555 1_555
C19 C20 1_555 1_555
C20 H25 1_555 1_555
C21 C20 1_555 1_555
C22 C17 1_555 1_555
C23 C21 1_555 1_555
H26 C23 1_555 1_555
C24 C23 1_555 1_555
C25 C24 1_555 1_555
C26 C24 1_555 1_555
C27 C26 1_555 1_555
H27 C27 1_555 1_555
H28 C27 1_555 1_555
H29 C27 1_555 1_555
C28 H30 1_555 1_555
H31 C28 1_555 1_555
C29 C28 1_555 1_555
H32 C29 1_555 1_555
H33 C29 1_555 1_555
C30 C17 1_555 1_555
H34 C30 1_555 1_555
H35 C30 1_555 1_555
C31 H36 1_555 1_555
H37 C31 1_555 1_555
C32 C31 1_555 1_555
H38 C32 1_555 1_555
H39 C32 1_555 1_555
C33 C19 1_555 1_555
H40 C33 1_555 1_555
H41 C33 1_555 1_555
N7 C18 1_555 1_555
O7 C22 1_555 1_555
O8 C25 1_555 1_555
O9 C26 1_555 1_555
C34 C35 1_555 1_555
C35 C36 1_555 1_555
C36 C37 1_555 1_555
C37 H42 1_555 1_555
C38 C37 1_555 1_555
C39 C34 1_555 1_555
C40 C38 1_555 1_555
H43 C40 1_555 1_555
C41 C40 1_555 1_555
C42 C41 1_555 1_555
C43 C41 1_555 1_555
C44 C43 1_555 1_555
H44 C44 1_555 1_555
H45 C44 1_555 1_555
H46 C44 1_555 1_555
C45 C34 1_555 1_555
H47 C45 1_555 1_555
H48 C45 1_555 1_555
C46 C45 1_555 1_555
H49 C46 1_555 1_555
H50 C46 1_555 1_555
C47 C46 1_555 1_555
H51 C47 1_555 1_555
H52 C47 1_555 1_555
C48 C36 1_555 1_555
H53 C48 1_555 1_555
H54 C48 1_555 1_555
C49 C48 1_555 1_555
H55 C49 1_555 1_555
H56 C49 1_555 1_555
C50 C49 1_555 1_555
H57 C50 1_555 1_555
H58 C50 1_555 1_555
N8 C35 1_555 1_555
O10 C39 1_555 1_555
O11 C42 1_555 1_555
O12 C43 1_555 1_555
C7 C8 1_555 1_555
C13 C16 1_555 1_555
C14 C15 1_555 1_555
C21 C22 1_555 1_555
C25 O7 1_555 1_555
C28 N7 1_555 1_555
C29 C30 1_555 1_555
C31 N7 1_555 1_555
C32 C33 1_555 1_555
C38 C39 1_555 1_555
C42 O10 1_555 1_555
C47 N8 1_555 1_555
C50 N8 1_555 1_555

#END
