
#######################################################################
#
#                 Cambridge Crystallographic Data Centre
#                                CCDC 
#
#######################################################################
#
# If this CIF has been generated from an entry in the Cambridge 
# Structural Database, then it will include bibliographic, chemical, 
# crystal, experimental, refinement or atomic coordinate data resulting 
# from the CCDC's data processing and validation procedures.
#
#######################################################################

data_VUKDOW
_chemical_formula_moiety         'C14 H18 N2 O3 S1,H2 O1'
_chemical_name_systematic        
'5-t-Butyl-2-(3-methyl-1H-imidazol-3-ium-1-yl)benzenesulfonate monohydrate'
_symmetry_cell_setting           triclinic
_symmetry_space_group_name_H-M   'P -1'
_symmetry_Int_Tables_number      2
_space_group_name_Hall           '-P 1'
loop_
_symmetry_equiv_pos_site_id
_symmetry_equiv_pos_as_xyz
1 x,y,z
2 -x,-y,-z
_cell_length_a                   6.7439(16)
_cell_length_b                   9.438(2)
_cell_length_c                   12.875(4)
_cell_angle_alpha                86.318(12)
_cell_angle_beta                 85.021(13)
_cell_angle_gamma                69.372(10)
_cell_volume                     763.549
_exptl_crystal_colour            colorless
_exptl_crystal_description       Prism
_cell_formula_units_Z            2
loop_
_atom_site_label
_atom_site_type_symbol
_atom_site_fract_x
_atom_site_fract_y
_atom_site_fract_z
S1 S 1.02807(5) 0.30032(4) 0.68999(3)
O1 O 1.10731(16) 0.40642(11) 0.73361(7)
O2 O 1.19079(16) 0.15476(11) 0.66994(8)
O3 O 0.90228(17) 0.36505(13) 0.60149(8)
N1 N 0.66808(17) 0.17357(13) 0.66678(9)
N2 N 0.55457(18) 0.21273(14) 0.51277(9)
C1 C 0.8854(2) 0.28015(15) 0.89358(10)
H1 H 0.9890 0.3225 0.9070
C2 C 0.8546(2) 0.26043(15) 0.79091(10)
C3 C 0.7006(2) 0.20058(15) 0.77160(10)
C4 C 0.5778(2) 0.16342(16) 0.85302(11)
H2 H 0.4702 0.1251 0.8394
C5 C 0.6132(2) 0.18263(16) 0.95447(11)
H3 H 0.5292 0.1563 1.0101
C6 C 0.7687(2) 0.23958(15) 0.97758(10)
C7 C 0.8034(2) 0.26268(16) 1.09043(10)
C8 C 0.6350(3) 0.41060(18) 1.12701(12)
H4 H 0.6492 0.4953 1.0827
H5 H 0.6545 0.4258 1.1995
H6 H 0.4934 0.4056 1.1223
C9 C 0.7844(3) 0.13267(19) 1.16189(12)
H7 H 0.6378 0.1344 1.1658
H8 H 0.8231 0.1436 1.2318
H9 H 0.8800 0.0363 1.1341
C10 C 1.0239(3) 0.2708(2) 1.10038(13)
H10 H 1.1328 0.1796 1.0722
H11 H 1.0446 0.2776 1.1740
H12 H 1.0353 0.3605 1.0612
C11 C 0.7723(2) 0.04261(16) 0.61305(11)
H13 H 0.8746 -0.0476 0.6390
C12 C 0.7006(2) 0.06774(17) 0.51682(11)
H14 H 0.7428 -0.0016 0.4619
C13 C 0.5379(2) 0.27442(16) 0.60398(10)
H15 H 0.4481 0.3739 0.6216
C14 C 0.4345(2) 0.28653(19) 0.42267(12)
H16 H 0.3314 0.3854 0.4422
H17 H 0.3596 0.2231 0.4001
H18 H 0.5325 0.3005 0.3655
O4 O 0.09929(19) 0.67580(13) 0.61568(9)
H19 H 0.073(3) 0.673(2) 0.5514(13)
H20 H 0.097(3) 0.593(2) 0.6509(14)
loop_
_geom_bond_atom_site_label_1
_geom_bond_atom_site_label_2
_geom_bond_site_symmetry_1
_geom_bond_site_symmetry_2
S1 O1 1_555 1_555
O2 S1 1_555 1_555
O3 S1 1_555 1_555
N1 C3 1_555 1_555
N2 C12 1_555 1_555
C1 H1 1_555 1_555
C2 S1 1_555 1_555
C3 C2 1_555 1_555
C4 C3 1_555 1_555
H2 C4 1_555 1_555
C5 C4 1_555 1_555
H3 C5 1_555 1_555
C6 C1 1_555 1_555
C7 C6 1_555 1_555
C8 C7 1_555 1_555
H4 C8 1_555 1_555
H5 C8 1_555 1_555
H6 C8 1_555 1_555
C9 C7 1_555 1_555
H7 C9 1_555 1_555
H8 C9 1_555 1_555
H9 C9 1_555 1_555
C10 C7 1_555 1_555
H10 C10 1_555 1_555
H11 C10 1_555 1_555
H12 C10 1_555 1_555
C11 N1 1_555 1_555
H13 C11 1_555 1_555
C12 C11 1_555 1_555
H14 C12 1_555 1_555
C13 N1 1_555 1_555
H15 C13 1_555 1_555
C14 N2 1_555 1_555
H16 C14 1_555 1_555
H17 C14 1_555 1_555
H18 C14 1_555 1_555
O4 H19 1_555 1_555
H20 O4 1_555 1_555
N2 C13 1_555 1_555
C1 C2 1_555 1_555
C5 C6 1_555 1_555

#END
