
#######################################################################
#
#                 Cambridge Crystallographic Data Centre
#                                CCDC 
#
#######################################################################
#
# If this CIF has been generated from an entry in the Cambridge 
# Structural Database, then it will include bibliographic, chemical, 
# crystal, experimental, refinement or atomic coordinate data resulting 
# from the CCDC's data processing and validation procedures.
#
#######################################################################

data_VULHIV
_chemical_formula_moiety         'C30 H23 B1 F2 N4'
_chemical_name_systematic        
14,14-Difluoro-6-mesityl-14,16-dihydro-12H-13\l^5^,14\l^5^-indolo[3''',2''':4'',5'']pyrrolo[1'',2'':3',4'][1,3,2]diazaborinino[1',6':1,5]pyrrolo[2,3-b]indole
_symmetry_cell_setting           monoclinic
_symmetry_space_group_name_H-M   'C 2/c'
_symmetry_Int_Tables_number      15
_space_group_name_Hall           '-C 2yn'
loop_
_symmetry_equiv_pos_site_id
_symmetry_equiv_pos_as_xyz
1 x,y,z
2 -x,y,1/2-z
3 1/2+x,1/2+y,z
4 1/2-x,1/2+y,1/2-z
5 -x,-y,-z
6 x,-y,1/2+z
7 1/2-x,1/2-y,-z
8 1/2+x,1/2-y,1/2+z
_cell_length_a                   16.111(4)
_cell_length_b                   19.410(4)
_cell_length_c                   9.049(2)
_cell_angle_alpha                90
_cell_angle_beta                 121.561(2)
_cell_angle_gamma                90
_cell_volume                     2411.19
_exptl_crystal_colour            blue
_exptl_crystal_description       block
_cell_formula_units_Z            4
_exptl_crystal_preparation       Luminescent
loop_
_atom_site_label
_atom_site_type_symbol
_atom_site_fract_x
_atom_site_fract_y
_atom_site_fract_z
B1 B 0.0000 0.10935(14) -0.2500
C1 C 0.13954(13) 0.09947(9) 0.3433(2)
C2 C 0.18001(13) 0.05786(10) 0.4874(2)
H1 H 0.1832 0.0103 0.4782
C3 C 0.21557(15) 0.08911(11) 0.6461(3)
H2 H 0.2440 0.0622 0.7458
C4 C 0.20993(15) 0.15982(12) 0.6602(3)
H3 H 0.2331 0.1794 0.7688
C5 C 0.17078(14) 0.20134(11) 0.5169(3)
H4 H 0.1677 0.2488 0.5280
C6 C 0.13568(12) 0.17199(9) 0.3548(2)
C7 C 0.09418(13) 0.19769(9) 0.1808(2)
C8 C 0.06783(13) 0.25405(9) 0.0727(3)
H5 H 0.0724 0.3000 0.1055
C9 C 0.03281(12) 0.22958(9) -0.0955(2)
C10 C 0.07337(12) 0.13986(8) 0.0745(2)
C11 C 0.0000 0.26505(12) -0.2500
C12 C 0.0000 0.34211(12) -0.2500
C13 C 0.08335(14) 0.37809(9) -0.2162(3)
C14 C 0.08090(17) 0.44969(11) -0.2174(3)
H6 H 0.1362 0.4738 -0.1953
C15 C 0.0000 0.48629(15) -0.2500
C16 C 0.0000 0.56483(17) -0.2500
C17 C 0.17483(15) 0.34191(12) -0.1804(3)
H7 H 0.1708 0.2940 -0.1589
H8 H 0.2301 0.3621 -0.0805
H9 H 0.1818 0.3466 -0.2789
F1 F 0.07326(10) 0.06708(6) -0.23319(16)
N1 N 0.09987(11) 0.08080(8) 0.1679(2)
N2 N 0.03622(10) 0.15646(7) -0.09259(19)
H10 H 0.0884(12) 0.0396(10) 0.128(2)
C1A C -0.13954(13) 0.09947(9) -0.8433(2)
C2A C -0.18001(13) 0.05786(10) -0.9874(2)
H1A H -0.1832 0.0103 -0.9782
C3A C -0.21557(15) 0.08911(11) -1.1461(3)
H2A H -0.2440 0.0622 -1.2458
C4A C -0.20993(15) 0.15982(12) -1.1602(3)
H3A H -0.2331 0.1794 -1.2688
C5A C -0.17078(14) 0.20134(11) -1.0169(3)
H4A H -0.1677 0.2488 -1.0280
C6A C -0.13568(12) 0.17199(9) -0.8548(2)
C7A C -0.09418(13) 0.19769(9) -0.6808(2)
C8A C -0.06783(13) 0.25405(9) -0.5727(3)
H5A H -0.0724 0.3000 -0.6055
C9A C -0.03281(12) 0.22958(9) -0.4045(2)
C10A C -0.07337(12) 0.13986(8) -0.5745(2)
C13A C -0.08335(14) 0.37809(9) -0.2838(3)
C14A C -0.08090(17) 0.44969(11) -0.2826(3)
H6A H -0.1362 0.4738 -0.3047
C17A C -0.17483(15) 0.34191(12) -0.3196(3)
H7A H -0.1708 0.2940 -0.3411
H8A H -0.2301 0.3621 -0.4195
H9A H -0.1818 0.3466 -0.2211
F1A F -0.07326(10) 0.06708(6) -0.26681(16)
N1A N -0.09987(11) 0.08080(8) -0.6679(2)
N2A N -0.03622(10) 0.15646(7) -0.40741(19)
H10A H -0.0884(12) 0.0396(10) -0.628(2)
H11? H 0.0516 0.5813 -0.2643
H12? H -0.0614 0.5813 -0.3438
H13? H 0.0098 0.5813 -0.1420
loop_
_geom_bond_atom_site_label_1
_geom_bond_atom_site_label_2
_geom_bond_site_symmetry_1
_geom_bond_site_symmetry_2
B1 F1 1_555 1_555
C1 C2 1_555 1_555
C2 H1 1_555 1_555
C3 C2 1_555 1_555
H2 C3 1_555 1_555
C4 C3 1_555 1_555
H3 C4 1_555 1_555
C5 C4 1_555 1_555
H4 C5 1_555 1_555
C6 C1 1_555 1_555
C7 C6 1_555 1_555
C8 C7 1_555 1_555
H5 C8 1_555 1_555
C9 C8 1_555 1_555
C10 C7 1_555 1_555
C11 C9 1_555 1_555
C12 C11 1_555 1_555
C13 C12 1_555 1_555
C14 C13 1_555 1_555
H6 C14 1_555 1_555
C15 C14 1_555 1_555
C16 C15 1_555 1_555
C17 C13 1_555 1_555
H7 C17 1_555 1_555
H8 C17 1_555 1_555
H9 C17 1_555 1_555
N1 C1 1_555 1_555
N2 B1 1_555 1_555
H10 N1 1_555 1_555
C1A C2A 1_555 1_555
C2A H1A 1_555 1_555
C3A C2A 1_555 1_555
H2A C3A 1_555 1_555
C4A C3A 1_555 1_555
H3A C4A 1_555 1_555
C5A C4A 1_555 1_555
H4A C5A 1_555 1_555
C6A C1A 1_555 1_555
C7A C6A 1_555 1_555
C8A C7A 1_555 1_555
H5A C8A 1_555 1_555
C9A C11 1_555 1_555
C10A C7A 1_555 1_555
C13A C12 1_555 1_555
C14A C15 1_555 1_555
H6A C14A 1_555 1_555
C17A C13A 1_555 1_555
H7A C17A 1_555 1_555
H8A C17A 1_555 1_555
H9A C17A 1_555 1_555
F1A B1 1_555 1_555
N1A C1A 1_555 1_555
N2A B1 1_555 1_555
H10A N1A 1_555 1_555
C5 C6 1_555 1_555
C9 N2 1_555 1_555
C10 N1 1_555 1_555
C10 N2 1_555 1_555
C5A C6A 1_555 1_555
C8A C9A 1_555 1_555
C9A N2A 1_555 1_555
C10A N1A 1_555 1_555
C10A N2A 1_555 1_555
C13A C14A 1_555 1_555

#END
