
#######################################################################
#
#                 Cambridge Crystallographic Data Centre
#                                CCDC 
#
#######################################################################
#
# If this CIF has been generated from an entry in the Cambridge 
# Structural Database, then it will include bibliographic, chemical, 
# crystal, experimental, refinement or atomic coordinate data resulting 
# from the CCDC's data processing and validation procedures.
#
#######################################################################

data_VUMMUN
_chemical_formula_moiety         'C22 H28 N16,1.5(C1 H2 Cl2)'
_chemical_name_systematic        
'2,8,14,20-Tetraethyl-2,4,6,8,10,12,14,16,18,20,22,24,25,27-tetradeca-azapentacyclo[19.3.1.1^3,7^.1^9,13^.1^15,19^]octacosa-1(25),3(28),4,6,9(27),10,12,15(26),16,18,21,23-dodecaene-11,23-diamine dichloromethane solvate'
_symmetry_cell_setting           monoclinic
_symmetry_space_group_name_H-M   'P 21'
_symmetry_Int_Tables_number      4
_space_group_name_Hall           'P 2yb'
loop_
_symmetry_equiv_pos_site_id
_symmetry_equiv_pos_as_xyz
1 x,y,z
2 -x,1/2+y,-z
_cell_length_a                   12.094(2)
_cell_length_b                   17.178(3)
_cell_length_c                   14.433(3)
_cell_angle_alpha                90
_cell_angle_beta                 99.61(3)
_cell_angle_gamma                90
_cell_volume                     2956.39
_exptl_crystal_colour            colorless
_exptl_crystal_description       block
_cell_formula_units_Z            4
loop_
_atom_site_label
_atom_site_type_symbol
_atom_site_fract_x
_atom_site_fract_y
_atom_site_fract_z
N1 N 0.6677(3) 0.5824(2) 1.1551(2)
N2 N 0.5329(2) 0.6141(2) 1.0192(2)
N3 N 0.8473(3) 0.6269(2) 1.1620(3)
H1 H 0.8656 0.6043 1.2171
H2 H 0.8982 0.6527 1.1374
C1 C 0.1028(3) 0.6675(2) 1.0166(3)
N4 N 0.1804(3) 0.7039(2) 0.9775(2)
N5 N 0.1768(3) 0.4629(2) 1.0031(2)
N6 N 0.4661(3) 0.7370(2) 0.7766(2)
N7 N 0.1050(3) 0.8218(2) 1.0282(3)
C2 C 0.0297(3) 0.7786(3) 1.0616(3)
N8 N 0.2948(3) 0.8002(2) 0.7930(2)
N9 N 0.3681(3) 0.4355(2) 1.0685(3)
N10 N 0.0999(2) 0.5855(2) 1.0094(2)
N11 N 0.2455(3) 0.8232(2) 0.9395(2)
N12 N 0.4904(3) 0.5326(2) 1.1376(2)
C3 C 0.1951(3) 0.5398(3) 1.0213(3)
C4 C 0.3014(3) 0.5670(2) 1.0597(3)
H3 H 0.3162 0.6211 1.0687
C5 C 0.1754(3) 0.7807(3) 0.9845(3)
N13 N 0.7222(3) 0.6576(2) 1.0306(2)
N14 N 0.5908(3) 0.6916(2) 0.9037(2)
N15 N 0.0245(3) 0.6991(2) 1.0584(2)
N16 N -0.0470(3) 0.8160(2) 1.1023(3)
H4 H -0.0459 0.8672 1.1059
H5 H -0.0984 0.7894 1.1253
C6 C 0.4864(3) 0.7240(2) 0.8682(3)
C7 C 0.6157(3) 0.6532(2) 0.9895(3)
C8 C 0.6811(3) 0.7017(3) 0.8470(3)
H6 H 0.7542 0.7052 0.8896
H7 H 0.6691 0.7512 0.8116
C9 C 0.2429(4) 0.9089(3) 0.9404(4)
H8 H 0.1649 0.9268 0.9391
H9 H 0.2688 0.9290 0.8834
C10 C 0.5660(3) 0.5789(3) 1.1032(3)
C11 C 0.3706(3) 0.7737(3) 0.7439(3)
H10 H 0.3549 0.7819 0.6779
C12 C 0.4123(3) 0.7470(2) 0.9283(3)
H11 H 0.4256 0.7358 0.9936
C13 C 0.5279(4) 0.4846(3) 1.2232(3)
H12 H 0.5951 0.5089 1.2606
H13 H 0.5493 0.4322 1.2038
C14 C 0.4374(4) 0.4764(3) 1.2842(3)
H14 H 0.4659 0.4446 1.3394
H15 H 0.3713 0.4513 1.2479
H16 H 0.4168 0.5281 1.3046
C15 C -0.0109(3) 0.5470(3) 0.9841(3)
H17 H -0.0687 0.5792 1.0070
H18 H -0.0087 0.4958 1.0157
C16 C 0.7425(3) 0.6220(2) 1.1157(3)
C17 C 0.3189(3) 0.7869(2) 0.8855(3)
C18 C 0.2646(4) 0.4175(3) 1.0275(3)
H19 H 0.2520 0.3638 1.0137
C19 C 0.3836(3) 0.5124(2) 1.0841(3)
C20 C 0.3166(5) 0.9410(3) 1.0266(4)
H20 H 0.3136 0.9980 1.0252
H21 H 0.3940 0.9238 1.0276
H22 H 0.2900 0.9220 1.0830
C21 C 0.6849(4) 0.6356(3) 0.7791(4)
H23 H 0.7458 0.6445 0.7432
H24 H 0.6133 0.6328 0.7358
H25 H 0.6979 0.5866 0.8139
C22 C -0.0432(4) 0.5356(3) 0.8787(3)
H26 H -0.1167 0.5102 0.8649
H27 H 0.0130 0.5028 0.8560
H28 H -0.0466 0.5863 0.8472
N17 N 0.9355(3) 0.6974(2) 0.3598(2)
N18 N 1.0171(3) 0.5738(2) 0.3773(2)
N19 N 0.5587(3) 0.7615(2) 0.1806(2)
N20 N 0.7490(3) 0.4453(2) 0.4296(3)
N21 N 0.5125(3) 0.5775(2) 0.5446(2)
N22 N 1.1289(3) 0.6813(2) 0.4242(2)
N23 N 0.4932(3) 0.7039(2) 0.3038(2)
C23 C 0.7631(3) 0.7948(2) 0.2832(3)
C24 C 0.5837(3) 0.7370(3) 0.2704(3)
C25 C 1.0274(3) 0.6549(2) 0.3885(3)
N24 N 1.0479(3) 0.8083(2) 0.4113(2)
N25 N 1.2324(3) 0.7882(2) 0.4736(2)
H29 H 1.2404 0.8386 0.4838
H30 H 1.2900 0.7568 0.4893
N26 N 0.6911(3) 0.5389(2) 0.5277(2)
N27 N 0.5980(2) 0.6240(2) 0.4169(2)
N28 N 0.8667(3) 0.8231(2) 0.3331(2)
N29 N 0.7405(3) 0.8190(2) 0.1926(2)
C26 C 1.1330(3) 0.7595(3) 0.4342(3)
N30 N 0.4109(3) 0.6615(2) 0.4294(2)
C27 C 0.5038(3) 0.6608(3) 0.3883(3)
C28 C 0.9528(3) 0.7741(3) 0.3706(3)
C29 C 0.6902(3) 0.4859(3) 0.6068(3)
H31 H 0.6575 0.4353 0.5833
H32 H 0.6429 0.5079 0.6500
C30 C 0.8473(3) 0.5653(2) 0.4468(3)
H33 H 0.8548 0.6165 0.4717
C31 C 0.6892(3) 0.7514(2) 0.3246(3)
H34 H 0.7087 0.7321 0.3869
C32 C 0.3798(3) 0.7169(3) 0.2498(3)
H35 H 0.3271 0.6800 0.2721
H36 H 0.3809 0.7052 0.1828
C33 C 0.6392(3) 0.7998(3) 0.1482(3)
H37 H 0.6221 0.8156 0.0844
C34 C 1.1112(3) 0.5305(3) 0.3489(3)
H38 H 1.1084 0.4757 0.3696
H39 H 1.1828 0.5533 0.3805
C35 C 0.9223(3) 0.5357(3) 0.3909(3)
N31 N 0.9087(3) 0.4635(2) 0.3548(2)
C36 C 0.4216(3) 0.6169(3) 0.5064(3)
C37 C 0.8864(3) 0.9069(3) 0.3295(3)
H40 H 0.8323 0.9298 0.2776
H41 H 0.9629 0.9161 0.3158
N32 N 0.3326(3) 0.6132(2) 0.5497(3)
H42 H 0.3356 0.5854 0.6014
H43 H 0.2708 0.6384 0.5267
C38 C 0.5982(3) 0.5820(3) 0.4959(3)
C39 C 0.7633(3) 0.5171(2) 0.4637(3)
C40 C 0.8089(3) 0.4731(3) 0.6597(3)
H44 H 0.8068 0.4375 0.7124
H45 H 0.8409 0.5231 0.6836
H46 H 0.8554 0.4506 0.6171
C41 C 0.8745(5) 0.9470(3) 0.4203(4)
H47 H 0.8876 1.0029 0.4145
H48 H 0.9295 0.9255 0.4715
H49 H 0.7986 0.9384 0.4338
C42 C 0.8223(4) 0.4229(3) 0.3767(3)
H50 H 0.8126 0.3719 0.3513
C43 C 1.1073(4) 0.5327(4) 0.2435(3)
H51 H 1.1708 0.5032 0.2273
H52 H 1.1116 0.5868 0.2229
H53 H 1.0369 0.5094 0.2121
C44 C 0.3369(4) 0.7976(3) 0.2573(4)
H54 H 0.2621 0.8021 0.2193
H55 H 0.3879 0.8346 0.2345
H56 H 0.3326 0.8090 0.3231
Cl1 Cl 0.25460(12) 0.58435(8) 0.78480(10)
Cl2 Cl 0.43438(12) 0.48294(10) 0.74788(10)
C45 C 0.3609(5) 0.5204(3) 0.8333(4)
H57 H 0.3277 0.4768 0.8641
H58 H 0.4140 0.5480 0.8820
Cl3 Cl 0.93915(14) 0.77601(16) 0.81104(13)
Cl4 Cl 1.0147(2) 0.6973(2) 0.65609(19)
C46 C 1.0194(5) 0.7812(5) 0.7261(5)
H59 H 1.0981 0.7907 0.7559
H60 H 0.9947 0.8263 0.6852
Cl5 Cl 0.54004(17) 0.84837(14) 0.49945(13)
Cl6 Cl 0.74751(16) 0.7836(2) 0.58973(16)
C47 C 0.6093(5) 0.7893(4) 0.5892(4)
H61 H 0.5963 0.8101 0.6505
H62 H 0.5769 0.7363 0.5821
loop_
_geom_bond_atom_site_label_1
_geom_bond_atom_site_label_2
_geom_bond_site_symmetry_1
_geom_bond_site_symmetry_2
N1 C10 1_555 1_555
N2 C7 1_555 1_555
N3 H1 1_555 1_555
H2 N3 1_555 1_555
C1 N4 1_555 1_555
N4 C5 1_555 1_555
N5 C3 1_555 1_555
N6 C6 1_555 1_555
N7 C2 1_555 1_555
C2 N15 1_555 1_555
N8 C11 1_555 1_555
N9 C18 1_555 1_555
N10 C1 1_555 1_555
N11 C5 1_555 1_555
N12 C10 1_555 1_555
C3 N10 1_555 1_555
C4 C3 1_555 1_555
H3 C4 1_555 1_555
C5 N7 1_555 1_555
N13 C7 1_555 1_555
N14 C6 1_555 1_555
N15 C1 1_555 1_555
N16 C2 1_555 1_555
H4 N16 1_555 1_555
H5 N16 1_555 1_555
C6 C12 1_555 1_555
C7 N14 1_555 1_555
C8 N14 1_555 1_555
H6 C8 1_555 1_555
H7 C8 1_555 1_555
C9 N11 1_555 1_555
H8 C9 1_555 1_555
H9 C9 1_555 1_555
C10 N2 1_555 1_555
C11 N6 1_555 1_555
H10 C11 1_555 1_555
C12 H11 1_555 1_555
C13 N12 1_555 1_555
H12 C13 1_555 1_555
H13 C13 1_555 1_555
C14 C13 1_555 1_555
H14 C14 1_555 1_555
H15 C14 1_555 1_555
H16 C14 1_555 1_555
C15 N10 1_555 1_555
H17 C15 1_555 1_555
H18 C15 1_555 1_555
C16 N1 1_555 1_555
C17 N8 1_555 1_555
C18 N5 1_555 1_555
H19 C18 1_555 1_555
C19 N9 1_555 1_555
C20 C9 1_555 1_555
H20 C20 1_555 1_555
H21 C20 1_555 1_555
H22 C20 1_555 1_555
C21 C8 1_555 1_555
H23 C21 1_555 1_555
H24 C21 1_555 1_555
H25 C21 1_555 1_555
C22 C15 1_555 1_555
H26 C22 1_555 1_555
H27 C22 1_555 1_555
H28 C22 1_555 1_555
N17 C25 1_555 1_555
N18 C25 1_555 1_555
N19 C24 1_555 1_555
N20 C39 1_555 1_555
N21 C36 1_555 1_555
N22 C25 1_555 1_555
N23 C24 1_555 1_555
C23 N28 1_555 1_555
C24 C31 1_555 1_555
N24 C26 1_555 1_555
N25 H29 1_555 1_555
H30 N25 1_555 1_555
N26 C29 1_555 1_555
N27 C27 1_555 1_555
N28 C28 1_555 1_555
N29 C23 1_555 1_555
C26 N22 1_555 1_555
N30 C27 1_555 1_555
C27 N23 1_555 1_555
C28 N17 1_555 1_555
C29 H31 1_555 1_555
H32 C29 1_555 1_555
C30 H33 1_555 1_555
C31 C23 1_555 1_555
H34 C31 1_555 1_555
C32 N23 1_555 1_555
H35 C32 1_555 1_555
H36 C32 1_555 1_555
C33 N19 1_555 1_555
H37 C33 1_555 1_555
C34 N18 1_555 1_555
H38 C34 1_555 1_555
H39 C34 1_555 1_555
C35 N18 1_555 1_555
N31 C35 1_555 1_555
C36 N30 1_555 1_555
C37 N28 1_555 1_555
H40 C37 1_555 1_555
H41 C37 1_555 1_555
N32 C36 1_555 1_555
H42 N32 1_555 1_555
H43 N32 1_555 1_555
C38 N21 1_555 1_555
C39 N26 1_555 1_555
C40 C29 1_555 1_555
H44 C40 1_555 1_555
H45 C40 1_555 1_555
H46 C40 1_555 1_555
C41 C37 1_555 1_555
H47 C41 1_555 1_555
H48 C41 1_555 1_555
H49 C41 1_555 1_555
C42 N20 1_555 1_555
H50 C42 1_555 1_555
C43 C34 1_555 1_555
H51 C43 1_555 1_555
H52 C43 1_555 1_555
H53 C43 1_555 1_555
C44 C32 1_555 1_555
H54 C44 1_555 1_555
H55 C44 1_555 1_555
H56 C44 1_555 1_555
Cl1 C45 1_555 1_555
Cl2 C45 1_555 1_555
C45 H57 1_555 1_555
H58 C45 1_555 1_555
Cl3 C46 1_555 1_555
Cl4 C46 1_555 1_555
C46 H59 1_555 1_555
H60 C46 1_555 1_555
Cl5 C47 1_555 1_555
Cl6 C47 1_555 1_555
C47 H61 1_555 1_555
H62 C47 1_555 1_555
N3 C16 1_555 1_555
N11 C17 1_555 1_555
N12 C19 1_555 1_555
C4 C19 1_555 1_555
N13 C16 1_555 1_555
C12 C17 1_555 1_555
N24 C28 1_555 1_555
N25 C26 1_555 1_555
N26 C38 1_555 1_555
N27 C38 1_555 1_555
N29 C33 1_555 1_555
C30 C35 1_555 1_555
C30 C39 1_555 1_555
N31 C42 1_555 1_555

#END
