
#######################################################################
#
#                 Cambridge Crystallographic Data Centre
#                                CCDC 
#
#######################################################################
#
# If this CIF has been generated from an entry in the Cambridge 
# Structural Database, then it will include bibliographic, chemical, 
# crystal, experimental, refinement or atomic coordinate data resulting 
# from the CCDC's data processing and validation procedures.
#
#######################################################################

data_VUNQOM
_chemical_formula_moiety         'C80 H36 N12 O8,3(C2 H6 O1 S1)'
_chemical_name_systematic        
'7,13,24,30,39,45,64,70-octaoxa-52,57,77,82-tetraazapentadecacyclo[17.15.15.15^2,18^.2^3,6^.2^14,17^.2^20,23^.2^31,34^.2^35,38^.2^46,49^.2^60,63^.2^71,74^.1^8,12^.1^25,29^.1^40,44^.1^65,69^]tetraoctaconta-1,3,5,8(77),9,11,14,16,18,20,22,25(57),26,28,31,33,35,37,40(52),41,43,46,48,50,53,55,58,60,62,65(82),66,68,71,73,75,78,80,83-octatriacontaene-9,11,26,28,41,43,66,68-octacarbonitrile dimethyl sulfoxide unknown solvate'
_symmetry_cell_setting           orthorhombic
_symmetry_space_group_name_H-M   'P n a 21'
_symmetry_Int_Tables_number      33
_space_group_name_Hall           'P 2c -2n'
loop_
_symmetry_equiv_pos_site_id
_symmetry_equiv_pos_as_xyz
1 x,y,z
2 -x,-y,1/2+z
3 1/2+x,1/2-y,z
4 1/2-x,1/2+y,1/2+z
_cell_length_a                   23.404(2)
_cell_length_b                   22.517(2)
_cell_length_c                   19.1441(18)
_cell_angle_alpha                90
_cell_angle_beta                 90
_cell_angle_gamma                90
_cell_volume                     10088.7
_cell_formula_units_Z            4
loop_
_atom_site_label
_atom_site_type_symbol
_atom_site_fract_x
_atom_site_fract_y
_atom_site_fract_z
C1 C 0.61171(18) 0.99825(19) 0.8692(2)
C2 C 0.6694(2) 0.9996(2) 0.8745(2)
C3 C 0.5787(2) 0.94206(19) 0.8583(2)
C4 C 0.5280(2) 0.9321(2) 0.8921(2)
H1 H 0.5143 0.9606 0.9245
C5 C 0.4957(2) 0.8797(2) 0.8796(3)
H2 H 0.4615 0.8722 0.9047
C6 C 0.5152(2) 0.8405(2) 0.8306(3)
C7 C 0.5660(2) 0.8488(2) 0.7970(3)
H3 H 0.5799 0.8196 0.7655
C8 C 0.5971(2) 0.89975(18) 0.8088(3)
H4 H 0.6314 0.9065 0.7834
C9 C 0.4692(2) 0.7697(2) 0.7576(3)
C10 C 0.4465(2) 0.7113(2) 0.7515(3)
C11 C 0.4323(3) 0.6933(2) 0.6868(4)
H5 H 0.4160 0.6551 0.6807
C12 C 0.4404(2) 0.7276(3) 0.6312(3)
C13 C 0.4639(2) 0.7847(2) 0.6412(3)
C14 C 0.4391(3) 0.6781(3) 0.8131(4)
C15 C 0.4312(3) 0.7083(3) 0.5600(4)
C16 C 0.5772(2) 1.05329(19) 0.8685(3)
C17 C 0.5846(2) 1.0988(2) 0.9154(3)
H6 H 0.6095 1.0937 0.9541
C18 C 0.5559(2) 1.1525(2) 0.9064(3)
H7 H 0.5636 1.1848 0.9369
C19 C 0.5173(2) 1.1587(2) 0.8550(3)
C20 C 0.5051(2) 1.1118(2) 0.8112(3)
H8 H 0.4761 1.1155 0.7767
C21 C 0.5348(2) 1.0601(2) 0.8176(3)
H9 H 0.5265 1.0280 0.7870
C22 C 0.4879(2) 1.2471(2) 0.7933(3)
C23 C 0.4640(2) 1.3044(2) 0.7983(3)
C24 C 0.4618(2) 1.3385(2) 0.7392(4)
H10 H 0.4476 1.3780 0.7411
C25 C 0.4808(3) 1.3146(2) 0.6763(4)
C26 C 0.5064(2) 1.2593(2) 0.6784(3)
C27 C 0.4425(2) 1.3253(3) 0.8662(4)
C28 C 0.4784(3) 1.3482(3) 0.6103(5)
C29 C 0.70574(19) 0.9444(2) 0.8776(2)
C30 C 0.7534(2) 0.9383(2) 0.8324(3)
H11 H 0.7644 0.9717 0.8052
C31 C 0.7840(2) 0.8883(2) 0.8256(3)
H12 H 0.8155 0.8862 0.7945
C32 C 0.7678(2) 0.8390(2) 0.8660(3)
C33 C 0.7237(2) 0.8434(2) 0.9140(3)
H13 H 0.7142 0.8105 0.9427
C34 C 0.6928(2) 0.8975(2) 0.9198(2)
H14 H 0.6630 0.9011 0.9533
C35 C 0.8046(2) 0.7554(2) 0.8067(3)
C36 C 0.8275(2) 0.6965(2) 0.8117(3)
C37 C 0.8335(2) 0.6628(2) 0.7511(3)
H15 H 0.8479 0.6234 0.7530
C38 C 0.8181(2) 0.6879(2) 0.6886(3)
C39 C 0.7958(2) 0.7464(2) 0.6862(3)
C40 C 0.8413(3) 0.6741(2) 0.8791(3)
C41 C 0.8250(3) 0.6557(2) 0.6229(3)
C42 C 0.70391(19) 1.05647(19) 0.8695(2)
C43 C 0.6901(2) 1.0988(2) 0.8196(3)
H16 H 0.6576 1.0926 0.7908
C44 C 0.7228(2) 1.1504(2) 0.8105(3)
H17 H 0.7142 1.1786 0.7751
C45 C 0.7684(2) 1.1584(2) 0.8560(3)
C46 C 0.7827(2) 1.1179(2) 0.9051(3)
H18 H 0.8151 1.1239 0.9342
C47 C 0.7489(2) 1.0673(2) 0.9123(3)
H19 H 0.7576 1.0396 0.9482
C48 C 0.8183(2) 1.2336(2) 0.7928(3)
C49 C 0.8420(2) 1.2927(2) 0.7943(3)
C50 C 0.8601(2) 1.3164(2) 0.7338(3)
H20 H 0.8744 1.3558 0.7328
C51 C 0.8579(2) 1.2828(2) 0.6720(2)
C52 C 0.8376(2) 1.2264(2) 0.6774(3)
C53 C 0.8451(3) 1.3260(2) 0.8587(3)
C54 C 0.8737(2) 1.3060(2) 0.6040(3)
C55 C 0.6280(2) 1.01062(19) 0.5948(2)
C56 C 0.6858(2) 0.99772(18) 0.5971(2)
C57 C 0.5855(2) 0.96106(19) 0.5897(2)
C58 C 0.5394(2) 0.9605(2) 0.6343(3)
H21 H 0.5332 0.9932 0.6647
C59 C 0.5024(2) 0.9138(2) 0.6354(3)
H22 H 0.4726 0.9125 0.6691
C60 C 0.5082(2) 0.8678(2) 0.5871(3)
C61 C 0.5522(2) 0.8689(2) 0.5399(3)
H23 H 0.5569 0.8372 0.5076
C62 C 0.5902(2) 0.9168(2) 0.5393(2)
H24 H 0.6191 0.9192 0.5046
C63 C 0.60417(19) 1.07151(19) 0.6007(2)
C64 C 0.5567(2) 1.0882(2) 0.5609(3)
H25 H 0.5418 1.0604 0.5282
C65 C 0.5307(2) 1.1419(2) 0.5665(3)
H26 H 0.4992 1.1522 0.5376
C66 C 0.5515(2) 1.1806(2) 0.6152(3)
C67 C 0.6004(2) 1.1684(2) 0.6554(3)
H27 H 0.6159 1.1971 0.6864
C68 C 0.6248(2) 1.11320(18) 0.6481(2)
H28 H 0.6568 1.1032 0.6762
C69 C 0.7295(2) 1.04668(19) 0.5979(2)
C70 C 0.77273(19) 1.04574(19) 0.6480(3)
H29 H 0.7766 1.0123 0.6779
C71 C 0.8106(2) 1.0936(2) 0.6548(3)
H30 H 0.8412 1.0926 0.6874
C72 C 0.8018(2) 1.1416(2) 0.6128(3)
C73 C 0.7624(2) 1.1435(2) 0.5603(3)
H31 H 0.7603 1.1769 0.5301
C74 C 0.7250(2) 1.0950(2) 0.5517(3)
H32 H 0.6973 1.0949 0.5154
C75 C 0.70997(19) 0.93726(19) 0.6043(2)
C76 C 0.7592(2) 0.9215(2) 0.5690(3)
H33 H 0.7771 0.9495 0.5389
C77 C 0.7830(2) 0.86518(19) 0.5769(3)
H34 H 0.8159 0.8537 0.5511
C78 C 0.7576(2) 0.82705(19) 0.6227(3)
C79 C 0.7101(2) 0.8393(2) 0.6564(3)
H35 H 0.6929 0.8103 0.6856
C80 C 0.6848(2) 0.8960(2) 0.6489(3)
H36 H 0.6511 0.9057 0.6740
N1 N 0.47746(17) 0.80518(18) 0.7037(2)
N2 N 0.4319(4) 0.6493(3) 0.8634(4)
N3 N 0.4219(3) 0.6925(3) 0.5040(4)
N4 N 0.50858(17) 1.22557(17) 0.7353(3)
N5 N 0.4274(2) 1.3430(2) 0.9166(3)
N6 N 0.4786(3) 1.3735(3) 0.5612(4)
N7 N 0.79090(18) 0.77888(17) 0.7462(2)
N8 N 0.8547(2) 0.6551(3) 0.9322(3)
N9 N 0.8326(3) 0.6294(2) 0.5729(3)
N10 N 0.81696(17) 1.20208(15) 0.7358(2)
N11 N 0.8446(3) 1.3490(2) 0.9115(3)
N12 N 0.8857(2) 1.3228(2) 0.5507(3)
O1 O 0.48247(15) 0.78921(13) 0.82286(19)
O2 O 0.48726(15) 1.21495(16) 0.8517(2)
O3 O 0.79715(15) 0.78510(14) 0.86528(19)
O4 O 0.79973(15) 1.21272(14) 0.85283(18)
O5 O 0.47316(16) 0.81818(16) 0.5834(2)
O6 O 0.52626(16) 1.23748(14) 0.6169(2)
O7 O 0.78429(15) 0.76906(14) 0.62593(18)
O8 O 0.83705(15) 1.19363(14) 0.61685(18)
C81 C 0.8071(3) 0.4657(3) 0.6229(3)
H37 H 0.8097 0.4241 0.6082
H38 H 0.7917 0.4897 0.5845
H39 H 0.7819 0.4689 0.6635
C82 C 0.9063(3) 0.4822(2) 0.5597(3)
H40 H 0.9480 0.4801 0.5630
H41 H 0.8953 0.5157 0.5299
H42 H 0.8917 0.4452 0.5394
O9 O 0.90314(16) 0.44591(14) 0.69328(19)
S1 S 0.87647(6) 0.49223(5) 0.64547(8)
C83 C 0.8866(3) 0.4953(2) 0.8568(3)
H43 H 0.9147 0.4957 0.8188
H44 H 0.8970 0.4645 0.8908
H45 H 0.8861 0.5341 0.8799
C84 C 0.7772(3) 0.4890(3) 0.8997(4)
H46 H 0.7825 0.5294 0.9175
H47 H 0.7900 0.4604 0.9349
H48 H 0.7367 0.4824 0.8893
O10 O 0.80332(17) 0.53288(16) 0.7788(2)
S2 S 0.81801(6) 0.47970(6) 0.82238(8)
C85 C 0.6508(3) 0.7290(4) 0.5500(4)
H49 H 0.6604 0.7713 0.5469
H50 H 0.6466 0.7125 0.5029
H51 H 0.6814 0.7079 0.5747
C86 C 0.5856(6) 0.6379(3) 0.5964(7)
H52 H 0.6178 0.6245 0.5677
H53 H 0.5499 0.6226 0.5768
H54 H 0.5903 0.6232 0.6442
S3 S 0.5844(2) 0.72040(19) 0.5973(4)
O11 O 0.5904(4) 0.7392(4) 0.6710(5)
C87? C 0.6506(8) 0.6666(12) 0.5743(14)
H55? H 0.6681 0.6877 0.5350
H56? H 0.6446 0.6249 0.5616
H57? H 0.6760 0.6689 0.6150
C88? C 0.5541(14) 0.6329(12) 0.635(2)
H58? H 0.5127 0.6366 0.6413
H59? H 0.5719 0.6252 0.6809
H60? H 0.5625 0.5999 0.6036
S4? S 0.5822(8) 0.7010(6) 0.5964(17)
O12? O 0.6099(13) 0.7295(15) 0.6839(17)
loop_
_geom_bond_atom_site_label_1
_geom_bond_atom_site_label_2
_geom_bond_site_symmetry_1
_geom_bond_site_symmetry_2
C1 C2 1_555 1_555
C2 C29 1_555 1_555
C3 C1 1_555 1_555
C4 C3 1_555 1_555
H1 C4 1_555 1_555
C5 C4 1_555 1_555
H2 C5 1_555 1_555
C6 C5 1_555 1_555
C7 C6 1_555 1_555
H3 C7 1_555 1_555
C8 C3 1_555 1_555
H4 C8 1_555 1_555
C9 C10 1_555 1_555
C10 C11 1_555 1_555
C11 H5 1_555 1_555
C12 C11 1_555 1_555
C13 C12 1_555 1_555
C14 C10 1_555 1_555
C15 C12 1_555 1_555
C16 C1 1_555 1_555
C17 C16 1_555 1_555
H6 C17 1_555 1_555
C18 C17 1_555 1_555
H7 C18 1_555 1_555
C19 C18 1_555 1_555
C20 C19 1_555 1_555
H8 C20 1_555 1_555
C21 C16 1_555 1_555
H9 C21 1_555 1_555
C22 C23 1_555 1_555
C23 C24 1_555 1_555
C24 H10 1_555 1_555
C25 C24 1_555 1_555
C26 C25 1_555 1_555
C27 C23 1_555 1_555
C28 C25 1_555 1_555
C29 C30 1_555 1_555
C30 H11 1_555 1_555
C31 C30 1_555 1_555
H12 C31 1_555 1_555
C32 C31 1_555 1_555
C33 C32 1_555 1_555
H13 C33 1_555 1_555
C34 C29 1_555 1_555
H14 C34 1_555 1_555
C35 C36 1_555 1_555
C36 C37 1_555 1_555
C37 H15 1_555 1_555
C38 C37 1_555 1_555
C39 C38 1_555 1_555
C40 C36 1_555 1_555
C41 C38 1_555 1_555
C42 C2 1_555 1_555
C43 C42 1_555 1_555
H16 C43 1_555 1_555
C44 C43 1_555 1_555
H17 C44 1_555 1_555
C45 C44 1_555 1_555
C46 C45 1_555 1_555
H18 C46 1_555 1_555
C47 C42 1_555 1_555
H19 C47 1_555 1_555
C48 C49 1_555 1_555
C49 C50 1_555 1_555
C50 H20 1_555 1_555
C51 C50 1_555 1_555
C52 C51 1_555 1_555
C53 C49 1_555 1_555
C54 C51 1_555 1_555
C55 C56 1_555 1_555
C56 C69 1_555 1_555
C57 C55 1_555 1_555
C58 C57 1_555 1_555
H21 C58 1_555 1_555
C59 C58 1_555 1_555
H22 C59 1_555 1_555
C60 C59 1_555 1_555
C61 C60 1_555 1_555
H23 C61 1_555 1_555
C62 C57 1_555 1_555
H24 C62 1_555 1_555
C63 C55 1_555 1_555
C64 C63 1_555 1_555
H25 C64 1_555 1_555
C65 C64 1_555 1_555
H26 C65 1_555 1_555
C66 C65 1_555 1_555
C67 C66 1_555 1_555
H27 C67 1_555 1_555
C68 C63 1_555 1_555
H28 C68 1_555 1_555
C69 C70 1_555 1_555
C70 H29 1_555 1_555
C71 C70 1_555 1_555
H30 C71 1_555 1_555
C72 C71 1_555 1_555
C73 C72 1_555 1_555
H31 C73 1_555 1_555
C74 C69 1_555 1_555
H32 C74 1_555 1_555
C75 C56 1_555 1_555
C76 C75 1_555 1_555
H33 C76 1_555 1_555
C77 C76 1_555 1_555
H34 C77 1_555 1_555
C78 C77 1_555 1_555
C79 C78 1_555 1_555
H35 C79 1_555 1_555
C80 C75 1_555 1_555
H36 C80 1_555 1_555
N1 C9 1_555 1_555
N2 C14 1_555 1_555
N3 C15 1_555 1_555
N4 C22 1_555 1_555
N5 C27 1_555 1_555
N6 C28 1_555 1_555
N7 C35 1_555 1_555
N8 C40 1_555 1_555
N9 C41 1_555 1_555
N10 C48 1_555 1_555
N11 C53 1_555 1_555
N12 C54 1_555 1_555
O1 C6 1_555 1_555
O2 C19 1_555 1_555
O3 C32 1_555 1_555
O4 C45 1_555 1_555
O5 C13 1_555 1_555
O6 C26 1_555 1_555
O7 C39 1_555 1_555
O8 C52 1_555 1_555
C81 H37 1_555 1_555
H38 C81 1_555 1_555
H39 C81 1_555 1_555
C82 H40 1_555 1_555
H41 C82 1_555 1_555
H42 C82 1_555 1_555
O9 S1 1_555 1_555
S1 C81 1_555 1_555
C83 H43 1_555 1_555
H44 C83 1_555 1_555
H45 C83 1_555 1_555
C84 H46 1_555 1_555
H47 C84 1_555 1_555
H48 C84 1_555 1_555
O10 S2 1_555 1_555
S2 C83 1_555 1_555
C85 H49 1_555 1_555
H50 C85 1_555 1_555
H51 C85 1_555 1_555
C86 H52 1_555 1_555
H53 C86 1_555 1_555
H54 C86 1_555 1_555
S3 C85 1_555 1_555
O11 S3 1_555 1_555
C7 C8 1_555 1_555
C9 O1 1_555 1_555
C13 N1 1_555 1_555
C20 C21 1_555 1_555
C22 O2 1_555 1_555
C26 N4 1_555 1_555
C33 C34 1_555 1_555
C35 O3 1_555 1_555
C39 N7 1_555 1_555
C46 C47 1_555 1_555
C48 O4 1_555 1_555
C52 N10 1_555 1_555
C60 O5 1_555 1_555
C61 C62 1_555 1_555
C66 O6 1_555 1_555
C67 C68 1_555 1_555
C72 O8 1_555 1_555
C73 C74 1_555 1_555
C78 O7 1_555 1_555
C79 C80 1_555 1_555
C82 S1 1_555 1_555
C84 S2 1_555 1_555
C86 S3 1_555 1_555

#END
