
#######################################################################
#
#                 Cambridge Crystallographic Data Centre
#                                CCDC 
#
#######################################################################
#
# If this CIF has been generated from an entry in the Cambridge 
# Structural Database, then it will include bibliographic, chemical, 
# crystal, experimental, refinement or atomic coordinate data resulting 
# from the CCDC's data processing and validation procedures.
#
#######################################################################

data_VUNYEK
_chemical_formula_moiety         'C19 H19 Cl1 N4 O4'
_chemical_name_systematic        
't-butyl 2-(1H-benzotriazol-1-yl)-2-(4-chlorophenyl)-3-nitropropanoate'
_symmetry_cell_setting           orthorhombic
_symmetry_space_group_name_H-M   'P 21 21 21'
_symmetry_Int_Tables_number      19
_space_group_name_Hall           'P 2ac 2ab'
loop_
_symmetry_equiv_pos_site_id
_symmetry_equiv_pos_as_xyz
1 x,y,z
2 1/2-x,-y,1/2+z
3 -x,1/2+y,1/2-z
4 1/2+x,1/2-y,-z
_cell_length_a                   11.03590(10)
_cell_length_b                   11.17690(10)
_cell_length_c                   16.26810(10)
_cell_angle_alpha                90
_cell_angle_beta                 90
_cell_angle_gamma                90
_cell_volume                     2006.62
_exptl_crystal_colour            colorless
_exptl_crystal_description       block
_cell_formula_units_Z            4
loop_
_atom_site_label
_atom_site_type_symbol
_atom_site_fract_x
_atom_site_fract_y
_atom_site_fract_z
Cl1 Cl 0.49593(6) 0.30563(4) 0.01161(4)
N1 N 0.50147(11) -0.26133(12) -0.11111(7)
O1 O 0.82047(10) -0.22333(13) -0.07620(8)
N2 N 0.44348(13) -0.36200(13) -0.08530(9)
O2 O 0.70626(10) -0.24566(12) -0.19005(7)
O3 O 0.68597(12) -0.44687(13) -0.04095(9)
C1 C 0.43812(16) 0.07389(16) -0.00917(12)
H1 H 0.3591 0.0966 0.0031
C2 C 0.61128(14) -0.27155(15) 0.02024(10)
H2 H 0.6694 -0.2277 0.0532
H3 H 0.5329 -0.2637 0.0466
C3 C 0.44538(14) -0.21554(17) -0.17971(10)
N3 N 0.64609(14) -0.40051(15) 0.02076(10)
C4 C 0.35028(15) -0.29449(18) -0.19330(11)
C5 C 0.58102(13) -0.07922(15) -0.04680(9)
N4 N 0.35351(14) -0.38297(16) -0.13401(10)
C6 C 0.67263(16) 0.00567(17) -0.04525(12)
H4 H 0.7520 -0.0168 -0.0568
C7 C 0.72554(13) -0.22983(15) -0.11103(10)
C8 C 0.64649(17) 0.12317(19) -0.02674(15)
H5 H 0.7082 0.1798 -0.0259
C9 C 0.60437(13) -0.21297(15) -0.06430(9)
C10 C 0.46459(15) -0.04329(17) -0.02721(12)
H6 H 0.4028 -0.0998 -0.0262
C11 C 0.46506(18) -0.11642(19) -0.22961(12)
H7 H 0.5294 -0.0642 -0.2208
O4 O 0.6356(2) -0.45175(17) 0.08570(11)
C12 C 0.80663(17) -0.2574(2) -0.25133(11)
C13 C 0.52929(16) 0.15681(16) -0.00946(11)
C14 C 0.2685(2) -0.2744(3) -0.25786(15)
H8 H 0.2034 -0.3255 -0.2671
C15 C 0.8859(2) -0.3625(2) -0.22883(16)
H9 H 0.9305 -0.3443 -0.1797
H10 H 0.9414 -0.3785 -0.2729
H11 H 0.8361 -0.4317 -0.2195
C16 C 0.2878(2) -0.1779(3) -0.30618(15)
H12 H 0.2354 -0.1630 -0.3497
C17 C 0.7358(3) -0.2826(3) -0.32903(13)
H13 H 0.6938 -0.3575 -0.3235
H14 H 0.7904 -0.2868 -0.3749
H15 H 0.6781 -0.2197 -0.3380
C18 C 0.8756(3) -0.1412(3) -0.25464(19)
H16 H 0.9183 -0.1297 -0.2039
H17 H 0.8199 -0.0763 -0.2629
H18 H 0.9324 -0.1436 -0.2993
C19 C 0.3846(2) -0.1001(3) -0.29228(14)
H19 H 0.3947 -0.0348 -0.3270
loop_
_geom_bond_atom_site_label_1
_geom_bond_atom_site_label_2
_geom_bond_site_symmetry_1
_geom_bond_site_symmetry_2
Cl1 C13 1_555 1_555
N1 N2 1_555 1_555
O1 C7 1_555 1_555
N2 N4 1_555 1_555
O2 C7 1_555 1_555
O3 N3 1_555 1_555
C1 H1 1_555 1_555
C2 H2 1_555 1_555
H3 C2 1_555 1_555
C3 N1 1_555 1_555
N3 C2 1_555 1_555
C4 C3 1_555 1_555
C5 C6 1_555 1_555
N4 C4 1_555 1_555
C6 H4 1_555 1_555
C7 C9 1_555 1_555
C8 C6 1_555 1_555
H5 C8 1_555 1_555
C9 N1 1_555 1_555
C10 C1 1_555 1_555
H6 C10 1_555 1_555
C11 C3 1_555 1_555
H7 C11 1_555 1_555
O4 N3 1_555 1_555
C12 O2 1_555 1_555
C13 C1 1_555 1_555
C14 C4 1_555 1_555
H8 C14 1_555 1_555
C15 C12 1_555 1_555
H9 C15 1_555 1_555
H10 C15 1_555 1_555
H11 C15 1_555 1_555
C16 C14 1_555 1_555
H12 C16 1_555 1_555
C17 C12 1_555 1_555
H13 C17 1_555 1_555
H14 C17 1_555 1_555
H15 C17 1_555 1_555
C18 C12 1_555 1_555
H16 C18 1_555 1_555
H17 C18 1_555 1_555
H18 C18 1_555 1_555
C19 C11 1_555 1_555
H19 C19 1_555 1_555
C2 C9 1_555 1_555
C5 C9 1_555 1_555
C5 C10 1_555 1_555
C8 C13 1_555 1_555
C16 C19 1_555 1_555

#END
