
#######################################################################
#
#                 Cambridge Crystallographic Data Centre
#                                CCDC 
#
#######################################################################
#
# If this CIF has been generated from an entry in the Cambridge 
# Structural Database, then it will include bibliographic, chemical, 
# crystal, experimental, refinement or atomic coordinate data resulting 
# from the CCDC's data processing and validation procedures.
#
#######################################################################

data_VUPYOU
_chemical_formula_moiety         'C9 H10 N1 O1 P1 S2 Se1'
_chemical_name_systematic        
2-Methylthio-4,5-dihydro-4-phenoxy-4-thioxo-1,3,4-selenazaphosphole
_symmetry_cell_setting           orthorhombic
_symmetry_space_group_name_H-M   'P b c a'
_symmetry_Int_Tables_number      61
_space_group_name_Hall           '-P 2ac 2ab'
loop_
_symmetry_equiv_pos_site_id
_symmetry_equiv_pos_as_xyz
1 x,y,z
2 1/2-x,1/2+y,z
3 x,1/2-y,1/2+z
4 1/2-x,-y,1/2+z
5 -x,-y,-z
6 1/2+x,1/2-y,-z
7 -x,1/2+y,1/2-z
8 1/2+x,y,1/2-z
_cell_length_a                   7.381(4)
_cell_length_b                   12.771(3)
_cell_length_c                   26.419(7)
_cell_angle_alpha                90
_cell_angle_beta                 90
_cell_angle_gamma                90
_cell_volume                     2490.33
_chemical_melting_point          92-93deg.C
_cell_formula_units_Z            8
loop_
_atom_site_label
_atom_site_type_symbol
_atom_site_fract_x
_atom_site_fract_y
_atom_site_fract_z
Se1 Se 0.8268(2) 0.21239(7) 0.19036(5)
S1 S 0.6620(4) -0.0511(2) 0.0886(1)
S2 S 0.8341(4) 0.0700(2) 0.28247(8)
P1 P 0.8492(3) 0.0192(2) 0.12563(9)
O1 O 1.0521(8) -0.0047(4) 0.1074(2)
N1 N 0.852(1) -0.0057(4) 0.1867(3)
C1 C 0.841(1) 0.0717(6) 0.2177(4)
C2 C 0.851(2) 0.1614(6) 0.1235(4)
C3 C 0.853(2) -0.0686(8) 0.2937(4)
C4 C 1.111(1) -0.0976(6) 0.0837(3)
C5 C 1.086(1) -0.1935(6) 0.1075(4)
C6 C 1.161(2) -0.2794(6) 0.0825(4)
C7 C 1.246(2) -0.2712(7) 0.0394(4)
C8 C 1.272(1) -0.1772(7) 0.0159(4)
C9 C 1.197(1) -0.0884(7) 0.0402(4)
loop_
_geom_bond_atom_site_label_1
_geom_bond_atom_site_label_2
_geom_bond_site_symmetry_1
_geom_bond_site_symmetry_2
Se1 C1 1_555 1_555
S1 P1 1_555 1_555
S2 C1 1_555 1_555
P1 O1 1_555 1_555
O1 C4 1_555 1_555
N1 P1 1_555 1_555
C1 N1 1_555 1_555
C2 Se1 1_555 1_555
C3 S2 1_555 1_555
C4 C5 1_555 1_555
C5 C6 1_555 1_555
C6 C7 1_555 1_555
C7 C8 1_555 1_555
C8 C9 1_555 1_555
C9 C4 1_555 1_555
P1 C2 1_555 1_555

#END
