
#######################################################################
#
#                 Cambridge Crystallographic Data Centre
#                                CCDC 
#
#######################################################################
#
# If this CIF has been generated from an entry in the Cambridge 
# Structural Database, then it will include bibliographic, chemical, 
# crystal, experimental, refinement or atomic coordinate data resulting 
# from the CCDC's data processing and validation procedures.
#
#######################################################################

data_VUQDER
_chemical_formula_moiety         'C15 H12 Br1 Cl1 N2 O3,2(C1 H4 O1)'
_chemical_name_systematic        
"N'-(3-Bromo-5-chloro-2-hydroxybenzylidene)-3-methoxybenzohydrazide methanol solvate"
_symmetry_cell_setting           monoclinic
_symmetry_space_group_name_H-M   'P 21/n'
_symmetry_Int_Tables_number      14
_space_group_name_Hall           '-P 2yn'
loop_
_symmetry_equiv_pos_site_id
_symmetry_equiv_pos_as_xyz
1 x,y,z
2 1/2-x,1/2+y,1/2-z
3 -x,-y,-z
4 1/2+x,1/2-y,1/2+z
_cell_length_a                   7.562(1)
_cell_length_b                   18.587(3)
_cell_length_c                   14.172(2)
_cell_angle_alpha                90
_cell_angle_beta                 93.23(2)
_cell_angle_gamma                90
_cell_volume                     1988.78
_exptl_crystal_colour            colorless
_exptl_crystal_description       block
_cell_formula_units_Z            4
loop_
_atom_site_label
_atom_site_type_symbol
_atom_site_fract_x
_atom_site_fract_y
_atom_site_fract_z
Br1 Br -0.08361(7) 0.29897(3) -0.33636(4)
Cl1 Cl -0.11164(16) 0.59147(6) -0.41643(8)
O1 O 0.0937(4) 0.35466(16) -0.1559(2)
O2 O 0.3027(4) 0.36369(15) 0.1073(2)
O3 O 0.6395(4) 0.38361(19) 0.4276(2)
N1 N 0.2108(4) 0.45332(18) -0.0350(2)
N2 N 0.2969(5) 0.47715(18) 0.0485(2)
C1 C 0.0791(5) 0.4823(2) -0.1876(3)
C2 C 0.0467(5) 0.4105(2) -0.2141(3)
C3 C -0.0359(5) 0.3957(2) -0.3020(3)
C4 C -0.0849(5) 0.4503(2) -0.3641(3)
H3 H -0.1403 0.4397 -0.4227
C5 C -0.0508(5) 0.5210(2) -0.3383(3)
C6 C 0.0306(5) 0.5371(2) -0.2506(3)
H4 H 0.0528 0.5847 -0.2340
C7 C 0.1693(6) 0.5014(2) -0.0972(3)
H5 H 0.1972 0.5493 -0.0846
C8 C 0.3387(5) 0.4275(2) 0.1172(3)
C9 C 0.4312(5) 0.4564(2) 0.2061(3)
C10 C 0.4948(5) 0.4060(2) 0.2719(3)
H6 H 0.4841 0.3572 0.2587
C11 C 0.5742(5) 0.4286(2) 0.3574(3)
C12 C 0.5909(6) 0.5016(3) 0.3765(3)
H7 H 0.6446 0.5168 0.4337
C13 C 0.5291(6) 0.5510(3) 0.3118(3)
H8 H 0.5407 0.5998 0.3255
C14 C 0.4487(6) 0.5295(2) 0.2255(3)
H9 H 0.4073 0.5635 0.1815
C15 C 0.6352(8) 0.3087(3) 0.4084(4)
H10 H 0.5153 0.2941 0.3927
H11 H 0.6802 0.2829 0.4633
H12 H 0.7070 0.2985 0.3563
H19 H 0.137(6) 0.373(2) -0.1050(18)
H20 H 0.330(6) 0.5235(9) 0.052(3)
O4 O 0.9588(5) 0.31886(19) 0.0750(3)
H1 H 1.0642 0.3291 0.0813
C16 C 0.9207(8) 0.2632(4) 0.1379(5)
H13 H 0.9743 0.2194 0.1181
H14 H 0.7947 0.2569 0.1384
H15 H 0.9669 0.2755 0.2004
O5 O 0.1869(5) 0.13445(16) 0.4550(3)
H2 H 0.2741 0.1486 0.4866
C17 C 0.0889(8) 0.1935(3) 0.4207(4)
H16 H 0.0535 0.2221 0.4728
H17 H -0.0144 0.1769 0.3846
H18 H 0.1603 0.2220 0.3811
loop_
_geom_bond_atom_site_label_1
_geom_bond_atom_site_label_2
_geom_bond_site_symmetry_1
_geom_bond_site_symmetry_2
Br1 C3 1_555 1_555
Cl1 C5 1_555 1_555
O1 C2 1_555 1_555
O2 C8 1_555 1_555
O3 C11 1_555 1_555
O4 H1 1_555 1_555
O5 H2 1_555 1_555
N1 N2 1_555 1_555
N2 C8 1_555 1_555
C1 C2 1_555 1_555
C2 C3 1_555 1_555
C3 C4 1_555 1_555
C4 H3 1_555 1_555
C5 C4 1_555 1_555
C6 C1 1_555 1_555
H4 C6 1_555 1_555
C7 N1 1_555 1_555
H5 C7 1_555 1_555
C8 C9 1_555 1_555
C9 C10 1_555 1_555
C10 H6 1_555 1_555
C11 C10 1_555 1_555
C12 C11 1_555 1_555
H7 C12 1_555 1_555
C13 C12 1_555 1_555
H8 C13 1_555 1_555
C14 C9 1_555 1_555
H9 C14 1_555 1_555
C15 O3 1_555 1_555
H10 C15 1_555 1_555
H11 C15 1_555 1_555
H12 C15 1_555 1_555
C16 O4 1_555 1_555
H13 C16 1_555 1_555
H14 C16 1_555 1_555
H15 C16 1_555 1_555
C17 O5 1_555 1_555
H16 C17 1_555 1_555
H17 C17 1_555 1_555
H18 C17 1_555 1_555
H19 O1 1_555 1_555
H20 N2 1_555 1_555
C1 C7 1_555 1_555
C5 C6 1_555 1_555
C13 C14 1_555 1_555

#END
