
#######################################################################
#
#                 Cambridge Crystallographic Data Centre
#                                CCDC 
#
#######################################################################
#
# If this CIF has been generated from an entry in the Cambridge 
# Structural Database, then it will include bibliographic, chemical, 
# crystal, experimental, refinement or atomic coordinate data resulting 
# from the CCDC's data processing and validation procedures.
#
#######################################################################

data_VUQHAR
_chemical_formula_moiety         'C7 H2 F3 N2 S2'
_chemical_name_systematic        
'4-(2,4,6-Trifluorophenyl)-1,2,3,5-dithiadiazolyl radical'
_symmetry_cell_setting           monoclinic
_symmetry_space_group_name_H-M   'P 21/c'
_symmetry_Int_Tables_number      14
_space_group_name_Hall           '-P 2ybc'
loop_
_symmetry_equiv_pos_site_id
_symmetry_equiv_pos_as_xyz
1 x,y,z
2 -x,1/2+y,1/2-z
3 -x,-y,-z
4 x,1/2-y,1/2+z
_cell_length_a                   7.1195(1)
_cell_length_b                   27.2091(3)
_cell_length_c                   25.1504(4)
_cell_angle_alpha                90
_cell_angle_beta                 92.614(1)
_cell_angle_gamma                90
_cell_volume                     4866.94
_exptl_crystal_colour            brown
_exptl_crystal_description       needle
_cell_formula_units_Z            24
loop_
_atom_site_label
_atom_site_type_symbol
_atom_site_fract_x
_atom_site_fract_y
_atom_site_fract_z
S1 S 0.46835(12) 0.43173(3) 0.58112(3)
S2 S 0.51447(12) 0.35781(3) 0.60036(3)
N1 N 0.4475(4) 0.44906(10) 0.64303(10)
N2 N 0.5056(4) 0.36647(10) 0.66430(10)
C1 C 0.4694(4) 0.41279(11) 0.67842(11)
C2 C 0.4554(4) 0.42417(11) 0.73597(11)
C3 C 0.5007(4) 0.46983(11) 0.75784(12)
F1 F 0.5664(2) 0.50513(7) 0.72618(7)
C4 C 0.4879(4) 0.48199(11) 0.81094(11)
H1 H 0.5221 0.5136 0.8242
C5 C 0.4232(4) 0.44590(12) 0.84339(12)
F2 F 0.4079(3) 0.45610(7) 0.89554(7)
C6 C 0.3742(4) 0.39957(12) 0.82564(12)
H2 H 0.3302 0.3753 0.8492
C7 C 0.3915(4) 0.38997(11) 0.77251(12)
F3 F 0.3416(3) 0.34462(7) 0.75588(7)
S3 S 0.02257(12) 0.41635(4) 0.56894(3)
S4 S 0.07562(12) 0.34356(3) 0.59297(3)
N3 N -0.0188(4) 0.43526(11) 0.62861(10)
N4 N 0.0452(3) 0.35448(10) 0.65552(10)
C8 C -0.0004(4) 0.40105(12) 0.66629(12)
C9 C -0.0319(4) 0.41501(11) 0.72226(11)
C10 C 0.0087(4) 0.46148(11) 0.74276(12)
F4 F 0.0847(2) 0.49538(6) 0.71117(7)
C11 C -0.0179(4) 0.47564(12) 0.79480(12)
H3 H 0.0108 0.5079 0.8071
C12 C -0.0878(4) 0.44046(13) 0.82736(12)
F5 F -0.1184(3) 0.45269(8) 0.87830(7)
C13 C -0.1301(4) 0.39323(12) 0.81131(12)
H4 H -0.1773 0.3697 0.8352
C14 C -0.1010(4) 0.38178(12) 0.75917(12)
F6 F -0.1449(3) 0.33579(7) 0.74356(7)
S5 S -0.09482(11) 0.02674(3) 0.55102(3)
S6 S -0.15488(11) 0.08310(3) 0.49651(3)
N5 N -0.1084(3) 0.06187(10) 0.60349(10)
N6 N -0.1844(3) 0.12445(10) 0.54194(10)
C15 C -0.1565(4) 0.10831(11) 0.59212(11)
C16 C -0.1826(4) 0.14335(11) 0.63634(11)
C17 C -0.2400(4) 0.12865(11) 0.68640(12)
F7 F -0.2725(3) 0.08065(7) 0.69507(7)
C18 C -0.2713(4) 0.15994(12) 0.72787(12)
H5 H -0.3108 0.1483 0.7612
C19 C -0.2422(4) 0.20933(12) 0.71858(12)
F8 F -0.2749(3) 0.24138(7) 0.75794(7)
C20 C -0.1834(4) 0.22763(12) 0.67131(12)
H6 H -0.1634 0.2618 0.6663
C21 C -0.1546(4) 0.19410(12) 0.63147(12)
F9 F -0.0913(2) 0.21215(7) 0.58563(7)
S7 S 0.35576(11) 0.04267(3) 0.54199(3)
S8 S 0.27845(11) 0.10164(3) 0.49261(3)
N7 N 0.3643(3) 0.07528(10) 0.59646(10)
N8 N 0.2706(4) 0.14106(10) 0.54117(10)
C22 C 0.3163(4) 0.12248(11) 0.58932(12)
C23 C 0.3073(4) 0.15506(11) 0.63631(11)
C24 C 0.2606(4) 0.13772(11) 0.68633(12)
F10 F 0.2283(3) 0.08919(6) 0.69277(7)
C25 C 0.2385(4) 0.16717(11) 0.73012(12)
H7 H 0.2065 0.1539 0.7635
C26 C 0.2650(4) 0.21660(12) 0.72315(12)
F11 F 0.2377(3) 0.24687(7) 0.76448(7)
C27 C 0.3171(4) 0.23708(11) 0.67618(12)
H8 H 0.3378 0.2714 0.6730
C28 C 0.3379(4) 0.20570(12) 0.63389(12)
F12 F 0.3924(3) 0.22550(7) 0.58807(7)
S9 S 0.67282(12) 0.44286(3) 0.37672(3)
S10 S 0.64747(11) 0.44674(3) 0.45946(3)
N9 N 0.6672(4) 0.38352(10) 0.37524(10)
N10 N 0.6228(3) 0.38722(9) 0.46701(10)
C29 C 0.6374(4) 0.36192(11) 0.42199(12)
C30 C 0.6222(4) 0.30751(11) 0.42212(11)
C31 C 0.5527(4) 0.28121(11) 0.37762(11)
F13 F 0.4896(2) 0.30601(6) 0.33424(7)
C32 C 0.5416(4) 0.23085(11) 0.37534(12)
H9 H 0.4952 0.2143 0.3442
C33 C 0.6013(4) 0.20564(11) 0.42049(12)
F14 F 0.5939(3) 0.15580(7) 0.41917(7)
C34 C 0.6672(4) 0.22814(11) 0.46658(12)
H10 H 0.7039 0.2097 0.4974
C35 C 0.6773(4) 0.27844(11) 0.46585(11)
F15 F 0.7494(2) 0.30067(7) 0.51015(7)
S11 S 0.23893(11) 0.45145(3) 0.36320(3)
S12 S 0.19794(12) 0.45880(3) 0.44444(3)
N11 N 0.2060(3) 0.39221(9) 0.36256(10)
N12 N 0.1572(3) 0.40048(9) 0.45382(10)
C36 C 0.1661(4) 0.37327(11) 0.40980(12)
C37 C 0.1318(4) 0.31955(11) 0.41247(11)
C38 C 0.0474(4) 0.29319(11) 0.37028(11)
F16 F -0.0158(2) 0.31796(6) 0.32684(6)
C39 C 0.0232(4) 0.24313(11) 0.36998(12)
H11 H -0.0300 0.2264 0.3398
C40 C 0.0802(4) 0.21844(11) 0.41583(12)
F17 F 0.0533(3) 0.16915(7) 0.41661(8)
C41 C 0.1605(4) 0.24096(12) 0.46018(12)
H12 H 0.1967 0.2230 0.4914
C42 C 0.1853(4) 0.29097(11) 0.45671(11)
F18 F 0.2728(2) 0.31313(7) 0.49910(6)
loop_
_geom_bond_atom_site_label_1
_geom_bond_atom_site_label_2
_geom_bond_site_symmetry_1
_geom_bond_site_symmetry_2
S1 S2 1_555 1_555
S2 N2 1_555 1_555
N1 S1 1_555 1_555
N2 C1 1_555 1_555
C1 N1 1_555 1_555
C2 C1 1_555 1_555
C3 C2 1_555 1_555
F1 C3 1_555 1_555
C4 C3 1_555 1_555
H1 C4 1_555 1_555
C5 C4 1_555 1_555
F2 C5 1_555 1_555
C6 C5 1_555 1_555
H2 C6 1_555 1_555
C7 C2 1_555 1_555
F3 C7 1_555 1_555
S3 S4 1_555 1_555
S4 N4 1_555 1_555
N3 S3 1_555 1_555
N4 C8 1_555 1_555
C8 N3 1_555 1_555
C9 C8 1_555 1_555
C10 C9 1_555 1_555
F4 C10 1_555 1_555
C11 C10 1_555 1_555
H3 C11 1_555 1_555
C12 C11 1_555 1_555
F5 C12 1_555 1_555
C13 C12 1_555 1_555
H4 C13 1_555 1_555
C14 C9 1_555 1_555
F6 C14 1_555 1_555
S5 S6 1_555 1_555
S6 N6 1_555 1_555
N5 S5 1_555 1_555
N6 C15 1_555 1_555
C15 N5 1_555 1_555
C16 C15 1_555 1_555
C17 C16 1_555 1_555
F7 C17 1_555 1_555
C18 C17 1_555 1_555
H5 C18 1_555 1_555
C19 C18 1_555 1_555
F8 C19 1_555 1_555
C20 C19 1_555 1_555
H6 C20 1_555 1_555
C21 C16 1_555 1_555
F9 C21 1_555 1_555
S7 S8 1_555 1_555
S8 N8 1_555 1_555
N7 S7 1_555 1_555
N8 C22 1_555 1_555
C22 N7 1_555 1_555
C23 C22 1_555 1_555
C24 C23 1_555 1_555
F10 C24 1_555 1_555
C25 C24 1_555 1_555
H7 C25 1_555 1_555
C26 C25 1_555 1_555
F11 C26 1_555 1_555
C27 C26 1_555 1_555
H8 C27 1_555 1_555
C28 C23 1_555 1_555
F12 C28 1_555 1_555
S9 S10 1_555 1_555
S10 N10 1_555 1_555
N9 S9 1_555 1_555
N10 C29 1_555 1_555
C29 N9 1_555 1_555
C30 C29 1_555 1_555
C31 C30 1_555 1_555
F13 C31 1_555 1_555
C32 C31 1_555 1_555
H9 C32 1_555 1_555
C33 C32 1_555 1_555
F14 C33 1_555 1_555
C34 C33 1_555 1_555
H10 C34 1_555 1_555
C35 C30 1_555 1_555
F15 C35 1_555 1_555
S11 S12 1_555 1_555
S12 N12 1_555 1_555
N11 S11 1_555 1_555
N12 C36 1_555 1_555
C36 N11 1_555 1_555
C37 C36 1_555 1_555
C38 C37 1_555 1_555
F16 C38 1_555 1_555
C39 C38 1_555 1_555
H11 C39 1_555 1_555
C40 C39 1_555 1_555
F17 C40 1_555 1_555
C41 C40 1_555 1_555
H12 C41 1_555 1_555
C42 C37 1_555 1_555
F18 C42 1_555 1_555
C6 C7 1_555 1_555
C13 C14 1_555 1_555
C20 C21 1_555 1_555
C27 C28 1_555 1_555
C34 C35 1_555 1_555
C41 C42 1_555 1_555

#END
