
#######################################################################
#
#                 Cambridge Crystallographic Data Centre
#                                CCDC 
#
#######################################################################
#
# If this CIF has been generated from an entry in the Cambridge 
# Structural Database, then it will include bibliographic, chemical, 
# crystal, experimental, refinement or atomic coordinate data resulting 
# from the CCDC's data processing and validation procedures.
#
#######################################################################

data_VUQTEH
_chemical_formula_moiety         'C30 H28 N2 O4'
_chemical_name_systematic        N-(2-Naphthylacetyl)phenylalanylphenylalanine
_symmetry_cell_setting           orthorhombic
_symmetry_space_group_name_H-M   'P 21 21 21'
_symmetry_Int_Tables_number      19
_space_group_name_Hall           'P 2ac 2ab'
loop_
_symmetry_equiv_pos_site_id
_symmetry_equiv_pos_as_xyz
1 x,y,z
2 1/2-x,-y,1/2+z
3 -x,1/2+y,1/2-z
4 1/2+x,1/2-y,-z
_cell_length_a                   8.5295(6)
_cell_length_b                   10.4269(7)
_cell_length_c                   29.0633(19)
_cell_angle_alpha                90
_cell_angle_beta                 90
_cell_angle_gamma                90
_cell_volume                     2584.78
_exptl_crystal_colour            colorless
_exptl_crystal_description       plate
_cell_formula_units_Z            4
loop_
_atom_site_label
_atom_site_type_symbol
_atom_site_fract_x
_atom_site_fract_y
_atom_site_fract_z
O1 O 0.81381(12) 0.72462(10) 0.48946(4)
O2 O 0.58323(12) 0.37080(10) 0.52439(4)
O3 O 0.29769(13) 0.22312(10) 0.57433(4)
O4 O 0.21618(13) 0.32696(10) 0.51101(4)
H1 H 0.1830 0.2536 0.5028
N1 N 0.74589(14) 0.52986(12) 0.46287(4)
H2 H 0.7801 0.4543 0.4518
N2 N 0.40659(14) 0.52590(12) 0.53551(4)
H3 H 0.3758 0.6066 0.5292
C1 C 0.85033(17) 0.62107(14) 0.47188(5)
C2 C 1.01748(17) 0.59040(16) 0.45811(5)
H4 H 1.0902 0.6464 0.4755
H5 H 1.0413 0.5003 0.4663
C3 C 1.04367(17) 0.60943(16) 0.40711(5)
C4 C 1.0484(2) 0.72980(18) 0.38882(6)
H6 H 1.0336 0.8016 0.4085
C5 C 1.0745(2) 0.7507(2) 0.34140(7)
C6 C 1.0990(2) 0.6440(2) 0.31247(6)
C7 C 1.0927(2) 0.5207(2) 0.33210(6)
H7 H 1.1083 0.4479 0.3130
C8 C 1.0647(2) 0.50347(17) 0.37787(6)
H8 H 1.0594 0.4191 0.3901
C9 C 1.0821(3) 0.8748(2) 0.32225(8)
H9 H 1.0659 0.9477 0.3413
C10 C 1.1126(3) 0.8908(3) 0.27668(9)
H10 H 1.1168 0.9751 0.2643
C11 C 1.1375(3) 0.7867(3) 0.24802(8)
H11 H 1.1593 0.7997 0.2163
C12 C 1.1309(3) 0.6663(3) 0.26535(7)
H12 H 1.1479 0.5954 0.2455
C13 C 0.52609(17) 0.47478(14) 0.51268(5)
C14 C 0.57940(17) 0.54664(15) 0.47026(5)
H13 H 0.5570 0.6400 0.4745
C15 C 0.48550(19) 0.49714(16) 0.42846(5)
H14 H 0.5098 0.4053 0.4235
H15 H 0.3720 0.5045 0.4350
C16 C 0.52313(19) 0.57084(17) 0.38562(6)
C17 C 0.4550(2) 0.68884(18) 0.37760(6)
H16 H 0.3824 0.7218 0.3994
C18 C 0.4892(3) 0.7601(2) 0.33902(7)
H17 H 0.4366 0.8391 0.3338
C19 C 0.5976(3) 0.7179(3) 0.30857(7)
H18 H 0.6233 0.7678 0.2823
C20 C 0.6696(3) 0.6029(3) 0.31610(8)
H19 H 0.7470 0.5737 0.2950
C21 C 0.6320(3) 0.5283(3) 0.35385(7)
H20 H 0.6813 0.4474 0.3580
C22 C 0.28035(17) 0.32046(16) 0.55215(5)
C23 C 0.32490(18) 0.45198(14) 0.57058(5)
H21 H 0.3948 0.4414 0.5979
C24 C 0.17679(19) 0.52663(16) 0.58492(5)
H22 H 0.2084 0.6040 0.6023
H23 H 0.1206 0.5552 0.5569
C25 C 0.06680(19) 0.44756(15) 0.61420(6)
C26 C -0.0749(2) 0.40564(18) 0.59663(6)
H24 H -0.1032 0.4270 0.5660
C27 C -0.1762(2) 0.3328(2) 0.62333(8)
H25 H -0.2730 0.3039 0.6109
C28 C -0.1356(3) 0.3028(2) 0.66770(8)
H26 H -0.2047 0.2529 0.6861
C29 C 0.0044(3) 0.3445(2) 0.68581(7)
H27 H 0.0317 0.3240 0.7166
C30 C 0.1050(2) 0.4162(2) 0.65895(6)
H28 H 0.2019 0.4445 0.6715
loop_
_geom_bond_atom_site_label_1
_geom_bond_atom_site_label_2
_geom_bond_site_symmetry_1
_geom_bond_site_symmetry_2
O1 C1 1_555 1_555
O2 C13 1_555 1_555
O3 C22 1_555 1_555
O4 H1 1_555 1_555
N1 H2 1_555 1_555
N2 H3 1_555 1_555
C1 N1 1_555 1_555
C2 C1 1_555 1_555
H4 C2 1_555 1_555
H5 C2 1_555 1_555
C3 C2 1_555 1_555
C4 C3 1_555 1_555
H6 C4 1_555 1_555
C5 C4 1_555 1_555
C6 C5 1_555 1_555
C7 C6 1_555 1_555
H7 C7 1_555 1_555
C8 C3 1_555 1_555
H8 C8 1_555 1_555
C9 C5 1_555 1_555
H9 C9 1_555 1_555
C10 C9 1_555 1_555
H10 C10 1_555 1_555
C11 C10 1_555 1_555
H11 C11 1_555 1_555
C12 C6 1_555 1_555
H12 C12 1_555 1_555
C13 N2 1_555 1_555
C14 N1 1_555 1_555
H13 C14 1_555 1_555
C15 C14 1_555 1_555
H14 C15 1_555 1_555
H15 C15 1_555 1_555
C16 C15 1_555 1_555
C17 C16 1_555 1_555
H16 C17 1_555 1_555
C18 C17 1_555 1_555
H17 C18 1_555 1_555
C19 C18 1_555 1_555
H18 C19 1_555 1_555
C20 C19 1_555 1_555
H19 C20 1_555 1_555
C21 C16 1_555 1_555
H20 C21 1_555 1_555
C22 O4 1_555 1_555
C23 N2 1_555 1_555
H21 C23 1_555 1_555
C24 C23 1_555 1_555
H22 C24 1_555 1_555
H23 C24 1_555 1_555
C25 C24 1_555 1_555
C26 C25 1_555 1_555
H24 C26 1_555 1_555
C27 C26 1_555 1_555
H25 C27 1_555 1_555
C28 C27 1_555 1_555
H26 C28 1_555 1_555
C29 C28 1_555 1_555
H27 C29 1_555 1_555
C30 C25 1_555 1_555
H28 C30 1_555 1_555
C7 C8 1_555 1_555
C11 C12 1_555 1_555
C13 C14 1_555 1_555
C20 C21 1_555 1_555
C22 C23 1_555 1_555
C29 C30 1_555 1_555

#END
