
#######################################################################
#
#                 Cambridge Crystallographic Data Centre
#                                CCDC 
#
#######################################################################
#
# If this CIF has been generated from an entry in the Cambridge 
# Structural Database, then it will include bibliographic, chemical, 
# crystal, experimental, refinement or atomic coordinate data resulting 
# from the CCDC's data processing and validation procedures.
#
#######################################################################

data_VUQVUZ
_chemical_formula_moiety         'C8 H7 N1 O4,C10 H8 N2'
_chemical_name_systematic        "5-Aminoisophthalic acid 4,4'-bipyridine"
_symmetry_cell_setting           orthorhombic
_symmetry_space_group_name_H-M   'P b c a'
_symmetry_Int_Tables_number      61
_space_group_name_Hall           '-P 2ac 2ab'
loop_
_symmetry_equiv_pos_site_id
_symmetry_equiv_pos_as_xyz
1 x,y,z
2 1/2-x,-y,1/2+z
3 1/2+x,1/2-y,-z
4 -x,1/2+y,1/2-z
5 -x,-y,-z
6 1/2+x,y,1/2-z
7 1/2-x,1/2+y,z
8 x,1/2-y,1/2+z
_cell_length_a                   7.128(2)
_cell_length_b                   13.962(5)
_cell_length_c                   31.223(11)
_cell_angle_alpha                90
_cell_angle_beta                 90
_cell_angle_gamma                90
_cell_volume                     3107.35
_exptl_crystal_colour            yellow
_exptl_crystal_description       block
_cell_formula_units_Z            8
loop_
_atom_site_label
_atom_site_type_symbol
_atom_site_fract_x
_atom_site_fract_y
_atom_site_fract_z
O1 O 0.2570(3) 0.21185(12) 0.17613(5)
O2 O 0.1806(3) 0.34073(12) 0.21294(5)
O3 O 0.0761(3) 0.32877(12) -0.01399(5)
O4 O 0.1016(3) 0.19670(11) 0.02452(5)
N1 N 0.0937(3) 0.59256(13) 0.09764(6)
H1 H 0.0723 0.6218 0.0739
H2 H 0.1042 0.6247 0.1210
C1 C 0.1111(3) 0.49479(15) 0.09822(6)
C2 C 0.1429(3) 0.44563(15) 0.13636(6)
H3 H 0.1557 0.4799 0.1617
C3 C 0.1559(3) 0.34717(15) 0.13727(6)
C4 C 0.1347(3) 0.29482(15) 0.09986(6)
H4 H 0.1397 0.2283 0.1005
C5 C 0.1058(3) 0.34271(14) 0.06145(6)
C6 C 0.0947(3) 0.44134(15) 0.06080(6)
H5 H 0.0759 0.4727 0.0349
C7 C 0.1971(3) 0.30032(16) 0.17907(7)
C8 C 0.0918(3) 0.28994(16) 0.02024(6)
H14 H 0.280(4) 0.189(2) 0.2027(9)
H15 H 0.102(4) 0.1636(19) -0.0035(9)
N2 N 0.8251(3) 0.13497(14) 0.24837(6)
N3 N 0.8845(3) -0.10148(13) 0.04849(6)
C9 C 0.7665(4) 0.17728(17) 0.21268(7)
H6 H 0.7181 0.2390 0.2144
C10 C 0.7744(4) 0.13330(17) 0.17307(7)
H7 H 0.7305 0.1653 0.1490
C11 C 0.8472(3) 0.04207(16) 0.16911(7)
C12 C 0.9117(3) -0.00060(17) 0.20631(7)
H8 H 0.9639 -0.0616 0.2054
C13 C 0.8986(4) 0.04748(18) 0.24456(7)
H9 H 0.9432 0.0175 0.2691
C14 C 0.8586(3) -0.00770(16) 0.12718(6)
C15 C 0.8663(3) 0.04310(16) 0.08898(7)
H10 H 0.8642 0.1097 0.0891
C16 C 0.8774(3) -0.00667(17) 0.05089(7)
H11 H 0.8799 0.0281 0.0255
C17 C 0.8763(3) -0.14959(17) 0.08515(7)
H12 H 0.8808 -0.2161 0.0842
C18 C 0.8616(3) -0.10611(16) 0.12441(7)
H13 H 0.8536 -0.1431 0.1491
loop_
_geom_bond_atom_site_label_1
_geom_bond_atom_site_label_2
_geom_bond_site_symmetry_1
_geom_bond_site_symmetry_2
O1 C7 1_555 1_555
O2 C7 1_555 1_555
O3 C8 1_555 1_555
O4 C8 1_555 1_555
N1 H1 1_555 1_555
H2 N1 1_555 1_555
C1 N1 1_555 1_555
C2 C1 1_555 1_555
H3 C2 1_555 1_555
C3 C2 1_555 1_555
C4 C3 1_555 1_555
H4 C4 1_555 1_555
C5 C4 1_555 1_555
C6 C1 1_555 1_555
H5 C6 1_555 1_555
C7 C3 1_555 1_555
C8 C5 1_555 1_555
N2 C9 1_555 1_555
N3 C16 1_555 1_555
C9 H6 1_555 1_555
C10 C9 1_555 1_555
H7 C10 1_555 1_555
C11 C10 1_555 1_555
C12 C11 1_555 1_555
H8 C12 1_555 1_555
C13 N2 1_555 1_555
H9 C13 1_555 1_555
C14 C11 1_555 1_555
C15 C14 1_555 1_555
H10 C15 1_555 1_555
C16 C15 1_555 1_555
H11 C16 1_555 1_555
C17 N3 1_555 1_555
H12 C17 1_555 1_555
C18 C14 1_555 1_555
H13 C18 1_555 1_555
H14 O1 1_555 1_555
H15 O4 1_555 1_555
C5 C6 1_555 1_555
C12 C13 1_555 1_555
C17 C18 1_555 1_555

#END
