
#######################################################################
#
#                 Cambridge Crystallographic Data Centre
#                                CCDC 
#
#######################################################################
#
# If this CIF has been generated from an entry in the Cambridge 
# Structural Database, then it will include bibliographic, chemical, 
# crystal, experimental, refinement or atomic coordinate data resulting 
# from the CCDC's data processing and validation procedures.
#
#######################################################################

data_VURZUF
_chemical_formula_moiety         'C12 H16 N1 O8 P1 S1'
_chemical_name_systematic        
'methyl 4-(5-(dimethoxyphosphoryl)-2,2-dioxido-1,2,3-oxathiazolidin-4-yl)benzoate'
_symmetry_cell_setting           orthorhombic
_symmetry_space_group_name_H-M   'P 21 21 21'
_symmetry_Int_Tables_number      19
_space_group_name_Hall           'P 2ac 2ab'
loop_
_symmetry_equiv_pos_site_id
_symmetry_equiv_pos_as_xyz
1 x,y,z
2 1/2-x,-y,1/2+z
3 -x,1/2+y,1/2-z
4 1/2+x,1/2-y,-z
_cell_length_a                   12.5348(4)
_cell_length_b                   14.0822(5)
_cell_length_c                   18.0788(6)
_cell_angle_alpha                90
_cell_angle_beta                 90
_cell_angle_gamma                90
_cell_volume                     3191.23
_exptl_crystal_colour            silver
_exptl_crystal_description       block
_cell_formula_units_Z            8
loop_
_atom_site_label
_atom_site_type_symbol
_atom_site_fract_x
_atom_site_fract_y
_atom_site_fract_z
S1 S 0.54880(3) 0.58192(2) 1.001391(19)
P1 P 0.42065(3) 0.38369(3) 1.093518(19)
O1 O 0.56827(10) -0.03769(8) 0.92752(7)
O2 O 0.68331(9) -0.01671(8) 1.02101(7)
O3 O 0.54467(9) 0.64396(7) 0.93876(6)
O4 O 0.58521(10) 0.62222(9) 1.06873(7)
O5 O 0.43241(8) 0.53991(7) 1.01295(6)
O6 O 0.51599(9) 0.39432(8) 1.13993(6)
O7 O 0.31775(9) 0.43075(7) 1.12770(6)
O8 O 0.38266(9) 0.28192(7) 1.07299(6)
N1 N 0.60734(10) 0.48102(9) 0.98327(7)
H1 H 0.6752 0.4680 0.9904
C1 C 0.58653(16) -0.13878(11) 0.93348(10)
H2 H 0.5437 -0.1721 0.8963
H3 H 0.5659 -0.1605 0.9830
H4 H 0.6623 -0.1523 0.9252
C2 C 0.62264(12) 0.01569(11) 0.97579(8)
C3 C 0.59908(12) 0.11891(11) 0.96725(8)
C4 C 0.65428(11) 0.18299(10) 1.01163(8)
H5 H 0.7054 0.1602 1.0461
C5 C 0.63530(11) 0.27961(10) 1.00597(8)
H6 H 0.6737 0.3231 1.0361
C6 C 0.55963(11) 0.31246(10) 0.95586(8)
C7 C 0.50532(13) 0.24868(11) 0.91047(9)
H7 H 0.4545 0.2715 0.8758
C8 C 0.52518(13) 0.15203(11) 0.91571(9)
H8 H 0.4887 0.1087 0.8844
C9 C 0.52672(11) 0.41552(10) 0.95290(8)
H9 H 0.5110 0.4334 0.9005
C10 C 0.42888(11) 0.43714(9) 1.00106(8)
H10 H 0.3628 0.4209 0.9727
C11 C 0.32408(18) 0.52125(13) 1.16498(11)
H11 H 0.2530 0.5396 1.1825
H12 H 0.3508 0.5694 1.1305
H13 H 0.3728 0.5162 1.2072
C12 C 0.35484(15) 0.21246(12) 1.12939(10)
H14 H 0.3330 0.1530 1.1056
H15 H 0.2959 0.2369 1.1595
H16 H 0.4169 0.2006 1.1611
S2 S 0.79086(3) 0.79323(2) 0.71069(2)
P2 P 0.82538(3) 0.62039(3) 0.86652(2)
O9 O 0.70395(9) 0.18620(7) 0.68170(7)
O10 O 0.53764(9) 0.20337(8) 0.72539(6)
O11 O 0.70595(9) 0.84980(8) 0.68140(7)
O12 O 0.89710(9) 0.82740(8) 0.70386(6)
O13 O 0.76328(9) 0.77697(7) 0.79650(6)
O14 O 0.78599(9) 0.53061(8) 0.89804(6)
O15 O 0.91991(9) 0.61532(9) 0.81067(6)
O16 O 0.86450(10) 0.69455(9) 0.92559(6)
N2 N 0.78000(10) 0.68346(8) 0.68284(7)
H17 H 0.8144 0.6558 0.6463
C13 C 0.68137(13) 0.08621(10) 0.67079(9)
H18 H 0.7446 0.0547 0.6505
H19 H 0.6217 0.0792 0.6362
H20 H 0.6626 0.0572 0.7183
C14 C 0.62331(11) 0.23718(10) 0.70926(8)
C15 C 0.64935(11) 0.34015(10) 0.71662(8)
C16 C 0.74710(11) 0.37700(10) 0.69426(8)
H21 H 0.8007 0.3358 0.6756
C17 C 0.76681(11) 0.47448(10) 0.69916(8)
H22 H 0.8335 0.4997 0.6837
C18 C 0.68809(11) 0.53423(10) 0.72682(7)
C19 C 0.59031(11) 0.49668(10) 0.74966(8)
H23 H 0.5370 0.5377 0.7689
C20 C 0.57034(11) 0.40003(10) 0.74447(8)
H24 H 0.5035 0.3749 0.7597
C21 C 0.69992(11) 0.64067(9) 0.73239(8)
H25 H 0.6295 0.6682 0.7177
C22 C 0.72528(12) 0.68076(10) 0.81070(8)
H26 H 0.6574 0.6845 0.8396
C23 C 1.02782(16) 0.5978(3) 0.83096(13)
H27 H 1.0726 0.5978 0.7865
H28 H 1.0329 0.5359 0.8555
H29 H 1.0522 0.6476 0.8648
C24 C 0.82291(14) 0.69659(13) 1.00034(9)
H30 H 0.8574 0.7479 1.0281
H31 H 0.8375 0.6357 1.0246
H32 H 0.7457 0.7075 0.9989
loop_
_geom_bond_atom_site_label_1
_geom_bond_atom_site_label_2
_geom_bond_site_symmetry_1
_geom_bond_site_symmetry_2
S1 O3 1_555 1_555
P1 O6 1_555 1_555
O1 C1 1_555 1_555
O2 C2 1_555 1_555
O4 S1 1_555 1_555
O5 S1 1_555 1_555
O7 P1 1_555 1_555
O8 P1 1_555 1_555
N1 S1 1_555 1_555
H1 N1 1_555 1_555
C1 H2 1_555 1_555
H3 C1 1_555 1_555
H4 C1 1_555 1_555
C2 O1 1_555 1_555
C3 C2 1_555 1_555
C4 C3 1_555 1_555
H5 C4 1_555 1_555
C5 C4 1_555 1_555
H6 C5 1_555 1_555
C6 C5 1_555 1_555
C7 C6 1_555 1_555
H7 C7 1_555 1_555
C8 C3 1_555 1_555
H8 C8 1_555 1_555
C9 N1 1_555 1_555
H9 C9 1_555 1_555
C10 P1 1_555 1_555
H10 C10 1_555 1_555
C11 O7 1_555 1_555
H11 C11 1_555 1_555
H12 C11 1_555 1_555
H13 C11 1_555 1_555
C12 O8 1_555 1_555
H14 C12 1_555 1_555
H15 C12 1_555 1_555
H16 C12 1_555 1_555
S2 O11 1_555 1_555
P2 O14 1_555 1_555
O9 C13 1_555 1_555
O10 C14 1_555 1_555
O12 S2 1_555 1_555
O13 S2 1_555 1_555
O15 P2 1_555 1_555
O16 P2 1_555 1_555
N2 S2 1_555 1_555
H17 N2 1_555 1_555
C13 H18 1_555 1_555
H19 C13 1_555 1_555
H20 C13 1_555 1_555
C14 O9 1_555 1_555
C15 C14 1_555 1_555
C16 C15 1_555 1_555
H21 C16 1_555 1_555
C17 C16 1_555 1_555
H22 C17 1_555 1_555
C18 C17 1_555 1_555
C19 C18 1_555 1_555
H23 C19 1_555 1_555
C20 C15 1_555 1_555
H24 C20 1_555 1_555
C21 N2 1_555 1_555
H25 C21 1_555 1_555
C22 P2 1_555 1_555
H26 C22 1_555 1_555
C23 O15 1_555 1_555
H27 C23 1_555 1_555
H28 C23 1_555 1_555
H29 C23 1_555 1_555
C24 O16 1_555 1_555
H30 C24 1_555 1_555
H31 C24 1_555 1_555
H32 C24 1_555 1_555
O5 C10 1_555 1_555
C6 C9 1_555 1_555
C7 C8 1_555 1_555
C9 C10 1_555 1_555
O13 C22 1_555 1_555
C18 C21 1_555 1_555
C19 C20 1_555 1_555
C21 C22 1_555 1_555

#END
