
#######################################################################
#
#                 Cambridge Crystallographic Data Centre
#                                CCDC 
#
#######################################################################
#
# If this CIF has been generated from an entry in the Cambridge 
# Structural Database, then it will include bibliographic, chemical, 
# crystal, experimental, refinement or atomic coordinate data resulting 
# from the CCDC's data processing and validation procedures.
#
#######################################################################

data_VUSMOL
_chemical_formula_moiety         'C6 H12 N4 O3'
_chemical_name_systematic        'Nitrilotriacetic acid triamide'
_symmetry_cell_setting           triclinic
_symmetry_space_group_name_H-M   'P -1'
_symmetry_Int_Tables_number      2
_space_group_name_Hall           '-P 1'
loop_
_symmetry_equiv_pos_site_id
_symmetry_equiv_pos_as_xyz
1 x,y,z
2 -x,-y,-z
_cell_length_a                   9.590(3)
_cell_length_b                   9.591(2)
_cell_length_c                   9.918(3)
_cell_angle_alpha                87.73(2)
_cell_angle_beta                 87.72(2)
_cell_angle_gamma                89.17(2)
_cell_volume                     910.721
_exptl_crystal_colour            colorless
_cell_formula_units_Z            4
loop_
_atom_site_label
_atom_site_type_symbol
_atom_site_fract_x
_atom_site_fract_y
_atom_site_fract_z
O1 O 0.2016(1) 0.4441(2) 0.8772(2)
O2 O 0.6794(2) 0.1032(2) 0.5653(2)
O3 O 0.6478(1) 0.6293(1) 0.6349(2)
N1 N 0.3458(2) 0.2782(2) 0.9584(2)
N2 N 0.6754(2) 0.0941(2) 0.7909(2)
N3 N 0.8374(2) 0.5011(2) 0.5880(2)
N4 N 0.5611(1) 0.3668(1) 0.7881(1)
C1 C 0.4406(2) 0.4593(2) 0.8055(2)
C2 C 0.3194(2) 0.3905(2) 0.8829(2)
C3 C 0.5470(2) 0.2785(2) 0.6733(2)
C4 C 0.6409(2) 0.1511(2) 0.6735(2)
C5 C 0.6951(2) 0.4356(2) 0.7861(2)
C6 C 0.7257(2) 0.5304(2) 0.6628(2)
H1 H 0.464(2) 0.534(2) 0.851(2)
H2 H 0.403(2) 0.490(2) 0.720(2)
H3 H 0.454(2) 0.241(2) 0.677(2)
H4 H 0.567(2) 0.327(2) 0.587(2)
H5 H 0.765(2) 0.370(2) 0.793(2)
H6 H 0.700(2) 0.489(2) 0.860(2)
H7 H 0.427(2) 0.257(2) 0.970(2)
H8 H 0.272(2) 0.237(2) 1.013(2)
H9 H 0.648(2) 0.126(2) 0.865(2)
H10 H 0.725(2) 0.019(2) 0.795(2)
H11 H 0.867(2) 0.566(2) 0.520(2)
H12 H 0.888(2) 0.433(2) 0.605(3)
O4 O 0.3973(2) 0.8209(2) 0.9348(1)
O5 O -0.1300(1) 0.8517(1) 0.8647(2)
O6 O 0.0558(2) 1.2984(1) 0.6230(2)
N5 N 0.4060(2) 0.8242(2) 0.7088(2)
N6 N -0.0009(2) 0.6619(2) 0.9117(2)
N7 N 0.2216(2) 1.1532(2) 0.5415(2)
N8 N 0.1334(1) 0.9389(1) 0.7120(1)
C7 C 0.2216(2) 0.9529(2) 0.8266(2)
C8 C 0.3492(2) 0.8593(2) 0.8265(2)
C9 C 0.0650(2) 0.8043(2) 0.7138(2)
C10 C -0.0308(2) 0.7746(2) 0.8373(2)
C11 C 0.0402(2) 1.0590(2) 0.6942(2)
C12 C 0.1090(2) 1.1806(2) 0.6169(2)
H13 H 0.172(2) 0.932(2) 0.909(2)
H14 H 0.260(2) 1.043(2) 0.821(2)
H15 H 0.133(2) 0.726(2) 0.700(2)
H16 H 0.009(2) 0.803(2) 0.642(2)
H17 H -0.038(2) 1.027(2) 0.640(2)
H18 H 0.003(2) 1.101(2) 0.776(2)
H19 H 0.486(2) 0.767(2) 0.707(2)
H20 H 0.371(2) 0.841(2) 0.627(2)
H21 H -0.055(3) 0.630(2) 0.982(3)
H22 H 0.072(2) 0.596(2) 0.885(2)
H23 H 0.264(2) 1.217(2) 0.488(2)
H24 H 0.246(2) 1.063(2) 0.528(2)
loop_
_geom_bond_atom_site_label_1
_geom_bond_atom_site_label_2
_geom_bond_site_symmetry_1
_geom_bond_site_symmetry_2
O1 C2 1_555 1_555
O2 C4 1_555 1_555
O3 C6 1_555 1_555
N1 C2 1_555 1_555
N2 C4 1_555 1_555
N3 C6 1_555 1_555
N4 C1 1_555 1_555
C1 C2 1_555 1_555
C3 N4 1_555 1_555
C4 C3 1_555 1_555
C5 N4 1_555 1_555
C6 C5 1_555 1_555
H1 C1 1_555 1_555
H2 C1 1_555 1_555
H3 C3 1_555 1_555
H4 C3 1_555 1_555
H5 C5 1_555 1_555
H6 C5 1_555 1_555
H7 N1 1_555 1_555
H8 N1 1_555 1_555
H9 N2 1_555 1_555
H10 N2 1_555 1_555
H11 N3 1_555 1_555
H12 N3 1_555 1_555
O4 C8 1_555 1_555
O5 C10 1_555 1_555
O6 C12 1_555 1_555
N5 C8 1_555 1_555
N6 C10 1_555 1_555
N7 C12 1_555 1_555
N8 C7 1_555 1_555
C7 C8 1_555 1_555
C9 N8 1_555 1_555
C10 C9 1_555 1_555
C11 N8 1_555 1_555
C12 C11 1_555 1_555
H13 C7 1_555 1_555
H14 C7 1_555 1_555
H15 C9 1_555 1_555
H16 C9 1_555 1_555
H17 C11 1_555 1_555
H18 C11 1_555 1_555
H19 N5 1_555 1_555
H20 N5 1_555 1_555
H21 N6 1_555 1_555
H22 N6 1_555 1_555
H23 N7 1_555 1_555
H24 N7 1_555 1_555

#END
