
#######################################################################
#
#                 Cambridge Crystallographic Data Centre
#                                CCDC 
#
#######################################################################
#
# If this CIF has been generated from an entry in the Cambridge 
# Structural Database, then it will include bibliographic, chemical, 
# crystal, experimental, refinement or atomic coordinate data resulting 
# from the CCDC's data processing and validation procedures.
#
#######################################################################

data_VUVYAO
_chemical_formula_moiety         'C22 H29 Cl1 I1 N3 O7'
_chemical_name_systematic        
'Di-isopropyl 4-(2-chlorophenyl)-5-iodo-6,6-dimethyl-3-nitrohexahydrofuro[2,3-c]pyridazine-1,2-dicarboxylate'
_symmetry_cell_setting           orthorhombic
_symmetry_space_group_name_H-M   'P 21 21 21'
_symmetry_Int_Tables_number      19
_space_group_name_Hall           'P 2ac 2ab'
loop_
_symmetry_equiv_pos_site_id
_symmetry_equiv_pos_as_xyz
1 x,y,z
2 1/2+x,1/2-y,-z
3 -x,1/2+y,1/2-z
4 1/2-x,-y,1/2+z
_cell_length_a                   14.145(2)
_cell_length_b                   14.947(3)
_cell_length_c                   25.101(4)
_cell_angle_alpha                90
_cell_angle_beta                 90
_cell_angle_gamma                90
_cell_volume                     5306.99
_exptl_crystal_colour            colorless
_exptl_crystal_description       prism
_cell_formula_units_Z            8
loop_
_atom_site_label
_atom_site_type_symbol
_atom_site_fract_x
_atom_site_fract_y
_atom_site_fract_z
I1 I 0.26103(3) 0.74383(2) 0.517674(15)
Cl1 Cl 0.03928(10) 0.58513(10) 0.49329(6)
O1 O 0.3748(3) 0.2773(2) 0.42106(14)
O2 O 0.3476(3) 0.3668(3) 0.34979(14)
O3 O 0.5297(3) 0.4070(3) 0.45458(15)
O4 O 0.5056(3) 0.4167(3) 0.54390(13)
O5 O 0.4144(3) 0.5671(2) 0.41353(15)
O6 O 0.3114(3) 0.2883(3) 0.55186(17)
O7 O 0.2255(3) 0.3835(3) 0.59558(15)
N1 N 0.3818(3) 0.4141(3) 0.48598(16)
N2 N 0.3538(3) 0.4251(3) 0.43306(15)
C1 C 0.3328(3) 0.6324(3) 0.48153(19)
H1 H 0.3740 0.6046 0.5093
C2 C -0.0046(5) 0.3402(4) 0.4386(2)
H2 H -0.0566 0.3072 0.4249
C3 C -0.0162(4) 0.4278(4) 0.4536(2)
H3 H -0.0759 0.4562 0.4500
C4 C 0.0601(4) 0.4742(4) 0.4742(2)
C5 C 0.1506(3) 0.4364(3) 0.4801(2)
C6 C 0.2303(3) 0.4927(3) 0.50218(17)
H4 H 0.2030 0.5291 0.5318
C7 C 0.3157(3) 0.4418(3) 0.52549(17)
H5 H 0.3495 0.4839 0.5499
C8 C 0.3596(3) 0.3556(3) 0.39731(19)
C9 C 0.3819(5) 0.1992(4) 0.3855(2)
H6 H 0.3447 0.2107 0.3523
C10 C 0.3373(8) 0.1234(5) 0.4161(3)
H7 H 0.3347 0.0700 0.3936
H8 H 0.2731 0.1404 0.4268
H9 H 0.3751 0.1107 0.4480
C11 C 0.4810(6) 0.1853(6) 0.3717(5)
H10 H 0.5059 0.2392 0.3544
H11 H 0.4863 0.1344 0.3473
H12 H 0.5173 0.1730 0.4041
C12 C 0.4780(4) 0.4136(4) 0.49815(19)
C13 C 0.6335(4) 0.4084(4) 0.4606(2)
H13 H 0.6530 0.3663 0.4895
C14 C 0.6651(5) 0.5021(5) 0.4741(4)
H14 H 0.6397 0.5441 0.4477
H15 H 0.7344 0.5049 0.4736
H16 H 0.6420 0.5183 0.5096
C15 C 0.6715(5) 0.3759(5) 0.4072(3)
H17 H 0.6471 0.3158 0.3999
H18 H 0.7407 0.3742 0.4084
H19 H 0.6511 0.4169 0.3790
C16 C 0.0829(4) 0.3002(4) 0.4435(2)
H20 H 0.0913 0.2397 0.4330
C17 C 0.1584(4) 0.3482(3) 0.4638(2)
H21 H 0.2180 0.3194 0.4666
C18 C 0.2671(3) 0.5594(3) 0.45992(17)
H22 H 0.2119 0.5882 0.4418
C19 C 0.3957(4) 0.6560(3) 0.4335(2)
C20 C 0.3309(3) 0.5142(3) 0.41716(17)
H23 H 0.2977 0.5134 0.3820
C21 C 0.3464(4) 0.7116(4) 0.3906(2)
H24 H 0.3847 0.7115 0.3581
H25 H 0.3386 0.7732 0.4032
H26 H 0.2842 0.6857 0.3829
C22 C 0.4894(4) 0.6963(4) 0.4499(2)
H27 H 0.5222 0.6552 0.4740
H28 H 0.4783 0.7533 0.4681
H29 H 0.5283 0.7064 0.4181
N3 N 0.2813(3) 0.3621(3) 0.55959(16)
I2 I 0.50063(3) 1.01431(3) 0.234017(15)
Cl2 Cl 0.68979(10) 1.20857(9) 0.26012(6)
O8 O 0.9834(2) 0.8703(3) 0.33065(13)
O9 O 0.8911(3) 0.9069(3) 0.40073(13)
O10 O 0.8228(3) 0.7532(3) 0.20771(14)
O11 O 0.8430(3) 0.7309(2) 0.29682(14)
O12 O 0.6757(3) 0.8455(3) 0.33166(15)
O13 O 0.8806(3) 1.0163(3) 0.15501(15)
O14 O 0.9756(3) 0.9272(3) 0.19712(16)
N4 N 0.8297(3) 0.8979(3) 0.31791(15)
N5 N 0.8401(3) 0.8708(3) 0.26516(15)
C23 C 0.7676(3) 1.0196(3) 0.24945(16)
H30 H 0.7321 1.0492 0.2199
C24 C 1.1498(5) 0.8879(6) 0.3317(3)
H31 H 1.1558 0.8436 0.3031
H32 H 1.2071 0.8873 0.3536
H33 H 1.1411 0.9475 0.3163
C25 C 1.0654(4) 0.8649(4) 0.3660(2)
H34 H 1.0590 0.9101 0.3951
C26 C 0.9029(3) 0.8916(3) 0.35360(19)
C27 C 0.8146(3) 0.9351(3) 0.22568(17)
H35 H 0.7670 0.9061 0.2018
C28 C 0.8339(4) 1.0896(3) 0.27298(19)
C29 C 0.9266(4) 1.0713(3) 0.28948(19)
H36 H 0.9509 1.0125 0.2850
C30 C 0.9836(4) 1.1359(4) 0.3121(2)
H37 H 1.0455 1.1209 0.3237
C31 C 0.9506(5) 1.2232(4) 0.3178(2)
H38 H 0.9902 1.2681 0.3326
C32 C 1.0704(5) 0.7727(5) 0.3898(3)
H39 H 1.0104 0.7589 0.4076
H40 H 1.1219 0.7703 0.4158
H41 H 1.0820 0.7288 0.3616
C33 C 0.8336(4) 0.7795(3) 0.25309(19)
C34 C 0.8362(4) 0.6337(4) 0.2924(2)
H42 H 0.8735 0.6131 0.2609
C35 C 0.8793(6) 0.5967(5) 0.3423(3)
H43 H 0.9470 0.6107 0.3430
H44 H 0.8706 0.5316 0.3431
H45 H 0.8484 0.6235 0.3734
C36 C 0.7337(6) 0.6069(5) 0.2854(4)
H46 H 0.6949 0.6375 0.3121
H47 H 0.7276 0.5420 0.2900
H48 H 0.7124 0.6237 0.2497
C37 C 0.8036(4) 1.1773(4) 0.2802(2)
C38 C 0.8599(4) 1.2439(4) 0.3020(2)
H49 H 0.8363 1.3030 0.3060
C39 C 0.6944(3) 0.9892(3) 0.29051(18)
H50 H 0.6685 1.0428 0.3093
C40 C 0.7345(3) 0.9226(3) 0.33223(17)
H51 H 0.7339 0.9506 0.3684
C41 C 0.5835(4) 0.8692(3) 0.3115(2)
C42 C 0.5249(4) 0.9110(4) 0.3556(2)
H52 H 0.5219 0.8699 0.3860
H53 H 0.4609 0.9228 0.3425
H54 H 0.5543 0.9673 0.3669
C43 C 0.5387(4) 0.7852(4) 0.2900(3)
H55 H 0.5780 0.7609 0.2613
H56 H 0.4757 0.7991 0.2760
H57 H 0.5332 0.7409 0.3186
C44 C 0.6121(3) 0.9347(3) 0.26694(19)
H58 H 0.6386 0.8981 0.2372
N6 N 0.8998(3) 0.9618(3) 0.19038(16)
loop_
_geom_bond_atom_site_label_1
_geom_bond_atom_site_label_2
_geom_bond_site_symmetry_1
_geom_bond_site_symmetry_2
I1 C1 1_555 1_555
Cl1 C4 1_555 1_555
O1 C8 1_555 1_555
O2 C8 1_555 1_555
O3 C12 1_555 1_555
O4 C12 1_555 1_555
O5 C19 1_555 1_555
O6 N3 1_555 1_555
O7 N3 1_555 1_555
N1 N2 1_555 1_555
N2 C8 1_555 1_555
C1 H1 1_555 1_555
C2 H2 1_555 1_555
C3 C2 1_555 1_555
H3 C3 1_555 1_555
C4 C3 1_555 1_555
C5 C4 1_555 1_555
C6 C5 1_555 1_555
H4 C6 1_555 1_555
C7 N1 1_555 1_555
H5 C7 1_555 1_555
C9 O1 1_555 1_555
H6 C9 1_555 1_555
C10 C9 1_555 1_555
H7 C10 1_555 1_555
H8 C10 1_555 1_555
H9 C10 1_555 1_555
C11 C9 1_555 1_555
H10 C11 1_555 1_555
H11 C11 1_555 1_555
H12 C11 1_555 1_555
C12 N1 1_555 1_555
C13 O3 1_555 1_555
H13 C13 1_555 1_555
C14 C13 1_555 1_555
H14 C14 1_555 1_555
H15 C14 1_555 1_555
H16 C14 1_555 1_555
C15 C13 1_555 1_555
H17 C15 1_555 1_555
H18 C15 1_555 1_555
H19 C15 1_555 1_555
C16 C2 1_555 1_555
H20 C16 1_555 1_555
C17 C5 1_555 1_555
H21 C17 1_555 1_555
C18 C1 1_555 1_555
H22 C18 1_555 1_555
C19 C1 1_555 1_555
C20 O5 1_555 1_555
H23 C20 1_555 1_555
C21 C19 1_555 1_555
H24 C21 1_555 1_555
H25 C21 1_555 1_555
H26 C21 1_555 1_555
C22 C19 1_555 1_555
H27 C22 1_555 1_555
H28 C22 1_555 1_555
H29 C22 1_555 1_555
N3 C7 1_555 1_555
I2 C44 1_555 1_555
Cl2 C37 1_555 1_555
O8 C25 1_555 1_555
O9 C26 1_555 1_555
O10 C33 1_555 1_555
O11 C33 1_555 1_555
O12 C40 1_555 1_555
O13 N6 1_555 1_555
O14 N6 1_555 1_555
N4 N5 1_555 1_555
N5 C27 1_555 1_555
C23 H30 1_555 1_555
C24 H31 1_555 1_555
H32 C24 1_555 1_555
H33 C24 1_555 1_555
C25 C24 1_555 1_555
H34 C25 1_555 1_555
C26 O8 1_555 1_555
C27 C23 1_555 1_555
H35 C27 1_555 1_555
C28 C23 1_555 1_555
C29 C28 1_555 1_555
H36 C29 1_555 1_555
C30 C29 1_555 1_555
H37 C30 1_555 1_555
C31 C30 1_555 1_555
H38 C31 1_555 1_555
C32 C25 1_555 1_555
H39 C32 1_555 1_555
H40 C32 1_555 1_555
H41 C32 1_555 1_555
C33 N5 1_555 1_555
C34 O11 1_555 1_555
H42 C34 1_555 1_555
C35 C34 1_555 1_555
H43 C35 1_555 1_555
H44 C35 1_555 1_555
H45 C35 1_555 1_555
C36 C34 1_555 1_555
H46 C36 1_555 1_555
H47 C36 1_555 1_555
H48 C36 1_555 1_555
C37 C28 1_555 1_555
C38 C31 1_555 1_555
H49 C38 1_555 1_555
C39 C23 1_555 1_555
H50 C39 1_555 1_555
C40 N4 1_555 1_555
H51 C40 1_555 1_555
C41 O12 1_555 1_555
C42 C41 1_555 1_555
H52 C42 1_555 1_555
H53 C42 1_555 1_555
H54 C42 1_555 1_555
C43 C41 1_555 1_555
H55 C43 1_555 1_555
H56 C43 1_555 1_555
H57 C43 1_555 1_555
C44 C39 1_555 1_555
H58 C44 1_555 1_555
N6 C27 1_555 1_555
N2 C20 1_555 1_555
C6 C7 1_555 1_555
C6 C18 1_555 1_555
C16 C17 1_555 1_555
C18 C20 1_555 1_555
N4 C26 1_555 1_555
C37 C38 1_555 1_555
C39 C40 1_555 1_555
C41 C44 1_555 1_555

#END
