
#######################################################################
#
#                 Cambridge Crystallographic Data Centre
#                                CCDC 
#
#######################################################################
#
# If this CIF has been generated from an entry in the Cambridge 
# Structural Database, then it will include bibliographic, chemical, 
# crystal, experimental, refinement or atomic coordinate data resulting 
# from the CCDC's data processing and validation procedures.
#
#######################################################################

data_VUWCIB
_chemical_formula_moiety         'C20 H17 Br1 F3 N3 O3'
_chemical_name_systematic        
(2'R,3'R,4'S,5'R)-5-Bromo-1,7-dimethyl-3'-nitro-4'-phenyl-5'-(trifluoromethyl)spiro[indoline-3,2'-pyrrolidin]-2-one
_symmetry_cell_setting           orthorhombic
_symmetry_space_group_name_H-M   'P 21 21 21'
_symmetry_Int_Tables_number      19
_space_group_name_Hall           'P 2ac 2ab'
loop_
_symmetry_equiv_pos_site_id
_symmetry_equiv_pos_as_xyz
1 x,y,z
2 1/2-x,-y,1/2+z
3 1/2+x,1/2-y,-z
4 -x,1/2+y,1/2-z
_cell_length_a                   9.0507(5)
_cell_length_b                   12.8095(5)
_cell_length_c                   17.5495(9)
_cell_angle_alpha                90
_cell_angle_beta                 90
_cell_angle_gamma                90
_cell_volume                     2034.6
_exptl_crystal_colour            colorless
_exptl_crystal_description       needle
_cell_formula_units_Z            4
loop_
_atom_site_label
_atom_site_type_symbol
_atom_site_fract_x
_atom_site_fract_y
_atom_site_fract_z
Br1 Br 0.14212(13) 0.67073(8) 0.10622(7)
C1 C 0.1843(16) 1.3974(8) 0.1840(8)
H1 H 0.2368 1.4589 0.1915
C2 C 0.5864(11) 0.7559(7) 0.1114(6)
F1 F 0.1768(7) 1.1261(6) -0.1091(3)
F2 F 0.1047(7) 1.0163(4) -0.0271(4)
O1 O 0.7082(9) 1.1094(6) 0.0510(5)
N1 N 0.6918(9) 0.9368(6) 0.0857(5)
C3 C 0.4680(11) 1.0251(7) 0.0659(5)
C4 C 0.2820(11) 1.1405(7) 0.0136(5)
H2 H 0.3135 1.2124 0.0033
C5 C 0.2485(10) 1.1274(6) 0.0991(5)
H3 H 0.1832 1.0669 0.1054
C6 C 0.4528(11) 0.7031(7) 0.1150(6)
H4 H 0.4540 0.6326 0.1275
C7 C 0.3186(10) 0.7499(7) 0.1009(5)
C8 C 0.5763(11) 0.8614(7) 0.0944(5)
C9 C 0.1784(11) 1.2194(6) 0.1379(5)
F3 F 0.0343(7) 1.1743(6) -0.0180(4)
O2 O 0.2850(12) 1.0109(7) 0.2295(5)
C10 C 0.0346(13) 1.2139(10) 0.1625(7)
H5 H -0.0181 1.1522 0.1561
C11 C 0.8523(12) 0.9187(8) 0.0870(7)
H6 H 0.8793 0.8862 0.1343
H7 H 0.9030 0.9841 0.0822
H8 H 0.8792 0.8739 0.0454
O3 O 0.5183(12) 1.0403(8) 0.2370(5)
N2 N 0.4025(11) 1.0682(7) -0.0039(5)
C12 C 0.2520(12) 1.3127(7) 0.1493(7)
H9 H 0.3495 1.3188 0.1332
C13 C 0.6363(12) 1.0310(7) 0.0649(6)
C14 C 0.3119(10) 0.8547(7) 0.0826(5)
H10 H 0.2219 0.8868 0.0724
C15 C 0.1493(14) 1.1138(8) -0.0352(5)
C16 C 0.4013(12) 1.0979(7) 0.1278(5)
H11 H 0.4617 1.1612 0.1312
N3 N 0.3982(13) 1.0457(7) 0.2048(5)
C17 C 0.4423(11) 0.9102(6) 0.0800(5)
C18 C 0.7287(12) 0.6994(8) 0.1308(7)
H12 H 0.7066 0.6293 0.1465
H13 H 0.7782 0.7354 0.1714
H14 H 0.7915 0.6976 0.0867
C19 C -0.0334(14) 1.2984(11) 0.1967(7)
H15 H -0.1309 1.2923 0.2128
C20 C 0.0393(16) 1.3905(11) 0.2072(7)
H16 H -0.0078 1.4473 0.2296
H17 H 0.463(13) 1.089(8) -0.027(6)
loop_
_geom_bond_atom_site_label_1
_geom_bond_atom_site_label_2
_geom_bond_site_symmetry_1
_geom_bond_site_symmetry_2
Br1 C7 1_555 1_555
C1 H1 1_555 1_555
C2 C6 1_555 1_555
F1 C15 1_555 1_555
F2 C15 1_555 1_555
O1 C13 1_555 1_555
N1 C8 1_555 1_555
C3 N2 1_555 1_555
C4 H2 1_555 1_555
C5 C4 1_555 1_555
H3 C5 1_555 1_555
C6 H4 1_555 1_555
C7 C6 1_555 1_555
C8 C2 1_555 1_555
C9 C5 1_555 1_555
F3 C15 1_555 1_555
O2 N3 1_555 1_555
C10 C9 1_555 1_555
H5 C10 1_555 1_555
C11 N1 1_555 1_555
H6 C11 1_555 1_555
H7 C11 1_555 1_555
H8 C11 1_555 1_555
O3 N3 1_555 1_555
N2 C4 1_555 1_555
C12 C1 1_555 1_555
H9 C12 1_555 1_555
C13 N1 1_555 1_555
C14 C7 1_555 1_555
H10 C14 1_555 1_555
C15 C4 1_555 1_555
C16 C3 1_555 1_555
H11 C16 1_555 1_555
N3 C16 1_555 1_555
C17 C3 1_555 1_555
C18 C2 1_555 1_555
H12 C18 1_555 1_555
H13 C18 1_555 1_555
H14 C18 1_555 1_555
C19 C10 1_555 1_555
H15 C19 1_555 1_555
C20 C1 1_555 1_555
H16 C20 1_555 1_555
H17 N2 1_555 1_555
C3 C13 1_555 1_555
C5 C16 1_555 1_555
C8 C17 1_555 1_555
C9 C12 1_555 1_555
C14 C17 1_555 1_555
C19 C20 1_555 1_555

#END
