
#######################################################################
#
#                 Cambridge Crystallographic Data Centre
#                                CCDC 
#
#######################################################################
#
# If this CIF has been generated from an entry in the Cambridge 
# Structural Database, then it will include bibliographic, chemical, 
# crystal, experimental, refinement or atomic coordinate data resulting 
# from the CCDC's data processing and validation procedures.
#
#######################################################################

data_VUWKII01
_chemical_formula_moiety         'C6 H10 N2 2+,C2 O4 2-'
_chemical_name_systematic        'o-diaminobenzene oxalate'
_symmetry_cell_setting           monoclinic
_symmetry_space_group_name_H-M   'P 21/c'
_symmetry_Int_Tables_number      14
_space_group_name_Hall           '-P 2ybc'
loop_
_symmetry_equiv_pos_site_id
_symmetry_equiv_pos_as_xyz
1 x,y,z
2 -x,1/2+y,1/2-z
3 -x,-y,-z
4 x,1/2-y,1/2+z
_cell_length_a                   11.428(2)
_cell_length_b                   6.2170(12)
_cell_length_c                   12.845(3)
_cell_angle_alpha                90
_cell_angle_beta                 103.50(3)
_cell_angle_gamma                90
_cell_volume                     887.394
_cell_formula_units_Z            4
loop_
_atom_site_label
_atom_site_type_symbol
_atom_site_fract_x
_atom_site_fract_y
_atom_site_fract_z
O1 O 0.1557(2) 0.0756(3) 0.2118(2)
O2 O 0.1077(2) -0.1825(3) 0.3160(2)
O3 O 0.2144(2) 0.3281(3) 0.3922(2)
O4 O 0.0748(2) 0.1486(3) 0.4521(2)
C1 C 0.1352(3) 0.0088(4) 0.2974(2)
C2 C 0.1413(2) 0.1756(4) 0.3888(2)
N1 N 0.1524(2) 0.9838(4) 0.6700(2)
N2 N 0.1643(3) 0.6340(4) 0.5246(2)
C3 C 0.2708(3) 0.7623(4) 0.5703(2)
C4 C 0.3794(3) 0.7117(5) 0.5458(3)
C5 C 0.4814(3) 0.8310(6) 0.5904(3)
C6 C 0.4745(3) 1.0003(6) 0.6602(3)
C7 C 0.3668(3) 1.0505(5) 0.6839(3)
C8 C 0.2646(3) 0.9307(5) 0.6403(2)
loop_
_geom_bond_atom_site_label_1
_geom_bond_atom_site_label_2
_geom_bond_site_symmetry_1
_geom_bond_site_symmetry_2
O1 C1 1_555 1_555
O2 C1 1_555 1_555
O3 C2 1_555 1_555
O4 C2 1_555 1_555
C1 C2 1_555 1_555
N1 C8 1_555 1_555
N2 C3 1_555 1_555
C3 C4 1_555 1_555
C4 C5 1_555 1_555
C5 C6 1_555 1_555
C6 C7 1_555 1_555
C7 C8 1_555 1_555
C8 C3 1_555 1_555

#END
