
#######################################################################
#
#                 Cambridge Crystallographic Data Centre
#                                CCDC 
#
#######################################################################
#
# If this CIF has been generated from an entry in the Cambridge 
# Structural Database, then it will include bibliographic, chemical, 
# crystal, experimental, refinement or atomic coordinate data resulting 
# from the CCDC's data processing and validation procedures.
#
#######################################################################

data_VUWVUG
_chemical_formula_moiety         'C16 H17 N3 O2'
_chemical_name_systematic        
2,4-Dimethoxy-9-phenyl-8,9-dihydro-5H-pyrimido[4,5-b]azepine
_symmetry_cell_setting           monoclinic
_symmetry_space_group_name_H-M   'P 21/c'
_symmetry_Int_Tables_number      14
_space_group_name_Hall           '-P 2ybc'
loop_
_symmetry_equiv_pos_site_id
_symmetry_equiv_pos_as_xyz
1 x,y,z
2 -x,1/2+y,1/2-z
3 -x,-y,-z
4 x,1/2-y,1/2+z
_cell_length_a                   8.2708(17)
_cell_length_b                   7.6735(15)
_cell_length_c                   22.301(5)
_cell_angle_alpha                90
_cell_angle_beta                 91.03(3)
_cell_angle_gamma                90
_cell_volume                     1415.13
_exptl_crystal_colour            colorless
_exptl_crystal_description       block
_cell_formula_units_Z            4
loop_
_atom_site_label
_atom_site_type_symbol
_atom_site_fract_x
_atom_site_fract_y
_atom_site_fract_z
C1 C 1.15196(18) 1.1463(2) 0.45597(7)
C2 C 0.99363(18) 1.15745(19) 0.43230(7)
C3 C 0.8980(2) 1.3229(2) 0.44317(8)
H1 H 0.8246 1.3023 0.4759
H2 H 0.9724 1.4140 0.4558
C4 C 0.8021(2) 1.3864(2) 0.38993(8)
H3 H 0.8221 1.4969 0.3747
C5 C 0.6900(2) 1.2881(2) 0.36444(8)
H4 H 0.6284 1.3300 0.3323
C6 C 0.66339(18) 1.1090(2) 0.38794(9)
H5 H 0.6552 1.1137 0.4312
H6 H 0.5619 1.0642 0.3718
C7 C 0.94593(17) 1.01082(19) 0.39859(6)
C8 C 1.19122(17) 0.8868(2) 0.41441(7)
C9 C 1.3712(2) 1.2863(3) 0.50767(9)
H7 H 1.3975 1.1792 0.5279
H8 H 1.3894 1.3824 0.5345
H9 H 1.4383 1.2991 0.4733
C10 C 1.2439(2) 0.6120(2) 0.36896(9)
H10 H 1.1488 0.5606 0.3855
H11 H 1.3279 0.5259 0.3670
H12 H 1.2195 0.6545 0.3293
C11 C 0.77089(17) 0.87993(19) 0.32078(7)
C12 C 0.63372(19) 0.7770(2) 0.31584(7)
H13 H 0.5594 0.7764 0.3466
C13 C 0.6062(2) 0.6748(2) 0.26546(8)
H14 H 0.5132 0.6070 0.2625
C14 C 0.7146(2) 0.6731(3) 0.22013(8)
H15 H 0.6968 0.6032 0.1866
C15 C 0.8508(2) 0.7760(2) 0.22458(8)
H16 H 0.9253 0.7751 0.1938
C16 C 0.87805(19) 0.8798(2) 0.27391(7)
H17 H 0.9693 0.9506 0.2758
N1 N 1.25338(14) 1.01549(17) 0.44748(6)
N2 N 1.04650(14) 0.87398(16) 0.38973(6)
N3 N 0.79487(14) 0.98969(16) 0.37201(6)
O1 O 1.20479(13) 1.28355(15) 0.48880(5)
O2 O 1.29735(13) 0.75437(14) 0.40645(5)
loop_
_geom_bond_atom_site_label_1
_geom_bond_atom_site_label_2
_geom_bond_site_symmetry_1
_geom_bond_site_symmetry_2
C1 C2 1_555 1_555
C2 C3 1_555 1_555
C3 H1 1_555 1_555
H2 C3 1_555 1_555
C4 C3 1_555 1_555
H3 C4 1_555 1_555
C5 C4 1_555 1_555
H4 C5 1_555 1_555
C6 C5 1_555 1_555
H5 C6 1_555 1_555
H6 C6 1_555 1_555
C7 C2 1_555 1_555
C8 N1 1_555 1_555
C9 H7 1_555 1_555
H8 C9 1_555 1_555
H9 C9 1_555 1_555
C10 H10 1_555 1_555
H11 C10 1_555 1_555
H12 C10 1_555 1_555
C11 C12 1_555 1_555
C12 H13 1_555 1_555
C13 C12 1_555 1_555
H14 C13 1_555 1_555
C14 C13 1_555 1_555
H15 C14 1_555 1_555
C15 C14 1_555 1_555
H16 C15 1_555 1_555
C16 C11 1_555 1_555
H17 C16 1_555 1_555
N1 C1 1_555 1_555
N2 C7 1_555 1_555
N3 C6 1_555 1_555
O1 C1 1_555 1_555
O2 C8 1_555 1_555
C7 N3 1_555 1_555
C8 N2 1_555 1_555
C9 O1 1_555 1_555
C10 O2 1_555 1_555
C11 N3 1_555 1_555
C15 C16 1_555 1_555

#END
