
#######################################################################
#
#                 Cambridge Crystallographic Data Centre
#                                CCDC 
#
#######################################################################
#
# If this CIF has been generated from an entry in the Cambridge 
# Structural Database, then it will include bibliographic, chemical, 
# crystal, experimental, refinement or atomic coordinate data resulting 
# from the CCDC's data processing and validation procedures.
#
#######################################################################

data_VUYMEJ
_chemical_formula_moiety         'C9 H16 F3 N1 O3 S1,H2 O1'
_chemical_name_systematic        
'methyl 3-((t-butylsulfinyl)amino)-4,4,4-trifluorobutanoate monohydrate'
_symmetry_cell_setting           orthorhombic
_symmetry_space_group_name_H-M   'P 21 21 21'
_symmetry_Int_Tables_number      19
_space_group_name_Hall           'P 2ac 2ab'
loop_
_symmetry_equiv_pos_site_id
_symmetry_equiv_pos_as_xyz
1 x,y,z
2 1/2-x,-y,1/2+z
3 -x,1/2+y,1/2-z
4 1/2+x,1/2-y,-z
_cell_length_a                   6.2799(7)
_cell_length_b                   14.4482(17)
_cell_length_c                   16.4527(19)
_cell_angle_alpha                90
_cell_angle_beta                 90
_cell_angle_gamma                90
_cell_volume                     1492.81
_exptl_crystal_description       block
_cell_formula_units_Z            4
loop_
_atom_site_label
_atom_site_type_symbol
_atom_site_fract_x
_atom_site_fract_y
_atom_site_fract_z
C1 C 0.2287(7) 0.1010(3) 0.6011(2)
C2 C 0.2851(5) 0.1789(2) 0.83245(18)
H1 H 0.1910 0.1274 0.8469
C3 C 0.5035(6) 0.1581(3) 0.8672(2)
H2 H 0.6077 0.1989 0.8426
H3 H 0.5027 0.1699 0.9253
C4 C 0.5665(6) 0.0595(2) 0.85222(18)
C5 C 0.8506(7) -0.0465(3) 0.8446(4)
H4 H 0.7849 -0.0863 0.8840
H5 H 1.0024 -0.0484 0.8512
H6 H 0.8139 -0.0670 0.7909
C6 C 0.3466(9) 0.1760(4) 0.5565(3)
H7 H 0.4703 0.1936 0.5871
H8 H 0.2552 0.2288 0.5499
H9 H 0.3894 0.1536 0.5041
C7 C 0.0462(10) 0.0639(5) 0.5492(3)
H10 H 0.1029 0.0356 0.5010
H11 H -0.0464 0.1139 0.5342
H12 H -0.0326 0.0187 0.5797
C8 C 0.3792(11) 0.0252(4) 0.6301(3)
H13 H 0.4364 -0.0070 0.5840
H14 H 0.3027 -0.0176 0.6639
H15 H 0.4934 0.0524 0.6607
C9 C 0.1924(7) 0.2662(3) 0.8694(3)
F1 F 0.1729(6) 0.2567(3) 0.94947(18)
F2 F 0.3139(5) 0.33974(18) 0.8573(2)
F3 F 0.0020(4) 0.2866(2) 0.8405(2)
N1 N 0.2952(4) 0.18328(18) 0.74493(16)
H16 H 0.366(5) 0.2279(19) 0.725(2)
O1 O 0.7757(4) 0.04781(18) 0.85637(18)
O2 O -0.0168(5) 0.2337(3) 0.6547(2)
O3 O 0.4427(4) -0.00196(17) 0.84066(17)
S1 S 0.09399(13) 0.14990(7) 0.68966(5)
O4 O -0.3741(8) 0.3136(3) 0.7200(5)
H17 H -0.391(6) 0.368(3) 0.683(2)
H18 H -0.272(7) 0.289(3) 0.676(2)
O5? O -0.3985(13) 0.3043(5) 0.6810(7)
loop_
_geom_bond_atom_site_label_1
_geom_bond_atom_site_label_2
_geom_bond_site_symmetry_1
_geom_bond_site_symmetry_2
C1 C6 1_555 1_555
C2 H1 1_555 1_555
C3 C2 1_555 1_555
H2 C3 1_555 1_555
H3 C3 1_555 1_555
C4 C3 1_555 1_555
C5 H4 1_555 1_555
H5 C5 1_555 1_555
H6 C5 1_555 1_555
C6 H7 1_555 1_555
H8 C6 1_555 1_555
H9 C6 1_555 1_555
C7 C1 1_555 1_555
H10 C7 1_555 1_555
H11 C7 1_555 1_555
H12 C7 1_555 1_555
C8 C1 1_555 1_555
H13 C8 1_555 1_555
H14 C8 1_555 1_555
H15 C8 1_555 1_555
C9 C2 1_555 1_555
F1 C9 1_555 1_555
F2 C9 1_555 1_555
F3 C9 1_555 1_555
N1 C2 1_555 1_555
H16 N1 1_555 1_555
O1 C4 1_555 1_555
O2 S1 1_555 1_555
O3 C4 1_555 1_555
S1 C1 1_555 1_555
O4 H17 1_555 1_555
H18 O4 1_555 1_555
C5 O1 1_555 1_555
N1 S1 1_555 1_555

#END
