
#######################################################################
#
#                 Cambridge Crystallographic Data Centre
#                                CCDC 
#
#######################################################################
#
# If this CIF has been generated from an entry in the Cambridge 
# Structural Database, then it will include bibliographic, chemical, 
# crystal, experimental, refinement or atomic coordinate data resulting 
# from the CCDC's data processing and validation procedures.
#
#######################################################################

data_VUZGUU
_chemical_formula_moiety         'C29 H24 Br1 O2 P1'
_chemical_name_systematic        
(S)-1-(4-Bromophenyl)-3-(diphenylphosphoryl)-5-phenylpent-4-en-1-one
_symmetry_cell_setting           orthorhombic
_symmetry_space_group_name_H-M   'P 21 21 21'
_symmetry_Int_Tables_number      19
_space_group_name_Hall           'P 2ac 2ab'
loop_
_symmetry_equiv_pos_site_id
_symmetry_equiv_pos_as_xyz
1 x,y,z
2 1/2-x,-y,1/2+z
3 -x,1/2+y,1/2-z
4 1/2+x,1/2-y,-z
_cell_length_a                   5.6283(3)
_cell_length_b                   17.6395(11)
_cell_length_c                   23.9438(16)
_cell_angle_alpha                90
_cell_angle_beta                 90
_cell_angle_gamma                90
_cell_volume                     2377.15
_exptl_crystal_colour            colorless
_exptl_crystal_description       prism
_cell_formula_units_Z            4
loop_
_atom_site_label
_atom_site_type_symbol
_atom_site_fract_x
_atom_site_fract_y
_atom_site_fract_z
Br1 Br 0.66633(12) -0.21168(3) 1.06406(3)
C1 C 0.5650(10) -0.0888(3) 0.9191(2)
H1 H 0.6495 -0.0809 0.8852
C2 C 0.6544(12) -0.1377(3) 0.9588(2)
H2 H 0.7973 -0.1648 0.9519
C3 C 0.5349(10) -0.1471(3) 1.0087(2)
C4 C 0.3205(12) -0.1106(3) 1.0195(2)
H3 H 0.2389 -0.1179 1.0538
C5 C 0.2301(10) -0.0632(3) 0.9786(2)
H4 H 0.0824 -0.0385 0.9849
C6 C 0.3495(10) -0.0506(3) 0.9285(2)
C7 C 0.2492(10) 0.0040(3) 0.8872(2)
C8 C 0.4138(10) 0.0379(3) 0.8433(2)
H5 H 0.4213 0.0035 0.8107
H6 H 0.576 0.0423 0.859
C9 C 0.3283(11) 0.1164(3) 0.8241(2)
H7 H 0.1572 0.1133 0.8132
C10 C 0.3566(11) 0.1744(3) 0.8693(2)
H8 H 0.4964 0.1726 0.8915
C11 C 0.1997(10) 0.2280(3) 0.8804(2)
H9 H 0.0588 0.2281 0.8585
C12 C 0.2219(9) 0.2877(3) 0.9234(2)
C13 C 0.4156(9) 0.2941(3) 0.9597(2)
H10 H 0.544 0.2594 0.9566
C14 C 0.4227(9) 0.3501(3) 0.9998(2)
H11 H 0.5554 0.3534 1.0242
C15 C 0.2383(10) 0.4017(3) 1.0049(2)
H12 H 0.2446 0.4403 1.0325
C16 C 0.0465(10) 0.3962(3) 0.9697(2)
H13 H -0.0803 0.4315 0.9731
C17 C 0.0354(10) 0.3397(3) 0.9290(2)
H14 H -0.0989 0.3364 0.9051
C18 C 0.4457(9) 0.0829(3) 0.7078(2)
C19 C 0.6259(10) 0.0727(3) 0.6687(2)
H15 H 0.7676 0.1018 0.6714
C20 C 0.6000(10) 0.0203(3) 0.6256(2)
H16 H 0.7212 0.0149 0.5983
C21 C 0.3968(11) -0.0238(3) 0.6228(3)
H17 H 0.3817 -0.0615 0.5947
C22 C 0.2162(10) -0.0131(3) 0.6611(2)
H18 H 0.0747 -0.0422 0.6581
C23 C 0.2387(10) 0.0396(3) 0.7036(2)
H19 H 0.1138 0.0462 0.7299
C24 C 0.3743(9) 0.2387(3) 0.7440(2)
C25 C 0.1695(11) 0.2430(3) 0.7109(2)
H20 H 0.1004 0.198 0.6963
C26 C 0.0685(11) 0.3122(3) 0.6995(3)
H21 H -0.0691 0.3147 0.6766
C27 C 0.1651(13) 0.3785(3) 0.7210(2)
H22 H 0.0935 0.426 0.7132
C28 C 0.3671(13) 0.3745(3) 0.7541(2)
H23 H 0.4334 0.4194 0.7694
C29 C 0.4717(12) 0.3052(3) 0.7647(3)
H24 H 0.6126 0.3031 0.7865
O1 O 0.0400(7) 0.0212(3) 0.88855(18)
O2 O 0.7626(6) 0.1549(2) 0.77658(17)
P1 P 0.5033(3) 0.14879(8) 0.76411(6)
loop_
_geom_bond_atom_site_label_1
_geom_bond_atom_site_label_2
_geom_bond_site_symmetry_1
_geom_bond_site_symmetry_2
Br1 C3 1_555 1_555
C1 H1 1_555 1_555
C2 C1 1_555 1_555
H2 C2 1_555 1_555
C3 C2 1_555 1_555
C4 C3 1_555 1_555
H3 C4 1_555 1_555
C5 C4 1_555 1_555
H4 C5 1_555 1_555
C6 C1 1_555 1_555
C7 C6 1_555 1_555
C8 C7 1_555 1_555
H5 C8 1_555 1_555
H6 C8 1_555 1_555
C9 C8 1_555 1_555
H7 C9 1_555 1_555
C10 C9 1_555 1_555
H8 C10 1_555 1_555
C11 C10 1_555 1_555
H9 C11 1_555 1_555
C12 C11 1_555 1_555
C13 C12 1_555 1_555
H10 C13 1_555 1_555
C14 C13 1_555 1_555
H11 C14 1_555 1_555
C15 C14 1_555 1_555
H12 C15 1_555 1_555
C16 C15 1_555 1_555
H13 C16 1_555 1_555
C17 C12 1_555 1_555
H14 C17 1_555 1_555
C18 C19 1_555 1_555
C19 H15 1_555 1_555
C20 C19 1_555 1_555
H16 C20 1_555 1_555
C21 C20 1_555 1_555
H17 C21 1_555 1_555
C22 C21 1_555 1_555
H18 C22 1_555 1_555
C23 C18 1_555 1_555
H19 C23 1_555 1_555
C24 C25 1_555 1_555
C25 H20 1_555 1_555
C26 C25 1_555 1_555
H21 C26 1_555 1_555
C27 C26 1_555 1_555
H22 C27 1_555 1_555
C28 C27 1_555 1_555
H23 C28 1_555 1_555
C29 C24 1_555 1_555
H24 C29 1_555 1_555
O1 C7 1_555 1_555
O2 P1 1_555 1_555
P1 C9 1_555 1_555
C5 C6 1_555 1_555
C16 C17 1_555 1_555
C18 P1 1_555 1_555
C22 C23 1_555 1_555
C24 P1 1_555 1_555
C28 C29 1_555 1_555

#END
