
#######################################################################
#
#                 Cambridge Crystallographic Data Centre
#                                CCDC 
#
#######################################################################
#
# If this CIF has been generated from an entry in the Cambridge 
# Structural Database, then it will include bibliographic, chemical, 
# crystal, experimental, refinement or atomic coordinate data resulting 
# from the CCDC's data processing and validation procedures.
#
#######################################################################

data_VUZJUW
_chemical_formula_moiety         'C22 H20 Cl1 N5 O1'
_chemical_name_systematic        
4-((5-Chloro-3-methyl-1-phenyl-1H-pyrazol-4-yl)methylideneamino)-1,5-dimethyl-2-phenyl-1H-pyrazol-3(2H)-one
_symmetry_cell_setting           monoclinic
_symmetry_space_group_name_H-M   'P 21/n'
_symmetry_Int_Tables_number      14
_space_group_name_Hall           '-P 2yn'
loop_
_symmetry_equiv_pos_site_id
_symmetry_equiv_pos_as_xyz
1 x,y,z
2 1/2-x,1/2+y,1/2-z
3 -x,-y,-z
4 1/2+x,1/2-y,1/2+z
_cell_length_a                   8.3982(17)
_cell_length_b                   9.5204(19)
_cell_length_c                   24.401(5)
_cell_angle_alpha                90
_cell_angle_beta                 97.24(3)
_cell_angle_gamma                90
_cell_volume                     1935.41
_exptl_crystal_colour            'pale yellow'
_exptl_crystal_description       block
_cell_formula_units_Z            4
loop_
_atom_site_label
_atom_site_type_symbol
_atom_site_fract_x
_atom_site_fract_y
_atom_site_fract_z
Cl1 Cl 0.56582(6) 0.05661(6) 0.08916(2)
O1 O 0.75786(16) 0.36105(15) -0.04914(6)
N1 N 0.80398(18) -0.09683(17) 0.14372(6)
N2 N 0.96786(17) -0.11576(16) 0.14899(6)
N3 N 1.03166(18) 0.19175(16) 0.02437(6)
N4 N 0.98109(19) 0.45266(17) -0.08446(6)
N5 N 1.14617(18) 0.42156(17) -0.07913(6)
C1 C 0.7142(2) -0.1746(2) 0.17966(8)
C2 C 0.5695(2) -0.2379(2) 0.16005(8)
H1 H 0.5247 -0.2262 0.1226
C3 C 0.4910(2) -0.3182(2) 0.19566(9)
H2 H 0.3912 -0.3610 0.1826
C4 C 0.5566(2) -0.3368(2) 0.25005(9)
H3 H 0.5026 -0.3927 0.2742
C5 C 0.7015(2) -0.2736(2) 0.26924(8)
H4 H 0.7469 -0.2867 0.3066
C6 C 0.7808(2) -0.1913(2) 0.23432(8)
H5 H 0.8794 -0.1468 0.2477
C7 C 0.7592(2) 0.0000(2) 0.10393(8)
C8 C 0.8934(2) 0.04644(19) 0.08215(8)
C9 C 1.0207(2) -0.0306(2) 0.11224(7)
C10 C 1.1952(2) -0.0254(2) 0.10710(8)
H6 H 1.2521 -0.0946 0.1321
H7 H 1.2366 0.0688 0.1168
H8 H 1.2119 -0.0470 0.0690
C11 C 0.8978(2) 0.14939(19) 0.03858(8)
H9 H 0.8001 0.1860 0.0203
C12 C 1.0353(2) 0.2915(2) -0.01714(8)
C13 C 1.1767(2) 0.3331(2) -0.03503(7)
C14 C 1.3431(2) 0.2994(2) -0.01061(8)
H10 H 1.4097 0.2833 -0.0402
H11 H 1.3425 0.2145 0.0121
H12 H 1.3871 0.3779 0.0124
C15 C 0.9051(2) 0.3662(2) -0.04929(8)
C16 C 1.2558(2) 0.5346(2) -0.09045(9)
H13 H 1.2703 0.5994 -0.0590
H14 H 1.2106 0.5856 -0.1237
H15 H 1.3598 0.4944 -0.0962
C17 C 0.9040(2) 0.5093(2) -0.13518(8)
C18 C 0.9457(2) 0.4650(2) -0.18560(8)
H16 H 1.0276 0.3968 -0.1870
C19 C 0.8665(2) 0.5215(2) -0.23385(8)
H17 H 0.8960 0.4932 -0.2685
C20 C 0.7448(2) 0.6188(2) -0.23199(8)
H18 H 0.6897 0.6560 -0.2652
C21 C 0.7038(2) 0.6615(2) -0.18128(9)
H19 H 0.6198 0.7278 -0.1799
C22 C 0.7844(2) 0.6082(2) -0.13259(8)
H20 H 0.7578 0.6393 -0.0979
loop_
_geom_bond_atom_site_label_1
_geom_bond_atom_site_label_2
_geom_bond_site_symmetry_1
_geom_bond_site_symmetry_2
Cl1 C7 1_555 1_555
O1 C15 1_555 1_555
N1 N2 1_555 1_555
N2 C9 1_555 1_555
N3 C11 1_555 1_555
N4 N5 1_555 1_555
N5 C13 1_555 1_555
C1 N1 1_555 1_555
C2 C1 1_555 1_555
H1 C2 1_555 1_555
C3 C2 1_555 1_555
H2 C3 1_555 1_555
C4 C3 1_555 1_555
H3 C4 1_555 1_555
C5 C4 1_555 1_555
H4 C5 1_555 1_555
C6 C1 1_555 1_555
H5 C6 1_555 1_555
C7 N1 1_555 1_555
C8 C7 1_555 1_555
C9 C8 1_555 1_555
C10 C9 1_555 1_555
H6 C10 1_555 1_555
H7 C10 1_555 1_555
H8 C10 1_555 1_555
C11 C8 1_555 1_555
H9 C11 1_555 1_555
C12 N3 1_555 1_555
C13 C12 1_555 1_555
C14 C13 1_555 1_555
H10 C14 1_555 1_555
H11 C14 1_555 1_555
H12 C14 1_555 1_555
C15 N4 1_555 1_555
C16 N5 1_555 1_555
H13 C16 1_555 1_555
H14 C16 1_555 1_555
H15 C16 1_555 1_555
C17 N4 1_555 1_555
C18 C17 1_555 1_555
H16 C18 1_555 1_555
C19 C18 1_555 1_555
H17 C19 1_555 1_555
C20 C19 1_555 1_555
H18 C20 1_555 1_555
C21 C20 1_555 1_555
H19 C21 1_555 1_555
C22 C17 1_555 1_555
H20 C22 1_555 1_555
C5 C6 1_555 1_555
C12 C15 1_555 1_555
C21 C22 1_555 1_555

#END
