
#######################################################################
#
#                 Cambridge Crystallographic Data Centre
#                                CCDC 
#
#######################################################################
#
# If this CIF has been generated from an entry in the Cambridge 
# Structural Database, then it will include bibliographic, chemical, 
# crystal, experimental, refinement or atomic coordinate data resulting 
# from the CCDC's data processing and validation procedures.
#
#######################################################################

data_VUZMEI
_chemical_formula_moiety         'C36 H44 N8 Si2'
_chemical_name_systematic        
1,6-bis(Trimethylsilyl)-3,4-bis(5-cyano-2-(diethylamino)-2H-indazol-3-yl)hex-3-ene-1,5-diyne
_symmetry_cell_setting           triclinic
_symmetry_space_group_name_H-M   'P -1'
_symmetry_Int_Tables_number      2
_space_group_name_Hall           '-P 1'
loop_
_symmetry_equiv_pos_site_id
_symmetry_equiv_pos_as_xyz
1 x,y,z
2 -x,-y,-z
_cell_length_a                   9.2640(10)
_cell_length_b                   10.3494(11)
_cell_length_c                   11.3182(12)
_cell_angle_alpha                76.972(9)
_cell_angle_beta                 81.752(9)
_cell_angle_gamma                72.543(9)
_cell_volume                     1005.17
_exptl_crystal_colour            colorless
_exptl_crystal_description       prism
_chemical_melting_point          '239.8-241.5 deg.C'
_cell_formula_units_Z            1
loop_
_atom_site_label
_atom_site_type_symbol
_atom_site_fract_x
_atom_site_fract_y
_atom_site_fract_z
Si1 Si 0.9256(1) 0.6334(1) 0.25990(9)
N1 N 0.7202(3) 0.0865(2) 0.6022(2)
N2 N 0.6850(2) 0.2068(2) 0.5202(2)
N3 N 0.7023(3) 0.2109(2) 0.3941(2)
N4 N 0.4730(5) 0.3563(4) 1.1004(3)
C1 C 0.6103(3) 0.2723(2) 0.6937(2)
C2 C 0.5583(3) 0.3357(3) 0.7946(2)
C3 C 0.5696(3) 0.2531(3) 0.9082(2)
C4 C 0.6322(4) 0.1076(4) 0.9230(3)
C5 C 0.6826(4) 0.0450(4) 0.8276(3)
C6 C 0.6746(3) 0.1286(3) 0.7097(2)
C7 C 0.6181(2) 0.3204(2) 0.5686(2)
C8 C 0.5718(2) 0.4597(2) 0.4938(2)
C9 C 0.6873(3) 0.5092(2) 0.4152(2)
C10 C 0.7839(3) 0.5536(3) 0.3524(2)
C11 C 0.5145(4) 0.3119(4) 1.0147(3)
C12 C 0.9802(6) 0.7316(6) 0.3621(6)
C14 C 0.8318(8) 0.7612(10) 0.1373(6)
C16 C 1.0927(8) 0.5024(9) 0.2237(9)
C18 C 0.8667(5) 0.1593(5) 0.3560(4)
C19 C 0.8856(7) 0.2006(8) 0.2165(5)
C20 C 0.6026(6) 0.1349(4) 0.3652(3)
C21 C 0.4406(6) 0.1991(5) 0.3991(4)
H1 H 0.517(3) 0.433(3) 0.787(2)
H2 H 0.634(4) 0.055(3) 0.997(3)
H3 H 0.725(3) -0.046(3) 0.827(2)
H4 H 0.890(4) 0.068(3) 0.390(3)
H5 H 0.941(3) 0.211(3) 0.395(2)
H6 H 0.975(5) 0.194(5) 0.207(4)
H7 H 0.88(2) 0.33(1) 0.19(1)
H8 H 0.838(7) 0.132(6) 0.190(5)
H9 H 0.636(3) 0.033(3) 0.406(3)
H10 H 0.616(3) 0.140(3) 0.281(3)
H11 H 0.399(4) 0.305(4) 0.362(3)
H12 H 0.374(4) 0.157(4) 0.373(3)
H13 H 0.412(4) 0.194(3) 0.497(3)
H14 H 1.0413 0.6679 0.4222
H15 H 1.0355 0.7918 0.3144
H16 H 0.8909 0.7840 0.4006
H17 H 0.8921 0.8223 0.1029
H18 H 0.8183 0.7166 0.0766
H19 H 0.7356 0.8119 0.1679
H20 H 1.1135 0.4295 0.2924
H21 H 1.0769 0.4676 0.1572
H22 H 1.1763 0.5407 0.2023
C8A C 0.4282(2) 0.5403(2) 0.5062(2)
C7A C 0.3819(2) 0.6796(2) 0.4314(2)
N2A N 0.3150(2) 0.7932(2) 0.4798(2)
N1A N 0.2798(3) 0.9135(2) 0.3978(2)
C6A C 0.3254(3) 0.8714(3) 0.2903(2)
C1A C 0.3897(3) 0.7277(2) 0.3063(2)
C2A C 0.4417(3) 0.6643(3) 0.2054(2)
C3A C 0.4304(3) 0.7469(3) 0.0918(2)
C4A C 0.3678(4) 0.8924(4) 0.0770(3)
C5A C 0.3174(4) 0.9550(4) 0.1724(3)
H3A H 0.275(3) 1.046(3) 0.173(2)
H2A H 0.366(4) 0.945(3) 0.003(3)
C11A C 0.4855(4) 0.6881(4) -0.0147(3)
N4A N 0.5270(5) 0.6437(4) -0.1004(3)
H1A H 0.483(3) 0.567(3) 0.213(2)
N3A N 0.2977(3) 0.7891(2) 0.6059(2)
C18A C 0.1333(5) 0.8407(5) 0.6440(4)
C19A C 0.1144(7) 0.7994(8) 0.7835(5)
H6A H 0.025(5) 0.806(5) 0.793(4)
H7A H 0.12(2) 0.67(1) 0.81(1)
H8A H 0.162(7) 0.868(6) 0.810(5)
H4A H 0.110(4) 0.932(3) 0.610(3)
H5A H 0.059(3) 0.789(3) 0.605(2)
C20A C 0.3974(6) 0.8651(4) 0.6348(3)
C21A C 0.5594(6) 0.8009(5) 0.6009(4)
H11A H 0.601(4) 0.695(4) 0.638(3)
H12A H 0.626(4) 0.843(4) 0.627(3)
H13A H 0.588(4) 0.806(3) 0.503(3)
H9A H 0.364(3) 0.967(3) 0.594(3)
H10A H 0.384(3) 0.860(3) 0.719(3)
C9A C 0.3127(3) 0.4908(2) 0.5848(2)
C10A C 0.2161(3) 0.4464(3) 0.6476(2)
Si1A Si 0.0744(1) 0.3666(1) 0.74010(9)
C12A C 0.0198(6) 0.2684(6) 0.6379(6)
H14A H -0.0413 0.3321 0.5778
H15A H -0.0355 0.2082 0.6856
H16A H 0.1091 0.2160 0.5994
C14A C 0.1682(8) 0.2388(10) 0.8627(6)
H17A H 0.1079 0.1777 0.8971
H18A H 0.1817 0.2834 0.9234
H19A H 0.2644 0.1881 0.8321
C16A C -0.0927(8) 0.4976(9) 0.7763(9)
H20A H -0.1135 0.5705 0.7076
H21A H -0.0769 0.5324 0.8428
H22A H -0.1763 0.4593 0.7977
C13? C 0.902(3) 0.601(3) 0.092(2)
C15? C 1.103(5) 0.523(4) 0.296(3)
C17? C 0.890(3) 0.806(3) 0.264(3)
loop_
_geom_bond_atom_site_label_1
_geom_bond_atom_site_label_2
_geom_bond_site_symmetry_1
_geom_bond_site_symmetry_2
Si1 C10 1_555 1_555
N1 N2 1_555 1_555
N2 N3 1_555 1_555
N3 C18 1_555 1_555
N4 C11 1_555 1_555
C1 C2 1_555 1_555
C2 C3 1_555 1_555
C3 C4 1_555 1_555
C4 C5 1_555 1_555
C5 C6 1_555 1_555
C6 N1 1_555 1_555
C7 N2 1_555 1_555
C8 C7 1_555 1_555
C9 C8 1_555 1_555
C10 C9 1_555 1_555
C11 C3 1_555 1_555
C12 Si1 1_555 1_555
C14 Si1 1_555 1_555
C16 Si1 1_555 1_555
C18 C19 1_555 1_555
C19 H6 1_555 1_555
C20 N3 1_555 1_555
C21 C20 1_555 1_555
H1 C2 1_555 1_555
H2 C4 1_555 1_555
H3 C5 1_555 1_555
H4 C18 1_555 1_555
H5 C18 1_555 1_555
H7 C19 1_555 1_555
H8 C19 1_555 1_555
H9 C20 1_555 1_555
H10 C20 1_555 1_555
H11 C21 1_555 1_555
H12 C21 1_555 1_555
H13 C21 1_555 1_555
H14 C12 1_555 1_555
H15 C12 1_555 1_555
H16 C12 1_555 1_555
H17 C14 1_555 1_555
H18 C14 1_555 1_555
H19 C14 1_555 1_555
H20 C16 1_555 1_555
H21 C16 1_555 1_555
H22 C16 1_555 1_555
C8A C8 1_555 1_555
C7A C8A 1_555 1_555
N2A C7A 1_555 1_555
N1A N2A 1_555 1_555
C6A N1A 1_555 1_555
C1A C7A 1_555 1_555
C2A C1A 1_555 1_555
C3A C2A 1_555 1_555
C4A C3A 1_555 1_555
C5A C6A 1_555 1_555
H3A C5A 1_555 1_555
H2A C4A 1_555 1_555
C11A C3A 1_555 1_555
N4A C11A 1_555 1_555
H1A C2A 1_555 1_555
N3A N2A 1_555 1_555
C18A N3A 1_555 1_555
C19A C18A 1_555 1_555
H6A C19A 1_555 1_555
H7A C19A 1_555 1_555
H8A C19A 1_555 1_555
H4A C18A 1_555 1_555
H5A C18A 1_555 1_555
C20A N3A 1_555 1_555
C21A C20A 1_555 1_555
H11A C21A 1_555 1_555
H12A C21A 1_555 1_555
H13A C21A 1_555 1_555
H9A C20A 1_555 1_555
H10A C20A 1_555 1_555
C9A C8A 1_555 1_555
C10A C9A 1_555 1_555
Si1A C10A 1_555 1_555
C12A Si1A 1_555 1_555
H14A C12A 1_555 1_555
H15A C12A 1_555 1_555
H16A C12A 1_555 1_555
C14A Si1A 1_555 1_555
H17A C14A 1_555 1_555
H18A C14A 1_555 1_555
H19A C14A 1_555 1_555
C16A Si1A 1_555 1_555
H20A C16A 1_555 1_555
H21A C16A 1_555 1_555
H22A C16A 1_555 1_555
C1 C6 1_555 1_555
C1 C7 1_555 1_555
C6A C1A 1_555 1_555
C4A C5A 1_555 1_555

#END
