
#######################################################################
#
#                 Cambridge Crystallographic Data Centre
#                                CCDC 
#
#######################################################################
#
# If this CIF has been generated from an entry in the Cambridge 
# Structural Database, then it will include bibliographic, chemical, 
# crystal, experimental, refinement or atomic coordinate data resulting 
# from the CCDC's data processing and validation procedures.
#
#######################################################################

data_VUZQOX
_chemical_formula_moiety         'C13 H17 N1 O1'
_chemical_name_systematic        N-Phenylcyclohexanecarboxamide
_symmetry_cell_setting           orthorhombic
_symmetry_space_group_name_H-M   'P c a 21'
_symmetry_Int_Tables_number      29
_space_group_name_Hall           'P 2c -2ac'
loop_
_symmetry_equiv_pos_site_id
_symmetry_equiv_pos_as_xyz
1 x,y,z
2 -x,-y,1/2+z
3 1/2+x,-y,z
4 1/2-x,y,1/2+z
_cell_length_a                   9.943(2)
_cell_length_b                   11.839(2)
_cell_length_c                   9.6514(19)
_cell_angle_alpha                90
_cell_angle_beta                 90
_cell_angle_gamma                90
_cell_volume                     1136.12
_exptl_crystal_colour            colorless
_exptl_crystal_description       block
_cell_formula_units_Z            4
loop_
_atom_site_label
_atom_site_type_symbol
_atom_site_fract_x
_atom_site_fract_y
_atom_site_fract_z
O1 O 0.22562(12) 0.24856(10) 0.38081(13)
N1 N 0.17317(13) 0.25866(10) 0.15287(15)
C1 C 0.48835(17) 0.24779(12) 0.16381(19)
H1 H 0.4512 0.2918 0.0854
H2 H 0.5133 0.3014 0.2382
C2 C 0.61342(18) 0.18387(14) 0.11590(18)
H3 H 0.5904 0.1367 0.0346
H4 H 0.6832 0.2387 0.0871
C3 C 0.66924(17) 0.10871(15) 0.2307(2)
H5 H 0.7032 0.1566 0.3071
H6 H 0.7457 0.0642 0.1941
C4 C 0.56207(18) 0.02845(14) 0.2867(2)
H7 H 0.5996 -0.0153 0.3651
H8 H 0.5356 -0.0255 0.2133
C5 C 0.43777(16) 0.09411(13) 0.33568(18)
H9 H 0.3681 0.0404 0.3679
H10 H 0.4625 0.1434 0.4146
C6 C 0.38120(15) 0.16622(12) 0.21778(17)
H11 H 0.3575 0.1140 0.1401
C7 C 0.25333(16) 0.22777(12) 0.25968(16)
C8 C 0.05357(14) 0.32340(12) 0.16232(17)
C9 C -0.03152(16) 0.31722(13) 0.27635(18)
H12 H -0.0110 0.2681 0.3513
C10 C -0.14675(18) 0.38349(15) 0.2797(2)
H13 H -0.2045 0.3798 0.3580
C11 C -0.17880(18) 0.45468(14) 0.1711(2)
H14 H -0.2574 0.5002 0.1750
C12 C -0.09518(18) 0.45894(13) 0.0565(2)
H15 H -0.1174 0.5067 -0.0193
C13 C 0.02102(16) 0.39388(13) 0.05141(18)
H16 H 0.0782 0.3974 -0.0274
H17 H 0.204(2) 0.2485(15) 0.072(3)
loop_
_geom_bond_atom_site_label_1
_geom_bond_atom_site_label_2
_geom_bond_site_symmetry_1
_geom_bond_site_symmetry_2
O1 C7 1_555 1_555
N1 C7 1_555 1_555
C1 H1 1_555 1_555
H2 C1 1_555 1_555
C2 C1 1_555 1_555
H3 C2 1_555 1_555
H4 C2 1_555 1_555
C3 C2 1_555 1_555
H5 C3 1_555 1_555
H6 C3 1_555 1_555
C4 C3 1_555 1_555
H7 C4 1_555 1_555
H8 C4 1_555 1_555
C5 C4 1_555 1_555
H9 C5 1_555 1_555
H10 C5 1_555 1_555
C6 C1 1_555 1_555
H11 C6 1_555 1_555
C7 C6 1_555 1_555
C8 N1 1_555 1_555
C9 C8 1_555 1_555
H12 C9 1_555 1_555
C10 C9 1_555 1_555
H13 C10 1_555 1_555
C11 C10 1_555 1_555
H14 C11 1_555 1_555
C12 C11 1_555 1_555
H15 C12 1_555 1_555
C13 C8 1_555 1_555
H16 C13 1_555 1_555
H17 N1 1_555 1_555
C5 C6 1_555 1_555
C12 C13 1_555 1_555

#END
