
#######################################################################
#
#                 Cambridge Crystallographic Data Centre
#                                CCDC 
#
#######################################################################
#
# If this CIF has been generated from an entry in the Cambridge 
# Structural Database, then it will include bibliographic, chemical, 
# crystal, experimental, refinement or atomic coordinate data resulting 
# from the CCDC's data processing and validation procedures.
#
#######################################################################

data_WABMAP
_chemical_formula_moiety         'C10 H16 Mg1 N2 O4 2+,2(C7 H4 F1 O2 1-)'
_chemical_name_systematic        
"Tetraaqua-(2,2'-bipyridine)-magnesium(ii) bis(4-fluorobenzoate)"
_symmetry_cell_setting           orthorhombic
_symmetry_space_group_name_H-M   'P b c n'
_symmetry_Int_Tables_number      60
_space_group_name_Hall           '-P 2n 2ab'
loop_
_symmetry_equiv_pos_site_id
_symmetry_equiv_pos_as_xyz
1 x,y,z
2 1/2-x,1/2-y,1/2+z
3 1/2+x,1/2-y,-z
4 -x,y,1/2-z
5 -x,-y,-z
6 1/2+x,1/2+y,1/2-z
7 1/2-x,1/2+y,z
8 x,-y,1/2+z
_cell_length_a                   27.911(6)
_cell_length_b                   12.423(3)
_cell_length_c                   7.5895(15)
_cell_angle_alpha                90
_cell_angle_beta                 90
_cell_angle_gamma                90
_cell_volume                     2631.57
_exptl_crystal_colour            colorless
_exptl_crystal_description       block
_cell_formula_units_Z            4
loop_
_atom_site_label
_atom_site_type_symbol
_atom_site_fract_x
_atom_site_fract_y
_atom_site_fract_z
Mg1 Mg 0.0000 0.29487(11) 0.2500
O1 O 0.05496(9) 0.4005(2) 0.2115(3)
H1 H 0.0576 0.4581 0.2632
H2 H 0.0657 0.4124 0.1128
O2 O -0.01046(8) 0.2966(2) -0.0187(3)
H3 H -0.0378 0.2905 -0.0568
H4 H 0.0122 0.3254 -0.0688
N1 N 0.04711(9) 0.1555(2) 0.2250(4)
C1 C 0.09402(13) 0.1603(3) 0.1902(5)
H5 H 0.1090 0.2271 0.1896
C2 C 0.12112(15) 0.0689(4) 0.1551(6)
H6 H 0.1537 0.0746 0.1312
C3 C 0.09930(15) -0.0285(4) 0.1561(6)
H7 H 0.1167 -0.0906 0.1313
C4 C 0.05129(15) -0.0346(3) 0.1944(6)
H8 H 0.0360 -0.1011 0.1969
C5 C 0.02579(12) 0.0585(3) 0.2293(4)
O1C O -0.05496(9) 0.4005(2) 0.2885(3)
H1C H -0.0576 0.4581 0.2368
H2C H -0.0657 0.4124 0.3872
O2C O 0.01046(8) 0.2966(2) 0.5187(3)
H3C H 0.0378 0.2905 0.5568
H4C H -0.0122 0.3254 0.5688
N1C N -0.04711(9) 0.1555(2) 0.2750(4)
C1C C -0.09402(13) 0.1603(3) 0.3098(5)
H5C H -0.1090 0.2271 0.3104
C2C C -0.12112(15) 0.0689(4) 0.3449(6)
H6C H -0.1537 0.0746 0.3688
C3C C -0.09930(15) -0.0285(4) 0.3439(6)
H7C H -0.1167 -0.0906 0.3687
C4C C -0.05129(15) -0.0346(3) 0.3056(6)
H8C H -0.0360 -0.1011 0.3031
C5C C -0.02579(12) 0.0585(3) 0.2707(4)
O3 O 0.40257(9) 0.2093(2) 0.1617(4)
O4 O 0.42874(8) 0.0949(2) 0.3633(3)
F1 F 0.20665(10) 0.0891(3) 0.5077(5)
C6 C 0.39599(12) 0.1476(3) 0.2874(5)
C7 C 0.34578(6) 0.1330(2) 0.3515(3)
C8 C 0.31097(9) 0.20812(19) 0.3063(4)
H9 H 0.3192 0.2683 0.2400
C9 C 0.26384(8) 0.1933(2) 0.3604(5)
H10 H 0.2405 0.2436 0.3302
C10 C 0.25153(7) 0.1034(3) 0.4595(4)
C11 C 0.28634(10) 0.0283(2) 0.5047(4)
H11 H 0.2781 -0.0319 0.5710
C12 C 0.33346(9) 0.0431(2) 0.4506(4)
H12 H 0.3568 -0.0072 0.4808
loop_
_geom_bond_atom_site_label_1
_geom_bond_atom_site_label_2
_geom_bond_site_symmetry_1
_geom_bond_site_symmetry_2
Mg1 O1 1_555 1_555
O1 H1 1_555 1_555
H2 O1 1_555 1_555
O2 Mg1 1_555 1_555
H3 O2 1_555 1_555
H4 O2 1_555 1_555
O3 C6 1_555 1_555
O4 C6 1_555 1_555
N1 Mg1 1_555 1_555
F1 C10 1_555 1_555
C1 N1 1_555 1_555
H5 C1 1_555 1_555
C2 C1 1_555 1_555
H6 C2 1_555 1_555
C3 C2 1_555 1_555
H7 C3 1_555 1_555
C4 C3 1_555 1_555
H8 C4 1_555 1_555
C5 N1 1_555 1_555
C6 C7 1_555 1_555
C7 C8 1_555 1_555
C8 H9 1_555 1_555
C9 C8 1_555 1_555
H10 C9 1_555 1_555
C10 C9 1_555 1_555
C11 C10 1_555 1_555
H11 C11 1_555 1_555
C12 C7 1_555 1_555
H12 C12 1_555 1_555
O1C Mg1 1_555 1_555
H1C O1C 1_555 1_555
H2C O1C 1_555 1_555
O2C Mg1 1_555 1_555
H3C O2C 1_555 1_555
H4C O2C 1_555 1_555
N1C Mg1 1_555 1_555
C1C N1C 1_555 1_555
H5C C1C 1_555 1_555
C2C C1C 1_555 1_555
H6C C2C 1_555 1_555
C3C C2C 1_555 1_555
H7C C3C 1_555 1_555
C4C C3C 1_555 1_555
H8C C4C 1_555 1_555
C5C C5 1_555 1_555
C4 C5 1_555 1_555
C11 C12 1_555 1_555
N1C C5C 1_555 1_555
C4C C5C 1_555 1_555

#END
