
#######################################################################
#
#                 Cambridge Crystallographic Data Centre
#                                CCDC 
#
#######################################################################
#
# If this CIF has been generated from an entry in the Cambridge 
# Structural Database, then it will include bibliographic, chemical, 
# crystal, experimental, refinement or atomic coordinate data resulting 
# from the CCDC's data processing and validation procedures.
#
#######################################################################

data_WABZEH
_chemical_formula_moiety         'C35 H27 Br1 O1'
_chemical_name_systematic        
6-bromo-4-(2,2-diphenylvinyl)-2,2-diphenylchromane
_symmetry_cell_setting           orthorhombic
_symmetry_space_group_name_H-M   'P c a 21'
_symmetry_Int_Tables_number      29
_space_group_name_Hall           'P 2c -2ac'
loop_
_symmetry_equiv_pos_site_id
_symmetry_equiv_pos_as_xyz
1 x,y,z
2 -x,-y,1/2+z
3 1/2+x,-y,z
4 1/2-x,y,1/2+z
_cell_length_a                   14.1800(12)
_cell_length_b                   10.8451(9)
_cell_length_c                   17.2333(15)
_cell_angle_alpha                90
_cell_angle_beta                 90
_cell_angle_gamma                90
_cell_volume                     2650.2
_exptl_crystal_colour            colorless
_exptl_crystal_description       block
_cell_formula_units_Z            4
loop_
_atom_site_label
_atom_site_type_symbol
_atom_site_fract_x
_atom_site_fract_y
_atom_site_fract_z
Br1 Br 0.09710(16) 0.8371(3) 0.4423(2)
O1 O 0.4578(3) 0.9406(4) 0.2870(3)
C1 C 0.2032(6) 0.8671(8) 0.3927(5)
C2 C 0.2356(6) 0.7849(7) 0.3398(5)
H1 H 0.1996 0.7157 0.3278
C3 C 0.3227(5) 0.8029(6) 0.3028(4)
C4 C 0.3737(5) 0.9105(6) 0.3211(4)
C5 C 0.3374(6) 0.9930(7) 0.3774(5)
H2 H 0.3718 1.0630 0.3905
C6 C 0.2558(6) 0.9722(7) 0.4115(5)
H3 H 0.2329 1.0276 0.4482
C7 C 0.3613(5) 0.7131(6) 0.2445(4)
H4 H 0.3872 0.6428 0.2731
C8 C 0.4412(5) 0.7708(6) 0.1986(4)
H5 H 0.4155 0.8278 0.1608
H6 H 0.4750 0.7068 0.1708
C9 C 0.5098(5) 0.8397(6) 0.2520(4)
C10 C 0.5881(5) 0.9031(6) 0.2054(4)
C11 C 0.6818(6) 0.8823(7) 0.2177(4)
H7 H 0.6995 0.8293 0.2575
C12 C 0.7521(6) 0.9373(8) 0.1728(5)
H8 H 0.8155 0.9209 0.1822
C13 C 0.7253(7) 1.0168(8) 0.1138(5)
H9 H 0.7711 1.0529 0.0826
C14 C 0.6333(7) 1.0424(8) 0.1014(5)
H10 H 0.6168 1.0984 0.0628
C15 C 0.5617(6) 0.9859(8) 0.1455(5)
H11 H 0.4985 1.0026 0.1356
C16 C 0.5499(5) 0.7560(7) 0.3145(5)
C17 C 0.5712(6) 0.6320(8) 0.2984(6)
H12 H 0.5593 0.5984 0.2498
C18 C 0.6108(6) 0.5606(9) 0.3575(7)
H13 H 0.6232 0.4781 0.3468
C19 C 0.6313(7) 0.6012(13) 0.4259(8)
H14 H 0.6602 0.5503 0.4622
C20 C 0.6075(7) 0.7318(12) 0.4454(6)
H15 H 0.6188 0.7635 0.4946
C21 C 0.5687(6) 0.8030(9) 0.3886(5)
H16 H 0.5544 0.8849 0.3994
C22 C 0.2873(5) 0.6637(6) 0.1887(4)
H17 H 0.2389 0.7168 0.1742
C23 C 0.2863(5) 0.5497(6) 0.1588(4)
C24 C 0.2216(4) 0.5150(6) 0.0962(4)
C25 C 0.1923(6) 0.5973(8) 0.0390(5)
H18 H 0.2159 0.6773 0.0388
C26 C 0.1290(7) 0.5620(10) -0.0169(5)
H19 H 0.1103 0.6193 -0.0539
C27 C 0.0943(6) 0.4517(11) -0.0199(5)
H20 H 0.0515 0.4306 -0.0585
C28 C 0.1218(7) 0.3638(10) 0.0357(6)
H21 H 0.0971 0.2844 0.0343
C29 C 0.1842(6) 0.3958(7) 0.0910(5)
H22 H 0.2031 0.3367 0.1269
C30 C 0.3538(4) 0.4536(6) 0.1881(4)
C31 C 0.3422(6) 0.3994(7) 0.2598(4)
H23 H 0.2923 0.4233 0.2914
C32 C 0.4051(7) 0.3088(8) 0.2853(6)
H24 H 0.3969 0.2731 0.3339
C33 C 0.4767(7) 0.2733(8) 0.2407(7)
H25 H 0.5178 0.2123 0.2579
C34 C 0.4901(7) 0.3265(9) 0.1692(7)
H26 H 0.5400 0.3007 0.1382
C35 C 0.4306(6) 0.4174(7) 0.1430(5)
H27 H 0.4416 0.4547 0.0953
loop_
_geom_bond_atom_site_label_1
_geom_bond_atom_site_label_2
_geom_bond_site_symmetry_1
_geom_bond_site_symmetry_2
Br1 C1 1_555 1_555
O1 C4 1_555 1_555
C1 C2 1_555 1_555
C2 H1 1_555 1_555
C3 C2 1_555 1_555
C4 C3 1_555 1_555
C5 C4 1_555 1_555
H2 C5 1_555 1_555
C6 C1 1_555 1_555
H3 C6 1_555 1_555
C7 C3 1_555 1_555
H4 C7 1_555 1_555
C8 C7 1_555 1_555
H5 C8 1_555 1_555
H6 C8 1_555 1_555
C9 O1 1_555 1_555
C10 C9 1_555 1_555
C11 C10 1_555 1_555
H7 C11 1_555 1_555
C12 C11 1_555 1_555
H8 C12 1_555 1_555
C13 C12 1_555 1_555
H9 C13 1_555 1_555
C14 C13 1_555 1_555
H10 C14 1_555 1_555
C15 C10 1_555 1_555
H11 C15 1_555 1_555
C16 C9 1_555 1_555
C17 C16 1_555 1_555
H12 C17 1_555 1_555
C18 C17 1_555 1_555
H13 C18 1_555 1_555
C19 C18 1_555 1_555
H14 C19 1_555 1_555
C20 C19 1_555 1_555
H15 C20 1_555 1_555
C21 C16 1_555 1_555
H16 C21 1_555 1_555
C22 C7 1_555 1_555
H17 C22 1_555 1_555
C23 C22 1_555 1_555
C24 C23 1_555 1_555
C25 C24 1_555 1_555
H18 C25 1_555 1_555
C26 C25 1_555 1_555
H19 C26 1_555 1_555
C27 C26 1_555 1_555
H20 C27 1_555 1_555
C28 C27 1_555 1_555
H21 C28 1_555 1_555
C29 C24 1_555 1_555
H22 C29 1_555 1_555
C30 C23 1_555 1_555
C31 C30 1_555 1_555
H23 C31 1_555 1_555
C32 C31 1_555 1_555
H24 C32 1_555 1_555
C33 C32 1_555 1_555
H25 C33 1_555 1_555
C34 C33 1_555 1_555
H26 C34 1_555 1_555
C35 C30 1_555 1_555
H27 C35 1_555 1_555
C5 C6 1_555 1_555
C8 C9 1_555 1_555
C14 C15 1_555 1_555
C20 C21 1_555 1_555
C28 C29 1_555 1_555
C34 C35 1_555 1_555

#END
