
#######################################################################
#
#                 Cambridge Crystallographic Data Centre
#                                CCDC 
#
#######################################################################
#
# If this CIF has been generated from an entry in the Cambridge 
# Structural Database, then it will include bibliographic, chemical, 
# crystal, experimental, refinement or atomic coordinate data resulting 
# from the CCDC's data processing and validation procedures.
#
#######################################################################

data_WACFAJ
_chemical_formula_moiety         'C26 H36 N2 O8'
_chemical_name_systematic        
"Tetraethyl 1,1'-ethane-1,2-diyl-bis(2,5-dimethyl-1H-pyrrole-3,4-dicarboxylate)"
_symmetry_cell_setting           monoclinic
_symmetry_space_group_name_H-M   'P c'
_symmetry_Int_Tables_number      7
_space_group_name_Hall           'P -2yc'
loop_
_symmetry_equiv_pos_site_id
_symmetry_equiv_pos_as_xyz
1 x,y,z
2 x,-y,1/2+z
_cell_length_a                   12.891(3)
_cell_length_b                   13.743(3)
_cell_length_c                   16.717(3)
_cell_angle_alpha                90
_cell_angle_beta                 113.350(14)
_cell_angle_gamma                90
_cell_volume                     2719.05
_exptl_crystal_colour            colorless
_exptl_crystal_description       block
_cell_formula_units_Z            4
loop_
_atom_site_label
_atom_site_type_symbol
_atom_site_fract_x
_atom_site_fract_y
_atom_site_fract_z
O1 O 0.6385(7) 0.3819(5) 0.1367(4)
O2 O 0.6668(5) 0.4974(4) 0.2316(3)
O3 O 0.7288(7) 0.4428(7) 0.4836(4)
O4 O 0.8112(5) 0.4230(4) 0.3945(3)
O5 O 0.0805(4) -0.1379(4) 0.0950(3)
O6 O 0.1269(4) -0.2452(3) 0.2036(3)
O7 O 0.3049(4) -0.2263(4) 0.4369(3)
O8 O 0.1351(3) -0.1624(3) 0.3687(3)
N1 N 0.4959(5) 0.2503(4) 0.3016(3)
N2 N 0.3699(5) 0.0020(4) 0.2865(3)
C1 C 0.5129(6) 0.2823(5) 0.2310(4)
C2 C 0.5991(6) 0.3500(5) 0.2616(4)
C3 C 0.6301(6) 0.3564(5) 0.3544(4)
C4 C 0.5637(5) 0.2912(5) 0.3764(4)
C5 C 0.4492(7) 0.2512(6) 0.1411(4)
H1 H 0.4740 0.1876 0.1326
H2 H 0.4618 0.2964 0.1020
H3 H 0.3701 0.2493 0.1295
C6 C 0.5673(7) 0.2669(6) 0.4622(5)
H4 H 0.6291 0.3005 0.5060
H5 H 0.5774 0.1980 0.4714
H6 H 0.4977 0.2861 0.4658
C7 C 0.7231(7) 0.4142(7) 0.4190(6)
C8 C 0.9070(9) 0.4896(9) 0.4463(6)
H7 H 0.8798 0.5560 0.4420
H8 H 0.9374 0.4707 0.5072
C9 C 0.9903(9) 0.4839(11) 0.4143(11)
H9 H 1.0497 0.5290 0.4451
H10 H 0.9590 0.4998 0.3534
H11 H 1.0203 0.4191 0.4221
C10 C 0.6377(7) 0.4101(6) 0.2051(5)
C11 C 0.7157(8) 0.5562(7) 0.1838(5)
H12 H 0.7847 0.5262 0.1856
H13 H 0.6633 0.5614 0.1234
C12 C 0.7393(9) 0.6497(7) 0.2222(8)
H14 H 0.6773 0.6926 0.1919
H15 H 0.8068 0.6747 0.2185
H16 H 0.7499 0.6454 0.2823
C13 C 0.4084(5) 0.1770(4) 0.2939(4)
H17 H 0.3417 0.1892 0.2414
H18 H 0.3874 0.1826 0.3434
C14 C 0.4509(5) 0.0752(5) 0.2907(4)
H19 H 0.4695 0.0694 0.2400
H20 H 0.5196 0.0644 0.3420
C15 C 0.3637(5) -0.0487(5) 0.3554(4)
C16 C 0.2756(5) -0.1119(4) 0.3244(3)
C17 C 0.2231(5) -0.0999(5) 0.2330(4)
C18 C 0.2818(5) -0.0299(5) 0.2104(4)
C19 C 0.2710(7) 0.0107(6) 0.1232(4)
H21 H 0.2518 0.0785 0.1201
H22 H 0.2127 -0.0238 0.0772
H23 H 0.3414 0.0031 0.1170
C20 C 0.4437(6) -0.0241(6) 0.4472(4)
H24 H 0.4261 -0.0633 0.4877
H25 H 0.4360 0.0434 0.4585
H26 H 0.5200 -0.0368 0.4539
C21 C 0.2419(6) -0.1726(5) 0.3819(4)
C22 C 0.0935(7) -0.2215(6) 0.4220(6)
H27 H 0.0929 -0.2895 0.4063
H28 H 0.1432 -0.2144 0.4830
C23 C -0.0193(8) -0.1911(9) 0.4089(8)
H29 H -0.0162 -0.1285 0.4352
H30 H -0.0517 -0.2376 0.4351
H31 H -0.0649 -0.1870 0.3476
C24 C 0.1352(6) -0.1593(5) 0.1703(4)
C25 C 0.0423(7) -0.3109(6) 0.1489(6)
H32 H 0.0602 -0.3318 0.1005
H33 H -0.0310 -0.2794 0.1259
C26 C 0.0408(9) -0.3958(7) 0.2035(7)
H34 H 0.1167 -0.4177 0.2358
H35 H -0.0026 -0.4474 0.1668
H36 H 0.0072 -0.3770 0.2432
O9 O 0.5561(4) 0.9699(4) 0.1424(3)
O10 O 0.7295(4) 0.9161(3) 0.2169(3)
O11 O 0.7871(4) 0.8930(4) 0.4889(3)
O12 O 0.7420(4) 0.9967(3) 0.3800(3)
O13 O 0.1588(5) 0.2854(4) 0.1302(3)
O14 O 0.0572(4) 0.3395(4) 0.2025(3)
O15 O 0.2457(5) 0.3679(4) 0.4697(3)
O16 O 0.2027(4) 0.2573(3) 0.3677(3)
N3 N 0.4994(4) 0.7494(4) 0.3027(3)
N4 N 0.3782(5) 0.5013(4) 0.2989(3)
C27 C 0.5838(5) 0.7816(5) 0.3766(4)
C28 C 0.6412(5) 0.8515(5) 0.3522(4)
C29 C 0.5865(5) 0.8617(5) 0.2585(4)
C30 C 0.4989(5) 0.7976(5) 0.2309(4)
C31 C 0.4202(6) 0.7749(5) 0.1407(4)
H37 H 0.4222 0.7064 0.1303
H38 H 0.4425 0.8102 0.1005
H39 H 0.3450 0.7935 0.1326
C32 C 0.6010(6) 0.7457(5) 0.4635(4)
H40 H 0.6363 0.6829 0.4725
H41 H 0.5294 0.7406 0.4683
H42 H 0.6487 0.7902 0.5068
C33 C 0.6200(6) 0.9234(6) 0.2012(4)
C34 C 0.7673(6) 0.9755(6) 0.1622(5)
H43 H 0.7564 1.0438 0.1710
H44 H 0.7245 0.9599 0.1013
C35 C 0.8860(7) 0.9555(8) 0.1858(6)
H45 H 0.9284 0.9768 0.2445
H46 H 0.9116 0.9895 0.1469
H47 H 0.8967 0.8868 0.1817
C36 C 0.7301(5) 0.9140(6) 0.4137(4)
C37 C 0.8286(7) 1.0645(6) 0.4332(5)
H48 H 0.8177 1.0789 0.4861
H49 H 0.9025 1.0349 0.4495
C38 C 0.8238(8) 1.1506(6) 0.3875(8)
H50 H 0.8778 1.1961 0.4248
H51 H 0.7493 1.1778 0.3685
H52 H 0.8410 1.1370 0.3377
C39 C 0.4157(5) 0.6754(4) 0.3000(4)
H53 H 0.3479 0.6841 0.2474
H54 H 0.3955 0.6843 0.3495
C40 C 0.4601(6) 0.5742(5) 0.3016(4)
H55 H 0.4803 0.5655 0.2520
H56 H 0.5278 0.5656 0.3541
C41 C 0.3053(6) 0.4518(5) 0.2249(4)
C42 C 0.2423(5) 0.3905(5) 0.2500(4)
C43 C 0.2723(5) 0.4021(4) 0.3397(4)
C44 C 0.3576(5) 0.4694(4) 0.3699(3)
C45 C 0.3057(7) 0.4778(6) 0.1375(4)
H57 H 0.2878 0.5455 0.1258
H58 H 0.2504 0.4392 0.0930
H59 H 0.3791 0.4652 0.1378
C46 C 0.4253(6) 0.5073(5) 0.4589(4)
H60 H 0.4093 0.4697 0.5010
H61 H 0.4060 0.5742 0.4624
H62 H 0.5043 0.5026 0.4705
C47 C 0.1503(7) 0.3337(6) 0.1879(4)
C48 C -0.0347(8) 0.2802(9) 0.1476(6)
H63 H -0.0690 0.3093 0.0902
H64 H -0.0069 0.2162 0.1415
C49 C -0.1135(10) 0.2716(11) 0.1827(9)
H65 H -0.0957 0.3158 0.2308
H66 H -0.1135 0.2062 0.2028
H67 H -0.1869 0.2869 0.1392
C50 C 0.2382(6) 0.3448(5) 0.3992(4)
C51 C 0.1578(7) 0.1949(6) 0.4156(5)
H68 H 0.2116 0.1905 0.4757
H69 H 0.0886 0.2231 0.4154
C52 C 0.1351(8) 0.1011(6) 0.3792(6)
H70 H 0.0690 0.1030 0.3257
H71 H 0.1224 0.0575 0.4192
H72 H 0.1984 0.0787 0.3677
loop_
_geom_bond_atom_site_label_1
_geom_bond_atom_site_label_2
_geom_bond_site_symmetry_1
_geom_bond_site_symmetry_2
O1 C10 1_555 1_555
O2 C10 1_555 1_555
O3 C7 1_555 1_555
O4 C7 1_555 1_555
O5 C24 1_555 1_555
O6 C24 1_555 1_555
O7 C21 1_555 1_555
O8 C21 1_555 1_555
N1 C1 1_555 1_555
N2 C14 1_555 1_555
C1 C2 1_555 1_555
C2 C3 1_555 1_555
C3 C4 1_555 1_555
C4 N1 1_555 1_555
C5 C1 1_555 1_555
H1 C5 1_555 1_555
H2 C5 1_555 1_555
H3 C5 1_555 1_555
C6 C4 1_555 1_555
H4 C6 1_555 1_555
H5 C6 1_555 1_555
H6 C6 1_555 1_555
C7 C3 1_555 1_555
C8 O4 1_555 1_555
H7 C8 1_555 1_555
H8 C8 1_555 1_555
C9 C8 1_555 1_555
H9 C9 1_555 1_555
H10 C9 1_555 1_555
H11 C9 1_555 1_555
C10 C2 1_555 1_555
C11 O2 1_555 1_555
H12 C11 1_555 1_555
H13 C11 1_555 1_555
C12 C11 1_555 1_555
H14 C12 1_555 1_555
H15 C12 1_555 1_555
H16 C12 1_555 1_555
C13 N1 1_555 1_555
H17 C13 1_555 1_555
H18 C13 1_555 1_555
C14 C13 1_555 1_555
H19 C14 1_555 1_555
H20 C14 1_555 1_555
C15 N2 1_555 1_555
C16 C15 1_555 1_555
C17 C16 1_555 1_555
C18 N2 1_555 1_555
C19 C18 1_555 1_555
H21 C19 1_555 1_555
H22 C19 1_555 1_555
H23 C19 1_555 1_555
C20 C15 1_555 1_555
H24 C20 1_555 1_555
H25 C20 1_555 1_555
H26 C20 1_555 1_555
C21 C16 1_555 1_555
C22 O8 1_555 1_555
H27 C22 1_555 1_555
H28 C22 1_555 1_555
C23 C22 1_555 1_555
H29 C23 1_555 1_555
H30 C23 1_555 1_555
H31 C23 1_555 1_555
C24 C17 1_555 1_555
C25 O6 1_555 1_555
H32 C25 1_555 1_555
H33 C25 1_555 1_555
C26 C25 1_555 1_555
H34 C26 1_555 1_555
H35 C26 1_555 1_555
H36 C26 1_555 1_555
O9 C33 1_555 1_555
O10 C33 1_555 1_555
O11 C36 1_555 1_555
O12 C36 1_555 1_555
O13 C47 1_555 1_555
O14 C47 1_555 1_555
O15 C50 1_555 1_555
O16 C50 1_555 1_555
N3 C27 1_555 1_555
N4 C40 1_555 1_555
C27 C28 1_555 1_555
C28 C29 1_555 1_555
C29 C30 1_555 1_555
C30 N3 1_555 1_555
C31 C30 1_555 1_555
H37 C31 1_555 1_555
H38 C31 1_555 1_555
H39 C31 1_555 1_555
C32 C27 1_555 1_555
H40 C32 1_555 1_555
H41 C32 1_555 1_555
H42 C32 1_555 1_555
C33 C29 1_555 1_555
C34 O10 1_555 1_555
H43 C34 1_555 1_555
H44 C34 1_555 1_555
C35 C34 1_555 1_555
H45 C35 1_555 1_555
H46 C35 1_555 1_555
H47 C35 1_555 1_555
C36 C28 1_555 1_555
C37 O12 1_555 1_555
H48 C37 1_555 1_555
H49 C37 1_555 1_555
C38 C37 1_555 1_555
H50 C38 1_555 1_555
H51 C38 1_555 1_555
H52 C38 1_555 1_555
C39 N3 1_555 1_555
H53 C39 1_555 1_555
H54 C39 1_555 1_555
C40 C39 1_555 1_555
H55 C40 1_555 1_555
H56 C40 1_555 1_555
C41 N4 1_555 1_555
C42 C41 1_555 1_555
C43 C42 1_555 1_555
C44 N4 1_555 1_555
C45 C41 1_555 1_555
H57 C45 1_555 1_555
H58 C45 1_555 1_555
H59 C45 1_555 1_555
C46 C44 1_555 1_555
H60 C46 1_555 1_555
H61 C46 1_555 1_555
H62 C46 1_555 1_555
C47 C42 1_555 1_555
C48 O14 1_555 1_555
H63 C48 1_555 1_555
H64 C48 1_555 1_555
C49 C48 1_555 1_555
H65 C49 1_555 1_555
H66 C49 1_555 1_555
H67 C49 1_555 1_555
C50 C43 1_555 1_555
C51 O16 1_555 1_555
H68 C51 1_555 1_555
H69 C51 1_555 1_555
C52 C51 1_555 1_555
H70 C52 1_555 1_555
H71 C52 1_555 1_555
H72 C52 1_555 1_555
C17 C18 1_555 1_555
C43 C44 1_555 1_555

#END
