
#######################################################################
#
#                 Cambridge Crystallographic Data Centre
#                                CCDC 
#
#######################################################################
#
# If this CIF has been generated from an entry in the Cambridge 
# Structural Database, then it will include bibliographic, chemical, 
# crystal, experimental, refinement or atomic coordinate data resulting 
# from the CCDC's data processing and validation procedures.
#
#######################################################################

data_WADDIP
_chemical_formula_moiety         'C17 H21 N1 O2'
_chemical_name_systematic        
2-(((2-Hydroxyphenyl)methyl)methylamino)-1-phenylpropan-1-ol
_symmetry_cell_setting           orthorhombic
_symmetry_space_group_name_H-M   'P 21 21 21'
_symmetry_Int_Tables_number      19
_space_group_name_Hall           'P 2ac 2ab'
loop_
_symmetry_equiv_pos_site_id
_symmetry_equiv_pos_as_xyz
1 x,y,z
2 1/2-x,-y,1/2+z
3 -x,1/2+y,1/2-z
4 1/2+x,1/2-y,-z
_cell_length_a                   6.0040(10)
_cell_length_b                   10.4510(10)
_cell_length_c                   23.790(3)
_cell_angle_alpha                90
_cell_angle_beta                 90
_cell_angle_gamma                90
_cell_volume                     1492.77
_exptl_crystal_colour            colorless
_exptl_crystal_description       block
_cell_formula_units_Z            4
_exptl_crystal_recrystallization_method dichloromethane/hexane
loop_
_atom_site_label
_atom_site_type_symbol
_atom_site_fract_x
_atom_site_fract_y
_atom_site_fract_z
N1 N 0.6882(3) 0.17953(16) 0.16647(6)
O1 O 0.7091(3) -0.03212(14) 0.26390(5)
H1 H 0.7976 -0.0616 0.2867
O2 O 0.9930(3) 0.35305(15) 0.15982(5)
H2 H 0.9148 0.2967 0.1735
C1 C 0.7225(4) 0.10431(19) 0.26442(8)
H3 H 0.8749 0.1283 0.2541
C2 C 0.5650(3) 0.1584(2) 0.21954(7)
H4 H 0.5186 0.2430 0.2328
C3 C 0.3518(4) 0.0804(2) 0.21174(9)
H5 H 0.2586 0.1213 0.1843
H6 H 0.2738 0.0752 0.2469
H7 H 0.3891 -0.0041 0.1991
C4 C 0.6762(4) 0.1575(2) 0.32261(8)
C5 C 0.8298(4) 0.2362(2) 0.34798(9)
H8 H 0.9585 0.2586 0.3286
C6 C 0.7969(5) 0.2826(2) 0.40162(11)
H9 H 0.9023 0.3359 0.4181
C7 C 0.6082(5) 0.2497(3) 0.43038(10)
H10 H 0.5865 0.2799 0.4667
C8 C 0.4503(5) 0.1722(2) 0.40599(10)
H11 H 0.3204 0.1518 0.4253
C9 C 0.4871(4) 0.1250(2) 0.35228(9)
H12 H 0.3826 0.0707 0.3360
C10 C 0.5666(3) 0.2637(2) 0.12710(8)
H13 H 0.4851 0.3278 0.1483
H14 H 0.4597 0.2134 0.1060
C11 C 0.7237(4) 0.3292(2) 0.08685(8)
C12 C 0.9293(4) 0.3746(2) 0.10531(8)
C13 C 1.0683(4) 0.4414(2) 0.07036(8)
H15 H 1.2057 0.4700 0.0833
C14 C 1.0029(4) 0.4660(2) 0.01572(8)
H16 H 1.0962 0.5120 -0.0080
C15 C 0.8016(4) 0.4230(2) -0.00363(8)
H17 H 0.7587 0.4401 -0.0404
C16 C 0.6622(4) 0.3543(2) 0.03128(8)
H18 H 0.5264 0.3245 0.0177
C17 C 0.7625(4) 0.0620(2) 0.13858(8)
H19 H 0.8479 0.0114 0.1645
H20 H 0.8533 0.0836 0.1067
H21 H 0.6352 0.0141 0.1263
loop_
_geom_bond_atom_site_label_1
_geom_bond_atom_site_label_2
_geom_bond_site_symmetry_1
_geom_bond_site_symmetry_2
N1 C2 1_555 1_555
O1 H1 1_555 1_555
O2 H2 1_555 1_555
C1 O1 1_555 1_555
H3 C1 1_555 1_555
C2 C1 1_555 1_555
H4 C2 1_555 1_555
C3 C2 1_555 1_555
H5 C3 1_555 1_555
H6 C3 1_555 1_555
H7 C3 1_555 1_555
C4 C1 1_555 1_555
C5 C4 1_555 1_555
H8 C5 1_555 1_555
C6 C5 1_555 1_555
H9 C6 1_555 1_555
C7 C6 1_555 1_555
H10 C7 1_555 1_555
C8 C7 1_555 1_555
H11 C8 1_555 1_555
C9 C4 1_555 1_555
H12 C9 1_555 1_555
C10 N1 1_555 1_555
H13 C10 1_555 1_555
H14 C10 1_555 1_555
C11 C10 1_555 1_555
C12 O2 1_555 1_555
C13 C12 1_555 1_555
H15 C13 1_555 1_555
C14 C13 1_555 1_555
H16 C14 1_555 1_555
C15 C14 1_555 1_555
H17 C15 1_555 1_555
C16 C11 1_555 1_555
H18 C16 1_555 1_555
C17 N1 1_555 1_555
H19 C17 1_555 1_555
H20 C17 1_555 1_555
H21 C17 1_555 1_555
C8 C9 1_555 1_555
C11 C12 1_555 1_555
C15 C16 1_555 1_555

#END
