
#######################################################################
#
#                 Cambridge Crystallographic Data Centre
#                                CCDC 
#
#######################################################################
#
# If this CIF has been generated from an entry in the Cambridge 
# Structural Database, then it will include bibliographic, chemical, 
# crystal, experimental, refinement or atomic coordinate data resulting 
# from the CCDC's data processing and validation procedures.
#
#######################################################################

data_WADGIT
_chemical_formula_moiety         'C30 H52 O5,2(H2 O1)'
_chemical_name_systematic        
'(3R,6R,12R,20S,24S)-20,24-Epoxydammarane-3,6,12,25-tetraol dihydrate'
_chemical_properties_biological  'cardioprotective effect on myocadial injury'
_symmetry_cell_setting           orthorhombic
_symmetry_space_group_name_H-M   'P 21 21 21'
_symmetry_Int_Tables_number      19
_space_group_name_Hall           'P 2ac 2ab'
loop_
_symmetry_equiv_pos_site_id
_symmetry_equiv_pos_as_xyz
1 x,y,z
2 1/2-x,-y,1/2+z
3 -x,1/2+y,1/2-z
4 1/2+x,1/2-y,-z
_cell_length_a                   11.4575(15)
_cell_length_b                   15.457(2)
_cell_length_c                   16.726(2)
_cell_angle_alpha                90
_cell_angle_beta                 90
_cell_angle_gamma                90
_cell_volume                     2962.15
_exptl_crystal_colour            colorless
_exptl_crystal_description       block
_cell_formula_units_Z            4
_exptl_crystal_recrystallization_method 'ethyl acetate'
loop_
_atom_site_label
_atom_site_type_symbol
_atom_site_fract_x
_atom_site_fract_y
_atom_site_fract_z
C1 C 0.7657(3) 0.50304(19) 0.18423(19)
H1 H 0.7841 0.5541 0.1541
H2 H 0.8326 0.4859 0.2149
H3 H 0.7017 0.5149 0.2196
C2 C 0.6080(2) 0.44716(19) 0.09599(19)
H4 H 0.6027 0.5058 0.0774
H5 H 0.5531 0.4384 0.1386
H6 H 0.5904 0.4083 0.0528
C3 C 0.7318(2) 0.42959(16) 0.12652(17)
C4 C 0.8223(2) 0.43365(17) 0.05835(17)
H7 H 0.8999 0.4327 0.0831
C5 C 0.8168(3) 0.35892(18) 0.00041(16)
H8 H 0.8769 0.3658 -0.0400
H9 H 0.7417 0.3588 -0.0262
C6 C 0.8343(3) 0.27323(17) 0.04358(15)
H10 H 0.9126 0.2716 0.0654
H11 H 0.8276 0.2265 0.0051
C7 C 0.7463(2) 0.25757(16) 0.11176(14)
C8 C 0.7455(2) 0.33919(15) 0.16833(15)
H12 H 0.8237 0.3405 0.1920
C9 C 0.6270(2) 0.23805(18) 0.07120(16)
H13 H 0.6200 0.2718 0.0232
H14 H 0.5648 0.2527 0.1072
H15 H 0.6227 0.1777 0.0581
C10 C 0.6633(2) 0.32106(15) 0.23917(16)
H16 H 0.5864 0.3064 0.2173
C11 C 0.7058(2) 0.24394(16) 0.28745(15)
H17 H 0.6510 0.2339 0.3307
H18 H 0.7802 0.2589 0.3114
C12 C 0.7209(2) 0.15891(15) 0.24068(14)
C13 C 0.5974(2) 0.12287(18) 0.22259(17)
H19 H 0.5619 0.1035 0.2714
H20 H 0.6036 0.0752 0.1860
H21 H 0.5504 0.1676 0.1992
C14 C 0.7921(2) 0.17999(15) 0.16346(15)
H22 H 0.8678 0.2000 0.1836
C15 C 0.8217(2) 0.09726(16) 0.11639(15)
H23 H 0.7500 0.0713 0.0970
H24 H 0.8690 0.1124 0.0704
C16 C 0.8869(2) 0.03177(16) 0.16698(15)
H25 H 0.9597 0.0583 0.1856
C17 C 0.8132(2) 0.00865(15) 0.23932(14)
H26 H 0.7367 -0.0091 0.2190
C18 C 0.7928(2) 0.09115(16) 0.29063(15)
C19 C 0.9103(3) 0.12856(18) 0.32081(17)
H27 H 0.8969 0.1624 0.3681
H28 H 0.9439 0.1645 0.2801
H29 H 0.9628 0.0820 0.3330
C20 C 0.7324(3) 0.05094(18) 0.36378(15)
H30 H 0.7330 0.0905 0.4088
H31 H 0.6523 0.0353 0.3516
C21 C 0.8061(3) -0.02966(19) 0.38146(16)
H32 H 0.7589 -0.0739 0.4068
H33 H 0.8705 -0.0153 0.4167
C22 C 0.8527(2) -0.06215(16) 0.29903(15)
H34 H 0.9382 -0.0629 0.3008
C23 C 0.8091(2) -0.15422(16) 0.28113(15)
C24 C 0.8690(3) -0.2194(2) 0.33484(18)
H35 H 0.8404 -0.2763 0.3230
H36 H 0.8529 -0.2057 0.3897
H37 H 0.9517 -0.2174 0.3258
C25 C 0.6758(2) -0.16592(19) 0.28239(19)
H38 H 0.6509 -0.1916 0.3325
H39 H 0.6368 -0.1106 0.2759
C26 C 0.6484(3) -0.2245(3) 0.2139(2)
H40 H 0.5886 -0.1991 0.1803
H41 H 0.6202 -0.2798 0.2334
C27 C 0.7600(2) -0.23660(17) 0.16702(16)
H42 H 0.7902 -0.2948 0.1777
C28 C 0.7516(3) -0.22421(18) 0.07639(16)
C29 C 0.6604(3) -0.2842(2) 0.0421(2)
H43 H 0.5848 -0.2681 0.0619
H44 H 0.6775 -0.3426 0.0577
H45 H 0.6609 -0.2800 -0.0152
C30 C 0.8687(3) -0.2400(2) 0.03777(18)
H46 H 0.8627 -0.2304 -0.0188
H47 H 0.8925 -0.2986 0.0475
H48 H 0.9253 -0.2011 0.0600
O1 O 0.71201(17) -0.13798(12) 0.05889(13)
H49 H 0.7640 -0.1033 0.0693
O2 O 0.84059(14) -0.17448(10) 0.19926(10)
O3 O 0.91541(18) -0.04074(11) 0.11696(11)
H50 H 0.8984 -0.0858 0.1401
O4 O 0.64852(19) 0.39272(12) 0.29256(12)
H51 H 0.7100 0.4020 0.3161
O5 O 0.81123(18) 0.51420(12) 0.01735(13)
H52 H 0.8679 0.5214 -0.0118
O6 O 0.1664(2) 0.9510(2) 0.11289(16)
H53 H 0.0926 0.9519 0.1058
H55 H 0.1989 0.9933 0.0921
H54 H 0.4471 0.4180 0.4365
H56 H 0.5268 0.4294 0.3756
O7 O 0.5037(2) 0.44817(18) 0.42014(16)
loop_
_geom_bond_atom_site_label_1
_geom_bond_atom_site_label_2
_geom_bond_site_symmetry_1
_geom_bond_site_symmetry_2
C1 H1 1_555 1_555
H2 C1 1_555 1_555
H3 C1 1_555 1_555
C2 H4 1_555 1_555
H5 C2 1_555 1_555
H6 C2 1_555 1_555
C3 C1 1_555 1_555
C4 C3 1_555 1_555
H7 C4 1_555 1_555
C5 C4 1_555 1_555
H8 C5 1_555 1_555
H9 C5 1_555 1_555
C6 C5 1_555 1_555
H10 C6 1_555 1_555
H11 C6 1_555 1_555
C7 C6 1_555 1_555
C8 C3 1_555 1_555
H12 C8 1_555 1_555
C9 C7 1_555 1_555
H13 C9 1_555 1_555
H14 C9 1_555 1_555
H15 C9 1_555 1_555
C10 C8 1_555 1_555
H16 C10 1_555 1_555
C11 C10 1_555 1_555
H17 C11 1_555 1_555
H18 C11 1_555 1_555
C12 C11 1_555 1_555
C13 C12 1_555 1_555
H19 C13 1_555 1_555
H20 C13 1_555 1_555
H21 C13 1_555 1_555
C14 C7 1_555 1_555
H22 C14 1_555 1_555
C15 C14 1_555 1_555
H23 C15 1_555 1_555
H24 C15 1_555 1_555
C16 C15 1_555 1_555
H25 C16 1_555 1_555
C17 C16 1_555 1_555
H26 C17 1_555 1_555
C18 C12 1_555 1_555
C19 C18 1_555 1_555
H27 C19 1_555 1_555
H28 C19 1_555 1_555
H29 C19 1_555 1_555
C20 C18 1_555 1_555
H30 C20 1_555 1_555
H31 C20 1_555 1_555
C21 C20 1_555 1_555
H32 C21 1_555 1_555
H33 C21 1_555 1_555
C22 C17 1_555 1_555
H34 C22 1_555 1_555
C23 C22 1_555 1_555
C24 C23 1_555 1_555
H35 C24 1_555 1_555
H36 C24 1_555 1_555
H37 C24 1_555 1_555
C25 C23 1_555 1_555
H38 C25 1_555 1_555
H39 C25 1_555 1_555
C26 C25 1_555 1_555
H40 C26 1_555 1_555
H41 C26 1_555 1_555
C27 C26 1_555 1_555
H42 C27 1_555 1_555
C28 C27 1_555 1_555
C29 C28 1_555 1_555
H43 C29 1_555 1_555
H44 C29 1_555 1_555
H45 C29 1_555 1_555
C30 C28 1_555 1_555
H46 C30 1_555 1_555
H47 C30 1_555 1_555
H48 C30 1_555 1_555
O1 C28 1_555 1_555
H49 O1 1_555 1_555
O2 C23 1_555 1_555
O3 C16 1_555 1_555
H50 O3 1_555 1_555
O4 C10 1_555 1_555
H51 O4 1_555 1_555
O5 C4 1_555 1_555
H52 O5 1_555 1_555
O6 H53 1_555 1_555
H54 O7 1_555 1_555
H55 O6 1_555 1_555
H56 O7 1_555 1_555
C2 C3 1_555 1_555
C7 C8 1_555 1_555
C12 C14 1_555 1_555
C17 C18 1_555 1_555
C21 C22 1_555 1_555
C27 O2 1_555 1_555

#END
