
#######################################################################
#
#                 Cambridge Crystallographic Data Centre
#                                CCDC 
#
#######################################################################
#
# If this CIF has been generated from an entry in the Cambridge 
# Structural Database, then it will include bibliographic, chemical, 
# crystal, experimental, refinement or atomic coordinate data resulting 
# from the CCDC's data processing and validation procedures.
#
#######################################################################

data_WADHAM
_chemical_formula_moiety         'C17 H17 Cl2 N1 O2 S1'
_chemical_name_systematic        
'2-Chloroethyl 2-(2-chlorophenyl)-2-(4,5,6,7-tetrahydrothieno[3,2-c]pyridin-5-yl)acetate'
_symmetry_cell_setting           monoclinic
_symmetry_space_group_name_H-M   'P 21/n'
_symmetry_Int_Tables_number      14
_space_group_name_Hall           '-P 2yn'
loop_
_symmetry_equiv_pos_site_id
_symmetry_equiv_pos_as_xyz
1 x,y,z
2 1/2-x,1/2+y,1/2-z
3 -x,-y,-z
4 1/2+x,1/2-y,1/2+z
_cell_length_a                   9.6890(10)
_cell_length_b                   11.2670(12)
_cell_length_c                   15.5670(16)
_cell_angle_alpha                90
_cell_angle_beta                 100.509(8)
_cell_angle_gamma                90
_cell_volume                     1670.88
_exptl_crystal_colour            colorless
_exptl_crystal_description       prism
_chemical_melting_point          '91.8-92.8 deg.C'
_cell_formula_units_Z            4
_exptl_crystal_recrystallization_method 'hexane/ethyl acetate'
loop_
_atom_site_label
_atom_site_type_symbol
_atom_site_fract_x
_atom_site_fract_y
_atom_site_fract_z
Cl1 Cl 0.04822(5) 0.57741(4) 0.11386(3)
Cl2 Cl 0.76621(5) 0.81053(4) 0.43330(3)
S1 S -0.27359(5) 0.25362(4) 0.37037(3)
O1 O 0.32239(15) 0.54792(13) 0.45403(9)
O2 O 0.39640(14) 0.66198(12) 0.35279(9)
N1 N 0.08010(16) 0.47629(13) 0.32205(10)
C1 C -0.1656(2) 0.13256(17) 0.36824(13)
H1 H -0.1959 0.0524 0.3685
C2 C -0.0317(2) 0.16624(17) 0.36612(13)
H2 H 0.0432 0.1120 0.3656
C3 C -0.01587(19) 0.29199(16) 0.36478(12)
C4 C -0.13725(19) 0.35097(16) 0.36683(12)
C5 C -0.1531(2) 0.48332(16) 0.36218(13)
H3 H -0.2034 0.5113 0.4083
H4 H -0.2085 0.5066 0.3048
C6 C -0.0070(2) 0.53980(16) 0.37471(13)
H5 H -0.0154 0.6242 0.3568
H6 H 0.0376 0.5364 0.4372
C7 C 0.11670(19) 0.35649(16) 0.35549(14)
H7 H 0.1803 0.3613 0.4129
H8 H 0.1657 0.3130 0.3146
C8 C 0.19666(18) 0.54645(15) 0.30224(12)
H9 H 0.1549 0.6221 0.2756
C9 C 0.26203(18) 0.48536(15) 0.23238(12)
C10 C 0.19866(18) 0.49132(16) 0.14532(12)
C11 C 0.2530(2) 0.43267(17) 0.08043(13)
H10 H 0.2070 0.4375 0.0212
C12 C 0.3751(2) 0.36703(16) 0.10307(13)
H11 H 0.4127 0.3261 0.0592
C13 C 0.44201(19) 0.36086(16) 0.18876(13)
H12 H 0.5268 0.3171 0.2039
C14 C 0.38540(19) 0.41882(15) 0.25317(13)
H13 H 0.4314 0.4131 0.3124
C15 C 0.31009(19) 0.58238(15) 0.37984(13)
C16 C 0.5174(2) 0.69884(17) 0.41623(13)
H14 H 0.5675 0.6293 0.4458
H15 H 0.4892 0.7517 0.4608
C17 C 0.6085(2) 0.76441(17) 0.36247(14)
H16 H 0.5577 0.8345 0.3342
H17 H 0.6316 0.7118 0.3162
loop_
_geom_bond_atom_site_label_1
_geom_bond_atom_site_label_2
_geom_bond_site_symmetry_1
_geom_bond_site_symmetry_2
Cl1 C10 1_555 1_555
Cl2 C17 1_555 1_555
S1 C1 1_555 1_555
O1 C15 1_555 1_555
O2 C15 1_555 1_555
N1 C6 1_555 1_555
C1 H1 1_555 1_555
C2 C1 1_555 1_555
H2 C2 1_555 1_555
C3 C2 1_555 1_555
C4 S1 1_555 1_555
C5 C4 1_555 1_555
H3 C5 1_555 1_555
H4 C5 1_555 1_555
C6 C5 1_555 1_555
H5 C6 1_555 1_555
H6 C6 1_555 1_555
C7 N1 1_555 1_555
H7 C7 1_555 1_555
H8 C7 1_555 1_555
C8 N1 1_555 1_555
H9 C8 1_555 1_555
C9 C8 1_555 1_555
C10 C9 1_555 1_555
C11 C10 1_555 1_555
H10 C11 1_555 1_555
C12 C11 1_555 1_555
H11 C12 1_555 1_555
C13 C12 1_555 1_555
H12 C13 1_555 1_555
C14 C9 1_555 1_555
H13 C14 1_555 1_555
C15 C8 1_555 1_555
C16 O2 1_555 1_555
H14 C16 1_555 1_555
H15 C16 1_555 1_555
C17 C16 1_555 1_555
H16 C17 1_555 1_555
H17 C17 1_555 1_555
C3 C4 1_555 1_555
C3 C7 1_555 1_555
C13 C14 1_555 1_555

#END
