
#######################################################################
#
#                 Cambridge Crystallographic Data Centre
#                                CCDC 
#
#######################################################################
#
# If this CIF has been generated from an entry in the Cambridge 
# Structural Database, then it will include bibliographic, chemical, 
# crystal, experimental, refinement or atomic coordinate data resulting 
# from the CCDC's data processing and validation procedures.
#
#######################################################################

data_WADPUO
_chemical_name_common            
'Amino(pyridin-2-yl)methaniminium chloride monohydrate'
_chemical_formula_moiety         'C6 H8 N3 1+,H2 O1,Cl1 1-'
_chemical_name_systematic        
'Pyridine-2-carboximidamidate chloride monohydrate'
_symmetry_cell_setting           triclinic
_symmetry_space_group_name_H-M   'P -1'
_symmetry_Int_Tables_number      2
_space_group_name_Hall           '-P 1'
loop_
_symmetry_equiv_pos_site_id
_symmetry_equiv_pos_as_xyz
1 x,y,z
2 -x,-y,-z
_cell_length_a                   7.2570(15)
_cell_length_b                   11.146(2)
_cell_length_c                   16.862(3)
_cell_angle_alpha                79.24(3)
_cell_angle_beta                 82.14(3)
_cell_angle_gamma                78.34(3)
_cell_volume                     1305.31
_exptl_crystal_colour            colorless
_exptl_crystal_description       block
_cell_formula_units_Z            6
loop_
_atom_site_label
_atom_site_type_symbol
_atom_site_fract_x
_atom_site_fract_y
_atom_site_fract_z
Cl1 Cl 0.17320(7) 0.30230(4) 0.10288(2)
O1 O 0.7888(3) 0.60439(14) 0.40146(10)
H1 H 0.690(4) 0.647(3) 0.4141(15)
H2 H 0.821(5) 0.635(3) 0.344(2)
N1 N 0.3062(2) 0.86483(13) -0.07194(8)
C1 C 0.3052(3) 0.98536(18) -0.07462(13)
H3 H 0.336(4) 1.031(2) -0.1243(15)
N2 N 0.1754(2) 0.60101(14) 0.06004(10)
H6 H 0.111(4) 0.629(2) 0.1009(15)
H7 H 0.180(3) 0.513(2) 0.0663(12)
C2 C 0.2604(3) 1.04352(17) -0.00802(14)
H8 H 0.261(3) 1.131(2) -0.0152(12)
N3 N 0.3540(2) 0.61884(14) -0.06282(9)
H11 H 0.410(3) 0.669(2) -0.1007(13)
H12 H 0.350(3) 0.544(2) -0.0696(12)
C3 C 0.2174(3) 0.97567(18) 0.06587(13)
H13 H 0.189(3) 1.014(2) 0.1127(14)
C4 C 0.2181(3) 0.85015(18) 0.07107(11)
H14 H 0.192(3) 0.800(2) 0.1214(14)
C5 C 0.2600(2) 0.80020(14) 0.00027(9)
C6 C 0.2627(2) 0.66679(14) -0.00077(9)
Cl2 Cl 0.13596(7) 0.30724(4) -0.21061(3)
O2 O 0.3482(2) 0.37193(13) -0.07519(9)
H4 H 0.305(4) 0.345(2) -0.0273(16)
H5 H 0.297(4) 0.351(2) -0.1073(17)
Cl3 Cl 0.43514(7) 0.80296(4) 0.45146(3)
O3 O 0.4557(3) 0.86529(14) 0.26022(10)
H9 H 0.561(5) 0.826(3) 0.2445(19)
H10 H 0.448(5) 0.831(3) 0.316(2)
N4 N 0.4303(2) 0.37190(13) 0.25233(9)
C7 C 0.4055(3) 0.49449(19) 0.24780(13)
H15 H 0.446(3) 0.542(2) 0.2001(13)
N5 N 0.4363(3) 0.09814(16) 0.39452(10)
H16 H 0.440(3) 0.014(2) 0.4040(13)
H17 H 0.456(3) 0.128(2) 0.4371(15)
C8 C 0.3223(3) 0.55573(19) 0.31194(14)
H18 H 0.311(4) 0.648(2) 0.3024(15)
N6 N 0.3872(2) 0.12940(15) 0.25963(10)
H19 H 0.413(3) 0.045(2) 0.2600(13)
H20 H 0.360(3) 0.187(2) 0.2153(13)
C9 C 0.2613(3) 0.4879(2) 0.38308(14)
H21 H 0.207(4) 0.528(2) 0.4224(16)
C10 C 0.2851(3) 0.36072(18) 0.38966(12)
H22 H 0.241(3) 0.3113(19) 0.4350(12)
C11 C 0.3718(2) 0.30783(15) 0.32274(10)
C12 C 0.4002(2) 0.17137(16) 0.32577(10)
N7 N -0.0617(2) 0.10605(13) 0.39607(8)
C13 C -0.0357(3) -0.01675(19) 0.40054(13)
H23 H -0.005(3) -0.059(2) 0.4527(13)
N8 N -0.0909(2) 0.38620(15) 0.25737(9)
H24 H -0.032(3) 0.359(2) 0.2128(15)
H25 H -0.111(3) 0.470(2) 0.2526(14)
C14 C -0.0480(3) -0.07293(19) 0.33556(13)
H26 H -0.030(3) -0.160(2) 0.3423(13)
N9 N -0.2026(2) 0.35240(16) 0.39229(10)
H27 H -0.215(3) 0.430(2) 0.3963(13)
H28 H -0.232(3) 0.299(2) 0.4342(14)
C15 C -0.0891(3) -0.00047(19) 0.26314(12)
H29 H -0.103(4) -0.035(2) 0.2163(15)
C16 C -0.1160(3) 0.12748(18) 0.25641(10)
H30 H -0.146(3) 0.1764(18) 0.2077(12)
C17 C -0.1009(2) 0.17539(15) 0.32452(9)
C18 C -0.1327(2) 0.31196(15) 0.32427(9)
loop_
_geom_bond_atom_site_label_1
_geom_bond_atom_site_label_2
_geom_bond_site_symmetry_1
_geom_bond_site_symmetry_2
O1 H1 1_555 1_555
H2 O1 1_555 1_555
N1 C1 1_555 1_555
C1 H3 1_555 1_555
O2 H4 1_555 1_555
H5 O2 1_555 1_555
N2 H6 1_555 1_555
H7 N2 1_555 1_555
C2 C1 1_555 1_555
H8 C2 1_555 1_555
O3 H9 1_555 1_555
H10 O3 1_555 1_555
N3 H11 1_555 1_555
H12 N3 1_555 1_555
C3 C2 1_555 1_555
H13 C3 1_555 1_555
C4 C3 1_555 1_555
H14 C4 1_555 1_555
C5 N1 1_555 1_555
C6 N2 1_555 1_555
N4 C7 1_555 1_555
C7 H15 1_555 1_555
N5 H16 1_555 1_555
H17 N5 1_555 1_555
C8 C7 1_555 1_555
H18 C8 1_555 1_555
N6 H19 1_555 1_555
H20 N6 1_555 1_555
C9 C8 1_555 1_555
H21 C9 1_555 1_555
C10 C9 1_555 1_555
H22 C10 1_555 1_555
C11 N4 1_555 1_555
C12 N5 1_555 1_555
N7 C13 1_555 1_555
C13 H23 1_555 1_555
N8 H24 1_555 1_555
H25 N8 1_555 1_555
C14 C13 1_555 1_555
H26 C14 1_555 1_555
N9 H27 1_555 1_555
H28 N9 1_555 1_555
C15 C14 1_555 1_555
H29 C15 1_555 1_555
C16 C15 1_555 1_555
H30 C16 1_555 1_555
C17 N7 1_555 1_555
C18 N8 1_555 1_555
N3 C6 1_555 1_555
C4 C5 1_555 1_555
C5 C6 1_555 1_555
N6 C12 1_555 1_555
C10 C11 1_555 1_555
C11 C12 1_555 1_555
N9 C18 1_555 1_555
C16 C17 1_555 1_555
C17 C18 1_555 1_555

#END
