
#######################################################################
#
#                 Cambridge Crystallographic Data Centre
#                                CCDC 
#
#######################################################################
#
# If this CIF has been generated from an entry in the Cambridge 
# Structural Database, then it will include bibliographic, chemical, 
# crystal, experimental, refinement or atomic coordinate data resulting 
# from the CCDC's data processing and validation procedures.
#
#######################################################################

data_WADRUQ
_chemical_formula_moiety         'C18 H21 N3 O2,H2 O1'
_chemical_name_systematic        
'2-(3-Morpholinopropyl)-2,3-dihydro-1H-pyrrolo[3,4-b]quinolin-1-one monohydrate'
_symmetry_cell_setting           orthorhombic
_symmetry_space_group_name_H-M   'P b c a'
_symmetry_Int_Tables_number      61
_space_group_name_Hall           '-P 2ac 2ab'
loop_
_symmetry_equiv_pos_site_id
_symmetry_equiv_pos_as_xyz
1 x,y,z
2 1/2-x,-y,1/2+z
3 -x,1/2+y,1/2-z
4 1/2+x,1/2-y,-z
5 -x,-y,-z
6 1/2+x,y,1/2-z
7 x,1/2-y,1/2+z
8 1/2-x,1/2+y,z
_cell_length_a                   7.0107(16)
_cell_length_b                   12.655(3)
_cell_length_c                   37.609(9)
_cell_angle_alpha                90
_cell_angle_beta                 90
_cell_angle_gamma                90
_cell_volume                     3336.69
_exptl_crystal_colour            colorless
_exptl_crystal_description       block
_cell_formula_units_Z            8
_exptl_crystal_recrystallization_method 'petroleum ether/dichloromethane'
loop_
_atom_site_label
_atom_site_type_symbol
_atom_site_fract_x
_atom_site_fract_y
_atom_site_fract_z
N1 N 0.1806(3) 0.84470(14) 0.25789(5)
O1 O 0.1534(3) 1.07919(12) 0.35666(4)
N2 N 0.1728(3) 0.89892(13) 0.35114(5)
N3 N -0.1048(3) 0.66704(14) 0.44146(5)
O2 O -0.2365(3) 0.47670(15) 0.47362(5)
C1 C 0.1586(3) 1.02874(17) 0.23807(6)
C2 C 0.1701(3) 0.91850(17) 0.23121(6)
C3 C 0.1701(4) 0.8838(2) 0.19565(6)
H1 H 0.1744 0.8119 0.1907
C4 C 0.1522(4) 1.09912(19) 0.20898(7)
H2 H 0.1446 1.1714 0.2132
C5 C 0.1638(4) 0.9544(2) 0.16832(7)
H3 H 0.1642 0.9301 0.1450
C6 C 0.1569(4) 1.0629(2) 0.17496(7)
H4 H 0.1554 1.1104 0.1561
C7 C 0.1791(3) 0.88333(16) 0.29006(6)
C8 C 0.1644(3) 0.99006(16) 0.29942(5)
C9 C 0.1624(3) 0.99828(17) 0.33838(6)
C10 C 0.1545(3) 1.06426(17) 0.27334(6)
H5 H 0.1454 1.1358 0.2787
C11 C 0.1741(4) 0.87224(18) 0.38875(6)
H6 H 0.1305 0.9325 0.4025
H7 H 0.3034 0.8560 0.3961
C12 C 0.0266(4) 0.75468(17) 0.43519(6)
H8 H 0.1507 0.7370 0.4450
H9 H -0.0197 0.8171 0.4474
C13 C 0.0472(4) 0.77880(18) 0.39619(6)
H10 H 0.0990 0.7172 0.3843
H11 H -0.0781 0.7924 0.3863
C14 C -0.1663(5) 0.4788(2) 0.43826(7)
H12 H -0.2717 0.4900 0.4220
H13 H -0.1090 0.4111 0.4327
C15 C -0.1709(5) 0.6639(2) 0.47821(7)
H14 H -0.2290 0.7310 0.4844
H15 H -0.0636 0.6521 0.4940
C16 C -0.0214(4) 0.56444(18) 0.43321(7)
H16 H 0.0871 0.5517 0.4486
H17 H 0.0234 0.5641 0.4088
C17 C -0.3143(5) 0.5764(2) 0.48256(9)
H18 H -0.3581 0.5748 0.5070
H19 H -0.4237 0.5905 0.4675
C18 C 0.1877(4) 0.81867(18) 0.32341(6)
H20 H 0.0826 0.7690 0.3246
H21 H 0.3072 0.7803 0.3251
O3 O 0.5672(4) 0.72672(19) 0.39612(10)
H22 H 0.638(6) 0.695(3) 0.4116(10)
H23 H 0.506(6) 0.678(3) 0.3845(11)
loop_
_geom_bond_atom_site_label_1
_geom_bond_atom_site_label_2
_geom_bond_site_symmetry_1
_geom_bond_site_symmetry_2
N1 C2 1_555 1_555
O1 C9 1_555 1_555
N2 C9 1_555 1_555
N3 C12 1_555 1_555
O2 C14 1_555 1_555
C1 C2 1_555 1_555
C2 C3 1_555 1_555
C3 H1 1_555 1_555
C4 C1 1_555 1_555
H2 C4 1_555 1_555
C5 C3 1_555 1_555
H3 C5 1_555 1_555
C6 C4 1_555 1_555
H4 C6 1_555 1_555
C7 N1 1_555 1_555
C8 C7 1_555 1_555
C9 C8 1_555 1_555
C10 C1 1_555 1_555
H5 C10 1_555 1_555
C11 N2 1_555 1_555
H6 C11 1_555 1_555
H7 C11 1_555 1_555
C12 H8 1_555 1_555
H9 C12 1_555 1_555
C13 C11 1_555 1_555
H10 C13 1_555 1_555
H11 C13 1_555 1_555
C14 H12 1_555 1_555
H13 C14 1_555 1_555
C15 N3 1_555 1_555
H14 C15 1_555 1_555
H15 C15 1_555 1_555
C16 N3 1_555 1_555
H16 C16 1_555 1_555
H17 C16 1_555 1_555
C17 O2 1_555 1_555
H18 C17 1_555 1_555
H19 C17 1_555 1_555
C18 N2 1_555 1_555
H20 C18 1_555 1_555
H21 C18 1_555 1_555
O3 H22 1_555 1_555
H23 O3 1_555 1_555
C5 C6 1_555 1_555
C7 C18 1_555 1_555
C8 C10 1_555 1_555
C12 C13 1_555 1_555
C14 C16 1_555 1_555
C15 C17 1_555 1_555

#END
