
#######################################################################
#
#                 Cambridge Crystallographic Data Centre
#                                CCDC 
#
#######################################################################
#
# If this CIF has been generated from an entry in the Cambridge 
# Structural Database, then it will include bibliographic, chemical, 
# crystal, experimental, refinement or atomic coordinate data resulting 
# from the CCDC's data processing and validation procedures.
#
#######################################################################

data_WADSIG
_chemical_formula_moiety         'C8 H10 Cl2 O2'
_chemical_name_systematic        
2,4-dichloro-5-(prop-1-en-1-yl)cyclopent-4-ene-1,3-diol
_symmetry_cell_setting           monoclinic
_symmetry_space_group_name_H-M   'P 21'
_symmetry_Int_Tables_number      4
_space_group_name_Hall           'P 2yb'
loop_
_symmetry_equiv_pos_site_id
_symmetry_equiv_pos_as_xyz
1 x,y,z
2 -x,1/2+y,-z
_cell_length_a                   9.5552(8)
_cell_length_b                   4.9951(3)
_cell_length_c                   10.5583(7)
_cell_angle_alpha                90
_cell_angle_beta                 107.786(3)
_cell_angle_gamma                90
_cell_volume                     479.853
_exptl_crystal_colour            colorless
_exptl_crystal_description       needle
_cell_formula_units_Z            2
loop_
_atom_site_label
_atom_site_type_symbol
_atom_site_fract_x
_atom_site_fract_y
_atom_site_fract_z
C1 C 0.8000(3) 0.5673(5) 0.8919(2)
H1 H 0.7947 0.3965 0.9396
C2 C 0.6726(3) 0.7462(5) 0.8922(2)
C3 C 0.5550(2) 0.7191(6) 0.7843(2)
C4 C 0.5926(3) 0.5180(5) 0.6911(2)
H2 H 0.5526 0.3374 0.7021
C5 C 0.7606(3) 0.5148(5) 0.7426(2)
H3 H 0.7972 0.6694 0.7015
C6 C 0.4113(3) 0.8381(6) 0.7626(3)
H4 H 0.4036 0.9805 0.8198
C7 C 0.2885(3) 0.7635(7) 0.6685(3)
H5 H 0.2962 0.6317 0.6061
C8 C 0.1407(4) 0.8755(11) 0.6562(4)
H6 H 0.1491 1.0092 0.7261
H7 H 0.0751 0.7311 0.6656
H8 H 0.1004 0.9601 0.5688
O1 O 0.93890(19) 0.6866(4) 0.94717(19)
H9 H 1.0009 0.5681 0.9826
O2 O 0.5416(2) 0.5983(4) 0.55523(16)
H10 H 0.5185 0.4622 0.5066
Cl1 Cl 0.67945(7) 0.93434(13) 1.03091(6)
Cl2 Cl 0.84194(7) 0.21834(13) 0.70326(7)
loop_
_geom_bond_atom_site_label_1
_geom_bond_atom_site_label_2
_geom_bond_site_symmetry_1
_geom_bond_site_symmetry_2
C1 H1 1_555 1_555
C2 C1 1_555 1_555
C3 C2 1_555 1_555
C4 C3 1_555 1_555
H2 C4 1_555 1_555
C5 C1 1_555 1_555
H3 C5 1_555 1_555
C6 C3 1_555 1_555
H4 C6 1_555 1_555
C7 C6 1_555 1_555
H5 C7 1_555 1_555
C8 C7 1_555 1_555
H6 C8 1_555 1_555
H7 C8 1_555 1_555
H8 C8 1_555 1_555
O1 C1 1_555 1_555
H9 O1 1_555 1_555
O2 C4 1_555 1_555
H10 O2 1_555 1_555
Cl1 C2 1_555 1_555
Cl2 C5 1_555 1_555
C4 C5 1_555 1_555

#END
