
#######################################################################
#
#                 Cambridge Crystallographic Data Centre
#                                CCDC 
#
#######################################################################
#
# If this CIF has been generated from an entry in the Cambridge 
# Structural Database, then it will include bibliographic, chemical, 
# crystal, experimental, refinement or atomic coordinate data resulting 
# from the CCDC's data processing and validation procedures.
#
#######################################################################

data_WADXIK
_chemical_formula_moiety         'C13 H18 N2 O3'
_chemical_name_systematic        
't-Butyl 6-amino-3,4-dihydro-2H-1,4-benzoxazine-4-carboxylate'
_symmetry_cell_setting           monoclinic
_symmetry_space_group_name_H-M   'P 21/n'
_symmetry_Int_Tables_number      14
_space_group_name_Hall           '-P 2yn'
loop_
_symmetry_equiv_pos_site_id
_symmetry_equiv_pos_as_xyz
1 x,y,z
2 1/2-x,1/2+y,1/2-z
3 -x,-y,-z
4 1/2+x,1/2-y,1/2+z
_cell_length_a                   9.439(4)
_cell_length_b                   7.941(3)
_cell_length_c                   17.598(7)
_cell_angle_alpha                90
_cell_angle_beta                 97.235(6)
_cell_angle_gamma                90
_cell_volume                     1308.56
_exptl_crystal_colour            colorless
_exptl_crystal_description       block
_cell_formula_units_Z            4
_exptl_crystal_recrystallization_method dichloromethane/hexane
loop_
_atom_site_label
_atom_site_type_symbol
_atom_site_fract_x
_atom_site_fract_y
_atom_site_fract_z
O1 O 0.29075(9) 0.23440(12) 0.77441(5)
O2 O 0.27308(9) 0.60469(11) 0.55727(5)
O3 O 0.47393(9) 0.70065(11) 0.62807(5)
N1 N 0.36964(10) 0.45345(12) 0.65823(6)
N2 N 0.84770(11) 0.48161(15) 0.80355(7)
C1 C 0.46953(11) 0.41260(14) 0.72306(6)
C2 C 0.61108(12) 0.46877(14) 0.73224(6)
H1 H 0.6415 0.5440 0.6956
C3 C 0.70861(12) 0.41698(15) 0.79396(7)
C4 C 0.66399(13) 0.30549(15) 0.84764(7)
H2 H 0.7294 0.2684 0.8898
C5 C 0.52391(13) 0.24943(15) 0.83905(7)
H3 H 0.4941 0.1738 0.8757
C6 C 0.42614(12) 0.30153(15) 0.77789(7)
C7 C 0.18660(13) 0.31174(17) 0.71949(8)
H4 H 0.1574 0.4212 0.7395
H5 H 0.1010 0.2389 0.7105
C8 C 0.24682(13) 0.33916(16) 0.64505(7)
H6 H 0.2771 0.2301 0.6251
H7 H 0.1728 0.3884 0.6066
C9 C 0.37957(11) 0.59648(14) 0.61556(6)
C10 C 0.27444(13) 0.74056(16) 0.49941(7)
C11 C 0.25934(15) 0.91226(17) 0.53576(8)
H8 H 0.1790 0.9102 0.5660
H9 H 0.2419 0.9978 0.4955
H10 H 0.3474 0.9395 0.5692
C12 C 0.14095(16) 0.7002(2) 0.44419(8)
H11 H 0.1490 0.5864 0.4236
H12 H 0.1314 0.7817 0.4020
H13 H 0.0567 0.7065 0.4714
C13 C 0.40675(16) 0.7250(2) 0.45926(8)
H14 H 0.4910 0.7576 0.4946
H15 H 0.3977 0.7992 0.4144
H16 H 0.4171 0.6082 0.4429
H17 H 0.8731(17) 0.538(2) 0.7639(10)
H18 H 0.9124(19) 0.408(2) 0.8234(10)
loop_
_geom_bond_atom_site_label_1
_geom_bond_atom_site_label_2
_geom_bond_site_symmetry_1
_geom_bond_site_symmetry_2
O1 C6 1_555 1_555
O2 C9 1_555 1_555
O3 C9 1_555 1_555
N1 C1 1_555 1_555
N2 C3 1_555 1_555
C1 C2 1_555 1_555
C2 H1 1_555 1_555
C3 C2 1_555 1_555
C4 C3 1_555 1_555
H2 C4 1_555 1_555
C5 C4 1_555 1_555
H3 C5 1_555 1_555
C6 C1 1_555 1_555
C7 O1 1_555 1_555
H4 C7 1_555 1_555
H5 C7 1_555 1_555
C8 N1 1_555 1_555
H6 C8 1_555 1_555
H7 C8 1_555 1_555
C9 N1 1_555 1_555
C10 O2 1_555 1_555
C11 C10 1_555 1_555
H8 C11 1_555 1_555
H9 C11 1_555 1_555
H10 C11 1_555 1_555
C12 C10 1_555 1_555
H11 C12 1_555 1_555
H12 C12 1_555 1_555
H13 C12 1_555 1_555
C13 C10 1_555 1_555
H14 C13 1_555 1_555
H15 C13 1_555 1_555
H16 C13 1_555 1_555
H17 N2 1_555 1_555
H18 N2 1_555 1_555
C5 C6 1_555 1_555
C7 C8 1_555 1_555

#END
