
#######################################################################
#
#                 Cambridge Crystallographic Data Centre
#                                CCDC 
#
#######################################################################
#
# If this CIF has been generated from an entry in the Cambridge 
# Structural Database, then it will include bibliographic, chemical, 
# crystal, experimental, refinement or atomic coordinate data resulting 
# from the CCDC's data processing and validation procedures.
#
#######################################################################

data_WAFGAN
_chemical_name_common            
2,6-bis(2-fluoro-5-methoxybenzylidene)cyclohexanone
_chemical_formula_moiety         'C22 H20 F2 O3'
_chemical_name_systematic        
(2E,6E)-2,6-bis(2-fluoro-5-methoxybenzylidene)cyclohexan-1-one
_symmetry_cell_setting           triclinic
_symmetry_space_group_name_H-M   'P -1'
_symmetry_Int_Tables_number      2
_space_group_name_Hall           '-P 1'
loop_
_symmetry_equiv_pos_site_id
_symmetry_equiv_pos_as_xyz
1 x,y,z
2 -x,-y,-z
_cell_length_a                   9.2334(10)
_cell_length_b                   9.7601(11)
_cell_length_c                   21.433(2)
_cell_angle_alpha                90.195(2)
_cell_angle_beta                 100.568(2)
_cell_angle_gamma                92.934(2)
_cell_volume                     1896.11
_exptl_crystal_colour            colorless
_exptl_crystal_description       block
_cell_formula_units_Z            4
loop_
_atom_site_label
_atom_site_type_symbol
_atom_site_fract_x
_atom_site_fract_y
_atom_site_fract_z
F1 F 0.64586(15) -0.51316(13) 0.03944(7)
O1 O 0.59989(17) -0.11281(16) -0.08404(7)
O2 O 0.94423(17) 0.60048(16) -0.09902(8)
F2 F 0.94845(17) 0.08313(16) -0.19582(7)
C1 C 0.7533(2) 0.0813(2) -0.04416(10)
C2 C 0.6674(2) -0.0492(2) -0.03706(10)
C3 C 0.9400(2) 0.4676(2) -0.12065(11)
C4 C 0.5428(2) -0.2508(2) 0.13952(10)
H1 H 0.5357 -0.1562 0.1412
C5 C 0.6657(2) -0.1030(2) 0.02818(10)
C6 C 0.8601(2) 0.3605(2) -0.09952(10)
H2 H 0.8033 0.3770 -0.0689
O3 O 0.4590(2) -0.25806(18) 0.23530(8)
C7 C 0.9460(3) 0.2116(2) -0.17015(11)
C8 C 0.6103(2) -0.2322(2) 0.03145(10)
H3 H 0.5820 -0.2785 -0.0072
C9 C 0.5881(2) -0.3100(2) 0.08760(10)
C10 C 0.7815(2) 0.1087(2) -0.10238(11)
H4 H 0.7441 0.0433 -0.1336
C11 C 0.6001(2) -0.4513(2) 0.08892(11)
C12 C 0.8626(2) 0.2266(2) -0.12325(10)
C13 C 0.7318(2) -0.0142(2) 0.08455(10)
H5 H 0.7671 -0.0722 0.1202
H6 H 0.6561 0.0409 0.0961
C14 C 0.5085(2) -0.3297(2) 0.18834(11)
C15 C 0.5209(3) -0.4707(3) 0.18760(12)
H7 H 0.4980 -0.5238 0.2208
C16 C 0.8076(3) 0.1678(2) 0.01397(10)
H8 H 0.7292 0.2237 0.0222
H9 H 0.8891 0.2288 0.0068
C19 C 0.5675(3) -0.5308(3) 0.13702(13)
H11 H 0.5766 -0.6252 0.1358
C20 C 1.0243(3) 0.4454(3) -0.16668(12)
H12 H 1.0792 0.5179 -0.1805
C21 C 1.0266(3) 0.3162(3) -0.19182(12)
H13 H 1.0820 0.3002 -0.2230
C22 C 0.8584(2) 0.0796(2) 0.07149(11)
H14 H 0.9384 0.0251 0.0638
H15 H 0.8948 0.1382 0.1083
C29 C 0.8455(3) 0.6307(3) -0.05740(13)
H18 H 0.7462 0.6047 -0.0775
H19 H 0.8534 0.7272 -0.0478
H20 H 0.8706 0.5804 -0.0188
C38 C 0.3954(4) -0.3343(3) 0.28049(13)
H29 H 0.3209 -0.3989 0.2589
H30 H 0.3517 -0.2730 0.3060
H31 H 0.4704 -0.3826 0.3072
C17 C 0.5255(3) 0.7126(3) 0.62792(12)
H10 H 0.5377 0.6186 0.6268
C18 C 0.3185(3) 0.5673(3) 0.51074(11)
O4 O 0.6789(2) 0.7139(2) 0.72684(9)
O5 O 0.2913(2) 0.5903(2) 0.39992(8)
C23 C 0.5948(3) 0.7889(3) 0.68033(13)
C24 C 0.2607(3) 0.5211(3) 0.44426(12)
F3 F -0.1739(2) 0.4179(2) 0.28990(8)
C25 C 0.1666(3) 0.3919(3) 0.43095(12)
C26 C 0.3691(3) 0.6978(3) 0.51894(12)
H16 H 0.3588 0.7492 0.4821
C27 C -0.0142(3) 0.2610(3) 0.34497(12)
C28 C 0.0179(3) 0.1235(3) 0.35708(12)
H17 H 0.1025 0.1030 0.3856
C30 C 0.4382(3) 0.7727(3) 0.57692(13)
C31 C 0.3083(3) 0.4666(3) 0.56284(12)
H21 H 0.3055 0.5166 0.6018
H22 H 0.3959 0.4139 0.5699
C32 C -0.1396(4) 0.2852(4) 0.30224(14)
C33 C 0.0852(3) 0.3759(3) 0.37287(13)
H23 H 0.0928 0.4493 0.3459
O6 O -0.0522(3) -0.1187(2) 0.33634(11)
F4 F 0.3415(3) 0.97700(19) 0.53269(11)
C34 C 0.1740(3) 0.3700(3) 0.54768(12)
H24 H 0.0863 0.4217 0.5457
H25 H 0.1757 0.3042 0.5816
C35 C 0.1653(3) 0.2928(3) 0.48495(12)
H26 H 0.2485 0.2349 0.4879
H27 H 0.0756 0.2343 0.4766
C36 C 0.5792(4) 0.9275(3) 0.68372(16)
H28 H 0.6264 0.9786 0.7190
C37 C -0.0755(3) 0.0179(4) 0.32694(15)
C39 C 0.4926(4) 0.9889(3) 0.6342(2)
H32 H 0.4792 1.0825 0.6358
C40 C -0.2011(4) 0.0478(4) 0.28457(16)
H33 H -0.2637 -0.0229 0.2643
C41 C -0.2339(4) 0.1829(5) 0.27229(16)
H34 H -0.3189 0.2037 0.2441
C42 C 0.4259(4) 0.9131(3) 0.58215(17)
C43 C 0.0799(4) -0.1549(4) 0.3739(2)
H35 H 0.1614 -0.1118 0.3581
H36 H 0.0861 -0.2527 0.3726
H37 H 0.0830 -0.1252 0.4169
C44 C 0.7647(4) 0.7839(3) 0.77809(15)
H38 H 0.8265 0.8535 0.7630
H39 H 0.8252 0.7208 0.8039
H40 H 0.7019 0.8258 0.8029
loop_
_geom_bond_atom_site_label_1
_geom_bond_atom_site_label_2
_geom_bond_site_symmetry_1
_geom_bond_site_symmetry_2
F1 C11 1_555 1_555
O1 C2 1_555 1_555
O2 C3 1_555 1_555
F2 C7 1_555 1_555
C1 C2 1_555 1_555
C2 C5 1_555 1_555
C3 C6 1_555 1_555
C4 H1 1_555 1_555
C5 C8 1_555 1_555
C6 H2 1_555 1_555
O3 C14 1_555 1_555
C7 C12 1_555 1_555
C8 H3 1_555 1_555
C9 C4 1_555 1_555
C10 C1 1_555 1_555
H4 C10 1_555 1_555
C11 C9 1_555 1_555
C12 C6 1_555 1_555
C13 C5 1_555 1_555
H5 C13 1_555 1_555
H6 C13 1_555 1_555
C14 C4 1_555 1_555
C15 C14 1_555 1_555
H7 C15 1_555 1_555
C16 C1 1_555 1_555
H8 C16 1_555 1_555
H9 C16 1_555 1_555
C17 H10 1_555 1_555
C18 C24 1_555 1_555
C19 C11 1_555 1_555
H11 C19 1_555 1_555
C20 C3 1_555 1_555
H12 C20 1_555 1_555
O4 C23 1_555 1_555
C21 C7 1_555 1_555
H13 C21 1_555 1_555
O5 C24 1_555 1_555
C22 C13 1_555 1_555
H14 C22 1_555 1_555
H15 C22 1_555 1_555
C23 C17 1_555 1_555
C24 C25 1_555 1_555
F3 C32 1_555 1_555
C25 C33 1_555 1_555
C26 C18 1_555 1_555
H16 C26 1_555 1_555
C27 C28 1_555 1_555
C28 H17 1_555 1_555
C29 O2 1_555 1_555
H18 C29 1_555 1_555
H19 C29 1_555 1_555
H20 C29 1_555 1_555
C30 C17 1_555 1_555
C31 C18 1_555 1_555
H21 C31 1_555 1_555
H22 C31 1_555 1_555
C32 C27 1_555 1_555
C33 C27 1_555 1_555
H23 C33 1_555 1_555
O6 C37 1_555 1_555
F4 C42 1_555 1_555
C34 C31 1_555 1_555
H24 C34 1_555 1_555
H25 C34 1_555 1_555
C35 C25 1_555 1_555
H26 C35 1_555 1_555
H27 C35 1_555 1_555
C36 C23 1_555 1_555
H28 C36 1_555 1_555
C37 C28 1_555 1_555
C38 O3 1_555 1_555
H29 C38 1_555 1_555
H30 C38 1_555 1_555
H31 C38 1_555 1_555
C39 C36 1_555 1_555
H32 C39 1_555 1_555
C40 C37 1_555 1_555
H33 C40 1_555 1_555
C41 C32 1_555 1_555
H34 C41 1_555 1_555
C42 C30 1_555 1_555
C43 O6 1_555 1_555
H35 C43 1_555 1_555
H36 C43 1_555 1_555
H37 C43 1_555 1_555
C44 O4 1_555 1_555
H38 C44 1_555 1_555
H39 C44 1_555 1_555
H40 C44 1_555 1_555
C8 C9 1_555 1_555
C10 C12 1_555 1_555
C15 C19 1_555 1_555
C16 C22 1_555 1_555
C20 C21 1_555 1_555
C26 C30 1_555 1_555
C34 C35 1_555 1_555
C39 C42 1_555 1_555
C40 C41 1_555 1_555

#END
