
#######################################################################
#
#                 Cambridge Crystallographic Data Centre
#                                CCDC 
#
#######################################################################
#
# If this CIF has been generated from an entry in the Cambridge 
# Structural Database, then it will include bibliographic, chemical, 
# crystal, experimental, refinement or atomic coordinate data resulting 
# from the CCDC's data processing and validation procedures.
#
#######################################################################

data_WAFLEX
_chemical_formula_moiety         'C26 H28 O5 S1'
_chemical_name_systematic        
'methyl 5-(4-methoxyphenyl)-4-((4-methylphenyl)sulfonyl)-5-phenylpentanoate'
_symmetry_cell_setting           monoclinic
_symmetry_space_group_name_H-M   'P 21/n'
_symmetry_Int_Tables_number      14
_space_group_name_Hall           '-P 2yn'
loop_
_symmetry_equiv_pos_site_id
_symmetry_equiv_pos_as_xyz
1 x,y,z
2 1/2-x,1/2+y,1/2-z
3 -x,-y,-z
4 1/2+x,1/2-y,1/2+z
_cell_length_a                   10.7022(5)
_cell_length_b                   11.1193(5)
_cell_length_c                   20.3355(9)
_cell_angle_alpha                90
_cell_angle_beta                 99.936(2)
_cell_angle_gamma                90
_cell_volume                     2383.65
_exptl_crystal_colour            colorless
_cell_formula_units_Z            4
loop_
_atom_site_label
_atom_site_type_symbol
_atom_site_fract_x
_atom_site_fract_y
_atom_site_fract_z
S1 S 0.80198(6) 0.11540(6) 0.20576(3)
O1 O 1.3313(2) 0.38347(16) 0.17621(11)
O2 O 0.74792(18) 0.23358(18) 0.19397(8)
O3 O 0.7179(2) 0.0138(2) 0.19364(10)
O4 O 0.6197(3) 0.0119(3) 0.42350(15)
O5 O 0.49152(18) 0.1607(2) 0.38454(11)
C1 C 1.4255(4) 0.3014(3) 0.1613(2)
H1 H 1.4758 0.2735 0.2022
H2 H 1.4791 0.3414 0.1349
H3 H 1.3847 0.2341 0.1369
C2 C 1.2431(2) 0.3397(2) 0.21133(12)
C3 C 1.2449(2) 0.2246(2) 0.23722(12)
H4 H 1.3100 0.1718 0.2322
C4 C 1.1492(2) 0.1884(2) 0.27072(12)
H5 H 1.1510 0.1108 0.2879
C5 C 1.05051(19) 0.26451(19) 0.27937(10)
C6 C 0.94535(19) 0.22606(19) 0.31655(10)
H6 H 0.8796 0.2883 0.3088
C7 C 0.8816(2) 0.10606(19) 0.29234(10)
H7 H 0.9489 0.0458 0.2944
C8 C 0.9204(2) 0.0950(2) 0.15633(12)
C9 C 0.9802(3) -0.0154(3) 0.15583(16)
H8 H 0.9574 -0.0786 0.1813
C10 C 1.0730(4) -0.0313(4) 0.11767(19)
H9 H 1.1135 -0.1054 0.1181
C11 C 1.1073(3) 0.0599(4) 0.07893(17)
C12 C 1.2104(5) 0.0391(6) 0.0376(2)
H10 H 1.2893 0.0235 0.0667
H11 H 1.2188 0.1093 0.0112
H12 H 1.1882 -0.0287 0.0087
C13 C 0.7859(2) 0.0586(2) 0.33475(11)
H13 H 0.7490 -0.0154 0.3149
H14 H 0.8314 0.0393 0.3790
C14 C 0.6789(2) 0.1457(3) 0.34175(14)
H15 H 0.7147 0.2225 0.3579
H16 H 0.6269 0.1587 0.2983
C15 C 0.5979(3) 0.0987(3) 0.38879(14)
C16 C 0.4055(3) 0.1274(4) 0.42872(18)
H17 H 0.3794 0.0454 0.4205
H18 H 0.3325 0.1789 0.4209
H19 H 0.4474 0.1357 0.4742
C17 C 1.1462(2) 0.4171(2) 0.22000(12)
H20 H 1.1448 0.4948 0.2029
C18 C 1.0515(2) 0.3800(2) 0.25386(12)
H21 H 0.9874 0.4335 0.2596
C19 C 0.9968(2) 0.2243(2) 0.39151(10)
C20 C 0.9736(3) 0.3210(3) 0.43060(13)
H22 H 0.9223 0.3840 0.4118
C21 C 1.0270(4) 0.3240(3) 0.49825(15)
H23 H 1.0116 0.3893 0.5243
C22 C 1.1018(3) 0.2317(4) 0.52653(14)
H24 H 1.1386 0.2352 0.5714
C23 C 1.1227(3) 0.1338(4) 0.48880(14)
H25 H 1.1714 0.0698 0.5084
C24 C 1.0710(2) 0.1303(3) 0.42134(12)
H26 H 1.0862 0.0642 0.3959
C25 C 0.9532(3) 0.1894(3) 0.11812(12)
H27 H 0.9141 0.2640 0.1181
C26 C 1.0471(3) 0.1682(4) 0.07952(14)
H28 H 1.0695 0.2303 0.0532
loop_
_geom_bond_atom_site_label_1
_geom_bond_atom_site_label_2
_geom_bond_site_symmetry_1
_geom_bond_site_symmetry_2
S1 O2 1_555 1_555
O1 C1 1_555 1_555
O3 S1 1_555 1_555
O4 C15 1_555 1_555
O5 C15 1_555 1_555
C1 H1 1_555 1_555
H2 C1 1_555 1_555
H3 C1 1_555 1_555
C2 O1 1_555 1_555
C3 C2 1_555 1_555
H4 C3 1_555 1_555
C4 C3 1_555 1_555
H5 C4 1_555 1_555
C5 C4 1_555 1_555
C6 C5 1_555 1_555
H6 C6 1_555 1_555
C7 S1 1_555 1_555
H7 C7 1_555 1_555
C8 S1 1_555 1_555
C9 C8 1_555 1_555
H8 C9 1_555 1_555
C10 C9 1_555 1_555
H9 C10 1_555 1_555
C11 C10 1_555 1_555
C12 C11 1_555 1_555
H10 C12 1_555 1_555
H11 C12 1_555 1_555
H12 C12 1_555 1_555
C13 C7 1_555 1_555
H13 C13 1_555 1_555
H14 C13 1_555 1_555
C14 C13 1_555 1_555
H15 C14 1_555 1_555
H16 C14 1_555 1_555
C15 C14 1_555 1_555
C16 O5 1_555 1_555
H17 C16 1_555 1_555
H18 C16 1_555 1_555
H19 C16 1_555 1_555
C17 C2 1_555 1_555
H20 C17 1_555 1_555
C18 C5 1_555 1_555
H21 C18 1_555 1_555
C19 C6 1_555 1_555
C20 C19 1_555 1_555
H22 C20 1_555 1_555
C21 C20 1_555 1_555
H23 C21 1_555 1_555
C22 C21 1_555 1_555
H24 C22 1_555 1_555
C23 C22 1_555 1_555
H25 C23 1_555 1_555
C24 C19 1_555 1_555
H26 C24 1_555 1_555
C25 C8 1_555 1_555
H27 C25 1_555 1_555
C26 C11 1_555 1_555
H28 C26 1_555 1_555
C6 C7 1_555 1_555
C17 C18 1_555 1_555
C23 C24 1_555 1_555
C25 C26 1_555 1_555

#END
