
#######################################################################
#
#                 Cambridge Crystallographic Data Centre
#                                CCDC 
#
#######################################################################
#
# If this CIF has been generated from an entry in the Cambridge 
# Structural Database, then it will include bibliographic, chemical, 
# crystal, experimental, refinement or atomic coordinate data resulting 
# from the CCDC's data processing and validation procedures.
#
#######################################################################

data_WAFMUO
_chemical_formula_moiety         'C22 H17 N1 O1'
_chemical_name_systematic        1-anilino-3-phenyl-2-naphthol
_symmetry_cell_setting           monoclinic
_symmetry_space_group_name_H-M   'P 21'
_symmetry_Int_Tables_number      4
_space_group_name_Hall           'P 2yb'
loop_
_symmetry_equiv_pos_site_id
_symmetry_equiv_pos_as_xyz
1 x,y,z
2 -x,1/2+y,-z
_cell_length_a                   8.2006(16)
_cell_length_b                   16.758(3)
_cell_length_c                   11.927(2)
_cell_angle_alpha                90
_cell_angle_beta                 106.06(3)
_cell_angle_gamma                90
_cell_volume                     1575.11
_exptl_crystal_colour            colorless
_exptl_crystal_description       block
_cell_formula_units_Z            4
loop_
_atom_site_label
_atom_site_type_symbol
_atom_site_fract_x
_atom_site_fract_y
_atom_site_fract_z
O1 O 0.4164(5) 0.5501(3) 0.5665(3)
H1 H 0.3677 0.5256 0.5048
N1 N 0.4973(6) 0.5351(3) 0.3588(4)
H2 H 0.4934 0.4826 0.3607
C1 C 0.7639(8) 0.6084(4) 0.4447(5)
C2 C 0.5640(7) 0.5821(3) 0.5563(5)
C3 C 0.6113(8) 0.5763(3) 0.4546(5)
C4 C 0.3748(8) 0.6572(3) 0.2611(5)
H3 H 0.4383 0.6882 0.3250
C5 C 0.3944(7) 0.5742(3) 0.2643(5)
C6 C 0.2657(8) 0.6949(4) 0.1673(5)
H4 H 0.2562 0.7514 0.1663
C7 C 0.6285(8) 0.6282(4) 0.7681(5)
C8 C 1.0273(7) 0.6795(3) 0.5332(5)
H5 H 1.0980 0.7080 0.5972
C9 C 0.1701(8) 0.6504(4) 0.0748(5)
H6 H 0.0902 0.6760 0.0120
C10 C 0.6731(7) 0.6208(3) 0.6566(5)
C11 C 0.7458(8) 0.6044(4) 0.8732(5)
H7 H 0.8516 0.5820 0.8717
C12 C 0.8175(8) 0.6015(3) 0.3421(5)
H8 H 0.7474 0.5744 0.2762
C13 C 0.4381(8) 0.6667(4) 0.8804(5)
H9 H 0.3321 0.6883 0.8832
C14 C 0.8219(8) 0.6510(3) 0.6460(5)
H10 H 0.8951 0.6766 0.7120
C15 C 1.0750(8) 0.6706(4) 0.4323(5)
H11 H 1.1820 0.6904 0.4286
C16 C 0.7075(9) 0.6137(4) 0.9788(5)
H12 H 0.7885 0.5986 1.0493
C17 C 0.8755(7) 0.6467(3) 0.5415(5)
C18 C 0.5559(8) 0.6440(4) 0.9823(5)
H13 H 0.5305 0.6496 1.0549
C19 C 0.4741(7) 0.6583(4) 0.7741(5)
H14 H 0.3915 0.6733 0.7043
C20 C 0.3029(8) 0.5316(4) 0.1684(5)
H15 H 0.3163 0.4754 0.1665
C21 C 0.9698(8) 0.6334(4) 0.3362(6)
H16 H 1.0024 0.6297 0.2659
C22 C 0.1907(9) 0.5701(4) 0.0738(6)
H17 H 0.1286 0.5398 0.0086
O2 O 0.1523(5) 0.4517(3) 0.3919(3)
H18 H 0.1993 0.4760 0.4540
N2 N 0.0724(6) 0.4650(3) 0.5986(4)
H19 H 0.1285 0.5010 0.5737
C23 C -0.3062(8) 0.3568(3) 0.4137(5)
C24 C -0.0589(7) 0.3755(3) 0.1876(4)
C25 C -0.0345(7) 0.4241(3) 0.5030(5)
C26 C -0.1064(8) 0.3825(4) 0.2994(5)
C27 C -0.2576(8) 0.3533(3) 0.3082(5)
H20 H -0.3333 0.3297 0.2414
C28 C 0.1802(7) 0.4251(3) 0.6945(5)
C29 C 0.0903(8) 0.3400(3) 0.1818(5)
H21 H 0.1692 0.3220 0.2515
C30 C 0.1262(8) 0.3303(4) 0.0776(6)
H22 H 0.2275 0.3037 0.0751
C31 C -0.1939(7) 0.3928(3) 0.5139(5)
C32 C -0.4597(7) 0.3253(3) 0.4225(6)
H23 H -0.5333 0.2998 0.3566
C33 C 0.0026(7) 0.4197(3) 0.3996(5)
C34 C 0.1921(7) 0.3423(3) 0.6992(5)
H24 H 0.1253 0.3107 0.6373
C35 C -0.3970(9) 0.3684(4) 0.6203(6)
H25 H -0.4306 0.3735 0.6900
C36 C -0.2451(9) 0.3978(4) 0.6168(5)
H26 H -0.1725 0.4221 0.6844
C37 C 0.3862(8) 0.4332(4) 0.8807(5)
H27 H 0.4529 0.4650 0.9425
C38 C -0.5067(10) 0.3303(4) 0.5235(6)
H28 H -0.6115 0.3084 0.5282
C39 C 0.2769(8) 0.4700(4) 0.7868(5)
H29 H 0.2673 0.5265 0.7850
C40 C 0.4018(8) 0.3505(4) 0.8877(5)
H30 H 0.4772 0.3254 0.9532
C41 C 0.0176(9) 0.3585(4) -0.0231(5)
H31 H 0.0437 0.3517 -0.0953
C42 C 0.3034(7) 0.3062(4) 0.7958(5)
H32 H 0.3119 0.2497 0.7986
C43 C -0.1702(8) 0.4061(4) 0.0849(5)
H33 H -0.2713 0.4327 0.0879
C44 C -0.1322(8) 0.3976(4) -0.0199(5)
H34 H -0.2070 0.4181 -0.0896
loop_
_geom_bond_atom_site_label_1
_geom_bond_atom_site_label_2
_geom_bond_site_symmetry_1
_geom_bond_site_symmetry_2
O1 H1 1_555 1_555
N1 H2 1_555 1_555
C1 C3 1_555 1_555
C2 O1 1_555 1_555
C3 N1 1_555 1_555
C4 H3 1_555 1_555
C5 N1 1_555 1_555
C6 C4 1_555 1_555
H4 C6 1_555 1_555
C7 C10 1_555 1_555
C8 H5 1_555 1_555
C9 C6 1_555 1_555
H6 C9 1_555 1_555
C10 C2 1_555 1_555
C11 C7 1_555 1_555
H7 C11 1_555 1_555
C12 C1 1_555 1_555
H8 C12 1_555 1_555
C13 H9 1_555 1_555
C14 C10 1_555 1_555
H10 C14 1_555 1_555
C15 C8 1_555 1_555
H11 C15 1_555 1_555
C16 C11 1_555 1_555
H12 C16 1_555 1_555
C17 C1 1_555 1_555
C18 C13 1_555 1_555
H13 C18 1_555 1_555
C19 C7 1_555 1_555
H14 C19 1_555 1_555
C20 C5 1_555 1_555
H15 C20 1_555 1_555
C21 C12 1_555 1_555
H16 C21 1_555 1_555
C22 C9 1_555 1_555
H17 C22 1_555 1_555
O2 H18 1_555 1_555
N2 H19 1_555 1_555
C23 C27 1_555 1_555
C24 C26 1_555 1_555
C25 N2 1_555 1_555
C26 C27 1_555 1_555
C27 H20 1_555 1_555
C28 N2 1_555 1_555
C29 C24 1_555 1_555
H21 C29 1_555 1_555
C30 C29 1_555 1_555
H22 C30 1_555 1_555
C31 C23 1_555 1_555
C32 C23 1_555 1_555
H23 C32 1_555 1_555
C33 O2 1_555 1_555
C34 C28 1_555 1_555
H24 C34 1_555 1_555
C35 H25 1_555 1_555
C36 C31 1_555 1_555
H26 C36 1_555 1_555
C37 H27 1_555 1_555
C38 C32 1_555 1_555
H28 C38 1_555 1_555
C39 C28 1_555 1_555
H29 C39 1_555 1_555
C40 C37 1_555 1_555
H30 C40 1_555 1_555
C41 C30 1_555 1_555
H31 C41 1_555 1_555
C42 C34 1_555 1_555
H32 C42 1_555 1_555
C43 C24 1_555 1_555
H33 C43 1_555 1_555
C44 C41 1_555 1_555
H34 C44 1_555 1_555
C2 C3 1_555 1_555
C4 C5 1_555 1_555
C8 C17 1_555 1_555
C13 C19 1_555 1_555
C14 C17 1_555 1_555
C15 C21 1_555 1_555
C16 C18 1_555 1_555
C20 C22 1_555 1_555
C25 C31 1_555 1_555
C25 C33 1_555 1_555
C26 C33 1_555 1_555
C35 C36 1_555 1_555
C35 C38 1_555 1_555
C37 C39 1_555 1_555
C40 C42 1_555 1_555
C43 C44 1_555 1_555

#END
