
#######################################################################
#
#                 Cambridge Crystallographic Data Centre
#                                CCDC 
#
#######################################################################
#
# If this CIF has been generated from an entry in the Cambridge 
# Structural Database, then it will include bibliographic, chemical, 
# crystal, experimental, refinement or atomic coordinate data resulting 
# from the CCDC's data processing and validation procedures.
#
#######################################################################

data_WAFVUX
_chemical_formula_moiety         'C27 H23 N1 O4'
_chemical_name_systematic        
1-(4-hydroxyphenyl)-3a-isobutyl-2-phenyl-5H-pyrrolo[1,2-a][3,1]benzoxazine-3,5(3aH)-dione
_symmetry_cell_setting           monoclinic
_symmetry_space_group_name_H-M   'P 21/a'
_symmetry_Int_Tables_number      14
_space_group_name_Hall           '-P 2yab'
loop_
_symmetry_equiv_pos_site_id
_symmetry_equiv_pos_as_xyz
1 x,y,z
2 1/2-x,1/2+y,-z
3 -x,-y,-z
4 1/2+x,1/2-y,z
_cell_length_a                   10.16164(12)
_cell_length_b                   18.7826(3)
_cell_length_c                   11.49157(17)
_cell_angle_alpha                90
_cell_angle_beta                 97.3768(13)
_cell_angle_gamma                90
_cell_volume                     2175.15
_exptl_crystal_colour            yellow
_exptl_crystal_description       lath
_cell_formula_units_Z            4
loop_
_atom_site_label
_atom_site_type_symbol
_atom_site_fract_x
_atom_site_fract_y
_atom_site_fract_z
C1 C 0.02812(13) 0.53657(7) 0.21751(11)
C2 C -0.09944(12) 0.55412(7) 0.23464(11)
C3 C -0.12189(13) 0.62760(7) 0.20198(12)
C4 C 0.01303(12) 0.65798(7) 0.17835(11)
C5 C 0.05653(13) 0.71962(7) 0.26005(12)
C6 C 0.05184(14) 0.70897(8) 0.39183(12)
C7 C 0.0679(2) 0.78164(9) 0.45123(15)
C8 C 0.1542(2) 0.65722(10) 0.44979(15)
C9 C 0.22325(12) 0.60349(7) 0.15061(12)
C10 C 0.33614(13) 0.56704(7) 0.19882(13)
C11 C 0.45569(13) 0.58024(8) 0.15651(13)
C12 C 0.46405(13) 0.63014(8) 0.06794(13)
C13 C 0.35304(13) 0.66748(7) 0.02189(12)
C14 C 0.23136(13) 0.65430(7) 0.06177(11)
C15 C 0.11088(13) 0.69148(7) 0.00790(12)
C16 C -0.20337(12) 0.50920(7) 0.27707(12)
C17 C -0.25555(14) 0.53135(8) 0.37744(13)
C18 C -0.35533(15) 0.49268(9) 0.41997(14)
C19 C -0.40540(15) 0.43207(8) 0.36235(14)
C20 C -0.35414(15) 0.40956(8) 0.26286(15)
C21 C -0.25301(14) 0.44783(8) 0.22055(13)
C22 C 0.08837(12) 0.46511(7) 0.22658(11)
C23 C 0.07838(13) 0.42301(7) 0.32501(12)
C24 C 0.13481(15) 0.35609(8) 0.33502(12)
C25 C 0.20213(13) 0.32945(7) 0.24601(12)
C26 C 0.21087(13) 0.37050(7) 0.14639(12)
C27 C 0.15422(13) 0.43757(7) 0.13704(12)
N1 N 0.09756(10) 0.59574(6) 0.18779(10)
O1 O -0.00150(9) 0.68393(5) 0.05876(8)
O2 O 0.25565(11) 0.26347(5) 0.26074(9)
O3 O -0.22376(9) 0.66275(5) 0.19235(10)
O4 O 0.10262(10) 0.72672(5) -0.08144(8)
H1 H -0.0055 0.7594 0.2348
H2 H 0.1469 0.7344 0.2478
H3 H -0.0393 0.6913 0.4038
H4 H 0.0655 0.7770 0.5350
H5 H -0.0022 0.8146 0.4166
H6 H 0.1562 0.8008 0.4399
H7 H 0.1565 0.6578 0.5360
H8 H 0.2426 0.6744 0.4317
H9 H 0.1377 0.6080 0.4186
H10 H 0.3313 0.5337 0.2599
H11 H 0.5346 0.5562 0.1915
H12 H 0.5489 0.6410 0.0415
H13 H 0.3585 0.7029 -0.0386
H14 H -0.2196 0.5736 0.4172
H15 H -0.3878 0.5083 0.4917
H16 H -0.4770 0.4061 0.3888
H17 H -0.3878 0.3675 0.2234
H18 H -0.2177 0.4326 0.1511
H19 H 0.0311 0.4415 0.3864
H20 H 0.1296 0.3275 0.4032
H21 H 0.2543 0.3503 0.0835
H22 H 0.1567 0.4652 0.0666
H23 H 0.3003 0.2473 0.1975
loop_
_geom_bond_atom_site_label_1
_geom_bond_atom_site_label_2
_geom_bond_site_symmetry_1
_geom_bond_site_symmetry_2
C1 C2 1_555 1_555
C2 C3 1_555 1_555
C3 C4 1_555 1_555
C4 C5 1_555 1_555
C5 C6 1_555 1_555
C6 C7 1_555 1_555
C7 H4 1_555 1_555
C8 C6 1_555 1_555
C9 C10 1_555 1_555
C10 C11 1_555 1_555
C11 C12 1_555 1_555
C12 C13 1_555 1_555
C13 C14 1_555 1_555
C14 C9 1_555 1_555
C15 C14 1_555 1_555
C16 C2 1_555 1_555
C17 C16 1_555 1_555
C18 C17 1_555 1_555
C19 C18 1_555 1_555
C20 C19 1_555 1_555
C21 C16 1_555 1_555
C22 C1 1_555 1_555
C23 C22 1_555 1_555
C24 C23 1_555 1_555
C25 C24 1_555 1_555
C26 C25 1_555 1_555
C27 C22 1_555 1_555
N1 C1 1_555 1_555
O1 C4 1_555 1_555
O2 C25 1_555 1_555
O3 C3 1_555 1_555
O4 C15 1_555 1_555
H1 C5 1_555 1_555
H2 C5 1_555 1_555
H3 C6 1_555 1_555
H5 C7 1_555 1_555
H6 C7 1_555 1_555
H7 C8 1_555 1_555
H8 C8 1_555 1_555
H9 C8 1_555 1_555
H10 C10 1_555 1_555
H11 C11 1_555 1_555
H12 C12 1_555 1_555
H13 C13 1_555 1_555
H14 C17 1_555 1_555
H15 C18 1_555 1_555
H16 C19 1_555 1_555
H17 C20 1_555 1_555
H18 C21 1_555 1_555
H19 C23 1_555 1_555
H20 C24 1_555 1_555
H21 C26 1_555 1_555
H22 C27 1_555 1_555
H23 O2 1_555 1_555
C4 N1 1_555 1_555
C9 N1 1_555 1_555
C15 O1 1_555 1_555
C20 C21 1_555 1_555
C26 C27 1_555 1_555

#END
