
#######################################################################
#
#                 Cambridge Crystallographic Data Centre
#                                CCDC 
#
#######################################################################
#
# If this CIF has been generated from an entry in the Cambridge 
# Structural Database, then it will include bibliographic, chemical, 
# crystal, experimental, refinement or atomic coordinate data resulting 
# from the CCDC's data processing and validation procedures.
#
#######################################################################

data_WAFXIN
_chemical_formula_moiety         'C25 H18 Br1 N1 O4'
_chemical_name_systematic        
2-(3-(4-bromophenyl)-4-nitro-1-phenylbutylidene)-1H-indene-1,3(2H)-dione
_symmetry_cell_setting           monoclinic
_symmetry_space_group_name_H-M   'P 21'
_symmetry_Int_Tables_number      4
_space_group_name_Hall           'P 2yb'
loop_
_symmetry_equiv_pos_site_id
_symmetry_equiv_pos_as_xyz
1 x,y,z
2 -x,1/2+y,-z
_cell_length_a                   10.4822(4)
_cell_length_b                   5.9694(2)
_cell_length_c                   17.3911(7)
_cell_angle_alpha                90
_cell_angle_beta                 106.202(2)
_cell_angle_gamma                90
_cell_volume                     1044.98
_exptl_crystal_colour            yellow
_exptl_crystal_description       prism
_cell_formula_units_Z            2
loop_
_atom_site_label
_atom_site_type_symbol
_atom_site_fract_x
_atom_site_fract_y
_atom_site_fract_z
C1 C 1.4111(3) 0.8263(5) 0.32393(18)
C2 C 1.3538(3) 0.6295(5) 0.33730(18)
H1 H 1.3964 0.5373 0.3815
C3 C 1.2335(3) 0.5665(5) 0.28593(17)
H2 H 1.1936 0.4300 0.2952
C4 C 1.1695(3) 0.6987(5) 0.22089(15)
C5 C 1.2331(3) 0.8926(6) 0.20709(15)
H3 H 1.1931 0.9817 0.1615
C6 C 1.3534(3) 0.9584(5) 0.25838(17)
H4 H 1.3954 1.0922 0.2487
C7 C 1.0314(3) 0.6396(5) 0.16719(16)
H5 H 0.9978 0.7706 0.1314
C8 C 1.0444(3) 0.4410(6) 0.11442(16)
H6 H 1.1181 0.4693 0.0904
H7 H 1.0661 0.3043 0.1478
C9 C 0.9306(3) 0.5901(5) 0.21477(15)
H8 H 0.8457 0.5403 0.1774
H9 H 0.9647 0.4668 0.2531
C10 C 0.9057(3) 0.7942(5) 0.26013(15)
C11 C 1.0006(3) 0.8277(4) 0.34165(16)
C12 C 1.0812(3) 1.0159(5) 0.35794(17)
H10 H 1.0722 1.1293 0.3185
C13 C 1.1755(3) 1.0393(5) 0.43204(17)
H11 H 1.2321 1.1666 0.4426
C14 C 1.1862(3) 0.8774(6) 0.48980(16)
H12 H 1.2498 0.8943 0.5405
C15 C 1.1053(3) 0.6904(5) 0.47474(17)
H13 H 1.1119 0.5806 0.5152
C16 C 1.0140(3) 0.6638(5) 0.39989(16)
H14 H 0.9607 0.5326 0.3887
C17 C 0.8062(2) 0.9372(6) 0.22799(14)
C18 C 0.7657(3) 1.1389(5) 0.26711(17)
C19 C 0.6449(3) 1.2317(5) 0.21040(15)
C20 C 0.5729(3) 1.4198(6) 0.21878(15)
H15 H 0.5992 1.5105 0.2654
C21 C 0.4611(3) 1.4718(5) 0.15681(17)
H16 H 0.4101 1.6003 0.1611
C22 C 0.4227(3) 1.3397(5) 0.08888(17)
H17 H 0.3458 1.3790 0.0473
C23 C 0.4943(3) 1.1515(5) 0.08054(17)
H18 H 0.4669 1.0600 0.0342
C24 C 0.6075(3) 1.0994(5) 0.14173(16)
C25 C 0.7060(2) 0.9168(6) 0.14756(14)
N1 N 0.9182(3) 0.4038(6) 0.04903(15)
O1 O 0.8902(3) 0.5369(4) -0.00548(13)
O2 O 0.8512(3) 0.2391(5) 0.05437(16)
O3 O 0.8194(2) 1.2172(3) 0.33318(11)
O4 O 0.7041(2) 0.7781(3) 0.09590(11)
Br1 Br 1.57440(3) 0.91907(8) 0.39643(2)
loop_
_geom_bond_atom_site_label_1
_geom_bond_atom_site_label_2
_geom_bond_site_symmetry_1
_geom_bond_site_symmetry_2
C1 C2 1_555 1_555
C2 H1 1_555 1_555
C3 C2 1_555 1_555
H2 C3 1_555 1_555
C4 C3 1_555 1_555
C5 C4 1_555 1_555
H3 C5 1_555 1_555
C6 C1 1_555 1_555
H4 C6 1_555 1_555
C7 C4 1_555 1_555
H5 C7 1_555 1_555
C8 C7 1_555 1_555
H6 C8 1_555 1_555
H7 C8 1_555 1_555
C9 C7 1_555 1_555
H8 C9 1_555 1_555
H9 C9 1_555 1_555
C10 C9 1_555 1_555
C11 C10 1_555 1_555
C12 C11 1_555 1_555
H10 C12 1_555 1_555
C13 C12 1_555 1_555
H11 C13 1_555 1_555
C14 C13 1_555 1_555
H12 C14 1_555 1_555
C15 C14 1_555 1_555
H13 C15 1_555 1_555
C16 C11 1_555 1_555
H14 C16 1_555 1_555
C17 C10 1_555 1_555
C18 C17 1_555 1_555
C19 C18 1_555 1_555
C20 C19 1_555 1_555
H15 C20 1_555 1_555
C21 C20 1_555 1_555
H16 C21 1_555 1_555
C22 C21 1_555 1_555
H17 C22 1_555 1_555
C23 C22 1_555 1_555
H18 C23 1_555 1_555
C24 C19 1_555 1_555
C25 C17 1_555 1_555
N1 C8 1_555 1_555
O1 N1 1_555 1_555
O2 N1 1_555 1_555
O3 C18 1_555 1_555
O4 C25 1_555 1_555
Br1 C1 1_555 1_555
C5 C6 1_555 1_555
C15 C16 1_555 1_555
C23 C24 1_555 1_555
C24 C25 1_555 1_555

#END
