
#######################################################################
#
#                 Cambridge Crystallographic Data Centre
#                                CCDC 
#
#######################################################################
#
# If this CIF has been generated from an entry in the Cambridge 
# Structural Database, then it will include bibliographic, chemical, 
# crystal, experimental, refinement or atomic coordinate data resulting 
# from the CCDC's data processing and validation procedures.
#
#######################################################################

data_WAGMAU
_chemical_compound_source        
'stem barks of Aphanamixis grandifolia (Meliaceae)'
_chemical_name_common            
3alpha-Hydroxy-21alpha-methoxy-4,4,14-trimethylcard-7-enolide
_chemical_formula_moiety         'C27 H42 O4'
_chemical_name_systematic        
3\a-Hydroxy-21\a-methoxy-24,25,26,27-tetranortirucall-7-ene-23(21)-lactone
_chemical_properties_biological  
'Tested in-vitro for cytotoxic activity against five tumour cell lines'
_symmetry_cell_setting           orthorhombic
_symmetry_space_group_name_H-M   'P 21 21 21'
_symmetry_Int_Tables_number      19
_space_group_name_Hall           'P 2ac 2ab'
loop_
_symmetry_equiv_pos_site_id
_symmetry_equiv_pos_as_xyz
1 x,y,z
2 1/2-x,-y,1/2+z
3 -x,1/2+y,1/2-z
4 1/2+x,1/2-y,-z
_cell_length_a                   7.6830(8)
_cell_length_b                   15.0061(15)
_cell_length_c                   20.351(2)
_cell_angle_alpha                90
_cell_angle_beta                 90
_cell_angle_gamma                90
_cell_volume                     2346.3
_exptl_crystal_colour            colorless
_chemical_melting_point          '224-225 deg.C'
_cell_formula_units_Z            4
_exptl_crystal_recrystallization_method methanol/water
loop_
_atom_site_label
_atom_site_type_symbol
_atom_site_fract_x
_atom_site_fract_y
_atom_site_fract_z
O1 O 0.1666(4) 0.73422(19) 1.09294(15)
H1 H 0.0777 0.7487 1.1125
O2 O 0.2432(4) 0.8067(2) 0.56427(14)
O3 O 0.0844(5) 0.8021(3) 0.47356(16)
O4 O 0.2926(4) 0.82651(19) 0.67483(14)
C1 C 0.3439(5) 0.6278(3) 0.99306(18)
H2 H 0.4500 0.6075 0.9720
H3 H 0.3324 0.6911 0.9844
C2 C 0.3611(5) 0.6142(3) 1.06659(19)
H4 H 0.3857 0.5519 1.0754
H5 H 0.4584 0.6491 1.0828
C3 C 0.1984(5) 0.6410(3) 1.1027(2)
H6 H 0.2147 0.6299 1.1497
C4 C 0.0380(5) 0.5887(3) 1.07880(17)
C5 C 0.0232(4) 0.5990(2) 1.00295(16)
H7 H 0.0015 0.6627 0.9961
C6 C -0.1363(5) 0.5528(3) 0.97408(19)
H8 H -0.1367 0.4909 0.9880
H9 H -0.2404 0.5807 0.9915
C7 C -0.1422(5) 0.5562(3) 0.90059(18)
H10 H -0.2435 0.5370 0.8800
C8 C -0.0137(5) 0.5846(2) 0.86297(17)
C9 C 0.1558(4) 0.6198(2) 0.89263(17)
H11 H 0.1361 0.6835 0.9002
C10 C 0.1887(5) 0.5790(2) 0.96192(17)
C11 C 0.3102(5) 0.6147(3) 0.84515(17)
H12 H 0.3436 0.5527 0.8401
H13 H 0.4080 0.6460 0.8645
C12 C 0.2745(5) 0.6544(3) 0.77621(17)
H14 H 0.3245 0.7137 0.7742
H15 H 0.3329 0.6181 0.7436
C13 C 0.0801(5) 0.6603(2) 0.75855(16)
C14 C -0.0200(5) 0.5804(2) 0.78817(16)
C15 C -0.1982(6) 0.5887(3) 0.75567(18)
H16 H -0.2700 0.6319 0.7786
H17 H -0.2579 0.5318 0.7551
C16 C -0.1569(5) 0.6205(3) 0.68522(19)
H18 H -0.2331 0.6693 0.6730
H19 H -0.1737 0.5721 0.6542
C17 C 0.0358(5) 0.6515(2) 0.68467(17)
H20 H 0.1058 0.6025 0.6670
C18 C 0.0055(5) 0.7489(2) 0.78351(17)
H21 H 0.0741 0.7974 0.7668
H22 H 0.0083 0.7497 0.8307
H23 H -0.1125 0.7552 0.7687
C19 C 0.2265(6) 0.4786(3) 0.9554(2)
H24 H 0.3328 0.4702 0.9314
H25 H 0.1325 0.4503 0.9324
H26 H 0.2379 0.4528 0.9983
C20 C 0.0612(5) 0.7315(3) 0.63950(17)
H27 H -0.0079 0.7812 0.6567
C21 C 0.2459(5) 0.7638(3) 0.62872(18)
H28 H 0.3276 0.7137 0.6291
C22 C 0.0042(6) 0.7135(3) 0.56868(18)
H29 H 0.0302 0.6526 0.5560
H30 H -0.1196 0.7239 0.5633
C23 C 0.1068(6) 0.7774(3) 0.5292(2)
C24 C 0.0551(6) 0.4923(3) 1.1038(2)
H31 H 0.0441 0.4915 1.1508
H32 H 0.1667 0.4689 1.0915
H33 H -0.0350 0.4563 1.0847
C25 C -0.1253(5) 0.6276(3) 1.1116(2)
H34 H -0.2235 0.5902 1.1023
H35 H -0.1465 0.6864 1.0948
H36 H -0.1078 0.6306 1.1583
C26 C 0.0578(7) 0.4887(2) 0.7666(2)
H37 H 0.1809 0.4884 0.7747
H38 H 0.0365 0.4796 0.7206
H39 H 0.0038 0.4418 0.7914
C27 C 0.4725(7) 0.8487(4) 0.6739(3)
H40 H 0.5396 0.7981 0.6877
H41 H 0.4934 0.8976 0.7033
H42 H 0.5060 0.8653 0.6301
loop_
_geom_bond_atom_site_label_1
_geom_bond_atom_site_label_2
_geom_bond_site_symmetry_1
_geom_bond_site_symmetry_2
O1 H1 1_555 1_555
O2 C21 1_555 1_555
O3 C23 1_555 1_555
O4 C21 1_555 1_555
C1 H2 1_555 1_555
H3 C1 1_555 1_555
C2 C1 1_555 1_555
H4 C2 1_555 1_555
H5 C2 1_555 1_555
C3 O1 1_555 1_555
H6 C3 1_555 1_555
C4 C3 1_555 1_555
C5 C4 1_555 1_555
H7 C5 1_555 1_555
C6 C5 1_555 1_555
H8 C6 1_555 1_555
H9 C6 1_555 1_555
C7 C6 1_555 1_555
H10 C7 1_555 1_555
C8 C7 1_555 1_555
C9 C8 1_555 1_555
H11 C9 1_555 1_555
C10 C1 1_555 1_555
C11 C9 1_555 1_555
H12 C11 1_555 1_555
H13 C11 1_555 1_555
C12 C11 1_555 1_555
H14 C12 1_555 1_555
H15 C12 1_555 1_555
C13 C12 1_555 1_555
C14 C8 1_555 1_555
C15 C14 1_555 1_555
H16 C15 1_555 1_555
H17 C15 1_555 1_555
C16 C15 1_555 1_555
H18 C16 1_555 1_555
H19 C16 1_555 1_555
C17 C13 1_555 1_555
H20 C17 1_555 1_555
C18 C13 1_555 1_555
H21 C18 1_555 1_555
H22 C18 1_555 1_555
H23 C18 1_555 1_555
C19 C10 1_555 1_555
H24 C19 1_555 1_555
H25 C19 1_555 1_555
H26 C19 1_555 1_555
C20 C17 1_555 1_555
H27 C20 1_555 1_555
C21 C20 1_555 1_555
H28 C21 1_555 1_555
C22 C20 1_555 1_555
H29 C22 1_555 1_555
H30 C22 1_555 1_555
C23 O2 1_555 1_555
C24 C4 1_555 1_555
H31 C24 1_555 1_555
H32 C24 1_555 1_555
H33 C24 1_555 1_555
C25 C4 1_555 1_555
H34 C25 1_555 1_555
H35 C25 1_555 1_555
H36 C25 1_555 1_555
C26 C14 1_555 1_555
H37 C26 1_555 1_555
H38 C26 1_555 1_555
H39 C26 1_555 1_555
C27 O4 1_555 1_555
H40 C27 1_555 1_555
H41 C27 1_555 1_555
H42 C27 1_555 1_555
C2 C3 1_555 1_555
C5 C10 1_555 1_555
C9 C10 1_555 1_555
C13 C14 1_555 1_555
C16 C17 1_555 1_555
C22 C23 1_555 1_555

#END
