
#######################################################################
#
#                 Cambridge Crystallographic Data Centre
#                                CCDC 
#
#######################################################################
#
# If this CIF has been generated from an entry in the Cambridge 
# Structural Database, then it will include bibliographic, chemical, 
# crystal, experimental, refinement or atomic coordinate data resulting 
# from the CCDC's data processing and validation procedures.
#
#######################################################################

data_WAGPOL
_chemical_formula_moiety         'C24 H23 N1 O4 S1'
_chemical_name_systematic        
5-Ethyl-3-((4-methylphenyl)sulfonyl)-2,5-diphenyl-1,3-oxazolidin-4-one
_symmetry_cell_setting           monoclinic
_symmetry_space_group_name_H-M   'P 21/n'
_symmetry_Int_Tables_number      14
_space_group_name_Hall           '-P 2yn'
loop_
_symmetry_equiv_pos_site_id
_symmetry_equiv_pos_as_xyz
1 x,y,z
2 1/2-x,1/2+y,1/2-z
3 -x,-y,-z
4 1/2+x,1/2-y,1/2+z
_cell_length_a                   17.808(4)
_cell_length_b                   6.0703(12)
_cell_length_c                   19.786(4)
_cell_angle_alpha                90
_cell_angle_beta                 99.41(3)
_cell_angle_gamma                90
_cell_volume                     2110.08
_exptl_crystal_colour            colorless
_exptl_crystal_description       rod
_cell_formula_units_Z            4
loop_
_atom_site_label
_atom_site_type_symbol
_atom_site_fract_x
_atom_site_fract_y
_atom_site_fract_z
S1 S 0.28062(3) 0.84517(8) 0.09939(2)
O1 O 0.20881(7) 1.2327(2) -0.05230(7)
O2 O 0.13811(8) 0.7291(2) -0.00234(7)
O3 O 0.29424(9) 0.6184(2) 0.08793(7)
O4 O 0.34241(7) 0.9879(3) 0.12529(7)
N1 N 0.24188(8) 0.9594(2) 0.02522(7)
C1 C 0.17403(10) 0.8908(3) -0.01326(9)
C2 C 0.15272(10) 1.0632(3) -0.06890(9)
C3 C 0.27143(10) 1.1598(3) -0.00275(9)
H1 H 0.2827 1.2727 0.0343
C4 C 0.07470(11) 1.1604(3) -0.06247(11)
H2 H 0.0645 1.2872 -0.0941
H3 H 0.0351 1.0478 -0.0771
C5 C 0.06802(12) 1.2364(3) 0.00953(12)
H4 H 0.0170 1.2967 0.0098
H5 H 0.1062 1.3504 0.0241
H6 H 0.0765 1.1110 0.0411
C6 C 0.15295(10) 0.9728(3) -0.14059(9)
C7 C 0.12118(13) 0.7688(3) -0.16052(11)
H7 H 0.1005 0.6802 -0.1285
C8 C 0.11955(14) 0.6943(4) -0.22698(12)
H8 H 0.0981 0.5544 -0.2401
C9 C 0.14875(12) 0.8213(4) -0.27416(11)
H9 H 0.1474 0.7696 -0.3197
C10 C 0.17995(12) 1.0234(4) -0.25487(11)
H10 H 0.2001 1.1116 -0.2873
C11 C 0.18235(11) 1.0999(4) -0.18836(10)
H11 H 0.2042 1.2396 -0.1756
C12 C 0.34231(10) 1.1178(3) -0.03385(8)
C13 C 0.39687(10) 1.2827(3) -0.02989(10)
H12 H 0.3895 1.4173 -0.0074
C14 C 0.46209(11) 1.2519(4) -0.05865(10)
H13 H 0.4991 1.3657 -0.0558
C15 C 0.47344(11) 1.0566(4) -0.09135(10)
H14 H 0.5183 1.0355 -0.1107
C16 C 0.41904(11) 0.8911(4) -0.09576(10)
H15 H 0.4266 0.7568 -0.1184
C17 C 0.35375(10) 0.9215(3) -0.06722(9)
H16 H 0.3166 0.8080 -0.0704
C18 C 0.20969(10) 0.8674(3) 0.15082(9)
C19 C 0.16127(11) 0.6913(3) 0.15607(10)
H17 H 0.1651 0.5598 0.1308
C20 C 0.10729(12) 0.7106(4) 0.19876(11)
H18 H 0.0741 0.5905 0.2028
C21 C 0.10059(11) 0.9022(4) 0.23586(10)
C22 C 0.14875(11) 1.0767(4) 0.22854(10)
H19 H 0.1439 1.2097 0.2528
C23 C 0.20378(11) 1.0615(3) 0.18672(9)
H20 H 0.2369 1.1818 0.1827
C24 C 0.04308(13) 0.9174(5) 0.28394(13)
H21 H 0.0607 0.8300 0.3251
H22 H -0.0060 0.8605 0.2610
H23 H 0.0373 1.0716 0.2969
loop_
_geom_bond_atom_site_label_1
_geom_bond_atom_site_label_2
_geom_bond_site_symmetry_1
_geom_bond_site_symmetry_2
S1 O3 1_555 1_555
O1 C2 1_555 1_555
O2 C1 1_555 1_555
O4 S1 1_555 1_555
N1 S1 1_555 1_555
C1 N1 1_555 1_555
C2 C1 1_555 1_555
C3 O1 1_555 1_555
H1 C3 1_555 1_555
C4 C2 1_555 1_555
H2 C4 1_555 1_555
H3 C4 1_555 1_555
C5 C4 1_555 1_555
H4 C5 1_555 1_555
H5 C5 1_555 1_555
H6 C5 1_555 1_555
C6 C2 1_555 1_555
C7 C6 1_555 1_555
H7 C7 1_555 1_555
C8 C7 1_555 1_555
H8 C8 1_555 1_555
C9 C8 1_555 1_555
H9 C9 1_555 1_555
C10 C9 1_555 1_555
H10 C10 1_555 1_555
C11 C6 1_555 1_555
H11 C11 1_555 1_555
C12 C3 1_555 1_555
C13 C12 1_555 1_555
H12 C13 1_555 1_555
C14 C13 1_555 1_555
H13 C14 1_555 1_555
C15 C14 1_555 1_555
H14 C15 1_555 1_555
C16 C15 1_555 1_555
H15 C16 1_555 1_555
C17 C12 1_555 1_555
H16 C17 1_555 1_555
C18 S1 1_555 1_555
C19 C18 1_555 1_555
H17 C19 1_555 1_555
C20 C19 1_555 1_555
H18 C20 1_555 1_555
C21 C20 1_555 1_555
C22 C21 1_555 1_555
H19 C22 1_555 1_555
C23 C18 1_555 1_555
H20 C23 1_555 1_555
C24 C21 1_555 1_555
H21 C24 1_555 1_555
H22 C24 1_555 1_555
H23 C24 1_555 1_555
N1 C3 1_555 1_555
C10 C11 1_555 1_555
C16 C17 1_555 1_555
C22 C23 1_555 1_555

#END
