
#######################################################################
#
#                 Cambridge Crystallographic Data Centre
#                                CCDC 
#
#######################################################################
#
# If this CIF has been generated from an entry in the Cambridge 
# Structural Database, then it will include bibliographic, chemical, 
# crystal, experimental, refinement or atomic coordinate data resulting 
# from the CCDC's data processing and validation procedures.
#
#######################################################################

data_WAGSIJ
_chemical_formula_moiety         'C26 H26 N2 O2'
_chemical_name_systematic        
3-oxo-4-(1,2,3,4-tetrahydronaphthalen-1-ylamino)-6-(1,2,3,4-tetrahydronaphthalen-1-yliminio)cyclohexa-1,4-dien-1-olate
_symmetry_cell_setting           orthorhombic
_symmetry_space_group_name_H-M   'P 21 21 21'
_symmetry_Int_Tables_number      19
_space_group_name_Hall           'P 2ac 2ab'
loop_
_symmetry_equiv_pos_site_id
_symmetry_equiv_pos_as_xyz
1 x,y,z
2 1/2+x,1/2-y,-z
3 -x,1/2+y,1/2-z
4 1/2-x,-y,1/2+z
_cell_length_a                   8.3180(3)
_cell_length_b                   14.3938(5)
_cell_length_c                   18.1616(6)
_cell_angle_alpha                90
_cell_angle_beta                 90
_cell_angle_gamma                90
_cell_volume                     2174.45
_exptl_crystal_colour            red
_exptl_crystal_description       prism
_cell_formula_units_Z            4
loop_
_atom_site_label
_atom_site_type_symbol
_atom_site_fract_x
_atom_site_fract_y
_atom_site_fract_z
C1 C 0.0960(7) 0.5113(4) 0.1473(3)
H1 H 0.1498 0.5121 0.1012
C2 C 0.0267(6) 0.4301(4) 0.1736(3)
C3 C -0.0706(6) 0.4285(3) 0.2449(3)
C4 C -0.0806(7) 0.5107(4) 0.2846(3)
H2 H -0.1408 0.5107 0.3290
C5 C -0.0073(8) 0.5928(4) 0.2628(3)
C6 C 0.0852(8) 0.5922(4) 0.1902(3)
C7 C 0.1256(7) 0.3236(3) 0.0742(3)
H3 H 0.1283 0.2542 0.0715
C8 C 0.2985(7) 0.3565(4) 0.0775(3)
C9 C 0.3863(8) 0.3483(5) 0.1416(4)
H4 H 0.3381 0.3188 0.1829
C10 C 0.5415(10) 0.3814(7) 0.1482(6)
H5 H 0.5978 0.3751 0.1935
C11 C 0.6124(10) 0.4224(7) 0.0904(7)
H6 H 0.7180 0.4469 0.0950
C12 C 0.5320(10) 0.4289(5) 0.0242(6)
H7 H 0.5851 0.4557 -0.0170
C13 C 0.3731(8) 0.3969(4) 0.0163(4)
C14 C 0.2867(12) 0.4069(6) -0.0556(4)
H8 H 0.3615 0.3908 -0.0960
H9 H 0.2550 0.4727 -0.0620
C15 C 0.1376(11) 0.3463(6) -0.0618(4)
H10 H 0.0754 0.3642 -0.1060
H11 H 0.1698 0.2804 -0.0670
C16 C 0.0345(8) 0.3578(4) 0.0061(3)
H12 H -0.0662 0.3218 0.0002
H13 H 0.0058 0.4240 0.0123
C17 C 0.2204(16) 0.7048(10) 0.1046(8)
H14 H 0.2208 0.6518 0.0690
C18 C 0.3973(8) 0.7234(6) 0.1289(6)
C19 C 0.4739(9) 0.6536(5) 0.1685(5)
H15 H 0.4177 0.5983 0.1806
C20 C 0.6329(9) 0.6649(5) 0.1903(5)
H16 H 0.6853 0.6172 0.2174
C21 C 0.7152(7) 0.7459(6) 0.1726(5)
H17 H 0.8238 0.7536 0.1876
C22 C 0.6385(9) 0.8157(5) 0.1330(5)
H18 H 0.6948 0.8710 0.1209
C23 C 0.4796(9) 0.8044(5) 0.1112(5)
C24 C 0.3991(16) 0.8764(9) 0.0648(8)
H19 H 0.3706 0.9296 0.0968
H20 H 0.4777 0.8991 0.0281
C25 C 0.2749(17) 0.8510(11) 0.0314(9)
H21 H 0.3131 0.8153 -0.0119
H22 H 0.2257 0.9084 0.0117
C26 C 0.1399(15) 0.7959(9) 0.0630(7)
H23 H 0.0658 0.7755 0.0236
H24 H 0.0786 0.8339 0.0988
N1 N 0.0391(5) 0.3482(3) 0.1421(2)
N2 N 0.1532(10) 0.6718(4) 0.1740(3)
O1 O -0.1346(5) 0.3533(2) 0.2613(2)
O2 O -0.0111(7) 0.6679(3) 0.2973(2)
H25 H -0.0092 0.3046 0.1667
H26 H 0.1427 0.7179 0.2122
C27? C 0.2828(16) 0.6770(10) 0.1119(7)
H27? H 0.3258 0.6134 0.1017
C28? C 0.4174(15) 0.7412(10) 0.1272(8)
C29? C 0.5545(15) 0.7118(10) 0.1682(7)
H28? H 0.5601 0.6503 0.1871
C30? C 0.6828(16) 0.7750(10) 0.1807(7)
H29? H 0.7744 0.7540 0.2071
C31? C 0.6802(15) 0.8631(10) 0.1567(7)
H30? H 0.7676 0.9041 0.1656
C32? C 0.5440(15) 0.8923(10) 0.1183(7)
H31? H 0.5345 0.9556 0.1042
C33? C 0.4230(15) 0.8308(10) 0.1004(7)
C34? C 0.2971(17) 0.8777(10) 0.0564(8)
H32? H 0.2127 0.9025 0.0894
H33? H 0.3446 0.9303 0.0288
C35? C 0.2347(16) 0.8188(9) 0.0109(8)
H34? H 0.3121 0.8090 -0.0297
H35? H 0.1372 0.8474 -0.0106
C36? C 0.1817(15) 0.7103(8) 0.0460(7)
H36? H 0.0675 0.7125 0.0613
H37? H 0.1909 0.6639 0.0060
loop_
_geom_bond_atom_site_label_1
_geom_bond_atom_site_label_2
_geom_bond_site_symmetry_1
_geom_bond_site_symmetry_2
C1 H1 1_555 1_555
C2 C1 1_555 1_555
C3 C2 1_555 1_555
C4 C3 1_555 1_555
H2 C4 1_555 1_555
C5 C4 1_555 1_555
C6 C1 1_555 1_555
C7 H3 1_555 1_555
C8 C7 1_555 1_555
C9 C8 1_555 1_555
H4 C9 1_555 1_555
C10 C9 1_555 1_555
H5 C10 1_555 1_555
C11 C10 1_555 1_555
H6 C11 1_555 1_555
C12 C11 1_555 1_555
H7 C12 1_555 1_555
C13 C8 1_555 1_555
C14 C13 1_555 1_555
H8 C14 1_555 1_555
H9 C14 1_555 1_555
C15 C14 1_555 1_555
H10 C15 1_555 1_555
H11 C15 1_555 1_555
C16 C7 1_555 1_555
H12 C16 1_555 1_555
H13 C16 1_555 1_555
C17 H14 1_555 1_555
C18 C17 1_555 1_555
C19 C18 1_555 1_555
H15 C19 1_555 1_555
C20 C19 1_555 1_555
H16 C20 1_555 1_555
C21 C20 1_555 1_555
H17 C21 1_555 1_555
C22 C21 1_555 1_555
H18 C22 1_555 1_555
C23 C18 1_555 1_555
C24 C23 1_555 1_555
H19 C24 1_555 1_555
H20 C24 1_555 1_555
C25 C24 1_555 1_555
H21 C25 1_555 1_555
H22 C25 1_555 1_555
C26 C17 1_555 1_555
H23 C26 1_555 1_555
H24 C26 1_555 1_555
N1 C2 1_555 1_555
N2 C6 1_555 1_555
O1 C3 1_555 1_555
O2 C5 1_555 1_555
H25 N1 1_555 1_555
H26 N2 1_555 1_555
C5 C6 1_555 1_555
C7 N1 1_555 1_555
C12 C13 1_555 1_555
C15 C16 1_555 1_555
C17 N2 1_555 1_555
C22 C23 1_555 1_555
C25 C26 1_555 1_555

#END
