
#######################################################################
#
#                 Cambridge Crystallographic Data Centre
#                                CCDC 
#
#######################################################################
#
# If this CIF has been generated from an entry in the Cambridge 
# Structural Database, then it will include bibliographic, chemical, 
# crystal, experimental, refinement or atomic coordinate data resulting 
# from the CCDC's data processing and validation procedures.
#
#######################################################################

data_WAGTEE
_chemical_formula_moiety         'C12 H20 N3 O1 1+,C2 F3 O2 1-'
_chemical_name_systematic        
'syn-L-t-Leucinyl-L-cis-4,5-methanoprolinenitrile trifluoroacetate'
_chemical_properties_biological  'dipeptidyl peptidase IV inhibitor'
_symmetry_cell_setting           monoclinic
_symmetry_space_group_name_H-M   'C 2'
_symmetry_Int_Tables_number      5
_space_group_name_Hall           'C 2y'
loop_
_symmetry_equiv_pos_site_id
_symmetry_equiv_pos_as_xyz
1 x,y,z
2 -x,y,-z
3 1/2+x,1/2+y,z
4 1/2-x,1/2+y,-z
_cell_length_a                   22.094(3)
_cell_length_b                   6.470(5)
_cell_length_c                   26.114(3)
_cell_angle_alpha                90
_cell_angle_beta                 114.84(1)
_cell_angle_gamma                90
_cell_volume                     3387.59
_exptl_crystal_colour            colorless
_exptl_crystal_description       rods
_chemical_melting_point          '171-185 deg.C'
_cell_formula_units_Z            8
_exptl_crystal_recrystallization_method 'aqueous isopropanol'
loop_
_atom_site_label
_atom_site_type_symbol
_atom_site_fract_x
_atom_site_fract_y
_atom_site_fract_z
O1 O 0.2326(4) 0.732(4) 0.0642(3)
N1 N 0.3031(5) 0.882(4) 0.1468(5)
N2 N 0.2063(4) 1.120(4) 0.0144(4)
N3 N 0.2631(9) 0.490(5) 0.2106(7)
C1 C 0.3345(7) 0.673(5) 0.1674(6)
C2 C 0.4050(7) 0.741(5) 0.2122(6)
C3 C 0.4024(7) 0.954(5) 0.2265(6)
C4 C 0.3382(6) 1.053(5) 0.1837(5)
C5 C 0.3490(8) 1.028(5) 0.2450(6)
C6 C 0.2509(6) 0.885(5) 0.0923(5)
C7 C 0.2154(5) 1.091(5) 0.0734(5)
C8 C 0.1486(6) 1.099(5) 0.0802(5)
C9 C 0.1228(6) 1.324(5) 0.0698(6)
C10 C 0.0972(6) 0.954(5) 0.0373(6)
C11 C 0.1593(7) 1.044(5) 0.1390(6)
C12 C 0.2944(9) 0.568(5) 0.1905(7)
H1 H 0.3380 0.5907 0.1356
H2 H 0.4183 0.6547 0.2537
H3 H 0.4434 0.7119 0.1995
H4 H 0.4454 1.0401 0.2225
H5 H 0.3464 1.1738 0.1587
H6 H 0.3248 0.8836 0.2565
H7 H 0.3561 1.1365 0.2748
H8 H 0.2478 1.2103 0.1012
H9 H 0.1939 1.2805 0.0025
H10 H 0.2518 1.0808 0.0114
H11 H 0.1661 1.0233 -0.0140
H12 H 0.0862 1.3556 0.0851
H13 H 0.1653 1.4353 0.0915
H14 H 0.1037 1.3601 0.0251
H15 H 0.0570 0.9107 0.0496
H16 H 0.0763 1.0119 -0.0044
H17 H 0.1221 0.8012 0.0363
H18 H 0.2062 1.1104 0.1695
H19 H 0.1196 1.0798 0.1479
H20 H 0.1679 0.8708 0.1426
O2 O 0.3536(6) 0.980(5) 0.0511(5)
O3 O 0.351(6) 1.306(4) 0.0710(4)
C13 C 0.3778(7) 1.140(5) 0.0714(5)
C14 C 0.458(1) 1.152(6) 0.110(1)
F1 F 0.4787(8) 1.081(6) 0.1513(8)
F2 F 0.4828(7) 1.107(5) 0.0668(6)
F3 F 0.473(1) 1.355(6) 0.117(1)
O4 O 0.171(4) 1.103(5) 0.4349(4)
N4 N 0.1659(5) 0.964(4) 0.3547(5)
N5 N 0.1903(4) 0.715(4) 0.4831(4)
N6 N 0.0691(6) 1.364(5) 0.2894(6)
C15 C 0.1799(6) 1.166(5) 0.3363(5)
C16 C 0.2107(7) 1.118(5) 0.295(6)
C17 C 0.1887(8) 0.893(5) 0.277(7)
C18 C 0.1618(6) 0.802(5) 0.3165(5)
C19 C 0.1169(9) 0.835(5) 0.2567(6)
C20 C 0.1603(7) 0.954(5) 0.4043(6)
C21 C 0.1437(6) 0.750(5) 0.4225(5)
C22 C 0.0688(6) 0.741(5) 0.4160(6)
C23 C 0.0527(7) 0.520(5) 0.4240(7)
C24 C 0.0246(6) 0.826(5) 0.3558(6)
C25 C 0.0589(6) 0.883(5) 0.4596(6)
C26 C 0.1180(8) 1.273(5) 0.3085(6)
H21 H 0.2161 1.2512 0.3711
H22 H 0.1878 1.2087 0.2561
H23 H 0.2620 1.1246 0.3122
H24 H 0.2329 0.8133 0.2786
H25 H 0.1945 0.6728 0.3413
H26 H 0.0767 0.9372 0.2448
H27 H 0.0993 0.6896 0.2306
H28 H 0.1552 0.6244 0.3956
H29 H 0.1808 0.5651 0.4989
H30 H 0.2428 0.7130 0.4901
H31 H 0.1851 0.8341 0.5108
H32 H 0.0042 0.4943 0.4214
H33 H 0.0615 0.4126 0.3947
H34 H 0.0892 0.4643 0.4674
H35 H -0.0279 0.8293 0.3510
H36 H 0.0381 0.9880 0.3534
H37 H 0.0284 0.7374 0.3244
H38 H 0.0081 0.8729 0.4532
H39 H 0.0914 0.8239 0.5006
H40 H 0.0724 1.0367 0.4542
O5 O 0.2833(5) 0.531(4) 0.4319(4)
O6 O 0.3082(3) 0.859(4) 0.4542(3)
C27 C 0.3122(7) 0.694(5) 0.4342(6)
C28 C 0.369(1) 0.649(5) 0.4023(9)
F4 F 0.4210(6) 0.707(5) 0.4369(6)
F5 F 0.352(9) 0.844(5) 0.372(8)
F6 F 0.307(2) 0.565(8) 0.347(2)
F7? F 0.486(1) 1.248(6) 0.0927(9)
F8? F 0.461(1) 1.261(7) 0.157(1)
F9? F 0.476(1) 0.958(6) 0.130(1)
F10? F 0.365(3) 0.473(9) 0.392(2)
F11? F 0.383(3) 0.930(1) 0.413(2)
F12? F 0.337(1) 0.694(6) 0.354(1)
F13? F 0.461(3) 0.90(1) 0.092(3)
loop_
_geom_bond_atom_site_label_1
_geom_bond_atom_site_label_2
_geom_bond_site_symmetry_1
_geom_bond_site_symmetry_2
O1 C6 1_555 1_555
N1 C1 1_555 1_555
N2 C7 1_555 1_555
N3 C12 1_555 1_555
C1 C2 1_555 1_555
C2 C3 1_555 1_555
C3 C4 1_555 1_555
C4 N1 1_555 1_555
C5 C3 1_555 1_555
C6 N1 1_555 1_555
C7 C6 1_555 1_555
C8 C7 1_555 1_555
C9 C8 1_555 1_555
C10 C8 1_555 1_555
C11 C8 1_555 1_555
C12 C1 1_555 1_555
H1 C1 1_555 1_555
H2 C2 1_555 1_555
H3 C2 1_555 1_555
H4 C3 1_555 1_555
H5 C4 1_555 1_555
H6 C5 1_555 1_555
H7 C5 1_555 1_555
H8 C7 1_555 1_555
H9 N2 1_555 1_555
H10 N2 1_555 1_555
H11 N2 1_555 1_555
H12 C9 1_555 1_555
H13 C9 1_555 1_555
H14 C9 1_555 1_555
H15 C10 1_555 1_555
H16 C10 1_555 1_555
H17 C10 1_555 1_555
H18 C11 1_555 1_555
H19 C11 1_555 1_555
H20 C11 1_555 1_555
O2 C13 1_555 1_555
O3 C13 1_555 1_555
C13 C14 1_555 1_555
C14 F1 1_555 1_555
F2 C14 1_555 1_555
F3 C14 1_555 1_555
O4 C20 1_555 1_555
N4 C15 1_555 1_555
N5 C21 1_555 1_555
N6 C26 1_555 1_555
C15 C16 1_555 1_555
C16 C17 1_555 1_555
C17 C18 1_555 1_555
C18 N4 1_555 1_555
C19 C17 1_555 1_555
C20 N4 1_555 1_555
C21 C20 1_555 1_555
C22 C21 1_555 1_555
C23 C22 1_555 1_555
C24 C22 1_555 1_555
C25 C22 1_555 1_555
C26 C15 1_555 1_555
H21 C15 1_555 1_555
H22 C16 1_555 1_555
H23 C16 1_555 1_555
H24 C17 1_555 1_555
H25 C18 1_555 1_555
H26 C19 1_555 1_555
H27 C19 1_555 1_555
H28 C21 1_555 1_555
H29 N5 1_555 1_555
H30 N5 1_555 1_555
H31 N5 1_555 1_555
H32 C23 1_555 1_555
H33 C23 1_555 1_555
H34 C23 1_555 1_555
H35 C24 1_555 1_555
H36 C24 1_555 1_555
H37 C24 1_555 1_555
H38 C25 1_555 1_555
H39 C25 1_555 1_555
H40 C25 1_555 1_555
O5 C27 1_555 1_555
O6 C27 1_555 1_555
C27 C28 1_555 1_555
C28 F4 1_555 1_555
F5 C28 1_555 1_555
F6 C28 1_555 1_555
C4 C5 1_555 1_555
C18 C19 1_555 1_555

#END
