
#######################################################################
#
#                 Cambridge Crystallographic Data Centre
#                                CCDC 
#
#######################################################################
#
# If this CIF has been generated from an entry in the Cambridge 
# Structural Database, then it will include bibliographic, chemical, 
# crystal, experimental, refinement or atomic coordinate data resulting 
# from the CCDC's data processing and validation procedures.
#
#######################################################################

data_WAHCOZ
_chemical_formula_moiety         'C14 H14 N4 O3,H2 O1'
_chemical_name_systematic        
"N'-(E)-(2,4-Dimethoxybenzylidene)-2-pyrazinecarbohydrazide monohydrate"
_symmetry_cell_setting           monoclinic
_symmetry_space_group_name_H-M   'P 21/c'
_symmetry_Int_Tables_number      14
_space_group_name_Hall           '-P 2ybc'
loop_
_symmetry_equiv_pos_site_id
_symmetry_equiv_pos_as_xyz
1 x,y,z
2 -x,1/2+y,1/2-z
3 -x,-y,-z
4 x,1/2-y,1/2+z
_cell_length_a                   17.6621(5)
_cell_length_b                   11.2230(3)
_cell_length_c                   7.1588(2)
_cell_angle_alpha                90
_cell_angle_beta                 97.4502(16)
_cell_angle_gamma                90
_cell_volume                     1407.05
_exptl_crystal_colour            'pale yellow'
_exptl_crystal_description       slab
_chemical_melting_point          '475-476 K'
_cell_formula_units_Z            4
_exptl_crystal_recrystallization_method ethanol
loop_
_atom_site_label
_atom_site_type_symbol
_atom_site_fract_x
_atom_site_fract_y
_atom_site_fract_z
O1 O 0.13447(6) 0.34316(10) 0.43280(16)
O2 O 0.29548(6) 0.87674(9) 0.65429(15)
O3 O 0.53184(6) 0.69147(9) 0.94095(15)
N1 N -0.08260(8) 0.32521(12) 0.13843(19)
N2 N -0.01129(7) 0.54386(11) 0.23757(17)
N3 N 0.13322(7) 0.54649(11) 0.43060(18)
H1 H 0.1082 0.6123 0.3958
N4 N 0.20585(7) 0.55058(11) 0.53133(17)
C1 C 0.02335(8) 0.43968(13) 0.2813(2)
C2 C -0.01186(9) 0.33145(14) 0.2321(2)
H2 H 0.0150 0.2597 0.2658
C3 C -0.11725(9) 0.42930(14) 0.0954(2)
H3 H -0.1675 0.4293 0.0296
C4 C -0.08194(9) 0.53772(14) 0.1441(2)
H4 H -0.1087 0.6095 0.1100
C5 C 0.10230(9) 0.43869(13) 0.3878(2)
C6 C 0.23270(9) 0.65532(14) 0.5700(2)
H5 H 0.2029 0.7237 0.5325
C7 C 0.30914(8) 0.66865(13) 0.6718(2)
C8 C 0.34157(9) 0.78202(13) 0.7104(2)
C9 C 0.41639(9) 0.79397(13) 0.7995(2)
H6 H 0.4381 0.8707 0.8240
C10 C 0.45864(8) 0.69175(13) 0.8520(2)
C11 C 0.42700(9) 0.57858(13) 0.8171(2)
H7 H 0.4562 0.5093 0.8532
C12 C 0.35307(9) 0.56826(13) 0.7297(2)
H8 H 0.3314 0.4912 0.7082
C13 C 0.32393(9) 0.99478(13) 0.6992(2)
H9 H 0.3337 1.0041 0.8364
H10 H 0.2860 1.0536 0.6470
H11 H 0.3715 1.0071 0.6449
C14 C 0.57206(9) 0.80239(14) 0.9642(2)
H12 H 0.5750 0.8381 0.8404
H13 H 0.6238 0.7884 1.0282
H14 H 0.5450 0.8566 1.0400
O4 O 0.25113(9) 0.19548(15) 0.2768(2)
H15 H 0.2208(13) 0.2497(19) 0.312(4)
H16 H 0.2238(14) 0.161(2) 0.181(3)
loop_
_geom_bond_atom_site_label_1
_geom_bond_atom_site_label_2
_geom_bond_site_symmetry_1
_geom_bond_site_symmetry_2
O1 C5 1_555 1_555
O2 C8 1_555 1_555
O3 C10 1_555 1_555
N1 C2 1_555 1_555
N2 C1 1_555 1_555
N3 H1 1_555 1_555
N4 N3 1_555 1_555
C1 C2 1_555 1_555
C2 H2 1_555 1_555
C3 N1 1_555 1_555
H3 C3 1_555 1_555
C4 N2 1_555 1_555
H4 C4 1_555 1_555
C5 N3 1_555 1_555
C6 N4 1_555 1_555
H5 C6 1_555 1_555
C7 C6 1_555 1_555
C8 C7 1_555 1_555
C9 C8 1_555 1_555
H6 C9 1_555 1_555
C10 C9 1_555 1_555
C11 C10 1_555 1_555
H7 C11 1_555 1_555
C12 C7 1_555 1_555
H8 C12 1_555 1_555
C13 O2 1_555 1_555
H9 C13 1_555 1_555
H10 C13 1_555 1_555
H11 C13 1_555 1_555
C14 O3 1_555 1_555
H12 C14 1_555 1_555
H13 C14 1_555 1_555
H14 C14 1_555 1_555
O4 H15 1_555 1_555
H16 O4 1_555 1_555
C1 C5 1_555 1_555
C3 C4 1_555 1_555
C11 C12 1_555 1_555

#END
