
#######################################################################
#
#                 Cambridge Crystallographic Data Centre
#                                CCDC 
#
#######################################################################
#
# If this CIF has been generated from an entry in the Cambridge 
# Structural Database, then it will include bibliographic, chemical, 
# crystal, experimental, refinement or atomic coordinate data resulting 
# from the CCDC's data processing and validation procedures.
#
#######################################################################

data_WAHVIK
_chemical_formula_moiety         'C18 H40 B2 N2 O2'
_chemical_name_systematic        
2,6-Di-t-butyl-4,4,8,8-tetraethyl-1,5-dioxa-3,7-diaza-4,8-diboracyclo-octa-1,5-diene
_symmetry_cell_setting           monoclinic
_symmetry_space_group_name_H-M   'P 21/c'
_symmetry_Int_Tables_number      14
_space_group_name_Hall           '-P 2ybc'
loop_
_symmetry_equiv_pos_site_id
_symmetry_equiv_pos_as_xyz
1 x,y,z
2 -x,1/2+y,1/2-z
3 -x,-y,-z
4 x,1/2-y,1/2+z
_cell_length_a                   9.571(4)
_cell_length_b                   10.719(4)
_cell_length_c                   11.374(4)
_cell_angle_alpha                90
_cell_angle_beta                 113.72(3)
_cell_angle_gamma                90
_cell_volume                     1068.3
_chemical_melting_point          41-42deg.C
_cell_formula_units_Z            2
loop_
_atom_site_label
_atom_site_type_symbol
_atom_site_fract_x
_atom_site_fract_y
_atom_site_fract_z
N1 N 0.97745(18) 0.07946(14) 0.85775(15)
H1 H 0.9765(24) 0.1081(20) 0.7887(21)
O1 O 1.18656(14) -0.02468(12) 1.05370(12)
B1 B 1.13435(23) 0.09793(19) 0.97788(20)
C1 C 0.84017(21) 0.06528(15) 0.85110(16)
C2 C 0.69976(21) 0.10201(16) 0.73360(17)
C3 C 0.73837(25) 0.14992(21) 0.62379(19)
H2 H 0.78978(25) 0.08550(21) 0.59771(19)
H3 H 0.64660(25) 0.17318(21) 0.55221(19)
H4 H 0.80372(25) 0.22159(21) 0.65280(19)
C4 C 0.61870(24) 0.20434(20) 0.77613(19)
H5 H 0.59298(24) 0.17512(20) 0.84482(19)
H6 H 0.68449(24) 0.27581(20) 0.80460(19)
H7 H 0.52737(24) 0.22740(20) 0.70401(19)
C5 C 0.59444(24) -0.01151(20) 0.68762(21)
H8 H 0.56901(24) -0.04249(20) 0.75586(21)
H9 H 0.50302(24) 0.01306(20) 0.61637(21)
H10 H 0.64486(24) -0.07604(20) 0.66067(21)
C6 C 1.25975(23) 0.12407(20) 0.92007(20)
H11 H 1.22787(23) 0.19444(20) 0.86286(20)
H12 H 1.35377(23) 0.14599(20) 0.98992(20)
C7 C 1.29088(27) 0.01475(23) 0.84937(24)
H13 H 1.36721(27) 0.03603(23) 0.81810(24)
H14 H 1.19775(27) -0.00651(23) 0.77822(24)
H15 H 1.32495(27) -0.05546(23) 0.90660(24)
C8 C 1.11595(24) 0.20543(18) 1.06854(19)
H16 H 1.03982(24) 0.18098(18) 1.09890(19)
H17 H 1.21111(24) 0.21286(18) 1.14191(19)
C9 C 1.07550(33) 0.33297(19) 1.00560(26)
H18 H 1.06813(33) 0.39305(19) 1.06567(26)
H19 H 0.97918(33) 0.32690(19) 0.93329(26)
H20 H 1.15235(33) 0.35913(19) 0.97677(26)
C1B C 1.15983(21) -0.06528(15) 1.14890(16)
N1B N 1.02255(18) -0.07946(14) 1.14225(15)
H1B H 1.0235(24) -0.1081(20) 1.2113(21)
B1B B 0.86565(23) -0.09793(19) 1.02212(20)
O1B O 0.81344(14) 0.02468(12) 0.94630(12)
C6B C 0.74025(23) -0.12407(20) 1.07993(20)
H11B H 0.77213(23) -0.19444(20) 1.13714(20)
H12B H 0.64623(23) -0.14599(20) 1.01008(20)
C7B C 0.70912(27) -0.01475(23) 1.15063(24)
H13B H 0.63279(27) -0.03603(23) 1.18190(24)
H14B H 0.80225(27) 0.00651(23) 1.22178(24)
H15B H 0.67505(27) 0.05546(23) 1.09340(24)
C8B C 0.88405(24) -0.20543(18) 0.93146(19)
H16B H 0.96018(24) -0.18098(18) 0.90110(19)
H17B H 0.78889(24) -0.21286(18) 0.85809(19)
C9B C 0.92450(33) -0.33297(19) 0.99440(26)
H18B H 0.93187(33) -0.39305(19) 0.93433(26)
H19B H 1.02082(33) -0.32690(19) 1.06671(26)
H20B H 0.84765(33) -0.35913(19) 1.02323(26)
C2B C 1.30024(21) -0.10201(16) 1.26640(17)
C3B C 1.26163(25) -0.14992(21) 1.37621(19)
H2B H 1.21022(25) -0.08550(21) 1.40229(19)
H3B H 1.35340(25) -0.17318(21) 1.44779(19)
H4B H 1.19628(25) -0.22159(21) 1.34720(19)
C4B C 1.38130(24) -0.20434(20) 1.22387(19)
H5B H 1.40702(24) -0.17512(20) 1.15518(19)
H6B H 1.31551(24) -0.27581(20) 1.19540(19)
H7B H 1.47263(24) -0.22740(20) 1.29599(19)
C5B C 1.40556(24) 0.01151(20) 1.31238(21)
H8B H 1.43099(24) 0.04249(20) 1.24414(21)
H9B H 1.49698(24) -0.01306(20) 1.38363(21)
H10B H 1.35514(24) 0.07604(20) 1.33933(21)
loop_
_geom_bond_atom_site_label_1
_geom_bond_atom_site_label_2
_geom_bond_site_symmetry_1
_geom_bond_site_symmetry_2
N1 H1 1_555 1_555
O1 B1 1_555 1_555
B1 N1 1_555 1_555
C1 N1 1_555 1_555
C2 C1 1_555 1_555
C3 C2 1_555 1_555
H2 C3 1_555 1_555
H3 C3 1_555 1_555
H4 C3 1_555 1_555
C4 C2 1_555 1_555
H5 C4 1_555 1_555
H6 C4 1_555 1_555
H7 C4 1_555 1_555
C5 C2 1_555 1_555
H8 C5 1_555 1_555
H9 C5 1_555 1_555
H10 C5 1_555 1_555
C6 B1 1_555 1_555
H11 C6 1_555 1_555
H12 C6 1_555 1_555
C7 C6 1_555 1_555
H13 C7 1_555 1_555
H14 C7 1_555 1_555
H15 C7 1_555 1_555
C8 B1 1_555 1_555
H16 C8 1_555 1_555
H17 C8 1_555 1_555
C9 C8 1_555 1_555
H18 C9 1_555 1_555
H19 C9 1_555 1_555
H20 C9 1_555 1_555
C1B O1 1_555 1_555
N1B C1B 1_555 1_555
H1B N1B 1_555 1_555
B1B N1B 1_555 1_555
O1B C1 1_555 1_555
C6B B1B 1_555 1_555
H11B C6B 1_555 1_555
H12B C6B 1_555 1_555
C7B C6B 1_555 1_555
H13B C7B 1_555 1_555
H14B C7B 1_555 1_555
H15B C7B 1_555 1_555
C8B B1B 1_555 1_555
H16B C8B 1_555 1_555
H17B C8B 1_555 1_555
C9B C8B 1_555 1_555
H18B C9B 1_555 1_555
H19B C9B 1_555 1_555
H20B C9B 1_555 1_555
C2B C1B 1_555 1_555
C3B C2B 1_555 1_555
H2B C3B 1_555 1_555
H3B C3B 1_555 1_555
H4B C3B 1_555 1_555
C4B C2B 1_555 1_555
H5B C4B 1_555 1_555
H6B C4B 1_555 1_555
H7B C4B 1_555 1_555
C5B C2B 1_555 1_555
H8B C5B 1_555 1_555
H9B C5B 1_555 1_555
H10B C5B 1_555 1_555
B1B O1B 1_555 1_555

#END
