
#######################################################################
#
#                 Cambridge Crystallographic Data Centre
#                                CCDC 
#
#######################################################################
#
# If this CIF has been generated from an entry in the Cambridge 
# Structural Database, then it will include bibliographic, chemical, 
# crystal, experimental, refinement or atomic coordinate data resulting 
# from the CCDC's data processing and validation procedures.
#
#######################################################################

data_WAHXUB
_chemical_formula_moiety         'C13 H24 N2 O1 Si1'
_chemical_name_systematic        
8a-((trimethylsilyl)oxy)-3,3a,4,4a,5,6,7,8,8a,8b-decahydroindeno[1,2-c]pyrazole
_symmetry_cell_setting           triclinic
_symmetry_space_group_name_H-M   'P -1'
_symmetry_Int_Tables_number      2
_space_group_name_Hall           '-P 1'
loop_
_symmetry_equiv_pos_site_id
_symmetry_equiv_pos_as_xyz
1 x,y,z
2 -x,-y,-z
_cell_length_a                   8.6678(2)
_cell_length_b                   10.7098(3)
_cell_length_c                   15.9169(5)
_cell_angle_alpha                93.244(2)
_cell_angle_beta                 90.444(2)
_cell_angle_gamma                101.333(2)
_cell_volume                     1446.17
_exptl_crystal_colour            colorless
_exptl_crystal_description       blade
_cell_formula_units_Z            4
loop_
_atom_site_label
_atom_site_type_symbol
_atom_site_fract_x
_atom_site_fract_y
_atom_site_fract_z
Si1 Si 1.19690(13) 0.72211(10) 0.36022(7)
O1 O 1.0136(3) 0.7240(3) 0.33583(18)
N1 N 1.1086(4) 0.8832(3) 0.1704(2)
N2 N 1.0786(4) 0.9328(3) 0.2392(2)
C1 C 1.3084(5) 0.8769(4) 0.4077(3)
H1 H 1.2913 0.9450 0.3743
H2 H 1.4186 0.8750 0.4095
H3 H 1.2727 0.8906 0.4638
C2 C 1.1960(5) 0.5946(4) 0.4353(3)
H4 H 1.1431 0.6146 0.4856
H5 H 1.3024 0.5893 0.4493
H6 H 1.1422 0.5144 0.4098
C3 C 1.2920(5) 0.6764(5) 0.2624(3)
H7 H 1.2231 0.6065 0.2326
H8 H 1.3889 0.6513 0.2764
H9 H 1.3131 0.7478 0.2275
C4 C 0.9007(4) 0.8050(4) 0.3415(2)
C5 C 0.9071(5) 0.8766(4) 0.4273(3)
H10 H 0.8366 0.9366 0.4270
H11 H 1.0130 0.9246 0.4388
C6 C 0.8594(5) 0.7835(4) 0.4967(3)
H12 H 0.8536 0.8314 0.5497
H13 H 0.9391 0.7323 0.5027
C7 C 0.6993(5) 0.6950(4) 0.4764(3)
H14 H 0.6765 0.6337 0.5194
H15 H 0.6176 0.7453 0.4775
C8 C 0.6963(5) 0.6234(4) 0.3900(3)
H16 H 0.7707 0.5665 0.3898
H17 H 0.5921 0.5726 0.3778
C9 C 0.7394(5) 0.7195(4) 0.3242(3)
H18 H 0.6617 0.7747 0.3268
C10 C 0.7502(5) 0.6743(4) 0.2313(3)
H19 H 0.8123 0.6083 0.2253
H20 H 0.6466 0.6422 0.2063
C11 C 0.8326(5) 0.7976(4) 0.1910(3)
H21 H 0.7542 0.8367 0.1633
C12 C 0.9685(5) 0.7921(4) 0.1330(3)
H22 H 0.9894 0.7063 0.1281
H23 H 0.9441 0.8164 0.0774
C13 C 0.9150(4) 0.8884(4) 0.2640(3)
H24 H 0.8622 0.9607 0.2741
Si2 Si 0.16072(13) 0.73089(11) 0.85356(7)
O2 O 0.3446(3) 0.7309(3) 0.83160(17)
N3 N 0.3418(4) 0.8983(4) 0.6707(2)
N4 N 0.3956(4) 0.9444(3) 0.7410(2)
C14 C 0.1274(5) 0.8839(4) 0.9040(3)
H25 H 0.1660 0.8926 0.9612
H26 H 0.0168 0.8845 0.9033
H27 H 0.1821 0.9536 0.8736
C15 C 0.0942(6) 0.6015(4) 0.9257(3)
H28 H 0.1205 0.5236 0.9028
H29 H -0.0177 0.5897 0.9319
H30 H 0.1453 0.6241 0.9797
C16 C 0.0463(5) 0.6910(5) 0.7532(3)
H31 H 0.0638 0.7639 0.7195
H32 H -0.0637 0.6676 0.7651
H33 H 0.0798 0.6210 0.7232
C17 C 0.4992(5) 0.8071(4) 0.8420(3)
C18 C 0.5273(5) 0.8718(4) 0.9295(3)
H34 H 0.4489 0.9237 0.9407
H35 H 0.6301 0.9277 0.9326
C19 C 0.5185(6) 0.7733(5) 0.9963(3)
H36 H 0.4111 0.7263 0.9990
H37 H 0.5472 0.8171 1.0508
C20 C 0.6279(6) 0.6795(5) 0.9769(3)
H38 H 0.7364 0.7247 0.9823
H39 H 0.6119 0.6145 1.0178
C21 C 0.5987(6) 0.6151(4) 0.8882(3)
H40 H 0.6750 0.5614 0.8766
H41 H 0.4943 0.5618 0.8841
C22 C 0.6133(5) 0.7163(4) 0.8252(3)
H42 H 0.7201 0.7675 0.8313
C23 C 0.5837(5) 0.6786(4) 0.7305(3)
H43 H 0.6707 0.6449 0.7064
H44 H 0.4873 0.6156 0.7211
C24 C 0.5703(5) 0.8062(4) 0.6929(3)
H45 H 0.6696 0.8439 0.6671
C25 C 0.4341(6) 0.8048(5) 0.6331(3)
H46 H 0.4721 0.8297 0.5782
H47 H 0.3687 0.7201 0.6269
C26 C 0.5340(5) 0.8940(4) 0.7669(3)
H48 H 0.6241 0.9636 0.7800
loop_
_geom_bond_atom_site_label_1
_geom_bond_atom_site_label_2
_geom_bond_site_symmetry_1
_geom_bond_site_symmetry_2
Si1 O1 1_555 1_555
O1 C4 1_555 1_555
N1 N2 1_555 1_555
N2 C13 1_555 1_555
C1 Si1 1_555 1_555
H1 C1 1_555 1_555
H2 C1 1_555 1_555
H3 C1 1_555 1_555
C2 Si1 1_555 1_555
H4 C2 1_555 1_555
H5 C2 1_555 1_555
H6 C2 1_555 1_555
C3 Si1 1_555 1_555
H7 C3 1_555 1_555
H8 C3 1_555 1_555
H9 C3 1_555 1_555
C4 C5 1_555 1_555
C5 H10 1_555 1_555
H11 C5 1_555 1_555
C6 C5 1_555 1_555
H12 C6 1_555 1_555
H13 C6 1_555 1_555
C7 C6 1_555 1_555
H14 C7 1_555 1_555
H15 C7 1_555 1_555
C8 C7 1_555 1_555
H16 C8 1_555 1_555
H17 C8 1_555 1_555
C9 C4 1_555 1_555
H18 C9 1_555 1_555
C10 C9 1_555 1_555
H19 C10 1_555 1_555
H20 C10 1_555 1_555
C11 C10 1_555 1_555
H21 C11 1_555 1_555
C12 N1 1_555 1_555
H22 C12 1_555 1_555
H23 C12 1_555 1_555
C13 C4 1_555 1_555
H24 C13 1_555 1_555
Si2 O2 1_555 1_555
O2 C17 1_555 1_555
N3 N4 1_555 1_555
N4 C26 1_555 1_555
C14 Si2 1_555 1_555
H25 C14 1_555 1_555
H26 C14 1_555 1_555
H27 C14 1_555 1_555
C15 Si2 1_555 1_555
H28 C15 1_555 1_555
H29 C15 1_555 1_555
H30 C15 1_555 1_555
C16 Si2 1_555 1_555
H31 C16 1_555 1_555
H32 C16 1_555 1_555
H33 C16 1_555 1_555
C17 C18 1_555 1_555
C18 H34 1_555 1_555
H35 C18 1_555 1_555
C19 C18 1_555 1_555
H36 C19 1_555 1_555
H37 C19 1_555 1_555
C20 C19 1_555 1_555
H38 C20 1_555 1_555
H39 C20 1_555 1_555
C21 C20 1_555 1_555
H40 C21 1_555 1_555
H41 C21 1_555 1_555
C22 C17 1_555 1_555
H42 C22 1_555 1_555
C23 C22 1_555 1_555
H43 C23 1_555 1_555
H44 C23 1_555 1_555
C24 C23 1_555 1_555
H45 C24 1_555 1_555
C25 N3 1_555 1_555
H46 C25 1_555 1_555
H47 C25 1_555 1_555
C26 C17 1_555 1_555
H48 C26 1_555 1_555
C8 C9 1_555 1_555
C11 C12 1_555 1_555
C11 C13 1_555 1_555
C21 C22 1_555 1_555
C24 C25 1_555 1_555
C24 C26 1_555 1_555

#END
