
#######################################################################
#
#                 Cambridge Crystallographic Data Centre
#                                CCDC 
#
#######################################################################
#
# If this CIF has been generated from an entry in the Cambridge 
# Structural Database, then it will include bibliographic, chemical, 
# crystal, experimental, refinement or atomic coordinate data resulting 
# from the CCDC's data processing and validation procedures.
#
#######################################################################

data_WAJTEH
_chemical_formula_moiety         'C10 H10 B1 N1'
_chemical_name_systematic        1,2-Dihydro-2-phenyl-1,2-azaborine
_symmetry_cell_setting           monoclinic
_symmetry_space_group_name_H-M   'P 21/c'
_symmetry_Int_Tables_number      14
_space_group_name_Hall           '-P 2ybc'
loop_
_symmetry_equiv_pos_site_id
_symmetry_equiv_pos_as_xyz
1 x,y,z
2 x,1/2-y,1/2+z
3 -x,-y,-z
4 -x,1/2+y,1/2-z
_cell_length_a                   9.6105(13)
_cell_length_b                   5.5260(7)
_cell_length_c                   7.8636(10)
_cell_angle_alpha                90
_cell_angle_beta                 93.682(5)
_cell_angle_gamma                90
_cell_volume                     416.755
_exptl_crystal_colour            colorless
_exptl_crystal_description       sheet
_chemical_melting_point          117-119deg.C
_cell_formula_units_Z            2
loop_
_atom_site_label
_atom_site_type_symbol
_atom_site_fract_x
_atom_site_fract_y
_atom_site_fract_z
N1 N 0.32391(14) 0.1837(2) 0.50378(17)
H1 H 0.3529(15) 0.314(3) 0.576(2)
C2 C 0.18722(14) 0.1768(3) 0.44114(18)
H2 H 0.1209(16) 0.303(3) 0.471(2)
C3 C 0.36629(14) -0.1896(2) 0.35302(17)
H3 H 0.4254(16) -0.312(3) 0.3216(19)
C4 C 0.13872(14) -0.0107(3) 0.33525(18)
H4 H 0.0403(16) -0.018(3) 0.2949(18)
C5 C 0.22951(15) -0.1916(3) 0.29156(19)
H5 H 0.1947(15) -0.319(3) 0.210(2)
B1 B 0.42172(13) -0.0011(3) 0.46379(17)
B1B B 0.57828(13) 0.0011(3) 0.53621(17)
N1B N 0.67609(14) -0.1837(2) 0.49622(17)
H1B H 0.6471(15) -0.314(3) 0.424(2)
C2B C 0.81278(14) -0.1768(3) 0.55886(18)
H2B H 0.8791(16) -0.303(3) 0.529(2)
C4B C 0.86128(14) 0.0107(3) 0.66475(18)
H4B H 0.9597(16) 0.018(3) 0.7051(18)
C5B C 0.77049(15) 0.1916(3) 0.70844(19)
C3B C 0.63371(14) 0.1896(2) 0.64698(17)
H3B H 0.5746(16) 0.312(3) 0.6784(19)
H5B H 0.8053(15) 0.319(3) 0.790(2)
C1? C 0.32391(14) 0.1837(2) 0.50378(17)
N2? N 0.36629(14) -0.1896(2) 0.35302(17)
C6? C 0.42172(13) -0.0011(3) 0.46379(17)
loop_
_geom_bond_atom_site_label_1
_geom_bond_atom_site_label_2
_geom_bond_site_symmetry_1
_geom_bond_site_symmetry_2
N1 H1 1_555 1_555
C2 N1 1_555 1_555
H2 C2 1_555 1_555
C3 H3 1_555 1_555
C4 C2 1_555 1_555
H4 C4 1_555 1_555
C5 C3 1_555 1_555
H5 C5 1_555 1_555
B1 N1 1_555 1_555
B1B B1 1_555 1_555
N1B B1B 1_555 1_555
H1B N1B 1_555 1_555
C2B N1B 1_555 1_555
H2B C2B 1_555 1_555
C4B C2B 1_555 1_555
H4B C4B 1_555 1_555
C5B C4B 1_555 1_555
C3B B1B 1_555 1_555
H3B C3B 1_555 1_555
H5B C5B 1_555 1_555
C3 B1 1_555 1_555
C4 C5 1_555 1_555
C5B C3B 1_555 1_555

#END
