
#######################################################################
#
#                 Cambridge Crystallographic Data Centre
#                                CCDC 
#
#######################################################################
#
# If this CIF has been generated from an entry in the Cambridge 
# Structural Database, then it will include bibliographic, chemical, 
# crystal, experimental, refinement or atomic coordinate data resulting 
# from the CCDC's data processing and validation procedures.
#
#######################################################################

data_WAJWAH
_chemical_formula_moiety         'C12 H8 N4 O3,C7 H6 O4'
_chemical_name_systematic        
"3,4-Dihydroxybenzoic acid 4,4'-(1,3,4-oxadiazole-2,5-diylidene)dipyridin-1(4H)-ol"
_symmetry_cell_setting           monoclinic
_symmetry_space_group_name_H-M   'P 21/n'
_symmetry_Int_Tables_number      14
_space_group_name_Hall           '-P 2yn'
loop_
_symmetry_equiv_pos_site_id
_symmetry_equiv_pos_as_xyz
1 x,y,z
2 1/2-x,1/2+y,1/2-z
3 -x,-y,-z
4 1/2+x,1/2-y,1/2+z
_cell_length_a                   10.686(2)
_cell_length_b                   7.0251(16)
_cell_length_c                   23.755(6)
_cell_angle_alpha                90
_cell_angle_beta                 99.459(4)
_cell_angle_gamma                90
_cell_volume                     1759.05
_exptl_crystal_colour            yellow
_exptl_crystal_description       bar
_cell_formula_units_Z            4
loop_
_atom_site_label
_atom_site_type_symbol
_atom_site_fract_x
_atom_site_fract_y
_atom_site_fract_z
C1 C -0.2466(4) 0.4567(6) 0.87770(18)
H1 H -0.3069 0.4071 0.8978
C2 C -0.1316(4) 0.5115(6) 0.90637(17)
H2 H -0.1136 0.5004 0.9459
C3 C -0.0409(4) 0.5844(5) 0.87641(16)
C4 C -0.0711(4) 0.5995(6) 0.81761(17)
H3 H -0.0119 0.6477 0.7967
C5 C -0.1880(4) 0.5437(6) 0.79042(17)
H4 H -0.2080 0.5544 0.7509
C6 C 0.0831(4) 0.6413(6) 0.90699(17)
C7 C 0.2749(4) 0.7264(6) 0.91801(18)
C8 C 0.3934(4) 0.7845(6) 0.90078(17)
C9 C 0.4047(4) 0.8005(6) 0.84389(18)
H5 H 0.3365 0.7702 0.8157
C10 C 0.5163(4) 0.8609(6) 0.82920(18)
H6 H 0.5234 0.8700 0.7908
C11 C 0.6078(4) 0.8907(8) 0.9245(2)
H7 H 0.6774 0.9215 0.9519
C12 C 0.4988(4) 0.8290(8) 0.9413(2)
H8 H 0.4948 0.8167 0.9799
N1 N -0.2745(3) 0.4734(5) 0.82003(14)
N2 N 0.1192(3) 0.6589(6) 0.96098(15)
N3 N 0.2467(3) 0.7137(6) 0.96852(15)
N4 N 0.6160(3) 0.9075(5) 0.86891(15)
O1 O -0.3868(3) 0.4226(5) 0.79261(13)
O2 O 0.1759(2) 0.6828(4) 0.87673(11)
O3 O 0.7208(3) 0.9671(6) 0.85258(14)
C13 C 0.0226(4) 0.1012(6) 0.89726(17)
C14 C 0.0166(4) 0.0838(6) 0.83792(19)
H9 H -0.0571 0.0389 0.8155
C15 C 0.1184(4) 0.1324(7) 0.8130(2)
H10 H 0.1142 0.1161 0.7739
C16 C 0.2264(4) 0.2045(6) 0.84443(18)
C17 C 0.3374(5) 0.2557(7) 0.8150(2)
C18 C 0.2343(4) 0.2250(6) 0.9031(2)
H11 H 0.3078 0.2737 0.9247
C19 C 0.1319(4) 0.1726(6) 0.92988(18)
O4 O -0.0726(3) 0.0506(5) 0.92476(12)
H12 H -0.1360 0.0259 0.9014
O5 O 0.1399(3) 0.1948(7) 0.98592(15)
H13 H 0.0707 0.1727 0.9952
O6 O 0.4337(3) 0.3211(5) 0.84976(16)
H14 H 0.4911 0.3467 0.8319
O7 O 0.3345(3) 0.2318(6) 0.76451(16)
loop_
_geom_bond_atom_site_label_1
_geom_bond_atom_site_label_2
_geom_bond_site_symmetry_1
_geom_bond_site_symmetry_2
C1 H1 1_555 1_555
C2 C1 1_555 1_555
H2 C2 1_555 1_555
C3 C2 1_555 1_555
C4 C3 1_555 1_555
H3 C4 1_555 1_555
C5 C4 1_555 1_555
H4 C5 1_555 1_555
C6 C3 1_555 1_555
C7 C8 1_555 1_555
C8 C9 1_555 1_555
C9 H5 1_555 1_555
C10 C9 1_555 1_555
H6 C10 1_555 1_555
C11 H7 1_555 1_555
C12 C8 1_555 1_555
H8 C12 1_555 1_555
C13 C14 1_555 1_555
C14 H9 1_555 1_555
C15 C14 1_555 1_555
H10 C15 1_555 1_555
C16 C15 1_555 1_555
C17 C16 1_555 1_555
C18 C16 1_555 1_555
H11 C18 1_555 1_555
C19 C13 1_555 1_555
N1 C1 1_555 1_555
N2 C6 1_555 1_555
N3 C7 1_555 1_555
N4 C10 1_555 1_555
O1 N1 1_555 1_555
O2 C6 1_555 1_555
O3 N4 1_555 1_555
O4 C13 1_555 1_555
H12 O4 1_555 1_555
O5 C19 1_555 1_555
H13 O5 1_555 1_555
O6 C17 1_555 1_555
H14 O6 1_555 1_555
O7 C17 1_555 1_555
C5 N1 1_555 1_555
C7 O2 1_555 1_555
C11 C12 1_555 1_555
C11 N4 1_555 1_555
C18 C19 1_555 1_555
N2 N3 1_555 1_555

#END
