
#######################################################################
#
#                 Cambridge Crystallographic Data Centre
#                                CCDC 
#
#######################################################################
#
# If this CIF has been generated from an entry in the Cambridge 
# Structural Database, then it will include bibliographic, chemical, 
# crystal, experimental, refinement or atomic coordinate data resulting 
# from the CCDC's data processing and validation procedures.
#
#######################################################################

data_WAJWEL
_chemical_formula_moiety         'C12 H8 N4 O3,C7 H7 N1 O2'
_chemical_name_systematic        
"3-Aminobenzoic acid 4,4'-(1,3,4-oxadiazole-2,5-diylidene)dipyridin-1(4H)-ol"
_symmetry_cell_setting           monoclinic
_symmetry_space_group_name_H-M   'P 21'
_symmetry_Int_Tables_number      4
_space_group_name_Hall           'P 2yb'
loop_
_symmetry_equiv_pos_site_id
_symmetry_equiv_pos_as_xyz
1 x,y,z
2 -x,1/2+y,-z
_cell_length_a                   11.037(3)
_cell_length_b                   7.1184(19)
_cell_length_c                   11.835(3)
_cell_angle_alpha                90
_cell_angle_beta                 108.271(4)
_cell_angle_gamma                90
_cell_volume                     882.948
_exptl_crystal_colour            yellow
_exptl_crystal_description       block
_cell_formula_units_Z            2
loop_
_atom_site_label
_atom_site_type_symbol
_atom_site_fract_x
_atom_site_fract_y
_atom_site_fract_z
C1 C 0.3845(3) -0.1915(5) 0.2365(3)
H1 H 0.3063 -0.2442 0.1941
C2 C 0.4656(3) -0.1313(5) 0.1781(3)
H2 H 0.4425 -0.1443 0.0959
C3 C 0.5816(3) -0.0510(5) 0.2389(3)
C4 C 0.6137(3) -0.0387(5) 0.3614(3)
H3 H 0.6924 0.0108 0.4053
C5 C 0.5305(3) -0.0987(5) 0.4183(3)
H4 H 0.5521 -0.0870 0.5005
C6 C 0.6668(3) 0.0167(5) 0.1773(3)
C7 C 0.8416(3) 0.1082(5) 0.1558(3)
C8 C 0.9750(3) 0.1599(4) 0.1912(3)
C9 C 1.0293(3) 0.2289(6) 0.1103(3)
H5 H 0.9797 0.2423 0.0312
C10 C 1.1550(3) 0.2782(6) 0.1441(3)
H6 H 1.1896 0.3260 0.0878
C11 C 1.1766(3) 0.1949(5) 0.3386(3)
H7 H 1.2271 0.1846 0.4177
C12 C 1.0511(3) 0.1451(5) 0.3077(3)
H8 H 1.0170 0.1011 0.3653
N1 N 0.7605(3) 0.1007(4) 0.0499(2)
N2 N 0.6449(2) 0.0397(4) 0.0645(2)
N3 N 0.4174(3) -0.1749(4) 0.3563(2)
N4 N 1.2293(3) 0.2587(4) 0.2575(3)
O1 O 0.3399(2) -0.2327(4) 0.41380(19)
O2 O 1.3481(2) 0.3042(4) 0.2887(2)
O3 O 0.78953(19) 0.0554(3) 0.24106(17)
C13 C 0.6965(3) 0.4889(5) 0.2847(3)
C14 C 0.6542(3) 0.5185(5) 0.1625(3)
H9 H 0.5699 0.4916 0.1193
C15 C 0.7344(4) 0.5864(6) 0.1052(3)
H10 H 0.7038 0.6070 0.0235
C16 C 0.8605(3) 0.6251(5) 0.1665(3)
H11 H 0.9144 0.6728 0.1268
C17 C 0.9056(3) 0.5924(5) 0.2875(3)
C18 C 0.8243(3) 0.5229(5) 0.3454(3)
H12 H 0.8557 0.4985 0.4266
C19 C 1.0404(3) 0.6292(5) 0.3559(3)
N5 N 0.6143(3) 0.4310(5) 0.3434(3)
O4 O 1.0828(2) 0.6145(4) 0.46336(19)
O5 O 1.1111(2) 0.6788(4) 0.2901(2)
H13 H 1.2008 0.7120 0.3431
H14 H 0.6450 0.3892 0.4158
H15 H 0.5402 0.4069 0.2992
loop_
_geom_bond_atom_site_label_1
_geom_bond_atom_site_label_2
_geom_bond_site_symmetry_1
_geom_bond_site_symmetry_2
C1 H1 1_555 1_555
C2 C1 1_555 1_555
H2 C2 1_555 1_555
C3 C2 1_555 1_555
C4 C3 1_555 1_555
H3 C4 1_555 1_555
C5 C4 1_555 1_555
H4 C5 1_555 1_555
C6 C3 1_555 1_555
C7 C8 1_555 1_555
C8 C9 1_555 1_555
C9 H5 1_555 1_555
C10 C9 1_555 1_555
H6 C10 1_555 1_555
C11 H7 1_555 1_555
C12 C8 1_555 1_555
H8 C12 1_555 1_555
C13 C14 1_555 1_555
C14 H9 1_555 1_555
C15 C14 1_555 1_555
H10 C15 1_555 1_555
C16 C15 1_555 1_555
H11 C16 1_555 1_555
C17 C16 1_555 1_555
C18 C13 1_555 1_555
H12 C18 1_555 1_555
C19 C17 1_555 1_555
N1 C7 1_555 1_555
N2 C6 1_555 1_555
N3 C1 1_555 1_555
N4 C10 1_555 1_555
N5 C13 1_555 1_555
O1 N3 1_555 1_555
O2 N4 1_555 1_555
O3 C6 1_555 1_555
O4 C19 1_555 1_555
O5 C19 1_555 1_555
H13 O5 1_555 1_555
H14 N5 1_555 1_555
H15 N5 1_555 1_555
C5 N3 1_555 1_555
C7 O3 1_555 1_555
C11 C12 1_555 1_555
C11 N4 1_555 1_555
C17 C18 1_555 1_555
N1 N2 1_555 1_555

#END
