
#######################################################################
#
#                 Cambridge Crystallographic Data Centre
#                                CCDC 
#
#######################################################################
#
# If this CIF has been generated from an entry in the Cambridge 
# Structural Database, then it will include bibliographic, chemical, 
# crystal, experimental, refinement or atomic coordinate data resulting 
# from the CCDC's data processing and validation procedures.
#
#######################################################################

data_WAKBOA
_chemical_formula_moiety         'C17 H12 F2 N4 S1'
_chemical_name_systematic        
6-(2,4-Difluorophenyl)-3-(3-methylphenyl)-7H-1,2,4-triazolo(3,4-b)(1,3,4)thiadiazine
_symmetry_cell_setting           monoclinic
_symmetry_space_group_name_H-M   'P 21/c'
_symmetry_Int_Tables_number      14
_space_group_name_Hall           '-P 2ybc'
loop_
_symmetry_equiv_pos_site_id
_symmetry_equiv_pos_as_xyz
1 x,y,z
2 x,1/2-y,1/2+z
3 -x,-y,-z
4 -x,1/2+y,1/2-z
_cell_length_a                   15.4067(15)
_cell_length_b                   13.3329(13)
_cell_length_c                   7.7173(7)
_cell_angle_alpha                90
_cell_angle_beta                 103.117(2)
_cell_angle_gamma                90
_cell_volume                     1543.9
_exptl_crystal_colour            colorless
_exptl_crystal_description       block
_cell_formula_units_Z            4
_exptl_crystal_recrystallization_method ethanol
loop_
_atom_site_label
_atom_site_type_symbol
_atom_site_fract_x
_atom_site_fract_y
_atom_site_fract_z
S1 S -0.01269(6) 0.92935(8) 0.22626(15)
F1 F 0.34523(15) 0.96375(17) 0.2030(3)
F2 F 0.35879(18) 1.29979(19) 0.0513(4)
N1 N 0.17983(19) 0.8895(2) 0.1681(4)
N2 N 0.12678(18) 0.8106(2) 0.2028(4)
N3 N 0.0087(2) 0.7253(3) 0.2270(5)
N4 N 0.0762(2) 0.6584(2) 0.2120(5)
C1 C 0.3035(2) 1.0522(3) 0.1682(5)
C2 C 0.3522(3) 1.1309(3) 0.1258(5)
H1 H 0.4115 1.1228 0.1202
C3 C 0.3109(3) 1.2211(3) 0.0922(5)
C4 C 0.2243(3) 1.2373(3) 0.1001(6)
H2 H 0.1982 1.3003 0.0776
C5 C 0.1768(3) 1.1565(3) 0.1429(5)
H3 H 0.1178 1.1661 0.1487
C6 C 0.2140(2) 1.0612(3) 0.1777(5)
C7 C 0.1607(2) 0.9768(3) 0.2191(4)
C8 C 0.0893(2) 0.9958(3) 0.3204(5)
H4 H 0.0770 1.0672 0.3199
H5 H 0.1110 0.9751 0.4431
C9 C 0.0406(2) 0.8144(3) 0.2217(5)
C10 C 0.1460(2) 0.7102(3) 0.1969(5)
C11 C 0.2308(2) 0.6640(3) 0.1820(5)
C12 C 0.2936(2) 0.7128(3) 0.1089(5)
H6 H 0.2835 0.7787 0.0700
C13 C 0.3718(3) 0.6640(4) 0.0930(5)
C14 C 0.3838(3) 0.5655(4) 0.1480(6)
H7 H 0.4345 0.5311 0.1350
C15 C 0.3220(3) 0.5173(3) 0.2219(6)
H8 H 0.3318 0.4513 0.2602
C16 C 0.2461(3) 0.5656(3) 0.2397(6)
H9 H 0.2048 0.5325 0.2903
C17 C 0.4406(3) 0.7192(4) 0.0207(6)
H10 H 0.4867 0.7429 0.1174
H11 H 0.4132 0.7751 -0.0492
H12 H 0.4659 0.6748 -0.0526
loop_
_geom_bond_atom_site_label_1
_geom_bond_atom_site_label_2
_geom_bond_site_symmetry_1
_geom_bond_site_symmetry_2
S1 C8 1_555 1_555
F1 C1 1_555 1_555
F2 C3 1_555 1_555
N1 N2 1_555 1_555
N2 C9 1_555 1_555
N3 N4 1_555 1_555
N4 C10 1_555 1_555
C1 C2 1_555 1_555
C2 H1 1_555 1_555
C3 C2 1_555 1_555
C4 C3 1_555 1_555
H2 C4 1_555 1_555
C5 C4 1_555 1_555
H3 C5 1_555 1_555
C6 C1 1_555 1_555
C7 N1 1_555 1_555
C8 C7 1_555 1_555
H4 C8 1_555 1_555
H5 C8 1_555 1_555
C9 S1 1_555 1_555
C10 N2 1_555 1_555
C11 C10 1_555 1_555
C12 C11 1_555 1_555
H6 C12 1_555 1_555
C13 C12 1_555 1_555
C14 C13 1_555 1_555
H7 C14 1_555 1_555
C15 C14 1_555 1_555
H8 C15 1_555 1_555
C16 C11 1_555 1_555
H9 C16 1_555 1_555
C17 C13 1_555 1_555
H10 C17 1_555 1_555
H11 C17 1_555 1_555
H12 C17 1_555 1_555
N3 C9 1_555 1_555
C5 C6 1_555 1_555
C6 C7 1_555 1_555
C15 C16 1_555 1_555

#END
