
#######################################################################
#
#                 Cambridge Crystallographic Data Centre
#                                CCDC 
#
#######################################################################
#
# If this CIF has been generated from an entry in the Cambridge 
# Structural Database, then it will include bibliographic, chemical, 
# crystal, experimental, refinement or atomic coordinate data resulting 
# from the CCDC's data processing and validation procedures.
#
#######################################################################

data_WAKGOF
_chemical_formula_moiety         'C11 H15 Cl1 N2 O2'
_chemical_name_systematic        N-t-Butyl-4-chloro-5-methyl-2-nitroaniline
_symmetry_cell_setting           monoclinic
_symmetry_space_group_name_H-M   'P 21/m'
_symmetry_Int_Tables_number      11
_space_group_name_Hall           '-P 2yb'
loop_
_symmetry_equiv_pos_site_id
_symmetry_equiv_pos_as_xyz
1 x,y,z
2 x,1/2-y,z
3 -x,-y,-z
4 -x,1/2+y,-z
_cell_length_a                   9.354(3)
_cell_length_b                   6.7787(12)
_cell_length_c                   9.566(3)
_cell_angle_alpha                90
_cell_angle_beta                 102.720(5)
_cell_angle_gamma                90
_cell_volume                     591.674
_exptl_crystal_colour            yellow
_exptl_crystal_description       prism
_cell_formula_units_Z            2
_exptl_crystal_recrystallization_method ethanol
loop_
_atom_site_label
_atom_site_type_symbol
_atom_site_fract_x
_atom_site_fract_y
_atom_site_fract_z
Cl1 Cl -0.38320(7) 0.2500 0.33646(8)
O1 O 0.29777(19) 0.2500 0.4861(2)
O2 O 0.1449(2) 0.2500 0.28287(19)
N1 N 0.2041(2) 0.2500 0.7258(2)
H1 H 0.2793 0.2500 0.6862
N2 N 0.1712(2) 0.2500 0.4146(2)
C1 C 0.0701(2) 0.2500 0.6366(2)
C2 C -0.0612(3) 0.2500 0.6871(3)
H2 H -0.0536 0.2500 0.7857
C3 C -0.1989(2) 0.2500 0.6000(3)
C4 C -0.2108(3) 0.2500 0.4515(3)
C5 C -0.0886(3) 0.2500 0.3962(2)
H3 H -0.0984 0.2500 0.2973
C6 C 0.0503(3) 0.2500 0.4851(2)
C7 C -0.3320(3) 0.2500 0.6633(3)
H4 H -0.3021 0.2500 0.7659
H5 H -0.3896 0.3656 0.6323
C8 C 0.2454(3) 0.2500 0.8838(2)
C9 C 0.1935(2) 0.0629(3) 0.9465(2)
H6 H 0.0885 0.0550 0.9190
H7 H 0.2235 0.0665 1.0491
H8 H 0.2356 -0.0504 0.9108
C10 C 0.4129(3) 0.2500 0.9182(3)
H9 H 0.4474 0.3656 0.8780
H10 H 0.4491 0.2500 1.0202
C9A C 0.1935(2) 0.4371(3) 0.9465(2)
H6A H 0.0885 0.4450 0.9190
H7A H 0.2235 0.4335 1.0491
H8A H 0.2356 0.5504 0.9108
H9A H 0.4474 0.1344 0.8780
H5A H -0.3896 0.1344 0.6323
loop_
_geom_bond_atom_site_label_1
_geom_bond_atom_site_label_2
_geom_bond_site_symmetry_1
_geom_bond_site_symmetry_2
Cl1 C4 1_555 1_555
O1 N2 1_555 1_555
O2 N2 1_555 1_555
N1 H1 1_555 1_555
N2 C6 1_555 1_555
C1 N1 1_555 1_555
C2 C1 1_555 1_555
H2 C2 1_555 1_555
C3 C2 1_555 1_555
C4 C3 1_555 1_555
C5 C4 1_555 1_555
H3 C5 1_555 1_555
C6 C1 1_555 1_555
C7 C3 1_555 1_555
H4 C7 1_555 1_555
H5 C7 1_555 1_555
C8 N1 1_555 1_555
C9 C8 1_555 1_555
H6 C9 1_555 1_555
H7 C9 1_555 1_555
H8 C9 1_555 1_555
C10 C8 1_555 1_555
H9 C10 1_555 1_555
H10 C10 1_555 1_555
C9A C8 1_555 1_555
H6A C9A 1_555 1_555
H7A C9A 1_555 1_555
H8A C9A 1_555 1_555
H9A C10 1_555 1_555
H5A C7 1_555 1_555
C5 C6 1_555 1_555

#END
