
#######################################################################
#
#                 Cambridge Crystallographic Data Centre
#                                CCDC 
#
#######################################################################
#
# If this CIF has been generated from an entry in the Cambridge 
# Structural Database, then it will include bibliographic, chemical, 
# crystal, experimental, refinement or atomic coordinate data resulting 
# from the CCDC's data processing and validation procedures.
#
#######################################################################

data_WAKGEV
_chemical_formula_moiety         'C17 H17 Cl1 N2 O1'
_chemical_name_systematic        
7-Chloro-2,2-dimethyl-3-(4-methylphenyl)-1,2-dihydroquinazolin-4(3H)-one
_chemical_properties_biological  'potential pharmacological activity'
_symmetry_cell_setting           triclinic
_symmetry_space_group_name_H-M   'P -1'
_symmetry_Int_Tables_number      2
_space_group_name_Hall           '-P 1'
loop_
_symmetry_equiv_pos_site_id
_symmetry_equiv_pos_as_xyz
1 x,y,z
2 -x,-y,-z
_cell_length_a                   6.8860(10)
_cell_length_b                   10.017(2)
_cell_length_c                   11.272(2)
_cell_angle_alpha                89.258(9)
_cell_angle_beta                 84.168(8)
_cell_angle_gamma                85.447(8)
_cell_volume                     771.035
_exptl_crystal_colour            colorless
_exptl_crystal_description       block
_chemical_melting_point          '551-553 K'
_cell_formula_units_Z            2
_exptl_crystal_recrystallization_method ethanol
loop_
_atom_site_label
_atom_site_type_symbol
_atom_site_fract_x
_atom_site_fract_y
_atom_site_fract_z
Cl1 Cl 0.84774(12) 0.36843(8) 1.48776(8)
O1 O 0.28892(19) 0.26226(15) 1.05349(14)
N1 N 0.5883(2) 0.22626(16) 0.95053(16)
N2 N 0.8739(3) 0.22452(19) 1.0535(2)
C1 C 0.4689(3) 0.26444(19) 1.0497(2)
C2 C 0.8031(3) 0.2459(2) 0.9371(2)
C3 C 0.7674(3) 0.2761(2) 1.1539(2)
C4 C 0.8548(3) 0.2968(2) 1.2583(2)
H1 H 0.9922 0.2801 1.2598
C5 C 0.7390(4) 0.3416(2) 1.3586(2)
C6 C 0.5372(3) 0.3668(2) 1.3610(2)
H2 H 0.4601 0.3986 1.4312
C7 C 0.4527(3) 0.34422(19) 1.2582(2)
H3 H 0.3147 0.3593 1.2583
C8 C 0.5640(3) 0.30000(19) 1.1544(2)
C9 C 0.4983(3) 0.1932(2) 0.8455(2)
C10 C 0.4176(3) 0.2926(2) 0.7751(2)
H4 H 0.4209 0.3840 0.7957
C11 C 0.3322(3) 0.2593(2) 0.6749(2)
H5 H 0.2764 0.3284 0.6275
C12 C 0.3265(3) 0.1263(2) 0.6422(2)
C13 C 0.4071(4) 0.0284(2) 0.7145(2)
H6 H 0.4045 -0.0631 0.6940
C14 C 0.4913(3) 0.0603(2) 0.8159(2)
H7 H 0.5440 -0.0086 0.8647
C15 C 0.9142(3) 0.1411(3) 0.8545(3)
H8 H 1.0552 0.1497 0.8532
H9 H 0.8749 0.1545 0.7738
H10 H 0.8842 0.0516 0.8832
C16 C 0.8353(4) 0.3873(2) 0.8902(3)
H11 H 0.7658 0.4532 0.9461
H12 H 0.7850 0.3990 0.8121
H13 H 0.9756 0.4003 0.8823
C17 C 0.2296(4) 0.0891(3) 0.5347(3)
H14 H 0.2775 -0.0021 0.5099
H15 H 0.2608 0.1518 0.4694
H16 H 0.0874 0.0933 0.5549
H17 H 1.002(4) 0.223(3) 1.051(2)
loop_
_geom_bond_atom_site_label_1
_geom_bond_atom_site_label_2
_geom_bond_site_symmetry_1
_geom_bond_site_symmetry_2
Cl1 C5 1_555 1_555
O1 C1 1_555 1_555
N1 C1 1_555 1_555
N2 C2 1_555 1_555
C1 C8 1_555 1_555
C2 N1 1_555 1_555
C3 N2 1_555 1_555
C4 C3 1_555 1_555
H1 C4 1_555 1_555
C5 C4 1_555 1_555
C6 C5 1_555 1_555
H2 C6 1_555 1_555
C7 C6 1_555 1_555
H3 C7 1_555 1_555
C8 C3 1_555 1_555
C9 N1 1_555 1_555
C10 C9 1_555 1_555
H4 C10 1_555 1_555
C11 C10 1_555 1_555
H5 C11 1_555 1_555
C12 C11 1_555 1_555
C13 C12 1_555 1_555
H6 C13 1_555 1_555
C14 C9 1_555 1_555
H7 C14 1_555 1_555
C15 C2 1_555 1_555
H8 C15 1_555 1_555
H9 C15 1_555 1_555
H10 C15 1_555 1_555
C16 C2 1_555 1_555
H11 C16 1_555 1_555
H12 C16 1_555 1_555
H13 C16 1_555 1_555
C17 C12 1_555 1_555
H14 C17 1_555 1_555
H15 C17 1_555 1_555
H16 C17 1_555 1_555
H17 N2 1_555 1_555
C7 C8 1_555 1_555
C13 C14 1_555 1_555

#END
