
#######################################################################
#
#                 Cambridge Crystallographic Data Centre
#                                CCDC 
#
#######################################################################
#
# If this CIF has been generated from an entry in the Cambridge 
# Structural Database, then it will include bibliographic, chemical, 
# crystal, experimental, refinement or atomic coordinate data resulting 
# from the CCDC's data processing and validation procedures.
#
#######################################################################

data_WAKJUP
_chemical_formula_moiety         'C52 H76 Li2 N2 O4,2(C4 H8 O1)'
_chemical_name_systematic        
'bis((\m~2~-2,4-Di-t-butyl-6-(((4-methylphenyl)amino)methyl)phenolato)-(tetrahydrofuran))-di-lithium tetrahydrofuran solvate'
_symmetry_cell_setting           triclinic
_symmetry_space_group_name_H-M   'P -1'
_symmetry_Int_Tables_number      2
_space_group_name_Hall           '-P 1'
loop_
_symmetry_equiv_pos_site_id
_symmetry_equiv_pos_as_xyz
1 x,y,z
2 -x,-y,-z
_cell_length_a                   10.552(2)
_cell_length_b                   10.813(2)
_cell_length_c                   13.658(3)
_cell_angle_alpha                82.717(8)
_cell_angle_beta                 69.214(6)
_cell_angle_gamma                80.185(8)
_cell_volume                     1431.89
_exptl_crystal_colour            colorless
_exptl_crystal_description       prism
_cell_formula_units_Z            1
loop_
_atom_site_label
_atom_site_type_symbol
_atom_site_fract_x
_atom_site_fract_y
_atom_site_fract_z
O1 O 0.5276(3) 0.0935(2) 0.41519(18)
O2 O 0.3676(3) -0.1426(3) 0.4048(2)
N1 N 0.6990(3) -0.1402(3) 0.3109(2)
H1 H 0.666(4) -0.129(4) 0.256(3)
C1 C 0.5937(4) 0.1456(3) 0.3220(3)
C2 C 0.5434(4) 0.2610(3) 0.2769(3)
C3 C 0.6209(4) 0.3032(3) 0.1755(3)
H2 H 0.5858 0.3784 0.1458
C4 C 0.7461(4) 0.2413(3) 0.1157(3)
C5 C 0.7961(4) 0.1307(3) 0.1620(3)
H3 H 0.8817 0.0875 0.1249
C6 C 0.7234(4) 0.0827(3) 0.2611(3)
C7 C 0.7799(4) -0.0396(3) 0.3064(3)
H4 H 0.8753 -0.0634 0.2629
H5 H 0.7775 -0.0288 0.3773
C8 C 0.7660(4) -0.2666(3) 0.3095(3)
C9 C 0.7150(4) -0.3584(4) 0.2782(3)
H6 H 0.6357 -0.3368 0.2600
C10 C 0.7781(4) -0.4805(4) 0.2733(3)
H7 H 0.7414 -0.5406 0.2511
C11 C 0.8944(4) -0.5176(3) 0.3002(3)
C12 C 0.9421(4) -0.4270(4) 0.3358(3)
H8 H 1.0180 -0.4501 0.3581
C13 C 0.8804(4) -0.3024(3) 0.3393(3)
H9 H 0.9165 -0.2423 0.3620
C14 C 0.4111(4) 0.3395(3) 0.3400(3)
C15 C 0.3716(5) 0.4589(4) 0.2773(3)
H10 H 0.2889 0.5063 0.3216
H11 H 0.3556 0.4355 0.2168
H12 H 0.4452 0.5103 0.2538
C16 C 0.4294(4) 0.3837(4) 0.4360(3)
H13 H 0.4451 0.3112 0.4820
H14 H 0.3475 0.4377 0.4736
H15 H 0.5071 0.4300 0.4131
C17 C 0.2905(4) 0.2639(4) 0.3761(3)
H16 H 0.3090 0.1903 0.4200
H17 H 0.2777 0.2376 0.3153
H18 H 0.2082 0.3159 0.4159
C18 C 0.8295(4) 0.2920(4) 0.0043(3)
C19 C 0.8996(12) 0.1871(10) -0.0676(9)
C20 C 0.9493(14) 0.3442(15) 0.0132(13)
C21 C 0.7413(12) 0.3988(11) -0.0390(9)
C22 C 0.9668(5) -0.6502(4) 0.2885(4)
H19 H 1.0442 -0.6534 0.2235
H20 H 0.9041 -0.7055 0.2873
H21 H 0.9987 -0.6773 0.3472
C23 C 0.3197(11) -0.0704(12) 0.3216(9)
C24 C 0.1713(12) -0.0823(12) 0.3631(10)
C25 C 0.1336(12) -0.1565(13) 0.4551(9)
C26 C 0.2569(11) -0.1998(11) 0.4854(9)
Li1 Li 0.5106(6) -0.0835(6) 0.4402(5)
O1A O 0.4724(3) -0.0935(2) 0.58481(18)
O2A O 0.6324(3) 0.1426(3) 0.5952(2)
N1A N 0.3010(3) 0.1402(3) 0.6891(2)
H1A H 0.334(4) 0.129(4) 0.744(3)
C1A C 0.4063(4) -0.1456(3) 0.6780(3)
C2A C 0.4566(4) -0.2610(3) 0.7231(3)
C3A C 0.3791(4) -0.3032(3) 0.8245(3)
H2A H 0.4142 -0.3784 0.8542
C4A C 0.2539(4) -0.2413(3) 0.8843(3)
C5A C 0.2039(4) -0.1307(3) 0.8380(3)
H3A H 0.1183 -0.0875 0.8751
C6A C 0.2766(4) -0.0827(3) 0.7389(3)
C7A C 0.2201(4) 0.0396(3) 0.6936(3)
H4A H 0.1247 0.0634 0.7371
H5A H 0.2225 0.0288 0.6227
C8A C 0.2340(4) 0.2666(3) 0.6905(3)
C9A C 0.2850(4) 0.3584(4) 0.7218(3)
H6A H 0.3643 0.3368 0.7400
C10A C 0.2219(4) 0.4805(4) 0.7267(3)
H7A H 0.2586 0.5406 0.7489
C11A C 0.1056(4) 0.5176(3) 0.6998(3)
C12A C 0.0579(4) 0.4270(4) 0.6642(3)
H8A H -0.0180 0.4501 0.6419
C13A C 0.1196(4) 0.3024(3) 0.6607(3)
H9A H 0.0835 0.2423 0.6380
C14A C 0.5889(4) -0.3395(3) 0.6600(3)
C15A C 0.6284(5) -0.4589(4) 0.7227(3)
H10A H 0.7111 -0.5063 0.6784
H11A H 0.6444 -0.4355 0.7832
H12A H 0.5548 -0.5103 0.7462
C16A C 0.5706(4) -0.3837(4) 0.5640(3)
H13A H 0.5549 -0.3112 0.5180
H14A H 0.6525 -0.4377 0.5264
H15A H 0.4929 -0.4300 0.5869
C17A C 0.7095(4) -0.2639(4) 0.6239(3)
H16A H 0.6910 -0.1903 0.5800
H17A H 0.7223 -0.2376 0.6847
H18A H 0.7918 -0.3159 0.5841
C18A C 0.1705(4) -0.2920(4) 0.9957(3)
C19A C 0.1004(12) -0.1871(10) 1.0676(9)
C20A C 0.0507(14) -0.3442(15) 0.9868(13)
C21A C 0.2587(12) -0.3988(11) 1.0390(9)
C22A C 0.0332(5) 0.6502(4) 0.7115(4)
H19A H -0.0442 0.6534 0.7765
H20A H 0.0959 0.7055 0.7127
H21A H 0.0013 0.6773 0.6528
C23A C 0.6803(11) 0.0704(12) 0.6784(9)
C24A C 0.8287(12) 0.0823(12) 0.6369(10)
C25A C 0.8664(12) 0.1565(13) 0.5449(9)
C26A C 0.7431(11) 0.1998(11) 0.5146(9)
Li1A Li 0.4894(6) 0.0835(6) 0.5598(5)
O3 O 0.5955(5) 0.8485(4) 1.1059(3)
C27 C 0.5941(12) 0.7484(8) 1.0526(6)
H22 H 0.5000 0.7303 1.0720
H23 H 0.6485 0.6733 1.0727
C28 C 0.6498(8) 0.7773(7) 0.9394(5)
H24 H 0.5781 0.7862 0.9080
H25 H 0.7226 0.7109 0.9060
C29 C 0.7041(8) 0.8968(7) 0.9273(5)
H26 H 0.6543 0.9637 0.8942
H27 H 0.8015 0.8884 0.8845
C30 C 0.6831(8) 0.9248(6) 1.0374(5)
H28 H 0.7709 0.9099 1.0494
H29 H 0.6447 1.0132 1.0481
C31? C 0.1666(13) -0.2019(11) 1.0759(9)
C32? C 0.0214(13) -0.2978(15) 1.0063(13)
C33? C 0.2244(12) -0.4283(10) 1.0225(10)
C34? C 0.3362(12) -0.1111(13) 0.3108(10)
C35? C 0.1984(12) -0.1475(13) 0.3345(9)
C36? C 0.1606(13) -0.2062(12) 0.4262(10)
C37? C 0.2819(11) -0.2352(11) 0.4642(9)
loop_
_geom_bond_atom_site_label_1
_geom_bond_atom_site_label_2
_geom_bond_site_symmetry_1
_geom_bond_site_symmetry_2
O1 C1 1_555 1_555
O2 C23 1_555 1_555
O3 C27 1_555 1_555
N1 H1 1_555 1_555
C1 C2 1_555 1_555
C2 C3 1_555 1_555
C3 H2 1_555 1_555
C4 C3 1_555 1_555
C5 C4 1_555 1_555
H3 C5 1_555 1_555
C6 C1 1_555 1_555
C7 N1 1_555 1_555
H4 C7 1_555 1_555
H5 C7 1_555 1_555
C8 N1 1_555 1_555
C9 C8 1_555 1_555
H6 C9 1_555 1_555
C10 C9 1_555 1_555
H7 C10 1_555 1_555
C11 C10 1_555 1_555
C12 C11 1_555 1_555
H8 C12 1_555 1_555
C13 C8 1_555 1_555
H9 C13 1_555 1_555
C14 C2 1_555 1_555
C15 C14 1_555 1_555
H10 C15 1_555 1_555
H11 C15 1_555 1_555
H12 C15 1_555 1_555
C16 C14 1_555 1_555
H13 C16 1_555 1_555
H14 C16 1_555 1_555
H15 C16 1_555 1_555
C17 C14 1_555 1_555
H16 C17 1_555 1_555
H17 C17 1_555 1_555
H18 C17 1_555 1_555
C18 C4 1_555 1_555
C19 C18 1_555 1_555
C20 C18 1_555 1_555
C21 C18 1_555 1_555
C22 C11 1_555 1_555
H19 C22 1_555 1_555
H20 C22 1_555 1_555
H21 C22 1_555 1_555
C23 C24 1_555 1_555
C24 C25 1_555 1_555
C25 C26 1_555 1_555
C26 O2 1_555 1_555
C27 H22 1_555 1_555
H23 C27 1_555 1_555
C28 C27 1_555 1_555
H24 C28 1_555 1_555
H25 C28 1_555 1_555
C29 C28 1_555 1_555
H26 C29 1_555 1_555
H27 C29 1_555 1_555
C30 O3 1_555 1_555
H28 C30 1_555 1_555
H29 C30 1_555 1_555
Li1 O1 1_555 1_555
O1A Li1 1_555 1_555
O2A C23A 1_555 1_555
N1A H1A 1_555 1_555
C1A O1A 1_555 1_555
C2A C1A 1_555 1_555
C3A C2A 1_555 1_555
H2A C3A 1_555 1_555
C4A C3A 1_555 1_555
C5A C4A 1_555 1_555
H3A C5A 1_555 1_555
C6A C1A 1_555 1_555
C7A N1A 1_555 1_555
H4A C7A 1_555 1_555
H5A C7A 1_555 1_555
C8A N1A 1_555 1_555
C9A C8A 1_555 1_555
H6A C9A 1_555 1_555
C10A C9A 1_555 1_555
H7A C10A 1_555 1_555
C11A C10A 1_555 1_555
C12A C11A 1_555 1_555
H8A C12A 1_555 1_555
C13A C8A 1_555 1_555
H9A C13A 1_555 1_555
C14A C2A 1_555 1_555
C15A C14A 1_555 1_555
H10A C15A 1_555 1_555
H11A C15A 1_555 1_555
H12A C15A 1_555 1_555
C16A C14A 1_555 1_555
H13A C16A 1_555 1_555
H14A C16A 1_555 1_555
H15A C16A 1_555 1_555
C17A C14A 1_555 1_555
H16A C17A 1_555 1_555
H17A C17A 1_555 1_555
H18A C17A 1_555 1_555
C18A C4A 1_555 1_555
C19A C18A 1_555 1_555
C20A C18A 1_555 1_555
C21A C18A 1_555 1_555
C22A C11A 1_555 1_555
H19A C22A 1_555 1_555
H20A C22A 1_555 1_555
H21A C22A 1_555 1_555
C23A C24A 1_555 1_555
C24A C25A 1_555 1_555
C25A C26A 1_555 1_555
C26A O2A 1_555 1_555
Li1A O1 1_555 1_555
O2 Li1 1_555 1_555
N1 Li1 1_555 1_555
C5 C6 1_555 1_555
C6 C7 1_555 1_555
C12 C13 1_555 1_555
C29 C30 1_555 1_555
O1A Li1A 1_555 1_555
O2A Li1A 1_555 1_555
N1A Li1A 1_555 1_555
C5A C6A 1_555 1_555
C6A C7A 1_555 1_555
C12A C13A 1_555 1_555

#END
