
#######################################################################
#
#                 Cambridge Crystallographic Data Centre
#                                CCDC 
#
#######################################################################
#
# If this CIF has been generated from an entry in the Cambridge 
# Structural Database, then it will include bibliographic, chemical, 
# crystal, experimental, refinement or atomic coordinate data resulting 
# from the CCDC's data processing and validation procedures.
#
#######################################################################

data_WAKSAE
_chemical_formula_moiety         'C21 H18 O2'
_chemical_name_systematic        '3-(9-Phenanthryl)penta-1,2-dien-1-yl acetate'
_symmetry_cell_setting           monoclinic
_symmetry_space_group_name_H-M   'P 21/n'
_symmetry_Int_Tables_number      14
_space_group_name_Hall           '-P 2yn'
loop_
_symmetry_equiv_pos_site_id
_symmetry_equiv_pos_as_xyz
1 x,y,z
2 1/2-x,1/2+y,1/2-z
3 -x,-y,-z
4 1/2+x,1/2-y,1/2+z
_cell_length_a                   8.380(2)
_cell_length_b                   7.611(2)
_cell_length_c                   24.952(7)
_cell_angle_alpha                90
_cell_angle_beta                 94.366(5)
_cell_angle_gamma                90
_cell_volume                     1586.82
_exptl_crystal_colour            colorless
_exptl_crystal_description       plate
_cell_formula_units_Z            4
loop_
_atom_site_label
_atom_site_type_symbol
_atom_site_fract_x
_atom_site_fract_y
_atom_site_fract_z
C1 C 0.0501(3) 0.8973(3) 0.11562(10)
H1 H 0.0456 0.7748 0.1084
C2 C 0.1419(3) 0.9563(3) 0.15541(10)
C3 C 0.2394(3) 1.0143(3) 0.19505(10)
C4 C 0.4100(3) 1.0640(3) 0.18562(10)
H2 H 0.4301 1.1849 0.1991
H3 H 0.4833 0.9845 0.2070
C5 C 0.4502(3) 1.0561(4) 0.12753(10)
H4 H 0.5628 1.0879 0.1252
H5 H 0.3820 1.1387 0.1061
H6 H 0.4319 0.9367 0.1137
O1 O -0.0433(2) 1.0147(2) 0.08290(7)
C6 C -0.1675(3) 0.9466(4) 0.05208(10)
O2 O -0.2039(2) 0.7941(3) 0.05311(8)
C7 C -0.2495(4) 1.0841(5) 0.01777(12)
H7 H -0.1802 1.1876 0.0167
H8 H -0.3500 1.1170 0.0327
H9 H -0.2722 1.0383 -0.0187
C8 C 0.1904(3) 1.0301(3) 0.25123(10)
C9 C 0.2976(3) 0.9875(3) 0.29242(10)
H10 H 0.4030 0.9562 0.2845
C10 C 0.3730(3) 0.9334(3) 0.38828(10)
H11 H 0.4769 0.8992 0.3795
C11 C 0.3364(3) 0.9290(4) 0.44054(10)
H12 H 0.4131 0.8896 0.4679
C12 C 0.1853(4) 0.9831(4) 0.45339(11)
H13 H 0.1598 0.9824 0.4898
C13 C 0.0735(3) 1.0373(4) 0.41426(10)
H14 H -0.0289 1.0733 0.4240
C14 C -0.1614(3) 1.1582(3) 0.32712(11)
H15 H -0.1917 1.1595 0.3630
C15 C -0.2668(3) 1.2172(3) 0.28705(11)
H16 H -0.3698 1.2565 0.2951
C16 C -0.2244(3) 1.2204(3) 0.23442(11)
H17 H -0.2962 1.2671 0.2067
C17 C -0.0788(3) 1.1559(3) 0.22255(10)
H18 H -0.0524 1.1546 0.1862
C18 C 0.0332(3) 1.0915(3) 0.26292(10)
C19 C -0.0086(3) 1.0953(3) 0.31688(10)
C20 C 0.1061(3) 1.0409(3) 0.36008(10)
C21 C 0.2603(3) 0.9873(3) 0.34718(10)
H19? H -0.3547 1.0410 0.0038
H20? H -0.1849 1.1117 -0.0123
H21? H -0.2628 1.1903 0.0392
loop_
_geom_bond_atom_site_label_1
_geom_bond_atom_site_label_2
_geom_bond_site_symmetry_1
_geom_bond_site_symmetry_2
C1 H1 1_555 1_555
C2 C1 1_555 1_555
C3 C2 1_555 1_555
C4 C3 1_555 1_555
H2 C4 1_555 1_555
H3 C4 1_555 1_555
C5 C4 1_555 1_555
H4 C5 1_555 1_555
H5 C5 1_555 1_555
H6 C5 1_555 1_555
O1 C1 1_555 1_555
C6 O1 1_555 1_555
O2 C6 1_555 1_555
C7 C6 1_555 1_555
H7 C7 1_555 1_555
H8 C7 1_555 1_555
H9 C7 1_555 1_555
C8 C3 1_555 1_555
C9 C8 1_555 1_555
H10 C9 1_555 1_555
C10 H11 1_555 1_555
C11 C10 1_555 1_555
H12 C11 1_555 1_555
C12 C11 1_555 1_555
H13 C12 1_555 1_555
C13 C12 1_555 1_555
H14 C13 1_555 1_555
C14 H15 1_555 1_555
C15 C14 1_555 1_555
H16 C15 1_555 1_555
C16 C15 1_555 1_555
H17 C16 1_555 1_555
C17 C16 1_555 1_555
H18 C17 1_555 1_555
C18 C8 1_555 1_555
C19 C14 1_555 1_555
C20 C13 1_555 1_555
C21 C9 1_555 1_555
C10 C21 1_555 1_555
C17 C18 1_555 1_555
C18 C19 1_555 1_555
C19 C20 1_555 1_555
C20 C21 1_555 1_555

#END
