
#######################################################################
#
#                 Cambridge Crystallographic Data Centre
#                                CCDC 
#
#######################################################################
#
# If this CIF has been generated from an entry in the Cambridge 
# Structural Database, then it will include bibliographic, chemical, 
# crystal, experimental, refinement or atomic coordinate data resulting 
# from the CCDC's data processing and validation procedures.
#
#######################################################################

data_WALYUG
_chemical_formula_moiety         'C19 H18 N2 O2'
_chemical_name_systematic        
'2-(2-amino-3-phenyl-1,4,5,6-tetrahydro-7H-indol-7-ylidene)cyclopentane-1,3-dione unknown solvate'
_symmetry_cell_setting           triclinic
_symmetry_space_group_name_H-M   'P -1'
_symmetry_Int_Tables_number      2
_space_group_name_Hall           '-P 1'
loop_
_symmetry_equiv_pos_site_id
_symmetry_equiv_pos_as_xyz
1 x,y,z
2 -x,-y,-z
_cell_length_a                   5.7330(8)
_cell_length_b                   7.7363(12)
_cell_length_c                   18.637(3)
_cell_angle_alpha                99.514(4)
_cell_angle_beta                 95.221(5)
_cell_angle_gamma                102.851(5)
_cell_volume                     787.755
_cell_formula_units_Z            2
loop_
_atom_site_label
_atom_site_type_symbol
_atom_site_fract_x
_atom_site_fract_y
_atom_site_fract_z
C1 C 0.5051(3) 0.2163(2) 0.21866(9)
C2 C 0.6049(3) 0.3169(2) 0.29139(9)
C3 C 0.5039(3) 0.4630(2) 0.30190(9)
C4 C 0.3432(3) 0.4558(2) 0.23767(9)
C5 C 0.2011(3) 0.5746(2) 0.22957(9)
C6 C 0.2387(4) 0.7307(3) 0.29386(11)
H1 H 0.1106 0.7036 0.3239
H2 H 0.2233 0.8377 0.2750
C7 C 0.4788(4) 0.7736(3) 0.34238(13)
H3 H 0.6059 0.8251 0.3156
H4 H 0.4770 0.8635 0.3852
C8 C 0.5349(4) 0.6099(3) 0.36726(10)
H5 H 0.6994 0.6395 0.3917
H6 H 0.4270 0.5704 0.4017
C9 C 0.0190(3) 0.5632(2) 0.16869(9)
C10 C -0.0600(3) 0.4270(3) 0.10467(9)
C11 C -0.2672(4) 0.4624(3) 0.05764(10)
H7 H -0.2284 0.4683 0.0084
H8 H -0.4125 0.3677 0.0547
C12 C -0.3012(4) 0.6417(3) 0.09534(11)
H9 H -0.4649 0.6297 0.1069
H10 H -0.2684 0.7309 0.0643
C13 C -0.1233(4) 0.6957(3) 0.16454(11)
C14 C 0.7712(3) 0.2667(2) 0.34483(9)
C15 C 0.9581(3) 0.1914(2) 0.32354(10)
H11 H 0.9812 0.1727 0.2744
C16 C 1.1107(3) 0.1438(2) 0.37465(11)
H12 H 1.2346 0.0929 0.3594
C17 C 1.0817(4) 0.1708(3) 0.44713(11)
H13 H 1.1851 0.1383 0.4810
C18 C 0.8979(4) 0.2466(3) 0.46998(11)
H14 H 0.8780 0.2661 0.5194
C19 C 0.7440(3) 0.2935(3) 0.41925(10)
H15 H 0.6200 0.3438 0.4349
H16 H 0.253(4) 0.263(3) 0.1458(12)
N1 N 0.3525(3) 0.3006(2) 0.18863(8)
N2 N 0.5407(3) 0.0627(2) 0.18351(9)
H17 H 0.4648 0.0150 0.1403
H18 H 0.6396 0.0108 0.2039
O1 O -0.1159(3) 0.8346(2) 0.20859(10)
O2 O 0.0162(3) 0.2895(2) 0.08312(8)
loop_
_geom_bond_atom_site_label_1
_geom_bond_atom_site_label_2
_geom_bond_site_symmetry_1
_geom_bond_site_symmetry_2
C1 C2 1_555 1_555
C2 C3 1_555 1_555
C3 C4 1_555 1_555
C4 C5 1_555 1_555
C5 C6 1_555 1_555
C6 H1 1_555 1_555
H2 C6 1_555 1_555
C7 C6 1_555 1_555
H3 C7 1_555 1_555
H4 C7 1_555 1_555
C8 C3 1_555 1_555
H5 C8 1_555 1_555
H6 C8 1_555 1_555
C9 C5 1_555 1_555
C10 C9 1_555 1_555
C11 C10 1_555 1_555
H7 C11 1_555 1_555
H8 C11 1_555 1_555
C12 C11 1_555 1_555
H9 C12 1_555 1_555
H10 C12 1_555 1_555
C13 C9 1_555 1_555
C14 C2 1_555 1_555
C15 C14 1_555 1_555
H11 C15 1_555 1_555
C16 C15 1_555 1_555
H12 C16 1_555 1_555
C17 C16 1_555 1_555
H13 C17 1_555 1_555
C18 C17 1_555 1_555
H14 C18 1_555 1_555
C19 C14 1_555 1_555
H15 C19 1_555 1_555
H16 N1 1_555 1_555
N1 C1 1_555 1_555
N2 C1 1_555 1_555
H17 N2 1_555 1_555
H18 N2 1_555 1_555
O1 C13 1_555 1_555
O2 C10 1_555 1_555
C4 N1 1_555 1_555
C7 C8 1_555 1_555
C12 C13 1_555 1_555
C18 C19 1_555 1_555

#END
