
#######################################################################
#
#                 Cambridge Crystallographic Data Centre
#                                CCDC 
#
#######################################################################
#
# If this CIF has been generated from an entry in the Cambridge 
# Structural Database, then it will include bibliographic, chemical, 
# crystal, experimental, refinement or atomic coordinate data resulting 
# from the CCDC's data processing and validation procedures.
#
#######################################################################

data_WAMDEW
_chemical_formula_moiety         'C23 H18 Br1 N1 O2'
_chemical_name_systematic        
6-(3-bromophenyl)-9,9-dimethyl-9,10-dihydro[1]benzofuro[2,3-c]quinolin-11(8H)-one
_symmetry_cell_setting           triclinic
_symmetry_space_group_name_H-M   'P -1'
_symmetry_Int_Tables_number      2
_space_group_name_Hall           '-P 1'
loop_
_symmetry_equiv_pos_site_id
_symmetry_equiv_pos_as_xyz
1 x,y,z
2 -x,-y,-z
_cell_length_a                   7.6887(13)
_cell_length_b                   11.0407(18)
_cell_length_c                   11.3531(19)
_cell_angle_alpha                90.572(2)
_cell_angle_beta                 93.684(3)
_cell_angle_gamma                100.502(3)
_cell_volume                     945.416
_cell_formula_units_Z            2
loop_
_atom_site_label
_atom_site_type_symbol
_atom_site_fract_x
_atom_site_fract_y
_atom_site_fract_z
Br1 Br 0.37111(13) 0.46790(5) 0.81089(6)
C1 C 0.4159(5) 0.1161(4) 0.7077(3)
C2 C 0.3731(6) 0.2330(4) 0.7115(3)
H1 H 0.2984 0.2570 0.6521
C3 C 0.4417(6) 0.3133(4) 0.8039(4)
C4 C 0.5539(6) 0.2814(5) 0.8929(4)
H2 H 0.6009 0.3370 0.9539
C5 C 0.5943(7) 0.1664(6) 0.8893(4)
H3 H 0.6702 0.1435 0.9487
C6 C 0.5242(6) 0.0826(5) 0.7987(4)
H4 H 0.5504 0.0036 0.7993
C7 C 0.3433(5) 0.0245(4) 0.6123(3)
C8 C 0.2592(5) 0.0525(3) 0.5045(3)
C9 C 0.1843(5) -0.0336(3) 0.4185(3)
C10 C 0.1951(5) -0.1586(3) 0.4392(3)
C11 C 0.2898(5) -0.1806(4) 0.5466(4)
C12 C 0.3123(6) -0.3016(4) 0.5718(4)
H5 H 0.3749 -0.3167 0.6412
C13 C 0.2440(8) -0.3958(4) 0.4961(5)
H6 H 0.2603 -0.4751 0.5139
C14 C 0.1492(7) -0.3757(4) 0.3914(5)
H7 H 0.1013 -0.4419 0.3409
C15 C 0.1260(6) -0.2597(4) 0.3623(4)
H8 H 0.0645 -0.2472 0.2916
C16 C 0.1151(5) 0.0357(3) 0.3250(3)
C17 C 0.1570(5) 0.1555(3) 0.3609(3)
C18 C 0.1229(6) 0.2668(4) 0.2976(3)
H9 H 0.2256 0.3324 0.3096
H10 H 0.0224 0.2950 0.3289
C19 C 0.0843(6) 0.2367(4) 0.1646(3)
C20 C -0.0413(5) 0.1118(4) 0.1474(3)
H11 H -0.1548 0.1196 0.1763
H12 H -0.0603 0.0926 0.0635
C21 C 0.0221(5) 0.0046(4) 0.2083(3)
C22 C 0.2574(6) 0.2292(5) 0.1070(4)
H13 H 0.2311 0.2028 0.0260
H14 H 0.3167 0.1713 0.1483
H15 H 0.3327 0.3089 0.1109
C23 C -0.0028(8) 0.3361(5) 0.1072(4)
H16 H -0.0202 0.3203 0.0236
H17 H 0.0720 0.4150 0.1223
H18 H -0.1153 0.3357 0.1394
N1 N 0.3575(4) -0.0908(3) 0.6302(3)
O1 O 0.2428(3) 0.1698(2) 0.4697(2)
O2 O -0.0050(4) -0.0976(3) 0.1634(3)
loop_
_geom_bond_atom_site_label_1
_geom_bond_atom_site_label_2
_geom_bond_site_symmetry_1
_geom_bond_site_symmetry_2
Br1 C3 1_555 1_555
C1 C2 1_555 1_555
C2 H1 1_555 1_555
C3 C2 1_555 1_555
C4 C3 1_555 1_555
H2 C4 1_555 1_555
C5 C4 1_555 1_555
H3 C5 1_555 1_555
C6 C1 1_555 1_555
H4 C6 1_555 1_555
C7 C1 1_555 1_555
C8 C7 1_555 1_555
C9 C8 1_555 1_555
C10 C9 1_555 1_555
C11 C10 1_555 1_555
C12 C11 1_555 1_555
H5 C12 1_555 1_555
C13 C12 1_555 1_555
H6 C13 1_555 1_555
C14 C13 1_555 1_555
H7 C14 1_555 1_555
C15 C10 1_555 1_555
H8 C15 1_555 1_555
C16 C9 1_555 1_555
C17 C16 1_555 1_555
C18 C17 1_555 1_555
H9 C18 1_555 1_555
H10 C18 1_555 1_555
C19 C18 1_555 1_555
C20 C19 1_555 1_555
H11 C20 1_555 1_555
H12 C20 1_555 1_555
C21 C16 1_555 1_555
C22 C19 1_555 1_555
H13 C22 1_555 1_555
H14 C22 1_555 1_555
H15 C22 1_555 1_555
C23 C19 1_555 1_555
H16 C23 1_555 1_555
H17 C23 1_555 1_555
H18 C23 1_555 1_555
N1 C7 1_555 1_555
O1 C8 1_555 1_555
O2 C21 1_555 1_555
C5 C6 1_555 1_555
C11 N1 1_555 1_555
C14 C15 1_555 1_555
C17 O1 1_555 1_555
C20 C21 1_555 1_555

#END
