
#######################################################################
#
#                 Cambridge Crystallographic Data Centre
#                                CCDC 
#
#######################################################################
#
# If this CIF has been generated from an entry in the Cambridge 
# Structural Database, then it will include bibliographic, chemical, 
# crystal, experimental, refinement or atomic coordinate data resulting 
# from the CCDC's data processing and validation procedures.
#
#######################################################################

data_WAMRUY
_chemical_formula_moiety         'C19 H35 N3 O6'
_chemical_name_systematic        
't-Butoxycarbonyl-alanyl-leucyl-\a-aminoisobutyryl methyl ester'
_symmetry_cell_setting           orthorhombic
_symmetry_space_group_name_H-M   'P 21 21 21'
_symmetry_Int_Tables_number      19
_space_group_name_Hall           'P 2ac 2ab'
loop_
_symmetry_equiv_pos_site_id
_symmetry_equiv_pos_as_xyz
1 x,y,z
2 -x,1/2+y,1/2-z
3 1/2+x,1/2-y,-z
4 1/2-x,-y,1/2+z
_cell_length_a                   10.613(12)
_cell_length_b                   10.476(12)
_cell_length_c                   21.132(24)
_cell_angle_alpha                90
_cell_angle_beta                 90
_cell_angle_gamma                90
_cell_volume                     2349.49
_exptl_crystal_colour            white
_exptl_crystal_description       parallelepiped
_chemical_melting_point          '117-119 deg.C'
_cell_formula_units_Z            4
_exptl_crystal_recrystallization_method methanol/water
loop_
_atom_site_label
_atom_site_type_symbol
_atom_site_fract_x
_atom_site_fract_y
_atom_site_fract_z
O1 O 1.0647(4) 0.0544(7) -0.0148(2)
C1 C 1.1194(7) 0.1182(11) 0.0397(4)
C2 C 1.2523(7) 0.1433(13) 0.0198(5)
H1 H 1.2941(19) 0.0637(13) 0.0116(30)
H2 H 1.2958(20) 0.1880(59) 0.0529(14)
H3 H 1.2525(7) 0.1944(52) -0.0179(19)
C3 C 1.0526(10) 0.2444(12) 0.0518(6)
H4 H 1.0599(55) 0.2978(28) 0.0150(13)
H5 H 1.0906(43) 0.2863(32) 0.0874(20)
H6 H 0.9652(17) 0.2287(13) 0.0605(32)
C4 C 1.1133(12) 0.0336(16) 0.0987(5)
H7 H 1.0306(26) 0.0387(60) 0.1169(21)
H8 H 1.1744(53) 0.0623(48) 0.1290(16)
H9 H 1.1310(70) -0.0532(20) 0.0872(8)
C5 C 0.9452(7) 0.0104(11) -0.0137(4)
O2 O 0.8638(5) 0.0442(7) 0.0252(3)
N1 N 0.9210(6) -0.0672(9) -0.0620(3)
H10 H 0.9811(6) -0.0890(9) -0.0871(3)
C6 C 0.7934(7) -0.1160(11) -0.0731(4)
H11 H 0.7361(7) -0.0427(11) -0.0742(4)
C7 C 0.7878(8) -0.1807(13) -0.1377(4)
H12 H 0.8082(60) -0.1197(18) -0.1701(5)
H13 H 0.7045(20) -0.2133(59) -0.1448(14)
H14 H 0.8473(46) -0.2497(40) -0.1390(11)
C8 C 0.7472(7) -0.2064(10) -0.0214(4)
N2 N 0.8286(6) -0.2570(8) 0.0202(3)
H15 H 0.9082(6) -0.2492(8) 0.0137(3)
O3 O 0.6299(5) -0.2233(7) -0.0159(3)
C9 C 0.7835(6) -0.3264(10) 0.0772(3)
H16 H 0.7388(6) -0.4033(10) 0.0633(3)
C10 C 0.8961(7) -0.3670(11) 0.1165(4)
H17 H 0.9458(7) -0.2919(11) 0.1264(4)
H18 H 0.9482(7) -0.4234(11) 0.0913(4)
C11 C 0.8630(8) -0.4344(12) 0.1780(4)
H19 H 0.8071(8) -0.3771(12) 0.2016(4)
C12 C 0.9812(11) -0.4531(18) 0.2184(5)
H20 H 1.0454(31) -0.4937(75) 0.1935(14)
H21 H 0.9614(24) -0.5057(70) 0.2542(23)
H22 H 1.0111(45) -0.3716(19) 0.2328(33)
C13 C 0.7939(10) -0.5562(17) 0.1692(5)
H23 H 0.7193(40) -0.5410(21) 0.1447(32)
H24 H 0.7708(65) -0.5902(42) 0.2098(6)
H25 H 0.8469(28) -0.6162(30) 0.1475(33)
C14 C 0.6925(8) -0.2440(12) 0.1140(4)
O4 O 0.6008(5) -0.2902(7) 0.1401(3)
N3 N 0.7228(6) -0.1182(9) 0.1215(3)
H26 H 0.7946(6) -0.0913(9) 0.1082(3)
C15 C 0.6357(8) -0.0277(11) 0.1518(4)
C16 C 0.5850(9) -0.0786(12) 0.2122(4)
C17 C 0.5309(10) 0.0066(17) 0.1051(5)
H27 H 0.5674(11) 0.0387(79) 0.0668(17)
H28 H 0.4776(50) 0.0708(59) 0.1235(18)
H29 H 0.4818(49) -0.0681(23) 0.0959(30)
C18 C 0.7121(9) 0.0961(12) 0.1670(4)
H30 H 0.7718(38) 0.0787(18) 0.2001(20)
H31 H 0.6554(10) 0.1621(20) 0.1806(27)
H32 H 0.7561(46) 0.1236(35) 0.1297(9)
O5 O 0.6742(7) -0.1288(8) 0.2492(3)
C19 C 0.6338(18) -0.1882(20) 0.3079(6)
H33 H 0.5860(94) -0.1279(40) 0.3323(26)
H34 H 0.7064(18) -0.215(10) 0.3317(26)
H35 H 0.5824(93) -0.2611(68) 0.2986(6)
O6 O 0.4771(7) -0.0724(11) 0.2290(4)
loop_
_geom_bond_atom_site_label_1
_geom_bond_atom_site_label_2
_geom_bond_site_symmetry_1
_geom_bond_site_symmetry_2
O1 C1 1_555 1_555
C1 C2 1_555 1_555
C2 H1 1_555 1_555
H2 C2 1_555 1_555
H3 C2 1_555 1_555
C3 C1 1_555 1_555
H4 C3 1_555 1_555
H5 C3 1_555 1_555
H6 C3 1_555 1_555
C4 C1 1_555 1_555
H7 C4 1_555 1_555
H8 C4 1_555 1_555
H9 C4 1_555 1_555
C5 O1 1_555 1_555
O2 C5 1_555 1_555
N1 C5 1_555 1_555
H10 N1 1_555 1_555
C6 N1 1_555 1_555
H11 C6 1_555 1_555
C7 C6 1_555 1_555
H12 C7 1_555 1_555
H13 C7 1_555 1_555
H14 C7 1_555 1_555
C8 C6 1_555 1_555
N2 C8 1_555 1_555
H15 N2 1_555 1_555
O3 C8 1_555 1_555
C9 N2 1_555 1_555
H16 C9 1_555 1_555
C10 C9 1_555 1_555
H17 C10 1_555 1_555
H18 C10 1_555 1_555
C11 C10 1_555 1_555
H19 C11 1_555 1_555
C12 C11 1_555 1_555
H20 C12 1_555 1_555
H21 C12 1_555 1_555
H22 C12 1_555 1_555
C13 C11 1_555 1_555
H23 C13 1_555 1_555
H24 C13 1_555 1_555
H25 C13 1_555 1_555
C14 C9 1_555 1_555
O4 C14 1_555 1_555
N3 C14 1_555 1_555
H26 N3 1_555 1_555
C15 N3 1_555 1_555
C16 C15 1_555 1_555
C17 C15 1_555 1_555
H27 C17 1_555 1_555
H28 C17 1_555 1_555
H29 C17 1_555 1_555
C18 C15 1_555 1_555
H30 C18 1_555 1_555
H31 C18 1_555 1_555
H32 C18 1_555 1_555
O5 C16 1_555 1_555
C19 O5 1_555 1_555
H33 C19 1_555 1_555
H34 C19 1_555 1_555
H35 C19 1_555 1_555
O6 C16 1_555 1_555

#END
