
#######################################################################
#
#                 Cambridge Crystallographic Data Centre
#                                CCDC 
#
#######################################################################
#
# If this CIF has been generated from an entry in the Cambridge 
# Structural Database, then it will include bibliographic, chemical, 
# crystal, experimental, refinement or atomic coordinate data resulting 
# from the CCDC's data processing and validation procedures.
#
#######################################################################

data_WAMSIN
_chemical_formula_moiety         'C24 H44 N4 O7,H2 O1'
_chemical_name_systematic        
't-Butoxycarbonyl-\g-aminoisobutyryl-\a-aminoisobutyryl-leucyl-\a-aminoisobutyryl methyl ester monohydrate'
_symmetry_cell_setting           monoclinic
_symmetry_space_group_name_H-M   'C 2'
_symmetry_Int_Tables_number      5
_space_group_name_Hall           'C 2y'
loop_
_symmetry_equiv_pos_site_id
_symmetry_equiv_pos_as_xyz
1 x,y,z
2 -x,y,-z
3 1/2+x,1/2+y,z
4 1/2-x,1/2+y,-z
_cell_length_a                   29.557(32)
_cell_length_b                   12.237(14)
_cell_length_c                   20.703(21)
_cell_angle_alpha                90
_cell_angle_beta                 121.315(10)
_cell_angle_gamma                90
_cell_volume                     6397.21
_exptl_crystal_colour            white
_exptl_crystal_description       needle
_chemical_melting_point          '104-106 deg.C'
_cell_formula_units_Z            8
_exptl_crystal_recrystallization_method methanol/water
loop_
_atom_site_label
_atom_site_type_symbol
_atom_site_fract_x
_atom_site_fract_y
_atom_site_fract_z
C1 C 0.3581(4) 0.0714(8) 0.5229(6)
H1 H 0.3485(4) 0.0398(8) 0.4744(6)
H2 H 0.3457(4) 0.0225(8) 0.5474(6)
O1 O 0.4061(4) 0.6197(8) 0.5076(6)
N1 N 0.4222(4) 0.0527(6) 0.6931(5)
H3 H 0.4339(4) -0.0132(6) 0.7033(5)
C2 C 0.3892(4) 0.0868(9) 0.7161(6)
O2 O 0.3799(3) -0.0005(5) 0.7483(4)
C3 C 0.3454(8) 0.0123(10) 0.7809(8)
C4 C 0.3471(6) -0.1014(10) 0.8073(7)
H4 H 0.3820(10) -0.1171(24) 0.8490(30)
H5 H 0.3383(32) -0.1515(11) 0.7668(15)
H6 H 0.3220(23) -0.1091(20) 0.8232(43)
C5 C 0.2907(6) 0.0505(11) 0.7241(8)
H7 H 0.2927(6) 0.1173(32) 0.7014(30)
H8 H 0.2712(11) 0.0630(58) 0.7488(11)
H9 H 0.2730(12) -0.0041(26) 0.6857(23)
C6 C 0.3738(7) 0.0941(13) 0.8479(8)
H10 H 0.3532(21) 0.1034(65) 0.8712(37)
H11 H 0.3776(38) 0.1633(27) 0.8294(11)
H12 H 0.4082(17) 0.0662(41) 0.8844(28)
O3 O 0.3701(3) 0.1776(5) 0.7059(4)
C7 C 0.4197(4) 0.0817(8) 0.5728(6)
H13 H 0.4354(4) 0.0110(8) 0.5753(6)
H14 H 0.4318(4) 0.1324(8) 0.5489(6)
C8 C 0.4387(4) 0.1209(8) 0.6528(6)
H15 H 0.4771(4) 0.1245(8) 0.6809(6)
H16 H 0.4255(4) 0.1943(8) 0.6503(6)
C9 C 0.3302(3) 0.1837(7) 0.5098(4)
O4 O 0.3478(2) 0.2653(4) 0.4957(3)
N2 N 0.2864(3) 0.1814(5) 0.5116(4)
H17 H 0.2798(3) 0.1230(5) 0.5283(4)
C10 C 0.2468(3) 0.2743(6) 0.4863(6)
C11 C 0.2187(4) 0.2894(7) 0.4005(6)
H18 H 0.2433(7) 0.3184(42) 0.3877(6)
H19 H 0.1897(14) 0.3392(36) 0.3840(7)
H20 H 0.2057(20) 0.2202(10) 0.3759(6)
C12 C 0.2077(4) 0.2496(7) 0.5136(7)
H21 H 0.1886(19) 0.1836(31) 0.4902(29)
H22 H 0.1832(17) 0.3091(26) 0.4999(34)
H23 H 0.2272(5) 0.2409(54) 0.5675(8)
C13 C 0.2781(4) 0.3811(6) 0.5300(6)
O5 O 0.2607(2) 0.4691(5) 0.4944(4)
N3 N 0.3176(3) 0.3753(5) 0.6014(4)
H24 H 0.3283(3) 0.3122(5) 0.6222(4)
C14 C 0.3430(4) 0.4725(6) 0.6448(5)
H25 H 0.3159(4) 0.5297(6) 0.6274(5)
C15 C 0.3649(4) 0.4561(7) 0.7281(6)
H26 H 0.3883(4) 0.5165(7) 0.7557(6)
H27 H 0.3859(4) 0.3897(7) 0.7442(6)
C16 C 0.3220(10) 0.4481(18) 0.7489(12)
H28 H 0.3216(10) 0.5279(18) 0.7525(12)
C17 C 0.3518(8) 0.4389(17) 0.8377(11)
H29 H 0.3264(9) 0.429(11) 0.8528(12)
H30 H 0.3714(44) 0.5047(49) 0.8600(11)
H31 H 0.3756(41) 0.3777(70) 0.8542(13)
C18 C 0.2710(12) 0.4467(24) 0.7093(16)
H32 H 0.2590(13) 0.486(14) 0.6628(53)
H33 H 0.2573(12) 0.481(15) 0.7372(49)
H34 H 0.2589(13) 0.3725(25) 0.6984(96)
C19 C 0.3887(4) 0.5175(7) 0.6371(5)
O6 O 0.4111(3) 0.6049(5) 0.6668(4)
N4 N 0.4035(3) 0.4582(6) 0.5975(4)
H35 H 0.3840(3) 0.4037(6) 0.5720(4)
C20 C 0.4523(4) 0.4806(9) 0.5947(6)
C21 C 0.4533(5) 0.4038(11) 0.5364(8)
H36 H 0.4509(32) 0.3293(11) 0.5489(26)
H37 H 0.4858(15) 0.4141(49) 0.5371(34)
H38 H 0.4239(19) 0.4202(44) 0.4868(10)
C22 C 0.5008(4) 0.4655(10) 0.6729(7)
H39 H 0.5036(17) 0.5258(33) 0.7045(14)
H40 H 0.5319(5) 0.4625(63) 0.6694(8)
H41 H 0.4975(15) 0.3987(33) 0.6945(19)
C23 C 0.4532(6) 0.5976(12) 0.5693(7)
O7 O 0.4916(4) 0.6542(8) 0.5916(6)
C24 C 0.4060(8) 0.7204(14) 0.4695(11)
H42 H 0.4051(51) 0.7823(14) 0.4974(40)
H43 H 0.3754(26) 0.7217(49) 0.4193(27)
H44 H 0.4375(24) 0.7235(50) 0.4669(62)
C25 C 0.3409(9) 0.3574(12) 0.3260(8)
H45 H 0.3755(14) 0.3903(56) 0.3512(55)
H46 H 0.3318(50) 0.3375(20) 0.3626(50)
H47 H 0.3154(34) 0.4086(45) 0.2907(13)
C26 C 0.3412(5) 0.2524(8) 0.2824(6)
C27 C 0.2892(6) 0.1962(15) 0.2532(9)
H48 H 0.2611(7) 0.2438(37) 0.2189(52)
H49 H 0.2848(22) 0.1781(88) 0.2947(11)
H50 H 0.2884(18) 0.1306(50) 0.2272(56)
C28 C 0.3907(11) 0.1932(14) 0.3379(11)
O8 O 0.3778(5) 0.0926(8) 0.3537(6)
C29 C 0.4274(10) 0.0239(22) 0.3995(14)
H51 H 0.4373(43) -0.008(12) 0.3663(18)
H52 H 0.4205(25) -0.0328(95) 0.4254(85)
H53 H 0.4557(23) 0.0694(37) 0.4358(71)
O9 O 0.4347(8) 0.2341(14) 0.3629(8)
N5 N 0.3453(3) 0.2899(6) 0.2204(4)
H54 H 0.3341(3) 0.3549(6) 0.2040(4)
C30 C 0.3651(5) 0.2325(8) 0.1855(6)
O10 O 0.3811(4) 0.1388(6) 0.2069(5)
C31 C 0.3654(4) 0.2756(7) 0.1174(5)
H55 H 0.3521(4) 0.2180(7) 0.0789(5)
C32 C 0.4223(5) 0.3019(8) 0.1403(6)
H56 H 0.4311(5) 0.3734(8) 0.1639(6)
H57 H 0.4454(5) 0.2494(8) 0.1783(6)
C33 C 0.4341(7) 0.3019(17) 0.0821(14)
H58 H 0.4164(7) 0.3668(17) 0.0515(14)
C34 C 0.4173(9) 0.2175(19) 0.0325(13)
H59 H 0.4337(46) 0.1511(27) 0.0592(17)
H60 H 0.4266(53) 0.2307(60) -0.0047(51)
H61 H 0.3795(12) 0.2107(80) 0.0081(63)
C35 C 0.4932(8) 0.3194(17) 0.1130(11)
H62 H 0.5042(15) 0.3875(57) 0.1398(69)
H63 H 0.4994(11) 0.321(12) 0.0718(13)
H64 H 0.5131(9) 0.2607(63) 0.1467(63)
N6 N 0.3303(3) 0.3717(5) 0.0852(3)
H65 H 0.3440(3) 0.4361(5) 0.0957(3)
C36 C 0.2782(4) 0.3606(5) 0.0404(5)
O11 O 0.2556(3) 0.2718(4) 0.0263(3)
C37 C 0.2418(4) 0.4642(6) -0.0015(5)
C38 C 0.1844(4) 0.4408(8) -0.0264(6)
H66 H 0.1822(5) 0.4224(52) 0.0170(8)
H67 H 0.1716(9) 0.3808(36) -0.0613(29)
H68 H 0.1633(6) 0.5045(20) -0.0505(34)
C39 C 0.2517(5) 0.4872(7) -0.0671(5)
H69 H 0.2454(26) 0.4217(16) -0.0961(23)
H70 H 0.2876(8) 0.5105(51) -0.0466(6)
H71 H 0.2280(18) 0.5435(38) -0.0991(21)
N7 N 0.2626(3) 0.5608(5) 0.0495(4)
H72 H 0.2701(3) 0.6184(5) 0.0331(4)
C40 C 0.2702(3) 0.5640(7) 0.1168(5)
O12 O 0.2688(2) 0.4813(5) 0.1511(3)
C41 C 0.2796(4) 0.6773(6) 0.1541(5)
H73 H 0.2864(4) 0.7292(6) 0.1248(5)
H74 H 0.2473(4) 0.7001(6) 0.1519(5)
C42 C 0.3257(4) 0.6825(8) 0.2371(5)
H75 H 0.3292(4) 0.7571(8) 0.2550(5)
H76 H 0.3170(4) 0.6371(8) 0.2676(5)
C43 C 0.3791(4) 0.6450(8) 0.2489(5)
H77 H 0.4059(4) 0.6489(8) 0.3023(5)
H78 H 0.3763(4) 0.5694(8) 0.2332(5)
N8 N 0.3955(3) 0.7097(6) 0.2077(5)
H79 H 0.3993(3) 0.7788(6) 0.2166(5)
C44 C 0.4056(4) 0.6710(9) 0.1560(6)
O13 O 0.3980(3) 0.5762(5) 0.1326(4)
O14 O 0.4264(3) 0.7509(5) 0.1332(4)
C45 C 0.4440(6) 0.7283(10) 0.0806(8)
C46 C 0.4609(7) 0.8426(11) 0.0715(9)
H80 H 0.4301(7) 0.8878(24) 0.0438(45)
H81 H 0.4792(34) 0.8377(14) 0.0446(48)
H82 H 0.4839(29) 0.8739(32) 0.1205(9)
C47 C 0.3952(7) 0.6853(13) 0.0049(8)
H83 H 0.3944(20) 0.6069(13) 0.0058(22)
H84 H 0.3981(19) 0.7091(60) -0.0370(9)
H85 H 0.3631(7) 0.7138(57) -0.0004(24)
C48 C 0.4900(6) 0.6448(13) 0.1168(9)
H86 H 0.5011(28) 0.6343(65) 0.1689(17)
H87 H 0.5192(16) 0.6720(39) 0.1134(52)
H88 H 0.4782(13) 0.5764(27) 0.0904(37)
O15 O 0.4361(4) -0.0568(6) 0.2451(6)
O16 O 0.4529(4) 0.8208(6) 0.6877(6)
loop_
_geom_bond_atom_site_label_1
_geom_bond_atom_site_label_2
_geom_bond_site_symmetry_1
_geom_bond_site_symmetry_2
C1 H1 1_555 1_555
H2 C1 1_555 1_555
O1 C23 1_555 1_555
N1 H3 1_555 1_555
C2 N1 1_555 1_555
O2 C2 1_555 1_555
C3 O2 1_555 1_555
C4 C3 1_555 1_555
H4 C4 1_555 1_555
H5 C4 1_555 1_555
H6 C4 1_555 1_555
C5 C3 1_555 1_555
H7 C5 1_555 1_555
H8 C5 1_555 1_555
H9 C5 1_555 1_555
C6 C3 1_555 1_555
H10 C6 1_555 1_555
H11 C6 1_555 1_555
H12 C6 1_555 1_555
O3 C2 1_555 1_555
C7 C1 1_555 1_555
H13 C7 1_555 1_555
H14 C7 1_555 1_555
C8 N1 1_555 1_555
H15 C8 1_555 1_555
H16 C8 1_555 1_555
C9 C1 1_555 1_555
O4 C9 1_555 1_555
N2 C9 1_555 1_555
H17 N2 1_555 1_555
C10 N2 1_555 1_555
C11 C10 1_555 1_555
H18 C11 1_555 1_555
H19 C11 1_555 1_555
H20 C11 1_555 1_555
C12 C10 1_555 1_555
H21 C12 1_555 1_555
H22 C12 1_555 1_555
H23 C12 1_555 1_555
C13 C10 1_555 1_555
O5 C13 1_555 1_555
N3 C13 1_555 1_555
H24 N3 1_555 1_555
C14 N3 1_555 1_555
H25 C14 1_555 1_555
C15 C14 1_555 1_555
H26 C15 1_555 1_555
H27 C15 1_555 1_555
C16 C15 1_555 1_555
H28 C16 1_555 1_555
C17 C16 1_555 1_555
H29 C17 1_555 1_555
H30 C17 1_555 1_555
H31 C17 1_555 1_555
C18 C16 1_555 1_555
H32 C18 1_555 1_555
H33 C18 1_555 1_555
H34 C18 1_555 1_555
C19 C14 1_555 1_555
O6 C19 1_555 1_555
N4 C19 1_555 1_555
H35 N4 1_555 1_555
C20 N4 1_555 1_555
C21 C20 1_555 1_555
H36 C21 1_555 1_555
H37 C21 1_555 1_555
H38 C21 1_555 1_555
C22 C20 1_555 1_555
H39 C22 1_555 1_555
H40 C22 1_555 1_555
H41 C22 1_555 1_555
C23 C20 1_555 1_555
O7 C23 1_555 1_555
C24 O1 1_555 1_555
H42 C24 1_555 1_555
H43 C24 1_555 1_555
H44 C24 1_555 1_555
C25 H45 1_555 1_555
H46 C25 1_555 1_555
H47 C25 1_555 1_555
C26 C25 1_555 1_555
C27 C26 1_555 1_555
H48 C27 1_555 1_555
H49 C27 1_555 1_555
H50 C27 1_555 1_555
C28 C26 1_555 1_555
O8 C28 1_555 1_555
C29 O8 1_555 1_555
H51 C29 1_555 1_555
H52 C29 1_555 1_555
H53 C29 1_555 1_555
O9 C28 1_555 1_555
N5 C26 1_555 1_555
H54 N5 1_555 1_555
C30 N5 1_555 1_555
O10 C30 1_555 1_555
C31 C30 1_555 1_555
H55 C31 1_555 1_555
C32 C31 1_555 1_555
H56 C32 1_555 1_555
H57 C32 1_555 1_555
C33 C32 1_555 1_555
H58 C33 1_555 1_555
C34 C33 1_555 1_555
H59 C34 1_555 1_555
H60 C34 1_555 1_555
H61 C34 1_555 1_555
C35 C33 1_555 1_555
H62 C35 1_555 1_555
H63 C35 1_555 1_555
H64 C35 1_555 1_555
N6 C31 1_555 1_555
H65 N6 1_555 1_555
C36 N6 1_555 1_555
O11 C36 1_555 1_555
C37 C36 1_555 1_555
C38 C37 1_555 1_555
H66 C38 1_555 1_555
H67 C38 1_555 1_555
H68 C38 1_555 1_555
C39 C37 1_555 1_555
H69 C39 1_555 1_555
H70 C39 1_555 1_555
H71 C39 1_555 1_555
N7 C37 1_555 1_555
H72 N7 1_555 1_555
C40 N7 1_555 1_555
O12 C40 1_555 1_555
C41 C40 1_555 1_555
H73 C41 1_555 1_555
H74 C41 1_555 1_555
C42 C41 1_555 1_555
H75 C42 1_555 1_555
H76 C42 1_555 1_555
C43 C42 1_555 1_555
H77 C43 1_555 1_555
H78 C43 1_555 1_555
N8 C43 1_555 1_555
H79 N8 1_555 1_555
C44 N8 1_555 1_555
O13 C44 1_555 1_555
O14 C44 1_555 1_555
C45 O14 1_555 1_555
C46 C45 1_555 1_555
H80 C46 1_555 1_555
H81 C46 1_555 1_555
H82 C46 1_555 1_555
C47 C45 1_555 1_555
H83 C47 1_555 1_555
H84 C47 1_555 1_555
H85 C47 1_555 1_555
C48 C45 1_555 1_555
H86 C48 1_555 1_555
H87 C48 1_555 1_555
H88 C48 1_555 1_555
C7 C8 1_555 1_555

#END
