
#######################################################################
#
#                 Cambridge Crystallographic Data Centre
#                                CCDC 
#
#######################################################################
#
# If this CIF has been generated from an entry in the Cambridge 
# Structural Database, then it will include bibliographic, chemical, 
# crystal, experimental, refinement or atomic coordinate data resulting 
# from the CCDC's data processing and validation procedures.
#
#######################################################################

data_WAMZIW
_chemical_name_common            Thienoisoindigo
_chemical_formula_moiety         'C12 H6 N2 O2 S2'
_chemical_name_systematic        
6-(5-oxo-4,5-dihydro-6H-thieno[3,2-b]pyrrol-6-ylidene)-4,6-dihydro-5H-thieno[3,2-b]pyrrol-5-one
_symmetry_cell_setting           monoclinic
_symmetry_space_group_name_H-M   'P 21/n'
_symmetry_Int_Tables_number      14
_space_group_name_Hall           '-P 2yn'
loop_
_symmetry_equiv_pos_site_id
_symmetry_equiv_pos_as_xyz
1 x,y,z
2 1/2-x,1/2+y,1/2-z
3 -x,-y,-z
4 1/2+x,1/2-y,1/2+z
_cell_length_a                   8.23564(15)
_cell_length_b                   4.76654(9)
_cell_length_c                   14.1245(3)
_cell_angle_alpha                90
_cell_angle_beta                 96.7481(7)
_cell_angle_gamma                90
_cell_volume                     550.623
_exptl_crystal_colour            brown
_exptl_crystal_description       plate
_cell_formula_units_Z            2
loop_
_atom_site_label
_atom_site_type_symbol
_atom_site_fract_x
_atom_site_fract_y
_atom_site_fract_z
S1 S 0.79671(5) 0.04962(9) 0.48224(3)
O1 O 0.25341(15) 0.5809(3) 0.36598(9)
N1 N 0.41558(17) 0.2323(4) 0.31192(10)
C1 C 0.3734(2) 0.4261(4) 0.37586(12)
C2 C 0.5032(2) 0.4163(4) 0.46106(12)
C3 C 0.61569(19) 0.2076(4) 0.43724(11)
C4 C 0.5606(2) 0.0985(4) 0.34869(12)
C5 C 0.6593(3) -0.1125(4) 0.31593(12)
C6 C 0.7930(3) -0.1569(4) 0.38183(13)
H1 H 0.3600 0.1970 0.2561
H2 H 0.6369 -0.2096 0.2571
H3 H 0.8760 -0.2895 0.3729
S1B S 0.20329(5) 0.95038(9) 0.51776(3)
O1B O 0.74659(15) 0.4191(3) 0.63402(9)
N1B N 0.58442(17) 0.7677(4) 0.68808(10)
C1B C 0.6266(2) 0.5739(4) 0.62414(12)
C2B C 0.4968(2) 0.5837(4) 0.53894(12)
C3B C 0.38431(19) 0.7924(4) 0.56276(11)
C4B C 0.4394(2) 0.9015(4) 0.65131(12)
C5B C 0.3407(3) 1.1125(4) 0.68407(12)
C6B C 0.2070(3) 1.1569(4) 0.61817(13)
H1B H 0.6400 0.8030 0.7439
H2B H 0.3631 1.2096 0.7429
H3B H 0.1240 1.2895 0.6271
loop_
_geom_bond_atom_site_label_1
_geom_bond_atom_site_label_2
_geom_bond_site_symmetry_1
_geom_bond_site_symmetry_2
S1 C3 1_555 1_555
O1 C1 1_555 1_555
N1 C1 1_555 1_555
C1 C2 1_555 1_555
C2 C3 1_555 1_555
C3 C4 1_555 1_555
C4 N1 1_555 1_555
C5 C4 1_555 1_555
C6 S1 1_555 1_555
H1 N1 1_555 1_555
H2 C5 1_555 1_555
H3 C6 1_555 1_555
S1B C3B 1_555 1_555
O1B C1B 1_555 1_555
N1B C1B 1_555 1_555
C1B C2B 1_555 1_555
C2B C2 1_555 1_555
C3B C2B 1_555 1_555
C4B N1B 1_555 1_555
C5B C4B 1_555 1_555
C6B S1B 1_555 1_555
H1B N1B 1_555 1_555
H2B C5B 1_555 1_555
H3B C6B 1_555 1_555
C5 C6 1_555 1_555
C3B C4B 1_555 1_555
C5B C6B 1_555 1_555

#END
