
#######################################################################
#
#                 Cambridge Crystallographic Data Centre
#                                CCDC 
#
#######################################################################
#
# If this CIF has been generated from an entry in the Cambridge 
# Structural Database, then it will include bibliographic, chemical, 
# crystal, experimental, refinement or atomic coordinate data resulting 
# from the CCDC's data processing and validation procedures.
#
#######################################################################

data_WANCOG
_chemical_formula_moiety         'C43 H54 N5 O2 S1 1+,C2 F3 O2 1-'
_chemical_name_systematic        
'3,3,7,8,12,13,17,18-octaethyl-2-((4-methylbenzene-1-sulfonyl)imino)chlorinium trifluoroacetate'
_symmetry_cell_setting           triclinic
_symmetry_space_group_name_H-M   'P -1'
_symmetry_Int_Tables_number      2
_space_group_name_Hall           '-P 1'
loop_
_symmetry_equiv_pos_site_id
_symmetry_equiv_pos_as_xyz
1 x,y,z
2 -x,-y,-z
_cell_length_a                   10.9189(6)
_cell_length_b                   13.3406(5)
_cell_length_c                   15.3537(9)
_cell_angle_alpha                104.028(4)
_cell_angle_beta                 98.966(5)
_cell_angle_gamma                101.944(4)
_cell_volume                     2072.21
_exptl_crystal_colour            black
_exptl_crystal_description       wedge
_cell_formula_units_Z            2
loop_
_atom_site_label
_atom_site_type_symbol
_atom_site_fract_x
_atom_site_fract_y
_atom_site_fract_z
C1 C 0.3035(3) 0.3017(2) 0.3918(2)
C2 C 0.2026(3) 0.1983(2) 0.3778(2)
C3 C 0.1213(3) 0.1740(2) 0.2848(2)
C4 C 0.0114(16) 0.0859(16) 0.2499(11)
H1 H -0.0093 0.0452 0.2909
C5 C -0.0694(10) 0.0517(9) 0.1634(8)
N1 N -0.0647(11) 0.1051(10) 0.0982(9)
H2 H -0.0111 0.1653 0.1054
C6 C -0.1703(9) -0.0434(8) 0.1258(7)
C7 C -0.2194(11) -0.1196(8) 0.1778(7)
H3 H -0.1482 -0.1197 0.2263
H4 H -0.2511 -0.1928 0.1352
C8 C -0.3279(12) -0.0887(12) 0.2219(10)
H5 H -0.4014 -0.0945 0.1736
H6 H -0.2980 -0.0150 0.2617
H7 H -0.3538 -0.1369 0.2585
C9 C -0.1574(9) 0.0495(9) 0.0200(8)
C10 C -0.1805(10) 0.0793(9) -0.0602(8)
H8 H -0.2443 0.0286 -0.1091
N2 N -0.0389(9) 0.2609(9) -0.0150(7)
H9 H -0.055(4) 0.280(2) 0.0419(12)
C11 C -0.1243(10) 0.1720(9) -0.0797(7)
C12 C -0.1437(7) 0.1962(6) -0.1652(6)
C13 C -0.2278(9) 0.1193(9) -0.2527(7)
H10 H -0.2188 0.0463 -0.2554
H11 H -0.1988 0.1385 -0.3058
C14 C -0.3681(11) 0.1195(16) -0.2600(11)
H12 H -0.3780 0.1911 -0.2591
H13 H -0.3976 0.0996 -0.2080
H14 H -0.4193 0.0680 -0.3177
C15 C -0.0693(7) 0.2991(5) -0.1519(4)
C16 C -0.0551(7) 0.3590(5) -0.2219(4)
H15 H -0.0411 0.4362 -0.1915
H16 H -0.1361 0.3357 -0.2690
C17 C 0.0543(9) 0.3435(8) -0.2694(6)
H17 H 0.0353 0.2691 -0.3070
H18 H 0.1338 0.3601 -0.2230
H19 H 0.0645 0.3911 -0.3088
C18 C -0.0020(7) 0.3387(6) -0.0571(5)
C19 C 0.0917(7) 0.4337(7) -0.0157(6)
H20 H 0.0981 0.4856 -0.0487
C20 C 0.1777(10) 0.4616(11) 0.0692(8)
N3 N 0.1807(13) 0.4082(11) 0.1351(9)
H21 H 0.110(3) 0.367(4) 0.142(2)
C21 C 0.2841(10) 0.5553(10) 0.1047(9)
C22 C 0.3136(9) 0.6417(9) 0.0575(8)
H22 H 0.2326 0.6461 0.0212
H23 H 0.3515 0.7113 0.1048
C23 C 0.4041(11) 0.6222(11) -0.0047(9)
H24 H 0.3721 0.5499 -0.0471
H25 H 0.4889 0.6294 0.0321
H26 H 0.4106 0.6745 -0.0400
C24 C 0.3490(12) 0.5532(12) 0.1874(10)
C25 C 0.4680(14) 0.6293(13) 0.2485(13)
H27 H 0.4593 0.6405 0.3132
H28 H 0.4770 0.6990 0.2350
C26 C 0.5884(17) 0.5927(13) 0.2386(13)
H29 H 0.5994 0.5835 0.1753
H30 H 0.5813 0.5244 0.2533
H31 H 0.6626 0.6463 0.2809
C27 C 0.2808(12) 0.4606(10) 0.2094(9)
C28 C 0.3073(12) 0.4287(9) 0.2881(9)
H32 H 0.3742 0.4766 0.3366
C29 C 0.2464(14) 0.3337(11) 0.3042(13)
C30 C -0.2137(15) -0.0502(13) 0.0350(10)
C31 C -0.3151(19) -0.1324(18) -0.042(2)
H33 H -0.3334 -0.2017 -0.0279
H34 H -0.2840 -0.1429 -0.1002
C32 C -0.438(2) -0.0933(15) -0.054(2)
H35 H -0.5022 -0.1443 -0.1059
H36 H -0.4182 -0.0231 -0.0651
H37 H -0.4712 -0.0876 0.0024
C33 C 0.4390(3) 0.2837(3) 0.3941(2)
H38 H 0.4969 0.3492 0.3898
H39 H 0.4710 0.2729 0.4543
C34 C 0.4467(4) 0.1892(3) 0.3183(3)
H40 H 0.4149 0.1986 0.2583
H41 H 0.3940 0.1231 0.3242
H42 H 0.5360 0.1850 0.3237
C35 C 0.3046(4) 0.3898(2) 0.4785(2)
H43 H 0.3427 0.3712 0.5334
H44 H 0.3608 0.4579 0.4775
C36 C 0.1738(4) 0.4070(3) 0.4881(3)
H45 H 0.1327 0.4211 0.4325
H46 H 0.1836 0.4681 0.5415
H47 H 0.1204 0.3428 0.4966
C37 C 0.2379(3) 0.0092(2) 0.5242(2)
C38 C 0.3342(3) -0.0337(3) 0.4965(2)
H48 H 0.4059 0.0099 0.4838
C39 C 0.3259(4) -0.1418(3) 0.4871(3)
H49 H 0.3926 -0.1714 0.4679
C40 C 0.2237(4) -0.2057(3) 0.5050(3)
C41 C 0.1292(4) -0.1593(3) 0.5350(3)
H50 H 0.0587 -0.2023 0.5495
C42 C 0.1344(4) -0.0523(3) 0.5445(3)
H51 H 0.0684 -0.0223 0.5645
C43 C 0.2140(5) -0.3226(3) 0.4933(4)
H52 H 0.1242 -0.3632 0.4697
H53 H 0.2461 -0.3331 0.5528
H54 H 0.2654 -0.3475 0.4496
N4 N 0.1583(3) 0.25200(19) 0.24405(17)
N5 N 0.1760(2) 0.13377(19) 0.42723(16)
O1 O 0.1686(2) 0.18279(19) 0.59163(15)
O2 O 0.3830(2) 0.19917(17) 0.55557(15)
S1 S 0.24893(8) 0.14456(6) 0.53301(5)
O3 O -0.0674(15) 0.3186(9) 0.1560(9)
O4 O -0.2156(6) 0.4145(5) 0.1530(4)
C76 C -0.1587(8) 0.3532(7) 0.1813(6)
C77 C -0.1997(9) 0.3162(7) 0.2605(6)
F1 F -0.2904(9) 0.3571(10) 0.2926(6)
F2 F -0.2524(10) 0.2046(7) 0.2305(6)
F3 F -0.1031(6) 0.3422(7) 0.3328(4)
C44? C -0.2348(15) -0.0369(12) 0.0439(10)
C45? C -0.3544(15) -0.1175(12) -0.0170(11)
H55? H -0.3949 -0.0858 -0.0623
H56? H -0.4163 -0.1356 0.0209
C46? C -0.3226(16) -0.2189(12) -0.0678(11)
H57? H -0.4014 -0.2696 -0.1071
H58? H -0.2842 -0.2511 -0.0231
H59? H -0.2619 -0.2011 -0.1059
C47? C 0.0351(16) 0.0772(18) 0.2449(11)
H60? H 0.0277 0.0283 0.2809
C48? C -0.0433(12) 0.0426(10) 0.1571(9)
N6? N -0.0384(12) 0.0987(10) 0.0939(10)
H61? H 0.0094 0.1630 0.1048
C49? C -0.1385(9) -0.0563(8) 0.1129(6)
C50? C -0.1747(9) -0.1421(7) 0.1587(6)
H62? H -0.1008 -0.1379 0.2071
H63? H -0.1950 -0.2129 0.1128
C51? C -0.2915(12) -0.1316(10) 0.2023(8)
H64? H -0.3671 -0.1429 0.1538
H65? H -0.2737 -0.0599 0.2450
H66? H -0.3078 -0.1852 0.2358
C52? C -0.1898(9) -0.0557(8) 0.0256(7)
C53? C -0.2936(12) -0.1446(11) -0.0437(12)
H67? H -0.2975 -0.2114 -0.0257
H68? H -0.2702 -0.1560 -0.1045
C54? C -0.4268(14) -0.1231(9) -0.0531(14)
H69? H -0.4892 -0.1843 -0.0984
H70? H -0.4249 -0.0588 -0.0735
H71? H -0.4514 -0.1126 0.0065
C55? C -0.1264(10) 0.0444(9) 0.0132(8)
C56? C -0.1474(11) 0.0753(10) -0.0661(9)
H72? H -0.2098 0.0246 -0.1159
N7? N -0.0064(10) 0.2561(10) -0.0194(8)
H73? H -0.017(5) 0.276(3) 0.0376(13)
C57? C -0.0915(11) 0.1690(9) -0.0844(8)
C58? C -0.0977(8) 0.1883(7) -0.1722(6)
C59? C -0.1838(10) 0.1143(10) -0.2599(8)
H74? H -0.1816 0.0397 -0.2628
H75? H -0.1523 0.1316 -0.3129
C60? C -0.3197(12) 0.1239(14) -0.2660(12)
H76? H -0.3232 0.1958 -0.2690
H77? H -0.3491 0.1112 -0.2115
H78? H -0.3751 0.0709 -0.3214
C61? C -0.0123(8) 0.2848(6) -0.1606(5)
C62? C 0.0279(10) 0.3330(7) -0.2348(6)
H79? H 0.1152 0.3812 -0.2110
H80? H 0.0307 0.2752 -0.2882
C63? C -0.0615(8) 0.3942(7) -0.2653(6)
H81? H -0.0345 0.4213 -0.3151
H82? H -0.0605 0.4543 -0.2135
H83? H -0.1486 0.3472 -0.2876
C64? C 0.0416(8) 0.3286(7) -0.0633(6)
C65? C 0.1341(8) 0.4241(8) -0.0215(7)
H84? H 0.1486 0.4713 -0.0584
C66? C 0.2086(11) 0.4595(11) 0.0683(8)
N8? N 0.2045(13) 0.3991(12) 0.1295(10)
H85? H 0.148(4) 0.341(2) 0.121(2)
C67? C 0.3162(11) 0.5518(11) 0.1073(9)
C68? C 0.3582(10) 0.6337(10) 0.0584(9)
H86? H 0.2835 0.6340 0.0128
H87? H 0.3873 0.7052 0.1037
C69? C 0.4635(10) 0.6144(11) 0.0104(8)
H88? H 0.4382 0.5415 -0.0311
H89? H 0.5415 0.6234 0.0559
H90? H 0.4799 0.6656 -0.0253
C70? C 0.3730(13) 0.5465(13) 0.1913(11)
C71? C 0.4900(15) 0.6187(13) 0.2577(14)
H91? H 0.4727 0.6337 0.3203
H92? H 0.5102 0.6874 0.2424
C72? C 0.6045(16) 0.5725(14) 0.2572(13)
H93? H 0.6205 0.5554 0.1949
H94? H 0.5876 0.5073 0.2768
H95? H 0.6798 0.6247 0.2995
C73? C 0.3026(14) 0.4484(11) 0.2048(10)
C74? C 0.3306(14) 0.4123(11) 0.2806(10)
H96? H 0.4033 0.4566 0.3262
C75? C 0.2686(15) 0.3207(12) 0.3005(14)
O5? O -0.066(6) 0.344(6) 0.143(3)
O6? O -0.0537(11) 0.3960(10) 0.2981(8)
C78? C -0.1057(11) 0.3427(10) 0.2161(8)
C79? C -0.2377(10) 0.2673(9) 0.1980(8)
F4? F -0.3269(8) 0.3171(7) 0.2212(7)
F5? F -0.2253(15) 0.2085(11) 0.2608(9)
F6? F -0.2809(13) 0.2043(8) 0.1149(8)
O7? O -0.067(8) 0.347(10) 0.143(4)
O8? O -0.267(3) 0.2370(19) 0.1081(16)
C80? C -0.167(2) 0.3002(18) 0.1633(11)
C81? C -0.178(2) 0.3395(15) 0.2612(12)
F7? F -0.289(2) 0.362(3) 0.271(2)
F8? F -0.1654(19) 0.2581(15) 0.3031(12)
F9? F -0.0892(18) 0.4206(15) 0.3177(14)
loop_
_geom_bond_atom_site_label_1
_geom_bond_atom_site_label_2
_geom_bond_site_symmetry_1
_geom_bond_site_symmetry_2
C1 C2 1_555 1_555
C2 C3 1_555 1_555
C3 C4 1_555 1_555
C4 H1 1_555 1_555
C5 C4 1_555 1_555
N1 C5 1_555 1_555
H2 N1 1_555 1_555
C6 C5 1_555 1_555
C7 C6 1_555 1_555
H3 C7 1_555 1_555
H4 C7 1_555 1_555
C8 C7 1_555 1_555
H5 C8 1_555 1_555
H6 C8 1_555 1_555
H7 C8 1_555 1_555
C9 N1 1_555 1_555
C10 C9 1_555 1_555
H8 C10 1_555 1_555
N2 H9 1_555 1_555
C11 C10 1_555 1_555
C12 C11 1_555 1_555
C13 C12 1_555 1_555
H10 C13 1_555 1_555
H11 C13 1_555 1_555
C14 C13 1_555 1_555
H12 C14 1_555 1_555
H13 C14 1_555 1_555
H14 C14 1_555 1_555
C15 C12 1_555 1_555
C16 C15 1_555 1_555
H15 C16 1_555 1_555
H16 C16 1_555 1_555
C17 C16 1_555 1_555
H17 C17 1_555 1_555
H18 C17 1_555 1_555
H19 C17 1_555 1_555
C18 N2 1_555 1_555
C19 C18 1_555 1_555
H20 C19 1_555 1_555
C20 C19 1_555 1_555
N3 C20 1_555 1_555
H21 N3 1_555 1_555
C21 C20 1_555 1_555
C22 C21 1_555 1_555
H22 C22 1_555 1_555
H23 C22 1_555 1_555
C23 C22 1_555 1_555
H24 C23 1_555 1_555
H25 C23 1_555 1_555
H26 C23 1_555 1_555
C24 C21 1_555 1_555
C25 C24 1_555 1_555
H27 C25 1_555 1_555
H28 C25 1_555 1_555
C26 C25 1_555 1_555
H29 C26 1_555 1_555
H30 C26 1_555 1_555
H31 C26 1_555 1_555
C27 N3 1_555 1_555
C28 C27 1_555 1_555
H32 C28 1_555 1_555
C29 C1 1_555 1_555
C30 C6 1_555 1_555
C31 C30 1_555 1_555
H33 C31 1_555 1_555
H34 C31 1_555 1_555
C32 C31 1_555 1_555
H35 C32 1_555 1_555
H36 C32 1_555 1_555
H37 C32 1_555 1_555
C33 C1 1_555 1_555
H38 C33 1_555 1_555
H39 C33 1_555 1_555
C34 C33 1_555 1_555
H40 C34 1_555 1_555
H41 C34 1_555 1_555
H42 C34 1_555 1_555
C35 C1 1_555 1_555
H43 C35 1_555 1_555
H44 C35 1_555 1_555
C36 C35 1_555 1_555
H45 C36 1_555 1_555
H46 C36 1_555 1_555
H47 C36 1_555 1_555
C37 C38 1_555 1_555
C38 H48 1_555 1_555
C39 C38 1_555 1_555
H49 C39 1_555 1_555
C40 C39 1_555 1_555
C41 C40 1_555 1_555
H50 C41 1_555 1_555
C42 C37 1_555 1_555
H51 C42 1_555 1_555
C43 C40 1_555 1_555
H52 C43 1_555 1_555
H53 C43 1_555 1_555
H54 C43 1_555 1_555
N4 C3 1_555 1_555
N5 C2 1_555 1_555
O1 S1 1_555 1_555
O2 S1 1_555 1_555
S1 C37 1_555 1_555
O3 C76 1_555 1_555
O4 C76 1_555 1_555
C76 C77 1_555 1_555
C77 F1 1_555 1_555
F2 C77 1_555 1_555
F3 C77 1_555 1_555
C9 C30 1_555 1_555
N2 C11 1_555 1_555
C15 C18 1_555 1_555
C24 C27 1_555 1_555
C28 C29 1_555 1_555
C29 N4 1_555 1_555
C41 C42 1_555 1_555
N5 S1 1_555 1_555

#END
