
#######################################################################
#
#                 Cambridge Crystallographic Data Centre
#                                CCDC 
#
#######################################################################
#
# If this CIF has been generated from an entry in the Cambridge 
# Structural Database, then it will include bibliographic, chemical, 
# crystal, experimental, refinement or atomic coordinate data resulting 
# from the CCDC's data processing and validation procedures.
#
#######################################################################

data_WANDAR
_chemical_formula_moiety         'C12 H8 N4 O1,C9 H6 O6,C3 H7 N1 O1'
_chemical_name_systematic        
'Benzene-1,3,5-tricarboxylic acid 2,5-bis(3-pyridyl)-1,3,4-oxadiazole dimethylformamide solvate'
_symmetry_cell_setting           monoclinic
_symmetry_space_group_name_H-M   'C 2/c'
_symmetry_Int_Tables_number      15
_space_group_name_Hall           '-C 2yn'
loop_
_symmetry_equiv_pos_site_id
_symmetry_equiv_pos_as_xyz
1 x,y,z
2 1/2+x,1/2+y,z
3 -x,y,1/2-z
4 1/2-x,1/2+y,1/2-z
5 -x,-y,-z
6 1/2-x,1/2-y,-z
7 x,-y,1/2+z
8 1/2+x,1/2-y,1/2+z
_cell_length_a                   14.812(3)
_cell_length_b                   14.615(3)
_cell_length_c                   22.143(4)
_cell_angle_alpha                90
_cell_angle_beta                 99.523(3)
_cell_angle_gamma                90
_cell_volume                     4727.4
_exptl_crystal_colour            colorless
_exptl_crystal_description       rhombic
_chemical_melting_point          'above 300deg.C'
_cell_formula_units_Z            8
_exptl_crystal_recrystallization_method acetonitrile/dimethylformamide
loop_
_atom_site_label
_atom_site_type_symbol
_atom_site_fract_x
_atom_site_fract_y
_atom_site_fract_z
O1 O 0.62087(9) 0.24347(8) 0.74320(6)
N1 N 0.60098(11) 0.57223(10) 0.72386(8)
N2 N 0.53096(12) 0.30345(10) 0.66348(8)
N3 N 0.52731(12) 0.20750(11) 0.65800(8)
C1 C 0.58745(16) -0.07674(14) 0.69459(11)
H4 H 0.5671 -0.1236 0.6673
C2 C 0.58421(13) 0.48682(12) 0.70430(9)
H5 H 0.5522 0.4781 0.6649
C3 C 0.64762(14) 0.58292(14) 0.78052(10)
H6 H 0.6601 0.6421 0.7950
C4 C 0.67806(15) 0.51090(14) 0.81840(10)
H7 H 0.7107 0.5216 0.8574
C5 C 0.65985(14) 0.42303(13) 0.79818(9)
H8 H 0.6792 0.3733 0.8232
C6 C 0.61193(13) 0.41013(12) 0.73947(9)
C7 C 0.58633(13) 0.32061(12) 0.71399(9)
C8 C 0.58113(13) 0.17578(12) 0.70524(9)
C9 C 0.60052(13) 0.08068(12) 0.72043(9)
C10 C 0.64931(13) 0.05466(13) 0.77682(9)
H9 H 0.6705 0.1001 0.8051
N4 N 0.66721(12) -0.03221(11) 0.79235(8)
C11 C 0.63626(15) -0.09615(14) 0.75139(10)
H10 H 0.6483 -0.1571 0.7618
C12 C 0.56901(14) 0.01343(13) 0.67854(10)
H11 H 0.5361 0.0285 0.6403
O2 O 0.74243(10) 0.77086(9) 0.84797(6)
O3 O 0.76958(10) 0.90494(8) 0.89518(6)
H1 H 0.7375 0.9242 0.8640
O4 O 0.97169(12) 0.92321(9) 1.09132(7)
O5 O 1.01319(10) 0.79764(9) 1.14553(6)
H2 H 1.0440 0.8342 1.1683
O6 O 0.92060(11) 0.49039(9) 1.04912(7)
O7 O 0.83881(11) 0.49383(9) 0.95558(7)
H3 H 0.8433 0.4380 0.9588
C13 C 0.88328(14) 0.53259(13) 1.00550(9)
C14 C 0.88042(12) 0.63395(12) 1.00181(8)
C15 C 0.92399(13) 0.68644(12) 1.05048(9)
H12 H 0.9550 0.6576 1.0853
C16 C 0.92168(13) 0.78092(12) 1.04765(9)
C17 C 0.97049(14) 0.84095(13) 1.09676(9)
C18 C 0.87355(12) 0.82420(13) 0.99609(8)
H13 H 0.8713 0.8878 0.9943
C19 C 0.82930(12) 0.77301(12) 0.94775(8)
C20 C 0.77626(13) 0.81558(12) 0.89191(9)
C21 C 0.83405(12) 0.67836(12) 0.95051(8)
H14 H 0.8056 0.6440 0.9174
C22 C 0.20290(17) 0.86327(15) 0.07388(11)
H15 H 0.2188 0.8160 0.1039
H16 H 0.1693 0.9104 0.0906
H17 H 0.2577 0.8887 0.0629
O8 O 0.16895(11) 0.67982(10) 0.05353(8)
C23 C 0.13557(15) 0.73643(15) 0.01470(11)
H18 H 0.0997 0.7145 -0.0208
N5 N 0.14712(12) 0.82501(11) 0.02002(8)
C24 C 0.10763(18) 0.88867(17) -0.02734(12)
H19 H 0.0717 0.8556 -0.0603
H20 H 0.1558 0.9210 -0.0424
H21 H 0.0693 0.9316 -0.0106
loop_
_geom_bond_atom_site_label_1
_geom_bond_atom_site_label_2
_geom_bond_site_symmetry_1
_geom_bond_site_symmetry_2
O1 C7 1_555 1_555
O2 C20 1_555 1_555
O3 H1 1_555 1_555
O4 C17 1_555 1_555
O5 H2 1_555 1_555
O6 C13 1_555 1_555
O7 H3 1_555 1_555
N1 C2 1_555 1_555
N2 N3 1_555 1_555
N3 C8 1_555 1_555
C1 H4 1_555 1_555
C2 H5 1_555 1_555
C3 N1 1_555 1_555
H6 C3 1_555 1_555
C4 C3 1_555 1_555
H7 C4 1_555 1_555
C5 C4 1_555 1_555
H8 C5 1_555 1_555
C6 C2 1_555 1_555
C7 N2 1_555 1_555
C8 O1 1_555 1_555
C9 C8 1_555 1_555
C10 C9 1_555 1_555
H9 C10 1_555 1_555
N4 C10 1_555 1_555
C11 C1 1_555 1_555
H10 C11 1_555 1_555
C12 C1 1_555 1_555
H11 C12 1_555 1_555
C13 O7 1_555 1_555
C14 C13 1_555 1_555
C15 C14 1_555 1_555
H12 C15 1_555 1_555
C16 C15 1_555 1_555
C17 O5 1_555 1_555
C18 C16 1_555 1_555
H13 C18 1_555 1_555
C19 C18 1_555 1_555
C20 O3 1_555 1_555
C21 C14 1_555 1_555
H14 C21 1_555 1_555
C22 H15 1_555 1_555
H16 C22 1_555 1_555
H17 C22 1_555 1_555
O8 C23 1_555 1_555
C23 H18 1_555 1_555
N5 C22 1_555 1_555
C24 N5 1_555 1_555
H19 C24 1_555 1_555
H20 C24 1_555 1_555
H21 C24 1_555 1_555
C5 C6 1_555 1_555
C6 C7 1_555 1_555
C9 C12 1_555 1_555
N4 C11 1_555 1_555
C16 C17 1_555 1_555
C19 C20 1_555 1_555
C19 C21 1_555 1_555
C23 N5 1_555 1_555

#END
