
#######################################################################
#
#                 Cambridge Crystallographic Data Centre
#                                CCDC 
#
#######################################################################
#
# If this CIF has been generated from an entry in the Cambridge 
# Structural Database, then it will include bibliographic, chemical, 
# crystal, experimental, refinement or atomic coordinate data resulting 
# from the CCDC's data processing and validation procedures.
#
#######################################################################

data_WANWUD
_chemical_formula_moiety         'C12 H17 N5,H2 O1'
_chemical_name_systematic        
"N-Cyano-N'-methyl-N''-(4-(2-pyridyl)butyl)guanidine monohydrate"
_chemical_properties_biological  'histamine H!2$-antagonist activity'
_symmetry_cell_setting           monoclinic
_symmetry_space_group_name_H-M   'I 2/c'
_symmetry_Int_Tables_number      15
_space_group_name_Hall           '-I 2yc'
loop_
_symmetry_equiv_pos_site_id
_symmetry_equiv_pos_as_xyz
1 x,y,z
2 1/2+x,1/2+y,1/2+z
3 -x,y,1/2-z
4 1/2-x,1/2+y,-z
5 -x,-y,-z
6 1/2-x,1/2-y,1/2-z
7 x,-y,1/2+z
8 1/2+x,1/2-y,z
_cell_length_a                   15.570(8)
_cell_length_b                   10.390(3)
_cell_length_c                   17.383(4)
_cell_angle_alpha                90
_cell_angle_beta                 99.38(2)
_cell_angle_gamma                90
_cell_volume                     2774.49
_exptl_crystal_colour            colorless
_cell_formula_units_Z            8
loop_
_atom_site_label
_atom_site_type_symbol
_atom_site_fract_x
_atom_site_fract_y
_atom_site_fract_z
C1 C 1.0803(1) 0.0343(2) 0.1570(1)
C2 C 1.1658(1) -0.0047(3) 0.1649(1)
C3 C 1.1844(1) -0.1321(3) 0.1687(1)
C4 C 1.1170(1) -0.2175(3) 0.1638(1)
N1 N 1.0330(1) -0.1818(1) 0.1551(1)
C5 C 1.0150(1) -0.0565(2) 0.1514(1)
C6 C 0.9200(1) -0.0198(2) 0.1397(1)
C7 C 0.8760(1) -0.0337(2) 0.0553(1)
C8 C 0.7776(1) -0.0140(2) 0.0441(1)
C9 C 0.7512(1) 0.1246(2) 0.0531(1)
N2 N 0.6568(1) 0.1389(1) 0.0478(1)
C10 C 0.6172(1) 0.1287(1) 0.1101(1)
N3 N 0.5303(1) 0.1370(1) 0.1002(1)
C11 C 0.4749(1) 0.1695(2) 0.0280(1)
N4 N 0.6669(1) 0.1122(1) 0.1793(1)
C12 C 0.6304(1) 0.1128(2) 0.2420(1)
N5 N 0.6059(1) 0.1121(2) 0.3010(1)
H1 H 1.1279(15) -0.3099(22) 0.1680(12)
H2 H 1.2441(15) -0.1572(24) 0.1734(14)
H3 H 1.2116(16) 0.0658(23) 0.1718(14)
H4 H 1.0641(13) 0.1222(19) 0.1556(11)
H5 H 0.9128(12) 0.0678(19) 0.1565(11)
H6 H 0.8925(13) -0.0783(20) 0.1741(11)
H7 H 0.9031(11) 0.0272(18) 0.0210(10)
H8 H 0.8887(12) -0.1217(17) 0.0381(10)
H9 H 0.7480(12) -0.0496(17) -0.0065(10)
H10 H 0.7571(11) -0.0671(17) 0.0818(10)
H11 H 0.7782(11) 0.1612(16) 0.1052(10)
H12 H 0.7670(12) 0.1741(16) 0.0098(10)
H13 H 0.6242(11) 0.1375(17) -0.0013(10)
H14 H 0.5095(11) 0.1305(16) 0.1429(9)
H15 H 0.4175(14) 0.1678(20) 0.0375(12)
H16 H 0.4841(14) 0.2551(22) 0.0126(12)
H17 H 0.4764(14) 0.1106(20) -0.0148(12)
O1 O 0.8961(1) 0.6393(1) 0.1163(1)
H18 H 0.9425(14) 0.6902(19) 0.1380(11)
H19 H 0.9012(12) 0.5719(20) 0.1447(12)
loop_
_geom_bond_atom_site_label_1
_geom_bond_atom_site_label_2
_geom_bond_site_symmetry_1
_geom_bond_site_symmetry_2
C1 C2 1_555 1_555
C2 C3 1_555 1_555
C3 C4 1_555 1_555
C4 N1 1_555 1_555
N1 C5 1_555 1_555
C5 C1 1_555 1_555
C6 C5 1_555 1_555
C7 C6 1_555 1_555
C8 C7 1_555 1_555
C9 C8 1_555 1_555
N2 C9 1_555 1_555
C10 N2 1_555 1_555
N3 C10 1_555 1_555
C11 N3 1_555 1_555
N4 C10 1_555 1_555
C12 N4 1_555 1_555
N5 C12 1_555 1_555
O1 H18 1_555 1_555
H1 C4 1_555 1_555
H2 C3 1_555 1_555
H3 C2 1_555 1_555
H4 C1 1_555 1_555
H5 C6 1_555 1_555
H6 C6 1_555 1_555
H7 C7 1_555 1_555
H8 C7 1_555 1_555
H9 C8 1_555 1_555
H10 C8 1_555 1_555
H11 C9 1_555 1_555
H12 C9 1_555 1_555
H13 N2 1_555 1_555
H14 N3 1_555 1_555
H15 C11 1_555 1_555
H16 C11 1_555 1_555
H17 C11 1_555 1_555
H19 O1 1_555 1_555

#END
