
#######################################################################
#
#                 Cambridge Crystallographic Data Centre
#                                CCDC 
#
#######################################################################
#
# If this CIF has been generated from an entry in the Cambridge 
# Structural Database, then it will include bibliographic, chemical, 
# crystal, experimental, refinement or atomic coordinate data resulting 
# from the CCDC's data processing and validation procedures.
#
#######################################################################

data_WAPTOW
_chemical_formula_moiety         'C11 H16 N2'
_chemical_name_systematic        
2,7-Diazatetracyclo(6.2.2.1^3,6^.0^2,7^)tridec-11-ene
_symmetry_cell_setting           monoclinic
_symmetry_space_group_name_H-M   'P 21/n'
_symmetry_Int_Tables_number      14
_space_group_name_Hall           '-P 2yn'
loop_
_symmetry_equiv_pos_site_id
_symmetry_equiv_pos_as_xyz
1 x,y,z
2 1/2-x,1/2+y,1/2-z
3 -x,-y,-z
4 1/2+x,1/2-y,1/2+z
_cell_length_a                   8.288(2)
_cell_length_b                   9.886(2)
_cell_length_c                   11.520(2)
_cell_angle_alpha                90
_cell_angle_beta                 103.80(2)
_cell_angle_gamma                90
_cell_volume                     916.647
_cell_formula_units_Z            4
loop_
_atom_site_label
_atom_site_type_symbol
_atom_site_fract_x
_atom_site_fract_y
_atom_site_fract_z
N1 N 0.1451(2) 0.7262(2) 0.7306(1)
C1 C -0.0060(2) 0.7858(2) 0.7600(2)
C2 C -0.1139(2) 0.8628(2) 0.6580(2)
C3 C -0.1590(2) 0.7910(2) 0.5583(2)
C4 C -0.0900(2) 0.6500(2) 0.5724(2)
N2 N 0.0947(2) 0.6482(2) 0.6159(1)
C5 C 0.1917(2) 0.7116(2) 0.5368(2)
C6 C 0.3691(2) 0.6596(2) 0.5832(2)
C7 C 0.4247(2) 0.7339(2) 0.7055(2)
C8 C 0.2724(2) 0.8225(2) 0.7069(2)
C9 C -0.1038(2) 0.6619(2) 0.7861(2)
C10 C -0.1548(2) 0.5787(2) 0.6702(2)
C11 C 0.2143(3) 0.8608(2) 0.5742(2)
H1 H 0.0342 0.8466 0.8369
H2 H -0.1423 0.9655 0.6649
H3 H -0.2240 0.8275 0.4729
H4 H -0.1152 0.6069 0.4914
H5 H 0.1395 0.7012 0.4500
H6 H 0.4428 0.6825 0.5278
H7 H 0.3799 0.5655 0.5952
H8 H 0.4311 0.6722 0.7656
H9 H 0.5234 0.7951 0.7041
H10 H 0.2829 0.8978 0.7689
H11 H -0.0301 0.6050 0.8570
H12 H -0.2027 0.7076 0.8117
H13 H -0.2854 0.5745 0.6436
H14 H -0.1037 0.4897 0.6864
H15 H 0.3140 0.9043 0.5449
H16 H 0.1072 0.9230 0.5570
loop_
_geom_bond_atom_site_label_1
_geom_bond_atom_site_label_2
_geom_bond_site_symmetry_1
_geom_bond_site_symmetry_2
N1 C1 1_555 1_555
C1 C2 1_555 1_555
C2 C3 1_555 1_555
C3 C4 1_555 1_555
C4 N2 1_555 1_555
N2 N1 1_555 1_555
C5 N2 1_555 1_555
C6 C5 1_555 1_555
C7 C6 1_555 1_555
C8 N1 1_555 1_555
C9 C1 1_555 1_555
C10 C4 1_555 1_555
C11 C5 1_555 1_555
H1 C1 1_555 1_555
H2 C2 1_555 1_555
H3 C3 1_555 1_555
H4 C4 1_555 1_555
H5 C5 1_555 1_555
H6 C6 1_555 1_555
H7 C6 1_555 1_555
H8 C7 1_555 1_555
H9 C7 1_555 1_555
H10 C8 1_555 1_555
H11 C9 1_555 1_555
H12 C9 1_555 1_555
H13 C10 1_555 1_555
H14 C10 1_555 1_555
H15 C11 1_555 1_555
H16 C11 1_555 1_555
C7 C8 1_555 1_555
C8 C11 1_555 1_555
C9 C10 1_555 1_555

#END
