
#######################################################################
#
#                 Cambridge Crystallographic Data Centre
#                                CCDC 
#
#######################################################################
#
# If this CIF has been generated from an entry in the Cambridge 
# Structural Database, then it will include bibliographic, chemical, 
# crystal, experimental, refinement or atomic coordinate data resulting 
# from the CCDC's data processing and validation procedures.
#
#######################################################################

data_WAPVIS
_chemical_formula_moiety         'C13 H22 N2'
_chemical_name_systematic        
2,7-Diazatetracyclo(6.3.2.2^3,6^.0^2,7^)pentadecane
_symmetry_cell_setting           monoclinic
_symmetry_space_group_name_H-M   'P 21/n'
_symmetry_Int_Tables_number      14
_space_group_name_Hall           '-P 2yn'
loop_
_symmetry_equiv_pos_site_id
_symmetry_equiv_pos_as_xyz
1 x,y,z
2 1/2-x,1/2+y,1/2-z
3 -x,-y,-z
4 1/2+x,1/2-y,1/2+z
_cell_length_a                   6.343(4)
_cell_length_b                   17.284(10)
_cell_length_c                   10.198(6)
_cell_angle_alpha                90
_cell_angle_beta                 91.75(5)
_cell_angle_gamma                90
_cell_volume                     1117.51
_cell_formula_units_Z            4
loop_
_atom_site_label
_atom_site_type_symbol
_atom_site_fract_x
_atom_site_fract_y
_atom_site_fract_z
N1 N 0.29223(32) 0.16450(12) 0.75296(20)
C1 C 0.44522(40) 0.20777(15) 0.83939(26)
C2 C 0.39801(42) 0.29417(16) 0.82354(27)
C3 C 0.21888(43) 0.32290(17) 0.90759(30)
C4 C 0.02253(41) 0.27146(16) 0.90066(28)
C5 C 0.06043(41) 0.18616(15) 0.93613(25)
N2 N 0.09382(30) 0.14126(12) 0.81686(20)
C6 C 0.07779(40) 0.05596(15) 0.82639(26)
C7 C 0.02900(42) 0.02927(16) 0.68705(27)
C8 C 0.20219(41) 0.06254(17) 0.60009(26)
C9 C 0.37863(41) 0.09579(15) 0.68866(25)
C10 C 0.45486(41) 0.18382(17) 0.98449(27)
C11 C 0.23433(40) 0.17723(18) 1.04314(27)
C12 C 0.27898(40) 0.01437(17) 0.87672(27)
C13 C 0.45669(41) 0.03328(16) 0.78351(26)
H1 H 0.5830 0.1981 0.8061
H2 H 0.5230 0.3233 0.8463
H3 H 0.3620 0.3045 0.7331
H4 H 0.1813 0.3748 0.8822
H5 H 0.2685 0.3245 0.9974
H6 H -0.0347 0.2738 0.8125
H7 H -0.0812 0.2926 0.9574
H8 H -0.0680 0.1673 0.9724
H9 H -0.0375 0.0431 0.8815
H10 H -0.1063 0.0488 0.6579
H11 H 0.0259 -0.0263 0.6824
H12 H 0.2563 0.0219 0.5461
H13 H 0.1453 0.1024 0.5436
H14 H 0.4929 0.1120 0.6352
H15 H 0.5361 0.2213 1.0340
H16 H 0.5248 0.1347 0.9939
H17 H 0.2206 0.1280 1.0860
H18 H 0.2180 0.2172 1.1076
H19 H 0.2562 -0.0406 0.8801
H20 H 0.3155 0.0322 0.9637
H21 H 0.5786 0.0513 0.8328
H22 H 0.4952 -0.0125 0.7363
loop_
_geom_bond_atom_site_label_1
_geom_bond_atom_site_label_2
_geom_bond_site_symmetry_1
_geom_bond_site_symmetry_2
N1 C1 1_555 1_555
C1 C2 1_555 1_555
C2 C3 1_555 1_555
C3 C4 1_555 1_555
C4 C5 1_555 1_555
C5 N2 1_555 1_555
N2 N1 1_555 1_555
C6 N2 1_555 1_555
C7 C6 1_555 1_555
C8 C7 1_555 1_555
C9 N1 1_555 1_555
C10 C1 1_555 1_555
C11 C5 1_555 1_555
C12 C6 1_555 1_555
C13 C9 1_555 1_555
H1 C1 1_555 1_555
H2 C2 1_555 1_555
H3 C2 1_555 1_555
H4 C3 1_555 1_555
H5 C3 1_555 1_555
H6 C4 1_555 1_555
H7 C4 1_555 1_555
H8 C5 1_555 1_555
H9 C6 1_555 1_555
H10 C7 1_555 1_555
H11 C7 1_555 1_555
H12 C8 1_555 1_555
H13 C8 1_555 1_555
H14 C9 1_555 1_555
H15 C10 1_555 1_555
H16 C10 1_555 1_555
H17 C11 1_555 1_555
H18 C11 1_555 1_555
H19 C12 1_555 1_555
H20 C12 1_555 1_555
H21 C13 1_555 1_555
H22 C13 1_555 1_555
C8 C9 1_555 1_555
C10 C11 1_555 1_555
C12 C13 1_555 1_555

#END
