
#######################################################################
#
#                 Cambridge Crystallographic Data Centre
#                                CCDC 
#
#######################################################################
#
# If this CIF has been generated from an entry in the Cambridge 
# Structural Database, then it will include bibliographic, chemical, 
# crystal, experimental, refinement or atomic coordinate data resulting 
# from the CCDC's data processing and validation procedures.
#
#######################################################################

data_WARLEJ
_chemical_formula_moiety         'C15 H12 Cl2 N2 O1'
_chemical_name_systematic        
4-(3,4-dichlorophenyl)-5-phenylimidazolidin-2-one
_symmetry_cell_setting           monoclinic
_symmetry_space_group_name_H-M   'P 21'
_symmetry_Int_Tables_number      4
_space_group_name_Hall           'P 2yb'
loop_
_symmetry_equiv_pos_site_id
_symmetry_equiv_pos_as_xyz
1 x,y,z
2 -x,1/2+y,-z
_cell_length_a                   14.4029(8)
_cell_length_b                   13.5522(7)
_cell_length_c                   14.5568(8)
_cell_angle_alpha                90
_cell_angle_beta                 92.352(5)
_cell_angle_gamma                90
_cell_volume                     2838.96
_exptl_crystal_colour            colorless
_exptl_crystal_description       prism
_cell_formula_units_Z            8
loop_
_atom_site_label
_atom_site_type_symbol
_atom_site_fract_x
_atom_site_fract_y
_atom_site_fract_z
Cl1 Cl 0.35386(19) 0.13776(18) 0.2813(2)
Cl2 Cl 0.56216(17) 0.07170(19) 0.33035(18)
O1 O 0.2609(5) -0.4536(5) 0.0835(4)
N1 N 0.3000(6) -0.3063(6) 0.1547(5)
H1 H 0.286(8) -0.318(10) 0.210(4)
N2 N 0.2782(6) -0.3068(7) 0.0039(6)
H2 H 0.267(9) -0.324(10) -0.051(5)
C1 C 0.2787(6) -0.3643(7) 0.0802(6)
C2 C 0.2956(6) -0.2022(6) 0.1264(6)
H3 H 0.2308 -0.1775 0.1326
C3 C 0.3158(6) -0.2105(7) 0.0224(6)
H4 H 0.2775 -0.1605 -0.0126
C4 C 0.3620(7) -0.1369(7) 0.1832(6)
C5 C 0.3332(7) -0.0429(7) 0.2052(7)
H5 H 0.2718 -0.0221 0.1883
C6 C 0.3940(7) 0.0221(7) 0.2524(7)
C7 C 0.4829(7) -0.0066(7) 0.2750(6)
C8 C 0.5128(7) -0.1033(8) 0.2550(6)
H6 H 0.5742 -0.1238 0.2719
C9 C 0.4516(7) -0.1676(7) 0.2105(7)
H7 H 0.4706 -0.2333 0.1984
C10 C 0.4158(7) -0.1996(8) -0.0021(7)
C11 C 0.4548(8) -0.1054(9) -0.0084(6)
H8 H 0.4177 -0.0493 0.0035
C12 C 0.5467(9) -0.0923(9) -0.0316(7)
H9 H 0.5725 -0.0279 -0.0345
C13 C 0.6001(8) -0.1740(10) -0.0503(7)
H10 H 0.6628 -0.1657 -0.0666
C14 C 0.5639(8) -0.2652(12) -0.0457(8)
H11 H 0.6013 -0.3207 -0.0590
C15 C 0.4719(7) -0.2793(8) -0.0215(7)
H12 H 0.4475 -0.3443 -0.0184
Cl3 Cl -0.3575(2) -0.3528(2) 0.1846(2)
Cl4 Cl -0.2194(2) -0.5337(3) 0.1732(2)
O2 O -0.7538(5) -0.3870(5) 0.3346(4)
N3 N -0.6775(6) -0.5173(6) 0.2684(5)
H13 H -0.703(8) -0.514(10) 0.215(5)
N4 N -0.6606(6) -0.4989(5) 0.4173(6)
H14 H -0.686(8) -0.488(10) 0.468(5)
C16 C -0.7033(6) -0.4614(6) 0.3399(6)
C17 C -0.6112(6) -0.5941(6) 0.2941(6)
H15 H -0.6342 -0.6584 0.2682
C18 C -0.6198(7) -0.5959(7) 0.4026(7)
H16 H -0.6654 -0.6480 0.4192
C19 C -0.5127(7) -0.5771(8) 0.2642(6)
C20 C -0.4828(8) -0.4821(8) 0.2434(7)
H17 H -0.5236 -0.4272 0.2471
C21 C -0.3907(8) -0.4697(9) 0.2169(6)
C22 C -0.3319(8) -0.5474(11) 0.2102(7)
C23 C -0.3612(8) -0.6430(9) 0.2309(7)
H18 H -0.3199 -0.6976 0.2281
C24 C -0.4529(7) -0.6556(8) 0.2559(7)
H19 H -0.4748 -0.7203 0.2675
C25 C -0.5283(7) -0.6138(7) 0.4559(6)
C26 C -0.4693(7) -0.5363(8) 0.4816(7)
H20 H -0.4871 -0.4699 0.4692
C27 C -0.3848(8) -0.5568(9) 0.5253(7)
H21 H -0.3447 -0.5042 0.5439
C28 C -0.3579(8) -0.6531(11) 0.5425(8)
H22 H -0.2988 -0.6661 0.5714
C29 C -0.4163(8) -0.7311(8) 0.5178(8)
H23 H -0.3981 -0.7973 0.5306
C30 C -0.5001(7) -0.7112(8) 0.4749(7)
H24 H -0.5403 -0.7642 0.4575
Cl5 Cl -0.1246(2) -0.47155(18) -0.0486(2)
Cl6 Cl 0.06743(18) -0.3717(2) -0.09140(18)
O3 O -0.2591(5) 0.0984(5) 0.1763(4)
N5 N -0.2248(6) -0.0432(6) 0.0953(5)
H25 H -0.233(8) -0.037(10) 0.038(4)
N6 N -0.2341(5) -0.0534(6) 0.2467(5)
H26 H -0.233(8) -0.051(10) 0.305(4)
C31 C -0.2418(6) 0.0098(7) 0.1729(6)
C32 C -0.2186(6) -0.1471(6) 0.1146(6)
H27 H -0.2815 -0.1771 0.1038
C33 C -0.1944(7) -0.1469(7) 0.2210(6)
H28 H -0.2282 -0.2019 0.2509
C34 C -0.1498(6) -0.2014(7) 0.0545(6)
C35 C -0.1671(6) -0.2972(7) 0.0315(6)
H29 H -0.2237 -0.3274 0.0475
C36 C -0.1013(7) -0.3511(7) -0.0157(6)
C37 C -0.0164(7) -0.3079(8) -0.0370(6)
C38 C -0.0019(7) -0.2078(7) -0.0147(7)
H30 H 0.0530 -0.1754 -0.0325
C39 C -0.0677(7) -0.1564(7) 0.0332(7)
H31 H -0.0562 -0.0900 0.0513
C40 C -0.0901(7) -0.1552(7) 0.2451(6)
C41 C -0.0493(8) -0.2489(8) 0.2497(7)
H32 H -0.0870 -0.3058 0.2400
C42 C 0.0465(8) -0.2601(9) 0.2685(7)
H33 H 0.0734 -0.3241 0.2701
C43 C 0.1003(8) -0.1803(10) 0.2844(8)
H34 H 0.1650 -0.1882 0.2977
C44 C 0.0612(7) -0.0851(9) 0.2814(7)
H35 H 0.0991 -0.0286 0.2924
C45 C -0.0337(7) -0.0749(8) 0.2622(7)
H36 H -0.0603 -0.0107 0.2609
Cl7 Cl 0.1722(2) 0.0244(2) 0.5615(3)
Cl8 Cl 0.30467(18) 0.2102(3) 0.5777(2)
O4 O -0.2336(5) 0.0493(5) 0.4221(4)
N7 N -0.1621(6) 0.1818(6) 0.4943(6)
H37 H -0.174(8) 0.169(10) 0.549(4)
N8 N -0.1542(6) 0.1678(6) 0.3438(6)
H38 H -0.180(8) 0.156(10) 0.292(5)
C46 C -0.1885(6) 0.1275(7) 0.4200(6)
C47 C -0.1001(7) 0.2620(7) 0.4723(7)
H39 H -0.1235 0.3247 0.4992
C48 C -0.1150(7) 0.2657(7) 0.3632(7)
H40 H -0.1633 0.3165 0.3470
C49 C -0.0020(7) 0.2476(7) 0.5022(7)
C50 C 0.0364(7) 0.1537(7) 0.5181(7)
H41 H -0.0027 0.0973 0.5133
C51 C 0.1297(7) 0.1416(7) 0.5405(7)
C52 C 0.1884(8) 0.2237(8) 0.5494(7)
C53 C 0.1517(8) 0.3170(8) 0.5332(7)
H42 H 0.1913 0.3730 0.5366
C54 C 0.0582(7) 0.3290(7) 0.5122(6)
H43 H 0.0338 0.3937 0.5043
C55 C -0.0293(7) 0.2882(8) 0.3117(6)
C56 C 0.0333(7) 0.2133(9) 0.2915(7)
H44 H 0.0201 0.1471 0.3081
C57 C 0.1151(8) 0.2349(11) 0.2471(8)
H45 H 0.1570 0.1835 0.2327
C58 C 0.1344(8) 0.3303(12) 0.2244(9)
H46 H 0.1909 0.3447 0.1959
C59 C 0.0734(9) 0.4069(11) 0.2420(9)
H47 H 0.0871 0.4726 0.2244
C60 C -0.0078(8) 0.3852(9) 0.2858(8)
H48 H -0.0498 0.4370 0.2986
loop_
_geom_bond_atom_site_label_1
_geom_bond_atom_site_label_2
_geom_bond_site_symmetry_1
_geom_bond_site_symmetry_2
Cl1 C6 1_555 1_555
Cl2 C7 1_555 1_555
O1 C1 1_555 1_555
N1 H1 1_555 1_555
N2 H2 1_555 1_555
C1 N1 1_555 1_555
C2 N1 1_555 1_555
H3 C2 1_555 1_555
C3 N2 1_555 1_555
H4 C3 1_555 1_555
C4 C2 1_555 1_555
C5 C4 1_555 1_555
H5 C5 1_555 1_555
C6 C5 1_555 1_555
C7 C6 1_555 1_555
C8 C7 1_555 1_555
H6 C8 1_555 1_555
C9 C4 1_555 1_555
H7 C9 1_555 1_555
C10 C3 1_555 1_555
C11 C10 1_555 1_555
H8 C11 1_555 1_555
C12 C11 1_555 1_555
H9 C12 1_555 1_555
C13 C12 1_555 1_555
H10 C13 1_555 1_555
C14 C13 1_555 1_555
H11 C14 1_555 1_555
C15 C10 1_555 1_555
H12 C15 1_555 1_555
Cl3 C21 1_555 1_555
Cl4 C22 1_555 1_555
O2 C16 1_555 1_555
N3 H13 1_555 1_555
N4 H14 1_555 1_555
C16 N3 1_555 1_555
C17 N3 1_555 1_555
H15 C17 1_555 1_555
C18 N4 1_555 1_555
H16 C18 1_555 1_555
C19 C17 1_555 1_555
C20 C19 1_555 1_555
H17 C20 1_555 1_555
C21 C20 1_555 1_555
C22 C21 1_555 1_555
C23 C22 1_555 1_555
H18 C23 1_555 1_555
C24 C19 1_555 1_555
H19 C24 1_555 1_555
C25 C18 1_555 1_555
C26 C25 1_555 1_555
H20 C26 1_555 1_555
C27 C26 1_555 1_555
H21 C27 1_555 1_555
C28 C27 1_555 1_555
H22 C28 1_555 1_555
C29 C28 1_555 1_555
H23 C29 1_555 1_555
C30 C25 1_555 1_555
H24 C30 1_555 1_555
Cl5 C36 1_555 1_555
Cl6 C37 1_555 1_555
O3 C31 1_555 1_555
N5 H25 1_555 1_555
N6 H26 1_555 1_555
C31 N5 1_555 1_555
C32 N5 1_555 1_555
H27 C32 1_555 1_555
C33 N6 1_555 1_555
H28 C33 1_555 1_555
C34 C32 1_555 1_555
C35 C34 1_555 1_555
H29 C35 1_555 1_555
C36 C35 1_555 1_555
C37 C36 1_555 1_555
C38 C37 1_555 1_555
H30 C38 1_555 1_555
C39 C34 1_555 1_555
H31 C39 1_555 1_555
C40 C33 1_555 1_555
C41 C40 1_555 1_555
H32 C41 1_555 1_555
C42 C41 1_555 1_555
H33 C42 1_555 1_555
C43 C42 1_555 1_555
H34 C43 1_555 1_555
C44 C43 1_555 1_555
H35 C44 1_555 1_555
C45 C40 1_555 1_555
H36 C45 1_555 1_555
Cl7 C51 1_555 1_555
Cl8 C52 1_555 1_555
O4 C46 1_555 1_555
N7 H37 1_555 1_555
N8 H38 1_555 1_555
C46 N7 1_555 1_555
C47 N7 1_555 1_555
H39 C47 1_555 1_555
C48 N8 1_555 1_555
H40 C48 1_555 1_555
C49 C47 1_555 1_555
C50 C49 1_555 1_555
H41 C50 1_555 1_555
C51 C50 1_555 1_555
C52 C51 1_555 1_555
C53 C52 1_555 1_555
H42 C53 1_555 1_555
C54 C49 1_555 1_555
H43 C54 1_555 1_555
C55 C48 1_555 1_555
C56 C55 1_555 1_555
H44 C56 1_555 1_555
C57 C56 1_555 1_555
H45 C57 1_555 1_555
C58 C57 1_555 1_555
H46 C58 1_555 1_555
C59 C58 1_555 1_555
H47 C59 1_555 1_555
C60 C55 1_555 1_555
H48 C60 1_555 1_555
N2 C1 1_555 1_555
C2 C3 1_555 1_555
C8 C9 1_555 1_555
C14 C15 1_555 1_555
N4 C16 1_555 1_555
C17 C18 1_555 1_555
C23 C24 1_555 1_555
C29 C30 1_555 1_555
N6 C31 1_555 1_555
C32 C33 1_555 1_555
C38 C39 1_555 1_555
C44 C45 1_555 1_555
N8 C46 1_555 1_555
C47 C48 1_555 1_555
C53 C54 1_555 1_555
C59 C60 1_555 1_555

#END
