
#######################################################################
#
#                 Cambridge Crystallographic Data Centre
#                                CCDC 
#
#######################################################################
#
# If this CIF has been generated from an entry in the Cambridge 
# Structural Database, then it will include bibliographic, chemical, 
# crystal, experimental, refinement or atomic coordinate data resulting 
# from the CCDC's data processing and validation procedures.
#
#######################################################################

data_WARWUH
_chemical_formula_moiety         'C5 H9 N3 O4'
_chemical_name_systematic        N-Carboxymethyl-N'-carbamoylurea
_symmetry_cell_setting           monoclinic
_symmetry_space_group_name_H-M   'C 2/c'
_symmetry_Int_Tables_number      15
_space_group_name_Hall           '-C 2yn'
loop_
_symmetry_equiv_pos_site_id
_symmetry_equiv_pos_as_xyz
1 x,y,z
2 1/2+x,1/2+y,z
3 -x,y,1/2-z
4 1/2-x,1/2+y,1/2-z
5 -x,-y,-z
6 1/2-x,1/2-y,-z
7 x,-y,1/2+z
8 1/2+x,1/2-y,1/2+z
_cell_length_a                   9.031(4)
_cell_length_b                   4.612(2)
_cell_length_c                   18.240(7)
_cell_angle_alpha                90
_cell_angle_beta                 90.38(3)
_cell_angle_gamma                90
_cell_volume                     759.697
_exptl_crystal_colour            colorless
_chemical_melting_point          209-214deg.C
_cell_formula_units_Z            4
loop_
_atom_site_label
_atom_site_type_symbol
_atom_site_fract_x
_atom_site_fract_y
_atom_site_fract_z
C1 C 1.0000 0.2830(6) 0.2500
N1 N 1.0901(2) 0.4363(4) 0.2939(1)
O1 O 1.0000 0.0148(4) 0.2500
C2 C 1.0965(3) 0.1659(5) 0.4098(1)
O2 O 0.9716(2) 0.2392(4) 0.4245(1)
C3 C 1.1816(2) 0.2936(6) 0.3468(1)
O3 O 1.1678(3) -0.0301(6) 0.4482(1)
H1 H 1.0962 0.6424 0.2889
H2 H 1.2334 0.1424 0.3228
H3 H 1.2504 0.4309 0.3658
N2 N 1.1678 -0.0301 0.4482
H4 H 1.2669 -0.0584 0.4340
H5 H 1.1163 -0.0723 0.4976
N1B N 0.9099(2) 0.4363(4) 0.2061(1)
C3B C 0.8184(2) 0.2936(6) 0.1532(1)
C2B C 0.9035(3) 0.1659(5) 0.0902(1)
O2B O 1.0284(2) 0.2392(4) 0.0755(1)
O3B O 0.8322(3) -0.0301(6) 0.0518(1)
H4B H 0.7331 -0.0584 0.0660
H5B H 0.8837 -0.0723 0.0024
H2B H 0.7666 0.1424 0.1772
H3B H 0.7496 0.4309 0.1342
H1B H 0.9038 0.6424 0.2111
loop_
_geom_bond_atom_site_label_1
_geom_bond_atom_site_label_2
_geom_bond_site_symmetry_1
_geom_bond_site_symmetry_2
C1 N1 1_555 1_555
N1 C3 1_555 1_555
O1 C1 1_555 1_555
C2 O2 1_555 1_555
C3 C2 1_555 1_555
O3 C2 1_555 1_555
H1 N1 1_555 1_555
H2 C3 1_555 1_555
H3 C3 1_555 1_555
N2 C2 1_555 1_555
H4 O3 1_555 1_555
H5 O3 1_555 1_555
N1B C1 1_555 1_555
C3B N1B 1_555 1_555
C2B C3B 1_555 1_555
O2B C2B 1_555 1_555
O3B C2B 1_555 1_555
H4B O3B 1_555 1_555
H5B O3B 1_555 1_555
H2B C3B 1_555 1_555
H3B C3B 1_555 1_555
H1B N1B 1_555 1_555
N2 H4 1_555 1_555
N2 H5 1_555 1_555

#END
