
#######################################################################
#
#                 Cambridge Crystallographic Data Centre
#                                CCDC 
#
#######################################################################
#
# If this CIF has been generated from an entry in the Cambridge 
# Structural Database, then it will include bibliographic, chemical, 
# crystal, experimental, refinement or atomic coordinate data resulting 
# from the CCDC's data processing and validation procedures.
#
#######################################################################

data_WASWIW
_chemical_formula_moiety         'C17 H22 O7'
_chemical_name_systematic        
6-Acetoxy-7-methylene-1-methoxycarbonylbicyclo(4.4.0)deca-8-one-3-spiro-2'-1',3'-dioxolane
_symmetry_cell_setting           monoclinic
_symmetry_space_group_name_H-M   'P 21/c'
_symmetry_Int_Tables_number      14
_space_group_name_Hall           '-P 2ybc'
loop_
_symmetry_equiv_pos_site_id
_symmetry_equiv_pos_as_xyz
1 x,y,z
2 -x,1/2+y,1/2-z
3 -x,-y,-z
4 x,1/2-y,1/2+z
_cell_length_a                   9.6150(6)
_cell_length_b                   15.176(2)
_cell_length_c                   12.146(1)
_cell_angle_alpha                90
_cell_angle_beta                 100.730(8)
_cell_angle_gamma                90
_cell_volume                     1741.32
_cell_formula_units_Z            4
loop_
_atom_site_label
_atom_site_type_symbol
_atom_site_fract_x
_atom_site_fract_y
_atom_site_fract_z
O1 O 0.6677(2) 0.8909(1) 0.3865(2)
O2 O -0.0914(2) 0.8616(1) 0.0309(2)
O3 O 0.0752(2) 0.7589(1) 0.0149(2)
O4 O 0.3898(2) 0.7109(1) 0.1466(2)
O5 O 0.2113(2) 0.6709(1) 0.2293(2)
O6 O 0.2997(2) 0.9752(1) 0.2251(1)
O7 O 0.4180(2) 1.0718(1) 0.1343(2)
C1 C 0.2983(3) 0.8960(2) 0.0471(2)
C2 C 0.1395(3) 0.9106(2) 0.0115(2)
C3 C 0.0555(3) 0.8430(2) 0.0619(2)
C4 C 0.1002(3) 0.8403(2) 0.1892(2)
C5 C 0.2998(3) 0.8280(2) 0.3562(2)
C6 C 0.4577(3) 0.8123(2) 0.3969(2)
C7 C 0.5519(3) 0.8664(2) 0.3384(2)
C8 C 0.5031(3) 0.8849(2) 0.2160(2)
C9 C -0.1620(3) 0.7794(2) 0.0167(3)
C10 C -0.0554(3) 0.7149(2) -0.0063(4)
C11 C 0.2589(2) 0.8233(2) 0.2271(2)
C12 C 0.5987(3) 0.8918(2) 0.1527(3)
C13 C 0.3451(3) 0.8938(1) 0.1746(2)
C14 C 0.2961(3) 0.7301(2) 0.1933(2)
C15 C 0.2340(4) 0.5805(2) 0.2001(3)
C16 C 0.3435(3) 1.0562(2) 0.2008(2)
C17 C 0.2847(3) 1.1230(2) 0.2704(3)
H1 H 0.349 0.942 0.016
H2 H 0.323 0.841 0.016
H3 H 0.113 0.908 -0.069
H4 H 0.116 0.968 0.035
H5 H 0.048 0.794 0.218
H6 H 0.075 0.895 0.220
H7 H 0.272 0.884 0.381
H8 H 0.246 0.783 0.388
H9 H 0.478 0.752 0.387
H10 H 0.482 0.826 0.475
H11 H -0.242 0.782 -0.047
H12 H -0.201 0.763 0.081
H13 H -0.053 0.665 0.043
H14 H -0.077 0.694 -0.082
H15 H 0.572 0.904 0.072
H16 H 0.698 0.885 0.182
H17 H 0.240 0.577 0.120
H18 H 0.156 0.544 0.210
H19 H 0.319 0.558 0.241
H20 H 0.335 1.177 0.270
H21 H 0.297 1.102 0.347
H22 H 0.187 1.132 0.243
loop_
_geom_bond_atom_site_label_1
_geom_bond_atom_site_label_2
_geom_bond_site_symmetry_1
_geom_bond_site_symmetry_2
O1 C7 1_555 1_555
O2 C3 1_555 1_555
O3 C3 1_555 1_555
O4 C14 1_555 1_555
O5 C14 1_555 1_555
O6 C13 1_555 1_555
O7 C16 1_555 1_555
C1 C2 1_555 1_555
C2 C3 1_555 1_555
C3 C4 1_555 1_555
C4 C11 1_555 1_555
C5 C6 1_555 1_555
C6 C7 1_555 1_555
C7 C8 1_555 1_555
C8 C12 1_555 1_555
C9 O2 1_555 1_555
C10 O3 1_555 1_555
C11 C5 1_555 1_555
C12 H15 1_555 1_555
C13 C1 1_555 1_555
C14 C11 1_555 1_555
C15 O5 1_555 1_555
C16 O6 1_555 1_555
C17 C16 1_555 1_555
H1 C1 1_555 1_555
H2 C1 1_555 1_555
H3 C2 1_555 1_555
H4 C2 1_555 1_555
H5 C4 1_555 1_555
H6 C4 1_555 1_555
H7 C5 1_555 1_555
H8 C5 1_555 1_555
H9 C6 1_555 1_555
H10 C6 1_555 1_555
H11 C9 1_555 1_555
H12 C9 1_555 1_555
H13 C10 1_555 1_555
H14 C10 1_555 1_555
H16 C12 1_555 1_555
H17 C15 1_555 1_555
H18 C15 1_555 1_555
H19 C15 1_555 1_555
H20 C17 1_555 1_555
H21 C17 1_555 1_555
H22 C17 1_555 1_555
C8 C13 1_555 1_555
C9 C10 1_555 1_555
C11 C13 1_555 1_555

#END
