
#######################################################################
#
#                 Cambridge Crystallographic Data Centre
#                                CCDC 
#
#######################################################################
#
# If this CIF has been generated from an entry in the Cambridge 
# Structural Database, then it will include bibliographic, chemical, 
# crystal, experimental, refinement or atomic coordinate data resulting 
# from the CCDC's data processing and validation procedures.
#
#######################################################################

data_WAVHEI
_chemical_formula_moiety         'C28 H34 Cl1 N3 O2 S1'
_chemical_name_systematic        
N-(3-(3-Chlorophenyl)-5-cyclohexyl-1,5-diazaspiro[5.5]undec-3-en-2-ylidene)-4-methylbenzenesulfonamide
_symmetry_cell_setting           monoclinic
_symmetry_space_group_name_H-M   'P 21/c'
_symmetry_Int_Tables_number      14
_space_group_name_Hall           '-P 2ybc'
loop_
_symmetry_equiv_pos_site_id
_symmetry_equiv_pos_as_xyz
1 x,y,z
2 -x,1/2+y,1/2-z
3 -x,-y,-z
4 x,1/2-y,1/2+z
_cell_length_a                   11.426(2)
_cell_length_b                   19.715(4)
_cell_length_c                   12.377(3)
_cell_angle_alpha                90
_cell_angle_beta                 112.44(3)
_cell_angle_gamma                90
_cell_volume                     2576.97
_cell_formula_units_Z            4
loop_
_atom_site_label
_atom_site_type_symbol
_atom_site_fract_x
_atom_site_fract_y
_atom_site_fract_z
C1 C 0.7320(3) 0.03896(18) 0.7938(3)
C2 C 0.6615(3) -0.05618(19) 0.6602(3)
H1 H 0.6419 -0.1031 0.6481
C3 C 0.6741(3) -0.02026(19) 0.5700(3)
C4 C 0.6737(3) 0.05251(19) 0.5791(3)
C5 C 0.8779(3) 0.03240(19) 0.8451(3)
H2 H 0.9040 0.0020 0.9139
H3 H 0.9053 0.0114 0.7860
C6 C 0.9441(3) 0.10122(19) 0.8817(3)
H4 H 1.0368 0.0942 0.9190
H5 H 0.9267 0.1298 0.8116
C7 C 0.8978(4) 0.1378(2) 0.9675(3)
H6 H 0.9222 0.1112 1.0408
H7 H 0.9387 0.1829 0.9870
C8 C 0.7538(3) 0.14643(19) 0.9142(3)
H8 H 0.7254 0.1687 0.9717
H9 H 0.7301 0.1760 0.8445
C9 C 0.6874(3) 0.07789(18) 0.8792(3)
H10 H 0.5948 0.0852 0.8421
H11 H 0.7045 0.0501 0.9503
C10 C 0.6569(3) -0.07253(19) 0.8561(3)
H12 H 0.7060 -0.0506 0.9331
C11 C 0.5187(3) -0.07259(19) 0.8423(3)
H13 H 0.4662 -0.0935 0.7665
H14 H 0.4895 -0.0253 0.8423
C12 C 0.5024(3) -0.1123(2) 0.9423(3)
H15 H 0.5436 -0.0870 1.0163
H16 H 0.4110 -0.1159 0.9271
C13 C 0.5588(3) -0.18290(19) 0.9557(3)
H17 H 0.5085 -0.2107 0.8871
H18 H 0.5542 -0.2046 1.0261
C14 C 0.6970(3) -0.18109(18) 0.9668(3)
H19 H 0.7292 -0.2280 0.9708
H20 H 0.7493 -0.1575 1.0400
C15 C 0.7085(3) -0.14423(18) 0.8621(3)
H21 H 0.7983 -0.1426 0.8710
H22 H 0.6599 -0.1689 0.7890
C16 C 0.6747(3) -0.05569(19) 0.4633(3)
C17 C 0.6159(3) -0.11808(18) 0.4264(3)
H23 H 0.5711 -0.1384 0.4687
C18 C 0.6212(3) -0.15159(19) 0.3286(3)
H24 H 0.5799 -0.1940 0.3050
C19 C 0.6869(4) -0.1226(2) 0.2659(3)
H25 H 0.6920 -0.1449 0.1998
C20 C 0.7441(3) -0.0611(2) 0.3019(3)
C21 C 0.7409(3) -0.0267(2) 0.3991(3)
H26 H 0.7827 0.0156 0.4218
C22 C 0.7916(3) 0.17613(18) 0.4337(3)
C23 C 0.7692(3) 0.18954(18) 0.3174(3)
H27 H 0.6853 0.1971 0.2629
C24 C 0.8697(3) 0.19186(19) 0.2814(3)
H28 H 0.8539 0.2016 0.2018
C25 C 0.9933(3) 0.1803(2) 0.3585(3)
C26 C 1.0145(3) 0.1676(2) 0.4755(3)
H29 H 1.0986 0.1604 0.5300
C27 C 0.9154(3) 0.16550(19) 0.5135(3)
H30 H 0.9314 0.1569 0.5934
C28 C 1.1005(3) 0.1817(2) 0.3155(3)
H31 H 1.1800 0.1919 0.3810
H32 H 1.0839 0.2168 0.2553
H33 H 1.1071 0.1375 0.2823
Cl1 Cl 0.82623(11) -0.02212(6) 0.22383(9)
N1 N 0.6887(3) 0.07820(17) 0.6851(3)
N2 N 0.6751(3) -0.02952(15) 0.7643(2)
N3 N 0.6445(3) 0.09029(15) 0.4823(2)
O1 O 0.7009(2) 0.20256(12) 0.59464(19)
O2 O 0.5522(2) 0.19804(12) 0.38760(19)
S1 S 0.66349(9) 0.17002(5) 0.47999(8)
H34 H 0.678(4) 0.1230(6) 0.685(3)
loop_
_geom_bond_atom_site_label_1
_geom_bond_atom_site_label_2
_geom_bond_site_symmetry_1
_geom_bond_site_symmetry_2
C1 C5 1_555 1_555
C2 H1 1_555 1_555
C3 C2 1_555 1_555
C4 C3 1_555 1_555
C5 H2 1_555 1_555
H3 C5 1_555 1_555
C6 C5 1_555 1_555
H4 C6 1_555 1_555
H5 C6 1_555 1_555
C7 C6 1_555 1_555
H6 C7 1_555 1_555
H7 C7 1_555 1_555
C8 C7 1_555 1_555
H8 C8 1_555 1_555
H9 C8 1_555 1_555
C9 C1 1_555 1_555
H10 C9 1_555 1_555
H11 C9 1_555 1_555
C10 H12 1_555 1_555
C11 C10 1_555 1_555
H13 C11 1_555 1_555
H14 C11 1_555 1_555
C12 C11 1_555 1_555
H15 C12 1_555 1_555
H16 C12 1_555 1_555
C13 C12 1_555 1_555
H17 C13 1_555 1_555
H18 C13 1_555 1_555
C14 C13 1_555 1_555
H19 C14 1_555 1_555
H20 C14 1_555 1_555
C15 C10 1_555 1_555
H21 C15 1_555 1_555
H22 C15 1_555 1_555
C16 C3 1_555 1_555
C17 C16 1_555 1_555
H23 C17 1_555 1_555
C18 C17 1_555 1_555
H24 C18 1_555 1_555
C19 C18 1_555 1_555
H25 C19 1_555 1_555
C20 C19 1_555 1_555
C21 C16 1_555 1_555
H26 C21 1_555 1_555
C22 C23 1_555 1_555
C23 H27 1_555 1_555
C24 C23 1_555 1_555
H28 C24 1_555 1_555
C25 C24 1_555 1_555
C26 C25 1_555 1_555
H29 C26 1_555 1_555
C27 C22 1_555 1_555
H30 C27 1_555 1_555
C28 C25 1_555 1_555
H31 C28 1_555 1_555
H32 C28 1_555 1_555
H33 C28 1_555 1_555
Cl1 C20 1_555 1_555
N1 C1 1_555 1_555
N2 C1 1_555 1_555
N3 C4 1_555 1_555
O1 S1 1_555 1_555
O2 S1 1_555 1_555
S1 C22 1_555 1_555
H34 N1 1_555 1_555
C2 N2 1_555 1_555
C4 N1 1_555 1_555
C8 C9 1_555 1_555
C10 N2 1_555 1_555
C14 C15 1_555 1_555
C20 C21 1_555 1_555
C26 C27 1_555 1_555
N3 S1 1_555 1_555

#END
