
#######################################################################
#
#                 Cambridge Crystallographic Data Centre
#                                CCDC 
#
#######################################################################
#
# If this CIF has been generated from an entry in the Cambridge 
# Structural Database, then it will include bibliographic, chemical, 
# crystal, experimental, refinement or atomic coordinate data resulting 
# from the CCDC's data processing and validation procedures.
#
#######################################################################

data_WAVNUE
_chemical_formula_moiety         'C21 H23 N1 O3 S1'
_chemical_name_systematic        
2-Benzyl-1-((4-methylphenyl)sulfonyl)-6-vinylpiperidin-4-one
_symmetry_cell_setting           orthorhombic
_symmetry_space_group_name_H-M   'P 21 21 21'
_symmetry_Int_Tables_number      19
_space_group_name_Hall           'P 2ac 2ab'
loop_
_symmetry_equiv_pos_site_id
_symmetry_equiv_pos_as_xyz
1 x,y,z
2 1/2-x,-y,1/2+z
3 -x,1/2+y,1/2-z
4 1/2+x,1/2-y,-z
_cell_length_a                   6.3294(5)
_cell_length_b                   14.2360(12)
_cell_length_c                   20.5165(15)
_cell_angle_alpha                90
_cell_angle_beta                 90
_cell_angle_gamma                90
_cell_volume                     1848.65
_exptl_crystal_colour            colorless
_exptl_crystal_description       block
_cell_formula_units_Z            4
loop_
_atom_site_label
_atom_site_type_symbol
_atom_site_fract_x
_atom_site_fract_y
_atom_site_fract_z
S1 S 0.78105(3) 0.649955(18) 0.186060(12)
O1 O 0.70083(13) 0.57312(6) 0.14798(4)
O2 O 0.63181(12) 0.71255(7) 0.21647(4)
O3 O 1.35711(14) 0.51765(7) 0.37083(4)
N1 N 0.93802(13) 0.60684(6) 0.24096(4)
C1 C 0.94404(14) 0.72018(7) 0.13651(5)
C2 C 0.86213(15) 0.80242(8) 0.10987(5)
H1 H 0.7211 0.8211 0.1190
C3 C 1.15037(15) 0.69184(8) 0.12263(5)
H2 H 1.2049 0.6353 0.1406
C4 C 0.98979(16) 0.85682(9) 0.06965(5)
H3 H 0.9345 0.9128 0.0511
C5 C 1.27491(17) 0.74721(9) 0.08232(5)
H4 H 1.4150 0.7279 0.0725
C6 C 1.19728(17) 0.83073(8) 0.05606(5)
C7 C 1.3384(2) 0.89390(10) 0.01621(6)
H5 H 1.2581 0.9490 0.0018
H6 H 1.3902 0.8595 -0.0220
H7 H 1.4585 0.9142 0.0428
C8 C 0.99230(14) 0.50568(7) 0.24021(5)
H8 H 0.9836 0.4837 0.1940
C9 C 0.83976(16) 0.44775(8) 0.27948(6)
H9 H 0.8282 0.4590 0.3250
C10 C 0.72127(18) 0.38170(8) 0.25286(7)
H10 H 0.7308 0.3695 0.2074
H11 H 0.6265 0.3464 0.2791
C11 C 1.22276(16) 0.49233(8) 0.26302(5)
H12 H 1.2463 0.4252 0.2733
H13 H 1.3192 0.5095 0.2270
C12 C 1.27636(15) 0.55075(8) 0.32218(5)
C13 C 1.22632(14) 0.65353(7) 0.31478(5)
H14 H 1.3183 0.6810 0.2807
H15 H 1.2563 0.6863 0.3563
C14 C 0.99334(13) 0.66881(7) 0.29607(5)
H16 H 0.9797 0.7350 0.2804
C15 C 0.84601(14) 0.65814(8) 0.35605(5)
H17 H 0.7029 0.6398 0.3413
H18 H 0.9006 0.6078 0.3848
C16 C 0.83321(15) 0.74917(8) 0.39376(5)
C17 C 0.69579(16) 0.81988(8) 0.37261(6)
H19 H 0.6101 0.8094 0.3353
C18 C 0.95796(17) 0.76632(9) 0.44870(6)
H20 H 1.0515 0.7190 0.4640
C19 C 0.68254(17) 0.90513(9) 0.40519(6)
H21 H 0.5875 0.9522 0.3904
C20 C 0.94641(18) 0.85205(10) 0.48118(6)
H22 H 1.0329 0.8632 0.5182
C21 C 0.80838(17) 0.92160(9) 0.45947(6)
H23 H 0.8004 0.9800 0.4817
loop_
_geom_bond_atom_site_label_1
_geom_bond_atom_site_label_2
_geom_bond_site_symmetry_1
_geom_bond_site_symmetry_2
S1 O1 1_555 1_555
O2 S1 1_555 1_555
O3 C12 1_555 1_555
N1 S1 1_555 1_555
C1 S1 1_555 1_555
C2 C1 1_555 1_555
H1 C2 1_555 1_555
C3 C1 1_555 1_555
H2 C3 1_555 1_555
C4 C2 1_555 1_555
H3 C4 1_555 1_555
C5 C3 1_555 1_555
H4 C5 1_555 1_555
C6 C4 1_555 1_555
C7 C6 1_555 1_555
H5 C7 1_555 1_555
H6 C7 1_555 1_555
H7 C7 1_555 1_555
C8 N1 1_555 1_555
H8 C8 1_555 1_555
C9 C8 1_555 1_555
H9 C9 1_555 1_555
C10 C9 1_555 1_555
H10 C10 1_555 1_555
H11 C10 1_555 1_555
C11 C8 1_555 1_555
H12 C11 1_555 1_555
H13 C11 1_555 1_555
C12 C11 1_555 1_555
C13 C12 1_555 1_555
H14 C13 1_555 1_555
H15 C13 1_555 1_555
C14 N1 1_555 1_555
H16 C14 1_555 1_555
C15 C14 1_555 1_555
H17 C15 1_555 1_555
H18 C15 1_555 1_555
C16 C15 1_555 1_555
C17 C16 1_555 1_555
H19 C17 1_555 1_555
C18 C16 1_555 1_555
H20 C18 1_555 1_555
C19 C17 1_555 1_555
H21 C19 1_555 1_555
C20 C18 1_555 1_555
H22 C20 1_555 1_555
C21 C19 1_555 1_555
H23 C21 1_555 1_555
C5 C6 1_555 1_555
C13 C14 1_555 1_555
C20 C21 1_555 1_555

#END
