
#######################################################################
#
#                 Cambridge Crystallographic Data Centre
#                                CCDC 
#
#######################################################################
#
# If this CIF has been generated from an entry in the Cambridge 
# Structural Database, then it will include bibliographic, chemical, 
# crystal, experimental, refinement or atomic coordinate data resulting 
# from the CCDC's data processing and validation procedures.
#
#######################################################################

data_WAVRAP
_chemical_formula_moiety         'C18 H14 I1 N1 O5 S1'
_chemical_name_systematic        
'(1S,7bR)-ethyl 1-benzoyl-1-iodoazireno[1,2-b][1,2]benzothiazole-7b(1H)-carboxylate 3,3-dioxide'
_symmetry_cell_setting           orthorhombic
_symmetry_space_group_name_H-M   'P 21 21 21'
_symmetry_Int_Tables_number      19
_space_group_name_Hall           'P 2ac 2ab'
loop_
_symmetry_equiv_pos_site_id
_symmetry_equiv_pos_as_xyz
1 x,y,z
2 1/2-x,-y,1/2+z
3 1/2+x,1/2-y,-z
4 -x,1/2+y,1/2-z
_cell_length_a                   7.25540(10)
_cell_length_b                   15.7659(3)
_cell_length_c                   16.4944(3)
_cell_angle_alpha                90
_cell_angle_beta                 90
_cell_angle_gamma                90
_cell_volume                     1886.76
_exptl_crystal_colour            'light yellow'
_exptl_crystal_description       block
_cell_formula_units_Z            4
_exptl_crystal_recrystallization_method dichloromethane
loop_
_atom_site_label
_atom_site_type_symbol
_atom_site_fract_x
_atom_site_fract_y
_atom_site_fract_z
I1 I -0.28339(12) 0.04143(6) 0.65691(5)
S1 S 0.1803(4) 0.09379(17) 0.72118(19)
N1 N 0.1566(13) 0.0411(7) 0.6316(5)
O1 O 0.0696(17) 0.1679(6) 0.7199(8)
O2 O 0.3720(14) 0.1037(7) 0.7333(7)
C1 C 0.1045(16) -0.0497(8) 0.6503(8)
O3 O 0.230(2) -0.1853(8) 0.6381(8)
C2 C 0.0707(19) -0.0602(7) 0.7405(8)
O4 O -0.101(3) -0.0714(7) 0.4903(8)
C3 C 0.0999(16) 0.0138(8) 0.7842(7)
C4 C -0.024(2) 0.0075(7) 0.6053(8)
O5 O 0.297(3) -0.0960(9) 0.5422(8)
C5 C 0.007(2) 0.1256(12) 0.3266(8)
H1 H 0.0121 0.1160 0.2710
C6 C 0.074(2) 0.0196(11) 0.8669(8)
H2 H 0.0975 0.0696 0.8950
C7 C 0.221(3) -0.1139(9) 0.6031(9)
C8 C -0.0209(19) 0.0721(9) 0.4628(8)
C9 C 0.025(3) 0.2073(12) 0.3554(11)
H3 H 0.0359 0.2528 0.3198
C10 C 0.028(4) 0.2198(11) 0.4376(10)
H4 H 0.0471 0.2743 0.4576
C11 C -0.019(2) 0.0580(9) 0.3781(9)
H5 H -0.0350 0.0036 0.3574
C12 C 0.003(3) 0.1541(9) 0.4915(8)
H6 H 0.0031 0.1646 0.5469
C13 C 0.014(2) -0.1328(9) 0.7811(9)
H7 H -0.0026 -0.1835 0.7533
C14 C -0.051(3) -0.0029(9) 0.5147(8)
C15 C 0.010(2) -0.0545(12) 0.9069(10)
H8 H -0.0145 -0.0531 0.9622
C16 C -0.016(3) -0.1278(11) 0.8643(9)
H9 H -0.0553 -0.1760 0.8918
C17 C 0.331(4) -0.2553(16) 0.6010(17)
H10 H 0.3005 -0.2594 0.5439
H11 H 0.2979 -0.3083 0.6269
C18 C 0.549(5) -0.239(2) 0.6114(19)
H12 H 0.6071 -0.2385 0.5590
H13 H 0.6022 -0.2826 0.6442
H14 H 0.5683 -0.1846 0.6371
loop_
_geom_bond_atom_site_label_1
_geom_bond_atom_site_label_2
_geom_bond_site_symmetry_1
_geom_bond_site_symmetry_2
I1 C4 1_555 1_555
S1 N1 1_555 1_555
N1 C1 1_555 1_555
O1 S1 1_555 1_555
O2 S1 1_555 1_555
C1 C2 1_555 1_555
O3 C7 1_555 1_555
C2 C3 1_555 1_555
O4 C14 1_555 1_555
C3 S1 1_555 1_555
C4 N1 1_555 1_555
O5 C7 1_555 1_555
C5 H1 1_555 1_555
C6 C3 1_555 1_555
H2 C6 1_555 1_555
C7 C1 1_555 1_555
C8 C11 1_555 1_555
C9 C5 1_555 1_555
H3 C9 1_555 1_555
C10 C9 1_555 1_555
H4 C10 1_555 1_555
C11 C5 1_555 1_555
H5 C11 1_555 1_555
C12 C8 1_555 1_555
H6 C12 1_555 1_555
C13 C2 1_555 1_555
H7 C13 1_555 1_555
C14 C4 1_555 1_555
C15 C6 1_555 1_555
H8 C15 1_555 1_555
C16 C13 1_555 1_555
H9 C16 1_555 1_555
C17 O3 1_555 1_555
H10 C17 1_555 1_555
H11 C17 1_555 1_555
C18 C17 1_555 1_555
H12 C18 1_555 1_555
H13 C18 1_555 1_555
H14 C18 1_555 1_555
C1 C4 1_555 1_555
C8 C14 1_555 1_555
C10 C12 1_555 1_555
C15 C16 1_555 1_555

#END
