
#######################################################################
#
#                 Cambridge Crystallographic Data Centre
#                                CCDC 
#
#######################################################################
#
# If this CIF has been generated from an entry in the Cambridge 
# Structural Database, then it will include bibliographic, chemical, 
# crystal, experimental, refinement or atomic coordinate data resulting 
# from the CCDC's data processing and validation procedures.
#
#######################################################################

data_WAWMIR
_chemical_name_common            
"2,2'-(Iminodimethylene)-bis(1H-benzimidazolium) chloride"
_chemical_formula_moiety         'C16 H16 N5 1+,Cl1 1-'
_chemical_name_systematic        
'bis(1H-Benzimidazol-2-ylmethyl)aminium chloride'
_symmetry_cell_setting           orthorhombic
_symmetry_space_group_name_H-M   'P n a 21'
_symmetry_Int_Tables_number      33
_space_group_name_Hall           'P 2c -2n'
loop_
_symmetry_equiv_pos_site_id
_symmetry_equiv_pos_as_xyz
1 x,y,z
2 -x,-y,1/2+z
3 1/2-x,1/2+y,1/2+z
4 1/2+x,1/2-y,z
_cell_length_a                   7.607(2)
_cell_length_b                   13.615(3)
_cell_length_c                   14.544(3)
_cell_angle_alpha                90
_cell_angle_beta                 90
_cell_angle_gamma                90
_cell_volume                     1506.31
_exptl_crystal_colour            colorless
_exptl_crystal_description       block
_cell_formula_units_Z            4
_exptl_crystal_recrystallization_method ethanol
loop_
_atom_site_label
_atom_site_type_symbol
_atom_site_fract_x
_atom_site_fract_y
_atom_site_fract_z
N1 N -0.0512(2) 0.74555(12) 0.66884(14)
H1 H -0.0009 0.7723 0.7155
N2 N -0.1621(2) 0.63180(12) 0.57910(13)
H2 H -0.1942 0.5752 0.5589
N3 N 0.2418(2) 0.55635(13) 1.02709(13)
N4 N 0.2066(2) 0.69743(13) 0.95583(14)
H4 H 0.1787 0.7387 0.9135
N5 N 0.0272(3) 0.61128(13) 0.80927(14)
H5 H -0.0758 0.6242 0.8371
C1 C -0.0079(3) 0.57179(15) 0.71900(15)
H6 H -0.0932 0.5191 0.7239
H7 H 0.0995 0.5446 0.6936
C2 C -0.0771(3) 0.64963(15) 0.65605(16)
C3 C -0.1904(3) 0.72231(16) 0.53660(16)
C4 C -0.2672(3) 0.74615(19) 0.45354(17)
H8 H -0.3166 0.6984 0.4159
C5 C -0.2673(3) 0.8434(2) 0.4290(2)
H9 H -0.3177 0.8618 0.3733
C6 C -0.1941(4) 0.9153(2) 0.4851(2)
H10 H -0.1951 0.9803 0.4654
C7 C -0.1206(3) 0.89294(16) 0.5687(2)
H11 H -0.0737 0.9412 0.6067
C8 C -0.1198(3) 0.79431(14) 0.59359(17)
C9 C 0.1284(3) 0.54739(17) 0.86727(18)
H12 H 0.2292 0.5230 0.8334
H13 H 0.0571 0.4915 0.8851
C10 C 0.1896(3) 0.59992(15) 0.95112(17)
C11 C 0.3012(3) 0.63025(15) 1.08526(17)
C12 C 0.3706(3) 0.62602(17) 1.17369(18)
H14 H 0.3865 0.5664 1.2038
C13 C 0.4146(3) 0.71369(19) 1.21459(19)
H15 H 0.4630 0.7134 1.2733
C14 C 0.3881(3) 0.80322(19) 1.1696(2)
H16 H 0.4187 0.8611 1.1995
C15 C 0.3187(3) 0.80842(17) 1.0828(2)
H17 H 0.3004 0.8682 1.0534
C16 C 0.2773(3) 0.72020(16) 1.04122(17)
Cl1 Cl 0.09411(8) 0.88137(4) 0.82646(5)
H3? H 0.2397 0.4944 1.0385
loop_
_geom_bond_atom_site_label_1
_geom_bond_atom_site_label_2
_geom_bond_site_symmetry_1
_geom_bond_site_symmetry_2
N1 H1 1_555 1_555
N2 H2 1_555 1_555
N3 C10 1_555 1_555
N4 H4 1_555 1_555
N5 H5 1_555 1_555
C1 N5 1_555 1_555
H6 C1 1_555 1_555
H7 C1 1_555 1_555
C2 N1 1_555 1_555
C3 N2 1_555 1_555
C4 C3 1_555 1_555
H8 C4 1_555 1_555
C5 C4 1_555 1_555
H9 C5 1_555 1_555
C6 C5 1_555 1_555
H10 C6 1_555 1_555
C7 C6 1_555 1_555
H11 C7 1_555 1_555
C8 N1 1_555 1_555
C9 N5 1_555 1_555
H12 C9 1_555 1_555
H13 C9 1_555 1_555
C10 N4 1_555 1_555
C11 N3 1_555 1_555
C12 C11 1_555 1_555
H14 C12 1_555 1_555
C13 C12 1_555 1_555
H15 C13 1_555 1_555
C14 C13 1_555 1_555
H16 C14 1_555 1_555
C15 C14 1_555 1_555
H17 C15 1_555 1_555
C16 N4 1_555 1_555
N2 C2 1_555 1_555
C1 C2 1_555 1_555
C3 C8 1_555 1_555
C7 C8 1_555 1_555
C9 C10 1_555 1_555
C11 C16 1_555 1_555
C15 C16 1_555 1_555

#END
