
#######################################################################
#
#                 Cambridge Crystallographic Data Centre
#                                CCDC 
#
#######################################################################
#
# If this CIF has been generated from an entry in the Cambridge 
# Structural Database, then it will include bibliographic, chemical, 
# crystal, experimental, refinement or atomic coordinate data resulting 
# from the CCDC's data processing and validation procedures.
#
#######################################################################

data_WAWXOK
_chemical_formula_moiety         'C18 H16 N2 O2'
_chemical_name_systematic        
'methyl (3-methyl-11H-isoindolo[2,1-a]benzimidazol-11-yl)acetate'
_symmetry_cell_setting           monoclinic
_symmetry_space_group_name_H-M   'P 21/c'
_symmetry_Int_Tables_number      14
_space_group_name_Hall           '-P 2ybc'
loop_
_symmetry_equiv_pos_site_id
_symmetry_equiv_pos_as_xyz
1 x,y,z
2 -x,1/2+y,1/2-z
3 -x,-y,-z
4 x,1/2-y,1/2+z
_cell_length_a                   12.4244(9)
_cell_length_b                   8.0614(6)
_cell_length_c                   14.7164(10)
_cell_angle_alpha                90
_cell_angle_beta                 100.607(2)
_cell_angle_gamma                90
_cell_volume                     1448.78
_exptl_crystal_colour            yellow
_cell_formula_units_Z            4
loop_
_atom_site_label
_atom_site_type_symbol
_atom_site_fract_x
_atom_site_fract_y
_atom_site_fract_z
O1 O 0.18653(7) 0.03180(13) 0.25396(7)
O2 O 0.14514(8) 0.25657(13) 0.33094(6)
N1 N 0.36507(8) 0.18864(13) 0.50895(7)
N2 N 0.46072(9) 0.08254(13) 0.64190(7)
C1 C 0.07153(12) 0.0101(2) 0.21687(12)
H1 H 0.0321 -0.0121 0.2675
H2 H 0.0619 -0.0837 0.1737
H3 H 0.0425 0.1111 0.1843
C2 C 0.21221(11) 0.16451(16) 0.30886(8)
C3 C 0.33428(10) 0.18076(16) 0.33565(8)
H4 H 0.3624 0.2345 0.2842
H5 H 0.3666 0.0683 0.3439
C4 C 0.37307(10) 0.28018(16) 0.42378(8)
H6 H 0.3322 0.3874 0.4216
C5 C 0.49613(10) 0.31200(15) 0.44013(9)
C6 C 0.54839(10) 0.24326(15) 0.52354(8)
C7 C 0.66051(11) 0.25589(16) 0.55315(9)
H7 H 0.6947 0.2075 0.6100
C8 C 0.72252(11) 0.34074(16) 0.49811(9)
C9 C 0.84419(11) 0.36212(19) 0.52995(10)
H8 H 0.8590 0.4724 0.5574
H9 H 0.8813 0.3507 0.4770
H10 H 0.8714 0.2771 0.5761
C10 C 0.46438(10) 0.16532(15) 0.56579(8)
C11 C 0.34940(10) 0.04857(15) 0.63498(8)
C12 C 0.28738(11) 0.11789(15) 0.55341(8)
C13 C 0.17346(11) 0.10828(18) 0.53406(9)
H11 H 0.1317 0.1576 0.4803
C14 C 0.12420(11) 0.02319(19) 0.59716(10)
H12 H 0.0466 0.0147 0.5864
C15 C 0.18505(12) -0.05090(18) 0.67645(9)
H13 H 0.1480 -0.1103 0.7172
C16 C 0.29760(11) -0.03916(16) 0.69630(9)
H14 H 0.3386 -0.0893 0.7501
C17 C 0.55713(11) 0.39456(16) 0.38424(9)
H15 H 0.5229 0.4406 0.3267
C18 C 0.66962(11) 0.40829(16) 0.41431(9)
H16 H 0.7119 0.4655 0.3766
loop_
_geom_bond_atom_site_label_1
_geom_bond_atom_site_label_2
_geom_bond_site_symmetry_1
_geom_bond_site_symmetry_2
O1 C1 1_555 1_555
O2 C2 1_555 1_555
N1 C4 1_555 1_555
N2 C10 1_555 1_555
C1 H1 1_555 1_555
H2 C1 1_555 1_555
H3 C1 1_555 1_555
C2 O1 1_555 1_555
C3 C2 1_555 1_555
H4 C3 1_555 1_555
H5 C3 1_555 1_555
C4 C3 1_555 1_555
H6 C4 1_555 1_555
C5 C4 1_555 1_555
C6 C5 1_555 1_555
C7 C6 1_555 1_555
H7 C7 1_555 1_555
C8 C7 1_555 1_555
C9 C8 1_555 1_555
H8 C9 1_555 1_555
H9 C9 1_555 1_555
H10 C9 1_555 1_555
C10 N1 1_555 1_555
C11 N2 1_555 1_555
C12 N1 1_555 1_555
C13 C12 1_555 1_555
H11 C13 1_555 1_555
C14 C13 1_555 1_555
H12 C14 1_555 1_555
C15 C14 1_555 1_555
H13 C15 1_555 1_555
C16 C11 1_555 1_555
H14 C16 1_555 1_555
C17 C5 1_555 1_555
H15 C17 1_555 1_555
C18 C8 1_555 1_555
H16 C18 1_555 1_555
C6 C10 1_555 1_555
C11 C12 1_555 1_555
C15 C16 1_555 1_555
C17 C18 1_555 1_555

#END
