
#######################################################################
#
#                 Cambridge Crystallographic Data Centre
#                                CCDC 
#
#######################################################################
#
# If this CIF has been generated from an entry in the Cambridge 
# Structural Database, then it will include bibliographic, chemical, 
# crystal, experimental, refinement or atomic coordinate data resulting 
# from the CCDC's data processing and validation procedures.
#
#######################################################################

data_WAWYUR
_chemical_formula_moiety         'C22 H22 N2 O2'
_chemical_name_systematic        
6-{[(4-methylphenyl)methyl]amino}-4-{[(4-methylphenyl)methyl]iminio}-3-oxocyclohexa-1,5-dien-1-olate
_symmetry_cell_setting           triclinic
_symmetry_space_group_name_H-M   'P -1'
_symmetry_Int_Tables_number      2
_space_group_name_Hall           '-P 1'
loop_
_symmetry_equiv_pos_site_id
_symmetry_equiv_pos_as_xyz
1 x,y,z
2 -x,-y,-z
_cell_length_a                   4.7968(8)
_cell_length_b                   12.304(2)
_cell_length_c                   16.302(2)
_cell_angle_alpha                101.238(8)
_cell_angle_beta                 95.761(8)
_cell_angle_gamma                95.785(13)
_cell_volume                     931.758
_exptl_crystal_colour            brown
_exptl_crystal_description       plate
_cell_formula_units_Z            2
loop_
_atom_site_label
_atom_site_type_symbol
_atom_site_fract_x
_atom_site_fract_y
_atom_site_fract_z
C1 C 0.6807(6) 0.2403(2) 0.10427(12)
H1 H 0.7685 0.2381 0.1587
C2 C 0.4546(6) 0.1619(2) 0.06575(12)
C3 C 0.2958(5) 0.1692(2) -0.01897(12)
C4 C 0.4059(6) 0.2508(2) -0.05919(13)
H2 H 0.3152 0.2542 -0.1130
C5 C 0.6408(6) 0.3276(3) -0.02498(14)
C6 C 0.7781(6) 0.3221(2) 0.06245(13)
C7 C 0.4735(6) 0.0368(3) 0.16811(14)
H3 H 0.6633 0.0785 0.1882
H4 H 0.4963 -0.0433 0.1513
C8 C 0.2931(6) 0.0519(3) 0.23982(13)
C9 C 0.2740(9) 0.1560(3) 0.28706(16)
H5 H 0.3726 0.2201 0.2740
C10 C 0.1107(11) 0.1687(4) 0.35427(19)
H6 H 0.0993 0.2412 0.3861
C11 C -0.0334(9) 0.0767(5) 0.37449(18)
C12 C -0.0147(9) -0.0270(5) 0.3273(2)
H7 H -0.1131 -0.0912 0.3403
C13 C 0.1473(8) -0.0394(3) 0.26012(16)
H8 H 0.1568 -0.1119 0.2280
C14 C -0.2183(12) 0.0883(8) 0.4451(2)
H9 H -0.1236 0.1449 0.4933
H10 H -0.2516 0.0165 0.4623
H11 H -0.3993 0.1108 0.4255
C15 C 1.1363(6) 0.4236(3) 0.17714(15)
H12 H 1.3219 0.4675 0.1785
H13 H 1.1704 0.3521 0.1933
C16 C 0.9694(6) 0.4871(3) 0.23992(15)
C17 C 0.8840(9) 0.5873(3) 0.22825(19)
H14 H 0.9339 0.6164 0.1811
C18 C 0.7274(11) 0.6461(4) 0.2838(2)
H15 H 0.6668 0.7138 0.2732
C19 C 0.6565(9) 0.6092(5) 0.3543(2)
C20 C 0.7374(12) 0.5088(6) 0.3651(2)
H16 H 0.6864 0.4803 0.4123
C21 C 0.8925(10) 0.4468(4) 0.3089(2)
H17 H 0.9448 0.3773 0.3181
C22 C 0.4851(13) 0.6757(7) 0.4138(3)
H18 H 0.5643 0.6785 0.4721
H19 H 0.2892 0.6402 0.4044
H20 H 0.4906 0.7518 0.4037
N1 N 0.3536(5) 0.0752(2) 0.09474(11)
H21 H 0.1971 0.0363 0.0668
N2 N 0.9893(5) 0.4010(2) 0.09230(12)
H22 H 1.0462 0.4435 0.0581
O1 O 0.0853(5) 0.1001(2) -0.04627(11)
O2 O 0.7491(6) 0.4013(2) -0.05854(12)
loop_
_geom_bond_atom_site_label_1
_geom_bond_atom_site_label_2
_geom_bond_site_symmetry_1
_geom_bond_site_symmetry_2
C1 H1 1_555 1_555
C2 C1 1_555 1_555
C3 C2 1_555 1_555
C4 C3 1_555 1_555
H2 C4 1_555 1_555
C5 C4 1_555 1_555
C6 C1 1_555 1_555
C7 H3 1_555 1_555
H4 C7 1_555 1_555
C8 C7 1_555 1_555
C9 C8 1_555 1_555
H5 C9 1_555 1_555
C10 C9 1_555 1_555
H6 C10 1_555 1_555
C11 C10 1_555 1_555
C12 C11 1_555 1_555
H7 C12 1_555 1_555
C13 C8 1_555 1_555
H8 C13 1_555 1_555
C14 C11 1_555 1_555
H9 C14 1_555 1_555
H10 C14 1_555 1_555
H11 C14 1_555 1_555
C15 H12 1_555 1_555
H13 C15 1_555 1_555
C16 C15 1_555 1_555
C17 C16 1_555 1_555
H14 C17 1_555 1_555
C18 C17 1_555 1_555
H15 C18 1_555 1_555
C19 C18 1_555 1_555
C20 C19 1_555 1_555
H16 C20 1_555 1_555
C21 C16 1_555 1_555
H17 C21 1_555 1_555
C22 C19 1_555 1_555
H18 C22 1_555 1_555
H19 C22 1_555 1_555
H20 C22 1_555 1_555
N1 C2 1_555 1_555
H21 N1 1_555 1_555
N2 C6 1_555 1_555
H22 N2 1_555 1_555
O1 C3 1_555 1_555
O2 C5 1_555 1_555
C5 C6 1_555 1_555
C7 N1 1_555 1_555
C12 C13 1_555 1_555
C15 N2 1_555 1_555
C20 C21 1_555 1_555

#END
