
#######################################################################
#
#                 Cambridge Crystallographic Data Centre
#                                CCDC 
#
#######################################################################
#
# If this CIF has been generated from an entry in the Cambridge 
# Structural Database, then it will include bibliographic, chemical, 
# crystal, experimental, refinement or atomic coordinate data resulting 
# from the CCDC's data processing and validation procedures.
#
#######################################################################

data_WAYHEL
_chemical_formula_moiety         'C32 H28 N8 O7'
_chemical_name_systematic        
'(4-Azido-3-(benzyloxy)-5-(8-methyl-5-oxotetrazolo[1,5-c]pyrimidin-6(5H)-yl)tetrahydrofuran-2,2-diyl)bis(methylene) dibenzoate'
_symmetry_cell_setting           orthorhombic
_symmetry_space_group_name_H-M   'P 21 21 21'
_symmetry_Int_Tables_number      19
_space_group_name_Hall           'P 2ac 2ab'
loop_
_symmetry_equiv_pos_site_id
_symmetry_equiv_pos_as_xyz
1 x,y,z
2 1/2-x,-y,1/2+z
3 1/2+x,1/2-y,-z
4 -x,1/2+y,1/2-z
_cell_length_a                   7.6880(2)
_cell_length_b                   13.2934(3)
_cell_length_c                   31.1120(9)
_cell_angle_alpha                90
_cell_angle_beta                 90
_cell_angle_gamma                90
_cell_volume                     3179.64
_exptl_crystal_colour            colorless
_cell_formula_units_Z            4
loop_
_atom_site_label
_atom_site_type_symbol
_atom_site_fract_x
_atom_site_fract_y
_atom_site_fract_z
O1 O -0.5472(4) 0.6484(2) 0.65105(9)
O2 O -0.0624(3) 0.76077(18) 0.65089(7)
O3 O -0.1335(3) 1.01240(17) 0.61720(7)
O4 O 0.1306(3) 0.89621(19) 0.70366(8)
O5 O 0.3804(4) 0.8252(2) 0.72402(9)
O6 O 0.1675(3) 0.77845(17) 0.57608(7)
O7 O -0.0410(4) 0.6671(2) 0.55896(10)
N1 N -0.3114(4) 0.7119(2) 0.68724(9)
N2 N -0.5064(4) 0.6123(2) 0.72290(10)
N3 N -0.6441(5) 0.5480(3) 0.72786(12)
N4 N -0.6398(6) 0.5230(3) 0.76809(14)
N5 N -0.5049(5) 0.5674(3) 0.78986(11)
N6 N -0.3799(4) 0.8664(2) 0.59483(10)
N7 N -0.4745(5) 0.9379(3) 0.58558(10)
N8 N -0.5660(5) 0.9979(3) 0.57231(12)
C1 C -0.4628(5) 0.6573(3) 0.68328(13)
C2 C -0.4226(5) 0.6234(3) 0.76067(13)
C3 C -0.2767(5) 0.6868(3) 0.76308(12)
C4 C -0.2276(5) 0.7284(3) 0.72579(12)
H1 H -0.1294 0.7718 0.7259
C5 C -0.1884(7) 0.7031(4) 0.80561(13)
H2 H -0.0892 0.7485 0.8018
H3 H -0.1473 0.6385 0.8169
H4 H -0.2710 0.7330 0.8259
C6 C -0.2457(5) 0.7561(3) 0.64706(12)
H5 H -0.2784 0.7125 0.6221
C7 C -0.3110(5) 0.8652(2) 0.63941(11)
H6 H -0.4024 0.8846 0.6607
C8 C -0.1457(5) 0.9288(2) 0.64490(11)
H7 H -0.1365 0.9519 0.6754
C9 C 0.0025(5) 0.8553(3) 0.63509(11)
C10 C 0.0353(5) 0.8514(3) 0.58724(11)
H8 H -0.0743 0.8339 0.5723
H9 H 0.0722 0.9187 0.5772
C11 C -0.2104(6) 1.1031(3) 0.63263(12)
H10 H -0.1541 1.1243 0.6598
H11 H -0.3359 1.0929 0.6381
C12 C -0.1847(7) 1.1818(3) 0.59859(13)
C13 C -0.3251(7) 1.2221(3) 0.57851(15)
H12 H -0.4385 1.2011 0.5866
C14 C -0.3060(8) 1.2923(4) 0.54684(18)
H13 H -0.4056 1.3200 0.5332
C15 C -0.1430(10) 1.3227(3) 0.53480(15)
H14 H -0.1303 1.3711 0.5126
C16 C 0.0031(8) 1.2839(4) 0.55445(15)
H15 H 0.1162 1.3055 0.5463
C17 C -0.0202(7) 1.2116(3) 0.58677(13)
H16 H 0.0783 1.1831 0.6006
C18 C 0.1712(5) 0.8744(3) 0.65881(11)
H17 H 0.2472 0.8144 0.6570
H18 H 0.2332 0.9320 0.6457
C19 C 0.2507(6) 0.8719(3) 0.73313(13)
C20 C 0.2092(5) 0.9087(3) 0.77660(12)
C21 C 0.0569(6) 0.9618(3) 0.78535(13)
H19 H -0.0257 0.9729 0.7632
C22 C 0.0258(7) 0.9982(3) 0.82602(14)
H20 H -0.0787 1.0339 0.8318
C23 C 0.1447(8) 0.9834(3) 0.85839(14)
H21 H 0.1233 1.0092 0.8864
C24 C 0.2954(7) 0.9305(3) 0.84988(15)
H22 H 0.3770 0.9195 0.8723
C25 C 0.3291(6) 0.8935(3) 0.80922(14)
H23 H 0.4339 0.8578 0.8037
C26 C 0.1093(6) 0.6897(3) 0.55949(11)
C27 C 0.2545(5) 0.6289(3) 0.54149(11)
C28 C 0.2112(6) 0.5404(3) 0.52020(13)
H24 H 0.0931 0.5197 0.5187
C29 C 0.3380(8) 0.4829(3) 0.50139(13)
H25 H 0.3077 0.4228 0.4867
C30 C 0.5084(7) 0.5122(3) 0.50382(13)
H26 H 0.5959 0.4724 0.4906
C31 C 0.5545(6) 0.5991(3) 0.52537(13)
H27 H 0.6733 0.6182 0.5274
C32 C 0.4275(5) 0.6575(3) 0.54384(12)
H28 H 0.4585 0.7178 0.5583
loop_
_geom_bond_atom_site_label_1
_geom_bond_atom_site_label_2
_geom_bond_site_symmetry_1
_geom_bond_site_symmetry_2
O1 C1 1_555 1_555
O2 C6 1_555 1_555
O3 C8 1_555 1_555
O4 C18 1_555 1_555
O5 C19 1_555 1_555
O6 C10 1_555 1_555
O7 C26 1_555 1_555
N1 C1 1_555 1_555
N2 N3 1_555 1_555
N3 N4 1_555 1_555
N4 N5 1_555 1_555
N5 C2 1_555 1_555
N6 N7 1_555 1_555
N7 N8 1_555 1_555
C1 N2 1_555 1_555
C2 N2 1_555 1_555
C3 C2 1_555 1_555
C4 N1 1_555 1_555
H1 C4 1_555 1_555
C5 C3 1_555 1_555
H2 C5 1_555 1_555
H3 C5 1_555 1_555
H4 C5 1_555 1_555
C6 N1 1_555 1_555
H5 C6 1_555 1_555
C7 N6 1_555 1_555
H6 C7 1_555 1_555
C8 C7 1_555 1_555
H7 C8 1_555 1_555
C9 O2 1_555 1_555
C10 C9 1_555 1_555
H8 C10 1_555 1_555
H9 C10 1_555 1_555
C11 O3 1_555 1_555
H10 C11 1_555 1_555
H11 C11 1_555 1_555
C12 C11 1_555 1_555
C13 C12 1_555 1_555
H12 C13 1_555 1_555
C14 C13 1_555 1_555
H13 C14 1_555 1_555
C15 C14 1_555 1_555
H14 C15 1_555 1_555
C16 C15 1_555 1_555
H15 C16 1_555 1_555
C17 C12 1_555 1_555
H16 C17 1_555 1_555
C18 C9 1_555 1_555
H17 C18 1_555 1_555
H18 C18 1_555 1_555
C19 O4 1_555 1_555
C20 C19 1_555 1_555
C21 C20 1_555 1_555
H19 C21 1_555 1_555
C22 C21 1_555 1_555
H20 C22 1_555 1_555
C23 C22 1_555 1_555
H21 C23 1_555 1_555
C24 C23 1_555 1_555
H22 C24 1_555 1_555
C25 C20 1_555 1_555
H23 C25 1_555 1_555
C26 O6 1_555 1_555
C27 C26 1_555 1_555
C28 C27 1_555 1_555
H24 C28 1_555 1_555
C29 C28 1_555 1_555
H25 C29 1_555 1_555
C30 C29 1_555 1_555
H26 C30 1_555 1_555
C31 C30 1_555 1_555
H27 C31 1_555 1_555
C32 C27 1_555 1_555
H28 C32 1_555 1_555
C3 C4 1_555 1_555
C6 C7 1_555 1_555
C8 C9 1_555 1_555
C16 C17 1_555 1_555
C24 C25 1_555 1_555
C31 C32 1_555 1_555

#END
