
#######################################################################
#
#                 Cambridge Crystallographic Data Centre
#                                CCDC 
#
#######################################################################
#
# If this CIF has been generated from an entry in the Cambridge 
# Structural Database, then it will include bibliographic, chemical, 
# crystal, experimental, refinement or atomic coordinate data resulting 
# from the CCDC's data processing and validation procedures.
#
#######################################################################

data_WAZMOC
_chemical_formula_moiety         'C20 H20 F2 N2 O2'
_chemical_name_systematic        
(S,S)-2-fluoro-6-(((2-((3-fluoro-2-hydroxybenzylidene)amino)cyclohexyl)imino)methyl)phenol
_symmetry_cell_setting           trigonal
_symmetry_space_group_name_H-M   'P 31 2 1'
_symmetry_Int_Tables_number      152
_space_group_name_Hall           'P 31 2"'
loop_
_symmetry_equiv_pos_site_id
_symmetry_equiv_pos_as_xyz
1 x,y,z
2 -y,x-y,1/3+z
3 -x+y,-x,2/3+z
4 y,x,-z
5 x-y,-y,2/3-z
6 -x,-x+y,1/3-z
_cell_length_a                   11.1476(2)
_cell_length_b                   11.1476(2)
_cell_length_c                   38.1525(8)
_cell_angle_alpha                90
_cell_angle_beta                 90
_cell_angle_gamma                120
_cell_volume                     4105.98
_exptl_crystal_colour            'yellowish yellow'
_exptl_crystal_description       block
_cell_formula_units_Z            9
loop_
_atom_site_label
_atom_site_type_symbol
_atom_site_fract_x
_atom_site_fract_y
_atom_site_fract_z
F1 F 0.47260(17) 0.6098(2) 0.15579(4)
O1 O 0.6403(2) 0.5031(2) 0.15871(5)
H1 H 0.6989 0.4783 0.1625
N1 N 0.8627(2) 0.5217(2) 0.18232(5)
C1 C 0.6742(3) 0.6184(3) 0.17694(6)
C2 C 0.8857(3) 0.6278(3) 0.20021(6)
H2 H 0.9641 0.6701 0.2152
C3 C 0.9556(3) 0.4653(3) 0.18337(6)
H3 H 1.0168 0.5017 0.2044
C4 C 0.7937(3) 0.6852(3) 0.19798(6)
C5 C 0.5889(3) 0.6754(3) 0.17553(7)
C6 C 0.6164(3) 0.7937(3) 0.19354(7)
H4 H 0.5557 0.8301 0.1918
C7 C 0.8218(3) 0.8048(3) 0.21650(7)
H5 H 0.9022 0.8495 0.2308
C8 C 0.7348(4) 0.8590(3) 0.21438(7)
H6 H 0.7554 0.9404 0.2271
C9 C 0.8691(3) 0.3083(3) 0.18546(9)
H7 H 0.8165 0.2818 0.2077
H8 H 0.8015 0.2739 0.1660
C10 C 0.9574(4) 0.2400(4) 0.18353(11)
H9 H 0.8971 0.1380 0.1841
H10 H 1.0202 0.2680 0.2040
F1E F 1.52740(17) 1.13720(26) 0.17754(4)
O1E O 1.3597(2) 0.8628(3) 0.17462(5)
H1E H 1.3011 0.7794 0.1708
N1E N 1.1373(2) 0.6590(3) 0.15101(5)
C1E C 1.3258(3) 0.9442(4) 0.15639(6)
C2E C 1.1143(3) 0.7421(4) 0.13312(6)
H2E H 1.0359 0.7060 0.1181
C3E C 1.0444(3) 0.5097(4) 0.14996(6)
H3E H 0.9832 0.4849 0.1289
C4E C 1.2063(3) 0.8915(4) 0.13535(6)
C5E C 1.4111(3) 1.0865(4) 0.15780(7)
C6E C 1.3836(3) 1.1773(4) 0.13979(7)
H4E H 1.4443 1.2744 0.1415
C7E C 1.1782(3) 0.9830(4) 0.11683(7)
H5E H 1.0978 0.9473 0.1025
C8E C 1.2652(4) 1.1242(5) 0.11895(7)
H6E H 1.2446 1.1850 0.1062
C9E C 1.1309(3) 0.4392(4) 0.14787(9)
H7E H 1.1835 0.4653 0.1256
H8E H 1.1985 0.4724 0.1673
C10E C 1.0426(4) 0.2826(6) 0.14980(11)
H9E H 1.1029 0.2409 0.1492
H10E H 0.9798 0.2478 0.1293
F2 F 0.93716(19) 1.0867(2) 0.27159(5)
F3 F -0.0907(2) 0.5944(2) 0.32182(5)
O2 O 0.7131(2) 1.1128(2) 0.26067(4)
H11 H 0.6546 1.1392 0.2594
O3 O 0.0654(2) 0.8553(2) 0.29950(6)
H12 H 0.1262 0.9339 0.2925
N2 N 0.2729(2) 1.0292(2) 0.26324(5)
N3 N 0.5605(2) 1.2097(2) 0.28367(5)
C11 C 0.7763(3) 1.1477(3) 0.29225(6)
C12 C 0.2119(3) 0.7921(3) 0.26728(6)
C13 C 0.7308(3) 1.2000(3) 0.31956(6)
C14 C 0.6190(3) 1.2293(3) 0.31359(6)
H13 H 0.5889 1.2638 0.3324
C15 C 0.2974(3) 0.9334(3) 0.25427(6)
H14 H 0.3724 0.9542 0.2389
C16 C 0.8926(3) 1.1362(3) 0.29806(7)
C17 C 0.3595(3) 1.1694(3) 0.24957(6)
H15 H 0.4110 1.1654 0.2286
C18 C 0.4640(3) 1.2598(3) 0.27759(6)
H16 H 0.4143 1.2548 0.2998
C19 C 0.0984(3) 0.7611(3) 0.28938(7)
C20 C 0.4530(3) 1.4673(3) 0.25425(7)
H17 H 0.4002 1.4696 0.2749
H18 H 0.5099 1.5631 0.2454
C21 C 0.0181(3) 0.6246(3) 0.30091(7)
C22 C 0.8022(3) 1.2348(3) 0.35151(7)
H19 H 0.7705 1.2682 0.3702
C23 C 0.2408(3) 0.6883(3) 0.25819(6)
H20 H 0.3168 0.7096 0.2431
C24 C 0.3527(3) 1.3771(3) 0.22584(7)
H21 H 0.4052 1.3800 0.2046
H22 H 0.2907 1.4134 0.2196
C25 C 0.9173(3) 1.2217(3) 0.35627(7)
H23 H 0.9649 1.2463 0.3781
C26 C 0.0478(3) 0.5230(3) 0.29224(7)
H24 H -0.0084 0.4315 0.3008
C27 C 0.1610(3) 0.5546(3) 0.27070(7)
H25 H 0.1830 0.4851 0.2647
C28 C 0.9637(3) 1.1723(3) 0.32913(8)
H26 H 1.0437 1.1636 0.3321
C29 C 0.2663(3) 1.2274(3) 0.23851(7)
H27 H 0.2037 1.1696 0.2195
H28 H 0.2085 1.2237 0.2586
C30 C 0.5474(3) 1.4110(3) 0.26514(7)
H29 H 0.6092 1.4690 0.2843
H30 H 0.6060 1.4168 0.2450
loop_
_geom_bond_atom_site_label_1
_geom_bond_atom_site_label_2
_geom_bond_site_symmetry_1
_geom_bond_site_symmetry_2
F1 C5 1_555 1_555
O1 H1 1_555 1_555
N1 C2 1_555 1_555
C1 O1 1_555 1_555
C2 H2 1_555 1_555
C3 N1 1_555 1_555
H3 C3 1_555 1_555
C4 C1 1_555 1_555
C5 C1 1_555 1_555
C6 C5 1_555 1_555
H4 C6 1_555 1_555
C7 C4 1_555 1_555
H5 C7 1_555 1_555
C8 C6 1_555 1_555
H6 C8 1_555 1_555
C9 C3 1_555 1_555
H7 C9 1_555 1_555
H8 C9 1_555 1_555
C10 C9 1_555 1_555
H9 C10 1_555 1_555
H10 C10 1_555 1_555
F2 C16 1_555 1_555
F3 C21 1_555 1_555
O2 H11 1_555 1_555
O3 H12 1_555 1_555
N2 C15 1_555 1_555
N3 C14 1_555 1_555
C11 O2 1_555 1_555
C12 C15 1_555 1_555
C13 C11 1_555 1_555
C14 C13 1_555 1_555
H13 C14 1_555 1_555
C15 H14 1_555 1_555
C16 C11 1_555 1_555
C17 N2 1_555 1_555
H15 C17 1_555 1_555
C18 N3 1_555 1_555
H16 C18 1_555 1_555
C19 O3 1_555 1_555
C20 H17 1_555 1_555
H18 C20 1_555 1_555
C21 C19 1_555 1_555
C22 C13 1_555 1_555
H19 C22 1_555 1_555
C23 C12 1_555 1_555
H20 C23 1_555 1_555
C24 C20 1_555 1_555
H21 C24 1_555 1_555
H22 C24 1_555 1_555
C25 C22 1_555 1_555
H23 C25 1_555 1_555
C26 C21 1_555 1_555
H24 C26 1_555 1_555
C27 C23 1_555 1_555
H25 C27 1_555 1_555
C28 C16 1_555 1_555
H26 C28 1_555 1_555
C29 C17 1_555 1_555
H27 C29 1_555 1_555
H28 C29 1_555 1_555
C30 C18 1_555 1_555
H29 C30 1_555 1_555
H30 C30 1_555 1_555
F1E C5E 1_555 1_555
O1E H1E 1_555 1_555
N1E C2E 1_555 1_555
C1E O1E 1_555 1_555
C2E H2E 1_555 1_555
C3E C3 1_555 1_555
H3E C3E 1_555 1_555
C4E C1E 1_555 1_555
C5E C1E 1_555 1_555
C6E C5E 1_555 1_555
H4E C6E 1_555 1_555
C7E C4E 1_555 1_555
H5E C7E 1_555 1_555
C8E C6E 1_555 1_555
H6E C8E 1_555 1_555
C9E C3E 1_555 1_555
H7E C9E 1_555 1_555
H8E C9E 1_555 1_555
C10E C10 1_555 1_555
H9E C10E 1_555 1_555
H10E C10E 1_555 1_555
C2 C4 1_555 1_555
C7 C8 1_555 1_555
C12 C19 1_555 1_555
C17 C18 1_555 1_555
C20 C30 1_555 1_555
C24 C29 1_555 1_555
C25 C28 1_555 1_555
C26 C27 1_555 1_555
N1E C3E 1_555 1_555
C2E C4E 1_555 1_555
C7E C8E 1_555 1_555
C9E C10E 1_555 1_555

#END
