
#######################################################################
#
#                 Cambridge Crystallographic Data Centre
#                                CCDC 
#
#######################################################################
#
# If this CIF has been generated from an entry in the Cambridge 
# Structural Database, then it will include bibliographic, chemical, 
# crystal, experimental, refinement or atomic coordinate data resulting 
# from the CCDC's data processing and validation procedures.
#
#######################################################################

data_WEBMEX
_chemical_formula_moiety         'C12 H18 N4,4(H2 O1)'
_chemical_name_systematic        
"1,1'-Butane-1,4-diylbis(2-methyl-1H-imidazole) tetrahydrate"
_symmetry_cell_setting           rhombohedral
_symmetry_space_group_name_H-M   'R -3'
_symmetry_Int_Tables_number      148
_space_group_name_Hall           '-R 3'
loop_
_symmetry_equiv_pos_site_id
_symmetry_equiv_pos_as_xyz
1 x,y,z
2 -y,x-y,z
3 -x+y,-x,z
4 2/3+x,1/3+y,1/3+z
5 2/3-y,1/3+x-y,1/3+z
6 2/3-x+y,1/3-x,1/3+z
7 1/3+x,2/3+y,2/3+z
8 1/3-y,2/3+x-y,2/3+z
9 1/3-x+y,2/3-x,2/3+z
10 -x,-y,-z
11 y,-x+y,-z
12 x-y,x,-z
13 1/3-x,2/3-y,2/3-z
14 1/3+y,2/3-x+y,2/3-z
15 1/3+x-y,2/3+x,2/3-z
16 2/3-x,1/3-y,1/3-z
17 2/3+y,1/3-x+y,1/3-z
18 2/3+x-y,1/3+x,1/3-z
_cell_length_a                   21.5759(8)
_cell_length_b                   21.5759(8)
_cell_length_c                   9.3544(6)
_cell_angle_alpha                90
_cell_angle_beta                 90
_cell_angle_gamma                120
_cell_volume                     3771.24
_cell_formula_units_Z            9
loop_
_atom_site_label
_atom_site_type_symbol
_atom_site_fract_x
_atom_site_fract_y
_atom_site_fract_z
O1 O 0.46509(9) 0.80526(8) -0.17653(16)
H10 H 0.4685(11) 0.7731(10) -0.158(2)
H11 H 0.4913(10) 0.8387(9) -0.1260(19)
O2 O 0.45679(8) 0.79772(9) -0.47566(16)
H12 H 0.4529(11) 0.7586(9) -0.490(2)
H13 H 0.4638(11) 0.8061(11) -0.3902(17)
N1 N 0.53130(7) 0.98724(7) 0.17687(12)
N2 N 0.54287(7) 0.92084(7) 0.01086(13)
C1 C 0.43165(9) 0.86055(10) 0.1582(2)
H1 H 0.4175 0.8211 0.0903
H2 H 0.3954 0.8753 0.1588
H3 H 0.4357 0.8447 0.2541
C2 C 0.50174(8) 0.92197(8) 0.11482(15)
C3 C 0.60131(8) 0.98895(9) 0.00725(16)
H4 H 0.6404 1.0046 -0.0571
C4 C 0.59518(9) 1.03041(9) 0.10811(17)
H5 H 0.6282 1.0793 0.1276
C5 C 0.50118(10) 1.00874(10) 0.29426(16)
H6 H 0.4486 0.9846 0.2827
H7 H 0.5201 1.0610 0.2887
C6 C 0.51824(9) 0.99065(9) 0.44055(15)
H8 H 0.5707 1.0174 0.4556
H9 H 0.5020 0.9389 0.4447
N1I N 0.46870(7) 1.01276(7) 0.82313(12)
N2I N 0.45713(7) 1.07916(7) 0.98914(13)
C1I C 0.56835(9) 1.13945(10) 0.8418(2)
H1I H 0.5825 1.1789 0.9097
H2I H 0.6046 1.1247 0.8412
H3I H 0.5643 1.1553 0.7459
C2I C 0.49826(8) 1.07803(8) 0.88518(15)
C3I C 0.39869(8) 1.01105(9) 0.99275(16)
H4I H 0.3596 0.9954 1.0571
C4I C 0.40482(9) 0.96959(9) 0.89189(17)
H5I H 0.3718 0.9207 0.8724
C5I C 0.49882(10) 0.99126(10) 0.70574(16)
H6I H 0.5514 1.0154 0.7173
H7I H 0.4799 0.9390 0.7113
C6I C 0.48176(9) 1.00935(9) 0.55945(15)
H8I H 0.4293 0.9826 0.5444
H9I H 0.4980 1.0611 0.5553
loop_
_geom_bond_atom_site_label_1
_geom_bond_atom_site_label_2
_geom_bond_site_symmetry_1
_geom_bond_site_symmetry_2
O1 H10 1_555 1_555
O2 H12 1_555 1_555
N1 C2 1_555 1_555
N2 C2 1_555 1_555
C1 H1 1_555 1_555
H2 C1 1_555 1_555
H3 C1 1_555 1_555
C2 C1 1_555 1_555
C3 N2 1_555 1_555
H4 C3 1_555 1_555
C4 N1 1_555 1_555
H5 C4 1_555 1_555
C5 N1 1_555 1_555
H6 C5 1_555 1_555
H7 C5 1_555 1_555
C6 C5 1_555 1_555
H8 C6 1_555 1_555
H9 C6 1_555 1_555
H11 O1 1_555 1_555
H13 O2 1_555 1_555
N1I C2I 1_555 1_555
N2I C2I 1_555 1_555
C1I H1I 1_555 1_555
H2I C1I 1_555 1_555
H3I C1I 1_555 1_555
C2I C1I 1_555 1_555
C3I N2I 1_555 1_555
H4I C3I 1_555 1_555
C4I N1I 1_555 1_555
H5I C4I 1_555 1_555
C5I N1I 1_555 1_555
H6I C5I 1_555 1_555
H7I C5I 1_555 1_555
C6I C6 1_555 1_555
H8I C6I 1_555 1_555
H9I C6I 1_555 1_555
C3 C4 1_555 1_555
C3I C4I 1_555 1_555
C5I C6I 1_555 1_555

#END
