
#######################################################################
#
#                 Cambridge Crystallographic Data Centre
#                                CCDC 
#
#######################################################################
#
# If this CIF has been generated from an entry in the Cambridge 
# Structural Database, then it will include bibliographic, chemical, 
# crystal, experimental, refinement or atomic coordinate data resulting 
# from the CCDC's data processing and validation procedures.
#
#######################################################################

data_WEBSUT
_chemical_formula_moiety         'C28 H33 N2 1+,C1 F3 O3 S1 1-'
_chemical_name_systematic        
'1-o-Tolyl-4-phenyl-3-(2,6-di-isopropylphenyl)-4,5-dihydro-1H-imidazol-3-ium trifluoromethanesulfonate'
_symmetry_cell_setting           orthorhombic
_symmetry_space_group_name_H-M   'P b c a'
_symmetry_Int_Tables_number      61
_space_group_name_Hall           '-P 2ac 2ab'
loop_
_symmetry_equiv_pos_site_id
_symmetry_equiv_pos_as_xyz
1 x,y,z
2 1/2-x,-y,1/2+z
3 -x,1/2+y,1/2-z
4 1/2+x,1/2-y,-z
5 -x,-y,-z
6 1/2+x,y,1/2-z
7 x,1/2-y,1/2+z
8 1/2-x,1/2+y,z
_cell_length_a                   16.6967(11)
_cell_length_b                   18.3660(12)
_cell_length_c                   18.5592(12)
_cell_angle_alpha                90
_cell_angle_beta                 90
_cell_angle_gamma                90
_cell_volume                     5691.21
_exptl_crystal_colour            colorless
_exptl_crystal_description       prismatic
_cell_formula_units_Z            8
loop_
_atom_site_label
_atom_site_type_symbol
_atom_site_fract_x
_atom_site_fract_y
_atom_site_fract_z
N1 N 0.05284(10) 0.00996(9) 0.28150(8)
N2 N 0.09209(11) -0.07558(9) 0.35563(9)
C1 C 0.10563(12) -0.04022(11) 0.29556(10)
H1 H 0.1490 -0.0501 0.2657
C2 C 0.01632(16) -0.05132(13) 0.38746(13)
H2 H 0.0238 -0.0366 0.4372
H3 H -0.0236 -0.0897 0.3856
C3 C -0.00876(13) 0.01368(11) 0.34058(11)
H4 H -0.0617 0.0038 0.3200
C4 C -0.01080(12) 0.08637(12) 0.37787(10)
C5 C 0.04568(15) 0.10654(15) 0.42864(12)
H5 H 0.0884 0.0758 0.4391
C6 C 0.0383(2) 0.17290(18) 0.46384(13)
H6 H 0.0760 0.1866 0.4982
C7 C -0.0244(2) 0.21830(16) 0.44807(16)
H7 H -0.0294 0.2623 0.4724
C8 C -0.07919(18) 0.19963(15) 0.39731(17)
H8 H -0.1210 0.2311 0.3860
C9 C -0.07240(14) 0.13374(13) 0.36269(13)
H9 H -0.1103 0.1209 0.3282
C10 C 0.14021(14) -0.13178(14) 0.38777(13)
C11 C 0.19127(18) -0.11171(19) 0.44269(16)
H10 H 0.1954 -0.0631 0.4562
C12 C 0.2357(2) -0.1633(3) 0.4771(2)
H11 H 0.2716 -0.1500 0.5130
C13 C 0.2270(3) -0.2340(3) 0.4585(3)
H12 H 0.2564 -0.2693 0.4828
C14 C 0.1761(3) -0.25445(19) 0.4047(2)
H13 H 0.1713 -0.3035 0.3931
C15 C 0.13060(18) -0.20310(15) 0.36644(15)
C16 C 0.0758(2) -0.22349(17) 0.3070(2)
H14 H 0.0235 -0.2041 0.3164
H15 H 0.0728 -0.2756 0.3036
H16 H 0.0957 -0.2040 0.2625
C17 C 0.04754(12) 0.05087(11) 0.21500(10)
C18 C -0.00533(15) 0.02538(13) 0.16217(12)
C19 C -0.00826(19) 0.06507(16) 0.09832(13)
H17 H -0.0427 0.0503 0.0618
C20 C 0.0385(2) 0.12543(16) 0.08829(14)
H18 H 0.0358 0.1505 0.0448
C21 C 0.08892(18) 0.14933(13) 0.14074(13)
H19 H 0.1199 0.1906 0.1327
C22 C 0.09468(13) 0.11291(11) 0.20614(11)
C23 C 0.15252(13) 0.14126(13) 0.26227(12)
H20 H 0.1479 0.1103 0.3050
C24 C 0.23822(16) 0.13556(19) 0.23467(18)
H21 H 0.2489 0.0863 0.2201
H22 H 0.2747 0.1492 0.2723
H23 H 0.2451 0.1675 0.1942
C25 C 0.13222(18) 0.21911(14) 0.28459(15)
H24 H 0.1396 0.2511 0.2442
H25 H 0.1668 0.2339 0.3232
H26 H 0.0775 0.2213 0.3003
C26 C -0.05525(16) -0.04314(15) 0.17094(14)
H27 H -0.0513 -0.0581 0.2215
C27 C -0.0209(3) -0.10398(19) 0.1258(2)
H28 H -0.0230 -0.0906 0.0758
H29 H -0.0517 -0.1475 0.1333
H30 H 0.0337 -0.1125 0.1396
C28 C -0.1430(2) -0.0297(3) 0.1549(3)
H31 H -0.1621 0.0099 0.1840
H32 H -0.1732 -0.0728 0.1657
H33 H -0.1493 -0.0177 0.1049
S1 S 0.2284(2) 0.1200(2) 0.6439(2)
O1 O 0.1739(7) 0.1627(7) 0.6176(7)
O2 O 0.2007(10) 0.0694(5) 0.6947(5)
O3 O 0.2994(7) 0.1420(7) 0.6719(8)
C29 C 0.2501(5) 0.0575(5) 0.5756(5)
F1 F 0.2329(4) 0.0716(3) 0.5060(3)
F2 F 0.3165(5) 0.0177(4) 0.5738(6)
F3 F 0.3414(3) 0.1172(3) 0.5409(2)
O4? O 0.2126(7) 0.1851(6) 0.6096(5)
O5? O 0.1628(5) 0.0692(9) 0.6422(7)
O6? O 0.2809(5) 0.1133(6) 0.6906(4)
C30? C 0.2832(6) 0.0760(6) 0.5588(6)
F4? F 0.1827(5) 0.0237(5) 0.5550(6)
F5? F 0.2780(10) -0.0043(6) 0.5931(10)
F6? F 0.2851(13) 0.0816(8) 0.5204(10)
S2? S 0.2264(6) 0.1060(5) 0.6279(5)
loop_
_geom_bond_atom_site_label_1
_geom_bond_atom_site_label_2
_geom_bond_site_symmetry_1
_geom_bond_site_symmetry_2
N1 C1 1_555 1_555
N2 C1 1_555 1_555
C1 H1 1_555 1_555
C2 N2 1_555 1_555
H2 C2 1_555 1_555
H3 C2 1_555 1_555
C3 N1 1_555 1_555
H4 C3 1_555 1_555
C4 C3 1_555 1_555
C5 C4 1_555 1_555
H5 C5 1_555 1_555
C6 C5 1_555 1_555
H6 C6 1_555 1_555
C7 C6 1_555 1_555
H7 C7 1_555 1_555
C8 C7 1_555 1_555
H8 C8 1_555 1_555
C9 C4 1_555 1_555
H9 C9 1_555 1_555
C10 N2 1_555 1_555
C11 C10 1_555 1_555
H10 C11 1_555 1_555
C12 C11 1_555 1_555
H11 C12 1_555 1_555
C13 C12 1_555 1_555
H12 C13 1_555 1_555
C14 C13 1_555 1_555
H13 C14 1_555 1_555
C15 C10 1_555 1_555
C16 C15 1_555 1_555
H14 C16 1_555 1_555
H15 C16 1_555 1_555
H16 C16 1_555 1_555
C17 N1 1_555 1_555
C18 C17 1_555 1_555
C19 C18 1_555 1_555
H17 C19 1_555 1_555
C20 C19 1_555 1_555
H18 C20 1_555 1_555
C21 C20 1_555 1_555
H19 C21 1_555 1_555
C22 C17 1_555 1_555
C23 C22 1_555 1_555
H20 C23 1_555 1_555
C24 C23 1_555 1_555
H21 C24 1_555 1_555
H22 C24 1_555 1_555
H23 C24 1_555 1_555
C25 C23 1_555 1_555
H24 C25 1_555 1_555
H25 C25 1_555 1_555
H26 C25 1_555 1_555
C26 C18 1_555 1_555
H27 C26 1_555 1_555
C27 C26 1_555 1_555
H28 C27 1_555 1_555
H29 C27 1_555 1_555
H30 C27 1_555 1_555
C28 C26 1_555 1_555
H31 C28 1_555 1_555
H32 C28 1_555 1_555
H33 C28 1_555 1_555
S1 O1 1_555 1_555
O2 S1 1_555 1_555
O3 S1 1_555 1_555
C29 S1 1_555 1_555
F1 C29 1_555 1_555
F2 C29 1_555 1_555
F3 C29 1_555 1_555
C2 C3 1_555 1_555
C8 C9 1_555 1_555
C14 C15 1_555 1_555
C21 C22 1_555 1_555

#END
