
#######################################################################
#
#                 Cambridge Crystallographic Data Centre
#                                CCDC 
#
#######################################################################
#
# If this CIF has been generated from an entry in the Cambridge 
# Structural Database, then it will include bibliographic, chemical, 
# crystal, experimental, refinement or atomic coordinate data resulting 
# from the CCDC's data processing and validation procedures.
#
#######################################################################

data_WECYIN
_chemical_formula_moiety         'C20 H21 N1 O6'
_chemical_name_systematic        
'Methyl 10,11-dimethoxy-1,5-dioxo-2,3,4,5,7,8-hexahydro-1H-benzo(4,5)azepino(3,2,1-hi)indole-3a-carboxylate'
_symmetry_cell_setting           triclinic
_symmetry_space_group_name_H-M   'P 1'
_symmetry_Int_Tables_number      1
_space_group_name_Hall           'P 1'
loop_
_symmetry_equiv_pos_site_id
_symmetry_equiv_pos_as_xyz
1 x,y,z
_cell_length_a                   8.6283(4)
_cell_length_b                   10.2323(5)
_cell_length_c                   11.4766(6)
_cell_angle_alpha                84.168(3)
_cell_angle_beta                 68.788(2)
_cell_angle_gamma                72.628(2)
_cell_volume                     901.48
_exptl_crystal_colour            colorless
_exptl_crystal_description       irregular
_cell_formula_units_Z            2
loop_
_atom_site_label
_atom_site_type_symbol
_atom_site_fract_x
_atom_site_fract_y
_atom_site_fract_z
C1 C 0.6790(7) 0.6379(6) 0.2466(5)
H1 H 0.7628 0.6663 0.1710
H2 H 0.7449 0.5599 0.2840
C2 C 0.5900(7) 0.7569(5) 0.3402(5)
H3 H 0.6770 0.8014 0.3409
H4 H 0.5019 0.8257 0.3128
C3 C 0.5037(7) 0.7120(5) 0.4708(5)
C4 C 0.5631(7) 0.7234(5) 0.5668(5)
H5 H 0.6602 0.7578 0.5483
C5 C 0.4836(7) 0.6856(6) 0.6880(5)
C6 C 0.3393(7) 0.6362(5) 0.7157(5)
C7 C 0.2835(7) 0.6210(5) 0.6217(5)
H6 H 0.1877 0.5848 0.6411
C8 C 0.3641(7) 0.6575(5) 0.4958(5)
C9 C 0.2968(6) 0.6350(5) 0.4019(5)
C10 C 0.1056(7) 0.6517(6) 0.4398(5)
C11 C 0.0464(8) 0.5611(7) 0.3806(5)
H7 H -0.0549 0.6176 0.3596
H8 H 0.0075 0.4924 0.4427
C12 C 0.1841(8) 0.4858(6) 0.2622(6)
H9 H 0.2524 0.3975 0.2852
H10 H 0.1268 0.4661 0.2079
C13 C 0.3039(7) 0.5723(6) 0.1915(5)
C14 C 0.4608(7) 0.5036(6) 0.0783(5)
H11 H 0.4824 0.4029 0.0811
H12 H 0.4422 0.5377 -0.0008
C15 C 0.6097(7) 0.5425(6) 0.0894(5)
C16 C 0.3866(6) 0.6030(5) 0.2786(5)
C17 C 0.2037(7) 0.7062(5) 0.1464(5)
C18 C 0.2247(9) 0.9154(7) 0.0477(7)
H13 H 0.1520 0.8982 0.0055
H14 H 0.3170 0.9500 -0.0129
H15 H 0.1536 0.9834 0.1143
C19 C 0.6802(8) 0.7363(7) 0.7655(6)
H16 H 0.7797 0.6752 0.7037
H17 H 0.7028 0.7333 0.8437
H18 H 0.6617 0.8301 0.7337
C20 C 0.0918(8) 0.5970(7) 0.8742(6)
H19 H 0.0212 0.6759 0.8428
H20 H 0.0417 0.5949 0.9656
H21 H 0.0943 0.5125 0.8393
N1 N 0.5592(5) 0.5929(4) 0.2101(4)
O1 O 0.7481(5) 0.5344(4) 0.0112(4)
O2 O 0.5313(5) 0.6936(4) 0.7879(3)
O3 O 0.2623(5) 0.6078(4) 0.8381(3)
O4 O 0.0007(5) 0.7351(5) 0.5183(4)
O5 O 0.0564(5) 0.7289(5) 0.1512(4)
O6 O 0.3007(5) 0.7893(4) 0.1008(4)
C21 C 0.5915(8) 0.1779(7) 0.5511(6)
H22 H 0.6970 0.1017 0.5142
H23 H 0.6025 0.2151 0.6231
C22 C 0.5773(8) 0.2881(6) 0.4554(5)
H24 H 0.6518 0.3460 0.4534
H25 H 0.4561 0.3469 0.4803
C23 C 0.6301(7) 0.2308(5) 0.3265(5)
C24 C 0.7793(7) 0.2486(5) 0.2320(5)
H26 H 0.8419 0.3019 0.2491
C25 C 0.8386(7) 0.1911(5) 0.1143(5)
C26 C 0.7486(7) 0.1074(6) 0.0917(5)
C27 C 0.6037(7) 0.0885(5) 0.1846(5)
H27 H 0.5438 0.0327 0.1676
C28 C 0.5401(7) 0.1479(5) 0.3033(5)
C29 C 0.3759(7) 0.1270(5) 0.4014(5)
C30 C 0.2380(7) 0.1159(6) 0.3551(5)
C31 C 0.0863(8) 0.0710(6) 0.4425(6)
H28 H -0.0181 0.1506 0.4603
H29 H 0.0680 0.0012 0.3990
C32 C 0.1008(8) 0.0129(6) 0.5642(6)
H30 H 0.1814 -0.0808 0.5509
H31 H -0.0140 0.0076 0.6228
C33 C 0.1672(7) 0.1035(5) 0.6184(5)
C34 C 0.2126(7) 0.0467(7) 0.7357(5)
H32 H 0.1167 0.0867 0.8130
H33 H 0.2380 -0.0543 0.7392
C35 C 0.3725(7) 0.0905(6) 0.7187(5)
C36 C 0.3381(6) 0.1195(5) 0.5250(5)
C37 C 0.0353(7) 0.2474(6) 0.6556(5)
C38 C -0.2566(8) 0.3611(8) 0.7634(7)
H34 H -0.2249 0.3993 0.8236
H35 H -0.3675 0.3405 0.8061
H36 H -0.2673 0.4277 0.6970
C39 C 0.7343(10) -0.0285(8) -0.0554(7)
H37 H 0.7037 -0.0918 0.0135
H38 H 0.8114 -0.0809 -0.1319
H39 H 0.6288 0.0294 -0.0684
C40 C 1.0789(7) 0.2857(6) 0.0382(6)
H40 H 1.0081 0.3810 0.0557
H41 H 1.1818 0.2818 -0.0366
H42 H 1.1148 0.2486 0.1095
N2 N 0.4392(6) 0.1259(5) 0.5944(4)
O7 O 0.4384(5) 0.0934(5) 0.7946(4)
O8 O 0.9792(5) 0.2060(4) 0.0175(3)
O9 O 0.8186(5) 0.0538(4) -0.0260(4)
O10 O 0.2459(5) 0.1444(5) 0.2468(4)
O11 O 0.0754(6) 0.3513(4) 0.6412(5)
O12 O -0.1218(5) 0.2347(4) 0.7085(4)
loop_
_geom_bond_atom_site_label_1
_geom_bond_atom_site_label_2
_geom_bond_site_symmetry_1
_geom_bond_site_symmetry_2
C1 H1 1_555 1_555
H2 C1 1_555 1_555
C2 C1 1_555 1_555
H3 C2 1_555 1_555
H4 C2 1_555 1_555
C3 C2 1_555 1_555
C4 C3 1_555 1_555
H5 C4 1_555 1_555
C5 C4 1_555 1_555
C6 C5 1_555 1_555
C7 C6 1_555 1_555
H6 C7 1_555 1_555
C8 C3 1_555 1_555
C9 C8 1_555 1_555
C10 C9 1_555 1_555
C11 C10 1_555 1_555
H7 C11 1_555 1_555
H8 C11 1_555 1_555
C12 C11 1_555 1_555
H9 C12 1_555 1_555
H10 C12 1_555 1_555
C13 C12 1_555 1_555
C14 C13 1_555 1_555
H11 C14 1_555 1_555
H12 C14 1_555 1_555
C15 C14 1_555 1_555
C16 C9 1_555 1_555
C17 C13 1_555 1_555
C18 H13 1_555 1_555
H14 C18 1_555 1_555
H15 C18 1_555 1_555
C19 H16 1_555 1_555
H17 C19 1_555 1_555
H18 C19 1_555 1_555
C20 H19 1_555 1_555
H20 C20 1_555 1_555
H21 C20 1_555 1_555
N1 C1 1_555 1_555
O1 C15 1_555 1_555
O2 C5 1_555 1_555
O3 C6 1_555 1_555
O4 C10 1_555 1_555
O5 C17 1_555 1_555
O6 C17 1_555 1_555
C21 H22 1_555 1_555
H23 C21 1_555 1_555
C22 C21 1_555 1_555
H24 C22 1_555 1_555
H25 C22 1_555 1_555
C23 C22 1_555 1_555
C24 C23 1_555 1_555
H26 C24 1_555 1_555
C25 C24 1_555 1_555
C26 C25 1_555 1_555
C27 C26 1_555 1_555
H27 C27 1_555 1_555
C28 C23 1_555 1_555
C29 C28 1_555 1_555
C30 C29 1_555 1_555
C31 C30 1_555 1_555
H28 C31 1_555 1_555
H29 C31 1_555 1_555
C32 C31 1_555 1_555
H30 C32 1_555 1_555
H31 C32 1_555 1_555
C33 C32 1_555 1_555
C34 C33 1_555 1_555
H32 C34 1_555 1_555
H33 C34 1_555 1_555
C35 C34 1_555 1_555
C36 C29 1_555 1_555
C37 C33 1_555 1_555
C38 H34 1_555 1_555
H35 C38 1_555 1_555
H36 C38 1_555 1_555
C39 H37 1_555 1_555
H38 C39 1_555 1_555
H39 C39 1_555 1_555
C40 H40 1_555 1_555
H41 C40 1_555 1_555
H42 C40 1_555 1_555
N2 C21 1_555 1_555
O7 C35 1_555 1_555
O8 C25 1_555 1_555
O9 C26 1_555 1_555
O10 C30 1_555 1_555
O11 C37 1_555 1_555
O12 C37 1_555 1_555
C7 C8 1_555 1_555
C13 C16 1_555 1_555
C15 N1 1_555 1_555
C16 N1 1_555 1_555
C18 O6 1_555 1_555
C19 O2 1_555 1_555
C20 O3 1_555 1_555
C27 C28 1_555 1_555
C33 C36 1_555 1_555
C35 N2 1_555 1_555
C36 N2 1_555 1_555
C38 O12 1_555 1_555
C39 O9 1_555 1_555
C40 O8 1_555 1_555

#END
