
#######################################################################
#
#                 Cambridge Crystallographic Data Centre
#                                CCDC 
#
#######################################################################
#
# If this CIF has been generated from an entry in the Cambridge 
# Structural Database, then it will include bibliographic, chemical, 
# crystal, experimental, refinement or atomic coordinate data resulting 
# from the CCDC's data processing and validation procedures.
#
#######################################################################

data_WECZOV
_chemical_formula_moiety         'C23 H23 N1'
_chemical_name_systematic        
9-Ethyl-4,6-dimethyl-3-(4-methylphenyl)-9H-carbazole
_symmetry_cell_setting           monoclinic
_symmetry_space_group_name_H-M   'P 21/c'
_symmetry_Int_Tables_number      14
_space_group_name_Hall           '-P 2ybc'
loop_
_symmetry_equiv_pos_site_id
_symmetry_equiv_pos_as_xyz
1 x,y,z
2 -x,1/2+y,1/2-z
3 -x,-y,-z
4 x,1/2-y,1/2+z
_cell_length_a                   5.9542(3)
_cell_length_b                   15.7895(8)
_cell_length_c                   19.0069(9)
_cell_angle_alpha                90
_cell_angle_beta                 96.3270(10)
_cell_angle_gamma                90
_cell_volume                     1776.03
_exptl_crystal_colour            colorless
_exptl_crystal_description       block
_cell_formula_units_Z            4
loop_
_atom_site_label
_atom_site_type_symbol
_atom_site_fract_x
_atom_site_fract_y
_atom_site_fract_z
N1 N 0.4083(2) 0.63006(8) 0.26643(7)
C1 C 0.2397(3) 0.61076(10) 0.30845(8)
C2 C 0.1896(3) 0.64930(13) 0.37064(10)
H1 H 0.2708 0.6962 0.3889
C3 C 0.0169(4) 0.61620(14) 0.40440(10)
H2 H -0.0165 0.6411 0.4464
C4 C -0.1101(3) 0.54666(13) 0.37810(9)
C5 C -0.0624(3) 0.51009(11) 0.31518(8)
H3 H -0.1487 0.4647 0.2964
C6 C 0.1148(3) 0.54092(9) 0.27950(8)
C7 C 0.2120(2) 0.51783(9) 0.21524(7)
C8 C 0.3913(3) 0.57484(9) 0.20934(8)
C9 C 0.5235(3) 0.57042(10) 0.15382(8)
H4 H 0.6427 0.6078 0.1506
C10 C 0.4715(3) 0.50843(10) 0.10367(8)
H5 H 0.5573 0.5047 0.0658
C11 C 0.2940(2) 0.45064(9) 0.10749(7)
C12 C 0.1641(2) 0.45390(9) 0.16424(7)
C13 C 0.2495(2) 0.38581(9) 0.05041(7)
C14 C 0.4129(3) 0.32742(10) 0.03665(8)
H6 H 0.5551 0.3299 0.0623
C15 C 0.3687(3) 0.26551(11) -0.01454(9)
H7 H 0.4810 0.2267 -0.0221
C16 C 0.1613(3) 0.26022(11) -0.05470(8)
C17 C 0.0010(3) 0.32018(12) -0.04312(9)
H8 H -0.1381 0.3193 -0.0707
C18 C 0.0423(3) 0.38158(11) 0.00852(9)
H9 H -0.0699 0.4207 0.0154
C19 C -0.2972(4) 0.51140(16) 0.41715(12)
H10 H -0.3069 0.5436 0.4596
H11 H -0.2654 0.4533 0.4292
H12 H -0.4381 0.5150 0.3874
C20 C 0.5623(3) 0.70151(11) 0.27617(10)
H13 H 0.7037 0.6866 0.2584
H14 H 0.5941 0.7134 0.3263
C21 C 0.4679(3) 0.77989(12) 0.23876(13)
H15 H 0.5747 0.8254 0.2468
H16 H 0.3291 0.7954 0.2567
H17 H 0.4397 0.7689 0.1889
C22 C -0.0138(3) 0.38897(10) 0.17496(8)
H18 H -0.0276 0.3501 0.1359
H19 H -0.1559 0.4168 0.1777
H20 H 0.0286 0.3586 0.2181
C23 C 0.1106(4) 0.19062(16) -0.10862(11)
H21 H 0.2421 0.1557 -0.1100
H22 H 0.0698 0.2152 -0.1544
H23 H -0.0123 0.1567 -0.0957
loop_
_geom_bond_atom_site_label_1
_geom_bond_atom_site_label_2
_geom_bond_site_symmetry_1
_geom_bond_site_symmetry_2
N1 C1 1_555 1_555
C1 C2 1_555 1_555
C2 H1 1_555 1_555
C3 C2 1_555 1_555
H2 C3 1_555 1_555
C4 C3 1_555 1_555
C5 C4 1_555 1_555
H3 C5 1_555 1_555
C6 C1 1_555 1_555
C7 C6 1_555 1_555
C8 N1 1_555 1_555
C9 C8 1_555 1_555
H4 C9 1_555 1_555
C10 C9 1_555 1_555
H5 C10 1_555 1_555
C11 C10 1_555 1_555
C12 C7 1_555 1_555
C13 C11 1_555 1_555
C14 C13 1_555 1_555
H6 C14 1_555 1_555
C15 C14 1_555 1_555
H7 C15 1_555 1_555
C16 C15 1_555 1_555
C17 C16 1_555 1_555
H8 C17 1_555 1_555
C18 C13 1_555 1_555
H9 C18 1_555 1_555
C19 C4 1_555 1_555
H10 C19 1_555 1_555
H11 C19 1_555 1_555
H12 C19 1_555 1_555
C20 N1 1_555 1_555
H13 C20 1_555 1_555
H14 C20 1_555 1_555
C21 C20 1_555 1_555
H15 C21 1_555 1_555
H16 C21 1_555 1_555
H17 C21 1_555 1_555
C22 C12 1_555 1_555
H18 C22 1_555 1_555
H19 C22 1_555 1_555
H20 C22 1_555 1_555
C23 C16 1_555 1_555
H21 C23 1_555 1_555
H22 C23 1_555 1_555
H23 C23 1_555 1_555
C5 C6 1_555 1_555
C7 C8 1_555 1_555
C11 C12 1_555 1_555
C17 C18 1_555 1_555

#END
