
#######################################################################
#
#                 Cambridge Crystallographic Data Centre
#                                CCDC 
#
#######################################################################
#
# If this CIF has been generated from an entry in the Cambridge 
# Structural Database, then it will include bibliographic, chemical, 
# crystal, experimental, refinement or atomic coordinate data resulting 
# from the CCDC's data processing and validation procedures.
#
#######################################################################

data_WECZUB
_chemical_formula_moiety         'C11 H12 Cl1 N1 O3'
_chemical_name_systematic        4-(2-Chlorophenyl)-5-nitropentan-2-one
_symmetry_cell_setting           orthorhombic
_symmetry_space_group_name_H-M   'P b c a'
_symmetry_Int_Tables_number      61
_space_group_name_Hall           '-P 2ac 2ab'
loop_
_symmetry_equiv_pos_site_id
_symmetry_equiv_pos_as_xyz
1 x,y,z
2 1/2-x,-y,1/2+z
3 -x,1/2+y,1/2-z
4 1/2+x,1/2-y,-z
5 -x,-y,-z
6 1/2+x,y,1/2-z
7 x,1/2-y,1/2+z
8 1/2-x,1/2+y,z
_cell_length_a                   7.7179(11)
_cell_length_b                   11.2094(16)
_cell_length_c                   27.320(4)
_cell_angle_alpha                90
_cell_angle_beta                 90
_cell_angle_gamma                90
_cell_volume                     2363.54
_exptl_crystal_colour            colorless
_exptl_crystal_description       block
_cell_formula_units_Z            8
loop_
_atom_site_label
_atom_site_type_symbol
_atom_site_fract_x
_atom_site_fract_y
_atom_site_fract_z
C1 C 0.7647(4) 0.2025(3) 0.08563(12)
H1 H 0.7811 0.1970 0.0505
H2 H 0.7293 0.1246 0.0974
C2 C 0.9354(4) 0.2377(3) 0.10984(11)
H3 H 0.9720 0.3146 0.0963
C3 C 1.0748(4) 0.1458(3) 0.09813(11)
H4 H 1.1752 0.1621 0.1184
H5 H 1.0317 0.0675 0.1070
C4 C 1.1313(5) 0.1429(3) 0.04551(12)
C5 C 1.2527(7) 0.0456(5) 0.03117(16)
H6 H 1.2798 0.0525 -0.0030
H7 H 1.1993 -0.0304 0.0373
H8 H 1.3573 0.0519 0.0500
C6 C 0.9141(4) 0.2517(3) 0.16472(10)
C7 C 0.9686(4) 0.3524(3) 0.18970(11)
C8 C 0.9495(4) 0.3647(4) 0.23996(13)
H9 H 0.9856 0.4341 0.2556
C9 C 0.8769(5) 0.2737(4) 0.26638(13)
H10 H 0.8660 0.2803 0.3002
C10 C 0.8199(5) 0.1722(4) 0.24278(13)
H11 H 0.7687 0.1108 0.2605
C11 C 0.8392(4) 0.1622(3) 0.19289(12)
H12 H 0.8007 0.0931 0.1775
Cl1 Cl 1.06472(16) 0.46997(9) 0.15837(4)
N1 N 0.6259(4) 0.2913(3) 0.09647(10)
O1 O 0.6673(4) 0.3956(3) 0.09769(13)
O2 O 0.4803(4) 0.2549(4) 0.10213(12)
O3 O 1.0824(4) 0.2164(3) 0.01644(11)
loop_
_geom_bond_atom_site_label_1
_geom_bond_atom_site_label_2
_geom_bond_site_symmetry_1
_geom_bond_site_symmetry_2
C1 H1 1_555 1_555
H2 C1 1_555 1_555
C2 C1 1_555 1_555
H3 C2 1_555 1_555
C3 C2 1_555 1_555
H4 C3 1_555 1_555
H5 C3 1_555 1_555
C4 C3 1_555 1_555
C5 C4 1_555 1_555
H6 C5 1_555 1_555
H7 C5 1_555 1_555
H8 C5 1_555 1_555
C6 C2 1_555 1_555
C7 C6 1_555 1_555
C8 C7 1_555 1_555
H9 C8 1_555 1_555
C9 C8 1_555 1_555
H10 C9 1_555 1_555
C10 C9 1_555 1_555
H11 C10 1_555 1_555
C11 C6 1_555 1_555
H12 C11 1_555 1_555
Cl1 C7 1_555 1_555
N1 C1 1_555 1_555
O1 N1 1_555 1_555
O2 N1 1_555 1_555
O3 C4 1_555 1_555
C10 C11 1_555 1_555

#END
