
#######################################################################
#
#                 Cambridge Crystallographic Data Centre
#                                CCDC 
#
#######################################################################
#
# If this CIF has been generated from an entry in the Cambridge 
# Structural Database, then it will include bibliographic, chemical, 
# crystal, experimental, refinement or atomic coordinate data resulting 
# from the CCDC's data processing and validation procedures.
#
#######################################################################

data_WEDBUF
_chemical_name_common            4-amino-2-anilinopyridine
_chemical_formula_moiety         'C11 H11 N3'
_chemical_name_systematic        N^2^-phenylpyridine-2,4-diamine
_symmetry_cell_setting           monoclinic
_symmetry_space_group_name_H-M   'C c'
_symmetry_Int_Tables_number      9
_space_group_name_Hall           'C -2yc'
loop_
_symmetry_equiv_pos_site_id
_symmetry_equiv_pos_as_xyz
1 x,y,z
2 x,-y,1/2+z
3 1/2+x,1/2+y,z
4 1/2+x,1/2-y,1/2+z
_cell_length_a                   5.934(4)
_cell_length_b                   23.689(15)
_cell_length_c                   13.716(9)
_cell_angle_alpha                90
_cell_angle_beta                 99.146(7)
_cell_angle_gamma                90
_cell_volume                     1903.55
_exptl_crystal_colour            'off white'
_exptl_crystal_description       block
_chemical_melting_point          '369 K'
_cell_formula_units_Z            8
loop_
_atom_site_label
_atom_site_type_symbol
_atom_site_fract_x
_atom_site_fract_y
_atom_site_fract_z
N1 N 0.387(4) -0.3547(8) 0.6855(19)
N2 N -0.1694(16) -0.4603(4) 0.7078(7)
H1 H -0.1784 -0.4813 0.7583
H2 H -0.2794 -0.4599 0.6588
N3 N 0.203(3) -0.3289(9) 0.5285(16)
H3 H 0.1022 -0.3394 0.4796
C1 C 0.204(6) -0.359(2) 0.617(4)
C2 C 0.019(4) -0.3936(13) 0.622(2)
H4 H -0.1046 -0.3941 0.5709
C3 C 0.020(4) -0.4276(13) 0.706(2)
C4 C 0.209(4) -0.4232(9) 0.7769(18)
H5 H 0.2203 -0.4440 0.8350
C5 C 0.381(4) -0.3880(7) 0.7611(19)
H6 H 0.5092 -0.3876 0.8099
C6 C 0.344(6) -0.2838(17) 0.509(3)
C7 C 0.264(5) -0.2488(11) 0.4283(19)
H7 H 0.1220 -0.2561 0.3910
C8 C 0.388(4) -0.2050(10) 0.4038(17)
H8 H 0.3214 -0.1794 0.3564
C9 C 0.617(5) -0.1973(12) 0.4487(18)
H9 H 0.7053 -0.1690 0.4271
C10 C 0.706(4) -0.2325(10) 0.5250(17)
H10 H 0.8530 -0.2266 0.5591
C11 C 0.570(4) -0.2782(11) 0.5508(15)
H11 H 0.6352 -0.3048 0.5966
N7 N 0.8824(10) -0.4331(2) 0.3424(4)
N8 N 0.7565(14) -0.2688(3) 0.2408(5)
H23 H 0.6433 -0.2500 0.2564
H24 H 0.8444 -0.2536 0.2040
N9 N 0.5617(10) -0.4272(2) 0.4219(4)
H25 H 0.4499 -0.4058 0.4311
C23 C 0.7075(12) -0.4027(3) 0.3642(5)
C24 C 0.6606(12) -0.3475(3) 0.3324(5)
H26 H 0.5379 -0.3280 0.3506
C25 C 0.7967(14) -0.3227(3) 0.2744(6)
C26 C 0.9820(13) -0.3535(4) 0.2507(5)
H27 H 1.0801 -0.3379 0.2114
C27 C 1.0135(13) -0.4060(4) 0.2864(6)
H28 H 1.1388 -0.4256 0.2708
C28 C 0.5606(12) -0.4792(3) 0.4676(5)
C29 C 0.3773(13) -0.4910(3) 0.5168(6)
H29 H 0.2618 -0.4643 0.5157
C30 C 0.3620(15) -0.5406(4) 0.5669(6)
H30 H 0.2374 -0.5471 0.5988
C31 C 0.5270(17) -0.5801(4) 0.5701(7)
H31 H 0.5161 -0.6137 0.6041
C32 C 0.7117(15) -0.5705(3) 0.5228(7)
H32 H 0.8249 -0.5978 0.5249
C33 C 0.7306(12) -0.5201(3) 0.4719(6)
H33 H 0.8567 -0.5139 0.4408
N4? N 0.536(5) -0.2771(14) 0.5759(17)
N5? N 0.362(3) -0.1862(7) 0.3149(12)
H12? H 0.4557 -0.1656 0.2886
H13? H 0.2279 -0.1929 0.2831
N6? N 0.173(5) -0.3185(13) 0.539(2)
H14? H 0.0429 -0.3164 0.5014
C12? C 0.341(9) -0.282(3) 0.514(4)
C13? C 0.263(7) -0.2425(18) 0.442(3)
H15? H 0.1085 -0.2389 0.4172
C14? C 0.427(5) -0.2083(15) 0.407(2)
C15? C 0.630(6) -0.203(2) 0.470(3)
H16? H 0.7341 -0.1748 0.4614
C16? C 0.675(5) -0.2405(17) 0.547(2)
H17? H 0.8227 -0.2400 0.5817
C17? C 0.182(8) -0.358(3) 0.616(5)
C18? C -0.018(7) -0.388(2) 0.623(4)
H18? H -0.1469 -0.3822 0.5753
C19? C -0.030(6) -0.425(2) 0.696(3)
H19? H -0.1647 -0.4452 0.6970
C20? C 0.159(6) -0.4351(14) 0.770(3)
H20? H 0.1482 -0.4603 0.8207
C21? C 0.360(6) -0.4069(11) 0.766(3)
H21? H 0.4864 -0.4127 0.8144
C22? C 0.370(6) -0.3684(16) 0.686(3)
H22? H 0.5068 -0.3500 0.6821
loop_
_geom_bond_atom_site_label_1
_geom_bond_atom_site_label_2
_geom_bond_site_symmetry_1
_geom_bond_site_symmetry_2
N1 C1 1_555 1_555
N2 H1 1_555 1_555
H2 N2 1_555 1_555
N3 H3 1_555 1_555
C1 N3 1_555 1_555
C2 C1 1_555 1_555
H4 C2 1_555 1_555
C3 N2 1_555 1_555
C4 C3 1_555 1_555
H5 C4 1_555 1_555
C5 N1 1_555 1_555
H6 C5 1_555 1_555
C6 N3 1_555 1_555
C7 C6 1_555 1_555
H7 C7 1_555 1_555
C8 C7 1_555 1_555
H8 C8 1_555 1_555
C9 C8 1_555 1_555
H9 C9 1_555 1_555
C10 C9 1_555 1_555
H10 C10 1_555 1_555
C11 C6 1_555 1_555
H11 C11 1_555 1_555
N7 C23 1_555 1_555
N8 H23 1_555 1_555
H24 N8 1_555 1_555
N9 H25 1_555 1_555
C23 N9 1_555 1_555
C24 C23 1_555 1_555
H26 C24 1_555 1_555
C25 N8 1_555 1_555
C26 C25 1_555 1_555
H27 C26 1_555 1_555
C27 N7 1_555 1_555
H28 C27 1_555 1_555
C28 N9 1_555 1_555
C29 C28 1_555 1_555
H29 C29 1_555 1_555
C30 C29 1_555 1_555
H30 C30 1_555 1_555
C31 C30 1_555 1_555
H31 C31 1_555 1_555
C32 C31 1_555 1_555
H32 C32 1_555 1_555
C33 C28 1_555 1_555
H33 C33 1_555 1_555
C2 C3 1_555 1_555
C4 C5 1_555 1_555
C10 C11 1_555 1_555
C24 C25 1_555 1_555
C26 C27 1_555 1_555
C32 C33 1_555 1_555

#END
