
#######################################################################
#
#                 Cambridge Crystallographic Data Centre
#                                CCDC 
#
#######################################################################
#
# If this CIF has been generated from an entry in the Cambridge 
# Structural Database, then it will include bibliographic, chemical, 
# crystal, experimental, refinement or atomic coordinate data resulting 
# from the CCDC's data processing and validation procedures.
#
#######################################################################

data_WEDHUL
_chemical_formula_moiety         'C18 H19 Cl1 N2 O1'
_chemical_name_systematic        
9-chloro-8-methyl-5,6,8,9,10,11,11a,12-octahydro-6,10-methanoindolo[3,2-b]quinolizine-11-carbaldehyde
_symmetry_cell_setting           orthorhombic
_symmetry_space_group_name_H-M   'P 21 21 21'
_symmetry_Int_Tables_number      19
_space_group_name_Hall           'P 2ac 2ab'
loop_
_symmetry_equiv_pos_site_id
_symmetry_equiv_pos_as_xyz
1 x,y,z
2 1/2-x,-y,1/2+z
3 1/2+x,1/2-y,-z
4 -x,1/2+y,1/2-z
_cell_length_a                   7.9367(5)
_cell_length_b                   11.4018(5)
_cell_length_c                   16.9261(8)
_cell_angle_alpha                90
_cell_angle_beta                 90
_cell_angle_gamma                90
_cell_volume                     1531.69
_exptl_crystal_colour            'light colorless'
_exptl_crystal_description       block
_cell_formula_units_Z            4
loop_
_atom_site_label
_atom_site_type_symbol
_atom_site_fract_x
_atom_site_fract_y
_atom_site_fract_z
Cl1 Cl 0.97508(19) 0.74437(12) 0.00261(10)
O1 O 0.7639(7) 0.8184(4) -0.1771(3)
N1 N 0.9978(6) 1.3339(3) -0.0910(2)
H1 H 1.0869 1.3649 -0.0710
N2 N 0.8721(5) 1.0600(3) 0.0108(2)
C1 C 0.9345(7) 1.2232(4) -0.0735(3)
C2 C 1.0091(6) 1.1417(4) -0.0134(3)
H2 H 1.0432 1.1878 0.0327
C3 C 0.8051(6) 1.0022(4) -0.0614(3)
H3 H 0.7326 0.9370 -0.0453
C4 C 0.6983(7) 1.0902(4) -0.1086(3)
H4 H 0.6733 1.0586 -0.1605
H5 H 0.5927 1.1045 -0.0814
C5 C 0.7942(7) 1.2017(4) -0.1165(3)
C6 C 0.7639(7) 1.3033(4) -0.1643(3)
C7 C 0.6410(8) 1.3337(5) -0.2191(3)
H6 H 0.5573 1.2806 -0.2332
C8 C 0.6458(9) 1.4442(6) -0.2521(3)
H7 H 0.5661 1.4646 -0.2901
C9 C 0.7671(9) 1.5261(5) -0.2300(3)
H8 H 0.7626 1.6015 -0.2509
C10 C 0.8941(7) 1.4976(5) -0.1775(3)
H9 H 0.9770 1.5516 -0.1640
C11 C 0.8931(7) 1.3849(5) -0.1458(3)
C12 C 1.1646(7) 1.0709(4) -0.0433(3)
H10 H 1.2098 1.1068 -0.0908
H11 H 1.2521 1.0706 -0.0033
C13 C 1.1082(7) 0.9442(4) -0.0611(3)
H12 H 1.1968 0.9006 -0.0887
C14 C 0.9485(7) 0.9533(4) -0.1119(3)
H13 H 0.9725 1.0138 -0.1515
C15 C 0.9046(8) 0.8442(5) -0.1584(3)
H14 H 0.9917 0.7944 -0.1734
C16 C 0.8222(8) 0.9153(5) 0.1196(3)
H15 H 0.7725 0.9742 0.1528
H16 H 0.8769 0.8575 0.1518
H17 H 0.7358 0.8785 0.0885
C17 C 0.9519(7) 0.9726(4) 0.0646(2)
H18 H 1.0268 1.0178 0.0991
C18 C 1.0678(7) 0.8884(4) 0.0181(3)
H19 H 1.1731 0.8787 0.0476
loop_
_geom_bond_atom_site_label_1
_geom_bond_atom_site_label_2
_geom_bond_site_symmetry_1
_geom_bond_site_symmetry_2
Cl1 C18 1_555 1_555
O1 C15 1_555 1_555
N1 H1 1_555 1_555
N2 C2 1_555 1_555
C1 N1 1_555 1_555
C2 C1 1_555 1_555
H2 C2 1_555 1_555
C3 N2 1_555 1_555
H3 C3 1_555 1_555
C4 C3 1_555 1_555
H4 C4 1_555 1_555
H5 C4 1_555 1_555
C5 C1 1_555 1_555
C6 C5 1_555 1_555
C7 C6 1_555 1_555
H6 C7 1_555 1_555
C8 C7 1_555 1_555
H7 C8 1_555 1_555
C9 C8 1_555 1_555
H8 C9 1_555 1_555
C10 C9 1_555 1_555
H9 C10 1_555 1_555
C11 N1 1_555 1_555
C12 C2 1_555 1_555
H10 C12 1_555 1_555
H11 C12 1_555 1_555
C13 C12 1_555 1_555
H12 C13 1_555 1_555
C14 C3 1_555 1_555
H13 C14 1_555 1_555
C15 C14 1_555 1_555
H14 C15 1_555 1_555
C16 H15 1_555 1_555
H16 C16 1_555 1_555
H17 C16 1_555 1_555
C17 N2 1_555 1_555
H18 C17 1_555 1_555
C18 C13 1_555 1_555
H19 C18 1_555 1_555
C4 C5 1_555 1_555
C6 C11 1_555 1_555
C10 C11 1_555 1_555
C13 C14 1_555 1_555
C16 C17 1_555 1_555
C17 C18 1_555 1_555

#END
