
#######################################################################
#
#                 Cambridge Crystallographic Data Centre
#                                CCDC 
#
#######################################################################
#
# If this CIF has been generated from an entry in the Cambridge 
# Structural Database, then it will include bibliographic, chemical, 
# crystal, experimental, refinement or atomic coordinate data resulting 
# from the CCDC's data processing and validation procedures.
#
#######################################################################

data_WEDQEE
_chemical_formula_moiety         'C28 H28 N2 O2 S1'
_chemical_name_systematic        
11-ethynyl-6-methyl-5-[(4-methylphenyl)sulfonyl]-10b-propyl-5a,6,10b,11-tetrahydro-5H-indolo[2,3-b]quinoline
_symmetry_cell_setting           monoclinic
_symmetry_space_group_name_H-M   'P 21/c'
_symmetry_Int_Tables_number      14
_space_group_name_Hall           '-P 2ybc'
loop_
_symmetry_equiv_pos_site_id
_symmetry_equiv_pos_as_xyz
1 x,y,z
2 -x,1/2+y,1/2-z
3 -x,-y,-z
4 x,1/2-y,1/2+z
_cell_length_a                   8.4392(13)
_cell_length_b                   16.048(2)
_cell_length_c                   18.092(3)
_cell_angle_alpha                90
_cell_angle_beta                 92.505(2)
_cell_angle_gamma                90
_cell_volume                     2447.9
_exptl_crystal_colour            colorless
_exptl_crystal_description       block
_cell_formula_units_Z            4
loop_
_atom_site_label
_atom_site_type_symbol
_atom_site_fract_x
_atom_site_fract_y
_atom_site_fract_z
C1 C 0.5788(3) 0.46969(13) 0.67090(12)
C2 C 0.4256(3) 0.47763(14) 0.64097(13)
H1 H 0.4081 0.4845 0.5902
C3 C 0.2997(3) 0.47528(15) 0.68659(15)
H2 H 0.1972 0.4804 0.6661
C4 C 0.3216(3) 0.46553(16) 0.76182(16)
C5 C 0.4753(4) 0.45773(17) 0.79027(15)
H3 H 0.4928 0.4512 0.8411
C6 C 0.6033(3) 0.45932(16) 0.74585(14)
H4 H 0.7056 0.4534 0.7664
C7 C 0.1836(4) 0.4646(2) 0.81184(18)
H5 H 0.1945 0.4185 0.8455
H6 H 0.0865 0.4590 0.7826
H7 H 0.1818 0.5158 0.8393
C8 C 0.7763(3) 0.30614(14) 0.64482(12)
C9 C 0.6538(3) 0.25019(13) 0.65415(11)
C10 C 0.6724(3) 0.18966(15) 0.70772(13)
H8 H 0.5917 0.1512 0.7141
C11 C 0.8082(4) 0.18556(18) 0.75162(16)
H9 H 0.8178 0.1457 0.7888
C12 C 0.9300(4) 0.23978(19) 0.74105(16)
H10 H 1.0228 0.2359 0.7705
C13 C 0.9159(3) 0.30057(17) 0.68660(14)
H11 H 0.9994 0.3368 0.6785
C14 C 0.5112(2) 0.26027(14) 0.60168(12)
H12 H 0.4672 0.3154 0.6118
C15 C 0.5687(2) 0.26385(13) 0.52100(11)
C16 C 0.6885(2) 0.33735(14) 0.51520(11)
H13 H 0.6370 0.3835 0.4880
C17 C 0.3846(3) 0.20123(17) 0.61263(13)
C18 C 0.2780(4) 0.1562(2) 0.62249(16)
H14 H 0.1935 0.1205 0.6303
C19 C 0.4276(2) 0.27495(15) 0.46542(12)
H15 H 0.3573 0.2275 0.4698
H16 H 0.3692 0.3243 0.4791
C20 C 0.4698(3) 0.28322(18) 0.38495(13)
H17 H 0.5294 0.3342 0.3788
H18 H 0.5370 0.2369 0.3720
C21 C 0.3252(3) 0.28451(19) 0.33344(14)
H19 H 0.2668 0.2337 0.3387
H20 H 0.3570 0.2897 0.2834
H21 H 0.2593 0.3310 0.3454
C22 C 0.9562(3) 0.35184(18) 0.46217(16)
H22 H 1.0299 0.3427 0.5033
H23 H 0.9301 0.4100 0.4591
H24 H 1.0033 0.3346 0.4173
C23 C 0.8104(3) 0.21804(16) 0.47303(12)
C24 C 0.6690(2) 0.18964(14) 0.50139(11)
C25 C 0.6379(3) 0.10633(15) 0.50468(13)
H25 H 0.5438 0.0875 0.5238
C26 C 0.7474(3) 0.05019(17) 0.47941(15)
H26 H 0.7270 -0.0067 0.4813
C27 C 0.8847(4) 0.07815(19) 0.45186(16)
H27 H 0.9570 0.0397 0.4349
C28 C 0.9203(3) 0.16189(19) 0.44832(14)
H28 H 1.0155 0.1800 0.4299
N1 N 0.8144(2) 0.30422(13) 0.47237(10)
N2 N 0.7517(2) 0.36792(11) 0.58777(9)
O1 O 0.87806(19) 0.48658(10) 0.65545(10)
O2 O 0.6995(2) 0.51162(9) 0.54619(9)
S1 S 0.73852(7) 0.46568(4) 0.61228(3)
loop_
_geom_bond_atom_site_label_1
_geom_bond_atom_site_label_2
_geom_bond_site_symmetry_1
_geom_bond_site_symmetry_2
C1 C2 1_555 1_555
C2 H1 1_555 1_555
C3 C2 1_555 1_555
H2 C3 1_555 1_555
C4 C3 1_555 1_555
C5 C4 1_555 1_555
H3 C5 1_555 1_555
C6 C1 1_555 1_555
H4 C6 1_555 1_555
C7 C4 1_555 1_555
H5 C7 1_555 1_555
H6 C7 1_555 1_555
H7 C7 1_555 1_555
C8 C9 1_555 1_555
C9 C10 1_555 1_555
C10 H8 1_555 1_555
C11 C10 1_555 1_555
H9 C11 1_555 1_555
C12 C11 1_555 1_555
H10 C12 1_555 1_555
C13 C8 1_555 1_555
H11 C13 1_555 1_555
C14 C9 1_555 1_555
H12 C14 1_555 1_555
C15 C14 1_555 1_555
C16 C15 1_555 1_555
H13 C16 1_555 1_555
C17 C14 1_555 1_555
C18 C17 1_555 1_555
H14 C18 1_555 1_555
C19 C15 1_555 1_555
H15 C19 1_555 1_555
H16 C19 1_555 1_555
C20 C19 1_555 1_555
H17 C20 1_555 1_555
H18 C20 1_555 1_555
C21 C20 1_555 1_555
H19 C21 1_555 1_555
H20 C21 1_555 1_555
H21 C21 1_555 1_555
C22 H22 1_555 1_555
H23 C22 1_555 1_555
H24 C22 1_555 1_555
C23 C24 1_555 1_555
C24 C15 1_555 1_555
C25 C24 1_555 1_555
H25 C25 1_555 1_555
C26 C25 1_555 1_555
H26 C26 1_555 1_555
C27 C26 1_555 1_555
H27 C27 1_555 1_555
C28 C23 1_555 1_555
H28 C28 1_555 1_555
N1 C16 1_555 1_555
N2 C8 1_555 1_555
O1 S1 1_555 1_555
O2 S1 1_555 1_555
S1 C1 1_555 1_555
C5 C6 1_555 1_555
C12 C13 1_555 1_555
C16 N2 1_555 1_555
C22 N1 1_555 1_555
C23 N1 1_555 1_555
C27 C28 1_555 1_555
N2 S1 1_555 1_555

#END
