
#######################################################################
#
#                 Cambridge Crystallographic Data Centre
#                                CCDC 
#
#######################################################################
#
# If this CIF has been generated from an entry in the Cambridge 
# Structural Database, then it will include bibliographic, chemical, 
# crystal, experimental, refinement or atomic coordinate data resulting 
# from the CCDC's data processing and validation procedures.
#
#######################################################################

data_WEGHUM
_chemical_formula_moiety         'C35 H41 N1 O6'
_chemical_name_systematic        
(-)-(aS,1'S,1''S,4''R)-N,N-di-isopropyl-8-methoxy-2-(1'-phenyl-1'-(4'',7'',7''-trimethyl-3''-oxo-2''-oxabicyclo(2.2.1)-heptanecarbonyloxy)methyl)-1-naphthamide
_symmetry_cell_setting           monoclinic
_symmetry_space_group_name_H-M   'P 21'
_symmetry_Int_Tables_number      4
_space_group_name_Hall           'P 2yb'
loop_
_symmetry_equiv_pos_site_id
_symmetry_equiv_pos_as_xyz
1 x,y,z
2 -x,1/2+y,-z
_cell_length_a                   7.9142(6)
_cell_length_b                   15.3700(13)
_cell_length_c                   13.0993(11)
_cell_angle_alpha                90
_cell_angle_beta                 99.019(2)
_cell_angle_gamma                90
_cell_volume                     1573.71
_exptl_crystal_colour            colorless
_exptl_crystal_description       block
_chemical_melting_point          226-227deg.C
_cell_formula_units_Z            2
loop_
_atom_site_label
_atom_site_type_symbol
_atom_site_fract_x
_atom_site_fract_y
_atom_site_fract_z
O1 O 0.8005(2) 0.15194(18) 0.1786(2)
O2 O 0.7648(3) 0.18743(19) -0.0509(2)
O3 O 0.8011(2) 0.30741(16) 0.37155(17)
O4 O 0.6773(2) 0.19304(18) 0.43995(18)
O5 O 0.9289(2) 0.19036(17) 0.60485(17)
O6 O 1.1052(3) 0.12291(18) 0.73066(18)
N1 N 0.5235(3) 0.1715(2) 0.1040(2)
C1 C 0.7284(4) 0.2936(2) 0.1172(2)
C2 C 0.7986(4) 0.3245(2) 0.0299(2)
C3 C 0.8149(4) 0.2708(2) -0.0583(2)
C4 C 0.8794(4) 0.3041(2) -0.1415(2)
C5 C 0.9343(4) 0.3922(2) -0.1409(2)
C6 C 0.9244(4) 0.4446(2) -0.0591(2)
C7 C 0.8540(4) 0.4112(2) 0.0272(2)
C8 C 0.8397(4) 0.4665(2) 0.1120(2)
C9 C 0.7712(4) 0.4379(2) 0.1941(2)
C10 C 0.7157(3) 0.3508(2) 0.1980(2)
C11 C 0.6880(4) 0.1989(2) 0.1332(2)
C12 C 0.4767(4) 0.0796(2) 0.1192(3)
C13 C 0.4930(5) 0.0563(2) 0.2337(2)
C14 C 0.5724(5) 0.0160(2) 0.0609(3)
C15 C 0.3890(4) 0.2301(2) 0.0501(2)
C16 C 0.2302(4) 0.2314(2) 0.1028(2)
C17 C 0.3429(4) 0.2086(2) -0.0643(2)
C18 C 0.7790(5) 0.1303(2) -0.1359(2)
C19 C 0.6501(4) 0.3202(2) 0.2945(2)
C20 C 0.5308(4) 0.3853(2) 0.3360(2)
C21 C 0.3856(4) 0.4139(2) 0.2720(2)
C22 C 0.2706(4) 0.4697(2) 0.3092(2)
C23 C 0.3014(5) 0.4967(2) 0.4102(3)
C24 C 0.4449(4) 0.4692(2) 0.4748(2)
C25 C 0.5601(4) 0.4138(2) 0.4385(2)
C26 C 0.7949(4) 0.2427(2) 0.4404(2)
C27 C 0.9587(4) 0.2434(2) 0.5168(2)
C28 C 1.0241(4) 0.3305(2) 0.5610(2)
C29 C 1.2048(4) 0.3049(2) 0.6185(2)
C30 C 1.2186(4) 0.2073(2) 0.5962(2)
C31 C 1.0867(4) 0.1663(2) 0.6542(2)
C32 C 1.1174(4) 0.1983(2) 0.4838(2)
C33 C 1.1959(4) 0.2482(2) 0.4018(2)
C34 C 1.0857(4) 0.1050(2) 0.4478(2)
C35 C 1.3942(4) 0.1678(2) 0.6216(2)
H1 H 0.8875 0.2691 -0.1984
H2 H 0.9784 0.4137 -0.1977
H3 H 0.9613 0.5020 -0.0597
H4 H 0.8780 0.5236 0.1112
H5 H 0.7600 0.4758 0.2479
H6 H 0.3613 0.0742 0.0923
H7 H 0.4341 0.2861 0.0541
H8 H 0.5936 0.2674 0.2810
H9 H 0.3660 0.3968 0.2031
H10 H 0.1725 0.4881 0.2660
H11 H 0.2241 0.5335 0.4353
H12 H 0.4650 0.4884 0.5430
H13 H 0.6571 0.3957 0.4828
H14 H 1.2940 0.3373 0.5922
H15 H 1.2132 0.3147 0.6923
H16 H 1.0320 0.3729 0.5071
H17 H 0.9523 0.3533 0.6084
H18 H 1.4672 0.1913 0.5764
H19 H 1.2954 0.2182 0.3866
H20 H 1.0679 0.0695 0.5054
H21 H 1.1136 0.2532 0.3399
H22 H 1.2278 0.3052 0.4279
H23 H 0.9856 0.1031 0.3959
H24 H 1.1823 0.0835 0.4193
H25 H 1.4419 0.1803 0.6920
H26 H 1.3851 0.1059 0.6121
H27 H 0.8969 0.1267 -0.1448
H28 H 0.5313 -0.0419 0.0693
H29 H 0.4258 0.0056 0.2424
H30 H 0.3192 0.1475 -0.0722
H31 H 0.1605 0.1813 0.0827
H32 H 0.6109 0.0449 0.2606
H33 H 0.4531 0.1044 0.2702
H34 H 0.5531 0.0312 -0.0111
H35 H 0.6926 0.0187 0.0868
H36 H 0.2649 0.2311 0.1764
H37 H 0.1657 0.2833 0.0828
H38 H 0.2435 0.2412 -0.0935
H39 H 0.4369 0.2234 -0.0992
H40 H 0.7384 0.0734 -0.1215
H41 H 0.7122 0.1525 -0.1980
loop_
_geom_bond_atom_site_label_1
_geom_bond_atom_site_label_2
_geom_bond_site_symmetry_1
_geom_bond_site_symmetry_2
O1 C11 1_555 1_555
O2 C3 1_555 1_555
O3 C19 1_555 1_555
O4 C26 1_555 1_555
O5 C27 1_555 1_555
O6 C31 1_555 1_555
N1 C11 1_555 1_555
C1 C2 1_555 1_555
C2 C3 1_555 1_555
C3 C4 1_555 1_555
C4 C5 1_555 1_555
C5 C6 1_555 1_555
C6 C7 1_555 1_555
C7 C2 1_555 1_555
C8 C7 1_555 1_555
C9 C8 1_555 1_555
C10 C1 1_555 1_555
C11 C1 1_555 1_555
C12 N1 1_555 1_555
C13 C12 1_555 1_555
C14 C12 1_555 1_555
C15 N1 1_555 1_555
C16 C15 1_555 1_555
C17 C15 1_555 1_555
C18 O2 1_555 1_555
C19 C10 1_555 1_555
C20 C19 1_555 1_555
C21 C20 1_555 1_555
C22 C21 1_555 1_555
C23 C22 1_555 1_555
C24 C23 1_555 1_555
C25 C20 1_555 1_555
C26 O3 1_555 1_555
C27 C26 1_555 1_555
C28 C27 1_555 1_555
C29 C28 1_555 1_555
C30 C29 1_555 1_555
C31 O5 1_555 1_555
C32 C27 1_555 1_555
C33 C32 1_555 1_555
C34 C32 1_555 1_555
C35 C30 1_555 1_555
H1 C4 1_555 1_555
H2 C5 1_555 1_555
H3 C6 1_555 1_555
H4 C8 1_555 1_555
H5 C9 1_555 1_555
H6 C12 1_555 1_555
H7 C15 1_555 1_555
H8 C19 1_555 1_555
H9 C21 1_555 1_555
H10 C22 1_555 1_555
H11 C23 1_555 1_555
H12 C24 1_555 1_555
H13 C25 1_555 1_555
H14 C29 1_555 1_555
H15 C29 1_555 1_555
H16 C28 1_555 1_555
H17 C28 1_555 1_555
H18 C35 1_555 1_555
H19 C33 1_555 1_555
H20 C34 1_555 1_555
H21 C33 1_555 1_555
H22 C33 1_555 1_555
H23 C34 1_555 1_555
H24 C34 1_555 1_555
H25 C35 1_555 1_555
H26 C35 1_555 1_555
H27 C18 1_555 1_555
H28 C14 1_555 1_555
H29 C13 1_555 1_555
H30 C17 1_555 1_555
H31 C16 1_555 1_555
H32 C13 1_555 1_555
H33 C13 1_555 1_555
H34 C14 1_555 1_555
H35 C14 1_555 1_555
H36 C16 1_555 1_555
H37 C16 1_555 1_555
H38 C17 1_555 1_555
H39 C17 1_555 1_555
H40 C18 1_555 1_555
H41 C18 1_555 1_555
C9 C10 1_555 1_555
C24 C25 1_555 1_555
C30 C31 1_555 1_555
C30 C32 1_555 1_555

#END
