
#######################################################################
#
#                 Cambridge Crystallographic Data Centre
#                                CCDC 
#
#######################################################################
#
# If this CIF has been generated from an entry in the Cambridge 
# Structural Database, then it will include bibliographic, chemical, 
# crystal, experimental, refinement or atomic coordinate data resulting 
# from the CCDC's data processing and validation procedures.
#
#######################################################################

data_WEGJEY
_chemical_formula_moiety         'C25 H39 N1 O3 Si1'
_chemical_name_systematic        
anti-(aR*,S*)-N,N-di-isopropyl-8-(t-butyl(dimethyl)silyloxy)-2-(1'-hydroxyethyl)-1-naphthamide
_symmetry_cell_setting           monoclinic
_symmetry_space_group_name_H-M   'P 21/c'
_symmetry_Int_Tables_number      14
_space_group_name_Hall           '-P 2ybc'
loop_
_symmetry_equiv_pos_site_id
_symmetry_equiv_pos_as_xyz
1 x,y,z
2 -x,1/2+y,1/2-z
3 -x,-y,-z
4 x,1/2-y,1/2+z
_cell_length_a                   8.2262(12)
_cell_length_b                   32.985(5)
_cell_length_c                   9.6563(14)
_cell_angle_alpha                90
_cell_angle_beta                 101.254(3)
_cell_angle_gamma                90
_cell_volume                     2569.77
_exptl_crystal_colour            green
_exptl_crystal_description       bar
_chemical_melting_point          189-190deg.C
_cell_formula_units_Z            4
loop_
_atom_site_label
_atom_site_type_symbol
_atom_site_fract_x
_atom_site_fract_y
_atom_site_fract_z
Si1 Si 0.26045(8) 0.09149(2) 0.62852(6)
O1 O 0.30126(17) 0.09661(4) 0.46575(13)
O2 O 0.29943(18) 0.19155(4) 0.43006(13)
O3 O 0.2219(2) 0.22776(5) -0.02498(18)
N1 N 0.4979(2) 0.16518(5) 0.32389(18)
C1 C 0.2076(2) 0.15107(6) 0.2263(2)
C2 C 0.1557(2) 0.10978(6) 0.2281(2)
C3 C 0.2075(2) 0.08225(6) 0.3422(2)
C4 C 0.1635(2) 0.04229(6) 0.3286(2)
C5 C 0.0603(3) 0.02790(6) 0.2070(2)
C6 C 0.0002(2) 0.05324(6) 0.0995(2)
C7 C 0.0459(2) 0.09433(6) 0.1072(2)
C8 C -0.0147(2) 0.12081(6) -0.0049(2)
C9 C 0.0289(2) 0.16021(6) -0.0006(2)
C10 C 0.1426(2) 0.17618(6) 0.1148(2)
C11 C 0.4090(2) 0.05459(6) 0.7334(2)
C12 C 0.3874(4) 0.05573(8) 0.8881(2)
C13 C 0.5873(2) 0.06684(9) 0.7273(3)
C14 C 0.3858(3) 0.01095(6) 0.6825(2)
C15 C 0.2863(3) 0.14172(6) 0.7121(2)
C16 C 0.0420(2) 0.07461(6) 0.6158(2)
C17 C 0.3398(2) 0.16984(6) 0.3388(2)
C18 C 0.6324(2) 0.18950(6) 0.4103(2)
C19 C 0.6601(3) 0.17958(8) 0.5651(2)
C20 C 0.6112(3) 0.23451(6) 0.3790(2)
C21 C 0.5461(2) 0.13852(6) 0.2163(2)
C22 C 0.6674(3) 0.10601(6) 0.2824(2)
C23 C 0.6080(3) 0.16234(8) 0.1027(2)
C24 C 0.1870(2) 0.22034(6) 0.1107(2)
C25 C 0.0476(2) 0.24661(6) 0.1388(2)
H1 H 0.2042 0.0244 0.4015
H2 H 0.0322 0.0006 0.1998
H3 H -0.0719 0.0435 0.0200
H4 H -0.0857 0.1108 -0.0844
H5 H -0.0167 0.1772 -0.0751
H6 H 0.7295 0.1821 0.3811
H7 H 0.4501 0.1253 0.1722
H8 H 0.2808 0.2255 0.1793
H9 H 0.7094 0.2491 0.4214
H10 H 0.0792 0.2747 0.1407
H11 H 0.6156 0.1447 0.0252
H12 H 0.7752 0.1176 0.3145
H13 H 0.2498 0.1409 0.8006
H14 H 0.6020 0.0951 0.7504
H15 H 0.3989 0.0832 0.9213
H16 H 0.0174 0.0730 0.7088
H17 H 0.4088 0.0090 0.5890
H18 H 0.2785 0.0460 0.8924
H19 H 0.4689 0.0391 0.9463
H20 H 0.6647 0.0511 0.7933
H21 H 0.6062 0.0623 0.6335
H22 H 0.4587 -0.0068 0.7447
H23 H 0.2729 0.0032 0.6808
H24 H 0.4013 0.1491 0.7281
H25 H 0.2222 0.1613 0.6513
H26 H -0.0317 0.0936 0.5603
H27 H 0.0280 0.0484 0.5720
H28 H 0.5908 0.2383 0.2785
H29 H 0.5185 0.2445 0.4156
H30 H -0.0485 0.2424 0.0660
H31 H 0.0226 0.2392 0.2285
H32 H 0.7561 0.1937 0.6147
H33 H 0.5648 0.1875 0.6023
H34 H 0.6769 0.1509 0.5768
H35 H 0.6286 0.0943 0.3609
H36 H 0.6738 0.0854 0.2135
H37 H 0.5313 0.1838 0.0703
H38 H 0.7152 0.1736 0.1400
H39 H 0.2468 0.2544 -0.0291
loop_
_geom_bond_atom_site_label_1
_geom_bond_atom_site_label_2
_geom_bond_site_symmetry_1
_geom_bond_site_symmetry_2
Si1 O1 1_555 1_555
O1 C3 1_555 1_555
O2 C17 1_555 1_555
O3 C24 1_555 1_555
N1 C17 1_555 1_555
C1 C2 1_555 1_555
C2 C3 1_555 1_555
C3 C4 1_555 1_555
C4 C5 1_555 1_555
C5 C6 1_555 1_555
C6 C7 1_555 1_555
C7 C2 1_555 1_555
C8 C7 1_555 1_555
C9 C8 1_555 1_555
C10 C1 1_555 1_555
C11 Si1 1_555 1_555
C12 C11 1_555 1_555
C13 C11 1_555 1_555
C14 C11 1_555 1_555
C15 Si1 1_555 1_555
C16 Si1 1_555 1_555
C17 C1 1_555 1_555
C18 N1 1_555 1_555
C19 C18 1_555 1_555
C20 C18 1_555 1_555
C21 N1 1_555 1_555
C22 C21 1_555 1_555
C23 C21 1_555 1_555
C24 C10 1_555 1_555
C25 C24 1_555 1_555
H1 C4 1_555 1_555
H2 C5 1_555 1_555
H3 C6 1_555 1_555
H4 C8 1_555 1_555
H5 C9 1_555 1_555
H6 C18 1_555 1_555
H7 C21 1_555 1_555
H8 C24 1_555 1_555
H9 C20 1_555 1_555
H10 C25 1_555 1_555
H11 C23 1_555 1_555
H12 C22 1_555 1_555
H13 C15 1_555 1_555
H14 C13 1_555 1_555
H15 C12 1_555 1_555
H16 C16 1_555 1_555
H17 C14 1_555 1_555
H18 C12 1_555 1_555
H19 C12 1_555 1_555
H20 C13 1_555 1_555
H21 C13 1_555 1_555
H22 C14 1_555 1_555
H23 C14 1_555 1_555
H24 C15 1_555 1_555
H25 C15 1_555 1_555
H26 C16 1_555 1_555
H27 C16 1_555 1_555
H28 C20 1_555 1_555
H29 C20 1_555 1_555
H30 C25 1_555 1_555
H31 C25 1_555 1_555
H32 C19 1_555 1_555
H33 C19 1_555 1_555
H34 C19 1_555 1_555
H35 C22 1_555 1_555
H36 C22 1_555 1_555
H37 C23 1_555 1_555
H38 C23 1_555 1_555
H39 O3 1_555 1_555
C9 C10 1_555 1_555

#END
