
#######################################################################
#
#                 Cambridge Crystallographic Data Centre
#                                CCDC 
#
#######################################################################
#
# If this CIF has been generated from an entry in the Cambridge 
# Structural Database, then it will include bibliographic, chemical, 
# crystal, experimental, refinement or atomic coordinate data resulting 
# from the CCDC's data processing and validation procedures.
#
#######################################################################

data_WEGMIG
_chemical_formula_moiety         'C8 H10 N3 O2 1+,F6 P1 1-'
_chemical_name_systematic        
'1-(2-Amino-2-oxoethyl)-4-carbamoylpyridinium hexafluorophosphate'
_symmetry_cell_setting           monoclinic
_symmetry_space_group_name_H-M   'P 21/c'
_symmetry_Int_Tables_number      14
_space_group_name_Hall           '-P 2ybc'
loop_
_symmetry_equiv_pos_site_id
_symmetry_equiv_pos_as_xyz
1 x,y,z
2 -x,1/2+y,1/2-z
3 -x,-y,-z
4 x,1/2-y,1/2+z
_cell_length_a                   8.8952(8)
_cell_length_b                   12.8953(12)
_cell_length_c                   11.1052(10)
_cell_angle_alpha                90
_cell_angle_beta                 96.686(2)
_cell_angle_gamma                90
_cell_volume                     1265.17
_exptl_crystal_colour            colorless
_exptl_crystal_description       tabular
_cell_formula_units_Z            4
loop_
_atom_site_label
_atom_site_type_symbol
_atom_site_fract_x
_atom_site_fract_y
_atom_site_fract_z
P1 P 0.41996(6) 0.17028(4) 0.78031(5)
F1 F 0.24077(13) 0.17880(11) 0.75172(11)
F2 F 0.40381(13) 0.16606(10) 0.92273(11)
F3 F 0.40691(16) 0.04667(10) 0.77394(13)
F4 F 0.43588(13) 0.17300(10) 0.63766(11)
F5 F 0.60003(13) 0.16208(10) 0.80964(11)
F6 F 0.43379(15) 0.29323(10) 0.78685(13)
O1 O 0.95986(15) 0.35488(10) 0.50955(13)
O2 O 1.03609(15) -0.11963(10) 0.67705(13)
N1 N 0.85722(19) -0.17007(12) 0.52890(15)
H1 H 0.8956 -0.2328 0.5257
H2 H 0.7756 -0.1531 0.4804
N2 N 0.77321(16) 0.21205(11) 0.59981(14)
N3 N 0.80487(18) 0.48954(12) 0.53500(16)
H3 H 0.8645 0.5344 0.5043
H4 H 0.7199 0.5106 0.5604
C1 C 0.9223(2) -0.10128(13) 0.60682(17)
C2 C 0.85775(19) 0.00752(13) 0.60342(17)
C3 C 0.7489(2) 0.04436(14) 0.51399(18)
H5 H 0.7026 -0.0011 0.4534
C4 C 0.7086(2) 0.14752(14) 0.51391(18)
H6 H 0.6345 0.1732 0.4527
C5 C 0.7289(2) 0.32224(13) 0.59891(18)
H7 H 0.7216 0.3454 0.6830
H8 H 0.6280 0.3304 0.5520
C6 C 0.8431(2) 0.39016(14) 0.54302(17)
C7 C 0.8780(2) 0.17816(14) 0.68804(18)
H9 H 0.9220 0.2250 0.7481
C8 C 0.9215(2) 0.07568(14) 0.69142(18)
H10 H 0.9952 0.0517 0.7540
loop_
_geom_bond_atom_site_label_1
_geom_bond_atom_site_label_2
_geom_bond_site_symmetry_1
_geom_bond_site_symmetry_2
P1 F1 1_555 1_555
F2 P1 1_555 1_555
F3 P1 1_555 1_555
F4 P1 1_555 1_555
F5 P1 1_555 1_555
F6 P1 1_555 1_555
O1 C6 1_555 1_555
O2 C1 1_555 1_555
N1 H1 1_555 1_555
H2 N1 1_555 1_555
N2 C4 1_555 1_555
N3 H3 1_555 1_555
H4 N3 1_555 1_555
C1 N1 1_555 1_555
C2 C1 1_555 1_555
C3 C2 1_555 1_555
H5 C3 1_555 1_555
C4 C3 1_555 1_555
H6 C4 1_555 1_555
C5 N2 1_555 1_555
H7 C5 1_555 1_555
H8 C5 1_555 1_555
C6 N3 1_555 1_555
C7 N2 1_555 1_555
H9 C7 1_555 1_555
C8 C2 1_555 1_555
H10 C8 1_555 1_555
C5 C6 1_555 1_555
C7 C8 1_555 1_555

#END
