
#######################################################################
#
#                 Cambridge Crystallographic Data Centre
#                                CCDC 
#
#######################################################################
#
# If this CIF has been generated from an entry in the Cambridge 
# Structural Database, then it will include bibliographic, chemical, 
# crystal, experimental, refinement or atomic coordinate data resulting 
# from the CCDC's data processing and validation procedures.
#
#######################################################################

data_WEGZOZ
_chemical_formula_moiety         'C7 H9 F1 O3'
_chemical_name_systematic        
6-Fluoro-4,5-dihydroxy-3-methylcyclohex-2-en-1-one
_symmetry_cell_setting           orthorhombic
_symmetry_space_group_name_H-M   'P 21 21 21'
_symmetry_Int_Tables_number      19
_space_group_name_Hall           'P 2ac 2ab'
loop_
_symmetry_equiv_pos_site_id
_symmetry_equiv_pos_as_xyz
1 x,y,z
2 1/2-x,-y,1/2+z
3 -x,1/2+y,1/2-z
4 1/2+x,1/2-y,-z
_cell_length_a                   4.641(2)
_cell_length_b                   10.535(3)
_cell_length_c                   15.936(4)
_cell_angle_alpha                90
_cell_angle_beta                 90
_cell_angle_gamma                90
_cell_volume                     779.158
_exptl_crystal_colour            colorless
_exptl_crystal_description       blocks
_cell_formula_units_Z            4
loop_
_atom_site_label
_atom_site_type_symbol
_atom_site_fract_x
_atom_site_fract_y
_atom_site_fract_z
C1 C 0.7850(5) 0.98591(18) 0.24359(14)
O1 O 0.8967(5) 1.01891(15) 0.30879(11)
C2 C 0.8144(5) 1.05404(18) 0.16638(15)
H1 H 0.8934 1.1351 0.1680
C3 C 0.7344(5) 1.0072(2) 0.09237(14)
C4 C 0.5930(5) 0.87903(18) 0.08671(14)
H2 H 0.3838 0.8916 0.0853
O2 O 0.6767(4) 0.81933(16) 0.01114(10)
H3 H 0.5387 0.7812 -0.0088
C5 C 0.6639(4) 0.79634(18) 0.16098(13)
H4 H 0.5487 0.7184 0.1591
O3 O 0.9614(3) 0.76593(12) 0.15841(10)
H5 H 0.9830 0.6902 0.1685
C6 C 0.6013(5) 0.86774(18) 0.24001(14)
H6 H 0.3980 0.8930 0.2397
F1 F 0.6508(4) 0.79296(14) 0.30924(9)
C7 C 0.7774(11) 1.0783(3) 0.0123(2)
H7 H 0.8529 1.1612 0.0243
H8 H 0.5963 1.0865 -0.0163
H9 H 0.9108 1.0330 -0.0227
loop_
_geom_bond_atom_site_label_1
_geom_bond_atom_site_label_2
_geom_bond_site_symmetry_1
_geom_bond_site_symmetry_2
C1 O1 1_555 1_555
C2 C1 1_555 1_555
H1 C2 1_555 1_555
C3 C2 1_555 1_555
C4 C3 1_555 1_555
H2 C4 1_555 1_555
O2 C4 1_555 1_555
H3 O2 1_555 1_555
C5 C4 1_555 1_555
H4 C5 1_555 1_555
O3 C5 1_555 1_555
H5 O3 1_555 1_555
C6 C1 1_555 1_555
H6 C6 1_555 1_555
F1 C6 1_555 1_555
C7 C3 1_555 1_555
H7 C7 1_555 1_555
H8 C7 1_555 1_555
H9 C7 1_555 1_555
C5 C6 1_555 1_555

#END
