
#######################################################################
#
#                 Cambridge Crystallographic Data Centre
#                                CCDC 
#
#######################################################################
#
# If this CIF has been generated from an entry in the Cambridge 
# Structural Database, then it will include bibliographic, chemical, 
# crystal, experimental, refinement or atomic coordinate data resulting 
# from the CCDC's data processing and validation procedures.
#
#######################################################################

data_WEJCOD
_chemical_formula_moiety         'C16 H21 N1 O2 S1'
_chemical_name_systematic        
(4aR,8R,SR)-8-(p-Tolylsulfinyl)-2,3,4,4a,5,6,7,8-octahydroquinolin-4a-ol
_symmetry_cell_setting           monoclinic
_symmetry_space_group_name_H-M   'P 21'
_symmetry_Int_Tables_number      4
_space_group_name_Hall           'P 2yb'
loop_
_symmetry_equiv_pos_site_id
_symmetry_equiv_pos_as_xyz
1 x,y,z
2 -x,1/2+y,-z
_cell_length_a                   8.866(1)
_cell_length_b                   9.534(1)
_cell_length_c                   9.245(1)
_cell_angle_alpha                90
_cell_angle_beta                 92.92(1)
_cell_angle_gamma                90
_cell_volume                     780.451
_exptl_crystal_colour            colorless
_chemical_melting_point          421-423K
_cell_formula_units_Z            2
loop_
_atom_site_label
_atom_site_type_symbol
_atom_site_fract_x
_atom_site_fract_y
_atom_site_fract_z
S1 S 0.4568(1) 0.3182 0.5261(1)
O1 O 0.4709(3) 0.1698(3) 0.5849(3)
O2 O 0.3547(4) 0.1688(3) 0.8509(3)
N1 N 0.2268(4) 0.4879(4) 0.7677(3)
C1 C 0.0996(5) 0.4708(7) 0.8613(5)
C2 C 0.1028(5) 0.3402(7) 0.9505(5)
C3 C 0.2574(5) 0.3241(6) 1.0213(4)
C4 C 0.3746(4) 0.3077(5) 0.9072(3)
C5 C 0.5336(5) 0.3256(6) 0.9725(4)
C6 C 0.6510(4) 0.3203(7) 0.8621(5)
C7 C 0.6262(5) 0.4367(7) 0.7498(5)
C8 C 0.4650(4) 0.4387(4) 0.6803(4)
C9 C 0.3429(4) 0.4142(4) 0.7870(3)
C10 C 0.2651(3) 0.3391(4) 0.4624(3)
C11 C 0.2209(4) 0.4589(4) 0.3894(4)
C12 C 0.0741(4) 0.4693(4) 0.3319(4)
C13 C -0.0280(4) 0.3619(4) 0.3462(4)
C14 C 0.0198(4) 0.2426(5) 0.4178(4)
C15 C 0.1652(5) 0.2287(5) 0.4763(4)
C16 C -0.1885(4) 0.3722(5) 0.2830(4)
H1 H 0.400(5) 0.163(6) 0.765(5)
H2 H 0.0991 0.5488 0.9253
H3 H 0.0092 0.4705 0.8017
H4 H 0.0304 0.3467 1.0224
H5 H 0.0802 0.2615 0.8901
H6 H 0.2809 0.4048 1.0783
H7 H 0.2595 0.2434 1.0816
H8 H 0.5402 0.4138 1.0202
H9 H 0.5534 0.2528 1.0409
H10 H 0.7479 0.3314 0.9093
H11 H 0.6458 0.2320 0.8145
H12 H 0.6455 0.5244 0.7959
H13 H 0.6951 0.4234 0.6756
H14 H 0.4490 0.5303 0.6419
H15 H 0.2902 0.5337 0.3786
H16 H 0.0432 0.5521 0.2815
H17 H -0.0493 0.1675 0.4275
H18 H 0.1963 0.1451 0.5251
H19 H -0.2134 0.2892 0.2303
H20 H -0.2556 0.3831 0.3591
H21 H -0.1972 0.4509 0.2200
loop_
_geom_bond_atom_site_label_1
_geom_bond_atom_site_label_2
_geom_bond_site_symmetry_1
_geom_bond_site_symmetry_2
S1 O1 1_555 1_555
O2 C4 1_555 1_555
N1 C1 1_555 1_555
C1 C2 1_555 1_555
C2 C3 1_555 1_555
C3 C4 1_555 1_555
C4 C5 1_555 1_555
C5 C6 1_555 1_555
C6 C7 1_555 1_555
C7 C8 1_555 1_555
C8 S1 1_555 1_555
C9 N1 1_555 1_555
C10 S1 1_555 1_555
C11 C10 1_555 1_555
C12 C11 1_555 1_555
C13 C12 1_555 1_555
C14 C13 1_555 1_555
C15 C10 1_555 1_555
C16 C13 1_555 1_555
H1 O2 1_555 1_555
H2 C1 1_555 1_555
H3 C1 1_555 1_555
H4 C2 1_555 1_555
H5 C2 1_555 1_555
H6 C3 1_555 1_555
H7 C3 1_555 1_555
H8 C5 1_555 1_555
H9 C5 1_555 1_555
H10 C6 1_555 1_555
H11 C6 1_555 1_555
H12 C7 1_555 1_555
H13 C7 1_555 1_555
H14 C8 1_555 1_555
H15 C11 1_555 1_555
H16 C12 1_555 1_555
H17 C14 1_555 1_555
H18 C15 1_555 1_555
H19 C16 1_555 1_555
H20 C16 1_555 1_555
H21 C16 1_555 1_555
C4 C9 1_555 1_555
C8 C9 1_555 1_555
C14 C15 1_555 1_555

#END
