
#######################################################################
#
#                 Cambridge Crystallographic Data Centre
#                                CCDC 
#
#######################################################################
#
# If this CIF has been generated from an entry in the Cambridge 
# Structural Database, then it will include bibliographic, chemical, 
# crystal, experimental, refinement or atomic coordinate data resulting 
# from the CCDC's data processing and validation procedures.
#
#######################################################################

data_WEJDIB
_chemical_formula_moiety         'C26 H28 N2 O8'
_chemical_name_systematic        
"tetramethyl 2,2'-{hydrazine-1,2-diylidenebis[(eth-1-yl-1-ylidene)-2,1-phenylene]}dipropanedioate unknown solvate"
_symmetry_cell_setting           monoclinic
_symmetry_space_group_name_H-M   'I 2/a'
_symmetry_Int_Tables_number      15
_space_group_name_Hall           '-I 2ya'
loop_
_symmetry_equiv_pos_site_id
_symmetry_equiv_pos_as_xyz
1 x,y,z
2 1/2-x,y,-z
3 1/2+x,1/2+y,1/2+z
4 -x,1/2+y,1/2-z
5 -x,-y,-z
6 1/2+x,-y,z
7 1/2-x,1/2-y,1/2-z
8 x,1/2-y,1/2+z
_cell_length_a                   7.9578(3)
_cell_length_b                   14.6936(5)
_cell_length_c                   24.4705(10)
_cell_angle_alpha                90
_cell_angle_beta                 97.184(3)
_cell_angle_gamma                90
_cell_volume                     2838.84
_exptl_crystal_colour            colorless
_exptl_crystal_description       prism
_cell_formula_units_Z            4
loop_
_atom_site_label
_atom_site_type_symbol
_atom_site_fract_x
_atom_site_fract_y
_atom_site_fract_z
C1 C 0.4348(2) 0.10634(14) 0.61369(8)
C2 C 0.5269(3) 0.03217(15) 0.63749(10)
H1 H 0.5694 -0.0108 0.6149
C3 C 0.5557(3) 0.02158(16) 0.69388(11)
H2 H 0.6155 -0.0286 0.7091
C4 C 0.4953(3) 0.08574(17) 0.72732(9)
H3 H 0.5140 0.0789 0.7654
C5 C 0.4069(3) 0.16035(15) 0.70473(9)
H4 H 0.3681 0.2038 0.7278
C6 C 0.3750(2) 0.17145(14) 0.64784(8)
C7 C 0.4080(3) 0.11287(14) 0.55216(9)
C8 C 0.5602(4) 0.1266(3) 0.52375(12)
H5 H 0.6015 0.1875 0.5301
H6 H 0.5310 0.1170 0.4849
H7 H 0.6465 0.0841 0.5378
C9 C 0.2813(3) 0.25601(15) 0.62452(9)
H8 H 0.2891 0.2570 0.5849
C10 C 0.3699(4) 0.34107(16) 0.64906(10)
C11 C 0.6141(5) 0.4322(3) 0.6490(2)
H9 H 0.6392 0.4282 0.6884
H10 H 0.5522 0.4871 0.6394
H11 H 0.7179 0.4326 0.6328
C12 C 0.0939(3) 0.2613(2) 0.63157(13)
C13 C -0.1324(4) 0.2050(2) 0.6747(2)
H12 H -0.1547 0.1530 0.6964
H13 H -0.2020 0.2022 0.6397
H14 H -0.1576 0.2596 0.6936
N1 N 0.2577(2) 0.10340(16) 0.52929(7)
O1 O 0.3193(4) 0.38870(15) 0.68248(11)
O2 O 0.5125(3) 0.35401(14) 0.62860(11)
O3 O 0.0443(2) 0.20526(14) 0.66607(10)
O4 O 0.0103(7) 0.3308(5) 0.6152(3)
C1A C 0.0652(2) 0.10634(14) 0.38631(8)
C2A C -0.0269(3) 0.03217(15) 0.36251(10)
H1A H -0.0694 -0.0108 0.3851
C3A C -0.0557(3) 0.02158(16) 0.30612(11)
H2A H -0.1155 -0.0286 0.2909
C4A C 0.0047(3) 0.08574(17) 0.27268(9)
H3A H -0.0140 0.0789 0.2346
C5A C 0.0931(3) 0.16035(15) 0.29527(9)
H4A H 0.1319 0.2038 0.2722
C6A C 0.1250(2) 0.17145(14) 0.35216(8)
C7A C 0.0920(3) 0.11287(14) 0.44784(9)
C8A C -0.0602(4) 0.1266(3) 0.47625(12)
H5A H -0.1015 0.1875 0.4699
H6A H -0.0310 0.1170 0.5151
H7A H -0.1465 0.0841 0.4622
C9A C 0.2187(3) 0.25601(15) 0.37548(9)
H8A H 0.2109 0.2570 0.4151
C10A C 0.1301(4) 0.34107(16) 0.35094(10)
C11A C -0.1141(5) 0.4322(3) 0.3510(2)
H9A H -0.1392 0.4282 0.3116
H10A H -0.0522 0.4871 0.3606
H11A H -0.2179 0.4326 0.3672
C12A C 0.4061(3) 0.2613(2) 0.36843(13)
C13A C 0.6324(4) 0.2050(2) 0.3253(2)
H12A H 0.6547 0.1530 0.3036
H13A H 0.7020 0.2022 0.3603
H14A H 0.6576 0.2596 0.3064
N1A N 0.2423(2) 0.10340(16) 0.47071(7)
O1A O 0.1807(4) 0.38870(15) 0.31752(11)
O2A O -0.0125(3) 0.35401(14) 0.37140(11)
O3A O 0.4557(2) 0.20526(14) 0.33393(10)
O4A O 0.4897(7) 0.3308(5) 0.3848(3)
O5? O -0.0146(12) 0.2774(8) 0.5925(6)
loop_
_geom_bond_atom_site_label_1
_geom_bond_atom_site_label_2
_geom_bond_site_symmetry_1
_geom_bond_site_symmetry_2
C1 C2 1_555 1_555
C2 H1 1_555 1_555
C3 C2 1_555 1_555
H2 C3 1_555 1_555
C4 C3 1_555 1_555
H3 C4 1_555 1_555
C5 C4 1_555 1_555
H4 C5 1_555 1_555
C6 C1 1_555 1_555
C7 C1 1_555 1_555
C8 C7 1_555 1_555
H5 C8 1_555 1_555
H6 C8 1_555 1_555
H7 C8 1_555 1_555
C9 C6 1_555 1_555
H8 C9 1_555 1_555
C10 C9 1_555 1_555
C11 H9 1_555 1_555
H10 C11 1_555 1_555
H11 C11 1_555 1_555
C12 C9 1_555 1_555
C13 H12 1_555 1_555
H13 C13 1_555 1_555
H14 C13 1_555 1_555
N1 C7 1_555 1_555
O1 C10 1_555 1_555
O2 C10 1_555 1_555
O3 C12 1_555 1_555
O4 C12 1_555 1_555
C1A C2A 1_555 1_555
C2A H1A 1_555 1_555
C3A C2A 1_555 1_555
H2A C3A 1_555 1_555
C4A C3A 1_555 1_555
H3A C4A 1_555 1_555
C5A C4A 1_555 1_555
H4A C5A 1_555 1_555
C6A C1A 1_555 1_555
C7A C1A 1_555 1_555
C8A C7A 1_555 1_555
H5A C8A 1_555 1_555
H6A C8A 1_555 1_555
H7A C8A 1_555 1_555
C9A C6A 1_555 1_555
H8A C9A 1_555 1_555
C10A C9A 1_555 1_555
C11A H9A 1_555 1_555
H10A C11A 1_555 1_555
H11A C11A 1_555 1_555
C12A C9A 1_555 1_555
C13A H12A 1_555 1_555
H13A C13A 1_555 1_555
H14A C13A 1_555 1_555
N1A N1 1_555 1_555
O1A C10A 1_555 1_555
O2A C10A 1_555 1_555
O3A C12A 1_555 1_555
O4A C12A 1_555 1_555
C5 C6 1_555 1_555
C11 O2 1_555 1_555
C13 O3 1_555 1_555
C5A C6A 1_555 1_555
C7A N1A 1_555 1_555
C11A O2A 1_555 1_555
C13A O3A 1_555 1_555

#END
