
#######################################################################
#
#                 Cambridge Crystallographic Data Centre
#                                CCDC 
#
#######################################################################
#
# If this CIF has been generated from an entry in the Cambridge 
# Structural Database, then it will include bibliographic, chemical, 
# crystal, experimental, refinement or atomic coordinate data resulting 
# from the CCDC's data processing and validation procedures.
#
#######################################################################

data_WEJFEZ
_chemical_formula_moiety         'C76 H16,C6 H6'
_chemical_name_systematic        
'e-bis(1,2-phenylene-dimethyl)-C60fullerene benzene solvate'
_symmetry_cell_setting           monoclinic
_symmetry_space_group_name_H-M   'P 21/c'
_symmetry_Int_Tables_number      14
_space_group_name_Hall           '-P 2ybc'
loop_
_symmetry_equiv_pos_site_id
_symmetry_equiv_pos_as_xyz
1 x,y,z
2 -x,1/2+y,1/2-z
3 -x,-y,-z
4 x,1/2-y,1/2+z
_cell_length_a                   22.5926(6)
_cell_length_b                   17.1813(4)
_cell_length_c                   24.2882(6)
_cell_angle_alpha                90
_cell_angle_beta                 116.2910(10)
_cell_angle_gamma                90
_cell_volume                     8452.69
_exptl_crystal_colour            black
_exptl_crystal_description       block
_cell_formula_units_Z            8
loop_
_atom_site_label
_atom_site_type_symbol
_atom_site_fract_x
_atom_site_fract_y
_atom_site_fract_z
C1 C 0.7955(2) 0.2054(2) 0.8044(2)
C2 C 0.9016(2) 0.2035(2) 0.88555(19)
C3 C 0.8587(2) 0.1641(2) 0.8305(2)
C4 C 0.73433(18) 0.2960(3) 0.66051(19)
C5 C 0.72892(18) 0.2839(3) 0.7169(2)
C6 C 0.7591(2) 0.2109(2) 0.7417(2)
C7 C 0.8008(2) 0.2690(3) 0.84421(19)
C8 C 0.7677(2) 0.2309(3) 0.65069(17)
C9 C 0.9925(2) 0.1785(2) 0.8606(2)
C10 C 0.84134(19) 0.1193(2) 0.72296(18)
C11 C 0.8817(2) 0.1312(2) 0.79196(19)
C12 C 0.73423(18) 0.3472(3) 0.7548(2)
C13 C 0.8913(2) 0.1504(2) 0.7015(2)
C14 C 0.9560(2) 0.1520(2) 0.7513(2)
C15 C 0.7451(2) 0.4244(3) 0.7380(2)
C16 C 0.7179(2) 0.0360(2) 0.69915(18)
C17 C 1.0429(2) 0.2308(3) 0.8601(2)
C18 C 1.0021(2) 0.2845(3) 0.92501(18)
C19 C 0.8762(2) 0.2005(3) 0.6533(2)
C20 C 0.7889(2) 0.4645(3) 0.7934(2)
C21 C 1.0045(2) 0.2009(3) 0.7507(2)
C22 C 1.06011(19) 0.3192(3) 0.7892(2)
C23 C 0.9889(2) 0.2531(3) 0.7001(2)
C24 C 0.7706(2) 0.3386(3) 0.8200(2)
C25 C 0.9168(2) 0.4629(3) 0.8901(2)
C26 C 0.9350(2) 0.5031(2) 0.7118(2)
C27 C 0.74378(19) 0.3715(3) 0.64388(19)
C28 C 0.9500(2) 0.1402(2) 0.8072(2)
C29 C 0.77211(18) 0.1647(2) 0.69431(18)
C30 C 0.9483(2) 0.5271(2) 0.8164(2)
C31 C 0.7497(2) 0.4364(3) 0.6835(2)
C32 C 0.9675(2) 0.2107(3) 0.90069(19)
C33 C 0.8237(2) 0.3196(3) 0.61075(17)
C34 C 0.8074(2) 0.2788(3) 0.97395(18)
C35 C 0.8363(3) 0.5157(2) 0.7920(2)
C36 C 0.7787(2) -0.0023(3) 0.7244(2)
C37 C 0.8049(2) 0.4124(3) 0.8446(2)
C38 C 1.0488(2) 0.2416(3) 0.8061(2)
C39 C 0.8626(2) 0.2606(2) 0.90502(18)
C40 C 0.9018(2) 0.5148(2) 0.8418(2)
C41 C 1.04855(19) 0.2958(3) 0.89975(19)
C42 C 0.9688(2) 0.3460(3) 0.93366(17)
C43 C 0.7899(2) 0.3833(3) 0.61865(18)
C44 C 0.8934(2) 0.3264(3) 0.62612(19)
C45 C 0.8412(2) 0.3480(3) 0.99876(19)
C46 C 0.9108(2) 0.5350(2) 0.7504(2)
C47 C 0.8244(2) 0.4561(3) 0.64218(19)
C48 C 0.6671(2) 0.0090(3) 0.71074(19)
H1 H 0.6266 0.0345 0.6940
C49 C 1.0333(2) 0.4551(3) 0.8006(2)
C50 C 0.9254(2) 0.3966(3) 0.6478(2)
C51 C 0.8121(2) 0.2421(3) 0.62717(18)
C52 C 0.8412(2) 0.5276(2) 0.7352(2)
C53 C 1.0227(2) 0.3262(3) 0.7231(2)
C54 C 0.7992(2) 0.4887(3) 0.6825(2)
C55 C 0.9252(3) 0.2539(3) 0.6522(2)
C56 C 1.0247(2) 0.4349(3) 0.8920(2)
C57 C 0.6763(2) -0.0561(3) 0.7473(2)
H2 H 0.6418 -0.0744 0.7548
C58 C 0.71399(19) 0.1060(2) 0.66088(18)
H3 H 0.6724 0.1324 0.6503
H4 H 0.7145 0.0890 0.6230
C59 C 0.8674(2) 0.4122(2) 0.8922(2)
C60 C 1.06557(18) 0.3820(3) 0.8276(2)
C61 C 1.0086(2) 0.4880(3) 0.8409(2)
C62 C 0.8915(2) 0.4628(3) 0.6567(2)
C63 C 0.7876(2) -0.0673(3) 0.7602(2)
H5 H 0.8278 -0.0934 0.7762
C64 C 1.05988(19) 0.3702(3) 0.8837(2)
C65 C 0.8304(2) 0.0306(2) 0.70853(19)
H6 H 0.8174 0.0223 0.6652
H7 H 0.8717 0.0032 0.7316
C66 C 0.9971(2) 0.4621(3) 0.7371(2)
C67 C 0.9795(2) 0.4223(3) 0.91585(18)
C68 C 0.9916(2) 0.3968(3) 0.6977(2)
C69 C 0.7364(3) -0.0942(3) 0.77267(19)
H8 H 0.7427 -0.1373 0.7978
C70 C 0.8425(2) 0.2220(2) 0.95238(18)
H9 H 0.8140 0.1778 0.9335
H10 H 0.8817 0.2032 0.9872
C71 C 0.7444(2) 0.2682(3) 0.96839(18)
H11 H 0.7215 0.2225 0.9513
C72 C 0.9005(2) 0.3412(2) 0.93209(18)
C73 C 0.9074(2) 0.3556(2) 0.99852(18)
H12 H 0.9379 0.3180 1.0267
H13 H 0.9250 0.4073 1.0122
C74 C 0.7489(3) 0.3934(3) 1.0130(2)
H14 H 0.7292 0.4315 1.0265
C75 C 0.7152(2) 0.3255(3) 0.9882(2)
H15 H 0.6729 0.3182 0.9847
C76 C 0.8118(3) 0.4055(3) 1.01817(19)
H16 H 0.8340 0.4518 1.0345
C77 C 0.5852(2) 0.6171(2) 0.35854(18)
C78 C 0.77627(18) 0.7097(3) 0.57860(19)
C79 C 0.6889(2) 0.6855(3) 0.39243(19)
C80 C 0.6585(2) 0.7519(3) 0.36167(18)
C81 C 0.7146(2) 0.5988(2) 0.57633(19)
C82 C 0.76532(18) 0.7635(2) 0.4814(2)
C83 C 0.6013(2) 0.5641(2) 0.5453(2)
C84 C 0.7699(2) 0.8370(2) 0.3383(2)
C85 C 0.75558(19) 0.6348(3) 0.5503(2)
C86 C 0.73965(18) 0.6261(2) 0.4892(2)
C87 C 0.5964(2) 0.6138(3) 0.5883(2)
C88 C 0.75749(19) 0.8486(3) 0.5521(2)
C89 C 0.7491(2) 0.7203(3) 0.62247(17)
C90 C 0.69139(19) 0.5648(2) 0.44736(18)
C91 C 0.5442(2) 0.5810(2) 0.3847(2)
C92 C 0.78043(17) 0.7721(3) 0.5444(2)
C93 C 0.5733(2) 0.5468(2) 0.4414(2)
C94 C 0.5883(2) 0.7526(3) 0.32903(17)
C95 C 0.45897(19) 0.6389(3) 0.4090(2)
C96 C 0.7283(2) 0.8854(2) 0.4937(2)
C97 C 0.74388(19) 0.6915(3) 0.4545(2)
C98 C 0.5382(2) 0.6616(3) 0.5716(2)
C99 C 0.6525(2) 0.6160(2) 0.39072(18)
C100 C 0.7111(2) 0.6519(3) 0.62036(17)
C101 C 0.5520(2) 0.6862(3) 0.32702(17)
C102 C 0.4862(2) 0.6286(2) 0.36783(19)
C103 C 0.4861(2) 0.6565(3) 0.5131(2)
C104 C 0.4683(2) 0.7663(3) 0.33904(18)
C105 C 0.6669(2) 0.8014(3) 0.63621(18)
C106 C 0.8220(2) 0.8453(2) 0.3966(2)
C107 C 0.7280(2) 0.7940(3) 0.63062(17)
C108 C 0.6728(2) 0.9304(2) 0.4775(2)
C109 C 0.6611(2) 0.5550(2) 0.53971(18)
C110 C 0.6442(2) 0.4047(3) 0.41512(19)
C111 C 0.5573(2) 0.9320(2) 0.4220(2)
C112 C 0.5653(2) 0.8280(3) 0.33609(18)
C113 C 0.68441(19) 0.8348(2) 0.37978(17)
C114 C 0.5591(2) 0.7371(3) 0.6006(2)
C115 C 0.6213(2) 0.8746(2) 0.3733(2)
C116 C 0.5735(2) 0.9423(2) 0.4861(2)
C117 C 0.6531(2) 0.6592(3) 0.62693(17)
C118 C 0.5019(2) 0.8883(3) 0.3845(2)
C119 C 0.4898(2) 0.6031(2) 0.4682(2)
C120 C 0.6524(2) 0.4354(2) 0.47572(18)
H17 H 0.6952 0.4197 0.5074
H18 H 0.6189 0.4127 0.4854
C121 C 0.44057(18) 0.7772(3) 0.3819(2)
C122 C 0.5468(2) 0.5589(2) 0.4840(2)
C123 C 0.5059(2) 0.8352(3) 0.34079(19)
C124 C 0.6341(3) 0.8712(3) 0.6040(2)
C125 C 0.64680(19) 0.5262(2) 0.47573(18)
C126 C 0.6874(2) 0.4365(2) 0.39417(19)
C127 C 0.6171(2) 0.9249(2) 0.4154(2)
C128 C 0.5272(2) 0.8041(3) 0.5694(2)
C129 C 0.4729(2) 0.7987(3) 0.5084(2)
C130 C 0.74484(18) 0.8411(2) 0.44714(18)
C131 C 0.7810(2) 0.8037(2) 0.2919(2)
H19 H 0.7460 0.7970 0.2532
C132 C 0.4523(2) 0.7260(3) 0.4805(2)
C133 C 0.5997(2) 0.3201(2) 0.3275(2)
H20 H 0.5695 0.2822 0.3044
C134 C 0.4619(2) 0.8530(3) 0.4103(2)
C135 C 0.73149(19) 0.5013(2) 0.43204(18)
H21 H 0.7533 0.5251 0.4096
H22 H 0.7653 0.4801 0.4700
C136 C 0.43568(18) 0.7150(3) 0.4158(2)
C137 C 0.4771(2) 0.8633(3) 0.4719(2)
C138 C 0.4905(2) 0.6935(3) 0.33230(17)
C139 C 0.7328(2) 0.8594(3) 0.59492(19)
C140 C 0.6447(2) 0.3491(3) 0.30843(19)
H23 H 0.6456 0.3294 0.2731
C141 C 0.7048(2) 0.8682(2) 0.33048(18)
H24 H 0.6711 0.8550 0.2898
H25 H 0.7073 0.9245 0.3337
C142 C 0.6747(2) 0.9065(3) 0.5785(2)
C143 C 0.5348(2) 0.9086(3) 0.5109(2)
C144 C 0.80565(19) 0.8813(2) 0.44428(18)
H26 H 0.7961 0.9362 0.4351
H27 H 0.8436 0.8773 0.4841
C145 C 0.5998(2) 0.3475(2) 0.3810(2)
H28 H 0.5699 0.3276 0.3942
C146 C 0.6307(2) 0.7358(3) 0.63495(18)
C147 C 0.6883(2) 0.4072(2) 0.3417(2)
H29 H 0.7183 0.4266 0.3286
C148 C 0.6453(2) 0.9412(2) 0.5207(2)
C149 C 0.8845(2) 0.8212(2) 0.4075(2)
H30 H 0.9193 0.8262 0.4465
C150 C 0.5654(3) 0.8726(3) 0.5709(2)
C151 C 0.8436(3) 0.7804(2) 0.3027(2)
H31 H 0.8509 0.7585 0.2712
C152 C 0.8955(2) 0.7896(2) 0.3604(2)
H32 H 0.9379 0.7746 0.3676
C153 C 0.4927(2) 0.5702(3) 0.1845(2)
H33 H 0.5257 0.5779 0.1721
C154 C 0.5010(2) 0.5160(3) 0.2293(2)
H34 H 0.5397 0.4870 0.2468
C155 C 0.4525(3) 0.5045(3) 0.2484(2)
H35 H 0.4584 0.4681 0.2787
C156 C 0.3872(2) 0.6015(3) 0.1774(3)
H36 H 0.3486 0.6307 0.1598
C157 C 0.3952(3) 0.5480(3) 0.2218(3)
H37 H 0.3620 0.5408 0.2341
C158 C 0.4355(3) 0.6125(3) 0.1586(2)
H38 H 0.4293 0.6487 0.1282
C159 C 1.0799(3) -0.0269(4) 1.0390(4)
H39 H 1.0721 -0.0788 1.0445
C160 C 1.0840(3) -0.0051(5) 0.9871(3)
H40 H 1.0775 -0.0415 0.9566
C161 C 1.1045(3) 0.1246(4) 1.0250(5)
H41 H 1.1132 0.1765 1.0205
C162 C 1.0977(3) 0.0701(6) 0.9800(3)
H42 H 1.1025 0.0852 0.9454
C163 C 1.0870(3) 0.0259(5) 1.0828(3)
H43 H 1.0841 0.0103 1.1182
C164 C 1.0983(3) 0.1009(5) 1.0752(4)
H44 H 1.1018 0.1371 1.1050
loop_
_geom_bond_atom_site_label_1
_geom_bond_atom_site_label_2
_geom_bond_site_symmetry_1
_geom_bond_site_symmetry_2
C1 C3 1_555 1_555
C2 C3 1_555 1_555
C3 C11 1_555 1_555
C4 C5 1_555 1_555
C5 C6 1_555 1_555
C6 C1 1_555 1_555
C7 C1 1_555 1_555
C8 C4 1_555 1_555
C9 C17 1_555 1_555
C10 C11 1_555 1_555
C11 C28 1_555 1_555
C12 C5 1_555 1_555
C13 C10 1_555 1_555
C14 C13 1_555 1_555
C15 C12 1_555 1_555
C16 C36 1_555 1_555
C17 C38 1_555 1_555
C18 C32 1_555 1_555
C19 C13 1_555 1_555
C20 C15 1_555 1_555
C21 C14 1_555 1_555
C22 C38 1_555 1_555
C23 C21 1_555 1_555
C24 C7 1_555 1_555
C25 C40 1_555 1_555
C26 C46 1_555 1_555
C27 C4 1_555 1_555
C28 C9 1_555 1_555
C29 C6 1_555 1_555
C30 C40 1_555 1_555
C31 C15 1_555 1_555
C32 C2 1_555 1_555
C33 C43 1_555 1_555
C34 C45 1_555 1_555
C35 C20 1_555 1_555
C36 C63 1_555 1_555
C37 C20 1_555 1_555
C38 C21 1_555 1_555
C39 C2 1_555 1_555
C40 C35 1_555 1_555
C41 C17 1_555 1_555
C42 C18 1_555 1_555
C43 C27 1_555 1_555
C44 C33 1_555 1_555
C45 C73 1_555 1_555
C46 C30 1_555 1_555
C47 C43 1_555 1_555
C48 C16 1_555 1_555
H1 C48 1_555 1_555
C49 C60 1_555 1_555
C50 C44 1_555 1_555
C51 C8 1_555 1_555
C52 C35 1_555 1_555
C53 C22 1_555 1_555
C54 C31 1_555 1_555
C55 C19 1_555 1_555
C56 C61 1_555 1_555
C57 C48 1_555 1_555
H2 C57 1_555 1_555
C58 C16 1_555 1_555
H3 C58 1_555 1_555
H4 C58 1_555 1_555
C59 C25 1_555 1_555
C60 C22 1_555 1_555
C61 C30 1_555 1_555
C62 C26 1_555 1_555
C63 H5 1_555 1_555
C64 C41 1_555 1_555
C65 C10 1_555 1_555
H6 C65 1_555 1_555
H7 C65 1_555 1_555
C66 C26 1_555 1_555
C67 C25 1_555 1_555
C68 C50 1_555 1_555
C69 C57 1_555 1_555
H8 C69 1_555 1_555
C70 C34 1_555 1_555
H9 C70 1_555 1_555
H10 C70 1_555 1_555
C71 C34 1_555 1_555
H11 C71 1_555 1_555
C72 C39 1_555 1_555
C73 C72 1_555 1_555
H12 C73 1_555 1_555
H13 C73 1_555 1_555
C74 H14 1_555 1_555
C75 C71 1_555 1_555
H15 C75 1_555 1_555
C76 C45 1_555 1_555
H16 C76 1_555 1_555
C77 C91 1_555 1_555
C78 C85 1_555 1_555
C79 C80 1_555 1_555
C80 C94 1_555 1_555
C81 C85 1_555 1_555
C82 C92 1_555 1_555
C83 C87 1_555 1_555
C84 C106 1_555 1_555
C85 C86 1_555 1_555
C86 C90 1_555 1_555
C87 C98 1_555 1_555
C88 C92 1_555 1_555
C89 C78 1_555 1_555
C90 C99 1_555 1_555
C91 C93 1_555 1_555
C92 C78 1_555 1_555
C93 C122 1_555 1_555
C94 C101 1_555 1_555
C95 C102 1_555 1_555
C96 C88 1_555 1_555
C97 C79 1_555 1_555
C98 C103 1_555 1_555
C99 C77 1_555 1_555
C100 C81 1_555 1_555
C101 C77 1_555 1_555
C102 C91 1_555 1_555
C103 C119 1_555 1_555
C104 C121 1_555 1_555
C105 C107 1_555 1_555
C106 C144 1_555 1_555
C107 C89 1_555 1_555
C108 C96 1_555 1_555
C109 C81 1_555 1_555
C110 C120 1_555 1_555
C111 C116 1_555 1_555
C112 C94 1_555 1_555
C113 C80 1_555 1_555
C114 C98 1_555 1_555
C115 C112 1_555 1_555
C116 C143 1_555 1_555
C117 C87 1_555 1_555
C118 C111 1_555 1_555
C119 C95 1_555 1_555
C120 H17 1_555 1_555
H18 C120 1_555 1_555
C121 C134 1_555 1_555
C122 C83 1_555 1_555
C123 C104 1_555 1_555
C124 C105 1_555 1_555
C125 C90 1_555 1_555
C126 C110 1_555 1_555
C127 C108 1_555 1_555
C128 C114 1_555 1_555
C129 C128 1_555 1_555
C130 C82 1_555 1_555
C131 C84 1_555 1_555
H19 C131 1_555 1_555
C132 C103 1_555 1_555
C133 H20 1_555 1_555
C134 C118 1_555 1_555
C135 C90 1_555 1_555
H21 C135 1_555 1_555
H22 C135 1_555 1_555
C136 C95 1_555 1_555
C137 C129 1_555 1_555
C138 C101 1_555 1_555
C139 C88 1_555 1_555
C140 C133 1_555 1_555
H23 C140 1_555 1_555
C141 C84 1_555 1_555
H24 C141 1_555 1_555
H25 C141 1_555 1_555
C142 C124 1_555 1_555
C143 C137 1_555 1_555
C144 C130 1_555 1_555
H26 C144 1_555 1_555
H27 C144 1_555 1_555
C145 C110 1_555 1_555
H28 C145 1_555 1_555
C146 C105 1_555 1_555
C147 C126 1_555 1_555
H29 C147 1_555 1_555
C148 C108 1_555 1_555
C149 C106 1_555 1_555
H30 C149 1_555 1_555
C150 C124 1_555 1_555
C151 C131 1_555 1_555
H31 C151 1_555 1_555
C152 C149 1_555 1_555
H32 C152 1_555 1_555
C153 H33 1_555 1_555
C154 C153 1_555 1_555
H34 C154 1_555 1_555
C155 C154 1_555 1_555
H35 C155 1_555 1_555
C156 H36 1_555 1_555
C157 C155 1_555 1_555
H37 C157 1_555 1_555
C158 C153 1_555 1_555
H38 C158 1_555 1_555
C159 H39 1_555 1_555
C160 C159 1_555 1_555
H40 C160 1_555 1_555
C161 H41 1_555 1_555
C162 C160 1_555 1_555
H42 C162 1_555 1_555
C163 C159 1_555 1_555
H43 C163 1_555 1_555
C164 C161 1_555 1_555
H44 C164 1_555 1_555
C7 C39 1_555 1_555
C8 C29 1_555 1_555
C9 C32 1_555 1_555
C10 C29 1_555 1_555
C12 C24 1_555 1_555
C14 C28 1_555 1_555
C18 C41 1_555 1_555
C19 C51 1_555 1_555
C23 C53 1_555 1_555
C23 C55 1_555 1_555
C24 C37 1_555 1_555
C27 C31 1_555 1_555
C29 C58 1_555 1_555
C33 C51 1_555 1_555
C36 C65 1_555 1_555
C37 C59 1_555 1_555
C39 C70 1_555 1_555
C42 C67 1_555 1_555
C42 C72 1_555 1_555
C44 C55 1_555 1_555
C46 C52 1_555 1_555
C47 C54 1_555 1_555
C47 C62 1_555 1_555
C49 C61 1_555 1_555
C49 C66 1_555 1_555
C50 C62 1_555 1_555
C52 C54 1_555 1_555
C53 C68 1_555 1_555
C56 C64 1_555 1_555
C56 C67 1_555 1_555
C59 C72 1_555 1_555
C60 C64 1_555 1_555
C63 C69 1_555 1_555
C66 C68 1_555 1_555
C74 C75 1_555 1_555
C74 C76 1_555 1_555
C79 C99 1_555 1_555
C82 C97 1_555 1_555
C83 C109 1_555 1_555
C86 C97 1_555 1_555
C89 C100 1_555 1_555
C93 C125 1_555 1_555
C96 C130 1_555 1_555
C100 C117 1_555 1_555
C102 C138 1_555 1_555
C104 C138 1_555 1_555
C107 C139 1_555 1_555
C109 C125 1_555 1_555
C111 C127 1_555 1_555
C112 C123 1_555 1_555
C113 C115 1_555 1_555
C113 C130 1_555 1_555
C113 C141 1_555 1_555
C114 C146 1_555 1_555
C115 C127 1_555 1_555
C116 C148 1_555 1_555
C117 C146 1_555 1_555
C118 C123 1_555 1_555
C119 C122 1_555 1_555
C120 C125 1_555 1_555
C121 C136 1_555 1_555
C126 C135 1_555 1_555
C128 C150 1_555 1_555
C129 C132 1_555 1_555
C132 C136 1_555 1_555
C133 C145 1_555 1_555
C134 C137 1_555 1_555
C139 C142 1_555 1_555
C140 C147 1_555 1_555
C142 C148 1_555 1_555
C143 C150 1_555 1_555
C151 C152 1_555 1_555
C156 C157 1_555 1_555
C156 C158 1_555 1_555
C161 C162 1_555 1_555
C163 C164 1_555 1_555

#END
