
#######################################################################
#
#                 Cambridge Crystallographic Data Centre
#                                CCDC 
#
#######################################################################
#
# If this CIF has been generated from an entry in the Cambridge 
# Structural Database, then it will include bibliographic, chemical, 
# crystal, experimental, refinement or atomic coordinate data resulting 
# from the CCDC's data processing and validation procedures.
#
#######################################################################

data_WEJLIJ
_chemical_formula_moiety         'C29 H36 O5'
_chemical_name_systematic        
'dimethyl 7,9-di-t-butyl-4-methylidene-8-oxo-1-phenylspiro[4.5]deca-6,9-diene-2,2-dicarboxylate'
_symmetry_cell_setting           monoclinic
_symmetry_space_group_name_H-M   'P 21/c'
_symmetry_Int_Tables_number      14
_space_group_name_Hall           '-P 2ybc'
loop_
_symmetry_equiv_pos_site_id
_symmetry_equiv_pos_as_xyz
1 x,y,z
2 -x,1/2+y,1/2-z
3 -x,-y,-z
4 x,1/2-y,1/2+z
_cell_length_a                   11.377(5)
_cell_length_b                   30.750(14)
_cell_length_c                   15.411(7)
_cell_angle_alpha                90
_cell_angle_beta                 91.920(6)
_cell_angle_gamma                90
_cell_volume                     5388.4
_exptl_crystal_colour            colorless
_exptl_crystal_description       block
_cell_formula_units_Z            8
loop_
_atom_site_label
_atom_site_type_symbol
_atom_site_fract_x
_atom_site_fract_y
_atom_site_fract_z
C1 C 0.4523(3) 0.12898(17) 0.3295(3)
H1 H 0.3836 0.1251 0.2926
H2 H 0.4388 0.1521 0.3700
H3 H 0.4688 0.1025 0.3608
C2 C 0.5220(4) 0.18086(12) 0.2204(3)
H4 H 0.5848 0.1886 0.1833
H5 H 0.5064 0.2047 0.2586
H6 H 0.4525 0.1745 0.1855
C3 C 0.5811(3) 0.10283(11) 0.2128(2)
H7 H 0.6410 0.1111 0.1736
H8 H 0.5102 0.0957 0.1803
H9 H 0.6069 0.0780 0.2459
C4 C 0.5573(3) 0.14061(10) 0.27417(17)
C5 C 0.6671(2) 0.14974(8) 0.33111(16)
C6 C 0.7764(3) 0.16352(11) 0.29026(19)
C7 C 0.6714(2) 0.14324(8) 0.41702(16)
H10 H 0.6035 0.1330 0.4422
C8 C 0.7759(2) 0.15101(8) 0.47542(16)
C9 C 0.8737(2) 0.17218(8) 0.43041(17)
H11 H 0.9361 0.1828 0.4647
C10 C 0.8795(2) 0.17721(9) 0.34499(18)
C11 C 0.9886(3) 0.19450(11) 0.3010(2)
C12 C 0.9560(4) 0.23350(15) 0.2443(3)
H12 H 0.8967 0.2251 0.2018
H13 H 1.0244 0.2436 0.2156
H14 H 0.9263 0.2564 0.2799
C13 C 1.0419(4) 0.15767(16) 0.2465(3)
H15 H 0.9873 0.1497 0.2003
H16 H 1.0575 0.1329 0.2828
H17 H 1.1139 0.1676 0.2224
C14 C 1.0836(3) 0.20901(14) 0.3674(3)
H18 H 1.1494 0.2206 0.3376
H19 H 1.1089 0.1845 0.4019
H20 H 1.0522 0.2310 0.4043
C15 C 0.7349(2) 0.17436(9) 0.55639(17)
C16 C 0.7485(3) 0.21587(10) 0.5737(2)
H21 H 0.7227 0.2272 0.6257
H22 H 0.7838 0.2340 0.5339
C17 C 0.6800(2) 0.14105(9) 0.61337(17)
H23 H 0.5968 0.1381 0.5987
H24 H 0.6891 0.1494 0.6739
C18 C 0.7452(2) 0.09766(8) 0.59673(15)
C19 C 0.8268(2) 0.10805(8) 0.51939(15)
H25 H 0.9017 0.1170 0.5472
C20 C 0.8593(2) 0.07228(8) 0.45752(16)
C21 C 0.9750(3) 0.05992(11) 0.4525(2)
H26 H 1.0313 0.0731 0.4889
C22 C 1.0102(3) 0.02811(12) 0.3941(2)
H27 H 1.0890 0.0202 0.3922
C23 C 0.9294(3) 0.00868(11) 0.3399(2)
H28 H 0.9526 -0.0123 0.3005
C24 C 0.8151(3) 0.02012(10) 0.3439(2)
H29 H 0.7595 0.0068 0.3071
C25 C 0.7793(2) 0.05162(9) 0.40209(18)
H30 H 0.7001 0.0589 0.4038
C26 C 0.6602(2) 0.06079(9) 0.57440(17)
C27 C 0.8164(2) 0.08585(9) 0.67900(17)
C28 C 0.6455(3) -0.01566(11) 0.5624(3)
H31 H 0.5697 -0.0149 0.5879
H32 H 0.6870 -0.0413 0.5817
H33 H 0.6358 -0.0162 0.5003
C29 C 0.7952(3) 0.06439(12) 0.82469(19)
H34 H 0.8570 0.0434 0.8193
H35 H 0.7359 0.0529 0.8611
H36 H 0.8270 0.0906 0.8501
O1 O 0.7820(3) 0.16388(13) 0.21064(16)
O2 O 0.92026(18) 0.08922(7) 0.68911(12)
O3 O 0.74423(16) 0.07393(7) 0.74026(12)
O4 O 0.56191(16) 0.06530(7) 0.54571(13)
O5 O 0.71183(15) 0.02251(6) 0.58853(13)
C30 C 0.1874(4) 0.19703(17) 0.6518(3)
H37 H 0.2241 0.2219 0.6789
H38 H 0.1328 0.1843 0.6906
H39 H 0.1463 0.2059 0.5993
C31 C 0.2802(2) 0.16400(9) 0.63054(18)
C32 C 0.3689(3) 0.18318(15) 0.5713(2)
H40 H 0.3287 0.1981 0.5243
H41 H 0.4164 0.1604 0.5485
H42 H 0.4181 0.2033 0.6033
C33 C 0.2175(4) 0.12756(15) 0.5801(3)
H43 H 0.1509 0.1179 0.6116
H44 H 0.2708 0.1037 0.5730
H45 H 0.1914 0.1382 0.5241
C34 C 0.3362(2) 0.14620(8) 0.71524(16)
C35 C 0.3174(2) 0.10590(9) 0.74267(16)
H46 H 0.2721 0.0871 0.7046
C36 C 0.3579(2) 0.08734(8) 0.82812(15)
C37 C 0.4414(2) 0.11708(9) 0.87544(16)
H47 H 0.4775 0.1066 0.9263
C38 C 0.4689(2) 0.15736(8) 0.85109(17)
C39 C 0.4092(3) 0.17456(10) 0.7710(2)
C40 C 0.6517(3) 0.20311(13) 0.8458(2)
H48 H 0.7011 0.2230 0.8784
H49 H 0.6176 0.2177 0.7961
H50 H 0.6977 0.1789 0.8271
C41 C 0.5539(3) 0.18675(9) 0.90306(19)
C42 C 0.4868(3) 0.22546(12) 0.9401(3)
H51 H 0.4284 0.2150 0.9785
H52 H 0.4491 0.2414 0.8934
H53 H 0.5408 0.2441 0.9714
C43 C 0.6126(3) 0.16183(12) 0.9788(2)
H54 H 0.6663 0.1807 1.0100
H55 H 0.6547 0.1374 0.9568
H56 H 0.5535 0.1518 1.0171
C44 C 0.2449(2) 0.07600(8) 0.87959(16)
H57 H 0.1881 0.0656 0.8351
C45 C 0.4149(2) 0.04269(8) 0.82037(18)
C46 C 0.3939(2) 0.01798(9) 0.90194(19)
H58 H 0.4570 0.0232 0.9445
H59 H 0.3898 -0.0130 0.8901
C47 C 0.2756(2) 0.03450(8) 0.93597(16)
C48 C 0.4713(3) 0.02864(11) 0.7538(2)
H60 H 0.5030 0.0008 0.7544
H61 H 0.4799 0.0465 0.7057
C49 C 0.1842(2) 0.11399(9) 0.92145(19)
C50 C 0.0761(3) 0.12705(11) 0.8868(2)
H62 H 0.0424 0.1123 0.8396
C51 C 0.0172(4) 0.16233(14) 0.9224(3)
H63 H -0.0548 0.1714 0.8984
C52 C 0.0655(5) 0.18328(14) 0.9920(3)
H64 H 0.0244 0.2060 1.0169
C53 C 0.1719(4) 0.17201(12) 1.0262(3)
H65 H 0.2047 0.1873 1.0731
C54 C 0.2317(3) 0.13759(10) 0.9909(2)
H66 H 0.3053 0.1300 1.0142
C55 C 0.1783(2) 0.00089(8) 0.92169(17)
C56 C 0.2874(2) 0.04425(8) 1.03298(18)
C57 C 0.1819(3) 0.05504(13) 1.16095(19)
H67 H 0.2371 0.0376 1.1939
H68 H 0.1042 0.0503 1.1816
H69 H 0.2023 0.0852 1.1675
C58 C 0.1245(3) -0.07219(10) 0.9479(2)
H70 H 0.0509 -0.0640 0.9717
H71 H 0.1542 -0.0977 0.9770
H72 H 0.1131 -0.0782 0.8870
O6 O 0.20852(16) -0.03679(6) 0.95969(12)
O7 O 0.08729(18) 0.00645(7) 0.88218(14)
O8 O 0.18476(17) 0.04303(6) 1.07000(11)
O9 O 0.37878(18) 0.05250(8) 1.06997(14)
O10 O 0.4200(4) 0.21269(9) 0.7525(2)
loop_
_geom_bond_atom_site_label_1
_geom_bond_atom_site_label_2
_geom_bond_site_symmetry_1
_geom_bond_site_symmetry_2
C1 H1 1_555 1_555
H2 C1 1_555 1_555
H3 C1 1_555 1_555
C2 H4 1_555 1_555
H5 C2 1_555 1_555
H6 C2 1_555 1_555
C3 H7 1_555 1_555
H8 C3 1_555 1_555
H9 C3 1_555 1_555
C4 C1 1_555 1_555
C5 C4 1_555 1_555
C6 C5 1_555 1_555
C7 C5 1_555 1_555
H10 C7 1_555 1_555
C8 C7 1_555 1_555
C9 C8 1_555 1_555
H11 C9 1_555 1_555
C10 C6 1_555 1_555
C11 C10 1_555 1_555
C12 C11 1_555 1_555
H12 C12 1_555 1_555
H13 C12 1_555 1_555
H14 C12 1_555 1_555
C13 C11 1_555 1_555
H15 C13 1_555 1_555
H16 C13 1_555 1_555
H17 C13 1_555 1_555
C14 C11 1_555 1_555
H18 C14 1_555 1_555
H19 C14 1_555 1_555
H20 C14 1_555 1_555
C15 C8 1_555 1_555
C16 C15 1_555 1_555
H21 C16 1_555 1_555
H22 C16 1_555 1_555
C17 C15 1_555 1_555
H23 C17 1_555 1_555
H24 C17 1_555 1_555
C18 C17 1_555 1_555
C19 C8 1_555 1_555
H25 C19 1_555 1_555
C20 C19 1_555 1_555
C21 C20 1_555 1_555
H26 C21 1_555 1_555
C22 C21 1_555 1_555
H27 C22 1_555 1_555
C23 C22 1_555 1_555
H28 C23 1_555 1_555
C24 C23 1_555 1_555
H29 C24 1_555 1_555
C25 C20 1_555 1_555
H30 C25 1_555 1_555
C26 C18 1_555 1_555
C27 C18 1_555 1_555
C28 H31 1_555 1_555
H32 C28 1_555 1_555
H33 C28 1_555 1_555
C29 H34 1_555 1_555
H35 C29 1_555 1_555
H36 C29 1_555 1_555
O1 C6 1_555 1_555
O2 C27 1_555 1_555
O3 C27 1_555 1_555
O4 C26 1_555 1_555
O5 C26 1_555 1_555
C30 H37 1_555 1_555
H38 C30 1_555 1_555
H39 C30 1_555 1_555
C31 C30 1_555 1_555
C32 C31 1_555 1_555
H40 C32 1_555 1_555
H41 C32 1_555 1_555
H42 C32 1_555 1_555
C33 C31 1_555 1_555
H43 C33 1_555 1_555
H44 C33 1_555 1_555
H45 C33 1_555 1_555
C34 C31 1_555 1_555
C35 C34 1_555 1_555
H46 C35 1_555 1_555
C36 C35 1_555 1_555
C37 C36 1_555 1_555
H47 C37 1_555 1_555
C38 C37 1_555 1_555
C39 C34 1_555 1_555
C40 H48 1_555 1_555
H49 C40 1_555 1_555
H50 C40 1_555 1_555
C41 C38 1_555 1_555
C42 C41 1_555 1_555
H51 C42 1_555 1_555
H52 C42 1_555 1_555
H53 C42 1_555 1_555
C43 C41 1_555 1_555
H54 C43 1_555 1_555
H55 C43 1_555 1_555
H56 C43 1_555 1_555
C44 C36 1_555 1_555
H57 C44 1_555 1_555
C45 C36 1_555 1_555
C46 C45 1_555 1_555
H58 C46 1_555 1_555
H59 C46 1_555 1_555
C47 C44 1_555 1_555
C48 C45 1_555 1_555
H60 C48 1_555 1_555
H61 C48 1_555 1_555
C49 C44 1_555 1_555
C50 C49 1_555 1_555
H62 C50 1_555 1_555
C51 C50 1_555 1_555
H63 C51 1_555 1_555
C52 C51 1_555 1_555
H64 C52 1_555 1_555
C53 C52 1_555 1_555
H65 C53 1_555 1_555
C54 C49 1_555 1_555
H66 C54 1_555 1_555
C55 C47 1_555 1_555
C56 C47 1_555 1_555
C57 H67 1_555 1_555
H68 C57 1_555 1_555
H69 C57 1_555 1_555
C58 H70 1_555 1_555
H71 C58 1_555 1_555
H72 C58 1_555 1_555
O6 C55 1_555 1_555
O7 C55 1_555 1_555
O8 C56 1_555 1_555
O9 C56 1_555 1_555
O10 C39 1_555 1_555
C2 C4 1_555 1_555
C3 C4 1_555 1_555
C9 C10 1_555 1_555
C18 C19 1_555 1_555
C24 C25 1_555 1_555
C28 O5 1_555 1_555
C29 O3 1_555 1_555
C38 C39 1_555 1_555
C40 C41 1_555 1_555
C46 C47 1_555 1_555
C53 C54 1_555 1_555
C57 O8 1_555 1_555
C58 O6 1_555 1_555

#END
