
#######################################################################
#
#                 Cambridge Crystallographic Data Centre
#                                CCDC 
#
#######################################################################
#
# If this CIF has been generated from an entry in the Cambridge 
# Structural Database, then it will include bibliographic, chemical, 
# crystal, experimental, refinement or atomic coordinate data resulting 
# from the CCDC's data processing and validation procedures.
#
#######################################################################

data_WEJZOD
_chemical_formula_moiety         'C22 H19 N1 O5,0.25(C1 H4 O1)'
_chemical_name_systematic        
"3'-hydroxy-2-(2-hydroxyethyl)-7-methoxy-7'-methylspiro[isoindole-1,2'-naphtho[1,8-bc]furan]-3(2H)-one methanol solvate"
_symmetry_cell_setting           triclinic
_symmetry_space_group_name_H-M   'P -1'
_symmetry_Int_Tables_number      2
_space_group_name_Hall           '-P 1'
loop_
_symmetry_equiv_pos_site_id
_symmetry_equiv_pos_as_xyz
1 x,y,z
2 -x,-y,-z
_cell_length_a                   12.3247(13)
_cell_length_b                   12.4856(12)
_cell_length_c                   13.5866(14)
_cell_angle_alpha                82.066(2)
_cell_angle_beta                 75.198(3)
_cell_angle_gamma                70.107(3)
_cell_volume                     1897.72
_exptl_crystal_colour            brown
_exptl_crystal_description       block
_cell_formula_units_Z            4
loop_
_atom_site_label
_atom_site_type_symbol
_atom_site_fract_x
_atom_site_fract_y
_atom_site_fract_z
O1 O 0.95454(11) -0.00227(11) 0.35578(9)
O2 O 0.89623(13) 0.25690(12) 0.28047(10)
O3 O 0.66401(13) -0.21567(12) 0.54672(10)
H1 H 0.6870 -0.2501 0.5990
O4 O 0.76893(13) 0.03492(13) 0.68160(10)
O5 O 0.56724(12) 0.18679(13) 0.43692(10)
H2 H 0.4955 0.1998 0.4380
N1 N 0.81271(15) 0.00485(14) 0.51139(11)
C1 C 1.0729(2) -0.17964(19) 0.02065(17)
H3 H 1.0865 -0.2609 0.0403
H4 H 1.1473 -0.1627 0.0098
H5 H 1.0441 -0.1611 -0.0425
C2 C 0.98225(19) -0.10952(17) 0.10408(14)
C3 C 1.02209(18) -0.09493(16) 0.19080(14)
H6 H 1.1024 -0.1289 0.1955
C4 C 0.94004(17) -0.03070(16) 0.26544(14)
C5 C 0.83958(16) 0.06500(16) 0.41280(13)
C6 C 0.84255(16) 0.17548(17) 0.44410(14)
C7 C 0.86501(17) 0.26727(17) 0.38306(14)
C8 C 0.9192(2) 0.35252(18) 0.21882(16)
H7 H 0.8489 0.4201 0.2328
H8 H 0.9380 0.3367 0.1467
H9 H 0.9863 0.3664 0.2347
C9 C 0.67432(19) -0.10442(18) 0.53539(16)
H10 H 0.6254 -0.0622 0.5965
H11 H 0.6435 -0.0628 0.4756
C10 C 0.80169(18) -0.10793(17) 0.52128(14)
H12 H 0.8328 -0.1508 0.5805
H13 H 0.8503 -0.1491 0.4595
C11 C 0.79546(16) 0.06747(18) 0.59194(14)
C12 C 0.81272(17) 0.17741(18) 0.54926(14)
C13 C 0.86588(19) -0.06198(17) 0.09769(14)
H14 H 0.8426 -0.0732 0.0394
C14 C 0.77971(18) 0.00367(16) 0.17671(14)
C15 C 0.82153(17) 0.01699(16) 0.25908(13)
C16 C 0.75441(17) 0.07717(16) 0.34510(13)
C17 C 0.63566(17) 0.12873(16) 0.35293(13)
C18 C 0.58830(17) 0.11893(16) 0.27020(14)
H15 H 0.5062 0.1552 0.2734
C19 C 0.65692(18) 0.05898(17) 0.18590(14)
H16 H 0.6211 0.0547 0.1330
C20 C 0.85300(19) 0.36396(18) 0.43140(16)
H17 H 0.8675 0.4286 0.3918
C21 C 0.8198(2) 0.36577(19) 0.53770(17)
H18 H 0.8104 0.4328 0.5690
C22 C 0.80014(19) 0.27256(19) 0.59876(16)
H19 H 0.7791 0.2737 0.6710
O6 O 0.68825(13) 0.45102(12) 0.10700(10)
O7 O 0.86052(11) 0.60083(11) 0.00206(9)
O8 O 0.47553(12) 0.79995(11) 0.04418(10)
H20 H 0.4106 0.8470 0.0705
O9 O 0.72962(14) 0.72996(13) -0.27535(10)
O10 O 0.71936(12) 1.02823(11) -0.11316(10)
H21 H 0.7541 1.0357 -0.1743
N2 N 0.74916(14) 0.72244(13) -0.11159(11)
C23 C 0.66191(19) 0.35541(17) 0.16690(16)
H22 H 0.5815 0.3586 0.1665
H23 H 0.6677 0.3578 0.2371
H24 H 0.7186 0.2845 0.1380
C24 C 0.67617(17) 0.46620(16) 0.00894(14)
C25 C 0.70237(16) 0.55869(15) -0.04845(14)
C26 C 0.74097(16) 0.64983(15) -0.01796(13)
C27 C 0.85571(17) 0.62729(15) 0.09928(13)
C28 C 0.94586(17) 0.60051(15) 0.14845(14)
H25 H 1.0250 0.5600 0.1167
C29 C 0.91510(18) 0.63665(16) 0.25065(15)
C30 C 1.0133(2) 0.6064(2) 0.30651(17)
H26 H 0.9812 0.6354 0.3750
H27 H 1.0736 0.6409 0.2691
H28 H 1.0490 0.5233 0.3119
C31 C 0.80153(18) 0.69572(17) 0.29715(14)
H29 H 0.7846 0.7165 0.3654
C32 C 0.70848(17) 0.72626(16) 0.24391(13)
C33 C 0.58734(18) 0.78857(17) 0.27563(14)
H30 H 0.5575 0.8149 0.3427
C34 C 0.51156(17) 0.81174(16) 0.21033(14)
H31 H 0.4307 0.8545 0.2338
C35 C 0.55029(16) 0.77375(15) 0.10888(13)
C36 C 0.66629(17) 0.71019(15) 0.07792(13)
C37 C 0.74158(16) 0.68924(15) 0.14482(13)
C38 C 0.72421(17) 0.68376(16) -0.18895(14)
C39 C 0.69171(16) 0.58011(16) -0.14913(14)
C40 C 0.63875(18) 0.39641(17) -0.03779(16)
H32 H 0.6203 0.3324 -0.0004
C41 C 0.62831(18) 0.41996(17) -0.13898(16)
H33 H 0.6021 0.3717 -0.1690
C42 C 0.65502(18) 0.51160(17) -0.19678(15)
H34 H 0.6486 0.5269 -0.2659
C43 C 0.78594(17) 0.82280(16) -0.12202(13)
H35 H 0.8324 0.8303 -0.1923
H36 H 0.8378 0.8135 -0.0744
C44 C 0.68041(17) 0.93102(16) -0.09977(14)
H37 H 0.6274 0.9399 -0.1462
H38 H 0.6350 0.9249 -0.0289
O11 O 0.5109(4) 0.5153(4) 0.4443(4)
H39 H 0.4714 0.5823 0.4291
C45 C 0.4816(5) 0.4430(4) 0.4032(4)
H40 H 0.3962 0.4712 0.4067
H41 H 0.5020 0.3685 0.4405
H42 H 0.5246 0.4352 0.3318
loop_
_geom_bond_atom_site_label_1
_geom_bond_atom_site_label_2
_geom_bond_site_symmetry_1
_geom_bond_site_symmetry_2
O1 C4 1_555 1_555
O2 C7 1_555 1_555
O3 H1 1_555 1_555
O4 C11 1_555 1_555
O5 H2 1_555 1_555
N1 C5 1_555 1_555
C1 H3 1_555 1_555
H4 C1 1_555 1_555
H5 C1 1_555 1_555
C2 C1 1_555 1_555
C3 C2 1_555 1_555
H6 C3 1_555 1_555
C4 C3 1_555 1_555
C5 O1 1_555 1_555
C6 C5 1_555 1_555
C7 C6 1_555 1_555
C8 O2 1_555 1_555
H7 C8 1_555 1_555
H8 C8 1_555 1_555
H9 C8 1_555 1_555
C9 O3 1_555 1_555
H10 C9 1_555 1_555
H11 C9 1_555 1_555
C10 N1 1_555 1_555
H12 C10 1_555 1_555
H13 C10 1_555 1_555
C11 N1 1_555 1_555
C12 C6 1_555 1_555
C13 C2 1_555 1_555
H14 C13 1_555 1_555
C14 C13 1_555 1_555
C15 C4 1_555 1_555
C16 C5 1_555 1_555
C17 O5 1_555 1_555
C18 C17 1_555 1_555
H15 C18 1_555 1_555
C19 C14 1_555 1_555
H16 C19 1_555 1_555
C20 C7 1_555 1_555
H17 C20 1_555 1_555
C21 C20 1_555 1_555
H18 C21 1_555 1_555
C22 C12 1_555 1_555
H19 C22 1_555 1_555
O6 C23 1_555 1_555
O7 C26 1_555 1_555
O8 H20 1_555 1_555
O9 C38 1_555 1_555
O10 H21 1_555 1_555
N2 C26 1_555 1_555
C23 H22 1_555 1_555
H23 C23 1_555 1_555
H24 C23 1_555 1_555
C24 O6 1_555 1_555
C25 C24 1_555 1_555
C26 C25 1_555 1_555
C27 O7 1_555 1_555
C28 C27 1_555 1_555
H25 C28 1_555 1_555
C29 C28 1_555 1_555
C30 C29 1_555 1_555
H26 C30 1_555 1_555
H27 C30 1_555 1_555
H28 C30 1_555 1_555
C31 C29 1_555 1_555
H29 C31 1_555 1_555
C32 C31 1_555 1_555
C33 C32 1_555 1_555
H30 C33 1_555 1_555
C34 C33 1_555 1_555
H31 C34 1_555 1_555
C35 O8 1_555 1_555
C36 C26 1_555 1_555
C37 C27 1_555 1_555
C38 N2 1_555 1_555
C39 C25 1_555 1_555
C40 C24 1_555 1_555
H32 C40 1_555 1_555
C41 C40 1_555 1_555
H33 C41 1_555 1_555
C42 C39 1_555 1_555
H34 C42 1_555 1_555
C43 N2 1_555 1_555
H35 C43 1_555 1_555
H36 C43 1_555 1_555
C44 O10 1_555 1_555
H37 C44 1_555 1_555
H38 C44 1_555 1_555
O11 H39 1_555 1_555
C45 O11 1_555 1_555
H40 C45 1_555 1_555
H41 C45 1_555 1_555
H42 C45 1_555 1_555
C9 C10 1_555 1_555
C11 C12 1_555 1_555
C14 C15 1_555 1_555
C15 C16 1_555 1_555
C16 C17 1_555 1_555
C18 C19 1_555 1_555
C21 C22 1_555 1_555
C32 C37 1_555 1_555
C34 C35 1_555 1_555
C35 C36 1_555 1_555
C36 C37 1_555 1_555
C38 C39 1_555 1_555
C41 C42 1_555 1_555
C43 C44 1_555 1_555

#END
