
#######################################################################
#
#                 Cambridge Crystallographic Data Centre
#                                CCDC 
#
#######################################################################
#
# If this CIF has been generated from an entry in the Cambridge 
# Structural Database, then it will include bibliographic, chemical, 
# crystal, experimental, refinement or atomic coordinate data resulting 
# from the CCDC's data processing and validation procedures.
#
#######################################################################

data_WEKVIU
_chemical_formula_moiety         'C23 H22 N2 O2 S1'
_chemical_name_systematic        
4'-hydroxy-2'-(4-methylphenyl)-1-phenyl-6,7-dihydrospiro[indazole-5,3'-thiolan]-4(1H)-one
_symmetry_cell_setting           orthorhombic
_symmetry_space_group_name_H-M   'P b c a'
_symmetry_Int_Tables_number      61
_space_group_name_Hall           '-P 2ac 2ab'
loop_
_symmetry_equiv_pos_site_id
_symmetry_equiv_pos_as_xyz
1 x,y,z
2 1/2-x,-y,1/2+z
3 -x,1/2+y,1/2-z
4 1/2+x,1/2-y,-z
5 -x,-y,-z
6 1/2+x,y,1/2-z
7 x,1/2-y,1/2+z
8 1/2-x,1/2+y,z
_cell_length_a                   13.2002(18)
_cell_length_b                   10.1609(14)
_cell_length_c                   29.673(4)
_cell_angle_alpha                90
_cell_angle_beta                 90
_cell_angle_gamma                90
_cell_volume                     3979.92
_exptl_crystal_colour            colorless
_exptl_crystal_description       Block
_cell_formula_units_Z            8
loop_
_atom_site_label
_atom_site_type_symbol
_atom_site_fract_x
_atom_site_fract_y
_atom_site_fract_z
S1 S 0.29573(4) 0.43102(7) 0.64717(2)
O1 O 0.41041(9) 0.14685(12) 0.54550(4)
O2 O 0.38206(10) 0.46677(15) 0.52123(5)
H1 H 0.341914 0.449663 0.500975
N1 N 0.74182(10) 0.22659(13) 0.57095(4)
N2 N 0.73491(11) 0.12132(14) 0.54131(5)
C1 C 1.01769(16) 0.3065(2) 0.63404(9)
H2 H 1.079155 0.323660 0.648186
C2 C 1.01073(15) 0.3127(2) 0.58827(9)
H3 H 1.067758 0.334175 0.571398
C3 C 0.91987(14) 0.28761(18) 0.56652(7)
H4 H 0.915422 0.291773 0.535275
C4 C 0.83642(12) 0.25639(15) 0.59213(6)
C5 C 0.84254(14) 0.2497(2) 0.63829(6)
H5 H 0.785647 0.228531 0.655289
C6 C 0.93408(16) 0.2749(2) 0.65925(8)
H6 H 0.938951 0.270302 0.690476
C7 C 0.63741(13) 0.10925(17) 0.53294(6)
H7 H 0.609714 0.045610 0.514087
C8 C 0.58024(12) 0.20490(15) 0.55615(5)
C9 C 0.65051(11) 0.27857(15) 0.57960(5)
C10 C 0.62749(11) 0.39552(15) 0.60752(5)
H8 H 0.678698 0.462636 0.602881
H9 H 0.627306 0.371663 0.639177
C11 C 0.52308(11) 0.44846(15) 0.59383(6)
H10 H 0.530596 0.495991 0.565674
H11 H 0.501572 0.511441 0.616450
C12 C 0.43765(11) 0.34597(16) 0.58782(5)
C13 C 0.47229(12) 0.22445(15) 0.56095(5)
C14 C 0.34870(12) 0.40862(18) 0.56164(6)
H12 H 0.299255 0.339823 0.554429
C15 C 0.29933(14) 0.5081(2) 0.59259(8)
H13 H 0.231405 0.528806 0.582334
H14 H 0.338669 0.588654 0.593643
C16 C 0.38795(13) 0.30170(18) 0.63296(6)
H15 H 0.349972 0.220677 0.626999
C17 C 0.46195(13) 0.27319(18) 0.67066(6)
C18 C 0.50970(17) 0.15152(19) 0.67138(7)
H16 H 0.488082 0.085831 0.651785
C19 C 0.58882(19) 0.1261(2) 0.70068(8)
H17 H 0.619835 0.043896 0.700152
C20 C 0.62282(18) 0.2204(2) 0.73080(7)
C21 C 0.57104(17) 0.3387(2) 0.73179(6)
H18 H 0.589596 0.402042 0.752860
C22 C 0.49240(15) 0.3656(2) 0.70233(6)
H19 H 0.459608 0.446523 0.703780
C23 C 0.7128(2) 0.1943(3) 0.76080(9)
H20 H 0.758895 0.267212 0.759120
H21 H 0.746465 0.115599 0.751042
H22 H 0.690228 0.183574 0.791335
loop_
_geom_bond_atom_site_label_1
_geom_bond_atom_site_label_2
_geom_bond_site_symmetry_1
_geom_bond_site_symmetry_2
S1 C15 1_555 1_555
O1 C13 1_555 1_555
O2 H1 1_555 1_555
N1 N2 1_555 1_555
N2 C7 1_555 1_555
C1 H2 1_555 1_555
C2 C1 1_555 1_555
H3 C2 1_555 1_555
C3 C2 1_555 1_555
H4 C3 1_555 1_555
C4 N1 1_555 1_555
C5 C4 1_555 1_555
H5 C5 1_555 1_555
C6 C1 1_555 1_555
H6 C6 1_555 1_555
C7 H7 1_555 1_555
C8 C7 1_555 1_555
C9 N1 1_555 1_555
C10 C9 1_555 1_555
H8 C10 1_555 1_555
H9 C10 1_555 1_555
C11 C10 1_555 1_555
H10 C11 1_555 1_555
H11 C11 1_555 1_555
C12 C11 1_555 1_555
C13 C8 1_555 1_555
C14 O2 1_555 1_555
H12 C14 1_555 1_555
C15 C14 1_555 1_555
H13 C15 1_555 1_555
H14 C15 1_555 1_555
C16 S1 1_555 1_555
H15 C16 1_555 1_555
C17 C16 1_555 1_555
C18 C17 1_555 1_555
H16 C18 1_555 1_555
C19 C18 1_555 1_555
H17 C19 1_555 1_555
C20 C19 1_555 1_555
C21 C20 1_555 1_555
H18 C21 1_555 1_555
C22 C17 1_555 1_555
H19 C22 1_555 1_555
C23 C20 1_555 1_555
H20 C23 1_555 1_555
H21 C23 1_555 1_555
H22 C23 1_555 1_555
C3 C4 1_555 1_555
C5 C6 1_555 1_555
C8 C9 1_555 1_555
C12 C13 1_555 1_555
C12 C14 1_555 1_555
C12 C16 1_555 1_555
C21 C22 1_555 1_555

#END
