
#######################################################################
#
#                 Cambridge Crystallographic Data Centre
#                                CCDC 
#
#######################################################################
#
# If this CIF has been generated from an entry in the Cambridge 
# Structural Database, then it will include bibliographic, chemical, 
# crystal, experimental, refinement or atomic coordinate data resulting 
# from the CCDC's data processing and validation procedures.
#
#######################################################################

data_WEKWAL
_chemical_formula_moiety         'H4 N1 1+,C2 H3 N4 1-'
_chemical_name_systematic        'Ammonium 5-methyltetrazolate'
_symmetry_cell_setting           monoclinic
_symmetry_space_group_name_H-M   'C 2/c'
_symmetry_Int_Tables_number      15
_space_group_name_Hall           '-C 2yn'
loop_
_symmetry_equiv_pos_site_id
_symmetry_equiv_pos_as_xyz
1 x,y,z
2 1/2+x,1/2+y,z
3 -x,y,1/2-z
4 1/2-x,1/2+y,1/2-z
5 -x,-y,-z
6 1/2-x,1/2-y,-z
7 x,-y,1/2+z
8 1/2+x,1/2-y,1/2+z
_cell_length_a                   20.67(2)
_cell_length_b                   20.64(2)
_cell_length_c                   11.329(11)
_cell_angle_alpha                90
_cell_angle_beta                 118.008(15)
_cell_angle_gamma                90
_cell_volume                     4267.21
_exptl_crystal_colour            colorless
_exptl_crystal_description       block
_cell_formula_units_Z            32
loop_
_atom_site_label
_atom_site_type_symbol
_atom_site_fract_x
_atom_site_fract_y
_atom_site_fract_z
N1 N 0.14901(12) 0.02083(11) 0.6340(2)
N2 N 0.16610(13) 0.03355(12) 0.7607(2)
N3 N 0.11762(14) 0.07282(11) 0.7628(2)
N4 N 0.06761(12) 0.08730(11) 0.6373(2)
C1 C 0.08819(14) 0.05439(12) 0.5605(3)
C2 C 0.04893(18) 0.05534(16) 0.4125(3)
H1 H 0.0135 0.0209 0.3804
H2 H 0.0834 0.0495 0.3789
H3 H 0.0244 0.0962 0.3821
N5 N 0.12239(12) 0.20655(11) 0.3619(2)
N6 N 0.10523(13) 0.18892(12) 0.2369(2)
N7 N 0.15372(13) 0.14847(12) 0.2402(2)
N8 N 0.20398(12) 0.13807(11) 0.3669(2)
C3 C 0.18306(14) 0.17431(13) 0.4392(3)
C4 C 0.2227(2) 0.17892(18) 0.5877(3)
H4 H 0.2441 0.1377 0.6247
H5 H 0.1889 0.1911 0.6198
H6 H 0.2606 0.2110 0.6143
N9 N 0.17881(13) 0.34131(11) 0.8633(2)
N10 N 0.13439(14) 0.32253(12) 0.7378(2)
N11 N 0.09554(14) 0.27333(12) 0.7379(2)
N12 N 0.11304(13) 0.25884(11) 0.8641(2)
C5 C 0.16428(14) 0.30107(13) 0.9390(3)
C6 C 0.20031(19) 0.30359(18) 1.0870(3)
H7 H 0.1637 0.3063 1.1162
H8 H 0.2315 0.3410 1.1177
H9 H 0.2291 0.2651 1.1230
N13 N 0.04583(12) 0.38835(11) 0.1316(2)
N14 N 0.08745(13) 0.40683(12) 0.2587(2)
N15 N 0.12855(12) 0.45459(11) 0.2623(2)
N16 N 0.11584(13) 0.46882(11) 0.1378(2)
C7 C 0.06489(13) 0.42719(12) 0.0600(2)
C8 C 0.03339(17) 0.42495(17) -0.0870(3)
H10 H 0.0105 0.3836 -0.1191
H11 H 0.0716 0.4311 -0.1113
H12 H -0.0025 0.4587 -0.1261
N17 N 0.02060(15) 0.26197(13) 0.4434(3)
H15 H -0.0229(19) 0.2341(15) 0.397(3)
H17 H 0.0576(18) 0.2493(15) 0.419(3)
H22 H 0.0432(17) 0.2578(14) 0.536(4)
H25 H 0.0014(18) 0.3078(17) 0.411(3)
N18 N 0.15058(15) 0.40814(13) 0.5551(3)
H18 H 0.1401(17) 0.3759(15) 0.601(3)
H19 H 0.1489(16) 0.4497(15) 0.589(3)
H20 H 0.2002(19) 0.4025(15) 0.585(3)
H23 H 0.1245(15) 0.4040(13) 0.464(3)
N19 N 0.25095(14) -0.03254(13) 0.5558(3)
H13 H 0.2913(17) -0.0047(14) 0.599(3)
H21 H 0.2142(19) -0.0210(16) 0.589(3)
H24 H 0.2673(17) -0.0797(16) 0.585(3)
H27 H 0.229(2) -0.0283(15) 0.463(4)
N20 N 0.07959(15) 0.13780(13) 0.9446(3)
H14 H 0.0961(14) 0.1140(13) 0.903(3)
H16 H 0.0276(19) 0.1272(15) 0.918(3)
H26 H 0.1085(16) 0.1361(13) 1.039(3)
H28 H 0.0831(17) 0.1846(17) 0.911(3)
loop_
_geom_bond_atom_site_label_1
_geom_bond_atom_site_label_2
_geom_bond_site_symmetry_1
_geom_bond_site_symmetry_2
N1 N2 1_555 1_555
N2 N3 1_555 1_555
N3 N4 1_555 1_555
N4 C1 1_555 1_555
N5 N6 1_555 1_555
N6 N7 1_555 1_555
N7 N8 1_555 1_555
N8 C3 1_555 1_555
N9 N10 1_555 1_555
N10 N11 1_555 1_555
N11 N12 1_555 1_555
N12 C5 1_555 1_555
N13 N14 1_555 1_555
N14 N15 1_555 1_555
N15 N16 1_555 1_555
N16 C7 1_555 1_555
C1 N1 1_555 1_555
C2 C1 1_555 1_555
H1 C2 1_555 1_555
H2 C2 1_555 1_555
H3 C2 1_555 1_555
C3 N5 1_555 1_555
C4 C3 1_555 1_555
H4 C4 1_555 1_555
H5 C4 1_555 1_555
H6 C4 1_555 1_555
C5 N9 1_555 1_555
C6 C5 1_555 1_555
H7 C6 1_555 1_555
H8 C6 1_555 1_555
H9 C6 1_555 1_555
C7 N13 1_555 1_555
C8 C7 1_555 1_555
H10 C8 1_555 1_555
H11 C8 1_555 1_555
H12 C8 1_555 1_555
N17 H15 1_555 1_555
N18 H18 1_555 1_555
N19 H13 1_555 1_555
N20 H14 1_555 1_555
H16 N20 1_555 1_555
H17 N17 1_555 1_555
H19 N18 1_555 1_555
H20 N18 1_555 1_555
H21 N19 1_555 1_555
H22 N17 1_555 1_555
H23 N18 1_555 1_555
H24 N19 1_555 1_555
H25 N17 1_555 1_555
H26 N20 1_555 1_555
H27 N19 1_555 1_555
H28 N20 1_555 1_555

#END
