
#######################################################################
#
#                 Cambridge Crystallographic Data Centre
#                                CCDC 
#
#######################################################################
#
# If this CIF has been generated from an entry in the Cambridge 
# Structural Database, then it will include bibliographic, chemical, 
# crystal, experimental, refinement or atomic coordinate data resulting 
# from the CCDC's data processing and validation procedures.
#
#######################################################################

data_WEMBOI
_chemical_formula_moiety         'C29 H38 O4'
_chemical_name_systematic        
'17-(3,4-dimethoxyphenyl)androsta-5,16-dien-3-yl acetate'
_symmetry_cell_setting           monoclinic
_symmetry_space_group_name_H-M   'P 21'
_symmetry_Int_Tables_number      4
_space_group_name_Hall           'P 2yb'
loop_
_symmetry_equiv_pos_site_id
_symmetry_equiv_pos_as_xyz
1 x,y,z
2 -x,1/2+y,-z
_cell_length_a                   12.2844(7)
_cell_length_b                   6.4543(4)
_cell_length_c                   16.2606(11)
_cell_angle_alpha                90
_cell_angle_beta                 101.846(2)
_cell_angle_gamma                90
_cell_volume                     1261.8
_exptl_crystal_colour            white
_exptl_crystal_description       block
_cell_formula_units_Z            2
loop_
_atom_site_label
_atom_site_type_symbol
_atom_site_fract_x
_atom_site_fract_y
_atom_site_fract_z
O1 O 0.42671(12) 0.6779(3) 0.79049(9)
C1 C 0.27348(16) 0.9912(4) 0.40075(12)
H1 H 0.2628 1.1383 0.4167
C2 C 0.24728(15) 0.8744(4) 0.54656(12)
C3 C 0.21029(15) 0.8473(4) 0.44985(12)
H2 H 0.2316 0.7030 0.4373
C4 C 0.37343(16) 0.8886(3) 0.57169(13)
C5 C 0.43740(17) 0.9119(4) 0.51619(14)
H3 H 0.5156 0.9128 0.5368
C6 C 0.08281(17) 0.8602(5) 0.41940(13)
H4 H 0.0483 0.7450 0.4451
H5 H 0.0565 0.9915 0.4400
C7 C 0.38242(17) 0.6754(4) 0.70051(12)
H6 H 0.4112 0.5510 0.6751
C8 C 0.04187(16) 0.8502(4) 0.32353(14)
H7 H 0.0549 0.7095 0.3033
H8 H -0.0391 0.8779 0.3092
C9 C 0.39676(16) 0.9370(5) 0.42343(13)
H9 H 0.4096 0.8065 0.3949
H10 H 0.4400 1.0478 0.4028
C10 C 0.21111(18) 0.6799(5) 0.58950(14)
H11 H 0.1289 0.6771 0.5797
H12 H 0.2352 0.5552 0.5626
C11 C 0.42292(18) 0.8706(4) 0.66441(13)
H13 H 0.4016 0.9932 0.6942
H14 H 0.5051 0.8676 0.6731
O2 O -0.30599(12) 0.9217(3) -0.06021(10)
C12 C 0.10299(16) 1.0095(4) 0.27991(13)
C13 C 0.25770(18) 0.6682(5) 0.68390(14)
H15 H 0.2293 0.7860 0.7124
H16 H 0.2331 0.5381 0.7067
C14 C -0.21003(17) 0.9544(4) -0.00294(13)
C15 C 0.22830(16) 0.9630(3) 0.30801(13)
H17 H 0.2362 0.8118 0.2971
C16 C -0.01446(18) 0.9923(4) 0.12148(13)
C17 C 0.09066(18) 1.0082(4) 0.18395(13)
O3 O -0.26331(14) 0.6564(3) 0.05960(11)
C18 C -0.1356(2) 1.1116(4) -0.00610(14)
H18 H -0.1502 1.2087 -0.0509
O4 O 0.4282(2) 0.3334(3) 0.79368(12)
C19 C 0.4447(2) 0.4959(4) 0.83000(15)
C20 C -0.09098(18) 0.8311(4) 0.12415(13)
H19 H -0.0763 0.7336 0.1688
C21 C 0.18962(19) 1.0524(4) 0.16607(14)
H20 H 0.2011 1.0683 0.1104
C22 C -0.03911(19) 1.1305(4) 0.05544(14)
H21 H 0.0109 1.2409 0.0520
C23 C 0.4856(2) 0.5227(5) 0.92126(15)
H22 H 0.4271 0.5859 0.9459
H23 H 0.5512 0.6127 0.9312
H24 H 0.5055 0.3873 0.9473
C24 C -0.3328(2) 1.0600(6) -0.12868(17)
H25 H -0.3361 1.2016 -0.1076
H26 H -0.4051 1.0224 -0.1633
H27 H -0.2756 1.0519 -0.1627
C25 C 0.28082(19) 1.0742(5) 0.24277(14)
H28 H 0.2966 1.2214 0.2577
H29 H 0.3501 1.0050 0.2353
C26 C -0.18684(18) 0.8118(4) 0.06322(14)
C27 C 0.1968(2) 1.0695(5) 0.57837(17)
H30 H 0.2341 1.0971 0.6366
H31 H 0.1173 1.0475 0.5757
H32 H 0.2071 1.1880 0.5431
C28 C 0.0717(2) 1.2296(4) 0.30227(17)
H33 H 0.1197 1.3300 0.2818
H34 H 0.0814 1.2423 0.3634
H35 H -0.0061 1.2571 0.2759
C29 C -0.2508(2) 0.5178(5) 0.12862(18)
H36 H -0.1811 0.4407 0.1334
H37 H -0.3134 0.4205 0.1197
H38 H -0.2494 0.5963 0.1804
loop_
_geom_bond_atom_site_label_1
_geom_bond_atom_site_label_2
_geom_bond_site_symmetry_1
_geom_bond_site_symmetry_2
O1 C7 1_555 1_555
C1 H1 1_555 1_555
C2 C3 1_555 1_555
C3 C1 1_555 1_555
H2 C3 1_555 1_555
C4 C2 1_555 1_555
C5 C4 1_555 1_555
H3 C5 1_555 1_555
C6 C3 1_555 1_555
H4 C6 1_555 1_555
H5 C6 1_555 1_555
C7 H6 1_555 1_555
C8 C6 1_555 1_555
H7 C8 1_555 1_555
H8 C8 1_555 1_555
C9 C1 1_555 1_555
H9 C9 1_555 1_555
H10 C9 1_555 1_555
C10 C2 1_555 1_555
H11 C10 1_555 1_555
H12 C10 1_555 1_555
C11 C4 1_555 1_555
H13 C11 1_555 1_555
H14 C11 1_555 1_555
O2 C14 1_555 1_555
C12 C8 1_555 1_555
C13 C7 1_555 1_555
H15 C13 1_555 1_555
H16 C13 1_555 1_555
C14 C18 1_555 1_555
C15 C1 1_555 1_555
H17 C15 1_555 1_555
C16 C17 1_555 1_555
C17 C12 1_555 1_555
O3 C26 1_555 1_555
C18 H18 1_555 1_555
O4 C19 1_555 1_555
C19 O1 1_555 1_555
C20 C16 1_555 1_555
H19 C20 1_555 1_555
C21 C17 1_555 1_555
H20 C21 1_555 1_555
C22 C16 1_555 1_555
H21 C22 1_555 1_555
C23 C19 1_555 1_555
H22 C23 1_555 1_555
H23 C23 1_555 1_555
H24 C23 1_555 1_555
C24 O2 1_555 1_555
H25 C24 1_555 1_555
H26 C24 1_555 1_555
H27 C24 1_555 1_555
C25 C15 1_555 1_555
H28 C25 1_555 1_555
H29 C25 1_555 1_555
C26 C14 1_555 1_555
C27 C2 1_555 1_555
H30 C27 1_555 1_555
H31 C27 1_555 1_555
H32 C27 1_555 1_555
C28 C12 1_555 1_555
H33 C28 1_555 1_555
H34 C28 1_555 1_555
H35 C28 1_555 1_555
C29 O3 1_555 1_555
H36 C29 1_555 1_555
H37 C29 1_555 1_555
H38 C29 1_555 1_555
C5 C9 1_555 1_555
C7 C11 1_555 1_555
C10 C13 1_555 1_555
C12 C15 1_555 1_555
C18 C22 1_555 1_555
C20 C26 1_555 1_555
C21 C25 1_555 1_555

#END
