
#######################################################################
#
#                 Cambridge Crystallographic Data Centre
#                                CCDC 
#
#######################################################################
#
# If this CIF has been generated from an entry in the Cambridge 
# Structural Database, then it will include bibliographic, chemical, 
# crystal, experimental, refinement or atomic coordinate data resulting 
# from the CCDC's data processing and validation procedures.
#
#######################################################################

data_WEMMIN
_chemical_formula_moiety         'C22 H26 N2 O3 S1'
_chemical_name_systematic        
'methyl 16-methoxy-8-sulfanylidene-2,3-didehydroaspidospermidine-3-carboxylate'
_symmetry_cell_setting           orthorhombic
_symmetry_space_group_name_H-M   'P 21 21 21'
_symmetry_Int_Tables_number      19
_space_group_name_Hall           'P 2ac 2ab'
loop_
_symmetry_equiv_pos_site_id
_symmetry_equiv_pos_as_xyz
1 x,y,z
2 1/2-x,-y,1/2+z
3 -x,1/2+y,1/2-z
4 1/2+x,1/2-y,-z
_cell_length_a                   8.00880(10)
_cell_length_b                   10.88100(10)
_cell_length_c                   23.2014(3)
_cell_angle_alpha                90
_cell_angle_beta                 90
_cell_angle_gamma                90
_cell_volume                     2021.86
_exptl_crystal_colour            'light yellow'
_exptl_crystal_description       block
_cell_formula_units_Z            4
loop_
_atom_site_label
_atom_site_type_symbol
_atom_site_fract_x
_atom_site_fract_y
_atom_site_fract_z
S1 S 0.24687(11) 0.19817(7) 0.46467(3)
O1 O -0.0789(2) 0.71735(16) 0.71906(6)
O2 O -0.2237(2) 0.72098(16) 0.63617(6)
O3 O 0.7304(2) 0.52799(16) 0.82088(7)
N1 N 0.2098(2) 0.58549(18) 0.72170(7)
H1 H 0.154354 0.625834 0.747188
N2 N 0.2684(3) 0.35445(16) 0.55152(7)
C1 C 0.3717(3) 0.54071(19) 0.72942(8)
C2 C 0.4775(3) 0.5608(2) 0.77525(9)
H2 H 0.445593 0.609586 0.806255
C3 C 0.6340(3) 0.5052(2) 0.77344(9)
C4 C 0.6822(3) 0.4332(2) 0.72707(10)
H3 H 0.787301 0.396815 0.726607
C5 C 0.5722(3) 0.4155(2) 0.68092(9)
H4 H 0.604609 0.367985 0.649525
C6 C 0.4161(3) 0.46815(19) 0.68198(8)
C7 C 0.2666(3) 0.46006(18) 0.64213(8)
C8 C 0.1516(3) 0.55628(19) 0.66796(8)
C9 C 0.0187(3) 0.6022(2) 0.63944(9)
C10 C 0.0100(3) 0.5731(2) 0.57572(9)
H5 H -0.061774 0.632401 0.556714
H6 H -0.038390 0.492194 0.570426
C11 C 0.1849(3) 0.5766(2) 0.54797(8)
C12 C 0.1681(4) 0.5485(2) 0.48290(9)
H7 H 0.055525 0.519952 0.475218
H8 H 0.184878 0.623847 0.461353
C13 C 0.2920(3) 0.4518(3) 0.46146(9)
H9 H 0.273160 0.435956 0.420838
H10 H 0.405194 0.482113 0.466028
C14 C 0.2706(3) 0.3358(2) 0.49500(9)
C15 C 0.2968(3) 0.47785(18) 0.57640(8)
H11 H 0.414006 0.500446 0.570381
C16 C 0.2489(4) 0.2600(2) 0.59556(9)
H12 H 0.355170 0.222428 0.605047
H13 H 0.171452 0.196717 0.583226
C17 C 0.1802(3) 0.3316(2) 0.64583(9)
H14 H 0.207066 0.291292 0.681951
H15 H 0.059948 0.339760 0.642852
C18 C 0.8915(4) 0.4774(3) 0.82271(13)
H16 H 0.952573 0.502203 0.789071
H17 H 0.883796 0.389349 0.823721
H18 H 0.948288 0.505920 0.856600
C19 C -0.0947(3) 0.6841(2) 0.66908(8)
C20 C -0.3423(4) 0.7998(3) 0.66440(11)
H19 H -0.429726 0.820974 0.637895
H20 H -0.287138 0.873226 0.677169
H21 H -0.389194 0.757769 0.696980
C21 C 0.2743(3) 0.7006(2) 0.55802(9)
H22 H 0.301089 0.707164 0.598674
H23 H 0.378907 0.699536 0.536982
C22 C 0.1781(4) 0.8148(2) 0.54047(12)
H24 H 0.155485 0.812006 0.499855
H25 H 0.243321 0.886503 0.549104
H26 H 0.074703 0.818132 0.561333
loop_
_geom_bond_atom_site_label_1
_geom_bond_atom_site_label_2
_geom_bond_site_symmetry_1
_geom_bond_site_symmetry_2
S1 C14 1_555 1_555
O1 C19 1_555 1_555
O2 C19 1_555 1_555
O3 C3 1_555 1_555
N1 H1 1_555 1_555
N2 C14 1_555 1_555
C1 N1 1_555 1_555
C2 C1 1_555 1_555
H2 C2 1_555 1_555
C3 C2 1_555 1_555
C4 C3 1_555 1_555
H3 C4 1_555 1_555
C5 C4 1_555 1_555
H4 C5 1_555 1_555
C6 C1 1_555 1_555
C7 C6 1_555 1_555
C8 N1 1_555 1_555
C9 C8 1_555 1_555
C10 C9 1_555 1_555
H5 C10 1_555 1_555
H6 C10 1_555 1_555
C11 C10 1_555 1_555
C12 C11 1_555 1_555
H7 C12 1_555 1_555
H8 C12 1_555 1_555
C13 C12 1_555 1_555
H9 C13 1_555 1_555
H10 C13 1_555 1_555
C14 C13 1_555 1_555
C15 N2 1_555 1_555
H11 C15 1_555 1_555
C16 N2 1_555 1_555
H12 C16 1_555 1_555
H13 C16 1_555 1_555
C17 C7 1_555 1_555
H14 C17 1_555 1_555
H15 C17 1_555 1_555
C18 O3 1_555 1_555
H16 C18 1_555 1_555
H17 C18 1_555 1_555
H18 C18 1_555 1_555
C19 C9 1_555 1_555
C20 O2 1_555 1_555
H19 C20 1_555 1_555
H20 C20 1_555 1_555
H21 C20 1_555 1_555
C21 C11 1_555 1_555
H22 C21 1_555 1_555
H23 C21 1_555 1_555
C22 C21 1_555 1_555
H24 C22 1_555 1_555
H25 C22 1_555 1_555
H26 C22 1_555 1_555
C5 C6 1_555 1_555
C7 C8 1_555 1_555
C7 C15 1_555 1_555
C11 C15 1_555 1_555
C16 C17 1_555 1_555

#END
