
#######################################################################
#
#                 Cambridge Crystallographic Data Centre
#                                CCDC 
#
#######################################################################
#
# If this CIF has been generated from an entry in the Cambridge 
# Structural Database, then it will include bibliographic, chemical, 
# crystal, experimental, refinement or atomic coordinate data resulting 
# from the CCDC's data processing and validation procedures.
#
#######################################################################

data_WEMNOU
_chemical_formula_moiety         'C24 H16 O3 S1'
_chemical_name_systematic        
2-{1-[(2-methylphenyl)sulfanyl]-2-oxo-2-phenylethylidene}-1H-indene-1,3(2H)-dione
_symmetry_cell_setting           triclinic
_symmetry_space_group_name_H-M   'P -1'
_symmetry_Int_Tables_number      2
_space_group_name_Hall           '-P 1'
loop_
_symmetry_equiv_pos_site_id
_symmetry_equiv_pos_as_xyz
1 x,y,z
2 -x,-y,-z
_cell_length_a                   7.0440(7)
_cell_length_b                   10.9059(9)
_cell_length_c                   12.9001(11)
_cell_angle_alpha                106.721(2)
_cell_angle_beta                 92.8860(10)
_cell_angle_gamma                98.4300(10)
_cell_volume                     934.355
_exptl_crystal_colour            yellow
_exptl_crystal_description       block
_cell_formula_units_Z            2
loop_
_atom_site_label
_atom_site_type_symbol
_atom_site_fract_x
_atom_site_fract_y
_atom_site_fract_z
O1 O 0.6555(8) 0.4603(5) 0.2382(4)
O2 O 0.8738(8) 0.8054(5) 0.5543(4)
O3 O 0.4651(9) 0.6866(5) 0.1919(4)
S1 S 0.8083(4) 0.9159(2) 0.37516(17)
C1 C 0.7027(10) 0.5247(7) 0.3317(7)
C2 C 0.7542(10) 0.6656(6) 0.3757(5)
C3 C 0.8131(10) 0.6969(8) 0.4905(6)
C4 C 0.7867(10) 0.5736(7) 0.5187(6)
C5 C 0.7183(10) 0.4746(7) 0.4256(6)
C6 C 0.6827(12) 0.3484(8) 0.4297(7)
H1 H 0.6412 0.2801 0.3667
C7 C 0.7091(12) 0.3249(9) 0.5272(8)
H2 H 0.6858 0.2401 0.5308
C8 C 0.7709(12) 0.4272(10) 0.6215(8)
H3 H 0.7854 0.4104 0.6878
C9 C 0.8108(12) 0.5532(9) 0.6176(7)
H4 H 0.8528 0.6219 0.6802
C10 C 0.7362(10) 0.7511(7) 0.3189(6)
C11 C 0.6398(13) 0.7015(7) 0.2023(6)
C12 C 0.7597(11) 0.6839(6) 0.1144(6)
C13 C 0.9588(12) 0.6956(7) 0.1275(7)
H5 H 1.0211 0.7142 0.1969
C14 C 1.0636(12) 0.6807(8) 0.0414(8)
H6 H 1.1975 0.6947 0.0528
C15 C 0.9761(16) 0.6451(8) -0.0626(6)
H7 H 1.0477 0.6309 -0.1223
C16 C 0.7764(16) 0.6311(9) -0.0755(7)
H8 H 0.7141 0.6104 -0.1451
C17 C 0.6726(12) 0.6465(7) 0.0083(7)
H9 H 0.5388 0.6321 -0.0037
C18 C 0.7178(15) 0.9795(7) 0.2745(6)
C19 C 0.5298(19) 1.0016(9) 0.2687(9)
C20 C 0.474(2) 1.0651(12) 0.1926(12)
H10 H 0.3497 1.0825 0.1863
C21 C 0.601(3) 1.0976(15) 0.1327(14)
H11 H 0.5636 1.1381 0.0826
C22 C 0.792(3) 1.0760(12) 0.1382(11)
H12 H 0.8779 1.1018 0.0930
C23 C 0.8481(19) 1.0181(9) 0.2089(9)
H13 H 0.9745 1.0035 0.2143
C24 C 0.3951(19) 0.9650(12) 0.3360(11)
H14 H 0.4485 0.9992 0.4106
H15 H 0.3660 0.8720 0.3166
H16 H 0.2792 0.9989 0.3268
loop_
_geom_bond_atom_site_label_1
_geom_bond_atom_site_label_2
_geom_bond_site_symmetry_1
_geom_bond_site_symmetry_2
O1 C1 1_555 1_555
O2 C3 1_555 1_555
O3 C11 1_555 1_555
S1 C10 1_555 1_555
C1 C2 1_555 1_555
C2 C3 1_555 1_555
C3 C4 1_555 1_555
C4 C5 1_555 1_555
C5 C1 1_555 1_555
C6 C5 1_555 1_555
H1 C6 1_555 1_555
C7 C6 1_555 1_555
H2 C7 1_555 1_555
C8 C7 1_555 1_555
H3 C8 1_555 1_555
C9 C4 1_555 1_555
H4 C9 1_555 1_555
C10 C2 1_555 1_555
C11 C10 1_555 1_555
C12 C11 1_555 1_555
C13 C12 1_555 1_555
H5 C13 1_555 1_555
C14 C13 1_555 1_555
H6 C14 1_555 1_555
C15 C14 1_555 1_555
H7 C15 1_555 1_555
C16 C15 1_555 1_555
H8 C16 1_555 1_555
C17 C12 1_555 1_555
H9 C17 1_555 1_555
C18 S1 1_555 1_555
C19 C18 1_555 1_555
C20 C19 1_555 1_555
H10 C20 1_555 1_555
C21 C20 1_555 1_555
H11 C21 1_555 1_555
C22 C21 1_555 1_555
H12 C22 1_555 1_555
C23 C18 1_555 1_555
H13 C23 1_555 1_555
C24 C19 1_555 1_555
H14 C24 1_555 1_555
H15 C24 1_555 1_555
H16 C24 1_555 1_555
C8 C9 1_555 1_555
C16 C17 1_555 1_555
C22 C23 1_555 1_555

#END
