
#######################################################################
#
#                 Cambridge Crystallographic Data Centre
#                                CCDC 
#
#######################################################################
#
# If this CIF has been generated from an entry in the Cambridge 
# Structural Database, then it will include bibliographic, chemical, 
# crystal, experimental, refinement or atomic coordinate data resulting 
# from the CCDC's data processing and validation procedures.
#
#######################################################################

data_WEMWOD
_chemical_formula_moiety         'C20 H20 B1 F2 N3 O1'
_chemical_name_systematic        
difluoro[4-{5-[(4-methylphenyl)(1H-pyrrol-2-yl)methylidene]-1,5-dihydro-2H-pyrrol-2-ylidene}morpholin-4-iumato]boron
_symmetry_cell_setting           monoclinic
_symmetry_space_group_name_H-M   'P 21/c'
_symmetry_Int_Tables_number      14
_space_group_name_Hall           '-P 2ybc'
loop_
_symmetry_equiv_pos_site_id
_symmetry_equiv_pos_as_xyz
1 x,y,z
2 -x,1/2+y,1/2-z
3 -x,-y,-z
4 x,1/2-y,1/2+z
_cell_length_a                   15.2429(5)
_cell_length_b                   8.7432(2)
_cell_length_c                   15.0494(4)
_cell_angle_alpha                90
_cell_angle_beta                 115.235(3)
_cell_angle_gamma                90
_cell_volume                     1814.25
_exptl_crystal_colour            'orangish yellow'
_exptl_crystal_description       needle
_cell_formula_units_Z            4
loop_
_atom_site_label
_atom_site_type_symbol
_atom_site_fract_x
_atom_site_fract_y
_atom_site_fract_z
F1 F 0.57894(9) 0.46958(16) 0.16577(8)
F2 F 0.63507(9) 0.71370(16) 0.19146(9)
N1 N 0.58386(10) 0.60148(16) 0.30913(9)
N2 N 0.73479(11) 0.51716(18) 0.29644(10)
N3 N 0.41341(11) 0.62790(19) 0.20444(11)
O1 O 0.26238(12) 0.5497(2) 0.02003(12)
C1 C 0.63864(13) 0.59743(18) 0.41247(11)
C2 C 0.73442(13) 0.55852(19) 0.45585(12)
C3 C 0.78339(13) 0.5167(2) 0.39709(13)
C4 C 0.48974(13) 0.61903(19) 0.29204(12)
C5 C 0.57328(14) 0.6177(2) 0.45636(12)
H1 H 0.5902 0.6235 0.5234
C6 C 0.79141(13) 0.5512(2) 0.56443(12)
C7 C 0.48291(14) 0.6270(2) 0.38445(13)
H2 H 0.4262 0.6369 0.3928
C8 C 0.79778(15) 0.4688(3) 0.26008(15)
H3 H 0.7833 0.4586 0.1938
C9 C 0.87770(14) 0.4672(3) 0.42294(15)
H4 H 0.9262 0.4562 0.4864
C10 C 0.41389(15) 0.6792(2) 0.11243(13)
H5 H 0.4802 0.6879 0.1202
H6 H 0.3837 0.7791 0.0952
C11 C 0.88600(16) 0.4374(3) 0.33617(18)
H7 H 0.9411 0.4026 0.3307
C12 C 0.81040(18) 0.6792(3) 0.62197(15)
H8 H 0.7820 0.7720 0.5943
C13 C 0.83321(19) 0.4140(3) 0.60849(17)
H9 H 0.8196 0.3251 0.5710
C14 C 0.31407(15) 0.6042(3) 0.19375(16)
H10 H 0.2802 0.7013 0.1818
H11 H 0.3155 0.5607 0.2536
C15 C 0.91538(16) 0.5390(3) 0.76480(14)
C16 C 0.26211(17) 0.4971(3) 0.10864(19)
H12 H 0.2929 0.3975 0.1243
H13 H 0.1955 0.4851 0.0995
C17 C 0.8947(2) 0.4081(3) 0.70722(19)
H14 H 0.9226 0.3154 0.7355
C18 C 0.8719(2) 0.6712(3) 0.72160(16)
H15 H 0.8835 0.7592 0.7596
C19 C 0.35949(17) 0.5671(3) 0.03179(15)
H16 H 0.3592 0.6028 -0.0293
H17 H 0.3920 0.4687 0.0474
B1 B 0.63131(15) 0.5757(2) 0.23637(13)
C20 C 0.9878(2) 0.5327(5) 0.87216(18)
H18 H 0.9742 0.4454 0.9029
H19 H 0.9825 0.6242 0.9049
H20 H 1.0523 0.5248 0.8765
loop_
_geom_bond_atom_site_label_1
_geom_bond_atom_site_label_2
_geom_bond_site_symmetry_1
_geom_bond_site_symmetry_2
F1 B1 1_555 1_555
F2 B1 1_555 1_555
N1 C1 1_555 1_555
N2 C3 1_555 1_555
N3 C4 1_555 1_555
O1 C16 1_555 1_555
C1 C2 1_555 1_555
C2 C3 1_555 1_555
C3 C9 1_555 1_555
C4 N1 1_555 1_555
C5 C1 1_555 1_555
H1 C5 1_555 1_555
C6 C2 1_555 1_555
C7 C4 1_555 1_555
H2 C7 1_555 1_555
C8 N2 1_555 1_555
H3 C8 1_555 1_555
C9 H4 1_555 1_555
C10 N3 1_555 1_555
H5 C10 1_555 1_555
H6 C10 1_555 1_555
C11 C8 1_555 1_555
H7 C11 1_555 1_555
C12 C6 1_555 1_555
H8 C12 1_555 1_555
C13 C6 1_555 1_555
H9 C13 1_555 1_555
C14 N3 1_555 1_555
H10 C14 1_555 1_555
H11 C14 1_555 1_555
C15 C17 1_555 1_555
C16 C14 1_555 1_555
H12 C16 1_555 1_555
H13 C16 1_555 1_555
C17 C13 1_555 1_555
H14 C17 1_555 1_555
C18 C12 1_555 1_555
H15 C18 1_555 1_555
C19 O1 1_555 1_555
H16 C19 1_555 1_555
H17 C19 1_555 1_555
B1 N1 1_555 1_555
C20 C15 1_555 1_555
H18 C20 1_555 1_555
H19 C20 1_555 1_555
H20 C20 1_555 1_555
N2 B1 1_555 1_555
C5 C7 1_555 1_555
C9 C11 1_555 1_555
C10 C19 1_555 1_555
C15 C18 1_555 1_555

#END
