
#######################################################################
#
#                 Cambridge Crystallographic Data Centre
#                                CCDC 
#
#######################################################################
#
# If this CIF has been generated from an entry in the Cambridge 
# Structural Database, then it will include bibliographic, chemical, 
# crystal, experimental, refinement or atomic coordinate data resulting 
# from the CCDC's data processing and validation procedures.
#
#######################################################################

data_WENZOH
_chemical_formula_moiety         'C32 H26 N4 O3'
_chemical_name_systematic        
"ethyl 1-benzyl-3',3'-dicyano-5-methyl-2-oxo-1,2,3',3a'-tetrahydrospiro[indole-3,2'-pyrrolo[1,2-a]quinoline]-1'-carboxylate"
_symmetry_cell_setting           orthorhombic
_symmetry_space_group_name_H-M   'P 21 21 21'
_symmetry_Int_Tables_number      19
_space_group_name_Hall           'P 2ac 2ab'
loop_
_symmetry_equiv_pos_site_id
_symmetry_equiv_pos_as_xyz
1 x,y,z
2 1/2-x,-y,1/2+z
3 -x,1/2+y,1/2-z
4 1/2+x,1/2-y,-z
_cell_length_a                   8.6041(10)
_cell_length_b                   10.8894(11)
_cell_length_c                   28.903(4)
_cell_angle_alpha                90
_cell_angle_beta                 90
_cell_angle_gamma                90
_cell_volume                     2708.02
_exptl_crystal_colour            colorless
_exptl_crystal_description       block
_cell_formula_units_Z            4
loop_
_atom_site_label
_atom_site_type_symbol
_atom_site_fract_x
_atom_site_fract_y
_atom_site_fract_z
C1 C 0.8470(6) 0.5538(4) 0.29273(17)
H1 H 0.7862 0.6064 0.3104
C2 C 1.0071(7) 0.5547(5) 0.2990(2)
H2 H 1.0521 0.6078 0.3203
C3 C 1.0976(7) 0.4774(7) 0.2737(2)
H3 H 1.2049 0.4775 0.2776
C4 C 1.0288(8) 0.3985(7) 0.2422(2)
H4 H 1.0891 0.3447 0.2248
C5 C 0.8700(7) 0.4009(6) 0.23698(19)
H5 H 0.8246 0.3474 0.2158
C6 C 0.7759(5) 0.4784(4) 0.26155(14)
C7 C 0.6026(5) 0.4803(4) 0.25573(14)
H6 H 0.5576 0.4115 0.2723
H7 H 0.5613 0.5553 0.2690
C8 C 0.4881(5) 0.3746(4) 0.18733(14)
C9 C 0.4845(4) 0.3956(3) 0.13416(13)
C10 C 0.5408(4) 0.5273(3) 0.12999(13)
C11 C 0.5588(5) 0.6053(4) 0.09272(14)
H8 H 0.5291 0.5799 0.0633
C12 C 0.6213(5) 0.7216(4) 0.09907(15)
C13 C 0.6399(7) 0.8084(4) 0.05852(17)
H9 H 0.5935 0.8862 0.0660
H10 H 0.5894 0.7743 0.0318
H11 H 0.7484 0.8198 0.0521
C14 C 0.6641(6) 0.7571(4) 0.14326(17)
H12 H 0.7045 0.8355 0.1475
C15 C 0.6492(5) 0.6808(4) 0.18155(16)
H13 H 0.6792 0.7062 0.2109
C16 C 0.5882(5) 0.5661(3) 0.17388(13)
C17 C 0.5995(4) 0.3054(3) 0.10871(14)
C18 C 0.7583(6) 0.3541(4) 0.10597(16)
C19 C 0.6054(5) 0.1819(4) 0.12952(15)
C20 C 0.5183(5) 0.2940(4) 0.05974(12)
H14 H 0.5307 0.3720 0.0432
C21 C 0.5771(5) 0.1933(4) 0.02991(13)
H15 H 0.6788 0.1969 0.0191
C22 C 0.4899(5) 0.0990(4) 0.01825(14)
H16 H 0.5309 0.0397 -0.0015
C23 C 0.3323(5) 0.0841(4) 0.03503(13)
C24 C 0.2421(6) -0.0158(4) 0.02416(16)
H17 H 0.2832 -0.0765 0.0051
C25 C 0.0930(7) -0.0288(5) 0.04047(18)
H18 H 0.0340 -0.0973 0.0327
C26 C 0.0333(6) 0.0605(5) 0.06819(18)
H19 H -0.0671 0.0521 0.0797
C27 C 0.1188(6) 0.1628(4) 0.07959(15)
H20 H 0.0748 0.2232 0.0982
C28 C 0.2696(5) 0.1769(3) 0.06370(13)
C29 C 0.3232(5) 0.3606(3) 0.11245(13)
H21 H 0.2625 0.3143 0.1353
C30 C 0.2348(5) 0.4755(4) 0.09928(18)
C31 C 0.0941(8) 0.6402(6) 0.1320(3)
H22 H 0.0644 0.6492 0.0998
H23 H 0.0001 0.6354 0.1504
C32 C 0.1859(10) 0.7455(6) 0.1464(4)
H24 H 0.2455 0.7244 0.1733
H25 H 0.1180 0.8128 0.1535
H26 H 0.2550 0.7689 0.1218
N1 N 0.5585(4) 0.4729(3) 0.20692(11)
N2 N 0.8803(6) 0.3922(4) 0.10257(18)
N3 N 0.6158(6) 0.0848(4) 0.14346(14)
N4 N 0.3572(4) 0.2809(3) 0.07305(10)
O1 O 0.4372(4) 0.2849(3) 0.20670(9)
O2 O 0.2167(4) 0.5120(3) 0.06089(14)
O3 O 0.1850(4) 0.5281(3) 0.13785(13)
loop_
_geom_bond_atom_site_label_1
_geom_bond_atom_site_label_2
_geom_bond_site_symmetry_1
_geom_bond_site_symmetry_2
C1 H1 1_555 1_555
C2 C1 1_555 1_555
H2 C2 1_555 1_555
C3 C2 1_555 1_555
H3 C3 1_555 1_555
C4 C3 1_555 1_555
H4 C4 1_555 1_555
C5 C4 1_555 1_555
H5 C5 1_555 1_555
C6 C1 1_555 1_555
C7 C6 1_555 1_555
H6 C7 1_555 1_555
H7 C7 1_555 1_555
C8 C9 1_555 1_555
C9 C10 1_555 1_555
C10 C11 1_555 1_555
C11 H8 1_555 1_555
C12 C11 1_555 1_555
C13 C12 1_555 1_555
H9 C13 1_555 1_555
H10 C13 1_555 1_555
H11 C13 1_555 1_555
C14 C12 1_555 1_555
H12 C14 1_555 1_555
C15 C14 1_555 1_555
H13 C15 1_555 1_555
C16 C10 1_555 1_555
C17 C9 1_555 1_555
C18 C17 1_555 1_555
C19 C17 1_555 1_555
C20 C17 1_555 1_555
H14 C20 1_555 1_555
C21 C20 1_555 1_555
H15 C21 1_555 1_555
C22 C21 1_555 1_555
H16 C22 1_555 1_555
C23 C22 1_555 1_555
C24 C23 1_555 1_555
H17 C24 1_555 1_555
C25 C24 1_555 1_555
H18 C25 1_555 1_555
C26 C25 1_555 1_555
H19 C26 1_555 1_555
C27 C26 1_555 1_555
H20 C27 1_555 1_555
C28 C23 1_555 1_555
C29 C9 1_555 1_555
H21 C29 1_555 1_555
C30 C29 1_555 1_555
C31 H22 1_555 1_555
H23 C31 1_555 1_555
C32 C31 1_555 1_555
H24 C32 1_555 1_555
H25 C32 1_555 1_555
H26 C32 1_555 1_555
N1 C7 1_555 1_555
N2 C18 1_555 1_555
N3 C19 1_555 1_555
N4 C20 1_555 1_555
O1 C8 1_555 1_555
O2 C30 1_555 1_555
O3 C30 1_555 1_555
C5 C6 1_555 1_555
C8 N1 1_555 1_555
C15 C16 1_555 1_555
C16 N1 1_555 1_555
C27 C28 1_555 1_555
C28 N4 1_555 1_555
C29 N4 1_555 1_555
C31 O3 1_555 1_555

#END
