
#######################################################################
#
#                 Cambridge Crystallographic Data Centre
#                                CCDC 
#
#######################################################################
#
# If this CIF has been generated from an entry in the Cambridge 
# Structural Database, then it will include bibliographic, chemical, 
# crystal, experimental, refinement or atomic coordinate data resulting 
# from the CCDC's data processing and validation procedures.
#
#######################################################################

data_WEPBEB
_chemical_formula_moiety         'C31 H21 F1 N4 O3'
_chemical_name_systematic        
'ethyl (1-benzyl-5-fluoro-2-oxo-1,2-dihydro-3H-indol-3-ylidene)(2-(dicyanomethylene)quinolin-1(2H)-yl)acetate'
_symmetry_cell_setting           triclinic
_symmetry_space_group_name_H-M   'P -1'
_symmetry_Int_Tables_number      2
_space_group_name_Hall           '-P 1'
loop_
_symmetry_equiv_pos_site_id
_symmetry_equiv_pos_as_xyz
1 x,y,z
2 -x,-y,-z
_cell_length_a                   10.0734(5)
_cell_length_b                   10.3067(5)
_cell_length_c                   11.9926(6)
_cell_angle_alpha                97.8792(15)
_cell_angle_beta                 93.1483(16)
_cell_angle_gamma                102.3394(15)
_cell_volume                     1200.3
_exptl_crystal_colour            red
_exptl_crystal_description       block
_cell_formula_units_Z            2
loop_
_atom_site_label
_atom_site_type_symbol
_atom_site_fract_x
_atom_site_fract_y
_atom_site_fract_z
C1 C 0.34604(17) 0.16242(17) 1.32010(14)
H1 H 0.2605 0.1172 1.3358
C2 C 0.42883(18) 0.25604(18) 1.40343(15)
H2 H 0.3985 0.2731 1.4747
C3 C 0.55577(18) 0.32388(19) 1.38129(15)
H3 H 0.6108 0.3870 1.4371
C4 C 0.60070(18) 0.29710(18) 1.27498(15)
H4 H 0.6863 0.3423 1.2595
C5 C 0.51890(17) 0.20386(17) 1.19234(14)
H5 H 0.5501 0.1861 1.1215
C6 C 0.39016(16) 0.13596(16) 1.21353(13)
C7 C 0.30037(18) 0.03677(17) 1.12122(14)
H6 H 0.3542 -0.0199 1.0824
H7 H 0.2289 -0.0205 1.1545
C8 C 0.29559(16) 0.13470(16) 0.94250(13)
C9 C 0.20925(16) 0.21807(16) 0.88886(13)
C10 C 0.10000(16) 0.22780(16) 0.96355(13)
C11 C -0.01413(16) 0.28374(17) 0.95997(14)
H8 H -0.0323 0.3303 0.9018
C12 C -0.09904(17) 0.26778(18) 1.04544(14)
C13 C -0.07645(18) 0.20126(18) 1.13406(15)
H9 H -0.1365 0.1939 1.1902
C14 C 0.03679(17) 0.14528(18) 1.13878(14)
H10 H 0.0546 0.1004 1.1981
C15 C 0.12229(16) 0.15797(16) 1.05310(13)
C16 C 0.48082(16) 0.31251(16) 0.76184(13)
C17 C 0.49715(17) 0.43706(17) 0.82884(14)
H11 H 0.4219 0.4651 0.8567
C18 C 0.62583(18) 0.51860(18) 0.85366(16)
H12 H 0.6365 0.6019 0.8985
C19 C 0.73982(18) 0.47908(18) 0.81320(15)
H13 H 0.8259 0.5355 0.8307
C20 C 0.72461(17) 0.35618(18) 0.74713(14)
H14 H 0.8007 0.3296 0.7196
C21 C 0.59518(16) 0.27043(16) 0.72077(13)
C22 C 0.57505(17) 0.13984(17) 0.65782(13)
H15 H 0.6500 0.1090 0.6324
C23 C 0.44953(16) 0.05961(17) 0.63409(13)
H16 H 0.4398 -0.0260 0.5936
C24 C 0.33104(16) 0.10280(15) 0.66964(13)
C25 C 0.20117(16) 0.01917(16) 0.63679(13)
C26 C 0.07281(17) 0.05343(16) 0.65151(14)
C27 C 0.19133(16) -0.11317(18) 0.57901(14)
C28 C 0.23908(15) 0.26444(16) 0.79089(13)
C29 C 0.16713(16) 0.35273(16) 0.73291(13)
C30 C 0.11534(17) 0.41697(17) 0.55723(14)
H17 H 0.1435 0.5136 0.5795
H18 H 0.0192 0.3890 0.5679
C31 C 0.1395(2) 0.3791(2) 0.43624(15)
H19 H 0.2337 0.4129 0.4257
H20 H 0.0832 0.4172 0.3887
H21 H 0.1171 0.2830 0.4167
F1 F -0.21179(10) 0.31986(12) 1.04161(9)
N1 N 0.23853(13) 0.10494(13) 1.03945(11)
N2 N 0.35096(13) 0.22618(13) 0.73443(11)
N3 N -0.03454(15) 0.07343(15) 0.66015(13)
N4 N 0.18227(15) -0.22097(16) 0.53431(14)
O1 O 0.39768(12) 0.10149(12) 0.91040(10)
O2 O 0.09366(12) 0.41831(12) 0.77694(10)
O3 O 0.19591(11) 0.34880(11) 0.62529(9)
loop_
_geom_bond_atom_site_label_1
_geom_bond_atom_site_label_2
_geom_bond_site_symmetry_1
_geom_bond_site_symmetry_2
C1 H1 1_555 1_555
C2 C1 1_555 1_555
H2 C2 1_555 1_555
C3 C2 1_555 1_555
H3 C3 1_555 1_555
C4 C3 1_555 1_555
H4 C4 1_555 1_555
C5 C4 1_555 1_555
H5 C5 1_555 1_555
C6 C1 1_555 1_555
C7 C6 1_555 1_555
H6 C7 1_555 1_555
H7 C7 1_555 1_555
C8 C9 1_555 1_555
C9 C10 1_555 1_555
C10 C11 1_555 1_555
C11 H8 1_555 1_555
C12 C11 1_555 1_555
C13 C12 1_555 1_555
H9 C13 1_555 1_555
C14 C13 1_555 1_555
H10 C14 1_555 1_555
C15 C10 1_555 1_555
C16 C17 1_555 1_555
C17 H11 1_555 1_555
C18 C17 1_555 1_555
H12 C18 1_555 1_555
C19 C18 1_555 1_555
H13 C19 1_555 1_555
C20 C19 1_555 1_555
H14 C20 1_555 1_555
C21 C16 1_555 1_555
C22 C21 1_555 1_555
H15 C22 1_555 1_555
C23 C22 1_555 1_555
H16 C23 1_555 1_555
C24 C23 1_555 1_555
C25 C24 1_555 1_555
C26 C25 1_555 1_555
C27 C25 1_555 1_555
C28 C9 1_555 1_555
C29 C28 1_555 1_555
C30 H17 1_555 1_555
H18 C30 1_555 1_555
C31 C30 1_555 1_555
H19 C31 1_555 1_555
H20 C31 1_555 1_555
H21 C31 1_555 1_555
F1 C12 1_555 1_555
N1 C7 1_555 1_555
N2 C16 1_555 1_555
N3 C26 1_555 1_555
N4 C27 1_555 1_555
O1 C8 1_555 1_555
O2 C29 1_555 1_555
O3 C29 1_555 1_555
C5 C6 1_555 1_555
C8 N1 1_555 1_555
C14 C15 1_555 1_555
C15 N1 1_555 1_555
C20 C21 1_555 1_555
C24 N2 1_555 1_555
C28 N2 1_555 1_555
C30 O3 1_555 1_555

#END
