
#######################################################################
#
#                 Cambridge Crystallographic Data Centre
#                                CCDC 
#
#######################################################################
#
# If this CIF has been generated from an entry in the Cambridge 
# Structural Database, then it will include bibliographic, chemical, 
# crystal, experimental, refinement or atomic coordinate data resulting 
# from the CCDC's data processing and validation procedures.
#
#######################################################################

data_WERCUS
_chemical_formula_moiety         'C31 H28 O5'
_chemical_name_systematic        
(3,8-Dimethoxy-2-naphthyl)(2,5-dimethoxy-1-naphthyl)(phenyl)methanol
_symmetry_cell_setting           orthorhombic
_symmetry_space_group_name_H-M   'P c a 21'
_symmetry_Int_Tables_number      29
_space_group_name_Hall           'P 2c -2ac'
loop_
_symmetry_equiv_pos_site_id
_symmetry_equiv_pos_as_xyz
1 x,y,z
2 -x,-y,1/2+z
3 1/2-x,y,1/2+z
4 1/2+x,-y,z
_cell_length_a                   9.743(2)
_cell_length_b                   16.188(3)
_cell_length_c                   15.137(3)
_cell_angle_alpha                90
_cell_angle_beta                 90
_cell_angle_gamma                90
_cell_volume                     2387.4
_exptl_crystal_colour            colorless
_exptl_crystal_description       lath
_cell_formula_units_Z            4
loop_
_atom_site_label
_atom_site_type_symbol
_atom_site_fract_x
_atom_site_fract_y
_atom_site_fract_z
O1 O 0.49840(17) 0.62231(9) 0.33454(11)
H1 H 0.478(3) 0.6283(16) 0.274(2)
O2 O 0.47762(18) 0.70647(11) 0.18444(10)
O3 O 0.84722(18) 0.93133(10) 0.42576(11)
O4 O 0.40934(18) 0.81164(10) 0.50907(11)
O5 O 0.77013(19) 0.54040(10) 0.69229(11)
C1 C 0.4916(2) 0.70543(13) 0.36864(14)
C2 C 0.5790(2) 0.76442(14) 0.31252(14)
C3 C 0.5664(2) 0.76383(14) 0.21782(15)
C4 C 0.6388(2) 0.81822(15) 0.16596(15)
H2 H 0.6288 0.8164 0.1036
C5 C 0.7282(2) 0.87694(14) 0.20483(16)
C6 C 0.8043(3) 0.93355(15) 0.15244(16)
H3 H 0.7946 0.9333 0.0900
C7 C 0.8911(3) 0.98793(15) 0.19175(18)
H4 H 0.9402 1.0263 0.1562
C8 C 0.9100(2) 0.98880(14) 0.28430(18)
H5 H 0.9733 1.0261 0.3105
C9 C 0.8364(2) 0.93555(13) 0.33579(16)
C10 C 0.7425(2) 0.87853(13) 0.29771(15)
C11 C 0.6661(2) 0.82089(13) 0.34959(14)
H6 H 0.6761 0.8218 0.4120
C12 C 0.4654(3) 0.70048(17) 0.08980(16)
H7 H 0.4321 0.7531 0.0661
H8 H 0.4003 0.6565 0.0748
H9 H 0.5553 0.6878 0.0642
C13 C 0.9562(3) 0.97843(19) 0.4646(2)
H10 H 1.0440 0.9613 0.4389
H11 H 0.9577 0.9689 0.5285
H12 H 0.9412 1.0373 0.4529
C14 C 0.5442(2) 0.69817(13) 0.46492(14)
C15 C 0.4904(2) 0.74579(13) 0.53246(15)
C16 C 0.5186(2) 0.72954(14) 0.62226(15)
H13 H 0.4786 0.7630 0.6670
C17 C 0.6030(2) 0.66607(13) 0.64479(15)
H14 H 0.6163 0.6528 0.7053
C18 C 0.6708(2) 0.61986(13) 0.57913(15)
C19 C 0.7644(2) 0.55517(14) 0.60283(15)
C20 C 0.8403(2) 0.51519(14) 0.54055(16)
H15 H 0.9010 0.4718 0.5568
C21 C 0.8269(2) 0.53939(14) 0.45169(16)
H16 H 0.8845 0.5144 0.4087
C22 C 0.7337(2) 0.59781(13) 0.42475(16)
H17 H 0.7262 0.6113 0.3639
C23 C 0.6479(2) 0.63852(12) 0.48789(14)
C24 C 0.3255(3) 0.84905(16) 0.57565(18)
H18 H 0.2782 0.8059 0.6093
H19 H 0.2575 0.8852 0.5476
H20 H 0.3833 0.8816 0.6155
C25 C 0.8614(3) 0.47642(15) 0.72081(18)
H21 H 0.8313 0.4234 0.6963
H22 H 0.8609 0.4735 0.7855
H23 H 0.9546 0.4886 0.7001
C26 C 0.3386(2) 0.73028(13) 0.36368(13)
C27 C 0.2417(2) 0.67361(13) 0.39244(15)
H24 H 0.2710 0.6227 0.4173
C28 C 0.1019(2) 0.69040(15) 0.38535(16)
H25 H 0.0365 0.6505 0.4040
C29 C 0.0584(2) 0.76517(16) 0.35112(16)
H26 H -0.0368 0.7772 0.3472
C30 C 0.1542(3) 0.82217(16) 0.32270(16)
H27 H 0.1247 0.8736 0.2991
C31 C 0.2934(2) 0.80465(14) 0.32847(15)
H28 H 0.3585 0.8440 0.3081
loop_
_geom_bond_atom_site_label_1
_geom_bond_atom_site_label_2
_geom_bond_site_symmetry_1
_geom_bond_site_symmetry_2
O1 H1 1_555 1_555
O2 C3 1_555 1_555
O3 C9 1_555 1_555
O4 C15 1_555 1_555
O5 C19 1_555 1_555
C1 O1 1_555 1_555
C2 C1 1_555 1_555
C3 C2 1_555 1_555
C4 C3 1_555 1_555
H2 C4 1_555 1_555
C5 C4 1_555 1_555
C6 C5 1_555 1_555
H3 C6 1_555 1_555
C7 C6 1_555 1_555
H4 C7 1_555 1_555
C8 C7 1_555 1_555
H5 C8 1_555 1_555
C9 C8 1_555 1_555
C10 C5 1_555 1_555
C11 C2 1_555 1_555
H6 C11 1_555 1_555
C12 O2 1_555 1_555
H7 C12 1_555 1_555
H8 C12 1_555 1_555
H9 C12 1_555 1_555
C13 O3 1_555 1_555
H10 C13 1_555 1_555
H11 C13 1_555 1_555
H12 C13 1_555 1_555
C14 C1 1_555 1_555
C15 C14 1_555 1_555
C16 C15 1_555 1_555
H13 C16 1_555 1_555
C17 C16 1_555 1_555
H14 C17 1_555 1_555
C18 C17 1_555 1_555
C19 C18 1_555 1_555
C20 C19 1_555 1_555
H15 C20 1_555 1_555
C21 C20 1_555 1_555
H16 C21 1_555 1_555
C22 C21 1_555 1_555
H17 C22 1_555 1_555
C23 C14 1_555 1_555
C24 O4 1_555 1_555
H18 C24 1_555 1_555
H19 C24 1_555 1_555
H20 C24 1_555 1_555
C25 O5 1_555 1_555
H21 C25 1_555 1_555
H22 C25 1_555 1_555
H23 C25 1_555 1_555
C26 C1 1_555 1_555
C27 C26 1_555 1_555
H24 C27 1_555 1_555
C28 C27 1_555 1_555
H25 C28 1_555 1_555
C29 C28 1_555 1_555
H26 C29 1_555 1_555
C30 C29 1_555 1_555
H27 C30 1_555 1_555
C31 C26 1_555 1_555
H28 C31 1_555 1_555
C9 C10 1_555 1_555
C10 C11 1_555 1_555
C18 C23 1_555 1_555
C22 C23 1_555 1_555
C30 C31 1_555 1_555

#END
