
#######################################################################
#
#                 Cambridge Crystallographic Data Centre
#                                CCDC 
#
#######################################################################
#
# If this CIF has been generated from an entry in the Cambridge 
# Structural Database, then it will include bibliographic, chemical, 
# crystal, experimental, refinement or atomic coordinate data resulting 
# from the CCDC's data processing and validation procedures.
#
#######################################################################

data_WERYIB
_chemical_formula_moiety         'C16 H18 O2'
_chemical_name_systematic        2,2'-Dimethoxybibenzyl
_symmetry_cell_setting           monoclinic
_symmetry_space_group_name_H-M   'P 21/n'
_symmetry_Int_Tables_number      14
_space_group_name_Hall           '-P 2yn'
loop_
_symmetry_equiv_pos_site_id
_symmetry_equiv_pos_as_xyz
1 x,y,z
2 1/2-x,1/2+y,1/2-z
3 -x,-y,-z
4 1/2+x,1/2-y,1/2+z
_cell_length_a                   7.1487(24)
_cell_length_b                   12.1026(11)
_cell_length_c                   7.8726(8)
_cell_angle_alpha                90
_cell_angle_beta                 99.542(21)
_cell_angle_gamma                90
_cell_volume                     671.697
_exptl_crystal_colour            colorless
_chemical_melting_point          363-364K
_cell_formula_units_Z            2
loop_
_atom_site_label
_atom_site_type_symbol
_atom_site_fract_x
_atom_site_fract_y
_atom_site_fract_z
C1 C 0.29089(16) 0.53098(10) 0.12087(16)
C2 C 0.40879(18) 0.46976(10) 0.00939(19)
C3 C 0.17137(15) 0.61770(10) 0.05199(16)
O1 O 0.17646(13) 0.64255(9) -0.11646(12)
C4 C 0.0592(3) 0.72917(17) -0.1934(3)
C5 C 0.05748(18) 0.67199(11) 0.15253(19)
C6 C 0.06580(21) 0.64305(15) 0.32228(21)
C7 C 0.18634(22) 0.56125(16) 0.39496(21)
C8 C 0.29678(20) 0.50565(13) 0.29319(20)
H1 H 0.4444(22) 0.3954(18) 0.0552(21)
H2 H 0.333(3) 0.4547(14) -0.1073(22)
H3 H 0.097(3) 0.7992(19) -0.124(3)
H4 H -0.081(4) 0.7116(18) -0.1911(25)
H5 H 0.096(3) 0.7366(15) -0.310(3)
H6 H -0.023(3) 0.7251(17) 0.1047(24)
H7 H -0.012(3) 0.6790(14) 0.3886(24)
H8 H 0.194(3) 0.5438(14) 0.5204(25)
H9 H 0.3813(24) 0.4496(13) 0.3432(21)
C2B C 0.59121(18) 0.53024(10) -0.00939(19)
C1B C 0.70911(16) 0.46902(10) -0.12087(16)
H1B H 0.5556(22) 0.6046(18) -0.0552(21)
H2B H 0.667(3) 0.5453(14) 0.1073(22)
C3B C 0.82863(15) 0.38230(10) -0.05199(16)
C8B C 0.70322(20) 0.49435(13) -0.29319(20)
O1B O 0.82354(13) 0.35745(9) 0.11646(12)
C5B C 0.94252(18) 0.32801(11) -0.15253(19)
C7B C 0.81366(22) 0.43875(16) -0.39496(21)
H9B H 0.6187(24) 0.5504(13) -0.3432(21)
C4B C 0.9408(3) 0.27083(17) 0.1934(3)
C6B C 0.93420(21) 0.35695(15) -0.32228(21)
H6B H 1.023(3) 0.2749(17) -0.1047(24)
H8B H 0.806(3) 0.4562(14) -0.5204(25)
H3B H 0.903(3) 0.2008(19) 0.124(3)
H4B H 1.081(4) 0.2884(18) 0.1911(25)
H5B H 0.904(3) 0.2634(15) 0.310(3)
H7B H 1.012(3) 0.3210(14) -0.3886(24)
loop_
_geom_bond_atom_site_label_1
_geom_bond_atom_site_label_2
_geom_bond_site_symmetry_1
_geom_bond_site_symmetry_2
C1 C2 1_555 1_555
C2 H1 1_555 1_555
C3 C1 1_555 1_555
O1 C3 1_555 1_555
C4 O1 1_555 1_555
C5 C3 1_555 1_555
C6 C5 1_555 1_555
C7 C6 1_555 1_555
C8 C1 1_555 1_555
H2 C2 1_555 1_555
H3 C4 1_555 1_555
H4 C4 1_555 1_555
H5 C4 1_555 1_555
H6 C5 1_555 1_555
H7 C6 1_555 1_555
H8 C7 1_555 1_555
H9 C8 1_555 1_555
C2B C2 1_555 1_555
C1B C2B 1_555 1_555
H1B C2B 1_555 1_555
H2B C2B 1_555 1_555
C3B C1B 1_555 1_555
C8B C1B 1_555 1_555
O1B C3B 1_555 1_555
C5B C3B 1_555 1_555
C7B C8B 1_555 1_555
H9B C8B 1_555 1_555
C4B O1B 1_555 1_555
C6B C5B 1_555 1_555
H6B C5B 1_555 1_555
H8B C7B 1_555 1_555
H3B C4B 1_555 1_555
H4B C4B 1_555 1_555
H5B C4B 1_555 1_555
H7B C6B 1_555 1_555
C7 C8 1_555 1_555
C7B C6B 1_555 1_555

#END
