
#######################################################################
#
#                 Cambridge Crystallographic Data Centre
#                                CCDC 
#
#######################################################################
#
# If this CIF has been generated from an entry in the Cambridge 
# Structural Database, then it will include bibliographic, chemical, 
# crystal, experimental, refinement or atomic coordinate data resulting 
# from the CCDC's data processing and validation procedures.
#
#######################################################################

data_WESFIJ
_chemical_formula_moiety         'C30 H24'
_chemical_name_systematic        
1,12-Dihydro-1,1,12,12-tetramethyl-dicyclopenta(def,jkl)tetraphenylene
_symmetry_cell_setting           triclinic
_symmetry_space_group_name_H-M   'P -1'
_symmetry_Int_Tables_number      2
_space_group_name_Hall           '-P 1'
loop_
_symmetry_equiv_pos_site_id
_symmetry_equiv_pos_as_xyz
1 x,y,z
2 -x,-y,-z
_cell_length_a                   11.163(4)
_cell_length_b                   13.443(4)
_cell_length_c                   15.797(6)
_cell_angle_alpha                69.27(3)
_cell_angle_beta                 79.32(3)
_cell_angle_gamma                74.11(3)
_cell_volume                     2122.05
_exptl_crystal_colour            colorless
_chemical_melting_point          245-247deg.C
_cell_formula_units_Z            4
loop_
_atom_site_label
_atom_site_type_symbol
_atom_site_fract_x
_atom_site_fract_y
_atom_site_fract_z
C1 C 0.0788(2) 0.1050(2) 0.2151(2)
C2 C -0.0485(2) 0.0897(2) 0.2096(2)
C3 C -0.0783(3) -0.0085(2) 0.2224(2)
C4 C -0.2025(3) -0.0145(2) 0.2379(2)
C5 C -0.2949(2) 0.0771(2) 0.2432(2)
C6 C -0.4281(2) 0.0785(2) 0.2852(2)
C7 C -0.4692(2) 0.1922(2) 0.2920(2)
C8 C -0.5796(3) 0.2369(3) 0.3354(2)
C9 C -0.6026(3) 0.3453(3) 0.3299(2)
C10 C -0.5226(3) 0.4098(3) 0.2756(2)
C11 C -0.4120(2) 0.3677(2) 0.2283(2)
C12 C -0.3546(3) 0.4484(2) 0.1501(2)
C13 C -0.4426(3) 0.5235(3) 0.0917(2)
C14 C -0.4118(4) 0.6045(3) 0.0165(3)
C15 C -0.2897(4) 0.6141(3) -0.0032(2)
C16 C -0.1993(3) 0.5406(2) 0.0513(2)
C17 C -0.2295(3) 0.4565(2) 0.1293(2)
C18 C -0.1200(2) 0.3862(2) 0.1795(2)
C19 C -0.0365(3) 0.4398(2) 0.1931(2)
C20 C 0.0831(3) 0.3873(3) 0.2169(2)
C21 C 0.1274(3) 0.2787(3) 0.2239(2)
C22 C 0.0472(2) 0.2222(2) 0.2138(2)
C23 C -0.0780(2) 0.2726(2) 0.1978(2)
C24 C -0.1411(2) 0.1865(2) 0.2030(2)
C25 C -0.2668(2) 0.1795(2) 0.2205(2)
C26 C -0.3813(2) 0.2551(2) 0.2443(2)
C27 C 0.1726(3) 0.0905(3) 0.1330(2)
C28 C 0.1309(3) 0.0255(2) 0.3041(2)
C29 C -0.5091(3) 0.0649(3) 0.2227(2)
C30 C -0.4338(3) -0.0100(3) 0.3776(2)
H1 H -0.0131 -0.0717 0.2210
H2 H -0.2252 -0.0811 0.2449
H3 H -0.6386 0.1930 0.3681
H4 H -0.6746 0.3762 0.3640
H5 H -0.5421 0.4857 0.2703
H6 H -0.5282 0.5170 0.1049
H7 H -0.4732 0.6548 -0.0230
H8 H -0.2666 0.6717 -0.0552
H9 H -0.1137 0.5469 0.0367
H10 H -0.0644 0.5160 0.1867
H11 H 0.1358 0.4265 0.2277
H12 H 0.2123 0.2424 0.2363
H13 H 0.1399 0.1402 0.0774
H14 H 0.1858 0.0168 0.1332
H15 H 0.2507 0.1042 0.1379
H16 H 0.2116 0.0358 0.3070
H17 H 0.1386 -0.0482 0.3061
H18 H 0.0750 0.0392 0.3548
H19 H -0.4823 -0.0078 0.2191
H20 H -0.4992 0.1166 0.1631
H21 H -0.5955 0.0777 0.2464
H22 H -0.5193 -0.0074 0.4028
H23 H -0.3884 0.0016 0.4180
H24 H -0.3967 -0.0802 0.3702
C31 C 0.1601(3) -0.2468(2) 0.1020(2)
C32 C 0.1151(3) -0.2838(2) 0.2020(2)
C33 C -0.0011(3) -0.3059(2) 0.2398(2)
C34 C -0.0401(3) -0.3148(2) 0.3303(2)
C35 C 0.0385(3) -0.3007(2) 0.3814(2)
C36 C 0.0016(3) -0.2825(2) 0.4729(2)
C37 C 0.1144(3) -0.2476(2) 0.4829(2)
C38 C 0.1272(3) -0.2079(3) 0.5493(2)
C39 C 0.2385(3) -0.1808(3) 0.5481(2)
C40 C 0.3396(3) -0.2048(2) 0.4872(2)
C41 C 0.3316(3) -0.2505(2) 0.4214(2)
C42 C 0.4531(3) -0.3051(2) 0.3812(2)
C43 C 0.5342(3) -0.3746(3) 0.4466(2)
C44 C 0.6486(3) -0.4357(3) 0.4251(3)
C45 C 0.6858(3) -0.4302(3) 0.3356(3)
C46 C 0.6092(3) -0.3611(3) 0.2694(2)
C47 C 0.4911(3) -0.2976(2) 0.2898(2)
C48 C 0.4228(3) -0.2310(2) 0.2084(2)
C49 C 0.4914(3) -0.1717(3) 0.1317(2)
C50 C 0.4528(4) -0.1330(3) 0.0456(2)
C51 C 0.3470(3) -0.1560(3) 0.0309(2)
C52 C 0.2756(3) -0.2105(2) 0.1042(2)
C53 C 0.3069(3) -0.2408(2) 0.1939(2)
C54 C 0.2003(2) -0.2795(2) 0.2557(2)
C55 C 0.1611(2) -0.2882(2) 0.3473(2)
C56 C 0.2124(2) -0.2622(2) 0.4146(2)
C57 C 0.1938(3) -0.3415(3) 0.0623(2)
C58 C 0.0623(3) -0.1533(3) 0.0470(2)
C59 C -0.1181(3) -0.1942(3) 0.4732(2)
C60 C -0.0140(3) -0.3885(3) 0.5492(2)
H25 H -0.0540 -0.3154 0.2031
H26 H -0.1200 -0.3308 0.3569
H27 H 0.0602 -0.2010 0.5962
H28 H 0.2455 -0.1433 0.5880
H29 H 0.4187 -0.1916 0.4902
H30 H 0.5072 -0.3811 0.5093
H31 H 0.7022 -0.4816 0.4718
H32 H 0.7651 -0.4728 0.3192
H33 H 0.6357 -0.3565 0.2070
H34 H 0.5671 -0.1568 0.1397
H35 H 0.4991 -0.0899 -0.0048
H36 H 0.3229 -0.1348 -0.0294
H37 H 0.1188 -0.3629 0.0616
H38 H 0.2506 -0.4026 0.0985
H39 H 0.2324 -0.3173 0.0012
H40 H 0.0928 -0.1306 -0.0163
H41 H 0.0449 -0.0927 0.0696
H42 H -0.0130 -0.1780 0.0540
H43 H -0.1389 -0.1842 0.5318
H44 H -0.1851 -0.2158 0.4590
H45 H -0.1057 -0.1269 0.4280
H46 H -0.0857 -0.4098 0.5415
H47 H -0.0255 -0.3771 0.6070
H48 H 0.0594 -0.4452 0.5466
loop_
_geom_bond_atom_site_label_1
_geom_bond_atom_site_label_2
_geom_bond_site_symmetry_1
_geom_bond_site_symmetry_2
C1 C2 1_555 1_555
C2 C3 1_555 1_555
C3 C4 1_555 1_555
C4 C5 1_555 1_555
C5 C6 1_555 1_555
C6 C7 1_555 1_555
C7 C8 1_555 1_555
C8 C9 1_555 1_555
C9 C10 1_555 1_555
C10 C11 1_555 1_555
C11 C12 1_555 1_555
C12 C13 1_555 1_555
C13 C14 1_555 1_555
C14 C15 1_555 1_555
C15 C16 1_555 1_555
C16 C17 1_555 1_555
C17 C12 1_555 1_555
C18 C17 1_555 1_555
C19 C18 1_555 1_555
C20 C19 1_555 1_555
C21 C20 1_555 1_555
C22 C1 1_555 1_555
C23 C18 1_555 1_555
C24 C2 1_555 1_555
C25 C5 1_555 1_555
C26 C7 1_555 1_555
C27 C1 1_555 1_555
C28 C1 1_555 1_555
C29 C6 1_555 1_555
C30 C6 1_555 1_555
C31 C32 1_555 1_555
C32 C33 1_555 1_555
C33 C34 1_555 1_555
C34 C35 1_555 1_555
C35 C36 1_555 1_555
C36 C37 1_555 1_555
C37 C38 1_555 1_555
C38 C39 1_555 1_555
C39 C40 1_555 1_555
C40 C41 1_555 1_555
C41 C42 1_555 1_555
C42 C43 1_555 1_555
C43 C44 1_555 1_555
C44 C45 1_555 1_555
C45 C46 1_555 1_555
C46 C47 1_555 1_555
C47 C42 1_555 1_555
C48 C47 1_555 1_555
C49 C48 1_555 1_555
C50 C49 1_555 1_555
C51 C50 1_555 1_555
C52 C31 1_555 1_555
C53 C48 1_555 1_555
C54 C32 1_555 1_555
C55 C35 1_555 1_555
C56 C37 1_555 1_555
C57 C31 1_555 1_555
C58 C31 1_555 1_555
C59 C36 1_555 1_555
C60 C36 1_555 1_555
H1 C3 1_555 1_555
H2 C4 1_555 1_555
H3 C8 1_555 1_555
H4 C9 1_555 1_555
H5 C10 1_555 1_555
H6 C13 1_555 1_555
H7 C14 1_555 1_555
H8 C15 1_555 1_555
H9 C16 1_555 1_555
H10 C19 1_555 1_555
H11 C20 1_555 1_555
H12 C21 1_555 1_555
H13 C27 1_555 1_555
H14 C27 1_555 1_555
H15 C27 1_555 1_555
H16 C28 1_555 1_555
H17 C28 1_555 1_555
H18 C28 1_555 1_555
H19 C29 1_555 1_555
H20 C29 1_555 1_555
H21 C29 1_555 1_555
H22 C30 1_555 1_555
H23 C30 1_555 1_555
H24 C30 1_555 1_555
H25 C33 1_555 1_555
H26 C34 1_555 1_555
H27 C38 1_555 1_555
H28 C39 1_555 1_555
H29 C40 1_555 1_555
H30 C43 1_555 1_555
H31 C44 1_555 1_555
H32 C45 1_555 1_555
H33 C46 1_555 1_555
H34 C49 1_555 1_555
H35 C50 1_555 1_555
H36 C51 1_555 1_555
H37 C57 1_555 1_555
H38 C57 1_555 1_555
H39 C57 1_555 1_555
H40 C58 1_555 1_555
H41 C58 1_555 1_555
H42 C58 1_555 1_555
H43 C59 1_555 1_555
H44 C59 1_555 1_555
H45 C59 1_555 1_555
H46 C60 1_555 1_555
H47 C60 1_555 1_555
H48 C60 1_555 1_555
C11 C26 1_555 1_555
C21 C22 1_555 1_555
C22 C23 1_555 1_555
C23 C24 1_555 1_555
C24 C25 1_555 1_555
C25 C26 1_555 1_555
C41 C56 1_555 1_555
C51 C52 1_555 1_555
C52 C53 1_555 1_555
C53 C54 1_555 1_555
C54 C55 1_555 1_555
C55 C56 1_555 1_555

#END
