
#######################################################################
#
#                 Cambridge Crystallographic Data Centre
#                                CCDC 
#
#######################################################################
#
# If this CIF has been generated from an entry in the Cambridge 
# Structural Database, then it will include bibliographic, chemical, 
# crystal, experimental, refinement or atomic coordinate data resulting 
# from the CCDC's data processing and validation procedures.
#
#######################################################################

data_WESKAH
_chemical_formula_moiety         'C13 H13 Br2 N1 O1'
_chemical_name_systematic        
(12S*,13S*)-12,13-Dibromo-9-azatricyclo(7.4.1.0^2,7^)tetradeca-2,4,6-trien-8-one
_symmetry_cell_setting           monoclinic
_symmetry_space_group_name_H-M   'P 21/n'
_symmetry_Int_Tables_number      14
_space_group_name_Hall           '-P 2yn'
loop_
_symmetry_equiv_pos_site_id
_symmetry_equiv_pos_as_xyz
1 x,y,z
2 1/2-x,1/2+y,1/2-z
3 -x,-y,-z
4 1/2+x,1/2-y,1/2+z
_cell_length_a                   7.9218(10)
_cell_length_b                   15.295(2)
_cell_length_c                   10.2586(10)
_cell_angle_alpha                90
_cell_angle_beta                 99.385(6)
_cell_angle_gamma                90
_cell_volume                     1226.33
_exptl_crystal_colour            'pale yellow'
_exptl_crystal_description       'arrowhead-shaped chunk'
_chemical_melting_point          132-136deg.C
_cell_formula_units_Z            4
_exptl_crystal_recrystallization_method chloroform
loop_
_atom_site_label
_atom_site_type_symbol
_atom_site_fract_x
_atom_site_fract_y
_atom_site_fract_z
Br1 Br 0.16860(3) 0.569054(16) 0.91342(2)
Br2 Br 0.54413(3) 0.576910(15) 0.81108(2)
O1 O 0.70243(19) 0.64084(10) 1.34984(15)
N1 N 0.5632(2) 0.74048(11) 1.20647(17)
C1 C 0.3986(3) 0.63828(13) 1.3128(2)
C2 C 0.3868(3) 0.58838(14) 1.4246(2)
H1 H 0.4832 0.5824 1.4924
C3 C 0.2337(3) 0.54732(16) 1.4364(2)
H2 H 0.2247 0.5133 1.5124
C4 C 0.0943(3) 0.55624(16) 1.3368(2)
H3 H -0.0108 0.5285 1.345
C5 C 0.1066(3) 0.60524(15) 1.2251(2)
H4 H 0.01 0.6103 1.1572
C6 C 0.2584(3) 0.64707(14) 1.2112(2)
C7 C 0.2755(3) 0.70636(14) 1.0950(2)
H5 H 0.1612 0.734 1.0662
C8 C 0.3301(3) 0.66458(14) 0.9707(2)
H6 H 0.309 0.71 0.8999
C9 C 0.5181(3) 0.63625(14) 0.9780(2)
H7 H 0.551 0.5955 1.0541
C10 C 0.6440(3) 0.71394(15) 0.9887(2)
H8 H 0.7466 0.6959 0.9519
H9 H 0.5892 0.7625 0.9335
C11 C 0.7013(3) 0.74801(16) 1.1296(2)
H10 H 0.8014 0.714 1.1727
H11 H 0.7364 0.81 1.1263
C12 C 0.5677(3) 0.67350(13) 1.2941(2)
C13 C 0.3985(3) 0.77932(14) 1.1485(2)
H12 H 0.4147 0.8197 1.0762
H13 H 0.3509 0.813 1.2165
loop_
_geom_bond_atom_site_label_1
_geom_bond_atom_site_label_2
_geom_bond_site_symmetry_1
_geom_bond_site_symmetry_2
Br1 C8 1_555 1_555
Br2 C9 1_555 1_555
O1 C12 1_555 1_555
N1 C11 1_555 1_555
C1 C2 1_555 1_555
C2 H1 1_555 1_555
C3 C2 1_555 1_555
H2 C3 1_555 1_555
C4 C3 1_555 1_555
H3 C4 1_555 1_555
C5 C4 1_555 1_555
H4 C5 1_555 1_555
C6 C1 1_555 1_555
C7 C6 1_555 1_555
H5 C7 1_555 1_555
C8 C7 1_555 1_555
H6 C8 1_555 1_555
C9 C8 1_555 1_555
H7 C9 1_555 1_555
C10 C9 1_555 1_555
H8 C10 1_555 1_555
H9 C10 1_555 1_555
C11 C10 1_555 1_555
H10 C11 1_555 1_555
H11 C11 1_555 1_555
C12 N1 1_555 1_555
C13 N1 1_555 1_555
H12 C13 1_555 1_555
H13 C13 1_555 1_555
C1 C12 1_555 1_555
C5 C6 1_555 1_555
C7 C13 1_555 1_555

#END
