
#######################################################################
#
#                 Cambridge Crystallographic Data Centre
#                                CCDC 
#
#######################################################################
#
# If this CIF has been generated from an entry in the Cambridge 
# Structural Database, then it will include bibliographic, chemical, 
# crystal, experimental, refinement or atomic coordinate data resulting 
# from the CCDC's data processing and validation procedures.
#
#######################################################################

data_WESWIB
_chemical_formula_moiety         'C10 H21 N3 S1'
_chemical_name_systematic        
1-((1R,2R)-2-(dimethylamino)cyclohexyl)-3-methylthiourea
_symmetry_cell_setting           orthorhombic
_symmetry_space_group_name_H-M   'P 21 21 21'
_symmetry_Int_Tables_number      19
_space_group_name_Hall           'P 2ac 2ab'
loop_
_symmetry_equiv_pos_site_id
_symmetry_equiv_pos_as_xyz
1 x,y,z
2 1/2-x,-y,1/2+z
3 1/2+x,1/2-y,-z
4 -x,1/2+y,1/2-z
_cell_length_a                   11.5762(4)
_cell_length_b                   12.7340(4)
_cell_length_c                   16.3923(6)
_cell_angle_alpha                90
_cell_angle_beta                 90
_cell_angle_gamma                90
_cell_volume                     2416.41
_exptl_crystal_colour            colorless
_exptl_crystal_description       prism
_chemical_melting_point          '101 deg.C'
_cell_formula_units_Z            8
loop_
_atom_site_label
_atom_site_type_symbol
_atom_site_fract_x
_atom_site_fract_y
_atom_site_fract_z
S1 S 0.20240(4) 0.92908(4) 0.17077(3)
N1 N 0.28083(13) 1.15190(11) -0.03762(9)
N2 N 0.25129(12) 0.93589(12) 0.01167(9)
H1 H 0.2876(14) 0.9161(13) -0.0255(10)
N3 N 0.36582(14) 0.83014(12) 0.08888(10)
H2 H 0.4015(18) 0.8194(16) 0.0454(12)
C1 C 0.18353(14) 1.08772(13) -0.06745(11)
H3 H 0.2089(14) 1.0541(13) -0.1188(11)
C2 C 0.15115(14) 1.00098(14) -0.00742(11)
H4 H 0.1286(13) 1.0313(12) 0.0448(10)
C3 C 0.05289(16) 0.93402(16) -0.04106(15)
H5 H 0.0396(17) 0.8858(15) -0.0012(13)
H6 H 0.0818(17) 0.8964(15) -0.0876(12)
C4 C -0.05285(17) 0.99733(17) -0.06392(14)
H7 H -0.0863(17) 1.0279(15) -0.0145(13)
H8 H -0.1162(17) 0.9582(16) -0.0863(12)
C5 C -0.01953(17) 1.08126(16) -0.12535(13)
H9 H 0.0091(16) 1.0471(14) -0.1744(12)
H10 H -0.0882(18) 1.1257(15) -0.1434(11)
C6 C 0.07537(17) 1.15088(15) -0.09155(14)
H11 H 0.0987(19) 1.2050(19) -0.1305(14)
H12 H 0.0526(16) 1.1866(15) -0.0437(12)
C7 C 0.25177(19) 1.21497(16) 0.03423(14)
H13 H 0.1922 1.2664 0.0198
H14 H 0.3209 1.2518 0.0535
H15 H 0.2228 1.1689 0.0775
C8 C 0.32676(18) 1.22007(15) -0.10238(15)
H16 H 0.2724 1.2775 -0.1127
H17 H 0.3372 1.1790 -0.1524
H18 H 0.4013 1.2491 -0.0852
C9 C 0.27620(15) 0.89686(13) 0.08593(11)
C10 C 0.41073(17) 0.78289(15) 0.16264(12)
H19 H 0.4182 0.8367 0.2050
H20 H 0.4867 0.7520 0.1515
H21 H 0.3577 0.7279 0.1813
S2 S 0.66573(4) 0.94011(4) 0.05374(3)
N4 N 0.38181(12) 0.85068(10) -0.13909(8)
N5 N 0.49957(13) 1.00715(11) -0.04665(8)
H22 H 0.4356(16) 1.0448(13) -0.0517(10)
N6 N 0.48785(14) 1.06861(13) 0.08165(9)
H23 H 0.4239(16) 1.0912(14) 0.0677(11)
C11 C 0.46390(13) 0.92383(13) -0.17939(10)
H24 H 0.4152(12) 0.9880(11) -0.1977(9)
C12 C 0.55473(15) 0.96529(14) -0.11978(11)
H25 H 0.6026(12) 0.9074(11) -0.1021(9)
C13 C 0.63102(16) 1.04845(15) -0.15968(12)
H26 H 0.5814(15) 1.1066(13) -0.1734(10)
H27 H 0.6857(15) 1.0737(13) -0.1210(10)
C14 C 0.68968(16) 1.00677(15) -0.23680(11)
H28 H 0.7456(14) 0.9497(12) -0.2235(9)
H29 H 0.7399(16) 1.0609(15) -0.2624(11)
C15 C 0.59966(16) 0.96494(14) -0.29597(11)
H30 H 0.5514(14) 1.0232(12) -0.3148(10)
H31 H 0.6363(16) 0.9413(15) -0.3450(12)
C16 C 0.52433(16) 0.88115(14) -0.25600(11)
H32 H 0.5709(15) 0.8208(14) -0.2413(10)
H33 H 0.4658(14) 0.8594(12) -0.2944(10)
C17 C 0.28457(15) 0.82359(15) -0.19169(11)
H34 H 0.3119 0.7802 -0.2371
H35 H 0.2495 0.8880 -0.2131
H36 H 0.2270 0.7844 -0.1601
C18 C 0.43699(17) 0.75386(13) -0.10997(12)
H37 H 0.4664 0.7139 -0.1566
H38 H 0.3802 0.7113 -0.0803
H39 H 0.5011 0.7717 -0.0735
C19 C 0.54631(15) 1.00808(14) 0.02807(11)
C20 C 0.51060(19) 1.07090(16) 0.16880(11)
H40 H 0.4997 1.0005 0.1916
H41 H 0.4572 1.1200 0.1952
H42 H 0.5903 1.0938 0.1783
loop_
_geom_bond_atom_site_label_1
_geom_bond_atom_site_label_2
_geom_bond_site_symmetry_1
_geom_bond_site_symmetry_2
S1 C9 1_555 1_555
N1 C1 1_555 1_555
N2 H1 1_555 1_555
N3 H2 1_555 1_555
C1 H3 1_555 1_555
C2 N2 1_555 1_555
H4 C2 1_555 1_555
C3 C2 1_555 1_555
H5 C3 1_555 1_555
H6 C3 1_555 1_555
C4 C3 1_555 1_555
H7 C4 1_555 1_555
H8 C4 1_555 1_555
C5 C4 1_555 1_555
H9 C5 1_555 1_555
H10 C5 1_555 1_555
C6 C1 1_555 1_555
H11 C6 1_555 1_555
H12 C6 1_555 1_555
C7 N1 1_555 1_555
H13 C7 1_555 1_555
H14 C7 1_555 1_555
H15 C7 1_555 1_555
C8 N1 1_555 1_555
H16 C8 1_555 1_555
H17 C8 1_555 1_555
H18 C8 1_555 1_555
C9 N2 1_555 1_555
C10 N3 1_555 1_555
H19 C10 1_555 1_555
H20 C10 1_555 1_555
H21 C10 1_555 1_555
S2 C19 1_555 1_555
N4 C11 1_555 1_555
N5 H22 1_555 1_555
N6 H23 1_555 1_555
C11 H24 1_555 1_555
C12 N5 1_555 1_555
H25 C12 1_555 1_555
C13 C12 1_555 1_555
H26 C13 1_555 1_555
H27 C13 1_555 1_555
C14 C13 1_555 1_555
H28 C14 1_555 1_555
H29 C14 1_555 1_555
C15 C14 1_555 1_555
H30 C15 1_555 1_555
H31 C15 1_555 1_555
C16 C11 1_555 1_555
H32 C16 1_555 1_555
H33 C16 1_555 1_555
C17 N4 1_555 1_555
H34 C17 1_555 1_555
H35 C17 1_555 1_555
H36 C17 1_555 1_555
C18 N4 1_555 1_555
H37 C18 1_555 1_555
H38 C18 1_555 1_555
H39 C18 1_555 1_555
C19 N5 1_555 1_555
C20 N6 1_555 1_555
H40 C20 1_555 1_555
H41 C20 1_555 1_555
H42 C20 1_555 1_555
N3 C9 1_555 1_555
C1 C2 1_555 1_555
C5 C6 1_555 1_555
N6 C19 1_555 1_555
C11 C12 1_555 1_555
C15 C16 1_555 1_555

#END
