
#######################################################################
#
#                 Cambridge Crystallographic Data Centre
#                                CCDC 
#
#######################################################################
#
# If this CIF has been generated from an entry in the Cambridge 
# Structural Database, then it will include bibliographic, chemical, 
# crystal, experimental, refinement or atomic coordinate data resulting 
# from the CCDC's data processing and validation procedures.
#
#######################################################################

data_WETJEM
_chemical_formula_moiety         'C16 H19 N2 O5 P1'
_chemical_name_systematic        
'Diethyl (4,6-dioxo-5-phenyl-1,3a,4,5,6,6a-hexahydropyrrolo[3,4-c]pyrrol-1-yl)phosphonate'
_symmetry_cell_setting           triclinic
_symmetry_space_group_name_H-M   'P -1'
_symmetry_Int_Tables_number      2
_space_group_name_Hall           '-P 1'
loop_
_symmetry_equiv_pos_site_id
_symmetry_equiv_pos_as_xyz
1 x,y,z
2 -x,-y,-z
_cell_length_a                   6.116(6)
_cell_length_b                   11.264(7)
_cell_length_c                   13.284(8)
_cell_angle_alpha                111.01(7)
_cell_angle_beta                 92.49(7)
_cell_angle_gamma                101.66(8)
_cell_volume                     829.922
_exptl_crystal_colour            colorless
_exptl_crystal_description       prism
_cell_formula_units_Z            2
loop_
_atom_site_label
_atom_site_type_symbol
_atom_site_fract_x
_atom_site_fract_y
_atom_site_fract_z
P1 P -0.1021(3) 0.38829(16) 0.63258(13)
O1 O -0.2033(6) 0.4536(4) 0.5726(3)
O2 O 0.1266(6) 0.4657(4) 0.7066(3)
O3 O -0.2592(6) 0.3546(4) 0.7124(3)
O4 O 0.4413(6) 0.0193(4) 0.3577(3)
O5 O -0.1588(7) 0.1739(4) 0.2874(3)
N1 N 0.0526(8) 0.1700(4) 0.6003(4)
N2 N 0.1329(7) 0.0770(4) 0.2975(4)
C1 C 0.2396(10) 0.1541(5) 0.5661(5)
H1 H 0.332 0.1149 0.5949
C2 C 0.3039(8) 0.2014(5) 0.4774(4)
H2 H 0.4447 0.269 0.4987
C3 C 0.1008(8) 0.2524(5) 0.4550(4)
H3 H 0.1462 0.3444 0.4635
C4 C -0.0547(9) 0.2353(5) 0.5413(4)
H4 H -0.2002 0.1778 0.5033
C5 C 0.3076(8) 0.0875(5) 0.3736(4)
C6 C 0.0006(9) 0.1652(5) 0.3378(5)
C7 C 0.3107(11) 0.5402(7) 0.6771(5)
H5 H 0.2537 0.5855 0.6357
H6 H 0.3934 0.4816 0.6308
C8 C 0.4609(11) 0.6342(6) 0.7701(5)
H7 H 0.3796 0.692 0.8165
H8 H 0.58 0.6838 0.7466
H9 H 0.5235 0.5895 0.8094
C9 C -0.1996(12) 0.3256(7) 0.8054(5)
H10 H -0.0371 0.3486 0.823
H11 H -0.2519 0.2326 0.7888
C10 C -0.2996(16) 0.3982(9) 0.8979(6)
H12 H -0.4557 0.3893 0.876
H13 H -0.2229 0.4889 0.9245
H14 H -0.2865 0.3646 0.9543
C11 C 0.0917(9) -0.0174(6) 0.1877(4)
C12 C 0.2620(10) -0.0227(6) 0.1237(5)
H15 H 0.4038 0.0323 0.1519
C13 C 0.2222(12) -0.1097(7) 0.0178(5)
H16 H 0.3378 -0.1143 -0.0257
C14 C 0.0122(13) -0.1899(7) -0.0242(5)
H17 H -0.0139 -0.2478 -0.0963
C15 C -0.1612(11) -0.1855(6) 0.0397(5)
H18 H -0.3029 -0.2405 0.011
C16 C -0.1212(10) -0.0973(6) 0.1482(5)
H19 H -0.2353 -0.0926 0.1925
loop_
_geom_bond_atom_site_label_1
_geom_bond_atom_site_label_2
_geom_bond_site_symmetry_1
_geom_bond_site_symmetry_2
P1 O1 1_555 1_555
O2 P1 1_555 1_555
O3 P1 1_555 1_555
O4 C5 1_555 1_555
O5 C6 1_555 1_555
N1 C1 1_555 1_555
N2 C5 1_555 1_555
C1 H1 1_555 1_555
C2 C1 1_555 1_555
H2 C2 1_555 1_555
C3 C2 1_555 1_555
H3 C3 1_555 1_555
C4 P1 1_555 1_555
H4 C4 1_555 1_555
C5 C2 1_555 1_555
C6 N2 1_555 1_555
C7 O2 1_555 1_555
H5 C7 1_555 1_555
H6 C7 1_555 1_555
C8 C7 1_555 1_555
H7 C8 1_555 1_555
H8 C8 1_555 1_555
H9 C8 1_555 1_555
C9 O3 1_555 1_555
H10 C9 1_555 1_555
H11 C9 1_555 1_555
C10 C9 1_555 1_555
H12 C10 1_555 1_555
H13 C10 1_555 1_555
H14 C10 1_555 1_555
C11 N2 1_555 1_555
C12 C11 1_555 1_555
H15 C12 1_555 1_555
C13 C12 1_555 1_555
H16 C13 1_555 1_555
C14 C13 1_555 1_555
H17 C14 1_555 1_555
C15 C14 1_555 1_555
H18 C15 1_555 1_555
C16 C11 1_555 1_555
H19 C16 1_555 1_555
N1 C4 1_555 1_555
C3 C4 1_555 1_555
C3 C6 1_555 1_555
C15 C16 1_555 1_555

#END
