
#######################################################################
#
#                 Cambridge Crystallographic Data Centre
#                                CCDC 
#
#######################################################################
#
# If this CIF has been generated from an entry in the Cambridge 
# Structural Database, then it will include bibliographic, chemical, 
# crystal, experimental, refinement or atomic coordinate data resulting 
# from the CCDC's data processing and validation procedures.
#
#######################################################################

data_WETNIS
_chemical_formula_moiety         'C1 H6 N3 1+,C1 F3 O3 S1 1-'
_chemical_name_systematic        'Guanidinium trifluoromethanesulfonate'
_symmetry_cell_setting           monoclinic
_symmetry_space_group_name_H-M   'C 2/c'
_symmetry_Int_Tables_number      15
_space_group_name_Hall           '-C 2yn'
loop_
_symmetry_equiv_pos_site_id
_symmetry_equiv_pos_as_xyz
1 x,y,z
2 1/2+x,1/2+y,z
3 -x,y,1/2-z
4 1/2-x,1/2+y,1/2-z
5 -x,-y,-z
6 1/2-x,1/2-y,-z
7 x,-y,1/2+z
8 1/2+x,1/2-y,1/2+z
_cell_length_a                   12.988(7)
_cell_length_b                   7.512(2)
_cell_length_c                   18.45(1)
_cell_angle_alpha                90
_cell_angle_beta                 111.69(4)
_cell_angle_gamma                90
_cell_volume                     1672.64
_exptl_crystal_colour            colorless
_chemical_melting_point          156.5-157.5deg.C
_cell_formula_units_Z            8
loop_
_atom_site_label
_atom_site_type_symbol
_atom_site_fract_x
_atom_site_fract_y
_atom_site_fract_z
S1 S 0.10714(5) 0.14914(8) 0.12231(3)
F1 F 0.2634(2) 0.1395(3) 0.2558(1)
F2 F 0.1220(2) 0.2816(4) 0.2567(1)
F3 F 0.1195(2) -0.0037(4) 0.2524(1)
O1 O -0.0100(1) 0.1508(3) 0.1016(1)
O2 O 0.1504(2) -0.0102(3) 0.1000(1)
O3 O 0.1530(1) 0.3118(2) 0.1047(1)
C2 C 0.1558(3) 0.1414(5) 0.2283(2)
N1 N 0.3719(2) -0.0022(3) 0.0839(2)
N2 N 0.5244(2) 0.1495(4) 0.0852(2)
N3 N 0.3719(2) 0.3016(3) 0.0851(2)
C1 C 0.4236(2) 0.1500(4) 0.0857(1)
H1 H 0.312(3) 0.002(4) 0.088(2)
H2 H 0.405(3) -0.107(5) 0.086(2)
H3 H 0.557(2) 0.053(5) 0.087(2)
H4 H 0.551(3) 0.246(5) 0.086(2)
H5 H 0.406(3) 0.408(5) 0.088(3)
H6 H 0.313(3) 0.299(4) 0.094(2)
loop_
_geom_bond_atom_site_label_1
_geom_bond_atom_site_label_2
_geom_bond_site_symmetry_1
_geom_bond_site_symmetry_2
S1 O1 1_555 1_555
F1 C2 1_555 1_555
F2 C2 1_555 1_555
F3 C2 1_555 1_555
O2 S1 1_555 1_555
O3 S1 1_555 1_555
N1 C1 1_555 1_555
N2 C1 1_555 1_555
N3 C1 1_555 1_555
C2 S1 1_555 1_555
H1 N1 1_555 1_555
H2 N1 1_555 1_555
H3 N2 1_555 1_555
H4 N2 1_555 1_555
H5 N3 1_555 1_555
H6 N3 1_555 1_555

#END
