
#######################################################################
#
#                 Cambridge Crystallographic Data Centre
#                                CCDC 
#
#######################################################################
#
# If this CIF has been generated from an entry in the Cambridge 
# Structural Database, then it will include bibliographic, chemical, 
# crystal, experimental, refinement or atomic coordinate data resulting 
# from the CCDC's data processing and validation procedures.
#
#######################################################################

data_WETPAM
_chemical_formula_moiety         'C10 H15 O4 S1 1-,C1 H6 N3 1+'
_chemical_name_systematic        'Guanidinium (1S)-(+)-10-camphorsulfonate'
_symmetry_cell_setting           monoclinic
_symmetry_space_group_name_H-M   'P 21'
_symmetry_Int_Tables_number      4
_space_group_name_Hall           'P 2yb'
loop_
_symmetry_equiv_pos_site_id
_symmetry_equiv_pos_as_xyz
1 x,y,z
2 -x,1/2+y,-z
_cell_length_a                   7.604(5)
_cell_length_b                   10.466(6)
_cell_length_c                   9.296(2)
_cell_angle_alpha                90
_cell_angle_beta                 90.66(4)
_cell_angle_gamma                90
_cell_volume                     739.759
_exptl_crystal_colour            colorless
_chemical_melting_point          'above 300deg.C'
_cell_formula_units_Z            2
loop_
_atom_site_label
_atom_site_type_symbol
_atom_site_fract_x
_atom_site_fract_y
_atom_site_fract_z
N1 N 1.2541(3) 1.0289 0.6083(2)
N2 N 1.4048(3) 1.1841(2) 0.4871(3)
N3 N 1.1052(3) 1.1877(2) 0.4901(2)
C1 C 1.2545(3) 1.1335(2) 0.5294(2)
H1 H 1.1465 0.9927 0.6388
H2 H 1.3628 0.9900 0.6360
H3 H 1.5138 1.1454 0.5144
H4 H 1.4052 1.2595 0.4300
H5 H 1.1049 1.2628 0.4326
H6 H 0.9955 1.1513 0.5186
S1 S 0.75633(7) 0.9991 0.69095(5)
O1 O 0.9153(2) 0.9223(2) 0.6820(2)
O2 O 0.7580(2) 1.1059(2) 0.5915(2)
O3 O 0.5979(2) 0.9224(2) 0.6747(2)
O4 O 0.4003(2) 1.0095(4) 0.9539(2)
C2 C 0.7555(3) 1.0715(3) 0.8643(3)
C3 C 0.7166(3) 0.9874(2) 0.9924(2)
C4 C 0.5221(4) 0.9815(3) 1.0312(3)
C5 C 0.5154(4) 0.9388(4) 1.1859(3)
C6 C 0.7086(4) 0.9253(3) 1.2251(3)
C7 C 0.7767(5) 0.8059(3) 1.1499(3)
C8 C 0.7764(4) 0.8466(3) 0.9906(3)
C9 C 0.7950(3) 1.0346(3) 1.1397(3)
C10 C 0.7325(4) 1.1687(3) 1.1815(3)
C11 C 0.9952(4) 1.0332(4) 1.1455(3)
H7 H 0.6705 1.1372 0.8629
H8 H 0.8693 1.1073 0.8807
H9 H 0.4537 0.8612 1.1939
H10 H 0.4596 1.0027 1.2434
H11 H 0.7328 0.9271 1.3257
H12 H 0.7007 0.7355 1.1641
H13 H 0.8920 0.7853 1.1813
H14 H 0.8901 0.8387 0.9509
H15 H 0.6954 0.7961 0.9360
H16 H 0.7789 1.2295 1.1145
H17 H 0.7748 1.1893 1.2751
H18 H 0.6086 1.1724 1.1786
H19 H 1.0370 0.9516 1.1200
H20 H 1.0342 1.0545 1.2400
H21 H 1.0389 1.0954 1.0797
loop_
_geom_bond_atom_site_label_1
_geom_bond_atom_site_label_2
_geom_bond_site_symmetry_1
_geom_bond_site_symmetry_2
N1 C1 1_555 1_555
N2 C1 1_555 1_555
N3 C1 1_555 1_555
H1 N1 1_555 1_555
H2 N1 1_555 1_555
H3 N2 1_555 1_555
H4 N2 1_555 1_555
H5 N3 1_555 1_555
H6 N3 1_555 1_555
S1 O1 1_555 1_555
O2 S1 1_555 1_555
O3 S1 1_555 1_555
O4 C4 1_555 1_555
C2 S1 1_555 1_555
C3 C2 1_555 1_555
C4 C3 1_555 1_555
C5 C4 1_555 1_555
C6 C5 1_555 1_555
C7 C6 1_555 1_555
C8 C3 1_555 1_555
C9 C3 1_555 1_555
C10 C9 1_555 1_555
C11 C9 1_555 1_555
H7 C2 1_555 1_555
H8 C2 1_555 1_555
H9 C5 1_555 1_555
H10 C5 1_555 1_555
H11 C6 1_555 1_555
H12 C7 1_555 1_555
H13 C7 1_555 1_555
H14 C8 1_555 1_555
H15 C8 1_555 1_555
H16 C10 1_555 1_555
H17 C10 1_555 1_555
H18 C10 1_555 1_555
H19 C11 1_555 1_555
H20 C11 1_555 1_555
H21 C11 1_555 1_555
C6 C9 1_555 1_555
C7 C8 1_555 1_555

#END
