
#######################################################################
#
#                 Cambridge Crystallographic Data Centre
#                                CCDC 
#
#######################################################################
#
# If this CIF has been generated from an entry in the Cambridge 
# Structural Database, then it will include bibliographic, chemical, 
# crystal, experimental, refinement or atomic coordinate data resulting 
# from the CCDC's data processing and validation procedures.
#
#######################################################################

data_WEVHEN
_chemical_formula_moiety         'C7 H15 B11 N2,C4 H8 O1'
_chemical_name_systematic        
'1-(pyridin-1-ium-4-yl)-12-cyano-1-carba-closo-dodecaborate(10) tetrahydrofuran solvate'
_symmetry_cell_setting           monoclinic
_symmetry_space_group_name_H-M   'P 21/c'
_symmetry_Int_Tables_number      14
_space_group_name_Hall           '-P 2ybc'
loop_
_symmetry_equiv_pos_site_id
_symmetry_equiv_pos_as_xyz
1 x,y,z
2 -x,1/2+y,1/2-z
3 -x,-y,-z
4 x,1/2-y,1/2+z
_cell_length_a                   7.4039(6)
_cell_length_b                   14.0616(14)
_cell_length_c                   18.0481(15)
_cell_angle_alpha                90
_cell_angle_beta                 92.372(7)
_cell_angle_gamma                90
_cell_volume                     1877.39
_exptl_crystal_colour            'light yellow'
_exptl_crystal_description       needle
_cell_formula_units_Z            4
loop_
_atom_site_label
_atom_site_type_symbol
_atom_site_fract_x
_atom_site_fract_y
_atom_site_fract_z
N1 N 0.7022(4) 0.1506(2) -0.27928(18)
N2 N 0.0811(4) 0.43316(18) 0.15959(14)
H1 H 0.030(4) 0.462(2) 0.2020(14)
C1 C 0.6344(4) 0.1836(3) -0.23027(19)
C2 C 0.3383(4) 0.3129(2) -0.02334(16)
C3 C 0.2458(4) 0.3535(2) 0.04215(16)
C4 C 0.0629(4) 0.3743(2) 0.03862(17)
H2 H -0.0062 0.3615 -0.0044
C5 C -0.0159(4) 0.4137(2) 0.09834(19)
H3 H -0.1391 0.4269 0.0959
C6 C 0.2560(4) 0.4131(2) 0.16508(17)
H4 H 0.3220 0.4266 0.2088
C7 C 0.3394(4) 0.3729(2) 0.10731(17)
H5 H 0.4619 0.3584 0.1121
B1 B 0.5378(5) 0.2262(3) -0.1628(2)
B2 B 0.4289(5) 0.3373(3) -0.1687(2)
H6 H 0.4254 0.3803 -0.2196
B3 B 0.6288(5) 0.3248(3) -0.1132(2)
H7 H 0.7552 0.3599 -0.1279
B4 B 0.6271(5) 0.2106(3) -0.0716(2)
H8 H 0.7530 0.1711 -0.0593
B5 B 0.4216(6) 0.1520(3) -0.1013(2)
H9 H 0.4129 0.0744 -0.1080
B6 B 0.3007(5) 0.2324(3) -0.1613(2)
H10 H 0.2130 0.2068 -0.2078
B7 B 0.2458(5) 0.3316(3) -0.1101(2)
H11 H 0.1206 0.3718 -0.1220
B8 B 0.4467(5) 0.3891(3) -0.0800(2)
H12 H 0.4525 0.4665 -0.0718
B9 B 0.5688(5) 0.3105(3) -0.0213(2)
H13 H 0.6557 0.3367 0.0252
B10 B 0.4422(5) 0.2048(3) -0.0134(2)
H14 H 0.4460 0.1620 0.0377
B11 B 0.2401(5) 0.2197(3) -0.0693(2)
H15 H 0.1116 0.1869 -0.0545
O1 O 0.0124(4) 0.52738(18) 0.28235(14)
C8 C 0.116(2) 0.6105(10) 0.2966(6)
H16 H 0.1049 0.6547 0.2555
H17 H 0.2423 0.5954 0.3064
C9 C 0.031(2) 0.6508(6) 0.3655(5)
H18 H -0.0869 0.6789 0.3543
H19 H 0.1085 0.6967 0.3911
C10 C 0.017(2) 0.5568(6) 0.4090(5)
H20 H 0.1338 0.5283 0.4212
H21 H -0.0530 0.5626 0.4530
C11 C -0.084(3) 0.5072(10) 0.3457(8)
H22 H -0.0888 0.4391 0.3543
H23 H -0.2071 0.5311 0.3401
C12? C 0.065(3) 0.6243(18) 0.2912(9)
H24? H -0.0350 0.6670 0.2798
H25? H 0.1649 0.6400 0.2603
C13? C 0.122(2) 0.6274(17) 0.3735(9)
H26? H 0.1424 0.6912 0.3925
H27? H 0.2232 0.5861 0.3868
C14? C -0.065(3) 0.5853(14) 0.3919(13)
H28? H -0.0745 0.5752 0.4448
H29? H -0.1634 0.6253 0.3736
C15? C -0.058(4) 0.4913(15) 0.3495(13)
H30? H 0.0235 0.4458 0.3738
H31? H -0.1765 0.4631 0.3415
loop_
_geom_bond_atom_site_label_1
_geom_bond_atom_site_label_2
_geom_bond_site_symmetry_1
_geom_bond_site_symmetry_2
N1 C1 1_555 1_555
N2 H1 1_555 1_555
C1 B1 1_555 1_555
C2 C3 1_555 1_555
C3 C4 1_555 1_555
C4 H2 1_555 1_555
C5 N2 1_555 1_555
H3 C5 1_555 1_555
C6 N2 1_555 1_555
H4 C6 1_555 1_555
C7 C3 1_555 1_555
H5 C7 1_555 1_555
B1 B2 1_555 1_555
B2 H6 1_555 1_555
B3 B1 1_555 1_555
H7 B3 1_555 1_555
B4 B1 1_555 1_555
H8 B4 1_555 1_555
B5 B1 1_555 1_555
H9 B5 1_555 1_555
B6 B1 1_555 1_555
H10 B6 1_555 1_555
B7 C2 1_555 1_555
H11 B7 1_555 1_555
B8 C2 1_555 1_555
H12 B8 1_555 1_555
B9 C2 1_555 1_555
H13 B9 1_555 1_555
B10 C2 1_555 1_555
H14 B10 1_555 1_555
B11 C2 1_555 1_555
H15 B11 1_555 1_555
O1 C8 1_555 1_555
C8 H16 1_555 1_555
H17 C8 1_555 1_555
C9 C8 1_555 1_555
H18 C9 1_555 1_555
H19 C9 1_555 1_555
C10 C9 1_555 1_555
H20 C10 1_555 1_555
H21 C10 1_555 1_555
C11 O1 1_555 1_555
H22 C11 1_555 1_555
H23 C11 1_555 1_555
C4 C5 1_555 1_555
C6 C7 1_555 1_555
B2 B3 1_555 1_555
B2 B6 1_555 1_555
B2 B7 1_555 1_555
B2 B8 1_555 1_555
B3 B4 1_555 1_555
B3 B8 1_555 1_555
B3 B9 1_555 1_555
B4 B5 1_555 1_555
B4 B9 1_555 1_555
B4 B10 1_555 1_555
B5 B6 1_555 1_555
B5 B10 1_555 1_555
B5 B11 1_555 1_555
B6 B7 1_555 1_555
B6 B11 1_555 1_555
B7 B8 1_555 1_555
B7 B11 1_555 1_555
B8 B9 1_555 1_555
B9 B10 1_555 1_555
B10 B11 1_555 1_555
C10 C11 1_555 1_555

#END
