
#######################################################################
#
#                 Cambridge Crystallographic Data Centre
#                                CCDC 
#
#######################################################################
#
# If this CIF has been generated from an entry in the Cambridge 
# Structural Database, then it will include bibliographic, chemical, 
# crystal, experimental, refinement or atomic coordinate data resulting 
# from the CCDC's data processing and validation procedures.
#
#######################################################################

data_WEVTOG
_chemical_formula_moiety         'C32 H40 N2 O4 Si1'
_chemical_name_systematic        
7-t-Butyldiphenylsiloxymethyl-9-prop-2-enyl-10-oxa-3,12-diazatetracyclo(7.5.1.0^1,6^.0^12,15^)pentadecane-2,11-dione
_symmetry_cell_setting           triclinic
_symmetry_space_group_name_H-M   'P -1'
_symmetry_Int_Tables_number      2
_space_group_name_Hall           '-P 1'
loop_
_symmetry_equiv_pos_site_id
_symmetry_equiv_pos_as_xyz
1 x,y,z
2 -x,-y,-z
_cell_length_a                   10.34(1)
_cell_length_b                   11.88(1)
_cell_length_c                   14.400(6)
_cell_angle_alpha                109.35(6)
_cell_angle_beta                 96.51(6)
_cell_angle_gamma                109.66(9)
_cell_volume                     1520.51
_cell_formula_units_Z            2
loop_
_atom_site_label
_atom_site_type_symbol
_atom_site_fract_x
_atom_site_fract_y
_atom_site_fract_z
Si1 Si 0.6515(2) -0.0853(2) 0.2304(1)
C1 C 0.8131(7) 0.1702(7) 0.2717(6)
C2 C 0.8790(7) 0.2414(6) 0.2071(5)
C3 C 1.0140(8) 0.2221(7) 0.1867(5)
C4 C 1.1498(7) 0.3197(7) 0.2624(5)
C5 C 1.1689(7) 0.4586(7) 0.2810(5)
C6 C 1.0363(7) 0.4823(6) 0.2477(5)
C7 C 1.0219(8) 0.4789(6) 0.1386(5)
C8 C 0.7568(8) 0.3860(7) 0.1037(6)
C9 C 0.7730(8) 0.4069(7) 0.2163(5)
C10 C 0.9019(7) 0.3856(6) 0.2569(5)
C11 C 1.0767(8) 0.6235(7) 0.3242(6)
C12 C 1.1665(9) 0.6369(8) 0.4237(6)
C13 C 1.1666(7) 0.4352(8) 0.4323(6)
C14 C 1.2777(9) 0.2890(9) 0.2391(7)
C15 C 1.415(1) 0.379(1) 0.3131(8)
C16 C 1.491(2) 0.332(2) 0.353(1)
C17 C 0.6749(7) -0.2356(6) 0.1535(5)
C18 C 0.671(1) -0.2433(9) 0.0425(7)
C19 C 0.821(1) -0.2283(9) 0.1981(9)
C20 C 0.557(1) -0.3593(8) 0.1483(9)
C21 C 0.4749(7) -0.0872(6) 0.1791(5)
C22 C 0.3461(8) -0.1680(8) 0.1848(6)
C23 C 0.2170(8) -0.1655(8) 0.1464(6)
C24 C 0.217(1) -0.0829(9) 0.0986(6)
C25 C 0.342(1) -0.0052(9) 0.0884(7)
C26 C 0.4684(8) -0.0086(7) 0.1260(6)
C27 C 0.6758(9) -0.0648(8) 0.3672(6)
C28 C 0.806(1) 0.0083(9) 0.4329(8)
C29 C 0.827(2) 0.020(1) 0.538(1)
C30 C 0.726(2) -0.051(2) 0.565(1)
C31 C 0.596(2) -0.105(3) 0.509(2)
C32 C 0.574(1) -0.130(2) 0.403(1)
N1 N 0.8908(6) 0.4445(6) 0.0831(5)
N2 N 1.2060(6) 0.5241(6) 0.3921(4)
O1 O 0.7772(5) 0.0343(4) 0.2202(4)
O2 O 1.1285(5) 0.5208(5) 0.1100(4)
O3 O 1.1403(5) 0.3130(5) 0.3632(4)
O4 O 1.1582(6) 0.4523(6) 0.5199(4)
H1 H 0.958(9) 0.523(6) 0.070(7)
H2 H 0.802(8) 0.191(8) 0.137(5)
H3 H 1.254(7) 0.515(8) 0.259(7)
H4 H 0.91(1) 0.414(9) 0.333(4)
H5 H 0.903(7) 0.203(9) 0.332(5)
H6 H 0.717(6) 0.177(9) 0.273(7)
H7 H 1.495(9) 0.479(6) 0.320(8)
H8 H 0.34(1) -0.251(7) 0.205(7)
H9 H 0.122(7) -0.240(7) 0.150(7)
H10 H 0.133(7) -0.063(9) 0.074(7)
H11 H 0.35(1) 0.069(7) 0.059(7)
H12 H 0.576(6) 0.060(7) 0.144(7)
H13 H 1.00(1) 0.127(6) 0.186(7)
H14 H 0.886(8) 0.074(8) 0.411(7)
H15 H 0.932(6) 0.093(8) 0.571(7)
H16 H 0.76(1) -0.015(9) 0.647(4)
H17 H 0.63(1) -0.188(9) 0.47(1)
H18 H 0.502(9) -0.086(9) 0.391(8)
H19 H 0.695(8) 0.437(8) 0.083(7)
H20 H 0.716(9) 0.282(4) 0.063(6)
H21 H 0.79(1) 0.509(5) 0.249(6)
H22 H 0.681(7) 0.328(7) 0.213(7)
H23 H 1.147(8) 0.685(8) 0.299(7)
H24 H 0.989(7) 0.646(9) 0.332(7)
H25 H 1.255(7) 0.732(6) 0.448(7)
H26 H 1.105(9) 0.628(9) 0.479(6)
H27 H 1.26(1) 0.193(6) 0.240(7)
H28 H 1.29(1) 0.296(9) 0.167(5)
H29 H 1.588(7) 0.398(8) 0.412(6)
H30 H 1.414(9) 0.35(1) 0.396(7)
H31 H 0.575(7) -0.249(9) 0.000(7)
H32 H 0.762(7) -0.162(7) 0.058(7)
H33 H 0.68(1) -0.339(6) 0.011(7)
H34 H 0.902(8) -0.134(6) 0.209(7)
H35 H 0.80(1) -0.25(1) 0.264(5)
H36 H 0.83(1) -0.314(6) 0.156(6)
H37 H 0.57(1) -0.351(9) 0.224(4)
H38 H 0.471(7) -0.330(9) 0.146(7)
H39 H 0.58(1) -0.434(7) 0.110(6)
loop_
_geom_bond_atom_site_label_1
_geom_bond_atom_site_label_2
_geom_bond_site_symmetry_1
_geom_bond_site_symmetry_2
Si1 C17 1_555 1_555
C1 C2 1_555 1_555
C2 C3 1_555 1_555
C3 C4 1_555 1_555
C4 C5 1_555 1_555
C5 C6 1_555 1_555
C6 C7 1_555 1_555
C7 N1 1_555 1_555
C8 C9 1_555 1_555
C9 C10 1_555 1_555
C10 C2 1_555 1_555
C11 C6 1_555 1_555
C12 C11 1_555 1_555
C13 N2 1_555 1_555
C14 C4 1_555 1_555
C15 C14 1_555 1_555
C16 C15 1_555 1_555
C17 C18 1_555 1_555
C18 H31 1_555 1_555
C19 C17 1_555 1_555
C20 C17 1_555 1_555
C21 Si1 1_555 1_555
C22 C21 1_555 1_555
C23 C22 1_555 1_555
C24 C23 1_555 1_555
C25 C24 1_555 1_555
C26 C21 1_555 1_555
C27 Si1 1_555 1_555
C28 C27 1_555 1_555
C29 C28 1_555 1_555
C30 C29 1_555 1_555
C31 C30 1_555 1_555
C32 C27 1_555 1_555
N1 C8 1_555 1_555
N2 C5 1_555 1_555
O1 Si1 1_555 1_555
O2 C7 1_555 1_555
O3 C4 1_555 1_555
O4 C13 1_555 1_555
H1 N1 1_555 1_555
H2 C2 1_555 1_555
H3 C5 1_555 1_555
H4 C10 1_555 1_555
H5 C1 1_555 1_555
H6 C1 1_555 1_555
H7 C15 1_555 1_555
H8 C22 1_555 1_555
H9 C23 1_555 1_555
H10 C24 1_555 1_555
H11 C25 1_555 1_555
H12 C26 1_555 1_555
H13 C3 1_555 1_555
H14 C28 1_555 1_555
H15 C29 1_555 1_555
H16 C30 1_555 1_555
H17 C31 1_555 1_555
H18 C32 1_555 1_555
H19 C8 1_555 1_555
H20 C8 1_555 1_555
H21 C9 1_555 1_555
H22 C9 1_555 1_555
H23 C11 1_555 1_555
H24 C11 1_555 1_555
H25 C12 1_555 1_555
H26 C12 1_555 1_555
H27 C14 1_555 1_555
H28 C14 1_555 1_555
H29 C16 1_555 1_555
H30 C16 1_555 1_555
H32 C18 1_555 1_555
H33 C18 1_555 1_555
H34 C19 1_555 1_555
H35 C19 1_555 1_555
H36 C19 1_555 1_555
H37 C20 1_555 1_555
H38 C20 1_555 1_555
H39 C20 1_555 1_555
C1 O1 1_555 1_555
C6 C10 1_555 1_555
C12 N2 1_555 1_555
C13 O3 1_555 1_555
C25 C26 1_555 1_555
C31 C32 1_555 1_555

#END
