
#######################################################################
#
#                 Cambridge Crystallographic Data Centre
#                                CCDC 
#
#######################################################################
#
# If this CIF has been generated from an entry in the Cambridge 
# Structural Database, then it will include bibliographic, chemical, 
# crystal, experimental, refinement or atomic coordinate data resulting 
# from the CCDC's data processing and validation procedures.
#
#######################################################################

data_WEVTUN
_chemical_formula_moiety         'C12 H12 Cl1 N3 O2'
_chemical_name_systematic        
'ethyl 5-amino-1-(4-chlorophenyl)-1H-imidazole-4-carboxylate'
_symmetry_cell_setting           monoclinic
_symmetry_space_group_name_H-M   'P 21/c'
_symmetry_Int_Tables_number      14
_space_group_name_Hall           '-P 2ybc'
loop_
_symmetry_equiv_pos_site_id
_symmetry_equiv_pos_as_xyz
1 x,y,z
2 -x,1/2+y,1/2-z
3 -x,-y,-z
4 x,1/2-y,1/2+z
_cell_length_a                   13.1153(6)
_cell_length_b                   8.7114(4)
_cell_length_c                   11.5273(4)
_cell_angle_alpha                90
_cell_angle_beta                 107.064(3)
_cell_angle_gamma                90
_cell_volume                     1259.05
_exptl_crystal_colour            colorless
_exptl_crystal_description       plate
_chemical_melting_point          '522-524 K'
_cell_formula_units_Z            4
_exptl_crystal_recrystallization_method ethanol
loop_
_atom_site_label
_atom_site_type_symbol
_atom_site_fract_x
_atom_site_fract_y
_atom_site_fract_z
N1 N 0.51730(11) 0.26567(17) 0.56323(13)
C1 C 0.60284(14) 0.3043(2) 0.66890(17)
C2 C 0.67642(16) 0.1913(2) 0.72186(19)
C3 C 0.76126(17) 0.2258(3) 0.8226(2)
C4 C 0.77080(16) 0.3738(3) 0.86903(19)
Cl1 Cl 0.87511(5) 0.41628(9) 0.99806(6)
C5 C 0.69846(17) 0.4870(2) 0.81636(19)
C6 C 0.61350(16) 0.4524(2) 0.71555(18)
C7 C 0.52840(16) 0.1845(2) 0.46505(17)
N2 N 0.43834(12) 0.15927(18) 0.38327(14)
C8 C 0.36118(14) 0.2260(2) 0.42881(15)
C9 C 0.24951(14) 0.2237(2) 0.36037(17)
O1 O 0.21065(10) 0.16072(16) 0.26323(11)
O2 O 0.19094(10) 0.3029(2) 0.41924(15)
C10 C 0.07542(13) 0.2967(5) 0.3757(4)
C11 C 0.0490(3) 0.4458(5) 0.3047(4)
C14 C 0.40971(14) 0.2940(2) 0.54048(16)
N3 N 0.37065(13) 0.3775(2) 0.61699(15)
H1 H 0.6686 0.0904 0.6891
H2 H 0.8121 0.1494 0.8593
H3 H 0.7068 0.5880 0.8489
H4 H 0.5630 0.5293 0.6787
H5 H 0.5952 0.1505 0.4580
H6 H 0.0438 0.2940 0.4438
H7 H 0.0505 0.2065 0.3228
H8 H 0.0850 0.5313 0.3556
H9 H -0.0283 0.4626 0.2806
H10 H 0.0732 0.4396 0.2321
H16 H 0.2991 0.3779 0.5996
H17 H 0.4060 0.3745 0.6967
C12? C 0.0844(2) 0.3388(6) 0.3420(4)
C13? C 0.0428(3) 0.4788(5) 0.3924(5)
H11? H 0.0364 0.2504 0.3393
H12? H 0.0866 0.3599 0.2583
H13? H 0.0471 0.4608 0.4776
H14? H -0.0316 0.4975 0.3455
H15? H 0.0861 0.5686 0.3865
loop_
_geom_bond_atom_site_label_1
_geom_bond_atom_site_label_2
_geom_bond_site_symmetry_1
_geom_bond_site_symmetry_2
N1 C1 1_555 1_555
C1 C2 1_555 1_555
C2 C3 1_555 1_555
C3 C4 1_555 1_555
C4 Cl1 1_555 1_555
C5 C4 1_555 1_555
C6 C1 1_555 1_555
C7 N1 1_555 1_555
N2 C7 1_555 1_555
C8 N2 1_555 1_555
C9 C8 1_555 1_555
O1 C9 1_555 1_555
O2 C9 1_555 1_555
C10 O2 1_555 1_555
C11 C10 1_555 1_555
C14 N1 1_555 1_555
N3 C14 1_555 1_555
H1 C2 1_555 1_555
H2 C3 1_555 1_555
H3 C5 1_555 1_555
H4 C6 1_555 1_555
H5 C7 1_555 1_555
H6 C10 1_555 1_555
H7 C10 1_555 1_555
H8 C11 1_555 1_555
H9 C11 1_555 1_555
H10 C11 1_555 1_555
H16 N3 1_555 1_555
H17 N3 1_555 1_555
C5 C6 1_555 1_555
C8 C14 1_555 1_555

#END
