
#######################################################################
#
#                 Cambridge Crystallographic Data Centre
#                                CCDC 
#
#######################################################################
#
# If this CIF has been generated from an entry in the Cambridge 
# Structural Database, then it will include bibliographic, chemical, 
# crystal, experimental, refinement or atomic coordinate data resulting 
# from the CCDC's data processing and validation procedures.
#
#######################################################################

data_WEVVAX
_chemical_name_common            
N-(8-quinolyl)-N-(2-tetrahydrofuranyl)propionamide
_chemical_formula_moiety         'C16 H18 N2 O2'
_chemical_name_systematic        N-(oxolan-2-yl)-N-(quinolin-8-yl)propanamide
_symmetry_cell_setting           monoclinic
_symmetry_space_group_name_H-M   'P 21/n'
_symmetry_Int_Tables_number      14
_space_group_name_Hall           '-P 2yn'
loop_
_symmetry_equiv_pos_site_id
_symmetry_equiv_pos_as_xyz
1 x,y,z
2 1/2-x,1/2+y,1/2-z
3 -x,-y,-z
4 1/2+x,1/2-y,1/2+z
_cell_length_a                   9.5527(3)
_cell_length_b                   12.3620(5)
_cell_length_c                   12.0679(5)
_cell_angle_alpha                90
_cell_angle_beta                 92.577(3)
_cell_angle_gamma                90
_cell_volume                     1423.66
_exptl_crystal_colour            colorless
_exptl_crystal_description       prism
_cell_formula_units_Z            4
loop_
_atom_site_label
_atom_site_type_symbol
_atom_site_fract_x
_atom_site_fract_y
_atom_site_fract_z
C1 C 0.9006(3) 0.3790(2) 0.34447(19)
H1 H 0.8558 0.4004 0.2780
C2 C 1.0442(3) 0.4014(2) 0.3593(2)
H2 H 1.0922 0.4358 0.3039
C3 C 1.1111(2) 0.37227(19) 0.4553(2)
H3 H 1.2065 0.3856 0.4667
C4 C 1.03570(18) 0.32133(15) 0.53852(17)
C5 C 0.89202(17) 0.30025(14) 0.51521(14)
C6 C 0.81483(17) 0.24573(15) 0.59585(15)
C7 C 0.8783(2) 0.21906(16) 0.69560(16)
H4 H 0.8266 0.1845 0.7487
C8 C 1.0204(2) 0.24286(18) 0.71963(18)
H5 H 1.0614 0.2252 0.7886
C9 C 1.0973(2) 0.29136(18) 0.64263(19)
H6 H 1.1918 0.3052 0.6583
C10 C 0.6425(2) 0.10682(19) 0.5272(2)
H7 H 0.5445 0.1017 0.4999
C11 C 0.7405(11) 0.0752(10) 0.4351(10)
H8 H 0.6974 0.0905 0.3625
H9 H 0.8285 0.1142 0.4431
C12 C 0.7635(5) -0.0446(4) 0.4504(4)
H10 H 0.8530 -0.0685 0.4243
H11 H 0.6882 -0.0875 0.4164
C13 C 0.761(3) -0.0427(16) 0.5764(14)
H12 H 0.7341 -0.1139 0.6020
H13 H 0.8544 -0.0278 0.6067
C14 C 0.56541(19) 0.28748(19) 0.5790(2)
C15 C 0.6003(2) 0.3969(2) 0.6269(2)
H14 H 0.6721 0.3888 0.6858
H15 H 0.6382 0.4420 0.5697
C16 C 0.4766(3) 0.4520(3) 0.6721(3)
H16 H 0.4063 0.4624 0.6137
H17 H 0.5046 0.5209 0.7022
H18 H 0.4392 0.4082 0.7294
N1 N 0.82474(17) 0.33020(16) 0.41739(14)
N2 N 0.67200(15) 0.21603(14) 0.57067(14)
O1 O 0.668(3) 0.0342(16) 0.6184(12)
O2 O 0.4404(10) 0.2581(10) 0.5630(12)
H19? H 0.5404 0.1012 0.5171
C17? C 0.7011(15) 0.0706(14) 0.4216(12)
H20? H 0.7318 0.1310 0.3776
H21? H 0.6348 0.0270 0.3778
C18? C 0.8230(7) 0.0041(5) 0.4677(5)
H22? H 0.8984 0.0509 0.4953
H23? H 0.8585 -0.0425 0.4107
C19? C 0.767(3) -0.062(2) 0.5610(18)
H24? H 0.7114 -0.1236 0.5348
H25? H 0.8401 -0.0860 0.6141
O3? O 0.685(4) 0.023(2) 0.6014(16)
O4? O 0.4555(17) 0.2766(16) 0.5252(16)
loop_
_geom_bond_atom_site_label_1
_geom_bond_atom_site_label_2
_geom_bond_site_symmetry_1
_geom_bond_site_symmetry_2
C1 H1 1_555 1_555
C2 C1 1_555 1_555
H2 C2 1_555 1_555
C3 C2 1_555 1_555
H3 C3 1_555 1_555
C4 C3 1_555 1_555
C5 C4 1_555 1_555
C6 C5 1_555 1_555
C7 C6 1_555 1_555
H4 C7 1_555 1_555
C8 C7 1_555 1_555
H5 C8 1_555 1_555
C9 C4 1_555 1_555
H6 C9 1_555 1_555
C10 H7 1_555 1_555
C11 C10 1_555 1_555
H8 C11 1_555 1_555
H9 C11 1_555 1_555
C12 C11 1_555 1_555
H10 C12 1_555 1_555
H11 C12 1_555 1_555
C13 C12 1_555 1_555
H12 C13 1_555 1_555
H13 C13 1_555 1_555
C14 C15 1_555 1_555
C15 H14 1_555 1_555
H15 C15 1_555 1_555
C16 C15 1_555 1_555
H16 C16 1_555 1_555
H17 C16 1_555 1_555
H18 C16 1_555 1_555
N1 C1 1_555 1_555
N2 C6 1_555 1_555
O1 C10 1_555 1_555
O2 C14 1_555 1_555
C5 N1 1_555 1_555
C8 C9 1_555 1_555
C10 N2 1_555 1_555
C13 O1 1_555 1_555
C14 N2 1_555 1_555

#END
