
#######################################################################
#
#                 Cambridge Crystallographic Data Centre
#                                CCDC 
#
#######################################################################
#
# If this CIF has been generated from an entry in the Cambridge 
# Structural Database, then it will include bibliographic, chemical, 
# crystal, experimental, refinement or atomic coordinate data resulting 
# from the CCDC's data processing and validation procedures.
#
#######################################################################

data_WEWBUY
_chemical_formula_moiety         'C30 H24 N2 O2 S2'
_chemical_name_systematic        
3,3'-bis(4-methoxyphenyl)-2H,2'H-2,2'-bi-1,4-benzothiazine
_symmetry_cell_setting           monoclinic
_symmetry_space_group_name_H-M   'P 21/n'
_symmetry_Int_Tables_number      14
_space_group_name_Hall           '-P 2yn'
loop_
_symmetry_equiv_pos_site_id
_symmetry_equiv_pos_as_xyz
1 x,y,z
2 1/2-x,1/2+y,1/2-z
3 -x,-y,-z
4 1/2+x,1/2-y,1/2+z
_cell_length_a                   9.4391(8)
_cell_length_b                   12.2770(11)
_cell_length_c                   10.5937(9)
_cell_angle_alpha                90
_cell_angle_beta                 101.843(2)
_cell_angle_gamma                90
_cell_volume                     1201.51
_exptl_crystal_colour            yellow
_exptl_crystal_description       block
_cell_formula_units_Z            2
loop_
_atom_site_label
_atom_site_type_symbol
_atom_site_fract_x
_atom_site_fract_y
_atom_site_fract_z
N1 N 1.05116(18) 0.91254(14) 0.27453(17)
O1 O 0.53177(18) 1.17666(13) -0.05824(16)
S1 S 1.22172(6) 1.05605(4) 0.48975(6)
C1 C 1.0266(2) 1.03760(16) 0.45127(19)
H1 H 0.9812 1.1091 0.4541
C2 C 0.9860(2) 0.99494(17) 0.31293(19)
C3 C 1.1757(2) 0.86632(17) 0.3517(2)
C4 C 1.2698(2) 0.92408(17) 0.4485(2)
C5 C 1.4008(2) 0.8766(2) 0.5094(2)
H2 H 1.4636 0.9150 0.5732
C6 C 1.4379(2) 0.7736(2) 0.4757(2)
H3 H 1.5257 0.7430 0.5160
C7 C 1.3439(3) 0.71571(19) 0.3815(2)
H4 H 1.3681 0.6457 0.3597
C8 C 1.2151(2) 0.76158(18) 0.3204(2)
H5 H 1.1531 0.7222 0.2572
C9 C 0.8694(2) 1.04654(16) 0.21733(19)
C10 C 0.8392(3) 1.0064(2) 0.0914(2)
H6 H 0.8951 0.9495 0.0701
C11 C 0.7294(3) 1.0481(2) -0.0025(2)
H7 H 0.7122 1.0195 -0.0855
C12 C 0.6453(2) 1.13211(18) 0.0272(2)
C13 C 0.6754(2) 1.17642(18) 0.1504(2)
H8 H 0.6213 1.2350 0.1701
C14 C 0.7857(2) 1.13376(17) 0.2439(2)
H9 H 0.8043 1.1640 0.3261
C15 C 0.4836(3) 1.1200(2) -0.1775(2)
H10 H 0.5573 1.1234 -0.2278
H11 H 0.3966 1.1532 -0.2245
H12 H 0.4647 1.0452 -0.1602
N1B N 0.94884(18) 1.08746(14) 0.72547(17)
O1B O 1.46823(18) 0.82334(13) 1.05824(16)
S1B S 0.77828(6) 0.94395(4) 0.51025(6)
C1B C 0.9734(2) 0.96240(16) 0.54873(19)
H1B H 1.0188 0.8909 0.5459
C2B C 1.0140(2) 1.00506(17) 0.68707(19)
C3B C 0.8243(2) 1.13368(17) 0.6483(2)
C4B C 0.7302(2) 1.07592(17) 0.5515(2)
C5B C 0.5992(2) 1.1234(2) 0.4906(2)
H2B H 0.5364 1.0850 0.4268
C6B C 0.5621(2) 1.2264(2) 0.5243(2)
H3B H 0.4743 1.2570 0.4840
C7B C 0.6561(3) 1.28429(19) 0.6185(2)
H4B H 0.6319 1.3543 0.6403
C8B C 0.7849(2) 1.23842(18) 0.6796(2)
H5B H 0.8469 1.2778 0.7428
C9B C 1.1306(2) 0.95346(16) 0.78267(19)
C10B C 1.1608(3) 0.9936(2) 0.9086(2)
H6B H 1.1049 1.0505 0.9299
C11B C 1.2706(3) 0.9519(2) 1.0025(2)
H7B H 1.2878 0.9805 1.0855
C12B C 1.3547(2) 0.86789(18) 0.9728(2)
C13B C 1.3246(2) 0.82358(18) 0.8496(2)
H8B H 1.3787 0.7650 0.8299
C14B C 1.2143(2) 0.86624(17) 0.7561(2)
H9B H 1.1957 0.8360 0.6739
C15B C 1.5164(3) 0.8800(2) 1.1775(2)
H10B H 1.4427 0.8766 1.2278
H11B H 1.6034 0.8468 1.2245
H12B H 1.5353 0.9548 1.1602
loop_
_geom_bond_atom_site_label_1
_geom_bond_atom_site_label_2
_geom_bond_site_symmetry_1
_geom_bond_site_symmetry_2
N1 C2 1_555 1_555
O1 C12 1_555 1_555
S1 C1 1_555 1_555
C1 H1 1_555 1_555
C2 C1 1_555 1_555
C3 N1 1_555 1_555
C4 S1 1_555 1_555
C5 C4 1_555 1_555
H2 C5 1_555 1_555
C6 C5 1_555 1_555
H3 C6 1_555 1_555
C7 C6 1_555 1_555
H4 C7 1_555 1_555
C8 C3 1_555 1_555
H5 C8 1_555 1_555
C9 C2 1_555 1_555
C10 C9 1_555 1_555
H6 C10 1_555 1_555
C11 C10 1_555 1_555
H7 C11 1_555 1_555
C12 C11 1_555 1_555
C13 C12 1_555 1_555
H8 C13 1_555 1_555
C14 C9 1_555 1_555
H9 C14 1_555 1_555
C15 O1 1_555 1_555
H10 C15 1_555 1_555
H11 C15 1_555 1_555
H12 C15 1_555 1_555
N1B C2B 1_555 1_555
O1B C12B 1_555 1_555
S1B C1B 1_555 1_555
C1B C1 1_555 1_555
H1B C1B 1_555 1_555
C2B C1B 1_555 1_555
C3B N1B 1_555 1_555
C4B S1B 1_555 1_555
C5B C4B 1_555 1_555
H2B C5B 1_555 1_555
C6B C5B 1_555 1_555
H3B C6B 1_555 1_555
C7B C6B 1_555 1_555
H4B C7B 1_555 1_555
C8B C3B 1_555 1_555
H5B C8B 1_555 1_555
C9B C2B 1_555 1_555
C10B C9B 1_555 1_555
H6B C10B 1_555 1_555
C11B C10B 1_555 1_555
H7B C11B 1_555 1_555
C12B C11B 1_555 1_555
C13B C12B 1_555 1_555
H8B C13B 1_555 1_555
C14B C9B 1_555 1_555
H9B C14B 1_555 1_555
C15B O1B 1_555 1_555
H10B C15B 1_555 1_555
H11B C15B 1_555 1_555
H12B C15B 1_555 1_555
C3 C4 1_555 1_555
C7 C8 1_555 1_555
C13 C14 1_555 1_555
C3B C4B 1_555 1_555
C7B C8B 1_555 1_555
C13B C14B 1_555 1_555

#END
