
#######################################################################
#
#                 Cambridge Crystallographic Data Centre
#                                CCDC 
#
#######################################################################
#
# If this CIF has been generated from an entry in the Cambridge 
# Structural Database, then it will include bibliographic, chemical, 
# crystal, experimental, refinement or atomic coordinate data resulting 
# from the CCDC's data processing and validation procedures.
#
#######################################################################

data_WEWRAU
_chemical_formula_moiety         'C16 H13 Cl1 O4'
_chemical_name_systematic        
2-(4-chlorophenyl)-9-ethenyl-9-methyl-1,7-dioxaspiro[4.4]non-2-ene-4,6-dione
_symmetry_cell_setting           orthorhombic
_symmetry_space_group_name_H-M   'P 21 21 21'
_symmetry_Int_Tables_number      19
_space_group_name_Hall           'P 2ac 2ab'
loop_
_symmetry_equiv_pos_site_id
_symmetry_equiv_pos_as_xyz
1 x,y,z
2 1/2-x,-y,1/2+z
3 -x,1/2+y,1/2-z
4 1/2+x,1/2-y,-z
_cell_length_a                   7.5541(7)
_cell_length_b                   11.5427(11)
_cell_length_c                   16.9547(12)
_cell_angle_alpha                90
_cell_angle_beta                 90
_cell_angle_gamma                90
_cell_volume                     1478.36
_exptl_crystal_colour            'dull white'
_exptl_crystal_description       block
_cell_formula_units_Z            4
loop_
_atom_site_label
_atom_site_type_symbol
_atom_site_fract_x
_atom_site_fract_y
_atom_site_fract_z
Cl1 Cl 0.1955(2) 0.20338(17) 0.36016(7)
O1 O 0.2597(3) 0.2058(2) 0.74983(14)
O2 O 0.0077(4) 0.1138(3) 0.85921(19)
O3 O 0.1410(4) 0.4182(2) 0.88836(16)
O4 O 0.2071(4) 0.1523(3) 0.95125(16)
C1 C 0.1754(4) 0.3628(3) 0.8292(2)
C2 C 0.1493(5) 0.3878(3) 0.7475(2)
H1 H 0.1059 0.4569 0.7270
C3 C 0.1409(5) 0.1611(3) 0.8789(2)
C4 C 0.2563(5) 0.2404(3) 0.83018(19)
C5 C 0.1979(4) 0.2948(3) 0.70536(19)
C6 C 0.1957(5) 0.2733(3) 0.6204(2)
C7 C 0.4375(5) 0.2301(4) 0.8715(2)
C8 C 0.1857(8) 0.3624(4) 0.5676(2)
H2 H 0.1790 0.4384 0.5857
C9 C 0.5500(5) 0.3371(4) 0.8623(3)
H3 H 0.5013 0.4067 0.8794
C10 C 0.3717(6) 0.2172(4) 0.9568(2)
H4 H 0.4577 0.1756 0.9885
H5 H 0.3514 0.2926 0.9804
C11 C 0.1960(6) 0.2308(4) 0.4615(2)
C12 C 0.5312(6) 0.1209(4) 0.8443(3)
H6 H 0.4536 0.0557 0.8505
H7 H 0.6359 0.1093 0.8753
H8 H 0.5632 0.1287 0.7897
C13 C 0.2048(11) 0.1629(4) 0.5916(3)
H9 H 0.2104 0.1011 0.6267
C14 C 0.1854(9) 0.3403(4) 0.4872(3)
H10 H 0.1779 0.4011 0.4514
C15 C 0.2057(12) 0.1409(5) 0.5113(3)
H11 H 0.2128 0.0654 0.4924
C16 C 0.7091(6) 0.3413(5) 0.8327(3)
H12 H 0.771(8) 0.423(5) 0.829(3)
H13 H 0.780(10) 0.264(6) 0.825(4)
loop_
_geom_bond_atom_site_label_1
_geom_bond_atom_site_label_2
_geom_bond_site_symmetry_1
_geom_bond_site_symmetry_2
Cl1 C11 1_555 1_555
O1 C4 1_555 1_555
O2 C3 1_555 1_555
O3 C1 1_555 1_555
O4 C3 1_555 1_555
C1 C2 1_555 1_555
C2 H1 1_555 1_555
C3 C4 1_555 1_555
C4 C1 1_555 1_555
C5 O1 1_555 1_555
C6 C5 1_555 1_555
C7 C4 1_555 1_555
C8 C6 1_555 1_555
H2 C8 1_555 1_555
C9 C7 1_555 1_555
H3 C9 1_555 1_555
C10 O4 1_555 1_555
H4 C10 1_555 1_555
H5 C10 1_555 1_555
C11 C14 1_555 1_555
C12 C7 1_555 1_555
H6 C12 1_555 1_555
H7 C12 1_555 1_555
H8 C12 1_555 1_555
C13 C6 1_555 1_555
H9 C13 1_555 1_555
C14 C8 1_555 1_555
H10 C14 1_555 1_555
C15 C11 1_555 1_555
H11 C15 1_555 1_555
C16 C9 1_555 1_555
H12 C16 1_555 1_555
H13 C16 1_555 1_555
C2 C5 1_555 1_555
C7 C10 1_555 1_555
C13 C15 1_555 1_555

#END
