
#######################################################################
#
#                 Cambridge Crystallographic Data Centre
#                                CCDC 
#
#######################################################################
#
# If this CIF has been generated from an entry in the Cambridge 
# Structural Database, then it will include bibliographic, chemical, 
# crystal, experimental, refinement or atomic coordinate data resulting 
# from the CCDC's data processing and validation procedures.
#
#######################################################################

data_WEWWUR
_chemical_formula_moiety         'C14 H10 Cl1 N3 O3 S1'
_chemical_name_systematic        N-p-Nitrobenzoyl-N'-p-chlorophenylthiourea
_symmetry_cell_setting           monoclinic
_symmetry_space_group_name_H-M   'P 21/c'
_symmetry_Int_Tables_number      14
_space_group_name_Hall           '-P 2ybc'
loop_
_symmetry_equiv_pos_site_id
_symmetry_equiv_pos_as_xyz
1 x,y,z
2 -x,1/2+y,1/2-z
3 -x,-y,-z
4 x,1/2-y,1/2+z
_cell_length_a                   8.5985(14)
_cell_length_b                   12.1537(19)
_cell_length_c                   14.972(2)
_cell_angle_alpha                90
_cell_angle_beta                 105.886(2)
_cell_angle_gamma                90
_cell_volume                     1504.87
_exptl_crystal_colour            yellow
_exptl_crystal_description       block
_cell_formula_units_Z            4
_exptl_crystal_recrystallization_method 'ethyl acetate'
loop_
_atom_site_label
_atom_site_type_symbol
_atom_site_fract_x
_atom_site_fract_y
_atom_site_fract_z
S1 S 0.27403(9) 0.13749(5) 0.51097(5)
Cl1 Cl 0.72045(10) 0.10908(6) 0.19182(5)
N1 N 0.2633(2) 0.34238(14) 0.56346(12)
N2 N 0.4075(2) 0.31507(16) 0.45600(13)
N3 N 0.0214(2) 0.67908(16) 0.83126(15)
O1 O 0.3226(2) 0.50945(12) 0.51120(11)
O2 O -0.0913(2) 0.74226(15) 0.80325(13)
O3 O 0.0883(3) 0.66429(19) 0.91247(13)
C1 C 0.3209(3) 0.26935(17) 0.50736(14)
C2 C 0.2675(2) 0.45536(16) 0.56409(14)
C3 C 0.1979(2) 0.50959(15) 0.63400(13)
C4 C 0.2289(3) 0.46971(17) 0.72421(14)
H1 H 0.2879 0.4052 0.7409
C5 C 0.1719(3) 0.52584(18) 0.78920(14)
H2 H 0.1952 0.5014 0.8503
C6 C 0.0801(2) 0.61874(17) 0.76129(14)
C7 C 0.0457(3) 0.65990(18) 0.67190(15)
H3 H -0.0181 0.7223 0.6548
C8 C 0.1088(2) 0.60541(17) 0.60879(14)
H4 H 0.0916 0.6331 0.5490
C9 C 0.4828(3) 0.26116(17) 0.39430(14)
C10 C 0.5749(3) 0.1671(2) 0.41844(16)
H5 H 0.5866 0.1350 0.4763
C11 C 0.6493(3) 0.1207(2) 0.35686(17)
H6 H 0.7113 0.0573 0.3729
C12 C 0.6312(3) 0.16898(18) 0.27165(16)
C13 C 0.5437(3) 0.26378(18) 0.24743(15)
H7 H 0.5347 0.2967 0.1902
C14 C 0.4688(3) 0.30987(17) 0.30929(15)
H8 H 0.4087 0.3741 0.2935
H9 H 0.212(3) 0.3136(18) 0.5971(15)
H10 H 0.413(3) 0.380(2) 0.4585(16)
loop_
_geom_bond_atom_site_label_1
_geom_bond_atom_site_label_2
_geom_bond_site_symmetry_1
_geom_bond_site_symmetry_2
S1 C1 1_555 1_555
Cl1 C12 1_555 1_555
N1 C1 1_555 1_555
N2 C1 1_555 1_555
N3 O2 1_555 1_555
O1 C2 1_555 1_555
O3 N3 1_555 1_555
C2 N1 1_555 1_555
C3 C2 1_555 1_555
C4 C3 1_555 1_555
H1 C4 1_555 1_555
C5 C4 1_555 1_555
H2 C5 1_555 1_555
C6 N3 1_555 1_555
C7 C6 1_555 1_555
H3 C7 1_555 1_555
C8 C3 1_555 1_555
H4 C8 1_555 1_555
C9 N2 1_555 1_555
C10 C9 1_555 1_555
H5 C10 1_555 1_555
C11 C10 1_555 1_555
H6 C11 1_555 1_555
C12 C11 1_555 1_555
C13 C12 1_555 1_555
H7 C13 1_555 1_555
C14 C9 1_555 1_555
H8 C14 1_555 1_555
H9 N1 1_555 1_555
H10 N2 1_555 1_555
C5 C6 1_555 1_555
C7 C8 1_555 1_555
C13 C14 1_555 1_555

#END
