
#######################################################################
#
#                 Cambridge Crystallographic Data Centre
#                                CCDC 
#
#######################################################################
#
# If this CIF has been generated from an entry in the Cambridge 
# Structural Database, then it will include bibliographic, chemical, 
# crystal, experimental, refinement or atomic coordinate data resulting 
# from the CCDC's data processing and validation procedures.
#
#######################################################################

data_WEWWED01
_chemical_formula_moiety         'C17 H17 Br1 N4 O1'
_chemical_name_systematic        
2-bromo-5-{4-[(morpholin-4-yl)methyl]phenyl}[1,2,4]triazolo[1,5-a]pyridine
_symmetry_cell_setting           monoclinic
_symmetry_space_group_name_H-M   'C 2/c'
_symmetry_Int_Tables_number      15
_space_group_name_Hall           '-C 2yn'
loop_
_symmetry_equiv_pos_site_id
_symmetry_equiv_pos_as_xyz
1 x,y,z
2 -x,y,1/2-z
3 1/2+x,1/2+y,z
4 1/2-x,1/2+y,1/2-z
5 -x,-y,-z
6 x,-y,1/2+z
7 1/2-x,1/2-y,-z
8 1/2+x,1/2-y,1/2+z
_cell_length_a                   19.1038(13)
_cell_length_b                   6.8983(6)
_cell_length_c                   25.726(2)
_cell_angle_alpha                90
_cell_angle_beta                 102.622(5)
_cell_angle_gamma                90
_cell_volume                     3308.34
_exptl_crystal_colour            colorless
_exptl_crystal_description       block
_cell_formula_units_Z            8
loop_
_atom_site_label
_atom_site_type_symbol
_atom_site_fract_x
_atom_site_fract_y
_atom_site_fract_z
Br1 Br 0.28143(5) 0.61290(16) 0.44266(5)
O1 O 0.6458(9) 0.144(2) 0.1785(5)
N1 N 0.3446(3) 0.9851(10) 0.4548(2)
N2 N 0.4088(3) 0.7493(8) 0.4231(2)
N3 N 0.4451(3) 0.9228(7) 0.42823(19)
N4 N 0.6358(5) 0.3172(15) 0.2724(4)
C1 C 0.3511(4) 0.8024(11) 0.4393(3)
C2 C 0.5114(4) 0.9547(10) 0.4171(2)
C3 C 0.5393(4) 1.1380(11) 0.4279(3)
H1 H 0.5849 1.1658 0.4227
C4 C 0.4997(5) 1.2837(11) 0.4467(3)
H2 H 0.5192 1.4072 0.4530
C5 C 0.4341(5) 1.2488(12) 0.4560(3)
H3 H 0.4081 1.3473 0.4677
C6 C 0.4061(4) 1.0640(10) 0.4476(2)
C7 C 0.5167(5) 0.716(2) 0.3479(6)
H4 H 0.4678 0.7330 0.3347
C8 C 0.5507(8) 0.808(3) 0.3947(6)
C9 C 0.6239(8) 0.783(3) 0.4144(6)
H5 H 0.6466 0.8442 0.4457
C10 C 0.6631(5) 0.665(2) 0.3873(5)
H6 H 0.7120 0.6481 0.4005
C11 C 0.6291(5) 0.5730(16) 0.3405(4)
C12 C 0.5559(5) 0.5984(16) 0.3208(4)
H7 H 0.5332 0.5368 0.2895
C13 C 0.6715(9) 0.466(3) 0.3131(6)
H8 H 0.7077 0.3995 0.3393
H9 H 0.6965 0.5576 0.2949
C14 C 0.6505(14) 0.095(2) 0.2694(6)
H10 H 0.6264 0.0285 0.2939
H11 H 0.7016 0.0729 0.2819
C15 C 0.6255(9) -0.005(2) 0.2113(6)
H12 H 0.6509 -0.1252 0.2089
H13 H 0.5742 -0.0287 0.2023
C16 C 0.6197(12) 0.331(3) 0.1839(9)
H14 H 0.5730 0.3306 0.1929
H15 H 0.6189 0.4114 0.1529
C17 C 0.6832(15) 0.384(3) 0.2329(8)
H16 H 0.7261 0.3066 0.2350
H17 H 0.6948 0.5214 0.2354
O2? O 0.6349(13) 0.084(3) 0.1924(7)
N5? N 0.6259(8) 0.238(2) 0.2855(5)
C18? C 0.5104(5) 0.6694(19) 0.3542(5)
H18? H 0.4615 0.6874 0.3410
C19? C 0.5475(8) 0.789(2) 0.3944(7)
C20? C 0.6206(8) 0.762(2) 0.4141(6)
H19? H 0.6454 0.8423 0.4410
C21? C 0.6566(5) 0.616(2) 0.3936(5)
H20? H 0.7055 0.5976 0.4068
C22? C 0.6195(5) 0.4959(16) 0.3535(4)
C23? C 0.5464(5) 0.5228(15) 0.3337(4)
H21? H 0.5216 0.4427 0.3069
C24? C 0.6551(9) 0.315(2) 0.3369(6)
H22? H 0.7053 0.3440 0.3389
H23? H 0.6533 0.2139 0.3629
C25? C 0.602(3) 0.044(4) 0.2776(13)
H24? H 0.5500 0.0410 0.2739
H25? H 0.6230 -0.0319 0.3089
C26? C 0.6210(14) -0.053(3) 0.2267(9)
H26? H 0.6627 -0.1356 0.2376
H27? H 0.5813 -0.1332 0.2088
C27? C 0.671(3) 0.259(4) 0.1996(15)
H28? H 0.6616 0.3318 0.1666
H29? H 0.7226 0.2351 0.2098
C28? C 0.6462(12) 0.379(2) 0.2449(7)
H30? H 0.6846 0.4637 0.2626
H31? H 0.6052 0.4588 0.2293
loop_
_geom_bond_atom_site_label_1
_geom_bond_atom_site_label_2
_geom_bond_site_symmetry_1
_geom_bond_site_symmetry_2
Br1 C1 1_555 1_555
O1 C15 1_555 1_555
N1 C1 1_555 1_555
N2 N3 1_555 1_555
N3 C2 1_555 1_555
N4 C13 1_555 1_555
C1 N2 1_555 1_555
C2 C3 1_555 1_555
C3 H1 1_555 1_555
C4 C3 1_555 1_555
H2 C4 1_555 1_555
C5 C4 1_555 1_555
H3 C5 1_555 1_555
C6 N1 1_555 1_555
C7 H4 1_555 1_555
C8 C2 1_555 1_555
C9 C8 1_555 1_555
H5 C9 1_555 1_555
C10 C9 1_555 1_555
H6 C10 1_555 1_555
C11 C10 1_555 1_555
C12 C7 1_555 1_555
H7 C12 1_555 1_555
C13 C11 1_555 1_555
H8 C13 1_555 1_555
H9 C13 1_555 1_555
C14 N4 1_555 1_555
H10 C14 1_555 1_555
H11 C14 1_555 1_555
C15 C14 1_555 1_555
H12 C15 1_555 1_555
H13 C15 1_555 1_555
C16 O1 1_555 1_555
H14 C16 1_555 1_555
H15 C16 1_555 1_555
C17 N4 1_555 1_555
H16 C17 1_555 1_555
H17 C17 1_555 1_555
N3 C6 1_555 1_555
C5 C6 1_555 1_555
C7 C8 1_555 1_555
C11 C12 1_555 1_555
C16 C17 1_555 1_555

#END
