
#######################################################################
#
#                 Cambridge Crystallographic Data Centre
#                                CCDC 
#
#######################################################################
#
# If this CIF has been generated from an entry in the Cambridge 
# Structural Database, then it will include bibliographic, chemical, 
# crystal, experimental, refinement or atomic coordinate data resulting 
# from the CCDC's data processing and validation procedures.
#
#######################################################################

data_WEWYOP
_chemical_formula_moiety         'C46 H30 N4'
_chemical_name_systematic        
3-[9-(4,6-diphenyl-1,3,5-triazin-2-yl)-9H-fluoren-9-yl]-9-phenyl-9H-carbazole
_symmetry_cell_setting           monoclinic
_symmetry_space_group_name_H-M   'C 2/c'
_symmetry_Int_Tables_number      15
_space_group_name_Hall           '-C 2yn'
loop_
_symmetry_equiv_pos_site_id
_symmetry_equiv_pos_as_xyz
1 x,y,z
2 -x,y,1/2-z
3 1/2+x,1/2+y,z
4 1/2-x,1/2+y,1/2-z
5 -x,-y,-z
6 x,-y,1/2+z
7 1/2-x,1/2-y,-z
8 1/2+x,1/2-y,1/2+z
_cell_length_a                   22.949(2)
_cell_length_b                   9.1637(9)
_cell_length_c                   31.752(3)
_cell_angle_alpha                90
_cell_angle_beta                 96.447(3)
_cell_angle_gamma                90
_cell_volume                     6635.15
_exptl_crystal_description       block
_cell_formula_units_Z            8
loop_
_atom_site_label
_atom_site_type_symbol
_atom_site_fract_x
_atom_site_fract_y
_atom_site_fract_z
N1 N 0.25742(12) 0.9154(3) 0.03066(9)
N2 N 0.27438(12) 0.7867(3) 0.09590(9)
N3 N 0.17843(12) 0.7993(3) 0.05940(9)
N4 N -0.02437(12) 0.8444(3) 0.17335(9)
C1 C 0.09914(16) 0.9288(5) -0.00331(11)
H1 H 0.0849 0.8751 0.0182
C2 C 0.06038(18) 0.9932(5) -0.03466(12)
H2 H 0.0202 0.9848 -0.0337
C3 C 0.08143(19) 1.0699(5) -0.06730(13)
H3 H 0.0554 1.1119 -0.0884
C4 C 0.14137(19) 1.0840(5) -0.06857(13)
H4 H 0.1555 1.1351 -0.0906
C5 C 0.18002(17) 1.0222(4) -0.03713(11)
H5 H 0.2202 1.0324 -0.0380
C6 C 0.15934(15) 0.9449(4) -0.00425(10)
C7 C 0.20058(15) 0.8822(4) 0.03010(10)
C8 C 0.29233(15) 0.8652(4) 0.06388(10)
C9 C 0.35576(15) 0.8967(4) 0.06536(11)
C10 C 0.37446(17) 1.0093(5) 0.04069(12)
H6 H 0.3471 1.0681 0.0249
C11 C 0.43397(19) 1.0335(6) 0.03980(13)
H7 H 0.4465 1.1092 0.0235
C12 C 0.47458(18) 0.9458(6) 0.06299(13)
H8 H 0.5144 0.9606 0.0616
C13 C 0.45636(17) 0.8362(5) 0.08832(13)
H9 H 0.4839 0.7784 0.1043
C14 C 0.39675(16) 0.8123(5) 0.08983(12)
H10 H 0.3844 0.7397 0.1073
C15 C 0.21739(14) 0.7557(3) 0.09133(10)
C16 C 0.19414(14) 0.6562(4) 0.12401(10)
C17 C 0.23519(14) 0.6380(4) 0.16497(10)
C18 C 0.25443(15) 0.7412(4) 0.19533(11)
H11 H 0.2437 0.8386 0.1916
C19 C 0.29000(15) 0.6969(4) 0.23133(11)
H12 H 0.3033 0.7654 0.2518
C20 C 0.30587(16) 0.5521(4) 0.23720(12)
H13 H 0.3296 0.5244 0.2616
C21 C 0.28681(15) 0.4479(4) 0.20726(12)
H14 H 0.2974 0.3505 0.2111
C22 C 0.25151(14) 0.4929(4) 0.17125(11)
C23 C 0.22498(15) 0.4062(4) 0.13504(11)
C24 C 0.22629(18) 0.2574(4) 0.12691(13)
H15 H 0.2472 0.1942 0.1459
C25 C 0.1959(2) 0.2054(4) 0.09007(14)
H16 H 0.1964 0.1058 0.0844
C26 C 0.16469(19) 0.2980(4) 0.06123(13)
H17 H 0.1449 0.2603 0.0364
C27 C 0.16291(16) 0.4475(4) 0.06935(11)
H18 H 0.1421 0.5106 0.0502
C28 C 0.19281(14) 0.4994(4) 0.10653(11)
C29 C 0.13316(14) 0.7034(4) 0.13452(10)
C30 C 0.08968(14) 0.5989(4) 0.13837(10)
H19 H 0.0974 0.5017 0.1327
C31 C 0.03532(15) 0.6362(4) 0.15049(10)
H20 H 0.0066 0.5658 0.1527
C32 C 0.02530(14) 0.7803(4) 0.15915(10)
C33 C 0.12226(14) 0.8488(4) 0.14339(10)
H21 H 0.1508 0.9193 0.1407
C34 C 0.06834(14) 0.8885(4) 0.15637(10)
C35 C 0.04426(15) 1.0239(4) 0.17043(10)
C36 C 0.06666(16) 1.1649(4) 0.17627(11)
H22 H 0.1043 1.1871 0.1699
C37 C 0.03176(17) 1.2711(4) 0.19170(12)
H23 H 0.0465 1.3648 0.1966
C38 C -0.02545(17) 1.2392(4) 0.20002(12)
H24 H -0.0485 1.3134 0.2093
C39 C -0.04842(16) 1.1007(4) 0.19479(11)
H25 H -0.0865 1.0802 0.2004
C40 C -0.01234(15) 0.9919(4) 0.18076(11)
C41 C -0.06927(14) 0.7589(4) 0.18947(11)
C42 C -0.07858(14) 0.7707(4) 0.23178(11)
H26 H -0.0579 0.8392 0.2492
C43 C -0.11878(15) 0.6797(4) 0.24791(11)
H27 H -0.1255 0.6882 0.2761
C44 C -0.14907(15) 0.5760(4) 0.22223(12)
H28 H -0.1757 0.5143 0.2333
C45 C -0.13957(15) 0.5645(4) 0.18007(12)
H29 H -0.1595 0.4943 0.1629
C46 C -0.10024(15) 0.6576(4) 0.16341(11)
H30 H -0.0947 0.6520 0.1349
loop_
_geom_bond_atom_site_label_1
_geom_bond_atom_site_label_2
_geom_bond_site_symmetry_1
_geom_bond_site_symmetry_2
N1 C7 1_555 1_555
N2 C8 1_555 1_555
N3 C7 1_555 1_555
N4 C32 1_555 1_555
C1 H1 1_555 1_555
C2 C1 1_555 1_555
H2 C2 1_555 1_555
C3 C2 1_555 1_555
H3 C3 1_555 1_555
C4 C3 1_555 1_555
H4 C4 1_555 1_555
C5 C4 1_555 1_555
H5 C5 1_555 1_555
C6 C1 1_555 1_555
C7 C6 1_555 1_555
C8 N1 1_555 1_555
C9 C8 1_555 1_555
C10 C9 1_555 1_555
H6 C10 1_555 1_555
C11 C10 1_555 1_555
H7 C11 1_555 1_555
C12 C11 1_555 1_555
H8 C12 1_555 1_555
C13 C12 1_555 1_555
H9 C13 1_555 1_555
C14 C9 1_555 1_555
H10 C14 1_555 1_555
C15 N2 1_555 1_555
C16 C15 1_555 1_555
C17 C16 1_555 1_555
C18 C17 1_555 1_555
H11 C18 1_555 1_555
C19 C18 1_555 1_555
H12 C19 1_555 1_555
C20 C19 1_555 1_555
H13 C20 1_555 1_555
C21 C20 1_555 1_555
H14 C21 1_555 1_555
C22 C17 1_555 1_555
C23 C22 1_555 1_555
C24 C23 1_555 1_555
H15 C24 1_555 1_555
C25 C24 1_555 1_555
H16 C25 1_555 1_555
C26 C25 1_555 1_555
H17 C26 1_555 1_555
C27 C26 1_555 1_555
H18 C27 1_555 1_555
C28 C16 1_555 1_555
C29 C16 1_555 1_555
C30 C29 1_555 1_555
H19 C30 1_555 1_555
C31 C30 1_555 1_555
H20 C31 1_555 1_555
C32 C31 1_555 1_555
C33 C29 1_555 1_555
H21 C33 1_555 1_555
C34 C32 1_555 1_555
C35 C34 1_555 1_555
C36 C35 1_555 1_555
H22 C36 1_555 1_555
C37 C36 1_555 1_555
H23 C37 1_555 1_555
C38 C37 1_555 1_555
H24 C38 1_555 1_555
C39 C38 1_555 1_555
H25 C39 1_555 1_555
C40 N4 1_555 1_555
C41 N4 1_555 1_555
C42 C41 1_555 1_555
H26 C42 1_555 1_555
C43 C42 1_555 1_555
H27 C43 1_555 1_555
C44 C43 1_555 1_555
H28 C44 1_555 1_555
C45 C44 1_555 1_555
H29 C45 1_555 1_555
C46 C41 1_555 1_555
H30 C46 1_555 1_555
N3 C15 1_555 1_555
C5 C6 1_555 1_555
C13 C14 1_555 1_555
C21 C22 1_555 1_555
C23 C28 1_555 1_555
C27 C28 1_555 1_555
C33 C34 1_555 1_555
C35 C40 1_555 1_555
C39 C40 1_555 1_555
C45 C46 1_555 1_555

#END
