
#######################################################################
#
#                 Cambridge Crystallographic Data Centre
#                                CCDC 
#
#######################################################################
#
# If this CIF has been generated from an entry in the Cambridge 
# Structural Database, then it will include bibliographic, chemical, 
# crystal, experimental, refinement or atomic coordinate data resulting 
# from the CCDC's data processing and validation procedures.
#
#######################################################################

data_WEWYIJ
_chemical_formula_moiety         'C32 H30 O1'
_chemical_name_systematic        
2,3-bis(4-methylphenyl)-4-[(4-methylphenyl)methylidene]-1,2,3,4-tetrahydronaphthalen-2-ol
_symmetry_cell_setting           monoclinic
_symmetry_space_group_name_H-M   'P 21/n'
_symmetry_Int_Tables_number      14
_space_group_name_Hall           '-P 2yn'
loop_
_symmetry_equiv_pos_site_id
_symmetry_equiv_pos_as_xyz
1 x,y,z
2 1/2-x,1/2+y,1/2-z
3 -x,-y,-z
4 1/2+x,1/2-y,1/2+z
_cell_length_a                   12.7452(15)
_cell_length_b                   13.2920(9)
_cell_length_c                   14.5536(14)
_cell_angle_alpha                90
_cell_angle_beta                 105.079(12)
_cell_angle_gamma                90
_cell_volume                     2380.62
_cell_formula_units_Z            4
loop_
_atom_site_label
_atom_site_type_symbol
_atom_site_fract_x
_atom_site_fract_y
_atom_site_fract_z
O1 O 0.99262(9) 0.29444(8) 0.05762(8)
C1 C 1.35954(14) 0.30488(12) 0.12992(11)
C2 C 1.32692(14) 0.26493(12) 0.27946(11)
C3 C 1.13353(14) 0.41664(12) 0.05873(11)
C4 C 1.18495(14) 0.50396(12) 0.09960(12)
C5 C 1.12361(15) 0.40160(12) -0.03803(12)
C6 C 1.21758(14) 0.55681(13) -0.05009(12)
C7 C 1.50548(14) 0.32097(12) 0.27299(12)
C8 C 1.28765(14) 0.27183(11) 0.18112(11)
C9 C 1.17198(14) 0.24282(12) 0.12935(11)
C10 C 1.13245(14) 0.06076(12) 0.14683(12)
C11 C 1.43398(14) 0.28939(12) 0.32409(12)
C12 C 1.34072(15) 0.01322(13) 0.00610(12)
C13 C 1.16497(15) 0.46959(13) -0.09086(12)
C14 C 1.09388(14) 0.33463(12) 0.11404(11)
C15 C 1.13769(15) -0.05233(12) 0.01264(12)
C16 C 1.46594(15) 0.32857(12) 0.17488(12)
C17 C 1.22572(15) 0.57238(13) 0.04568(12)
C18 C 1.18876(15) 0.02170(12) 0.07742(12)
C19 C 1.28796(16) -0.05853(12) -0.05936(12)
C20 C 1.12444(14) 0.15652(12) 0.17470(11)
C21 C 1.06355(14) 0.18287(12) 0.24591(11)
C22 C 1.62225(15) 0.34611(14) 0.32237(13)
C23 C 0.98318(16) 0.30696(15) 0.32875(13)
C24 C 1.26174(17) 0.63155(14) -0.10767(14)
C25 C 1.34126(18) -0.10024(14) -0.13314(14)
C26 C 1.07994(15) 0.36850(12) 0.21028(11)
C27 C 1.04126(14) 0.28379(13) 0.26255(11)
C28 C 1.18621(16) -0.09108(13) -0.05431(12)
C29 C 0.96704(17) 0.13324(16) 0.36298(13)
C30 C 1.29238(15) 0.05229(12) 0.07350(12)
C31 C 0.94569(17) 0.23274(16) 0.37868(14)
C32 C 1.02537(15) 0.10907(14) 0.29827(12)
H1 H 0.9476 0.3414 0.0408
H2 H 1.3348 0.3112 0.0627
H3 H 1.2799 0.2432 0.3166
H4 H 1.1923 0.5170 0.1651
H5 H 1.0875 0.3432 -0.0682
H6 H 1.1742 0.2193 0.0646
H7 H 1.0971 0.0118 0.1757
H8 H 1.4587 0.2843 0.3914
H9 H 1.4110 0.0358 0.0046
H10 H 1.1575 0.4567 -0.1565
H11 H 1.0682 -0.0764 0.0148
H12 H 1.5131 0.3505 0.1380
H13 H 1.2603 0.6317 0.0753
H14 H 1.6309 0.3503 0.3912
H15 H 1.6415 0.4109 0.2990
H16 H 1.6700 0.2935 0.3090
H17 H 0.9690 0.3755 0.3398
H18 H 1.2966 0.5957 -0.1507
H19 H 1.3153 0.6747 -0.0649
H20 H 1.2022 0.6730 -0.1450
H21 H 1.3788 -0.0459 -0.1571
H22 H 1.2856 -0.1294 -0.1859
H23 H 1.3938 -0.1524 -0.1040
H24 H 1.1502 0.3941 0.2497
H25 H 1.0268 0.4243 0.2006
H26 H 1.1492 -0.1409 -0.0976
H27 H 0.9416 0.0814 0.3967
H28 H 1.3304 0.1007 0.1178
H29 H 0.9058 0.2499 0.4232
H30 H 1.0402 0.0403 0.2889
loop_
_geom_bond_atom_site_label_1
_geom_bond_atom_site_label_2
_geom_bond_site_symmetry_1
_geom_bond_site_symmetry_2
O1 C14 1_555 1_555
C1 C8 1_555 1_555
C2 C8 1_555 1_555
C3 C4 1_555 1_555
C4 C17 1_555 1_555
C5 C3 1_555 1_555
C6 C13 1_555 1_555
C7 C11 1_555 1_555
C8 C9 1_555 1_555
C9 C14 1_555 1_555
C10 C18 1_555 1_555
C11 C2 1_555 1_555
C12 C19 1_555 1_555
C13 C5 1_555 1_555
C14 C3 1_555 1_555
C15 C18 1_555 1_555
C16 C1 1_555 1_555
C17 C6 1_555 1_555
C18 C30 1_555 1_555
C19 C25 1_555 1_555
C20 C9 1_555 1_555
C21 C20 1_555 1_555
C22 C7 1_555 1_555
C23 C27 1_555 1_555
C24 C6 1_555 1_555
C25 H21 1_555 1_555
C26 C14 1_555 1_555
C27 C21 1_555 1_555
C28 C15 1_555 1_555
C29 C31 1_555 1_555
C30 C12 1_555 1_555
C31 C23 1_555 1_555
C32 C21 1_555 1_555
H1 O1 1_555 1_555
H2 C1 1_555 1_555
H3 C2 1_555 1_555
H4 C4 1_555 1_555
H5 C5 1_555 1_555
H6 C9 1_555 1_555
H7 C10 1_555 1_555
H8 C11 1_555 1_555
H9 C12 1_555 1_555
H10 C13 1_555 1_555
H11 C15 1_555 1_555
H12 C16 1_555 1_555
H13 C17 1_555 1_555
H14 C22 1_555 1_555
H15 C22 1_555 1_555
H16 C22 1_555 1_555
H17 C23 1_555 1_555
H18 C24 1_555 1_555
H19 C24 1_555 1_555
H20 C24 1_555 1_555
H22 C25 1_555 1_555
H23 C25 1_555 1_555
H24 C26 1_555 1_555
H25 C26 1_555 1_555
H26 C28 1_555 1_555
H27 C29 1_555 1_555
H28 C30 1_555 1_555
H29 C31 1_555 1_555
H30 C32 1_555 1_555
C7 C16 1_555 1_555
C10 C20 1_555 1_555
C19 C28 1_555 1_555
C26 C27 1_555 1_555
C29 C32 1_555 1_555

#END
