
#######################################################################
#
#                 Cambridge Crystallographic Data Centre
#                                CCDC 
#
#######################################################################
#
# If this CIF has been generated from an entry in the Cambridge 
# Structural Database, then it will include bibliographic, chemical, 
# crystal, experimental, refinement or atomic coordinate data resulting 
# from the CCDC's data processing and validation procedures.
#
#######################################################################

data_WEXBIK
_chemical_formula_moiety         'C11 H15 Br1 O1 Te1'
_chemical_name_systematic        1-Bromo-1-butyl-3H-2,1-benzoxatellurol
_symmetry_cell_setting           monoclinic
_symmetry_space_group_name_H-M   'P 21/c'
_symmetry_Int_Tables_number      14
_space_group_name_Hall           '-P 2ybc'
loop_
_symmetry_equiv_pos_site_id
_symmetry_equiv_pos_as_xyz
1 x,y,z
2 -x,1/2+y,1/2-z
3 -x,-y,-z
4 x,1/2-y,1/2+z
_cell_length_a                   8.456(4)
_cell_length_b                   17.169(11)
_cell_length_c                   8.781(4)
_cell_angle_alpha                90
_cell_angle_beta                 109.55(4)
_cell_angle_gamma                90
_cell_volume                     1201.34
_cell_formula_units_Z            4
loop_
_atom_site_label
_atom_site_type_symbol
_atom_site_fract_x
_atom_site_fract_y
_atom_site_fract_z
Te1 Te 0.3756(1) 0.5131(1) 0.2064(1)
Br1 Br 0.6552(1) 0.5846(1) 0.1642(1)
O1 O 0.1711(7) 0.4757(3) 0.2514(6)
C1 C 0.3958(9) 0.5875(4) 0.4051(8)
C2 C 0.5138(9) 0.6446(5) 0.4694(8)
C3 C 0.5009(10) 0.6888(5) 0.5986(9)
C4 C 0.3728(10) 0.6736(5) 0.6610(9)
C5 C 0.2575(10) 0.6171(5) 0.5964(9)
C6 C 0.2636(9) 0.5713(5) 0.4639(8)
C7 C 0.1406(9) 0.5102(5) 0.3874(9)
C8 C 0.2242(10) 0.5861(5) 0.0164(9)
C9 C 0.1068(10) 0.6406(5) 0.0615(9)
C10 C 0.0171(9) 0.6943(5) -0.0782(9)
C11 C -0.1107(11) 0.7465(5) -0.0401(10)
loop_
_geom_bond_atom_site_label_1
_geom_bond_atom_site_label_2
_geom_bond_site_symmetry_1
_geom_bond_site_symmetry_2
Te1 Br1 1_555 1_555
O1 Te1 1_555 1_555
C1 Te1 1_555 1_555
C2 C1 1_555 1_555
C3 C2 1_555 1_555
C4 C3 1_555 1_555
C5 C4 1_555 1_555
C6 C1 1_555 1_555
C7 O1 1_555 1_555
C8 Te1 1_555 1_555
C9 C8 1_555 1_555
C10 C9 1_555 1_555
C11 C10 1_555 1_555
C5 C6 1_555 1_555
C6 C7 1_555 1_555

#END
