
#######################################################################
#
#                 Cambridge Crystallographic Data Centre
#                                CCDC 
#
#######################################################################
#
# If this CIF has been generated from an entry in the Cambridge 
# Structural Database, then it will include bibliographic, chemical, 
# crystal, experimental, refinement or atomic coordinate data resulting 
# from the CCDC's data processing and validation procedures.
#
#######################################################################

data_WEXFOX
_chemical_formula_moiety         'C37 H27 N1 O2 S1'
_chemical_name_systematic        
N,N-diphenyl-4-(9-(phenylsulfonyl)-9H-fluoren-9-yl)aniline
_symmetry_cell_setting           monoclinic
_symmetry_space_group_name_H-M   'P 21/c'
_symmetry_Int_Tables_number      14
_space_group_name_Hall           '-P 2ybc'
loop_
_symmetry_equiv_pos_site_id
_symmetry_equiv_pos_as_xyz
1 x,y,z
2 -x,1/2+y,1/2-z
3 -x,-y,-z
4 x,1/2-y,1/2+z
_cell_length_a                   8.8671(3)
_cell_length_b                   34.1025(12)
_cell_length_c                   12.0757(3)
_cell_angle_alpha                90
_cell_angle_beta                 128.710(2)
_cell_angle_gamma                90
_cell_volume                     2849.4
_exptl_crystal_colour            colorless
_exptl_crystal_description       block
_cell_formula_units_Z            4
loop_
_atom_site_label
_atom_site_type_symbol
_atom_site_fract_x
_atom_site_fract_y
_atom_site_fract_z
S1 S 0.97359(5) 0.181048(9) 0.65060(3)
O1 O 0.77281(14) 0.18768(3) 0.53171(10)
O2 O 1.10309(15) 0.16988(3) 0.62196(11)
N1 N 0.74184(19) -0.00682(3) 0.48210(12)
C1 C 0.99144(18) 0.14270(4) 0.76788(13)
C2 C 0.87435(19) 0.15699(4) 0.81319(14)
C3 C 0.9819(2) 0.03431(4) 0.68184(15)
H1 H 1.0626 0.0126 0.7254
C4 C 0.9991(2) 0.16927(4) 0.95513(14)
C5 C 0.74836(19) 0.09961(4) 0.55345(14)
H2 H 0.6691 0.1214 0.5087
C6 C 0.5897(2) -0.01113(4) 0.33438(15)
C7 C 1.06278(19) 0.22413(4) 0.75523(14)
C8 C 0.8027(2) -0.04442(4) 0.67958(15)
H3 H 0.7583 -0.0235 0.7016
C9 C 0.6868(2) 0.06364(4) 0.48502(14)
H4 H 0.5668 0.0617 0.3957
C10 C 0.6759(2) 0.16012(4) 0.73447(15)
H5 H 0.5927 0.1513 0.6411
C11 C 0.92720(19) 0.10377(4) 0.68837(14)
C12 C 0.8022(2) 0.03026(4) 0.54803(14)
C13 C 1.19764(19) 0.14451(4) 0.90681(14)
C14 C 1.2047(2) 0.29004(4) 0.92410(15)
H6 H 1.2529 0.3121 0.9821
C15 C 1.3690(2) 0.13340(4) 0.93471(15)
H7 H 1.3695 0.1238 0.8629
C16 C 1.1982(2) 0.16039(4) 1.01423(14)
C17 C 0.5757(2) 0.01396(5) 0.23708(16)
H8 H 0.6691 0.0331 0.2683
C18 C 1.0417(2) 0.07024(4) 0.75068(14)
H9 H 1.1610 0.0721 0.8406
C19 C 1.0145(2) 0.27875(4) 0.85437(16)
H10 H 0.9359 0.2933 0.8654
C20 C 0.9415(2) 0.24574(4) 0.76819(15)
H11 H 0.8136 0.2382 0.7199
C21 C 0.8097(2) -0.04139(4) 0.56811(14)
C22 C 1.3234(2) 0.26890(4) 0.90838(16)
H12 H 1.4499 0.2770 0.9540
C23 C 0.8779(2) -0.07253(4) 0.53623(16)
H13 H 0.8850 -0.0703 0.4628
C24 C 1.2526(2) 0.23538(4) 0.82383(15)
H14 H 1.3317 0.2207 0.8135
C25 C 0.9267(2) 0.18710(4) 1.01678(15)
H15 H 1.0096 0.1963 1.1097
C26 C 0.8624(2) -0.07891(5) 0.75804(16)
H16 H 0.8586 -0.0810 0.8330
C27 C 1.5402(2) 0.13702(5) 1.07321(17)
H17 H 1.6561 0.1291 1.0945
C28 C 0.7286(2) 0.19090(5) 0.93681(17)
H18 H 0.6778 0.2031 0.9760
C29 C 0.9276(2) -0.11015(5) 0.72501(18)
H19 H 0.9661 -0.1333 0.7771
C30 C 1.3702(2) 0.16455(5) 1.15150(15)
H20 H 1.3711 0.1754 1.2226
C31 C 0.9353(2) -0.10692(5) 0.61440(18)
H21 H 0.9793 -0.1279 0.5924
C32 C 1.5404(2) 0.15221(5) 1.18014(17)
H22 H 1.6562 0.1541 1.2720
C33 C 0.4523(2) -0.04060(5) 0.28535(16)
H23 H 0.4616 -0.0577 0.3494
C34 C 0.6041(2) 0.17675(5) 0.79818(17)
H24 H 0.4712 0.1785 0.7476
C35 C 0.3022(3) -0.04454(6) 0.1413(2)
H25 H 0.2121 -0.0645 0.1090
C36 C 0.4222(3) 0.01015(6) 0.09375(18)
H26 H 0.4111 0.0274 0.0292
C37 C 0.2854(3) -0.01893(7) 0.0456(2)
H27 H 0.1827 -0.0212 -0.0508
loop_
_geom_bond_atom_site_label_1
_geom_bond_atom_site_label_2
_geom_bond_site_symmetry_1
_geom_bond_site_symmetry_2
S1 O1 1_555 1_555
O2 S1 1_555 1_555
N1 C6 1_555 1_555
C1 S1 1_555 1_555
C2 C1 1_555 1_555
C3 H1 1_555 1_555
C4 C2 1_555 1_555
C5 H2 1_555 1_555
C6 C17 1_555 1_555
C7 S1 1_555 1_555
C8 H3 1_555 1_555
C9 C5 1_555 1_555
H4 C9 1_555 1_555
C10 C2 1_555 1_555
H5 C10 1_555 1_555
C11 C1 1_555 1_555
C12 N1 1_555 1_555
C13 C1 1_555 1_555
C14 H6 1_555 1_555
C15 C13 1_555 1_555
H7 C15 1_555 1_555
C16 C4 1_555 1_555
C17 H8 1_555 1_555
C18 C3 1_555 1_555
H9 C18 1_555 1_555
C19 C14 1_555 1_555
H10 C19 1_555 1_555
C20 C7 1_555 1_555
H11 C20 1_555 1_555
C21 N1 1_555 1_555
C22 C14 1_555 1_555
H12 C22 1_555 1_555
C23 C21 1_555 1_555
H13 C23 1_555 1_555
C24 C7 1_555 1_555
H14 C24 1_555 1_555
C25 C4 1_555 1_555
H15 C25 1_555 1_555
C26 C8 1_555 1_555
H16 C26 1_555 1_555
C27 C15 1_555 1_555
H17 C27 1_555 1_555
C28 C25 1_555 1_555
H18 C28 1_555 1_555
C29 C26 1_555 1_555
H19 C29 1_555 1_555
C30 C16 1_555 1_555
H20 C30 1_555 1_555
C31 C23 1_555 1_555
H21 C31 1_555 1_555
C32 C27 1_555 1_555
H22 C32 1_555 1_555
C33 C6 1_555 1_555
H23 C33 1_555 1_555
C34 C10 1_555 1_555
H24 C34 1_555 1_555
C35 C33 1_555 1_555
H25 C35 1_555 1_555
C36 C17 1_555 1_555
H26 C36 1_555 1_555
C37 C35 1_555 1_555
H27 C37 1_555 1_555
C3 C12 1_555 1_555
C5 C11 1_555 1_555
C8 C21 1_555 1_555
C9 C12 1_555 1_555
C11 C18 1_555 1_555
C13 C16 1_555 1_555
C19 C20 1_555 1_555
C22 C24 1_555 1_555
C28 C34 1_555 1_555
C29 C31 1_555 1_555
C30 C32 1_555 1_555
C36 C37 1_555 1_555

#END
