
#######################################################################
#
#                 Cambridge Crystallographic Data Centre
#                                CCDC 
#
#######################################################################
#
# If this CIF has been generated from an entry in the Cambridge 
# Structural Database, then it will include bibliographic, chemical, 
# crystal, experimental, refinement or atomic coordinate data resulting 
# from the CCDC's data processing and validation procedures.
#
#######################################################################

data_WEXXAB
_chemical_formula_moiety         'C30 H30 N2 O3 S1'
_chemical_name_systematic        
4-(3-(1H-indol-3-yl)prop-1-en-2-yl)-5-methyl-1-((4-methylphenyl)sulfonyl)-3-phenyl-1,2,3,6-tetrahydropyridin-3-ol
_symmetry_cell_setting           monoclinic
_symmetry_space_group_name_H-M   'P 21/n'
_symmetry_Int_Tables_number      14
_space_group_name_Hall           '-P 2yn'
loop_
_symmetry_equiv_pos_site_id
_symmetry_equiv_pos_as_xyz
1 x,y,z
2 1/2-x,1/2+y,1/2-z
3 -x,-y,-z
4 1/2+x,1/2-y,1/2+z
_cell_length_a                   13.2526(17)
_cell_length_b                   8.5485(11)
_cell_length_c                   23.163(3)
_cell_angle_alpha                90
_cell_angle_beta                 97.460(3)
_cell_angle_gamma                90
_cell_volume                     2601.92
_exptl_crystal_colour            colorless
_exptl_crystal_description       prismatic
_cell_formula_units_Z            4
loop_
_atom_site_label
_atom_site_type_symbol
_atom_site_fract_x
_atom_site_fract_y
_atom_site_fract_z
S1 S 0.18050(4) 0.57020(8) 0.01589(2)
N1 N 0.11668(12) 0.4849(2) 0.06360(7)
N2 N -0.30455(16) 0.2496(3) 0.31094(9)
O1 O -0.02307(10) 0.60119(16) 0.13962(6)
H1 H -0.0469 0.5763 0.1065
O2 O 0.16383(14) 0.7338(2) 0.01998(7)
O3 O 0.15207(12) 0.4902(2) -0.03830(6)
C1 C 0.14726(15) 0.5338(3) 0.12407(8)
H2 H 0.1626 0.6448 0.1254
H3 H 0.2079 0.4774 0.1403
C2 C 0.06037(14) 0.4993(2) 0.15972(8)
C3 C 0.02824(14) 0.3278(2) 0.15287(8)
C4 C 0.04599(15) 0.2483(2) 0.10551(9)
C5 C 0.09991(16) 0.3165(3) 0.05786(9)
H4 H 0.1651 0.2647 0.0582
H5 H 0.0600 0.2953 0.0206
C6 C -0.03002(15) 0.2582(2) 0.19806(9)
C7 C -0.13420(17) 0.3272(3) 0.20025(10)
H6 H -0.1293 0.4392 0.1944
H7 H -0.1791 0.2861 0.1674
C8 C -0.18479(15) 0.3020(2) 0.25389(10)
C9 C -0.27560(17) 0.2334(3) 0.25686(11)
H8 H -0.3136 0.1818 0.2260
C10 C -0.23142(18) 0.3308(3) 0.34527(10)
C11 C -0.15368(16) 0.3648(2) 0.31072(9)
C12 C -0.06814(19) 0.4458(3) 0.33589(11)
H9 H -0.0157 0.4686 0.3142
C13 C -0.0619(2) 0.4915(3) 0.39239(13)
H10 H -0.0040 0.5439 0.4093
C14 C -0.1394(3) 0.4618(3) 0.42541(13)
H11 H -0.1332 0.4966 0.4637
C15 C -0.2261(2) 0.3815(3) 0.40255(11)
H12 H -0.2786 0.3622 0.4246
C16 C 0.0066(2) 0.1438(3) 0.23228(10)
H13 H 0.0706 0.1031 0.2290
H14 H -0.0316 0.1035 0.2598
C17 C 0.0128(2) 0.0829(3) 0.09201(11)
H15 H -0.0241 0.0445 0.1221
H16 H 0.0715 0.0184 0.0899
H17 H -0.0304 0.0800 0.0554
C18 C 0.10014(14) 0.5474(2) 0.22181(8)
C19 C 0.07488(16) 0.6895(3) 0.24462(10)
H18 H 0.0309 0.7571 0.2222
C20 C 0.1146(2) 0.7316(3) 0.30055(11)
H19 H 0.0961 0.8264 0.3159
C21 C 0.1809(2) 0.6344(4) 0.33349(11)
H20 H 0.2065 0.6627 0.3713
C22 C 0.20962(18) 0.4958(3) 0.31102(11)
H21 H 0.2561 0.4313 0.3332
C23 C 0.16939(16) 0.4519(3) 0.25530(9)
H22 H 0.1889 0.3575 0.2401
C24 C 0.30946(15) 0.5323(3) 0.03926(8)
C25 C 0.36477(18) 0.6335(3) 0.07798(10)
H23 H 0.3356 0.7262 0.0888
C26 C 0.46332(18) 0.5959(3) 0.10034(10)
H24 H 0.5000 0.6639 0.1265
C27 C 0.50858(16) 0.4607(3) 0.08493(9)
C28 C 0.45365(16) 0.3634(3) 0.04485(9)
H25 H 0.4842 0.2734 0.0327
C29 C 0.35438(15) 0.3972(2) 0.02256(9)
H26 H 0.3180 0.3291 -0.0037
C30 C 0.61594(18) 0.4216(4) 0.11097(12)
H27 H 0.6575 0.5137 0.1115
H28 H 0.6428 0.3421 0.0880
H29 H 0.6158 0.3841 0.1500
H30 H -0.361(2) 0.202(3) 0.3205(12)
loop_
_geom_bond_atom_site_label_1
_geom_bond_atom_site_label_2
_geom_bond_site_symmetry_1
_geom_bond_site_symmetry_2
S1 N1 1_555 1_555
N1 C1 1_555 1_555
N2 C9 1_555 1_555
O1 H1 1_555 1_555
O2 S1 1_555 1_555
O3 S1 1_555 1_555
C1 H2 1_555 1_555
H3 C1 1_555 1_555
C2 O1 1_555 1_555
C3 C2 1_555 1_555
C4 C3 1_555 1_555
C5 N1 1_555 1_555
H4 C5 1_555 1_555
H5 C5 1_555 1_555
C6 C3 1_555 1_555
C7 C6 1_555 1_555
H6 C7 1_555 1_555
H7 C7 1_555 1_555
C8 C7 1_555 1_555
C9 C8 1_555 1_555
H8 C9 1_555 1_555
C10 N2 1_555 1_555
C11 C8 1_555 1_555
C12 C11 1_555 1_555
H9 C12 1_555 1_555
C13 C12 1_555 1_555
H10 C13 1_555 1_555
C14 C13 1_555 1_555
H11 C14 1_555 1_555
C15 C10 1_555 1_555
H12 C15 1_555 1_555
C16 C6 1_555 1_555
H13 C16 1_555 1_555
H14 C16 1_555 1_555
C17 C4 1_555 1_555
H15 C17 1_555 1_555
H16 C17 1_555 1_555
H17 C17 1_555 1_555
C18 C2 1_555 1_555
C19 C18 1_555 1_555
H18 C19 1_555 1_555
C20 C19 1_555 1_555
H19 C20 1_555 1_555
C21 C20 1_555 1_555
H20 C21 1_555 1_555
C22 C21 1_555 1_555
H21 C22 1_555 1_555
C23 C18 1_555 1_555
H22 C23 1_555 1_555
C24 S1 1_555 1_555
C25 C24 1_555 1_555
H23 C25 1_555 1_555
C26 C25 1_555 1_555
H24 C26 1_555 1_555
C27 C26 1_555 1_555
C28 C27 1_555 1_555
H25 C28 1_555 1_555
C29 C24 1_555 1_555
H26 C29 1_555 1_555
C30 C27 1_555 1_555
H27 C30 1_555 1_555
H28 C30 1_555 1_555
H29 C30 1_555 1_555
H30 N2 1_555 1_555
C1 C2 1_555 1_555
C4 C5 1_555 1_555
C10 C11 1_555 1_555
C14 C15 1_555 1_555
C22 C23 1_555 1_555
C28 C29 1_555 1_555

#END
