
#######################################################################
#
#                 Cambridge Crystallographic Data Centre
#                                CCDC 
#
#######################################################################
#
# If this CIF has been generated from an entry in the Cambridge 
# Structural Database, then it will include bibliographic, chemical, 
# crystal, experimental, refinement or atomic coordinate data resulting 
# from the CCDC's data processing and validation procedures.
#
#######################################################################

data_WEYNOD
_chemical_formula_moiety         'C24 H31 O1 S3 1+,B1 F4 1-,0.5(C6 H6)'
_chemical_name_systematic        
'1-(Methyl(l-menthoxy)sulfonium)-9-(methylthio)dibenzothiophene tetrafluoroborate benzene solvate'
_symmetry_cell_setting           monoclinic
_symmetry_space_group_name_H-M   'P 21'
_symmetry_Int_Tables_number      4
_space_group_name_Hall           'P 2yb'
loop_
_symmetry_equiv_pos_site_id
_symmetry_equiv_pos_as_xyz
1 x,y,z
2 -x,1/2+y,-z
_cell_length_a                   10.216(2)
_cell_length_b                   23.076(7)
_cell_length_c                   12.906(2)
_cell_angle_alpha                90
_cell_angle_beta                 108.87(1)
_cell_angle_gamma                90
_cell_volume                     2879
_chemical_melting_point          98-103deg.C
_cell_formula_units_Z            4
loop_
_atom_site_label
_atom_site_type_symbol
_atom_site_fract_x
_atom_site_fract_y
_atom_site_fract_z
S1 S 0.4395(4) 0.412 0.0749(3)
S2 S 0.6067(3) 0.4090(2) 0.5160(2)
S3 S 0.7923(4) 0.3341(2) 0.4559(3)
O1 O 0.5263(8) 0.4604(4) 0.5577(6)
C1 C 0.392(1) 0.4062(6) 0.193(1)
C2 C 0.259(1) 0.4141(5) 0.1924(9)
C3 C 0.231(1) 0.4101(7) 0.291(1)
C4 C 0.344(1) 0.4038(6) 0.3883(8)
C5 C 0.473(1) 0.3985(5) 0.3838(9)
C6 C 0.507(1) 0.3959(5) 0.2865(8)
C7 C 0.575(1) 0.3471(6) 0.600(1)
C8 C 0.613(1) 0.3966(5) 0.1508(9)
C9 C 0.714(1) 0.3909(6) 0.1036(9)
C10 C 0.842(1) 0.3716(6) 0.168(1)
C11 C 0.866(1) 0.3564(6) 0.279(1)
C12 C 0.760(1) 0.3639(5) 0.3216(9)
C13 C 0.632(1) 0.3863(5) 0.2623(9)
C14 C 0.936(1) 0.3794(9) 0.534(1)
C15 C 0.617(1) 0.4958(5) 0.6502(9)
C16 C 0.525(1) 0.5323(6) 0.6898(9)
C17 C 0.620(2) 0.5727(7) 0.778(1)
C18 C 0.723(2) 0.6060(6) 0.748(1)
C19 C 0.812(2) 0.5661(7) 0.702(1)
C20 C 0.717(1) 0.5279(6) 0.611(1)
C21 C 0.408(1) 0.5012(7) 0.720(1)
C22 C 0.471(2) 0.455(1) 0.810(1)
C23 C 0.312(2) 0.5396(9) 0.749(1)
C24 C 0.912(2) 0.6012(9) 0.661(2)
S4 S 0.5579(4) 0.2256(2) 0.3178(3)
S5 S 0.5329(4) 0.2881(2) -0.0835(3)
S6 S 0.2722(3) 0.2349(2) -0.1095(2)
O2 O 0.1312(8) 0.1976(3) -0.1430(6)
C25 C 0.640(1) 0.2227(5) 0.218(1)
C26 C 0.780(2) 0.2087(6) 0.240(1)
C27 C 0.834(2) 0.2097(7) 0.156(1)
C28 C 0.757(1) 0.2326(6) 0.058(1)
C29 C 0.620(1) 0.2477(5) 0.037(1)
C30 C 0.556(1) 0.2392(5) 0.1151(9)
C31 C 0.563(2) 0.2433(9) -0.194(1)
C32 C 0.405(1) 0.2484(5) 0.2190(9)
C33 C 0.284(1) 0.2600(5) 0.2390(9)
C34 C 0.167(1) 0.2737(6) 0.151(1)
C35 C 0.170(1) 0.2694(5) 0.0454(9)
C36 C 0.295(1) 0.2567(5) 0.0290(9)
C37 C 0.419(1) 0.2489(4) 0.1135(8)
C38 C 0.189(2) 0.2949(7) -0.192(1)
C39 C 0.144(1) 0.1384(5) -0.093(1)
C40 C 0.169(1) 0.0948(5) -0.174(1)
C41 C 0.158(1) 0.0334(6) -0.128(1)
C42 C 0.021(1) 0.0238(6) -0.112(1)
C43 C -0.008(1) 0.0696(7) -0.029(1)
C44 C 0.009(1) 0.1299(6) -0.076(1)
C45 C 0.295(1) 0.1040(7) -0.204(1)
C46 C 0.431(2) 0.0965(7) -0.103(1)
C47 C 0.305(2) 0.0635(8) -0.297(1)
C48 C -0.139(2) 0.0584(8) -0.015(1)
C49 C -0.178(2) 0.079(1) -0.436(1)
C50 C -0.288(3) 0.0737(9) -0.390(2)
C51 C -0.338(2) 0.126(1) -0.385(2)
C52 C -0.286(2) 0.179(1) -0.386(2)
C53 C -0.166(3) 0.1754(9) -0.417(2)
C54 C -0.110(2) 0.128(1) -0.443(2)
B1 B 0.097(2) 0.888(1) 0.137(1)
F1 F 0.120(1) 0.8312(7) 0.141(2)
F2 F -0.023(1) 0.8920(5) 0.063(1)
F3 F 0.092(1) 0.9013(9) 0.2273(8)
F4 F 0.193(1) 0.9197(6) 0.1186(9)
B2 B 0.764(2) 0.7588(9) 0.476(2)
F5 F 0.648(1) 0.7421(5) 0.4913(7)
F6 F 0.866(1) 0.7642(7) 0.5623(8)
F7 F 0.735(1) 0.8132(5) 0.4193(8)
F8 F 0.795(1) 0.7233(5) 0.4017(9)
loop_
_geom_bond_atom_site_label_1
_geom_bond_atom_site_label_2
_geom_bond_site_symmetry_1
_geom_bond_site_symmetry_2
S1 C1 1_555 1_555
S2 O1 1_555 1_555
S3 C12 1_555 1_555
O1 C15 1_555 1_555
C1 C2 1_555 1_555
C2 C3 1_555 1_555
C3 C4 1_555 1_555
C4 C5 1_555 1_555
C5 S2 1_555 1_555
C6 C1 1_555 1_555
C7 S2 1_555 1_555
C8 S1 1_555 1_555
C9 C8 1_555 1_555
C10 C9 1_555 1_555
C11 C10 1_555 1_555
C12 C11 1_555 1_555
C13 C6 1_555 1_555
C14 S3 1_555 1_555
C15 C16 1_555 1_555
C16 C17 1_555 1_555
C17 C18 1_555 1_555
C18 C19 1_555 1_555
C19 C20 1_555 1_555
C20 C15 1_555 1_555
C21 C16 1_555 1_555
C22 C21 1_555 1_555
C23 C21 1_555 1_555
C24 C19 1_555 1_555
S4 C25 1_555 1_555
S5 C29 1_555 1_555
S6 O2 1_555 1_555
O2 C39 1_555 1_555
C25 C26 1_555 1_555
C26 C27 1_555 1_555
C27 C28 1_555 1_555
C28 C29 1_555 1_555
C29 C30 1_555 1_555
C30 C25 1_555 1_555
C31 S5 1_555 1_555
C32 S4 1_555 1_555
C33 C32 1_555 1_555
C34 C33 1_555 1_555
C35 C34 1_555 1_555
C36 S6 1_555 1_555
C37 C30 1_555 1_555
C38 S6 1_555 1_555
C39 C40 1_555 1_555
C40 C41 1_555 1_555
C41 C42 1_555 1_555
C42 C43 1_555 1_555
C43 C44 1_555 1_555
C44 C39 1_555 1_555
C45 C40 1_555 1_555
C46 C45 1_555 1_555
C47 C45 1_555 1_555
C48 C43 1_555 1_555
C49 C50 1_555 1_555
C50 C51 1_555 1_555
C51 C52 1_555 1_555
C52 C53 1_555 1_555
C53 C54 1_555 1_555
C54 C49 1_555 1_555
B1 F1 1_555 1_555
F2 B1 1_555 1_555
F3 B1 1_555 1_555
F4 B1 1_555 1_555
B2 F5 1_555 1_555
F6 B2 1_555 1_555
F7 B2 1_555 1_555
F8 B2 1_555 1_555
C5 C6 1_555 1_555
C8 C13 1_555 1_555
C12 C13 1_555 1_555
C32 C37 1_555 1_555
C35 C36 1_555 1_555
C36 C37 1_555 1_555

#END
