
#######################################################################
#
#                 Cambridge Crystallographic Data Centre
#                                CCDC 
#
#######################################################################
#
# If this CIF has been generated from an entry in the Cambridge 
# Structural Database, then it will include bibliographic, chemical, 
# crystal, experimental, refinement or atomic coordinate data resulting 
# from the CCDC's data processing and validation procedures.
#
#######################################################################

data_WEYZAC
_chemical_compound_source        
'bark of Mayodendron igeum, a unique species of Mayodendron Kurz (Bignoniaceae)'
_chemical_formula_moiety         'C27 H40 O4'
_chemical_name_systematic        Igeumone
_symmetry_cell_setting           orthorhombic
_symmetry_space_group_name_H-M   'P 21 21 21'
_symmetry_Int_Tables_number      19
_space_group_name_Hall           'P 2ac 2ab'
loop_
_symmetry_equiv_pos_site_id
_symmetry_equiv_pos_as_xyz
1 x,y,z
2 1/2-x,-y,1/2+z
3 -x,1/2+y,1/2-z
4 1/2+x,1/2-y,-z
_cell_length_a                   11.4211(9)
_cell_length_b                   13.1397(10)
_cell_length_c                   15.5583(12)
_cell_angle_alpha                90
_cell_angle_beta                 90
_cell_angle_gamma                90
_cell_volume                     2334.83
_exptl_crystal_colour            colorless
_exptl_crystal_description       block
_chemical_melting_point          '222-224 deg.C'
_cell_formula_units_Z            4
_exptl_crystal_recrystallization_method acetone
loop_
_atom_site_label
_atom_site_type_symbol
_atom_site_fract_x
_atom_site_fract_y
_atom_site_fract_z
O1 O -0.08000(12) 0.42968(12) 0.79883(9)
H1 H -0.1434(15) 0.3971(19) 0.7893(17)
O2 O 0.71103(13) 0.31190(12) 0.77720(11)
O3 O 0.35157(13) 0.14111(15) 0.81727(9)
H2 H 0.344(3) 0.157(2) 0.7641(9)
C1 C -0.00597(15) 0.36924(15) 0.62190(12)
H3 H -0.0246 0.3422 0.5655
H4 H -0.0131 0.3140 0.6630
C2 C -0.09500(18) 0.45122(16) 0.64448(13)
H5 H -0.0949 0.5028 0.5999
H6 H -0.1725 0.4212 0.6464
C3 C -0.06878(16) 0.50087(15) 0.73033(12)
H7 H -0.1254 0.5559 0.7395
C4 C 0.05555(16) 0.54642(13) 0.73423(12)
C5 C 0.14355(15) 0.46178(12) 0.70879(11)
H8 H 0.1316 0.4086 0.7521
C6 C 0.27292(15) 0.49093(15) 0.71825(13)
H9 H 0.2956 0.5351 0.6711
H10 H 0.2841 0.5280 0.7715
C7 C 0.34975(16) 0.39664(14) 0.71825(12)
H11 H 0.3298 0.3551 0.7676
H12 H 0.4309 0.4173 0.7244
C8 C 0.33736(15) 0.33185(14) 0.63614(11)
C9 C 0.20443(15) 0.31193(13) 0.62129(11)
H13 H 0.1798 0.2721 0.6714
C10 C 0.12186(15) 0.40681(13) 0.62148(10)
C11 C 0.18923(18) 0.23962(15) 0.54512(13)
H14 H 0.1067 0.2318 0.5321
H15 H 0.2278 0.2676 0.4948
C12 C 0.24169(19) 0.13722(15) 0.56695(14)
H16 H 0.1850 0.0988 0.6001
H17 H 0.2556 0.1003 0.5139
C13 C 0.35434(18) 0.14189(14) 0.61670(12)
C14 C 0.39887(17) 0.22882(14) 0.64743(11)
C15 C 0.07937(19) 0.58022(17) 0.82706(13)
H18 H 0.1481 0.6223 0.8285
H19 H 0.0914 0.5214 0.8625
H20 H 0.0135 0.6181 0.8482
C16 C 0.0592(2) 0.64245(16) 0.67800(15)
H21 H 0.0135 0.6951 0.7045
H22 H 0.0277 0.6272 0.6223
H23 H 0.1388 0.6650 0.6721
C17 C 0.1411(2) 0.47396(16) 0.54160(12)
H24 H 0.1576 0.4316 0.4928
H25 H 0.2060 0.5189 0.5515
H26 H 0.0719 0.5133 0.5307
C18 C 0.39981(19) 0.38675(15) 0.56129(13)
H27 H 0.4829 0.3844 0.5702
H28 H 0.3745 0.4564 0.5590
H29 H 0.3808 0.3536 0.5081
C19 C 0.4089(2) 0.03776(16) 0.62953(17)
H30 H 0.4797 0.0445 0.6623
H31 H 0.4266 0.0083 0.5746
H32 H 0.3550 -0.0054 0.6598
C20 C 0.52009(16) 0.23319(17) 0.68805(12)
H33 H 0.5666 0.1794 0.6625
H34 H 0.5556 0.2972 0.6711
O4 O 0.65939(13) 0.25371(11) 0.90457(9)
C21 C 0.63732(17) 0.26589(15) 0.81815(13)
C22 C 0.53208(15) 0.22410(14) 0.78457(12)
C23 C 0.45637(16) 0.17905(16) 0.84049(13)
C24 C 0.48240(18) 0.16684(15) 0.93031(12)
C25 C 0.5851(2) 0.20366(15) 0.95849(13)
C26 C 0.3980(2) 0.1110(2) 0.98724(14)
H35 H 0.4397 0.0813 1.0346
H36 H 0.3600 0.0583 0.9549
H37 H 0.3403 0.1577 1.0087
C27 C 0.6349(2) 0.1977(2) 1.04702(15)
H38 H 0.5780 0.1684 1.0851
H39 H 0.6548 0.2648 1.0665
H40 H 0.7039 0.1560 1.0464
loop_
_geom_bond_atom_site_label_1
_geom_bond_atom_site_label_2
_geom_bond_site_symmetry_1
_geom_bond_site_symmetry_2
O1 H1 1_555 1_555
O2 C21 1_555 1_555
O3 H2 1_555 1_555
C1 H3 1_555 1_555
H4 C1 1_555 1_555
C2 C1 1_555 1_555
H5 C2 1_555 1_555
H6 C2 1_555 1_555
C3 O1 1_555 1_555
H7 C3 1_555 1_555
C4 C3 1_555 1_555
C5 C4 1_555 1_555
H8 C5 1_555 1_555
C6 C5 1_555 1_555
H9 C6 1_555 1_555
H10 C6 1_555 1_555
C7 C6 1_555 1_555
H11 C7 1_555 1_555
H12 C7 1_555 1_555
C8 C7 1_555 1_555
C9 C8 1_555 1_555
H13 C9 1_555 1_555
C10 C1 1_555 1_555
C11 C9 1_555 1_555
H14 C11 1_555 1_555
H15 C11 1_555 1_555
C12 C11 1_555 1_555
H16 C12 1_555 1_555
H17 C12 1_555 1_555
C13 C12 1_555 1_555
C14 C8 1_555 1_555
C15 C4 1_555 1_555
H18 C15 1_555 1_555
H19 C15 1_555 1_555
H20 C15 1_555 1_555
C16 C4 1_555 1_555
H21 C16 1_555 1_555
H22 C16 1_555 1_555
H23 C16 1_555 1_555
C17 C10 1_555 1_555
H24 C17 1_555 1_555
H25 C17 1_555 1_555
H26 C17 1_555 1_555
C18 C8 1_555 1_555
H27 C18 1_555 1_555
H28 C18 1_555 1_555
H29 C18 1_555 1_555
C19 C13 1_555 1_555
H30 C19 1_555 1_555
H31 C19 1_555 1_555
H32 C19 1_555 1_555
C20 C14 1_555 1_555
H33 C20 1_555 1_555
H34 C20 1_555 1_555
O4 C21 1_555 1_555
C21 C22 1_555 1_555
C22 C20 1_555 1_555
C23 O3 1_555 1_555
C24 C23 1_555 1_555
C25 O4 1_555 1_555
C26 C24 1_555 1_555
H35 C26 1_555 1_555
H36 C26 1_555 1_555
H37 C26 1_555 1_555
C27 C25 1_555 1_555
H38 C27 1_555 1_555
H39 C27 1_555 1_555
H40 C27 1_555 1_555
C2 C3 1_555 1_555
C5 C10 1_555 1_555
C9 C10 1_555 1_555
C13 C14 1_555 1_555
C22 C23 1_555 1_555
C24 C25 1_555 1_555

#END
