
#######################################################################
#
#                 Cambridge Crystallographic Data Centre
#                                CCDC 
#
#######################################################################
#
# If this CIF has been generated from an entry in the Cambridge 
# Structural Database, then it will include bibliographic, chemical, 
# crystal, experimental, refinement or atomic coordinate data resulting 
# from the CCDC's data processing and validation procedures.
#
#######################################################################

data_WEZMIX
_chemical_name_common            'NSC-628679 monohydrate, NPF monohydrate'
_chemical_formula_moiety         'C27 H24 F1 N1 O7,H2 O1'
_chemical_name_systematic        
"4'-O-Demethyl-4\b-(4''-fluoroanilino)-4-desoxypodophyllotoxin monohydrate"
_chemical_properties_biological  'in vitro antitumour activity'
_symmetry_cell_setting           orthorhombic
_symmetry_space_group_name_H-M   'P 21 21 21'
_symmetry_Int_Tables_number      19
_space_group_name_Hall           'P 2ac 2ab'
loop_
_symmetry_equiv_pos_site_id
_symmetry_equiv_pos_as_xyz
1 x,y,z
2 1/2+x,1/2-y,-z
3 -x,1/2+y,1/2-z
4 1/2-x,-y,1/2+z
_cell_length_a                   10.699(1)
_cell_length_b                   22.727(2)
_cell_length_c                   10.353(1)
_cell_angle_alpha                90
_cell_angle_beta                 90
_cell_angle_gamma                90
_cell_volume                     2517.4
_cell_formula_units_Z            4
loop_
_atom_site_label
_atom_site_type_symbol
_atom_site_fract_x
_atom_site_fract_y
_atom_site_fract_z
C1 C -0.0146(3) 0.3615(1) 0.0166(3)
C2 C 0.1002(3) 0.3222(1) -0.0031(3)
C3 C 0.1667(3) 0.3094(1) 0.1229(3)
C4 C 0.0871(3) 0.2681(1) 0.2046(3)
C5 C -0.0470(3) 0.2906(1) 0.2074(3)
C6 C -0.1250(3) 0.2658(1) 0.3047(3)
C7 C -0.2457(3) 0.2846(1) 0.3100(3)
C8 C -0.2917(3) 0.3268(1) 0.2263(3)
C9 C -0.2201(3) 0.3513(1) 0.1324(3)
C10 C -0.0946(3) 0.3325(1) 0.1223(2)
C11 C 0.2035(3) 0.3426(1) -0.0905(3)
O1 O 0.3149(2) 0.3251(1) -0.0403(2)
C12 C 0.2949(3) 0.2899(1) 0.0765(4)
N1 N 0.0896(2) 0.2072(1) 0.1566(2)
O2 O 0.1977(3) 0.3682(1) -0.1916(2)
O3 O -0.4172(2) 0.3354(1) 0.2523(2)
C13 C -0.4367(4) 0.3101(2) 0.3771(4)
O4 O -0.3388(2) 0.2665(1) 0.3935(3)
C14 C 0.0197(3) 0.4246(1) 0.0484(2)
C15 C 0.0456(3) 0.4427(1) 0.1744(3)
C16 C 0.0873(3) 0.4994(1) 0.1976(2)
C17 C 0.0999(3) 0.5395(1) 0.0972(3)
C18 C 0.0716(3) 0.5217(1) -0.0283(2)
C19 C 0.0317(3) 0.4648(1) -0.0526(3)
O5 O 0.1193(2) 0.5218(1) 0.3155(2)
C20 C 0.1066(4) 0.4848(2) 0.4244(3)
O6 O 0.1400(2) 0.5959(1) 0.1168(2)
O7 O 0.0894(3) 0.5645(1) -0.1199(2)
C21 C 0.0834(4) 0.5470(1) -0.2513(3)
C22 C 0.1628(3) 0.1647(1) 0.2170(3)
C23 C 0.2613(3) 0.1782(2) 0.2979(4)
C24 C 0.3314(4) 0.1345(2) 0.3560(4)
C25 C 0.2980(4) 0.0766(2) 0.3327(5)
C26 C 0.2043(4) 0.0616(2) 0.2518(5)
C27 C 0.1361(3) 0.1058(1) 0.1942(4)
F1 F 0.3641(3) 0.0333(1) 0.3942(4)
H1 H -0.073(3) 0.358(1) -0.069(3)
H2 H 0.056(3) 0.283(1) -0.038(2)
H3 H 0.176(2) 0.346(1) 0.168(2)
H4 H 0.126(3) 0.272(1) 0.293(3)
H5 H -0.107(3) 0.233(1) 0.363(3)
H6 H -0.252(3) 0.379(1) 0.067(3)
H7 H 0.307(3) 0.245(1) 0.052(3)
H8 H 0.367(3) 0.302(1) 0.142(3)
H9 H 0.021(3) 0.195(1) 0.137(3)
H10 H -0.513(3) 0.290(2) 0.373(4)
H11 H -0.432(6) 0.345(2) 0.457(5)
H12 H 0.042(3) 0.414(1) 0.239(3)
H13 H 0.027(3) 0.448(1) -0.140(3)
H14 H 0.119(4) 0.510(2) 0.487(4)
H15 H 0.025(4) 0.477(2) 0.442(4)
H16 H 0.161(4) 0.447(2) 0.409(4)
H17 H 0.172(4) 0.596(2) 0.186(4)
H18 H 0.104(3) 0.585(1) -0.299(4)
H19 H 0.118(3) 0.510(1) -0.271(3)
H20 H -0.015(3) 0.530(1) -0.270(3)
H21 H 0.290(4) 0.222(2) 0.321(5)
H22 H 0.406(4) 0.147(2) 0.401(4)
H23 H 0.182(5) 0.018(2) 0.228(5)
H24 H 0.059(4) 0.094(1) 0.131(4)
O8 O 0.2452(3) 0.6731(1) -0.0741(3)
H25 H 0.204(5) 0.643(2) -0.049(4)
H26 H 0.275(6) 0.702(3) -0.016(5)
loop_
_geom_bond_atom_site_label_1
_geom_bond_atom_site_label_2
_geom_bond_site_symmetry_1
_geom_bond_site_symmetry_2
C1 C2 1_555 1_555
C2 C3 1_555 1_555
C3 C4 1_555 1_555
C4 C5 1_555 1_555
C5 C6 1_555 1_555
C6 C7 1_555 1_555
C7 C8 1_555 1_555
C8 C9 1_555 1_555
C9 C10 1_555 1_555
C10 C1 1_555 1_555
C11 C2 1_555 1_555
O1 C11 1_555 1_555
C12 C3 1_555 1_555
N1 C4 1_555 1_555
O2 C11 1_555 1_555
O3 C8 1_555 1_555
C13 O3 1_555 1_555
O4 C7 1_555 1_555
C14 C1 1_555 1_555
C15 C14 1_555 1_555
C16 C15 1_555 1_555
C17 C16 1_555 1_555
C18 C17 1_555 1_555
C19 C14 1_555 1_555
O5 C16 1_555 1_555
C20 O5 1_555 1_555
O6 C17 1_555 1_555
O7 C18 1_555 1_555
C21 O7 1_555 1_555
C22 N1 1_555 1_555
C23 C22 1_555 1_555
C24 C23 1_555 1_555
C25 C24 1_555 1_555
C26 C25 1_555 1_555
C27 C22 1_555 1_555
F1 C25 1_555 1_555
O8 H25 1_555 1_555
H1 C1 1_555 1_555
H2 C2 1_555 1_555
H3 C3 1_555 1_555
H4 C4 1_555 1_555
H5 C6 1_555 1_555
H6 C9 1_555 1_555
H7 C12 1_555 1_555
H8 C12 1_555 1_555
H9 N1 1_555 1_555
H10 C13 1_555 1_555
H11 C13 1_555 1_555
H12 C15 1_555 1_555
H13 C19 1_555 1_555
H14 C20 1_555 1_555
H15 C20 1_555 1_555
H16 C20 1_555 1_555
H17 O6 1_555 1_555
H18 C21 1_555 1_555
H19 C21 1_555 1_555
H20 C21 1_555 1_555
H21 C23 1_555 1_555
H22 C24 1_555 1_555
H23 C26 1_555 1_555
H24 C27 1_555 1_555
H26 O8 1_555 1_555
C5 C10 1_555 1_555
O1 C12 1_555 1_555
C13 O4 1_555 1_555
C18 C19 1_555 1_555
C26 C27 1_555 1_555

#END
