
#######################################################################
#
#                 Cambridge Crystallographic Data Centre
#                                CCDC 
#
#######################################################################
#
# If this CIF has been generated from an entry in the Cambridge 
# Structural Database, then it will include bibliographic, chemical, 
# crystal, experimental, refinement or atomic coordinate data resulting 
# from the CCDC's data processing and validation procedures.
#
#######################################################################

data_WEZZOQ
_chemical_formula_moiety         'C27 H22 S2'
_chemical_name_systematic        'Anhydroindanone-1 disulfide'
_symmetry_cell_setting           monoclinic
_symmetry_space_group_name_H-M   'P 21/c'
_symmetry_Int_Tables_number      14
_space_group_name_Hall           '-P 2ybc'
loop_
_symmetry_equiv_pos_site_id
_symmetry_equiv_pos_as_xyz
1 x,y,z
2 x,1/2-y,1/2+z
3 -x,-y,-z
4 -x,1/2+y,1/2-z
_cell_length_a                   14.419(8)
_cell_length_b                   12.943(4)
_cell_length_c                   11.767(5)
_cell_angle_alpha                90
_cell_angle_beta                 106.02(4)
_cell_angle_gamma                90
_cell_volume                     2110.74
_exptl_crystal_colour            colorless
_exptl_crystal_description       block
_chemical_melting_point          205-207deg.C
_cell_formula_units_Z            4
loop_
_atom_site_label
_atom_site_type_symbol
_atom_site_fract_x
_atom_site_fract_y
_atom_site_fract_z
S1 S 0.81275(8) -0.02361(10) 0.41182(10)
S2 S 0.68564(9) 0.01214(11) 0.16675(10)
C1 C 0.8095(3) -0.0058(4) 0.2584(4)
C2 C 0.8760(4) 0.0771(5) 0.2334(5)
C3 C 0.9052(6) 0.0382(6) 0.1252(6)
C4 C 0.8937(3) -0.0759(5) 0.1297(4)
C5 C 0.8426(3) -0.1033(4) 0.2097(4)
C6 C 0.8233(4) -0.2048(4) 0.2281(5)
C7 C 0.8555(4) -0.2792(5) 0.1657(5)
C8 C 0.9062(4) -0.2534(6) 0.0850(5)
C9 C 0.9243(4) -0.1530(6) 0.0675(6)
C10 C 0.7645(3) 0.0976(4) 0.4537(4)
C11 C 0.8456(4) 0.1792(5) 0.5010(5)
C12 C 0.8976(4) 0.1430(6) 0.6257(5)
C13 C 0.8180(4) 0.0930(5) 0.6649(4)
C14 C 0.7412(4) 0.0669(4) 0.5673(4)
C15 C 0.6613(5) 0.0172(6) 0.5806(5)
C16 C 0.6579(6) -0.0066(7) 0.6947(6)
C17 C 0.7320(6) 0.0208(8) 0.7901(6)
C18 C 0.8125(6) 0.0678(7) 0.7770(5)
C19 C 0.6441(3) 0.1042(4) 0.2469(4)
C20 C 0.6802(4) 0.1370(4) 0.3586(4)
C21 C 0.6186(5) 0.2251(6) 0.3843(5)
C22 C 0.5392(4) 0.2328(5) 0.2699(5)
C23 C 0.5552(3) 0.1607(4) 0.1897(4)
C24 C 0.4917(4) 0.1525(5) 0.0776(5)
C25 C 0.4131(5) 0.2153(6) 0.0473(6)
C26 C 0.3981(5) 0.2873(7) 0.1260(7)
C27 C 0.4603(5) 0.2968(6) 0.2381(6)
H1 H 0.9318(36) 0.0857(35) 0.3006(43)
H2 H 0.8470(39) 0.1505(45) 0.2277(47)
H3 H 0.9662(43) 0.0584(40) 0.1307(45)
H4 H 0.8620(45) 0.0660(47) 0.0584(56)
H5 H 0.7856(33) -0.2273(33) 0.2816(37)
H6 H 0.8431(32) -0.3421(38) 0.1754(39)
H7 H 0.9249(35) -0.3105(40) 0.0510(43)
H8 H 0.9526(41) -0.1409(44) 0.0219(50)
H9 H 0.8128(34) 0.2485(38) 0.5022(37)
H10 H 0.8855(36) 0.1872(36) 0.4536(42)
H11 H 0.9240(31) 0.2073(35) 0.6645(39)
H12 H 0.9424(43) 0.0805(48) 0.6153(50)
H13 H 0.6138(43) -0.0106(43) 0.5147(55)
H14 H 0.6089(49) -0.0386(49) 0.6956(57)
H15 H 0.7269(55) 0.0004(56) 0.8587(74)
H16 H 0.8656(59) 0.0915(56) 0.8371(69)
H17 H 0.6557(49) 0.2958(55) 0.3909(59)
H18 H 0.5952(50) 0.1943(53) 0.4451(62)
H19 H 0.5096(40) 0.0977(43) 0.0260(48)
H20 H 0.3662(44) 0.2108(45) -0.0241(53)
H21 H 0.3503(50) 0.3196(53) 0.1022(60)
H22 H 0.4554(36) 0.3581(40) 0.2894(44)
loop_
_geom_bond_atom_site_label_1
_geom_bond_atom_site_label_2
_geom_bond_site_symmetry_1
_geom_bond_site_symmetry_2
S1 C1 1_555 1_555
S2 C1 1_555 1_555
C1 C2 1_555 1_555
C2 C3 1_555 1_555
C3 C4 1_555 1_555
C4 C5 1_555 1_555
C5 C1 1_555 1_555
C6 C5 1_555 1_555
C7 C6 1_555 1_555
C8 C7 1_555 1_555
C9 C4 1_555 1_555
C10 S1 1_555 1_555
C11 C10 1_555 1_555
C12 C11 1_555 1_555
C13 C12 1_555 1_555
C14 C10 1_555 1_555
C15 C14 1_555 1_555
C16 C15 1_555 1_555
C17 C16 1_555 1_555
C18 C13 1_555 1_555
C19 S2 1_555 1_555
C20 C10 1_555 1_555
C21 C20 1_555 1_555
C22 C21 1_555 1_555
C23 C19 1_555 1_555
C24 C23 1_555 1_555
C25 C24 1_555 1_555
C26 C25 1_555 1_555
C27 C22 1_555 1_555
H1 C2 1_555 1_555
H2 C2 1_555 1_555
H3 C3 1_555 1_555
H4 C3 1_555 1_555
H5 C6 1_555 1_555
H6 C7 1_555 1_555
H7 C8 1_555 1_555
H8 C9 1_555 1_555
H9 C11 1_555 1_555
H10 C11 1_555 1_555
H11 C12 1_555 1_555
H12 C12 1_555 1_555
H13 C15 1_555 1_555
H14 C16 1_555 1_555
H15 C17 1_555 1_555
H16 C18 1_555 1_555
H17 C21 1_555 1_555
H18 C21 1_555 1_555
H19 C24 1_555 1_555
H20 C25 1_555 1_555
H21 C26 1_555 1_555
H22 C27 1_555 1_555
C8 C9 1_555 1_555
C13 C14 1_555 1_555
C17 C18 1_555 1_555
C19 C20 1_555 1_555
C22 C23 1_555 1_555
C26 C27 1_555 1_555

#END
