
#######################################################################
#
#                 Cambridge Crystallographic Data Centre
#                                CCDC 
#
#######################################################################
#
# If this CIF has been generated from an entry in the Cambridge 
# Structural Database, then it will include bibliographic, chemical, 
# crystal, experimental, refinement or atomic coordinate data resulting 
# from the CCDC's data processing and validation procedures.
#
#######################################################################

data_WEZZAE
_chemical_compound_source        
'stem bark of African mahogany Khaya senegalensis (Meliaceae)'
_chemical_name_common            
'10-(3-Furyl)-3,6-dihydroxy-4,4,6a,10a,12b-pentamethyl-8-oxohexadecahydronaphtho[2,1-f]oxireno[d]isochromen-1-yl acetate'
_chemical_formula_moiety         'C28 H38 O8'
_chemical_name_systematic        
1\a-Acetyloxy-14,15\b:21,23-diepoxy-3\a,7\a-dihydroxy-4,4,8-trimethyl-D-homo-24-nor-17-oxochola-20,22-dien-16-one
_symmetry_cell_setting           orthorhombic
_symmetry_space_group_name_H-M   'P 21 21 21'
_symmetry_Int_Tables_number      19
_space_group_name_Hall           'P 2ac 2ab'
loop_
_symmetry_equiv_pos_site_id
_symmetry_equiv_pos_as_xyz
1 x,y,z
2 1/2-x,-y,1/2+z
3 -x,1/2+y,1/2-z
4 1/2+x,1/2-y,-z
_cell_length_a                   10.907(2)
_cell_length_b                   14.200(3)
_cell_length_c                   17.391(4)
_cell_angle_alpha                90
_cell_angle_beta                 90
_cell_angle_gamma                90
_cell_volume                     2693.51
_exptl_crystal_colour            colorless
_exptl_crystal_description       Rod
_chemical_melting_point          '97 K'
_cell_formula_units_Z            4
_exptl_crystal_recrystallization_method chloroform/methanol
loop_
_atom_site_label
_atom_site_type_symbol
_atom_site_fract_x
_atom_site_fract_y
_atom_site_fract_z
O1 O -0.24761(17) 0.03344(13) 0.00185(10)
O2 O -0.4201(3) -0.0522(2) 0.00453(17)
O3 O -0.2722(3) 0.22356(16) -0.04014(13)
H1 H -0.2628 0.1805 -0.0084
O4 O 0.1384(2) 0.09520(13) 0.03037(11)
H2 H 0.1596 0.1513 0.0307
O5 O 0.27970(17) -0.15088(15) 0.01582(12)
O6 O 0.25238(19) -0.16923(15) 0.17687(12)
O7 O 0.3671(2) -0.0430(2) 0.18949(16)
O8 O -0.0200(3) -0.3910(3) 0.2456(2)
C1 C -0.2334(2) 0.0143(2) -0.08101(13)
H3 H -0.2682 -0.0462 -0.0926
C2 C -0.3041(3) 0.0904(2) -0.12480(17)
H4 H -0.3063 0.0739 -0.1783
H5 H -0.3871 0.0916 -0.1064
C3 C -0.2496(3) 0.1879(2) -0.11678(17)
H6 H -0.2930 0.2281 -0.1518
C4 C -0.1123(3) 0.1934(2) -0.13845(16)
C5 C -0.0427(3) 0.11459(17) -0.09381(15)
H7 H -0.0529 0.1310 -0.0407
C6 C 0.0963(3) 0.11405(18) -0.10582(16)
H8 H 0.1147 0.0883 -0.1555
H9 H 0.1266 0.1775 -0.1044
C7 C 0.1605(2) 0.05603(18) -0.04411(15)
H10 H 0.2471 0.0569 -0.0539
C8 C 0.1167(2) -0.04691(16) -0.04239(13)
C9 C -0.0258(2) -0.04659(15) -0.03695(13)
H11 H -0.0433 -0.0148 0.0105
C10 C -0.0948(2) 0.01254(16) -0.09987(13)
C11 C -0.0774(2) -0.14678(17) -0.02572(16)
H12 H -0.1611 -0.1420 -0.0091
H13 H -0.0772 -0.1785 -0.0745
C12 C -0.0064(3) -0.20695(17) 0.03248(16)
H14 H -0.0642 -0.2399 0.0643
H15 H 0.0404 -0.2532 0.0050
C13 C 0.0805(2) -0.15048(17) 0.08430(13)
C14 C 0.1681(2) -0.09790(16) 0.03037(14)
C15 C 0.2863(3) -0.0707(2) 0.06512(18)
H16 H 0.3256 -0.0155 0.0449
C16 C 0.3058(3) -0.0916(3) 0.14789(19)
C17 C 0.1596(2) -0.21977(19) 0.13252(16)
H17 H 0.2003 -0.2623 0.0980
C18 C 0.0126(3) -0.0847(2) 0.14002(15)
H18 H 0.0710 -0.0529 0.1721
H19 H -0.0421 -0.1210 0.1715
H20 H -0.0336 -0.0392 0.1113
C19 C -0.0872(3) -0.03207(19) -0.18109(14)
H21 H -0.0809 -0.0993 -0.1765
H22 H -0.0163 -0.0082 -0.2074
H23 H -0.1596 -0.0164 -0.2097
C20 C 0.0914(3) -0.2766(2) 0.19140(18)
C21 C 0.0267(4) -0.3566(3) 0.1786(2)
H24 H 0.0153 -0.3851 0.1290
C22 C 0.0852(4) -0.2612(3) 0.2719(2)
H25 H 0.1235 -0.2106 0.2996
C23 C 0.0167(5) -0.3296(3) 0.3024(3)
H26 H -0.0040 -0.3351 0.3558
C24 C -0.1018(4) 0.1874(3) -0.22687(18)
H27 H -0.1493 0.1350 -0.2452
H28 H -0.0175 0.1788 -0.2410
H29 H -0.1322 0.2445 -0.2494
C25 C -0.0636(4) 0.2901(2) -0.1140(3)
H30 H -0.1159 0.3385 -0.1342
H31 H 0.0180 0.2984 -0.1336
H32 H -0.0623 0.2940 -0.0589
C26 C 0.1665(3) -0.0979(2) -0.11413(16)
H33 H 0.1459 -0.0624 -0.1593
H34 H 0.1307 -0.1595 -0.1175
H35 H 0.2540 -0.1035 -0.1103
C27 C -0.3440(3) -0.0070(2) 0.03741(18)
C28 C -0.3406(3) 0.0131(3) 0.12206(19)
H36 H -0.4218 0.0076 0.1429
H37 H -0.3104 0.0757 0.1304
H38 H -0.2875 -0.0314 0.1470
loop_
_geom_bond_atom_site_label_1
_geom_bond_atom_site_label_2
_geom_bond_site_symmetry_1
_geom_bond_site_symmetry_2
O1 C1 1_555 1_555
O2 C27 1_555 1_555
O3 H1 1_555 1_555
O4 H2 1_555 1_555
O5 C14 1_555 1_555
O6 C16 1_555 1_555
O7 C16 1_555 1_555
O8 C21 1_555 1_555
C1 H3 1_555 1_555
C2 C1 1_555 1_555
H4 C2 1_555 1_555
H5 C2 1_555 1_555
C3 O3 1_555 1_555
H6 C3 1_555 1_555
C4 C3 1_555 1_555
C5 C4 1_555 1_555
H7 C5 1_555 1_555
C6 C5 1_555 1_555
H8 C6 1_555 1_555
H9 C6 1_555 1_555
C7 O4 1_555 1_555
H10 C7 1_555 1_555
C8 C7 1_555 1_555
C9 C8 1_555 1_555
H11 C9 1_555 1_555
C10 C1 1_555 1_555
C11 C9 1_555 1_555
H12 C11 1_555 1_555
H13 C11 1_555 1_555
C12 C11 1_555 1_555
H14 C12 1_555 1_555
H15 C12 1_555 1_555
C13 C12 1_555 1_555
C14 C8 1_555 1_555
C15 O5 1_555 1_555
H16 C15 1_555 1_555
C16 C15 1_555 1_555
C17 O6 1_555 1_555
H17 C17 1_555 1_555
C18 C13 1_555 1_555
H18 C18 1_555 1_555
H19 C18 1_555 1_555
H20 C18 1_555 1_555
C19 C10 1_555 1_555
H21 C19 1_555 1_555
H22 C19 1_555 1_555
H23 C19 1_555 1_555
C20 C17 1_555 1_555
C21 C20 1_555 1_555
H24 C21 1_555 1_555
C22 C20 1_555 1_555
H25 C22 1_555 1_555
C23 O8 1_555 1_555
H26 C23 1_555 1_555
C24 C4 1_555 1_555
H27 C24 1_555 1_555
H28 C24 1_555 1_555
H29 C24 1_555 1_555
C25 C4 1_555 1_555
H30 C25 1_555 1_555
H31 C25 1_555 1_555
H32 C25 1_555 1_555
C26 C8 1_555 1_555
H33 C26 1_555 1_555
H34 C26 1_555 1_555
H35 C26 1_555 1_555
C27 O1 1_555 1_555
C28 C27 1_555 1_555
H36 C28 1_555 1_555
H37 C28 1_555 1_555
H38 C28 1_555 1_555
C2 C3 1_555 1_555
C5 C10 1_555 1_555
C6 C7 1_555 1_555
C9 C10 1_555 1_555
C13 C14 1_555 1_555
C13 C17 1_555 1_555
C14 C15 1_555 1_555
C22 C23 1_555 1_555

#END
