
#######################################################################
#
#                 Cambridge Crystallographic Data Centre
#                                CCDC 
#
#######################################################################
#
# If this CIF has been generated from an entry in the Cambridge 
# Structural Database, then it will include bibliographic, chemical, 
# crystal, experimental, refinement or atomic coordinate data resulting 
# from the CCDC's data processing and validation procedures.
#
#######################################################################

data_WIBDUI
_chemical_formula_moiety         'C11 H7 Br1 O2'
_chemical_name_systematic        2-Bromo-3-methyl-1,4-naphthoquinone
_symmetry_cell_setting           monoclinic
_symmetry_space_group_name_H-M   'P 21/n'
_symmetry_Int_Tables_number      14
_space_group_name_Hall           '-P 2yn'
loop_
_symmetry_equiv_pos_site_id
_symmetry_equiv_pos_as_xyz
1 x,y,z
2 1/2-x,1/2+y,1/2-z
3 -x,-y,-z
4 1/2+x,1/2-y,1/2+z
_cell_length_a                   7.3187(10)
_cell_length_b                   8.3629(13)
_cell_length_c                   14.8943(19)
_cell_angle_alpha                90
_cell_angle_beta                 91.581(11)
_cell_angle_gamma                90
_cell_volume                     911.267
_exptl_crystal_colour            yellow
_exptl_crystal_description       rod
_cell_formula_units_Z            4
loop_
_atom_site_label
_atom_site_type_symbol
_atom_site_fract_x
_atom_site_fract_y
_atom_site_fract_z
Br1 Br 0.31647(15) 0.91990(10) 0.08799(6)
C1 C 0.2973(3) 0.4223(3) 0.05606(16)
C2 C 0.2226(3) 0.4052(3) -0.03777(16)
O1 O 0.3467(3) 0.3063(2) 0.10007(13)
C3 C 0.1775(3) 0.5412(3) -0.08885(15)
C4 C 0.2767(3) 0.7162(3) 0.04429(16)
C5 C 0.2048(3) 0.7049(3) -0.05011(16)
O2 O 0.1677(3) 0.8245(2) -0.09364(13)
C6 C 0.1988(3) 0.2544(3) -0.07455(17)
H1 H 0.2291 0.1622 -0.0400
C7 C 0.1091(3) 0.5245(3) -0.17641(16)
H2 H 0.0779 0.6164 -0.2111
C8 C 0.1308(4) 0.2381(3) -0.16189(18)
H3 H 0.1143 0.1344 -0.1869
C9 C 0.3149(3) 0.5851(3) 0.09439(14)
C10 C 0.0867(3) 0.3716(4) -0.21302(17)
H4 H 0.0412 0.3594 -0.2730
C11 C 0.3839(13) 0.5919(13) 0.1929(5)
H5 H 0.5168 0.6066 0.1949
H6 H 0.3531 0.4918 0.2231
H7 H 0.3256 0.6816 0.2233
Br2? Br 0.39867(14) 0.60029(14) 0.21232(8)
C12? C 0.289(3) 0.898(2) 0.0770(12)
H8? H 0.3223 0.9013 0.1411
H9? H 0.1695 0.9497 0.0671
H10? H 0.3811 0.9546 0.0428
loop_
_geom_bond_atom_site_label_1
_geom_bond_atom_site_label_2
_geom_bond_site_symmetry_1
_geom_bond_site_symmetry_2
Br1 C4 1_555 1_555
C1 C2 1_555 1_555
C2 C3 1_555 1_555
O1 C1 1_555 1_555
C3 C5 1_555 1_555
C4 C5 1_555 1_555
C5 O2 1_555 1_555
C6 C2 1_555 1_555
H1 C6 1_555 1_555
C7 C3 1_555 1_555
H2 C7 1_555 1_555
C8 C6 1_555 1_555
H3 C8 1_555 1_555
C9 C1 1_555 1_555
C10 C7 1_555 1_555
H4 C10 1_555 1_555
C11 C9 1_555 1_555
H5 C11 1_555 1_555
H6 C11 1_555 1_555
H7 C11 1_555 1_555
C4 C9 1_555 1_555
C8 C10 1_555 1_555

#END
