
#######################################################################
#
#                 Cambridge Crystallographic Data Centre
#                                CCDC 
#
#######################################################################
#
# If this CIF has been generated from an entry in the Cambridge 
# Structural Database, then it will include bibliographic, chemical, 
# crystal, experimental, refinement or atomic coordinate data resulting 
# from the CCDC's data processing and validation procedures.
#
#######################################################################

data_WIBGOE
_chemical_formula_moiety         'C10 H13 N1 O3 S1'
_chemical_name_systematic        
'Ethyl 4-acetyl-3-(methylthio)pyrrole-2-carboxylate'
_symmetry_cell_setting           orthorhombic
_symmetry_space_group_name_H-M   'P b c a'
_symmetry_Int_Tables_number      61
_space_group_name_Hall           '-P 2ac 2ab'
loop_
_symmetry_equiv_pos_site_id
_symmetry_equiv_pos_as_xyz
1 x,y,z
2 1/2-x,-y,1/2+z
3 1/2+x,1/2-y,-z
4 -x,1/2+y,1/2-z
5 -x,-y,-z
6 1/2+x,y,1/2-z
7 1/2-x,1/2+y,z
8 x,1/2-y,1/2+z
_cell_length_a                   14.196(5)
_cell_length_b                   9.713(5)
_cell_length_c                   15.483(5)
_cell_angle_alpha                90
_cell_angle_beta                 90
_cell_angle_gamma                90
_cell_volume                     2134.89
_exptl_crystal_colour            colorless
_exptl_crystal_description       Needle
_chemical_melting_point          '405 K'
_cell_formula_units_Z            8
loop_
_atom_site_label
_atom_site_type_symbol
_atom_site_fract_x
_atom_site_fract_y
_atom_site_fract_z
S1 S 0.39664(2) 0.94864(3) 0.06002(2)
O1 O 0.06451(7) 0.91583(10) 0.10687(6)
O2 O 0.18033(7) 0.83408(10) 0.02136(6)
O3 O 0.50075(7) 1.07275(10) 0.21617(6)
N1 N 0.18028(8) 1.06137(12) 0.20525(7)
C1 C 0.25054(9) 1.12056(13) 0.24938(8)
H1 H 0.2435 1.1743 0.2987
C2 C 0.33584(9) 1.08867(13) 0.20967(8)
C3 C 0.31366(9) 1.00647(13) 0.13540(8)
C4 C 0.21637(9) 0.98973(13) 0.13536(8)
C5 C 0.15511(9) 0.90560(13) 0.08103(8)
C6 C 0.42838(9) 1.12749(13) 0.24280(8)
C7 C 0.43283(10) 1.23615(15) 0.31195(9)
H2 H 0.4973 1.2517 0.3279
H3 H 0.3980 1.2059 0.3616
H4 H 0.4060 1.3202 0.2905
C8 C 0.34594(9) 1.00252(15) -0.04150(8)
H5 H 0.3866 0.9753 -0.0880
H6 H 0.3389 1.1008 -0.0418
H7 H 0.2854 0.9600 -0.0487
C9 C -0.00248(9) 0.83286(14) 0.05830(8)
H8 H 0.0140 0.7361 0.0621
H9 H -0.0024 0.8597 -0.0020
C10 C -0.09806(9) 0.85778(15) 0.09763(10)
H10 H -0.1444 0.8046 0.0672
H11 H -0.1134 0.9538 0.0934
H12 H -0.0972 0.8308 0.1573
H13 H 0.1213(14) 1.0650(18) 0.2195(12)
loop_
_geom_bond_atom_site_label_1
_geom_bond_atom_site_label_2
_geom_bond_site_symmetry_1
_geom_bond_site_symmetry_2
S1 C3 1_555 1_555
O1 C5 1_555 1_555
O2 C5 1_555 1_555
O3 C6 1_555 1_555
N1 C1 1_555 1_555
C1 H1 1_555 1_555
C2 C1 1_555 1_555
C3 C2 1_555 1_555
C4 N1 1_555 1_555
C5 C4 1_555 1_555
C6 C2 1_555 1_555
C7 C6 1_555 1_555
H2 C7 1_555 1_555
H3 C7 1_555 1_555
H4 C7 1_555 1_555
C8 S1 1_555 1_555
H5 C8 1_555 1_555
H6 C8 1_555 1_555
H7 C8 1_555 1_555
C9 O1 1_555 1_555
H8 C9 1_555 1_555
H9 C9 1_555 1_555
C10 C9 1_555 1_555
H10 C10 1_555 1_555
H11 C10 1_555 1_555
H12 C10 1_555 1_555
H13 N1 1_555 1_555
C3 C4 1_555 1_555

#END
