
#######################################################################
#
#                 Cambridge Crystallographic Data Centre
#                                CCDC 
#
#######################################################################
#
# If this CIF has been generated from an entry in the Cambridge 
# Structural Database, then it will include bibliographic, chemical, 
# crystal, experimental, refinement or atomic coordinate data resulting 
# from the CCDC's data processing and validation procedures.
#
#######################################################################

data_WICJID
_chemical_formula_moiety         'C32 H31 N7 O2,0.5(C2 H6 O1)'
_chemical_name_systematic        
'3-(bis(5-Amino-1-phenyl-1H-pyrazol-4-yl)methyl)-7-(diethylamino)-2H-chromen-2-one ethanol solvate'
_symmetry_cell_setting           orthorhombic
_symmetry_space_group_name_H-M   'P c a 21'
_symmetry_Int_Tables_number      29
_space_group_name_Hall           'P 2c -2ac'
loop_
_symmetry_equiv_pos_site_id
_symmetry_equiv_pos_as_xyz
1 x,y,z
2 -x,-y,1/2+z
3 1/2+x,-y,z
4 1/2-x,y,1/2+z
_cell_length_a                   21.102(5)
_cell_length_b                   12.560(3)
_cell_length_c                   22.259(6)
_cell_angle_alpha                90
_cell_angle_beta                 90
_cell_angle_gamma                90
_cell_volume                     5899.55
_exptl_crystal_colour            colorless
_exptl_crystal_description       platelet
_cell_formula_units_Z            8
loop_
_atom_site_label
_atom_site_type_symbol
_atom_site_fract_x
_atom_site_fract_y
_atom_site_fract_z
O1 O 0.88313(14) 0.0232(2) 0.24801(14)
O2 O 0.94722(16) -0.0985(3) 0.28564(15)
N1 N 1.18421(17) 0.0668(3) 0.15845(16)
N2 N 1.18190(17) 0.0068(3) 0.10683(17)
N3 N 1.12597(18) 0.0915(3) 0.25140(17)
H1 H 1.0930 0.0752 0.2738
H2 H 1.1538 0.1385 0.2642
N4 N 1.01466(18) -0.3649(3) 0.15007(17)
N5 N 1.00579(19) -0.3171(3) 0.09489(17)
N6 N 1.03318(19) -0.3161(3) 0.25356(17)
H3 H 1.0315 -0.3830 0.2650
H4 H 1.0399 -0.2656 0.2802
N7 N 0.72668(18) 0.2551(3) 0.1674(2)
C1 C 1.0406(2) -0.0854(3) 0.1948(2)
H5 H 1.0517 -0.0996 0.2377
C2 C 0.9812(2) -0.0167(3) 0.1955(2)
C3 C 0.9649(2) 0.0522(3) 0.1513(2)
H6 H 0.9934 0.0654 0.1191
C4 C 0.9046(2) 0.1056(3) 0.15300(19)
C5 C 0.8818(2) 0.1731(3) 0.1069(2)
H7 H 0.9069 0.1853 0.0722
C6 C 0.8236(2) 0.2209(4) 0.1121(2)
H8 H 0.8092 0.2654 0.0804
C7 C 0.7844(2) 0.2066(4) 0.1629(2)
C8 C 0.8072(2) 0.1391(3) 0.2084(2)
H9 H 0.7825 0.1267 0.2434
C9 C 0.8649(2) 0.0915(4) 0.2023(2)
C10 C 0.9385(2) -0.0359(3) 0.2451(2)
C11 C 0.7009(3) 0.3194(5) 0.1179(3)
H10 H 0.6541 0.3205 0.1215
H11 H 0.7115 0.2840 0.0795
C12 C 0.7244(3) 0.4327(5) 0.1154(4)
H12 H 0.7136 0.4638 0.0764
H13 H 0.7705 0.4336 0.1208
H14 H 0.7043 0.4742 0.1475
C13 C 0.6892(2) 0.2472(5) 0.2226(2)
H15 H 0.6904 0.1727 0.2370
H16 H 0.6446 0.2647 0.2132
C14 C 0.7118(3) 0.3196(5) 0.2727(3)
H17 H 0.6841 0.3114 0.3077
H18 H 0.7107 0.3937 0.2589
H19 H 0.7553 0.3005 0.2837
C15 C 1.0976(2) -0.0312(3) 0.16700(19)
C16 C 1.1341(2) 0.0431(3) 0.1958(2)
C17 C 1.1293(2) -0.0504(4) 0.1127(2)
H20 H 1.1147 -0.0993 0.0832
C18 C 1.2389(2) 0.1336(4) 0.1677(2)
C19 C 1.2364(2) 0.2207(4) 0.2056(2)
H21 H 1.1980 0.2382 0.2255
C20 C 1.2902(3) 0.2827(5) 0.2146(3)
H22 H 1.2889 0.3409 0.2418
C21 C 1.3453(2) 0.2602(5) 0.1842(3)
H23 H 1.3818 0.3033 0.1895
C22 C 1.3466(2) 0.1734(4) 0.1457(3)
H24 H 1.3847 0.1575 0.1247
C23 C 1.2946(2) 0.1101(4) 0.1373(2)
H25 H 1.2966 0.0507 0.1109
C24 C 1.02583(19) -0.1915(3) 0.1669(2)
C25 C 1.0253(2) -0.2904(3) 0.1941(2)
C26 C 1.0118(2) -0.2156(4) 0.1058(2)
H26 H 1.0073 -0.1625 0.0757
C27 C 1.0262(2) -0.4778(4) 0.1506(2)
C28 C 1.0666(2) -0.5225(4) 0.1925(2)
H27 H 1.0858 -0.4798 0.2227
C29 C 1.0786(3) -0.6304(4) 0.1895(3)
H28 H 1.1053 -0.6616 0.2189
C30 C 1.0534(3) -0.6941(4) 0.1456(3)
H29 H 1.0626 -0.7681 0.1442
C31 C 1.0142(3) -0.6471(4) 0.1035(3)
H30 H 0.9970 -0.6894 0.0722
C32 C 0.9996(2) -0.5401(4) 0.1060(2)
H31 H 0.9715 -0.5096 0.0774
O3 O 0.49761(15) 0.9965(2) 0.49646(14)
O4 O 0.43932(15) 1.1289(3) 0.53181(14)
N8 N 0.3615(2) 1.3544(3) 0.36146(18)
N9 N 0.35823(19) 1.3892(3) 0.42012(17)
N10 N 0.3419(2) 1.3187(3) 0.52044(16)
H32 H 0.3430 1.3829 0.5363
H33 H 0.3363 1.2627 0.5436
N11 N 0.20040(18) 0.9357(3) 0.40282(16)
N12 N 0.21035(19) 0.9845(3) 0.34789(17)
N13 N 0.2421(2) 0.9362(3) 0.50311(18)
H34 H 0.2707 0.9591 0.5289
H35 H 0.2133 0.8897 0.5146
N14 N 0.6431(2) 0.7405(4) 0.4178(2)
C33 C 0.3361(2) 1.1018(3) 0.44827(19)
H36 H 0.3241 1.1089 0.4915
C34 C 0.3977(2) 1.0378(3) 0.44663(19)
C35 C 0.4126(2) 0.9666(3) 0.4033(2)
H37 H 0.3831 0.9538 0.3720
C36 C 0.4712(2) 0.9101(3) 0.4032(2)
C37 C 0.4903(2) 0.8374(4) 0.3589(2)
H38 H 0.4639 0.8258 0.3250
C38 C 0.5462(2) 0.7831(4) 0.3635(2)
H39 H 0.5581 0.7359 0.3321
C39 C 0.5871(2) 0.7951(4) 0.4140(2)
C40 C 0.5678(2) 0.8679(4) 0.4593(2)
H40 H 0.5928 0.8780 0.4943
C41 C 0.5117(2) 0.9241(3) 0.4516(2)
C42 C 0.4435(2) 1.0607(4) 0.4936(2)
C43 C 0.6664(3) 0.6792(5) 0.3661(3)
H41 H 0.7132 0.6769 0.3676
H42 H 0.6541 0.7165 0.3287
C44 C 0.6418(4) 0.5690(5) 0.3640(4)
H43 H 0.6517 0.5373 0.3248
H44 H 0.5957 0.5698 0.3697
H45 H 0.6615 0.5267 0.3959
C45 C 0.6792(2) 0.7362(5) 0.4736(3)
H46 H 0.6784 0.8074 0.4926
H47 H 0.7239 0.7192 0.4640
C46 C 0.6545(3) 0.6546(5) 0.5184(3)
H48 H 0.6796 0.6584 0.5554
H49 H 0.6581 0.5831 0.5011
H50 H 0.6100 0.6698 0.5275
C47 C 0.3476(2) 1.2130(3) 0.42516(19)
C48 C 0.3565(2) 1.2490(4) 0.3655(2)
H51 H 0.3586 1.2027 0.3318
C49 C 0.3493(2) 1.3056(4) 0.4585(2)
C50 C 0.3569(2) 1.5010(4) 0.4317(2)
C51 C 0.4004(3) 1.5456(4) 0.4697(2)
H52 H 0.4311 1.5030 0.4894
C52 C 0.3982(3) 1.6563(5) 0.4788(3)
H53 H 0.4279 1.6885 0.5052
C53 C 0.3548(3) 1.7178(4) 0.4507(3)
H54 H 0.3539 1.7925 0.4574
C54 C 0.3125(3) 1.6719(4) 0.4131(3)
H55 H 0.2822 1.7153 0.3932
C55 C 0.3124(2) 1.5627(4) 0.4030(2)
H56 H 0.2822 1.5314 0.3767
C56 C 0.2823(2) 1.0444(4) 0.4176(2)
C57 C 0.2425(2) 0.9726(3) 0.4455(2)
C58 C 0.2600(2) 1.0478(4) 0.3581(2)
H57 H 0.2786 1.0913 0.3279
C59 C 0.1485(2) 0.8643(4) 0.41050(19)
C60 C 0.0906(2) 0.8857(4) 0.38384(19)
H58 H 0.0853 0.9483 0.3604
C61 C 0.0406(2) 0.8164(4) 0.3912(2)
H59 H 0.0012 0.8314 0.3722
C62 C 0.0465(2) 0.7255(4) 0.4255(2)
H60 H 0.0114 0.6795 0.4314
C63 C 0.1050(3) 0.7026(4) 0.4513(2)
H61 H 0.1101 0.6391 0.4740
C64 C 0.1559(2) 0.7709(4) 0.4444(2)
H62 H 0.1955 0.7548 0.4625
O5 O 0.5514(3) 0.5244(4) -0.2060(3)
H63 H 0.5776 0.5609 -0.1865
C65 C 0.6186(5) 0.4332(8) -0.2630(4)
H64 H 0.6024 0.4849 -0.2922
H65 H 0.6304 0.3674 -0.2839
H66 H 0.6559 0.4628 -0.2428
C66 C 0.5708(4) 0.4107(7) -0.2198(5)
H67 H 0.5880 0.3738 -0.1840
H68 H 0.5355 0.3687 -0.2370
loop_
_geom_bond_atom_site_label_1
_geom_bond_atom_site_label_2
_geom_bond_site_symmetry_1
_geom_bond_site_symmetry_2
O1 C9 1_555 1_555
O2 C10 1_555 1_555
N1 N2 1_555 1_555
N2 C17 1_555 1_555
N3 H1 1_555 1_555
H2 N3 1_555 1_555
N4 N5 1_555 1_555
N5 C26 1_555 1_555
N6 H3 1_555 1_555
H4 N6 1_555 1_555
N7 C7 1_555 1_555
C1 H5 1_555 1_555
C2 C1 1_555 1_555
C3 C2 1_555 1_555
H6 C3 1_555 1_555
C4 C3 1_555 1_555
C5 C4 1_555 1_555
H7 C5 1_555 1_555
C6 C5 1_555 1_555
H8 C6 1_555 1_555
C7 C6 1_555 1_555
C8 C7 1_555 1_555
H9 C8 1_555 1_555
C9 C4 1_555 1_555
C10 O1 1_555 1_555
C11 N7 1_555 1_555
H10 C11 1_555 1_555
H11 C11 1_555 1_555
C12 C11 1_555 1_555
H12 C12 1_555 1_555
H13 C12 1_555 1_555
H14 C12 1_555 1_555
C13 N7 1_555 1_555
H15 C13 1_555 1_555
H16 C13 1_555 1_555
C14 C13 1_555 1_555
H17 C14 1_555 1_555
H18 C14 1_555 1_555
H19 C14 1_555 1_555
C15 C1 1_555 1_555
C16 N1 1_555 1_555
C17 C15 1_555 1_555
H20 C17 1_555 1_555
C18 N1 1_555 1_555
C19 C18 1_555 1_555
H21 C19 1_555 1_555
C20 C19 1_555 1_555
H22 C20 1_555 1_555
C21 C20 1_555 1_555
H23 C21 1_555 1_555
C22 C21 1_555 1_555
H24 C22 1_555 1_555
C23 C18 1_555 1_555
H25 C23 1_555 1_555
C24 C1 1_555 1_555
C25 N4 1_555 1_555
C26 C24 1_555 1_555
H26 C26 1_555 1_555
C27 N4 1_555 1_555
C28 C27 1_555 1_555
H27 C28 1_555 1_555
C29 C28 1_555 1_555
H28 C29 1_555 1_555
C30 C29 1_555 1_555
H29 C30 1_555 1_555
C31 C30 1_555 1_555
H30 C31 1_555 1_555
C32 C27 1_555 1_555
H31 C32 1_555 1_555
O3 C41 1_555 1_555
O4 C42 1_555 1_555
N8 N9 1_555 1_555
N9 C49 1_555 1_555
N10 H32 1_555 1_555
H33 N10 1_555 1_555
N11 N12 1_555 1_555
N12 C58 1_555 1_555
N13 H34 1_555 1_555
H35 N13 1_555 1_555
N14 C39 1_555 1_555
C33 H36 1_555 1_555
C34 C33 1_555 1_555
C35 C34 1_555 1_555
H37 C35 1_555 1_555
C36 C35 1_555 1_555
C37 C36 1_555 1_555
H38 C37 1_555 1_555
C38 C37 1_555 1_555
H39 C38 1_555 1_555
C39 C38 1_555 1_555
C40 C39 1_555 1_555
H40 C40 1_555 1_555
C41 C36 1_555 1_555
C42 O3 1_555 1_555
C43 N14 1_555 1_555
H41 C43 1_555 1_555
H42 C43 1_555 1_555
C44 C43 1_555 1_555
H43 C44 1_555 1_555
H44 C44 1_555 1_555
H45 C44 1_555 1_555
C45 N14 1_555 1_555
H46 C45 1_555 1_555
H47 C45 1_555 1_555
C46 C45 1_555 1_555
H48 C46 1_555 1_555
H49 C46 1_555 1_555
H50 C46 1_555 1_555
C47 C33 1_555 1_555
C48 N8 1_555 1_555
H51 C48 1_555 1_555
C49 N10 1_555 1_555
C50 N9 1_555 1_555
C51 C50 1_555 1_555
H52 C51 1_555 1_555
C52 C51 1_555 1_555
H53 C52 1_555 1_555
C53 C52 1_555 1_555
H54 C53 1_555 1_555
C54 C53 1_555 1_555
H55 C54 1_555 1_555
C55 C50 1_555 1_555
H56 C55 1_555 1_555
C56 C33 1_555 1_555
C57 N11 1_555 1_555
C58 C56 1_555 1_555
H57 C58 1_555 1_555
C59 N11 1_555 1_555
C60 C59 1_555 1_555
H58 C60 1_555 1_555
C61 C60 1_555 1_555
H59 C61 1_555 1_555
C62 C61 1_555 1_555
H60 C62 1_555 1_555
C63 C62 1_555 1_555
H61 C63 1_555 1_555
C64 C59 1_555 1_555
H62 C64 1_555 1_555
O5 H63 1_555 1_555
C65 H64 1_555 1_555
H65 C65 1_555 1_555
H66 C65 1_555 1_555
C66 O5 1_555 1_555
H67 C66 1_555 1_555
H68 C66 1_555 1_555
N3 C16 1_555 1_555
N6 C25 1_555 1_555
C2 C10 1_555 1_555
C8 C9 1_555 1_555
C15 C16 1_555 1_555
C22 C23 1_555 1_555
C24 C25 1_555 1_555
C31 C32 1_555 1_555
N13 C57 1_555 1_555
C34 C42 1_555 1_555
C40 C41 1_555 1_555
C47 C48 1_555 1_555
C47 C49 1_555 1_555
C54 C55 1_555 1_555
C56 C57 1_555 1_555
C63 C64 1_555 1_555
C65 C66 1_555 1_555

#END
