
#######################################################################
#
#                 Cambridge Crystallographic Data Centre
#                                CCDC 
#
#######################################################################
#
# If this CIF has been generated from an entry in the Cambridge 
# Structural Database, then it will include bibliographic, chemical, 
# crystal, experimental, refinement or atomic coordinate data resulting 
# from the CCDC's data processing and validation procedures.
#
#######################################################################

data_WICJOJ
_chemical_formula_moiety         'C25 H24 N4 O2'
_chemical_name_systematic        
9-(Diethylamino)-3,5-dimethyl-1-phenylchromeno[4,3-d]pyrazolo[3,4-b]pyridin-6(3H)-one
_symmetry_cell_setting           triclinic
_symmetry_space_group_name_H-M   'P -1'
_symmetry_Int_Tables_number      2
_space_group_name_Hall           '-P 1'
loop_
_symmetry_equiv_pos_site_id
_symmetry_equiv_pos_as_xyz
1 x,y,z
2 -x,-y,-z
_cell_length_a                   9.573(4)
_cell_length_b                   9.815(4)
_cell_length_c                   11.061(4)
_cell_angle_alpha                92.907(7)
_cell_angle_beta                 95.692(7)
_cell_angle_gamma                94.927(7)
_cell_volume                     1028.49
_exptl_crystal_colour            colorless
_exptl_crystal_description       platelet
_cell_formula_units_Z            2
loop_
_atom_site_label
_atom_site_type_symbol
_atom_site_fract_x
_atom_site_fract_y
_atom_site_fract_z
O1 O 0.05784(19) 0.34385(19) 0.86799(16)
O2 O 0.0926(2) 0.3589(2) 0.67710(18)
N1 N 0.5508(2) 0.8300(2) 1.0416(2)
N2 N 0.5549(2) 0.8029(2) 0.9204(2)
N3 N 0.4365(2) 0.6581(2) 0.7582(2)
N4 N -0.0274(2) 0.2334(2) 1.26747(19)
C1 C 0.4531(3) 0.7396(3) 1.0767(2)
C2 C 0.4586(3) 0.6990(3) 0.8767(3)
C3 C 0.3323(3) 0.5603(3) 0.7298(2)
C4 C 0.2544(3) 0.4987(3) 0.8206(2)
C5 C 0.1351(3) 0.3981(3) 0.7806(3)
C6 C 0.1003(3) 0.3662(3) 0.9903(2)
C7 C 0.0208(3) 0.2908(3) 1.0648(2)
H1 H -0.0570 0.2299 1.0301
C8 C 0.0535(3) 0.3032(3) 1.1914(2)
C9 C 0.1769(3) 0.3885(3) 1.2358(2)
H2 H 0.2066 0.3953 1.3206
C10 C 0.2542(3) 0.4613(3) 1.1590(2)
H3 H 0.3370 0.5161 1.1924
C11 C 0.2161(3) 0.4582(3) 1.0327(2)
C12 C 0.2877(3) 0.5359(3) 0.9457(2)
C13 C 0.3914(3) 0.6493(3) 0.9747(2)
C14 C 0.4191(3) 0.7632(3) 1.2034(2)
C15 C 0.2791(3) 0.7649(3) 1.2288(3)
H4 H 0.2048 0.7433 1.1654
C16 C 0.2479(3) 0.7977(3) 1.3454(3)
H5 H 0.1525 0.7966 1.3623
C17 C 0.3547(3) 0.8319(3) 1.4369(3)
H6 H 0.3330 0.8556 1.5169
C18 C 0.4933(3) 0.8321(3) 1.4131(3)
H7 H 0.5668 0.8562 1.4767
C19 C 0.5263(3) 0.7972(3) 1.2968(3)
H8 H 0.6220 0.7965 1.2811
C20 C 0.6420(3) 0.8920(3) 0.8519(3)
H9 H 0.6311 0.8584 0.7662
H10 H 0.7410 0.8928 0.8848
H11 H 0.6128 0.9852 0.8583
C21 C 0.3066(3) 0.5181(3) 0.5961(2)
H12 H 0.3791 0.5656 0.5529
H13 H 0.2134 0.5423 0.5639
H14 H 0.3104 0.4189 0.5844
C22 C -0.1439(3) 0.1334(3) 1.2187(3)
H15 H -0.1970 0.1723 1.1492
H16 H -0.2088 0.1192 1.2822
C23 C -0.1003(3) -0.0049(3) 1.1764(3)
H17 H -0.1831 -0.0619 1.1372
H18 H -0.0592 -0.0503 1.2466
H19 H -0.0303 0.0082 1.1181
C24 C 0.0117(3) 0.2421(3) 1.3991(2)
H20 H -0.0739 0.2200 1.4403
H21 H 0.0482 0.3377 1.4251
C25 C 0.1217(3) 0.1475(3) 1.4404(3)
H22 H 0.1416 0.1577 1.5292
H23 H 0.2085 0.1712 1.4029
H24 H 0.0863 0.0525 1.4159
loop_
_geom_bond_atom_site_label_1
_geom_bond_atom_site_label_2
_geom_bond_site_symmetry_1
_geom_bond_site_symmetry_2
O1 C5 1_555 1_555
O2 C5 1_555 1_555
N1 N2 1_555 1_555
N2 C2 1_555 1_555
N3 C2 1_555 1_555
N4 C8 1_555 1_555
C1 N1 1_555 1_555
C2 C13 1_555 1_555
C3 N3 1_555 1_555
C4 C3 1_555 1_555
C5 C4 1_555 1_555
C6 O1 1_555 1_555
C7 C6 1_555 1_555
H1 C7 1_555 1_555
C8 C7 1_555 1_555
C9 C8 1_555 1_555
H2 C9 1_555 1_555
C10 C9 1_555 1_555
H3 C10 1_555 1_555
C11 C6 1_555 1_555
C12 C4 1_555 1_555
C13 C1 1_555 1_555
C14 C1 1_555 1_555
C15 C14 1_555 1_555
H4 C15 1_555 1_555
C16 C15 1_555 1_555
H5 C16 1_555 1_555
C17 C16 1_555 1_555
H6 C17 1_555 1_555
C18 C17 1_555 1_555
H7 C18 1_555 1_555
C19 C14 1_555 1_555
H8 C19 1_555 1_555
C20 N2 1_555 1_555
H9 C20 1_555 1_555
H10 C20 1_555 1_555
H11 C20 1_555 1_555
C21 C3 1_555 1_555
H12 C21 1_555 1_555
H13 C21 1_555 1_555
H14 C21 1_555 1_555
C22 N4 1_555 1_555
H15 C22 1_555 1_555
H16 C22 1_555 1_555
C23 C22 1_555 1_555
H17 C23 1_555 1_555
H18 C23 1_555 1_555
H19 C23 1_555 1_555
C24 N4 1_555 1_555
H20 C24 1_555 1_555
H21 C24 1_555 1_555
C25 C24 1_555 1_555
H22 C25 1_555 1_555
H23 C25 1_555 1_555
H24 C25 1_555 1_555
C10 C11 1_555 1_555
C11 C12 1_555 1_555
C12 C13 1_555 1_555
C18 C19 1_555 1_555

#END
