
#######################################################################
#
#                 Cambridge Crystallographic Data Centre
#                                CCDC 
#
#######################################################################
#
# If this CIF has been generated from an entry in the Cambridge 
# Structural Database, then it will include bibliographic, chemical, 
# crystal, experimental, refinement or atomic coordinate data resulting 
# from the CCDC's data processing and validation procedures.
#
#######################################################################

data_WIDVOW
_chemical_formula_moiety         'C19 H29 N1 O3 S1'
_chemical_name_systematic        
'4-((t-Butylsulfinyl)amino)-4,5-dimethylhex-1-en-3-yl benzoate'
_symmetry_cell_setting           monoclinic
_symmetry_space_group_name_H-M   'P 21'
_symmetry_Int_Tables_number      4
_space_group_name_Hall           'P 2yb'
loop_
_symmetry_equiv_pos_site_id
_symmetry_equiv_pos_as_xyz
1 x,y,z
2 -x,1/2+y,-z
_cell_length_a                   9.2088(19)
_cell_length_b                   10.632(2)
_cell_length_c                   10.884(2)
_cell_angle_alpha                90
_cell_angle_beta                 108.969(2)
_cell_angle_gamma                90
_cell_volume                     1007.76
_exptl_crystal_colour            colorless
_cell_formula_units_Z            2
loop_
_atom_site_label
_atom_site_type_symbol
_atom_site_fract_x
_atom_site_fract_y
_atom_site_fract_z
S1 S -0.02705(7) 0.16656(7) 0.79175(6)
O1 O 0.1072(2) 0.34962(19) 0.64944(18)
N1 N -0.1563(2) 0.1955(2) 0.6481(2)
H1 H -0.2206 0.1373 0.6115
C1 C -0.1654(3) 0.3167(3) 0.5806(2)
C2 C 0.2249(3) 0.4204(3) 0.6421(3)
O2 O 0.0910(2) 0.0786(2) 0.7761(2)
C3 C 0.3514(3) 0.4267(3) 0.7685(3)
O3 O 0.2252(2) 0.4738(2) 0.5458(2)
C4 C -0.3146(3) 0.3105(3) 0.4604(3)
H2 H -0.2998 0.2429 0.4044
C5 C -0.0270(3) 0.3375(3) 0.5325(2)
H3 H -0.0414 0.4158 0.4825
C6 C -0.1459(3) 0.0718(3) 0.8656(3)
C7 C 0.3608(3) 0.3473(3) 0.8705(3)
H4 H 0.2869 0.2852 0.8616
C8 C 0.0007(3) 0.2319(3) 0.4523(3)
H5 H 0.0436 0.1580 0.4944
C9 C 0.4645(3) 0.5173(3) 0.7823(3)
H6 H 0.4601 0.5700 0.7129
C10 C 0.5823(4) 0.5295(4) 0.8971(4)
H7 H 0.6574 0.5904 0.9053
C11 C 0.5901(4) 0.4519(4) 1.0007(3)
H8 H 0.6688 0.4619 1.0793
C12 C -0.1744(4) 0.4240(3) 0.6723(3)
H9 H -0.2635 0.4129 0.6986
H10 H -0.1814 0.5031 0.6281
H11 H -0.0840 0.4233 0.7476
C13 C -0.4571(3) 0.2770(4) 0.4955(4)
H12 H -0.4806 0.3444 0.5446
H13 H -0.4383 0.2014 0.5465
H14 H -0.5421 0.2640 0.4174
C14 C 0.4812(4) 0.3598(4) 0.9874(4)
H15 H 0.4878 0.3058 1.0562
C15 C -0.3444(4) 0.4314(4) 0.3789(3)
H16 H -0.4338 0.4205 0.3038
H17 H -0.2572 0.4493 0.3518
H18 H -0.3608 0.5001 0.4302
C16 C -0.0338(5) 0.0292(5) 0.9965(4)
H19 H 0.0126 0.1016 1.0467
H20 H 0.0446 -0.0226 0.9822
H21 H -0.0883 -0.0181 1.0427
C17 C -0.2658(5) 0.1569(5) 0.8844(4)
H22 H -0.3468 0.1676 0.8032
H23 H -0.2210 0.2373 0.9151
H24 H -0.3068 0.1208 0.9470
C18 C -0.0321(4) 0.2377(4) 0.3259(3)
H25 H -0.0751 0.3105 0.2814
H26 H -0.0125 0.1691 0.2807
C19 C -0.2143(4) -0.0396(4) 0.7827(4)
H27 H -0.2724 -0.0885 0.8245
H28 H -0.1337 -0.0904 0.7709
H29 H -0.2806 -0.0113 0.6997
loop_
_geom_bond_atom_site_label_1
_geom_bond_atom_site_label_2
_geom_bond_site_symmetry_1
_geom_bond_site_symmetry_2
S1 N1 1_555 1_555
O1 C2 1_555 1_555
N1 H1 1_555 1_555
C1 N1 1_555 1_555
C2 C3 1_555 1_555
O2 S1 1_555 1_555
C3 C7 1_555 1_555
O3 C2 1_555 1_555
C4 C1 1_555 1_555
H2 C4 1_555 1_555
C5 O1 1_555 1_555
H3 C5 1_555 1_555
C6 S1 1_555 1_555
C7 H4 1_555 1_555
C8 C5 1_555 1_555
H5 C8 1_555 1_555
C9 C3 1_555 1_555
H6 C9 1_555 1_555
C10 C9 1_555 1_555
H7 C10 1_555 1_555
C11 C10 1_555 1_555
H8 C11 1_555 1_555
C12 C1 1_555 1_555
H9 C12 1_555 1_555
H10 C12 1_555 1_555
H11 C12 1_555 1_555
C13 C4 1_555 1_555
H12 C13 1_555 1_555
H13 C13 1_555 1_555
H14 C13 1_555 1_555
C14 C7 1_555 1_555
H15 C14 1_555 1_555
C15 C4 1_555 1_555
H16 C15 1_555 1_555
H17 C15 1_555 1_555
H18 C15 1_555 1_555
C16 C6 1_555 1_555
H19 C16 1_555 1_555
H20 C16 1_555 1_555
H21 C16 1_555 1_555
C17 C6 1_555 1_555
H22 C17 1_555 1_555
H23 C17 1_555 1_555
H24 C17 1_555 1_555
C18 C8 1_555 1_555
H25 C18 1_555 1_555
H26 C18 1_555 1_555
C19 C6 1_555 1_555
H27 C19 1_555 1_555
H28 C19 1_555 1_555
H29 C19 1_555 1_555
C1 C5 1_555 1_555
C11 C14 1_555 1_555

#END
