
#######################################################################
#
#                 Cambridge Crystallographic Data Centre
#                                CCDC 
#
#######################################################################
#
# If this CIF has been generated from an entry in the Cambridge 
# Structural Database, then it will include bibliographic, chemical, 
# crystal, experimental, refinement or atomic coordinate data resulting 
# from the CCDC's data processing and validation procedures.
#
#######################################################################

data_WIDXEP
_chemical_formula_moiety         'C25 H22 O6,H2 O1'
_chemical_name_systematic        
'[2-(3,5-dimethoxyphenyl)-3-(4-methoxyphenyl)-1-benzofuran-4-yl]acetic acid monohydrate'
_symmetry_cell_setting           triclinic
_symmetry_space_group_name_H-M   'P -1'
_symmetry_Int_Tables_number      2
_space_group_name_Hall           '-P 1'
loop_
_symmetry_equiv_pos_site_id
_symmetry_equiv_pos_as_xyz
1 x,y,z
2 -x,-y,-z
_cell_length_a                   12.9770(6)
_cell_length_b                   13.0856(6)
_cell_length_c                   16.2091(8)
_cell_angle_alpha                82.886(4)
_cell_angle_beta                 68.110(5)
_cell_angle_gamma                64.111(5)
_cell_volume                     2295.22
_exptl_crystal_description       block
_cell_formula_units_Z            4
loop_
_atom_site_label
_atom_site_type_symbol
_atom_site_fract_x
_atom_site_fract_y
_atom_site_fract_z
C1 C 0.6533(3) 0.3685(2) -0.00754(19)
C2 C 0.6795(2) 0.4578(2) -0.00317(19)
C3 C 0.7079(2) 0.4992(2) -0.09213(19)
C4 C 0.7501(2) 0.5817(2) -0.13555(19)
C5 C 0.7700(3) 0.5927(3) -0.2253(2)
H1 H 0.7951 0.6482 -0.2547
C6 C 0.7538(3) 0.5229(3) -0.2737(2)
H2 H 0.7686 0.5329 -0.3342
C7 C 0.7164(3) 0.4400(3) -0.2336(2)
H3 H 0.7056 0.3931 -0.2652
C8 C 0.6958(3) 0.4302(2) -0.14377(19)
C9 C 0.6232(3) 0.2870(2) 0.0557(2)
C10 C 0.6422(4) 0.1843(3) 0.0235(2)
H4 H 0.6682 0.1704 -0.0375
C11 C 0.6224(4) 0.1026(3) 0.0819(3)
C12 C 0.5812(3) 0.1219(3) 0.1730(2)
H5 H 0.5680 0.0667 0.2119
C13 C 0.5599(3) 0.2259(2) 0.2052(2)
C14 C 0.5813(3) 0.3085(2) 0.1480(2)
H6 H 0.5681 0.3770 0.1704
C15 C 0.6618(5) -0.0934(3) 0.0962(3)
H7 H 0.7213 -0.1056 0.1223
H8 H 0.6883 -0.1594 0.0601
H9 H 0.5842 -0.0801 0.1425
C16 C 0.5150(4) 0.3300(3) 0.3336(3)
H10 H 0.5949 0.3296 0.3094
H11 H 0.4919 0.3235 0.3970
H12 H 0.4566 0.3998 0.3205
C17 C 0.6823(2) 0.5011(2) 0.07603(18)
C18 C 0.5992(3) 0.6088(2) 0.1141(2)
H13 H 0.5384 0.6531 0.0910
C19 C 0.6043(3) 0.6525(2) 0.1858(2)
H14 H 0.5474 0.7250 0.2103
C20 C 0.6941(3) 0.5879(2) 0.2204(2)
C21 C 0.7772(3) 0.4782(2) 0.1836(2)
H15 H 0.8369 0.4334 0.2074
C22 C 0.7716(3) 0.4364(2) 0.1130(2)
H16 H 0.8281 0.3636 0.0891
C23 C 0.6354(6) 0.7378(4) 0.3209(4)
H17 H 0.6571 0.7875 0.2760
H18 H 0.6475 0.7496 0.3732
H19 H 0.5509 0.7538 0.3354
C24 C 0.7767(3) 0.6534(2) -0.0877(2)
H20 H 0.7031 0.6949 -0.0378
H21 H 0.7971 0.7088 -0.1279
C25 C 0.8799(3) 0.5863(2) -0.0537(2)
O1 O 0.66277(19) 0.35052(16) -0.09281(13)
O2 O 0.6491(4) 0.0028(2) 0.0424(2)
O3 O 0.5174(2) 0.23821(19) 0.29578(15)
O4 O 0.7106(3) 0.6227(2) 0.28830(19)
O5 O 0.8881(2) 0.64275(18) 0.00169(18)
H22 H 0.9365 0.5990 0.0249
O6 O 0.94897(19) 0.48631(17) -0.07678(17)
C26 C 0.1921(3) 0.8323(2) 0.45779(19)
C27 C 0.2099(2) 0.9255(2) 0.46461(19)
C28 C 0.2532(3) 0.9602(2) 0.37493(19)
C29 C 0.2913(3) 1.0460(2) 0.3346(2)
C30 C 0.3247(3) 1.0510(3) 0.2423(2)
H23 H 0.3486 1.1077 0.2143
C31 C 0.3238(3) 0.9743(3) 0.1904(2)
H24 H 0.3447 0.9823 0.1293
C32 C 0.2925(3) 0.8871(3) 0.2282(2)
H25 H 0.2946 0.8337 0.1939
C33 C 0.2577(3) 0.8831(2) 0.3194(2)
C34 C 0.1461(3) 0.7583(2) 0.5214(2)
C35 C 0.1621(3) 0.6560(3) 0.4912(2)
H26 H 0.2012 0.6353 0.4308
C36 C 0.1207(3) 0.5843(3) 0.5496(2)
C37 C 0.0615(3) 0.6136(3) 0.6396(2)
H27 H 0.0340 0.5653 0.6792
C38 C 0.0442(3) 0.7169(3) 0.6695(2)
C39 C 0.0851(3) 0.7902(3) 0.6120(2)
H28 H 0.0721 0.8592 0.6334
C40 C -0.0180(4) 0.8315(4) 0.7977(3)
H29 H 0.0644 0.8230 0.7823
H30 H -0.0558 0.8334 0.8612
H31 H -0.0639 0.9011 0.7753
C41 C 0.1068(4) 0.4059(3) 0.5691(3)
H32 H 0.1463 0.3827 0.6122
H33 H 0.1282 0.3405 0.5344
H34 H 0.0195 0.4419 0.5991
C42 C 0.1848(3) 0.9828(2) 0.5481(2)
C43 C 0.2589(3) 0.9353(2) 0.5990(2)
H35 H 0.3255 0.8648 0.5811
C44 C 0.2354(3) 0.9905(3) 0.6752(2)
H36 H 0.2861 0.9569 0.7082
C45 C 0.1368(3) 1.0958(3) 0.7035(2)
C46 C 0.0617(3) 1.1440(3) 0.6540(2)
H37 H -0.0058 1.2138 0.6724
C47 C 0.0872(3) 1.0882(2) 0.5778(2)
H38 H 0.0370 1.1225 0.5445
C48 C 0.0247(6) 1.2535(4) 0.8101(4)
H39 H 0.0358 1.3082 0.7664
H40 H 0.0243 1.2752 0.8647
H41 H -0.0519 1.2510 0.8203
C49 C 0.2984(3) 1.1284(2) 0.3879(2)
H42 H 0.3197 1.1838 0.3484
H43 H 0.2180 1.1689 0.4324
C50 C 0.3906(3) 1.0719(2) 0.4338(2)
O7 O 0.22167(19) 0.80410(16) 0.36970(13)
O8 O -0.0159(2) 0.7398(2) 0.75996(15)
O9 O 0.1461(3) 0.4839(2) 0.51205(17)
O10 O 0.3762(2) 1.13634(18) 0.49549(16)
H44 H 0.4199 1.0986 0.5240
O11 O 0.4707(2) 0.97594(18) 0.41380(16)
O12 O 0.1231(3) 1.1435(2) 0.77855(19)
O13 O 0.4652(2) 0.5874(3) 0.4377(2)
H45 H 0.4599 0.6512 0.4499
H46 H 0.4712 0.5846 0.3839
O14 O 0.0641(4) 0.8862(3) 0.9649(3)
H47 H -0.0134 0.9208 0.9804
H48 H 0.0872 0.9062 1.0003
loop_
_geom_bond_atom_site_label_1
_geom_bond_atom_site_label_2
_geom_bond_site_symmetry_1
_geom_bond_site_symmetry_2
C1 C2 1_555 1_555
C2 C3 1_555 1_555
C3 C4 1_555 1_555
C4 C5 1_555 1_555
C5 H1 1_555 1_555
C6 C5 1_555 1_555
H2 C6 1_555 1_555
C7 C6 1_555 1_555
H3 C7 1_555 1_555
C8 C3 1_555 1_555
C9 C1 1_555 1_555
C10 C9 1_555 1_555
H4 C10 1_555 1_555
C11 C10 1_555 1_555
C12 C11 1_555 1_555
H5 C12 1_555 1_555
C13 C12 1_555 1_555
C14 C9 1_555 1_555
H6 C14 1_555 1_555
C15 H7 1_555 1_555
H8 C15 1_555 1_555
H9 C15 1_555 1_555
C16 H10 1_555 1_555
H11 C16 1_555 1_555
H12 C16 1_555 1_555
C17 C2 1_555 1_555
C18 C17 1_555 1_555
H13 C18 1_555 1_555
C19 C18 1_555 1_555
H14 C19 1_555 1_555
C20 C19 1_555 1_555
C21 C20 1_555 1_555
H15 C21 1_555 1_555
C22 C17 1_555 1_555
H16 C22 1_555 1_555
C23 H17 1_555 1_555
H18 C23 1_555 1_555
H19 C23 1_555 1_555
C24 C4 1_555 1_555
H20 C24 1_555 1_555
H21 C24 1_555 1_555
C25 C24 1_555 1_555
O1 C1 1_555 1_555
O2 C11 1_555 1_555
O3 C13 1_555 1_555
O4 C20 1_555 1_555
O5 C25 1_555 1_555
H22 O5 1_555 1_555
O6 C25 1_555 1_555
C26 C27 1_555 1_555
C27 C28 1_555 1_555
C28 C29 1_555 1_555
C29 C30 1_555 1_555
C30 H23 1_555 1_555
C31 C30 1_555 1_555
H24 C31 1_555 1_555
C32 C31 1_555 1_555
H25 C32 1_555 1_555
C33 C28 1_555 1_555
C34 C26 1_555 1_555
C35 C34 1_555 1_555
H26 C35 1_555 1_555
C36 C35 1_555 1_555
C37 C36 1_555 1_555
H27 C37 1_555 1_555
C38 C37 1_555 1_555
C39 C34 1_555 1_555
H28 C39 1_555 1_555
C40 H29 1_555 1_555
H30 C40 1_555 1_555
H31 C40 1_555 1_555
C41 H32 1_555 1_555
H33 C41 1_555 1_555
H34 C41 1_555 1_555
C42 C27 1_555 1_555
C43 C42 1_555 1_555
H35 C43 1_555 1_555
C44 C43 1_555 1_555
H36 C44 1_555 1_555
C45 C44 1_555 1_555
C46 C45 1_555 1_555
H37 C46 1_555 1_555
C47 C42 1_555 1_555
H38 C47 1_555 1_555
C48 H39 1_555 1_555
H40 C48 1_555 1_555
H41 C48 1_555 1_555
C49 C29 1_555 1_555
H42 C49 1_555 1_555
H43 C49 1_555 1_555
C50 C49 1_555 1_555
O7 C26 1_555 1_555
O8 C38 1_555 1_555
O9 C36 1_555 1_555
O10 C50 1_555 1_555
H44 O10 1_555 1_555
O11 C50 1_555 1_555
O12 C45 1_555 1_555
O13 H45 1_555 1_555
H46 O13 1_555 1_555
O14 H47 1_555 1_555
H48 O14 1_555 1_555
C7 C8 1_555 1_555
C8 O1 1_555 1_555
C13 C14 1_555 1_555
C15 O2 1_555 1_555
C16 O3 1_555 1_555
C21 C22 1_555 1_555
C23 O4 1_555 1_555
C32 C33 1_555 1_555
C33 O7 1_555 1_555
C38 C39 1_555 1_555
C40 O8 1_555 1_555
C41 O9 1_555 1_555
C46 C47 1_555 1_555
C48 O12 1_555 1_555

#END
