
#######################################################################
#
#                 Cambridge Crystallographic Data Centre
#                                CCDC 
#
#######################################################################
#
# If this CIF has been generated from an entry in the Cambridge 
# Structural Database, then it will include bibliographic, chemical, 
# crystal, experimental, refinement or atomic coordinate data resulting 
# from the CCDC's data processing and validation procedures.
#
#######################################################################

data_WIFMUW
_chemical_formula_moiety         'C13 H10 Cl1 N1 O1 S1'
_chemical_name_systematic        
8-chloro-5-methyldibenzo[c,e][1,2]thiazin-5-one
_symmetry_cell_setting           monoclinic
_symmetry_space_group_name_H-M   'P 21/n'
_symmetry_Int_Tables_number      14
_space_group_name_Hall           '-P 2yn'
loop_
_symmetry_equiv_pos_site_id
_symmetry_equiv_pos_as_xyz
1 x,y,z
2 1/2-x,1/2+y,1/2-z
3 -x,-y,-z
4 1/2+x,1/2-y,1/2+z
_cell_length_a                   10.4863(2)
_cell_length_b                   9.6208(2)
_cell_length_c                   12.3830(2)
_cell_angle_alpha                90
_cell_angle_beta                 111.484(2)
_cell_angle_gamma                90
_cell_volume                     1162.48
_exptl_crystal_colour            colorless
_exptl_crystal_description       block
_cell_formula_units_Z            4
loop_
_atom_site_label
_atom_site_type_symbol
_atom_site_fract_x
_atom_site_fract_y
_atom_site_fract_z
Cl1 Cl 0.32027(7) 0.95211(7) 0.56069(7)
S1 S 0.79605(5) 0.55815(5) 0.52740(4)
O1 O 0.89577(16) 0.66037(18) 0.52235(15)
N1 N 0.68852(19) 0.6014(2) 0.57867(16)
C1 C 0.7072(2) 0.4956(2) 0.38718(18)
C2 C 0.7611(2) 0.3922(3) 0.3378(2)
H1 H 0.845(4) 0.351(4) 0.376(3)
C3 C 0.6898(3) 0.3527(3) 0.2248(2)
H2 H 0.727(3) 0.284(4) 0.194(3)
C4 C 0.5664(3) 0.4182(3) 0.1616(2)
H3 H 0.517(3) 0.395(3) 0.080(3)
C5 C 0.5138(2) 0.5208(3) 0.2105(2)
H4 H 0.433(4) 0.565(3) 0.162(3)
C6 C 0.5823(2) 0.5624(2) 0.32687(19)
C7 C 0.5253(2) 0.6663(2) 0.38341(18)
C8 C 0.4148(2) 0.7515(3) 0.3192(2)
H5 H 0.383(3) 0.750(4) 0.234(3)
C9 C 0.3534(2) 0.8414(3) 0.3719(2)
H6 H 0.281(3) 0.897(4) 0.328(3)
C10 C 0.4009(2) 0.8444(2) 0.4925(2)
C11 C 0.5103(2) 0.7647(2) 0.5593(2)
H7 H 0.546(3) 0.762(3) 0.646(3)
C12 C 0.5765(2) 0.6774(2) 0.50564(18)
C13 C 0.8856(3) 0.4209(3) 0.6160(2)
H8 H 0.918(4) 0.455(4) 0.688(4)
H9 H 0.958(3) 0.387(3) 0.585(3)
H10 H 0.829(4) 0.348(4) 0.610(3)
loop_
_geom_bond_atom_site_label_1
_geom_bond_atom_site_label_2
_geom_bond_site_symmetry_1
_geom_bond_site_symmetry_2
Cl1 C10 1_555 1_555
S1 O1 1_555 1_555
N1 S1 1_555 1_555
C1 S1 1_555 1_555
C2 C1 1_555 1_555
H1 C2 1_555 1_555
C3 C2 1_555 1_555
H2 C3 1_555 1_555
C4 C3 1_555 1_555
H3 C4 1_555 1_555
C5 C4 1_555 1_555
H4 C5 1_555 1_555
C6 C1 1_555 1_555
C7 C6 1_555 1_555
C8 C7 1_555 1_555
H5 C8 1_555 1_555
C9 C8 1_555 1_555
H6 C9 1_555 1_555
C10 C9 1_555 1_555
C11 C10 1_555 1_555
H7 C11 1_555 1_555
C12 N1 1_555 1_555
C13 S1 1_555 1_555
H8 C13 1_555 1_555
H9 C13 1_555 1_555
H10 C13 1_555 1_555
C5 C6 1_555 1_555
C7 C12 1_555 1_555
C11 C12 1_555 1_555

#END
