
#######################################################################
#
#                 Cambridge Crystallographic Data Centre
#                                CCDC 
#
#######################################################################
#
# If this CIF has been generated from an entry in the Cambridge 
# Structural Database, then it will include bibliographic, chemical, 
# crystal, experimental, refinement or atomic coordinate data resulting 
# from the CCDC's data processing and validation procedures.
#
#######################################################################

data_WIGXIU
_chemical_formula_moiety         'C7 H9 N3 O3 S1'
_chemical_name_systematic        2-(Hydrazinocarbonyl)benzenesulfonamide
_symmetry_cell_setting           monoclinic
_symmetry_space_group_name_H-M   'C 2/c'
_symmetry_Int_Tables_number      15
_space_group_name_Hall           '-C 2yn'
loop_
_symmetry_equiv_pos_site_id
_symmetry_equiv_pos_as_xyz
1 x,y,z
2 1/2+x,1/2+y,z
3 -x,y,1/2-z
4 1/2-x,1/2+y,1/2-z
5 -x,-y,-z
6 1/2-x,1/2-y,-z
7 x,-y,1/2+z
8 1/2+x,1/2-y,1/2+z
_cell_length_a                   11.857(2)
_cell_length_b                   11.562(2)
_cell_length_c                   13.840(3)
_cell_angle_alpha                90
_cell_angle_beta                 111.72(3)
_cell_angle_gamma                90
_cell_volume                     1762.63
_exptl_crystal_colour            colorless
_exptl_crystal_description       prism
_chemical_melting_point          '451 K'
_cell_formula_units_Z            8
_exptl_crystal_recrystallization_method ethanol
loop_
_atom_site_label
_atom_site_type_symbol
_atom_site_fract_x
_atom_site_fract_y
_atom_site_fract_z
S1 S 0.24521(2) 0.16461(2) 0.24825(2)
O1 O 0.31684(8) 0.08049(8) 0.32136(7)
O2 O 0.21968(8) 0.27287(7) 0.28704(7)
O3 O 0.09252(8) 0.32950(7) 0.05596(7)
N1 N 0.31502(10) 0.19390(10) 0.17075(9)
H1 H 0.3400(16) 0.1340(16) 0.1522(14)
H2 H 0.2715(16) 0.2362(16) 0.1226(14)
N2 N -0.06435(9) 0.36156(9) 0.10942(8)
H3 H -0.1060(16) 0.3347(14) 0.1388(14)
N3 N -0.07007(10) 0.48286(9) 0.09366(9)
H4 H 0.0043(17) 0.5084(15) 0.1227(13)
H5 H -0.0961(16) 0.4945(15) 0.0253(15)
C1 C 0.10417(10) 0.10049(10) 0.17415(9)
C2 C 0.00556(10) 0.16743(9) 0.11057(9)
C3 C -0.10350(11) 0.11141(11) 0.05679(9)
H6 H -0.1706 0.1541 0.0158
C4 C -0.11318(11) -0.00830(11) 0.06378(9)
H7 H -0.1867 -0.0447 0.0275
C5 C -0.01455(12) -0.07293(10) 0.12401(10)
H8 H -0.0209 -0.1529 0.1267
C6 C 0.09466(11) -0.01826(10) 0.18084(9)
H9 H 0.1608 -0.0613 0.2230
C7 C 0.01711(10) 0.29415(10) 0.09073(9)
loop_
_geom_bond_atom_site_label_1
_geom_bond_atom_site_label_2
_geom_bond_site_symmetry_1
_geom_bond_site_symmetry_2
S1 O1 1_555 1_555
O2 S1 1_555 1_555
O3 C7 1_555 1_555
N1 S1 1_555 1_555
H1 N1 1_555 1_555
H2 N1 1_555 1_555
N2 H3 1_555 1_555
N3 N2 1_555 1_555
H4 N3 1_555 1_555
H5 N3 1_555 1_555
C1 S1 1_555 1_555
C2 C1 1_555 1_555
C3 C2 1_555 1_555
H6 C3 1_555 1_555
C4 C3 1_555 1_555
H7 C4 1_555 1_555
C5 C4 1_555 1_555
H8 C5 1_555 1_555
C6 C1 1_555 1_555
H9 C6 1_555 1_555
C7 N2 1_555 1_555
C2 C7 1_555 1_555
C5 C6 1_555 1_555

#END
