
#######################################################################
#
#                 Cambridge Crystallographic Data Centre
#                                CCDC 
#
#######################################################################
#
# If this CIF has been generated from an entry in the Cambridge 
# Structural Database, then it will include bibliographic, chemical, 
# crystal, experimental, refinement or atomic coordinate data resulting 
# from the CCDC's data processing and validation procedures.
#
#######################################################################

data_WIHGEC
_chemical_formula_moiety         'C72 H48 O2'
_chemical_name_systematic        
9,20-dimesityl-1,12-dimethoxy-9,20-dihydrodicorannuleno[1,10-ab:1',10'-jk]tetracene
_symmetry_cell_setting           monoclinic
_symmetry_space_group_name_H-M   'P 21/c'
_symmetry_Int_Tables_number      14
_space_group_name_Hall           '-P 2ybc'
loop_
_symmetry_equiv_pos_site_id
_symmetry_equiv_pos_as_xyz
1 x,y,z
2 -x,1/2+y,1/2-z
3 -x,-y,-z
4 x,1/2-y,1/2+z
_cell_length_a                   10.7377(4)
_cell_length_b                   7.2096(3)
_cell_length_c                   30.6438(10)
_cell_angle_alpha                90
_cell_angle_beta                 97.730(3)
_cell_angle_gamma                90
_cell_volume                     2350.72
_exptl_crystal_colour            brown
_exptl_crystal_description       prism
_cell_formula_units_Z            2
loop_
_atom_site_label
_atom_site_type_symbol
_atom_site_fract_x
_atom_site_fract_y
_atom_site_fract_z
C1 C 0.55673(19) 0.3091(3) 0.35604(7)
C2 C 0.6132(2) 0.3719(3) 0.32073(7)
H1 H 0.7021 0.3822 0.3240
C3 C 0.54189(19) 0.4222(3) 0.27918(7)
C4 C 0.5826(2) 0.4244(3) 0.23618(7)
H2 H 0.6693 0.4403 0.2339
C5 C 0.4989(2) 0.4040(3) 0.19840(7)
H3 H 0.5296 0.4067 0.1707
C6 C 0.3658(2) 0.3786(3) 0.19941(7)
C7 C 0.2746(2) 0.2910(3) 0.16747(7)
H4 H 0.2893 0.2870 0.1376
C8 C 0.1661(2) 0.2124(3) 0.17873(7)
H5 H 0.1078 0.1575 0.1564
C9 C 0.13936(19) 0.2116(3) 0.22344(7)
C10 C 0.0620(2) 0.0862(4) 0.24458(7)
H6 H -0.0036 0.0212 0.2271
C11 C 0.08049(19) 0.0575(4) 0.28945(7)
H7 H 0.0277 -0.0274 0.3020
C12 C 0.17789(18) 0.1533(3) 0.31784(7)
C13 C 0.24071(18) 0.0932(3) 0.36000(7)
C14 C 0.35844(18) 0.1631(3) 0.37845(6)
C15 C 0.42287(19) 0.2898(3) 0.35227(6)
C16 C 0.4135(2) 0.4286(3) 0.27904(7)
C17 C 0.32797(19) 0.4056(3) 0.24032(7)
C18 C 0.21696(19) 0.3239(3) 0.25180(7)
C19 C 0.23473(18) 0.2964(3) 0.29828(7)
C20 C 0.42848(18) 0.1073(3) 0.42125(6)
C21 C 0.36963(19) 0.0281(3) 0.45407(6)
H8 H 0.2819 0.0046 0.4484
C22 C 0.43468(18) -0.0190(3) 0.49558(6)
C23 C 0.37556(19) -0.1025(3) 0.52899(7)
H9 H 0.2882 -0.1288 0.5232
C24 C 0.43899(18) -0.1476(3) 0.56968(7)
C25 C 0.63668(19) 0.2288(3) 0.39614(7)
H10 H 0.6816 0.1211 0.3849
C26 C 0.74011(19) 0.3628(3) 0.41542(6)
C27 C 0.7106(2) 0.5284(3) 0.43548(7)
C28 C 0.8065(2) 0.6486(4) 0.45232(7)
H11 H 0.7860 0.7592 0.4666
C29 C 0.9317(2) 0.6109(4) 0.44877(7)
C30 C 0.9594(2) 0.4469(4) 0.42863(7)
H12 H 1.0446 0.4187 0.4261
C31 C 0.86578(19) 0.3217(3) 0.41186(7)
C32 C 0.5763(2) 0.5809(4) 0.43956(8)
H13 H 0.5742 0.7063 0.4518
H14 H 0.5416 0.4929 0.4591
H15 H 0.5260 0.5777 0.4104
C33 C 1.0343(2) 0.7452(4) 0.46652(8)
H16 H 1.1093 0.6758 0.4789
H17 H 1.0052 0.8220 0.4895
H18 H 1.0549 0.8249 0.4426
C34 C 0.9054(2) 0.1474(4) 0.39068(9)
H19 H 0.9972 0.1437 0.3929
H20 H 0.8689 0.1453 0.3596
H21 H 0.8758 0.0393 0.4057
O1 O 0.18335(13) -0.0502(2) 0.37973(4)
C35 C 0.2292(2) -0.2301(4) 0.36967(8)
H22 H 0.2215 -0.2457 0.3377
H23 H 0.1798 -0.3259 0.3822
H24 H 0.3177 -0.2416 0.3823
C36 C 0.35531(19) 0.3633(3) 0.31488(6)
C1B C 0.44327(19) -0.3091(3) 0.64396(7)
C2B C 0.3868(2) -0.3719(3) 0.67927(7)
H1B H 0.2979 -0.3822 0.6760
C3B C 0.45811(19) -0.4222(3) 0.72082(7)
C4B C 0.4174(2) -0.4244(3) 0.76382(7)
H2B H 0.3307 -0.4403 0.7661
C5B C 0.5011(2) -0.4040(3) 0.80160(7)
H3B H 0.4704 -0.4067 0.8293
C6B C 0.6342(2) -0.3786(3) 0.80059(7)
C7B C 0.7254(2) -0.2910(3) 0.83253(7)
H4B H 0.7107 -0.2870 0.8624
C8B C 0.8339(2) -0.2124(3) 0.82127(7)
H5B H 0.8922 -0.1575 0.8436
C9B C 0.86064(19) -0.2116(3) 0.77656(7)
C10B C 0.9380(2) -0.0862(4) 0.75542(7)
H6B H 1.0036 -0.0212 0.7729
C11B C 0.91951(19) -0.0575(4) 0.71055(7)
H7B H 0.9723 0.0274 0.6980
C12B C 0.82211(18) -0.1533(3) 0.68216(7)
C13B C 0.75929(18) -0.0932(3) 0.64000(7)
C14B C 0.64156(18) -0.1631(3) 0.62155(6)
C15B C 0.57713(19) -0.2898(3) 0.64773(6)
C16B C 0.5865(2) -0.4286(3) 0.72096(7)
C17B C 0.67203(19) -0.4056(3) 0.75968(7)
C18B C 0.78304(19) -0.3239(3) 0.74820(7)
C19B C 0.76527(18) -0.2964(3) 0.70172(7)
C20B C 0.57152(18) -0.1073(3) 0.57875(6)
C21B C 0.63037(19) -0.0281(3) 0.54593(6)
H8B H 0.7181 -0.0046 0.5516
C22B C 0.56532(18) 0.0190(3) 0.50442(6)
C23B C 0.62444(19) 0.1025(3) 0.47101(7)
H9B H 0.7118 0.1288 0.4768
C24B C 0.56101(18) 0.1476(3) 0.43032(7)
C25B C 0.36332(19) -0.2288(3) 0.60386(7)
H10B H 0.3184 -0.1211 0.6151
C26B C 0.25989(19) -0.3628(3) 0.58458(6)
C27B C 0.2894(2) -0.5284(3) 0.56452(7)
C28B C 0.1935(2) -0.6486(4) 0.54768(7)
H11B H 0.2140 -0.7592 0.5334
C29B C 0.0683(2) -0.6109(4) 0.55123(7)
C30B C 0.0406(2) -0.4469(4) 0.57137(7)
H12B H -0.0446 -0.4187 0.5739
C31B C 0.13422(19) -0.3217(3) 0.58814(7)
C32B C 0.4237(2) -0.5809(4) 0.56044(8)
H13B H 0.4258 -0.7063 0.5482
H14B H 0.4584 -0.4929 0.5409
H15B H 0.4740 -0.5777 0.5896
C33B C -0.0343(2) -0.7452(4) 0.53348(8)
H16B H -0.1093 -0.6758 0.5211
H17B H -0.0052 -0.8220 0.5105
H18B H -0.0549 -0.8249 0.5574
C34B C 0.0946(2) -0.1474(4) 0.60932(9)
H19B H 0.0028 -0.1437 0.6071
H20B H 0.1311 -0.1453 0.6404
H21B H 0.1242 -0.0393 0.5943
O1B O 0.81665(13) 0.0502(2) 0.62027(4)
C35B C 0.7708(2) 0.2301(4) 0.63033(8)
H22B H 0.7785 0.2457 0.6623
H23B H 0.8202 0.3259 0.6178
H24B H 0.6823 0.2416 0.6177
C36B C 0.64469(19) -0.3633(3) 0.68512(6)
loop_
_geom_bond_atom_site_label_1
_geom_bond_atom_site_label_2
_geom_bond_site_symmetry_1
_geom_bond_site_symmetry_2
C1 C2 1_555 1_555
C2 H1 1_555 1_555
C3 C2 1_555 1_555
C4 C3 1_555 1_555
H2 C4 1_555 1_555
C5 C4 1_555 1_555
H3 C5 1_555 1_555
C6 C5 1_555 1_555
C7 C6 1_555 1_555
H4 C7 1_555 1_555
C8 C7 1_555 1_555
H5 C8 1_555 1_555
C9 C8 1_555 1_555
C10 C9 1_555 1_555
H6 C10 1_555 1_555
C11 C10 1_555 1_555
H7 C11 1_555 1_555
C12 C11 1_555 1_555
C13 C12 1_555 1_555
C14 C13 1_555 1_555
C15 C1 1_555 1_555
C16 C3 1_555 1_555
C17 C6 1_555 1_555
C18 C9 1_555 1_555
C19 C12 1_555 1_555
C20 C14 1_555 1_555
C21 C20 1_555 1_555
H8 C21 1_555 1_555
C22 C21 1_555 1_555
C23 C22 1_555 1_555
H9 C23 1_555 1_555
C24 C23 1_555 1_555
C25 C1 1_555 1_555
H10 C25 1_555 1_555
C26 C25 1_555 1_555
C27 C26 1_555 1_555
C28 C27 1_555 1_555
H11 C28 1_555 1_555
C29 C28 1_555 1_555
C30 C29 1_555 1_555
H12 C30 1_555 1_555
C31 C26 1_555 1_555
C32 C27 1_555 1_555
H13 C32 1_555 1_555
H14 C32 1_555 1_555
H15 C32 1_555 1_555
C33 C29 1_555 1_555
H16 C33 1_555 1_555
H17 C33 1_555 1_555
H18 C33 1_555 1_555
C34 C31 1_555 1_555
H19 C34 1_555 1_555
H20 C34 1_555 1_555
H21 C34 1_555 1_555
O1 C13 1_555 1_555
C35 O1 1_555 1_555
H22 C35 1_555 1_555
H23 C35 1_555 1_555
H24 C35 1_555 1_555
C36 C15 1_555 1_555
C1B C2B 1_555 1_555
C2B H1B 1_555 1_555
C3B C2B 1_555 1_555
C4B C3B 1_555 1_555
H2B C4B 1_555 1_555
C5B C4B 1_555 1_555
H3B C5B 1_555 1_555
C6B C5B 1_555 1_555
C7B C6B 1_555 1_555
H4B C7B 1_555 1_555
C8B C7B 1_555 1_555
H5B C8B 1_555 1_555
C9B C8B 1_555 1_555
C10B C9B 1_555 1_555
H6B C10B 1_555 1_555
C11B C10B 1_555 1_555
H7B C11B 1_555 1_555
C12B C11B 1_555 1_555
C13B C12B 1_555 1_555
C14B C13B 1_555 1_555
C15B C1B 1_555 1_555
C16B C3B 1_555 1_555
C17B C6B 1_555 1_555
C18B C9B 1_555 1_555
C19B C12B 1_555 1_555
C20B C24 1_555 1_555
C21B C20B 1_555 1_555
H8B C21B 1_555 1_555
C22B C22 1_555 1_555
C23B C22B 1_555 1_555
H9B C23B 1_555 1_555
C24B C20 1_555 1_555
C25B C24 1_555 1_555
H10B C25B 1_555 1_555
C26B C25B 1_555 1_555
C27B C26B 1_555 1_555
C28B C27B 1_555 1_555
H11B C28B 1_555 1_555
C29B C28B 1_555 1_555
C30B C29B 1_555 1_555
H12B C30B 1_555 1_555
C31B C26B 1_555 1_555
C32B C27B 1_555 1_555
H13B C32B 1_555 1_555
H14B C32B 1_555 1_555
H15B C32B 1_555 1_555
C33B C29B 1_555 1_555
H16B C33B 1_555 1_555
H17B C33B 1_555 1_555
H18B C33B 1_555 1_555
C34B C31B 1_555 1_555
H19B C34B 1_555 1_555
H20B C34B 1_555 1_555
H21B C34B 1_555 1_555
O1B C13B 1_555 1_555
C35B O1B 1_555 1_555
H22B C35B 1_555 1_555
H23B C35B 1_555 1_555
H24B C35B 1_555 1_555
C36B C15B 1_555 1_555
C14 C15 1_555 1_555
C16 C17 1_555 1_555
C16 C36 1_555 1_555
C17 C18 1_555 1_555
C18 C19 1_555 1_555
C19 C36 1_555 1_555
C25 C24B 1_555 1_555
C30 C31 1_555 1_555
C1B C25B 1_555 1_555
C14B C15B 1_555 1_555
C14B C20B 1_555 1_555
C16B C17B 1_555 1_555
C16B C36B 1_555 1_555
C17B C18B 1_555 1_555
C18B C19B 1_555 1_555
C19B C36B 1_555 1_555
C21B C22B 1_555 1_555
C23B C24B 1_555 1_555
C30B C31B 1_555 1_555

#END
