
#######################################################################
#
#                 Cambridge Crystallographic Data Centre
#                                CCDC 
#
#######################################################################
#
# If this CIF has been generated from an entry in the Cambridge 
# Structural Database, then it will include bibliographic, chemical, 
# crystal, experimental, refinement or atomic coordinate data resulting 
# from the CCDC's data processing and validation procedures.
#
#######################################################################

data_WIHHUR
_chemical_name_common            'C27 H31 B F2 N2 O6'
_chemical_formula_moiety         'C27 H31 B1 F2 N2 O6'
_chemical_name_systematic        
8-(3,4-bis(Ethoxycarbonylmethoxy)phenyl)-4,4-difluoro-1,3,5,7-tetramethyl-4-bora-3a,4a-diaza-s-indacene
_symmetry_cell_setting           monoclinic
_symmetry_space_group_name_H-M   'P 21/n'
_symmetry_Int_Tables_number      14
_space_group_name_Hall           '-P 2yn'
loop_
_symmetry_equiv_pos_site_id
_symmetry_equiv_pos_as_xyz
1 x,y,z
2 1/2-x,1/2+y,1/2-z
3 -x,-y,-z
4 1/2+x,1/2-y,1/2+z
_cell_length_a                   9.6068(6)
_cell_length_b                   7.5418(6)
_cell_length_c                   36.896(2)
_cell_angle_alpha                90
_cell_angle_beta                 93.231(5)
_cell_angle_gamma                90
_cell_volume                     2668.96
_exptl_crystal_colour            red
_exptl_crystal_description       slab
_chemical_melting_point          '392 K'
_cell_formula_units_Z            4
loop_
_atom_site_label
_atom_site_type_symbol
_atom_site_fract_x
_atom_site_fract_y
_atom_site_fract_z
O1 O -0.1822(2) 0.8666(3) 0.06347(5)
O2 O -0.00951(19) 1.0920(3) 0.04268(5)
O3 O 0.2203(2) 0.9416(3) 0.02309(5)
F1 F 0.5394(2) 1.1742(3) 0.24401(5)
C1 C 0.1234(3) 1.0922(4) 0.10128(8)
H1 H 0.1871 1.1750 0.0936
O4 O 0.3274(2) 1.1992(4) 0.01361(6)
C2 C 0.0153(3) 1.0365(4) 0.07791(7)
N1 N 0.3670(3) 1.2976(4) 0.20215(7)
C3 C -0.0805(3) 0.9139(4) 0.08945(8)
N2 N 0.4885(3) 1.0196(4) 0.18797(6)
F2 F 0.61150(19) 1.2953(3) 0.19255(6)
O5 O -0.3397(2) 0.4649(3) 0.08974(7)
C4 C 0.1374(3) 1.0247(4) 0.13646(8)
O6 O -0.1254(2) 0.5049(4) 0.07078(7)
C5 C 0.2524(3) 1.2409(5) 0.17989(8)
C6 C -0.0683(3) 0.8504(5) 0.12437(8)
H2 H -0.1333 0.7701 0.1324
C7 C 0.2249(3) 1.1173(5) 0.02085(8)
C8 C -0.2360(4) 0.5594(5) 0.07760(9)
C9 C 0.2586(3) 1.0815(4) 0.16097(7)
C10 C -0.2858(3) 0.7483(5) 0.07327(9)
H3 H -0.3620 0.7518 0.0549
H4 H -0.3217 0.7874 0.0960
C11 C 0.0898(3) 1.2038(5) 0.02750(8)
H5 H 0.1075 1.3036 0.0437
H6 H 0.0502 1.2501 0.0047
C12 C 0.3740(3) 0.9695(5) 0.16491(7)
C13 C 0.0413(3) 0.9063(5) 0.14764(8)
H7 H 0.0494 0.8625 0.1712
C14 C 0.4054(3) 0.8035(5) 0.14945(8)
C15 C 0.1425(3) 1.3670(5) 0.18329(9)
C16 C 0.5842(3) 0.8895(6) 0.18741(9)
C17 C 0.5356(4) 0.7565(5) 0.16382(10)
H8 H 0.5832 0.6530 0.1586
C18 C 0.3210(4) 0.6941(5) 0.12208(9)
H9 H 0.3709 0.5874 0.1170
H10 H 0.3050 0.7609 0.1001
H11 H 0.2331 0.6641 0.1317
C19 C 0.4263(4) 1.5517(6) 0.24383(9)
H12 H 0.5151 1.4933 0.2464
H13 H 0.3863 1.5578 0.2671
H14 H 0.4384 1.6695 0.2347
C20 C 0.7207(3) 0.8948(6) 0.20889(11)
H15 H 0.7273 1.0029 0.2227
H16 H 0.7954 0.8897 0.1927
H17 H 0.7270 0.7953 0.2251
C21 C 0.3452(4) 0.8467(6) 0.01443(12)
H18 H 0.4207 0.8733 0.0321
H19 H 0.3735 0.8809 -0.0094
C22 C -0.4550(4) 0.1959(6) 0.09749(12)
H20 H -0.4454 0.0703 0.1011
H21 H -0.5098 0.2180 0.0754
H22 H -0.5004 0.2470 0.1175
C23 C 0.3318(4) 1.4503(5) 0.21813(9)
C24 C 0.1942(4) 1.4927(5) 0.20706(9)
H23 H 0.1455 1.5912 0.2147
B1 B 0.5065(4) 1.1986(6) 0.20735(10)
C25 C -0.0018(4) 1.3661(5) 0.16650(10)
H24 H -0.0504 1.4699 0.1740
H25 H -0.0498 1.2621 0.1741
H26 H 0.0015 1.3657 0.1405
C26 C -0.3184(4) 0.2748(5) 0.09514(12)
H27 H -0.2714 0.2244 0.0749
H28 H -0.2618 0.2531 0.1173
C27 C 0.3110(5) 0.6528(6) 0.01509(13)
H29 H 0.3918 0.5853 0.0095
H30 H 0.2364 0.6281 -0.0026
H31 H 0.2829 0.6207 0.0388
loop_
_geom_bond_atom_site_label_1
_geom_bond_atom_site_label_2
_geom_bond_site_symmetry_1
_geom_bond_site_symmetry_2
O1 C3 1_555 1_555
O2 C2 1_555 1_555
O3 C7 1_555 1_555
F1 B1 1_555 1_555
C1 H1 1_555 1_555
O4 C7 1_555 1_555
C2 C1 1_555 1_555
N1 C5 1_555 1_555
C3 C2 1_555 1_555
N2 C12 1_555 1_555
F2 B1 1_555 1_555
O5 C8 1_555 1_555
C4 C1 1_555 1_555
O6 C8 1_555 1_555
C5 C9 1_555 1_555
C6 C3 1_555 1_555
H2 C6 1_555 1_555
C7 C11 1_555 1_555
C8 C10 1_555 1_555
C9 C4 1_555 1_555
C10 O1 1_555 1_555
H3 C10 1_555 1_555
H4 C10 1_555 1_555
C11 O2 1_555 1_555
H5 C11 1_555 1_555
H6 C11 1_555 1_555
C12 C9 1_555 1_555
C13 C4 1_555 1_555
H7 C13 1_555 1_555
C14 C12 1_555 1_555
C15 C5 1_555 1_555
C16 N2 1_555 1_555
C17 C14 1_555 1_555
H8 C17 1_555 1_555
C18 C14 1_555 1_555
H9 C18 1_555 1_555
H10 C18 1_555 1_555
H11 C18 1_555 1_555
C19 H12 1_555 1_555
H13 C19 1_555 1_555
H14 C19 1_555 1_555
C20 C16 1_555 1_555
H15 C20 1_555 1_555
H16 C20 1_555 1_555
H17 C20 1_555 1_555
C21 O3 1_555 1_555
H18 C21 1_555 1_555
H19 C21 1_555 1_555
C22 H20 1_555 1_555
H21 C22 1_555 1_555
H22 C22 1_555 1_555
C23 N1 1_555 1_555
C24 C15 1_555 1_555
H23 C24 1_555 1_555
B1 N1 1_555 1_555
C25 C15 1_555 1_555
H24 C25 1_555 1_555
H25 C25 1_555 1_555
H26 C25 1_555 1_555
C26 O5 1_555 1_555
H27 C26 1_555 1_555
H28 C26 1_555 1_555
C27 C21 1_555 1_555
H29 C27 1_555 1_555
H30 C27 1_555 1_555
H31 C27 1_555 1_555
N2 B1 1_555 1_555
C6 C13 1_555 1_555
C16 C17 1_555 1_555
C19 C23 1_555 1_555
C22 C26 1_555 1_555
C23 C24 1_555 1_555

#END
