
#######################################################################
#
#                 Cambridge Crystallographic Data Centre
#                                CCDC 
#
#######################################################################
#
# If this CIF has been generated from an entry in the Cambridge 
# Structural Database, then it will include bibliographic, chemical, 
# crystal, experimental, refinement or atomic coordinate data resulting 
# from the CCDC's data processing and validation procedures.
#
#######################################################################

data_WIJCUN
_chemical_formula_moiety         'C18 H14 Br1 N3 O2'
_chemical_name_systematic        
2-(N-Methyl-4-bromoanilino)-5-(2-nitrophenyl)-2,4-pentadienenitrile
_symmetry_cell_setting           monoclinic
_symmetry_space_group_name_H-M   'P 21/n'
_symmetry_Int_Tables_number      14
_space_group_name_Hall           '-P 2yn'
loop_
_symmetry_equiv_pos_site_id
_symmetry_equiv_pos_as_xyz
1 x,y,z
2 1/2-x,1/2+y,1/2-z
3 -x,-y,-z
4 1/2+x,1/2-y,1/2+z
_cell_length_a                   7.310(2)
_cell_length_b                   33.393(7)
_cell_length_c                   7.582(2)
_cell_angle_alpha                90
_cell_angle_beta                 115.12(2)
_cell_angle_gamma                90
_cell_volume                     1675.74
_exptl_crystal_colour            red
_chemical_melting_point          148-150deg.C
_cell_formula_units_Z            4
loop_
_atom_site_label
_atom_site_type_symbol
_atom_site_fract_x
_atom_site_fract_y
_atom_site_fract_z
C1 C 0.5793(8) 0.27133(15) 0.0179(7)
C2 C 0.4732(10) 0.23885(14) 0.0372(8)
C3 C 0.2895(9) 0.24489(16) 0.0415(7)
C4 C 0.2107(8) 0.28262(16) 0.0265(8)
C5 C 0.3176(8) 0.31504(14) 0.0092(8)
C6 C 0.5017(8) 0.30990(13) 0.0035(7)
C7 C 0.8241(8) 0.34744(15) 0.1263(8)
C8 C 0.5200(7) 0.37668(14) -0.1185(7)
C9 C 0.3349(9) 0.36872(14) -0.2893(9)
C10 C 0.5929(7) 0.41435(14) -0.0906(7)
C11 C 0.4972(7) 0.44786(14) -0.2101(7)
C12 C 0.5749(7) 0.48473(14) -0.1768(7)
C13 C 0.4775(8) 0.52072(13) -0.2873(7)
C14 C 0.2733(8) 0.52157(15) -0.4152(9)
C15 C 0.1794(8) 0.55542(18) -0.5144(9)
C16 C 0.2849(9) 0.59065(16) -0.4881(9)
C17 C 0.4852(9) 0.59161(14) -0.3636(9)
C18 C 0.5765(8) 0.55701(15) -0.2691(7)
N1 N 0.6152(6) 0.34315(11) -0.0115(6)
N2 N 0.1921(8) 0.36351(14) -0.4285(8)
N3 N 0.7940(8) 0.55976(14) -0.1430(8)
O1 O 0.9065(7) 0.53742(15) -0.1680(8)
O2 O 0.8546(7) 0.58556(16) -0.0215(8)
Br1 Br 0.14204(12) 0.200629(18) 0.06844(11)
H1 H 0.713 0.267 0.015
H2 H 0.531 0.211 0.054
H3 H 0.068 0.285 0.024
H4 H 0.267 0.342 0.005
H5 H 0.898 0.323 0.170
H6 H 0.840 0.362 0.243
H7 H 0.889 0.363 0.063
H8 H 0.727 0.419 0.024
H9 H 0.371 0.443 -0.323
H10 H 0.711 0.489 -0.062
H11 H 0.194 0.498 -0.430
H12 H 0.041 0.554 -0.614
H13 H 0.216 0.615 -0.551
H14 H 0.562 0.617 -0.340
loop_
_geom_bond_atom_site_label_1
_geom_bond_atom_site_label_2
_geom_bond_site_symmetry_1
_geom_bond_site_symmetry_2
C1 C2 1_555 1_555
C2 C3 1_555 1_555
C3 C4 1_555 1_555
C4 C5 1_555 1_555
C5 C6 1_555 1_555
C6 C1 1_555 1_555
C7 N1 1_555 1_555
C8 C9 1_555 1_555
C9 N2 1_555 1_555
C10 C8 1_555 1_555
C11 C10 1_555 1_555
C12 C11 1_555 1_555
C13 C12 1_555 1_555
C14 C13 1_555 1_555
C15 C14 1_555 1_555
C16 C15 1_555 1_555
C17 C16 1_555 1_555
C18 C13 1_555 1_555
N1 C6 1_555 1_555
N3 C18 1_555 1_555
O1 N3 1_555 1_555
O2 N3 1_555 1_555
Br1 C3 1_555 1_555
H1 C1 1_555 1_555
H2 C2 1_555 1_555
H3 C4 1_555 1_555
H4 C5 1_555 1_555
H5 C7 1_555 1_555
H6 C7 1_555 1_555
H7 C7 1_555 1_555
H8 C10 1_555 1_555
H9 C11 1_555 1_555
H10 C12 1_555 1_555
H11 C14 1_555 1_555
H12 C15 1_555 1_555
H13 C16 1_555 1_555
H14 C17 1_555 1_555
C8 N1 1_555 1_555
C17 C18 1_555 1_555

#END
