
#######################################################################
#
#                 Cambridge Crystallographic Data Centre
#                                CCDC 
#
#######################################################################
#
# If this CIF has been generated from an entry in the Cambridge 
# Structural Database, then it will include bibliographic, chemical, 
# crystal, experimental, refinement or atomic coordinate data resulting 
# from the CCDC's data processing and validation procedures.
#
#######################################################################

data_WIJCAT
_chemical_name_common            
N-Methyl-N-(1-cyano-4-phenylbutadienyl)aniline
_chemical_formula_moiety         'C18 H16 N2'
_chemical_name_systematic        
2-(N-Methylanilino)-5-phenyl-2,4-pentadienenitrile
_symmetry_cell_setting           orthorhombic
_symmetry_space_group_name_H-M   'P b c a'
_symmetry_Int_Tables_number      61
_space_group_name_Hall           '-P 2ac 2ab'
loop_
_symmetry_equiv_pos_site_id
_symmetry_equiv_pos_as_xyz
1 x,y,z
2 1/2-x,-y,1/2+z
3 1/2+x,1/2-y,-z
4 -x,1/2+y,1/2-z
5 -x,-y,-z
6 1/2+x,y,1/2-z
7 1/2-x,1/2+y,z
8 x,1/2-y,1/2+z
_cell_length_a                   26.664(5)
_cell_length_b                   16.183(2)
_cell_length_c                   6.922(3)
_cell_angle_alpha                90
_cell_angle_beta                 90
_cell_angle_gamma                90
_cell_volume                     2986.87
_exptl_crystal_colour            yellow
_chemical_melting_point          108-110deg.C
_cell_formula_units_Z            8
loop_
_atom_site_label
_atom_site_type_symbol
_atom_site_fract_x
_atom_site_fract_y
_atom_site_fract_z
N1 N 0.64897(20) 0.1185(3) 0.8935(8)
N2 N 0.5722(3) 0.1465(4) 1.2910(10)
C1 C 0.6128(3) -0.1078(4) 0.3393(11)
C2 C 0.6200(3) -0.1484(4) 0.1673(13)
C3 C 0.5805(4) -0.1839(5) 0.0733(12)
C4 C 0.5328(4) -0.1801(5) 0.1508(13)
C5 C 0.5259(3) -0.1398(4) 0.3242(11)
C6 C 0.5645(3) -0.1019(4) 0.4190(10)
C7 C 0.55604(23) -0.0596(4) 0.6030(10)
C8 C 0.58788(23) -0.0098(4) 0.6961(10)
C9 C 0.57569(23) 0.0297(4) 0.8745(10)
C10 C 0.60357(24) 0.0864(4) 0.9657(10)
C11 C 0.5855(3) 0.1197(5) 1.1498(12)
C12 C 0.6459(3) 0.1702(5) 0.7206(11)
C13 C 0.6915(3) 0.1201(4) 1.0087(11)
C14 C 0.6957(3) 0.0650(4) 1.1636(12)
C15 C 0.7385(4) 0.0643(6) 1.2741(13)
C16 C 0.7778(4) 0.1155(8) 1.2327(19)
C17 C 0.7733(4) 0.1698(6) 1.0812(19)
C18 C 0.7309(3) 0.1720(4) 0.9692(12)
H1 H 0.642 -0.079 0.413
H2 H 0.656 -0.155 0.109
H3 H 0.587 -0.211 -0.053
H4 H 0.503 -0.208 0.074
H5 H 0.491 -0.139 0.389
H6 H 0.521 -0.066 0.668
H7 H 0.624 -0.001 0.639
H8 H 0.542 0.011 0.938
H9 H 0.680 0.192 0.679
H10 H 0.631 0.139 0.607
H11 H 0.623 0.221 0.741
H12 H 0.666 0.025 1.194
H13 H 0.743 0.022 1.389
H14 H 0.809 0.114 1.314
H15 H 0.805 0.208 1.056
H16 H 0.729 0.214 0.851
loop_
_geom_bond_atom_site_label_1
_geom_bond_atom_site_label_2
_geom_bond_site_symmetry_1
_geom_bond_site_symmetry_2
N1 C10 1_555 1_555
N2 C11 1_555 1_555
C1 C2 1_555 1_555
C2 C3 1_555 1_555
C3 C4 1_555 1_555
C4 C5 1_555 1_555
C5 C6 1_555 1_555
C6 C1 1_555 1_555
C7 C6 1_555 1_555
C8 C7 1_555 1_555
C9 C8 1_555 1_555
C10 C9 1_555 1_555
C11 C10 1_555 1_555
C12 N1 1_555 1_555
C13 N1 1_555 1_555
C14 C13 1_555 1_555
C15 C14 1_555 1_555
C16 C15 1_555 1_555
C17 C16 1_555 1_555
C18 C13 1_555 1_555
H1 C1 1_555 1_555
H2 C2 1_555 1_555
H3 C3 1_555 1_555
H4 C4 1_555 1_555
H5 C5 1_555 1_555
H6 C7 1_555 1_555
H7 C8 1_555 1_555
H8 C9 1_555 1_555
H9 C12 1_555 1_555
H10 C12 1_555 1_555
H11 C12 1_555 1_555
H12 C14 1_555 1_555
H13 C15 1_555 1_555
H14 C16 1_555 1_555
H15 C17 1_555 1_555
H16 C18 1_555 1_555
C17 C18 1_555 1_555

#END
