
#######################################################################
#
#                 Cambridge Crystallographic Data Centre
#                                CCDC 
#
#######################################################################
#
# If this CIF has been generated from an entry in the Cambridge 
# Structural Database, then it will include bibliographic, chemical, 
# crystal, experimental, refinement or atomic coordinate data resulting 
# from the CCDC's data processing and validation procedures.
#
#######################################################################

data_WIJCIB
_chemical_formula_moiety         'C18 H14 Br1 N3 O2'
_chemical_name_systematic        
2-(N-Methyl-4-bromoanilino)-5-(4-nitrophenyl)-2,4-pentadienenitrile
_symmetry_cell_setting           monoclinic
_symmetry_space_group_name_H-M   'P 21/n'
_symmetry_Int_Tables_number      14
_space_group_name_Hall           '-P 2yn'
loop_
_symmetry_equiv_pos_site_id
_symmetry_equiv_pos_as_xyz
1 x,y,z
2 1/2-x,1/2+y,1/2-z
3 -x,-y,-z
4 1/2+x,1/2-y,1/2+z
_cell_length_a                   10.349(5)
_cell_length_b                   10.474(1)
_cell_length_c                   15.910(6)
_cell_angle_alpha                90
_cell_angle_beta                 95.99(3)
_cell_angle_gamma                90
_cell_volume                     1715.16
_exptl_crystal_colour            red
_chemical_melting_point          185-186deg.C
_cell_formula_units_Z            4
loop_
_atom_site_label
_atom_site_type_symbol
_atom_site_fract_x
_atom_site_fract_y
_atom_site_fract_z
C1 C 0.4459(5) 0.0570(6) 0.1844(4)
C2 C 0.4015(7) 0.0238(6) 0.1036(4)
C3 C 0.2711(8) 0.0387(6) 0.0749(3)
C4 C 0.1876(6) 0.0872(6) 0.1279(4)
C5 C 0.2318(7) 0.1195(6) 0.2095(4)
C6 C 0.3619(7) 0.1038(5) 0.2389(4)
C7 C 0.3880(6) 0.2663(6) 0.3510(4)
C8 C 0.5081(7) 0.0672(7) 0.3677(4)
C9 C 0.5068(7) -0.0679(8) 0.3491(4)
C10 C 0.5970(7) 0.1128(6) 0.4290(4)
C11 C 0.6917(7) 0.0339(5) 0.4755(4)
C12 C 0.7805(7) 0.0784(5) 0.5347(4)
C13 C 0.8842(6) 0.0051(8) 0.5811(3)
C14 C 0.9701(7) 0.0647(6) 0.6430(4)
C15 C 1.0696(6) 0.0002(8) 0.6883(3)
C16 C 1.0844(6) -0.1257(8) 0.6721(4)
C17 C 1.0044(7) -0.1894(6) 0.6112(4)
C18 C 0.9053(7) -0.1229(7) 0.5674(4)
N1 N 0.4088(5) 0.1371(5) 0.3231(3)
N2 N 0.5108(6) -0.1741(6) 0.3375(4)
N3 N 1.1913(6) -0.1975(7) 0.7187(4)
O1 O 1.2519(4) -0.1456(5) 0.7790(3)
O2 O 1.2139(5) -0.3050(5) 0.6950(3)
Br1 Br 0.20992(8) -0.01088(9) -0.03603(4)
H1 H 0.539 0.050 0.204
H2 H 0.462 -0.010 0.065
H3 H 0.094 0.099 0.108
H4 H 0.172 0.155 0.247
H5 H 0.319 0.309 0.318
H6 H 0.368 0.269 0.409
H7 H 0.466 0.319 0.349
H8 H 0.599 0.206 0.443
H9 H 0.692 -0.056 0.462
H10 H 0.776 0.170 0.549
H11 H 0.956 0.157 0.655
H12 H 1.128 0.045 0.731
H13 H 1.018 -0.282 0.601
H14 H 0.848 -0.170 0.524
loop_
_geom_bond_atom_site_label_1
_geom_bond_atom_site_label_2
_geom_bond_site_symmetry_1
_geom_bond_site_symmetry_2
C1 C2 1_555 1_555
C2 C3 1_555 1_555
C3 C4 1_555 1_555
C4 C5 1_555 1_555
C5 C6 1_555 1_555
C6 C1 1_555 1_555
C7 N1 1_555 1_555
C8 C9 1_555 1_555
C9 N2 1_555 1_555
C10 C8 1_555 1_555
C11 C10 1_555 1_555
C12 C11 1_555 1_555
C13 C12 1_555 1_555
C14 C13 1_555 1_555
C15 C14 1_555 1_555
C16 C15 1_555 1_555
C17 C16 1_555 1_555
C18 C13 1_555 1_555
N1 C6 1_555 1_555
N3 C16 1_555 1_555
O1 N3 1_555 1_555
O2 N3 1_555 1_555
Br1 C3 1_555 1_555
H1 C1 1_555 1_555
H2 C2 1_555 1_555
H3 C4 1_555 1_555
H4 C5 1_555 1_555
H5 C7 1_555 1_555
H6 C7 1_555 1_555
H7 C7 1_555 1_555
H8 C10 1_555 1_555
H9 C11 1_555 1_555
H10 C12 1_555 1_555
H11 C14 1_555 1_555
H12 C15 1_555 1_555
H13 C17 1_555 1_555
H14 C18 1_555 1_555
C8 N1 1_555 1_555
C17 C18 1_555 1_555

#END
