
#######################################################################
#
#                 Cambridge Crystallographic Data Centre
#                                CCDC 
#
#######################################################################
#
# If this CIF has been generated from an entry in the Cambridge 
# Structural Database, then it will include bibliographic, chemical, 
# crystal, experimental, refinement or atomic coordinate data resulting 
# from the CCDC's data processing and validation procedures.
#
#######################################################################

data_WIJDEY
_chemical_formula_moiety         'C36 H30 Br2 N4'
_chemical_name_systematic        
1,3-Dicyano-1,3-bis(N-methyl-4-bromoanilino)-2,4-bis(2-phenylethenyl)cyclobutane
_symmetry_cell_setting           monoclinic
_symmetry_space_group_name_H-M   'P 21/n'
_symmetry_Int_Tables_number      14
_space_group_name_Hall           '-P 2yn'
loop_
_symmetry_equiv_pos_site_id
_symmetry_equiv_pos_as_xyz
1 x,y,z
2 1/2-x,1/2+y,1/2-z
3 -x,-y,-z
4 1/2+x,1/2-y,1/2+z
_cell_length_a                   15.122(3)
_cell_length_b                   6.693(2)
_cell_length_c                   15.733(2)
_cell_angle_alpha                90
_cell_angle_beta                 93.24(2)
_cell_angle_gamma                90
_cell_volume                     1589.82
_exptl_crystal_colour            colorless
_chemical_melting_point          190-191deg.C
_cell_formula_units_Z            2
loop_
_atom_site_label
_atom_site_type_symbol
_atom_site_fract_x
_atom_site_fract_y
_atom_site_fract_z
C1 C 0.9323(3) 0.9663(9) 0.4724(3)
C2 C 1.0269(3) 0.9783(8) 0.4358(3)
C3 C 1.0610(3) 0.7993(9) 0.3930(3)
C4 C 1.0707(4) 0.7913(9) 0.3097(3)
C5 C 1.1004(3) 0.6230(10) 0.2604(3)
C6 C 1.0874(4) 0.6241(10) 0.1721(4)
C7 C 1.1152(5) 0.4635(14) 0.1247(4)
C8 C 1.1546(5) 0.3012(12) 0.1637(5)
C9 C 1.1686(4) 0.2973(10) 0.2507(4)
C10 C 1.1413(4) 0.4570(11) 0.2985(4)
C11 C 0.8957(4) 0.7592(11) 0.4715(3)
C12 C 0.7848(3) 1.1051(10) 0.4701(3)
C13 C 0.8677(3) 1.1076(10) 0.3422(3)
C14 C 0.9015(4) 1.2710(10) 0.3015(4)
C15 C 0.9073(4) 1.2716(11) 0.2136(4)
C16 C 0.8776(4) 1.1099(14) 0.1686(3)
C17 C 0.8396(4) 0.9503(12) 0.2069(4)
C18 C 0.8349(4) 0.9505(10) 0.2949(4)
N1 N 0.8711(3) 1.1104(7) 0.43430(24)
N2 N 0.8635(4) 0.6078(9) 0.4726(3)
Br1 Br 0.89092(5) 1.10008(15) 0.04913(4)
H1 H 1.025 1.103 0.401
H2 H 1.072 0.669 0.426
H3 H 1.057 0.923 0.280
H4 H 1.062 0.750 0.140
H5 H 1.102 0.465 0.064
H6 H 1.174 0.187 0.126
H7 H 1.196 0.176 0.280
H8 H 1.153 0.457 0.360
H9 H 0.744 1.207 0.443
H10 H 0.753 0.980 0.460
H11 H 0.784 1.131 0.530
H12 H 0.921 1.389 0.335
H13 H 0.938 1.386 0.179
H14 H 0.825 0.830 0.169
H15 H 0.807 0.832 0.325
C2B C 0.9731(3) 1.0217(8) 0.5642(3)
C1B C 1.0677(3) 1.0337(9) 0.5276(3)
C3B C 0.9390(3) 1.2007(9) 0.6070(3)
H1B H 0.975 0.897 0.599
C11B C 1.1043(4) 1.2408(11) 0.5285(3)
N1B N 1.1289(3) 0.8896(7) 0.56570(24)
C4B C 0.9293(4) 1.2087(9) 0.6903(3)
H2B H 0.928 1.331 0.574
N2B N 1.1365(4) 1.3922(9) 0.5274(3)
C12B C 1.2152(3) 0.8949(10) 0.5299(3)
C13B C 1.1323(3) 0.8924(10) 0.6578(3)
C5B C 0.8996(3) 1.3770(10) 0.7396(3)
H3B H 0.943 1.077 0.720
H9B H 1.256 0.793 0.557
H10B H 1.247 1.020 0.540
H11B H 1.216 0.869 0.470
C14B C 1.0985(4) 0.7290(10) 0.6985(4)
C18B C 1.1651(4) 1.0495(10) 0.7051(4)
C6B C 0.9126(4) 1.3759(10) 0.8279(4)
C10B C 0.8587(4) 1.5430(11) 0.7015(4)
C15B C 1.0927(4) 0.7284(11) 0.7864(4)
H12B H 1.079 0.611 0.665
C17B C 1.1604(4) 1.0497(12) 0.7931(4)
H15B H 1.193 1.168 0.675
C7B C 0.8848(5) 1.5365(14) 0.8753(4)
H4B H 0.938 1.250 0.860
C9B C 0.8314(4) 1.7027(10) 0.7493(4)
H8B H 0.847 1.543 0.640
C16B C 1.1224(4) 0.8901(14) 0.8314(3)
H13B H 1.062 0.614 0.821
H14B H 1.175 1.170 0.831
C8B C 0.8454(5) 1.6988(12) 0.8363(5)
H5B H 0.898 1.535 0.936
H7B H 0.804 1.824 0.720
Br1B Br 1.10908(5) 0.89992(15) 0.95087(4)
H6B H 0.826 1.813 0.874
loop_
_geom_bond_atom_site_label_1
_geom_bond_atom_site_label_2
_geom_bond_site_symmetry_1
_geom_bond_site_symmetry_2
C1 C2 1_555 1_555
C2 C3 1_555 1_555
C3 C4 1_555 1_555
C4 C5 1_555 1_555
C5 C6 1_555 1_555
C6 C7 1_555 1_555
C7 C8 1_555 1_555
C8 C9 1_555 1_555
C9 C10 1_555 1_555
C10 C5 1_555 1_555
C11 C1 1_555 1_555
C12 N1 1_555 1_555
C13 C14 1_555 1_555
C14 C15 1_555 1_555
C15 C16 1_555 1_555
C16 C17 1_555 1_555
C17 C18 1_555 1_555
C18 C13 1_555 1_555
N1 C1 1_555 1_555
N2 C11 1_555 1_555
Br1 C16 1_555 1_555
H1 C2 1_555 1_555
H2 C3 1_555 1_555
H3 C4 1_555 1_555
H4 C6 1_555 1_555
H5 C7 1_555 1_555
H6 C8 1_555 1_555
H7 C9 1_555 1_555
H8 C10 1_555 1_555
H9 C12 1_555 1_555
H10 C12 1_555 1_555
H11 C12 1_555 1_555
H12 C14 1_555 1_555
H13 C15 1_555 1_555
H14 C17 1_555 1_555
H15 C18 1_555 1_555
C2B C1 1_555 1_555
C1B C2 1_555 1_555
C3B C2B 1_555 1_555
H1B C2B 1_555 1_555
C11B C1B 1_555 1_555
N1B C1B 1_555 1_555
C4B C3B 1_555 1_555
H2B C3B 1_555 1_555
N2B C11B 1_555 1_555
C12B N1B 1_555 1_555
C13B N1B 1_555 1_555
C5B C4B 1_555 1_555
H3B C4B 1_555 1_555
H9B C12B 1_555 1_555
H10B C12B 1_555 1_555
H11B C12B 1_555 1_555
C14B C13B 1_555 1_555
C18B C13B 1_555 1_555
C6B C5B 1_555 1_555
C10B C5B 1_555 1_555
C15B C14B 1_555 1_555
H12B C14B 1_555 1_555
C17B C18B 1_555 1_555
H15B C18B 1_555 1_555
C7B C6B 1_555 1_555
H4B C6B 1_555 1_555
C9B C10B 1_555 1_555
H8B C10B 1_555 1_555
C16B C15B 1_555 1_555
H13B C15B 1_555 1_555
H14B C17B 1_555 1_555
C8B C7B 1_555 1_555
H5B C7B 1_555 1_555
H7B C9B 1_555 1_555
Br1B C16B 1_555 1_555
H6B C8B 1_555 1_555
C13 N1 1_555 1_555
C2B C1B 1_555 1_555
C17B C16B 1_555 1_555
C9B C8B 1_555 1_555

#END
