
#######################################################################
#
#                 Cambridge Crystallographic Data Centre
#                                CCDC 
#
#######################################################################
#
# If this CIF has been generated from an entry in the Cambridge 
# Structural Database, then it will include bibliographic, chemical, 
# crystal, experimental, refinement or atomic coordinate data resulting 
# from the CCDC's data processing and validation procedures.
#
#######################################################################

data_WIKGOP
_chemical_formula_moiety         'C56 H46'
_chemical_name_systematic        
15,16-dimethyl-11,20-bis(2,4,6-trimethylphenyl)-11,20-dihydrodiindeno[2,1-f:1',2'-j]picene
_symmetry_cell_setting           monoclinic
_symmetry_space_group_name_H-M   'C 2/c'
_symmetry_Int_Tables_number      15
_space_group_name_Hall           '-C 2yn'
loop_
_symmetry_equiv_pos_site_id
_symmetry_equiv_pos_as_xyz
1 x,y,z
2 -x,y,1/2-z
3 1/2+x,1/2+y,z
4 1/2-x,1/2+y,1/2-z
5 -x,-y,-z
6 x,-y,1/2+z
7 1/2-x,1/2-y,-z
8 1/2+x,1/2-y,1/2+z
_cell_length_a                   14.0798(5)
_cell_length_b                   10.3541(4)
_cell_length_c                   26.2464(10)
_cell_angle_alpha                90
_cell_angle_beta                 91.818(2)
_cell_angle_gamma                90
_cell_volume                     3824.37
_exptl_crystal_colour            colorless
_exptl_crystal_description       tabular
_cell_formula_units_Z            4
loop_
_atom_site_label
_atom_site_type_symbol
_atom_site_fract_x
_atom_site_fract_y
_atom_site_fract_z
C1 C 0.42375(17) 0.5909(2) 1.06289(9)
H1 H 0.4728 0.5242 1.0604
H2 H 0.3628 0.5501 1.0701
H3 H 0.4414 0.6509 1.0905
C2 C 0.41484(14) 0.6639(2) 1.01315(8)
C3 C 0.48370(14) 0.75331(19) 1.00016(8)
H4 H 0.5330 0.7740 1.0243
C4 C 0.48227(13) 0.81299(18) 0.95298(7)
C5 C 0.41014(13) 0.78369(17) 0.91668(7)
C6 C 0.41438(13) 0.83034(17) 0.86206(7)
H5 H 0.3544 0.8005 0.8444
C7 C 0.42676(13) 0.97210(17) 0.84746(7)
C8 C 0.48707(12) 0.98117(16) 0.80735(7)
C9 C 0.48612(12) 1.09562(16) 0.77616(7)
C10 C 0.56019(14) 0.9082(2) 0.94116(8)
H6 H 0.5912 0.8817 0.9099
H7 H 0.6071 0.9102 0.9695
H8 H 0.5327 0.9945 0.9364
C11 C 0.33663(13) 0.69836(18) 0.93045(8)
C12 C 0.34050(14) 0.64077(19) 0.97838(8)
H9 H 0.2908 0.5840 0.9876
C13 C 0.25398(15) 0.6667(2) 0.89448(9)
H10 H 0.2768 0.6173 0.8655
H11 H 0.2243 0.7469 0.8822
H12 H 0.2072 0.6152 0.9125
C14 C 0.49583(13) 0.76829(17) 0.83394(7)
C15 C 0.54188(13) 0.86004(17) 0.80379(7)
C16 C 0.37850(13) 1.08294(17) 0.86638(7)
C17 C 0.39987(13) 1.20575(18) 0.84427(7)
C18 C 0.45386(13) 1.21162(17) 0.79810(7)
C19 C 0.63064(13) 0.83200(17) 0.78346(7)
C20 C 0.66229(13) 0.70390(18) 0.78826(7)
H13 H 0.7204 0.6803 0.7733
C21 C 0.61230(14) 0.61100(17) 0.81379(7)
H14 H 0.6346 0.5244 0.8145
C22 C 0.52917(14) 0.64305(17) 0.83861(7)
H15 H 0.4966 0.5808 0.8581
C23 C 0.31606(14) 1.07583(19) 0.90718(7)
H16 H 0.3011 0.9940 0.9212
C24 C 0.27632(15) 1.1858(2) 0.92707(8)
H17 H 0.2332 1.1800 0.9541
C25 C 0.30035(15) 1.3068(2) 0.90684(8)
H18 H 0.2747 1.3830 0.9211
C26 C 0.35989(14) 1.31627(18) 0.86706(8)
H19 H 0.3750 1.3994 0.8543
C27 C 0.47525(14) 1.32844(17) 0.77180(8)
H20 H 0.4542 1.4084 0.7852
C28 C 0.69716(13) 0.93240(19) 0.76361(8)
H21 H 0.6790 1.0177 0.7763
H22 H 0.6936 0.9324 0.7263
H23 H 0.7623 0.9126 0.7754
C1A C 0.57625(17) 0.5909(2) 0.43711(9)
H1A H 0.5272 0.5242 0.4396
H2A H 0.6372 0.5501 0.4299
H3A H 0.5586 0.6509 0.4095
C2A C 0.58516(14) 0.6639(2) 0.48685(8)
C3A C 0.51630(14) 0.75331(19) 0.49984(8)
H4A H 0.4670 0.7740 0.4757
C4A C 0.51773(13) 0.81299(18) 0.54702(7)
C5A C 0.58986(13) 0.78369(17) 0.58332(7)
C6A C 0.58562(13) 0.83034(17) 0.63794(7)
H5A H 0.6456 0.8005 0.6556
C7A C 0.57324(13) 0.97210(17) 0.65254(7)
C8A C 0.51293(12) 0.98117(16) 0.69265(7)
C9A C 0.51388(12) 1.09562(16) 0.72384(7)
C10A C 0.43981(14) 0.9082(2) 0.55884(8)
H6A H 0.4088 0.8817 0.5901
H7A H 0.3929 0.9102 0.5305
H8A H 0.4673 0.9945 0.5636
C11A C 0.66337(13) 0.69836(18) 0.56955(8)
C12A C 0.65950(14) 0.64077(19) 0.52162(8)
H9A H 0.7092 0.5840 0.5124
C13A C 0.74602(15) 0.6667(2) 0.60552(9)
H10A H 0.7232 0.6173 0.6345
H11A H 0.7757 0.7469 0.6178
H12A H 0.7928 0.6152 0.5875
C14A C 0.50417(13) 0.76829(17) 0.66606(7)
C15A C 0.45812(13) 0.86004(17) 0.69621(7)
C16A C 0.62150(13) 1.08294(17) 0.63362(7)
C17A C 0.60013(13) 1.20575(18) 0.65573(7)
C18A C 0.54614(13) 1.21162(17) 0.70190(7)
C19A C 0.36936(13) 0.83200(17) 0.71654(7)
C20A C 0.33771(13) 0.70390(18) 0.71174(7)
H13A H 0.2796 0.6803 0.7267
C21A C 0.38770(14) 0.61100(17) 0.68621(7)
H14A H 0.3654 0.5244 0.6855
C22A C 0.47083(14) 0.64305(17) 0.66139(7)
H15A H 0.5034 0.5808 0.6419
C23A C 0.68394(14) 1.07583(19) 0.59282(7)
H16A H 0.6989 0.9940 0.5788
C24A C 0.72368(15) 1.1858(2) 0.57293(8)
H17A H 0.7668 1.1800 0.5459
C25A C 0.69965(15) 1.3068(2) 0.59316(8)
H18A H 0.7253 1.3830 0.5789
C26A C 0.64011(14) 1.31627(18) 0.63294(8)
H19A H 0.6250 1.3994 0.6457
C27A C 0.52475(14) 1.32844(17) 0.72820(8)
H20A H 0.5458 1.4084 0.7148
C28A C 0.30284(13) 0.93240(19) 0.73639(8)
H21A H 0.3210 1.0177 0.7237
H22A H 0.3064 0.9324 0.7737
H23A H 0.2377 0.9126 0.7246
loop_
_geom_bond_atom_site_label_1
_geom_bond_atom_site_label_2
_geom_bond_site_symmetry_1
_geom_bond_site_symmetry_2
C1 H1 1_555 1_555
H2 C1 1_555 1_555
H3 C1 1_555 1_555
C2 C1 1_555 1_555
C3 C2 1_555 1_555
H4 C3 1_555 1_555
C4 C3 1_555 1_555
C5 C4 1_555 1_555
C6 C5 1_555 1_555
H5 C6 1_555 1_555
C7 C6 1_555 1_555
C8 C7 1_555 1_555
C9 C8 1_555 1_555
C10 C4 1_555 1_555
H6 C10 1_555 1_555
H7 C10 1_555 1_555
H8 C10 1_555 1_555
C11 C5 1_555 1_555
C12 C2 1_555 1_555
H9 C12 1_555 1_555
C13 C11 1_555 1_555
H10 C13 1_555 1_555
H11 C13 1_555 1_555
H12 C13 1_555 1_555
C14 C6 1_555 1_555
C15 C8 1_555 1_555
C16 C7 1_555 1_555
C17 C16 1_555 1_555
C18 C9 1_555 1_555
C19 C15 1_555 1_555
C20 C19 1_555 1_555
H13 C20 1_555 1_555
C21 C20 1_555 1_555
H14 C21 1_555 1_555
C22 C14 1_555 1_555
H15 C22 1_555 1_555
C23 C16 1_555 1_555
H16 C23 1_555 1_555
C24 C23 1_555 1_555
H17 C24 1_555 1_555
C25 C24 1_555 1_555
H18 C25 1_555 1_555
C26 C17 1_555 1_555
H19 C26 1_555 1_555
C27 C18 1_555 1_555
H20 C27 1_555 1_555
C28 C19 1_555 1_555
H21 C28 1_555 1_555
H22 C28 1_555 1_555
H23 C28 1_555 1_555
C1A H1A 1_555 1_555
H2A C1A 1_555 1_555
H3A C1A 1_555 1_555
C2A C1A 1_555 1_555
C3A C2A 1_555 1_555
H4A C3A 1_555 1_555
C4A C3A 1_555 1_555
C5A C4A 1_555 1_555
C6A C5A 1_555 1_555
H5A C6A 1_555 1_555
C7A C6A 1_555 1_555
C8A C7A 1_555 1_555
C9A C9 1_555 1_555
C10A C4A 1_555 1_555
H6A C10A 1_555 1_555
H7A C10A 1_555 1_555
H8A C10A 1_555 1_555
C11A C5A 1_555 1_555
C12A C2A 1_555 1_555
H9A C12A 1_555 1_555
C13A C11A 1_555 1_555
H10A C13A 1_555 1_555
H11A C13A 1_555 1_555
H12A C13A 1_555 1_555
C14A C6A 1_555 1_555
C15A C8A 1_555 1_555
C16A C7A 1_555 1_555
C17A C16A 1_555 1_555
C18A C9A 1_555 1_555
C19A C15A 1_555 1_555
C20A C19A 1_555 1_555
H13A C20A 1_555 1_555
C21A C20A 1_555 1_555
H14A C21A 1_555 1_555
C22A C14A 1_555 1_555
H15A C22A 1_555 1_555
C23A C16A 1_555 1_555
H16A C23A 1_555 1_555
C24A C23A 1_555 1_555
H17A C24A 1_555 1_555
C25A C24A 1_555 1_555
H18A C25A 1_555 1_555
C26A C17A 1_555 1_555
H19A C26A 1_555 1_555
C27A C27 1_555 1_555
H20A C27A 1_555 1_555
C28A C19A 1_555 1_555
H21A C28A 1_555 1_555
H22A C28A 1_555 1_555
H23A C28A 1_555 1_555
C11 C12 1_555 1_555
C14 C15 1_555 1_555
C17 C18 1_555 1_555
C21 C22 1_555 1_555
C25 C26 1_555 1_555
C8A C9A 1_555 1_555
C11A C12A 1_555 1_555
C14A C15A 1_555 1_555
C17A C18A 1_555 1_555
C18A C27A 1_555 1_555
C21A C22A 1_555 1_555
C25A C26A 1_555 1_555

#END
