
#######################################################################
#
#                 Cambridge Crystallographic Data Centre
#                                CCDC 
#
#######################################################################
#
# If this CIF has been generated from an entry in the Cambridge 
# Structural Database, then it will include bibliographic, chemical, 
# crystal, experimental, refinement or atomic coordinate data resulting 
# from the CCDC's data processing and validation procedures.
#
#######################################################################

data_WILRIV
_chemical_formula_moiety         'C18 H7 N7 O16'
_chemical_name_systematic        
"1,1'-[(2,4,6-trinitro-1,3-phenylene)bis(oxy)]bis(2,4-dinitrobenzene) unknown solvate"
_symmetry_cell_setting           monoclinic
_symmetry_space_group_name_H-M   'P 21/c'
_symmetry_Int_Tables_number      14
_space_group_name_Hall           '-P 2ybc'
loop_
_symmetry_equiv_pos_site_id
_symmetry_equiv_pos_as_xyz
1 x,y,z
2 -x,1/2+y,1/2-z
3 -x,-y,-z
4 x,1/2-y,1/2+z
_cell_length_a                   19.2275(14)
_cell_length_b                   7.6271(7)
_cell_length_c                   17.5413(13)
_cell_angle_alpha                90
_cell_angle_beta                 112.001(3)
_cell_angle_gamma                90
_cell_volume                     2385.1
_exptl_crystal_description       needle
_cell_formula_units_Z            4
loop_
_atom_site_label
_atom_site_type_symbol
_atom_site_fract_x
_atom_site_fract_y
_atom_site_fract_z
C1 C 0.1786(2) 0.8063(6) 0.1353(3)
C2 C 0.1804(2) 0.9319(6) 0.0785(3)
C3 C 0.2267(2) 1.0765(6) 0.0985(3)
C4 C 0.2699(3) 1.1027(7) 0.1818(3)
C5 C 0.2741(3) 0.9755(7) 0.2394(3)
H1 H 0.3075 0.9897 0.2948
C6 C 0.2298(2) 0.8275(6) 0.2162(3)
C7 C 0.0677(2) 0.6538(6) 0.1262(3)
C8 C 0.0382(3) 0.4898(6) 0.1280(3)
C9 C -0.0262(3) 0.4672(7) 0.1438(3)
H2 H -0.0457 0.3537 0.1462
C10 C -0.0611(3) 0.6157(7) 0.1557(3)
C11 C -0.0338(3) 0.7821(7) 0.1548(3)
H3 H -0.0596 0.8817 0.1635
C12 C 0.0323(2) 0.8013(7) 0.1408(3)
H4 H 0.0531 0.9145 0.1413
C13 C 0.2837(2) 1.2246(7) 0.0175(3)
C14 C 0.3022(3) 1.3964(7) 0.0058(3)
C15 C 0.3613(3) 1.4297(7) -0.0195(3)
H5 H 0.3750 1.5462 -0.0269
C16 C 0.3990(3) 1.2898(7) -0.0332(3)
C17 C 0.3827(3) 1.1199(7) -0.0204(3)
H6 H 0.4111 1.0258 -0.0292
C18 C 0.3243(3) 1.0873(7) 0.0056(3)
H7 H 0.3125 0.9704 0.0151
N1 N 0.1299(2) 0.9074(5) -0.0076(2)
N2 N 0.3092(3) 1.2699(6) 0.2147(3)
N3 N 0.2392(2) 0.6948(6) 0.2805(3)
N4 N 0.0744(2) 0.3334(5) 0.1118(3)
N5 N -0.1328(2) 0.5943(6) 0.1678(2)
N6 N 0.2621(2) 1.5472(6) 0.0194(3)
N7 N 0.4608(3) 1.3249(7) -0.0613(3)
O1 O 0.13250(17) 0.6646(4) 0.1092(2)
O2 O 0.06289(18) 0.8888(5) -0.0213(2)
O3 O 0.1568(2) 0.9077(5) -0.0603(2)
O4 O 0.22117(17) 1.1975(4) 0.0383(2)
O5 O 0.2944(3) 1.3990(6) 0.1698(3)
O6 O 0.3502(3) 1.2735(7) 0.2870(3)
O7 O 0.2935(2) 0.7146(6) 0.3454(3)
O8 O 0.1943(2) 0.5769(5) 0.2671(2)
O9 O 0.0888(2) 0.3288(5) 0.0502(2)
O10 O 0.0869(2) 0.2123(5) 0.1624(2)
O11 O -0.1485(2) 0.4455(5) 0.1832(2)
O12 O -0.17184(19) 0.7246(5) 0.1613(2)
O13 O 0.19325(19) 1.5378(5) -0.0032(2)
O14 O 0.2995(2) 1.6783(5) 0.0512(3)
O15 O 0.4629(2) 1.4709(6) -0.0908(3)
O16 O 0.5058(2) 1.2089(6) -0.0546(3)
loop_
_geom_bond_atom_site_label_1
_geom_bond_atom_site_label_2
_geom_bond_site_symmetry_1
_geom_bond_site_symmetry_2
C1 C2 1_555 1_555
C2 C3 1_555 1_555
C3 C4 1_555 1_555
C4 C5 1_555 1_555
C5 H1 1_555 1_555
C6 C1 1_555 1_555
C7 C8 1_555 1_555
C8 C9 1_555 1_555
C9 H2 1_555 1_555
C10 C9 1_555 1_555
C11 C10 1_555 1_555
H3 C11 1_555 1_555
C12 C7 1_555 1_555
H4 C12 1_555 1_555
C13 C14 1_555 1_555
C14 C15 1_555 1_555
C15 H5 1_555 1_555
C16 C15 1_555 1_555
C17 C16 1_555 1_555
H6 C17 1_555 1_555
C18 C13 1_555 1_555
H7 C18 1_555 1_555
N1 C2 1_555 1_555
N2 C4 1_555 1_555
N3 C6 1_555 1_555
N4 C8 1_555 1_555
N5 C10 1_555 1_555
N6 C14 1_555 1_555
N7 C16 1_555 1_555
O1 C1 1_555 1_555
O2 N1 1_555 1_555
O3 N1 1_555 1_555
O4 C3 1_555 1_555
O5 N2 1_555 1_555
O6 N2 1_555 1_555
O7 N3 1_555 1_555
O8 N3 1_555 1_555
O9 N4 1_555 1_555
O10 N4 1_555 1_555
O11 N5 1_555 1_555
O12 N5 1_555 1_555
O13 N6 1_555 1_555
O14 N6 1_555 1_555
O15 N7 1_555 1_555
O16 N7 1_555 1_555
C5 C6 1_555 1_555
C7 O1 1_555 1_555
C11 C12 1_555 1_555
C13 O4 1_555 1_555
C17 C18 1_555 1_555

#END
