
#######################################################################
#
#                 Cambridge Crystallographic Data Centre
#                                CCDC 
#
#######################################################################
#
# If this CIF has been generated from an entry in the Cambridge 
# Structural Database, then it will include bibliographic, chemical, 
# crystal, experimental, refinement or atomic coordinate data resulting 
# from the CCDC's data processing and validation procedures.
#
#######################################################################

data_WILZAT
_chemical_formula_moiety         'C12 H16 O4'
_chemical_name_systematic        
cis-5-Methyl-4-ethoxycarbonyl-1,3,3a,4,5,7a-hexahydro-2-benzofuran-1-one
_symmetry_cell_setting           monoclinic
_symmetry_space_group_name_H-M   'I 2/a'
_symmetry_Int_Tables_number      15
_space_group_name_Hall           '-I 2ya'
loop_
_symmetry_equiv_pos_site_id
_symmetry_equiv_pos_as_xyz
1 x,y,z
2 1/2+x,1/2+y,1/2+z
3 1/2-x,y,-z
4 -x,1/2+y,1/2-z
5 -x,-y,-z
6 1/2-x,1/2-y,1/2-z
7 1/2+x,-y,z
8 x,1/2-y,1/2+z
_cell_length_a                   15.4894(16)
_cell_length_b                   5.2239(5)
_cell_length_c                   29.081(4)
_cell_angle_alpha                90
_cell_angle_beta                 99.703(3)
_cell_angle_gamma                90
_cell_volume                     2319.43
_exptl_crystal_colour            colorless
_exptl_crystal_description       needle
_chemical_melting_point          '60-62 deg.C'
_cell_formula_units_Z            8
loop_
_atom_site_label
_atom_site_type_symbol
_atom_site_fract_x
_atom_site_fract_y
_atom_site_fract_z
O1 O 0.45102(6) -0.27148(17) 0.26760(3)
O2 O 0.52522(5) -0.02525(18) 0.32332(3)
O3 O 0.43988(7) 0.4695(2) 0.42660(3)
O4 O 0.37944(6) 0.13362(17) 0.45727(3)
C1 C 0.38596(7) 0.1263(2) 0.29060(4)
H1 H 0.3912 0.2496 0.2649
C2 C 0.41434(7) 0.2619(2) 0.33713(4)
H2 H 0.3987 0.4477 0.3347
C3 C 0.37388(7) 0.1323(2) 0.37575(4)
H3 H 0.3963 -0.0475 0.3791
C4 C 0.27265(7) 0.1211(2) 0.36382(4)
H4 H 0.2518 -0.0016 0.3859
C5 C 0.24467(7) 0.0199(2) 0.31532(4)
H5 H 0.1873 -0.0490 0.3075
C6 C 0.29502(7) 0.0206(2) 0.28269(4)
H6 H 0.2723 -0.0493 0.2530
C7 C 0.45487(8) -0.0803(2) 0.29084(4)
C8 C 0.51324(8) 0.2253(3) 0.34312(5)
H7 H 0.5402 0.3604 0.3263
H8 H 0.5399 0.2306 0.3765
C9 C 0.40226(8) 0.2669(2) 0.42171(4)
C10 C 0.40414(11) 0.2476(3) 0.50315(4)
H9 H 0.3737 0.4134 0.5046
H10 H 0.4681 0.2786 0.5097
C11 C 0.37854(10) 0.0656(3) 0.53814(5)
H11 H 0.3943 0.1385 0.5695
H12 H 0.4094 -0.0972 0.5366
H13 H 0.3152 0.0361 0.5313
C12 C 0.22892(9) 0.3808(3) 0.36913(5)
H14 H 0.1652 0.3621 0.3614
H15 H 0.2488 0.5054 0.3480
H16 H 0.2448 0.4405 0.4014
loop_
_geom_bond_atom_site_label_1
_geom_bond_atom_site_label_2
_geom_bond_site_symmetry_1
_geom_bond_site_symmetry_2
O1 C7 1_555 1_555
O2 C7 1_555 1_555
O3 C9 1_555 1_555
O4 C9 1_555 1_555
C1 H1 1_555 1_555
C2 C1 1_555 1_555
H2 C2 1_555 1_555
C3 C2 1_555 1_555
H3 C3 1_555 1_555
C4 C3 1_555 1_555
H4 C4 1_555 1_555
C5 C4 1_555 1_555
H5 C5 1_555 1_555
C6 C1 1_555 1_555
H6 C6 1_555 1_555
C7 C1 1_555 1_555
C8 O2 1_555 1_555
H7 C8 1_555 1_555
H8 C8 1_555 1_555
C9 C3 1_555 1_555
C10 O4 1_555 1_555
H9 C10 1_555 1_555
H10 C10 1_555 1_555
C11 C10 1_555 1_555
H11 C11 1_555 1_555
H12 C11 1_555 1_555
H13 C11 1_555 1_555
C12 C4 1_555 1_555
H14 C12 1_555 1_555
H15 C12 1_555 1_555
H16 C12 1_555 1_555
C2 C8 1_555 1_555
C5 C6 1_555 1_555

#END
