
#######################################################################
#
#                 Cambridge Crystallographic Data Centre
#                                CCDC 
#
#######################################################################
#
# If this CIF has been generated from an entry in the Cambridge 
# Structural Database, then it will include bibliographic, chemical, 
# crystal, experimental, refinement or atomic coordinate data resulting 
# from the CCDC's data processing and validation procedures.
#
#######################################################################

data_WIMKAH02
_chemical_formula_moiety         'C39 H29 N3'
_chemical_name_systematic        
N,N-diphenyl-4-(1,4,5-triphenyl-1H-imidazol-2-yl)aniline
_symmetry_cell_setting           monoclinic
_symmetry_space_group_name_H-M   'C 2/c'
_symmetry_Int_Tables_number      15
_space_group_name_Hall           '-C 2yn'
loop_
_symmetry_equiv_pos_site_id
_symmetry_equiv_pos_as_xyz
1 x,y,z
2 -x,y,1/2-z
3 1/2+x,1/2+y,z
4 1/2-x,1/2+y,1/2-z
5 -x,-y,-z
6 x,-y,1/2+z
7 1/2-x,1/2-y,-z
8 1/2+x,1/2-y,1/2+z
_cell_length_a                   18.0955(8)
_cell_length_b                   12.6286(4)
_cell_length_c                   27.3459(10)
_cell_angle_alpha                90
_cell_angle_beta                 107.965(4)
_cell_angle_gamma                90
_cell_volume                     5944.43
_cell_formula_units_Z            8
loop_
_atom_site_label
_atom_site_type_symbol
_atom_site_fract_x
_atom_site_fract_y
_atom_site_fract_z
N1 N 0.62145(7) 0.75600(10) 0.48801(5)
N2 N 0.67767(7) 0.64538(10) 0.55128(5)
C1 C 0.64061(9) 0.58701(12) 0.50779(5)
C2 C 0.66473(8) 0.74544(12) 0.53871(6)
C3 C 0.58684(9) 0.85117(12) 0.46170(5)
C4 C 0.60441(9) 0.65460(12) 0.46821(5)
N3 N 0.76250(12) 1.07262(16) 0.68792(7)
C5 C 0.69005(9) 0.83373(13) 0.57532(6)
C6 C 0.64716(9) 0.47072(12) 0.50865(6)
C7 C 0.72247(9) 0.92676(14) 0.56474(6)
H1 H 0.7282 0.9364 0.5324
C8 C 0.55273(9) 0.63949(13) 0.41512(6)
C9 C 0.57564(11) 0.66638(14) 0.37293(6)
H2 H 0.6252 0.6931 0.3776
C10 C 0.62697(10) 0.91338(14) 0.43733(7)
H3 H 0.6769 0.8947 0.4378
C11 C 0.71937(16) 1.08651(16) 0.72333(8)
C12 C 0.68244(11) 0.82148(14) 0.62432(6)
H4 H 0.6603 0.7599 0.6322
C13 C 0.74653(10) 1.00585(14) 0.60131(7)
H5 H 0.7677 1.0680 0.5931
C14 C 0.51204(10) 0.87652(16) 0.46004(7)
H6 H 0.4848 0.8333 0.4760
C15 C 0.73926(11) 0.99304(15) 0.65028(7)
C16 C 0.59233(12) 1.00413(16) 0.41200(8)
H7 H 0.6195 1.0475 0.3960
C17 C 0.69004(11) 0.41960(15) 0.55304(7)
H8 H 0.7150 0.4594 0.5820
C18 C 0.47785(12) 0.96707(19) 0.43425(8)
H9 H 0.4275 0.9851 0.4331
C19 C 0.70732(13) 0.89927(16) 0.66116(7)
H10 H 0.7027 0.8888 0.6937
C20 C 0.82142(16) 1.14578(17) 0.68835(8)
C21 C 0.52480(15) 0.65354(19) 0.32380(7)
H11 H 0.5407 0.6715 0.2956
C22 C 0.47855(12) 0.6006(2) 0.40709(8)
H12 H 0.4622 0.5821 0.4350
C23 C 0.61344(14) 0.40780(15) 0.46601(7)
H13 H 0.5857 0.4395 0.4351
C24 C 0.51794(13) 1.03033(16) 0.41038(8)
H14 H 0.4947 1.0910 0.3931
C25 C 0.9472(2) 1.1853(3) 0.68063(12)
H15 H 0.9926 1.1632 0.6745
C26 C 0.62034(16) 0.29869(16) 0.46861(9)
H16 H 0.5968 0.2582 0.4396
C27 C 0.66096(13) 0.24984(15) 0.51292(9)
H17 H 0.6647 0.1764 0.5146
C28 C 0.69652(13) 0.31061(16) 0.55522(8)
H18 H 0.7253 0.2781 0.5857
C29 C 0.8129(2) 1.2516(2) 0.69856(10)
H19 H 0.759(2) 1.277(3) 0.7002(13)
C30 C 0.88929(16) 1.1126(2) 0.67989(10)
H20 H 0.8962 1.0415 0.6737
C31 C 0.45184(16) 0.6149(2) 0.31616(8)
H21 H 0.4182 0.6061 0.2830
C32 C 0.6351(3) 1.1153(2) 0.79148(12)
H22 H 0.6066 1.1250 0.8142
C33 C 0.7571(2) 1.09091(18) 0.77569(9)
H23 H 0.8108 1.0841 0.7883
C34 C 0.42835(15) 0.5891(3) 0.35756(10)
H24 H 0.3783 0.5637 0.3525
C35 C 0.7134(3) 1.1058(2) 0.80966(9)
H25 H 0.7384 1.1092 0.8449
C36 C 0.64030(19) 1.0972(3) 0.70580(9)
H26 H 0.6145 1.0952 0.6707
C37 C 0.8703(4) 1.3221(3) 0.69999(13)
H27 H 0.8642 1.3928 0.7075
C38 C 0.5983(2) 1.1108(3) 0.74010(12)
H28 H 0.5445 1.1169 0.7278
C39 C 0.9367(3) 1.2909(4) 0.69055(13)
H29 H 0.9749 1.3403 0.6908
loop_
_geom_bond_atom_site_label_1
_geom_bond_atom_site_label_2
_geom_bond_site_symmetry_1
_geom_bond_site_symmetry_2
N1 C2 1_555 1_555
N2 C1 1_555 1_555
C1 C4 1_555 1_555
C2 N2 1_555 1_555
C3 N1 1_555 1_555
C4 N1 1_555 1_555
N3 C11 1_555 1_555
C5 C2 1_555 1_555
C6 C1 1_555 1_555
C7 C5 1_555 1_555
H1 C7 1_555 1_555
C8 C4 1_555 1_555
C9 C8 1_555 1_555
H2 C9 1_555 1_555
C10 C3 1_555 1_555
H3 C10 1_555 1_555
C11 C33 1_555 1_555
C12 C5 1_555 1_555
H4 C12 1_555 1_555
C13 C7 1_555 1_555
H5 C13 1_555 1_555
C14 C3 1_555 1_555
H6 C14 1_555 1_555
C15 N3 1_555 1_555
C16 C10 1_555 1_555
H7 C16 1_555 1_555
C17 C6 1_555 1_555
H8 C17 1_555 1_555
C18 C14 1_555 1_555
H9 C18 1_555 1_555
C19 C12 1_555 1_555
H10 C19 1_555 1_555
C20 N3 1_555 1_555
C21 C9 1_555 1_555
H11 C21 1_555 1_555
C22 C8 1_555 1_555
H12 C22 1_555 1_555
C23 C6 1_555 1_555
H13 C23 1_555 1_555
C24 C16 1_555 1_555
H14 C24 1_555 1_555
C25 H15 1_555 1_555
C26 C23 1_555 1_555
H16 C26 1_555 1_555
C27 C26 1_555 1_555
H17 C27 1_555 1_555
C28 C17 1_555 1_555
H18 C28 1_555 1_555
C29 C20 1_555 1_555
H19 C29 1_555 1_555
C30 C20 1_555 1_555
H20 C30 1_555 1_555
C31 C21 1_555 1_555
H21 C31 1_555 1_555
C32 H22 1_555 1_555
C33 H23 1_555 1_555
C34 C22 1_555 1_555
H24 C34 1_555 1_555
C35 C32 1_555 1_555
H25 C35 1_555 1_555
C36 C11 1_555 1_555
H26 C36 1_555 1_555
C37 C29 1_555 1_555
H27 C37 1_555 1_555
C38 C32 1_555 1_555
H28 C38 1_555 1_555
C39 C25 1_555 1_555
H29 C39 1_555 1_555
C13 C15 1_555 1_555
C15 C19 1_555 1_555
C18 C24 1_555 1_555
C25 C30 1_555 1_555
C27 C28 1_555 1_555
C31 C34 1_555 1_555
C33 C35 1_555 1_555
C36 C38 1_555 1_555
C37 C39 1_555 1_555

#END
