
#######################################################################
#
#                 Cambridge Crystallographic Data Centre
#                                CCDC 
#
#######################################################################
#
# If this CIF has been generated from an entry in the Cambridge 
# Structural Database, then it will include bibliographic, chemical, 
# crystal, experimental, refinement or atomic coordinate data resulting 
# from the CCDC's data processing and validation procedures.
#
#######################################################################

data_WIMXUL
_chemical_formula_moiety         'C42 H42 K1 N10 1+,C6 H2 N3 O7 1-'
_chemical_name_systematic        
'(1,5,9,13-Tetra-aza-3,7,11,15,18,21(2,6)-hexapyridinatricyclo(7.7.3.3^5,13^)docosaphane)-potassium picrate'
_symmetry_cell_setting           monoclinic
_symmetry_space_group_name_H-M   'P 21'
_symmetry_Int_Tables_number      4
_space_group_name_Hall           'P 2yb'
loop_
_symmetry_equiv_pos_site_id
_symmetry_equiv_pos_as_xyz
1 x,y,z
2 -x,1/2+y,-z
_cell_length_a                   10.672(2)
_cell_length_b                   16.96(2)
_cell_length_c                   13.170(3)
_cell_angle_alpha                90
_cell_angle_beta                 99.40(2)
_cell_angle_gamma                90
_cell_volume                     2351.72
_exptl_crystal_colour            yellow
_exptl_crystal_description       prismatic
_cell_formula_units_Z            2
loop_
_atom_site_label
_atom_site_type_symbol
_atom_site_fract_x
_atom_site_fract_y
_atom_site_fract_z
K1 K 0.0375(3) 0.345(2) 0.8611(2)
N1 N 0.149(4) 0.486(2) 1.006(2)
N2 N 0.3069(9) 0.345(2) 0.7750(8)
N3 N -0.098(2) 0.470(2) 0.700(2)
N4 N 0.153(3) 0.203(2) 1.007(1)
N5 N -0.097(2) 0.228(2) 0.695(2)
N6 N -0.174(1) 0.343(3) 0.9936(9)
N7 N 0.081(1) 0.346(2) 1.1047(8)
N8 N 0.172(2) 0.499(2) 0.786(1)
N9 N 0.163(2) 0.186(2) 0.783(1)
N10 N -0.2522(8) 0.344(2) 0.7731(7)
C1 C 0.159(3) 0.476(2) 1.108(2)
C2 C 0.308(4) 0.510(3) 1.156(2)
C3 C 0.350(3) 0.564(3) 1.119(3)
C4 C 0.304(3) 0.584(3) 1.024(3)
C5 C 0.196(3) 0.547(2) 0.975(2)
C6 C 0.319(2) 0.413(2) 0.728(2)
C7 C 0.350(2) 0.419(3) 0.629(2)
C8 C 0.366(1) 0.349(3) 0.579(1)
C9 C 0.352(2) 0.276(2) 0.627(2)
C10 C 0.324(2) 0.277(2) 0.725(2)
C11 C -0.038(2) 0.526(2) 0.671(2)
C12 C -0.101(3) 0.593(2) 0.628(2)
C13 C -0.232(3) 0.593(2) 0.608(2)
C14 C -0.296(2) 0.530(3) 0.637(3)
C15 C -0.229(3) 0.464(3) 0.684(3)
C16 C 0.236(2) 0.230(2) 1.102(2)
C17 C 0.298(4) 0.188(2) 1.175(2)
C18 C 0.355(4) 0.121(3) 1.118(2)
C19 C 0.304(3) 0.098(2) 1.017(2)
C20 C 0.206(3) 0.143(2) 0.960(2)
C21 C -0.037(2) 0.161(2) 0.666(1)
C22 C -0.102(2) 0.100(2) 0.618(2)
C23 C -0.236(2) 0.098(2) 0.606(2)
C24 C -0.292(3) 0.159(2) 0.640(2)
C25 C -0.221(3) 0.217(3) 0.679(4)
C26 C -0.295(1) 0.347(4) 0.950(1)
C27 C -0.394(1) 0.345(3) 1.004(1)
C28 C -0.370(2) 0.352(4) 1.105(1)
C29 C -0.244(2) 0.321(5) 1.150(2)
C30 C -0.151(2) 0.313(2) 1.093(1)
C31 C 0.069(3) 0.418(2) 1.145(2)
C32 C 0.148(3) 0.571(2) 0.857(2)
C33 C 0.302(3) 0.489(2) 0.787(2)
C34 C 0.303(2) 0.207(2) 0.785(2)
C35 C 0.103(2) 0.521(2) 0.676(2)
C36 C -0.296(2) 0.428(2) 0.777(2)
C37 C 0.212(2) 0.310(2) 1.145(1)
C38 C 0.151(3) 0.129(2) 0.854(2)
C39 C 0.107(3) 0.167(2) 0.684(2)
C40 C -0.278(1) 0.316(2) 0.665(1)
C41 C -0.314(2) 0.297(2) 0.843(1)
C42 C -0.015(2) 0.283(2) 1.133(1)
H1 H 0.3557 0.4841 1.2151
H2 H 0.4178 0.5906 1.1558
H3 H 0.3429 0.6333 0.9852
H4 H 0.3992 0.4667 0.5868
H5 H 0.4092 0.3330 0.5012
H6 H 0.3787 0.2220 0.5793
H7 H -0.0543 0.6352 0.5985
H8 H -0.2904 0.6418 0.5684
H9 H -0.4042 0.5373 0.6351
H10 H 0.2953 0.1920 1.2475
H11 H 0.4353 0.0803 1.1597
H12 H 0.3336 0.0499 0.9875
H13 H -0.0453 0.0409 0.5991
H14 H -0.3144 0.0456 0.5751
H15 H -0.3971 0.1445 0.6318
H16 H -0.4800 0.3492 0.9717
H17 H -0.4344 0.3382 1.1448
H18 H -0.2338 0.2864 1.2158
H19 H 0.0960 0.4127 1.2190
H20 H -0.0115 0.4349 1.1294
H21 H 0.1956 0.6137 0.8379
H22 H 0.0611 0.5820 0.8451
H23 H 0.3449 0.4830 0.8559
H24 H 0.3343 0.5310 0.7545
H25 H 0.3421 0.1617 0.7575
H26 H 0.3394 0.2136 0.8541
H27 H 0.1225 0.4790 0.6309
H28 H 0.1349 0.5680 0.6579
H29 H -0.2640 0.4510 0.8415
H30 H -0.3856 0.4317 0.7637
H31 H 0.2743 0.3434 1.1297
H32 H 0.2181 0.3025 1.2176
H33 H 0.0547 0.1253 0.8493
H34 H 0.1939 0.0723 0.8040
H35 H 0.1388 0.1153 0.6663
H36 H 0.1295 0.2040 0.6374
H37 H -0.3645 0.3168 0.6365
H38 H -0.2297 0.3443 0.6228
H39 H -0.2763 0.2443 0.8513
H40 H -0.4022 0.2892 0.8146
H41 H 0.0010 0.2334 1.1072
H42 H -0.0035 0.2797 1.2081
O1 O 0.5359(7) 0.846(2) 0.6597(7)
O2 O 0.511(2) 0.994(2) 0.579(2)
O3 O 0.364(2) 1.047(2) 0.639(2)
O4 O -0.049(2) 0.906(2) 0.539(2)
O5 O -0.039(2) 0.779(2) 0.548(2)
O6 O 0.363(3) 0.645(3) 0.670(3)
O7 O 0.502(2) 0.691(2) 0.577(2)
N11 N 0.409(2) 0.990(2) 0.615(2)
N12 N 0.0116(9) 0.848(2) 0.5522(8)
N13 N 0.405(3) 0.697(3) 0.612(2)
C43 C 0.420(1) 0.847(3) 0.6261(8)
C44 C 0.341(2) 0.913(2) 0.609(2)
C45 C 0.210(2) 0.919(2) 0.581(1)
C46 C 0.1483(10) 0.847(2) 0.5728(8)
C47 C 0.216(2) 0.774(2) 0.586(2)
C48 C 0.345(2) 0.772(2) 0.605(2)
H43 H 0.1665 0.9742 0.6012
H44 H 0.1655 0.7091 0.5779
loop_
_geom_bond_atom_site_label_1
_geom_bond_atom_site_label_2
_geom_bond_site_symmetry_1
_geom_bond_site_symmetry_2
K1 N1 1_555 1_555
O1 C43 1_555 1_555
O2 N11 1_555 1_555
O3 N11 1_555 1_555
O4 N12 1_555 1_555
O5 N12 1_555 1_555
O6 N13 1_555 1_555
O7 N13 1_555 1_555
N1 C1 1_555 1_555
N2 K1 1_555 1_555
N3 K1 1_555 1_555
N4 K1 1_555 1_555
N5 K1 1_555 1_555
N6 K1 1_555 1_555
N7 K1 1_555 1_555
N8 K1 1_555 1_555
N9 K1 1_555 1_555
N10 K1 1_555 1_555
N11 C44 1_555 1_555
N12 C46 1_555 1_555
N13 C48 1_555 1_555
C1 C2 1_555 1_555
C2 C3 1_555 1_555
C3 C4 1_555 1_555
C4 C5 1_555 1_555
C5 N1 1_555 1_555
C6 N2 1_555 1_555
C7 C6 1_555 1_555
C8 C7 1_555 1_555
C9 C8 1_555 1_555
C10 N2 1_555 1_555
C11 N3 1_555 1_555
C12 C11 1_555 1_555
C13 C12 1_555 1_555
C14 C13 1_555 1_555
C15 N3 1_555 1_555
C16 N4 1_555 1_555
C17 C16 1_555 1_555
C18 C17 1_555 1_555
C19 C18 1_555 1_555
C20 N4 1_555 1_555
C21 N5 1_555 1_555
C22 C21 1_555 1_555
C23 C22 1_555 1_555
C24 C23 1_555 1_555
C25 N5 1_555 1_555
C26 N6 1_555 1_555
C27 C26 1_555 1_555
C28 C27 1_555 1_555
C29 C28 1_555 1_555
C30 N6 1_555 1_555
C31 N7 1_555 1_555
C32 N8 1_555 1_555
C33 N8 1_555 1_555
C34 N9 1_555 1_555
C35 N8 1_555 1_555
C36 N10 1_555 1_555
C37 N7 1_555 1_555
C38 N9 1_555 1_555
C39 N9 1_555 1_555
C40 N10 1_555 1_555
C41 N10 1_555 1_555
C42 N7 1_555 1_555
C43 C44 1_555 1_555
C44 C45 1_555 1_555
C45 C46 1_555 1_555
C46 C47 1_555 1_555
C47 C48 1_555 1_555
C48 C43 1_555 1_555
H1 C2 1_555 1_555
H2 C3 1_555 1_555
H3 C4 1_555 1_555
H4 C7 1_555 1_555
H5 C8 1_555 1_555
H6 C9 1_555 1_555
H7 C12 1_555 1_555
H8 C13 1_555 1_555
H9 C14 1_555 1_555
H10 C17 1_555 1_555
H11 C18 1_555 1_555
H12 C19 1_555 1_555
H13 C22 1_555 1_555
H14 C23 1_555 1_555
H15 C24 1_555 1_555
H16 C27 1_555 1_555
H17 C28 1_555 1_555
H18 C29 1_555 1_555
H19 C31 1_555 1_555
H20 C31 1_555 1_555
H21 C32 1_555 1_555
H22 C32 1_555 1_555
H23 C33 1_555 1_555
H24 C33 1_555 1_555
H25 C34 1_555 1_555
H26 C34 1_555 1_555
H27 C35 1_555 1_555
H28 C35 1_555 1_555
H29 C36 1_555 1_555
H30 C36 1_555 1_555
H31 C37 1_555 1_555
H32 C37 1_555 1_555
H33 C38 1_555 1_555
H34 C38 1_555 1_555
H35 C39 1_555 1_555
H36 C39 1_555 1_555
H37 C40 1_555 1_555
H38 C40 1_555 1_555
H39 C41 1_555 1_555
H40 C41 1_555 1_555
H41 C42 1_555 1_555
H42 C42 1_555 1_555
H43 C45 1_555 1_555
H44 C47 1_555 1_555
C1 C31 1_555 1_555
C5 C32 1_555 1_555
C6 C33 1_555 1_555
C9 C10 1_555 1_555
C10 C34 1_555 1_555
C11 C35 1_555 1_555
C14 C15 1_555 1_555
C15 C36 1_555 1_555
C16 C37 1_555 1_555
C19 C20 1_555 1_555
C20 C38 1_555 1_555
C21 C39 1_555 1_555
C24 C25 1_555 1_555
C25 C40 1_555 1_555
C26 C41 1_555 1_555
C29 C30 1_555 1_555
C30 C42 1_555 1_555

#END
