
#######################################################################
#
#                 Cambridge Crystallographic Data Centre
#                                CCDC 
#
#######################################################################
#
# If this CIF has been generated from an entry in the Cambridge 
# Structural Database, then it will include bibliographic, chemical, 
# crystal, experimental, refinement or atomic coordinate data resulting 
# from the CCDC's data processing and validation procedures.
#
#######################################################################

data_WINJIN
_chemical_compound_source        'halotolerant fungus THW-18'
_chemical_name_common            'Dimethylincisterol A3'
_chemical_formula_moiety         'C21 H32 O3'
_chemical_name_systematic        
(3aS,5aR,6R,8aR)-3a-Hydroxy-5a-methyl-6-((1R,2E,4R)-1,4,5-trimethyl-2-hexen-1-yl)-3a,4,5,5a,6,7,8,8a-octahydro-2H-cyclopenta(e)benzofuran-2-one
_symmetry_cell_setting           monoclinic
_symmetry_space_group_name_H-M   'P 21'
_symmetry_Int_Tables_number      4
_space_group_name_Hall           'P 2yb'
loop_
_symmetry_equiv_pos_site_id
_symmetry_equiv_pos_as_xyz
1 x,y,z
2 -x,1/2+y,-z
_cell_length_a                   8.0506(9)
_cell_length_b                   6.7640(8)
_cell_length_c                   18.858(2)
_cell_angle_alpha                90
_cell_angle_beta                 95.639(2)
_cell_angle_gamma                90
_cell_volume                     1021.93
_exptl_crystal_colour            colorless
_exptl_crystal_description       flake
_cell_formula_units_Z            2
_exptl_crystal_recrystallization_method 'petroleum ether/acetone'
loop_
_atom_site_label
_atom_site_type_symbol
_atom_site_fract_x
_atom_site_fract_y
_atom_site_fract_z
O1 O 1.4534(3) 0.2461(4) 0.46674(13)
O2 O 1.4101(3) 0.2856(5) 0.58115(15)
O3 O 1.4982(3) 0.4173(5) 0.36379(13)
H1 H 1.5217 0.5222 0.3842
C1 C 1.3731(4) 0.3295(6) 0.5192(2)
C2 C 1.2432(4) 0.4584(6) 0.48848(19)
H2 H 1.1721 0.5330 0.5138
C3 C 1.2414(4) 0.4536(5) 0.41862(18)
C4 C 1.3778(4) 0.3200(6) 0.39805(19)
C5 C 1.3090(4) 0.1516(6) 0.3518(2)
H3 H 1.2516 0.0595 0.3804
H4 H 1.4002 0.0816 0.3330
C6 C 1.1873(4) 0.2264(6) 0.28980(18)
H5 H 1.2492 0.3018 0.2574
H6 H 1.1380 0.1137 0.2638
C7 C 1.0479(4) 0.3558(5) 0.31402(17)
C8 C 1.1314(4) 0.5317(5) 0.35810(18)
H7 H 1.2034 0.5999 0.3270
C9 C 0.9890(4) 0.6699(6) 0.36851(19)
H8 H 1.0285 0.8045 0.3760
H9 H 0.9309 0.6295 0.4088
C10 C 0.8755(4) 0.6518(6) 0.29844(19)
H10 H 0.8795 0.7724 0.2709
H11 H 0.7610 0.6289 0.3082
C11 C 0.9407(4) 0.4739(5) 0.25643(17)
H12 H 1.0169 0.5279 0.2239
C12 C 0.7992(4) 0.3695(6) 0.21038(19)
H13 H 0.7251 0.3099 0.2427
C13 C 0.6990(5) 0.5150(7) 0.16491(19)
H14 H 0.7526 0.5764 0.1294
C14 C 0.5453(5) 0.5652(7) 0.1695(2)
H15 H 0.4914 0.4964 0.2033
C15 C 0.4421(5) 0.7175(7) 0.1283(2)
H16 H 0.5070 0.7697 0.0912
C16 C 0.2811(6) 0.6235(10) 0.0917(3)
H17 H 0.2198 0.5626 0.1285
C17 C 0.1679(7) 0.7832(14) 0.0527(3)
H18 H 0.2280 0.8488 0.0180
H19 H 0.1358 0.8781 0.0867
H20 H 0.0699 0.7216 0.0293
C18 C 0.9365(4) 0.2377(6) 0.35926(19)
H21 H 0.9008 0.1185 0.3346
H22 H 0.8406 0.3154 0.3677
H23 H 0.9977 0.2047 0.4039
C19 C 0.8610(6) 0.2045(7) 0.1650(2)
H24 H 0.7688 0.1507 0.1350
H25 H 0.9110 0.1024 0.1953
H26 H 0.9424 0.2563 0.1359
C20 C 0.4074(8) 0.8880(10) 0.1784(3)
H27 H 0.3362 0.8424 0.2130
H28 H 0.3535 0.9941 0.1512
H29 H 0.5108 0.9343 0.2024
C21 C 0.3219(7) 0.4647(13) 0.0398(3)
H30 H 0.3817 0.5221 0.0033
H31 H 0.2204 0.4061 0.0185
H32 H 0.3896 0.3649 0.0646
loop_
_geom_bond_atom_site_label_1
_geom_bond_atom_site_label_2
_geom_bond_site_symmetry_1
_geom_bond_site_symmetry_2
O1 C1 1_555 1_555
O2 C1 1_555 1_555
O3 H1 1_555 1_555
C1 C2 1_555 1_555
C2 H2 1_555 1_555
C3 C2 1_555 1_555
C4 O1 1_555 1_555
C5 C4 1_555 1_555
H3 C5 1_555 1_555
H4 C5 1_555 1_555
C6 C5 1_555 1_555
H5 C6 1_555 1_555
H6 C6 1_555 1_555
C7 C6 1_555 1_555
C8 C3 1_555 1_555
H7 C8 1_555 1_555
C9 C8 1_555 1_555
H8 C9 1_555 1_555
H9 C9 1_555 1_555
C10 C9 1_555 1_555
H10 C10 1_555 1_555
H11 C10 1_555 1_555
C11 C7 1_555 1_555
H12 C11 1_555 1_555
C12 C11 1_555 1_555
H13 C12 1_555 1_555
C13 C12 1_555 1_555
H14 C13 1_555 1_555
C14 C13 1_555 1_555
H15 C14 1_555 1_555
C15 C14 1_555 1_555
H16 C15 1_555 1_555
C16 C15 1_555 1_555
H17 C16 1_555 1_555
C17 C16 1_555 1_555
H18 C17 1_555 1_555
H19 C17 1_555 1_555
H20 C17 1_555 1_555
C18 C7 1_555 1_555
H21 C18 1_555 1_555
H22 C18 1_555 1_555
H23 C18 1_555 1_555
C19 C12 1_555 1_555
H24 C19 1_555 1_555
H25 C19 1_555 1_555
H26 C19 1_555 1_555
C20 C15 1_555 1_555
H27 C20 1_555 1_555
H28 C20 1_555 1_555
H29 C20 1_555 1_555
C21 C16 1_555 1_555
H30 C21 1_555 1_555
H31 C21 1_555 1_555
H32 C21 1_555 1_555
O3 C4 1_555 1_555
C3 C4 1_555 1_555
C7 C8 1_555 1_555
C10 C11 1_555 1_555

#END
