
#######################################################################
#
#                 Cambridge Crystallographic Data Centre
#                                CCDC 
#
#######################################################################
#
# If this CIF has been generated from an entry in the Cambridge 
# Structural Database, then it will include bibliographic, chemical, 
# crystal, experimental, refinement or atomic coordinate data resulting 
# from the CCDC's data processing and validation procedures.
#
#######################################################################

data_WINTUJ
_chemical_formula_moiety         'C13 H16 O3'
_chemical_name_systematic        
1-(2-Hydroxy-4-(3-methylbut-2-enyloxy)phenyl)ethan-1-one
_symmetry_cell_setting           triclinic
_symmetry_space_group_name_H-M   'P -1'
_symmetry_Int_Tables_number      2
_space_group_name_Hall           '-P 1'
loop_
_symmetry_equiv_pos_site_id
_symmetry_equiv_pos_as_xyz
1 x,y,z
2 -x,-y,-z
_cell_length_a                   9.7647(17)
_cell_length_b                   11.347(2)
_cell_length_c                   11.553(2)
_cell_angle_alpha                87.357(3)
_cell_angle_beta                 86.416(3)
_cell_angle_gamma                68.734(3)
_cell_volume                     1190.2
_exptl_crystal_colour            colorless
_exptl_crystal_description       plate
_chemical_melting_point          '315 K'
_cell_formula_units_Z            4
loop_
_atom_site_label
_atom_site_type_symbol
_atom_site_fract_x
_atom_site_fract_y
_atom_site_fract_z
O1 O 1.25506(18) 0.10599(15) -0.12691(14)
O2 O 1.17852(16) -0.00557(13) 0.04770(14)
H1 H 1.2296 0.0022 -0.0091
O3 O 0.75851(15) 0.23654(13) 0.27682(12)
C1 C 1.1437(3) 0.3223(2) -0.1747(2)
H3 H 1.2193 0.3005 -0.2357
H4 H 1.1555 0.3849 -0.1271
H5 H 1.0490 0.3557 -0.2078
C2 C 1.1552(2) 0.2065(2) -0.10190(18)
C3 C 1.0534(2) 0.21320(18) -0.00314(17)
C4 C 0.9361(2) 0.32489(19) 0.02578(18)
H6 H 0.9228 0.3976 -0.0198
C5 C 0.8411(2) 0.33011(19) 0.11839(18)
H7 H 0.7641 0.4054 0.1355
C6 C 0.8600(2) 0.22158(18) 0.18756(17)
C7 C 0.9741(2) 0.11066(18) 0.16346(17)
H8 H 0.9874 0.0391 0.2106
C8 C 1.0694(2) 0.10604(18) 0.06845(17)
C9 C 0.7625(2) 0.12683(19) 0.34593(19)
H9 H 0.8504 0.0962 0.3902
H10 H 0.7630 0.0597 0.2967
C10 C 0.6288(2) 0.1659(2) 0.4252(2)
H11 H 0.5470 0.2320 0.3993
C11 C 0.6145(2) 0.1161(2) 0.52906(19)
C12 C 0.7364(3) 0.0125(3) 0.5836(2)
H12 H 0.7214 -0.0660 0.5777
H13 H 0.7383 0.0301 0.6639
H14 H 0.8283 0.0065 0.5445
C13 C 0.4715(3) 0.1616(3) 0.5984(2)
H15 H 0.3992 0.2257 0.5546
H16 H 0.4844 0.1963 0.6694
H17 H 0.4391 0.0921 0.6158
O4 O -0.01889(19) 0.72134(16) 0.50337(15)
O5 O 0.04455(16) 0.82123(14) 0.31644(15)
H2 H -0.0057 0.8143 0.3741
O6 O 0.51181(14) 0.60928(13) 0.13071(12)
C14 C 0.1377(3) 0.5350(2) 0.5921(2)
H18 H 0.0582 0.5553 0.6498
H19 H 0.2264 0.5296 0.6273
H20 H 0.1511 0.4553 0.5590
C15 C 0.1030(2) 0.6355(2) 0.49938(19)
C16 C 0.2095(2) 0.63136(18) 0.40422(17)
C17 C 0.3488(2) 0.53508(19) 0.39605(17)
H21 H 0.3753 0.4731 0.4546
C18 C 0.4460(2) 0.52966(19) 0.30523(18)
H22 H 0.5372 0.4642 0.3014
C19 C 0.4078(2) 0.62322(18) 0.21770(17)
C20 C 0.2732(2) 0.71977(19) 0.22245(18)
H23 H 0.2482 0.7816 0.1637
C21 C 0.1748(2) 0.72438(18) 0.31532(18)
C22 C 0.4793(2) 0.6982(2) 0.03491(19)
H24 H 0.4695 0.7813 0.0603
H25 H 0.3876 0.7042 0.0026
C23 C 0.6022(2) 0.6528(2) -0.05365(18)
H26 H 0.6548 0.5661 -0.0546
C24 C 0.6439(2) 0.7235(2) -0.13107(17)
C25 C 0.5709(3) 0.8638(2) -0.1387(2)
H27 H 0.5021 0.8864 -0.1991
H28 H 0.6438 0.9013 -0.1559
H29 H 0.5198 0.8941 -0.0661
C26 C 0.7666(2) 0.6677(2) -0.2193(2)
H30 H 0.8070 0.5775 -0.2077
H31 H 0.8420 0.7020 -0.2112
H32 H 0.7298 0.6876 -0.2957
loop_
_geom_bond_atom_site_label_1
_geom_bond_atom_site_label_2
_geom_bond_site_symmetry_1
_geom_bond_site_symmetry_2
O1 C2 1_555 1_555
O2 H1 1_555 1_555
O3 C6 1_555 1_555
O4 C15 1_555 1_555
O5 H2 1_555 1_555
O6 C19 1_555 1_555
C1 H3 1_555 1_555
H4 C1 1_555 1_555
H5 C1 1_555 1_555
C2 C1 1_555 1_555
C3 C2 1_555 1_555
C4 C3 1_555 1_555
H6 C4 1_555 1_555
C5 C4 1_555 1_555
H7 C5 1_555 1_555
C6 C5 1_555 1_555
C7 C6 1_555 1_555
H8 C7 1_555 1_555
C8 O2 1_555 1_555
C9 O3 1_555 1_555
H9 C9 1_555 1_555
H10 C9 1_555 1_555
C10 C9 1_555 1_555
H11 C10 1_555 1_555
C11 C10 1_555 1_555
C12 C11 1_555 1_555
H12 C12 1_555 1_555
H13 C12 1_555 1_555
H14 C12 1_555 1_555
C13 C11 1_555 1_555
H15 C13 1_555 1_555
H16 C13 1_555 1_555
H17 C13 1_555 1_555
C14 H18 1_555 1_555
H19 C14 1_555 1_555
H20 C14 1_555 1_555
C15 C14 1_555 1_555
C16 C15 1_555 1_555
C17 C16 1_555 1_555
H21 C17 1_555 1_555
C18 C17 1_555 1_555
H22 C18 1_555 1_555
C19 C18 1_555 1_555
C20 C19 1_555 1_555
H23 C20 1_555 1_555
C21 O5 1_555 1_555
C22 O6 1_555 1_555
H24 C22 1_555 1_555
H25 C22 1_555 1_555
C23 C22 1_555 1_555
H26 C23 1_555 1_555
C24 C23 1_555 1_555
C25 C24 1_555 1_555
H27 C25 1_555 1_555
H28 C25 1_555 1_555
H29 C25 1_555 1_555
C26 C24 1_555 1_555
H30 C26 1_555 1_555
H31 C26 1_555 1_555
H32 C26 1_555 1_555
C3 C8 1_555 1_555
C7 C8 1_555 1_555
C16 C21 1_555 1_555
C20 C21 1_555 1_555

#END
