
#######################################################################
#
#                 Cambridge Crystallographic Data Centre
#                                CCDC 
#
#######################################################################
#
# If this CIF has been generated from an entry in the Cambridge 
# Structural Database, then it will include bibliographic, chemical, 
# crystal, experimental, refinement or atomic coordinate data resulting 
# from the CCDC's data processing and validation procedures.
#
#######################################################################

data_WIQHUC
_chemical_formula_moiety         'C30 H33 N6 3+,3(H2 O1),3(I1 1-)'
_chemical_name_systematic        
'2,22,30-trimethyl-5,8,16,19,24,27-hexaazaheptacyclo[10.10.6.1^3,21^.1^5,8^.1^10,14^.1^16,19^.1^24,27^]tritriaconta-1,3(30),5(33),6,10(32),11,13,17,19(31),21,24(29),25-dodecaene-5,19,24-triium tris(iodide) trihydrate'
_symmetry_cell_setting           monoclinic
_symmetry_space_group_name_H-M   'P 21'
_symmetry_Int_Tables_number      4
_space_group_name_Hall           'P 2yb'
loop_
_symmetry_equiv_pos_site_id
_symmetry_equiv_pos_as_xyz
1 x,y,z
2 -x,1/2+y,-z
_cell_length_a                   8.7246(3)
_cell_length_b                   18.8111(5)
_cell_length_c                   11.1783(4)
_cell_angle_alpha                90
_cell_angle_beta                 111.852(5)
_cell_angle_gamma                90
_cell_volume                     1702.76
_exptl_crystal_colour            yellow
_exptl_crystal_description       prism
_cell_formula_units_Z            2
loop_
_atom_site_label
_atom_site_type_symbol
_atom_site_fract_x
_atom_site_fract_y
_atom_site_fract_z
C1 C -0.0359(14) 0.4221(5) 0.2045(10)
H1 H -0.1137 0.3858 0.1810
C2 C 0.1123(14) 0.4220(5) 0.1952(11)
H2 H 0.1582 0.3844 0.1660
C3 C 0.0846(12) 0.5247(5) 0.2724(9)
H3 H 0.1051 0.5709 0.3044
C4 C 0.1022(16) 0.8712(6) 0.1611(12)
H4 H 0.1560 0.9098 0.1422
C5 C -0.0441(17) 0.8724(6) 0.1772(12)
H5 H -0.1115 0.9119 0.1689
C6 C 0.0454(13) 0.7637(6) 0.2061(10)
H6 H 0.0520 0.7151 0.2221
C7 C 0.4898(14) 0.6180(5) 0.7770(9)
H7 H 0.5869 0.5962 0.8304
C8 C 0.3445(12) 0.6181(5) 0.7925(9)
H8 H 0.3227 0.5962 0.8591
C9 C 0.3131(11) 0.6796(6) 0.6187(9)
H9 H 0.2675 0.7077 0.5455
C10 C 0.3881(11) 0.5828(5) 0.2800(10)
C11 C 0.4773(11) 0.5940(5) 0.4124(9)
H10 H 0.5146 0.5550 0.4668
C12 C 0.5107(11) 0.6622(5) 0.4633(9)
C13 C 0.4604(12) 0.7195(5) 0.3831(9)
H11 H 0.4840 0.7651 0.4169
C14 C 0.3732(12) 0.7103(5) 0.2500(9)
C15 C 0.3394(12) 0.6422(5) 0.2012(10)
H12 H 0.2824 0.6359 0.1132
C16 C 0.3441(12) 0.5088(5) 0.2279(12)
H13 H 0.3354 0.5074 0.1388
H14 H 0.4308 0.4761 0.2770
C17 C 0.5900(11) 0.6720(6) 0.6073(9)
H15 H 0.6844 0.6406 0.6422
H16 H 0.6286 0.7206 0.6267
C18 C 0.3068(13) 0.7738(5) 0.1642(10)
H17 H 0.3902 0.8108 0.1863
H18 H 0.2819 0.7603 0.0751
C19 C -0.1676(11) 0.5862(5) 0.3399(9)
C20 C -0.2156(11) 0.6480(6) 0.2617(9)
C21 C -0.1803(12) 0.7156(6) 0.3172(9)
C22 C -0.0928(11) 0.7235(6) 0.4523(10)
C23 C -0.0442(11) 0.6605(6) 0.5277(9)
C24 C -0.0827(11) 0.5937(6) 0.4732(10)
C25 C -0.1977(12) 0.5142(5) 0.2791(11)
H19 H -0.2253 0.4813 0.3349
H20 H -0.2910 0.5165 0.1977
C26 C -0.3063(13) 0.6391(6) 0.1173(10)
H21 H -0.2546 0.6022 0.0864
H22 H -0.3023 0.6830 0.0746
H23 H -0.4193 0.6266 0.0998
C27 C -0.2222(12) 0.7813(6) 0.2343(10)
H24 H -0.3125 0.7712 0.1537
H25 H -0.2570 0.8188 0.2781
C28 C -0.0507(14) 0.7968(5) 0.5094(11)
H26 H -0.1468 0.8179 0.5172
H27 H -0.0142 0.8257 0.4544
H28 H 0.0356 0.7935 0.5931
C29 C 0.0627(11) 0.6682(5) 0.6719(9)
H29 H 0.0498 0.7156 0.7009
H30 H 0.0264 0.6343 0.7212
C30 C -0.0278(15) 0.5282(6) 0.5583(11)
H31 H 0.0904 0.5246 0.5901
H32 H -0.0758 0.4865 0.5090
H33 H -0.0634 0.5321 0.6297
N1 N -0.0502(10) 0.4873(4) 0.2563(8)
N2 N 0.1845(10) 0.4861(4) 0.2357(8)
N3 N 0.1561(10) 0.8017(4) 0.1779(7)
N4 N -0.0743(10) 0.8051(4) 0.2077(8)
N5 N 0.4674(9) 0.6559(4) 0.6678(7)
N6 N 0.2346(9) 0.6557(4) 0.6938(7)
I1 I 0.52042(10) 0.32026(4) 0.13691(7)
O1 O 0.6995(15) 0.3619(7) 0.4743(12)
H34 H 0.68(2) 0.34(5) 0.40(4)
H35 H 0.594(7) 0.374(7) 0.463(13)
O2 O 0.4731(16) 0.4768(5) 0.9551(11)
H36 H 0.5042 0.4688 0.8870
H37 H 0.4582 0.4338 0.9837
O3 O 0.8897(13) 0.7530(5) 0.8851(10)
H38 H 0.8208 0.7707 0.9197
H39 H 0.8468 0.7057 0.8813
I2 I 0.95916(8) 0.56659(3) 0.92522(6)
I3 I 0.42834(10) 0.43384(4) 0.61831(8)
loop_
_geom_bond_atom_site_label_1
_geom_bond_atom_site_label_2
_geom_bond_site_symmetry_1
_geom_bond_site_symmetry_2
C1 H1 1_555 1_555
C2 C1 1_555 1_555
H2 C2 1_555 1_555
C3 H3 1_555 1_555
C4 H4 1_555 1_555
C5 C4 1_555 1_555
H5 C5 1_555 1_555
C6 H6 1_555 1_555
C7 H7 1_555 1_555
C8 C7 1_555 1_555
H8 C8 1_555 1_555
C9 H9 1_555 1_555
C10 C11 1_555 1_555
C11 H10 1_555 1_555
C12 C11 1_555 1_555
C13 C12 1_555 1_555
H11 C13 1_555 1_555
C14 C13 1_555 1_555
C15 C10 1_555 1_555
H12 C15 1_555 1_555
C16 C10 1_555 1_555
H13 C16 1_555 1_555
H14 C16 1_555 1_555
C17 C12 1_555 1_555
H15 C17 1_555 1_555
H16 C17 1_555 1_555
C18 C14 1_555 1_555
H17 C18 1_555 1_555
H18 C18 1_555 1_555
C19 C20 1_555 1_555
C20 C21 1_555 1_555
C21 C22 1_555 1_555
C22 C23 1_555 1_555
C23 C24 1_555 1_555
C24 C19 1_555 1_555
C25 C19 1_555 1_555
H19 C25 1_555 1_555
H20 C25 1_555 1_555
C26 C20 1_555 1_555
H21 C26 1_555 1_555
H22 C26 1_555 1_555
H23 C26 1_555 1_555
C27 C21 1_555 1_555
H24 C27 1_555 1_555
H25 C27 1_555 1_555
C28 C22 1_555 1_555
H26 C28 1_555 1_555
H27 C28 1_555 1_555
H28 C28 1_555 1_555
C29 C23 1_555 1_555
H29 C29 1_555 1_555
H30 C29 1_555 1_555
C30 C24 1_555 1_555
H31 C30 1_555 1_555
H32 C30 1_555 1_555
H33 C30 1_555 1_555
N1 C1 1_555 1_555
N2 C2 1_555 1_555
N3 C4 1_555 1_555
N4 C5 1_555 1_555
N5 C7 1_555 1_555
N6 C8 1_555 1_555
O1 H34 1_555 1_555
H35 O1 1_555 1_555
O2 H36 1_555 1_555
H37 O2 1_555 1_555
O3 H38 1_555 1_555
H39 O3 1_555 1_555
C3 N1 1_555 1_555
C3 N2 1_555 1_555
C6 N3 1_555 1_555
C6 N4 1_555 1_555
C9 N5 1_555 1_555
C9 N6 1_555 1_555
C14 C15 1_555 1_555
C16 N2 1_555 1_555
C17 N5 1_555 1_555
C18 N3 1_555 1_555
C25 N1 1_555 1_555
C27 N4 1_555 1_555
C29 N6 1_555 1_555

#END
