
#######################################################################
#
#                 Cambridge Crystallographic Data Centre
#                                CCDC 
#
#######################################################################
#
# If this CIF has been generated from an entry in the Cambridge 
# Structural Database, then it will include bibliographic, chemical, 
# crystal, experimental, refinement or atomic coordinate data resulting 
# from the CCDC's data processing and validation procedures.
#
#######################################################################

data_WIRDEG
_chemical_formula_moiety         'C36 H32 N4 O3 S2'
_chemical_name_systematic        
3-Phenyl-2-(2'-(phenylthio)ethyl)-2,6,7,8-tetrahydro-1,6-methano-8-((p-methoxyphenyl)sulfonyl)-1H-azocino(4,3-b)indole(3,4-c)pyrazole
_symmetry_cell_setting           triclinic
_symmetry_space_group_name_H-M   'P -1'
_symmetry_Int_Tables_number      2
_space_group_name_Hall           '-P 1'
loop_
_symmetry_equiv_pos_site_id
_symmetry_equiv_pos_as_xyz
1 x,y,z
2 -x,-y,-z
_cell_length_a                   10.077(2)
_cell_length_b                   17.724(5)
_cell_length_c                   8.776(2)
_cell_angle_alpha                102.48(1)
_cell_angle_beta                 92.98(1)
_cell_angle_gamma                95.25(1)
_cell_volume                     1519.82
_exptl_crystal_colour            colorless
_chemical_melting_point          124-126deg.C
_cell_formula_units_Z            2
loop_
_atom_site_label
_atom_site_type_symbol
_atom_site_fract_x
_atom_site_fract_y
_atom_site_fract_z
C1 C 0.2279(2) 0.0639(1) 0.6686(2)
C2 C 0.3508(2) 0.0384(1) 0.6993(2)
C3 C 0.3748(2) 0.0214(1) 0.8442(2)
C4 C 0.2805(2) 0.0300(1) 0.9558(2)
C5 C 0.1572(2) 0.0537(1) 0.9236(2)
C6 C 0.1295(2) 0.0701(1) 0.7773(2)
C7 C 0.0144(2) 0.0959(1) 0.7056(2)
C8 C -0.1174(2) 0.1104(1) 0.7738(2)
C9 C -0.2202(2) 0.1155(1) 0.6428(2)
C10 C -0.1596(2) 0.1742(1) 0.5531(2)
C11 C -0.0476(2) 0.1387(1) 0.4567(2)
C12 C 0.0433(2) 0.1080(1) 0.5637(2)
N1 N 0.1745(2) 0.0856(1) 0.5321(2)
N2 N -0.0966(2) 0.1832(1) 0.8982(2)
C13 C -0.0817(2) 0.2470(1) 0.8290(2)
N3 N -0.0284(2) 0.3204(1) 0.9037(2)
N4 N -0.0198(2) 0.3692(1) 0.8003(2)
C14 C -0.0657(2) 0.3235(1) 0.6630(3)
C15 C -0.1063(2) 0.2468(1) 0.6729(2)
S1 S 0.2780(1) 0.12615(3) 0.4224(1)
O1 O 0.1959(1) 0.1445(1) 0.3006(2)
O2 O 0.3780(1) 0.0746(1) 0.3830(2)
C16 C 0.3511(2) 0.2117(1) 0.5529(2)
C17 C 0.2696(2) 0.2651(1) 0.6300(3)
C18 C 0.3268(2) 0.3313(1) 0.7327(3)
C19 C 0.4663(2) 0.3452(1) 0.7596(3)
C20 C 0.5462(2) 0.2918(1) 0.6824(3)
C21 C 0.4883(2) 0.2248(1) 0.5794(3)
O3 O 0.5123(2) 0.4125(1) 0.8626(2)
C22 C 0.6543(3) 0.4269(2) 0.9039(4)
C23 C -0.1770(2) 0.1863(1) 1.0343(3)
C24 C -0.3273(2) 0.1750(1) 0.9992(3)
S2 S -0.4162(1) 0.18469(3) 1.1771(1)
C25 C -0.4117(2) 0.2874(1) 1.2346(3)
C26 C -0.3062(3) 0.3316(2) 1.3274(3)
C27 C -0.3059(3) 0.4112(2) 1.3772(4)
C28 C -0.4119(3) 0.4476(2) 1.3363(4)
C29 C -0.5171(3) 0.4035(2) 1.2437(5)
C30 C -0.5181(3) 0.3241(2) 1.1927(4)
C31 C 0.0252(2) 0.3493(1) 1.0616(2)
C32 C 0.0055(2) 0.4238(1) 1.1391(3)
C33 C 0.0576(2) 0.4512(1) 1.2922(3)
C34 C 0.1266(3) 0.4046(1) 1.3685(3)
C35 C 0.1469(2) 0.3308(1) 1.2901(3)
C36 C 0.0978(2) 0.3024(1) 1.1356(3)
H1 H 0.414(2) 0.032(1) 0.626(2)
H2 H 0.459(2) 0.003(1) 0.867(2)
H3 H 0.303(2) 0.019(1) 1.056(2)
H4 H 0.095(2) 0.060(1) 0.997(2)
H5 H -0.144(2) 0.069(1) 0.821(2)
H6 H -0.242(2) 0.067(1) 0.574(2)
H7 H -0.303(2) 0.131(1) 0.686(2)
H8 H -0.227(2) 0.185(1) 0.482(2)
H9 H -0.085(2) 0.098(1) 0.368(2)
H10 H -0.001(2) 0.178(1) 0.413(2)
H11 H -0.066(2) 0.344(1) 0.570(2)
H12 H 0.178(2) 0.255(1) 0.617(2)
H13 H 0.277(2) 0.369(1) 0.786(3)
H14 H 0.638(2) 0.299(1) 0.701(3)
H15 H 0.543(2) 0.186(1) 0.529(3)
H16 H 0.689(3) 0.385(2) 0.944(3)
H17 H 0.697(3) 0.431(2) 0.806(3)
H18 H 0.665(3) 0.478(2) 0.977(3)
H19 H -0.147(2) 0.147(1) 1.090(2)
H20 H -0.151(2) 0.236(1) 1.106(2)
H21 H -0.359(2) 0.212(1) 0.942(3)
H22 H -0.359(2) 0.122(1) 0.935(2)
H23 H -0.230(3) 0.305(2) 1.355(3)
H24 H -0.230(3) 0.443(2) 1.444(4)
H25 H -0.413(3) 0.503(2) 1.373(3)
H26 H -0.587(4) 0.425(2) 1.218(4)
H27 H -0.586(3) 0.292(2) 1.132(3)
H28 H -0.046(2) 0.456(1) 1.088(3)
H29 H 0.045(2) 0.501(1) 1.344(3)
H30 H 0.161(2) 0.422(1) 1.472(3)
H31 H 0.195(3) 0.298(1) 1.338(3)
H32 H 0.112(2) 0.253(1) 1.081(3)
loop_
_geom_bond_atom_site_label_1
_geom_bond_atom_site_label_2
_geom_bond_site_symmetry_1
_geom_bond_site_symmetry_2
C1 C2 1_555 1_555
C2 C3 1_555 1_555
C3 C4 1_555 1_555
C4 C5 1_555 1_555
C5 C6 1_555 1_555
C6 C1 1_555 1_555
C7 C6 1_555 1_555
C8 C7 1_555 1_555
C9 C8 1_555 1_555
C10 C9 1_555 1_555
C11 C10 1_555 1_555
C12 C7 1_555 1_555
N1 C1 1_555 1_555
N2 C8 1_555 1_555
C13 N2 1_555 1_555
N3 C13 1_555 1_555
N4 N3 1_555 1_555
C14 N4 1_555 1_555
C15 C10 1_555 1_555
S1 N1 1_555 1_555
O1 S1 1_555 1_555
O2 S1 1_555 1_555
C16 S1 1_555 1_555
C17 C16 1_555 1_555
C18 C17 1_555 1_555
C19 C18 1_555 1_555
C20 C19 1_555 1_555
C21 C16 1_555 1_555
O3 C19 1_555 1_555
C22 O3 1_555 1_555
C23 N2 1_555 1_555
C24 C23 1_555 1_555
S2 C24 1_555 1_555
C25 S2 1_555 1_555
C26 C25 1_555 1_555
C27 C26 1_555 1_555
C28 C27 1_555 1_555
C29 C28 1_555 1_555
C30 C25 1_555 1_555
C31 N3 1_555 1_555
C32 C31 1_555 1_555
C33 C32 1_555 1_555
C34 C33 1_555 1_555
C35 C34 1_555 1_555
C36 C31 1_555 1_555
H1 C2 1_555 1_555
H2 C3 1_555 1_555
H3 C4 1_555 1_555
H4 C5 1_555 1_555
H5 C8 1_555 1_555
H6 C9 1_555 1_555
H7 C9 1_555 1_555
H8 C10 1_555 1_555
H9 C11 1_555 1_555
H10 C11 1_555 1_555
H11 C14 1_555 1_555
H12 C17 1_555 1_555
H13 C18 1_555 1_555
H14 C20 1_555 1_555
H15 C21 1_555 1_555
H16 C22 1_555 1_555
H17 C22 1_555 1_555
H18 C22 1_555 1_555
H19 C23 1_555 1_555
H20 C23 1_555 1_555
H21 C24 1_555 1_555
H22 C24 1_555 1_555
H23 C26 1_555 1_555
H24 C27 1_555 1_555
H25 C28 1_555 1_555
H26 C29 1_555 1_555
H27 C30 1_555 1_555
H28 C32 1_555 1_555
H29 C33 1_555 1_555
H30 C34 1_555 1_555
H31 C35 1_555 1_555
H32 C36 1_555 1_555
C11 C12 1_555 1_555
C12 N1 1_555 1_555
C13 C15 1_555 1_555
C14 C15 1_555 1_555
C20 C21 1_555 1_555
C29 C30 1_555 1_555
C35 C36 1_555 1_555

#END
