
#######################################################################
#
#                 Cambridge Crystallographic Data Centre
#                                CCDC 
#
#######################################################################
#
# If this CIF has been generated from an entry in the Cambridge 
# Structural Database, then it will include bibliographic, chemical, 
# crystal, experimental, refinement or atomic coordinate data resulting 
# from the CCDC's data processing and validation procedures.
#
#######################################################################

data_WIRPUL
_chemical_formula_moiety         'C46 H28 F3 N1 O3 S1,0.5(C6 D5 Br1)'
_chemical_name_systematic        
'9,13-diphenyl-11-(2-((4-(trifluoromethyl)phenyl)sulfanyl)phenyl)-12a,13-dihydro-9H-9,13-methanophenanthro[9,10-f]isoindole-10,12,14(9aH,11H)-trione deuterobromobenzene solvate'
_symmetry_cell_setting           triclinic
_symmetry_space_group_name_H-M   'P -1'
_symmetry_Int_Tables_number      2
_space_group_name_Hall           '-P 1'
loop_
_symmetry_equiv_pos_site_id
_symmetry_equiv_pos_as_xyz
1 x,y,z
2 -x,-y,-z
_cell_length_a                   10.0150(5)
_cell_length_b                   11.8686(5)
_cell_length_c                   16.0169(8)
_cell_angle_alpha                85.793(2)
_cell_angle_beta                 82.542(2)
_cell_angle_gamma                81.689(2)
_cell_volume                     1865.01
_exptl_crystal_colour            colorless
_exptl_crystal_description       wedge
_cell_formula_units_Z            2
loop_
_atom_site_label
_atom_site_type_symbol
_atom_site_fract_x
_atom_site_fract_y
_atom_site_fract_z
S1 S 0.95296(6) 0.36872(5) 0.42864(3)
F1 F 0.9333(2) 0.01372(15) 0.76974(10)
F2 F 1.09057(17) -0.07963(14) 0.68948(11)
F3 F 0.88404(19) -0.09788(14) 0.68323(12)
O1 O 0.81398(14) 0.46330(11) -0.03015(8)
O2 O 0.88581(15) 0.65037(12) 0.26626(8)
O3 O 0.70307(15) 0.31718(12) 0.30614(9)
N1 N 0.78314(17) 0.49018(14) 0.30354(10)
C1 C 0.78138(18) 0.47506(15) 0.04321(11)
C2 C 0.78734(18) 0.57769(15) 0.09711(11)
C3 C 0.87824(19) 0.51130(16) 0.16218(11)
H1 H 0.9767 0.5034 0.1394
C4 C 0.85339(19) 0.56261(17) 0.24751(12)
C5 C 0.7630(2) 0.38998(17) 0.26875(12)
C6 C 0.82699(19) 0.39362(16) 0.17716(11)
H2 H 0.9036 0.3301 0.1672
C7 C 0.71970(19) 0.39362(16) 0.11379(11)
C8 C 0.59871(18) 0.48063(15) 0.14573(10)
C9 C 0.64015(18) 0.58637(16) 0.13855(11)
C10 C 0.55665(19) 0.68323(16) 0.17552(11)
C11 C 0.6060(2) 0.78727(17) 0.18298(12)
H3 H 0.6966 0.7962 0.1604
C12 C 0.5243(2) 0.87560(19) 0.22252(14)
H4 H 0.5587 0.9449 0.2278
C13 C 0.3909(3) 0.8635(2) 0.25479(16)
H5 H 0.3343 0.9252 0.2814
C14 C 0.3404(2) 0.76386(19) 0.24859(14)
H6 H 0.2490 0.7577 0.2708
C15 C 0.4212(2) 0.66989(16) 0.20983(12)
C16 C 0.37273(19) 0.55970(16) 0.20988(11)
C17 C 0.23741(19) 0.54476(17) 0.23990(12)
H7 H 0.1728 0.6095 0.2539
C18 C 0.1974(2) 0.43821(18) 0.24926(12)
H8 H 0.1057 0.4301 0.2695
C19 C 0.2902(2) 0.34197(18) 0.22941(12)
H9 H 0.2628 0.2683 0.2389
C20 C 0.4211(2) 0.35359(17) 0.19621(12)
H10 H 0.4832 0.2877 0.1815
C21 C 0.46467(19) 0.46240(16) 0.18356(11)
C22 C 0.83708(19) 0.67981(16) 0.04797(11)
C23 C 0.9466(2) 0.72840(16) 0.06794(12)
H11 H 0.9924 0.6972 0.1145
C24 C 0.9895(2) 0.82182(17) 0.02057(13)
H12 H 1.0643 0.8543 0.0347
C25 C 0.9234(2) 0.86781(17) -0.04733(13)
H13 H 0.9524 0.9323 -0.0795
C26 C 0.8150(2) 0.81972(17) -0.06842(12)
H14 H 0.7702 0.8509 -0.1154
C27 C 0.7717(2) 0.72626(17) -0.02113(12)
H15 H 0.6972 0.6937 -0.0358
C28 C 0.69768(19) 0.27979(16) 0.08724(11)
C29 C 0.6322(2) 0.27361(17) 0.01625(12)
H16 H 0.6030 0.3415 -0.0155
C30 C 0.6093(2) 0.16897(17) -0.00831(13)
H17 H 0.5638 0.1658 -0.0564
C31 C 0.6524(2) 0.06906(18) 0.03677(14)
H18 H 0.6361 -0.0024 0.0200
C32 C 0.7194(2) 0.07441(17) 0.10652(13)
H19 H 0.7506 0.0061 0.1371
C33 C 0.7411(2) 0.17865(16) 0.13195(12)
H20 H 0.7860 0.1813 0.1803
C34 C 0.7331(2) 0.51687(17) 0.38935(12)
C35 C 0.7991(2) 0.46033(18) 0.45494(12)
C36 C 0.7482(2) 0.48617(19) 0.53736(13)
H21 H 0.7913 0.4481 0.5830
C37 C 0.6357(2) 0.5666(2) 0.55324(13)
H22 H 0.6010 0.5825 0.6098
C38 C 0.5728(2) 0.6244(2) 0.48758(14)
H23 H 0.4964 0.6810 0.4991
C39 C 0.6216(2) 0.59950(18) 0.40442(13)
H24 H 0.5789 0.6386 0.3589
C40 C 0.9470(2) 0.25747(19) 0.50908(12)
C41 C 0.8623(2) 0.1749(2) 0.50821(13)
H25 H 0.8005 0.1811 0.4673
C42 C 0.8681(2) 0.0833(2) 0.56722(14)
H26 H 0.8109 0.0262 0.5666
C43 C 0.9578(2) 0.07551(18) 0.62697(13)
C44 C 1.0403(2) 0.15852(19) 0.62916(14)
H27 H 1.1000 0.1532 0.6712
C45 C 1.0358(2) 0.25012(19) 0.56969(13)
H28 H 1.0929 0.3072 0.5705
C46 C 0.9671(3) -0.0232(2) 0.69184(16)
Br1? Br 0.4675(8) 0.1249(4) 0.3724(3)
C47? C 0.4935(5) 0.0266(4) 0.4679(3)
C48? C 0.3958(7) 0.0258(9) 0.5354(4)
D1? D 0.3146 0.0784 0.5360
C49? C 0.4142(11) -0.0505(10) 0.6020(6)
D2? D 0.3460 -0.0511 0.6491
C50? C 0.5305(13) -0.1260(9) 0.6012(7)
D3? D 0.5434 -0.1792 0.6476
C51? C 0.6283(11) -0.1251(8) 0.5337(8)
D4? D 0.7094 -0.1777 0.5331
C52? C 0.6098(6) -0.0488(6) 0.4670(6)
D5? D 0.6780 -0.0482 0.4200
Br2? Br 0.5166(11) 0.1190(4) 0.3757(3)
C53? C 0.5060(7) 0.0243(7) 0.4739(4)
C54? C 0.3952(8) 0.0429(7) 0.5353(5)
D6? D 0.3224 0.1014 0.5261
C55? C 0.3907(10) -0.0240(9) 0.6101(5)
D7? D 0.3148 -0.0112 0.6522
C56? C 0.4970(11) -0.1096(9) 0.6235(8)
D8? D 0.4939 -0.1554 0.6748
C57? C 0.6078(9) -0.1283(7) 0.5621(8)
D9? D 0.6805 -0.1869 0.5713
C58? C 0.6123(7) -0.0614(7) 0.4872(6)
D10? D 0.6881 -0.0742 0.4452
loop_
_geom_bond_atom_site_label_1
_geom_bond_atom_site_label_2
_geom_bond_site_symmetry_1
_geom_bond_site_symmetry_2
S1 C35 1_555 1_555
F1 C46 1_555 1_555
F2 C46 1_555 1_555
F3 C46 1_555 1_555
O1 C1 1_555 1_555
O2 C4 1_555 1_555
O3 C5 1_555 1_555
N1 C4 1_555 1_555
C1 C2 1_555 1_555
C2 C3 1_555 1_555
C3 H1 1_555 1_555
C4 C3 1_555 1_555
C5 N1 1_555 1_555
C6 C3 1_555 1_555
H2 C6 1_555 1_555
C7 C1 1_555 1_555
C8 C7 1_555 1_555
C9 C2 1_555 1_555
C10 C9 1_555 1_555
C11 C10 1_555 1_555
H3 C11 1_555 1_555
C12 C11 1_555 1_555
H4 C12 1_555 1_555
C13 C12 1_555 1_555
H5 C13 1_555 1_555
C14 C13 1_555 1_555
H6 C14 1_555 1_555
C15 C10 1_555 1_555
C16 C15 1_555 1_555
C17 C16 1_555 1_555
H7 C17 1_555 1_555
C18 C17 1_555 1_555
H8 C18 1_555 1_555
C19 C18 1_555 1_555
H9 C19 1_555 1_555
C20 C19 1_555 1_555
H10 C20 1_555 1_555
C21 C8 1_555 1_555
C22 C2 1_555 1_555
C23 C22 1_555 1_555
H11 C23 1_555 1_555
C24 C23 1_555 1_555
H12 C24 1_555 1_555
C25 C24 1_555 1_555
H13 C25 1_555 1_555
C26 C25 1_555 1_555
H14 C26 1_555 1_555
C27 C22 1_555 1_555
H15 C27 1_555 1_555
C28 C7 1_555 1_555
C29 C28 1_555 1_555
H16 C29 1_555 1_555
C30 C29 1_555 1_555
H17 C30 1_555 1_555
C31 C30 1_555 1_555
H18 C31 1_555 1_555
C32 C31 1_555 1_555
H19 C32 1_555 1_555
C33 C28 1_555 1_555
H20 C33 1_555 1_555
C34 N1 1_555 1_555
C35 C34 1_555 1_555
C36 C35 1_555 1_555
H21 C36 1_555 1_555
C37 C36 1_555 1_555
H22 C37 1_555 1_555
C38 C37 1_555 1_555
H23 C38 1_555 1_555
C39 C34 1_555 1_555
H24 C39 1_555 1_555
C40 S1 1_555 1_555
C41 C40 1_555 1_555
H25 C41 1_555 1_555
C42 C41 1_555 1_555
H26 C42 1_555 1_555
C43 C42 1_555 1_555
C44 C43 1_555 1_555
H27 C44 1_555 1_555
C45 C40 1_555 1_555
H28 C45 1_555 1_555
C46 C43 1_555 1_555
C5 C6 1_555 1_555
C6 C7 1_555 1_555
C8 C9 1_555 1_555
C14 C15 1_555 1_555
C16 C21 1_555 1_555
C20 C21 1_555 1_555
C26 C27 1_555 1_555
C32 C33 1_555 1_555
C38 C39 1_555 1_555
C44 C45 1_555 1_555

#END
