
#######################################################################
#
#                 Cambridge Crystallographic Data Centre
#                                CCDC 
#
#######################################################################
#
# If this CIF has been generated from an entry in the Cambridge 
# Structural Database, then it will include bibliographic, chemical, 
# crystal, experimental, refinement or atomic coordinate data resulting 
# from the CCDC's data processing and validation procedures.
#
#######################################################################

data_WIRTIA
_chemical_formula_moiety         'C12 H10 O2,H2 O1'
_chemical_name_systematic        "2,2'-Biphenol monohydrate"
_symmetry_cell_setting           orthorhombic
_symmetry_space_group_name_H-M   'P b c a'
_symmetry_Int_Tables_number      61
_space_group_name_Hall           '-P 2ac 2ab'
loop_
_symmetry_equiv_pos_site_id
_symmetry_equiv_pos_as_xyz
1 x,y,z
2 1/2-x,-y,1/2+z
3 1/2+x,1/2-y,-z
4 -x,1/2+y,1/2-z
5 -x,-y,-z
6 1/2+x,y,1/2-z
7 1/2-x,1/2+y,z
8 x,1/2-y,1/2+z
_cell_length_a                   9.8080(10)
_cell_length_b                   11.591(2)
_cell_length_c                   17.8600(10)
_cell_angle_alpha                90
_cell_angle_beta                 90
_cell_angle_gamma                90
_cell_volume                     2030.41
_exptl_crystal_colour            colorless
_cell_formula_units_Z            8
loop_
_atom_site_label
_atom_site_type_symbol
_atom_site_fract_x
_atom_site_fract_y
_atom_site_fract_z
O1 O 0.1490(2) 0.24179(14) 0.31236(10)
H1 H 0.2389(2) 0.20334(14) 0.29723(10)
O2 O -0.1370(2) 0.51137(14) 0.31176(10)
H2 H -0.2129(2) 0.53805(14) 0.29026(10)
C1 C 0.1847(2) 0.3400(2) 0.35099(14)
C2 C 0.3183(2) 0.3781(2) 0.3543(2)
H3 H 0.3928(2) 0.3352(2) 0.3241(2)
C3 C 0.3500(3) 0.4788(2) 0.3929(2)
H4 H 0.4512(3) 0.5136(2) 0.3887(2)
C4 C 0.2482(3) 0.5426(2) 0.4266(2)
H5 H 0.2568(3) 0.6203(2) 0.4528(2)
C5 C 0.1148(2) 0.5043(2) 0.42273(14)
H6 H 0.0363(2) 0.5549(2) 0.44568(14)
C6 C 0.0804(2) 0.4017(2) 0.38611(14)
C7 C -0.0618(2) 0.3563(2) 0.38754(14)
C8 C -0.0922(2) 0.2556(2) 0.42796(15)
H7 H -0.0069(2) 0.2117(2) 0.44841(15)
C9 C -0.2236(3) 0.2124(2) 0.4312(2)
H8 H -0.2454(3) 0.1377(2) 0.4552(2)
C10 C -0.3273(3) 0.2700(2) 0.3940(2)
H9 H -0.4288(3) 0.2379(2) 0.3899(2)
C11 C -0.2998(2) 0.3693(2) 0.3539(2)
H10 H -0.3713(2) 0.4166(2) 0.3231(2)
C12 C -0.1681(2) 0.4122(2) 0.35108(15)
O3 O 0.3797(2) 0.12406(13) 0.24765(10)
H11 H 0.4566(2) 0.09050(13) 0.26929(10)
H12 H 0.4426(2) 0.17680(13) 0.21499(10)
loop_
_geom_bond_atom_site_label_1
_geom_bond_atom_site_label_2
_geom_bond_site_symmetry_1
_geom_bond_site_symmetry_2
O1 H1 1_555 1_555
O2 H2 1_555 1_555
C1 O1 1_555 1_555
C2 C1 1_555 1_555
H3 C2 1_555 1_555
C3 C2 1_555 1_555
H4 C3 1_555 1_555
C4 C3 1_555 1_555
H5 C4 1_555 1_555
C5 C4 1_555 1_555
H6 C5 1_555 1_555
C6 C1 1_555 1_555
C7 C6 1_555 1_555
C8 C7 1_555 1_555
H7 C8 1_555 1_555
C9 C8 1_555 1_555
H8 C9 1_555 1_555
C10 C9 1_555 1_555
H9 C10 1_555 1_555
C11 C10 1_555 1_555
H10 C11 1_555 1_555
C12 O2 1_555 1_555
O3 H11 1_555 1_555
H12 O3 1_555 1_555
C5 C6 1_555 1_555
C7 C12 1_555 1_555
C11 C12 1_555 1_555

#END
