
#######################################################################
#
#                 Cambridge Crystallographic Data Centre
#                                CCDC 
#
#######################################################################
#
# If this CIF has been generated from an entry in the Cambridge 
# Structural Database, then it will include bibliographic, chemical, 
# crystal, experimental, refinement or atomic coordinate data resulting 
# from the CCDC's data processing and validation procedures.
#
#######################################################################

data_WIRTEZ
_chemical_formula_moiety         'C32 H39 N1 O4 S1'
_chemical_name_systematic        
2,6-di-t-butyl-4-(2-ethenyl-4-((4-methylphenyl)sulfonyl)-2,3,4,5-tetrahydro-1,4-benzoxazepin-5-yl)phenol
_symmetry_cell_setting           monoclinic
_symmetry_space_group_name_H-M   'P 21/c'
_symmetry_Int_Tables_number      14
_space_group_name_Hall           '-P 2ybc'
loop_
_symmetry_equiv_pos_site_id
_symmetry_equiv_pos_as_xyz
1 x,y,z
2 -x,1/2+y,1/2-z
3 -x,-y,-z
4 x,1/2-y,1/2+z
_cell_length_a                   11.7118(6)
_cell_length_b                   39.9043(17)
_cell_length_c                   6.2660(3)
_cell_angle_alpha                90
_cell_angle_beta                 97.254(2)
_cell_angle_gamma                90
_cell_volume                     2904.98
_exptl_crystal_colour            colorless
_exptl_crystal_description       plate
_cell_formula_units_Z            4
loop_
_atom_site_label
_atom_site_type_symbol
_atom_site_fract_x
_atom_site_fract_y
_atom_site_fract_z
S1 S 0.33363(7) 0.69564(2) 0.64131(13)
O1 O 0.0331(2) 0.64634(8) 0.2748(4)
O2 O 0.4388(3) 0.53379(6) 0.0523(5)
H1 H 0.412247 0.515344 0.075968
O3 O 0.3532(2) 0.68222(6) 0.8545(4)
O4 O 0.2732(2) 0.72649(6) 0.5996(5)
N1 N 0.2675(2) 0.66719(6) 0.4874(4)
C1 C 0.2135(3) 0.67665(9) 0.2715(5)
H2 H 0.235099 0.660531 0.167838
H3 H 0.242181 0.698420 0.234570
C2 C 0.0841(3) 0.67805(11) 0.2562(6)
H4 H 0.061195 0.693241 0.366149
C3 C 0.0286(4) 0.68870(15) 0.0378(8)
H5 H -0.023993 0.674280 -0.038551
C4 C 0.0522(6) 0.71918(17) -0.0562(12)
H6 H 0.104459 0.734010 0.017057
H7 H 0.015596 0.724684 -0.192094
C5 C 0.2530(2) 0.63286(7) 0.5628(5)
H8 H 0.303535 0.630922 0.699346
C6 C 0.1327(3) 0.62552(7) 0.6146(5)
C7 C 0.0331(3) 0.63239(9) 0.4766(6)
C8 C -0.0731(3) 0.62208(12) 0.5294(8)
H9 H -0.139466 0.626777 0.436354
C9 C -0.0813(4) 0.60496(12) 0.7181(9)
H10 H -0.152726 0.597966 0.751146
C10 C 0.0155(4) 0.59833(10) 0.8556(7)
H11 H 0.010328 0.586945 0.983567
C11 C 0.1212(3) 0.60853(9) 0.8050(6)
H12 H 0.186745 0.603944 0.900558
C12 C 0.2969(3) 0.60677(7) 0.4111(5)
C13 C 0.2432(3) 0.57624(8) 0.3758(5)
H13 H 0.175015 0.572358 0.433481
C14 C 0.2876(3) 0.55082(8) 0.2562(5)
C15 C 0.3904(3) 0.55790(8) 0.1728(5)
C16 C 0.4473(3) 0.58870(8) 0.2036(5)
C17 C 0.3979(3) 0.61265(8) 0.3237(5)
H14 H 0.433765 0.633364 0.346172
C18 C 0.5616(3) 0.59598(8) 0.1112(5)
C19 C 0.5435(4) 0.59402(11) -0.1357(6)
H15 H 0.510616 0.572700 -0.179683
H16 H 0.616193 0.596546 -0.189578
H17 H 0.492404 0.611606 -0.192046
C20 C 0.6549(3) 0.57092(11) 0.2045(7)
H18 H 0.670789 0.574039 0.357316
H19 H 0.723847 0.574647 0.139836
H20 H 0.628137 0.548461 0.174607
C21 C 0.6063(3) 0.63079(9) 0.1733(7)
H21 H 0.549012 0.647133 0.122865
H22 H 0.675166 0.634975 0.109201
H23 H 0.622966 0.632267 0.326944
C22 C 0.2263(4) 0.51679(9) 0.2248(6)
C23 C 0.3057(5) 0.48869(10) 0.3261(8)
H24 H 0.345662 0.478682 0.217527
H25 H 0.260428 0.471965 0.386591
H26 H 0.360595 0.497941 0.437345
C24 C 0.1159(4) 0.51572(11) 0.3319(8)
H27 H 0.134326 0.519648 0.483544
H28 H 0.080413 0.494124 0.309019
H29 H 0.063852 0.532732 0.270504
C25 C 0.1905(4) 0.50995(11) -0.0160(7)
H30 H 0.140342 0.527501 -0.076151
H31 H 0.150984 0.488858 -0.033123
H32 H 0.257788 0.509229 -0.088838
C26 C 0.4701(3) 0.70111(7) 0.5522(5)
C27 C 0.5669(3) 0.68945(8) 0.6761(6)
H33 H 0.560679 0.678554 0.805332
C28 C 0.6737(3) 0.69393(9) 0.6085(7)
H34 H 0.739052 0.686189 0.694153
C29 C 0.6853(3) 0.70966(9) 0.4164(7)
C30 C 0.5860(3) 0.72120(9) 0.2927(6)
H35 H 0.591804 0.731665 0.161947
C31 C 0.4788(3) 0.71742(8) 0.3605(6)
H36 H 0.413388 0.725748 0.277904
C32 C 0.8012(4) 0.71447(13) 0.3395(9)
H37 H 0.796674 0.708050 0.191062
H38 H 0.857383 0.700829 0.424041
H39 H 0.823332 0.737601 0.354623
loop_
_geom_bond_atom_site_label_1
_geom_bond_atom_site_label_2
_geom_bond_site_symmetry_1
_geom_bond_site_symmetry_2
S1 O3 1_555 1_555
O1 C2 1_555 1_555
O2 H1 1_555 1_555
O4 S1 1_555 1_555
N1 S1 1_555 1_555
C1 N1 1_555 1_555
H2 C1 1_555 1_555
H3 C1 1_555 1_555
C2 C1 1_555 1_555
H4 C2 1_555 1_555
C3 C2 1_555 1_555
H5 C3 1_555 1_555
C4 C3 1_555 1_555
H6 C4 1_555 1_555
H7 C4 1_555 1_555
C5 N1 1_555 1_555
H8 C5 1_555 1_555
C6 C5 1_555 1_555
C7 O1 1_555 1_555
C8 C7 1_555 1_555
H9 C8 1_555 1_555
C9 C8 1_555 1_555
H10 C9 1_555 1_555
C10 C9 1_555 1_555
H11 C10 1_555 1_555
C11 C6 1_555 1_555
H12 C11 1_555 1_555
C12 C5 1_555 1_555
C13 C12 1_555 1_555
H13 C13 1_555 1_555
C14 C13 1_555 1_555
C15 O2 1_555 1_555
C16 C15 1_555 1_555
C17 C12 1_555 1_555
H14 C17 1_555 1_555
C18 C16 1_555 1_555
C19 C18 1_555 1_555
H15 C19 1_555 1_555
H16 C19 1_555 1_555
H17 C19 1_555 1_555
C20 C18 1_555 1_555
H18 C20 1_555 1_555
H19 C20 1_555 1_555
H20 C20 1_555 1_555
C21 C18 1_555 1_555
H21 C21 1_555 1_555
H22 C21 1_555 1_555
H23 C21 1_555 1_555
C22 C14 1_555 1_555
C23 C22 1_555 1_555
H24 C23 1_555 1_555
H25 C23 1_555 1_555
H26 C23 1_555 1_555
C24 C22 1_555 1_555
H27 C24 1_555 1_555
H28 C24 1_555 1_555
H29 C24 1_555 1_555
C25 C22 1_555 1_555
H30 C25 1_555 1_555
H31 C25 1_555 1_555
H32 C25 1_555 1_555
C26 S1 1_555 1_555
C27 C26 1_555 1_555
H33 C27 1_555 1_555
C28 C27 1_555 1_555
H34 C28 1_555 1_555
C29 C28 1_555 1_555
C30 C29 1_555 1_555
H35 C30 1_555 1_555
C31 C26 1_555 1_555
H36 C31 1_555 1_555
C32 C29 1_555 1_555
H37 C32 1_555 1_555
H38 C32 1_555 1_555
H39 C32 1_555 1_555
C6 C7 1_555 1_555
C10 C11 1_555 1_555
C14 C15 1_555 1_555
C16 C17 1_555 1_555
C30 C31 1_555 1_555

#END
