
#######################################################################
#
#                 Cambridge Crystallographic Data Centre
#                                CCDC 
#
#######################################################################
#
# If this CIF has been generated from an entry in the Cambridge 
# Structural Database, then it will include bibliographic, chemical, 
# crystal, experimental, refinement or atomic coordinate data resulting 
# from the CCDC's data processing and validation procedures.
#
#######################################################################

data_WISYAB
_chemical_formula_moiety         'C23 H19 N1 O3 S1'
_chemical_name_systematic        
'Benzyl (R)-3-methyl-1-phenyl-1-benzo[e][1,2]thiazine-4-carboxylate 1-oxide'
_symmetry_cell_setting           orthorhombic
_symmetry_space_group_name_H-M   'P 21 21 21'
_symmetry_Int_Tables_number      19
_space_group_name_Hall           'P 2ac 2ab'
loop_
_symmetry_equiv_pos_site_id
_symmetry_equiv_pos_as_xyz
1 x,y,z
2 1/2-x,-y,1/2+z
3 -x,1/2+y,1/2-z
4 1/2+x,1/2-y,-z
_cell_length_a                   8.63582(16)
_cell_length_b                   10.3887(3)
_cell_length_c                   20.7055(5)
_cell_angle_alpha                90
_cell_angle_beta                 90
_cell_angle_gamma                90
_cell_volume                     1857.59
_exptl_crystal_colour            'pale colorless'
_exptl_crystal_description       needle
_cell_formula_units_Z            4
loop_
_atom_site_label
_atom_site_type_symbol
_atom_site_fract_x
_atom_site_fract_y
_atom_site_fract_z
S1 S 0.67232(8) 0.51289(8) 0.33641(4)
O1 O 0.7762(3) 0.4944(3) 0.28242(11)
O2 O 0.1469(3) 0.6802(3) 0.24842(12)
O3 O 0.1489(3) 0.7609(3) 0.34890(12)
N1 N 0.6252(3) 0.6509(3) 0.35432(15)
C1 C 0.4834(4) 0.7032(3) 0.33731(17)
C2 C 0.3589(4) 0.6305(4) 0.31811(16)
C3 C 0.3655(3) 0.4912(4) 0.31529(14)
C4 C 0.2328(4) 0.4136(4) 0.30387(17)
H1 H 0.136110 0.454024 0.295696
C5 C 0.2407(5) 0.2818(4) 0.30433(17)
H2 H 0.149160 0.233072 0.297367
C6 C 0.3805(4) 0.2178(4) 0.31481(17)
H3 H 0.384469 0.126445 0.314489
C7 C 0.5132(4) 0.2893(4) 0.32568(17)
H4 H 0.609592 0.247457 0.332684
C8 C 0.5042(4) 0.4230(4) 0.32626(16)
C9 C 0.4833(4) 0.8462(4) 0.34358(19)
H5 H 0.501758 0.869915 0.388742
H6 H 0.382739 0.880145 0.329722
H7 H 0.565260 0.882542 0.316408
C10 C 0.7653(4) 0.4517(4) 0.40592(17)
C11 C 0.8914(4) 0.3708(4) 0.3974(2)
H8 H 0.926396 0.348135 0.355458
C12 C 0.9649(5) 0.3240(5) 0.4522(2)
H9 H 1.052776 0.269646 0.447756
C13 C 0.9120(5) 0.3553(5) 0.5129(2)
H10 H 0.962610 0.321686 0.549987
C14 C 0.7849(5) 0.4359(5) 0.5202(2)
H11 H 0.749234 0.457629 0.562181
C15 C 0.7103(4) 0.4843(4) 0.46654(18)
H12 H 0.622857 0.539082 0.471107
C16 C 0.2092(4) 0.6925(4) 0.29999(17)
C17 C 0.0030(4) 0.8257(4) 0.33475(19)
H13 H -0.068064 0.765784 0.312277
H14 H 0.021825 0.900455 0.306178
C18 C -0.0683(4) 0.8697(4) 0.39675(18)
C19 C -0.1273(4) 0.9932(4) 0.4019(2)
H15 H -0.113456 1.052923 0.367667
C20 C -0.2071(5) 1.0299(5) 0.4576(2)
H16 H -0.248452 1.114367 0.460989
C21 C -0.2263(5) 0.9440(5) 0.5077(2)
H17 H -0.280283 0.969363 0.545545
C22 C -0.1669(5) 0.8209(4) 0.50278(19)
H18 H -0.180511 0.761373 0.537145
C23 C -0.0874(4) 0.7845(4) 0.44768(19)
H19 H -0.045432 0.700200 0.444713
loop_
_geom_bond_atom_site_label_1
_geom_bond_atom_site_label_2
_geom_bond_site_symmetry_1
_geom_bond_site_symmetry_2
S1 O1 1_555 1_555
O2 C16 1_555 1_555
O3 C16 1_555 1_555
N1 S1 1_555 1_555
C1 N1 1_555 1_555
C2 C1 1_555 1_555
C3 C2 1_555 1_555
C4 C3 1_555 1_555
H1 C4 1_555 1_555
C5 C4 1_555 1_555
H2 C5 1_555 1_555
C6 C5 1_555 1_555
H3 C6 1_555 1_555
C7 C6 1_555 1_555
H4 C7 1_555 1_555
C8 S1 1_555 1_555
C9 C1 1_555 1_555
H5 C9 1_555 1_555
H6 C9 1_555 1_555
H7 C9 1_555 1_555
C10 S1 1_555 1_555
C11 C10 1_555 1_555
H8 C11 1_555 1_555
C12 C11 1_555 1_555
H9 C12 1_555 1_555
C13 C12 1_555 1_555
H10 C13 1_555 1_555
C14 C13 1_555 1_555
H11 C14 1_555 1_555
C15 C10 1_555 1_555
H12 C15 1_555 1_555
C16 C2 1_555 1_555
C17 O3 1_555 1_555
H13 C17 1_555 1_555
H14 C17 1_555 1_555
C18 C17 1_555 1_555
C19 C18 1_555 1_555
H15 C19 1_555 1_555
C20 C19 1_555 1_555
H16 C20 1_555 1_555
C21 C20 1_555 1_555
H17 C21 1_555 1_555
C22 C21 1_555 1_555
H18 C22 1_555 1_555
C23 C18 1_555 1_555
H19 C23 1_555 1_555
C3 C8 1_555 1_555
C7 C8 1_555 1_555
C14 C15 1_555 1_555
C22 C23 1_555 1_555

#END
