
#######################################################################
#
#                 Cambridge Crystallographic Data Centre
#                                CCDC 
#
#######################################################################
#
# If this CIF has been generated from an entry in the Cambridge 
# Structural Database, then it will include bibliographic, chemical, 
# crystal, experimental, refinement or atomic coordinate data resulting 
# from the CCDC's data processing and validation procedures.
#
#######################################################################

data_WITDUA01
_chemical_formula_moiety         'C14 H14 N2 O2'
_chemical_name_systematic        '2-(ethyl(phenyl)amino)nicotinic acid'
_symmetry_cell_setting           monoclinic
_symmetry_space_group_name_H-M   'C 2/c'
_symmetry_Int_Tables_number      15
_space_group_name_Hall           '-C 2yn'
loop_
_symmetry_equiv_pos_site_id
_symmetry_equiv_pos_as_xyz
1 x,y,z
2 -x,y,1/2-z
3 1/2+x,1/2+y,z
4 1/2-x,1/2+y,1/2-z
5 -x,-y,-z
6 x,-y,1/2+z
7 1/2-x,1/2-y,-z
8 1/2+x,1/2-y,1/2+z
_cell_length_a                   34.4290(3)
_cell_length_b                   7.45830(10)
_cell_length_c                   24.2139(3)
_cell_angle_alpha                90
_cell_angle_beta                 126.0307(5)
_cell_angle_gamma                90
_cell_volume                     5028.26
_exptl_crystal_colour            colorless
_exptl_crystal_description       block
_cell_formula_units_Z            16
loop_
_atom_site_label
_atom_site_type_symbol
_atom_site_fract_x
_atom_site_fract_y
_atom_site_fract_z
N1 N 0.57821(4) 0.08796(16) 0.18004(6)
C1 C 0.61948(5) 0.12572(18) 0.24121(6)
C2 C 0.66423(5) 0.11778(18) 0.25075(7)
C3 C 0.66452(5) 0.08475(19) 0.19479(7)
H1 H 0.6940 0.0862 0.1996
C4 C 0.62177(5) 0.04950(19) 0.13159(7)
H2 H 0.6213 0.0268 0.0926
C5 C 0.58001(5) 0.04844(18) 0.12724(7)
H3 H 0.5509 0.0182 0.0847
N2 N 0.61740(4) 0.17368(16) 0.29443(6)
C6 C 0.64504(5) 0.32506(19) 0.33558(7)
C7 C 0.64673(5) 0.4797(2) 0.30526(7)
H4 H 0.6298 0.4847 0.2571
C8 C 0.67297(6) 0.6274(2) 0.34496(8)
H5 H 0.6743 0.7325 0.3240
C9 C 0.69702(5) 0.6214(2) 0.41486(8)
H6 H 0.7147 0.7229 0.4419
C10 C 0.69554(5) 0.4675(2) 0.44582(8)
H7 H 0.7121 0.4638 0.4940
C11 C 0.66981(5) 0.3187(2) 0.40635(7)
H8 H 0.6691 0.2128 0.4275
C12 C 0.71153(5) 0.12896(19) 0.31977(7)
O1 O 0.72102(4) 0.04581(14) 0.36923(5)
O2 O 0.74215(3) 0.23398(15) 0.31862(5)
H9 H 0.7675 0.2439 0.3583
C13 C 0.57524(5) 0.1258(2) 0.29293(7)
H10 H 0.5461 0.1772 0.2513
H11 H 0.5788 0.1796 0.3330
C14 C 0.56892(6) -0.0750(2) 0.29350(8)
H12 H 0.5611 -0.1270 0.2509
H13 H 0.5428 -0.0999 0.2976
H14 H 0.5988 -0.1282 0.3324
N3 N 0.67766(4) 0.18505(17) 0.56145(6)
C15 C 0.63103(5) 0.23372(18) 0.51955(6)
C16 C 0.59596(5) 0.10988(18) 0.47082(6)
C17 C 0.61145(5) -0.05249(18) 0.46255(7)
H15 H 0.5887 -0.1344 0.4287
C18 C 0.65995(5) -0.0969(2) 0.50328(7)
H16 H 0.6712 -0.2058 0.4970
C19 C 0.69092(5) 0.0238(2) 0.55300(7)
H17 H 0.7238 -0.0088 0.5834
N4 N 0.62002(4) 0.40416(16) 0.52786(6)
C20 C 0.57654(5) 0.49090(18) 0.47547(7)
C21 C 0.54866(5) 0.57875(19) 0.49147(7)
H18 H 0.5592 0.5846 0.5376
C22 C 0.50558(6) 0.6576(2) 0.44040(8)
H19 H 0.4867 0.7175 0.4515
C23 C 0.48995(6) 0.6491(2) 0.37294(8)
H20 H 0.4599 0.6995 0.3377
C24 C 0.51842(6) 0.56680(19) 0.35718(7)
H21 H 0.5080 0.5629 0.3111
C25 C 0.56200(5) 0.49020(19) 0.40810(7)
H22 H 0.5819 0.4375 0.3972
C26 C 0.54336(5) 0.12870(17) 0.43790(6)
O3 O 0.52802(3) 0.16508(14) 0.47050(5)
O4 O 0.51644(3) 0.08885(13) 0.37183(4)
H23 H 0.4873 0.0937 0.3563
C27 C 0.65483(5) 0.5072(2) 0.59025(7)
H24 H 0.6449 0.6346 0.5826
H25 H 0.6868 0.5006 0.5991
C28 C 0.65908(6) 0.4396(2) 0.65294(7)
H26 H 0.6276 0.4464 0.6447
H27 H 0.6822 0.5140 0.6925
H28 H 0.6702 0.3149 0.6620
loop_
_geom_bond_atom_site_label_1
_geom_bond_atom_site_label_2
_geom_bond_site_symmetry_1
_geom_bond_site_symmetry_2
N1 C1 1_555 1_555
C1 C2 1_555 1_555
C2 C3 1_555 1_555
C3 H1 1_555 1_555
C4 C3 1_555 1_555
H2 C4 1_555 1_555
C5 N1 1_555 1_555
H3 C5 1_555 1_555
N2 C1 1_555 1_555
C6 N2 1_555 1_555
C7 C6 1_555 1_555
H4 C7 1_555 1_555
C8 C7 1_555 1_555
H5 C8 1_555 1_555
C9 C8 1_555 1_555
H6 C9 1_555 1_555
C10 C9 1_555 1_555
H7 C10 1_555 1_555
C11 C6 1_555 1_555
H8 C11 1_555 1_555
C12 C2 1_555 1_555
O1 C12 1_555 1_555
O2 C12 1_555 1_555
H9 O2 1_555 1_555
C13 N2 1_555 1_555
H10 C13 1_555 1_555
H11 C13 1_555 1_555
C14 C13 1_555 1_555
H12 C14 1_555 1_555
H13 C14 1_555 1_555
H14 C14 1_555 1_555
N3 C15 1_555 1_555
C15 C16 1_555 1_555
C16 C17 1_555 1_555
C17 H15 1_555 1_555
C18 C17 1_555 1_555
H16 C18 1_555 1_555
C19 N3 1_555 1_555
H17 C19 1_555 1_555
N4 C15 1_555 1_555
C20 N4 1_555 1_555
C21 C20 1_555 1_555
H18 C21 1_555 1_555
C22 C21 1_555 1_555
H19 C22 1_555 1_555
C23 C22 1_555 1_555
H20 C23 1_555 1_555
C24 C23 1_555 1_555
H21 C24 1_555 1_555
C25 C20 1_555 1_555
H22 C25 1_555 1_555
C26 C16 1_555 1_555
O3 C26 1_555 1_555
O4 C26 1_555 1_555
H23 O4 1_555 1_555
C27 N4 1_555 1_555
H24 C27 1_555 1_555
H25 C27 1_555 1_555
C28 C27 1_555 1_555
H26 C28 1_555 1_555
H27 C28 1_555 1_555
H28 C28 1_555 1_555
C4 C5 1_555 1_555
C10 C11 1_555 1_555
C18 C19 1_555 1_555
C24 C25 1_555 1_555

#END
