
#######################################################################
#
#                 Cambridge Crystallographic Data Centre
#                                CCDC 
#
#######################################################################
#
# If this CIF has been generated from an entry in the Cambridge 
# Structural Database, then it will include bibliographic, chemical, 
# crystal, experimental, refinement or atomic coordinate data resulting 
# from the CCDC's data processing and validation procedures.
#
#######################################################################

data_WITDEK01
_chemical_formula_moiety         'C15 H16 N2 O2'
_chemical_name_systematic        '2-(phenyl(propyl)amino)nicotinic acid'
_symmetry_cell_setting           triclinic
_symmetry_space_group_name_H-M   'P -1'
_symmetry_Int_Tables_number      2
_space_group_name_Hall           '-P 1'
loop_
_symmetry_equiv_pos_site_id
_symmetry_equiv_pos_as_xyz
1 x,y,z
2 -x,-y,-z
_cell_length_a                   9.6119(2)
_cell_length_b                   11.0473(2)
_cell_length_c                   14.6432(3)
_cell_angle_alpha                74.6603(8)
_cell_angle_beta                 72.0162(8)
_cell_angle_gamma                64.8393(9)
_cell_volume                     1322.47
_exptl_crystal_colour            colorless
_exptl_crystal_description       block
_cell_formula_units_Z            4
loop_
_atom_site_label
_atom_site_type_symbol
_atom_site_fract_x
_atom_site_fract_y
_atom_site_fract_z
N1 N 1.13435(12) 0.34952(11) 0.31644(8)
C1 C 0.99474(15) 0.36531(12) 0.38063(9)
C2 C 0.85497(15) 0.41151(12) 0.34671(9)
C3 C 0.86524(16) 0.42795(13) 0.24772(10)
H1 H 0.7733 0.4525 0.2245
C4 C 1.00952(16) 0.40842(14) 0.18317(10)
H2 H 1.0193 0.4189 0.1152
C5 C 1.13875(16) 0.37315(13) 0.22085(9)
H3 H 1.2371 0.3650 0.1766
N2 N 0.99547(12) 0.33542(10) 0.47832(7)
C6 C 0.88210(14) 0.28715(12) 0.54911(9)
C7 C 0.80826(15) 0.33962(13) 0.63602(9)
H4 H 0.8334 0.4073 0.6484
C8 C 0.69831(16) 0.29324(15) 0.70445(10)
H5 H 0.6484 0.3291 0.7637
C9 C 0.66079(16) 0.19456(15) 0.68680(11)
H6 H 0.5844 0.1637 0.7335
C10 C 0.73470(16) 0.14132(14) 0.60114(10)
H7 H 0.7091 0.0736 0.5892
C11 C 0.84655(15) 0.18634(13) 0.53222(9)
H8 H 0.8984 0.1484 0.4739
C12 C 0.69549(15) 0.45526(12) 0.41101(9)
O1 O 0.65993(10) 0.52532(9) 0.47318(7)
O2 O 0.59648(11) 0.41610(10) 0.39237(7)
H9 H 0.5094 0.4414 0.4323
C13 C 1.13510(14) 0.31569(12) 0.51091(9)
H10 H 1.1001 0.3565 0.5707
H11 H 1.1977 0.3636 0.4603
C14 C 1.23952(15) 0.16712(13) 0.53145(10)
H12 H 1.2770 0.1266 0.4713
H13 H 1.1766 0.1186 0.5811
C15 C 1.38127(15) 0.14872(14) 0.56731(10)
H14 H 1.4504 0.1875 0.5154
H15 H 1.4397 0.0520 0.5857
H16 H 1.3449 0.1948 0.6239
N3 N 0.95742(13) 0.16623(11) 0.11032(8)
C16 C 0.79965(15) 0.21533(12) 0.12467(9)
C17 C 0.70166(15) 0.21067(12) 0.21960(9)
C18 C 0.77376(15) 0.13712(12) 0.29651(9)
H17 H 0.7111 0.1266 0.3603
C19 C 0.93675(15) 0.07898(13) 0.28061(10)
H18 H 0.9879 0.0255 0.3320
C20 C 1.02200(16) 0.10186(13) 0.18719(10)
H19 H 1.1335 0.0699 0.1769
N4 N 0.73840(13) 0.27196(11) 0.04184(7)
C21 C 0.60635(15) 0.25103(13) 0.03386(9)
C22 C 0.50443(16) 0.34744(14) -0.02365(9)
H20 H 0.5220 0.4279 -0.0567
C23 C 0.37756(17) 0.32574(15) -0.03259(10)
H21 H 0.3092 0.3918 -0.0721
C24 C 0.34858(17) 0.20944(15) 0.01514(10)
H22 H 0.2609 0.1958 0.0091
C25 C 0.45018(16) 0.11357(14) 0.07182(10)
H23 H 0.4314 0.0337 0.1052
C26 C 0.57903(16) 0.13259(13) 0.08050(9)
H24 H 0.6490 0.0648 0.1183
C27 C 0.52881(15) 0.29070(13) 0.24092(9)
O3 O 0.46726(11) 0.40355(9) 0.19905(7)
O4 O 0.44926(11) 0.22602(9) 0.31288(7)
H25 H 0.3520 0.2703 0.3184
C28 C 0.84399(16) 0.30555(13) -0.04922(9)
H26 H 0.9152 0.3371 -0.0338
H27 H 0.7796 0.3813 -0.0910
C29 C 0.94347(17) 0.18747(14) -0.10578(10)
H28 H 0.9950 0.1067 -0.0614
H29 H 0.8741 0.1659 -0.1314
C30 C 1.06902(18) 0.21994(16) -0.18979(10)
H30 H 1.0188 0.3030 -0.2317
H31 H 1.1251 0.1450 -0.2275
H32 H 1.1440 0.2327 -0.1642
loop_
_geom_bond_atom_site_label_1
_geom_bond_atom_site_label_2
_geom_bond_site_symmetry_1
_geom_bond_site_symmetry_2
N1 C1 1_555 1_555
C1 C2 1_555 1_555
C2 C3 1_555 1_555
C3 H1 1_555 1_555
C4 C3 1_555 1_555
H2 C4 1_555 1_555
C5 N1 1_555 1_555
H3 C5 1_555 1_555
N2 C1 1_555 1_555
C6 N2 1_555 1_555
C7 C6 1_555 1_555
H4 C7 1_555 1_555
C8 C7 1_555 1_555
H5 C8 1_555 1_555
C9 C8 1_555 1_555
H6 C9 1_555 1_555
C10 C9 1_555 1_555
H7 C10 1_555 1_555
C11 C6 1_555 1_555
H8 C11 1_555 1_555
C12 C2 1_555 1_555
O1 C12 1_555 1_555
O2 C12 1_555 1_555
H9 O2 1_555 1_555
C13 N2 1_555 1_555
H10 C13 1_555 1_555
H11 C13 1_555 1_555
C14 C13 1_555 1_555
H12 C14 1_555 1_555
H13 C14 1_555 1_555
C15 C14 1_555 1_555
H14 C15 1_555 1_555
H15 C15 1_555 1_555
H16 C15 1_555 1_555
N3 C16 1_555 1_555
C16 C17 1_555 1_555
C17 C18 1_555 1_555
C18 H17 1_555 1_555
C19 C18 1_555 1_555
H18 C19 1_555 1_555
C20 N3 1_555 1_555
H19 C20 1_555 1_555
N4 C16 1_555 1_555
C21 N4 1_555 1_555
C22 C21 1_555 1_555
H20 C22 1_555 1_555
C23 C22 1_555 1_555
H21 C23 1_555 1_555
C24 C23 1_555 1_555
H22 C24 1_555 1_555
C25 C24 1_555 1_555
H23 C25 1_555 1_555
C26 C21 1_555 1_555
H24 C26 1_555 1_555
C27 C17 1_555 1_555
O3 C27 1_555 1_555
O4 C27 1_555 1_555
H25 O4 1_555 1_555
C28 N4 1_555 1_555
H26 C28 1_555 1_555
H27 C28 1_555 1_555
C29 C28 1_555 1_555
H28 C29 1_555 1_555
H29 C29 1_555 1_555
C30 C29 1_555 1_555
H30 C30 1_555 1_555
H31 C30 1_555 1_555
H32 C30 1_555 1_555
C4 C5 1_555 1_555
C10 C11 1_555 1_555
C19 C20 1_555 1_555
C25 C26 1_555 1_555

#END
