
#######################################################################
#
#                 Cambridge Crystallographic Data Centre
#                                CCDC 
#
#######################################################################
#
# If this CIF has been generated from an entry in the Cambridge 
# Structural Database, then it will include bibliographic, chemical, 
# crystal, experimental, refinement or atomic coordinate data resulting 
# from the CCDC's data processing and validation procedures.
#
#######################################################################

data_WITWON
_chemical_formula_moiety         'C56 H44 N4,2(C4 H8 O1),4(C2 H3 N1)'
_chemical_name_systematic        
'57,58,59,60-tetraazanonacyclo[52.2.1.1^12,15^.1^26,29^.1^40,43^.0^4,9^.0^18,23^.0^32,37^.0^46,51^]hexaconta-1(56),2,4,6,8,10,12,14,16,18,20,22,24,26,28,30,32,34,36,38,40,42,44,46,48,50,52,54-octacosaene tetrahydrofuran acetonitrile solvate'
_symmetry_cell_setting           monoclinic
_symmetry_space_group_name_H-M   'P 21/c'
_symmetry_Int_Tables_number      14
_space_group_name_Hall           '-P 2ybc'
loop_
_symmetry_equiv_pos_site_id
_symmetry_equiv_pos_as_xyz
1 x,y,z
2 -x,1/2+y,1/2-z
3 -x,-y,-z
4 x,1/2-y,1/2+z
_cell_length_a                   16.3594(12)
_cell_length_b                   16.2083(13)
_cell_length_c                   24.658(2)
_cell_angle_alpha                90
_cell_angle_beta                 90.182(4)
_cell_angle_gamma                90
_cell_volume                     6538.23
_exptl_crystal_colour            brown
_exptl_crystal_description       block
_cell_formula_units_Z            4
_chemical_properties_physical    Air-sensitive
_exptl_crystal_recrystallization_method 'THF and acetonitrile'
_exptl_crystal_preparation       Luminescent
loop_
_atom_site_label
_atom_site_type_symbol
_atom_site_fract_x
_atom_site_fract_y
_atom_site_fract_z
N1 N 0.43511(19) 0.4459(2) 0.13524(15)
H1 H 0.3911 0.4692 0.1487
N2 N 0.32592(19) 0.7510(2) 0.26535(15)
H2 H 0.3657 0.7310 0.2452
N3 N -0.0272(2) 0.5613(2) 0.15530(18)
H3 H -0.0456 0.6058 0.1389
N4 N -0.0991(3) 0.9224(3) 0.1462(2)
H4 H -0.0691 0.8836 0.1612
C1 C 0.0142(3) 0.9992(3) 0.1004(3)
H5 H 0.0247 1.0467 0.0790
C2 C -0.0696(3) 0.9861(3) 0.1157(3)
C3 C -0.1359(3) 1.0341(4) 0.1014(3)
H6 H -0.1345 1.0840 0.0811
C4 C -0.2058(4) 0.9956(4) 0.1224(3)
H7 H -0.2603 1.0145 0.1177
C5 C -0.1835(3) 0.9279(4) 0.1499(3)
C6 C -0.2363(3) 0.8680(4) 0.1749(3)
H8 H -0.2934 0.8777 0.1721
C7 C -0.2134(3) 0.8008(4) 0.2014(3)
H9 H -0.1565 0.7896 0.2043
C8 C -0.2716(3) 0.7412(4) 0.2272(3)
C9 C -0.2490(3) 0.6579(3) 0.2328(3)
C10 C -0.1740(3) 0.6268(3) 0.2088(3)
H10 H -0.1554 0.6530 0.1767
C11 C -0.1287(3) 0.5644(3) 0.2280(2)
H11 H -0.1453 0.5402 0.2613
C12 C -0.0567(3) 0.5306(3) 0.2023(2)
C13 C -0.0107(3) 0.4634(3) 0.2160(2)
H12 H -0.0166 0.4304 0.2476
C14 C 0.0467(3) 0.4525(3) 0.1746(2)
H13 H 0.0870 0.4103 0.1727
C15 C 0.0732(3) 0.5328(3) 0.0856(2)
H14 H 0.0492 0.5751 0.0642
C16 C 0.0338(3) 0.5143(3) 0.1373(2)
C17 C 0.1393(3) 0.4964(3) 0.0656(2)
H15 H 0.1662 0.4569 0.0879
C18 C 0.1737(3) 0.5125(3) 0.01195(19)
C19 C 0.1229(3) 0.5383(3) -0.0310(2)
H16 H 0.0665 0.5471 -0.0242
C20 C 0.1528(3) 0.5510(3) -0.0826(2)
H17 H 0.1175 0.5697 -0.1107
C21 C 0.2351(3) 0.5363(3) -0.0931(2)
H18 H 0.2562 0.5428 -0.1287
C22 C 0.2855(3) 0.5121(3) -0.0510(2)
H19 H 0.3417 0.5028 -0.0584
C23 C 0.2578(3) 0.5008(2) 0.00175(18)
C24 C 0.3145(3) 0.4803(3) 0.04575(18)
H20 H 0.2960 0.4886 0.0818
C25 C 0.3903(3) 0.4509(3) 0.0393(2)
H21 H 0.4077 0.4412 0.0031
C26 C 0.4485(3) 0.4323(3) 0.08212(19)
C27 C 0.5244(3) 0.3955(3) 0.0768(2)
H22 H 0.5499 0.3799 0.0438
C28 C 0.5563(3) 0.3856(3) 0.1283(2)
H23 H 0.6076 0.3611 0.1367
C29 C 0.5013(2) 0.4175(3) 0.1659(2)
C30 C 0.5065(2) 0.4226(2) 0.22290(18)
H24 H 0.5506 0.3939 0.2395
C31 C 0.4566(2) 0.4630(2) 0.25595(19)
H25 H 0.4152 0.4960 0.2397
C32 C 0.4598(2) 0.4611(2) 0.31509(18)
C33 C 0.4867(2) 0.3894(3) 0.34143(19)
H26 H 0.5053 0.3441 0.3204
C34 C 0.4867(3) 0.3830(3) 0.3965(2)
H27 H 0.5048 0.3335 0.4133
C35 C 0.4604(3) 0.4484(3) 0.4283(2)
H28 H 0.4602 0.4440 0.4668
C36 C 0.4340(3) 0.5211(3) 0.4027(2)
H29 H 0.4172 0.5665 0.4244
C37 C 0.4320(2) 0.5284(3) 0.34707(19)
C38 C 0.3463(2) 0.6550(2) 0.34266(19)
H30 H 0.3324 0.6456 0.3795
C39 C 0.3996(2) 0.6029(2) 0.32067(19)
H31 H 0.4182 0.6149 0.2851
C40 C 0.3074(2) 0.7239(2) 0.31649(18)
C41 C 0.2424(2) 0.7720(3) 0.33464(19)
H32 H 0.2165 0.7678 0.3689
C42 C 0.2222(2) 0.8274(3) 0.29349(18)
H33 H 0.1802 0.8678 0.2951
C43 C 0.2740(2) 0.8135(2) 0.24958(18)
C44 C 0.2799(2) 0.8522(3) 0.19818(19)
H34 H 0.3280 0.8422 0.1777
C45 C 0.2231(2) 0.9017(3) 0.1761(2)
H35 H 0.1734 0.9085 0.1955
C46 C 0.2314(3) 0.9462(3) 0.1247(2)
C47 C 0.1624(3) 0.9708(3) 0.0944(2)
C48 C 0.0785(3) 0.9532(3) 0.1126(2)
H36 H 0.0700 0.9058 0.1345
C49 C 0.3089(3) 0.9672(3) 0.1055(2)
H37 H 0.3557 0.9526 0.1263
C50 C 0.3192(4) 1.0083(4) 0.0572(3)
H38 H 0.3726 1.0222 0.0453
C51 C 0.2529(4) 1.0294(4) 0.0263(3)
H39 H 0.2600 1.0554 -0.0079
C52 C 0.1744(4) 1.0121(4) 0.0458(3)
H40 H 0.1281 1.0291 0.0253
C53 C -0.3452(3) 0.7672(4) 0.2493(3)
H41 H -0.3595 0.8239 0.2476
C54 C -0.3973(4) 0.7131(4) 0.2733(3)
H42 H -0.4485 0.7324 0.2861
C55 C -0.3778(3) 0.6320(5) 0.2795(3)
H43 H -0.4141 0.5953 0.2973
C56 C -0.3028(3) 0.6037(4) 0.2590(3)
H44 H -0.2883 0.5473 0.2630
O1 O -0.0917(14) 0.6898(15) 0.0854(11)
C57 C -0.0499(10) 0.7496(12) 0.0561(11)
H45 H -0.0127 0.7234 0.0296
H46 H -0.0170 0.7847 0.0808
C58 C -0.1110(12) 0.7987(10) 0.0283(9)
H47 H -0.0891 0.8232 -0.0054
H48 H -0.1325 0.8430 0.0519
C59 C -0.1795(10) 0.7300(10) 0.0157(7)
H49 H -0.2343 0.7542 0.0096
H50 H -0.1646 0.6937 -0.0151
C60 C -0.1726(11) 0.6906(12) 0.0657(10)
H51 H -0.2080 0.7191 0.0923
H52 H -0.1923 0.6331 0.0621
O3 O 0.2612(7) 0.8075(6) -0.0292(4)
C65 C 0.3324(8) 0.7753(9) -0.0073(6)
H61 H 0.3703 0.8205 0.0028
H62 H 0.3600 0.7395 -0.0341
C66 C 0.3091(9) 0.7252(10) 0.0431(6)
H63 H 0.3219 0.6661 0.0380
H64 H 0.3383 0.7457 0.0756
C67 C 0.2198(8) 0.7383(7) 0.0482(5)
H65 H 0.1924 0.6846 0.0539
H66 H 0.2087 0.7735 0.0801
C68 C 0.1887(8) 0.7750(8) 0.0028(6)
H67 H 0.1517 0.8209 0.0128
H68 H 0.1575 0.7346 -0.0191
N5 N 0.2860(3) 0.5255(4) 0.1840(2)
C73 C 0.2348(4) 0.5494(7) 0.2101(3)
C74 C 0.1747(4) 0.6006(8) 0.2368(5)
H77 H 0.1587 0.6458 0.2126
H78 H 0.1982 0.6234 0.2702
H79 H 0.1266 0.5674 0.2456
N6 N 0.4409(3) 0.6824(3) 0.1811(2)
C75 C 0.4942(3) 0.6577(3) 0.1584(2)
C76 C 0.5668(4) 0.6280(4) 0.1302(3)
H80 H 0.5720 0.6568 0.0954
H81 H 0.5618 0.5686 0.1237
H82 H 0.6154 0.6388 0.1525
N7 N 0.0077(3) 0.7840(3) 0.2024(3)
C77 C 0.0152(4) 0.7492(4) 0.2435(3)
C78 C 0.0206(7) 0.7078(7) 0.2964(4)
H83 H 0.0437 0.6525 0.2916
H84 H -0.0341 0.7034 0.3122
H85 H 0.0559 0.7399 0.3207
O2? O -0.086(2) 0.698(2) 0.0879(15)
C61? C -0.0252(14) 0.7439(17) 0.0615(15)
H53? H 0.0099 0.7070 0.0397
H54? H 0.0096 0.7728 0.0884
C62? C -0.0657(15) 0.8031(14) 0.0269(12)
H55? H -0.0465 0.7977 -0.0110
H56? H -0.0552 0.8601 0.0395
C63? C -0.1614(13) 0.7812(14) 0.0311(11)
H57? H -0.1907 0.8185 0.0563
H58? H -0.1888 0.7814 -0.0048
C64? C -0.1528(16) 0.7020(16) 0.0521(14)
H59? H -0.2032 0.6863 0.0716
H60? H -0.1447 0.6624 0.0220
O4? O 0.2468(16) 0.7794(17) -0.0271(9)
C69? C 0.310(2) 0.722(2) -0.0286(10)
H69? H 0.3528 0.7404 -0.0542
H70? H 0.2889 0.6679 -0.0410
C70? C 0.3457(19) 0.714(2) 0.0288(12)
H71? H 0.3606 0.6565 0.0375
H72? H 0.3940 0.7503 0.0340
C71? C 0.274(2) 0.743(2) 0.0610(10)
H73? H 0.2361 0.6967 0.0674
H74? H 0.2927 0.7644 0.0965
C72? C 0.236(2) 0.8044(19) 0.0320(12)
H75? H 0.2616 0.8586 0.0392
H76? H 0.1772 0.8075 0.0415
loop_
_geom_bond_atom_site_label_1
_geom_bond_atom_site_label_2
_geom_bond_site_symmetry_1
_geom_bond_site_symmetry_2
N1 H1 1_555 1_555
N2 H2 1_555 1_555
N3 H3 1_555 1_555
N4 H4 1_555 1_555
C1 H5 1_555 1_555
C2 N4 1_555 1_555
C3 C2 1_555 1_555
H6 C3 1_555 1_555
C4 C3 1_555 1_555
H7 C4 1_555 1_555
C5 N4 1_555 1_555
C6 C5 1_555 1_555
H8 C6 1_555 1_555
C7 C6 1_555 1_555
H9 C7 1_555 1_555
C8 C7 1_555 1_555
C9 C8 1_555 1_555
C10 C9 1_555 1_555
H10 C10 1_555 1_555
C11 C10 1_555 1_555
H11 C11 1_555 1_555
C12 N3 1_555 1_555
C13 C12 1_555 1_555
H12 C13 1_555 1_555
C14 C13 1_555 1_555
H13 C14 1_555 1_555
C15 H14 1_555 1_555
C16 N3 1_555 1_555
C17 C15 1_555 1_555
H15 C17 1_555 1_555
C18 C17 1_555 1_555
C19 C18 1_555 1_555
H16 C19 1_555 1_555
C20 C19 1_555 1_555
H17 C20 1_555 1_555
C21 C20 1_555 1_555
H18 C21 1_555 1_555
C22 C21 1_555 1_555
H19 C22 1_555 1_555
C23 C18 1_555 1_555
C24 C23 1_555 1_555
H20 C24 1_555 1_555
C25 C24 1_555 1_555
H21 C25 1_555 1_555
C26 N1 1_555 1_555
C27 C26 1_555 1_555
H22 C27 1_555 1_555
C28 C27 1_555 1_555
H23 C28 1_555 1_555
C29 N1 1_555 1_555
C30 C29 1_555 1_555
H24 C30 1_555 1_555
C31 C30 1_555 1_555
H25 C31 1_555 1_555
C32 C31 1_555 1_555
C33 C32 1_555 1_555
H26 C33 1_555 1_555
C34 C33 1_555 1_555
H27 C34 1_555 1_555
C35 C34 1_555 1_555
H28 C35 1_555 1_555
C36 C35 1_555 1_555
H29 C36 1_555 1_555
C37 C32 1_555 1_555
C38 H30 1_555 1_555
C39 C37 1_555 1_555
H31 C39 1_555 1_555
C40 N2 1_555 1_555
C41 C40 1_555 1_555
H32 C41 1_555 1_555
C42 C41 1_555 1_555
H33 C42 1_555 1_555
C43 N2 1_555 1_555
C44 C43 1_555 1_555
H34 C44 1_555 1_555
C45 C44 1_555 1_555
H35 C45 1_555 1_555
C46 C45 1_555 1_555
C47 C46 1_555 1_555
C48 C1 1_555 1_555
H36 C48 1_555 1_555
C49 C46 1_555 1_555
H37 C49 1_555 1_555
C50 C49 1_555 1_555
H38 C50 1_555 1_555
C51 C50 1_555 1_555
H39 C51 1_555 1_555
C52 C47 1_555 1_555
H40 C52 1_555 1_555
C53 C8 1_555 1_555
H41 C53 1_555 1_555
C54 C53 1_555 1_555
H42 C54 1_555 1_555
C55 C54 1_555 1_555
H43 C55 1_555 1_555
C56 C9 1_555 1_555
H44 C56 1_555 1_555
O1 C57 1_555 1_555
C57 H45 1_555 1_555
H46 C57 1_555 1_555
C58 C57 1_555 1_555
H47 C58 1_555 1_555
H48 C58 1_555 1_555
C59 C58 1_555 1_555
H49 C59 1_555 1_555
H50 C59 1_555 1_555
C60 O1 1_555 1_555
H51 C60 1_555 1_555
H52 C60 1_555 1_555
O3 C65 1_555 1_555
C65 H61 1_555 1_555
H62 C65 1_555 1_555
C66 C65 1_555 1_555
H63 C66 1_555 1_555
H64 C66 1_555 1_555
C67 C66 1_555 1_555
H65 C67 1_555 1_555
H66 C67 1_555 1_555
C68 O3 1_555 1_555
H67 C68 1_555 1_555
H68 C68 1_555 1_555
N5 C73 1_555 1_555
C73 C74 1_555 1_555
C74 H77 1_555 1_555
H78 C74 1_555 1_555
H79 C74 1_555 1_555
N6 C75 1_555 1_555
C75 C76 1_555 1_555
C76 H80 1_555 1_555
H81 C76 1_555 1_555
H82 C76 1_555 1_555
N7 C77 1_555 1_555
C77 C78 1_555 1_555
C78 H83 1_555 1_555
H84 C78 1_555 1_555
H85 C78 1_555 1_555
C1 C2 1_555 1_555
C4 C5 1_555 1_555
C11 C12 1_555 1_555
C14 C16 1_555 1_555
C15 C16 1_555 1_555
C22 C23 1_555 1_555
C25 C26 1_555 1_555
C28 C29 1_555 1_555
C36 C37 1_555 1_555
C38 C39 1_555 1_555
C38 C40 1_555 1_555
C42 C43 1_555 1_555
C47 C48 1_555 1_555
C51 C52 1_555 1_555
C55 C56 1_555 1_555
C59 C60 1_555 1_555
C67 C68 1_555 1_555

#END
