
#######################################################################
#
#                 Cambridge Crystallographic Data Centre
#                                CCDC 
#
#######################################################################
#
# If this CIF has been generated from an entry in the Cambridge 
# Structural Database, then it will include bibliographic, chemical, 
# crystal, experimental, refinement or atomic coordinate data resulting 
# from the CCDC's data processing and validation procedures.
#
#######################################################################

data_WITZIK
_chemical_formula_moiety         'C34 H40 Cl1 N2 1+,F6 P1 1-'
_chemical_name_systematic        
'2-(2-(2-Chloro-3-(2-(1-ethyl-3,3-dimethyl-1,3-dihydro-2H-indol-2-ylidene)ethylidene)cyclohex-1-en-1-yl)vinyl)-1-ethyl-3,3-dimethyl-3H-indolium hexafluorophosphate'
_symmetry_cell_setting           monoclinic
_symmetry_space_group_name_H-M   'P n'
_symmetry_Int_Tables_number      7
_space_group_name_Hall           'P -2yac'
loop_
_symmetry_equiv_pos_site_id
_symmetry_equiv_pos_as_xyz
1 x,y,z
2 1/2+x,-y,1/2+z
_cell_length_a                   8.4401(3)
_cell_length_b                   24.4463(15)
_cell_length_c                   31.1399(11)
_cell_angle_alpha                90
_cell_angle_beta                 94.948(3)
_cell_angle_gamma                90
_cell_volume                     6401.13
_exptl_crystal_colour            'pale green'
_exptl_crystal_description       needle
_cell_formula_units_Z            8
loop_
_atom_site_label
_atom_site_type_symbol
_atom_site_fract_x
_atom_site_fract_y
_atom_site_fract_z
Cl1 Cl 0.8522(3) 0.53944(10) 0.20334(7)
N1 N 1.4297(8) 0.5321(2) 0.35303(18)
N2 N 0.1538(9) 0.4317(3) 0.1541(2)
C1 C 1.3156(10) 0.5412(3) 0.3210(2)
C2 C 1.3730(9) 0.5867(3) 0.2921(2)
C3 C 1.5413(9) 0.5936(3) 0.3109(2)
C4 C 1.6616(10) 0.6262(4) 0.2972(3)
H1 H 1.6437 0.6495 0.2728
C5 C 1.8095(10) 0.6234(3) 0.3206(3)
H2 H 1.8937 0.6458 0.3123
C6 C 1.8376(10) 0.5888(3) 0.3558(3)
H3 H 1.9411 0.5871 0.3704
C7 C 1.7174(10) 0.5570(3) 0.3700(2)
H4 H 1.7345 0.5342 0.3947
C8 C 1.5691(10) 0.5599(3) 0.3463(2)
C9 C 1.4173(9) 0.4937(3) 0.3893(2)
H5 H 1.3077 0.4944 0.3983
H6 H 1.4906 0.5053 0.4142
C10 C 1.4585(12) 0.4361(4) 0.3764(3)
H7 H 1.3928 0.4258 0.3502
H8 H 1.4383 0.4107 0.3997
H9 H 1.5711 0.4344 0.3710
C11 C 1.2769(9) 0.6383(3) 0.2984(3)
H10 H 1.2872 0.6485 0.3290
H11 H 1.1648 0.6316 0.2891
H12 H 1.3170 0.6681 0.2813
C12 C 1.3687(10) 0.5713(4) 0.2445(3)
H13 H 1.4100 0.6017 0.2283
H14 H 1.2589 0.5635 0.2334
H15 H 1.4345 0.5388 0.2413
C13 C 1.1731(10) 0.5113(3) 0.3177(2)
H16 H 1.1547 0.4859 0.3398
C14 C 1.0588(9) 0.5174(3) 0.2838(2)
H17 H 1.0725 0.5458 0.2636
C15 C 0.9231(9) 0.4841(3) 0.2771(3)
C16 C 0.8130(10) 0.4909(3) 0.2420(2)
C17 C 0.6704(9) 0.4599(3) 0.2337(3)
C18 C 0.6326(11) 0.4217(4) 0.2699(3)
H18 H 0.5727 0.4421 0.2906
H19 H 0.5638 0.3917 0.2577
C19 C 0.7757(12) 0.3983(4) 0.2926(4)
H20 H 0.8268 0.3735 0.2728
H21 H 0.7443 0.3760 0.3170
C20 C 0.8958(9) 0.4406(3) 0.3097(2)
H22 H 0.8581 0.4579 0.3356
H23 H 0.9980 0.4221 0.3183
C21 C 0.5651(10) 0.4663(3) 0.1980(3)
H24 H 0.5975 0.4891 0.1756
C22 C 0.4149(10) 0.4424(4) 0.1915(3)
H25 H 0.3863 0.4170 0.2126
C23 C 0.3056(10) 0.4522(3) 0.1576(3)
C24 C 0.3261(10) 0.4878(3) 0.1175(2)
C25 C 0.1695(10) 0.4776(4) 0.0910(3)
C26 C 0.1140(10) 0.4967(4) 0.0513(3)
H26 H 0.1796 0.5188 0.0351
C27 C -0.0402(11) 0.4835(4) 0.0350(3)
H27 H -0.0804 0.4964 0.0074
C28 C -0.1340(11) 0.4514(4) 0.0591(3)
H28 H -0.2385 0.4425 0.0474
C29 C -0.0827(11) 0.4319(4) 0.0995(3)
H29 H -0.1487 0.4103 0.1160
C30 C 0.0725(10) 0.4458(4) 0.1144(3)
C31 C 0.0751(11) 0.4014(4) 0.1891(3)
H30 H 0.1272 0.4114 0.2177
H31 H -0.0384 0.4119 0.1883
C32 C 0.0878(15) 0.3439(5) 0.1827(4)
H32 H 0.0431 0.3345 0.1535
H33 H 0.0290 0.3246 0.2039
H34 H 0.2000 0.3331 0.1863
C33 C 0.3384(11) 0.5484(3) 0.1291(3)
H35 H 0.3344 0.5703 0.1026
H36 H 0.4391 0.5553 0.1463
H37 H 0.2496 0.5587 0.1457
C34 C 0.4640(10) 0.4691(4) 0.0931(3)
H38 H 0.4570 0.4294 0.0885
H39 H 0.5644 0.4779 0.1098
H40 H 0.4595 0.4877 0.0651
Cl2 Cl 0.9506(3) 0.28392(10) 0.06954(7)
N3 N 0.3694(8) 0.2821(2) -0.0804(2)
N4 N 1.6525(8) 0.1739(3) 0.1100(2)
C35 C 0.4821(9) 0.2925(3) -0.0483(2)
C36 C 0.4313(9) 0.3367(3) -0.0192(2)
C37 C 0.2594(10) 0.3456(3) -0.0380(3)
C38 C 0.1405(11) 0.3769(3) -0.0238(3)
H41 H 0.1594 0.3987 0.0014
C39 C -0.0067(11) 0.3764(4) -0.0463(3)
H42 H -0.0886 0.3996 -0.0377
C40 C -0.0362(10) 0.3420(3) -0.0817(3)
H43 H -0.1399 0.3409 -0.0962
C41 C 0.0809(9) 0.3094(3) -0.0962(2)
H44 H 0.0615 0.2862 -0.1205
C42 C 0.2285(9) 0.3126(3) -0.0733(2)
C43 C 0.3820(9) 0.2460(3) -0.1175(2)
H45 H 0.4926 0.2469 -0.1257
H46 H 0.3116 0.2599 -0.1422
C44 C 0.3373(11) 0.1879(3) -0.1083(3)
H47 H 0.3932 0.1761 -0.0809
H48 H 0.3672 0.1641 -0.1316
H49 H 0.2222 0.1856 -0.1062
C45 C 0.4369(10) 0.3211(4) 0.0288(3)
H50 H 0.5449 0.3266 0.0423
H51 H 0.4066 0.2826 0.0315
H52 H 0.3626 0.3442 0.0432
C46 C 0.5299(10) 0.3885(3) -0.0252(2)
H53 H 0.5148 0.4004 -0.0553
H54 H 0.6426 0.3806 -0.0176
H55 H 0.4950 0.4176 -0.0065
C47 C 0.6252(10) 0.2621(3) -0.0451(2)
H56 H 0.6419 0.2371 -0.0677
C48 C 0.7420(10) 0.2660(3) -0.0115(3)
H57 H 0.7307 0.2935 0.0096
C49 C 0.8759(9) 0.2324(3) -0.0064(2)
C50 C 0.9906(10) 0.2366(3) 0.0298(3)
C51 C 1.1323(10) 0.2072(3) 0.0351(3)
C52 C 1.1669(11) 0.1704(4) -0.0012(3)
H58 H 1.2402 0.1411 0.0099
H59 H 1.2210 0.1917 -0.0227
C53 C 1.0167(11) 0.1446(3) -0.0233(3)
H60 H 1.0445 0.1219 -0.0479
H61 H 0.9667 0.1205 -0.0027
C54 C 0.9008(10) 0.1890(3) -0.0392(3)
H62 H 0.9404 0.2065 -0.0649
H63 H 0.7970 0.1718 -0.0483
C55 C 1.2401(10) 0.2128(3) 0.0708(3)
H64 H 1.2114 0.2355 0.0936
C56 C 1.3902(10) 0.1870(3) 0.0756(3)
H65 H 1.4154 0.1620 0.0538
C57 C 1.5028(10) 0.1955(3) 0.1097(3)
C58 C 1.4915(9) 0.2278(3) 0.1514(3)
C59 C 1.6499(10) 0.2166(4) 0.1754(3)
C60 C 1.7134(10) 0.2325(4) 0.2157(3)
H66 H 1.6526 0.2538 0.2338
C61 C 1.8680(11) 0.2169(4) 0.2296(3)
H67 H 1.9142 0.2286 0.2570
C62 C 1.9542(10) 0.1846(4) 0.2040(3)
H68 H 2.0581 0.1734 0.2146
C63 C 1.8944(10) 0.1678(4) 0.1634(3)
H69 H 1.9547 0.1456 0.1458
C64 C 1.7411(10) 0.1852(3) 0.1495(3)
C65 C 1.7178(11) 0.1427(4) 0.0757(3)
H70 H 1.8318 0.1518 0.0748
H71 H 1.6618 0.1529 0.0476
C66 C 1.7005(13) 0.0816(4) 0.0827(4)
H72 H 1.7631 0.0709 0.1094
H73 H 1.7389 0.0617 0.0583
H74 H 1.5883 0.0727 0.0850
C67 C 1.3538(10) 0.2081(4) 0.1765(3)
H75 H 1.3579 0.1681 0.1791
H76 H 1.2525 0.2189 0.1612
H77 H 1.3631 0.2245 0.2053
C68 C 1.4816(11) 0.2894(3) 0.1418(3)
H78 H 1.4922 0.3099 0.1690
H79 H 1.3787 0.2979 0.1262
H80 H 1.5674 0.2999 0.1242
Cl3 Cl 0.4849(2) 0.20985(9) 0.55703(7)
N5 N -0.1260(7) 0.2455(2) 0.4215(2)
N6 N 1.1779(8) 0.3145(3) 0.6155(2)
C69 C -0.0033(10) 0.2294(3) 0.4484(2)
C70 C -0.0416(9) 0.1760(3) 0.4695(2)
C71 C -0.2157(9) 0.1689(3) 0.4519(3)
C72 C -0.3275(11) 0.1297(4) 0.4607(3)
H81 H -0.3018 0.1008 0.4805
C73 C -0.4770(11) 0.1345(4) 0.4396(3)
H82 H -0.5561 0.1084 0.4451
C74 C -0.5152(10) 0.1761(4) 0.4107(3)
H83 H -0.6195 0.1776 0.3966
C75 C -0.4078(10) 0.2151(3) 0.4018(3)
H84 H -0.4345 0.2436 0.3817
C76 C -0.2570(10) 0.2111(3) 0.4234(3)
C77 C -0.1295(10) 0.2905(3) 0.3899(2)
H85 H -0.0462 0.3177 0.3990
H86 H -0.2340 0.3091 0.3885
C78 C -0.1013(11) 0.2680(4) 0.3464(3)
H87 H -0.0027 0.2467 0.3485
H88 H -0.0923 0.2983 0.3261
H89 H -0.1905 0.2445 0.3361
C79 C -0.0282(10) 0.1761(4) 0.5189(3)
H90 H -0.0743 0.2099 0.5292
H91 H 0.0841 0.1738 0.5298
H92 H -0.0856 0.1445 0.5292
C80 C 0.0615(10) 0.1304(3) 0.4520(3)
H93 H 0.0249 0.0948 0.4616
H94 H 0.1728 0.1359 0.4630
H95 H 0.0524 0.1317 0.4205
C81 C 0.1389(9) 0.2597(3) 0.4540(3)
H96 H 0.1475 0.2912 0.4365
C82 C 0.2654(9) 0.2470(3) 0.4826(2)
H97 H 0.2602 0.2135 0.4980
C83 C 0.4018(9) 0.2789(3) 0.4913(2)
C84 C 0.5180(9) 0.2663(3) 0.5244(3)
C85 C 0.6625(9) 0.2946(3) 0.5332(3)
C86 C 0.6928(10) 0.3411(3) 0.5032(3)
H98 H 0.7649 0.3679 0.5187
H99 H 0.7465 0.3268 0.4785
C87 C 0.5415(10) 0.3693(3) 0.4868(3)
H100 H 0.5664 0.3982 0.4661
H101 H 0.4939 0.3871 0.5112
C88 C 0.4225(9) 0.3300(3) 0.4647(3)
H102 H 0.4584 0.3194 0.4364
H103 H 0.3186 0.3487 0.4594
C89 C 0.7676(9) 0.2831(3) 0.5677(3)
H104 H 0.7360 0.2571 0.5880
C90 C 0.9208(9) 0.3070(3) 0.5757(3)
H105 H 0.9544 0.3323 0.5552
C91 C 1.0245(9) 0.2954(3) 0.6117(3)
C92 C 0.9948(10) 0.2633(3) 0.6519(3)
C93 C 1.1477(10) 0.2726(3) 0.6795(3)
C94 C 1.1951(11) 0.2560(4) 0.7208(3)
H106 H 1.1257 0.2351 0.7368
C95 C 1.3457(11) 0.2701(4) 0.7388(3)
H107 H 1.3789 0.2593 0.7675
C96 C 1.4459(10) 0.2992(4) 0.7158(3)
H108 H 1.5495 0.3073 0.7287
C97 C 1.4029(10) 0.3177(3) 0.6741(3)
H109 H 1.4731 0.3391 0.6588
C98 C 1.2507(10) 0.3032(3) 0.6558(3)
C99 C 1.2542(10) 0.3440(3) 0.5827(3)
H110 H 1.2113 0.3307 0.5540
H111 H 1.3695 0.3359 0.5859
C100 C 1.2311(12) 0.4070(3) 0.5844(3)
H112 H 1.1174 0.4155 0.5835
H113 H 1.2763 0.4240 0.5597
H114 H 1.2852 0.4213 0.6112
C101 C 0.9827(11) 0.2016(3) 0.6416(3)
H115 H 1.0773 0.1900 0.6279
H116 H 0.8876 0.1948 0.6220
H117 H 0.9754 0.1810 0.6683
C102 C 0.8514(11) 0.2844(4) 0.6742(3)
H118 H 0.8479 0.2662 0.7022
H119 H 0.7533 0.2766 0.6561
H120 H 0.8615 0.3240 0.6786
Cl4 Cl 0.2933(3) -0.03533(9) 0.70680(7)
N7 N -0.4021(7) 0.0733(3) 0.6550(2)
N8 N 0.9075(8) -0.0043(2) 0.8423(2)
C103 C -0.2510(9) 0.0524(3) 0.6576(3)
C104 C -0.2311(9) 0.0200(3) 0.6159(2)
C105 C -0.3847(9) 0.0330(3) 0.5898(3)
C106 C -0.4383(11) 0.0186(4) 0.5480(3)
H121 H -0.3716 -0.0014 0.5306
C107 C -0.5888(11) 0.0335(4) 0.5319(3)
H122 H -0.6263 0.0238 0.5033
C108 C -0.6865(10) 0.0627(4) 0.5576(3)
H123 H -0.7912 0.0720 0.5463
C109 C -0.6355(9) 0.0788(3) 0.5993(3)
H124 H -0.7014 0.0994 0.6165
C110 C -0.4829(9) 0.0631(3) 0.6143(2)
C111 C -0.4689(9) 0.1058(3) 0.6884(3)
H125 H -0.4222 0.0934 0.7170
H126 H -0.5851 0.0995 0.6870
C112 C -0.4383(14) 0.1651(4) 0.6837(4)
H127 H -0.3263 0.1729 0.6925
H128 H -0.5059 0.1858 0.7019
H129 H -0.4624 0.1759 0.6535
C113 C -0.0895(9) 0.0418(4) 0.5934(3)
H130 H -0.0837 0.0226 0.5659
H131 H 0.0089 0.0356 0.6118
H132 H -0.1032 0.0811 0.5880
C114 C -0.2178(11) -0.0416(3) 0.6251(3)
H133 H -0.3056 -0.0530 0.6417
H134 H -0.1163 -0.0493 0.6417
H135 H -0.2233 -0.0617 0.5978
C115 C -0.1437(10) 0.0619(3) 0.6921(2)
H136 H -0.1743 0.0863 0.7136
C116 C 0.0092(9) 0.0384(3) 0.6983(2)
H137 H 0.0383 0.0127 0.6775
C117 C 0.1185(9) 0.0499(3) 0.7320(2)
C118 C 0.2641(10) 0.0194(3) 0.7409(3)
C119 C 0.3768(9) 0.0317(3) 0.7736(2)
C120 C 0.3604(9) 0.0812(3) 0.8012(2)
H138 H 0.4657 0.0988 0.8071
H139 H 0.3232 0.0699 0.8292
C121 C 0.2437(9) 0.1224(3) 0.7797(2)
H140 H 0.2229 0.1517 0.8005
H141 H 0.2908 0.1395 0.7549
C122 C 0.0887(9) 0.0947(3) 0.7642(2)
H142 H 0.0140 0.1220 0.7505
H143 H 0.0396 0.0787 0.7891
C123 C 0.5166(9) -0.0013(3) 0.7811(2)
H144 H 0.5240 -0.0335 0.7643
C124 C 0.6406(9) 0.0104(3) 0.8112(2)
H145 H 0.6304 0.0406 0.8300
C125 C 0.7836(9) -0.0205(3) 0.8153(2)
C126 C 0.8234(9) -0.0735(3) 0.7936(2)
C127 C 0.9945(9) -0.0821(3) 0.8102(3)
C128 C 1.1023(10) -0.1213(4) 0.8006(3)
H146 H 1.0747 -0.1499 0.7807
C129 C 1.2593(11) -0.1168(4) 0.8222(3)
H147 H 1.3386 -0.1427 0.8162
C130 C 1.2955(10) -0.0761(4) 0.8510(3)
H148 H 1.3999 -0.0747 0.8651
C131 C 1.1859(9) -0.0364(3) 0.8609(2)
H149 H 1.2131 -0.0079 0.8809
C132 C 1.0374(8) -0.0407(3) 0.8402(2)
C133 C 0.9141(10) 0.0407(3) 0.8731(2)
H150 H 0.8312 0.0681 0.8643
H151 H 1.0192 0.0589 0.8741
C134 C 0.8865(10) 0.0173(4) 0.9182(3)
H152 H 0.8001 -0.0096 0.9154
H153 H 0.8578 0.0471 0.9371
H154 H 0.9840 -0.0004 0.9307
C135 C 0.8082(11) -0.0712(4) 0.7448(3)
H155 H 0.6993 -0.0609 0.7345
H156 H 0.8330 -0.1071 0.7333
H157 H 0.8826 -0.0439 0.7351
C136 C 0.7178(10) -0.1190(3) 0.8104(3)
H158 H 0.6093 -0.1154 0.7967
H159 H 0.7164 -0.1156 0.8417
H160 H 0.7608 -0.1548 0.8034
P1 P 0.0188(3) 0.44121(9) 0.45047(7)
F1 F -0.0624(10) 0.4724(3) 0.4874(2)
F2 F 0.1000(7) 0.4104(2) 0.41296(17)
F3 F 0.0114(8) 0.4940(2) 0.4212(2)
F4 F 0.0313(8) 0.3870(2) 0.4785(2)
F5 F 0.1874(7) 0.4596(3) 0.4705(2)
F6 F -0.1510(7) 0.4231(3) 0.4298(2)
P2 P 0.3385(3) 0.29454(10) 0.30114(8)
F7 F 0.2868(8) 0.2731(4) 0.3453(2)
F8 F 0.3962(7) 0.3131(2) 0.25585(18)
F9 F 0.2438(9) 0.3495(3) 0.3030(3)
F10 F 0.4411(8) 0.2403(2) 0.2979(2)
F11 F 0.4893(7) 0.3234(2) 0.3261(2)
F12 F 0.1892(7) 0.2649(3) 0.27585(18)
P3 P 0.2763(2) 0.80666(9) 0.32025(7)
F13 F 0.1962(7) 0.8380(2) 0.35779(17)
F14 F 0.3591(9) 0.7763(3) 0.2833(2)
F15 F 0.2582(7) 0.8600(2) 0.2907(2)
F16 F 0.2933(8) 0.7532(2) 0.3502(2)
F17 F 0.4441(7) 0.8285(3) 0.3394(2)
F18 F 0.1064(7) 0.7867(3) 0.3018(2)
P4 P 0.9428(3) 0.95929(9) 0.46329(8)
F19 F 0.7961(7) 0.9283(2) 0.4384(2)
F20 F 1.0863(7) 0.9910(2) 0.48729(19)
F21 F 0.8858(7) 0.9406(2) 0.50904(18)
F22 F 0.9947(8) 0.9799(3) 0.4184(2)
F23 F 0.8325(7) 1.0124(2) 0.4652(2)
F24 F 1.0482(8) 0.9068(2) 0.4620(3)
loop_
_geom_bond_atom_site_label_1
_geom_bond_atom_site_label_2
_geom_bond_site_symmetry_1
_geom_bond_site_symmetry_2
Cl1 C16 1_555 1_555
N1 C1 1_555 1_555
N2 C23 1_555 1_555
C1 C2 1_555 1_555
C2 C3 1_555 1_555
C3 C4 1_555 1_555
C4 H1 1_555 1_555
C5 C4 1_555 1_555
H2 C5 1_555 1_555
C6 C5 1_555 1_555
H3 C6 1_555 1_555
C7 C6 1_555 1_555
H4 C7 1_555 1_555
C8 N1 1_555 1_555
C9 N1 1_555 1_555
H5 C9 1_555 1_555
H6 C9 1_555 1_555
C10 C9 1_555 1_555
H7 C10 1_555 1_555
H8 C10 1_555 1_555
H9 C10 1_555 1_555
C11 C2 1_555 1_555
H10 C11 1_555 1_555
H11 C11 1_555 1_555
H12 C11 1_555 1_555
C12 C2 1_555 1_555
H13 C12 1_555 1_555
H14 C12 1_555 1_555
H15 C12 1_555 1_555
C13 C1 1_555 1_555
H16 C13 1_555 1_555
C14 C13 1_555 1_555
H17 C14 1_555 1_555
C15 C14 1_555 1_555
C16 C15 1_555 1_555
C17 C16 1_555 1_555
C18 C17 1_555 1_555
H18 C18 1_555 1_555
H19 C18 1_555 1_555
C19 C18 1_555 1_555
H20 C19 1_555 1_555
H21 C19 1_555 1_555
C20 C15 1_555 1_555
H22 C20 1_555 1_555
H23 C20 1_555 1_555
C21 C17 1_555 1_555
H24 C21 1_555 1_555
C22 C21 1_555 1_555
H25 C22 1_555 1_555
C23 C22 1_555 1_555
C24 C23 1_555 1_555
C25 C24 1_555 1_555
C26 C25 1_555 1_555
H26 C26 1_555 1_555
C27 C26 1_555 1_555
H27 C27 1_555 1_555
C28 C27 1_555 1_555
H28 C28 1_555 1_555
C29 C28 1_555 1_555
H29 C29 1_555 1_555
C30 N2 1_555 1_555
C31 N2 1_555 1_555
H30 C31 1_555 1_555
H31 C31 1_555 1_555
C32 C31 1_555 1_555
H32 C32 1_555 1_555
H33 C32 1_555 1_555
H34 C32 1_555 1_555
C33 C24 1_555 1_555
H35 C33 1_555 1_555
H36 C33 1_555 1_555
H37 C33 1_555 1_555
C34 C24 1_555 1_555
H38 C34 1_555 1_555
H39 C34 1_555 1_555
H40 C34 1_555 1_555
Cl2 C50 1_555 1_555
N3 C35 1_555 1_555
N4 C57 1_555 1_555
C35 C36 1_555 1_555
C36 C37 1_555 1_555
C37 C38 1_555 1_555
C38 H41 1_555 1_555
C39 C38 1_555 1_555
H42 C39 1_555 1_555
C40 C39 1_555 1_555
H43 C40 1_555 1_555
C41 C40 1_555 1_555
H44 C41 1_555 1_555
C42 N3 1_555 1_555
C43 N3 1_555 1_555
H45 C43 1_555 1_555
H46 C43 1_555 1_555
C44 C43 1_555 1_555
H47 C44 1_555 1_555
H48 C44 1_555 1_555
H49 C44 1_555 1_555
C45 C36 1_555 1_555
H50 C45 1_555 1_555
H51 C45 1_555 1_555
H52 C45 1_555 1_555
C46 C36 1_555 1_555
H53 C46 1_555 1_555
H54 C46 1_555 1_555
H55 C46 1_555 1_555
C47 C35 1_555 1_555
H56 C47 1_555 1_555
C48 C47 1_555 1_555
H57 C48 1_555 1_555
C49 C48 1_555 1_555
C50 C49 1_555 1_555
C51 C50 1_555 1_555
C52 C51 1_555 1_555
H58 C52 1_555 1_555
H59 C52 1_555 1_555
C53 C52 1_555 1_555
H60 C53 1_555 1_555
H61 C53 1_555 1_555
C54 C49 1_555 1_555
H62 C54 1_555 1_555
H63 C54 1_555 1_555
C55 C51 1_555 1_555
H64 C55 1_555 1_555
C56 C55 1_555 1_555
H65 C56 1_555 1_555
C57 C56 1_555 1_555
C58 C57 1_555 1_555
C59 C58 1_555 1_555
C60 C59 1_555 1_555
H66 C60 1_555 1_555
C61 C60 1_555 1_555
H67 C61 1_555 1_555
C62 C61 1_555 1_555
H68 C62 1_555 1_555
C63 C62 1_555 1_555
H69 C63 1_555 1_555
C64 N4 1_555 1_555
C65 N4 1_555 1_555
H70 C65 1_555 1_555
H71 C65 1_555 1_555
C66 C65 1_555 1_555
H72 C66 1_555 1_555
H73 C66 1_555 1_555
H74 C66 1_555 1_555
C67 C58 1_555 1_555
H75 C67 1_555 1_555
H76 C67 1_555 1_555
H77 C67 1_555 1_555
C68 C58 1_555 1_555
H78 C68 1_555 1_555
H79 C68 1_555 1_555
H80 C68 1_555 1_555
Cl3 C84 1_555 1_555
N5 C69 1_555 1_555
N6 C91 1_555 1_555
C69 C70 1_555 1_555
C70 C71 1_555 1_555
C71 C72 1_555 1_555
C72 H81 1_555 1_555
C73 C72 1_555 1_555
H82 C73 1_555 1_555
C74 C73 1_555 1_555
H83 C74 1_555 1_555
C75 C74 1_555 1_555
H84 C75 1_555 1_555
C76 N5 1_555 1_555
C77 N5 1_555 1_555
H85 C77 1_555 1_555
H86 C77 1_555 1_555
C78 C77 1_555 1_555
H87 C78 1_555 1_555
H88 C78 1_555 1_555
H89 C78 1_555 1_555
C79 C70 1_555 1_555
H90 C79 1_555 1_555
H91 C79 1_555 1_555
H92 C79 1_555 1_555
C80 C70 1_555 1_555
H93 C80 1_555 1_555
H94 C80 1_555 1_555
H95 C80 1_555 1_555
C81 C69 1_555 1_555
H96 C81 1_555 1_555
C82 C81 1_555 1_555
H97 C82 1_555 1_555
C83 C82 1_555 1_555
C84 C83 1_555 1_555
C85 C84 1_555 1_555
C86 C85 1_555 1_555
H98 C86 1_555 1_555
H99 C86 1_555 1_555
C87 C86 1_555 1_555
H100 C87 1_555 1_555
H101 C87 1_555 1_555
C88 C83 1_555 1_555
H102 C88 1_555 1_555
H103 C88 1_555 1_555
C89 C85 1_555 1_555
H104 C89 1_555 1_555
C90 C89 1_555 1_555
H105 C90 1_555 1_555
C91 C90 1_555 1_555
C92 C91 1_555 1_555
C93 C92 1_555 1_555
C94 C93 1_555 1_555
H106 C94 1_555 1_555
C95 C94 1_555 1_555
H107 C95 1_555 1_555
C96 C95 1_555 1_555
H108 C96 1_555 1_555
C97 C96 1_555 1_555
H109 C97 1_555 1_555
C98 N6 1_555 1_555
C99 N6 1_555 1_555
H110 C99 1_555 1_555
H111 C99 1_555 1_555
C100 C99 1_555 1_555
H112 C100 1_555 1_555
H113 C100 1_555 1_555
H114 C100 1_555 1_555
C101 C92 1_555 1_555
H115 C101 1_555 1_555
H116 C101 1_555 1_555
H117 C101 1_555 1_555
C102 C92 1_555 1_555
H118 C102 1_555 1_555
H119 C102 1_555 1_555
H120 C102 1_555 1_555
Cl4 C118 1_555 1_555
N7 C103 1_555 1_555
N8 C125 1_555 1_555
C103 C104 1_555 1_555
C104 C105 1_555 1_555
C105 C106 1_555 1_555
C106 H121 1_555 1_555
C107 C106 1_555 1_555
H122 C107 1_555 1_555
C108 C107 1_555 1_555
H123 C108 1_555 1_555
C109 C108 1_555 1_555
H124 C109 1_555 1_555
C110 N7 1_555 1_555
C111 N7 1_555 1_555
H125 C111 1_555 1_555
H126 C111 1_555 1_555
C112 C111 1_555 1_555
H127 C112 1_555 1_555
H128 C112 1_555 1_555
H129 C112 1_555 1_555
C113 C104 1_555 1_555
H130 C113 1_555 1_555
H131 C113 1_555 1_555
H132 C113 1_555 1_555
C114 C104 1_555 1_555
H133 C114 1_555 1_555
H134 C114 1_555 1_555
H135 C114 1_555 1_555
C115 C103 1_555 1_555
H136 C115 1_555 1_555
C116 C115 1_555 1_555
H137 C116 1_555 1_555
C117 C116 1_555 1_555
C118 C117 1_555 1_555
C119 C118 1_555 1_555
C120 C119 1_555 1_555
H138 C120 1_555 1_555
H139 C120 1_555 1_555
C121 C120 1_555 1_555
H140 C121 1_555 1_555
H141 C121 1_555 1_555
C122 C117 1_555 1_555
H142 C122 1_555 1_555
H143 C122 1_555 1_555
C123 C119 1_555 1_555
H144 C123 1_555 1_555
C124 C123 1_555 1_555
H145 C124 1_555 1_555
C125 C124 1_555 1_555
C126 C125 1_555 1_555
C127 C126 1_555 1_555
C128 C127 1_555 1_555
H146 C128 1_555 1_555
C129 C128 1_555 1_555
H147 C129 1_555 1_555
C130 C129 1_555 1_555
H148 C130 1_555 1_555
C131 C130 1_555 1_555
H149 C131 1_555 1_555
C132 N8 1_555 1_555
C133 N8 1_555 1_555
H150 C133 1_555 1_555
H151 C133 1_555 1_555
C134 C133 1_555 1_555
H152 C134 1_555 1_555
H153 C134 1_555 1_555
H154 C134 1_555 1_555
C135 C126 1_555 1_555
H155 C135 1_555 1_555
H156 C135 1_555 1_555
H157 C135 1_555 1_555
C136 C126 1_555 1_555
H158 C136 1_555 1_555
H159 C136 1_555 1_555
H160 C136 1_555 1_555
P1 F1 1_555 1_555
F2 P1 1_555 1_555
F3 P1 1_555 1_555
F4 P1 1_555 1_555
F5 P1 1_555 1_555
F6 P1 1_555 1_555
P2 F7 1_555 1_555
F8 P2 1_555 1_555
F9 P2 1_555 1_555
F10 P2 1_555 1_555
F11 P2 1_555 1_555
F12 P2 1_555 1_555
P3 F13 1_555 1_555
F14 P3 1_555 1_555
F15 P3 1_555 1_555
F16 P3 1_555 1_555
F17 P3 1_555 1_555
F18 P3 1_555 1_555
P4 F19 1_555 1_555
F20 P4 1_555 1_555
F21 P4 1_555 1_555
F22 P4 1_555 1_555
F23 P4 1_555 1_555
F24 P4 1_555 1_555
C3 C8 1_555 1_555
C7 C8 1_555 1_555
C19 C20 1_555 1_555
C25 C30 1_555 1_555
C29 C30 1_555 1_555
C37 C42 1_555 1_555
C41 C42 1_555 1_555
C53 C54 1_555 1_555
C59 C64 1_555 1_555
C63 C64 1_555 1_555
C71 C76 1_555 1_555
C75 C76 1_555 1_555
C87 C88 1_555 1_555
C93 C98 1_555 1_555
C97 C98 1_555 1_555
C105 C110 1_555 1_555
C109 C110 1_555 1_555
C121 C122 1_555 1_555
C127 C132 1_555 1_555
C131 C132 1_555 1_555

#END
