
#######################################################################
#
#                 Cambridge Crystallographic Data Centre
#                                CCDC 
#
#######################################################################
#
# If this CIF has been generated from an entry in the Cambridge 
# Structural Database, then it will include bibliographic, chemical, 
# crystal, experimental, refinement or atomic coordinate data resulting 
# from the CCDC's data processing and validation procedures.
#
#######################################################################

data_WIVDEM
_chemical_formula_moiety         'C12 H11 F3 N4 O2 S1'
_chemical_name_systematic        
2-((2-(2-Methyl-5-nitro-1H-imidazol-1-yl)ethyl)sulfanyl)-5-(trifluoromethyl)pyridine
_symmetry_cell_setting           monoclinic
_symmetry_space_group_name_H-M   'P 21/c'
_symmetry_Int_Tables_number      14
_space_group_name_Hall           '-P 2ybc'
loop_
_symmetry_equiv_pos_site_id
_symmetry_equiv_pos_as_xyz
1 x,y,z
2 -x,1/2+y,1/2-z
3 -x,-y,-z
4 x,1/2-y,1/2+z
_cell_length_a                   9.7909(3)
_cell_length_b                   9.9299(3)
_cell_length_c                   15.0054(5)
_cell_angle_alpha                90
_cell_angle_beta                 108.1950(10)
_cell_angle_gamma                90
_cell_volume                     1385.92
_exptl_crystal_colour            colorless
_exptl_crystal_description       block
_cell_formula_units_Z            4
loop_
_atom_site_label
_atom_site_type_symbol
_atom_site_fract_x
_atom_site_fract_y
_atom_site_fract_z
S1 S 0.86191(9) 0.78339(9) 0.05840(8)
O1 O 0.4804(3) 0.2769(4) 0.0992(3)
O2 O 0.5491(3) 0.4826(3) 0.1046(3)
N1 N 0.5737(3) 0.3622(4) 0.1093(2)
N2 N 0.8362(3) 0.3972(3) 0.14490(18)
N3 N 1.1059(4) 0.9281(4) 0.1080(3)
N4 N 0.9055(4) 0.1843(3) 0.1453(2)
F1 F 1.5335(4) 0.8594(8) 0.0823(3)
F2 F 1.5520(3) 0.9465(3) 0.2110(3)
F3 F 1.5689(3) 0.7400(4) 0.2011(4)
C1 C 0.7163(4) 0.3168(4) 0.1256(2)
C2 C 0.7619(4) 0.1875(4) 0.1265(3)
H1 H 0.7026 0.1122 0.1157
C3 C 0.9476(4) 0.3124(3) 0.1562(2)
C4 C 1.0999(4) 0.3561(4) 0.1801(3)
H2 H 1.1604 0.2786 0.1845
H3 H 1.1273 0.4026 0.2391
H4 H 1.1105 0.4152 0.1321
C5 C 0.8494(4) 0.5454(3) 0.1498(2)
H5 H 0.9426 0.5700 0.1928
H6 H 0.7760 0.5824 0.1737
C6 C 0.8328(4) 0.6042(4) 0.0539(2)
H7 H 0.7369 0.5850 0.0124
H8 H 0.9011 0.5613 0.0280
C7 C 1.0506(4) 0.7979(3) 0.0913(2)
C8 C 1.1318(3) 0.6890(3) 0.0970(2)
H9 H 1.0913 0.6034 0.0860
C9 C 1.2732(4) 0.7069(4) 0.1189(3)
H10 H 1.3311 0.6314 0.1234
C10 C 1.3384(4) 0.8314(4) 0.1352(3)
C11 C 1.2530(4) 0.9438(4) 0.1295(3)
H11 H 1.2940 1.0292 0.1401
C12 C 1.4962(4) 0.8450(4) 0.1567(3)
loop_
_geom_bond_atom_site_label_1
_geom_bond_atom_site_label_2
_geom_bond_site_symmetry_1
_geom_bond_site_symmetry_2
S1 C6 1_555 1_555
O1 N1 1_555 1_555
O2 N1 1_555 1_555
N1 C1 1_555 1_555
N2 C1 1_555 1_555
N3 C7 1_555 1_555
N4 C2 1_555 1_555
F1 C12 1_555 1_555
F2 C12 1_555 1_555
F3 C12 1_555 1_555
C1 C2 1_555 1_555
C2 H1 1_555 1_555
C3 N2 1_555 1_555
C4 C3 1_555 1_555
H2 C4 1_555 1_555
H3 C4 1_555 1_555
H4 C4 1_555 1_555
C5 N2 1_555 1_555
H5 C5 1_555 1_555
H6 C5 1_555 1_555
C6 C5 1_555 1_555
H7 C6 1_555 1_555
H8 C6 1_555 1_555
C7 S1 1_555 1_555
C8 C7 1_555 1_555
H9 C8 1_555 1_555
C9 C8 1_555 1_555
H10 C9 1_555 1_555
C10 C9 1_555 1_555
C11 N3 1_555 1_555
H11 C11 1_555 1_555
C12 C10 1_555 1_555
N4 C3 1_555 1_555
C10 C11 1_555 1_555

#END
