
#######################################################################
#
#                 Cambridge Crystallographic Data Centre
#                                CCDC 
#
#######################################################################
#
# If this CIF has been generated from an entry in the Cambridge 
# Structural Database, then it will include bibliographic, chemical, 
# crystal, experimental, refinement or atomic coordinate data resulting 
# from the CCDC's data processing and validation procedures.
#
#######################################################################

data_WIVJUH
_chemical_formula_moiety         'C26 H28 B1 N1'
_chemical_name_systematic        N-(Dimesitylboryl)indole
_symmetry_cell_setting           triclinic
_symmetry_space_group_name_H-M   'P -1'
_symmetry_Int_Tables_number      2
_space_group_name_Hall           '-P 1'
loop_
_symmetry_equiv_pos_site_id
_symmetry_equiv_pos_as_xyz
1 x,y,z
2 -x,-y,-z
_cell_length_a                   8.2148(10)
_cell_length_b                   11.6163(13)
_cell_length_c                   12.2308(14)
_cell_angle_alpha                105.341(2)
_cell_angle_beta                 94.143(2)
_cell_angle_gamma                106.575(2)
_cell_volume                     1064.91
_chemical_melting_point          216deg.C
_cell_formula_units_Z            2
_exptl_crystal_preparation       luminescent
loop_
_atom_site_label
_atom_site_type_symbol
_atom_site_fract_x
_atom_site_fract_y
_atom_site_fract_z
N1 N 0.35033(18) 0.16767(12) 0.19618(12)
B1 B 0.2236(3) 0.09817(18) 0.25069(18)
C1 C 0.4112(2) 0.11457(17) 0.09733(16)
H1 H 0.3801 0.0286 0.0606
C2 C 0.5189(2) 0.20184(17) 0.06226(17)
H2 H 0.5720 0.1878 -0.0024
C3 C 0.6392(3) 0.44401(19) 0.1549(2)
H3 H 0.7090 0.4607 0.1007
C4 C 0.6356(3) 0.54011(19) 0.2478(2)
H4 H 0.7026 0.6222 0.2559
C5 C 0.5325(3) 0.51542(17) 0.32970(19)
H5 H 0.5334 0.5814 0.3927
C6 C 0.4297(2) 0.39567(16) 0.31929(17)
H6 H 0.3599 0.3798 0.3737
C7 C 0.4331(2) 0.29882(15) 0.22481(15)
C8 C 0.5379(2) 0.32206(16) 0.14279(16)
C9 C 0.1101(2) 0.16647(14) 0.32310(15)
C10 C 0.1041(2) 0.17261(15) 0.43916(16)
C11 C 0.0023(2) 0.23496(16) 0.49996(16)
H7 H 0.0012 0.2391 0.5769
C12 C -0.0976(2) 0.29101(17) 0.45018(18)
C13 C -0.0928(2) 0.28368(15) 0.33627(17)
H8 H -0.1593 0.3208 0.3014
C14 C 0.0070(2) 0.22332(15) 0.27133(15)
C15 C -0.0007(3) 0.21891(18) 0.14686(16)
H9 H -0.0901 0.2507 0.1256
H10 H -0.0246 0.1335 0.1001
H11 H 0.1077 0.2696 0.1355
C16 C -0.2070(3) 0.3586(2) 0.5185(2)
H12 H -0.2915 0.3690 0.4668
H13 H -0.1352 0.4396 0.5667
H14 H -0.2637 0.3100 0.5652
C17 C 0.2127(3) 0.11698(18) 0.50132(17)
H15 H 0.1818 0.1209 0.5761
H16 H 0.3321 0.1638 0.5090
H17 H 0.1933 0.0308 0.4583
C18 C 0.2067(2) -0.04608(15) 0.22794(15)
C19 C 0.0492(2) -0.14152(15) 0.17966(15)
C20 C 0.0411(3) -0.26725(16) 0.15479(16)
H18 H -0.0633 -0.3293 0.1208
C21 C 0.1829(3) -0.30305(16) 0.17895(16)
C22 C 0.3360(3) -0.20866(17) 0.23079(17)
H19 H 0.4320 -0.2308 0.2501
C23 C 0.3511(2) -0.08169(15) 0.25506(16)
C24 C 0.5241(3) 0.01326(18) 0.3131(2)
H20 H 0.5075 0.0853 0.3653
H21 H 0.5877 0.0389 0.2561
H22 H 0.5869 -0.0241 0.3547
C25 C 0.1693(3) -0.44092(18) 0.1520(2)
H23 H 0.0841 -0.4889 0.0852
H24 H 0.1367 -0.4702 0.2161
H25 H 0.2786 -0.4509 0.1376
C26 C -0.1147(2) -0.11399(18) 0.15119(19)
H26 H -0.1022 -0.0718 0.0931
H27 H -0.1382 -0.0611 0.2189
H28 H -0.2082 -0.1915 0.1234
loop_
_geom_bond_atom_site_label_1
_geom_bond_atom_site_label_2
_geom_bond_site_symmetry_1
_geom_bond_site_symmetry_2
N1 B1 1_555 1_555
B1 C9 1_555 1_555
C1 N1 1_555 1_555
H1 C1 1_555 1_555
C2 C1 1_555 1_555
H2 C2 1_555 1_555
C3 H3 1_555 1_555
C4 C3 1_555 1_555
H4 C4 1_555 1_555
C5 C4 1_555 1_555
H5 C5 1_555 1_555
C6 C5 1_555 1_555
H6 C6 1_555 1_555
C7 N1 1_555 1_555
C8 C2 1_555 1_555
C9 C10 1_555 1_555
C10 C11 1_555 1_555
C11 H7 1_555 1_555
C12 C11 1_555 1_555
C13 C12 1_555 1_555
H8 C13 1_555 1_555
C14 C9 1_555 1_555
C15 C14 1_555 1_555
H9 C15 1_555 1_555
H10 C15 1_555 1_555
H11 C15 1_555 1_555
C16 C12 1_555 1_555
H12 C16 1_555 1_555
H13 C16 1_555 1_555
H14 C16 1_555 1_555
C17 C10 1_555 1_555
H15 C17 1_555 1_555
H16 C17 1_555 1_555
H17 C17 1_555 1_555
C18 B1 1_555 1_555
C19 C18 1_555 1_555
C20 C19 1_555 1_555
H18 C20 1_555 1_555
C21 C20 1_555 1_555
C22 C21 1_555 1_555
H19 C22 1_555 1_555
C23 C18 1_555 1_555
C24 C23 1_555 1_555
H20 C24 1_555 1_555
H21 C24 1_555 1_555
H22 C24 1_555 1_555
C25 C21 1_555 1_555
H23 C25 1_555 1_555
H24 C25 1_555 1_555
H25 C25 1_555 1_555
C26 C19 1_555 1_555
H26 C26 1_555 1_555
H27 C26 1_555 1_555
H28 C26 1_555 1_555
C3 C8 1_555 1_555
C6 C7 1_555 1_555
C7 C8 1_555 1_555
C13 C14 1_555 1_555
C22 C23 1_555 1_555

#END
