
#######################################################################
#
#                 Cambridge Crystallographic Data Centre
#                                CCDC 
#
#######################################################################
#
# If this CIF has been generated from an entry in the Cambridge 
# Structural Database, then it will include bibliographic, chemical, 
# crystal, experimental, refinement or atomic coordinate data resulting 
# from the CCDC's data processing and validation procedures.
#
#######################################################################

data_WIXMUN
_chemical_formula_moiety         'C12 H24 N2 O7 P2'
_chemical_name_systematic        
'Hydrogen (1-hydroxy-1-phosphono-6-(2-propyl-1H-imidazol-3-ium-1-yl)hexyl)phosphonate'
_symmetry_cell_setting           monoclinic
_symmetry_space_group_name_H-M   'P 21/n'
_symmetry_Int_Tables_number      14
_space_group_name_Hall           '-P 2yn'
loop_
_symmetry_equiv_pos_site_id
_symmetry_equiv_pos_as_xyz
1 x,y,z
2 1/2-x,1/2+y,1/2-z
3 -x,-y,-z
4 1/2+x,1/2-y,1/2+z
_cell_length_a                   9.160(3)
_cell_length_b                   20.090(6)
_cell_length_c                   10.073(3)
_cell_angle_alpha                90
_cell_angle_beta                 115.801(2)
_cell_angle_gamma                90
_cell_volume                     1668.89
_exptl_crystal_colour            colorless
_exptl_crystal_description       Platelet
_cell_formula_units_Z            4
loop_
_atom_site_label
_atom_site_type_symbol
_atom_site_fract_x
_atom_site_fract_y
_atom_site_fract_z
P1 P 0.26142(5) 0.56809(2) 0.55694(5)
P2 P 0.50531(5) 0.47907(2) 0.79158(4)
O1 O 0.29506(14) 0.61899(6) 0.68641(13)
H1 H 0.3827 0.6091 0.7588
O2 O 0.40010(14) 0.58124(6) 0.51091(13)
H2 H 0.3767 0.5636 0.4285
O3 O 0.09550(14) 0.57529(6) 0.43813(14)
O4 O 0.54491(14) 0.54518(6) 0.87553(13)
O5 O 0.62236(14) 0.46049(6) 0.73083(13)
O6 O 0.50249(14) 0.42204(6) 0.89740(13)
H3 H 0.4778 0.4381 0.9619
O7 O 0.19432(13) 0.48193(6) 0.72064(13)
H4 H 0.1030 0.4668 0.6634
N1 N 0.41985(16) 0.13201(7) 0.49154(16)
N2 N 0.63812(18) 0.07382(7) 0.57443(17)
C1 C 0.4117(2) 0.08795(9) 0.59344(19)
H5 H 0.3259 0.0843 0.6219
C2 C 0.5482(2) 0.05121(9) 0.64478(19)
H6 H 0.5768 0.0165 0.7157
C3 C 0.5589(2) 0.12263(8) 0.48081(19)
C4 C 0.3032(2) 0.18604(8) 0.42108(19)
H7 H 0.1912 0.1686 0.3838
H8 H 0.3184 0.2039 0.3363
C5 C 0.3284(2) 0.24135(9) 0.53223(19)
H9 H 0.4463 0.2481 0.5915
H10 H 0.2827 0.2268 0.6003
C6 C 0.2515(2) 0.30800(8) 0.46378(19)
H11 H 0.2937 0.3227 0.3933
H12 H 0.1325 0.3028 0.4092
C7 C 0.2910(2) 0.36010(8) 0.58480(19)
H13 H 0.4074 0.3567 0.6541
H14 H 0.2274 0.3503 0.6406
C8 C 0.25478(19) 0.43123(8) 0.52576(17)
H15 H 0.1381 0.4345 0.4573
H16 H 0.3170 0.4404 0.4683
C9 C 0.29554(18) 0.48538(7) 0.64497(17)
C10 C 0.6080(5) 0.1553(2) 0.3738(3)
H17 H 0.5122 0.1576 0.2768
H18 H 0.6899 0.1269 0.3619
C11 C 0.6783(3) 0.22572(12) 0.4170(3)
H19 H 0.6919 0.2457 0.3333
H20 H 0.6002 0.2535 0.4360
C12 C 0.8401(4) 0.2266(2) 0.5523(4)
H21 H 0.8271 0.2078 0.6362
H22 H 0.8788 0.2726 0.5747
H23 H 0.9189 0.2001 0.5334
H24 H 0.736(3) 0.0579(13) 0.592(3)
C13? C 0.6507(17) 0.1634(7) 0.4209(11)
H25? H 0.5718 0.1877 0.3336
H26? H 0.7117 0.1330 0.3861
C14? C 0.7708(13) 0.2143(5) 0.5261(11)
H27? H 0.7096 0.2517 0.5416
H28? H 0.8348 0.1929 0.6228
C15? C 0.8850(10) 0.2411(4) 0.4662(11)
H29? H 0.9499 0.2045 0.4556
H30? H 0.9570 0.2744 0.5345
H31? H 0.8219 0.2617 0.3698
loop_
_geom_bond_atom_site_label_1
_geom_bond_atom_site_label_2
_geom_bond_site_symmetry_1
_geom_bond_site_symmetry_2
P1 O1 1_555 1_555
P2 O4 1_555 1_555
O1 H1 1_555 1_555
O2 P1 1_555 1_555
H2 O2 1_555 1_555
O3 P1 1_555 1_555
O5 P2 1_555 1_555
O6 P2 1_555 1_555
H3 O6 1_555 1_555
O7 H4 1_555 1_555
N1 C1 1_555 1_555
N2 C2 1_555 1_555
C1 H5 1_555 1_555
C2 C1 1_555 1_555
H6 C2 1_555 1_555
C3 N1 1_555 1_555
C4 N1 1_555 1_555
H7 C4 1_555 1_555
H8 C4 1_555 1_555
C5 C4 1_555 1_555
H9 C5 1_555 1_555
H10 C5 1_555 1_555
C6 C5 1_555 1_555
H11 C6 1_555 1_555
H12 C6 1_555 1_555
C7 C6 1_555 1_555
H13 C7 1_555 1_555
H14 C7 1_555 1_555
C8 C7 1_555 1_555
H15 C8 1_555 1_555
H16 C8 1_555 1_555
C9 P1 1_555 1_555
C10 C3 1_555 1_555
H17 C10 1_555 1_555
H18 C10 1_555 1_555
C11 C10 1_555 1_555
H19 C11 1_555 1_555
H20 C11 1_555 1_555
C12 C11 1_555 1_555
H21 C12 1_555 1_555
H22 C12 1_555 1_555
H23 C12 1_555 1_555
H24 N2 1_555 1_555
P2 C9 1_555 1_555
O7 C9 1_555 1_555
N2 C3 1_555 1_555
C8 C9 1_555 1_555

#END
