
#######################################################################
#
#                 Cambridge Crystallographic Data Centre
#                                CCDC 
#
#######################################################################
#
# If this CIF has been generated from an entry in the Cambridge 
# Structural Database, then it will include bibliographic, chemical, 
# crystal, experimental, refinement or atomic coordinate data resulting 
# from the CCDC's data processing and validation procedures.
#
#######################################################################

data_WIYBAI
_chemical_formula_moiety         'C8 H8 Br2 I2'
_chemical_name_systematic        
(1Z,2Z)-1,2-bis(Bromo(iodo)methylene)cyclohexane
_symmetry_cell_setting           monoclinic
_symmetry_space_group_name_H-M   'P 21/c'
_symmetry_Int_Tables_number      14
_space_group_name_Hall           '-P 2ybc'
loop_
_symmetry_equiv_pos_site_id
_symmetry_equiv_pos_as_xyz
1 x,y,z
2 -x,1/2+y,1/2-z
3 -x,-y,-z
4 x,1/2-y,1/2+z
_cell_length_a                   7.4210(15)
_cell_length_b                   17.437(4)
_cell_length_c                   9.0900(18)
_cell_angle_alpha                90.00
_cell_angle_beta                 98.18(3)
_cell_angle_gamma                90.00
_cell_volume                     1164.28
_cell_formula_units_Z            4
loop_
_atom_site_label
_atom_site_type_symbol
_atom_site_fract_x
_atom_site_fract_y
_atom_site_fract_z
I1 I 0.42378(17) 0.60545(7) 0.53511(13)
I2 I 0.36899(16) 0.51607(8) 0.14870(14)
Br1 Br 0.4109(2) 0.77752(9) 0.40472(19)
Br2 Br 0.0048(3) 0.42902(9) 0.2093(2)
C1 C -0.132(2) 0.7271(8) 0.2174(18)
H1 H -0.1265 0.7501 0.3152
H2 H -0.2034 0.7606 0.1462
C2 C -0.2253(18) 0.6481(9) 0.217(2)
H3 H -0.3465 0.6545 0.2432
H4 H -0.2378 0.6270 0.1171
C3 C -0.123(2) 0.5941(8) 0.3203(18)
H5 H -0.1836 0.5446 0.3135
H6 H -0.1181 0.6127 0.4214
C4 C 0.0702(17) 0.5859(7) 0.2807(13)
C5 C 0.1637(16) 0.6616(7) 0.2851(14)
C6 C 0.0628(19) 0.7184(8) 0.1767(16)
H7 H 0.0576 0.6997 0.0757
H8 H 0.1247 0.7675 0.1842
C7 C 0.1354(19) 0.5224(7) 0.2258(15)
C8 C 0.3058(16) 0.6788(7) 0.3865(14)
loop_
_geom_bond_atom_site_label_1
_geom_bond_atom_site_label_2
_geom_bond_site_symmetry_1
_geom_bond_site_symmetry_2
I1 C8 1_555 1_555
I2 C7 1_555 1_555
Br1 C8 1_555 1_555
Br2 C7 1_555 1_555
C1 H1 1_555 1_555
H2 C1 1_555 1_555
C2 C1 1_555 1_555
H3 C2 1_555 1_555
H4 C2 1_555 1_555
C3 C2 1_555 1_555
H5 C3 1_555 1_555
H6 C3 1_555 1_555
C4 C3 1_555 1_555
C5 C4 1_555 1_555
C6 C1 1_555 1_555
H7 C6 1_555 1_555
H8 C6 1_555 1_555
C7 C4 1_555 1_555
C8 C5 1_555 1_555
C5 C6 1_555 1_555

#END
