
#######################################################################
#
#                 Cambridge Crystallographic Data Centre
#                                CCDC 
#
#######################################################################
#
# If this CIF has been generated from an entry in the Cambridge 
# Structural Database, then it will include bibliographic, chemical, 
# crystal, experimental, refinement or atomic coordinate data resulting 
# from the CCDC's data processing and validation procedures.
#
#######################################################################

data_WIZXUY
_chemical_formula_moiety         'C38 H35 N1 O3'
_chemical_name_systematic        
4-(Benzylideneamino(diphenyl)methyl)-5-(diphenyl(hydroxy)methyl)-2,2-dimethyl-1,3-dioxolane
_symmetry_cell_setting           orthorhombic
_symmetry_space_group_name_H-M   'P 21 21 21'
_symmetry_Int_Tables_number      19
_space_group_name_Hall           'P 2ac 2ab'
loop_
_symmetry_equiv_pos_site_id
_symmetry_equiv_pos_as_xyz
1 x,y,z
2 1/2-x,-y,1/2+z
3 1/2+x,1/2-y,-z
4 -x,1/2+y,1/2-z
_cell_length_a                   16.792(4)
_cell_length_b                   18.484(2)
_cell_length_c                   9.874(2)
_cell_angle_alpha                90
_cell_angle_beta                 90
_cell_angle_gamma                90
_cell_volume                     3064.72
_exptl_crystal_colour            colorless
_exptl_crystal_description       prismatic
_chemical_melting_point          230-232deg.C
_cell_formula_units_Z            4
loop_
_atom_site_label
_atom_site_type_symbol
_atom_site_fract_x
_atom_site_fract_y
_atom_site_fract_z
O1 O 0.5980(1) 0.19993(9) 0.0850(2)
O2 O 0.6235(1) 0.13100(9) 0.2694(2)
O3 O 0.45474(10) 0.07765(8) -0.0688(2)
N1 N 0.4736(1) -0.00199(10) 0.1653(2)
C1 C 0.6570(2) 0.1866(1) 0.1860(3)
C2 C 0.5572(1) 0.1333(1) 0.0632(2)
C3 C 0.5524(1) 0.1041(1) 0.2100(2)
C4 C 0.7330(2) 0.1602(2) 0.1220(4)
C5 C 0.6662(3) 0.2543(2) 0.2683(4)
C6 C 0.4792(1) 0.1466(1) -0.0154(2)
C7 C 0.4124(1) 0.1790(1) 0.0719(3)
C8 C 0.4263(2) 0.2407(1) 0.1506(3)
C9 C 0.3651(2) 0.2699(2) 0.2281(4)
C10 C 0.2902(2) 0.2408(2) 0.2247(4)
C11 C 0.2760(2) 0.1811(2) 0.1467(4)
C12 C 0.3368(2) 0.1498(2) 0.0717(3)
C13 C 0.4909(1) 0.1928(1) -0.1444(2)
C14 C 0.5636(2) 0.2066(2) -0.2021(3)
C15 C 0.5691(2) 0.2426(2) -0.3253(4)
C16 C 0.5023(2) 0.2656(2) -0.3913(3)
C17 C 0.4298(2) 0.2519(2) -0.3353(3)
C18 C 0.4242(2) 0.2162(2) -0.2124(3)
C19 C 0.5478(1) 0.0213(1) 0.2354(2)
C20 C 0.6184(1) -0.0176(1) 0.1693(2)
C21 C 0.6133(2) -0.0474(1) 0.0404(3)
C22 C 0.6794(2) -0.0798(2) -0.0176(3)
C23 C 0.7503(2) -0.0840(2) 0.0492(4)
C24 C 0.7557(2) -0.0543(2) 0.1768(4)
C25 C 0.6911(2) -0.0217(1) 0.2367(3)
C26 C 0.5437(1) 0.0041(1) 0.3875(2)
C27 C 0.5480(2) -0.0679(1) 0.4266(3)
C28 C 0.5370(2) -0.0888(2) 0.5599(3)
C29 C 0.5220(2) -0.0374(2) 0.6567(3)
C30 C 0.5187(2) 0.0339(2) 0.6209(3)
C31 C 0.5296(2) 0.0547(1) 0.4867(2)
C32 C 0.4119(2) -0.0203(1) 0.2295(3)
C33 C 0.3399(2) -0.0460(1) 0.1623(3)
C34 C 0.2687(2) -0.0464(2) 0.2336(3)
C35 C 0.1993(2) -0.0694(2) 0.1753(5)
C36 C 0.1998(2) -0.0938(2) 0.0451(5)
C37 C 0.2697(2) -0.0956(2) -0.0275(4)
C38 C 0.3402(2) -0.0709(2) 0.0295(3)
H1 H 0.5905 0.1026 0.0052
H2 H 0.5063 0.1265 0.2509
H3 H 0.7194 0.1156 0.0641
H4 H 0.7699 0.1493 0.1895
H5 H 0.7559 0.1959 0.0631
H6 H 0.7016 0.2475 0.3367
H7 H 0.6803 0.2923 0.2184
H8 H 0.6068 0.2729 0.3081
H9 H 0.4802 0.2597 0.1467
H10 H 0.3723 0.3115 0.2905
H11 H 0.2452 0.2617 0.2794
H12 H 0.2205 0.1591 0.1359
H13 H 0.3275 0.1085 0.0211
H14 H 0.6136 0.1904 -0.1544
H15 H 0.6198 0.2521 -0.3635
H16 H 0.5073 0.2878 -0.4856
H17 H 0.3813 0.2658 -0.3806
H18 H 0.3707 0.2089 -0.1722
H19 H 0.5641 -0.0404 -0.0122
H20 H 0.6702 -0.0996 -0.0979
H21 H 0.7949 -0.1024 0.0111
H22 H 0.8053 -0.0553 0.2255
H23 H 0.6947 0.0023 0.3259
H24 H 0.5605 -0.0979 0.3577
H25 H 0.5382 -0.1420 0.5880
H26 H 0.5132 -0.0533 0.7517
H27 H 0.5113 0.0703 0.6901
H28 H 0.5265 0.1040 0.4645
H29 H 0.4086 -0.0187 0.3302
H30 H 0.2754 -0.0250 0.3347
H31 H 0.1457 -0.0643 0.2181
H32 H 0.1483 -0.1068 -0.0047
H33 H 0.2725 -0.1073 -0.1221
H34 H 0.3928 -0.0746 -0.0229
H35 H 0.4530 0.0448 0.0015
loop_
_geom_bond_atom_site_label_1
_geom_bond_atom_site_label_2
_geom_bond_site_symmetry_1
_geom_bond_site_symmetry_2
O1 C1 1_555 1_555
O2 C1 1_555 1_555
O3 C6 1_555 1_555
N1 C19 1_555 1_555
C1 C4 1_555 1_555
C2 O1 1_555 1_555
C3 O2 1_555 1_555
C4 H3 1_555 1_555
C5 C1 1_555 1_555
C6 C2 1_555 1_555
C7 C6 1_555 1_555
C8 C7 1_555 1_555
C9 C8 1_555 1_555
C10 C9 1_555 1_555
C11 C10 1_555 1_555
C12 C7 1_555 1_555
C13 C6 1_555 1_555
C14 C13 1_555 1_555
C15 C14 1_555 1_555
C16 C15 1_555 1_555
C17 C16 1_555 1_555
C18 C13 1_555 1_555
C19 C3 1_555 1_555
C20 C19 1_555 1_555
C21 C20 1_555 1_555
C22 C21 1_555 1_555
C23 C22 1_555 1_555
C24 C23 1_555 1_555
C25 C20 1_555 1_555
C26 C19 1_555 1_555
C27 C26 1_555 1_555
C28 C27 1_555 1_555
C29 C28 1_555 1_555
C30 C29 1_555 1_555
C31 C26 1_555 1_555
C32 N1 1_555 1_555
C33 C32 1_555 1_555
C34 C33 1_555 1_555
C35 C34 1_555 1_555
C36 C35 1_555 1_555
C37 C36 1_555 1_555
C38 C33 1_555 1_555
H1 C2 1_555 1_555
H2 C3 1_555 1_555
H4 C4 1_555 1_555
H5 C4 1_555 1_555
H6 C5 1_555 1_555
H7 C5 1_555 1_555
H8 C5 1_555 1_555
H9 C8 1_555 1_555
H10 C9 1_555 1_555
H11 C10 1_555 1_555
H12 C11 1_555 1_555
H13 C12 1_555 1_555
H14 C14 1_555 1_555
H15 C15 1_555 1_555
H16 C16 1_555 1_555
H17 C17 1_555 1_555
H18 C18 1_555 1_555
H19 C21 1_555 1_555
H20 C22 1_555 1_555
H21 C23 1_555 1_555
H22 C24 1_555 1_555
H23 C25 1_555 1_555
H24 C27 1_555 1_555
H25 C28 1_555 1_555
H26 C29 1_555 1_555
H27 C30 1_555 1_555
H28 C31 1_555 1_555
H29 C32 1_555 1_555
H30 C34 1_555 1_555
H31 C35 1_555 1_555
H32 C36 1_555 1_555
H33 C37 1_555 1_555
H34 C38 1_555 1_555
H35 O3 1_555 1_555
C2 C3 1_555 1_555
C11 C12 1_555 1_555
C17 C18 1_555 1_555
C24 C25 1_555 1_555
C30 C31 1_555 1_555
C37 C38 1_555 1_555

#END
