
#######################################################################
#
#                 Cambridge Crystallographic Data Centre
#                                CCDC 
#
#######################################################################
#
# If this CIF has been generated from an entry in the Cambridge 
# Structural Database, then it will include bibliographic, chemical, 
# crystal, experimental, refinement or atomic coordinate data resulting 
# from the CCDC's data processing and validation procedures.
#
#######################################################################

data_WOBDUN
_chemical_formula_moiety         'C24 H39 N3 O3'
_chemical_name_systematic        
2,4,6-Trimethyl-1,3,5-tris(morpholinomethyl)benzene
_symmetry_cell_setting           monoclinic
_symmetry_space_group_name_H-M   'P 21/c'
_symmetry_Int_Tables_number      14
_space_group_name_Hall           '-P 2ybc'
loop_
_symmetry_equiv_pos_site_id
_symmetry_equiv_pos_as_xyz
1 x,y,z
2 -x,1/2+y,1/2-z
3 -x,-y,-z
4 x,1/2-y,1/2+z
_cell_length_a                   11.0139(10)
_cell_length_b                   24.131(2)
_cell_length_c                   9.2941(8)
_cell_angle_alpha                90
_cell_angle_beta                 108.2330(10)
_cell_angle_gamma                90
_cell_volume                     2346.13
_exptl_crystal_colour            colorless
_exptl_crystal_description       block
_chemical_melting_point          '410-412 K'
_cell_formula_units_Z            4
_exptl_crystal_recrystallization_method 'dichloromethane/petroleum ether'
loop_
_atom_site_label
_atom_site_type_symbol
_atom_site_fract_x
_atom_site_fract_y
_atom_site_fract_z
O1 O -0.47311(11) 0.13824(5) 0.54089(16)
O2 O 0.46925(15) 0.21500(6) 1.12778(16)
O3 O 0.11437(19) -0.24231(5) 0.84017(19)
N1 N -0.25289(11) 0.07200(5) 0.56752(14)
N2 N 0.33067(12) 0.13735(5) 0.90381(14)
N3 N 0.06308(13) -0.12834(5) 0.87425(15)
C1 C -0.02514(13) 0.03908(6) 0.65905(15)
C2 C 0.08664(13) 0.07108(5) 0.69121(16)
C3 C 0.19919(13) 0.05277(5) 0.80117(16)
C4 C 0.19841(13) 0.00444(5) 0.88471(16)
C5 C 0.08374(13) -0.02549(5) 0.85949(16)
C6 C -0.02704(13) -0.00860(6) 0.74496(16)
C7 C -0.14249(14) 0.05271(6) 0.52502(16)
H1 H -0.1197 0.0811 0.4642
H2 H -0.1671 0.0199 0.4624
C8 C 0.08791(17) 0.12500(7) 0.6081(2)
H3 H 0.1715 0.1413 0.6443
H4 H 0.0264 0.1500 0.6259
H5 H 0.0666 0.1178 0.5015
C9 C 0.32124(14) 0.08548(6) 0.81870(18)
H9 H 0.3940 0.0623 0.8696
H10 H 0.3263 0.0940 0.7187
C10 C 0.32062(15) -0.01643(7) 0.9995(2)
H11 H 0.3029 -0.0497 1.0460
H12 H 0.3533 0.0113 1.0759
H13 H 0.3829 -0.0241 0.9494
C11 C 0.07458(16) -0.07542(6) 0.95527(18)
H17 H 0.1501 -0.0766 1.0437
H18 H 0.0009 -0.0709 0.9903
C12 C -0.14914(15) -0.04149(6) 0.7153(2)
H19 H -0.1345 -0.0726 0.7831
H20 H -0.1761 -0.0545 0.6126
H21 H -0.2145 -0.0183 0.7315
C13 C -0.37183(15) 0.06447(7) 0.4433(2)
H25 H -0.3815 0.0259 0.4127
H26 H -0.3700 0.0866 0.3569
C14 C -0.48270(17) 0.08214(8) 0.4958(3)
H27 H -0.5620 0.0766 0.4142
H28 H -0.4852 0.0590 0.5803
C15 C -0.35579(17) 0.14720(8) 0.6582(2)
H29 H -0.3560 0.1262 0.7471
H30 H -0.3483 0.1862 0.6854
C16 C -0.24239(15) 0.13020(6) 0.61083(19)
H31 H -0.2385 0.1528 0.5260
H32 H -0.1643 0.1361 0.6940
C17 C 0.43157(18) 0.17266(7) 0.8820(2)
H33 H 0.4125 0.1811 0.7752
H34 H 0.5125 0.1530 0.9151
C18 C 0.4424(2) 0.22552(8) 0.9701(2)
H35 H 0.5100 0.2481 0.9546
H36 H 0.3629 0.2460 0.9329
C19 C 0.3719(2) 0.18151(8) 1.1505(2)
H37 H 0.2914 0.2014 1.1171
H38 H 0.3913 0.1739 1.2577
C20 C 0.35830(18) 0.12758(7) 1.06520(19)
H39 H 0.4368 0.1065 1.1029
H40 H 0.2898 0.1060 1.0822
C21 C 0.18365(18) -0.14662(7) 0.8563(2)
H41 H 0.2464 -0.1519 0.9552
H42 H 0.2156 -0.1184 0.8030
C22 C 0.1652(2) -0.20017(8) 0.7689(3)
H43 H 0.1076 -0.1940 0.6674
H44 H 0.2466 -0.2123 0.7606
C23 C -0.0016(3) -0.22429(8) 0.8599(3)
H45 H -0.0344 -0.2532 0.9103
H46 H -0.0641 -0.2179 0.7615
C24 C 0.0157(2) -0.17187(7) 0.9519(3)
H47 H -0.0652 -0.1607 0.9638
H48 H 0.0762 -0.1781 1.0518
H6? H 0.0048 0.1315 0.5368
H7? H 0.1499 0.1227 0.5552
H8? H 0.1098 0.1549 0.6796
H14? H 0.3898 0.0081 1.0015
H15? H 0.3394 -0.0530 0.9716
H16? H 0.3099 -0.0176 1.0981
H22? H -0.2155 -0.0243 0.6350
H23? H -0.1739 -0.0424 0.8055
H24? H -0.1355 -0.0786 0.6866
loop_
_geom_bond_atom_site_label_1
_geom_bond_atom_site_label_2
_geom_bond_site_symmetry_1
_geom_bond_site_symmetry_2
O1 C14 1_555 1_555
O2 C18 1_555 1_555
O3 C22 1_555 1_555
N1 C7 1_555 1_555
N2 C9 1_555 1_555
N3 C11 1_555 1_555
C1 C2 1_555 1_555
C2 C3 1_555 1_555
C3 C4 1_555 1_555
C4 C5 1_555 1_555
C5 C6 1_555 1_555
C6 C1 1_555 1_555
C7 C1 1_555 1_555
H1 C7 1_555 1_555
H2 C7 1_555 1_555
C8 C2 1_555 1_555
H3 C8 1_555 1_555
H4 C8 1_555 1_555
H5 C8 1_555 1_555
C9 C3 1_555 1_555
H9 C9 1_555 1_555
H10 C9 1_555 1_555
C10 C4 1_555 1_555
H11 C10 1_555 1_555
H12 C10 1_555 1_555
H13 C10 1_555 1_555
C11 C5 1_555 1_555
H17 C11 1_555 1_555
H18 C11 1_555 1_555
C12 C6 1_555 1_555
H19 C12 1_555 1_555
H20 C12 1_555 1_555
H21 C12 1_555 1_555
C13 N1 1_555 1_555
H25 C13 1_555 1_555
H26 C13 1_555 1_555
C14 C13 1_555 1_555
H27 C14 1_555 1_555
H28 C14 1_555 1_555
C15 O1 1_555 1_555
H29 C15 1_555 1_555
H30 C15 1_555 1_555
C16 N1 1_555 1_555
H31 C16 1_555 1_555
H32 C16 1_555 1_555
C17 N2 1_555 1_555
H33 C17 1_555 1_555
H34 C17 1_555 1_555
C18 C17 1_555 1_555
H35 C18 1_555 1_555
H36 C18 1_555 1_555
C19 O2 1_555 1_555
H37 C19 1_555 1_555
H38 C19 1_555 1_555
C20 N2 1_555 1_555
H39 C20 1_555 1_555
H40 C20 1_555 1_555
C21 N3 1_555 1_555
H41 C21 1_555 1_555
H42 C21 1_555 1_555
C22 C21 1_555 1_555
H43 C22 1_555 1_555
H44 C22 1_555 1_555
C23 O3 1_555 1_555
H45 C23 1_555 1_555
H46 C23 1_555 1_555
C24 N3 1_555 1_555
H47 C24 1_555 1_555
H48 C24 1_555 1_555
C15 C16 1_555 1_555
C19 C20 1_555 1_555
C23 C24 1_555 1_555

#END
