
#######################################################################
#
#                 Cambridge Crystallographic Data Centre
#                                CCDC 
#
#######################################################################
#
# If this CIF has been generated from an entry in the Cambridge 
# Structural Database, then it will include bibliographic, chemical, 
# crystal, experimental, refinement or atomic coordinate data resulting 
# from the CCDC's data processing and validation procedures.
#
#######################################################################

data_WOCQUA
_chemical_name_common            
t-butyloxycarbonyl-alpha-aminoisobutyryl-beta-alanyl-N,(N,N'-dicyclohexyl)-urea
_chemical_formula_moiety         'C25 H44 N4 O5'
_chemical_name_systematic        
"t-butyl N-(2-(N-(N,N'-dicyclohexylureidocarbonylethyl)carbamoyl)prop-2-yl)carbamate"
_symmetry_cell_setting           triclinic
_symmetry_space_group_name_H-M   'P -1'
_symmetry_Int_Tables_number      2
_space_group_name_Hall           '-P 1'
loop_
_symmetry_equiv_pos_site_id
_symmetry_equiv_pos_as_xyz
1 x,y,z
2 -x,-y,-z
_cell_length_a                   9.9960(10)
_cell_length_b                   10.933(2)
_cell_length_c                   14.385(3)
_cell_angle_alpha                78.13(2)
_cell_angle_beta                 83.740(10)
_cell_angle_gamma                65.590(10)
_cell_volume                     1400.44
_exptl_crystal_colour            colorless
_exptl_crystal_description       plate
_cell_formula_units_Z            2
_exptl_crystal_recrystallization_method water/methanol
loop_
_atom_site_label
_atom_site_type_symbol
_atom_site_fract_x
_atom_site_fract_y
_atom_site_fract_z
O1 O 1.04496(11) 0.16427(11) 0.24617(9)
O2 O 0.94105(11) 0.01037(11) 0.28966(9)
O3 O 1.07630(13) -0.33244(12) 0.27277(9)
O4 O 0.79771(13) 0.05107(13) 0.02207(9)
O5 O 0.47435(12) -0.02808(13) 0.23157(9)
N1 N 1.18204(13) -0.05515(13) 0.24752(10)
N2 N 1.08261(14) -0.18473(14) 0.14016(10)
N3 N 0.63687(12) 0.05533(12) 0.14459(9)
N4 N 0.67498(13) -0.04871(13) 0.30272(9)
C1 C 0.91015(17) 0.28271(15) 0.25973(12)
C2 C 1.04679(15) 0.03806(15) 0.26366(11)
C3 C 1.21767(15) -0.20094(15) 0.27738(12)
C4 C 1.11566(15) -0.24329(14) 0.23074(11)
C5 C 0.99364(18) -0.22043(19) 0.08738(14)
C6 C 0.83328(18) -0.16419(17) 0.11838(14)
C7 C 0.75842(15) -0.01157(16) 0.09226(11)
C8 C 0.58792(15) -0.01236(14) 0.22906(11)
C9 C 0.9567(3) 0.4003(2) 0.2323(2)
C10 C 0.7939(3) 0.2974(2) 0.1939(2)
C11 C 1.2091(3) -0.2385(3) 0.38450(15)
C12 C 1.37347(19) -0.2783(2) 0.2400(2)
C13 C 0.53840(15) 0.19595(14) 0.10291(10)
C14 C 0.45236(18) 0.19894(16) 0.02082(12)
C15 C 0.3702(2) 0.34637(17) -0.02676(14)
C16 C 0.2677(3) 0.4297(2) 0.04354(16)
C17 C 0.3479(3) 0.42160(19) 0.12907(17)
C18 C 0.4351(2) 0.27438(18) 0.17612(13)
C19 C 0.65535(16) -0.13259(16) 0.39191(11)
C20 C 0.7236(2) -0.28297(19) 0.38511(14)
C21 C 0.7050(4) -0.3687(3) 0.47946(18)
C22 C 0.7701(3) -0.3432(2) 0.56020(17)
C23 C 0.7042(3) -0.1936(2) 0.56670(14)
C24 C 0.7207(2) -0.1063(2) 0.47236(13)
H1 H 0.8302 0.3053 0.1294
H2 H 0.7069 0.3775 0.2010
H3 H 0.7707 0.2185 0.2098
C25 C 0.8604(4) 0.2695(3) 0.3624(2)
H4 H 0.6062(17) 0.2402(16) 0.0774(11)
H5 H 0.521(2) 0.1435(19) -0.0272(13)
H6 H 0.379(2) 0.1576(18) 0.0475(12)
H7 H 0.317(2) 0.356(2) -0.0842(16)
H8 H 0.753(2) -0.0263(18) 0.2942(12)
H9 H 1.025(2) -0.321(2) 0.0960(14)
H10 H 0.444(2) 0.385(2) -0.0504(14)
H11 H 0.4950(18) 0.2693(17) 0.2283(12)
H12 H 0.826(2) -0.125(2) 0.4533(14)
H13 H 0.415(3) 0.466(2) 0.1113(16)
H14 H 0.369(2) 0.2295(19) 0.2019(13)
H15 H 1.254(2) -0.0274(19) 0.2369(13)
H16 H 0.677(2) -0.297(2) 0.3289(16)
H17 H 1.227(3) -0.342(3) 0.4034(18)
H18 H 1.006(2) -0.184(2) 0.0205(16)
H19 H 0.823(2) -0.196(2) 0.1862(16)
H20 H 1.116(2) -0.123(2) 0.1129(14)
H21 H 0.877(3) 0.492(3) 0.2398(17)
H22 H 0.550(2) -0.1062(17) 0.4024(12)
H23 H 1.035(3) 0.387(3) 0.2679(19)
H24 H 0.280(3) 0.467(3) 0.1762(18)
H25 H 0.677(2) -0.009(2) 0.4744(15)
H26 H 1.401(3) -0.382(3) 0.2590(16)
H27 H 0.830(3) -0.305(2) 0.3713(16)
H28 H 0.751(3) -0.178(2) 0.6179(17)
H29 H 0.778(3) -0.195(2) 0.0840(16)
H30 H 0.218(3) 0.531(3) 0.0144(18)
H31 H 0.754(3) -0.399(3) 0.621(2)
H32 H 0.757(3) -0.460(3) 0.475(2)
H33 H 1.277(3) -0.210(3) 0.4139(18)
H34 H 0.883(3) -0.374(3) 0.5458(19)
H35 H 0.595(3) -0.346(3) 0.4952(18)
H36 H 0.190(3) 0.397(3) 0.0674(18)
H37 H 0.597(3) -0.171(2) 0.5825(17)
H38 H 1.441(3) -0.261(2) 0.2705(16)
H39 H 0.979(3) 0.407(3) 0.163(2)
H40 H 1.378(3) -0.256(3) 0.1758(19)
H41 H 1.114(3) -0.194(3) 0.4073(18)
H42 H 0.828(3) 0.194(3) 0.3800(19)
H43 H 0.777(3) 0.358(3) 0.3708(19)
H44 H 0.937(5) 0.240(4) 0.404(3)
loop_
_geom_bond_atom_site_label_1
_geom_bond_atom_site_label_2
_geom_bond_site_symmetry_1
_geom_bond_site_symmetry_2
O1 C1 1_555 1_555
O2 C2 1_555 1_555
O3 C4 1_555 1_555
O4 C7 1_555 1_555
O5 C8 1_555 1_555
N1 C2 1_555 1_555
N2 C4 1_555 1_555
N3 C7 1_555 1_555
N4 C8 1_555 1_555
C1 C9 1_555 1_555
C2 O1 1_555 1_555
C3 N1 1_555 1_555
C4 C3 1_555 1_555
C5 N2 1_555 1_555
C6 C5 1_555 1_555
C7 C6 1_555 1_555
C8 N3 1_555 1_555
C9 H21 1_555 1_555
C10 C1 1_555 1_555
C11 C3 1_555 1_555
C12 C3 1_555 1_555
C13 N3 1_555 1_555
C14 C13 1_555 1_555
C15 C14 1_555 1_555
C16 C15 1_555 1_555
C17 C16 1_555 1_555
C18 C13 1_555 1_555
C19 N4 1_555 1_555
C20 C19 1_555 1_555
C21 C20 1_555 1_555
C22 C21 1_555 1_555
C23 C22 1_555 1_555
C24 C19 1_555 1_555
H1 C10 1_555 1_555
H2 C10 1_555 1_555
H3 C10 1_555 1_555
C25 C1 1_555 1_555
H4 C13 1_555 1_555
H5 C14 1_555 1_555
H6 C14 1_555 1_555
H7 C15 1_555 1_555
H8 N4 1_555 1_555
H9 C5 1_555 1_555
H10 C15 1_555 1_555
H11 C18 1_555 1_555
H12 C24 1_555 1_555
H13 C17 1_555 1_555
H14 C18 1_555 1_555
H15 N1 1_555 1_555
H16 C20 1_555 1_555
H17 C11 1_555 1_555
H18 C5 1_555 1_555
H19 C6 1_555 1_555
H20 N2 1_555 1_555
H22 C19 1_555 1_555
H23 C9 1_555 1_555
H24 C17 1_555 1_555
H25 C24 1_555 1_555
H26 C12 1_555 1_555
H27 C20 1_555 1_555
H28 C23 1_555 1_555
H29 C6 1_555 1_555
H30 C16 1_555 1_555
H31 C22 1_555 1_555
H32 C21 1_555 1_555
H33 C11 1_555 1_555
H34 C22 1_555 1_555
H35 C21 1_555 1_555
H36 C16 1_555 1_555
H37 C23 1_555 1_555
H38 C12 1_555 1_555
H39 C9 1_555 1_555
H40 C12 1_555 1_555
H41 C11 1_555 1_555
H42 C25 1_555 1_555
H43 C25 1_555 1_555
H44 C25 1_555 1_555
C17 C18 1_555 1_555
C23 C24 1_555 1_555

#END
