
#######################################################################
#
#                 Cambridge Crystallographic Data Centre
#                                CCDC 
#
#######################################################################
#
# If this CIF has been generated from an entry in the Cambridge 
# Structural Database, then it will include bibliographic, chemical, 
# crystal, experimental, refinement or atomic coordinate data resulting 
# from the CCDC's data processing and validation procedures.
#
#######################################################################

data_WODBEY
_chemical_formula_moiety         'C34 H54 B1 Li1 O2 P2,2(C7 H8)'
_chemical_name_systematic        
'(bis((2,5-dimethylphospholan-1-yl)methyl)(diphenyl)borate)-bis(tetrahydrofuran)-lithium toluene solvate'
_symmetry_cell_setting           trigonal
_symmetry_space_group_name_H-M   'P 31'
_symmetry_Int_Tables_number      144
_space_group_name_Hall           'P 31'
loop_
_symmetry_equiv_pos_site_id
_symmetry_equiv_pos_as_xyz
1 x,y,z
2 -y,x-y,1/3+z
3 -x+y,-x,2/3+z
_cell_length_a                   18.2343(4)
_cell_length_b                   18.2343(4)
_cell_length_c                   11.9109(2)
_cell_angle_alpha                90
_cell_angle_beta                 90
_cell_angle_gamma                120
_cell_volume                     3429.68
_exptl_crystal_colour            colorless
_exptl_crystal_description       prismatic
_cell_formula_units_Z            3
loop_
_atom_site_label
_atom_site_type_symbol
_atom_site_fract_x
_atom_site_fract_y
_atom_site_fract_z
P1 P 0.55804(5) 0.43955(5) 0.19325(6)
P2 P 0.49928(4) 0.60713(4) 0.20099(6)
O1 O 0.46671(16) 0.49451(15) 0.4682(2)
O2 O 0.65180(16) 0.58468(16) 0.4276(2)
B1 B 0.52544(18) 0.52601(18) -0.0012(3)
Li1 Li 0.5457(3) 0.5309(3) 0.3462(4)
C1 C 0.3940(3) 0.2951(3) 0.1849(4)
H1 H 0.3578 0.2381 0.1544
H2 H 0.3704 0.3312 0.1649
H3 H 0.3966 0.2919 0.2668
C2 C 0.4824(3) 0.3321(2) 0.1365(3)
H4 H 0.4787 0.3370 0.0533
C3 C 0.5248(4) 0.2784(3) 0.1602(4)
H5 H 0.5122 0.2562 0.2379
H6 H 0.5027 0.2299 0.1078
C4 C 0.6191(3) 0.3343(3) 0.1447(3)
H7 H 0.6328 0.3492 0.0645
H8 H 0.6492 0.3049 0.1708
C5 C 0.6452(3) 0.4140(3) 0.2147(3)
H9 H 0.6440 0.3983 0.2954
C6 C 0.7342(3) 0.4859(4) 0.1888(3)
H10 H 0.7753 0.4677 0.2058
H11 H 0.7465 0.5353 0.2348
H12 H 0.7381 0.5008 0.1092
C7 C 0.59389(17) 0.51028(18) 0.0719(2)
H13 H 0.6390 0.5663 0.0984
H14 H 0.6207 0.4888 0.0191
C8 C 0.47464(17) 0.44653(17) -0.0888(2)
C9 C 0.52062(19) 0.4290(2) -0.1687(3)
H15 H 0.5805 0.4641 -0.1704
C10 C 0.4829(2) 0.3633(2) -0.2447(3)
H16 H 0.5168 0.3535 -0.2963
C11 C 0.3968(2) 0.3121(2) -0.2461(3)
H17 H 0.3706 0.2666 -0.2980
C12 C 0.3484(2) 0.3277(2) -0.1711(3)
H18 H 0.2885 0.2931 -0.1719
C13 C 0.38738(18) 0.39417(18) -0.0939(2)
H19 H 0.3529 0.4038 -0.0432
C14 C 0.57927(18) 0.60973(17) -0.0819(2)
C15 C 0.6673(2) 0.6535(2) -0.0933(3)
H20 H 0.6994 0.6356 -0.0503
C16 C 0.7095(3) 0.7219(3) -0.1649(3)
H21 H 0.7695 0.7498 -0.1702
C17 C 0.6662(3) 0.7496(2) -0.2274(3)
H22 H 0.6956 0.7970 -0.2757
C18 C 0.5789(3) 0.7081(2) -0.2204(3)
H23 H 0.5477 0.7267 -0.2642
C19 C 0.5369(2) 0.6394(2) -0.1492(3)
H24 H 0.4769 0.6113 -0.1459
C20 C 0.45768(16) 0.53683(16) 0.0788(2)
H25 H 0.4151 0.4799 0.1061
H26 H 0.4274 0.5575 0.0309
C21 C 0.6522(2) 0.7631(2) 0.1638(4)
H27 H 0.6780 0.8207 0.1337
H28 H 0.6772 0.7327 0.1269
H29 H 0.6626 0.7655 0.2448
C22 C 0.5575(2) 0.71716(17) 0.1421(3)
H30 H 0.5487 0.7129 0.0590
C23 C 0.5122(2) 0.7621(2) 0.1904(3)
H31 H 0.5329 0.7828 0.2673
H32 H 0.5234 0.8112 0.1429
C24 C 0.4184(2) 0.6985(2) 0.1927(3)
H33 H 0.3957 0.6846 0.1153
H34 H 0.3875 0.7219 0.2340
C25 C 0.4082(2) 0.61995(19) 0.2514(3)
H35 H 0.4173 0.6333 0.3334
C26 C 0.3212(2) 0.5427(2) 0.2390(4)
H36 H 0.2783 0.5559 0.2663
H37 H 0.3183 0.4959 0.2829
H38 H 0.3106 0.5264 0.1597
C27 C 0.4770(3) 0.5550(3) 0.5546(4)
H39 H 0.5128 0.6140 0.5282
H40 H 0.5019 0.5464 0.6237
C28 C 0.3807(6) 0.5326(5) 0.5744(8)
H41 H 0.3728 0.5495 0.6504
H42 H 0.3628 0.5600 0.5176
C29 C 0.3364(3) 0.4432(4) 0.5618(5)
H43 H 0.2787 0.4236 0.5327
H44 H 0.3315 0.4157 0.6352
C30 C 0.3851(2) 0.4207(2) 0.4809(3)
H45 H 0.3907 0.3730 0.5104
H46 H 0.3555 0.4038 0.4076
C31 C 0.6729(3) 0.5397(3) 0.5079(4)
H47 H 0.6978 0.5089 0.4700
H48 H 0.6219 0.4984 0.5496
C32 C 0.7363(3) 0.6059(3) 0.5863(4)
H49 H 0.7813 0.5929 0.6066
H50 H 0.7084 0.6092 0.6559
C33 C 0.7725(3) 0.6876(3) 0.5206(4)
H51 H 0.8346 0.7141 0.5126
H52 H 0.7592 0.7283 0.5575
C34 C 0.7278(6) 0.6591(5) 0.4050(7)
H53 H 0.7168 0.7029 0.3731
H54 H 0.7628 0.6483 0.3515
C37 C 0.2124(2) 0.1312(3) -0.4814(4)
C38 C 0.1758(3) 0.0696(2) -0.4006(4)
H65 H 0.1806 0.0202 -0.4060
C39 C 0.1318(3) 0.0782(3) -0.3108(4)
H66 H 0.1078 0.0352 -0.2552
C40 C 0.1230(3) 0.1477(3) -0.3019(4)
H67 H 0.0926 0.1533 -0.2408
C41 C 0.1590(3) 0.2108(3) -0.3837(4)
H68 H 0.1532 0.2596 -0.3786
C42 C 0.2026(3) 0.2022(3) -0.4712(4)
H69 H 0.2268 0.2455 -0.5264
C43 C 0.2619(3) 0.1244(4) -0.5758(5)
H70 H 0.3177 0.1369 -0.5486
H71 H 0.2689 0.1650 -0.6347
H72 H 0.2318 0.0669 -0.6065
C44 C 0.1559(2) 0.2222(2) 0.1401(4)
C45 C 0.1201(3) 0.1698(3) 0.2316(4)
H73 H 0.1117 0.1925 0.2990
C46 C 0.0962(3) 0.0855(3) 0.2273(4)
H74 H 0.0706 0.0507 0.2911
C47 C 0.1087(3) 0.0512(3) 0.1325(5)
H75 H 0.0938 -0.0067 0.1305
C48 C 0.1431(3) 0.1018(3) 0.0403(5)
H76 H 0.1505 0.0786 -0.0272
C49 C 0.1674(3) 0.1876(3) 0.0450(4)
H77 H 0.1923 0.2224 -0.0191
C50 C 0.1849(3) 0.3158(3) 0.1485(5)
H78 H 0.1374 0.3229 0.1724
H79 H 0.2052 0.3425 0.0749
H80 H 0.2309 0.3425 0.2034
H55? H 0.5298 0.5720 0.5970
H56? H 0.4816 0.6063 0.5194
C35? C 0.4081(6) 0.5193(7) 0.6278(11)
H57? H 0.3905 0.5610 0.6477
H58? H 0.4224 0.4996 0.6975
H59? H 0.3012 0.3953 0.6126
H60? H 0.2996 0.4602 0.5218
H61? H 0.7901 0.7367 0.5712
H62? H 0.8216 0.6966 0.4749
C36? C 0.7031(10) 0.6749(9) 0.451(3)
H63? H 0.7246 0.7068 0.3797
H64? H 0.6687 0.6954 0.4895
loop_
_geom_bond_atom_site_label_1
_geom_bond_atom_site_label_2
_geom_bond_site_symmetry_1
_geom_bond_site_symmetry_2
P1 Li1 1_555 1_555
P2 Li1 1_555 1_555
O1 Li1 1_555 1_555
O2 Li1 1_555 1_555
B1 C7 1_555 1_555
C1 H1 1_555 1_555
H2 C1 1_555 1_555
H3 C1 1_555 1_555
C2 P1 1_555 1_555
H4 C2 1_555 1_555
C3 C2 1_555 1_555
H5 C3 1_555 1_555
H6 C3 1_555 1_555
C4 C3 1_555 1_555
H7 C4 1_555 1_555
H8 C4 1_555 1_555
C5 P1 1_555 1_555
H9 C5 1_555 1_555
C6 C5 1_555 1_555
H10 C6 1_555 1_555
H11 C6 1_555 1_555
H12 C6 1_555 1_555
C7 P1 1_555 1_555
H13 C7 1_555 1_555
H14 C7 1_555 1_555
C8 B1 1_555 1_555
C9 C8 1_555 1_555
H15 C9 1_555 1_555
C10 C9 1_555 1_555
H16 C10 1_555 1_555
C11 C10 1_555 1_555
H17 C11 1_555 1_555
C12 C11 1_555 1_555
H18 C12 1_555 1_555
C13 C8 1_555 1_555
H19 C13 1_555 1_555
C14 B1 1_555 1_555
C15 C14 1_555 1_555
H20 C15 1_555 1_555
C16 C15 1_555 1_555
H21 C16 1_555 1_555
C17 C16 1_555 1_555
H22 C17 1_555 1_555
C18 C17 1_555 1_555
H23 C18 1_555 1_555
C19 C14 1_555 1_555
H24 C19 1_555 1_555
C20 P2 1_555 1_555
H25 C20 1_555 1_555
H26 C20 1_555 1_555
C21 H27 1_555 1_555
H28 C21 1_555 1_555
H29 C21 1_555 1_555
C22 P2 1_555 1_555
H30 C22 1_555 1_555
C23 C22 1_555 1_555
H31 C23 1_555 1_555
H32 C23 1_555 1_555
C24 C23 1_555 1_555
H33 C24 1_555 1_555
H34 C24 1_555 1_555
C25 P2 1_555 1_555
H35 C25 1_555 1_555
C26 C25 1_555 1_555
H36 C26 1_555 1_555
H37 C26 1_555 1_555
H38 C26 1_555 1_555
C27 O1 1_555 1_555
H39 C27 1_555 1_555
H40 C27 1_555 1_555
C28 C27 1_555 1_555
H41 C28 1_555 1_555
H42 C28 1_555 1_555
C29 C28 1_555 1_555
H43 C29 1_555 1_555
H44 C29 1_555 1_555
C30 O1 1_555 1_555
H45 C30 1_555 1_555
H46 C30 1_555 1_555
C31 O2 1_555 1_555
H47 C31 1_555 1_555
H48 C31 1_555 1_555
C32 C31 1_555 1_555
H49 C32 1_555 1_555
H50 C32 1_555 1_555
C33 C32 1_555 1_555
H51 C33 1_555 1_555
H52 C33 1_555 1_555
C34 O2 1_555 1_555
H53 C34 1_555 1_555
H54 C34 1_555 1_555
C37 C38 1_555 1_555
C38 H65 1_555 1_555
C39 C38 1_555 1_555
H66 C39 1_555 1_555
C40 C39 1_555 1_555
H67 C40 1_555 1_555
C41 C40 1_555 1_555
H68 C41 1_555 1_555
C42 C37 1_555 1_555
H69 C42 1_555 1_555
C43 C37 1_555 1_555
H70 C43 1_555 1_555
H71 C43 1_555 1_555
H72 C43 1_555 1_555
C44 C45 1_555 1_555
C45 H73 1_555 1_555
C46 C45 1_555 1_555
H74 C46 1_555 1_555
C47 C46 1_555 1_555
H75 C47 1_555 1_555
C48 C47 1_555 1_555
H76 C48 1_555 1_555
C49 C44 1_555 1_555
H77 C49 1_555 1_555
C50 C44 1_555 1_555
H78 C50 1_555 1_555
H79 C50 1_555 1_555
H80 C50 1_555 1_555
B1 C20 1_555 1_555
C1 C2 1_555 1_555
C4 C5 1_555 1_555
C12 C13 1_555 1_555
C18 C19 1_555 1_555
C21 C22 1_555 1_555
C24 C25 1_555 1_555
C29 C30 1_555 1_555
C33 C34 1_555 1_555
C41 C42 1_555 1_555
C48 C49 1_555 1_555

#END
