
#######################################################################
#
#                 Cambridge Crystallographic Data Centre
#                                CCDC 
#
#######################################################################
#
# If this CIF has been generated from an entry in the Cambridge 
# Structural Database, then it will include bibliographic, chemical, 
# crystal, experimental, refinement or atomic coordinate data resulting 
# from the CCDC's data processing and validation procedures.
#
#######################################################################

data_WODFAX
_chemical_formula_moiety         'C25 H26 N6'
_chemical_name_systematic        
2,2'-pentane-3,3-diylbis(5-(phenyldiazenyl)-1H-pyrrole)
_symmetry_cell_setting           orthorhombic
_symmetry_space_group_name_H-M   'P b c a'
_symmetry_Int_Tables_number      61
_space_group_name_Hall           '-P 2ac 2ab'
loop_
_symmetry_equiv_pos_site_id
_symmetry_equiv_pos_as_xyz
1 x,y,z
2 1/2+x,1/2-y,-z
3 -x,1/2+y,1/2-z
4 1/2-x,-y,1/2+z
5 -x,-y,-z
6 1/2-x,1/2+y,z
7 x,1/2-y,1/2+z
8 1/2+x,y,1/2-z
_cell_length_a                   18.264(5)
_cell_length_b                   20.537(5)
_cell_length_c                   24.233(6)
_cell_angle_alpha                90
_cell_angle_beta                 90
_cell_angle_gamma                90
_cell_volume                     9089.5
_exptl_crystal_colour            colorless
_exptl_crystal_description       prism
_chemical_melting_point          '450 K'
_cell_formula_units_Z            16
_exptl_crystal_recrystallization_method chloroform/methanol
loop_
_atom_site_label
_atom_site_type_symbol
_atom_site_fract_x
_atom_site_fract_y
_atom_site_fract_z
N1 N 0.54974(10) 0.10908(9) 0.82068(7)
N2 N 0.49369(10) 0.14294(9) 0.80680(7)
N3 N 0.57602(9) 0.20816(8) 0.74860(7)
H1 H 0.6181 0.1920 0.7598
N4 N 0.68811(10) 0.08854(9) 0.56367(7)
N5 N 0.75037(10) 0.10958(9) 0.58030(7)
N6 N 0.67854(10) 0.19234(8) 0.62841(7)
H2 H 0.6356 0.1829 0.6139
C1 C 0.59465(14) 0.02778(12) 0.88227(10)
H3 H 0.6426 0.0408 0.8717
C2 C 0.58555(15) -0.02274(13) 0.91977(11)
H4 H 0.6272 -0.0439 0.9350
C3 C 0.51579(15) -0.04225(13) 0.93503(11)
H5 H 0.5093 -0.0771 0.9604
C4 C 0.45544(14) -0.01043(12) 0.91298(11)
H6 H 0.4076 -0.0235 0.9237
C5 C 0.46383(13) 0.04004(11) 0.87566(10)
H7 H 0.4221 0.0614 0.8608
C6 C 0.53425(12) 0.05933(11) 0.86006(9)
C7 C 0.50783(12) 0.19063(11) 0.76861(9)
C8 C 0.45573(12) 0.22672(11) 0.74060(9)
H8 H 0.4043 0.2249 0.7460
C9 C 0.49272(12) 0.26628(11) 0.70298(10)
H9 H 0.4707 0.2959 0.6779
C10 C 0.56764(11) 0.25473(10) 0.70867(9)
C11 C 0.62545(15) 0.02481(15) 0.49743(12)
H10 H 0.5834 0.0502 0.5057
C12 C 0.62119(18) -0.02425(17) 0.45878(14)
H11 H 0.5765 -0.0320 0.4399
C13 C 0.68186(17) -0.06229(14) 0.44749(12)
H12 H 0.6787 -0.0964 0.4211
C14 C 0.74691(16) -0.05050(13) 0.47464(11)
H13 H 0.7884 -0.0769 0.4672
C15 C 0.75220(15) -0.00022(12) 0.51289(10)
H14 H 0.7973 0.0083 0.5310
C16 C 0.69105(13) 0.03717(11) 0.52428(9)
C17 C 0.74360(12) 0.16077(10) 0.61662(9)
C18 C 0.79840(12) 0.18940(11) 0.64769(9)
H15 H 0.8488 0.1778 0.6477
C19 C 0.76557(12) 0.23871(11) 0.67910(9)
H16 H 0.7898 0.2662 0.7048
C20 C 0.69156(11) 0.24048(10) 0.66615(9)
C21 C 0.63254(12) 0.28852(10) 0.68255(9)
C22 C 0.60590(12) 0.32429(11) 0.62967(9)
H17 H 0.5770 0.2934 0.6071
H18 H 0.5729 0.3602 0.6408
C23 C 0.66709(13) 0.35242(12) 0.59380(10)
H19 H 0.6931 0.3863 0.6144
H20 H 0.6460 0.3712 0.5602
H21 H 0.7014 0.3177 0.5838
C24 C 0.66640(12) 0.33717(11) 0.72454(9)
H22 H 0.6885 0.3120 0.7551
H23 H 0.7064 0.3613 0.7060
C25 C 0.61308(13) 0.38632(12) 0.74895(11)
H24 H 0.5907 0.4117 0.7192
H25 H 0.6394 0.4157 0.7739
H26 H 0.5748 0.3633 0.7695
N7 N 0.71443(10) 0.17950(9) 0.81212(7)
N8 N 0.76932(10) 0.14555(9) 0.79585(7)
N9 N 0.68163(9) 0.07194(8) 0.75117(7)
H27 H 0.6412 0.0871 0.7662
N10 N 0.53170(10) 0.17099(9) 0.56825(7)
N11 N 0.47789(10) 0.14988(9) 0.59717(7)
N12 N 0.56150(9) 0.07200(8) 0.64169(7)
H28 H 0.6010 0.0791 0.6217
C26 C 0.80332(13) 0.24482(11) 0.86800(9)
H29 H 0.8434 0.2182 0.8574
C27 C 0.81412(15) 0.29747(12) 0.90264(10)
H30 H 0.8620 0.3070 0.9155
C28 C 0.75589(16) 0.33650(13) 0.91882(11)
H31 H 0.7641 0.3725 0.9426
C29 C 0.68604(16) 0.32288(13) 0.90024(11)
H32 H 0.6461 0.3495 0.9113
C30 C 0.67419(14) 0.27015(12) 0.86522(10)
H33 H 0.6261 0.2607 0.8525
C31 C 0.73277(12) 0.23125(11) 0.84881(9)
C32 C 0.75150(12) 0.09459(10) 0.76174(9)
C33 C 0.79976(12) 0.05895(11) 0.72981(9)
H34 H 0.8515 0.0639 0.7288
C34 C 0.75833(12) 0.01424(11) 0.69927(9)
H35 H 0.7769 -0.0162 0.6733
C35 C 0.68529(11) 0.02221(10) 0.71372(8)
C36 C 0.56398(14) 0.24917(13) 0.49911(10)
H36 H 0.6137 0.2426 0.5090
C37 C 0.54573(16) 0.29380(13) 0.45795(10)
H37 H 0.5831 0.3185 0.4404
C38 C 0.47359(15) 0.30210(13) 0.44268(11)
H38 H 0.4612 0.3328 0.4148
C39 C 0.41918(15) 0.26581(14) 0.46787(11)
H39 H 0.3697 0.2712 0.4568
C40 C 0.43638(13) 0.22177(13) 0.50917(10)
H40 H 0.3989 0.1968 0.5262
C41 C 0.50896(13) 0.21448(11) 0.52545(9)
C42 C 0.49531(11) 0.10390(10) 0.63586(9)
C43 C 0.44728(12) 0.07914(11) 0.67471(9)
H41 H 0.3978 0.0919 0.6800
C44 C 0.48538(12) 0.03179(11) 0.70477(9)
H42 H 0.4663 0.0069 0.7345
C45 C 0.55572(11) 0.02741(10) 0.68362(8)
C46 C 0.61806(11) -0.01739(10) 0.69899(9)
C47 C 0.63632(13) -0.06297(11) 0.64970(9)
H43 H 0.6541 -0.0360 0.6186
H44 H 0.6768 -0.0923 0.6608
C48 C 0.57230(15) -0.10446(14) 0.62945(12)
H45 H 0.5574 -0.1347 0.6587
H46 H 0.5874 -0.1292 0.5968
H47 H 0.5310 -0.0761 0.6199
C49 C 0.59458(12) -0.05737(10) 0.75063(9)
H48 H 0.5780 -0.0267 0.7795
H49 H 0.5522 -0.0849 0.7405
C50 C 0.65382(13) -0.10101(12) 0.77502(11)
H50 H 0.6663 -0.1353 0.7485
H51 H 0.6358 -0.1208 0.8092
H52 H 0.6975 -0.0749 0.7830
loop_
_geom_bond_atom_site_label_1
_geom_bond_atom_site_label_2
_geom_bond_site_symmetry_1
_geom_bond_site_symmetry_2
N1 N2 1_555 1_555
N2 C7 1_555 1_555
N3 H1 1_555 1_555
N4 N5 1_555 1_555
N5 C17 1_555 1_555
N6 H2 1_555 1_555
C1 H3 1_555 1_555
C2 C1 1_555 1_555
H4 C2 1_555 1_555
C3 C2 1_555 1_555
H5 C3 1_555 1_555
C4 C3 1_555 1_555
H6 C4 1_555 1_555
C5 C4 1_555 1_555
H7 C5 1_555 1_555
C6 N1 1_555 1_555
C7 N3 1_555 1_555
C8 C7 1_555 1_555
H8 C8 1_555 1_555
C9 C8 1_555 1_555
H9 C9 1_555 1_555
C10 N3 1_555 1_555
C11 H10 1_555 1_555
C12 C11 1_555 1_555
H11 C12 1_555 1_555
C13 C12 1_555 1_555
H12 C13 1_555 1_555
C14 C13 1_555 1_555
H13 C14 1_555 1_555
C15 C14 1_555 1_555
H14 C15 1_555 1_555
C16 N4 1_555 1_555
C17 N6 1_555 1_555
C18 C17 1_555 1_555
H15 C18 1_555 1_555
C19 C18 1_555 1_555
H16 C19 1_555 1_555
C20 N6 1_555 1_555
C21 C10 1_555 1_555
C22 C21 1_555 1_555
H17 C22 1_555 1_555
H18 C22 1_555 1_555
C23 C22 1_555 1_555
H19 C23 1_555 1_555
H20 C23 1_555 1_555
H21 C23 1_555 1_555
C24 C21 1_555 1_555
H22 C24 1_555 1_555
H23 C24 1_555 1_555
C25 C24 1_555 1_555
H24 C25 1_555 1_555
H25 C25 1_555 1_555
H26 C25 1_555 1_555
N7 N8 1_555 1_555
N8 C32 1_555 1_555
N9 H27 1_555 1_555
N10 N11 1_555 1_555
N11 C42 1_555 1_555
N12 H28 1_555 1_555
C26 H29 1_555 1_555
C27 C26 1_555 1_555
H30 C27 1_555 1_555
C28 C27 1_555 1_555
H31 C28 1_555 1_555
C29 C28 1_555 1_555
H32 C29 1_555 1_555
C30 C29 1_555 1_555
H33 C30 1_555 1_555
C31 N7 1_555 1_555
C32 N9 1_555 1_555
C33 C32 1_555 1_555
H34 C33 1_555 1_555
C34 C33 1_555 1_555
H35 C34 1_555 1_555
C35 N9 1_555 1_555
C36 H36 1_555 1_555
C37 C36 1_555 1_555
H37 C37 1_555 1_555
C38 C37 1_555 1_555
H38 C38 1_555 1_555
C39 C38 1_555 1_555
H39 C39 1_555 1_555
C40 C39 1_555 1_555
H40 C40 1_555 1_555
C41 N10 1_555 1_555
C42 N12 1_555 1_555
C43 C42 1_555 1_555
H41 C43 1_555 1_555
C44 C43 1_555 1_555
H42 C44 1_555 1_555
C45 N12 1_555 1_555
C46 C35 1_555 1_555
C47 C46 1_555 1_555
H43 C47 1_555 1_555
H44 C47 1_555 1_555
C48 C47 1_555 1_555
H45 C48 1_555 1_555
H46 C48 1_555 1_555
H47 C48 1_555 1_555
C49 C46 1_555 1_555
H48 C49 1_555 1_555
H49 C49 1_555 1_555
C50 C49 1_555 1_555
H50 C50 1_555 1_555
H51 C50 1_555 1_555
H52 C50 1_555 1_555
C1 C6 1_555 1_555
C5 C6 1_555 1_555
C9 C10 1_555 1_555
C11 C16 1_555 1_555
C15 C16 1_555 1_555
C19 C20 1_555 1_555
C20 C21 1_555 1_555
C26 C31 1_555 1_555
C30 C31 1_555 1_555
C34 C35 1_555 1_555
C36 C41 1_555 1_555
C40 C41 1_555 1_555
C44 C45 1_555 1_555
C45 C46 1_555 1_555

#END
