
#######################################################################
#
#                 Cambridge Crystallographic Data Centre
#                                CCDC 
#
#######################################################################
#
# If this CIF has been generated from an entry in the Cambridge 
# Structural Database, then it will include bibliographic, chemical, 
# crystal, experimental, refinement or atomic coordinate data resulting 
# from the CCDC's data processing and validation procedures.
#
#######################################################################

data_WOFBOK
_chemical_formula_moiety         'C18 H20 B1 F2 N3'
_chemical_name_systematic        
{2-[(3,5-dimethyl-2H-pyrrol-2-ylidene)(1-methyl-1H-pyrrol-2-yl)methyl]-3,5-dimethyl-1H-pyrrolato}(difluoro)boron
_symmetry_cell_setting           monoclinic
_symmetry_space_group_name_H-M   'P 21'
_symmetry_Int_Tables_number      4
_space_group_name_Hall           'P 2yb'
loop_
_symmetry_equiv_pos_site_id
_symmetry_equiv_pos_as_xyz
1 x,y,z
2 -x,1/2+y,-z
_cell_length_a                   7.2814(11)
_cell_length_b                   12.4570(19)
_cell_length_c                   9.2579(15)
_cell_angle_alpha                90
_cell_angle_beta                 100.858(8)
_cell_angle_gamma                90
_cell_volume                     824.699
_exptl_crystal_colour            orange
_exptl_crystal_description       plate
_cell_formula_units_Z            2
loop_
_atom_site_label
_atom_site_type_symbol
_atom_site_fract_x
_atom_site_fract_y
_atom_site_fract_z
F1 F 0.3449(3) 0.34793(15) -0.09235(16)
F2 F 0.2267(3) 0.22823(13) 0.04902(17)
N1 N 0.2145(3) 0.41540(18) 0.1093(2)
N2 N 0.5150(3) 0.31536(19) 0.1525(2)
N3 N 0.5476(3) 0.5284(2) 0.5625(2)
C1 C 0.0376(4) 0.4467(2) 0.0570(3)
C2 C -0.0071(4) 0.5338(2) 0.1378(3)
H1 H -0.1240 0.5699 0.1226
C3 C 0.1465(4) 0.5588(2) 0.2436(3)
C4 C 0.2877(4) 0.4842(2) 0.2256(3)
C5 C 0.4700(4) 0.4701(2) 0.3020(3)
C6 C 0.5815(4) 0.3868(2) 0.2683(3)
C7 C 0.7648(4) 0.3522(2) 0.3343(3)
C8 C 0.8016(4) 0.2633(2) 0.2571(3)
H2 H 0.9139 0.2226 0.2762
C9 C 0.6488(4) 0.2423(3) 0.1468(3)
C10 C -0.0831(4) 0.3936(3) -0.0717(3)
H3 H -0.0583 0.3162 -0.0683
H4 H -0.0551 0.4234 -0.1630
H5 H -0.2149 0.4063 -0.0680
C11 C 0.1565(4) 0.6482(3) 0.3529(3)
H6 H 0.0325 0.6807 0.3453
H7 H 0.2455 0.7025 0.3325
H8 H 0.1979 0.6197 0.4523
C12 C 0.8921(4) 0.4018(3) 0.4621(3)
H9 H 1.0167 0.3697 0.4724
H10 H 0.8426 0.3889 0.5520
H11 H 0.9004 0.4792 0.4460
C13 C 0.6288(5) 0.1549(3) 0.0347(3)
H12 H 0.5906 0.1858 -0.0637
H13 H 0.5339 0.1036 0.0533
H14 H 0.7488 0.1179 0.0409
C14 C 0.5483(4) 0.5479(2) 0.4182(3)
C15 C 0.6345(4) 0.6446(2) 0.4074(3)
H15 H 0.6541 0.6784 0.3196
C16 C 0.6883(4) 0.6839(2) 0.5512(3)
H16 H 0.7515 0.7496 0.5786
C17 C 0.6345(4) 0.6120(2) 0.6435(3)
H17 H 0.6537 0.6183 0.7475
C18 C 0.4631(5) 0.4374(3) 0.6191(3)
H18 H 0.3287 0.4367 0.5786
H19 H 0.4827 0.4422 0.7266
H20 H 0.5202 0.3713 0.5909
B1 B 0.3225(5) 0.3243(3) 0.0501(3)
loop_
_geom_bond_atom_site_label_1
_geom_bond_atom_site_label_2
_geom_bond_site_symmetry_1
_geom_bond_site_symmetry_2
F1 B1 1_555 1_555
F2 B1 1_555 1_555
N1 C1 1_555 1_555
N2 C6 1_555 1_555
N3 C14 1_555 1_555
C1 C2 1_555 1_555
C2 H1 1_555 1_555
C3 C2 1_555 1_555
C4 N1 1_555 1_555
C5 C4 1_555 1_555
C6 C5 1_555 1_555
C7 C6 1_555 1_555
C8 C7 1_555 1_555
H2 C8 1_555 1_555
C9 N2 1_555 1_555
C10 C1 1_555 1_555
H3 C10 1_555 1_555
H4 C10 1_555 1_555
H5 C10 1_555 1_555
C11 C3 1_555 1_555
H6 C11 1_555 1_555
H7 C11 1_555 1_555
H8 C11 1_555 1_555
C12 C7 1_555 1_555
H9 C12 1_555 1_555
H10 C12 1_555 1_555
H11 C12 1_555 1_555
C13 C9 1_555 1_555
H12 C13 1_555 1_555
H13 C13 1_555 1_555
H14 C13 1_555 1_555
C14 C5 1_555 1_555
C15 C14 1_555 1_555
H15 C15 1_555 1_555
C16 C15 1_555 1_555
H16 C16 1_555 1_555
C17 N3 1_555 1_555
H17 C17 1_555 1_555
C18 N3 1_555 1_555
H18 C18 1_555 1_555
H19 C18 1_555 1_555
H20 C18 1_555 1_555
B1 N1 1_555 1_555
N2 B1 1_555 1_555
C3 C4 1_555 1_555
C8 C9 1_555 1_555
C16 C17 1_555 1_555

#END
