
#######################################################################
#
#                 Cambridge Crystallographic Data Centre
#                                CCDC 
#
#######################################################################
#
# If this CIF has been generated from an entry in the Cambridge 
# Structural Database, then it will include bibliographic, chemical, 
# crystal, experimental, refinement or atomic coordinate data resulting 
# from the CCDC's data processing and validation procedures.
#
#######################################################################

data_WOFBOJ
_chemical_formula_moiety         'C18 H22 Cl1 F4 N1 O3 S1,C1 H4 O1'
_chemical_name_systematic        
'1-t-butyl-4-((2-chloro-1,1,2,2-tetrafluoroethyl)sulfonyl)-2,2-dimethyl-5-phenyl-2,5-dihydro-1H-pyrrolium-3-olate methanol solvate'
_symmetry_cell_setting           monoclinic
_symmetry_space_group_name_H-M   'P 21/n'
_symmetry_Int_Tables_number      14
_space_group_name_Hall           '-P 2yn'
loop_
_symmetry_equiv_pos_site_id
_symmetry_equiv_pos_as_xyz
1 x,y,z
2 1/2-x,1/2+y,1/2-z
3 -x,-y,-z
4 1/2+x,1/2-y,1/2+z
_cell_length_a                   8.6443(16)
_cell_length_b                   26.497(5)
_cell_length_c                   10.344(2)
_cell_angle_alpha                90
_cell_angle_beta                 110.643(3)
_cell_angle_gamma                90
_cell_volume                     2217.15
_chemical_melting_point          '112-113 deg.C'
_cell_formula_units_Z            4
loop_
_atom_site_label
_atom_site_type_symbol
_atom_site_fract_x
_atom_site_fract_y
_atom_site_fract_z
S1 S -0.13281(12) 0.12139(4) 0.16897(10)
Cl1 Cl -0.3211(3) 0.02038(7) -0.1945(2)
O1 O -0.1626(4) 0.08650(12) 0.2620(3)
O2 O -0.2488(3) 0.16087(10) 0.1120(3)
O3 O 0.0386(3) 0.20766(11) 0.0581(3)
N1 N 0.3416(4) 0.15594(12) 0.3527(3)
F1 F -0.0223(4) 0.04991(13) 0.0532(4)
F2 F -0.1320(4) 0.11121(12) -0.0827(3)
F3 F -0.3126(8) 0.0166(2) 0.0432(5)
F4 F -0.4413(4) 0.08110(17) -0.0804(4)
C1 C 0.2031(5) 0.11642(14) 0.3336(4)
C2 C 0.3056(4) 0.17761(15) 0.2054(4)
C3 C 0.1154(5) 0.17929(14) 0.1535(4)
C4 C 0.0602(4) 0.14272(14) 0.2257(4)
C5 C -0.1492(5) 0.08187(16) 0.0164(5)
C6 C -0.3102(8) 0.0518(2) -0.0453(6)
C7 C 0.3527(5) 0.14147(18) 0.1111(5)
H1 H 0.3013 0.1521 0.0169
H2 H 0.3158 0.1081 0.1216
H3 H 0.4706 0.1414 0.1353
C8 C 0.3768(6) 0.23037(16) 0.2051(5)
H4 H 0.4805 0.2278 0.1911
H5 H 0.3935 0.2465 0.2922
H6 H 0.3010 0.2500 0.1320
C9 C 0.5215(5) 0.13910(15) 0.4446(4)
C10 C 0.5543(6) 0.08446(16) 0.4166(5)
H7 H 0.5316 0.0800 0.3196
H8 H 0.4840 0.0626 0.4456
H9 H 0.6678 0.0763 0.4671
C11 C 0.6479(5) 0.17314(18) 0.4183(5)
H10 H 0.6232 0.2077 0.4312
H11 H 0.6445 0.1684 0.3253
H12 H 0.7562 0.1649 0.4817
C12 C 0.5349(6) 0.1465(2) 0.5939(5)
H13 H 0.6484 0.1433 0.6532
H14 H 0.4698 0.1213 0.6180
H15 H 0.4951 0.1794 0.6047
C13 C 0.1752(5) 0.10237(16) 0.4649(4)
C14 C 0.1916(6) 0.05201(18) 0.5065(5)
H16 H 0.2209 0.0279 0.4540
C15 C 0.1648(7) 0.0377(2) 0.6249(6)
H17 H 0.1778 0.0041 0.6528
C16 C 0.1187(7) 0.0730(2) 0.7020(6)
H18 H 0.1013 0.0635 0.7824
C17 C 0.0987(7) 0.1220(2) 0.6599(5)
H19 H 0.0667 0.1459 0.7115
C18 C 0.1255(6) 0.13678(18) 0.5407(4)
H20 H 0.1095 0.1703 0.5123
H21 H 0.247(4) 0.0887(13) 0.298(3)
H22 H 0.310(6) 0.1860(16) 0.394(5)
O4 O 0.7254(5) 0.25493(13) 0.9453(5)
H23 H 0.7908 0.2316 0.9741
C19 C 0.5571(11) 0.2350(2) 0.8890(7)
H24 H 0.5044 0.2387 0.9561
H25 H 0.5607 0.1999 0.8672
H26 H 0.4956 0.2532 0.8067
loop_
_geom_bond_atom_site_label_1
_geom_bond_atom_site_label_2
_geom_bond_site_symmetry_1
_geom_bond_site_symmetry_2
S1 O1 1_555 1_555
Cl1 C6 1_555 1_555
O2 S1 1_555 1_555
O3 C3 1_555 1_555
N1 C1 1_555 1_555
F1 C5 1_555 1_555
F2 C5 1_555 1_555
F3 C6 1_555 1_555
F4 C6 1_555 1_555
C1 C4 1_555 1_555
C2 N1 1_555 1_555
C3 C2 1_555 1_555
C4 S1 1_555 1_555
C5 S1 1_555 1_555
C6 C5 1_555 1_555
C7 C2 1_555 1_555
H1 C7 1_555 1_555
H2 C7 1_555 1_555
H3 C7 1_555 1_555
C8 C2 1_555 1_555
H4 C8 1_555 1_555
H5 C8 1_555 1_555
H6 C8 1_555 1_555
C9 N1 1_555 1_555
C10 C9 1_555 1_555
H7 C10 1_555 1_555
H8 C10 1_555 1_555
H9 C10 1_555 1_555
C11 C9 1_555 1_555
H10 C11 1_555 1_555
H11 C11 1_555 1_555
H12 C11 1_555 1_555
C12 C9 1_555 1_555
H13 C12 1_555 1_555
H14 C12 1_555 1_555
H15 C12 1_555 1_555
C13 C1 1_555 1_555
C14 C13 1_555 1_555
H16 C14 1_555 1_555
C15 C14 1_555 1_555
H17 C15 1_555 1_555
C16 C15 1_555 1_555
H18 C16 1_555 1_555
C17 C16 1_555 1_555
H19 C17 1_555 1_555
C18 C13 1_555 1_555
H20 C18 1_555 1_555
H21 C1 1_555 1_555
H22 N1 1_555 1_555
O4 H23 1_555 1_555
C19 O4 1_555 1_555
H24 C19 1_555 1_555
H25 C19 1_555 1_555
H26 C19 1_555 1_555
C3 C4 1_555 1_555
C17 C18 1_555 1_555

#END
