
#######################################################################
#
#                 Cambridge Crystallographic Data Centre
#                                CCDC 
#
#######################################################################
#
# If this CIF has been generated from an entry in the Cambridge 
# Structural Database, then it will include bibliographic, chemical, 
# crystal, experimental, refinement or atomic coordinate data resulting 
# from the CCDC's data processing and validation procedures.
#
#######################################################################

data_WOFLUZ
_chemical_formula_moiety         'C15 H15 N1 O2'
_chemical_name_systematic        'ethyl 5-methyl-2-(pyridin-2-yl)benzoate'
_symmetry_cell_setting           monoclinic
_symmetry_space_group_name_H-M   'P 21/n'
_symmetry_Int_Tables_number      14
_space_group_name_Hall           '-P 2yn'
loop_
_symmetry_equiv_pos_site_id
_symmetry_equiv_pos_as_xyz
1 x,y,z
2 1/2-x,1/2+y,1/2-z
3 -x,-y,-z
4 1/2+x,1/2-y,1/2+z
_cell_length_a                   10.6156(16)
_cell_length_b                   7.7307(12)
_cell_length_c                   16.425(3)
_cell_angle_alpha                90
_cell_angle_beta                 103.139(3)
_cell_angle_gamma                90
_cell_volume                     1312.65
_chemical_melting_point          '76.3-77.5 deg.C'
_cell_formula_units_Z            4
loop_
_atom_site_label
_atom_site_type_symbol
_atom_site_fract_x
_atom_site_fract_y
_atom_site_fract_z
O1 O 0.4637(1) 0.5367(2) 0.7874(1)
O2 O 0.3745(1) 0.4525(2) 0.6569(1)
N1 N 0.3385(2) 0.8180(2) 0.6101(1)
C1 C 0.5701(2) 0.6019(2) 0.6783(1)
C2 C 0.6959(2) 0.5639(2) 0.7187(1)
C3 C 0.8014(2) 0.6188(3) 0.6887(1)
C4 C 0.7755(2) 0.7121(3) 0.6154(1)
C5 C 0.6510(2) 0.7531(3) 0.5739(1)
C6 C 0.5457(2) 0.6997(2) 0.6040(1)
C7 C 0.4122(2) 0.7542(2) 0.5611(1)
C8 C 0.3672(2) 0.7372(3) 0.4756(1)
C9 C 0.2426(2) 0.7886(3) 0.4391(1)
C10 C 0.1683(2) 0.8551(3) 0.4886(1)
C11 C 0.2190(2) 0.8679(3) 0.5731(1)
C12 C 0.4647(2) 0.5306(2) 0.7145(1)
C13 C 0.2592(2) 0.3935(3) 0.6818(2)
C14 C 0.1581(2) 0.3639(4) 0.6053(2)
C15 C 0.9375(2) 0.5756(3) 0.7349(2)
H1 H 0.7104 0.4992 0.7676
H2 H 0.8441 0.7485 0.5931
H3 H 0.6375 0.8177 0.5249
H4 H 0.4204 0.6918 0.4430
H5 H 0.2102 0.7778 0.3818
H6 H 0.0842 0.8915 0.4656
H7 H 0.1672 0.9139 0.6064
H8 H 0.2307 0.4799 0.7165
H9 H 0.2771 0.2871 0.7137
H10 H 0.0825 0.3166 0.6199
H11 H 0.1894 0.2841 0.5697
H12 H 0.1364 0.4716 0.5764
H13 H 0.9980 0.6344 0.7092
H14 H 0.9508 0.4530 0.7329
H15 H 0.9502 0.6119 0.7921
loop_
_geom_bond_atom_site_label_1
_geom_bond_atom_site_label_2
_geom_bond_site_symmetry_1
_geom_bond_site_symmetry_2
O1 C12 1_555 1_555
O2 C12 1_555 1_555
N1 C7 1_555 1_555
C1 C2 1_555 1_555
C2 C3 1_555 1_555
C3 C4 1_555 1_555
C4 C5 1_555 1_555
C5 C6 1_555 1_555
C6 C1 1_555 1_555
C7 C6 1_555 1_555
C8 C7 1_555 1_555
C9 C8 1_555 1_555
C10 C9 1_555 1_555
C11 N1 1_555 1_555
C12 C1 1_555 1_555
C13 O2 1_555 1_555
C14 C13 1_555 1_555
C15 C3 1_555 1_555
H1 C2 1_555 1_555
H2 C4 1_555 1_555
H3 C5 1_555 1_555
H4 C8 1_555 1_555
H5 C9 1_555 1_555
H6 C10 1_555 1_555
H7 C11 1_555 1_555
H8 C13 1_555 1_555
H9 C13 1_555 1_555
H10 C14 1_555 1_555
H11 C14 1_555 1_555
H12 C14 1_555 1_555
H13 C15 1_555 1_555
H14 C15 1_555 1_555
H15 C15 1_555 1_555
C10 C11 1_555 1_555

#END
