
#######################################################################
#
#                 Cambridge Crystallographic Data Centre
#                                CCDC 
#
#######################################################################
#
# If this CIF has been generated from an entry in the Cambridge 
# Structural Database, then it will include bibliographic, chemical, 
# crystal, experimental, refinement or atomic coordinate data resulting 
# from the CCDC's data processing and validation procedures.
#
#######################################################################

data_WOGLUB
_chemical_formula_moiety         'C12 H8 O1 S1'
_chemical_name_systematic        dibenzo[b,d]thiophene-4-ol
_symmetry_cell_setting           orthorhombic
_symmetry_space_group_name_H-M   'P c a 21'
_symmetry_Int_Tables_number      29
_space_group_name_Hall           'P 2c -2ac'
loop_
_symmetry_equiv_pos_site_id
_symmetry_equiv_pos_as_xyz
1 x,y,z
2 -x,-y,1/2+z
3 1/2-x,y,1/2+z
4 1/2+x,-y,z
_cell_length_a                   14.959(5)
_cell_length_b                   4.722(5)
_cell_length_c                   26.639(5)
_cell_angle_alpha                90
_cell_angle_beta                 90
_cell_angle_gamma                90
_cell_volume                     1881.68
_cell_formula_units_Z            8
loop_
_atom_site_label
_atom_site_type_symbol
_atom_site_fract_x
_atom_site_fract_y
_atom_site_fract_z
S1 S 1.11475(4) 0.20156(13) 0.30010(2)
O1 O 1.16631(10) 0.5977(4) 0.21538(7)
H1 H 1.1767 0.7078 0.1923
C1 C 1.04597(15) 0.4110(5) 0.26235(9)
C2 C 1.07507(15) 0.5914(5) 0.22465(8)
C3 C 1.01381(17) 0.7491(5) 0.19854(10)
H2 H 1.0327 0.8734 0.1736
C4 C 0.92290(18) 0.7223(6) 0.20950(11)
H3 H 0.8816 0.8286 0.1914
C5 C 0.94083(17) 0.1793(5) 0.31309(9)
C6 C 0.95524(16) 0.3826(5) 0.27301(9)
C7 C 1.02068(18) 0.0637(5) 0.33108(9)
C8 C 0.89330(16) 0.5426(6) 0.24632(10)
H4 H 0.8326 0.5278 0.2534
C9 C 1.0221(2) -0.1389(6) 0.36911(10)
H5 H 1.0758 -0.2149 0.3805
C10 C 0.8602(2) 0.0885(7) 0.33460(12)
H6 H 0.8061 0.1642 0.3239
C11 C 0.9420(3) -0.2226(7) 0.38911(12)
H7 H 0.9414 -0.3553 0.4149
C12 C 0.8621(3) -0.1136(8) 0.37166(13)
H8 H 0.8086 -0.1783 0.3853
S2 S 0.83194(4) 0.30679(12) 0.11006(2)
C13 C 0.74156(15) 0.1073(5) 0.08849(9)
O2 O 0.71187(11) -0.1011(4) 0.16773(6)
H9 H 0.7535 0.0055 0.1743
C14 C 0.69124(14) -0.0798(5) 0.11727(9)
C15 C 0.72254(15) 0.1488(5) 0.03783(9)
C16 C 0.78414(15) 0.3521(5) 0.01561(9)
C17 C 0.84544(15) 0.4558(5) 0.05043(9)
C18 C 0.90981(17) 0.6569(5) 0.03704(11)
H10 H 0.9500 0.7277 0.0605
C19 C 0.78820(17) 0.4465(6) -0.03429(9)
H11 H 0.7481 0.3785 -0.0581
C20 C 0.60330(18) -0.1882(6) 0.04476(11)
H12 H 0.5573 -0.2915 0.0301
C21 C 0.85228(19) 0.6408(6) -0.04735(11)
H13 H 0.8560 0.7027 -0.0804
C22 C 0.65293(16) 0.0018(6) 0.01562(10)
H14 H 0.6394 0.0289 -0.0181
C23 C 0.62219(17) -0.2238(6) 0.09530(11)
H15 H 0.5876 -0.3468 0.1145
C24 C 0.91164(19) 0.7464(6) -0.01199(12)
H16 H 0.9536 0.8809 -0.0217
loop_
_geom_bond_atom_site_label_1
_geom_bond_atom_site_label_2
_geom_bond_site_symmetry_1
_geom_bond_site_symmetry_2
S1 C1 1_555 1_555
O1 H1 1_555 1_555
C1 C2 1_555 1_555
C2 O1 1_555 1_555
C3 C2 1_555 1_555
H2 C3 1_555 1_555
C4 C3 1_555 1_555
H3 C4 1_555 1_555
C5 C6 1_555 1_555
C6 C1 1_555 1_555
C7 S1 1_555 1_555
C8 C4 1_555 1_555
H4 C8 1_555 1_555
C9 C7 1_555 1_555
H5 C9 1_555 1_555
C10 C5 1_555 1_555
H6 C10 1_555 1_555
C11 C9 1_555 1_555
H7 C11 1_555 1_555
C12 C10 1_555 1_555
H8 C12 1_555 1_555
S2 C13 1_555 1_555
C13 C14 1_555 1_555
O2 H9 1_555 1_555
C14 O2 1_555 1_555
C15 C13 1_555 1_555
C16 C15 1_555 1_555
C17 S2 1_555 1_555
C18 C17 1_555 1_555
H10 C18 1_555 1_555
C19 C16 1_555 1_555
H11 C19 1_555 1_555
C20 H12 1_555 1_555
C21 C19 1_555 1_555
H13 C21 1_555 1_555
C22 C15 1_555 1_555
H14 C22 1_555 1_555
C23 C14 1_555 1_555
H15 C23 1_555 1_555
C24 C18 1_555 1_555
H16 C24 1_555 1_555
C5 C7 1_555 1_555
C6 C8 1_555 1_555
C11 C12 1_555 1_555
C16 C17 1_555 1_555
C20 C22 1_555 1_555
C20 C23 1_555 1_555
C21 C24 1_555 1_555

#END
