
#######################################################################
#
#                 Cambridge Crystallographic Data Centre
#                                CCDC 
#
#######################################################################
#
# If this CIF has been generated from an entry in the Cambridge 
# Structural Database, then it will include bibliographic, chemical, 
# crystal, experimental, refinement or atomic coordinate data resulting 
# from the CCDC's data processing and validation procedures.
#
#######################################################################

data_WOGZID
_chemical_formula_moiety         'C30 H33 O3 P1'
_chemical_name_systematic        
'17-Hydroxyestra-1(10),2,4-trien-3-yl diphenylphosphinate'
_symmetry_cell_setting           orthorhombic
_symmetry_space_group_name_H-M   'P 21 21 21'
_symmetry_Int_Tables_number      19
_space_group_name_Hall           'P 2ac 2ab'
loop_
_symmetry_equiv_pos_site_id
_symmetry_equiv_pos_as_xyz
1 x,y,z
2 1/2-x,-y,1/2+z
3 -x,1/2+y,1/2-z
4 1/2+x,1/2-y,-z
_cell_length_a                   11.830(4)
_cell_length_b                   14.144(4)
_cell_length_c                   15.169(4)
_cell_angle_alpha                90
_cell_angle_beta                 90
_cell_angle_gamma                90
_cell_volume                     2538.13
_exptl_crystal_colour            colorless
_exptl_crystal_description       Prism
_cell_formula_units_Z            4
loop_
_atom_site_label
_atom_site_type_symbol
_atom_site_fract_x
_atom_site_fract_y
_atom_site_fract_z
P1 P 0.85230(5) 0.81964(4) 0.06434(4)
O1 O 0.96333(13) 0.86016(11) 0.08883(12)
O2 O 0.80846(13) 0.73388(10) 0.12359(10)
O3 O 1.11791(13) 0.00516(12) 0.05256(12)
H1 H 1.0649 -0.0292 0.0708
C1 C 0.73781(19) 0.90106(15) 0.07982(14)
C2 C 0.7644(2) 0.99327(16) 0.10372(16)
H2 H 0.8412 1.0111 0.1114
C3 C 0.6793(2) 1.05939(16) 0.11648(17)
H3 H 0.6979 1.1225 0.1322
C4 C 0.5678(2) 1.03329(17) 0.10637(16)
H4 H 0.5096 1.0785 0.1159
C5 C 0.53986(19) 0.94164(17) 0.08238(17)
H5 H 0.4629 0.9243 0.0749
C6 C 0.62453(18) 0.87537(17) 0.06937(17)
H6 H 0.6055 0.8124 0.0533
C7 C 0.85021(18) 0.77787(15) -0.04780(14)
C8 C 0.9293(2) 0.81579(19) -0.10661(17)
H7 H 0.9831 0.8609 -0.0868
C9 C 0.9288(2) 0.7871(2) -0.19417(18)
H8 H 0.9823 0.8126 -0.2343
C10 C 0.8505(2) 0.7212(2) -0.22325(17)
H9 H 0.8510 0.7019 -0.2832
C11 C 0.7716(2) 0.68341(19) -0.16583(16)
H10 H 0.7181 0.6384 -0.1863
C12 C 0.7712(2) 0.71180(16) -0.07772(16)
H11 H 0.7172 0.6862 -0.0380
C13 C 0.8571(2) 0.64298(14) 0.12809(14)
C14 C 0.78235(19) 0.56788(16) 0.12655(16)
H12 H 0.7035 0.5783 0.1198
C15 C 0.82452(18) 0.47765(15) 0.13505(16)
H13 H 0.7733 0.4259 0.1342
C16 C 0.94020(17) 0.45941(14) 0.14495(14)
C17 C 0.98294(17) 0.35754(14) 0.15350(15)
H14 H 0.9761 0.3397 0.2171
C18 C 0.91068(18) 0.28673(15) 0.10074(16)
H15 H 0.8319 0.2894 0.1227
H16 H 0.9099 0.3063 0.0381
C19 C 0.95275(17) 0.18405(15) 0.10647(16)
H17 H 0.9390 0.1595 0.1667
H18 H 0.9093 0.1445 0.0646
C20 C 1.07882(17) 0.17638(15) 0.08513(14)
C21 C 1.13431(19) 0.08268(15) 0.11243(16)
H19 H 1.1064 0.0642 0.1722
C22 C 1.26101(19) 0.10715(16) 0.11818(17)
H20 H 1.2999 0.0900 0.0626
H21 H 1.2970 0.0723 0.1673
C23 C 1.26832(18) 0.21582(16) 0.13434(16)
H22 H 1.3117 0.2300 0.1886
H23 H 1.3045 0.2482 0.0838
C24 C 1.14372(18) 0.24625(14) 0.14421(14)
H24 H 1.1218 0.2309 0.2062
C25 C 1.10882(17) 0.34875(14) 0.12889(14)
H25 H 1.1177 0.3637 0.0648
C26 C 1.17467(19) 0.42158(16) 0.18236(17)
H26 H 1.2567 0.4126 0.1725
H27 H 1.1592 0.4123 0.2459
C27 C 1.14092(19) 0.52178(15) 0.15547(16)
H28 H 1.1705 0.5667 0.1998
H29 H 1.1771 0.5369 0.0983
C28 C 1.01467(18) 0.53623(15) 0.14685(14)
C29 C 0.97150(19) 0.62842(15) 0.13893(15)
H30 H 1.0214 0.6810 0.1411
C30 C 1.0980(2) 0.19295(17) -0.01416(15)
H31 H 1.0677 0.1393 -0.0475
H32 H 1.1791 0.1991 -0.0258
H33 H 1.0592 0.2510 -0.0323
loop_
_geom_bond_atom_site_label_1
_geom_bond_atom_site_label_2
_geom_bond_site_symmetry_1
_geom_bond_site_symmetry_2
P1 O1 1_555 1_555
O2 P1 1_555 1_555
O3 H1 1_555 1_555
C1 P1 1_555 1_555
C2 C1 1_555 1_555
H2 C2 1_555 1_555
C3 C2 1_555 1_555
H3 C3 1_555 1_555
C4 C3 1_555 1_555
H4 C4 1_555 1_555
C5 C4 1_555 1_555
H5 C5 1_555 1_555
C6 C1 1_555 1_555
H6 C6 1_555 1_555
C7 P1 1_555 1_555
C8 C7 1_555 1_555
H7 C8 1_555 1_555
C9 C8 1_555 1_555
H8 C9 1_555 1_555
C10 C9 1_555 1_555
H9 C10 1_555 1_555
C11 C10 1_555 1_555
H10 C11 1_555 1_555
C12 C7 1_555 1_555
H11 C12 1_555 1_555
C13 O2 1_555 1_555
C14 C13 1_555 1_555
H12 C14 1_555 1_555
C15 C14 1_555 1_555
H13 C15 1_555 1_555
C16 C15 1_555 1_555
C17 C16 1_555 1_555
H14 C17 1_555 1_555
C18 C17 1_555 1_555
H15 C18 1_555 1_555
H16 C18 1_555 1_555
C19 C18 1_555 1_555
H17 C19 1_555 1_555
H18 C19 1_555 1_555
C20 C19 1_555 1_555
C21 O3 1_555 1_555
H19 C21 1_555 1_555
C22 C21 1_555 1_555
H20 C22 1_555 1_555
H21 C22 1_555 1_555
C23 C22 1_555 1_555
H22 C23 1_555 1_555
H23 C23 1_555 1_555
C24 C20 1_555 1_555
H24 C24 1_555 1_555
C25 C17 1_555 1_555
H25 C25 1_555 1_555
C26 C25 1_555 1_555
H26 C26 1_555 1_555
H27 C26 1_555 1_555
C27 C26 1_555 1_555
H28 C27 1_555 1_555
H29 C27 1_555 1_555
C28 C16 1_555 1_555
C29 C13 1_555 1_555
H30 C29 1_555 1_555
C30 C20 1_555 1_555
H31 C30 1_555 1_555
H32 C30 1_555 1_555
H33 C30 1_555 1_555
C5 C6 1_555 1_555
C11 C12 1_555 1_555
C20 C21 1_555 1_555
C23 C24 1_555 1_555
C24 C25 1_555 1_555
C27 C28 1_555 1_555
C28 C29 1_555 1_555

#END
