
#######################################################################
#
#                 Cambridge Crystallographic Data Centre
#                                CCDC 
#
#######################################################################
#
# If this CIF has been generated from an entry in the Cambridge 
# Structural Database, then it will include bibliographic, chemical, 
# crystal, experimental, refinement or atomic coordinate data resulting 
# from the CCDC's data processing and validation procedures.
#
#######################################################################

data_WOHDAZ
_chemical_compound_source        'underground organs of Ligularia platyglossa'
_chemical_formula_moiety         'C15 H18 O4'
_chemical_name_systematic        
8\b-hydroxy-1-oxo-(14\a,15\a)eremophil-7(11),9(10)-dien-12,8\a-olide
_chemical_properties_biological  
'Activity against the HL-60 cell line and weak cytotoxic activities against B16, BEL7402, and Hela carcinoma cells'
_symmetry_cell_setting           orthorhombic
_symmetry_space_group_name_H-M   'P 21 21 21'
_symmetry_Int_Tables_number      19
_space_group_name_Hall           'P 2ac 2ab'
loop_
_symmetry_equiv_pos_site_id
_symmetry_equiv_pos_as_xyz
1 x,y,z
2 1/2-x,-y,1/2+z
3 -x,1/2+y,1/2-z
4 1/2+x,1/2-y,-z
_cell_length_a                   9.0435(18)
_cell_length_b                   10.034(4)
_cell_length_c                   14.543(4)
_cell_angle_alpha                90
_cell_angle_beta                 90
_cell_angle_gamma                90
_cell_volume                     1319.67
_exptl_crystal_colour            colorless
_exptl_crystal_description       needle
_chemical_melting_point          '206-208 deg.C'
_cell_formula_units_Z            4
loop_
_atom_site_label
_atom_site_type_symbol
_atom_site_fract_x
_atom_site_fract_y
_atom_site_fract_z
C1 C 0.3724(5) 0.3360(4) 0.7417(3)
C2 C 0.3961(6) 0.1968(4) 0.7760(3)
H1 H 0.4813 0.1586 0.7437
H2 H 0.3093 0.1432 0.7599
C3 C 0.4224(5) 0.1850(4) 0.8785(3)
H3 H 0.4129 0.0914 0.8967
H4 H 0.5235 0.2137 0.8925
C4 C 0.3145(5) 0.2684(4) 0.9342(3)
H5 H 0.2139 0.2351 0.9204
C5 C 0.3194(4) 0.4173(4) 0.9056(3)
C6 C 0.2045(4) 0.4979(4) 0.9617(3)
H6 H 0.1152 0.4442 0.9710
H7 H 0.2454 0.5202 1.0222
C7 C 0.1672(4) 0.6208(4) 0.9117(2)
C8 C 0.0974(5) 0.6008(4) 0.8206(3)
C9 C 0.1934(5) 0.5124(4) 0.7641(3)
H8 H 0.1875 0.5164 0.6996
C10 C 0.2878(5) 0.4274(4) 0.8036(3)
C11 C 0.2020(4) 0.7484(4) 0.9238(3)
C12 C 0.1494(5) 0.8202(4) 0.8430(3)
C13 C 0.2845(5) 0.8156(4) 0.9993(3)
H9 H 0.3028 0.7524 1.0485
H10 H 0.2264 0.8895 1.0227
H11 H 0.3780 0.8487 0.9760
C14 C 0.4732(4) 0.4779(4) 0.9222(3)
H12 H 0.5440 0.4374 0.8807
H13 H 0.5030 0.4615 0.9853
H14 H 0.4695 0.5732 0.9112
C15 C 0.3415(5) 0.2470(5) 1.0370(3)
H15 H 0.3275 0.1537 1.0520
H16 H 0.2723 0.3006 1.0721
H17 H 0.4418 0.2732 1.0522
O1 O 0.4144(4) 0.3726(3) 0.6667(2)
O2 O -0.0469(3) 0.5553(3) 0.8294(2)
H18 H -0.071(6) 0.506(4) 0.781(3)
O3 O 0.0928(4) 0.7348(3) 0.78049(18)
O4 O 0.1532(4) 0.9402(3) 0.8278(2)
loop_
_geom_bond_atom_site_label_1
_geom_bond_atom_site_label_2
_geom_bond_site_symmetry_1
_geom_bond_site_symmetry_2
C1 C2 1_555 1_555
C2 H1 1_555 1_555
H2 C2 1_555 1_555
C3 C2 1_555 1_555
H3 C3 1_555 1_555
H4 C3 1_555 1_555
C4 C3 1_555 1_555
H5 C4 1_555 1_555
C5 C4 1_555 1_555
C6 C5 1_555 1_555
H6 C6 1_555 1_555
H7 C6 1_555 1_555
C7 C6 1_555 1_555
C8 C7 1_555 1_555
C9 C8 1_555 1_555
H8 C9 1_555 1_555
C10 C1 1_555 1_555
C11 C7 1_555 1_555
C12 C11 1_555 1_555
C13 C11 1_555 1_555
H9 C13 1_555 1_555
H10 C13 1_555 1_555
H11 C13 1_555 1_555
C14 C5 1_555 1_555
H12 C14 1_555 1_555
H13 C14 1_555 1_555
H14 C14 1_555 1_555
C15 C4 1_555 1_555
H15 C15 1_555 1_555
H16 C15 1_555 1_555
H17 C15 1_555 1_555
O1 C1 1_555 1_555
O2 C8 1_555 1_555
H18 O2 1_555 1_555
O3 C8 1_555 1_555
O4 C12 1_555 1_555
C5 C10 1_555 1_555
C9 C10 1_555 1_555
C12 O3 1_555 1_555

#END
