
#######################################################################
#
#                 Cambridge Crystallographic Data Centre
#                                CCDC 
#
#######################################################################
#
# If this CIF has been generated from an entry in the Cambridge 
# Structural Database, then it will include bibliographic, chemical, 
# crystal, experimental, refinement or atomic coordinate data resulting 
# from the CCDC's data processing and validation procedures.
#
#######################################################################

data_WOHGIL
_chemical_name_common            
5,11,17,23-tetra-t-butyl-25,27-dihydroxy-26,28-bis((5-cyanopentyl)oxy)calix(4)arene
_chemical_formula_moiety         'C56 H74 N2 O4'
_chemical_name_systematic        
6,6'-((5,11,17,23-tetra-t-butyl-26,28-dihydroxypentacyclo[19.3.1.1^3,7^.1^9,13^.1^15,19^]octacosa-1(25),3(28),4,6,9(27),10,12,15(26),16,18,21,23-dodecaene-25,27-diyl)bis(oxy))dihexanenitrile
_symmetry_cell_setting           triclinic
_symmetry_space_group_name_H-M   'P -1'
_symmetry_Int_Tables_number      2
_space_group_name_Hall           '-P 1'
loop_
_symmetry_equiv_pos_site_id
_symmetry_equiv_pos_as_xyz
1 x,y,z
2 -x,-y,-z
_cell_length_a                   13.4692(15)
_cell_length_b                   15.0701(16)
_cell_length_c                   15.3241(16)
_cell_angle_alpha                91.994(2)
_cell_angle_beta                 115.710(2)
_cell_angle_gamma                109.003(2)
_cell_volume                     2592.64
_exptl_crystal_colour            colorless
_exptl_crystal_description       block
_cell_formula_units_Z            2
loop_
_atom_site_label
_atom_site_type_symbol
_atom_site_fract_x
_atom_site_fract_y
_atom_site_fract_z
O1 O 0.55343(13) 0.69914(10) 0.48984(10)
O2 O 0.51927(13) 0.59430(10) 0.31773(11)
O3 O 0.26722(13) 0.52381(10) 0.15355(11)
O4 O 0.32518(14) 0.67445(11) 0.30156(12)
N1 N 0.0819(2) 0.62776(18) 0.5913(2)
N2 N -0.0991(3) 0.13613(19) 0.1019(2)
C1 C 0.60636(18) 0.78585(14) 0.46833(14)
C2 C 0.70810(17) 0.79939(14) 0.45854(14)
C3 C 0.75724(18) 0.88282(14) 0.43108(14)
H1 H 0.8266 0.8926 0.4243
C4 C 0.70772(18) 0.95264(14) 0.41322(15)
C5 C 0.60480(18) 0.93489(14) 0.42226(14)
H2 H 0.5690 0.9811 0.4096
C6 C 0.55218(18) 0.85198(14) 0.44910(14)
C7 C 0.43394(18) 0.83328(15) 0.44981(15)
H3 H 0.4088 0.7716 0.4700
H4 H 0.4439 0.8849 0.4982
C8 C 0.33992(18) 0.82983(15) 0.34776(15)
C9 C 0.3038(2) 0.90568(16) 0.32580(16)
H5 H 0.3340 0.9588 0.3777
C10 C 0.2246(2) 0.90725(17) 0.23001(17)
C11 C 0.1854(2) 0.82908(17) 0.15572(16)
H6 H 0.1348 0.8297 0.0894
C12 C 0.21774(18) 0.75001(16) 0.17493(15)
C13 C 0.29283(18) 0.74943(15) 0.27236(15)
C14 C 0.17140(18) 0.66735(16) 0.09061(16)
H7 H 0.1112 0.6773 0.0299
H8 H 0.1312 0.6072 0.1063
C15 C 0.26802(18) 0.65581(15) 0.07011(15)
C16 C 0.31765(19) 0.71921(15) 0.02248(15)
H9 H 0.2879 0.7679 0.0008
C17 C 0.40909(19) 0.71357(15) 0.00577(15)
C18 C 0.45214(19) 0.64226(14) 0.04103(15)
H10 H 0.5155 0.6376 0.0314
C19 C 0.40650(18) 0.57816(14) 0.08941(14)
C20 C 0.31250(18) 0.58469(14) 0.10183(15)
C21 C 0.46522(19) 0.50822(14) 0.13418(15)
H11 H 0.4205 0.4668 0.1642
H12 H 0.4631 0.4666 0.0814
C22 C 0.59270(18) 0.56207(14) 0.21213(15)
C23 C 0.61634(18) 0.60921(14) 0.30367(15)
C24 C 0.73293(18) 0.66701(14) 0.37338(15)
C25 C 0.82445(19) 0.67524(15) 0.35040(16)
H13 H 0.9038 0.7141 0.3978
C26 C 0.8044(2) 0.62883(16) 0.26077(16)
C27 C 0.6868(2) 0.57219(15) 0.19309(16)
H14 H 0.6707 0.5393 0.1315
C28 C 0.76063(18) 0.72244(14) 0.47137(15)
H15 H 0.8481 0.7529 0.5129
H16 H 0.7288 0.6770 0.5066
C29 C 0.7618(2) 1.04185(15) 0.37948(17)
C30 C 0.7386(3) 1.0100(2) 0.2736(2)
H17 H 0.7722 1.0661 0.2502
H18 H 0.6527 0.9794 0.2297
H19 H 0.7762 0.9642 0.2734
C31 C 0.8952(3) 1.0891(2) 0.4467(2)
H20 H 0.9110 1.1042 0.5153
H21 H 0.9273 1.1483 0.4267
H22 H 0.9333 1.0453 0.4414
C32 C 0.7064(3) 1.1162(2) 0.3773(3)
H23 H 0.7173 1.1359 0.4435
H24 H 0.6212 1.0881 0.3303
H25 H 0.7453 1.1723 0.3568
C33 C 0.1885(3) 0.9938(2) 0.20908(19)
C34 C 0.0818(5) 0.9715(3) 0.1085(2)
H26 H 0.1017 0.9558 0.0571
H27 H 0.0594 1.0274 0.0985
H28 H 0.0150 0.9167 0.1046
C35 C 0.1591(3) 1.0261(3) 0.2870(2)
H29 H 0.1358 1.0811 0.2717
H30 H 0.2292 1.0446 0.3523
H31 H 0.0933 0.9733 0.2871
C36 C 0.2985(5) 1.0775(3) 0.2166(3)
H32 H 0.3186 1.0595 0.1661
H33 H 0.3663 1.0905 0.2824
H34 H 0.2798 1.1351 0.2060
C37 C 0.4636(2) 0.78120(16) -0.04836(17)
C38 C 0.6002(3) 0.8233(3) 0.0117(3)
H35 H 0.6334 0.8699 -0.0211
H36 H 0.6302 0.7716 0.0161
H37 H 0.6241 0.8553 0.0785
C39 C 0.4261(3) 0.7261(2) -0.1489(2)
H38 H 0.3392 0.7012 -0.1878
H39 H 0.4533 0.6725 -0.1408
H40 H 0.4616 0.7688 -0.1832
C40 C 0.4248(3) 0.8664(2) -0.0623(3)
H41 H 0.3383 0.8433 -0.1037
H42 H 0.4641 0.9088 -0.0945
H43 H 0.4470 0.9020 0.0024
C41 C 0.9038(2) 0.6429(2) 0.23256(18)
C42 C 1.0266(2) 0.7015(3) 0.3187(2)
H44 H 1.0292 0.7645 0.3403
H45 H 1.0873 0.7097 0.2972
H46 H 1.0423 0.6677 0.3737
C43 C 0.8832(3) 0.7000(2) 0.1486(2)
H47 H 0.8045 0.6647 0.0921
H48 H 0.9446 0.7086 0.1281
H49 H 0.8874 0.7630 0.1726
C44 C 0.9000(3) 0.5468(2) 0.1945(3)
H50 H 0.9154 0.5105 0.2475
H51 H 0.9608 0.5573 0.1729
H52 H 0.8212 0.5105 0.1385
C45 C 0.5851(2) 0.70270(15) 0.59295(15)
H53 H 0.5573 0.7476 0.6157
H54 H 0.6725 0.7249 0.6336
C46 C 0.5255(2) 0.60229(16) 0.60257(17)
H55 H 0.5476 0.6023 0.6732
H56 H 0.5562 0.5592 0.5811
C47 C 0.3901(2) 0.56222(16) 0.54237(17)
H57 H 0.3678 0.5753 0.4749
H58 H 0.3599 0.4917 0.5361
C48 C 0.3296(2) 0.60397(16) 0.58726(17)
H59 H 0.3543 0.5940 0.6559
H60 H 0.3548 0.6738 0.5895
C49 C 0.1952(2) 0.55625(19) 0.5264(2)
H61 H 0.1719 0.5640 0.4572
H62 H 0.1709 0.4867 0.5261
C50 C 0.1310(2) 0.59561(19) 0.5637(2)
C51 C 0.1754(2) 0.43308(16) 0.09228(17)
H63 H 0.2032 0.4030 0.0537
H64 H 0.1033 0.4430 0.0453
C52 C 0.1470(2) 0.36895(17) 0.15865(19)
H65 H 0.0856 0.3058 0.1176
H66 H 0.2195 0.3586 0.2042
C53 C 0.1031(3) 0.4104(2) 0.2180(2)
H67 H 0.0321 0.4223 0.1719
H68 H 0.1654 0.4731 0.2593
C54 C 0.0703(3) 0.3481(2) 0.28549(19)
H69 H 0.0805 0.3902 0.3423
H70 H 0.1261 0.3147 0.3119
C55 C -0.0572(3) 0.2735(2) 0.2336(2)
H71 H -0.0769 0.2459 0.2844
H72 H -0.1120 0.3063 0.2002
C56 C -0.0784(2) 0.19544(19) 0.1608(2)
H73 H 0.533(2) 0.6223(18) 0.3705(19)
H74 H 0.305(3) 0.633(2) 0.255(2)
C57? C 0.874(3) 1.034(3) 0.357(3)
H75? H 0.8418 0.9758 0.3063
H76? H 0.9378 1.0298 0.4180
H77? H 0.9052 1.0903 0.3332
C58? C 0.843(4) 1.125(3) 0.478(3)
H78? H 0.8949 1.1796 0.4660
H79? H 0.8913 1.0999 0.5321
H80? H 0.7914 1.1451 0.4970
C59? C 0.686(4) 1.062(3) 0.298(3)
H81? H 0.7095 1.1316 0.3051
H82? H 0.6050 1.0335 0.2904
H83? H 0.6874 1.0351 0.2398
loop_
_geom_bond_atom_site_label_1
_geom_bond_atom_site_label_2
_geom_bond_site_symmetry_1
_geom_bond_site_symmetry_2
O1 C1 1_555 1_555
O2 C23 1_555 1_555
O3 C20 1_555 1_555
O4 C13 1_555 1_555
N1 C50 1_555 1_555
N2 C56 1_555 1_555
C1 C2 1_555 1_555
C2 C3 1_555 1_555
C3 H1 1_555 1_555
C4 C3 1_555 1_555
C5 C4 1_555 1_555
H2 C5 1_555 1_555
C6 C1 1_555 1_555
C7 C6 1_555 1_555
H3 C7 1_555 1_555
H4 C7 1_555 1_555
C8 C7 1_555 1_555
C9 C8 1_555 1_555
H5 C9 1_555 1_555
C10 C9 1_555 1_555
C11 C10 1_555 1_555
H6 C11 1_555 1_555
C12 C11 1_555 1_555
C13 C8 1_555 1_555
C14 C12 1_555 1_555
H7 C14 1_555 1_555
H8 C14 1_555 1_555
C15 C14 1_555 1_555
C16 C15 1_555 1_555
H9 C16 1_555 1_555
C17 C16 1_555 1_555
C18 C17 1_555 1_555
H10 C18 1_555 1_555
C19 C18 1_555 1_555
C20 C15 1_555 1_555
C21 C19 1_555 1_555
H11 C21 1_555 1_555
H12 C21 1_555 1_555
C22 C21 1_555 1_555
C23 C22 1_555 1_555
C24 C23 1_555 1_555
C25 C24 1_555 1_555
H13 C25 1_555 1_555
C26 C25 1_555 1_555
C27 C22 1_555 1_555
H14 C27 1_555 1_555
C28 C2 1_555 1_555
H15 C28 1_555 1_555
H16 C28 1_555 1_555
C29 C4 1_555 1_555
C30 C29 1_555 1_555
H17 C30 1_555 1_555
H18 C30 1_555 1_555
H19 C30 1_555 1_555
C31 C29 1_555 1_555
H20 C31 1_555 1_555
H21 C31 1_555 1_555
H22 C31 1_555 1_555
C32 C29 1_555 1_555
H23 C32 1_555 1_555
H24 C32 1_555 1_555
H25 C32 1_555 1_555
C33 C10 1_555 1_555
C34 C33 1_555 1_555
H26 C34 1_555 1_555
H27 C34 1_555 1_555
H28 C34 1_555 1_555
C35 C33 1_555 1_555
H29 C35 1_555 1_555
H30 C35 1_555 1_555
H31 C35 1_555 1_555
C36 C33 1_555 1_555
H32 C36 1_555 1_555
H33 C36 1_555 1_555
H34 C36 1_555 1_555
C37 C17 1_555 1_555
C38 C37 1_555 1_555
H35 C38 1_555 1_555
H36 C38 1_555 1_555
H37 C38 1_555 1_555
C39 C37 1_555 1_555
H38 C39 1_555 1_555
H39 C39 1_555 1_555
H40 C39 1_555 1_555
C40 C37 1_555 1_555
H41 C40 1_555 1_555
H42 C40 1_555 1_555
H43 C40 1_555 1_555
C41 C26 1_555 1_555
C42 C41 1_555 1_555
H44 C42 1_555 1_555
H45 C42 1_555 1_555
H46 C42 1_555 1_555
C43 C41 1_555 1_555
H47 C43 1_555 1_555
H48 C43 1_555 1_555
H49 C43 1_555 1_555
C44 C41 1_555 1_555
H50 C44 1_555 1_555
H51 C44 1_555 1_555
H52 C44 1_555 1_555
C45 O1 1_555 1_555
H53 C45 1_555 1_555
H54 C45 1_555 1_555
C46 C45 1_555 1_555
H55 C46 1_555 1_555
H56 C46 1_555 1_555
C47 C46 1_555 1_555
H57 C47 1_555 1_555
H58 C47 1_555 1_555
C48 C47 1_555 1_555
H59 C48 1_555 1_555
H60 C48 1_555 1_555
C49 C48 1_555 1_555
H61 C49 1_555 1_555
H62 C49 1_555 1_555
C50 C49 1_555 1_555
C51 O3 1_555 1_555
H63 C51 1_555 1_555
H64 C51 1_555 1_555
C52 C51 1_555 1_555
H65 C52 1_555 1_555
H66 C52 1_555 1_555
C53 C52 1_555 1_555
H67 C53 1_555 1_555
H68 C53 1_555 1_555
C54 C53 1_555 1_555
H69 C54 1_555 1_555
H70 C54 1_555 1_555
C55 C54 1_555 1_555
H71 C55 1_555 1_555
H72 C55 1_555 1_555
C56 C55 1_555 1_555
H73 O2 1_555 1_555
H74 O4 1_555 1_555
C5 C6 1_555 1_555
C12 C13 1_555 1_555
C19 C20 1_555 1_555
C24 C28 1_555 1_555
C26 C27 1_555 1_555

#END
