
#######################################################################
#
#                 Cambridge Crystallographic Data Centre
#                                CCDC 
#
#######################################################################
#
# If this CIF has been generated from an entry in the Cambridge 
# Structural Database, then it will include bibliographic, chemical, 
# crystal, experimental, refinement or atomic coordinate data resulting 
# from the CCDC's data processing and validation procedures.
#
#######################################################################

data_WOHGOR
_chemical_formula_moiety         'C28 H22 N2'
_chemical_name_systematic        
2-(3-methyl-2,4,5-triphenyl-1H-pyrrol-1-yl)pyridine
_symmetry_cell_setting           monoclinic
_symmetry_space_group_name_H-M   'P 21/c'
_symmetry_Int_Tables_number      14
_space_group_name_Hall           '-P 2ybc'
loop_
_symmetry_equiv_pos_site_id
_symmetry_equiv_pos_as_xyz
1 x,y,z
2 -x,1/2+y,1/2-z
3 -x,-y,-z
4 x,1/2-y,1/2+z
_cell_length_a                   12.208(2)
_cell_length_b                   9.4997(19)
_cell_length_c                   19.300(7)
_cell_angle_alpha                90
_cell_angle_beta                 109.62(3)
_cell_angle_gamma                90
_cell_volume                     2108.31
_exptl_crystal_colour            colorless
_exptl_crystal_description       Plane
_cell_formula_units_Z            4
_chemical_properties_physical    Heat-sensitive
_exptl_crystal_recrystallization_method 'Vapour Deposition'
loop_
_atom_site_label
_atom_site_type_symbol
_atom_site_fract_x
_atom_site_fract_y
_atom_site_fract_z
N1 N 0.2100(2) -0.2253(2) -0.12453(11)
N2 N 0.3306(3) -0.0726(3) -0.02713(15)
C1 C 0.2518(2) -0.2208(3) -0.18342(13)
C2 C 0.1548(2) -0.2155(3) -0.24753(14)
C3 C 0.0557(2) -0.2167(3) -0.22724(13)
C4 C 0.0909(2) -0.2228(2) -0.15126(11)
C5 C 0.1548(3) -0.2223(4) -0.32500(14)
H1 H 0.0813 -0.2576 -0.3565
H2 H 0.2159 -0.2838 -0.3273
H3 H 0.1674 -0.1297 -0.3409
C6 C 0.2780(2) -0.2008(3) -0.04769(13)
C7 C 0.2889(3) -0.3025(3) 0.00203(14)
H4 H 0.2538 -0.3896 -0.0122
C8 C 0.3519(3) -0.2769(4) 0.07358(18)
H5 H 0.3579 -0.3473 0.1082
C9 C 0.4057(3) -0.1536(3) 0.09611(16)
H6 H 0.4492 -0.1395 0.1454
C10 C 0.3959(3) -0.0514(4) 0.04676(17)
H7 H 0.4329 0.0345 0.0618
C11 C 0.0181(2) -0.2103(3) -0.10621(13)
C12 C 0.0120(3) -0.3161(3) -0.06222(19)
H8 H 0.0550 -0.3976 -0.0604
C13 C -0.0572(3) -0.3044(4) -0.0201(2)
H9 H -0.0599 -0.3780 0.0111
C14 C -0.1225(3) -0.1877(4) -0.02247(18)
H10 H -0.1704 -0.1816 0.0061
C15 C -0.1165(4) -0.0806(4) -0.0671(2)
H11 H -0.1596 0.0009 -0.0688
C16 C -0.0469(3) -0.0918(4) -0.10992(18)
H12 H -0.0441 -0.0188 -0.1414
C17 C 0.3744(2) -0.2300(3) -0.17709(14)
C18 C 0.4167(3) -0.1490(3) -0.22278(16)
H13 H 0.3672 -0.0867 -0.2559
C19 C 0.5309(3) -0.1597(5) -0.2195(2)
H14 H 0.5580 -0.1050 -0.2503
C20 C 0.6042(4) -0.2510(5) -0.1709(3)
H15 H 0.6807 -0.2600 -0.1696
C21 C 0.5659(3) -0.3289(4) -0.1242(2)
H16 H 0.6168 -0.3886 -0.0902
C22 C 0.4513(3) -0.3188(3) -0.12764(18)
H17 H 0.4255 -0.3730 -0.0960
C23 C -0.0671(2) -0.2152(3) -0.27519(13)
C24 C -0.1455(3) -0.3164(3) -0.27066(15)
H18 H -0.1210 -0.3877 -0.2359
C25 C -0.2586(3) -0.3135(3) -0.31641(17)
H19 H -0.3104 -0.3817 -0.3118
C26 C -0.2964(3) -0.2109(3) -0.36906(17)
H20 H -0.3733 -0.2094 -0.4003
C27 C -0.2198(3) -0.1110(3) -0.37503(18)
H21 H -0.2445 -0.0415 -0.4109
C28 C -0.1064(3) -0.1123(3) -0.32845(15)
H22 H -0.0554 -0.0430 -0.3328
loop_
_geom_bond_atom_site_label_1
_geom_bond_atom_site_label_2
_geom_bond_site_symmetry_1
_geom_bond_site_symmetry_2
N1 C1 1_555 1_555
N2 C6 1_555 1_555
C1 C2 1_555 1_555
C2 C3 1_555 1_555
C3 C4 1_555 1_555
C4 N1 1_555 1_555
C5 C2 1_555 1_555
H1 C5 1_555 1_555
H2 C5 1_555 1_555
H3 C5 1_555 1_555
C6 N1 1_555 1_555
C7 C6 1_555 1_555
H4 C7 1_555 1_555
C8 C7 1_555 1_555
H5 C8 1_555 1_555
C9 C8 1_555 1_555
H6 C9 1_555 1_555
C10 N2 1_555 1_555
H7 C10 1_555 1_555
C11 C4 1_555 1_555
C12 C11 1_555 1_555
H8 C12 1_555 1_555
C13 C12 1_555 1_555
H9 C13 1_555 1_555
C14 C13 1_555 1_555
H10 C14 1_555 1_555
C15 C14 1_555 1_555
H11 C15 1_555 1_555
C16 C11 1_555 1_555
H12 C16 1_555 1_555
C17 C1 1_555 1_555
C18 C17 1_555 1_555
H13 C18 1_555 1_555
C19 C18 1_555 1_555
H14 C19 1_555 1_555
C20 C19 1_555 1_555
H15 C20 1_555 1_555
C21 C20 1_555 1_555
H16 C21 1_555 1_555
C22 C17 1_555 1_555
H17 C22 1_555 1_555
C23 C3 1_555 1_555
C24 C23 1_555 1_555
H18 C24 1_555 1_555
C25 C24 1_555 1_555
H19 C25 1_555 1_555
C26 C25 1_555 1_555
H20 C26 1_555 1_555
C27 C26 1_555 1_555
H21 C27 1_555 1_555
C28 C23 1_555 1_555
H22 C28 1_555 1_555
C9 C10 1_555 1_555
C15 C16 1_555 1_555
C21 C22 1_555 1_555
C27 C28 1_555 1_555

#END
