
#######################################################################
#
#                 Cambridge Crystallographic Data Centre
#                                CCDC 
#
#######################################################################
#
# If this CIF has been generated from an entry in the Cambridge 
# Structural Database, then it will include bibliographic, chemical, 
# crystal, experimental, refinement or atomic coordinate data resulting 
# from the CCDC's data processing and validation procedures.
#
#######################################################################

data_WOHGAD
_chemical_name_common            
'25,27-dihydroxy-26,28-bis(3-cyanopropoxy)calix(4)arene dichloromethane solvate'
_chemical_formula_moiety         'C36 H34 N2 O4,C1 H2 Cl2'
_chemical_name_systematic        
"4,4'-((26,28-dihydroxypentacyclo[19.3.1.1^3,7^.1^9,13^.1^15,19^]octacosa-1(25),3(28),4,6,9(27),10,12,15(26),16,18,21,23-dodecaene-25,27-diyl)bis(oxy))dibutanenitrile dichloromethane solvate"
_symmetry_cell_setting           orthorhombic
_symmetry_space_group_name_H-M   'P 21 21 21'
_symmetry_Int_Tables_number      19
_space_group_name_Hall           'P 2ac 2ab'
loop_
_symmetry_equiv_pos_site_id
_symmetry_equiv_pos_as_xyz
1 x,y,z
2 1/2-x,-y,1/2+z
3 1/2+x,1/2-y,-z
4 -x,1/2+y,1/2-z
_cell_length_a                   10.0646(11)
_cell_length_b                   15.6235(17)
_cell_length_c                   20.246(2)
_cell_angle_alpha                90
_cell_angle_beta                 90
_cell_angle_gamma                90
_cell_volume                     3183.57
_exptl_crystal_colour            colorless
_exptl_crystal_description       block
_cell_formula_units_Z            4
loop_
_atom_site_label
_atom_site_type_symbol
_atom_site_fract_x
_atom_site_fract_y
_atom_site_fract_z
Cl1 Cl 0.29631(11) 0.67079(6) 0.86204(5)
Cl2 Cl 0.27749(11) 0.77298(7) 0.74173(5)
C1 C 0.2677(4) 0.6696(2) 0.77609(17)
H1 H 0.3343 0.6322 0.7546
H2 H 0.1786 0.6454 0.7673
O1 O 0.3978(2) 0.43481(15) 0.65319(12)
O2 O 0.1816(3) 0.42732(18) 0.73676(13)
O3 O -0.0438(2) 0.50232(15) 0.66725(11)
O4 O 0.1901(3) 0.54750(16) 0.60551(13)
N1 N 0.1141(4) 0.2223(2) 0.51439(17)
N2 N -0.2543(5) 0.4837(3) 0.4624(2)
C2 C 0.4697(4) 0.4984(2) 0.68566(18)
C3 C 0.5002(3) 0.5733(2) 0.65174(18)
C4 C 0.5723(4) 0.6360(3) 0.68571(19)
H3 H 0.5957 0.6877 0.6639
C5 C 0.6098(4) 0.6236(3) 0.7506(2)
H4 H 0.6606 0.6661 0.7728
C6 C 0.5738(4) 0.5494(3) 0.7836(2)
H5 H 0.5990 0.5419 0.8284
C7 C 0.5016(4) 0.4861(2) 0.75217(19)
C8 C 0.4507(4) 0.4092(2) 0.79071(19)
H6 H 0.4295 0.3625 0.7594
H7 H 0.5219 0.3886 0.8205
C9 C 0.3287(4) 0.4294(2) 0.83121(18)
C10 C 0.2040(4) 0.4397(2) 0.80271(16)
C11 C 0.0925(4) 0.4604(2) 0.84077(17)
C12 C 0.1081(4) 0.4716(2) 0.90782(18)
H8 H 0.0330 0.4852 0.9343
C13 C 0.2330(4) 0.4633(2) 0.93757(18)
H9 H 0.2430 0.4726 0.9837
C14 C 0.3414(4) 0.4414(2) 0.89935(19)
H10 H 0.4258 0.4345 0.9196
C15 C -0.0430(4) 0.4713(2) 0.80808(18)
H11 H -0.0538 0.4274 0.7732
H12 H -0.1136 0.4622 0.8414
C16 C -0.0586(3) 0.5597(2) 0.77782(17)
C17 C -0.0691(4) 0.6314(2) 0.81791(18)
H13 H -0.0724 0.6244 0.8645
C18 C -0.0749(4) 0.7129(3) 0.79124(19)
H14 H -0.0853 0.7610 0.8194
C19 C -0.0655(3) 0.7244(2) 0.72359(18)
H15 H -0.0673 0.7805 0.7057
C20 C -0.0533(4) 0.6540(2) 0.68150(18)
C21 C -0.0542(3) 0.5730(2) 0.70965(17)
C22 C -0.0336(4) 0.6681(2) 0.60806(18)
H16 H -0.0939 0.7142 0.5930
H17 H -0.0577 0.6151 0.5841
C23 C 0.1097(4) 0.6924(2) 0.59102(17)
C24 C 0.1411(4) 0.7770(3) 0.57493(18)
H18 H 0.0729 0.8190 0.5739
C25 C 0.2695(4) 0.8001(2) 0.56062(18)
H19 H 0.2894 0.8579 0.5496
C26 C 0.3696(4) 0.7401(3) 0.56212(18)
H20 H 0.4578 0.7570 0.5519
C27 C 0.3444(4) 0.6555(2) 0.57819(17)
C28 C 0.2123(4) 0.6327(2) 0.59251(16)
C29 C 0.4545(4) 0.5896(3) 0.58134(18)
H21 H 0.5309 0.6098 0.5547
H22 H 0.4226 0.5353 0.5618
C30 C 0.4785(4) 0.3678(2) 0.62495(19)
H23 H 0.5402 0.3446 0.6585
H24 H 0.5314 0.3904 0.5876
C31 C 0.3852(4) 0.2989(2) 0.60132(19)
H25 H 0.3271 0.2805 0.6382
H26 H 0.4369 0.2487 0.5863
C32 C 0.3001(4) 0.3324(2) 0.54455(18)
H27 H 0.2584 0.3873 0.5575
H28 H 0.3570 0.3431 0.5055
C33 C 0.1951(5) 0.2697(3) 0.52710(18)
C34 C -0.1701(4) 0.4666(2) 0.64782(19)
H29 H -0.2216 0.5091 0.6222
H30 H -0.2223 0.4505 0.6874
C35 C -0.1426(4) 0.3886(2) 0.60615(19)
H31 H -0.2268 0.3569 0.5998
H32 H -0.0808 0.3507 0.6305
C36 C -0.0837(4) 0.4080(3) 0.5392(2)
H33 H -0.0038 0.4442 0.5450
H34 H -0.0553 0.3538 0.5182
C37 C -0.1774(5) 0.4518(3) 0.4954(2)
H35 H 0.241(5) 0.422(3) 0.713(2)
H36 H 0.117(5) 0.533(3) 0.620(3)
loop_
_geom_bond_atom_site_label_1
_geom_bond_atom_site_label_2
_geom_bond_site_symmetry_1
_geom_bond_site_symmetry_2
Cl1 C1 1_555 1_555
Cl2 C1 1_555 1_555
C1 H1 1_555 1_555
H2 C1 1_555 1_555
O1 C2 1_555 1_555
O2 C10 1_555 1_555
O3 C21 1_555 1_555
O4 C28 1_555 1_555
N1 C33 1_555 1_555
N2 C37 1_555 1_555
C2 C3 1_555 1_555
C3 C4 1_555 1_555
C4 H3 1_555 1_555
C5 C4 1_555 1_555
H4 C5 1_555 1_555
C6 C5 1_555 1_555
H5 C6 1_555 1_555
C7 C2 1_555 1_555
C8 C7 1_555 1_555
H6 C8 1_555 1_555
H7 C8 1_555 1_555
C9 C8 1_555 1_555
C10 C9 1_555 1_555
C11 C10 1_555 1_555
C12 C11 1_555 1_555
H8 C12 1_555 1_555
C13 C12 1_555 1_555
H9 C13 1_555 1_555
C14 C9 1_555 1_555
H10 C14 1_555 1_555
C15 C11 1_555 1_555
H11 C15 1_555 1_555
H12 C15 1_555 1_555
C16 C15 1_555 1_555
C17 C16 1_555 1_555
H13 C17 1_555 1_555
C18 C17 1_555 1_555
H14 C18 1_555 1_555
C19 C18 1_555 1_555
H15 C19 1_555 1_555
C20 C19 1_555 1_555
C21 C16 1_555 1_555
C22 C20 1_555 1_555
H16 C22 1_555 1_555
H17 C22 1_555 1_555
C23 C22 1_555 1_555
C24 C23 1_555 1_555
H18 C24 1_555 1_555
C25 C24 1_555 1_555
H19 C25 1_555 1_555
C26 C25 1_555 1_555
H20 C26 1_555 1_555
C27 C26 1_555 1_555
C28 C23 1_555 1_555
C29 C3 1_555 1_555
H21 C29 1_555 1_555
H22 C29 1_555 1_555
C30 O1 1_555 1_555
H23 C30 1_555 1_555
H24 C30 1_555 1_555
C31 C30 1_555 1_555
H25 C31 1_555 1_555
H26 C31 1_555 1_555
C32 C31 1_555 1_555
H27 C32 1_555 1_555
H28 C32 1_555 1_555
C33 C32 1_555 1_555
C34 O3 1_555 1_555
H29 C34 1_555 1_555
H30 C34 1_555 1_555
C35 C34 1_555 1_555
H31 C35 1_555 1_555
H32 C35 1_555 1_555
C36 C35 1_555 1_555
H33 C36 1_555 1_555
H34 C36 1_555 1_555
C37 C36 1_555 1_555
H35 O2 1_555 1_555
H36 O4 1_555 1_555
C6 C7 1_555 1_555
C13 C14 1_555 1_555
C20 C21 1_555 1_555
C27 C28 1_555 1_555
C27 C29 1_555 1_555

#END
