
#######################################################################
#
#                 Cambridge Crystallographic Data Centre
#                                CCDC 
#
#######################################################################
#
# If this CIF has been generated from an entry in the Cambridge 
# Structural Database, then it will include bibliographic, chemical, 
# crystal, experimental, refinement or atomic coordinate data resulting 
# from the CCDC's data processing and validation procedures.
#
#######################################################################

data_WOJCII
_chemical_formula_moiety         'C28 H18 O4 S1'
_chemical_name_systematic        
'Diethyl benzoperyl(7,8-b,c,d)thiophene-1,2-dicarboxylate'
_symmetry_cell_setting           triclinic
_symmetry_space_group_name_H-M   'P -1'
_symmetry_Int_Tables_number      2
_space_group_name_Hall           '-P 1'
loop_
_symmetry_equiv_pos_site_id
_symmetry_equiv_pos_as_xyz
1 x,y,z
2 -x,-y,-z
_cell_length_a                   9.3222(12)
_cell_length_b                   14.3723(15)
_cell_length_c                   16.7277(18)
_cell_angle_alpha                106.279(6)
_cell_angle_beta                 106.131(7)
_cell_angle_gamma                90.882(5)
_cell_volume                     2056.05
_exptl_crystal_colour            orange
_exptl_crystal_description       platelet
_chemical_melting_point          225-226deg.C
_cell_formula_units_Z            4
loop_
_atom_site_label
_atom_site_type_symbol
_atom_site_fract_x
_atom_site_fract_y
_atom_site_fract_z
S1 S 0.72741(12) 0.21632(7) 0.45477(7)
O1 O 0.6241(3) 0.89612(19) 0.55845(17)
O2 O 0.6264(3) 0.84060(18) 0.41839(17)
O3 O 0.9925(3) 0.88008(19) 0.70216(17)
O4 O 0.9536(3) 0.90137(18) 0.56945(16)
C1 C 0.6118(4) 0.2973(3) 0.4103(2)
C2 C 0.4764(5) 0.2828(3) 0.3443(2)
H1 H 0.4289 0.2188 0.3135
C3 C 0.4119(4) 0.3629(3) 0.3240(2)
H2 H 0.3197 0.3522 0.2789
C4 C 0.4780(4) 0.4601(3) 0.3678(2)
C5 C 0.4178(4) 0.5466(3) 0.3511(2)
H3 H 0.3244 0.5411 0.3079
C6 C 0.4928(4) 0.6366(3) 0.3965(2)
H4 H 0.4494 0.6920 0.3836
C7 C 0.6341(4) 0.6513(3) 0.4627(2)
C8 C 0.7189(4) 0.7438(3) 0.5114(2)
C9 C 0.8533(4) 0.7524(3) 0.5758(2)
C10 C 0.9147(4) 0.6686(3) 0.5970(2)
C11 C 1.0527(4) 0.6716(3) 0.6633(2)
H5 H 1.1074 0.7330 0.6967
C12 C 1.1082(4) 0.5889(3) 0.6799(2)
H6 H 1.2000 0.5942 0.7243
C13 C 1.0297(4) 0.4946(3) 0.6314(2)
C14 C 1.0781(4) 0.4038(3) 0.6420(2)
H7 H 1.1699 0.4048 0.6850
C15 C 0.9984(5) 0.3148(3) 0.5930(2)
H8 H 1.0351 0.2560 0.6018
C16 C 0.8607(4) 0.3129(3) 0.5293(2)
C17 C 0.8141(4) 0.4009(3) 0.5183(2)
C18 C 0.6780(4) 0.3917(3) 0.4529(2)
C19 C 0.6154(4) 0.4742(3) 0.4340(2)
C20 C 0.6956(4) 0.5681(3) 0.4823(2)
C21 C 0.8335(4) 0.5771(3) 0.5490(2)
C22 C 0.8933(4) 0.4912(3) 0.5673(2)
C23 C 0.6521(4) 0.8353(3) 0.5002(2)
C24 C 0.5529(5) 0.9255(3) 0.4025(3)
H9 H 0.6181 0.9861 0.4390
H10 H 0.4570 0.9276 0.4173
C25 C 0.5244(5) 0.9167(3) 0.3077(3)
H11 H 0.4749 0.9727 0.2950
H12 H 0.4597 0.8565 0.2723
H13 H 0.6201 0.9150 0.2940
C26 C 0.9392(4) 0.8507(3) 0.6238(2)
C27 C 1.0294(5) 1.0007(3) 0.6136(3)
H14 H 1.0789 1.0213 0.5753
H15 H 1.1076 1.0013 0.6677
C28 C 0.9186(5) 1.0707(3) 0.6355(3)
H16 H 0.9707 1.1363 0.6648
H17 H 0.8706 1.0507 0.6741
H18 H 0.8420 1.0708 0.5818
S2 S 0.66630(12) 0.20741(7) 0.96814(7)
O5 O 0.9892(3) 0.8620(2) 1.0100(2)
O6 O 0.8096(3) 0.7923(2) 0.88257(19)
O7 O 0.8051(4) 0.8773(2) 1.18985(18)
O8 O 0.7134(3) 0.90056(19) 1.05763(18)
C29 C 0.7546(5) 0.2755(3) 0.9184(3)
C30 C 0.8241(5) 0.2489(3) 0.8520(3)
H19 H 0.8325 0.1823 0.8254
C31 C 0.8798(4) 0.3211(3) 0.8261(3)
H20 H 0.9245 0.3022 0.7802
C32 C 0.8745(4) 0.4228(3) 0.8642(2)
C33 C 0.9328(4) 0.5012(3) 0.8411(2)
H21 H 0.9814 0.4868 0.7967
C34 C 0.9200(4) 0.5961(3) 0.8816(3)
H22 H 0.9598 0.6459 0.8642
C35 C 0.8475(4) 0.6237(3) 0.9502(2)
C36 C 0.8300(4) 0.7207(3) 0.9938(2)
C37 C 0.7677(4) 0.7426(3) 1.0621(2)
C38 C 0.7133(4) 0.6654(3) 1.0899(2)
C39 C 0.6407(4) 0.6809(3) 1.1575(2)
H23 H 0.6321 0.7459 1.1888
C40 C 0.5839(4) 0.6062(3) 1.1783(2)
H24 H 0.5365 0.6200 1.2231
C41 C 0.5944(4) 0.5062(3) 1.1334(2)
C42 C 0.5387(4) 0.4222(3) 1.1491(2)
H25 H 0.4885 0.4313 1.1926
C43 C 0.5541(4) 0.3286(3) 1.1045(3)
H26 H 0.5158 0.2747 1.1174
C44 C 0.6271(4) 0.3135(3) 1.0397(2)
C45 C 0.6817(4) 0.3952(3) 1.0233(2)
C46 C 0.7509(4) 0.3751(3) 0.9574(2)
C47 C 0.8075(4) 0.4491(3) 0.9323(2)
C48 C 0.7945(4) 0.5476(3) 0.9761(2)
C49 C 0.7256(4) 0.5691(3) 1.0450(2)
C50 C 0.6675(4) 0.4914(3) 1.0686(2)
C51 C 0.8861(4) 0.8012(3) 0.9656(3)
C52 C 0.8654(6) 0.8554(4) 0.8398(3)
H27 H 0.8489 0.8195 0.7776
H28 H 0.9747 0.8730 0.8673
C53 C 0.7882(6) 0.9454(3) 0.8466(3)
H29 H 0.8277 0.9861 0.8178
H30 H 0.8055 0.9814 0.9082
H31 H 0.6802 0.9281 0.8183
C54 C 0.7636(4) 0.8459(3) 1.1111(3)
C55 C 0.7417(5) 1.0065(3) 1.0992(3)
H32 H 0.7570 1.0388 1.0568
H33 H 0.8345 1.0212 1.1489
C56 C 0.6138(6) 1.0458(3) 1.1309(3)
H34 H 0.6357 1.1164 1.1582
H35 H 0.5997 1.0148 1.1738
H36 H 0.5222 1.0322 1.0817
loop_
_geom_bond_atom_site_label_1
_geom_bond_atom_site_label_2
_geom_bond_site_symmetry_1
_geom_bond_site_symmetry_2
S1 C1 1_555 1_555
S2 C29 1_555 1_555
O1 C23 1_555 1_555
O2 C23 1_555 1_555
O3 C26 1_555 1_555
O4 C26 1_555 1_555
O5 C51 1_555 1_555
O6 C51 1_555 1_555
O7 C54 1_555 1_555
O8 C54 1_555 1_555
C1 C2 1_555 1_555
C2 H1 1_555 1_555
C3 C2 1_555 1_555
H2 C3 1_555 1_555
C4 C3 1_555 1_555
C5 C4 1_555 1_555
H3 C5 1_555 1_555
C6 C5 1_555 1_555
H4 C6 1_555 1_555
C7 C6 1_555 1_555
C8 C7 1_555 1_555
C9 C8 1_555 1_555
C10 C9 1_555 1_555
C11 C10 1_555 1_555
H5 C11 1_555 1_555
C12 C11 1_555 1_555
H6 C12 1_555 1_555
C13 C12 1_555 1_555
C14 C13 1_555 1_555
H7 C14 1_555 1_555
C15 C14 1_555 1_555
H8 C15 1_555 1_555
C16 S1 1_555 1_555
C17 C16 1_555 1_555
C18 C1 1_555 1_555
C19 C4 1_555 1_555
C20 C7 1_555 1_555
C21 C10 1_555 1_555
C22 C13 1_555 1_555
C23 C8 1_555 1_555
C24 O2 1_555 1_555
H9 C24 1_555 1_555
H10 C24 1_555 1_555
C25 C24 1_555 1_555
H11 C25 1_555 1_555
H12 C25 1_555 1_555
H13 C25 1_555 1_555
C26 C9 1_555 1_555
C27 O4 1_555 1_555
H14 C27 1_555 1_555
H15 C27 1_555 1_555
C28 C27 1_555 1_555
H16 C28 1_555 1_555
H17 C28 1_555 1_555
H18 C28 1_555 1_555
C29 C30 1_555 1_555
C30 H19 1_555 1_555
C31 C30 1_555 1_555
H20 C31 1_555 1_555
C32 C31 1_555 1_555
C33 C32 1_555 1_555
H21 C33 1_555 1_555
C34 C33 1_555 1_555
H22 C34 1_555 1_555
C35 C34 1_555 1_555
C36 C35 1_555 1_555
C37 C36 1_555 1_555
C38 C37 1_555 1_555
C39 C38 1_555 1_555
H23 C39 1_555 1_555
C40 C39 1_555 1_555
H24 C40 1_555 1_555
C41 C40 1_555 1_555
C42 C41 1_555 1_555
H25 C42 1_555 1_555
C43 C42 1_555 1_555
H26 C43 1_555 1_555
C44 S2 1_555 1_555
C45 C44 1_555 1_555
C46 C29 1_555 1_555
C47 C32 1_555 1_555
C48 C35 1_555 1_555
C49 C38 1_555 1_555
C50 C41 1_555 1_555
C51 C36 1_555 1_555
C52 O6 1_555 1_555
H27 C52 1_555 1_555
H28 C52 1_555 1_555
C53 C52 1_555 1_555
H29 C53 1_555 1_555
H30 C53 1_555 1_555
H31 C53 1_555 1_555
C54 C37 1_555 1_555
C55 O8 1_555 1_555
H32 C55 1_555 1_555
H33 C55 1_555 1_555
C56 C55 1_555 1_555
H34 C56 1_555 1_555
H35 C56 1_555 1_555
H36 C56 1_555 1_555
C15 C16 1_555 1_555
C17 C18 1_555 1_555
C17 C22 1_555 1_555
C18 C19 1_555 1_555
C19 C20 1_555 1_555
C20 C21 1_555 1_555
C21 C22 1_555 1_555
C43 C44 1_555 1_555
C45 C46 1_555 1_555
C45 C50 1_555 1_555
C46 C47 1_555 1_555
C47 C48 1_555 1_555
C48 C49 1_555 1_555
C49 C50 1_555 1_555

#END
