
#######################################################################
#
#                 Cambridge Crystallographic Data Centre
#                                CCDC 
#
#######################################################################
#
# If this CIF has been generated from an entry in the Cambridge 
# Structural Database, then it will include bibliographic, chemical, 
# crystal, experimental, refinement or atomic coordinate data resulting 
# from the CCDC's data processing and validation procedures.
#
#######################################################################

data_WOJCOO
_chemical_formula_moiety         'C20 H10 Se1'
_chemical_name_systematic        Perylo(1,12-b,c,d)selenophane
_symmetry_cell_setting           monoclinic
_symmetry_space_group_name_H-M   'P 21/c'
_symmetry_Int_Tables_number      14
_space_group_name_Hall           '-P 2ybc'
loop_
_symmetry_equiv_pos_site_id
_symmetry_equiv_pos_as_xyz
1 x,y,z
2 -x,1/2+y,1/2-z
3 -x,-y,-z
4 x,1/2-y,1/2+z
_cell_length_a                   18.073(6)
_cell_length_b                   4.4289(13)
_cell_length_c                   17.102(5)
_cell_angle_alpha                90
_cell_angle_beta                 113.396(3)
_cell_angle_gamma                90
_cell_volume                     1256.36
_exptl_crystal_colour            orange
_exptl_crystal_description       prism
_chemical_melting_point          270-271.5deg.C
_cell_formula_units_Z            4
loop_
_atom_site_label
_atom_site_type_symbol
_atom_site_fract_x
_atom_site_fract_y
_atom_site_fract_z
Se1 Se 0.540614(12) 0.47350(4) 0.423135(12)
C1 C 0.61137(11) 0.6702(4) 0.38209(12)
C2 C 0.59416(12) 0.8660(4) 0.31196(12)
H1 H 0.5400 0.9158 0.2764
C3 C 0.65703(14) 0.9827(4) 0.29618(13)
H2 H 0.6455 1.1134 0.2487
C4 C 0.73912(12) 0.9161(4) 0.34810(13)
C5 C 0.80514(14) 1.0357(4) 0.33431(14)
H3 H 0.7962 1.1677 0.2876
C6 C 0.88259(14) 0.9618(4) 0.38821(14)
H4 H 0.9265 1.0445 0.3781
C7 C 0.89836(12) 0.7675(4) 0.45776(12)
H5 H 0.9526 0.7216 0.4939
C8 C 0.83596(12) 0.6412(4) 0.47460(12)
C9 C 0.84816(12) 0.4307(4) 0.54638(12)
C10 C 0.92269(12) 0.3397(4) 0.60444(12)
H6 H 0.9699 0.4153 0.5996
C11 C 0.93035(12) 0.1384(4) 0.67030(12)
H7 H 0.9827 0.0804 0.7091
C12 C 0.86412(14) 0.0224(4) 0.68036(13)
H8 H 0.8709 -0.1156 0.7252
C13 C 0.78609(12) 0.1088(4) 0.62396(12)
C14 C 0.71401(14) 0.0040(4) 0.63059(13)
H9 H 0.7184 -0.1344 0.6747
C15 C 0.63874(12) 0.0959(4) 0.57561(13)
H10 H 0.5918 0.0240 0.5818
C16 C 0.63232(11) 0.3005(4) 0.50926(12)
C17 C 0.70169(12) 0.3984(4) 0.50162(12)
C18 C 0.68986(12) 0.6005(4) 0.43270(12)
C19 C 0.75624(11) 0.7183(4) 0.41909(11)
C20 C 0.77921(11) 0.3124(4) 0.55718(12)
loop_
_geom_bond_atom_site_label_1
_geom_bond_atom_site_label_2
_geom_bond_site_symmetry_1
_geom_bond_site_symmetry_2
Se1 C1 1_555 1_555
C1 C2 1_555 1_555
C2 H1 1_555 1_555
C3 C2 1_555 1_555
H2 C3 1_555 1_555
C4 C3 1_555 1_555
C5 C4 1_555 1_555
H3 C5 1_555 1_555
C6 C5 1_555 1_555
H4 C6 1_555 1_555
C7 C6 1_555 1_555
H5 C7 1_555 1_555
C8 C7 1_555 1_555
C9 C8 1_555 1_555
C10 C9 1_555 1_555
H6 C10 1_555 1_555
C11 C10 1_555 1_555
H7 C11 1_555 1_555
C12 C11 1_555 1_555
H8 C12 1_555 1_555
C13 C12 1_555 1_555
C14 C13 1_555 1_555
H9 C14 1_555 1_555
C15 C14 1_555 1_555
H10 C15 1_555 1_555
C16 Se1 1_555 1_555
C17 C16 1_555 1_555
C18 C1 1_555 1_555
C19 C4 1_555 1_555
C20 C9 1_555 1_555
C8 C19 1_555 1_555
C13 C20 1_555 1_555
C15 C16 1_555 1_555
C17 C18 1_555 1_555
C17 C20 1_555 1_555
C18 C19 1_555 1_555

#END
