
#######################################################################
#
#                 Cambridge Crystallographic Data Centre
#                                CCDC 
#
#######################################################################
#
# If this CIF has been generated from an entry in the Cambridge 
# Structural Database, then it will include bibliographic, chemical, 
# crystal, experimental, refinement or atomic coordinate data resulting 
# from the CCDC's data processing and validation procedures.
#
#######################################################################

data_WOJLIR
_chemical_compound_source        
'aerial parts of the climbing shrub Pericampylus glaucus (Lam.) Merr. (Menispermaceae)'
_chemical_name_common            'Periglaucine A'
_chemical_formula_moiety         'C20 H23 N1 O6'
_chemical_name_systematic        
(7\a,8\b,10\b)-8,10-epoxy-7,8-dimethoxy-2,3-(methylenebis(oxy))-17-methyl-6-oxohasubanan
_chemical_properties_biological  
'inhibits hepatitis B virus (HBV) surface antigen (HBsAg) secretion in Hep G2.2.15 cells. Also shown to have weak anti-HIV-1 activity'
_symmetry_cell_setting           orthorhombic
_symmetry_space_group_name_H-M   'P 21 21 21'
_symmetry_Int_Tables_number      19
_space_group_name_Hall           'P 2ac 2ab'
loop_
_symmetry_equiv_pos_site_id
_symmetry_equiv_pos_as_xyz
1 x,y,z
2 1/2-x,-y,1/2+z
3 -x,1/2+y,1/2-z
4 1/2+x,1/2-y,-z
_cell_length_a                   11.2062(13)
_cell_length_b                   12.5950(14)
_cell_length_c                   12.8803(15)
_cell_angle_alpha                90
_cell_angle_beta                 90
_cell_angle_gamma                90
_cell_volume                     1817.95
_exptl_crystal_colour            colorless
_chemical_melting_point          '197-199 deg.C'
_cell_formula_units_Z            4
_exptl_crystal_recrystallization_method acetone
loop_
_atom_site_label
_atom_site_type_symbol
_atom_site_fract_x
_atom_site_fract_y
_atom_site_fract_z
O1 O 1.36586(18) 0.9813(2) 0.1350(2)
O2 O 1.4011(2) 0.9161(2) 0.2987(3)
O3 O 0.90093(17) 0.83879(15) 0.35923(15)
O4 O 0.69600(17) 0.86781(16) 0.35563(15)
O5 O 0.69002(17) 0.80036(17) 0.15450(16)
O6 O 0.9659(3) 0.7563(2) 0.0968(2)
N1 N 0.7273(2) 1.05436(19) 0.2369(2)
C1 C 1.4480(3) 0.9186(4) 0.1911(4)
C2 C 1.2587(3) 0.9722(3) 0.1885(3)
C3 C 1.2801(3) 0.9358(3) 0.2859(3)
C4 C 1.1906(3) 0.9227(3) 0.3566(3)
H2 H 1.1914 0.8491 0.3788
C5 C 1.0744(2) 0.9477(2) 0.3255(2)
C6 C 1.0520(2) 0.9857(2) 0.2255(2)
C7 C 1.1473(3) 0.9997(3) 0.1568(3)
H3 H 1.1297 0.9596 0.0944
C8 C 0.9256(2) 1.0075(2) 0.1902(2)
C9 C 0.9047(3) 1.1238(3) 0.1600(3)
H5 H 0.9478 1.1711 0.2062
H6 H 0.9304 1.1369 0.0893
C10 C 0.7732(3) 1.1395(3) 0.1703(3)
H7 H 0.7565 1.2082 0.2012
H8 H 0.7355 1.1367 0.1026
C11 C 0.8281(2) 0.9910(2) 0.2757(2)
C12 C 0.8959(3) 0.9354(3) 0.0959(2)
H9 H 0.8178 0.9535 0.0686
H10 H 0.9543 0.9461 0.0414
C13 C 0.8972(3) 0.8228(3) 0.1299(2)
C14 C 0.8009(3) 0.7955(2) 0.2071(2)
H11 H 0.8137 0.7232 0.2329
C15 C 0.9683(3) 0.9316(3) 0.3947(2)
H12 H 0.9928 0.9234 0.4673
C16 C 0.8823(3) 1.0229(2) 0.3825(2)
H13 H 0.9230 1.0908 0.3795
H14 H 0.8228 1.0241 0.4371
C17 C 0.8028(2) 0.8720(2) 0.2974(2)
C18 C 0.6708(4) 0.7134(3) 0.0860(3)
H15 H 0.5943 0.7209 0.0532
H16 H 0.6728 0.6482 0.1246
H17 H 0.7321 0.7125 0.0340
C19 C 0.6606(3) 0.7648(2) 0.3888(3)
H18 H 0.5873 0.7697 0.4270
H19 H 0.7215 0.7351 0.4324
H20 H 0.6492 0.7200 0.3293
C20 C 0.6422(3) 1.0946(3) 0.3130(3)
H21 H 0.5800 1.1328 0.2780
H22 H 0.6825 1.1413 0.3604
H23 H 0.6082 1.0362 0.3507
H1? H 1.2095 0.9657 0.4169
H4? H 1.1492 1.0741 0.1373
loop_
_geom_bond_atom_site_label_1
_geom_bond_atom_site_label_2
_geom_bond_site_symmetry_1
_geom_bond_site_symmetry_2
O1 C1 1_555 1_555
O2 C1 1_555 1_555
O3 C15 1_555 1_555
O4 C17 1_555 1_555
O5 C14 1_555 1_555
O6 C13 1_555 1_555
N1 C10 1_555 1_555
C2 O1 1_555 1_555
C3 O2 1_555 1_555
C4 C3 1_555 1_555
H2 C4 1_555 1_555
C5 C4 1_555 1_555
C6 C5 1_555 1_555
C7 C2 1_555 1_555
H3 C7 1_555 1_555
C8 C6 1_555 1_555
C9 C8 1_555 1_555
H5 C9 1_555 1_555
H6 C9 1_555 1_555
C10 C9 1_555 1_555
H7 C10 1_555 1_555
H8 C10 1_555 1_555
C11 N1 1_555 1_555
C12 C8 1_555 1_555
H9 C12 1_555 1_555
H10 C12 1_555 1_555
C13 C12 1_555 1_555
C14 C13 1_555 1_555
H11 C14 1_555 1_555
C15 C5 1_555 1_555
H12 C15 1_555 1_555
C16 C11 1_555 1_555
H13 C16 1_555 1_555
H14 C16 1_555 1_555
C17 O3 1_555 1_555
C18 O5 1_555 1_555
H15 C18 1_555 1_555
H16 C18 1_555 1_555
H17 C18 1_555 1_555
C19 O4 1_555 1_555
H18 C19 1_555 1_555
H19 C19 1_555 1_555
H20 C19 1_555 1_555
C20 N1 1_555 1_555
H21 C20 1_555 1_555
H22 C20 1_555 1_555
H23 C20 1_555 1_555
C2 C3 1_555 1_555
C6 C7 1_555 1_555
C8 C11 1_555 1_555
C11 C17 1_555 1_555
C14 C17 1_555 1_555
C15 C16 1_555 1_555

#END
