
#######################################################################
#
#                 Cambridge Crystallographic Data Centre
#                                CCDC 
#
#######################################################################
#
# If this CIF has been generated from an entry in the Cambridge 
# Structural Database, then it will include bibliographic, chemical, 
# crystal, experimental, refinement or atomic coordinate data resulting 
# from the CCDC's data processing and validation procedures.
#
#######################################################################

data_WOJSAP
_chemical_formula_moiety         'C15 H17 N1 O3 S1'
_chemical_name_systematic        
(R)-N-(\a-Methylbenzyl)-4-methoxybenzenesulfonamide
_symmetry_cell_setting           monoclinic
_symmetry_space_group_name_H-M   'P 21'
_symmetry_Int_Tables_number      4
_space_group_name_Hall           'P 2yb'
loop_
_symmetry_equiv_pos_site_id
_symmetry_equiv_pos_as_xyz
1 x,y,z
2 -x,1/2+y,-z
_cell_length_a                   9.4730(9)
_cell_length_b                   7.6650(6)
_cell_length_c                   10.2983(8)
_cell_angle_alpha                90
_cell_angle_beta                 91.581(7)
_cell_angle_gamma                90
_cell_volume                     747.481
_exptl_crystal_colour            colorless
_exptl_crystal_description       plates
_cell_formula_units_Z            2
_exptl_crystal_recrystallization_method dichloromethane
loop_
_atom_site_label
_atom_site_type_symbol
_atom_site_fract_x
_atom_site_fract_y
_atom_site_fract_z
S1 S 0.18142(7) 0.85802(13) 0.96587(6)
N1 N 0.1909(3) 0.6639(4) 1.0235(2)
H1 H 0.109(3) 0.604(5) 1.018(3)
O1 O 0.0528(2) 0.9291(4) 1.01326(19)
O2 O 0.3128(2) 0.9422(4) 0.9974(2)
O3 O 0.1175(2) 0.8643(4) 0.39740(17)
C1 C 0.1621(2) 0.8519(5) 0.7955(2)
C2 C 0.2692(3) 0.9100(5) 0.7187(3)
H2 H 0.3537 0.9487 0.7566
C3 C 0.2506(3) 0.9106(5) 0.5859(3)
H3 H 0.3230 0.9498 0.5342
C4 C 0.1261(3) 0.8538(6) 0.5287(2)
C5 C 0.0194(3) 0.7915(5) 0.6057(3)
H4 H -0.0639 0.7492 0.5676
C6 C 0.0376(3) 0.7924(5) 0.7387(3)
H5 H -0.0345 0.7527 0.7907
C7 C 0.3206(3) 0.5583(4) 1.0214(3)
H6 H 0.3997 0.6390 1.0109
C8 C 0.3206(4) 0.4332(6) 0.9068(3)
H7 H 0.3042 0.4972 0.8276
H8 H 0.2472 0.3481 0.9163
H9 H 0.4103 0.3753 0.9040
C9 C 0.3396(3) 0.4737(4) 1.1550(3)
C10 C 0.3516(4) 0.2957(5) 1.1720(4)
H10 H 0.3496 0.2221 1.1001
C11 C 0.3668(4) 0.2264(6) 1.2953(4)
H11 H 0.3733 0.1061 1.3057
C12 C 0.3724(4) 0.3318(7) 1.4024(4)
H12 H 0.3844 0.2841 1.4850
C13 C 0.3601(4) 0.5089(6) 1.3864(4)
H13 H 0.3621 0.5818 1.4586
C14 C 0.3447(3) 0.5795(5) 1.2631(3)
H14 H 0.3377 0.6998 1.2532
C15 C -0.0081(4) 0.8058(7) 0.3324(3)
H15 H -0.0008 0.8249 0.2407
H16 H -0.0874 0.8695 0.3639
H17 H -0.0208 0.6836 0.3487
loop_
_geom_bond_atom_site_label_1
_geom_bond_atom_site_label_2
_geom_bond_site_symmetry_1
_geom_bond_site_symmetry_2
S1 N1 1_555 1_555
N1 H1 1_555 1_555
O1 S1 1_555 1_555
O2 S1 1_555 1_555
O3 C4 1_555 1_555
C1 S1 1_555 1_555
C2 C1 1_555 1_555
H2 C2 1_555 1_555
C3 C2 1_555 1_555
H3 C3 1_555 1_555
C4 C3 1_555 1_555
C5 C4 1_555 1_555
H4 C5 1_555 1_555
C6 C1 1_555 1_555
H5 C6 1_555 1_555
C7 N1 1_555 1_555
H6 C7 1_555 1_555
C8 C7 1_555 1_555
H7 C8 1_555 1_555
H8 C8 1_555 1_555
H9 C8 1_555 1_555
C9 C7 1_555 1_555
C10 C9 1_555 1_555
H10 C10 1_555 1_555
C11 C10 1_555 1_555
H11 C11 1_555 1_555
C12 C11 1_555 1_555
H12 C12 1_555 1_555
C13 C12 1_555 1_555
H13 C13 1_555 1_555
C14 C9 1_555 1_555
H14 C14 1_555 1_555
C15 O3 1_555 1_555
H15 C15 1_555 1_555
H16 C15 1_555 1_555
H17 C15 1_555 1_555
C5 C6 1_555 1_555
C13 C14 1_555 1_555

#END
