
#######################################################################
#
#                 Cambridge Crystallographic Data Centre
#                                CCDC 
#
#######################################################################
#
# If this CIF has been generated from an entry in the Cambridge 
# Structural Database, then it will include bibliographic, chemical, 
# crystal, experimental, refinement or atomic coordinate data resulting 
# from the CCDC's data processing and validation procedures.
#
#######################################################################

data_WOJWUP
_chemical_formula_moiety         'C23 H13 F3 N2 O8'
_chemical_name_systematic        
7-(2,6-dinitro-4-(trifluoromethyl)phenoxy)-3-(4-methoxyphenyl)-4H-chromen-4-one
_symmetry_cell_setting           monoclinic
_symmetry_space_group_name_H-M   'P 21/n'
_symmetry_Int_Tables_number      14
_space_group_name_Hall           '-P 2yn'
loop_
_symmetry_equiv_pos_site_id
_symmetry_equiv_pos_as_xyz
1 x,y,z
2 1/2-x,1/2+y,1/2-z
3 -x,-y,-z
4 1/2+x,1/2-y,1/2+z
_cell_length_a                   9.4090(7)
_cell_length_b                   19.9142(13)
_cell_length_c                   11.8338(7)
_cell_angle_alpha                90
_cell_angle_beta                 99.350(2)
_cell_angle_gamma                90
_cell_volume                     2187.87
_exptl_crystal_colour            colorless
_exptl_crystal_description       block
_cell_formula_units_Z            4
loop_
_atom_site_label
_atom_site_type_symbol
_atom_site_fract_x
_atom_site_fract_y
_atom_site_fract_z
F1 F 0.4299(9) 0.8182(2) 0.2548(4)
F2 F 0.4279(10) 0.8902(3) 0.3794(4)
F3 F 0.6238(4) 0.8632(5) 0.3292(9)
O1 O 0.3128(2) 0.77664(13) 0.71307(19)
O2 O 0.4924(3) 0.72774(10) 0.81184(16)
O3 O 0.8396(3) 0.63197(12) 0.4656(2)
O4 O 0.6712(3) 0.56757(11) 0.4948(3)
O5 O 0.60496(14) 0.63321(7) 0.68264(13)
O6 O 0.12732(14) 0.54799(7) 0.61280(11)
O7 O 0.19849(16) 0.43639(8) 0.90568(13)
O8 O -0.4398(2) 0.31868(11) 0.82069(15)
N1 N 0.7219(3) 0.62234(12) 0.4860(2)
N2 N 0.4274(2) 0.74849(10) 0.72305(18)
C1 C 0.5020(2) 0.83819(11) 0.35021(19)
C2 C 0.5288(2) 0.78482(9) 0.44040(16)
C3 C 0.4661(2) 0.78962(9) 0.53733(16)
H1 H 0.4076 0.8260 0.5478
C4 C 0.4913(2) 0.73964(10) 0.61864(16)
C5 C 0.57376(19) 0.68317(9) 0.60431(16)
C6 C 0.6345(2) 0.68105(10) 0.50575(17)
C7 C 0.6155(2) 0.73092(10) 0.42475(17)
H2 H 0.6604 0.7284 0.3604
C8 C 0.4945(2) 0.59324(9) 0.71027(17)
C9 C 0.3620(2) 0.58964(9) 0.64374(16)
H3 H 0.3410 0.6141 0.5761
C10 C 0.25948(19) 0.54849(9) 0.68001(15)
C11 C 0.28859(19) 0.51063(9) 0.77888(15)
C12 C 0.4271(2) 0.51463(11) 0.84153(18)
H4 H 0.4503 0.4886 0.9072
C13 C 0.5302(2) 0.55561(10) 0.80941(18)
H5 H 0.6218 0.5582 0.8529
C14 C 0.0230(2) 0.50969(10) 0.64721(16)
H6 H -0.0671 0.5101 0.6012
C15 C 0.0378(2) 0.47147(9) 0.74104(16)
C16 C 0.1762(2) 0.46920(9) 0.81700(16)
C17 C -0.0866(2) 0.43136(9) 0.76539(16)
C18 C -0.1432(2) 0.43983(10) 0.86488(17)
H7 H -0.1010 0.4709 0.9188
C19 C -0.2611(2) 0.40328(11) 0.88657(18)
H8 H -0.2977 0.4100 0.9541
C20 C -0.3234(2) 0.35732(12) 0.80797(19)
C21 C -0.2672(3) 0.34750(14) 0.7087(2)
H9 H -0.3084 0.3157 0.6557
C22 C -0.1507(3) 0.38433(12) 0.68734(19)
H10 H -0.1146 0.3775 0.6196
C23 C -0.4852(3) 0.31653(15) 0.9283(2)
H11 H -0.4038 0.3082 0.9868
H12 H -0.5546 0.2812 0.9287
H13 H -0.5283 0.3587 0.9428
F4? F 0.3734(7) 0.8340(5) 0.2955(10)
F5? F 0.5264(15) 0.8972(2) 0.3910(4)
F6? F 0.5858(10) 0.8305(4) 0.2707(6)
loop_
_geom_bond_atom_site_label_1
_geom_bond_atom_site_label_2
_geom_bond_site_symmetry_1
_geom_bond_site_symmetry_2
F1 C1 1_555 1_555
F2 C1 1_555 1_555
F3 C1 1_555 1_555
O1 N2 1_555 1_555
O2 N2 1_555 1_555
O3 N1 1_555 1_555
O4 N1 1_555 1_555
O5 C5 1_555 1_555
O6 C10 1_555 1_555
O7 C16 1_555 1_555
O8 C20 1_555 1_555
N1 C6 1_555 1_555
N2 C4 1_555 1_555
C1 C2 1_555 1_555
C2 C3 1_555 1_555
C3 H1 1_555 1_555
C4 C3 1_555 1_555
C5 C4 1_555 1_555
C6 C5 1_555 1_555
C7 C2 1_555 1_555
H2 C7 1_555 1_555
C8 O5 1_555 1_555
C9 C8 1_555 1_555
H3 C9 1_555 1_555
C10 C9 1_555 1_555
C11 C10 1_555 1_555
C12 C11 1_555 1_555
H4 C12 1_555 1_555
C13 C8 1_555 1_555
H5 C13 1_555 1_555
C14 O6 1_555 1_555
H6 C14 1_555 1_555
C15 C14 1_555 1_555
C16 C11 1_555 1_555
C17 C15 1_555 1_555
C18 C17 1_555 1_555
H7 C18 1_555 1_555
C19 C18 1_555 1_555
H8 C19 1_555 1_555
C20 C19 1_555 1_555
C21 C20 1_555 1_555
H9 C21 1_555 1_555
C22 C17 1_555 1_555
H10 C22 1_555 1_555
C23 O8 1_555 1_555
H11 C23 1_555 1_555
H12 C23 1_555 1_555
H13 C23 1_555 1_555
C6 C7 1_555 1_555
C12 C13 1_555 1_555
C15 C16 1_555 1_555
C21 C22 1_555 1_555

#END
