
#######################################################################
#
#                 Cambridge Crystallographic Data Centre
#                                CCDC 
#
#######################################################################
#
# If this CIF has been generated from an entry in the Cambridge 
# Structural Database, then it will include bibliographic, chemical, 
# crystal, experimental, refinement or atomic coordinate data resulting 
# from the CCDC's data processing and validation procedures.
#
#######################################################################

data_WOJXOK
_chemical_formula_moiety         'C17 H11 Br2 N1 O3'
_chemical_name_systematic        
6,8-dibromo-N-(3-methylphenyl)-2-oxo-2H-chromene-3-carboxamide
_symmetry_cell_setting           monoclinic
_symmetry_space_group_name_H-M   'I 2/c'
_symmetry_Int_Tables_number      15
_space_group_name_Hall           '-I 2yc'
loop_
_symmetry_equiv_pos_site_id
_symmetry_equiv_pos_as_xyz
1 x,y,z
2 -x,y,1/2-z
3 1/2+x,1/2+y,1/2+z
4 1/2-x,1/2+y,-z
5 -x,-y,-z
6 x,-y,1/2+z
7 1/2-x,1/2-y,1/2-z
8 1/2+x,1/2-y,z
_cell_length_a                   16.632(3)
_cell_length_b                   14.417(3)
_cell_length_c                   13.258(3)
_cell_angle_alpha                90
_cell_angle_beta                 95.659(17)
_cell_angle_gamma                90
_cell_volume                     3163.56
_exptl_crystal_colour            'light yellow'
_exptl_crystal_description       block
_cell_formula_units_Z            8
loop_
_atom_site_label
_atom_site_type_symbol
_atom_site_fract_x
_atom_site_fract_y
_atom_site_fract_z
Br1 Br 0.88087(6) 0.17843(10) 0.58610(9)
Br2 Br 0.69206(7) 0.49491(9) 0.64778(10)
O1 O 0.7226(3) 0.0837(5) 0.6020(5)
O2 O 0.4416(4) 0.0400(5) 0.6334(5)
O3 O 0.6762(4) -0.0586(6) 0.5994(6)
N1 N 0.5156(4) -0.0910(6) 0.6235(5)
H1 H 0.5642 -0.1097 0.6189
C1 C 0.3785(6) -0.1444(8) 0.6419(7)
H2 H 0.3605 -0.0842 0.6509
C2 C 0.3252(7) -0.2194(10) 0.6427(8)
H3 H 0.2708 -0.2091 0.6496
C3 C 0.3530(7) -0.3073(10) 0.6332(8)
H4 H 0.3170 -0.3566 0.6337
C4 C 0.4335(8) -0.3255(8) 0.6228(7)
C5 C 0.4853(6) -0.2502(8) 0.6194(7)
H5 H 0.5394 -0.2610 0.6115
C6 C 0.4593(6) -0.1615(8) 0.6272(6)
C7 C 0.4602(7) -0.4222(9) 0.6097(9)
H6 H 0.4405 -0.4437 0.5433
H7 H 0.4394 -0.4609 0.6599
H8 H 0.5182 -0.4246 0.6173
C8 C 0.5070(6) 0.0025(8) 0.6259(6)
C9 C 0.5803(5) 0.0633(8) 0.6211(6)
C10 C 0.5734(5) 0.1531(8) 0.6307(7)
H9 H 0.5230 0.1773 0.6405
C11 C 0.6391(5) 0.2155(8) 0.6269(7)
C12 C 0.7139(5) 0.1759(8) 0.6128(6)
C13 C 0.6585(6) 0.0207(8) 0.6067(7)
C14 C 0.6337(6) 0.3106(9) 0.6370(7)
H10 H 0.5839 0.3374 0.6451
C15 C 0.7000(6) 0.3657(8) 0.6354(7)
C16 C 0.7736(6) 0.3266(9) 0.6175(7)
H11 H 0.8181 0.3647 0.6119
C17 C 0.7815(5) 0.2317(8) 0.6078(7)
loop_
_geom_bond_atom_site_label_1
_geom_bond_atom_site_label_2
_geom_bond_site_symmetry_1
_geom_bond_site_symmetry_2
Br1 C17 1_555 1_555
Br2 C15 1_555 1_555
O1 C12 1_555 1_555
O2 C8 1_555 1_555
O3 C13 1_555 1_555
N1 H1 1_555 1_555
C1 H2 1_555 1_555
C2 C1 1_555 1_555
H3 C2 1_555 1_555
C3 C2 1_555 1_555
H4 C3 1_555 1_555
C4 C3 1_555 1_555
C5 C4 1_555 1_555
H5 C5 1_555 1_555
C6 N1 1_555 1_555
C7 C4 1_555 1_555
H6 C7 1_555 1_555
H7 C7 1_555 1_555
H8 C7 1_555 1_555
C8 N1 1_555 1_555
C9 C8 1_555 1_555
C10 C9 1_555 1_555
H9 C10 1_555 1_555
C11 C10 1_555 1_555
C12 C11 1_555 1_555
C13 O1 1_555 1_555
C14 C11 1_555 1_555
H10 C14 1_555 1_555
C15 C14 1_555 1_555
C16 C15 1_555 1_555
H11 C16 1_555 1_555
C17 C12 1_555 1_555
C1 C6 1_555 1_555
C5 C6 1_555 1_555
C9 C13 1_555 1_555
C16 C17 1_555 1_555

#END
