
#######################################################################
#
#                 Cambridge Crystallographic Data Centre
#                                CCDC 
#
#######################################################################
#
# If this CIF has been generated from an entry in the Cambridge 
# Structural Database, then it will include bibliographic, chemical, 
# crystal, experimental, refinement or atomic coordinate data resulting 
# from the CCDC's data processing and validation procedures.
#
#######################################################################

data_WOLHOW
_chemical_formula_moiety         '2(C12 H8 N2),C4 H4 N8 O2,2(H2 O1)'
_chemical_name_systematic        
"4,4'-diazene-1,2-diylbis(2,4-dihydro-3H-1,2,4-triazol-3-one) 1,10-phenanthroline dihydrate"
_symmetry_cell_setting           triclinic
_symmetry_space_group_name_H-M   'P 1'
_symmetry_Int_Tables_number      1
_space_group_name_Hall           'P 1'
loop_
_symmetry_equiv_pos_site_id
_symmetry_equiv_pos_as_xyz
1 x,y,z
_cell_length_a                   8.8293(16)
_cell_length_b                   9.5453(17)
_cell_length_c                   9.5581(17)
_cell_angle_alpha                112.148(3)
_cell_angle_beta                 102.847(3)
_cell_angle_gamma                104.479(3)
_cell_volume                     675.888
_cell_formula_units_Z            1
loop_
_atom_site_label
_atom_site_type_symbol
_atom_site_fract_x
_atom_site_fract_y
_atom_site_fract_z
N1 N 0.7531(9) 0.8490(9) -0.0264(9)
N2 N 0.6580(9) 0.6108(8) 0.0601(9)
C1 C 0.7988(13) 0.9688(11) -0.0655(13)
H1 H 0.8863 0.9782 -0.1047
C2 C 0.7183(15) 1.0829(11) -0.0496(13)
H2 H 0.7532 1.1640 -0.0797
C3 C 0.5937(13) 1.0756(10) 0.0079(12)
H3 H 0.5391 1.1482 0.0146
C4 C 0.5466(11) 0.9560(10) 0.0580(11)
C5 C 0.4230(12) 0.9433(13) 0.1321(14)
H4 H 0.3687 1.0167 0.1467
C6 C 0.3838(12) 0.8322(13) 0.1801(13)
H5 H 0.3049 0.8314 0.2303
C7 C 0.4581(10) 0.7113(11) 0.1580(11)
C8 C 0.4220(12) 0.5910(12) 0.2082(13)
H6 H 0.3462 0.5855 0.2615
C9 C 0.5010(14) 0.4797(13) 0.1774(14)
H7 H 0.4758 0.3961 0.2061
C10 C 0.6173(13) 0.4949(10) 0.1035(12)
H8 H 0.6696 0.4199 0.0833
C11 C 0.5836(10) 0.7156(8) 0.0865(9)
C12 C 0.6297(9) 0.8420(9) 0.0372(9)
N3 N 0.8320(8) 0.3151(8) 0.4422(8)
N4 N 0.7394(8) 0.0702(9) 0.5220(8)
C13 C 0.8757(11) 0.4296(11) 0.3940(11)
H9 H 0.8250 0.5060 0.4123
C14 C 0.9923(13) 0.4400(12) 0.3185(14)
H10 H 1.0186 0.5209 0.2864
C15 C 1.0648(14) 0.3322(14) 0.2935(14)
H11 H 1.1438 0.3383 0.2437
C16 C 1.0269(10) 0.2106(10) 0.3391(10)
C17 C 1.1087(12) 0.0976(15) 0.3185(15)
H12 H 1.1882 0.1018 0.2692
C18 C 1.0704(12) -0.0200(12) 0.3720(12)
H13 H 1.1276 -0.0908 0.3632
C19 C 0.9449(10) -0.0298(11) 0.4386(10)
C20 C 0.8978(12) -0.1477(11) 0.4886(11)
H14 H 0.9536 -0.2194 0.4823
C21 C 0.7707(12) -0.1586(11) 0.5467(13)
H15 H 0.7345 -0.2401 0.5760
C22 C 0.6976(11) -0.0458(12) 0.5609(11)
H16 H 0.6112 -0.0532 0.6017
C23 C 0.8633(9) 0.0788(9) 0.4594(9)
C24 C 0.9092(10) 0.2050(9) 0.4132(10)
N5 N 0.5630(9) 0.4362(10) 0.5555(10)
N6 N 0.5604(9) 0.3080(9) 0.5880(10)
H17 H 0.6221 0.2529 0.5621
N7 N 0.3883(8) 0.3973(9) 0.6800(9)
N8 N 0.2684(8) 0.4062(8) 0.7514(8)
N9 N 0.2210(8) 0.5181(8) 0.7507(8)
N10 N 0.1031(8) 0.5272(8) 0.8187(8)
N11 N -0.0711(10) 0.4871(11) 0.9441(11)
N12 N -0.0702(9) 0.6182(9) 0.9123(9)
H18 H -0.1298 0.6753 0.9393
O1 O 0.4261(7) 0.1742(7) 0.7102(8)
O2 O 0.0688(7) 0.7554(8) 0.7907(8)
C25 C 0.4555(10) 0.2737(10) 0.6630(10)
C26 C 0.4600(11) 0.4896(11) 0.6147(12)
H19 H 0.4372 0.5792 0.6134
C27 C 0.0329(10) 0.6445(11) 0.8357(10)
C28 C 0.0340(11) 0.4341(11) 0.8857(13)
H20 H 0.0592 0.3460 0.8886
O3 O 0.3053(9) 0.8005(10) 0.6107(9)
O4 O 0.1934(10) 0.1230(11) 0.9023(10)
loop_
_geom_bond_atom_site_label_1
_geom_bond_atom_site_label_2
_geom_bond_site_symmetry_1
_geom_bond_site_symmetry_2
N1 C1 1_555 1_555
N2 C10 1_555 1_555
C1 H1 1_555 1_555
C2 C1 1_555 1_555
H2 C2 1_555 1_555
C3 C2 1_555 1_555
H3 C3 1_555 1_555
C4 C3 1_555 1_555
C5 C4 1_555 1_555
H4 C5 1_555 1_555
C6 C5 1_555 1_555
H5 C6 1_555 1_555
C7 C6 1_555 1_555
C8 C7 1_555 1_555
H6 C8 1_555 1_555
C9 C8 1_555 1_555
H7 C9 1_555 1_555
C10 C9 1_555 1_555
H8 C10 1_555 1_555
C11 N2 1_555 1_555
C12 N1 1_555 1_555
N3 C13 1_555 1_555
N4 C22 1_555 1_555
C13 H9 1_555 1_555
C14 C13 1_555 1_555
H10 C14 1_555 1_555
C15 C14 1_555 1_555
H11 C15 1_555 1_555
C16 C15 1_555 1_555
C17 C16 1_555 1_555
H12 C17 1_555 1_555
C18 C17 1_555 1_555
H13 C18 1_555 1_555
C19 C18 1_555 1_555
C20 C19 1_555 1_555
H14 C20 1_555 1_555
C21 C20 1_555 1_555
H15 C21 1_555 1_555
C22 C21 1_555 1_555
H16 C22 1_555 1_555
C23 N4 1_555 1_555
C24 N3 1_555 1_555
N5 N6 1_555 1_555
N6 H17 1_555 1_555
N7 N8 1_555 1_555
N8 N9 1_555 1_555
N9 N10 1_555 1_555
N10 C27 1_555 1_555
N11 N12 1_555 1_555
N12 H18 1_555 1_555
O1 C25 1_555 1_555
O2 C27 1_555 1_555
C25 N6 1_555 1_555
C26 N5 1_555 1_555
H19 C26 1_555 1_555
C27 N12 1_555 1_555
C28 N10 1_555 1_555
H20 C28 1_555 1_555
C4 C12 1_555 1_555
C7 C11 1_555 1_555
C11 C12 1_555 1_555
C16 C24 1_555 1_555
C19 C23 1_555 1_555
C23 C24 1_555 1_555
N7 C25 1_555 1_555
N7 C26 1_555 1_555
N11 C28 1_555 1_555

#END
