
#######################################################################
#
#                 Cambridge Crystallographic Data Centre
#                                CCDC 
#
#######################################################################
#
# If this CIF has been generated from an entry in the Cambridge 
# Structural Database, then it will include bibliographic, chemical, 
# crystal, experimental, refinement or atomic coordinate data resulting 
# from the CCDC's data processing and validation procedures.
#
#######################################################################

data_WOMDAE
_chemical_formula_moiety         'C23 H17 N3 O2'
_chemical_name_systematic        
'Benzoic acid 5-phenylazo-2-methylquinolin-8-yl ester'
_symmetry_cell_setting           monoclinic
_symmetry_space_group_name_H-M   'P 21/c'
_symmetry_Int_Tables_number      14
_space_group_name_Hall           '-P 2ybc'
loop_
_symmetry_equiv_pos_site_id
_symmetry_equiv_pos_as_xyz
1 x,y,z
2 -x,1/2+y,1/2-z
3 -x,-y,-z
4 x,1/2-y,1/2+z
_cell_length_a                   11.727(2)
_cell_length_b                   8.7963(18)
_cell_length_c                   18.247(4)
_cell_angle_alpha                90
_cell_angle_beta                 106.46(3)
_cell_angle_gamma                90
_cell_volume                     1805.12
_cell_formula_units_Z            4
_exptl_crystal_preparation       dye
loop_
_atom_site_label
_atom_site_type_symbol
_atom_site_fract_x
_atom_site_fract_y
_atom_site_fract_z
N1 N 0.73750(13) 1.03939(19) 0.07458(10)
N2 N 0.42519(13) 0.67622(19) 0.05800(10)
N3 N 0.35859(14) 0.6158(2) 0.09098(10)
O1 O 0.73380(11) 1.11463(16) 0.21808(8)
O2 O 0.59647(12) 1.28864(18) 0.16975(9)
C1 C 0.90029(17) 1.3297(3) 0.27885(12)
H1 H 0.9237 1.2286 0.2793
C2 C 0.9811(2) 1.4370(3) 0.31156(14)
H2 H 1.0600 1.4095 0.3333
C3 C 0.9483(2) 1.5835(3) 0.31290(14)
H3 H 1.0043 1.6567 0.3358
C4 C 0.8337(3) 1.6238(3) 0.28083(15)
H4 H 0.8109 1.7247 0.2824
C5 C 0.7514(2) 1.5176(3) 0.24628(14)
H5 H 0.6731 1.5464 0.2235
C6 C 0.78431(16) 1.3687(2) 0.24512(11)
C7 C 0.69456(18) 1.2585(3) 0.20636(11)
C8 C 0.65690(17) 1.0031(2) 0.17906(12)
C9 C 0.58409(18) 0.9326(3) 0.21352(12)
H6 H 0.5845 0.9598 0.2628
C10 C 0.50908(18) 0.8201(3) 0.17523(13)
H7 H 0.4598 0.7702 0.1993
C11 C 0.50606(15) 0.7809(2) 0.10283(12)
C12 C 0.58265(14) 0.8527(2) 0.06642(11)
C13 C 0.66013(15) 0.9654(2) 0.10524(11)
C14 C 0.73676(16) 1.0041(2) 0.00536(13)
C15 C 0.65936(16) 0.8975(2) -0.03809(12)
H8 H 0.6601 0.8786 -0.0881
C16 C 0.58323(15) 0.8211(2) -0.00856(12)
H9 H 0.5320 0.7488 -0.0375
C17 C 0.82466(18) 1.0821(3) -0.02677(14)
H10 H 0.8711 1.1517 0.0104
H11 H 0.7834 1.1369 -0.0720
H12 H 0.8761 1.0080 -0.0394
C18 C 0.27064(18) 0.5209(2) 0.04480(13)
C19 C 0.19715(18) 0.4515(3) 0.08033(13)
H13 H 0.2089 0.4659 0.1324
C20 C 0.10710(18) 0.3616(3) 0.04048(15)
H14 H 0.0580 0.3137 0.0654
C21 C 0.08845(19) 0.3415(3) -0.03502(15)
H15 H 0.0267 0.2794 -0.0622
C22 C 0.1602(2) 0.4121(3) -0.07176(14)
H16 H 0.1468 0.3984 -0.1241
C23 C 0.2511(2) 0.5022(2) -0.03248(14)
H17 H 0.2996 0.5506 -0.0577
loop_
_geom_bond_atom_site_label_1
_geom_bond_atom_site_label_2
_geom_bond_site_symmetry_1
_geom_bond_site_symmetry_2
N1 C13 1_555 1_555
N2 N3 1_555 1_555
N3 C18 1_555 1_555
O1 C7 1_555 1_555
O2 C7 1_555 1_555
C1 H1 1_555 1_555
C2 C1 1_555 1_555
H2 C2 1_555 1_555
C3 C2 1_555 1_555
H3 C3 1_555 1_555
C4 C3 1_555 1_555
H4 C4 1_555 1_555
C5 C4 1_555 1_555
H5 C5 1_555 1_555
C6 C1 1_555 1_555
C7 C6 1_555 1_555
C8 O1 1_555 1_555
C9 C8 1_555 1_555
H6 C9 1_555 1_555
C10 C9 1_555 1_555
H7 C10 1_555 1_555
C11 N2 1_555 1_555
C12 C11 1_555 1_555
C13 C8 1_555 1_555
C14 N1 1_555 1_555
C15 C14 1_555 1_555
H8 C15 1_555 1_555
C16 C12 1_555 1_555
H9 C16 1_555 1_555
C17 C14 1_555 1_555
H10 C17 1_555 1_555
H11 C17 1_555 1_555
H12 C17 1_555 1_555
C18 C19 1_555 1_555
C19 H13 1_555 1_555
C20 C19 1_555 1_555
H14 C20 1_555 1_555
C21 C20 1_555 1_555
H15 C21 1_555 1_555
C22 C21 1_555 1_555
H16 C22 1_555 1_555
C23 C18 1_555 1_555
H17 C23 1_555 1_555
C5 C6 1_555 1_555
C10 C11 1_555 1_555
C12 C13 1_555 1_555
C15 C16 1_555 1_555
C22 C23 1_555 1_555

#END
