
#######################################################################
#
#                 Cambridge Crystallographic Data Centre
#                                CCDC 
#
#######################################################################
#
# If this CIF has been generated from an entry in the Cambridge 
# Structural Database, then it will include bibliographic, chemical, 
# crystal, experimental, refinement or atomic coordinate data resulting 
# from the CCDC's data processing and validation procedures.
#
#######################################################################

data_WOMSIC
_chemical_formula_moiety         'C22 H28 O5'
_chemical_name_systematic        
'1,4a-dihydroxy-4,4,7,11b-tetramethyl-1,2,3,4,4a,5,6,11b-octahydrophenanthro[3,2-b]furan-5-yl acetate'
_symmetry_cell_setting           monoclinic
_symmetry_space_group_name_H-M   'P 21'
_symmetry_Int_Tables_number      4
_space_group_name_Hall           'P 2yb'
loop_
_symmetry_equiv_pos_site_id
_symmetry_equiv_pos_as_xyz
1 x,y,z
2 -x,1/2+y,-z
_cell_length_a                   10.7688(2)
_cell_length_b                   7.7077(2)
_cell_length_c                   11.7281(3)
_cell_angle_alpha                90
_cell_angle_beta                 99.691(2)
_cell_angle_gamma                90
_cell_volume                     959.572
_cell_formula_units_Z            2
loop_
_atom_site_label
_atom_site_type_symbol
_atom_site_fract_x
_atom_site_fract_y
_atom_site_fract_z
O1 O 0.74726(10) 0.44975(15) 0.66271(9)
O2 O 0.94284(10) 0.59668(15) 0.85260(9)
H1 H 0.9899 0.6616 0.8953
O3 O 1.02924(11) 0.88391(18) 0.95568(10)
H2 H 1.0409 0.9325 1.0188
O4 O 0.56564(12) 0.5250(2) 0.54935(11)
O5 O 0.69771(13) 0.9539(2) 1.22858(12)
C1 C 0.81644(14) 0.8600(2) 0.84190(13)
C2 C 0.73481(14) 0.5908(2) 0.74256(12)
H3 H 0.6662 0.6672 0.7073
C3 C 0.85549(13) 0.6984(2) 0.77279(12)
C4 C 0.69888(16) 0.5088(2) 0.85002(14)
H4 H 0.6131 0.4661 0.8314
H5 H 0.7533 0.4098 0.8720
C5 C 0.8353(2) 0.8162(3) 0.56211(15)
H6 H 0.8769 0.8139 0.4959
H7 H 0.8128 0.9336 0.5772
H8 H 0.7605 0.7463 0.5472
C6 C 0.65879(15) 0.5744(3) 1.04934(14)
C7 C 0.93426(16) 0.9763(2) 0.87753(15)
H9 H 0.9096 1.0798 0.9168
C8 C 0.92434(15) 0.7441(2) 0.66810(14)
C9 C 0.76441(14) 0.7963(2) 0.94946(13)
C10 C 0.71179(17) 0.9762(2) 0.77499(16)
H10 H 0.7344 1.0096 0.7023
H11 H 0.7021 1.0781 0.8198
H12 H 0.6339 0.9131 0.7613
C11 C 0.70810(14) 0.6306(2) 0.95235(13)
C12 C 0.76403(15) 0.9102(3) 1.04112(15)
H13 H 0.7990 1.0204 1.0404
C13 C 1.03069(17) 0.8767(3) 0.70900(16)
H14 H 1.0984 0.8173 0.7590
H15 H 1.0639 0.9176 0.6419
C14 C 0.98982(19) 0.5830(3) 0.62771(17)
H16 H 0.9274 0.5039 0.5897
H17 H 1.0387 0.5269 0.6934
H18 H 1.0442 0.6179 0.5749
C15 C 0.99149(19) 1.0327(3) 0.77331(17)
H19 H 0.9304 1.1007 0.7216
H20 H 1.0644 1.1054 0.7989
C16 C 0.60753(19) 0.3944(3) 1.05809(17)
H21 H 0.5264 0.3856 1.0099
H22 H 0.5995 0.3710 1.1369
H23 H 0.6640 0.3117 1.0331
C17 C 0.65693(15) 0.4340(2) 0.56901(13)
C18 C 0.71045(16) 0.8548(3) 1.13242(14)
C19 C 0.6851(2) 0.2901(3) 0.49244(18)
H24 H 0.6380 0.1889 0.5066
H25 H 0.7735 0.2643 0.5083
H26 H 0.6619 0.3244 0.4130
C20 C 0.66040(15) 0.6910(3) 1.14084(14)
C21 C 0.63949(18) 0.8464(4) 1.29667(16)
H27 H 0.6190 0.8798 1.3674
C22 C 0.61544(17) 0.6893(4) 1.25084(15)
H28 H 0.5775 0.5971 1.2829
loop_
_geom_bond_atom_site_label_1
_geom_bond_atom_site_label_2
_geom_bond_site_symmetry_1
_geom_bond_site_symmetry_2
O1 C2 1_555 1_555
O2 H1 1_555 1_555
O3 H2 1_555 1_555
O4 C17 1_555 1_555
O5 C18 1_555 1_555
C1 C3 1_555 1_555
C2 H3 1_555 1_555
C3 O2 1_555 1_555
C4 C2 1_555 1_555
H4 C4 1_555 1_555
H5 C4 1_555 1_555
C5 H6 1_555 1_555
H7 C5 1_555 1_555
H8 C5 1_555 1_555
C6 C11 1_555 1_555
C7 O3 1_555 1_555
H9 C7 1_555 1_555
C8 C3 1_555 1_555
C9 C1 1_555 1_555
C10 C1 1_555 1_555
H10 C10 1_555 1_555
H11 C10 1_555 1_555
H12 C10 1_555 1_555
C11 C4 1_555 1_555
C12 C9 1_555 1_555
H13 C12 1_555 1_555
C13 C8 1_555 1_555
H14 C13 1_555 1_555
H15 C13 1_555 1_555
C14 C8 1_555 1_555
H16 C14 1_555 1_555
H17 C14 1_555 1_555
H18 C14 1_555 1_555
C15 C7 1_555 1_555
H19 C15 1_555 1_555
H20 C15 1_555 1_555
C16 C6 1_555 1_555
H21 C16 1_555 1_555
H22 C16 1_555 1_555
H23 C16 1_555 1_555
C17 O1 1_555 1_555
C18 C12 1_555 1_555
C19 C17 1_555 1_555
H24 C19 1_555 1_555
H25 C19 1_555 1_555
H26 C19 1_555 1_555
C20 C6 1_555 1_555
C21 O5 1_555 1_555
H27 C21 1_555 1_555
C22 C20 1_555 1_555
H28 C22 1_555 1_555
C1 C7 1_555 1_555
C2 C3 1_555 1_555
C5 C8 1_555 1_555
C9 C11 1_555 1_555
C13 C15 1_555 1_555
C18 C20 1_555 1_555
C21 C22 1_555 1_555

#END
