
#######################################################################
#
#                 Cambridge Crystallographic Data Centre
#                                CCDC 
#
#######################################################################
#
# If this CIF has been generated from an entry in the Cambridge 
# Structural Database, then it will include bibliographic, chemical, 
# crystal, experimental, refinement or atomic coordinate data resulting 
# from the CCDC's data processing and validation procedures.
#
#######################################################################

data_WOMYUT
_chemical_name_common            
'4-(3-Methoxy-3-oxo-1-propen-1-yl)-1,3-dimethyl-1H-imidazol-3-ium iodide'
_chemical_formula_moiety         'C9 H13 N2 O2 1+,I1 1-'
_chemical_name_systematic        
'Methyl 3-(1,3-dimethyl-1H-3-imidazolium-4-yl)acrylate iodide'
_symmetry_cell_setting           monoclinic
_symmetry_space_group_name_H-M   'P 21/n'
_symmetry_Int_Tables_number      14
_space_group_name_Hall           '-P 2yn'
loop_
_symmetry_equiv_pos_site_id
_symmetry_equiv_pos_as_xyz
1 x,y,z
2 1/2-x,1/2+y,1/2-z
3 -x,-y,-z
4 1/2+x,1/2-y,1/2+z
_cell_length_a                   9.6726(16)
_cell_length_b                   9.4366(15)
_cell_length_c                   12.868(2)
_cell_angle_alpha                90
_cell_angle_beta                 99.595(3)
_cell_angle_gamma                90
_cell_volume                     1158.11
_exptl_crystal_colour            colorless
_exptl_crystal_description       block
_chemical_melting_point          '195-197 deg.C'
_cell_formula_units_Z            4
_exptl_crystal_recrystallization_method acetonitrile
loop_
_atom_site_label
_atom_site_type_symbol
_atom_site_fract_x
_atom_site_fract_y
_atom_site_fract_z
I1 I 0.21424(2) 0.19932(2) 0.924911(19)
O1 O 0.7848(3) 0.4285(3) 0.8515(2)
O2 O 0.6716(3) 0.2282(3) 0.8824(2)
N1 N 0.1755(4) 0.7039(3) 0.8686(3)
N2 N 0.3772(3) 0.7919(3) 0.8533(3)
C1 C 0.2443(4) 0.8226(4) 0.8538(3)
C2 C 0.2677(4) 0.5932(4) 0.8755(3)
C3 C 0.3963(4) 0.6457(4) 0.8651(3)
C4 C 0.0268(5) 0.6928(5) 0.8757(4)
C5 C 0.4842(4) 0.8936(5) 0.8350(4)
C6 C 0.5286(4) 0.5751(4) 0.8639(3)
C7 C 0.5429(4) 0.4354(4) 0.8697(3)
C8 C 0.6800(4) 0.3684(4) 0.8663(3)
C9 C 0.7967(5) 0.1452(5) 0.8745(4)
H1 H 0.205(5) 0.913(5) 0.847(3)
H2 H 0.238(4) 0.517(4) 0.889(3)
H3 H 0.601(4) 0.636(4) 0.858(3)
H4 H 0.469(4) 0.381(4) 0.869(3)
H5 H -0.029(6) 0.656(6) 0.812(5)
H6 H 0.501(5) 0.886(6) 0.770(4)
H7 H 0.786(6) 0.098(7) 0.798(5)
H8 H -0.011(6) 0.796(5) 0.882(4)
H9 H 0.569(5) 0.880(5) 0.887(4)
H10 H 0.883(5) 0.203(4) 0.900(4)
H11 H 0.012(6) 0.634(6) 0.922(5)
H12 H 0.451(5) 0.984(5) 0.835(4)
H13 H 0.796(4) 0.073(4) 0.922(3)
loop_
_geom_bond_atom_site_label_1
_geom_bond_atom_site_label_2
_geom_bond_site_symmetry_1
_geom_bond_site_symmetry_2
O1 C8 1_555 1_555
O2 C8 1_555 1_555
N1 C1 1_555 1_555
N2 C1 1_555 1_555
C1 H1 1_555 1_555
C2 N1 1_555 1_555
C3 N2 1_555 1_555
C4 N1 1_555 1_555
C5 N2 1_555 1_555
C6 C3 1_555 1_555
C7 C6 1_555 1_555
C8 C7 1_555 1_555
C9 O2 1_555 1_555
H2 C2 1_555 1_555
H3 C6 1_555 1_555
H4 C7 1_555 1_555
H5 C4 1_555 1_555
H6 C5 1_555 1_555
H7 C9 1_555 1_555
H8 C4 1_555 1_555
H9 C5 1_555 1_555
H10 C9 1_555 1_555
H11 C4 1_555 1_555
H12 C5 1_555 1_555
H13 C9 1_555 1_555
C2 C3 1_555 1_555

#END
