
#######################################################################
#
#                 Cambridge Crystallographic Data Centre
#                                CCDC 
#
#######################################################################
#
# If this CIF has been generated from an entry in the Cambridge 
# Structural Database, then it will include bibliographic, chemical, 
# crystal, experimental, refinement or atomic coordinate data resulting 
# from the CCDC's data processing and validation procedures.
#
#######################################################################

data_WOPCIO
_chemical_name_common            
'bis(3-(Hydroxy(diphenyl)methyl)benzenesulfonamide) 18-crown-6 clathrate'
_chemical_formula_moiety         '2(C19 H17 N1 O3 S1),C12 H24 O6'
_chemical_name_systematic        
'bis(3-(Hydroxy(diphenyl)methyl)benzenesulfonamide) 1,4,7,10,13,16-hexaoxacyclooctadecane clathrate'
_symmetry_cell_setting           triclinic
_symmetry_space_group_name_H-M   'P -1'
_symmetry_Int_Tables_number      2
_space_group_name_Hall           '-P 1'
loop_
_symmetry_equiv_pos_site_id
_symmetry_equiv_pos_as_xyz
1 x,y,z
2 -x,-y,-z
_cell_length_a                   8.4707(6)
_cell_length_b                   12.4699(9)
_cell_length_c                   12.8600(9)
_cell_angle_alpha                115.372(1)
_cell_angle_beta                 97.929(1)
_cell_angle_gamma                99.540(1)
_cell_volume                     1176.63
_exptl_crystal_colour            colorless
_exptl_crystal_description       cubic
_chemical_melting_point          '174-176 deg.C'
_cell_formula_units_Z            1
loop_
_atom_site_label
_atom_site_type_symbol
_atom_site_fract_x
_atom_site_fract_y
_atom_site_fract_z
S1 S -0.12262(5) -0.25176(4) 0.01185(4)
O1 O -0.21202(16) -0.20386(12) 0.10080(12)
H1 H 0.220(3) 0.262(2) 0.257(2)
O2 O -0.20402(16) -0.30135(11) -0.11019(10)
O3 O 0.21251(17) 0.25370(11) 0.31352(11)
N1 N -0.0597(2) -0.36008(15) 0.02529(15)
H2 H -0.011(3) -0.3371(19) 0.094(2)
H3 H -0.007(3) -0.396(2) -0.0284(19)
C1 C 0.2685(2) 0.13121(15) 0.40761(14)
C2 C 0.3066(2) 0.02913(17) 0.41096(16)
H4 H 0.3502 -0.0218 0.3514
C3 C 0.2811(3) 0.00119(19) 0.50154(17)
H5 H 0.3087 -0.0675 0.5027
C4 C 0.2152(3) 0.07433(19) 0.58957(17)
H6 H 0.1979 0.0556 0.6504
C5 C 0.1755(3) 0.17494(19) 0.58667(17)
H7 H 0.1300 0.2246 0.6457
C6 C 0.2019(2) 0.20401(17) 0.49687(16)
H8 H 0.1747 0.2731 0.4966
C7 C 0.4903(2) 0.22412(15) 0.34139(14)
C8 C 0.6040(2) 0.15347(17) 0.31807(15)
H9 H 0.5675 0.0684 0.2815
C9 C 0.7713(2) 0.20804(19) 0.34859(16)
H10 H 0.8459 0.1595 0.3316
C10 C 0.8272(3) 0.3336(2) 0.40382(17)
H11 H 0.9393 0.3702 0.4240
C11 C 0.7173(3) 0.40405(19) 0.42880(18)
H12 H 0.7550 0.4890 0.4673
C12 C 0.5491(3) 0.35018(16) 0.39737(16)
H13 H 0.4755 0.3995 0.4142
C13 C 0.2460(2) 0.05653(14) 0.18556(14)
C14 C 0.3168(2) 0.05628(15) 0.09402(14)
H14 H 0.4073 0.1194 0.1105
C15 C 0.2556(2) -0.03541(16) -0.02034(15)
H15 H 0.3046 -0.0331 -0.0800
C16 C 0.1222(2) -0.13090(15) -0.04754(14)
H16 H 0.0823 -0.1938 -0.1246
C17 C 0.0490(2) -0.13118(14) 0.04230(14)
C18 C 0.1092(2) -0.03854(14) 0.15722(14)
H17 H 0.0577 -0.0398 0.2162
C19 C 0.3043(2) 0.16544(14) 0.31019(14)
O4 O -0.23802(16) 0.38825(12) 0.07840(11)
O5 O 0.05607(18) 0.57383(13) 0.21857(11)
O6 O 0.29281(19) 0.72374(19) 0.18037(14)
C20 C -0.3965(3) 0.3481(2) 0.0024(2)
H18 H -0.4250 0.4165 -0.0064
H19 H -0.4771 0.3190 0.0373
C21 C -0.2270(3) 0.4868(2) 0.19020(18)
H20 H -0.3073 0.4624 0.2280
H21 H -0.2503 0.5560 0.1806
C22 C -0.0576(3) 0.5226(2) 0.26541(18)
H22 H -0.0533 0.5819 0.3457
H23 H -0.0296 0.4511 0.2675
C23 C 0.2186(3) 0.6202(2) 0.29040(19)
H24 H 0.2455 0.5623 0.3174
H25 H 0.2266 0.6969 0.3593
C24 C 0.3367(3) 0.6404(3) 0.2210(3)
H28 H 0.4479 0.6740 0.2702
H29 H 0.3329 0.5632 0.1540
C25 C -0.4020(3) 0.2481(2) -0.1159(2)
H30 H -0.5135 0.2216 -0.1638
H31 H -0.3789 0.1792 -0.1057
O4A O 0.23802(16) 0.61175(12) -0.07840(11)
O5A O -0.05607(18) 0.42617(13) -0.21857(11)
O6A O -0.29281(19) 0.27626(19) -0.18037(14)
C20A C 0.3965(3) 0.6519(2) -0.0024(2)
H18A H 0.4250 0.5835 0.0064
H19A H 0.4771 0.6810 -0.0373
C21A C 0.2270(3) 0.5132(2) -0.19020(18)
H20A H 0.3073 0.5376 -0.2280
H21A H 0.2503 0.4440 -0.1806
C22A C 0.0576(3) 0.4774(2) -0.26541(18)
H22A H 0.0533 0.4181 -0.3457
H23A H 0.0296 0.5489 -0.2675
C23A C -0.2186(3) 0.3798(2) -0.29040(19)
H24A H -0.2455 0.4377 -0.3174
H25A H -0.2266 0.3031 -0.3593
C24A C -0.3367(3) 0.3596(3) -0.2210(3)
H28A H -0.4479 0.3260 -0.2702
H29A H -0.3329 0.4368 -0.1540
C25A C 0.4020(3) 0.7519(2) 0.1159(2)
H30A H 0.5135 0.7784 0.1638
H31A H 0.3789 0.8208 0.1057
H26? H 0.2141 0.6577 0.3731
H27? H 0.2700 0.5528 0.2761
H32? H 0.3334 0.8063 0.1139
H33? H 0.5125 0.7977 0.1634
O7? O 0.323(3) 0.653(2) 0.146(2)
C26? C 0.315(4) 0.706(3) 0.268(3)
H34? H 0.4246 0.7355 0.3185
H35? H 0.2669 0.7762 0.2859
loop_
_geom_bond_atom_site_label_1
_geom_bond_atom_site_label_2
_geom_bond_site_symmetry_1
_geom_bond_site_symmetry_2
S1 O1 1_555 1_555
H1 O3 1_555 1_555
O2 S1 1_555 1_555
O3 C19 1_555 1_555
O4 C20 1_555 1_555
O5 C22 1_555 1_555
O6 C24 1_555 1_555
N1 S1 1_555 1_555
H2 N1 1_555 1_555
H3 N1 1_555 1_555
C1 C2 1_555 1_555
C2 H4 1_555 1_555
C3 C2 1_555 1_555
H5 C3 1_555 1_555
C4 C3 1_555 1_555
H6 C4 1_555 1_555
C5 C4 1_555 1_555
H7 C5 1_555 1_555
C6 C1 1_555 1_555
H8 C6 1_555 1_555
C7 C8 1_555 1_555
C8 H9 1_555 1_555
C9 C8 1_555 1_555
H10 C9 1_555 1_555
C10 C9 1_555 1_555
H11 C10 1_555 1_555
C11 C10 1_555 1_555
H12 C11 1_555 1_555
C12 C7 1_555 1_555
H13 C12 1_555 1_555
C13 C14 1_555 1_555
C14 H14 1_555 1_555
C15 C14 1_555 1_555
H15 C15 1_555 1_555
C16 C15 1_555 1_555
H16 C16 1_555 1_555
C17 S1 1_555 1_555
C18 C13 1_555 1_555
H17 C18 1_555 1_555
C19 C1 1_555 1_555
C20 H18 1_555 1_555
H19 C20 1_555 1_555
C21 O4 1_555 1_555
H20 C21 1_555 1_555
H21 C21 1_555 1_555
C22 C21 1_555 1_555
H22 C22 1_555 1_555
H23 C22 1_555 1_555
C23 O5 1_555 1_555
H24 C23 1_555 1_555
H25 C23 1_555 1_555
C24 C23 1_555 1_555
H28 C24 1_555 1_555
H29 C24 1_555 1_555
C25 C20 1_555 1_555
H30 C25 1_555 1_555
H31 C25 1_555 1_555
O4A C20A 1_555 1_555
O5A C22A 1_555 1_555
O6A C25 1_555 1_555
C20A H18A 1_555 1_555
H19A C20A 1_555 1_555
C21A O4A 1_555 1_555
H20A C21A 1_555 1_555
H21A C21A 1_555 1_555
C22A C21A 1_555 1_555
H22A C22A 1_555 1_555
H23A C22A 1_555 1_555
C23A O5A 1_555 1_555
H24A C23A 1_555 1_555
H25A C23A 1_555 1_555
C24A O6A 1_555 1_555
H28A C24A 1_555 1_555
H29A C24A 1_555 1_555
C25A O6 1_555 1_555
H30A C25A 1_555 1_555
H31A C25A 1_555 1_555
C5 C6 1_555 1_555
C7 C19 1_555 1_555
C11 C12 1_555 1_555
C13 C19 1_555 1_555
C16 C17 1_555 1_555
C17 C18 1_555 1_555
C20A C25A 1_555 1_555
C23A C24A 1_555 1_555

#END
