
#######################################################################
#
#                 Cambridge Crystallographic Data Centre
#                                CCDC 
#
#######################################################################
#
# If this CIF has been generated from an entry in the Cambridge 
# Structural Database, then it will include bibliographic, chemical, 
# crystal, experimental, refinement or atomic coordinate data resulting 
# from the CCDC's data processing and validation procedures.
#
#######################################################################

data_WOPCAG
_chemical_name_common            'bis(Tritylol) 12-crown-4 clathrate'
_chemical_formula_moiety         '2(C19 H16 O1),C8 H16 O4'
_chemical_name_systematic        
'bis(Triphenylmethanol) 1,4,7,10-tetraoxacyclododecane clathrate'
_symmetry_cell_setting           triclinic
_symmetry_space_group_name_H-M   'P -1'
_symmetry_Int_Tables_number      2
_space_group_name_Hall           '-P 1'
loop_
_symmetry_equiv_pos_site_id
_symmetry_equiv_pos_as_xyz
1 x,y,z
2 -x,-y,-z
_cell_length_a                   8.3614(7)
_cell_length_b                   10.4963(9)
_cell_length_c                   11.710(1)
_cell_angle_alpha                82.114(2)
_cell_angle_beta                 86.716(2)
_cell_angle_gamma                66.740(2)
_cell_volume                     935.249
_exptl_crystal_colour            colorless
_exptl_crystal_description       parallelepiped
_chemical_melting_point          '147-148 deg.C'
_cell_formula_units_Z            1
loop_
_atom_site_label
_atom_site_type_symbol
_atom_site_fract_x
_atom_site_fract_y
_atom_site_fract_z
O1 O 0.23143(14) 0.83849(11) 0.00181(9)
O2 O 0.09743(15) 1.07960(12) 0.12683(10)
C1 C 0.2142(2) 0.82607(19) -0.11612(14)
H2 H 0.3165 0.7504 -0.1404
H3 H 0.2055 0.9118 -0.1637
C2 C 0.3184(2) 0.92720(18) 0.01844(17)
H4 H 0.4009 0.9243 -0.0438
H5 H 0.3827 0.8935 0.0902
C3 C 0.1912(2) 1.07501(18) 0.02178(16)
H6 H 0.2523 1.1371 0.0176
H7 H 0.1121 1.1044 -0.0431
C4 C 0.0568(2) 0.79813(18) -0.13180(16)
H8 H 0.0528 0.7256 -0.0721
H9 H 0.0633 0.7645 -0.2058
O1A O -0.23143(14) 1.16151(11) -0.00181(9)
O2A O -0.09743(15) 0.92040(12) -0.12683(10)
C1A C -0.2142(2) 1.17393(19) 0.11612(14)
H2A H -0.3165 1.2496 0.1404
H3A H -0.2055 1.0882 0.1637
C2A C -0.3184(2) 1.07280(18) -0.01844(17)
H4A H -0.4009 1.0757 0.0438
H5A H -0.3827 1.1065 -0.0902
C3A C -0.1912(2) 0.92499(18) -0.02178(16)
H6A H -0.2523 0.8629 -0.0176
H7A H -0.1121 0.8956 0.0431
C4A C -0.0568(2) 1.20187(18) 0.13180(16)
H8A H -0.0528 1.2744 0.0721
H9A H -0.0633 1.2355 0.2058
O3 O 0.25045(13) 0.59090(11) 0.13900(8)
H1 H 0.247(2) 0.672(2) 0.1044(18)
C5 C 0.33748(17) 0.56115(14) 0.24767(11)
C6 C 0.39359(17) 0.40389(14) 0.28445(11)
C7 C 0.3090(2) 0.32935(16) 0.24278(13)
H10 H 0.2182 0.3752 0.1906
C8 C 0.3583(2) 0.18765(18) 0.27798(15)
H11 H 0.3014 0.1389 0.2487
C9 C 0.4915(2) 0.11846(17) 0.35634(15)
H12 H 0.5241 0.0234 0.3801
C10 C 0.5757(2) 0.19112(17) 0.39912(14)
H13 H 0.6651 0.1451 0.4523
C11 C 0.52772(19) 0.33235(15) 0.36328(12)
H14 H 0.5860 0.3802 0.3923
C12 C 0.49924(17) 0.59716(14) 0.23146(11)
C13 C 0.60223(19) 0.56268(16) 0.13387(13)
H15 H 0.5693 0.5224 0.0783
C14 C 0.7528(2) 0.58748(18) 0.11845(17)
H16 H 0.8199 0.5641 0.0525
C15 C 0.8046(2) 0.6463(2) 0.19933(18)
H17 H 0.9069 0.6618 0.1890
C16 C 0.7033(2) 0.6820(2) 0.29592(17)
H18 H 0.7371 0.7223 0.3509
C17 C 0.5513(2) 0.65831(17) 0.31199(14)
H19 H 0.4836 0.6837 0.3774
C18 C 0.20871(17) 0.64685(14) 0.33509(11)
C19 C 0.1272(2) 0.79080(16) 0.30728(14)
H20 H 0.1510 0.8329 0.2369
C20 C 0.0113(2) 0.87216(18) 0.38296(16)
H21 H -0.0412 0.9685 0.3634
C21 C -0.0272(2) 0.81195(18) 0.48696(15)
H22 H -0.1058 0.8671 0.5374
C22 C 0.0514(2) 0.66972(18) 0.51573(14)
H23 H 0.0261 0.6283 0.5860
C23 C 0.16885(19) 0.58748(16) 0.43992(13)
H24 H 0.2213 0.4912 0.4601
loop_
_geom_bond_atom_site_label_1
_geom_bond_atom_site_label_2
_geom_bond_site_symmetry_1
_geom_bond_site_symmetry_2
O1 C1 1_555 1_555
O2 C3 1_555 1_555
O3 H1 1_555 1_555
C1 H2 1_555 1_555
H3 C1 1_555 1_555
C2 O1 1_555 1_555
H4 C2 1_555 1_555
H5 C2 1_555 1_555
C3 C2 1_555 1_555
H6 C3 1_555 1_555
H7 C3 1_555 1_555
C4 C1 1_555 1_555
H8 C4 1_555 1_555
H9 C4 1_555 1_555
C5 O3 1_555 1_555
C6 C5 1_555 1_555
C7 C6 1_555 1_555
H10 C7 1_555 1_555
C8 C7 1_555 1_555
H11 C8 1_555 1_555
C9 C8 1_555 1_555
H12 C9 1_555 1_555
C10 C9 1_555 1_555
H13 C10 1_555 1_555
C11 C6 1_555 1_555
H14 C11 1_555 1_555
C12 C5 1_555 1_555
C13 C12 1_555 1_555
H15 C13 1_555 1_555
C14 C13 1_555 1_555
H16 C14 1_555 1_555
C15 C14 1_555 1_555
H17 C15 1_555 1_555
C16 C15 1_555 1_555
H18 C16 1_555 1_555
C17 C12 1_555 1_555
H19 C17 1_555 1_555
C18 C5 1_555 1_555
C19 C18 1_555 1_555
H20 C19 1_555 1_555
C20 C19 1_555 1_555
H21 C20 1_555 1_555
C21 C20 1_555 1_555
H22 C21 1_555 1_555
C22 C21 1_555 1_555
H23 C22 1_555 1_555
C23 C18 1_555 1_555
H24 C23 1_555 1_555
O1A C1A 1_555 1_555
O2A C4 1_555 1_555
C1A H2A 1_555 1_555
H3A C1A 1_555 1_555
C2A O1A 1_555 1_555
H4A C2A 1_555 1_555
H5A C2A 1_555 1_555
C3A O2A 1_555 1_555
H6A C3A 1_555 1_555
H7A C3A 1_555 1_555
C4A O2 1_555 1_555
H8A C4A 1_555 1_555
H9A C4A 1_555 1_555
C10 C11 1_555 1_555
C16 C17 1_555 1_555
C22 C23 1_555 1_555
C1A C4A 1_555 1_555
C2A C3A 1_555 1_555

#END
