
#######################################################################
#
#                 Cambridge Crystallographic Data Centre
#                                CCDC 
#
#######################################################################
#
# If this CIF has been generated from an entry in the Cambridge 
# Structural Database, then it will include bibliographic, chemical, 
# crystal, experimental, refinement or atomic coordinate data resulting 
# from the CCDC's data processing and validation procedures.
#
#######################################################################

data_WOQQEA
_chemical_formula_moiety         'C30 H28'
_chemical_name_systematic        
2,2'-(2,2-Diphenylethene-1,1-diyl)bis(1,3-dimethylbenzene)
_symmetry_cell_setting           tetragonal
_symmetry_space_group_name_H-M   'P 4/n'
_symmetry_Int_Tables_number      85
_space_group_name_Hall           '-P 4a'
loop_
_symmetry_equiv_pos_site_id
_symmetry_equiv_pos_as_xyz
1 x,y,z
2 1/2-x,1/2-y,z
3 1/2-y,x,z
4 y,1/2-x,z
5 -x,-y,-z
6 1/2+x,1/2+y,-z
7 1/2+y,-x,-z
8 -y,1/2+x,-z
_cell_length_a                   12.9991(19)
_cell_length_b                   12.9991(19)
_cell_length_c                   6.5730(10)
_cell_angle_alpha                90
_cell_angle_beta                 90
_cell_angle_gamma                90
_cell_volume                     1110.68
_exptl_crystal_colour            colorless
_exptl_crystal_description       block
_cell_formula_units_Z            2
loop_
_atom_site_label
_atom_site_type_symbol
_atom_site_fract_x
_atom_site_fract_y
_atom_site_fract_z
C1 C 0.23369(15) 0.02693(15) 0.6907(3)
C2 C 0.27178(17) -0.07284(14) 0.7013(3)
H1 H 0.2520 -0.1222 0.6022
C3 C 0.33874(17) -0.10033(12) 0.8570(4)
H2 H 0.3648 -0.1685 0.8642
C4 C 0.36761(15) -0.02806(16) 1.0020(3)
H3 H 0.4134 -0.0469 1.1084
C5 C 0.32952(15) 0.07171(14) 0.9914(3)
C6 C 0.26256(16) 0.09921(11) 0.8357(3)
C7 C 0.1621(2) 0.0530(3) 0.5149(4)
H4 H 0.1730 0.0040 0.4037
H5 H 0.1767 0.1228 0.4667
H6 H 0.0905 0.0489 0.5610
C8 C 0.3597(4) 0.1438(4) 1.1625(7)
H7 H 0.4304 0.1676 1.1415
H8 H 0.3550 0.1074 1.2927
H9 H 0.3131 0.2030 1.1639
C9 C 0.21988(17) 0.20742(16) 0.8234(3)
C1A C 0.26631(15) 0.47307(15) 0.6907(3)
C2A C 0.22822(17) 0.57284(14) 0.7013(3)
H1A H 0.2480 0.6222 0.6022
C3A C 0.16126(17) 0.60033(12) 0.8570(4)
H2A H 0.1352 0.6685 0.8642
C4A C 0.13239(15) 0.52806(16) 1.0020(3)
H3A H 0.0866 0.5469 1.1084
C5A C 0.17048(15) 0.42829(14) 0.9914(3)
C6A C 0.23744(16) 0.40079(11) 0.8357(3)
C7A C 0.3379(2) 0.4470(3) 0.5149(4)
H4A H 0.3270 0.4960 0.4037
H5A H 0.3233 0.3772 0.4667
H6A H 0.4095 0.4511 0.5610
C8A C 0.1403(4) 0.3562(4) 1.1625(7)
H7A H 0.0696 0.3324 1.1415
H8A H 0.1450 0.3926 1.2927
H9A H 0.1869 0.2970 1.1639
C9A C 0.28012(17) 0.29258(16) 0.8234(3)
C1B C 0.47307(15) 0.23369(15) 0.6907(3)
C2B C 0.57284(14) 0.27178(17) 0.7013(3)
H1B H 0.6222 0.2520 0.6022
C3B C 0.60033(12) 0.33874(17) 0.8570(4)
H2B H 0.6685 0.3648 0.8642
C4B C 0.52806(16) 0.36761(15) 1.0020(3)
H3B H 0.5469 0.4134 1.1084
C5B C 0.42829(14) 0.32952(15) 0.9914(3)
C6B C 0.40079(11) 0.26256(16) 0.8357(3)
C7B C 0.4470(3) 0.1621(2) 0.5149(4)
H4B H 0.4960 0.1730 0.4037
H5B H 0.3772 0.1767 0.4667
H6B H 0.4511 0.0905 0.5610
C8B C 0.3562(4) 0.3597(4) 1.1625(7)
H7B H 0.3324 0.4304 1.1415
H8B H 0.3926 0.3550 1.2927
H9B H 0.2970 0.3131 1.1639
C9B C 0.29258(16) 0.21988(17) 0.8234(3)
C1C C 0.02693(15) 0.26631(15) 0.6907(3)
C2C C -0.07284(14) 0.22822(17) 0.7013(3)
H1C H -0.1222 0.2480 0.6022
C3C C -0.10033(12) 0.16126(17) 0.8570(4)
H2C H -0.1685 0.1352 0.8642
C4C C -0.02806(16) 0.13239(15) 1.0020(3)
H3C H -0.0469 0.0866 1.1084
C5C C 0.07171(14) 0.17048(15) 0.9914(3)
C6C C 0.09921(11) 0.23744(16) 0.8357(3)
C7C C 0.0530(3) 0.3379(2) 0.5149(4)
H4C H 0.0040 0.3270 0.4037
H5C H 0.1228 0.3233 0.4667
H6C H 0.0489 0.4095 0.5610
C8C C 0.1438(4) 0.1403(4) 1.1625(7)
H7C H 0.1676 0.0696 1.1415
H8C H 0.1074 0.1450 1.2927
H9C H 0.2030 0.1869 1.1639
C9C C 0.20742(16) 0.28012(17) 0.8234(3)
H10 H 0.2046 0.1664 0.4592
H11 H -0.0839 0.3006 0.5340
C10? C -0.10892(14) 0.2055(3) 0.7756(5)
H12? H 0.2966 -0.1817 0.7629
C11? C -0.0508(2) 0.2632(3) 0.6397(4)
C12? C 0.0557(2) 0.2663(2) 0.6583(4)
C13? C 0.10402(13) 0.2117(2) 0.8129(5)
C14? C 0.34604(19) 0.04592(18) 0.9488(4)
C15? C 0.3491(2) -0.06054(17) 0.9302(5)
H13? H 0.3886 -0.1003 1.0231
C16? C 0.1842(4) 0.0947(5) 0.4805(8)
H14? H 0.1094 0.0908 0.4979
H15? H 0.1960 0.0942 0.5654
H16? H 0.2046 0.0535 0.3623
C17? C 0.3779(4) 0.0914(4) 1.1667(7)
H17? H 0.4472 0.1209 1.1586
H18? H 0.3771 0.0361 1.2680
H19? H 0.3290 0.1451 1.2065
H20? H 0.3499 0.1205 1.0929
H21? H 0.3832 0.0798 1.0576
H22? H 0.1860 0.0436 0.5909
loop_
_geom_bond_atom_site_label_1
_geom_bond_atom_site_label_2
_geom_bond_site_symmetry_1
_geom_bond_site_symmetry_2
C1 C2 1_555 1_555
C2 H1 1_555 1_555
C3 C2 1_555 1_555
H2 C3 1_555 1_555
C4 C3 1_555 1_555
H3 C4 1_555 1_555
C5 C4 1_555 1_555
C6 C1 1_555 1_555
C7 C1 1_555 1_555
H4 C7 1_555 1_555
H5 C7 1_555 1_555
H6 C7 1_555 1_555
C8 C5 1_555 1_555
H7 C8 1_555 1_555
H8 C8 1_555 1_555
H9 C8 1_555 1_555
C9 C6 1_555 1_555
C1A C2A 1_555 1_555
C2A H1A 1_555 1_555
C3A C2A 1_555 1_555
H2A C3A 1_555 1_555
C4A C3A 1_555 1_555
H3A C4A 1_555 1_555
C5A C4A 1_555 1_555
C6A C1A 1_555 1_555
C7A C1A 1_555 1_555
H4A C7A 1_555 1_555
H5A C7A 1_555 1_555
H6A C7A 1_555 1_555
C8A C5A 1_555 1_555
H7A C8A 1_555 1_555
H8A C8A 1_555 1_555
H9A C8A 1_555 1_555
C9A C9 1_555 1_555
C1B C2B 1_555 1_555
C2B H1B 1_555 1_555
C3B C2B 1_555 1_555
H2B C3B 1_555 1_555
C4B C3B 1_555 1_555
H3B C4B 1_555 1_555
C5B C4B 1_555 1_555
C6B C9A 1_555 1_555
C7B C1B 1_555 1_555
H4B C7B 1_555 1_555
H5B C7B 1_555 1_555
H6B C7B 1_555 1_555
C8B C5B 1_555 1_555
H7B C8B 1_555 1_555
H8B C8B 1_555 1_555
H9B C8B 1_555 1_555
C9B C6 1_555 1_555
C1C C2C 1_555 1_555
C2C H1C 1_555 1_555
C3C C2C 1_555 1_555
H2C C3C 1_555 1_555
C4C C3C 1_555 1_555
H3C C4C 1_555 1_555
C5C C4C 1_555 1_555
C6C C9 1_555 1_555
C7C C1C 1_555 1_555
H4C C7C 1_555 1_555
H5C C7C 1_555 1_555
H6C C7C 1_555 1_555
C8C C5C 1_555 1_555
H7C C8C 1_555 1_555
H8C C8C 1_555 1_555
H9C C8C 1_555 1_555
C9C C9 1_555 1_555
C5 C6 1_555 1_555
C9 C9B 1_555 1_555
C5A C6A 1_555 1_555
C6A C9A 1_555 1_555
C6A C9C 1_555 1_555
C9A C9B 1_555 1_555
C9A C9C 1_555 1_555
C1B C6B 1_555 1_555
C5B C6B 1_555 1_555
C6B C9B 1_555 1_555
C9B C9C 1_555 1_555
C1C C6C 1_555 1_555
C5C C6C 1_555 1_555
C6C C9C 1_555 1_555

#END
