
#######################################################################
#
#                 Cambridge Crystallographic Data Centre
#                                CCDC 
#
#######################################################################
#
# If this CIF has been generated from an entry in the Cambridge 
# Structural Database, then it will include bibliographic, chemical, 
# crystal, experimental, refinement or atomic coordinate data resulting 
# from the CCDC's data processing and validation procedures.
#
#######################################################################

data_WORCIR
_chemical_formula_moiety         'C17 H20 N4 S2,0.5(C1 H4 O1)'
_chemical_name_systematic        
"1,1'-propane-1,3-diylbis(3-phenyl(thiourea)) methanol solvate"
_symmetry_cell_setting           triclinic
_symmetry_space_group_name_H-M   'P -1'
_symmetry_Int_Tables_number      2
_space_group_name_Hall           '-P 1'
loop_
_symmetry_equiv_pos_site_id
_symmetry_equiv_pos_as_xyz
1 x,y,z
2 -x,-y,-z
_cell_length_a                   10.9393(8)
_cell_length_b                   12.8867(9)
_cell_length_c                   13.7998(11)
_cell_angle_alpha                85.537(2)
_cell_angle_beta                 82.492(2)
_cell_angle_gamma                76.1940(10)
_cell_volume                     1870.78
_exptl_crystal_description       block
_cell_formula_units_Z            4
loop_
_atom_site_label
_atom_site_type_symbol
_atom_site_fract_x
_atom_site_fract_y
_atom_site_fract_z
O1 O 1.25166(18) 0.09774(14) 0.61495(15)
H1 H 1.1685(15) 0.080(2) 0.628(2)
C1 C 1.3263(3) -0.0002(2) 0.6317(2)
H2 H 1.4120 0.0067 0.6386
H3 H 1.3295 -0.0449 0.5767
H4 H 1.2914 -0.0334 0.6920
S1 S 0.90151(5) 0.61930(4) 0.08036(3)
S2 S 1.03942(5) 0.91889(4) 0.36680(4)
N1 N 0.87804(17) 0.82759(13) 0.06294(12)
H5 H 0.851(2) 0.8176(19) 0.0116(18)
N2 N 0.92369(16) 0.75057(13) 0.21394(11)
H6 H 0.920(2) 0.8122(18) 0.2294(16)
N3 N 1.14072(16) 0.71461(13) 0.41464(11)
H7 H 1.163(2) 0.6645(19) 0.4552(17)
N4 N 1.08480(17) 0.82884(14) 0.54148(12)
H8 H 1.048(2) 0.8927(18) 0.5565(16)
C2 C 0.8589(2) 0.93531(15) 0.09000(13)
C3 C 0.7432(2) 1.00544(16) 0.08026(15)
H9 H 0.6774 0.9814 0.0567
C4 C 0.7238(3) 1.11086(18) 0.10498(17)
H10 H 0.6446 1.1593 0.0983
C5 C 0.8196(3) 1.14550(18) 0.13929(17)
H11 H 0.8056 1.2175 0.1571
C6 C 0.9353(3) 1.07626(18) 0.14774(16)
H12 H 1.0010 1.1006 0.1711
C7 C 0.9562(2) 0.97072(17) 0.12219(14)
H13 H 1.0365 0.9232 0.1267
C8 C 0.90188(17) 0.73891(14) 0.12288(13)
C9 C 0.94413(18) 0.66464(15) 0.28979(13)
H14 H 0.8967 0.6110 0.2786
H15 H 0.9096 0.6946 0.3543
C10 C 1.08285(19) 0.60929(15) 0.29225(13)
H16 H 1.1163 0.5774 0.2284
H17 H 1.0891 0.5501 0.3430
C11 C 1.16597(19) 0.68228(15) 0.31332(13)
H18 H 1.2561 0.6447 0.2999
H19 H 1.1510 0.7469 0.2688
C12 C 1.09216(17) 0.81298(15) 0.44490(13)
C13 C 1.12289(18) 0.74751(14) 0.61587(13)
C14 C 1.03374(19) 0.72508(17) 0.69032(15)
H20 H 0.9477 0.7631 0.6916
C15 C 1.0696(2) 0.64737(18) 0.76291(15)
H21 H 1.0081 0.6323 0.8138
C16 C 1.1941(2) 0.59189(16) 0.76153(15)
H22 H 1.2184 0.5383 0.8111
C17 C 1.2831(2) 0.61450(16) 0.68801(14)
H23 H 1.3690 0.5764 0.6870
C18 C 1.24809(19) 0.69259(16) 0.61532(14)
H24 H 1.3102 0.7083 0.5652
S3 S 1.36578(5) 0.45846(4) 0.41408(3)
S4 S 1.29991(6) 0.15307(4) 0.12202(4)
N5 N 1.45980(15) 0.35581(12) 0.57167(11)
H25 H 1.498(2) 0.4059(17) 0.5672(15)
N6 N 1.32063(15) 0.27988(13) 0.50875(12)
H26 H 1.3334(19) 0.2313(16) 0.5534(15)
N7 N 1.37610(16) 0.28065(14) 0.23229(12)
H27 H 1.375(2) 0.3397(18) 0.2479(16)
N8 N 1.30225(16) 0.35687(13) 0.08808(12)
H28 H 1.255(2) 0.3521(19) 0.0441(18)
C19 C 1.48060(17) 0.27486(13) 0.64948(13)
C20 C 1.39808(18) 0.28350(15) 0.73473(14)
H29 H 1.3265 0.3422 0.7416
C21 C 1.41977(19) 0.20634(16) 0.81039(15)
H30 H 1.3630 0.2121 0.8690
C22 C 1.52365(19) 0.12142(15) 0.80046(15)
H31 H 1.5386 0.0689 0.8525
C23 C 1.60593(19) 0.11239(15) 0.71543(16)
H32 H 1.6775 0.0537 0.7089
C24 C 1.58443(18) 0.18888(15) 0.63924(15)
H33 H 1.6407 0.1823 0.5803
C25 C 1.38163(16) 0.35802(14) 0.50330(12)
C26 C 1.24040(18) 0.26168(16) 0.43844(14)
H34 H 1.2167 0.3273 0.3962
H35 H 1.1616 0.2462 0.4739
C27 C 1.30773(18) 0.16868(15) 0.37487(14)
H36 H 1.3415 0.1060 0.4179
H37 H 1.2451 0.1492 0.3382
C28 C 1.41570(18) 0.19259(15) 0.30255(13)
H38 H 1.4796 0.2099 0.3393
H39 H 1.4569 0.1275 0.2665
C29 C 1.32816(18) 0.27012(15) 0.15020(13)
C30 C 1.33061(18) 0.45845(15) 0.09038(13)
C31 C 1.24520(19) 0.54629(16) 0.05435(14)
H40 H 1.1701 0.5372 0.0319
C32 C 1.2697(2) 0.64702(17) 0.05121(16)
H41 H 1.2113 0.7070 0.0265
C33 C 1.3790(2) 0.66103(19) 0.08394(16)
H42 H 1.3949 0.7305 0.0829
C34 C 1.4643(2) 0.57338(18) 0.11804(15)
H43 H 1.5396 0.5828 0.1399
C35 C 1.4420(2) 0.47213(17) 0.12095(14)
H44 H 1.5022 0.4121 0.1437
loop_
_geom_bond_atom_site_label_1
_geom_bond_atom_site_label_2
_geom_bond_site_symmetry_1
_geom_bond_site_symmetry_2
O1 H1 1_555 1_555
C1 O1 1_555 1_555
H2 C1 1_555 1_555
H3 C1 1_555 1_555
H4 C1 1_555 1_555
S1 C8 1_555 1_555
S2 C12 1_555 1_555
N1 H5 1_555 1_555
N2 H6 1_555 1_555
N3 H7 1_555 1_555
N4 H8 1_555 1_555
C2 N1 1_555 1_555
C3 C2 1_555 1_555
H9 C3 1_555 1_555
C4 C3 1_555 1_555
H10 C4 1_555 1_555
C5 C4 1_555 1_555
H11 C5 1_555 1_555
C6 C5 1_555 1_555
H12 C6 1_555 1_555
C7 C2 1_555 1_555
H13 C7 1_555 1_555
C8 N1 1_555 1_555
C9 N2 1_555 1_555
H14 C9 1_555 1_555
H15 C9 1_555 1_555
C10 C9 1_555 1_555
H16 C10 1_555 1_555
H17 C10 1_555 1_555
C11 N3 1_555 1_555
H18 C11 1_555 1_555
H19 C11 1_555 1_555
C12 N3 1_555 1_555
C13 N4 1_555 1_555
C14 C13 1_555 1_555
H20 C14 1_555 1_555
C15 C14 1_555 1_555
H21 C15 1_555 1_555
C16 C15 1_555 1_555
H22 C16 1_555 1_555
C17 C16 1_555 1_555
H23 C17 1_555 1_555
C18 C13 1_555 1_555
H24 C18 1_555 1_555
S3 C25 1_555 1_555
S4 C29 1_555 1_555
N5 H25 1_555 1_555
N6 H26 1_555 1_555
N7 H27 1_555 1_555
N8 H28 1_555 1_555
C19 N5 1_555 1_555
C20 C19 1_555 1_555
H29 C20 1_555 1_555
C21 C20 1_555 1_555
H30 C21 1_555 1_555
C22 C21 1_555 1_555
H31 C22 1_555 1_555
C23 C22 1_555 1_555
H32 C23 1_555 1_555
C24 C19 1_555 1_555
H33 C24 1_555 1_555
C25 N5 1_555 1_555
C26 N6 1_555 1_555
H34 C26 1_555 1_555
H35 C26 1_555 1_555
C27 C26 1_555 1_555
H36 C27 1_555 1_555
H37 C27 1_555 1_555
C28 N7 1_555 1_555
H38 C28 1_555 1_555
H39 C28 1_555 1_555
C29 N7 1_555 1_555
C30 N8 1_555 1_555
C31 C30 1_555 1_555
H40 C31 1_555 1_555
C32 C31 1_555 1_555
H41 C32 1_555 1_555
C33 C32 1_555 1_555
H42 C33 1_555 1_555
C34 C33 1_555 1_555
H43 C34 1_555 1_555
C35 C30 1_555 1_555
H44 C35 1_555 1_555
N2 C8 1_555 1_555
N4 C12 1_555 1_555
C6 C7 1_555 1_555
C10 C11 1_555 1_555
C17 C18 1_555 1_555
N6 C25 1_555 1_555
N8 C29 1_555 1_555
C23 C24 1_555 1_555
C27 C28 1_555 1_555
C34 C35 1_555 1_555

#END
