
#######################################################################
#
#                 Cambridge Crystallographic Data Centre
#                                CCDC 
#
#######################################################################
#
# If this CIF has been generated from an entry in the Cambridge 
# Structural Database, then it will include bibliographic, chemical, 
# crystal, experimental, refinement or atomic coordinate data resulting 
# from the CCDC's data processing and validation procedures.
#
#######################################################################

data_WORTEC
_chemical_formula_moiety         'C23 H22 O4'
_chemical_name_systematic        
'(1\a,2\b,3\a,4\b,8\b,9\a,10\b,11\a,12\b,13\a,16\a,17 \b)-6-Oxaheptacyclo(9.6.2.2^3,9^.1^13,16^.0^2,10^.0^4,8^.0^12,17^)docosane-14,18,20-triene-12,17-dicarboxylic acid anhydride'
_symmetry_cell_setting           orthorhombic
_symmetry_space_group_name_H-M   'P b c a'
_symmetry_Int_Tables_number      61
_space_group_name_Hall           '-P 2ac 2ab'
loop_
_symmetry_equiv_pos_site_id
_symmetry_equiv_pos_as_xyz
1 x,y,z
2 1/2-x,-y,1/2+z
3 1/2+x,1/2-y,-z
4 -x,1/2+y,1/2-z
5 -x,-y,-z
6 1/2+x,y,1/2-z
7 1/2-x,1/2+y,z
8 x,1/2-y,1/2+z
_cell_length_a                   9.518(2)
_cell_length_b                   13.878(2)
_cell_length_c                   26.735(2)
_cell_angle_alpha                90
_cell_angle_beta                 90
_cell_angle_gamma                90
_cell_volume                     3531.45
_exptl_crystal_colour            colorless
_exptl_crystal_description       equant
_chemical_melting_point          225deg.C(dec.)
_cell_formula_units_Z            8
loop_
_atom_site_label
_atom_site_type_symbol
_atom_site_fract_x
_atom_site_fract_y
_atom_site_fract_z
O1 O 0.7073(2) 0.6678(2) 0.2209(1)
O2 O 0.1737(2) 0.5347(1) 0.0509(1)
O3 O 0.3282(2) 0.4922(2) -0.0078(1)
O4 O 0.0135(2) 0.5348(1) 0.1120(1)
C1 C 0.6093(2) 0.5782(2) 0.1537(1)
C2 C 0.7465(3) 0.6103(2) 0.1788(1)
C3 C 0.5798(3) 0.6303(2) 0.2398(1)
C4 C 0.4971(2) 0.5921(2) 0.1950(1)
C5 C 0.4190(2) 0.4965(2) 0.2035(1)
C6 C 0.3436(2) 0.4756(1) 0.1532(1)
C7 C 0.2371(2) 0.3902(2) 0.1529(1)
C8 C 0.2680(2) 0.4703(2) 0.0294(1)
C9 C 0.1055(2) 0.4924(1) 0.0909(1)
C10 C 0.1635(2) 0.3930(1) 0.1009(1)
C11 C 0.0468(2) 0.3154(1) 0.0884(1)
C12 C -0.0179(2) 0.3496(1) 0.0396(1)
C13 C 0.0758(2) 0.3364(2) 0.0039(1)
C14 C 0.1342(3) 0.2311(2) 0.0679(1)
C15 C 0.2069(2) 0.2927(2) 0.0278(1)
C16 C 0.2733(2) 0.3777(1) 0.0596(1)
C17 C 0.3180(3) 0.2980(2) 0.1568(1)
C18 C 0.4122(3) 0.2843(2) 0.1216(1)
C19 C 0.4223(2) 0.3643(2) 0.0835(1)
C20 C 0.4552(2) 0.4601(1) 0.1117(1)
C21 C 0.6049(2) 0.4721(2) 0.1350(1)
C22 C 0.6218(2) 0.4077(2) 0.1797(1)
C23 C 0.5263(3) 0.4200(2) 0.2145(1)
H1 H 0.5923 0.6206 0.1262
H2 H 0.8108 0.6510 0.1592
H3 H 0.7959 0.5472 0.1913
H4 H 0.5245 0.6782 0.2606
H5 H 0.6082 0.5744 0.2640
H6 H 0.4271 0.6401 0.1838
H7 H 0.3515 0.5008 0.2276
H8 H 0.2890 0.5342 0.1454
H9 H 0.1733 0.3962 0.1785
H10 H -0.0186 0.3006 0.1154
H11 H -0.1110 0.3786 0.0388
H12 H 0.0640 0.3527 -0.0323
H13 H 0.0737 0.1750 0.0512
H14 H 0.2035 0.2044 0.0905
H15 H 0.2714 0.2641 0.0066
H16 H 0.3040 0.2515 0.1833
H17 H 0.4757 0.2285 0.1188
H18 H 0.4903 0.3565 0.0568
H19 H 0.4522 0.5139 0.0860
H20 H 0.6741 0.4632 0.1097
H21 H 0.6855 0.3604 0.1817
H22 H 0.5167 0.3818 0.2437
loop_
_geom_bond_atom_site_label_1
_geom_bond_atom_site_label_2
_geom_bond_site_symmetry_1
_geom_bond_site_symmetry_2
O1 C2 1_555 1_555
O2 C8 1_555 1_555
O3 C8 1_555 1_555
O4 C9 1_555 1_555
C1 C2 1_555 1_555
C2 H2 1_555 1_555
C3 O1 1_555 1_555
C4 C1 1_555 1_555
C5 C4 1_555 1_555
C6 C5 1_555 1_555
C7 C6 1_555 1_555
C8 C16 1_555 1_555
C9 O2 1_555 1_555
C10 C7 1_555 1_555
C11 C10 1_555 1_555
C12 C11 1_555 1_555
C13 C12 1_555 1_555
C14 C11 1_555 1_555
C15 C13 1_555 1_555
C16 C10 1_555 1_555
C17 C7 1_555 1_555
C18 C17 1_555 1_555
C19 C16 1_555 1_555
C20 C6 1_555 1_555
C21 C1 1_555 1_555
C22 C21 1_555 1_555
C23 C5 1_555 1_555
H1 C1 1_555 1_555
H3 C2 1_555 1_555
H4 C3 1_555 1_555
H5 C3 1_555 1_555
H6 C4 1_555 1_555
H7 C5 1_555 1_555
H8 C6 1_555 1_555
H9 C7 1_555 1_555
H10 C11 1_555 1_555
H11 C12 1_555 1_555
H12 C13 1_555 1_555
H13 C14 1_555 1_555
H14 C14 1_555 1_555
H15 C15 1_555 1_555
H16 C17 1_555 1_555
H17 C18 1_555 1_555
H18 C19 1_555 1_555
H19 C20 1_555 1_555
H20 C21 1_555 1_555
H21 C22 1_555 1_555
H22 C23 1_555 1_555
C3 C4 1_555 1_555
C9 C10 1_555 1_555
C14 C15 1_555 1_555
C15 C16 1_555 1_555
C18 C19 1_555 1_555
C19 C20 1_555 1_555
C20 C21 1_555 1_555
C22 C23 1_555 1_555

#END
