
#######################################################################
#
#                 Cambridge Crystallographic Data Centre
#                                CCDC 
#
#######################################################################
#
# If this CIF has been generated from an entry in the Cambridge 
# Structural Database, then it will include bibliographic, chemical, 
# crystal, experimental, refinement or atomic coordinate data resulting 
# from the CCDC's data processing and validation procedures.
#
#######################################################################

data_WORWUV
_chemical_formula_moiety         'C18 H20 S2'
_chemical_name_systematic        
anti-9,18-Dimethyl-2,11-dithia(3.3)metacyclophane
_symmetry_cell_setting           orthorhombic
_symmetry_space_group_name_H-M   'P c c n'
_symmetry_Int_Tables_number      56
_space_group_name_Hall           '-P 2ab 2ac'
loop_
_symmetry_equiv_pos_site_id
_symmetry_equiv_pos_as_xyz
1 x,y,z
2 1/2-x,1/2-y,z
3 1/2+x,-y,1/2-z
4 -x,1/2+y,1/2-z
5 -x,-y,-z
6 1/2+x,1/2+y,-z
7 1/2-x,y,1/2+z
8 x,1/2-y,1/2+z
_cell_length_a                   13.045(4)
_cell_length_b                   14.952(3)
_cell_length_c                   7.687(1)
_cell_angle_alpha                90
_cell_angle_beta                 90
_cell_angle_gamma                90
_cell_volume                     1499.34
_cell_formula_units_Z            4
loop_
_atom_site_label
_atom_site_type_symbol
_atom_site_fract_x
_atom_site_fract_y
_atom_site_fract_z
S1 S 0.10909(9) 0.69721(7) -0.09214(17)
C1 C 0.1930(4) 0.6304(3) 0.0462(7)
C2 C 0.1655(3) 0.5334(3) 0.0777(6)
C3 C 0.2337(4) 0.4690(3) 0.0183(7)
C4 C 0.2163(4) 0.3792(4) 0.0459(7)
C5 C 0.1263(4) 0.3525(3) 0.1234(7)
C6 C 0.0542(3) 0.4145(3) 0.1776(6)
C7 C 0.0478(4) 0.6200(3) -0.2436(7)
C8 C 0.0761(3) 0.5065(3) 0.1663(6)
C9 C 0.0064(5) 0.5742(4) 0.2491(8)
H1 H 0.1882(36) 0.6633(31) 0.1519(63)
H2 H 0.2607(41) 0.6325(32) -0.0046(65)
H3 H 0.2900(32) 0.4880(27) -0.0437(56)
H4 H 0.2693(38) 0.3353(32) 0.0191(68)
H5 H 0.1135(37) 0.2879(37) 0.1434(67)
H6 H 0.0424(34) 0.6596(29) -0.3561(63)
H7 H 0.0941(29) 0.5801(30) -0.2566(60)
H8 H 0.0031(37) 0.5693(32) 0.3696(74)
H9 H 0.0272(41) 0.6309(40) 0.2258(76)
H10 H -0.0618(41) 0.5740(36) 0.2110(71)
C7D C -0.0478(4) 0.3800(3) 0.2436(7)
S1D S -0.10909(9) 0.30279(7) 0.09214(17)
C1D C -0.1930(4) 0.3696(3) -0.0462(7)
C2D C -0.1655(3) 0.4666(3) -0.0777(6)
C3D C -0.2337(4) 0.5310(3) -0.0183(7)
C4D C -0.2163(4) 0.6208(4) -0.0459(7)
C5D C -0.1263(4) 0.6475(3) -0.1234(7)
C6D C -0.0542(3) 0.5855(3) -0.1776(6)
C8D C -0.0761(3) 0.4935(3) -0.1663(6)
C9D C -0.0064(5) 0.4258(4) -0.2491(8)
H8D H -0.0031(37) 0.4307(32) -0.3696(74)
H9D H -0.0272(41) 0.3691(40) -0.2258(76)
H10D H 0.0618(41) 0.4260(36) -0.2110(71)
H5D H -0.1135(37) 0.7121(37) -0.1434(67)
H4D H -0.2693(38) 0.6647(32) -0.0191(68)
H3D H -0.2900(32) 0.5120(27) 0.0437(56)
H1D H -0.1882(36) 0.3367(31) -0.1519(63)
H2D H -0.2607(41) 0.3675(32) 0.0046(65)
H6D H -0.0424(34) 0.3404(29) 0.3561(63)
H7D H -0.0941(29) 0.4199(30) 0.2566(60)
loop_
_geom_bond_atom_site_label_1
_geom_bond_atom_site_label_2
_geom_bond_site_symmetry_1
_geom_bond_site_symmetry_2
S1 C1 1_555 1_555
C1 C2 1_555 1_555
C2 C3 1_555 1_555
C3 C4 1_555 1_555
C4 C5 1_555 1_555
C5 C6 1_555 1_555
C6 C8 1_555 1_555
C7 S1 1_555 1_555
C8 C2 1_555 1_555
C9 C8 1_555 1_555
H1 C1 1_555 1_555
H2 C1 1_555 1_555
H3 C3 1_555 1_555
H4 C4 1_555 1_555
H5 C5 1_555 1_555
H6 C7 1_555 1_555
H7 C7 1_555 1_555
H8 C9 1_555 1_555
H9 C9 1_555 1_555
H10 C9 1_555 1_555
C7D C6 1_555 1_555
S1D C7D 1_555 1_555
C1D S1D 1_555 1_555
C2D C1D 1_555 1_555
C3D C2D 1_555 1_555
C4D C3D 1_555 1_555
C5D C4D 1_555 1_555
C6D C7 1_555 1_555
C8D C2D 1_555 1_555
C9D C8D 1_555 1_555
H8D C9D 1_555 1_555
H9D C9D 1_555 1_555
H10D C9D 1_555 1_555
H5D C5D 1_555 1_555
H4D C4D 1_555 1_555
H3D C3D 1_555 1_555
H1D C1D 1_555 1_555
H2D C1D 1_555 1_555
H6D C7D 1_555 1_555
H7D C7D 1_555 1_555
C5D C6D 1_555 1_555
C6D C8D 1_555 1_555

#END
