
#######################################################################
#
#                 Cambridge Crystallographic Data Centre
#                                CCDC 
#
#######################################################################
#
# If this CIF has been generated from an entry in the Cambridge 
# Structural Database, then it will include bibliographic, chemical, 
# crystal, experimental, refinement or atomic coordinate data resulting 
# from the CCDC's data processing and validation procedures.
#
#######################################################################

data_WORXUY
_chemical_formula_moiety         'C30 H20 N2 O3 S1,C1 H2 Cl2'
_chemical_name_systematic        
'9-Cyano-11-phenyl-5H-benzo[b]carbazol-6-yl 4-methylbenzenesulfonate dichloromethane solvate'
_symmetry_cell_setting           triclinic
_symmetry_space_group_name_H-M   'P -1'
_symmetry_Int_Tables_number      2
_space_group_name_Hall           '-P 1'
loop_
_symmetry_equiv_pos_site_id
_symmetry_equiv_pos_as_xyz
1 x,y,z
2 -x,-y,-z
_cell_length_a                   10.8298(6)
_cell_length_b                   11.3348(6)
_cell_length_c                   12.2785(7)
_cell_angle_alpha                73.919(5)
_cell_angle_beta                 80.675(5)
_cell_angle_gamma                70.413(5)
_cell_volume                     1360.46
_exptl_crystal_colour            yellow
_exptl_crystal_description       parallelepiped
_cell_formula_units_Z            2
loop_
_atom_site_label
_atom_site_type_symbol
_atom_site_fract_x
_atom_site_fract_y
_atom_site_fract_z
S1 S 0.78100(6) 0.72368(6) 0.10525(5)
O1 O 0.63226(14) 0.81063(14) 0.07856(13)
O2 O 0.77805(19) 0.63614(19) 0.21299(16)
O3 O 0.85889(18) 0.80761(19) 0.08676(19)
N1 N 0.4746(2) 0.69210(18) 0.26788(19)
H1 H 0.506(3) 0.641(2) 0.228(2)
N2 N 0.5175(3) 1.4901(2) 0.1416(2)
C1 C 0.3989(2) 0.6673(2) 0.3688(2)
C2 C 0.3680(3) 0.5551(2) 0.4227(2)
H2 H 0.3944 0.4849 0.3898
C3 C 0.2968(3) 0.5507(2) 0.5266(3)
H3 H 0.2735 0.4770 0.5640
C4 C 0.2593(3) 0.6549(3) 0.5764(3)
H4 H 0.2137 0.6486 0.6477
C5 C 0.2883(2) 0.7670(2) 0.5221(2)
H5 H 0.2621 0.8362 0.5562
C6 C 0.3575(2) 0.7761(2) 0.4153(2)
C7 C 0.4081(2) 0.87428(19) 0.33509(19)
C8 C 0.4851(2) 0.81376(19) 0.2471(2)
C9 C 0.5568(2) 0.8750(2) 0.16275(19)
C10 C 0.5499(2) 1.00340(19) 0.15436(19)
C11 C 0.6181(2) 1.0719(2) 0.0650(2)
H6 H 0.6705 1.0306 0.0103
C12 C 0.6091(2) 1.1967(2) 0.0569(2)
H7 H 0.6548 1.2401 -0.0023
C13 C 0.5287(2) 1.2596(2) 0.1404(2)
C14 C 0.4602(2) 1.1969(2) 0.2269(2)
H8 H 0.4070 1.2412 0.2794
C15 C 0.4670(2) 1.06693(19) 0.23950(19)
C16 C 0.3963(2) 1.00144(19) 0.32994(19)
C17 C 0.3062(2) 1.06926(19) 0.4148(2)
C18 C 0.3504(3) 1.1250(2) 0.4827(2)
H9 H 0.4386 1.1201 0.4762
C19 C 0.2634(3) 1.1876(3) 0.5596(2)
H10 H 0.2935 1.2241 0.6050
C20 C 0.1333(4) 1.1958(3) 0.5691(3)
H11 H 0.0752 1.2385 0.6205
C21 C 0.0881(3) 1.1414(3) 0.5032(3)
H12 H -0.0004 1.1472 0.5101
C22 C 0.1737(2) 1.0782(2) 0.4268(2)
H13 H 0.1425 1.0411 0.3828
C23 C 0.8166(2) 0.6446(2) -0.0045(2)
C24 C 0.8120(3) 0.5201(2) 0.0187(3)
H14 H 0.7903 0.4780 0.0922
C25 C 0.8402(3) 0.4592(3) -0.0692(4)
H15 H 0.8375 0.3750 -0.0540
C26 C 0.8723(3) 0.5191(3) -0.1784(3)
C27 C 0.8785(3) 0.6411(3) -0.1979(3)
H16 H 0.9023 0.6822 -0.2710
C28 C 0.8505(3) 0.7060(2) -0.1121(2)
H17 H 0.8546 0.7898 -0.1274
C29 C 0.9016(4) 0.4529(4) -0.2748(4)
H18 H 0.8927 0.3680 -0.2466
H19 H 0.9898 0.4465 -0.3072
H20 H 0.8411 0.5020 -0.3321
C30 C 0.5222(3) 1.3894(2) 0.1388(2)
Cl1 Cl 0.88576(10) 0.14311(11) 0.22195(10)
Cl2 Cl 1.10780(10) -0.07418(10) 0.18344(9)
C31 C 0.9516(4) 0.0249(4) 0.1491(4)
H21 H 0.9547 0.0651 0.0684
H22 H 0.8937 -0.0280 0.1636
loop_
_geom_bond_atom_site_label_1
_geom_bond_atom_site_label_2
_geom_bond_site_symmetry_1
_geom_bond_site_symmetry_2
S1 O1 1_555 1_555
O1 C9 1_555 1_555
O2 S1 1_555 1_555
O3 S1 1_555 1_555
N1 H1 1_555 1_555
N2 C30 1_555 1_555
C1 N1 1_555 1_555
C2 C1 1_555 1_555
H2 C2 1_555 1_555
C3 C2 1_555 1_555
H3 C3 1_555 1_555
C4 C3 1_555 1_555
H4 C4 1_555 1_555
C5 C4 1_555 1_555
H5 C5 1_555 1_555
C6 C1 1_555 1_555
C7 C6 1_555 1_555
C8 N1 1_555 1_555
C9 C8 1_555 1_555
C10 C9 1_555 1_555
C11 C10 1_555 1_555
H6 C11 1_555 1_555
C12 C11 1_555 1_555
H7 C12 1_555 1_555
C13 C12 1_555 1_555
C14 C13 1_555 1_555
H8 C14 1_555 1_555
C15 C10 1_555 1_555
C16 C7 1_555 1_555
C17 C16 1_555 1_555
C18 C17 1_555 1_555
H9 C18 1_555 1_555
C19 C18 1_555 1_555
H10 C19 1_555 1_555
C20 C19 1_555 1_555
H11 C20 1_555 1_555
C21 C20 1_555 1_555
H12 C21 1_555 1_555
C22 C17 1_555 1_555
H13 C22 1_555 1_555
C23 S1 1_555 1_555
C24 C23 1_555 1_555
H14 C24 1_555 1_555
C25 C24 1_555 1_555
H15 C25 1_555 1_555
C26 C25 1_555 1_555
C27 C26 1_555 1_555
H16 C27 1_555 1_555
C28 C23 1_555 1_555
H17 C28 1_555 1_555
C29 C26 1_555 1_555
H18 C29 1_555 1_555
H19 C29 1_555 1_555
H20 C29 1_555 1_555
C30 C13 1_555 1_555
Cl1 C31 1_555 1_555
Cl2 C31 1_555 1_555
C31 H21 1_555 1_555
H22 C31 1_555 1_555
C5 C6 1_555 1_555
C7 C8 1_555 1_555
C14 C15 1_555 1_555
C15 C16 1_555 1_555
C21 C22 1_555 1_555
C27 C28 1_555 1_555

#END
