
#######################################################################
#
#                 Cambridge Crystallographic Data Centre
#                                CCDC 
#
#######################################################################
#
# If this CIF has been generated from an entry in the Cambridge 
# Structural Database, then it will include bibliographic, chemical, 
# crystal, experimental, refinement or atomic coordinate data resulting 
# from the CCDC's data processing and validation procedures.
#
#######################################################################

data_WORYUZ
_chemical_formula_moiety         'C21 H13 Br1 I2 O1'
_chemical_name_systematic        6-Bromo-3,4-di-iodo-2,2-diphenyl-2H-chromene
_symmetry_cell_setting           triclinic
_symmetry_space_group_name_H-M   'P -1'
_symmetry_Int_Tables_number      2
_space_group_name_Hall           '-P 1'
loop_
_symmetry_equiv_pos_site_id
_symmetry_equiv_pos_as_xyz
1 x,y,z
2 -x,-y,-z
_cell_length_a                   9.6151(11)
_cell_length_b                   9.6441(9)
_cell_length_c                   11.8304(13)
_cell_angle_alpha                88.635(8)
_cell_angle_beta                 71.226(10)
_cell_angle_gamma                68.272(9)
_cell_volume                     959.176
_exptl_crystal_colour            'light colorless'
_exptl_crystal_description       block
_cell_formula_units_Z            2
loop_
_atom_site_label
_atom_site_type_symbol
_atom_site_fract_x
_atom_site_fract_y
_atom_site_fract_z
I1 I 0.65181(4) 0.10320(4) 0.50137(3)
I2 I 0.33165(4) 0.43289(4) 0.47277(3)
Br1 Br 0.56212(6) -0.28832(6) 0.87276(5)
O1 O 0.2082(3) 0.3659(3) 0.8497(3)
C1 C 0.2862(5) 0.2152(5) 0.8533(4)
C2 C 0.2493(5) 0.1566(5) 0.9603(4)
H1 H 0.1694 0.2170 1.0279
C3 C 0.3323(6) 0.0064(6) 0.9666(4)
H2 H 0.3083 -0.0351 1.0387
C4 C 0.4495(5) -0.0803(5) 0.8665(4)
C5 C 0.4880(5) -0.0227(5) 0.7586(4)
H3 H 0.5681 -0.0843 0.6917
C6 C 0.4064(5) 0.1293(5) 0.7495(4)
C7 C 0.4329(5) 0.2028(5) 0.6403(4)
C8 C 0.3195(5) 0.3308(5) 0.6321(4)
C9 C 0.1682(5) 0.4063(5) 0.7411(4)
C10 C 0.1163(5) 0.5773(5) 0.7523(4)
C11 C -0.0037(5) 0.6690(5) 0.7126(4)
H4 H -0.0571 0.6267 0.6803
C12 C -0.0458(6) 0.8239(6) 0.7204(5)
H5 H -0.1279 0.8848 0.6946
C13 C 0.0348(6) 0.8863(6) 0.7664(5)
H6 H 0.0082 0.9895 0.7707
C14 C 0.1535(6) 0.7972(6) 0.8059(5)
H7 H 0.2061 0.8400 0.8386
C15 C 0.1958(6) 0.6438(6) 0.7974(5)
H8 H 0.2792 0.5839 0.8223
C16 C 0.0330(5) 0.3564(5) 0.7455(4)
C17 C -0.2187(6) 0.3446(6) 0.8612(6)
H9 H -0.3010 0.3625 0.9339
C18 C -0.0905(6) 0.3832(6) 0.8542(5)
H10 H -0.0874 0.4268 0.9222
C19 C -0.2245(7) 0.2800(6) 0.7609(7)
H11 H -0.3109 0.2554 0.7658
C20 C -0.1018(7) 0.2521(6) 0.6537(5)
H12 H -0.1047 0.2076 0.5861
C21 C 0.0252(6) 0.2899(5) 0.6462(5)
H13 H 0.1074 0.2706 0.5732
loop_
_geom_bond_atom_site_label_1
_geom_bond_atom_site_label_2
_geom_bond_site_symmetry_1
_geom_bond_site_symmetry_2
I1 C7 1_555 1_555
I2 C8 1_555 1_555
Br1 C4 1_555 1_555
O1 C1 1_555 1_555
C1 C2 1_555 1_555
C2 H1 1_555 1_555
C3 C2 1_555 1_555
H2 C3 1_555 1_555
C4 C3 1_555 1_555
C5 C4 1_555 1_555
H3 C5 1_555 1_555
C6 C1 1_555 1_555
C7 C6 1_555 1_555
C8 C7 1_555 1_555
C9 O1 1_555 1_555
C10 C9 1_555 1_555
C11 C10 1_555 1_555
H4 C11 1_555 1_555
C12 C11 1_555 1_555
H5 C12 1_555 1_555
C13 C12 1_555 1_555
H6 C13 1_555 1_555
C14 C13 1_555 1_555
H7 C14 1_555 1_555
C15 C10 1_555 1_555
H8 C15 1_555 1_555
C16 C9 1_555 1_555
C17 H9 1_555 1_555
C18 C16 1_555 1_555
H10 C18 1_555 1_555
C19 C17 1_555 1_555
H11 C19 1_555 1_555
C20 C19 1_555 1_555
H12 C20 1_555 1_555
C21 C16 1_555 1_555
H13 C21 1_555 1_555
C5 C6 1_555 1_555
C8 C9 1_555 1_555
C14 C15 1_555 1_555
C17 C18 1_555 1_555
C20 C21 1_555 1_555

#END
