
#######################################################################
#
#                 Cambridge Crystallographic Data Centre
#                                CCDC 
#
#######################################################################
#
# If this CIF has been generated from an entry in the Cambridge 
# Structural Database, then it will include bibliographic, chemical, 
# crystal, experimental, refinement or atomic coordinate data resulting 
# from the CCDC's data processing and validation procedures.
#
#######################################################################

data_WORYOT
_chemical_formula_moiety         'C21 H16 O2'
_chemical_name_systematic        2,2-Diphenyl-2,3-dihydro-4H-chromen-4-one
_symmetry_cell_setting           monoclinic
_symmetry_space_group_name_H-M   'C 2/c'
_symmetry_Int_Tables_number      15
_space_group_name_Hall           '-C 2yn'
loop_
_symmetry_equiv_pos_site_id
_symmetry_equiv_pos_as_xyz
1 x,y,z
2 -x,y,1/2-z
3 1/2+x,1/2+y,z
4 1/2-x,1/2+y,1/2-z
5 -x,-y,-z
6 x,-y,1/2+z
7 1/2-x,1/2-y,-z
8 1/2+x,1/2-y,1/2+z
_cell_length_a                   13.10280(19)
_cell_length_b                   11.80192(18)
_cell_length_c                   20.4047(3)
_cell_angle_alpha                90
_cell_angle_beta                 95.5420(13)
_cell_angle_gamma                90
_cell_volume                     3140.6
_exptl_crystal_colour            'light yellow'
_exptl_crystal_description       block
_cell_formula_units_Z            8
loop_
_atom_site_label
_atom_site_type_symbol
_atom_site_fract_x
_atom_site_fract_y
_atom_site_fract_z
O1 O 0.98498(9) 0.11789(9) 0.59745(5)
O2 O 1.12345(10) 0.20444(14) 0.43380(6)
C1 C 1.07592(11) 0.18959(13) 0.60665(7)
C2 C 1.14054(12) 0.16885(15) 0.54940(8)
H1 H 1.1978 0.2213 0.5529
H2 H 1.1683 0.0927 0.5529
C3 C 1.08135(13) 0.18265(14) 0.48293(8)
C4 C 0.97032(12) 0.16289(12) 0.48108(7)
C5 C 0.90670(13) 0.17208(14) 0.42216(8)
H3 H 0.9345 0.1946 0.3840
C6 C 0.80415(14) 0.14834(16) 0.41996(9)
H4 H 0.7623 0.1557 0.3807
C7 C 0.76316(13) 0.11312(16) 0.47706(10)
H5 H 0.6937 0.0961 0.4756
C8 C 0.82436(13) 0.10310(14) 0.53572(9)
H6 H 0.7964 0.0789 0.5735
C9 C 0.92784(12) 0.12936(12) 0.53798(7)
C10 C 1.03963(11) 0.31150(13) 0.61335(7)
C11 C 1.07293(14) 0.40089(15) 0.57703(8)
H7 H 1.1202 0.3880 0.5467
C12 C 1.03613(16) 0.50984(16) 0.58562(10)
H8 H 1.0586 0.5691 0.5607
C13 C 0.96713(15) 0.53071(16) 0.63040(10)
H9 H 0.9426 0.6037 0.6358
C14 C 0.93433(14) 0.44212(18) 0.66748(10)
H10 H 0.8881 0.4559 0.6984
C15 C 0.96971(13) 0.33342(16) 0.65895(9)
H11 H 0.9466 0.2744 0.6839
C16 C 1.13624(13) 0.15102(17) 0.67028(8)
C17 C 1.10917(18) 0.0571(2) 0.70446(10)
H12 H 1.0510 0.0158 0.6897
C18 C 1.1694(2) 0.0240(3) 0.76136(12)
H13 H 1.1505 -0.0391 0.7846
C19 C 1.2552(2) 0.0826(3) 0.78342(11)
H14 H 1.2948 0.0596 0.8214
C20 C 1.2827(2) 0.1756(3) 0.74938(13)
H15 H 1.3416 0.2156 0.7641
C21 C 1.22376(17) 0.2108(2) 0.69313(11)
H16 H 1.2429 0.2747 0.6706
loop_
_geom_bond_atom_site_label_1
_geom_bond_atom_site_label_2
_geom_bond_site_symmetry_1
_geom_bond_site_symmetry_2
O1 C1 1_555 1_555
O2 C3 1_555 1_555
C1 C2 1_555 1_555
C2 H1 1_555 1_555
H2 C2 1_555 1_555
C3 C2 1_555 1_555
C4 C3 1_555 1_555
C5 C4 1_555 1_555
H3 C5 1_555 1_555
C6 C5 1_555 1_555
H4 C6 1_555 1_555
C7 C6 1_555 1_555
H5 C7 1_555 1_555
C8 C7 1_555 1_555
H6 C8 1_555 1_555
C9 O1 1_555 1_555
C10 C1 1_555 1_555
C11 C10 1_555 1_555
H7 C11 1_555 1_555
C12 C11 1_555 1_555
H8 C12 1_555 1_555
C13 C12 1_555 1_555
H9 C13 1_555 1_555
C14 C13 1_555 1_555
H10 C14 1_555 1_555
C15 C10 1_555 1_555
H11 C15 1_555 1_555
C16 C1 1_555 1_555
C17 C16 1_555 1_555
H12 C17 1_555 1_555
C18 C17 1_555 1_555
H13 C18 1_555 1_555
C19 C18 1_555 1_555
H14 C19 1_555 1_555
C20 C19 1_555 1_555
H15 C20 1_555 1_555
C21 C16 1_555 1_555
H16 C21 1_555 1_555
C4 C9 1_555 1_555
C8 C9 1_555 1_555
C14 C15 1_555 1_555
C20 C21 1_555 1_555

#END
