
#######################################################################
#
#                 Cambridge Crystallographic Data Centre
#                                CCDC 
#
#######################################################################
#
# If this CIF has been generated from an entry in the Cambridge 
# Structural Database, then it will include bibliographic, chemical, 
# crystal, experimental, refinement or atomic coordinate data resulting 
# from the CCDC's data processing and validation procedures.
#
#######################################################################

data_WOTPIG
_chemical_formula_moiety         'C18 H11 F6 N1 O3'
_chemical_name_systematic        
'Ethyl (7-fluoro-3-oxo-2-(pentafluorophenyl)-2,3-dihydro-1H-isoindol-1-yl)acetate'
_symmetry_cell_setting           monoclinic
_symmetry_space_group_name_H-M   'C 2/c'
_symmetry_Int_Tables_number      15
_space_group_name_Hall           '-C 2yn'
loop_
_symmetry_equiv_pos_site_id
_symmetry_equiv_pos_as_xyz
1 x,y,z
2 -x,y,1/2-z
3 1/2+x,1/2+y,z
4 1/2-x,1/2+y,1/2-z
5 -x,-y,-z
6 x,-y,1/2+z
7 1/2-x,1/2-y,-z
8 1/2+x,1/2-y,1/2+z
_cell_length_a                   32.403(8)
_cell_length_b                   6.8959(17)
_cell_length_c                   15.250(4)
_cell_angle_alpha                90
_cell_angle_beta                 97.030(4)
_cell_angle_gamma                90
_cell_volume                     3381.96
_exptl_crystal_colour            colorless
_exptl_crystal_description       block
_cell_formula_units_Z            8
loop_
_atom_site_label
_atom_site_type_symbol
_atom_site_fract_x
_atom_site_fract_y
_atom_site_fract_z
C1 C 0.31199(5) 1.0514(2) 0.02148(10)
C2 C 0.26930(5) 1.0157(2) 0.04188(10)
C3 C 0.23327(6) 0.9867(2) -0.01518(12)
H1 H 0.2335 0.9912 -0.0761
C4 C 0.19694(6) 0.9507(3) 0.02100(13)
H2 H 0.1724 0.9308 -0.0162
C5 C 0.19648(6) 0.9438(3) 0.11103(13)
H3 H 0.1719 0.9185 0.1346
C6 C 0.23285(5) 0.9746(3) 0.16583(11)
C7 C 0.26967(5) 1.0111(2) 0.13278(9)
C8 C 0.31288(5) 1.0434(2) 0.17945(9)
H4 H 0.3139 1.1636 0.2139
C9 C 0.32800(5) 0.8739(3) 0.23840(10)
H5 H 0.3076 0.8472 0.2783
H6 H 0.3299 0.7599 0.2018
C10 C 0.36964(5) 0.9071(3) 0.29226(10)
C11 C 0.42549(7) 0.7444(4) 0.37538(17)
H7 H 0.4246 0.8418 0.4210
H8 H 0.4477 0.7771 0.3408
C12 C 0.43272(9) 0.5525(5) 0.41538(19)
H9 H 0.4111 0.5237 0.4512
H10 H 0.4592 0.5513 0.4515
H11 H 0.4327 0.4567 0.3697
C13 C 0.37935(5) 1.0995(2) 0.11033(10)
C14 C 0.39648(6) 1.2724(3) 0.14290(11)
C15 C 0.43892(7) 1.3019(3) 0.15367(14)
C16 C 0.46467(6) 1.1582(4) 0.13033(15)
C17 C 0.44855(7) 0.9863(4) 0.09645(16)
C18 C 0.40618(6) 0.9581(3) 0.08705(13)
F1 F 0.23227(3) 0.9694(2) 0.25504(7)
F2 F 0.37147(4) 1.41206(17) 0.16631(9)
F3 F 0.45465(5) 1.4696(2) 0.18578(11)
F4 F 0.50575(4) 1.1846(3) 0.14083(12)
F5 F 0.47383(4) 0.8468(3) 0.07274(13)
F6 F 0.39126(4) 0.78750(19) 0.05585(10)
N1 N 0.33624(4) 1.0667(2) 0.10260(8)
O1 O 0.32482(5) 1.0669(2) -0.04940(8)
O2 O 0.38495(5) 1.0623(2) 0.30959(9)
O3 O 0.38606(4) 0.7380(2) 0.31908(9)
loop_
_geom_bond_atom_site_label_1
_geom_bond_atom_site_label_2
_geom_bond_site_symmetry_1
_geom_bond_site_symmetry_2
C1 C2 1_555 1_555
C2 C3 1_555 1_555
C3 H1 1_555 1_555
C4 C3 1_555 1_555
H2 C4 1_555 1_555
C5 C4 1_555 1_555
H3 C5 1_555 1_555
C6 C5 1_555 1_555
C7 C2 1_555 1_555
C8 C7 1_555 1_555
H4 C8 1_555 1_555
C9 C8 1_555 1_555
H5 C9 1_555 1_555
H6 C9 1_555 1_555
C10 C9 1_555 1_555
C11 H7 1_555 1_555
H8 C11 1_555 1_555
C12 C11 1_555 1_555
H9 C12 1_555 1_555
H10 C12 1_555 1_555
H11 C12 1_555 1_555
C13 C14 1_555 1_555
C14 C15 1_555 1_555
C15 C16 1_555 1_555
C16 C17 1_555 1_555
C17 C18 1_555 1_555
C18 C13 1_555 1_555
F1 C6 1_555 1_555
F2 C14 1_555 1_555
F3 C15 1_555 1_555
F4 C16 1_555 1_555
F5 C17 1_555 1_555
F6 C18 1_555 1_555
N1 C1 1_555 1_555
O1 C1 1_555 1_555
O2 C10 1_555 1_555
O3 C10 1_555 1_555
C6 C7 1_555 1_555
C8 N1 1_555 1_555
C11 O3 1_555 1_555
C13 N1 1_555 1_555

#END
