
#######################################################################
#
#                 Cambridge Crystallographic Data Centre
#                                CCDC 
#
#######################################################################
#
# If this CIF has been generated from an entry in the Cambridge 
# Structural Database, then it will include bibliographic, chemical, 
# crystal, experimental, refinement or atomic coordinate data resulting 
# from the CCDC's data processing and validation procedures.
#
#######################################################################

data_WOVDUG
_chemical_formula_moiety         'C15 H26 O4'
_chemical_name_systematic        
(2R*,3aR*,7aR*)-2-Hydroxy-2,3a,5',5'-tetramethyl-2,3,5,6,7,7a-hexahydro-spiro-(benzofuran-4,2'-(1,3)dioxane)
_symmetry_cell_setting           triclinic
_symmetry_space_group_name_H-M   'P -1'
_symmetry_Int_Tables_number      2
_space_group_name_Hall           '-P 1'
loop_
_symmetry_equiv_pos_site_id
_symmetry_equiv_pos_as_xyz
1 x,y,z
2 -x,-y,-z
_cell_length_a                   12.069(3)
_cell_length_b                   11.668(9)
_cell_length_c                   10.726(4)
_cell_angle_alpha                100.50(10)
_cell_angle_beta                 96.78(5)
_cell_angle_gamma                92.10(6)
_cell_volume                     1472.15
_exptl_crystal_colour            colorless
_cell_formula_units_Z            4
loop_
_atom_site_label
_atom_site_type_symbol
_atom_site_fract_x
_atom_site_fract_y
_atom_site_fract_z
O1 O 0.7356(2) 0.2834(2) -0.0581(2)
O2 O 0.7556(2) 0.4186(2) -0.1912(3)
O3 O 0.7931(2) 0.4428(2) 0.3468(2)
O4 O 0.7145(2) 0.5991(2) 0.2672(2)
C1 C 0.7957(3) 0.3249(3) 0.0680(3)
H1 H 0.7984(37) 0.2569(41) 0.1093(45)
C2 C 0.7225(3) 0.4200(3) 0.1269(3)
C3 C 0.7847(3) 0.5053(3) 0.2431(3)
C4 C 0.9018(3) 0.5449(3) 0.2213(4)
H2 H 0.8964(38) 0.5871(41) 0.1536(50)
H3 H 0.9390(38) 0.5971(40) 0.2978(47)
C5 C 0.9699(3) 0.4403(4) 0.1847(4)
H4 H 0.9757(37) 0.3954(39) 0.2584(49)
H5 H 1.0473(40) 0.4662(38) 0.1775(43)
C6 C 0.9160(3) 0.3652(4) 0.0600(4)
H6 H 0.9122(38) 0.4103(41) -0.0082(49)
H7 H 0.9583(38) 0.2911(41) 0.0311(45)
C7 C 0.6904(3) 0.4785(3) 0.0110(4)
H8 H 0.6212(40) 0.5135(40) 0.0143(44)
H9 H 0.7422(39) 0.5409(42) 0.0016(44)
C8 C 0.6872(3) 0.3814(3) -0.1060(4)
C9 C 0.5734(4) 0.3381(4) -0.1761(5)
H10 H 0.5240(47) 0.3180(48) -0.1118(57)
H11 H 0.5771(47) 0.2662(53) -0.2405(58)
H12 H 0.5395(48) 0.4009(52) -0.2135(56)
C10 C 0.6179(3) 0.3630(3) 0.1640(4)
H13 H 0.5751(48) 0.3119(52) 0.0909(58)
H14 H 0.5650(48) 0.4224(51) 0.1886(56)
H15 H 0.6365(47) 0.3201(52) 0.2328(60)
C11 C 0.8283(3) 0.5138(3) 0.4694(4)
H16 H 0.9067(40) 0.5484(38) 0.4775(44)
H17 H 0.8278(37) 0.4637(41) 0.5254(48)
C12 C 0.7520(3) 0.6127(3) 0.4994(4)
C13 C 0.7448(4) 0.6768(3) 0.3875(4)
H18 H 0.6878(38) 0.7319(41) 0.3948(44)
H19 H 0.8180(40) 0.7183(40) 0.3871(44)
C14 C 0.6368(4) 0.5628(5) 0.5142(6)
H20 H 0.6402(48) 0.5257(52) 0.5869(63)
H21 H 0.6030(48) 0.5095(53) 0.4382(62)
H22 H 0.5886(50) 0.6258(53) 0.5371(56)
C15 C 0.8018(5) 0.6975(4) 0.6202(5)
H23 H 0.8116(49) 0.6617(51) 0.6907(62)
H24 H 0.7594(46) 0.7652(52) 0.6402(56)
H25 H 0.8845(51) 0.7281(49) 0.6148(55)
O5 O 0.7782(2) 0.2319(2) -0.3947(2)
O6 O 0.7426(2) 0.0936(2) -0.2694(3)
O7 O 0.7122(2) 0.0870(2) -0.8017(2)
O8 O 0.7782(2) -0.0788(2) -0.7318(2)
C16 C 0.7162(3) 0.1980(3) -0.5212(3)
H26 H 0.7195(37) 0.2649(41) -0.5634(45)
C17 C 0.7824(3) 0.0980(3) -0.5840(3)
C18 C 0.7149(3) 0.0201(3) -0.7026(3)
C19 C 0.5958(3) -0.0118(3) -0.6804(4)
H27 H 0.5592(39) -0.0624(41) -0.7553(48)
H28 H 0.5990(37) -0.0583(41) -0.6160(48)
C20 C 0.5351(3) 0.0971(4) -0.6386(4)
H29 H 0.4568(40) 0.0726(38) -0.6330(44)
H30 H 0.5312(37) 0.1467(39) -0.7065(47)
C21 C 0.5942(3) 0.1657(4) -0.5131(4)
H31 H 0.5576(38) 0.2358(41) -0.4840(44)
H32 H 0.5923(38) 0.1207(41) -0.4471(48)
C22 C 0.8087(3) 0.0337(3) -0.4718(3)
H33 H 0.7528(39) -0.0273(42) -0.4670(44)
H34 H 0.8743(41) -0.0067(41) -0.4776(44)
C23 C 0.8163(3) 0.1282(3) -0.3511(3)
C24 C 0.9310(4) 0.1595(4) -0.2783(4)
H35 H 0.9867(48) 0.1748(48) -0.3382(57)
H36 H 0.9563(47) 0.0898(51) -0.2425(56)
H37 H 0.9313(47) 0.2316(52) -0.2136(57)
C25 C 0.8911(3) 0.1489(4) -0.6187(4)
H38 H 0.9358(47) 0.1954(49) -0.5398(57)
H39 H 0.8762(47) 0.1972(51) -0.6872(60)
H40 H 0.9370(50) 0.0886(53) -0.6487(57)
C26 C 0.6709(3) 0.0216(3) -0.9257(4)
H41 H 0.6764(37) 0.0730(40) -0.9835(47)
H42 H 0.5900(41) -0.0005(39) -0.9343(43)
C27 C 0.7381(3) -0.0838(3) -0.9623(3)
C28 C 0.7414(4) -0.1515(3) -0.8536(4)
H43 H 0.6634(39) -0.1861(39) -0.8568(44)
H44 H 0.7922(38) -0.2125(42) -0.8639(44)
C29 C 0.8558(4) -0.0438(5) -0.9798(5)
H45 H 0.8524(48) -0.0070(51) -1.0509(64)
H46 H 0.8998(50) -0.1097(54) -1.0024(57)
H47 H 0.8981(48) 0.0039(50) -0.8987(62)
C30 C 0.6789(6) -0.1609(5) -1.0843(5)
H48 H 0.6000(51) -0.1875(49) -1.0778(56)
H49 H 0.7154(46) -0.2361(53) -1.1113(57)
H50 H 0.6746(47) -0.1210(50) -1.1545(62)
loop_
_geom_bond_atom_site_label_1
_geom_bond_atom_site_label_2
_geom_bond_site_symmetry_1
_geom_bond_site_symmetry_2
O1 C1 1_555 1_555
O2 C8 1_555 1_555
O3 C3 1_555 1_555
O4 C3 1_555 1_555
C1 H1 1_555 1_555
C2 C1 1_555 1_555
C3 C2 1_555 1_555
C4 C3 1_555 1_555
H2 C4 1_555 1_555
H3 C4 1_555 1_555
C5 C4 1_555 1_555
H4 C5 1_555 1_555
H5 C5 1_555 1_555
C6 C1 1_555 1_555
H6 C6 1_555 1_555
H7 C6 1_555 1_555
C7 C2 1_555 1_555
H8 C7 1_555 1_555
H9 C7 1_555 1_555
C8 O1 1_555 1_555
C9 C8 1_555 1_555
H10 C9 1_555 1_555
H11 C9 1_555 1_555
H12 C9 1_555 1_555
C10 C2 1_555 1_555
H13 C10 1_555 1_555
H14 C10 1_555 1_555
H15 C10 1_555 1_555
C11 O3 1_555 1_555
H16 C11 1_555 1_555
H17 C11 1_555 1_555
C12 C11 1_555 1_555
C13 O4 1_555 1_555
H18 C13 1_555 1_555
H19 C13 1_555 1_555
C14 C12 1_555 1_555
H20 C14 1_555 1_555
H21 C14 1_555 1_555
H22 C14 1_555 1_555
C15 C12 1_555 1_555
H23 C15 1_555 1_555
H24 C15 1_555 1_555
H25 C15 1_555 1_555
O5 C16 1_555 1_555
O6 C23 1_555 1_555
O7 C18 1_555 1_555
O8 C18 1_555 1_555
C16 H26 1_555 1_555
C17 C16 1_555 1_555
C18 C17 1_555 1_555
C19 C18 1_555 1_555
H27 C19 1_555 1_555
H28 C19 1_555 1_555
C20 C19 1_555 1_555
H29 C20 1_555 1_555
H30 C20 1_555 1_555
C21 C16 1_555 1_555
H31 C21 1_555 1_555
H32 C21 1_555 1_555
C22 C17 1_555 1_555
H33 C22 1_555 1_555
H34 C22 1_555 1_555
C23 O5 1_555 1_555
C24 C23 1_555 1_555
H35 C24 1_555 1_555
H36 C24 1_555 1_555
H37 C24 1_555 1_555
C25 C17 1_555 1_555
H38 C25 1_555 1_555
H39 C25 1_555 1_555
H40 C25 1_555 1_555
C26 O7 1_555 1_555
H41 C26 1_555 1_555
H42 C26 1_555 1_555
C27 C26 1_555 1_555
C28 O8 1_555 1_555
H43 C28 1_555 1_555
H44 C28 1_555 1_555
C29 C27 1_555 1_555
H45 C29 1_555 1_555
H46 C29 1_555 1_555
H47 C29 1_555 1_555
C30 C27 1_555 1_555
H48 C30 1_555 1_555
H49 C30 1_555 1_555
H50 C30 1_555 1_555
C5 C6 1_555 1_555
C7 C8 1_555 1_555
C12 C13 1_555 1_555
C20 C21 1_555 1_555
C22 C23 1_555 1_555
C27 C28 1_555 1_555

#END
