
#######################################################################
#
#                 Cambridge Crystallographic Data Centre
#                                CCDC 
#
#######################################################################
#
# If this CIF has been generated from an entry in the Cambridge 
# Structural Database, then it will include bibliographic, chemical, 
# crystal, experimental, refinement or atomic coordinate data resulting 
# from the CCDC's data processing and validation procedures.
#
#######################################################################

data_WOVKOJ
_chemical_formula_moiety         'C23 H20 N4 O1'
_chemical_name_systematic        
3-(azidomethyl)-N,1-diphenylindane-1-carboxamide
_symmetry_cell_setting           monoclinic
_symmetry_space_group_name_H-M   'P 21/c'
_symmetry_Int_Tables_number      14
_space_group_name_Hall           '-P 2ybc'
loop_
_symmetry_equiv_pos_site_id
_symmetry_equiv_pos_as_xyz
1 x,y,z
2 -x,1/2+y,1/2-z
3 -x,-y,-z
4 x,1/2-y,1/2+z
_cell_length_a                   8.5054(3)
_cell_length_b                   22.7948(6)
_cell_length_c                   10.4196(3)
_cell_angle_alpha                90
_cell_angle_beta                 111.495(4)
_cell_angle_gamma                90
_cell_volume                     1879.64
_exptl_crystal_colour            colorless
_exptl_crystal_description       needle
_cell_formula_units_Z            4
loop_
_atom_site_label
_atom_site_type_symbol
_atom_site_fract_x
_atom_site_fract_y
_atom_site_fract_z
C1 C 0.4929(2) 0.68323(8) 0.07582(18)
C2 C 0.5796(3) 0.65958(9) 0.2261(2)
H1 H 0.6977 0.6513 0.2447
H2 H 0.5733 0.6888 0.2917
C3 C 0.4888(3) 0.60352(10) 0.2413(2)
H3 H 0.4258 0.6114 0.3016
C4 C 0.3658(3) 0.59141(9) 0.0977(2)
C5 C 0.3663(2) 0.63504(8) 0.0047(2)
C6 C 0.2554(3) 0.63245(10) -0.1310(2)
H4 H 0.2547 0.6619 -0.1929
C7 C 0.1448(3) 0.58511(11) -0.1735(2)
H5 H 0.0696 0.5828 -0.2645
C8 C 0.1467(3) 0.54137(11) -0.0805(3)
H6 H 0.0742 0.5095 -0.1101
C9 C 0.2540(3) 0.54455(11) 0.0546(3)
H7 H 0.2521 0.5156 0.1170
C10 C 0.6096(4) 0.55346(12) 0.3005(3)
H8 H 0.5458 0.5185 0.3032
H9 H 0.6714 0.5455 0.2405
C11 C 0.3917(2) 0.73967(8) 0.07521(18)
C12 C 0.2480(2) 0.82316(8) -0.07100(18)
C13 C 0.2774(3) 0.86609(9) 0.0290(2)
H10 H 0.3551 0.8597 0.1177
C14 C 0.1901(3) 0.91858(9) -0.0042(2)
H11 H 0.2091 0.9473 0.0632
C15 C 0.0762(3) 0.92890(10) -0.1347(2)
H12 H 0.0185 0.9644 -0.1556
C16 C 0.0473(3) 0.88642(10) -0.2349(2)
H13 H -0.0294 0.8934 -0.3238
C17 C 0.1324(2) 0.83336(9) -0.20349(19)
H14 H 0.1122 0.8046 -0.2710
C18 C 0.6278(2) 0.69497(9) 0.01408(19)
C19 C 0.7275(3) 0.74519(10) 0.0542(2)
H15 H 0.7044 0.7725 0.1113
C20 C 0.8611(3) 0.75514(11) 0.0101(2)
H16 H 0.9256 0.7891 0.0367
C21 C 0.8977(3) 0.71472(12) -0.0730(2)
H17 H 0.9876 0.7210 -0.1018
C22 C 0.8005(3) 0.66497(12) -0.1131(2)
H18 H 0.8253 0.6377 -0.1693
C23 C 0.6650(3) 0.65481(10) -0.0706(2)
H19 H 0.5997 0.6211 -0.0992
N1 N 0.7323(3) 0.56630(12) 0.4422(3)
N2 N 0.6809(3) 0.56141(10) 0.5388(3)
N3 N 0.6520(4) 0.55627(16) 0.6349(3)
N4 N 0.3393(2) 0.76974(7) -0.04504(15)
O1 O 0.35684(18) 0.75454(6) 0.17498(13)
H20 H 0.369(3) 0.7577(10) -0.109(3)
loop_
_geom_bond_atom_site_label_1
_geom_bond_atom_site_label_2
_geom_bond_site_symmetry_1
_geom_bond_site_symmetry_2
C1 C2 1_555 1_555
C2 H1 1_555 1_555
H2 C2 1_555 1_555
C3 C2 1_555 1_555
H3 C3 1_555 1_555
C4 C3 1_555 1_555
C5 C1 1_555 1_555
C6 C5 1_555 1_555
H4 C6 1_555 1_555
C7 C6 1_555 1_555
H5 C7 1_555 1_555
C8 C7 1_555 1_555
H6 C8 1_555 1_555
C9 C4 1_555 1_555
H7 C9 1_555 1_555
C10 C3 1_555 1_555
H8 C10 1_555 1_555
H9 C10 1_555 1_555
C11 C1 1_555 1_555
C12 C13 1_555 1_555
C13 H10 1_555 1_555
C14 C13 1_555 1_555
H11 C14 1_555 1_555
C15 C14 1_555 1_555
H12 C15 1_555 1_555
C16 C15 1_555 1_555
H13 C16 1_555 1_555
C17 C12 1_555 1_555
H14 C17 1_555 1_555
C18 C1 1_555 1_555
C19 C18 1_555 1_555
H15 C19 1_555 1_555
C20 C19 1_555 1_555
H16 C20 1_555 1_555
C21 C20 1_555 1_555
H17 C21 1_555 1_555
C22 C21 1_555 1_555
H18 C22 1_555 1_555
C23 C18 1_555 1_555
H19 C23 1_555 1_555
N1 C10 1_555 1_555
N2 N1 1_555 1_555
N3 N2 1_555 1_555
N4 C11 1_555 1_555
O1 C11 1_555 1_555
H20 N4 1_555 1_555
C4 C5 1_555 1_555
C8 C9 1_555 1_555
C12 N4 1_555 1_555
C16 C17 1_555 1_555
C22 C23 1_555 1_555

#END
