
#######################################################################
#
#                 Cambridge Crystallographic Data Centre
#                                CCDC 
#
#######################################################################
#
# If this CIF has been generated from an entry in the Cambridge 
# Structural Database, then it will include bibliographic, chemical, 
# crystal, experimental, refinement or atomic coordinate data resulting 
# from the CCDC's data processing and validation procedures.
#
#######################################################################

data_WOVNAY
_chemical_formula_moiety         'C37 H37 Na1 O7'
_chemical_name_systematic        
(1-(12H-benzo[a]xanthen-12-yl)-2-naphtholato)-(15-crown-5)-sodium
_symmetry_cell_setting           monoclinic
_symmetry_space_group_name_H-M   'P 21/n'
_symmetry_Int_Tables_number      14
_space_group_name_Hall           '-P 2yn'
loop_
_symmetry_equiv_pos_site_id
_symmetry_equiv_pos_as_xyz
1 x,y,z
2 1/2-x,1/2+y,1/2-z
3 -x,-y,-z
4 1/2+x,1/2-y,1/2+z
_cell_length_a                   9.8771(8)
_cell_length_b                   25.0791(16)
_cell_length_c                   12.6244(9)
_cell_angle_alpha                90
_cell_angle_beta                 95.955(7)
_cell_angle_gamma                90
_cell_volume                     3110.3
_exptl_crystal_colour            colorless
_exptl_crystal_description       block
_cell_formula_units_Z            4
loop_
_atom_site_label
_atom_site_type_symbol
_atom_site_fract_x
_atom_site_fract_y
_atom_site_fract_z
Na1 Na 0.09446(18) 0.14189(7) 0.63144(13)
O1 O -0.0735(3) 0.14029(12) 0.5023(2)
O2 O 0.3390(13) 0.1317(3) 0.5985(10)
O3 O 0.0383(5) 0.11860(17) 0.8196(3)
O4 O 0.196(2) 0.0525(12) 0.6958(14)
O5 O 0.0809(4) 0.21873(14) 0.7446(3)
O6 O 0.1984(4) 0.22125(14) 0.5545(3)
C1 C -0.1455(4) 0.12758(16) 0.4144(3)
C2 C -0.2905(4) 0.11856(18) 0.4144(3)
H1 H -0.3293 0.1226 0.4780
C3 C -0.3716(4) 0.10458(17) 0.3258(4)
H2 H -0.4640 0.0991 0.3301
C4 C -0.3186(4) 0.09816(17) 0.2267(3)
C5 C -0.4022(5) 0.08363(18) 0.1343(4)
H3 H -0.4949 0.0786 0.1383
C6 C -0.3515(5) 0.0767(2) 0.0393(4)
H4 H -0.4086 0.0672 -0.0210
C7 C -0.2118(5) 0.08405(19) 0.0333(4)
H5 H -0.1765 0.0791 -0.0314
C8 C -0.1262(4) 0.09850(17) 0.1215(3)
H6 H -0.0341 0.1031 0.1148
C9 C -0.1743(4) 0.10660(16) 0.2230(3)
C10 C -0.0908(4) 0.12156(16) 0.3161(3)
C11 C 0.0652(4) 0.12539(17) 0.3210(3)
H7 H 0.0952 0.1375 0.3934
C12 C 0.1273(4) 0.07013(17) 0.3125(4)
C13 C 0.1050(5) 0.03085(19) 0.3855(4)
H8 H 0.0523 0.0388 0.4403
C14 C 0.1584(5) -0.0200(2) 0.3798(5)
H9 H 0.1433 -0.0456 0.4305
C15 C 0.2340(6) -0.0317(2) 0.2979(5)
H10 H 0.2682 -0.0660 0.2919
C16 C 0.2606(5) 0.0068(2) 0.2233(5)
H11 H 0.3138 -0.0010 0.1687
C17 C 0.2051(4) 0.05703(19) 0.2330(4)
O7 O 0.2353(3) 0.09357(12) 0.1555(3)
C18 C 0.2102(4) 0.14672(18) 0.1740(3)
C19 C 0.2777(5) 0.1822(2) 0.1096(4)
H12 H 0.3312 0.1688 0.0593
C20 C 0.2647(5) 0.2356(2) 0.1210(4)
H13 H 0.3100 0.2586 0.0790
C21 C 0.1837(5) 0.25635(19) 0.1956(4)
C22 C 0.1741(5) 0.31189(19) 0.2110(4)
H14 H 0.2203 0.3349 0.1696
C23 C 0.0986(6) 0.3322(2) 0.2848(5)
H15 H 0.0936 0.3688 0.2943
C24 C 0.0284(6) 0.2980(2) 0.3467(4)
H16 H -0.0252 0.3123 0.3959
C25 C 0.0366(5) 0.24346(18) 0.3365(4)
H17 H -0.0095 0.2216 0.3802
C26 C 0.1138(4) 0.22047(17) 0.2608(3)
C27 C 0.1286(4) 0.16440(17) 0.2481(3)
C28 C 0.3367(6) 0.2184(3) 0.5478(5)
H18 H 0.3856 0.2259 0.6168
H19 H 0.3629 0.2448 0.4975
C29 C 0.3720(6) 0.1642(2) 0.5121(5)
H20 H 0.3696 0.1655 0.4351
H21 H 0.4659 0.1577 0.5396
C30 C 0.3768(7) 0.0776(3) 0.5849(6)
H22 H 0.4643 0.0932 0.6094
H23 H 0.3925 0.0523 0.5294
C31 C 0.3317(9) 0.0469(3) 0.6744(9)
H24 H 0.3477 0.0095 0.6613
H25 H 0.3895 0.0567 0.7383
C32 C 0.1654(10) 0.0400(3) 0.7961(6)
H26 H 0.2424 0.0208 0.8318
H27 H 0.0891 0.0155 0.7889
C33 C 0.1314(7) 0.0836(3) 0.8669(5)
H28 H 0.0960 0.0684 0.9291
H29 H 0.2140 0.1029 0.8910
C34 C 0.0124(6) 0.1647(3) 0.8765(4)
H30 H 0.0267 0.1569 0.9521
H31 H -0.0824 0.1746 0.8598
C35 C 0.0970(7) 0.2095(2) 0.8538(4)
H32 H 0.0703 0.2409 0.8914
H33 H 0.1916 0.2018 0.8772
C36 C 0.1611(7) 0.2639(2) 0.7185(5)
H34 H 0.2552 0.2592 0.7476
H35 H 0.1267 0.2962 0.7486
C37 C 0.1522(7) 0.2682(2) 0.6025(5)
H36 H 0.0584 0.2749 0.5749
H37 H 0.2063 0.2983 0.5833
O8? O 0.2953(15) 0.1183(9) 0.538(3)
O9? O 0.237(7) 0.070(2) 0.713(4)
loop_
_geom_bond_atom_site_label_1
_geom_bond_atom_site_label_2
_geom_bond_site_symmetry_1
_geom_bond_site_symmetry_2
Na1 O1 1_555 1_555
O1 C1 1_555 1_555
O2 Na1 1_555 1_555
O3 Na1 1_555 1_555
O4 Na1 1_555 1_555
O5 Na1 1_555 1_555
O6 Na1 1_555 1_555
C1 C2 1_555 1_555
C2 H1 1_555 1_555
C3 C2 1_555 1_555
H2 C3 1_555 1_555
C4 C3 1_555 1_555
C5 C4 1_555 1_555
H3 C5 1_555 1_555
C6 C5 1_555 1_555
H4 C6 1_555 1_555
C7 C6 1_555 1_555
H5 C7 1_555 1_555
C8 C7 1_555 1_555
H6 C8 1_555 1_555
C9 C4 1_555 1_555
C10 C1 1_555 1_555
C11 C10 1_555 1_555
H7 C11 1_555 1_555
C12 C11 1_555 1_555
C13 C12 1_555 1_555
H8 C13 1_555 1_555
C14 C13 1_555 1_555
H9 C14 1_555 1_555
C15 C14 1_555 1_555
H10 C15 1_555 1_555
C16 C15 1_555 1_555
H11 C16 1_555 1_555
C17 C12 1_555 1_555
O7 C17 1_555 1_555
C18 O7 1_555 1_555
C19 C18 1_555 1_555
H12 C19 1_555 1_555
C20 C19 1_555 1_555
H13 C20 1_555 1_555
C21 C20 1_555 1_555
C22 C21 1_555 1_555
H14 C22 1_555 1_555
C23 C22 1_555 1_555
H15 C23 1_555 1_555
C24 C23 1_555 1_555
H16 C24 1_555 1_555
C25 C24 1_555 1_555
H17 C25 1_555 1_555
C26 C21 1_555 1_555
C27 C11 1_555 1_555
C28 O6 1_555 1_555
H18 C28 1_555 1_555
H19 C28 1_555 1_555
C29 O2 1_555 1_555
H20 C29 1_555 1_555
H21 C29 1_555 1_555
C30 O2 1_555 1_555
H22 C30 1_555 1_555
H23 C30 1_555 1_555
C31 O4 1_555 1_555
H24 C31 1_555 1_555
H25 C31 1_555 1_555
C32 O4 1_555 1_555
H26 C32 1_555 1_555
H27 C32 1_555 1_555
C33 O3 1_555 1_555
H28 C33 1_555 1_555
H29 C33 1_555 1_555
C34 O3 1_555 1_555
H30 C34 1_555 1_555
H31 C34 1_555 1_555
C35 O5 1_555 1_555
H32 C35 1_555 1_555
H33 C35 1_555 1_555
C36 O5 1_555 1_555
H34 C36 1_555 1_555
H35 C36 1_555 1_555
C37 O6 1_555 1_555
H36 C37 1_555 1_555
H37 C37 1_555 1_555
C8 C9 1_555 1_555
C9 C10 1_555 1_555
C16 C17 1_555 1_555
C18 C27 1_555 1_555
C25 C26 1_555 1_555
C26 C27 1_555 1_555
C28 C29 1_555 1_555
C30 C31 1_555 1_555
C32 C33 1_555 1_555
C34 C35 1_555 1_555
C36 C37 1_555 1_555

#END
