
#######################################################################
#
#                 Cambridge Crystallographic Data Centre
#                                CCDC 
#
#######################################################################
#
# If this CIF has been generated from an entry in the Cambridge 
# Structural Database, then it will include bibliographic, chemical, 
# crystal, experimental, refinement or atomic coordinate data resulting 
# from the CCDC's data processing and validation procedures.
#
#######################################################################

data_WOVTAE01
_chemical_compound_source        'Polyalthia parviflora leaves'
_chemical_name_common            'Parvistone D'
_chemical_formula_moiety         'C13 H14 O4'
_chemical_name_systematic        
8-Hydroxy-7-phenyl-2,6-dioxabicyclo[3.3.1]nonan-3-one
_symmetry_cell_setting           monoclinic
_symmetry_space_group_name_H-M   'P 21'
_symmetry_Int_Tables_number      4
_space_group_name_Hall           'P 2yb'
loop_
_symmetry_equiv_pos_site_id
_symmetry_equiv_pos_as_xyz
1 x,y,z
2 -x,1/2+y,-z
_cell_length_a                   7.8491(4)
_cell_length_b                   6.2050(4)
_cell_length_c                   11.2346(6)
_cell_angle_alpha                90
_cell_angle_beta                 95.747(3)
_cell_angle_gamma                90
_cell_volume                     544.416
_exptl_crystal_colour            colorless
_exptl_crystal_description       Columnar
_cell_formula_units_Z            2
loop_
_atom_site_label
_atom_site_type_symbol
_atom_site_fract_x
_atom_site_fract_y
_atom_site_fract_z
C1 C 0.1898(2) 0.0703(3) 0.40810(15)
H1 H 0.1485 -0.0440 0.4610
C2 C 0.4590(2) 0.1208(4) 0.31932(14)
C3 C 0.4510(2) 0.3589(3) 0.34413(17)
H2 H 0.4592 0.4368 0.2680
H3 H 0.5529 0.3984 0.3989
C4 C 0.2919(2) 0.4402(3) 0.39860(15)
H4 H 0.3239 0.5724 0.4467
C5 C 0.0943(2) 0.3175(3) 0.23544(15)
H5 H 0.1869 0.2738 0.1853
C6 C 0.0469(2) 0.1227(3) 0.30946(15)
H6 H 0.0241 -0.0053 0.2561
C7 C 0.2361(2) 0.2681(4) 0.48226(15)
H7 H 0.3303 0.2350 0.5449
H8 H 0.1360 0.3185 0.5216
C8 C -0.0587(2) 0.3928(3) 0.15386(14)
C9 C -0.1583(2) 0.5653(3) 0.18449(14)
H9 H -0.1289 0.6405 0.2573
C10 C -0.3012(2) 0.6284(4) 0.10883(15)
H10 H -0.3683 0.7474 0.1298
C11 C -0.3454(2) 0.5176(4) 0.00290(15)
H11 H -0.4429 0.5602 -0.0486
C12 C -0.2467(2) 0.3443(4) -0.02763(15)
H12 H -0.2772 0.2681 -0.1000
C13 C -0.1039(2) 0.2821(3) 0.04712(16)
H13 H -0.0366 0.1637 0.0257
O1 O 0.33785(15) -0.0125(2) 0.35231(11)
O2 O 0.15456(15) 0.4942(2) 0.30983(10)
O3 O 0.57660(15) 0.0405(3) 0.27297(11)
O4 O -0.09901(15) 0.1667(3) 0.37108(11)
H14 H -0.1880 0.1573 0.3232
loop_
_geom_bond_atom_site_label_1
_geom_bond_atom_site_label_2
_geom_bond_site_symmetry_1
_geom_bond_site_symmetry_2
C1 H1 1_555 1_555
C2 C3 1_555 1_555
C3 H2 1_555 1_555
H3 C3 1_555 1_555
C4 C3 1_555 1_555
H4 C4 1_555 1_555
C5 H5 1_555 1_555
C6 C1 1_555 1_555
H6 C6 1_555 1_555
C7 C1 1_555 1_555
H7 C7 1_555 1_555
H8 C7 1_555 1_555
C8 C5 1_555 1_555
C9 C8 1_555 1_555
H9 C9 1_555 1_555
C10 C9 1_555 1_555
H10 C10 1_555 1_555
C11 C10 1_555 1_555
H11 C11 1_555 1_555
C12 C11 1_555 1_555
H12 C12 1_555 1_555
C13 C8 1_555 1_555
H13 C13 1_555 1_555
O1 C1 1_555 1_555
O2 C4 1_555 1_555
O3 C2 1_555 1_555
O4 C6 1_555 1_555
H14 O4 1_555 1_555
C2 O1 1_555 1_555
C4 C7 1_555 1_555
C5 C6 1_555 1_555
C5 O2 1_555 1_555
C12 C13 1_555 1_555

#END
