
#######################################################################
#
#                 Cambridge Crystallographic Data Centre
#                                CCDC 
#
#######################################################################
#
# If this CIF has been generated from an entry in the Cambridge 
# Structural Database, then it will include bibliographic, chemical, 
# crystal, experimental, refinement or atomic coordinate data resulting 
# from the CCDC's data processing and validation procedures.
#
#######################################################################

data_WOVZOW01
_chemical_formula_moiety         'C8 H5 O4 1-,C3 H7 N6 1+'
_chemical_name_systematic        
'2,4,6-triamino-1,3,5-triazin-1-ium 2-carboxybenzoate'
_symmetry_cell_setting           triclinic
_symmetry_space_group_name_H-M   'P -1'
_symmetry_Int_Tables_number      2
_space_group_name_Hall           '-P 1'
loop_
_symmetry_equiv_pos_site_id
_symmetry_equiv_pos_as_xyz
1 x,y,z
2 -x,-y,-z
_cell_length_a                   7.0500(6)
_cell_length_b                   10.5479(9)
_cell_length_c                   33.569(3)
_cell_angle_alpha                90
_cell_angle_beta                 90
_cell_angle_gamma                90
_cell_volume                     2496.28
_exptl_crystal_colour            colorless
_exptl_crystal_description       plate
_cell_formula_units_Z            8
loop_
_atom_site_label
_atom_site_type_symbol
_atom_site_fract_x
_atom_site_fract_y
_atom_site_fract_z
O1 O 0.2770(2) 1.18739(15) 0.59677(4)
O2 O 0.0404(2) 1.54201(12) 0.68041(4)
H1 H 0.029663 1.606073 0.666757
O3 O 0.50383(19) 1.26874(13) 0.63471(4)
O4 O 0.1774(2) 1.46642(13) 0.62570(4)
C1 C 0.2059(2) 1.22272(15) 0.66424(5)
C2 C 0.0974(2) 1.32414(15) 0.67810(4)
C3 C 0.3359(3) 1.22942(15) 0.62864(5)
C4 C 0.1085(2) 1.45009(16) 0.65866(5)
C5 C 0.1980(3) 1.10734(17) 0.68426(6)
H2 H 0.270196 1.039373 0.675227
C6 C -0.0212(2) 1.30661(18) 0.71100(5)
H3 H -0.096670 1.373223 0.719843
C7 C 0.0839(3) 1.09265(19) 0.71748(6)
H4 H 0.082389 1.015784 0.731043
C8 C -0.0275(3) 1.1916(2) 0.73049(6)
H5 H -0.106831 1.180823 0.752364
O5 O 0.6776(2) 0.53351(13) 0.62570(4)
O6 O 0.7770(2) 0.81264(15) 0.59671(4)
O7 O 0.5401(2) 0.45792(12) 0.68047(4)
H6 H 0.530896 0.393497 0.666929
O8 O 1.00376(19) 0.73121(13) 0.63468(4)
C9 C 0.6089(2) 0.54988(16) 0.65865(5)
C10 C 0.7062(2) 0.77743(15) 0.66425(5)
C11 C 0.8360(3) 0.77069(15) 0.62865(5)
C12 C 0.6978(3) 0.89247(17) 0.68425(6)
H7 H 0.769808 0.960489 0.675181
C13 C 0.4723(3) 0.8086(2) 0.73050(6)
H8 H 0.392976 0.819442 0.752361
C14 C 0.5975(2) 0.67596(15) 0.67813(4)
C15 C 0.4787(3) 0.69354(18) 0.71098(5)
H9 H 0.403145 0.626955 0.719791
C16 C 0.5842(3) 0.90736(19) 0.71742(6)
H10 H 0.583096 0.984250 0.730971
O9 O 0.7770(2) 1.31284(15) 0.90329(4)
O10 O 0.5403(2) 0.95777(12) 0.81957(4)
H11 H 0.525793 0.894476 0.833419
O11 O 1.00350(19) 1.23138(12) 0.86528(4)
O12 O 0.6774(2) 1.03346(13) 0.87428(4)
C17 C 0.6089(2) 1.04999(16) 0.84141(5)
C18 C 0.8363(3) 1.27024(15) 0.87137(5)
C19 C 0.4786(3) 1.19363(18) 0.78904(5)
H12 H 0.402761 1.127115 0.780250
C20 C 0.4723(3) 1.3085(2) 0.76949(6)
H13 H 0.393011 1.319153 0.747604
C21 C 0.7059(2) 1.27747(15) 0.83572(5)
C22 C 0.5972(2) 1.17588(15) 0.82183(4)
C23 C 0.6979(3) 1.39259(17) 0.81568(6)
H14 H 0.770192 1.460515 0.824708
C24 C 0.5839(3) 1.40750(19) 0.78251(6)
H15 H 0.582498 1.484399 0.768963
O13 O 0.1774(2) 0.96653(13) 0.87430(4)
O14 O 0.50378(19) 0.76869(12) 0.86529(4)
O15 O 0.2770(2) 0.68738(16) 0.90326(4)
O16 O 0.0402(2) 1.04210(12) 0.81957(4)
H16 H 0.029908 1.106318 0.833164
C25 C 0.0975(2) 0.82402(15) 0.82188(4)
C26 C 0.1089(2) 0.95032(15) 0.84137(5)
C27 C 0.3361(3) 0.72936(15) 0.87138(5)
C28 C -0.0213(3) 0.80656(18) 0.78906(5)
H17 H -0.097083 0.873106 0.780275
C29 C -0.0274(3) 0.6913(2) 0.76949(6)
H18 H -0.106610 0.680493 0.747593
C30 C 0.2061(2) 0.72266(15) 0.83573(5)
C31 C 0.1979(3) 0.60731(17) 0.81571(6)
H19 H 0.269864 0.539255 0.824758
C32 C 0.0839(3) 0.59275(19) 0.78253(6)
H20 H 0.082612 0.515893 0.768954
N1 N -0.1876(2) 0.79832(13) 0.92637(4)
H21 H -0.248083 0.828806 0.906286
N2 N -0.08093(19) 0.62106(12) 0.96183(4)
N3 N -0.0238(2) 0.83205(12) 0.98622(4)
N4 N 0.0539(2) 0.65568(13) 1.02223(4)
H22 H 0.094686 0.704757 1.040817
H23 H 0.059857 0.574758 1.025103
N5 N -0.1316(2) 1.00035(13) 0.94944(4)
H24 H -0.087003 1.051898 0.966934
H25 H -0.188980 1.029235 0.928729
N6 N -0.2371(2) 0.59714(14) 0.90229(4)
H26 H -0.227860 0.516063 0.904165
H27 H -0.292473 0.630580 0.882028
C33 C -0.1122(2) 0.87757(15) 0.95434(5)
C34 C -0.1664(2) 0.67018(15) 0.93050(5)
C35 C -0.0175(2) 0.70447(14) 0.98937(4)
N7 N -0.08107(19) 1.12116(12) 0.53821(4)
N8 N -0.0239(2) 1.33204(12) 0.51375(4)
N9 N 0.0540(2) 1.15562(13) 0.47776(4)
H28 H 0.094800 1.204728 0.459187
H29 H 0.059985 1.074703 0.474880
N10 N -0.1876(2) 1.29832(13) 0.57361(4)
H30 H -0.248051 1.328905 0.593679
N11 N -0.1313(2) 1.50024(13) 0.55059(4)
H31 H -0.086524 1.551809 0.533111
H32 H -0.188600 1.529120 0.571303
N12 N -0.2370(2) 1.09734(14) 0.59772(4)
H33 H -0.227652 1.016257 0.595893
H34 H -0.292457 1.130842 0.617971
C36 C -0.0175(2) 1.20433(14) 0.51060(4)
C37 C -0.1121(2) 1.37741(15) 0.54564(5)
C38 C -0.1666(2) 1.17014(15) 0.56953(5)
N13 N 0.47601(19) 1.16812(12) 0.98623(4)
N14 N 0.41908(19) 1.37893(12) 0.96184(4)
N15 N 0.5539(2) 1.34429(13) 1.02227(4)
H35 H 0.594600 1.295162 1.040847
H36 H 0.559916 1.425209 1.025158
N16 N 0.3121(2) 1.20147(13) 0.92635(4)
H37 H 0.251785 1.170890 0.906271
N17 N 0.3687(2) 0.99978(13) 0.94942(4)
H38 H 0.413881 0.948370 0.966897
H39 H 0.311341 0.970709 0.928740
N18 N 0.2631(2) 1.40265(14) 0.90229(4)
H40 H 0.272620 1.483733 0.904096
H41 H 0.207627 1.369152 0.882040
C39 C 0.3874(2) 1.12267(15) 0.95431(5)
C40 C 0.4825(2) 1.29563(14) 0.98941(4)
C41 C 0.3333(2) 1.32988(15) 0.93048(5)
N19 N 0.5538(2) 0.84425(13) 0.47776(4)
H42 H 0.594790 0.795151 0.459212
H43 H 0.559410 0.925167 0.474858
N20 N 0.3125(2) 0.70162(13) 0.57365(4)
H44 H 0.252377 0.671044 0.593756
N21 N 0.41907(19) 0.87884(12) 0.53817(4)
N22 N 0.4764(2) 0.66791(12) 0.51380(4)
N23 N 0.3688(2) 0.49979(13) 0.55057(4)
H45 H 0.413888 0.448189 0.533136
H46 H 0.311270 0.470947 0.571259
N24 N 0.2630(2) 0.90268(14) 0.59775(4)
H47 H 0.272445 0.983769 0.595948
H48 H 0.207630 0.869106 0.617985
C42 C 0.3335(2) 0.82989(15) 0.56949(5)
C43 C 0.3879(2) 0.62254(15) 0.54560(5)
C44 C 0.4823(2) 0.79553(15) 0.51061(4)
loop_
_geom_bond_atom_site_label_1
_geom_bond_atom_site_label_2
_geom_bond_site_symmetry_1
_geom_bond_site_symmetry_2
O1 C3 1_555 1_555
O2 H1 1_555 1_555
O3 C3 1_555 1_555
O4 C4 1_555 1_555
C1 C2 1_555 1_555
C2 C4 1_555 1_555
C3 C1 1_555 1_555
C4 O2 1_555 1_555
C5 C1 1_555 1_555
H2 C5 1_555 1_555
C6 C2 1_555 1_555
H3 C6 1_555 1_555
C7 C5 1_555 1_555
H4 C7 1_555 1_555
C8 C6 1_555 1_555
H5 C8 1_555 1_555
O5 C9 1_555 1_555
O6 C11 1_555 1_555
O7 H6 1_555 1_555
O8 C11 1_555 1_555
C9 O7 1_555 1_555
C10 C11 1_555 1_555
C12 C10 1_555 1_555
H7 C12 1_555 1_555
C13 H8 1_555 1_555
C14 C9 1_555 1_555
C15 C13 1_555 1_555
H9 C15 1_555 1_555
C16 C12 1_555 1_555
H10 C16 1_555 1_555
O9 C18 1_555 1_555
O10 H11 1_555 1_555
O11 C18 1_555 1_555
O12 C17 1_555 1_555
C17 O10 1_555 1_555
C18 C21 1_555 1_555
C19 H12 1_555 1_555
C20 C19 1_555 1_555
H13 C20 1_555 1_555
C21 C22 1_555 1_555
C22 C17 1_555 1_555
C23 C21 1_555 1_555
H14 C23 1_555 1_555
C24 C20 1_555 1_555
H15 C24 1_555 1_555
O13 C26 1_555 1_555
O14 C27 1_555 1_555
O15 C27 1_555 1_555
O16 H16 1_555 1_555
C25 C26 1_555 1_555
C26 O16 1_555 1_555
C27 C30 1_555 1_555
C28 C25 1_555 1_555
H17 C28 1_555 1_555
C29 C28 1_555 1_555
H18 C29 1_555 1_555
C30 C25 1_555 1_555
C31 C30 1_555 1_555
H19 C31 1_555 1_555
C32 C29 1_555 1_555
H20 C32 1_555 1_555
N1 H21 1_555 1_555
N2 C34 1_555 1_555
N3 C33 1_555 1_555
N4 H22 1_555 1_555
H23 N4 1_555 1_555
N5 H24 1_555 1_555
H25 N5 1_555 1_555
N6 H26 1_555 1_555
H27 N6 1_555 1_555
C33 N1 1_555 1_555
C34 N1 1_555 1_555
C35 N2 1_555 1_555
N7 C36 1_555 1_555
N8 C36 1_555 1_555
N9 H28 1_555 1_555
H29 N9 1_555 1_555
N10 H30 1_555 1_555
N11 H31 1_555 1_555
H32 N11 1_555 1_555
N12 H33 1_555 1_555
H34 N12 1_555 1_555
C36 N9 1_555 1_555
C37 N8 1_555 1_555
C38 N7 1_555 1_555
N13 C39 1_555 1_555
N14 C40 1_555 1_555
N15 H35 1_555 1_555
H36 N15 1_555 1_555
N16 H37 1_555 1_555
N17 H38 1_555 1_555
H39 N17 1_555 1_555
N18 H40 1_555 1_555
H41 N18 1_555 1_555
C39 N16 1_555 1_555
C40 N13 1_555 1_555
C41 N14 1_555 1_555
N19 H42 1_555 1_555
H43 N19 1_555 1_555
N20 H44 1_555 1_555
N21 C42 1_555 1_555
N22 C43 1_555 1_555
N23 H45 1_555 1_555
H46 N23 1_555 1_555
N24 H47 1_555 1_555
H48 N24 1_555 1_555
C42 N20 1_555 1_555
C43 N20 1_555 1_555
C44 N19 1_555 1_555
C7 C8 1_555 1_555
C10 C14 1_555 1_555
C13 C16 1_555 1_555
C14 C15 1_555 1_555
C19 C22 1_555 1_555
C23 C24 1_555 1_555
C31 C32 1_555 1_555
N3 C35 1_555 1_555
N4 C35 1_555 1_555
N5 C33 1_555 1_555
N6 C34 1_555 1_555
N10 C37 1_555 1_555
N10 C38 1_555 1_555
N11 C37 1_555 1_555
N12 C38 1_555 1_555
N15 C40 1_555 1_555
N16 C41 1_555 1_555
N17 C39 1_555 1_555
N18 C41 1_555 1_555
N21 C44 1_555 1_555
N22 C44 1_555 1_555
N23 C43 1_555 1_555
N24 C42 1_555 1_555

#END
