
#######################################################################
#
#                 Cambridge Crystallographic Data Centre
#                                CCDC 
#
#######################################################################
#
# If this CIF has been generated from an entry in the Cambridge 
# Structural Database, then it will include bibliographic, chemical, 
# crystal, experimental, refinement or atomic coordinate data resulting 
# from the CCDC's data processing and validation procedures.
#
#######################################################################

data_WOWDIV
_chemical_formula_moiety         'C12 H12 O2 S8 1+,C12 H12 O2 S8,Cl1 1-'
_chemical_name_systematic        
"bis(4,5-Ethylenedithio-4',5'-(1,4-dihydroxybutane-2,3-diyldithio)tetrathiafulvalene) chloride"
_symmetry_cell_setting           triclinic
_symmetry_space_group_name_H-M   'P -1'
_symmetry_Int_Tables_number      2
_space_group_name_Hall           '-P 1'
loop_
_symmetry_equiv_pos_site_id
_symmetry_equiv_pos_as_xyz
1 x,y,z
2 -x,-y,-z
_cell_length_a                   8.9908(5)
_cell_length_b                   13.2399(5)
_cell_length_c                   15.0602(10)
_cell_angle_alpha                81.003(4)
_cell_angle_beta                 85.747(3)
_cell_angle_gamma                70.911(3)
_cell_volume                     1672.79
_exptl_crystal_colour            red-brown
_exptl_crystal_description       'thin plate'
_cell_formula_units_Z            2
loop_
_atom_site_label
_atom_site_type_symbol
_atom_site_fract_x
_atom_site_fract_y
_atom_site_fract_z
Cl1 Cl 0.1995(2) 0.21099(16) 0.51264(15)
S1 S 0.1495(2) 0.83139(16) 0.11348(13)
S2 S 0.4553(2) 0.65967(15) 0.10235(14)
S3 S 0.2617(2) 0.98700(16) -0.04223(14)
S4 S 0.5574(2) 0.81116(15) -0.06841(14)
S5 S 0.0574(2) 0.74539(16) 0.29433(14)
S6 S 0.4284(2) 0.54231(16) 0.28364(14)
S7 S 0.3210(3) 1.14198(18) -0.19063(18)
S8 S 0.6688(2) 0.93113(16) -0.22761(14)
C1 C 0.3327(9) 0.7899(6) 0.0586(5)
C2 C 0.3775(9) 0.8533(6) -0.0081(6)
C3 C 0.2029(9) 0.7304(6) 0.2080(5)
C4 C 0.3409(9) 0.6521(6) 0.2031(5)
C5 C 0.3887(9) 1.0125(6) -0.1303(6)
C6 C 0.5234(9) 0.9314(6) -0.1442(5)
C7 C 0.1717(9) 0.6554(6) 0.3869(5)
H1 H 0.0953 0.6439 0.4340
C8 C 0.2596(9) 0.5435(6) 0.3582(5)
H2 H 0.1857 0.5224 0.3264
C9 C 0.4577(11) 1.1345(7) -0.2840(7)
H3 H 0.4252 1.1013 -0.3288
H4 H 0.4504 1.2075 -0.3106
C10 C 0.6247(10) 1.0743(7) -0.2642(7)
H5 H 0.6567 1.1057 -0.2179
H6 H 0.6879 1.0842 -0.3179
C21 C 0.2676(11) 0.7119(7) 0.4261(6)
H13 H 0.3632 0.7067 0.3901
H14 H 0.2076 0.7877 0.4250
C22 C 0.3199(11) 0.4570(7) 0.4379(6)
H15 H 0.3719 0.3880 0.4171
H16 H 0.3957 0.4749 0.4698
O1 O 0.3070(7) 0.6638(5) 0.5163(4)
H21 H 0.3675 0.6021 0.5165
O2 O 0.1911(8) 0.4503(5) 0.4965(5)
H22 H 0.1940 0.3871 0.5084
S9 S 0.6887(2) 0.36037(15) 0.12485(13)
S10 S 0.9907(2) 0.19698(15) 0.09395(13)
S11 S 0.7699(2) 0.51344(15) -0.05794(13)
S12 S 1.0744(2) 0.34566(15) -0.07093(14)
S13 S 0.6013(2) 0.23643(15) 0.28839(13)
S14 S 0.9533(2) 0.03256(15) 0.24111(13)
S15 S 0.8086(2) 0.64789(15) -0.22738(14)
S16 S 1.1821(2) 0.44837(17) -0.23890(15)
C11 C 0.8586(9) 0.3238(6) 0.0598(5)
C12 C 0.8938(9) 0.3891(6) -0.0132(5)
C13 C 0.7358(8) 0.2378(6) 0.1995(5)
C14 C 0.8735(9) 0.1628(6) 0.1837(5)
C15 C 0.8883(9) 0.5319(6) -0.1514(5)
C16 C 1.0335(10) 0.4535(6) -0.1576(5)
C17 C 0.6741(8) 0.0942(6) 0.3367(5)
H7 H 0.6480 0.0532 0.2948
C18 C 0.8517(9) 0.0485(6) 0.3489(5)
H8 H 0.8723 -0.0244 0.3818
C19 C 0.9831(10) 0.6580(7) -0.2900(6)
H9 H 0.9512 0.7152 -0.3404
H10 H 1.0459 0.6795 -0.2516
C20 C 1.0858(10) 0.5577(7) -0.3258(6)
H11 H 1.1659 0.5757 -0.3659
H12 H 1.0221 0.5327 -0.3609
C23 C 0.9168(9) 0.1098(6) 0.4060(5)
H17 H 0.8889 0.1853 0.3803
H18 H 0.8724 0.1054 0.4666
C24 C 0.5748(9) 0.0832(7) 0.4229(6)
H19 H 0.4710 0.0861 0.4066
H20 H 0.6232 0.0131 0.4576
O3 O 1.0859(7) 0.0619(5) 0.4078(4)
H23 H 1.1228 0.0956 0.4363
O4 O 0.5584(7) 0.1648(5) 0.4778(4)
H24 H 0.4656 0.1901 0.4928
loop_
_geom_bond_atom_site_label_1
_geom_bond_atom_site_label_2
_geom_bond_site_symmetry_1
_geom_bond_site_symmetry_2
S1 C1 1_555 1_555
S2 C1 1_555 1_555
S3 C2 1_555 1_555
S4 C2 1_555 1_555
S5 C3 1_555 1_555
S6 C4 1_555 1_555
S7 C5 1_555 1_555
S8 C6 1_555 1_555
S9 C11 1_555 1_555
S10 C11 1_555 1_555
S11 C12 1_555 1_555
S12 C12 1_555 1_555
S13 C13 1_555 1_555
S14 C14 1_555 1_555
S15 C15 1_555 1_555
S16 C16 1_555 1_555
C1 C2 1_555 1_555
C3 S1 1_555 1_555
C4 S2 1_555 1_555
C5 S3 1_555 1_555
C6 S4 1_555 1_555
C7 S5 1_555 1_555
H1 C7 1_555 1_555
C8 S6 1_555 1_555
H2 C8 1_555 1_555
C9 S7 1_555 1_555
H3 C9 1_555 1_555
H4 C9 1_555 1_555
C10 S8 1_555 1_555
H5 C10 1_555 1_555
H6 C10 1_555 1_555
C11 C12 1_555 1_555
C13 S9 1_555 1_555
C14 S10 1_555 1_555
C15 S11 1_555 1_555
C16 S12 1_555 1_555
C17 S13 1_555 1_555
H7 C17 1_555 1_555
C18 S14 1_555 1_555
H8 C18 1_555 1_555
C19 S15 1_555 1_555
H9 C19 1_555 1_555
H10 C19 1_555 1_555
C20 S16 1_555 1_555
H11 C20 1_555 1_555
H12 C20 1_555 1_555
C21 C7 1_555 1_555
H13 C21 1_555 1_555
H14 C21 1_555 1_555
C22 C8 1_555 1_555
H15 C22 1_555 1_555
H16 C22 1_555 1_555
C23 C18 1_555 1_555
H17 C23 1_555 1_555
H18 C23 1_555 1_555
C24 C17 1_555 1_555
H19 C24 1_555 1_555
H20 C24 1_555 1_555
O1 C21 1_555 1_555
H21 O1 1_555 1_555
O2 C22 1_555 1_555
H22 O2 1_555 1_555
O3 C23 1_555 1_555
H23 O3 1_555 1_555
O4 C24 1_555 1_555
H24 O4 1_555 1_555
C3 C4 1_555 1_555
C5 C6 1_555 1_555
C7 C8 1_555 1_555
C9 C10 1_555 1_555
C13 C14 1_555 1_555
C15 C16 1_555 1_555
C17 C18 1_555 1_555
C19 C20 1_555 1_555

#END
