
#######################################################################
#
#                 Cambridge Crystallographic Data Centre
#                                CCDC 
#
#######################################################################
#
# If this CIF has been generated from an entry in the Cambridge 
# Structural Database, then it will include bibliographic, chemical, 
# crystal, experimental, refinement or atomic coordinate data resulting 
# from the CCDC's data processing and validation procedures.
#
#######################################################################

data_WOWGAQ
_chemical_formula_moiety         'C12 H6 N2 S3,C12 H4 N4'
_chemical_name_systematic        
"Thieno(3',4':5,6)(1,4)dithiino(2,3-b)quinoxaline tetracyanoquinodimethane"
_symmetry_cell_setting           triclinic
_symmetry_space_group_name_H-M   'P -1'
_symmetry_Int_Tables_number      2
_space_group_name_Hall           '-P 1'
loop_
_symmetry_equiv_pos_site_id
_symmetry_equiv_pos_as_xyz
1 x,y,z
2 -x,-y,-z
_cell_length_a                   8.059(1)
_cell_length_b                   12.144(1)
_cell_length_c                   22.257(2)
_cell_angle_alpha                76.95(1)
_cell_angle_beta                 85.24(1)
_cell_angle_gamma                79.67(1)
_cell_volume                     2085.55
_exptl_crystal_colour            black
_exptl_crystal_description       needle
_cell_formula_units_Z            4
loop_
_atom_site_label
_atom_site_type_symbol
_atom_site_fract_x
_atom_site_fract_y
_atom_site_fract_z
S1 S 0.36069(15) 0.24635(11) -0.08400(5)
S2 S 0.45693(15) 0.38887(10) 0.06435(5)
S3 S 0.69625(15) 0.11391(10) 0.06228(5)
N1 N 0.5802(5) 0.3472(3) 0.17116(18)
C1 C 0.5798(5) 0.2993(4) 0.1238(2)
C2 C 0.6761(6) 0.1875(4) 0.1226(2)
N2 N 0.7721(5) 0.1303(3) 0.16880(18)
C3 C 0.8759(6) 0.1217(4) 0.2683(2)
H1 H 0.9415 0.0486 0.2678
C4 C 0.8793(6) 0.1712(5) 0.3181(2)
H2 H 0.9464 0.1320 0.3520
C5 C 0.7817(6) 0.2817(5) 0.3184(2)
H3 H 0.7845 0.3152 0.3529
C6 C 0.6854(6) 0.3391(5) 0.2708(2)
H4 H 0.6223 0.4128 0.2717
C7 C 0.6786(6) 0.2893(4) 0.2193(2)
C8 C 0.7752(6) 0.1798(4) 0.2183(2)
C9 C 0.3427(6) 0.3428(4) -0.0376(2)
H5 H 0.2691 0.4145 -0.0445
C10 C 0.4488(6) 0.3039(4) 0.0111(2)
C11 C 0.5452(6) 0.1931(4) 0.0100(2)
C12 C 0.5081(6) 0.1519(4) -0.0390(2)
H6 H 0.5584 0.0794 -0.0469
S4 S 0.50383(16) 0.74835(11) 0.52637(6)
S5 S 0.25321(15) 0.88281(10) 0.35882(5)
S6 S 0.48499(15) 0.59947(10) 0.37227(5)
N3 N 0.1772(5) 0.8447(3) 0.25653(17)
C13 C 0.2684(5) 0.7949(4) 0.3051(2)
C14 C 0.3665(6) 0.6817(4) 0.3098(2)
N4 N 0.3757(5) 0.6274(3) 0.26403(18)
C15 C 0.2933(6) 0.6222(4) 0.1639(2)
H7 H 0.3628 0.5496 0.1658
C16 C 0.1987(7) 0.6744(5) 0.1122(2)
H8 H 0.2021 0.6370 0.0788
C17 C 0.0978(6) 0.7838(5) 0.1096(2)
H9 H 0.0346 0.8190 0.0741
C18 C 0.0890(6) 0.8399(4) 0.1568(2)
H10 H 0.0202 0.9129 0.1539
C19 C 0.1823(6) 0.7890(4) 0.2095(2)
C20 C 0.2840(6) 0.6789(4) 0.2135(2)
C21 C 0.3796(6) 0.8424(4) 0.4725(2)
H11 H 0.3241 0.9158 0.4777
C22 C 0.3687(6) 0.8006(4) 0.4212(2)
C23 C 0.4657(5) 0.6863(4) 0.4266(2)
C24 C 0.5458(6) 0.6504(4) 0.4813(2)
H12 H 0.6171 0.5784 0.4927
C25 C 0.2639(5) 0.2392(4) 0.2568(2)
C26 C 0.3195(5) 0.1421(4) 0.2281(2)
H13 H 0.3963 0.0786 0.2486
C27 C 0.2644(6) 0.1405(4) 0.1729(2)
H14 H 0.3015 0.0755 0.1553
C28 C 0.1491(6) 0.2366(4) 0.1400(2)
C29 C 0.0978(6) 0.3353(4) 0.1674(2)
H15 H 0.0248 0.4002 0.1461
C30 C 0.1524(6) 0.3361(4) 0.2227(2)
H16 H 0.1172 0.4019 0.2399
C31 C 0.3151(5) 0.2375(4) 0.3146(2)
C32 C 0.0888(5) 0.2338(4) 0.0840(2)
C33 C 0.4298(6) 0.1442(4) 0.3486(2)
C34 C 0.2532(6) 0.3312(4) 0.3457(2)
C35 C 0.1331(6) 0.1353(4) 0.0572(2)
C36 C -0.0242(6) 0.3282(4) 0.0506(2)
N5 N 0.5217(5) 0.0721(4) 0.37584(18)
N6 N 0.2033(5) 0.4015(3) 0.37086(19)
N7 N 0.1644(5) 0.0558(4) 0.0349(2)
N8 N -0.1162(6) 0.4024(4) 0.02299(19)
C37 C -0.1771(6) 0.7460(4) 0.3105(2)
C38 C -0.0617(6) 0.6505(4) 0.3432(2)
H17 H -0.0218 0.5867 0.3249
C39 C -0.0100(5) 0.6500(4) 0.3991(2)
H18 H 0.0663 0.5861 0.4196
C40 C -0.0684(6) 0.7452(4) 0.4287(2)
C41 C -0.1834(6) 0.8420(4) 0.3958(2)
H19 H -0.2231 0.9059 0.4140
C42 C -0.2342(5) 0.8420(4) 0.3398(2)
H20 H -0.3092 0.9063 0.3191
C43 C -0.2324(6) 0.7446(4) 0.2539(2)
C44 C -0.0182(6) 0.7429(4) 0.4868(2)
C45 C -0.1795(5) 0.6477(4) 0.2250(2)
C46 C -0.3505(6) 0.8370(4) 0.2210(2)
C47 C 0.0960(6) 0.6489(4) 0.5198(2)
C48 C -0.0734(6) 0.8354(4) 0.5179(2)
N9 N -0.1371(5) 0.5718(4) 0.2021(2)
N10 N -0.4470(5) 0.9095(4) 0.19555(19)
N11 N 0.1873(5) 0.5729(4) 0.54685(19)
N12 N -0.1162(6) 0.9060(4) 0.5457(2)
loop_
_geom_bond_atom_site_label_1
_geom_bond_atom_site_label_2
_geom_bond_site_symmetry_1
_geom_bond_site_symmetry_2
S1 C9 1_555 1_555
S2 C1 1_555 1_555
S3 C2 1_555 1_555
N1 C1 1_555 1_555
C1 C2 1_555 1_555
C2 N2 1_555 1_555
N2 C8 1_555 1_555
C3 H1 1_555 1_555
C4 C3 1_555 1_555
H2 C4 1_555 1_555
C5 C4 1_555 1_555
H3 C5 1_555 1_555
C6 C5 1_555 1_555
H4 C6 1_555 1_555
C7 N1 1_555 1_555
C8 C3 1_555 1_555
C9 H5 1_555 1_555
C10 S2 1_555 1_555
C11 S3 1_555 1_555
C12 S1 1_555 1_555
H6 C12 1_555 1_555
S4 C21 1_555 1_555
S5 C13 1_555 1_555
S6 C14 1_555 1_555
N3 C13 1_555 1_555
C13 C14 1_555 1_555
C14 N4 1_555 1_555
N4 C20 1_555 1_555
C15 H7 1_555 1_555
C16 C15 1_555 1_555
H8 C16 1_555 1_555
C17 C16 1_555 1_555
H9 C17 1_555 1_555
C18 C17 1_555 1_555
H10 C18 1_555 1_555
C19 N3 1_555 1_555
C20 C15 1_555 1_555
C21 H11 1_555 1_555
C22 S5 1_555 1_555
C23 S6 1_555 1_555
C24 S4 1_555 1_555
H12 C24 1_555 1_555
C25 C26 1_555 1_555
C26 H13 1_555 1_555
C27 C26 1_555 1_555
H14 C27 1_555 1_555
C28 C27 1_555 1_555
C29 C28 1_555 1_555
H15 C29 1_555 1_555
C30 C25 1_555 1_555
H16 C30 1_555 1_555
C31 C25 1_555 1_555
C32 C28 1_555 1_555
C33 C31 1_555 1_555
C34 C31 1_555 1_555
C35 C32 1_555 1_555
C36 C32 1_555 1_555
N5 C33 1_555 1_555
N6 C34 1_555 1_555
N7 C35 1_555 1_555
N8 C36 1_555 1_555
C37 C38 1_555 1_555
C38 H17 1_555 1_555
C39 C38 1_555 1_555
H18 C39 1_555 1_555
C40 C39 1_555 1_555
C41 C40 1_555 1_555
H19 C41 1_555 1_555
C42 C37 1_555 1_555
H20 C42 1_555 1_555
C43 C37 1_555 1_555
C44 C40 1_555 1_555
C45 C43 1_555 1_555
C46 C43 1_555 1_555
C47 C44 1_555 1_555
C48 C44 1_555 1_555
N9 C45 1_555 1_555
N10 C46 1_555 1_555
N11 C47 1_555 1_555
N12 C48 1_555 1_555
C6 C7 1_555 1_555
C7 C8 1_555 1_555
C9 C10 1_555 1_555
C10 C11 1_555 1_555
C11 C12 1_555 1_555
C18 C19 1_555 1_555
C19 C20 1_555 1_555
C21 C22 1_555 1_555
C22 C23 1_555 1_555
C23 C24 1_555 1_555
C29 C30 1_555 1_555
C41 C42 1_555 1_555

#END
