
#######################################################################
#
#                 Cambridge Crystallographic Data Centre
#                                CCDC 
#
#######################################################################
#
# If this CIF has been generated from an entry in the Cambridge 
# Structural Database, then it will include bibliographic, chemical, 
# crystal, experimental, refinement or atomic coordinate data resulting 
# from the CCDC's data processing and validation procedures.
#
#######################################################################

data_WOWZOZ
_chemical_formula_moiety         'C35 H52 N2 Se1'
_chemical_name_systematic        
1,3-bis(2,6-bis(Pentan-3-yl)phenyl)-1,3-dihydro-2H-imidazole-2-selenone
_symmetry_cell_setting           monoclinic
_symmetry_space_group_name_H-M   'P 21/c'
_symmetry_Int_Tables_number      14
_space_group_name_Hall           '-P 2ybc'
loop_
_symmetry_equiv_pos_site_id
_symmetry_equiv_pos_as_xyz
1 x,y,z
2 -x,1/2+y,1/2-z
3 -x,-y,-z
4 x,1/2-y,1/2+z
_cell_length_a                   20.433(2)
_cell_length_b                   7.6327(6)
_cell_length_c                   21.563(2)
_cell_angle_alpha                90
_cell_angle_beta                 106.660(3)
_cell_angle_gamma                90
_cell_volume                     3221.78
_exptl_crystal_colour            colorless
_exptl_crystal_description       prism
_cell_formula_units_Z            4
_exptl_crystal_recrystallization_method acetone
loop_
_atom_site_label
_atom_site_type_symbol
_atom_site_fract_x
_atom_site_fract_y
_atom_site_fract_z
Se1 Se 0.22267(2) 1.16079(4) 0.28112(2)
N1 N 0.19583(11) 0.7960(3) 0.25089(10)
N2 N 0.30099(11) 0.8651(3) 0.26105(11)
C1 C 0.24021(13) 0.9341(3) 0.26342(12)
C2 C 0.22904(14) 0.6447(4) 0.24105(13)
C3 C 0.29374(14) 0.6872(4) 0.24761(15)
C4 C 0.12464(13) 0.8021(3) 0.24918(13)
C5 C 0.07573(13) 0.8196(3) 0.18904(13)
C6 C 0.00739(14) 0.8193(4) 0.18881(14)
C7 C -0.01095(14) 0.7964(4) 0.24500(15)
C8 C 0.03893(15) 0.7772(4) 0.30342(14)
C9 C 0.10791(14) 0.7799(3) 0.30707(13)
C10 C 0.09412(14) 0.8371(3) 0.12589(13)
C11 C 0.05520(16) 0.7043(4) 0.07554(14)
C12 C 0.06619(18) 0.5144(4) 0.09743(17)
C13 C 0.08375(15) 1.0265(4) 0.10078(14)
C14 C 0.10868(18) 1.0581(4) 0.04202(15)
C15 C 0.16278(15) 0.7469(4) 0.37059(13)
C16 C 0.17469(16) 0.5476(4) 0.38051(14)
C17 C 0.23924(18) 0.4997(5) 0.43242(17)
C18 C 0.14701(17) 0.8326(4) 0.42941(14)
C19 C 0.1395(2) 1.0290(5) 0.42435(17)
C20 C 0.36604(14) 0.9551(4) 0.27655(15)
C21 C 0.38007(15) 1.0645(4) 0.23062(16)
C22 C 0.44516(18) 1.1413(5) 0.2466(2)
C23 C 0.49192(18) 1.1093(6) 0.3054(2)
C24 C 0.47667(17) 0.9999(6) 0.34974(18)
C25 C 0.41324(15) 0.9200(5) 0.33684(16)
C26 C 0.32944(17) 1.1058(4) 0.16536(16)
C27 C 0.3505(2) 1.0123(6) 0.1095(2)
C28 C 0.3342(3) 0.8229(6) 0.1035(2)
C29 C 0.3227(2) 1.3029(5) 0.1541(2)
C30 C 0.2608(2) 1.3571(5) 0.1009(2)
C31 C 0.39964(19) 0.7927(6) 0.38605(18)
C32 C 0.4448(2) 0.6188(7) 0.3876(3)
C33 C 0.4247(4) 0.4658(9) 0.4147(4)
C34 C 0.4104(2) 0.8686(7) 0.4521(2)
C35 C 0.3614(3) 1.0138(7) 0.4546(3)
H1 H 0.20925 0.53169 0.23141
H2 H 0.32876 0.60973 0.24378
H3 H -0.02726 0.8352 0.14906
H4 H -0.05783 0.79377 0.24359
H5 H 0.02575 0.76189 0.34189
H6 H 0.14388 0.80973 0.13534
H7 H 0.00578 0.731 0.06452
H8 H 0.06946 0.71858 0.03566
H9 H 0.05233 0.49864 0.13698
H10 H 0.1146 0.48436 0.10608
H11 H 0.0387 0.43788 0.06333
H12 H 0.03451 1.05547 0.08962
H13 H 0.10827 1.10664 0.13587
H14 H 0.07996 0.99285 0.00503
H15 H 0.15612 1.01846 0.05114
H16 H 0.1061 1.18354 0.03185
H17 H 0.20621 0.79963 0.36664
H18 H 0.13522 0.49568 0.39183
H19 H 0.17644 0.49479 0.33907
H20 H 0.23618 0.54146 0.47447
H21 H 0.27855 0.55441 0.42267
H22 H 0.24489 0.37211 0.4338
H23 H 0.10421 0.78176 0.43437
H24 H 0.1842 0.80351 0.46888
H25 H 0.10186 1.05916 0.3861
H26 H 0.18198 1.08092 0.42045
H27 H 0.12967 1.07469 0.46323
H28 H 0.45701 1.21641 0.21633
H29 H 0.53552 1.16369 0.31546
H30 H 0.51005 0.97863 0.38989
H31 H 0.28378 1.05949 0.16572
H32 H 0.32707 1.07052 0.06812
H33 H 0.4003 1.02714 0.11695
H34 H 0.2846 0.80704 0.09194
H35 H 0.35556 0.76463 0.14488
H36 H 0.35176 0.77179 0.06976
H37 H 0.321 1.36026 0.19483
H38 H 0.36395 1.34609 0.14368
H39 H 0.21956 1.31382 0.11047
H40 H 0.2634 1.30757 0.05978
H41 H 0.25903 1.48517 0.09784
H42 H 0.35056 0.75723 0.36992
H43 H 0.44462 0.59168 0.34269
H44 H 0.49259 0.64597 0.4123
H45 H 0.38002 0.42677 0.38729
H46 H 0.42151 0.4919 0.45822
H47 H 0.4585 0.37314 0.41714
H48 H 0.45768 0.91418 0.46772
H49 H 0.40566 0.77406 0.48199
H50 H 0.31443 0.9712 0.43769
H51 H 0.36866 1.11253 0.42831
H52 H 0.3693 1.05216 0.49956
loop_
_geom_bond_atom_site_label_1
_geom_bond_atom_site_label_2
_geom_bond_site_symmetry_1
_geom_bond_site_symmetry_2
Se1 C1 1_555 1_555
N1 C1 1_555 1_555
N2 C1 1_555 1_555
C2 N1 1_555 1_555
C3 N2 1_555 1_555
C4 N1 1_555 1_555
C5 C4 1_555 1_555
C6 C5 1_555 1_555
C7 C6 1_555 1_555
C8 C7 1_555 1_555
C9 C4 1_555 1_555
C10 C5 1_555 1_555
C11 C10 1_555 1_555
C12 C11 1_555 1_555
C13 C10 1_555 1_555
C14 C13 1_555 1_555
C15 C9 1_555 1_555
C16 C15 1_555 1_555
C17 C16 1_555 1_555
C18 C15 1_555 1_555
C19 C18 1_555 1_555
C20 N2 1_555 1_555
C21 C20 1_555 1_555
C22 C21 1_555 1_555
C23 C22 1_555 1_555
C24 C23 1_555 1_555
C25 C20 1_555 1_555
C26 C21 1_555 1_555
C27 C26 1_555 1_555
C28 C27 1_555 1_555
C29 C26 1_555 1_555
C30 C29 1_555 1_555
C31 C25 1_555 1_555
C32 C31 1_555 1_555
C33 C32 1_555 1_555
C34 C31 1_555 1_555
C35 C34 1_555 1_555
H1 C2 1_555 1_555
H2 C3 1_555 1_555
H3 C6 1_555 1_555
H4 C7 1_555 1_555
H5 C8 1_555 1_555
H6 C10 1_555 1_555
H7 C11 1_555 1_555
H8 C11 1_555 1_555
H9 C12 1_555 1_555
H10 C12 1_555 1_555
H11 C12 1_555 1_555
H12 C13 1_555 1_555
H13 C13 1_555 1_555
H14 C14 1_555 1_555
H15 C14 1_555 1_555
H16 C14 1_555 1_555
H17 C15 1_555 1_555
H18 C16 1_555 1_555
H19 C16 1_555 1_555
H20 C17 1_555 1_555
H21 C17 1_555 1_555
H22 C17 1_555 1_555
H23 C18 1_555 1_555
H24 C18 1_555 1_555
H25 C19 1_555 1_555
H26 C19 1_555 1_555
H27 C19 1_555 1_555
H28 C22 1_555 1_555
H29 C23 1_555 1_555
H30 C24 1_555 1_555
H31 C26 1_555 1_555
H32 C27 1_555 1_555
H33 C27 1_555 1_555
H34 C28 1_555 1_555
H35 C28 1_555 1_555
H36 C28 1_555 1_555
H37 C29 1_555 1_555
H38 C29 1_555 1_555
H39 C30 1_555 1_555
H40 C30 1_555 1_555
H41 C30 1_555 1_555
H42 C31 1_555 1_555
H43 C32 1_555 1_555
H44 C32 1_555 1_555
H45 C33 1_555 1_555
H46 C33 1_555 1_555
H47 C33 1_555 1_555
H48 C34 1_555 1_555
H49 C34 1_555 1_555
H50 C35 1_555 1_555
H51 C35 1_555 1_555
H52 C35 1_555 1_555
C2 C3 1_555 1_555
C8 C9 1_555 1_555
C24 C25 1_555 1_555

#END
