
#######################################################################
#
#                 Cambridge Crystallographic Data Centre
#                                CCDC 
#
#######################################################################
#
# If this CIF has been generated from an entry in the Cambridge 
# Structural Database, then it will include bibliographic, chemical, 
# crystal, experimental, refinement or atomic coordinate data resulting 
# from the CCDC's data processing and validation procedures.
#
#######################################################################

data_WOYHEX
_chemical_formula_moiety         'C24 H29 N1 O4,0.5(C2 H6 O1),0.5(H2 O1)'
_chemical_name_systematic        
'9-(3-Methoxy-4-hydroxyphenyl)-3,3,6,6-tetramethyl-1,2,3,4,5,6,7,8,9,10-decahydroacridine-1,8-dione ethanol solvate hemihydrate'
_symmetry_cell_setting           monoclinic
_symmetry_space_group_name_H-M   'P 21/n'
_symmetry_Int_Tables_number      14
_space_group_name_Hall           '-P 2yn'
loop_
_symmetry_equiv_pos_site_id
_symmetry_equiv_pos_as_xyz
1 x,y,z
2 1/2-x,1/2+y,1/2-z
3 -x,-y,-z
4 1/2+x,1/2-y,1/2+z
_cell_length_a                   9.810(2)
_cell_length_b                   14.516(3)
_cell_length_c                   17.005(3)
_cell_angle_alpha                90
_cell_angle_beta                 101.03(2)
_cell_angle_gamma                90
_cell_volume                     2376.81
_chemical_melting_point          282-283deg.C
_cell_formula_units_Z            4
loop_
_atom_site_label
_atom_site_type_symbol
_atom_site_fract_x
_atom_site_fract_y
_atom_site_fract_z
O5 O -0.0006(6) 0.6202(3) 0.5796(3)
C25 C 0.0650(6) 0.5531(4) 0.5403(3)
C26 C 0.2084(6) 0.5824(4) 0.5315(3)
O1 O 0.2547(2) 0.7009(1) 0.1243(1)
O2 O 0.1763(1) 0.6027(1) 0.2411(1)
O3 O 0.1158(1) 1.0349(1) 0.3546(1)
O4 O -0.3255(1) 0.8706(1) 0.2270(1)
N1 N -0.0514(2) 0.7765(1) 0.4710(1)
C1 C 0.1756(2) 0.7411(1) 0.1730(1)
C2 C 0.1356(2) 0.8310(1) 0.1596(1)
C3 C 0.0574(2) 0.8747(1) 0.2082(1)
C4 C 0.0185(2) 0.8286(1) 0.2712(1)
C5 C 0.0582(2) 0.7369(1) 0.2837(1)
C6 C 0.1350(2) 0.6931(1) 0.2352(1)
C7 C 0.1271(2) 0.5453(1) 0.2970(1)
C8 C -0.0601(2) 0.8781(1) 0.3280(1)
C9 C 0.0380(2) 0.9000(1) 0.4059(1)
C10 C 0.1280(2) 0.9789(1) 0.4104(1)
C11 C 0.2338(2) 0.9949(1) 0.4860(1)
C12 C 0.2795(2) 0.9089(1) 0.5349(1)
C13 C 0.1488(2) 0.8578(1) 0.5471(1)
C14 C 0.0448(2) 0.8454(1) 0.4711(1)
C15 C -0.1694(2) 0.7713(1) 0.4125(1)
C16 C -0.2807(2) 0.7082(1) 0.4300(1)
C17 C -0.3835(2) 0.6796(1) 0.3548(1)
C18 C -0.4296(2) 0.7669(2) 0.3072(1)
C19 C -0.3116(2) 0.8235(1) 0.2884(1)
C20 C -0.1814(2) 0.8231(1) 0.3457(1)
C21 C 0.3645(2) 0.9359(2) 0.6165(1)
C22 C 0.3668(2) 0.8473(2) 0.4913(1)
C23 C -0.5085(2) 0.6323(2) 0.3792(1)
C24 C -0.3169(2) 0.6132(2) 0.3038(1)
O6? O -0.0457(5) 0.6562(4) 0.6000(3)
loop_
_geom_bond_atom_site_label_1
_geom_bond_atom_site_label_2
_geom_bond_site_symmetry_1
_geom_bond_site_symmetry_2
O1 C1 1_555 1_555
O2 C6 1_555 1_555
O3 C10 1_555 1_555
O4 C19 1_555 1_555
N1 C14 1_555 1_555
C1 C2 1_555 1_555
C2 C3 1_555 1_555
C3 C4 1_555 1_555
C4 C5 1_555 1_555
C5 C6 1_555 1_555
C6 C1 1_555 1_555
C7 O2 1_555 1_555
C8 C4 1_555 1_555
C9 C8 1_555 1_555
C10 C9 1_555 1_555
C11 C10 1_555 1_555
C12 C11 1_555 1_555
C13 C12 1_555 1_555
C14 C9 1_555 1_555
C15 N1 1_555 1_555
C16 C15 1_555 1_555
C17 C16 1_555 1_555
C18 C17 1_555 1_555
C19 C18 1_555 1_555
C20 C8 1_555 1_555
C21 C12 1_555 1_555
C22 C12 1_555 1_555
C23 C17 1_555 1_555
C24 C17 1_555 1_555
O5 C25 1_555 1_555
C25 C26 1_555 1_555
C13 C14 1_555 1_555
C15 C20 1_555 1_555
C19 C20 1_555 1_555

#END
