
#######################################################################
#
#                 Cambridge Crystallographic Data Centre
#                                CCDC 
#
#######################################################################
#
# If this CIF has been generated from an entry in the Cambridge 
# Structural Database, then it will include bibliographic, chemical, 
# crystal, experimental, refinement or atomic coordinate data resulting 
# from the CCDC's data processing and validation procedures.
#
#######################################################################

data_WOYMUU
_chemical_formula_moiety         'C24 H21 N3 O2'
_chemical_name_systematic        
4-(((2-hydroxy-5-methylphenyl)amino)(phenyl)methylene)-5-methyl-2-phenyl-2,4-dihydro-3H-pyrazol-3-one
_symmetry_cell_setting           triclinic
_symmetry_space_group_name_H-M   'P -1'
_symmetry_Int_Tables_number      2
_space_group_name_Hall           '-P 1'
loop_
_symmetry_equiv_pos_site_id
_symmetry_equiv_pos_as_xyz
1 x,y,z
2 -x,-y,-z
_cell_length_a                   7.7356(7)
_cell_length_b                   10.8256(8)
_cell_length_c                   13.5508(11)
_cell_angle_alpha                112.683(2)
_cell_angle_beta                 90.9070(10)
_cell_angle_gamma                107.7410(10)
_cell_volume                     985.668
_exptl_crystal_colour            yellow
_exptl_crystal_description       block
_cell_formula_units_Z            2
loop_
_atom_site_label
_atom_site_type_symbol
_atom_site_fract_x
_atom_site_fract_y
_atom_site_fract_z
N1 N 0.6763(2) 0.41782(17) 0.14814(14)
N2 N 0.7369(3) 0.51431(18) 0.10055(14)
C1 C 0.2148(3) 0.6435(2) 0.41357(16)
O1 O 0.4841(2) 0.38469(15) 0.27346(11)
N3 N 0.3265(2) 0.59021(19) 0.33698(14)
O2 O 0.3844(2) 0.59202(19) 0.52722(13)
H1 H 0.3946 0.5951 0.5885
C2 C 0.5500(3) 0.4481(2) 0.21466(16)
C3 C 0.5175(3) 0.5659(2) 0.20333(16)
C4 C 0.6419(3) 0.6009(2) 0.13288(16)
C5 C 0.6788(4) 0.7190(2) 0.0968(2)
H2 H 0.7770 0.7178 0.0543
H3 H 0.7131 0.8082 0.1589
H4 H 0.5702 0.7071 0.0538
C6 C 0.7590(3) 0.3130(2) 0.13344(16)
C7 C 0.9456(3) 0.3458(2) 0.13466(18)
H5 H 1.0181 0.4355 0.1412
C8 C 1.0243(4) 0.2436(3) 0.1260(2)
H6 H 1.1505 0.2650 0.1275
C9 C 0.9161(4) 0.1104(3) 0.1151(2)
H7 H 0.9693 0.0423 0.1100
C10 C 0.7307(4) 0.0785(3) 0.1116(2)
H8 H 0.6578 -0.0120 0.1032
C11 C 0.6508(3) 0.1788(2) 0.12058(18)
H9 H 0.5243 0.1563 0.1180
C12 C 0.4057(3) 0.6356(2) 0.26471(15)
C13 C 0.3768(3) 0.7612(2) 0.25633(16)
C14 C 0.2737(3) 0.7472(2) 0.16572(17)
H10 H 0.2252 0.6591 0.1075
C15 C 0.2435(4) 0.8650(3) 0.1625(2)
H11 H 0.1724 0.8556 0.1024
C16 C 0.3177(4) 0.9959(3) 0.2473(2)
H12 H 0.2962 1.0747 0.2447
C17 C 0.4234(4) 1.0103(2) 0.3357(2)
H13 H 0.4750 1.0993 0.3926
C18 C 0.4539(3) 0.8941(2) 0.34114(18)
H14 H 0.5259 0.9045 0.4014
C19 C 0.2465(3) 0.6398(2) 0.51361(17)
C20 C 0.1404(3) 0.6855(3) 0.59138(19)
H15 H 0.1593 0.6823 0.6582
C21 C 0.0070(3) 0.7356(3) 0.57083(19)
H16 H -0.0625 0.7669 0.6244
C22 C -0.0262(3) 0.7406(2) 0.47180(18)
C23 C 0.0777(3) 0.6918(2) 0.39317(18)
H17 H 0.0550 0.6914 0.3254
C24 C -0.1724(4) 0.7965(3) 0.4506(2)
H18 H -0.1778 0.7905 0.3780
H19 H -0.1434 0.8938 0.5007
H20 H -0.2891 0.7407 0.4595
H21 H 0.364(3) 0.519(3) 0.3437(19)
loop_
_geom_bond_atom_site_label_1
_geom_bond_atom_site_label_2
_geom_bond_site_symmetry_1
_geom_bond_site_symmetry_2
N1 N2 1_555 1_555
N2 C4 1_555 1_555
C1 N3 1_555 1_555
O1 C2 1_555 1_555
N3 C12 1_555 1_555
O2 H1 1_555 1_555
C2 N1 1_555 1_555
C3 C2 1_555 1_555
C4 C3 1_555 1_555
C5 C4 1_555 1_555
H2 C5 1_555 1_555
H3 C5 1_555 1_555
H4 C5 1_555 1_555
C6 N1 1_555 1_555
C7 C6 1_555 1_555
H5 C7 1_555 1_555
C8 C7 1_555 1_555
H6 C8 1_555 1_555
C9 C8 1_555 1_555
H7 C9 1_555 1_555
C10 C9 1_555 1_555
H8 C10 1_555 1_555
C11 C6 1_555 1_555
H9 C11 1_555 1_555
C12 C3 1_555 1_555
C13 C12 1_555 1_555
C14 C13 1_555 1_555
H10 C14 1_555 1_555
C15 C14 1_555 1_555
H11 C15 1_555 1_555
C16 C15 1_555 1_555
H12 C16 1_555 1_555
C17 C16 1_555 1_555
H13 C17 1_555 1_555
C18 C13 1_555 1_555
H14 C18 1_555 1_555
C19 C1 1_555 1_555
C20 C19 1_555 1_555
H15 C20 1_555 1_555
C21 C20 1_555 1_555
H16 C21 1_555 1_555
C22 C21 1_555 1_555
C23 C1 1_555 1_555
H17 C23 1_555 1_555
C24 C22 1_555 1_555
H18 C24 1_555 1_555
H19 C24 1_555 1_555
H20 C24 1_555 1_555
H21 N3 1_555 1_555
O2 C19 1_555 1_555
C10 C11 1_555 1_555
C17 C18 1_555 1_555
C22 C23 1_555 1_555

#END
