
#######################################################################
#
#                 Cambridge Crystallographic Data Centre
#                                CCDC 
#
#######################################################################
#
# If this CIF has been generated from an entry in the Cambridge 
# Structural Database, then it will include bibliographic, chemical, 
# crystal, experimental, refinement or atomic coordinate data resulting 
# from the CCDC's data processing and validation procedures.
#
#######################################################################

data_WOYWUE
_chemical_formula_moiety         'C8 H10 O3'
_chemical_name_systematic        4,4'-Oxybisbut-3-en-2-one
_symmetry_cell_setting           triclinic
_symmetry_space_group_name_H-M   'P -1'
_symmetry_Int_Tables_number      2
_space_group_name_Hall           '-P 1'
loop_
_symmetry_equiv_pos_site_id
_symmetry_equiv_pos_as_xyz
1 x,y,z
2 -x,-y,-z
_cell_length_a                   3.90450(10)
_cell_length_b                   9.1939(3)
_cell_length_c                   22.5383(7)
_cell_angle_alpha                88.422(2)
_cell_angle_beta                 88.1310(10)
_cell_angle_gamma                78.1610(10)
_cell_volume                     791.259
_exptl_crystal_colour            colorless
_exptl_crystal_description       plate
_cell_formula_units_Z            4
loop_
_atom_site_label
_atom_site_type_symbol
_atom_site_fract_x
_atom_site_fract_y
_atom_site_fract_z
O1 O 0.1183(3) 0.56020(12) -0.08760(5)
O2 O 0.7918(3) -0.12671(12) 0.17301(5)
C1 C 0.4240(4) 0.47134(18) -0.17662(7)
H1 H 0.2782 0.5606 -0.1942
H2 H 0.3771 0.3830 -0.1955
H3 H 0.6716 0.4753 -0.1828
C2 C 0.3395(4) 0.46381(16) -0.11101(6)
C3 C 0.5356(4) 0.33491(16) -0.07875(6)
H4 H 0.7186 0.2683 -0.0987
C4 C 0.4613(4) 0.30942(15) -0.02172(6)
H5 H 0.2840 0.3769 -0.0009
O3 O 0.6423(3) 0.18566(11) 0.00633(4)
C5 C 0.5551(4) 0.15990(16) 0.06456(6)
H6 H 0.3848 0.2303 0.0854
C6 C 0.7129(4) 0.03500(16) 0.09107(6)
H7 H 0.8781 -0.0331 0.0683
C7 C 0.6497(4) -0.00531(16) 0.15344(6)
C8 C 0.4180(4) 0.10562(18) 0.19312(7)
H8 H 0.2617 0.0553 0.2171
H9 H 0.2784 0.1844 0.1687
H10 H 0.5636 0.1492 0.2193
O4 O -0.1040(3) 1.04069(12) 0.32447(5)
O5 O 1.0074(3) 0.46990(12) 0.59129(5)
O6 O 0.3995(3) 0.82258(11) 0.49787(4)
C9 C 0.0889(4) 0.93249(16) 0.34626(6)
C10 C 0.1526(4) 0.92707(16) 0.41022(6)
H11 H 0.0381 1.0088 0.4333
C11 C 0.3602(4) 0.81500(16) 0.43773(6)
H12 H 0.4793 0.7312 0.4163
C12 C 0.6057(4) 0.70599(16) 0.52599(6)
H13 H 0.7217 0.6224 0.5041
C13 C 0.6446(4) 0.70937(16) 0.58439(6)
H14 H 0.5268 0.7931 0.6060
C14 C 0.8677(4) 0.58491(16) 0.61561(6)
C15 C 0.9159(5) 0.60619(18) 0.68044(7)
H15 H 1.0843 0.5211 0.6962
H16 H 0.6908 0.6140 0.7019
H17 H 1.0040 0.6974 0.6854
C16 C 0.2616(4) 0.80467(17) 0.30813(7)
H18 H 0.1358 0.8084 0.2710
H19 H 0.2563 0.7107 0.3294
H20 H 0.5050 0.8117 0.2992
loop_
_geom_bond_atom_site_label_1
_geom_bond_atom_site_label_2
_geom_bond_site_symmetry_1
_geom_bond_site_symmetry_2
O1 C2 1_555 1_555
O2 C7 1_555 1_555
C1 H1 1_555 1_555
H2 C1 1_555 1_555
H3 C1 1_555 1_555
C2 C1 1_555 1_555
C3 C2 1_555 1_555
H4 C3 1_555 1_555
C4 C3 1_555 1_555
H5 C4 1_555 1_555
O3 C4 1_555 1_555
C5 O3 1_555 1_555
H6 C5 1_555 1_555
C6 C5 1_555 1_555
H7 C6 1_555 1_555
C7 C6 1_555 1_555
C8 C7 1_555 1_555
H8 C8 1_555 1_555
H9 C8 1_555 1_555
H10 C8 1_555 1_555
O4 C9 1_555 1_555
O5 C14 1_555 1_555
O6 C11 1_555 1_555
C9 C10 1_555 1_555
C10 H11 1_555 1_555
C11 C10 1_555 1_555
H12 C11 1_555 1_555
C12 O6 1_555 1_555
H13 C12 1_555 1_555
C13 C12 1_555 1_555
H14 C13 1_555 1_555
C14 C13 1_555 1_555
C15 C14 1_555 1_555
H15 C15 1_555 1_555
H16 C15 1_555 1_555
H17 C15 1_555 1_555
C16 C9 1_555 1_555
H18 C16 1_555 1_555
H19 C16 1_555 1_555
H20 C16 1_555 1_555

#END
