
#######################################################################
#
#                 Cambridge Crystallographic Data Centre
#                                CCDC 
#
#######################################################################
#
# If this CIF has been generated from an entry in the Cambridge 
# Structural Database, then it will include bibliographic, chemical, 
# crystal, experimental, refinement or atomic coordinate data resulting 
# from the CCDC's data processing and validation procedures.
#
#######################################################################

data_WOYXAL
_chemical_formula_moiety         'C21 H19 N1 O3'
_chemical_name_systematic        
2-(1-Benzyl-2-oxo-1,2-dihydro-3H-indol-3-ylidene)-3-oxohexanal
_symmetry_cell_setting           triclinic
_symmetry_space_group_name_H-M   'P -1'
_symmetry_Int_Tables_number      2
_space_group_name_Hall           '-P 1'
loop_
_symmetry_equiv_pos_site_id
_symmetry_equiv_pos_as_xyz
1 x,y,z
2 -x,-y,-z
_cell_length_a                   8.1086(14)
_cell_length_b                   8.8324(16)
_cell_length_c                   13.260(2)
_cell_angle_alpha                108.838(3)
_cell_angle_beta                 97.636(4)
_cell_angle_gamma                94.663(4)
_cell_volume                     882.979
_exptl_crystal_colour            red
_exptl_crystal_description       prismatic
_cell_formula_units_Z            2
loop_
_atom_site_label
_atom_site_type_symbol
_atom_site_fract_x
_atom_site_fract_y
_atom_site_fract_z
N1 N 0.1381(2) 0.2051(2) -0.02812(14)
O1 O 0.1453(2) 0.4411(2) 0.11116(14)
O2 O 0.2582(3) 0.4397(3) 0.41759(17)
O3 O 0.2555(3) 0.0363(3) 0.31945(18)
C1 C 0.1700(3) 0.3015(3) 0.07776(18)
C2 C 0.2432(2) 0.2012(3) 0.14117(17)
C3 C 0.2592(2) 0.0478(3) 0.06029(17)
C4 C 0.1894(2) 0.0536(3) -0.04057(17)
C5 C 0.1745(3) -0.0755(3) -0.13412(18)
H1 H 0.1271 -0.0699 -0.2004
C6 C 0.2333(3) -0.2156(3) -0.1257(2)
H2 H 0.2243 -0.3058 -0.1875
C7 C 0.3043(3) -0.2228(3) -0.0275(2)
H3 H 0.3435 -0.3175 -0.0243
C8 C 0.3185(3) -0.0931(3) 0.0657(2)
H4 H 0.3672 -0.0993 0.1316
C9 C 0.0569(3) 0.2537(3) -0.11500(18)
H5 H 0.0035 0.3483 -0.0837
H6 H -0.0307 0.1679 -0.1598
C10 C 0.1729(3) 0.2916(2) -0.18593(17)
C11 C 0.1036(3) 0.2910(3) -0.2865(2)
H7 H -0.0117 0.2639 -0.3095
C12 C 0.2021(5) 0.3299(4) -0.3535(2)
H8 H 0.1531 0.3280 -0.4215
C13 C 0.3699(4) 0.3709(4) -0.3214(3)
H9 H 0.4358 0.3985 -0.3668
C14 C 0.4428(3) 0.3717(3) -0.2213(3)
H10 H 0.5583 0.3978 -0.1995
C15 C 0.3441(3) 0.3336(3) -0.1529(2)
H11 H 0.3933 0.3363 -0.0847
C16 C 0.2721(3) 0.2482(3) 0.25015(18)
C17 C 0.2283(4) 0.4005(3) 0.3214(2)
H12 H 0.1757 0.4684 0.2903
C18 C 0.3436(3) 0.1442(3) 0.31023(18)
C19 C 0.5298(4) 0.1878(4) 0.3538(3)
H13 H 0.5871 0.1890 0.2943
H14 H 0.5480 0.2969 0.4051
C20 C 0.6103(5) 0.0848(5) 0.4066(4)
H15 H 0.5972 -0.0239 0.3550
H16 H 0.5524 0.0807 0.4654
C21 C 0.7907(5) 0.1378(5) 0.4501(3)
H17 H 0.8498 0.1400 0.3924
H18 H 0.8344 0.0639 0.4830
H19 H 0.8050 0.2438 0.5032
loop_
_geom_bond_atom_site_label_1
_geom_bond_atom_site_label_2
_geom_bond_site_symmetry_1
_geom_bond_site_symmetry_2
N1 C1 1_555 1_555
O1 C1 1_555 1_555
O2 C17 1_555 1_555
O3 C18 1_555 1_555
C1 C2 1_555 1_555
C2 C3 1_555 1_555
C3 C4 1_555 1_555
C4 N1 1_555 1_555
C5 C4 1_555 1_555
H1 C5 1_555 1_555
C6 C5 1_555 1_555
H2 C6 1_555 1_555
C7 C6 1_555 1_555
H3 C7 1_555 1_555
C8 C3 1_555 1_555
H4 C8 1_555 1_555
C9 N1 1_555 1_555
H5 C9 1_555 1_555
H6 C9 1_555 1_555
C10 C9 1_555 1_555
C11 C10 1_555 1_555
H7 C11 1_555 1_555
C12 C11 1_555 1_555
H8 C12 1_555 1_555
C13 C12 1_555 1_555
H9 C13 1_555 1_555
C14 C13 1_555 1_555
H10 C14 1_555 1_555
C15 C10 1_555 1_555
H11 C15 1_555 1_555
C16 C2 1_555 1_555
C17 C16 1_555 1_555
H12 C17 1_555 1_555
C18 C16 1_555 1_555
C19 C18 1_555 1_555
H13 C19 1_555 1_555
H14 C19 1_555 1_555
C20 C19 1_555 1_555
H15 C20 1_555 1_555
H16 C20 1_555 1_555
C21 C20 1_555 1_555
H17 C21 1_555 1_555
H18 C21 1_555 1_555
H19 C21 1_555 1_555
C7 C8 1_555 1_555
C14 C15 1_555 1_555

#END
