
#######################################################################
#
#                 Cambridge Crystallographic Data Centre
#                                CCDC 
#
#######################################################################
#
# If this CIF has been generated from an entry in the Cambridge 
# Structural Database, then it will include bibliographic, chemical, 
# crystal, experimental, refinement or atomic coordinate data resulting 
# from the CCDC's data processing and validation procedures.
#
#######################################################################

data_WUCYAU
_chemical_formula_moiety         'C14 H12 N2 O1 S1'
_chemical_name_systematic        
N-(2,6-Dimethylphenyl)-N-(2-thienoyl)cyanamide
_symmetry_cell_setting           monoclinic
_symmetry_space_group_name_H-M   'P c'
_symmetry_Int_Tables_number      7
_space_group_name_Hall           'P -2yc'
loop_
_symmetry_equiv_pos_site_id
_symmetry_equiv_pos_as_xyz
1 x,y,z
2 x,-y,1/2+z
_cell_length_a                   8.0852(18)
_cell_length_b                   11.637(2)
_cell_length_c                   14.389(3)
_cell_angle_alpha                90
_cell_angle_beta                 105.825(17)
_cell_angle_gamma                90
_cell_volume                     1302.51
_exptl_crystal_colour            colorless
_exptl_crystal_description       block
_cell_formula_units_Z            4
loop_
_atom_site_label
_atom_site_type_symbol
_atom_site_fract_x
_atom_site_fract_y
_atom_site_fract_z
S1 S 0.0258(8) 0.5039(4) 0.3356(4)
O1 O 0.1499(15) 0.3597(9) 0.4989(8)
N1 N 0.3578(16) 0.2681(9) 0.4590(7)
N2 N 0.392(2) 0.1414(13) 0.5978(12)
C1 C 0.462(2) 0.2356(12) 0.3927(9)
C2 C 0.6353(18) 0.2662(11) 0.4189(8)
C3 C 0.736(2) 0.2249(13) 0.3576(11)
H1 H 0.8519 0.2443 0.3697
C4 C 0.665(2) 0.1628(17) 0.2881(13)
H2 H 0.7345 0.1340 0.2516
C5 C 0.491(4) 0.1310(13) 0.2585(11)
H3 H 0.4477 0.0870 0.2033
C6 C 0.387(2) 0.1663(13) 0.3126(8)
C7 C 0.721(2) 0.3395(13) 0.5011(10)
H4 H 0.6395 0.3616 0.5355
H5 H 0.7650 0.4070 0.4778
H6 H 0.8136 0.2979 0.5435
C8 C 0.193(3) 0.1411(16) 0.2877(11)
H7 H 0.1594 0.0954 0.2300
H8 H 0.1300 0.2122 0.2774
H9 H 0.1673 0.1001 0.3400
C9 C 0.3785(18) 0.2038(15) 0.5383(9)
C10 C 0.2356(16) 0.3579(10) 0.4448(8)
C11 C 0.212(2) 0.4350(11) 0.3655(10)
C12 C 0.3585(17) 0.4657(8) 0.3055(6)
H10 H 0.4696 0.4393 0.3118
C13 C 0.2393(18) 0.5563(8) 0.2337(7)
H11 H 0.2759 0.5944 0.1860
C14 C 0.073(2) 0.5747(15) 0.2477(12)
H12 H -0.0052 0.6249 0.2086
S2 S 0.0276(9) 0.0082(5) 0.5117(4)
O2 O -0.0949(16) -0.1393(11) 0.3402(7)
N3 N -0.3121(17) -0.2294(10) 0.3856(8)
N4 N -0.341(2) -0.3632(15) 0.2429(8)
C15 C -0.4072(18) -0.2659(10) 0.4493(8)
C16 C -0.578(2) -0.2362(10) 0.4292(11)
C17 C -0.678(3) -0.2748(13) 0.4820(11)
H13 H -0.7956 -0.2610 0.4644
C18 C -0.589(4) -0.3436(14) 0.5742(11)
H14 H -0.6495 -0.3659 0.6177
C19 C -0.424(3) -0.3698(14) 0.5893(12)
H15 H -0.3718 -0.4173 0.6411
C20 C -0.324(2) -0.3286(10) 0.5304(10)
C21 C -0.656(2) -0.1627(13) 0.3362(10)
H16 H -0.7762 -0.1499 0.3293
H17 H -0.6424 -0.2030 0.2805
H18 H -0.5977 -0.0901 0.3417
C22 C -0.138(3) -0.3558(13) 0.5579(13)
H19 H -0.0862 -0.3227 0.5116
H20 H -0.1228 -0.4376 0.5593
H21 H -0.0849 -0.3246 0.6207
C23 C -0.325(2) -0.3008(12) 0.3065(11)
C24 C -0.187(2) -0.1484(15) 0.3975(10)
C25 C -0.1632(19) -0.0661(11) 0.4812(9)
C26 C -0.283(2) -0.0351(11) 0.5393(8)
H22 H -0.3932 -0.0621 0.5353
C27 C -0.211(4) 0.024(3) 0.584(2)
H23 H -0.2667 0.0519 0.6281
C28 C -0.032(3) 0.0781(11) 0.5980(11)
H24 H 0.0258 0.1335 0.6415
loop_
_geom_bond_atom_site_label_1
_geom_bond_atom_site_label_2
_geom_bond_site_symmetry_1
_geom_bond_site_symmetry_2
S1 C11 1_555 1_555
S2 C25 1_555 1_555
O1 C10 1_555 1_555
O2 C24 1_555 1_555
N1 C1 1_555 1_555
N2 C9 1_555 1_555
N3 C15 1_555 1_555
N4 C23 1_555 1_555
C1 C2 1_555 1_555
C2 C3 1_555 1_555
C3 H1 1_555 1_555
C4 C3 1_555 1_555
H2 C4 1_555 1_555
C5 C4 1_555 1_555
H3 C5 1_555 1_555
C6 C1 1_555 1_555
C7 C2 1_555 1_555
H4 C7 1_555 1_555
H5 C7 1_555 1_555
H6 C7 1_555 1_555
C8 C6 1_555 1_555
H7 C8 1_555 1_555
H8 C8 1_555 1_555
H9 C8 1_555 1_555
C9 N1 1_555 1_555
C10 N1 1_555 1_555
C11 C10 1_555 1_555
C12 C11 1_555 1_555
H10 C12 1_555 1_555
C13 C12 1_555 1_555
H11 C13 1_555 1_555
C14 S1 1_555 1_555
H12 C14 1_555 1_555
C15 C16 1_555 1_555
C16 C17 1_555 1_555
C17 H13 1_555 1_555
C18 C17 1_555 1_555
H14 C18 1_555 1_555
C19 C18 1_555 1_555
H15 C19 1_555 1_555
C20 C15 1_555 1_555
C21 C16 1_555 1_555
H16 C21 1_555 1_555
H17 C21 1_555 1_555
H18 C21 1_555 1_555
C22 C20 1_555 1_555
H19 C22 1_555 1_555
H20 C22 1_555 1_555
H21 C22 1_555 1_555
C23 N3 1_555 1_555
C24 N3 1_555 1_555
C25 C24 1_555 1_555
C26 C25 1_555 1_555
H22 C26 1_555 1_555
C27 C26 1_555 1_555
H23 C27 1_555 1_555
C28 S2 1_555 1_555
H24 C28 1_555 1_555
C5 C6 1_555 1_555
C13 C14 1_555 1_555
C19 C20 1_555 1_555
C27 C28 1_555 1_555

#END
