
#######################################################################
#
#                 Cambridge Crystallographic Data Centre
#                                CCDC 
#
#######################################################################
#
# If this CIF has been generated from an entry in the Cambridge 
# Structural Database, then it will include bibliographic, chemical, 
# crystal, experimental, refinement or atomic coordinate data resulting 
# from the CCDC's data processing and validation procedures.
#
#######################################################################

data_WUDCII
_chemical_formula_moiety         'C38 H38 Si3'
_chemical_name_systematic        
1,1,3,4-Tetraphenyl-2,5-bis((trimethylsilyl)ethynyl)-1H-silole
_symmetry_cell_setting           triclinic
_symmetry_space_group_name_H-M   'P -1'
_symmetry_Int_Tables_number      2
_space_group_name_Hall           '-P 1'
loop_
_symmetry_equiv_pos_site_id
_symmetry_equiv_pos_as_xyz
1 x,y,z
2 -x,-y,-z
_cell_length_a                   11.0089(3)
_cell_length_b                   11.1857(4)
_cell_length_c                   14.5827(5)
_cell_angle_alpha                79.801(3)
_cell_angle_beta                 77.851(3)
_cell_angle_gamma                79.591(3)
_cell_volume                     1708.49
_exptl_crystal_colour            yellow
_exptl_crystal_description       block
_cell_formula_units_Z            2
loop_
_atom_site_label
_atom_site_type_symbol
_atom_site_fract_x
_atom_site_fract_y
_atom_site_fract_z
Si1 Si 0.26040(4) 0.08127(4) 0.23550(3)
Si2 Si 0.26190(4) -0.24517(4) 0.58676(3)
Si3 Si 0.23497(6) 0.53245(5) -0.04576(4)
C1 C 0.27214(14) 0.08142(13) 0.36187(10)
C2 C 0.27316(14) 0.19887(13) 0.37585(11)
C3 C 0.25945(14) 0.29442(13) 0.29138(11)
C4 C 0.24773(15) 0.25323(14) 0.21129(11)
C5 C 0.27319(15) -0.02288(14) 0.43299(11)
C6 C 0.27030(16) -0.11510(14) 0.49057(12)
C7 C 0.24044(16) 0.33378(15) 0.12495(12)
C8 C 0.23605(18) 0.40551(16) 0.05296(12)
C9 C 0.28469(15) 0.23053(13) 0.46777(11)
C10 C 0.37824(16) 0.16311(15) 0.51558(11)
H1 H 0.4354 0.0995 0.4876
C11 C 0.38897(18) 0.18760(18) 0.60332(13)
H2 H 0.4529 0.1406 0.6350
C12 C 0.3070(2) 0.28000(19) 0.64445(13)
H3 H 0.3146 0.2971 0.7044
C13 C 0.2138(2) 0.34771(17) 0.59836(13)
H4 H 0.1570 0.4110 0.6271
C14 C 0.20236(17) 0.32399(15) 0.51005(12)
H5 H 0.1384 0.3716 0.4787
C15 C 0.26220(15) 0.42590(14) 0.29471(11)
C16 C 0.36911(18) 0.46341(16) 0.30810(13)
H6 H 0.4416 0.4046 0.3156
C17 C 0.3715(2) 0.58657(18) 0.31071(15)
H7 H 0.4463 0.6118 0.3182
C18 C 0.2668(2) 0.67153(17) 0.30257(16)
H8 H 0.2676 0.7551 0.3068
C19 C 0.1605(2) 0.63550(19) 0.28833(18)
H9 H 0.0878 0.6946 0.2825
C20 C 0.15783(19) 0.51278(17) 0.28226(16)
H10 H 0.0850 0.4891 0.2697
C21 C 0.12181(15) 0.01297(14) 0.22644(12)
C22 C 0.03714(15) -0.02481(14) 0.30799(12)
H11 H 0.0499 -0.0140 0.3682
C23 C -0.06522(16) -0.07788(16) 0.30226(13)
H12 H -0.1220 -0.1026 0.3583
C24 C -0.08445(17) -0.09467(18) 0.21574(14)
H13 H -0.1545 -0.1311 0.2120
C25 C -0.0023(2) -0.0588(2) 0.13407(14)
H14 H -0.0158 -0.0707 0.0743
C26 C 0.09998(18) -0.00545(19) 0.13950(13)
H15 H 0.1561 0.0190 0.0830
C27 C 0.41050(15) 0.00617(15) 0.16925(10)
C28 C 0.42112(17) -0.10281(17) 0.13282(13)
H16 H 0.3481 -0.1393 0.1378
C29 C 0.5368(2) -0.15928(19) 0.08923(14)
H17 H 0.5424 -0.2336 0.0646
C30 C 0.64308(18) -0.1070(2) 0.08192(14)
H18 H 0.7223 -0.1460 0.0529
C31 C 0.63501(18) 0.0011(2) 0.11633(15)
H19 H 0.7085 0.0373 0.1105
C32 C 0.51997(17) 0.05760(18) 0.15963(13)
H20 H 0.5154 0.1325 0.1832
C33 C 0.37315(17) -0.38141(15) 0.55121(14)
H21 H 0.3469 -0.4103 0.4998
H22 H 0.3737 -0.4468 0.6056
H23 H 0.4577 -0.3592 0.5294
C34 C 0.3061(3) -0.1958(2) 0.68973(14)
H24 H 0.3906 -0.1729 0.6712
H25 H 0.3049 -0.2636 0.7425
H26 H 0.2459 -0.1250 0.7095
C35 C 0.0991(2) -0.2820(2) 0.6138(2)
H27 H 0.0803 -0.3076 0.5580
H28 H 0.0399 -0.2090 0.6303
H29 H 0.0913 -0.3487 0.6672
C36 C 0.3708(5) 0.6135(5) -0.0524(4)
H30 H 0.3687 0.6369 0.0097
H31 H 0.3659 0.6874 -0.0997
H32 H 0.4493 0.5589 -0.0705
C37 C 0.2401(4) 0.4717(4) -0.1548(3)
H33 H 0.3199 0.4176 -0.1699
H34 H 0.2328 0.5398 -0.2068
H35 H 0.1703 0.4251 -0.1464
C38 C 0.1021(4) 0.6528(3) -0.0158(3)
H36 H 0.1085 0.6811 0.0426
H37 H 0.0231 0.6196 -0.0065
H38 H 0.1037 0.7219 -0.0676
C39? C 0.3976(7) 0.5699(7) -0.0836(6)
C40? C 0.1767(7) 0.4783(6) -0.1460(5)
H39? H 0.4294 0.5804 -0.0281
H40? H 0.3972 0.6461 -0.1287
H41? H 0.4519 0.5028 -0.1140
H42? H 0.0885 0.4664 -0.1249
H43? H 0.2278 0.4006 -0.1611
H44? H 0.1842 0.5405 -0.2025
loop_
_geom_bond_atom_site_label_1
_geom_bond_atom_site_label_2
_geom_bond_site_symmetry_1
_geom_bond_site_symmetry_2
Si1 C1 1_555 1_555
Si2 C6 1_555 1_555
Si3 C8 1_555 1_555
C1 C2 1_555 1_555
C2 C3 1_555 1_555
C3 C4 1_555 1_555
C4 Si1 1_555 1_555
C5 C1 1_555 1_555
C6 C5 1_555 1_555
C7 C4 1_555 1_555
C8 C7 1_555 1_555
C9 C2 1_555 1_555
C10 C9 1_555 1_555
H1 C10 1_555 1_555
C11 C10 1_555 1_555
H2 C11 1_555 1_555
C12 C11 1_555 1_555
H3 C12 1_555 1_555
C13 C12 1_555 1_555
H4 C13 1_555 1_555
C14 C9 1_555 1_555
H5 C14 1_555 1_555
C15 C3 1_555 1_555
C16 C15 1_555 1_555
H6 C16 1_555 1_555
C17 C16 1_555 1_555
H7 C17 1_555 1_555
C18 C17 1_555 1_555
H8 C18 1_555 1_555
C19 C18 1_555 1_555
H9 C19 1_555 1_555
C20 C15 1_555 1_555
H10 C20 1_555 1_555
C21 Si1 1_555 1_555
C22 C21 1_555 1_555
H11 C22 1_555 1_555
C23 C22 1_555 1_555
H12 C23 1_555 1_555
C24 C23 1_555 1_555
H13 C24 1_555 1_555
C25 C24 1_555 1_555
H14 C25 1_555 1_555
C26 C21 1_555 1_555
H15 C26 1_555 1_555
C27 Si1 1_555 1_555
C28 C27 1_555 1_555
H16 C28 1_555 1_555
C29 C28 1_555 1_555
H17 C29 1_555 1_555
C30 C29 1_555 1_555
H18 C30 1_555 1_555
C31 C30 1_555 1_555
H19 C31 1_555 1_555
C32 C27 1_555 1_555
H20 C32 1_555 1_555
C33 Si2 1_555 1_555
H21 C33 1_555 1_555
H22 C33 1_555 1_555
H23 C33 1_555 1_555
C34 Si2 1_555 1_555
H24 C34 1_555 1_555
H25 C34 1_555 1_555
H26 C34 1_555 1_555
C35 Si2 1_555 1_555
H27 C35 1_555 1_555
H28 C35 1_555 1_555
H29 C35 1_555 1_555
C36 Si3 1_555 1_555
H30 C36 1_555 1_555
H31 C36 1_555 1_555
H32 C36 1_555 1_555
C37 Si3 1_555 1_555
H33 C37 1_555 1_555
H34 C37 1_555 1_555
H35 C37 1_555 1_555
C38 Si3 1_555 1_555
H36 C38 1_555 1_555
H37 C38 1_555 1_555
H38 C38 1_555 1_555
C13 C14 1_555 1_555
C19 C20 1_555 1_555
C25 C26 1_555 1_555
C31 C32 1_555 1_555

#END
