
#######################################################################
#
#                 Cambridge Crystallographic Data Centre
#                                CCDC 
#
#######################################################################
#
# If this CIF has been generated from an entry in the Cambridge 
# Structural Database, then it will include bibliographic, chemical, 
# crystal, experimental, refinement or atomic coordinate data resulting 
# from the CCDC's data processing and validation procedures.
#
#######################################################################

data_WUDDIJ
_chemical_formula_moiety         'C40 H58 Si3'
_chemical_name_systematic        
1,1-Dimethyl-3,4-diphenyl-2,5-bis((triisopropylsilyl)ethynyl)-1H-silole
_symmetry_cell_setting           monoclinic
_symmetry_space_group_name_H-M   'P 21/n'
_symmetry_Int_Tables_number      14
_space_group_name_Hall           '-P 2yn'
loop_
_symmetry_equiv_pos_site_id
_symmetry_equiv_pos_as_xyz
1 x,y,z
2 1/2-x,1/2+y,1/2-z
3 -x,-y,-z
4 1/2+x,1/2-y,1/2+z
_cell_length_a                   9.47650(10)
_cell_length_b                   24.91110(10)
_cell_length_c                   17.46870(10)
_cell_angle_alpha                90
_cell_angle_beta                 105.6040(10)
_cell_angle_gamma                90
_cell_volume                     3971.85
_exptl_crystal_colour            yellow
_exptl_crystal_description       bar
_cell_formula_units_Z            4
loop_
_atom_site_label
_atom_site_type_symbol
_atom_site_fract_x
_atom_site_fract_y
_atom_site_fract_z
Si1 Si 0.26339(5) 0.627897(15) 0.51827(2)
Si2 Si 0.32392(6) 0.616156(18) 0.84261(2)
Si3 Si 0.21389(5) 0.640320(18) 0.19277(2)
C1 C 0.26525(16) 0.57163(6) 0.58979(8)
C2 C 0.25800(15) 0.52383(5) 0.55131(8)
C3 C 0.24809(15) 0.52775(5) 0.46423(8)
C4 C 0.24955(16) 0.57871(6) 0.43595(8)
C5 C 0.28449(17) 0.57961(6) 0.67229(8)
C6 C 0.30046(19) 0.59185(6) 0.74101(9)
C7 C 0.23401(16) 0.59364(6) 0.35598(8)
C8 C 0.22161(18) 0.61129(6) 0.29025(9)
C9 C 0.4362(2) 0.66679(7) 0.54323(11)
H1 H 0.4330 0.6936 0.5018
H2 H 0.5190 0.6425 0.5468
H3 H 0.4482 0.6849 0.5944
C10 C 0.26073(15) 0.47108(5) 0.59098(8)
C11 C 0.16830(17) 0.46197(6) 0.63977(9)
H4 H 0.1064 0.4900 0.6486
C12 C 0.16595(19) 0.41261(7) 0.67541(10)
H5 H 0.1015 0.4066 0.7078
C13 C 0.2573(2) 0.37197(7) 0.66394(11)
H6 H 0.2551 0.3380 0.6882
C14 C 0.35167(19) 0.38074(6) 0.61730(10)
H7 H 0.4158 0.3530 0.6104
C15 C 0.35328(16) 0.42986(6) 0.58055(8)
H8 H 0.4178 0.4355 0.5480
C16 C 0.1010(2) 0.67275(7) 0.50054(11)
H9 H 0.0982 0.6962 0.4551
H10 H 0.1075 0.6947 0.5479
H11 H 0.0116 0.6510 0.4893
C17 C 0.23519(15) 0.47962(5) 0.41305(8)
C18 C 0.13280(16) 0.43944(6) 0.41285(8)
H12 H 0.0700 0.4424 0.4469
C19 C 0.12181(18) 0.39529(6) 0.36342(9)
H13 H 0.0504 0.3684 0.3630
C20 C 0.21448(19) 0.39020(7) 0.31470(10)
H14 H 0.2080 0.3595 0.2816
C21 C 0.31635(18) 0.42966(7) 0.31425(9)
H15 H 0.3796 0.4262 0.2806
C22 C 0.32664(16) 0.47432(6) 0.36278(8)
H16 H 0.3964 0.5015 0.3618
C23 C 0.2219(2) 0.57163(8) 0.89569(9)
H17 H 0.2448 0.5846 0.9519
C24 C 0.2737(3) 0.51389(9) 0.89882(15)
H18 H 0.2233 0.4925 0.9306
H19 H 0.3796 0.5125 0.9231
H20 H 0.2516 0.4993 0.8448
C25 C 0.0567(3) 0.57468(13) 0.86233(17)
H21 H 0.0098 0.5506 0.8924
H22 H 0.0299 0.5638 0.8063
H23 H 0.0238 0.6116 0.8667
C26 C 0.5262(2) 0.61269(10) 0.89399(11)
H24 H 0.5586 0.5759 0.8831
C27 C 0.5642(3) 0.61800(14) 0.98491(13)
H25 H 0.6688 0.6108 1.0076
H26 H 0.5064 0.5921 1.0060
H27 H 0.5417 0.6545 0.9990
C28 C 0.6175(3) 0.65192(12) 0.85991(14)
H28 H 0.7216 0.6428 0.8800
H29 H 0.6013 0.6886 0.8761
H30 H 0.5884 0.6495 0.8018
C29 C 0.2107(5) 0.68126(15) 0.8278(2)
H31 H 0.1045 0.6729 0.8047
C30 C 0.2671(8) 0.7190(2) 0.7697(4)
H32 H 0.2032 0.7505 0.7566
H33 H 0.2657 0.6994 0.7209
H34 H 0.3674 0.7306 0.7956
C31 C 0.234(3) 0.7127(6) 0.9114(10)
H35 H 0.1684 0.7436 0.9040
H36 H 0.3362 0.7250 0.9298
H37 H 0.2131 0.6884 0.9509
C32 C 0.2894(2) 0.58971(8) 0.13471(10)
H38 H 0.2883 0.6064 0.0825
C33 C 0.4469(3) 0.57451(13) 0.17574(15)
H39 H 0.4802 0.5470 0.1444
H40 H 0.4526 0.5604 0.2288
H41 H 0.5094 0.6063 0.1805
C34 C 0.1930(4) 0.53949(10) 0.11740(15)
H42 H 0.2347 0.5139 0.0869
H43 H 0.0940 0.5495 0.0866
H44 H 0.1887 0.5229 0.1676
C35 C 0.0163(2) 0.65281(10) 0.14110(12)
H45 H -0.0346 0.6177 0.1412
C36 C -0.0104(3) 0.66846(13) 0.05280(13)
H46 H -0.1152 0.6748 0.0294
H47 H 0.0226 0.6393 0.0242
H48 H 0.0444 0.7012 0.0488
C37 C -0.0585(3) 0.69171(13) 0.18261(16)
H49 H -0.1644 0.6907 0.1580
H50 H -0.0216 0.7280 0.1782
H51 H -0.0385 0.6818 0.2388
C38 C 0.3370(2) 0.70084(7) 0.21432(10)
H52 H 0.4380 0.6865 0.2375
C39 C 0.3443(3) 0.73214(10) 0.14015(13)
H53 H 0.4179 0.7606 0.1552
H54 H 0.2484 0.7481 0.1153
H55 H 0.3714 0.7078 0.1024
C40 C 0.3077(4) 0.73848(9) 0.27694(15)
H56 H 0.3864 0.7651 0.2917
H57 H 0.3039 0.7177 0.3240
H58 H 0.2139 0.7568 0.2554
C41? C 0.2906(8) 0.6915(2) 0.8380(3)
C42? C 0.1863(9) 0.7098(3) 0.7665(5)
C43? C 0.265(3) 0.7128(6) 0.9092(12)
H59? H 0.3860 0.7076 0.8356
H60? H 0.1846 0.7491 0.7656
H61? H 0.0886 0.6962 0.7652
H62? H 0.2147 0.6964 0.7200
H63? H 0.2432 0.7513 0.9022
H64? H 0.3521 0.7075 0.9537
H65? H 0.1813 0.6942 0.9204
loop_
_geom_bond_atom_site_label_1
_geom_bond_atom_site_label_2
_geom_bond_site_symmetry_1
_geom_bond_site_symmetry_2
Si1 C1 1_555 1_555
Si2 C6 1_555 1_555
Si3 C8 1_555 1_555
C1 C2 1_555 1_555
C2 C3 1_555 1_555
C3 C4 1_555 1_555
C4 Si1 1_555 1_555
C5 C1 1_555 1_555
C6 C5 1_555 1_555
C7 C4 1_555 1_555
C8 C7 1_555 1_555
C9 Si1 1_555 1_555
H1 C9 1_555 1_555
H2 C9 1_555 1_555
H3 C9 1_555 1_555
C10 C2 1_555 1_555
C11 C10 1_555 1_555
H4 C11 1_555 1_555
C12 C11 1_555 1_555
H5 C12 1_555 1_555
C13 C12 1_555 1_555
H6 C13 1_555 1_555
C14 C13 1_555 1_555
H7 C14 1_555 1_555
C15 C10 1_555 1_555
H8 C15 1_555 1_555
C16 Si1 1_555 1_555
H9 C16 1_555 1_555
H10 C16 1_555 1_555
H11 C16 1_555 1_555
C17 C3 1_555 1_555
C18 C17 1_555 1_555
H12 C18 1_555 1_555
C19 C18 1_555 1_555
H13 C19 1_555 1_555
C20 C19 1_555 1_555
H14 C20 1_555 1_555
C21 C20 1_555 1_555
H15 C21 1_555 1_555
C22 C17 1_555 1_555
H16 C22 1_555 1_555
C23 Si2 1_555 1_555
H17 C23 1_555 1_555
C24 C23 1_555 1_555
H18 C24 1_555 1_555
H19 C24 1_555 1_555
H20 C24 1_555 1_555
C25 C23 1_555 1_555
H21 C25 1_555 1_555
H22 C25 1_555 1_555
H23 C25 1_555 1_555
C26 Si2 1_555 1_555
H24 C26 1_555 1_555
C27 C26 1_555 1_555
H25 C27 1_555 1_555
H26 C27 1_555 1_555
H27 C27 1_555 1_555
C28 C26 1_555 1_555
H28 C28 1_555 1_555
H29 C28 1_555 1_555
H30 C28 1_555 1_555
C29 Si2 1_555 1_555
H31 C29 1_555 1_555
C30 C29 1_555 1_555
H32 C30 1_555 1_555
H33 C30 1_555 1_555
H34 C30 1_555 1_555
C31 C29 1_555 1_555
H35 C31 1_555 1_555
H36 C31 1_555 1_555
H37 C31 1_555 1_555
C32 Si3 1_555 1_555
H38 C32 1_555 1_555
C33 C32 1_555 1_555
H39 C33 1_555 1_555
H40 C33 1_555 1_555
H41 C33 1_555 1_555
C34 C32 1_555 1_555
H42 C34 1_555 1_555
H43 C34 1_555 1_555
H44 C34 1_555 1_555
C35 Si3 1_555 1_555
H45 C35 1_555 1_555
C36 C35 1_555 1_555
H46 C36 1_555 1_555
H47 C36 1_555 1_555
H48 C36 1_555 1_555
C37 C35 1_555 1_555
H49 C37 1_555 1_555
H50 C37 1_555 1_555
H51 C37 1_555 1_555
C38 Si3 1_555 1_555
H52 C38 1_555 1_555
C39 C38 1_555 1_555
H53 C39 1_555 1_555
H54 C39 1_555 1_555
H55 C39 1_555 1_555
C40 C38 1_555 1_555
H56 C40 1_555 1_555
H57 C40 1_555 1_555
H58 C40 1_555 1_555
C14 C15 1_555 1_555
C21 C22 1_555 1_555

#END
