
#######################################################################
#
#                 Cambridge Crystallographic Data Centre
#                                CCDC 
#
#######################################################################
#
# If this CIF has been generated from an entry in the Cambridge 
# Structural Database, then it will include bibliographic, chemical, 
# crystal, experimental, refinement or atomic coordinate data resulting 
# from the CCDC's data processing and validation procedures.
#
#######################################################################

data_WUDHEK
_chemical_formula_moiety         'C21 H22 Br1 Cl1 N6 O2 S1,0.125(H2 O1)'
_chemical_name_systematic        
'2-(1-((3-bromo-1-(3-chloropyridin-2-yl)-1H-pyrazol-5-yl)carbonyl)piperidin-4-yl)-N-isopropyl-1,3-thiazole-4-carboxamide hydrate'
_symmetry_cell_setting           monoclinic
_symmetry_space_group_name_H-M   'P c'
_symmetry_Int_Tables_number      7
_space_group_name_Hall           'P -2yc'
loop_
_symmetry_equiv_pos_site_id
_symmetry_equiv_pos_as_xyz
1 x,y,z
2 x,-y,1/2+z
_cell_length_a                   15.146(3)
_cell_length_b                   11.573(2)
_cell_length_c                   26.937(5)
_cell_angle_alpha                90
_cell_angle_beta                 103.64(3)
_cell_angle_gamma                90
_cell_volume                     4588.48
_cell_formula_units_Z            8
loop_
_atom_site_label
_atom_site_type_symbol
_atom_site_fract_x
_atom_site_fract_y
_atom_site_fract_z
Br1 Br 0.62859(4) 0.54084(6) 0.72724(3)
Cl1 Cl 0.83189(11) 0.67155(12) 0.91494(7)
S1 S 1.06583(11) -0.07386(13) 0.97169(6)
O1 O 0.7355(3) 0.3021(4) 0.93302(18)
O2 O 1.2305(3) -0.3302(4) 0.9029(2)
N1 N 0.9374(4) 0.3688(4) 0.8898(2)
N2 N 0.7961(4) 0.4447(4) 0.8545(2)
N3 N 0.7662(4) 0.5214(4) 0.8150(2)
N4 N 0.7751(4) 0.1531(4) 0.8871(2)
N5 N 1.0224(4) -0.1668(4) 0.8823(2)
N6 N 1.1132(4) -0.3233(4) 0.8338(2)
H1 H 1.0609 -0.2903 0.8198
C1 C 1.0225(4) 0.3789(6) 0.9193(3)
H2 H 1.0617 0.3138 0.9228
C2 C 1.0547(4) 0.4781(6) 0.9445(3)
H3 H 1.1161 0.4821 0.9635
C3 C 0.9983(4) 0.5732(6) 0.9424(3)
H4 H 1.0194 0.6431 0.9597
C4 C 0.9089(4) 0.5618(5) 0.9137(3)
C5 C 0.8829(4) 0.4604(5) 0.8877(3)
C6 C 0.6937(4) 0.4701(5) 0.7870(2)
C7 C 0.6749(4) 0.3602(5) 0.8056(2)
H5 H 0.6273 0.3080 0.7912
C8 C 0.7435(4) 0.3476(5) 0.8502(2)
C9 C 0.7525(4) 0.2642(5) 0.8934(2)
C10 C 0.8056(5) 0.1123(5) 0.8413(3)
H6 H 0.8080 0.1783 0.8183
H7 H 0.7619 0.0549 0.8224
C11 C 0.8998(5) 0.0575(5) 0.8585(3)
H8 H 0.9179 0.0244 0.8285
H9 H 0.9446 0.1178 0.8735
C12 C 0.9004(4) -0.0367(5) 0.8977(3)
H10 H 0.8548 -0.0960 0.8813
C13 C 0.8690(4) 0.0115(5) 0.9430(3)
H11 H 0.9139 0.0687 0.9610
H12 H 0.8656 -0.0518 0.9671
C14 C 0.7757(4) 0.0695(5) 0.9260(3)
H13 H 0.7290 0.0100 0.9130
H14 H 0.7601 0.1076 0.9558
C15 C 0.9919(5) -0.0964(5) 0.9124(3)
C16 C 1.1417(4) -0.1646(5) 0.9547(3)
H15 H 1.1994 -0.1834 0.9759
C17 C 1.1091(4) -0.2071(5) 0.9067(3)
C18 C 1.1572(4) -0.2932(5) 0.8816(3)
C19 C 1.1503(5) -0.4093(6) 0.8046(3)
H16 H 1.2171 -0.3955 0.8105
C20 C 1.1082(6) -0.3900(7) 0.7484(3)
H17 H 1.0423 -0.3813 0.7431
H18 H 1.1215 -0.4563 0.7287
H19 H 1.1337 -0.3198 0.7369
C21 C 1.1364(6) -0.5302(6) 0.8227(3)
H20 H 1.1667 -0.5376 0.8590
H21 H 1.1621 -0.5864 0.8029
H22 H 1.0712 -0.5450 0.8181
Br2 Br 0.58647(5) -0.02232(6) 0.21675(3)
Cl2 Cl 0.55604(11) -0.16792(13) 0.40736(8)
S2 S 0.37724(11) 0.56228(14) 0.47832(6)
O3 O 0.6657(3) 0.1995(4) 0.42694(18)
O4 O 0.1602(3) 0.8357(4) 0.42690(19)
N7 N 0.4309(3) 0.1357(4) 0.3901(2)
N8 N 0.5362(4) 0.0626(4) 0.3484(2)
N9 N 0.5290(4) -0.0103(4) 0.3077(2)
N10 N 0.5881(3) 0.3509(4) 0.3830(2)
N11 N 0.3433(3) 0.6738(4) 0.3937(2)
N12 N 0.2136(3) 0.8398(4) 0.3556(2)
H23 H 0.2560 0.8146 0.3410
C22 C 0.3754(4) 0.1257(5) 0.4217(2)
H24 H 0.3402 0.1907 0.4268
C23 C 0.3673(4) 0.0244(5) 0.4475(3)
H25 H 0.3246 0.0186 0.4681
C24 C 0.4223(4) -0.0689(5) 0.4427(2)
H26 H 0.4199 -0.1382 0.4612
C25 C 0.4811(4) -0.0588(5) 0.4101(3)
C26 C 0.4811(4) 0.0455(5) 0.3837(2)
C27 C 0.5752(4) 0.0443(5) 0.2786(2)
C28 C 0.6123(5) 0.1506(5) 0.2990(3)
H27 H 0.6480 0.2033 0.2850
C29 C 0.5850(4) 0.1601(5) 0.3436(2)
C30 C 0.6149(4) 0.2397(5) 0.3883(2)
C31 C 0.5175(4) 0.3964(5) 0.3405(2)
H28 H 0.4951 0.3339 0.3156
H29 H 0.5433 0.4582 0.3228
C32 C 0.4385(4) 0.4448(5) 0.3606(2)
H30 H 0.3918 0.4773 0.3320
H31 H 0.4103 0.3822 0.3766
C33 C 0.4739(4) 0.5387(5) 0.3999(2)
H32 H 0.5039 0.5992 0.3830
C34 C 0.5466(4) 0.4867(5) 0.4445(2)
H33 H 0.5709 0.5480 0.4697
H34 H 0.5185 0.4266 0.4619
C35 C 0.6235(4) 0.4341(5) 0.4248(3)
H35 H 0.6574 0.4962 0.4120
H36 H 0.6661 0.3940 0.4530
C36 C 0.3979(4) 0.5969(5) 0.4195(2)
C37 C 0.2910(4) 0.6607(5) 0.4679(3)
H37 H 0.2543 0.6778 0.4911
C38 C 0.2826(4) 0.7111(5) 0.4212(2)
C39 C 0.2136(4) 0.8012(5) 0.4003(3)
C40 C 0.1473(4) 0.9235(5) 0.3271(3)
H38 H 0.1163 0.9612 0.3518
C41 C 0.0751(5) 0.8593(6) 0.2874(3)
H39 H 0.1039 0.8212 0.2628
H40 H 0.0295 0.9144 0.2695
H41 H 0.0458 0.8012 0.3045
C42 C 0.1930(6) 1.0158(6) 0.3036(3)
H42 H 0.2383 1.0549 0.3303
H43 H 0.1477 1.0720 0.2863
H44 H 0.2231 0.9810 0.2787
Br3 Br 0.34400(4) 0.79507(5) 0.76670(2)
Cl3 Cl 0.40766(10) 0.92127(12) 0.58476(7)
S3 S 0.58804(11) 0.19059(14) 0.51882(6)
O5 O 0.2946(3) 0.5509(4) 0.56651(17)
O6 O 0.8056(3) -0.0799(4) 0.5715(2)
N13 N 0.5353(4) 0.6192(4) 0.6097(2)
N14 N 0.4233(3) 0.6936(4) 0.64557(19)
N15 N 0.4229(4) 0.7702(4) 0.6842(2)
N16 N 0.3768(3) 0.4046(4) 0.6117(2)
N17 N 0.6256(4) 0.0860(4) 0.6054(2)
N18 N 0.7608(4) -0.0751(5) 0.6454(3)
C43 C 0.5935(4) 0.6277(6) 0.5794(3)
H45 H 0.6294 0.5623 0.5757
C44 C 0.6035(4) 0.7287(6) 0.5531(3)
H46 H 0.6482 0.7335 0.5337
C45 C 0.5476(4) 0.8213(5) 0.5556(2)
H47 H 0.5523 0.8908 0.5376
C46 C 0.4834(4) 0.8104(5) 0.5855(2)
C47 C 0.4839(4) 0.7092(5) 0.6126(2)
C48 C 0.3699(4) 0.7196(5) 0.7100(2)
C49 C 0.3381(4) 0.6096(5) 0.6914(2)
H48 H 0.3015 0.5572 0.7050
C50 C 0.3729(4) 0.5963(5) 0.6489(2)
C51 C 0.3474(4) 0.5136(5) 0.6055(2)
C52 C 0.4461(4) 0.3630(5) 0.6550(2)
H49 H 0.4200 0.3032 0.6736
H50 H 0.4680 0.4276 0.6789
C53 C 0.5257(4) 0.3118(5) 0.6361(2)
H51 H 0.5549 0.3736 0.6201
H52 H 0.5715 0.2806 0.6655
C54 C 0.4934(4) 0.2157(5) 0.5972(3)
H53 H 0.4649 0.1542 0.6144
C55 C 0.4196(4) 0.2643(5) 0.5529(2)
H54 H 0.4468 0.3234 0.5345
H55 H 0.3958 0.2012 0.5286
C56 C 0.3410(4) 0.3183(5) 0.5717(3)
H56 H 0.2980 0.3559 0.5427
H57 H 0.3078 0.2574 0.5856
C57 C 0.5693(4) 0.1615(5) 0.5787(2)
C58 C 0.6757(4) 0.0961(5) 0.5301(3)
H58 H 0.7125 0.0790 0.5069
C59 C 0.6860(4) 0.0480(5) 0.5774(3)
C60 C 0.7556(4) -0.0411(5) 0.5974(3)
C61 C 0.8279(5) -0.1564(6) 0.6726(3)
H59 H 0.8583 -0.1888 0.6465
C62 C 0.9004(6) -0.0967(7) 0.7108(4)
H60 H 0.9269 -0.0351 0.6939
H61 H 0.9478 -0.1523 0.7260
H62 H 0.8744 -0.0631 0.7376
C63 C 0.7797(7) -0.2580(8) 0.6910(5)
H63 H 0.7416 -0.2296 0.7131
H64 H 0.8250 -0.3120 0.7101
H65 H 0.7417 -0.2978 0.6614
Br4 Br 0.34478(5) -0.27830(7) 0.27104(3)
Cl4 Cl 0.13474(11) -0.42733(13) 0.08735(8)
S4 S -0.10451(10) 0.31896(13) 0.01947(6)
O7 O 0.2314(3) -0.0605(3) 0.06050(16)
O8 O -0.2624(3) 0.5796(4) 0.0932(2)
N19 N 0.0283(4) -0.1223(5) 0.1061(2)
N20 N 0.1718(3) -0.1964(4) 0.1443(2)
N21 N 0.2020(4) -0.2667(5) 0.1853(2)
N22 N 0.1853(4) 0.0856(4) 0.1051(2)
N23 N -0.0597(4) 0.4071(4) 0.1090(2)
N24 N -0.1383(4) 0.5664(4) 0.1590(2)
H66 H -0.0837 0.5360 0.1690
C64 C -0.0538(5) -0.1320(6) 0.0774(3)
H67 H -0.0924 -0.0663 0.0731
C65 C -0.0877(5) -0.2351(6) 0.0525(3)
H68 H -0.1486 -0.2404 0.0329
C66 C -0.0298(5) -0.3282(6) 0.0574(3)
H69 H -0.0502 -0.3993 0.0411
C67 C 0.0589(5) -0.3174(6) 0.0865(3)
C68 C 0.0837(5) -0.2131(5) 0.1118(3)
C69 C 0.2780(5) -0.2131(6) 0.2096(3)
C70 C 0.2959(4) -0.1107(5) 0.1870(2)
H70 H 0.3450 -0.0585 0.1982
C71 C 0.2257(4) -0.1033(5) 0.1447(2)
C72 C 0.2125(4) -0.0222(5) 0.0991(2)
C73 C 0.1849(4) 0.1717(5) 0.0644(3)
H71 H 0.2007 0.1333 0.0348
H72 H 0.2312 0.2318 0.0772
C74 C 0.0916(4) 0.2276(5) 0.0476(2)
H73 H 0.0473 0.1693 0.0301
H74 H 0.0942 0.2902 0.0230
C75 C 0.0591(4) 0.2775(5) 0.0928(3)
H75 H 0.1054 0.3354 0.1100
C76 C 0.0591(4) 0.1793(5) 0.1309(2)
H76 H 0.0391 0.2095 0.1609
H77 H 0.0155 0.1190 0.1146
C77 C 0.1533(5) 0.1264(5) 0.1485(3)
H78 H 0.1960 0.1849 0.1674
H79 H 0.1510 0.0612 0.1719
C78 C -0.0294(4) 0.3379(5) 0.0783(3)
C79 C -0.1796(4) 0.4126(5) 0.0374(3)
H80 H -0.2373 0.4341 0.0169
C80 C -0.1431(4) 0.4508(5) 0.0855(2)
C81 C -0.1879(4) 0.5376(5) 0.1125(3)
C82 C -0.1687(5) 0.6443(5) 0.1939(3)
H81 H -0.2328 0.6239 0.1942
C83 C -0.1664(6) 0.7710(6) 0.1774(3)
H82 H -0.1033 0.7950 0.1807
H83 H -0.1943 0.8197 0.1993
H84 H -0.2003 0.7793 0.1418
C84 C -0.1090(5) 0.6236(6) 0.2472(3)
H85 H -0.1061 0.5406 0.2546
H86 H -0.1350 0.6640 0.2725
H87 H -0.0477 0.6529 0.2489
O9 O 0.9053(9) 0.2943(12) 0.3012(5)
H88? H 0.4264 0.5500 0.6672
loop_
_geom_bond_atom_site_label_1
_geom_bond_atom_site_label_2
_geom_bond_site_symmetry_1
_geom_bond_site_symmetry_2
Br1 C6 1_555 1_555
Cl1 C4 1_555 1_555
S1 C15 1_555 1_555
O1 C9 1_555 1_555
O2 C18 1_555 1_555
N1 C1 1_555 1_555
N2 N3 1_555 1_555
N3 C6 1_555 1_555
N4 C9 1_555 1_555
N5 C15 1_555 1_555
N6 H1 1_555 1_555
C1 H2 1_555 1_555
C2 C1 1_555 1_555
H3 C2 1_555 1_555
C3 C2 1_555 1_555
H4 C3 1_555 1_555
C4 C3 1_555 1_555
C5 N1 1_555 1_555
C6 C7 1_555 1_555
C7 H5 1_555 1_555
C8 N2 1_555 1_555
C9 C8 1_555 1_555
C10 N4 1_555 1_555
H6 C10 1_555 1_555
H7 C10 1_555 1_555
C11 C10 1_555 1_555
H8 C11 1_555 1_555
H9 C11 1_555 1_555
C12 C11 1_555 1_555
H10 C12 1_555 1_555
C13 C12 1_555 1_555
H11 C13 1_555 1_555
H12 C13 1_555 1_555
C14 N4 1_555 1_555
H13 C14 1_555 1_555
H14 C14 1_555 1_555
C15 C12 1_555 1_555
C16 S1 1_555 1_555
H15 C16 1_555 1_555
C17 N5 1_555 1_555
C18 N6 1_555 1_555
C19 N6 1_555 1_555
H16 C19 1_555 1_555
C20 C19 1_555 1_555
H17 C20 1_555 1_555
H18 C20 1_555 1_555
H19 C20 1_555 1_555
C21 C19 1_555 1_555
H20 C21 1_555 1_555
H21 C21 1_555 1_555
H22 C21 1_555 1_555
Br2 C27 1_555 1_555
Cl2 C25 1_555 1_555
S2 C36 1_555 1_555
O3 C30 1_555 1_555
O4 C39 1_555 1_555
N7 C22 1_555 1_555
N8 N9 1_555 1_555
N9 C27 1_555 1_555
N10 C30 1_555 1_555
N11 C36 1_555 1_555
N12 H23 1_555 1_555
C22 H24 1_555 1_555
C23 C22 1_555 1_555
H25 C23 1_555 1_555
C24 C23 1_555 1_555
H26 C24 1_555 1_555
C25 C24 1_555 1_555
C26 N7 1_555 1_555
C27 C28 1_555 1_555
C28 H27 1_555 1_555
C29 N8 1_555 1_555
C30 C29 1_555 1_555
C31 N10 1_555 1_555
H28 C31 1_555 1_555
H29 C31 1_555 1_555
C32 C31 1_555 1_555
H30 C32 1_555 1_555
H31 C32 1_555 1_555
C33 C32 1_555 1_555
H32 C33 1_555 1_555
C34 C33 1_555 1_555
H33 C34 1_555 1_555
H34 C34 1_555 1_555
C35 N10 1_555 1_555
H35 C35 1_555 1_555
H36 C35 1_555 1_555
C36 C33 1_555 1_555
C37 S2 1_555 1_555
H37 C37 1_555 1_555
C38 N11 1_555 1_555
C39 N12 1_555 1_555
C40 N12 1_555 1_555
H38 C40 1_555 1_555
C41 C40 1_555 1_555
H39 C41 1_555 1_555
H40 C41 1_555 1_555
H41 C41 1_555 1_555
C42 C40 1_555 1_555
H42 C42 1_555 1_555
H43 C42 1_555 1_555
H44 C42 1_555 1_555
Br3 C48 1_555 1_555
Cl3 C46 1_555 1_555
S3 C57 1_555 1_555
O5 C51 1_555 1_555
O6 C60 1_555 1_555
N13 C43 1_555 1_555
N14 N15 1_555 1_555
N15 C48 1_555 1_555
N16 C51 1_555 1_555
N17 C57 1_555 1_555
N18 C60 1_555 1_555
C43 H45 1_555 1_555
C44 C43 1_555 1_555
H46 C44 1_555 1_555
C45 C44 1_555 1_555
H47 C45 1_555 1_555
C46 C45 1_555 1_555
C47 N13 1_555 1_555
C48 C49 1_555 1_555
C49 H48 1_555 1_555
C50 N14 1_555 1_555
C51 C50 1_555 1_555
C52 N16 1_555 1_555
H49 C52 1_555 1_555
H50 C52 1_555 1_555
C53 C52 1_555 1_555
H51 C53 1_555 1_555
H52 C53 1_555 1_555
C54 C53 1_555 1_555
H53 C54 1_555 1_555
C55 C54 1_555 1_555
H54 C55 1_555 1_555
H55 C55 1_555 1_555
C56 N16 1_555 1_555
H56 C56 1_555 1_555
H57 C56 1_555 1_555
C57 C54 1_555 1_555
C58 S3 1_555 1_555
H58 C58 1_555 1_555
C59 N17 1_555 1_555
C60 C59 1_555 1_555
C61 N18 1_555 1_555
H59 C61 1_555 1_555
C62 C61 1_555 1_555
H60 C62 1_555 1_555
H61 C62 1_555 1_555
H62 C62 1_555 1_555
C63 C61 1_555 1_555
H63 C63 1_555 1_555
H64 C63 1_555 1_555
H65 C63 1_555 1_555
Br4 C69 1_555 1_555
Cl4 C67 1_555 1_555
S4 C78 1_555 1_555
O7 C72 1_555 1_555
O8 C81 1_555 1_555
N19 C64 1_555 1_555
N20 N21 1_555 1_555
N21 C69 1_555 1_555
N22 C72 1_555 1_555
N23 C78 1_555 1_555
N24 H66 1_555 1_555
C64 H67 1_555 1_555
C65 C64 1_555 1_555
H68 C65 1_555 1_555
C66 C65 1_555 1_555
H69 C66 1_555 1_555
C67 C66 1_555 1_555
C68 N19 1_555 1_555
C69 C70 1_555 1_555
C70 H70 1_555 1_555
C71 N20 1_555 1_555
C72 C71 1_555 1_555
C73 N22 1_555 1_555
H71 C73 1_555 1_555
H72 C73 1_555 1_555
C74 C73 1_555 1_555
H73 C74 1_555 1_555
H74 C74 1_555 1_555
C75 C74 1_555 1_555
H75 C75 1_555 1_555
C76 C75 1_555 1_555
H76 C76 1_555 1_555
H77 C76 1_555 1_555
C77 N22 1_555 1_555
H78 C77 1_555 1_555
H79 C77 1_555 1_555
C78 C75 1_555 1_555
C79 S4 1_555 1_555
H80 C79 1_555 1_555
C80 N23 1_555 1_555
C81 N24 1_555 1_555
C82 N24 1_555 1_555
H81 C82 1_555 1_555
C83 C82 1_555 1_555
H82 C83 1_555 1_555
H83 C83 1_555 1_555
H84 C83 1_555 1_555
C84 C82 1_555 1_555
H85 C84 1_555 1_555
H86 C84 1_555 1_555
H87 C84 1_555 1_555
N2 C5 1_555 1_555
C4 C5 1_555 1_555
C7 C8 1_555 1_555
C13 C14 1_555 1_555
C16 C17 1_555 1_555
C17 C18 1_555 1_555
N8 C26 1_555 1_555
C25 C26 1_555 1_555
C28 C29 1_555 1_555
C34 C35 1_555 1_555
C37 C38 1_555 1_555
C38 C39 1_555 1_555
N14 C47 1_555 1_555
C46 C47 1_555 1_555
C49 C50 1_555 1_555
C55 C56 1_555 1_555
C58 C59 1_555 1_555
N20 C68 1_555 1_555
C67 C68 1_555 1_555
C70 C71 1_555 1_555
C76 C77 1_555 1_555
C79 C80 1_555 1_555
C80 C81 1_555 1_555

#END
