
#######################################################################
#
#                 Cambridge Crystallographic Data Centre
#                                CCDC 
#
#######################################################################
#
# If this CIF has been generated from an entry in the Cambridge 
# Structural Database, then it will include bibliographic, chemical, 
# crystal, experimental, refinement or atomic coordinate data resulting 
# from the CCDC's data processing and validation procedures.
#
#######################################################################

data_WUDHOU
_chemical_formula_moiety         'C10 H10 O6,2(H2 O1)'
_chemical_name_systematic        
"2,2'-(1,3-phenylenebis(oxy))diacetic acid dihydrate"
_symmetry_cell_setting           triclinic
_symmetry_space_group_name_H-M   'P -1'
_symmetry_Int_Tables_number      2
_space_group_name_Hall           '-P 1'
loop_
_symmetry_equiv_pos_site_id
_symmetry_equiv_pos_as_xyz
1 x,y,z
2 -x,-y,-z
_cell_length_a                   6.3751(6)
_cell_length_b                   8.5311(8)
_cell_length_c                   11.4510(11)
_cell_angle_alpha                93.3650(10)
_cell_angle_beta                 105.3190(10)
_cell_angle_gamma                97.2140(10)
_cell_volume                     593.146
_exptl_crystal_colour            colorless
_exptl_crystal_description       block
_cell_formula_units_Z            2
loop_
_atom_site_label
_atom_site_type_symbol
_atom_site_fract_x
_atom_site_fract_y
_atom_site_fract_z
C1 C 0.6047(2) 0.16273(16) 0.63770(12)
C2 C 0.8220(2) 0.23163(17) 0.68381(13)
H1 H 0.8739 0.3243 0.6551
C3 C 0.8871(3) 0.02187(18) 0.81535(14)
H2 H 0.9814 -0.0259 0.8745
C4 C 0.9616(2) 0.16144(17) 0.77313(13)
C5 C 0.5259(2) 0.02423(18) 0.67967(14)
H3 H 0.3795 -0.0215 0.6494
C6 C 0.6698(3) -0.04441(18) 0.76766(14)
H4 H 0.6186 -0.1380 0.7955
O1 O 0.22623(18) 0.39227(13) 0.37754(10)
O2 O 0.47930(16) 0.24047(12) 0.54891(9)
O3 O 1.57629(18) 0.40307(14) 0.89525(10)
O4 O 1.17383(17) 0.23985(13) 0.81298(10)
O5 O 1.67003(19) 0.23896(15) 1.03886(11)
H5 H 1.7880 0.2980 1.0565
O6 O -0.07657(18) 0.26153(15) 0.40982(12)
H6 H -0.1371 0.3299 0.3723
C7 C 0.2505(2) 0.18725(18) 0.51475(14)
H7 H 0.1959 0.1888 0.5862
H8 H 0.2208 0.0791 0.4769
C8 C 1.3150(2) 0.18474(19) 0.91438(14)
H9 H 1.3332 0.0760 0.8949
H10 H 1.2523 0.1877 0.9828
C9 C 0.1369(2) 0.29410(17) 0.42710(13)
C10 C 1.5330(2) 0.28894(19) 0.94655(13)
O7 O 0.6640(2) 0.45969(17) 0.32247(13)
H11 H 0.630(3) 0.507(3) 0.2601(14)
H12 H 0.559(3) 0.446(3) 0.3529(19)
O8 O 0.0612(2) 0.39065(19) 0.12205(13)
H13 H 0.097(4) 0.393(3) 0.1978(9)
H14 H 0.143(3) 0.459(2) 0.0994(17)
loop_
_geom_bond_atom_site_label_1
_geom_bond_atom_site_label_2
_geom_bond_site_symmetry_1
_geom_bond_site_symmetry_2
C1 C2 1_555 1_555
C2 H1 1_555 1_555
C3 H2 1_555 1_555
C4 C2 1_555 1_555
C5 C1 1_555 1_555
H3 C5 1_555 1_555
C6 C3 1_555 1_555
H4 C6 1_555 1_555
O1 C9 1_555 1_555
O2 C1 1_555 1_555
O3 C10 1_555 1_555
O4 C4 1_555 1_555
O5 H5 1_555 1_555
O6 H6 1_555 1_555
C7 O2 1_555 1_555
H7 C7 1_555 1_555
H8 C7 1_555 1_555
C8 O4 1_555 1_555
H9 C8 1_555 1_555
H10 C8 1_555 1_555
C9 O6 1_555 1_555
C10 O5 1_555 1_555
O7 H11 1_555 1_555
H12 O7 1_555 1_555
O8 H13 1_555 1_555
H14 O8 1_555 1_555
C3 C4 1_555 1_555
C5 C6 1_555 1_555
C7 C9 1_555 1_555
C8 C10 1_555 1_555

#END
