
#######################################################################
#
#                 Cambridge Crystallographic Data Centre
#                                CCDC 
#
#######################################################################
#
# If this CIF has been generated from an entry in the Cambridge 
# Structural Database, then it will include bibliographic, chemical, 
# crystal, experimental, refinement or atomic coordinate data resulting 
# from the CCDC's data processing and validation procedures.
#
#######################################################################

data_WUDJOW
_chemical_formula_moiety         'C22 H19 B1 F1 N3 O2'
_chemical_name_systematic        
6-fluoro-14-(2-(4-methoxyphenyl)vinyl)-2-methyl-6H-13\l^5^,6\l^5^-pyrido[1',2':4,5][1,2,4,3]triazaborolo[3,2-b][1,3,2]benzoxazaborinine
_symmetry_cell_setting           orthorhombic
_symmetry_space_group_name_H-M   'P 21 21 21'
_symmetry_Int_Tables_number      19
_space_group_name_Hall           'P 2ac 2ab'
loop_
_symmetry_equiv_pos_site_id
_symmetry_equiv_pos_as_xyz
1 x,y,z
2 1/2-x,-y,1/2+z
3 -x,1/2+y,1/2-z
4 1/2+x,1/2-y,-z
_cell_length_a                   7.5708(8)
_cell_length_b                   13.0397(14)
_cell_length_c                   19.745(2)
_cell_angle_alpha                90
_cell_angle_beta                 90
_cell_angle_gamma                90
_cell_volume                     1949.25
_cell_formula_units_Z            4
_exptl_crystal_recrystallization_method dichloromethane
loop_
_atom_site_label
_atom_site_type_symbol
_atom_site_fract_x
_atom_site_fract_y
_atom_site_fract_z
B1 B -0.2075(5) -0.7953(3) -0.15879(17)
C1 C -0.1259(4) -0.8320(3) -0.28542(17)
H1 H -0.1321 -0.9028 -0.2802
C2 C -0.0943(5) -0.7920(4) -0.34690(19)
H2 H -0.0768 -0.8347 -0.3840
C3 C -0.0881(5) -0.6860(4) -0.35436(18)
H3 H -0.0652 -0.6585 -0.3969
C4 C -0.1142(5) -0.6220(3) -0.30159(18)
H4 H -0.1109 -0.5513 -0.3076
C5 C -0.1468(4) -0.6649(3) -0.23700(15)
C6 C -0.1738(4) -0.6677(2) -0.06494(14)
C7 C -0.1671(4) -0.7599(2) -0.02325(13)
C8 C -0.1180(4) -0.8531(2) -0.05289(14)
C9 C -0.0877(4) -0.9380(2) -0.01217(17)
H5 H -0.0473 -0.9988 -0.0314
C10 C -0.1173(4) -0.9328(2) 0.05656(16)
H6 H -0.0979 -0.9907 0.0831
C11 C -0.1750(4) -0.8435(2) 0.08701(14)
C12 C -0.1981(4) -0.7587(2) 0.04709(14)
H7 H -0.2357 -0.6980 0.0672
C13 C -0.2090(5) -0.8407(3) 0.16317(13)
H8 H -0.2470 -0.7732 0.1760
H9 H -0.1022 -0.8575 0.1869
H10 H -0.2992 -0.8895 0.1745
C14 C -0.1496(4) -0.5636(2) -0.04124(14)
H11 H -0.1982 -0.5107 -0.0668
C15 C -0.0618(4) -0.5387(2) 0.01495(16)
H12 H -0.0143 -0.5929 0.0396
C16 C -0.0318(4) -0.4354(2) 0.04237(14)
C17 C -0.0980(4) -0.3464(2) 0.01200(14)
H13 H -0.1641 -0.3513 -0.0276
C18 C -0.0662(4) -0.2522(2) 0.04012(14)
H14 H -0.1099 -0.1937 0.0191
C19 C 0.0292(4) -0.2429(2) 0.09878(16)
C20 C 0.0937(4) -0.3285(2) 0.13045(15)
H15 H 0.1567 -0.3230 0.1707
C21 C 0.0630(4) -0.4237(2) 0.10132(15)
H16 H 0.1083 -0.4818 0.1224
C22 C 0.1152(5) -0.1315(2) 0.19003(16)
H17 H 0.2331 -0.1580 0.1935
H18 H 0.0395 -0.1676 0.2209
H19 H 0.1152 -0.0598 0.2011
F1 F -0.3820(2) -0.83104(12) -0.15911(7)
N1 N -0.1487(3) -0.7702(2) -0.23073(11)
N2 N -0.1933(3) -0.68573(17) -0.13023(12)
N3 N -0.1720(3) -0.61083(18) -0.18017(13)
O1 O -0.0951(3) -0.86281(13) -0.12132(10)
O2 O 0.0524(3) -0.14509(14) 0.12285(11)
loop_
_geom_bond_atom_site_label_1
_geom_bond_atom_site_label_2
_geom_bond_site_symmetry_1
_geom_bond_site_symmetry_2
B1 F1 1_555 1_555
C1 H1 1_555 1_555
C2 C1 1_555 1_555
H2 C2 1_555 1_555
C3 C2 1_555 1_555
H3 C3 1_555 1_555
C4 C3 1_555 1_555
H4 C4 1_555 1_555
C5 C4 1_555 1_555
C6 C7 1_555 1_555
C7 C8 1_555 1_555
C8 C9 1_555 1_555
C9 H5 1_555 1_555
C10 C9 1_555 1_555
H6 C10 1_555 1_555
C11 C10 1_555 1_555
C12 C7 1_555 1_555
H7 C12 1_555 1_555
C13 C11 1_555 1_555
H8 C13 1_555 1_555
H9 C13 1_555 1_555
H10 C13 1_555 1_555
C14 C6 1_555 1_555
H11 C14 1_555 1_555
C15 C14 1_555 1_555
H12 C15 1_555 1_555
C16 C15 1_555 1_555
C17 C16 1_555 1_555
H13 C17 1_555 1_555
C18 C17 1_555 1_555
H14 C18 1_555 1_555
C19 C18 1_555 1_555
C20 C19 1_555 1_555
H15 C20 1_555 1_555
C21 C16 1_555 1_555
H16 C21 1_555 1_555
C22 H17 1_555 1_555
H18 C22 1_555 1_555
H19 C22 1_555 1_555
N1 B1 1_555 1_555
N2 B1 1_555 1_555
N3 C5 1_555 1_555
O1 B1 1_555 1_555
O2 C19 1_555 1_555
C1 N1 1_555 1_555
C5 N1 1_555 1_555
C6 N2 1_555 1_555
C8 O1 1_555 1_555
C11 C12 1_555 1_555
C20 C21 1_555 1_555
C22 O2 1_555 1_555
N2 N3 1_555 1_555

#END
