
#######################################################################
#
#                 Cambridge Crystallographic Data Centre
#                                CCDC 
#
#######################################################################
#
# If this CIF has been generated from an entry in the Cambridge 
# Structural Database, then it will include bibliographic, chemical, 
# crystal, experimental, refinement or atomic coordinate data resulting 
# from the CCDC's data processing and validation procedures.
#
#######################################################################

data_WUDMOZ
_chemical_formula_moiety         'C15 H21 N1 O3 S1'
_chemical_name_systematic        
1-((4-methylphenyl)sulfonyl)-1-azaspiro[4.4]nonan-6-ol
_symmetry_cell_setting           orthorhombic
_symmetry_space_group_name_H-M   'P 21 21 21'
_symmetry_Int_Tables_number      19
_space_group_name_Hall           'P 2ac 2ab'
loop_
_symmetry_equiv_pos_site_id
_symmetry_equiv_pos_as_xyz
1 x,y,z
2 1/2-x,-y,1/2+z
3 1/2+x,1/2-y,-z
4 -x,1/2+y,1/2-z
_cell_length_a                   7.89498(15)
_cell_length_b                   11.4535(2)
_cell_length_c                   16.5401(3)
_cell_angle_alpha                90
_cell_angle_beta                 90
_cell_angle_gamma                90
_cell_volume                     1495.64
_exptl_crystal_colour            'light colorless'
_exptl_crystal_description       block
_cell_formula_units_Z            4
loop_
_atom_site_label
_atom_site_type_symbol
_atom_site_fract_x
_atom_site_fract_y
_atom_site_fract_z
S1 S 0.06299(8) 0.74655(6) 0.80888(4)
O1 O 0.2789(4) 0.6063(3) 0.96537(16)
H1 H 0.2037 0.6134 0.9315
O2 O -0.0654(3) 0.8313(2) 0.82530(17)
O3 O 0.0395(3) 0.6290(2) 0.83661(16)
N1 N 0.2333(3) 0.79629(19) 0.85073(14)
C1 C 0.2545(4) 0.9254(2) 0.85254(19)
H2 H 0.1738 0.9614 0.8890
H3 H 0.2410 0.9588 0.7990
C2 C 0.4337(5) 0.9401(3) 0.8828(2)
H4 H 0.4833 1.0119 0.8626
H5 H 0.4371 0.9408 0.9414
C3 C 0.5238(4) 0.8358(3) 0.8497(2)
H6 H 0.6275 0.8211 0.8795
H7 H 0.5517 0.8472 0.7931
C4 C 0.3994(3) 0.7344(3) 0.85990(15)
C5 C 0.4360(4) 0.6314(3) 0.80319(17)
H8 H 0.3390 0.5798 0.7993
H9 H 0.4661 0.6585 0.7495
C6 C 0.5851(4) 0.5706(4) 0.8438(2)
H10 H 0.6913 0.5979 0.8212
H11 H 0.5778 0.4868 0.8363
C7 C 0.5743(5) 0.6012(4) 0.9335(2)
H12 H 0.5632 0.5309 0.9658
H13 H 0.6753 0.6426 0.9506
C8 C 0.4194(4) 0.6779(3) 0.94358(17)
H14 H 0.4395 0.7376 0.9849
C9 C 0.0895(3) 0.7410(2) 0.70295(17)
C10 C 0.0725(4) 0.8432(3) 0.6585(2)
H15 H 0.0478 0.9132 0.6844
C11 C 0.0926(5) 0.8402(3) 0.5758(2)
H16 H 0.0830 0.9090 0.5463
C12 C 0.1269(4) 0.7361(3) 0.5354(2)
C13 C 0.1431(4) 0.6351(3) 0.5809(2)
H17 H 0.1680 0.5652 0.5550
C14 C 0.1232(4) 0.6359(3) 0.6643(2)
H18 H 0.1322 0.5671 0.6938
C15 C 0.1421(6) 0.7326(5) 0.4440(2)
H19 H 0.0337 0.7488 0.4202
H20 H 0.1796 0.6565 0.4274
H21 H 0.2226 0.7901 0.4266
loop_
_geom_bond_atom_site_label_1
_geom_bond_atom_site_label_2
_geom_bond_site_symmetry_1
_geom_bond_site_symmetry_2
S1 O2 1_555 1_555
O1 H1 1_555 1_555
O3 S1 1_555 1_555
N1 S1 1_555 1_555
C1 N1 1_555 1_555
H2 C1 1_555 1_555
H3 C1 1_555 1_555
C2 C1 1_555 1_555
H4 C2 1_555 1_555
H5 C2 1_555 1_555
C3 C2 1_555 1_555
H6 C3 1_555 1_555
H7 C3 1_555 1_555
C4 N1 1_555 1_555
C5 C4 1_555 1_555
H8 C5 1_555 1_555
H9 C5 1_555 1_555
C6 C5 1_555 1_555
H10 C6 1_555 1_555
H11 C6 1_555 1_555
C7 C6 1_555 1_555
H12 C7 1_555 1_555
H13 C7 1_555 1_555
C8 O1 1_555 1_555
H14 C8 1_555 1_555
C9 S1 1_555 1_555
C10 C9 1_555 1_555
H15 C10 1_555 1_555
C11 C10 1_555 1_555
H16 C11 1_555 1_555
C12 C11 1_555 1_555
C13 C12 1_555 1_555
H17 C13 1_555 1_555
C14 C9 1_555 1_555
H18 C14 1_555 1_555
C15 C12 1_555 1_555
H19 C15 1_555 1_555
H20 C15 1_555 1_555
H21 C15 1_555 1_555
C3 C4 1_555 1_555
C4 C8 1_555 1_555
C7 C8 1_555 1_555
C13 C14 1_555 1_555

#END
