
#######################################################################
#
#                 Cambridge Crystallographic Data Centre
#                                CCDC 
#
#######################################################################
#
# If this CIF has been generated from an entry in the Cambridge 
# Structural Database, then it will include bibliographic, chemical, 
# crystal, experimental, refinement or atomic coordinate data resulting 
# from the CCDC's data processing and validation procedures.
#
#######################################################################

data_WUDYOK
_chemical_formula_moiety         'C24 H15 Br1 N2 O2 S1'
_chemical_name_systematic        
N-(3-(4-Bromophenyl)-4-phenyl-1,3-thiazol-2(3H)-ylidene)-1-benzofuran-2-carboxamide
_symmetry_cell_setting           triclinic
_symmetry_space_group_name_H-M   'P -1'
_symmetry_Int_Tables_number      2
_space_group_name_Hall           '-P 1'
loop_
_symmetry_equiv_pos_site_id
_symmetry_equiv_pos_as_xyz
1 x,y,z
2 -x,-y,-z
_cell_length_a                   9.5230(8)
_cell_length_b                   10.8794(9)
_cell_length_c                   20.1963(16)
_cell_angle_alpha                88.6950(10)
_cell_angle_beta                 83.5050(10)
_cell_angle_gamma                83.1400(10)
_cell_volume                     2064.02
_exptl_crystal_colour            colorless
_exptl_crystal_description       block
_cell_formula_units_Z            4
loop_
_atom_site_label
_atom_site_type_symbol
_atom_site_fract_x
_atom_site_fract_y
_atom_site_fract_z
Br1 Br 1.19131(4) 0.10902(4) 0.44913(2)
C1 C 1.0128(3) 0.1916(3) 0.43063(14)
C2 C 0.9087(3) 0.1219(3) 0.41700(15)
H1 H 0.9254 0.0359 0.4171
C3 C 0.7786(3) 0.1818(3) 0.40306(15)
H2 H 0.7063 0.1364 0.3941
C4 C 0.7574(3) 0.3091(3) 0.40260(14)
C5 C 0.8617(3) 0.3772(3) 0.41666(14)
H3 H 0.8454 0.4633 0.4166
C6 C 0.9917(3) 0.3177(3) 0.43095(14)
H4 H 1.0635 0.3630 0.4406
C7 C 0.5995(3) 0.4552(3) 0.33576(16)
C8 C 0.7056(3) 0.4705(3) 0.27817(16)
C9 C 0.8001(4) 0.3737(3) 0.25025(17)
H5 H 0.8041 0.2961 0.2706
C10 C 0.8886(4) 0.3912(4) 0.19245(18)
H6 H 0.9516 0.3254 0.1744
C11 C 0.8839(5) 0.5047(5) 0.1616(2)
H7 H 0.9433 0.5163 0.1227
C12 C 0.7909(5) 0.6009(4) 0.1885(2)
H8 H 0.7867 0.6779 0.1674
C13 C 0.7037(4) 0.5853(3) 0.24636(19)
H9 H 0.6428 0.6523 0.2645
C14 C 0.4667(4) 0.5137(3) 0.34284(19)
H10 H 0.4329 0.5718 0.3122
C15 C 0.5043(3) 0.3663(3) 0.43442(16)
C16 C 0.3841(3) 0.2971(3) 0.52828(16)
C17 C 0.3889(3) 0.2019(3) 0.58069(15)
C18 C 0.4863(3) 0.1084(3) 0.59368(17)
H11 H 0.5746 0.0879 0.5693
C19 C 0.4305(3) 0.0458(3) 0.65157(17)
C20 C 0.2967(4) 0.1088(3) 0.66952(16)
C21 C 0.2041(5) 0.0765(4) 0.7224(2)
H12 H 0.1145 0.1202 0.7326
C22 C 0.2520(5) -0.0242(4) 0.7593(2)
H13 H 0.1932 -0.0498 0.7956
C23 C 0.3851(5) -0.0882(4) 0.7438(2)
H14 H 0.4142 -0.1556 0.7701
C24 C 0.4760(4) -0.0550(4) 0.6902(2)
H15 H 0.5656 -0.0990 0.6803
N1 N 0.6208(2) 0.3715(2) 0.38877(12)
N2 N 0.5060(2) 0.2902(2) 0.48516(13)
O1 O 0.2769(2) 0.3715(2) 0.52456(12)
O2 O 0.2698(2) 0.2053(2) 0.62622(12)
S1 S 0.36432(9) 0.47249(8) 0.41327(5)
Br2 Br 1.02488(5) 0.91438(5) 0.08790(3)
C25 C 0.8749(4) 0.8528(3) 0.04950(17)
C26 C 0.9042(4) 0.7480(3) 0.01202(17)
H16 H 0.9961 0.7068 0.0060
C27 C 0.7953(3) 0.7039(3) -0.01690(16)
H17 H 0.8134 0.6329 -0.0427
C28 C 0.6601(3) 0.7658(3) -0.00713(14)
C29 C 0.6309(4) 0.8689(3) 0.03197(16)
H18 H 0.5386 0.9087 0.0392
C30 C 0.7400(4) 0.9134(3) 0.06055(18)
H19 H 0.7218 0.9836 0.0870
C31 C 0.5573(3) 0.6983(3) -0.10775(15)
C32 C 0.6616(3) 0.7496(3) -0.15672(15)
C33 C 0.7025(4) 0.8664(3) -0.15142(16)
H20 H 0.6682 0.9137 -0.1140
C34 C 0.7937(4) 0.9135(4) -0.20100(18)
H21 H 0.8210 0.9919 -0.1966
C35 C 0.8440(4) 0.8453(4) -0.25648(18)
H22 H 0.9052 0.8772 -0.2899
C36 C 0.8037(4) 0.7302(4) -0.26259(18)
H23 H 0.8371 0.6841 -0.3006
C37 C 0.7145(4) 0.6816(3) -0.21325(16)
H24 H 0.6894 0.6025 -0.2178
C38 C 0.4522(4) 0.6350(3) -0.12169(16)
H25 H 0.4409 0.6125 -0.1648
C39 C 0.4359(3) 0.6758(3) -0.00189(16)
C40 C 0.2973(3) 0.6413(3) 0.09324(16)
C41 C 0.2668(3) 0.6729(3) 0.16420(15)
C42 C 0.3173(3) 0.7521(3) 0.20227(15)
H26 H 0.3904 0.8002 0.1894
C43 C 0.2374(3) 0.7490(3) 0.26688(15)
C44 C 0.1438(3) 0.6624(3) 0.26230(15)
C45 C 0.0514(4) 0.6277(3) 0.31463(17)
H27 H -0.0094 0.5685 0.3099
C46 C 0.0534(4) 0.6850(3) 0.37418(17)
H28 H -0.0069 0.6638 0.4110
C47 C 0.1434(4) 0.7737(3) 0.38054(17)
H29 H 0.1422 0.8112 0.4216
C48 C 0.2344(4) 0.8075(3) 0.32764(17)
H30 H 0.2932 0.8684 0.3323
N3 N 0.5484(2) 0.7198(2) -0.03889(12)
N4 N 0.4107(3) 0.6927(2) 0.06232(12)
O3 O 0.2217(3) 0.5767(2) 0.06724(12)
O4 O 0.1596(2) 0.6162(2) 0.19888(10)
S2 S 0.34030(9) 0.59901(9) -0.05325(4)
loop_
_geom_bond_atom_site_label_1
_geom_bond_atom_site_label_2
_geom_bond_site_symmetry_1
_geom_bond_site_symmetry_2
Br1 C1 1_555 1_555
Br2 C25 1_555 1_555
C1 C2 1_555 1_555
C2 H1 1_555 1_555
C3 C2 1_555 1_555
H2 C3 1_555 1_555
C4 C3 1_555 1_555
C5 C4 1_555 1_555
H3 C5 1_555 1_555
C6 C1 1_555 1_555
H4 C6 1_555 1_555
C7 C8 1_555 1_555
C8 C9 1_555 1_555
C9 H5 1_555 1_555
C10 C9 1_555 1_555
H6 C10 1_555 1_555
C11 C10 1_555 1_555
H7 C11 1_555 1_555
C12 C11 1_555 1_555
H8 C12 1_555 1_555
C13 C8 1_555 1_555
H9 C13 1_555 1_555
C14 C7 1_555 1_555
H10 C14 1_555 1_555
C15 N1 1_555 1_555
C16 C17 1_555 1_555
C17 C18 1_555 1_555
C18 H11 1_555 1_555
C19 C18 1_555 1_555
C20 C19 1_555 1_555
C21 C20 1_555 1_555
H12 C21 1_555 1_555
C22 C21 1_555 1_555
H13 C22 1_555 1_555
C23 C22 1_555 1_555
H14 C23 1_555 1_555
C24 C19 1_555 1_555
H15 C24 1_555 1_555
C25 C26 1_555 1_555
C26 H16 1_555 1_555
C27 C26 1_555 1_555
H17 C27 1_555 1_555
C28 C27 1_555 1_555
C29 C28 1_555 1_555
H18 C29 1_555 1_555
C30 C25 1_555 1_555
H19 C30 1_555 1_555
C31 C32 1_555 1_555
C32 C33 1_555 1_555
C33 H20 1_555 1_555
C34 C33 1_555 1_555
H21 C34 1_555 1_555
C35 C34 1_555 1_555
H22 C35 1_555 1_555
C36 C35 1_555 1_555
H23 C36 1_555 1_555
C37 C32 1_555 1_555
H24 C37 1_555 1_555
C38 C31 1_555 1_555
H25 C38 1_555 1_555
C39 N3 1_555 1_555
C40 C41 1_555 1_555
C41 C42 1_555 1_555
C42 H26 1_555 1_555
C43 C42 1_555 1_555
C44 C43 1_555 1_555
C45 C44 1_555 1_555
H27 C45 1_555 1_555
C46 C45 1_555 1_555
H28 C46 1_555 1_555
C47 C46 1_555 1_555
H29 C47 1_555 1_555
C48 C43 1_555 1_555
H30 C48 1_555 1_555
N1 C4 1_555 1_555
N2 C15 1_555 1_555
N3 C28 1_555 1_555
N4 C39 1_555 1_555
O1 C16 1_555 1_555
O2 C17 1_555 1_555
O3 C40 1_555 1_555
O4 C41 1_555 1_555
S1 C14 1_555 1_555
S2 C38 1_555 1_555
C5 C6 1_555 1_555
C7 N1 1_555 1_555
C12 C13 1_555 1_555
C15 S1 1_555 1_555
C16 N2 1_555 1_555
C20 O2 1_555 1_555
C23 C24 1_555 1_555
C29 C30 1_555 1_555
C31 N3 1_555 1_555
C36 C37 1_555 1_555
C39 S2 1_555 1_555
C40 N4 1_555 1_555
C44 O4 1_555 1_555
C47 C48 1_555 1_555

#END
