
#######################################################################
#
#                 Cambridge Crystallographic Data Centre
#                                CCDC 
#
#######################################################################
#
# If this CIF has been generated from an entry in the Cambridge 
# Structural Database, then it will include bibliographic, chemical, 
# crystal, experimental, refinement or atomic coordinate data resulting 
# from the CCDC's data processing and validation procedures.
#
#######################################################################

data_WUGFEL
_chemical_name_common            'methyl 5-iodo-salicylate'
_chemical_formula_moiety         'C8 H7 I1 O3'
_chemical_name_systematic        'methyl 2-hydroxy-5-iodobenzoate'
_symmetry_cell_setting           orthorhombic
_symmetry_space_group_name_H-M   'P c a 21'
_symmetry_Int_Tables_number      29
_space_group_name_Hall           'P 2c -2ac'
loop_
_symmetry_equiv_pos_site_id
_symmetry_equiv_pos_as_xyz
1 x,y,z
2 -x,-y,1/2+z
3 1/2-x,y,1/2+z
4 1/2+x,-y,z
_cell_length_a                   15.497(2)
_cell_length_b                   7.2520(10)
_cell_length_c                   7.7972(10)
_cell_angle_alpha                90
_cell_angle_beta                 90
_cell_angle_gamma                90
_cell_volume                     876.282
_exptl_crystal_colour            colorless
_exptl_crystal_description       ellipsoid
_cell_formula_units_Z            4
_exptl_crystal_recrystallization_method 
'Re-crystallisation from solvent: acetone/water'
loop_
_atom_site_label
_atom_site_type_symbol
_atom_site_fract_x
_atom_site_fract_y
_atom_site_fract_z
I1 I 0.574670(7) 0.673708(16) 0.50817(4)
O1 O 0.83998(11) 0.1006(3) 0.7869(3)
H1 H 0.811(2) 0.011(5) 0.843(7)
O2 O 0.57582(10) 0.0267(3) 0.8733(3)
O3 O 0.70952(12) -0.0901(3) 0.8996(3)
C1 C 0.69115(16) 0.1961(3) 0.7556(3)
C2 C 0.63281(15) 0.3286(3) 0.6937(3)
H2 H 0.5725 0.3117 0.7087
C3 C 0.66358(14) 0.4840(3) 0.6107(3)
C4 C 0.75217(16) 0.5141(3) 0.5910(3)
H3 H 0.7725 0.6226 0.5360
C5 C 0.80977(15) 0.3844(3) 0.6522(3)
H4 H 0.8700 0.4043 0.6394
C6 C 0.78012(16) 0.2230(4) 0.7333(3)
C7 C 0.66096(15) 0.0314(3) 0.8483(3)
C8 C 0.54360(17) -0.1299(4) 0.9689(3)
H5 H 0.5662 -0.2440 0.9187
H6 H 0.4804 -0.1313 0.9641
H7 H 0.5624 -0.1204 1.0886
loop_
_geom_bond_atom_site_label_1
_geom_bond_atom_site_label_2
_geom_bond_site_symmetry_1
_geom_bond_site_symmetry_2
I1 C3 1_555 1_555
O1 H1 1_555 1_555
O2 C7 1_555 1_555
O3 C7 1_555 1_555
C1 C2 1_555 1_555
C2 H2 1_555 1_555
C3 C2 1_555 1_555
C4 C3 1_555 1_555
H3 C4 1_555 1_555
C5 C4 1_555 1_555
H4 C5 1_555 1_555
C6 O1 1_555 1_555
C7 C1 1_555 1_555
C8 O2 1_555 1_555
H5 C8 1_555 1_555
H6 C8 1_555 1_555
H7 C8 1_555 1_555
C1 C6 1_555 1_555
C5 C6 1_555 1_555

#END
