
#######################################################################
#
#                 Cambridge Crystallographic Data Centre
#                                CCDC 
#
#######################################################################
#
# If this CIF has been generated from an entry in the Cambridge 
# Structural Database, then it will include bibliographic, chemical, 
# crystal, experimental, refinement or atomic coordinate data resulting 
# from the CCDC's data processing and validation procedures.
#
#######################################################################

data_WUGQOF
_chemical_formula_moiety         'C28 H38 Mg1 N4 O2,0.5(C6 H14)'
_chemical_name_systematic        
'bis(2-(4,4-Dimethyl-4,5-dihydro-1,3-oxazol-2-yl)-N-propylanilinato)-magnesium n-hexane solvate'
_symmetry_cell_setting           triclinic
_symmetry_space_group_name_H-M   'P -1'
_symmetry_Int_Tables_number      2
_space_group_name_Hall           '-P 1'
loop_
_symmetry_equiv_pos_site_id
_symmetry_equiv_pos_as_xyz
1 x,y,z
2 -x,-y,-z
_cell_length_a                   8.8207(12)
_cell_length_b                   11.1967(15)
_cell_length_c                   16.708(2)
_cell_angle_alpha                88.650(3)
_cell_angle_beta                 77.594(3)
_cell_angle_gamma                86.275(3)
_cell_volume                     1608.11
_exptl_crystal_colour            yellow
_exptl_crystal_description       parallelepiped
_cell_formula_units_Z            2
_exptl_crystal_recrystallization_method hexane
loop_
_atom_site_label
_atom_site_type_symbol
_atom_site_fract_x
_atom_site_fract_y
_atom_site_fract_z
Mg1 Mg 0.39387(7) 0.25024(6) 0.21449(4)
O1 O 0.2677(2) 0.08645(16) 0.01772(10)
O2 O 0.84888(16) 0.33751(15) 0.21283(12)
N1 N 0.2751(2) 0.11583(16) 0.27267(10)
N2 N 0.34298(19) 0.20429(15) 0.10564(10)
N3 N 0.35808(17) 0.42334(15) 0.24260(10)
N4 N 0.62483(18) 0.25324(15) 0.21679(11)
C1 C 0.2174(2) 0.02305(17) 0.24022(13)
C2 C 0.1467(3) -0.0731(2) 0.28904(16)
H1 H 0.1407 -0.0724 0.3453
C3 C 0.0877(3) -0.1657(2) 0.25676(19)
H2 H 0.0416 -0.2254 0.2916
C4 C 0.0946(3) -0.1734(2) 0.17422(19)
H3 H 0.0550 -0.2377 0.1529
C5 C 0.1610(2) -0.08427(19) 0.12402(15)
H4 H 0.1660 -0.0888 0.0680
C6 C 0.2222(2) 0.01452(17) 0.15447(13)
C7 C 0.2568(3) 0.1194(3) 0.36162(14)
H5 H 0.3302 0.1731 0.3743
H6 H 0.2835 0.0402 0.3810
C8 C 0.0962(3) 0.1594(3) 0.40788(15)
H7 H 0.0231 0.1025 0.3991
H8 H 0.0658 0.2365 0.3865
C9 C 0.0874(5) 0.1698(4) 0.49966(19)
H9 H -0.0166 0.1954 0.5266
H10 H 0.1580 0.2272 0.5088
H11 H 0.1153 0.0933 0.5213
C10 C 0.2815(2) 0.10522(19) 0.09519(12)
C11 C 0.3511(5) 0.1772(3) -0.03317(16)
H12 H 0.2923 0.2099 -0.0724
H13 H 0.4517 0.1448 -0.0627
C12 C 0.3693(3) 0.2723(2) 0.02700(14)
C13 C 0.2463(4) 0.3754(3) 0.03462(19)
H14 H 0.2641 0.4322 0.0733
H15 H 0.1451 0.3453 0.0532
H16 H 0.2520 0.4138 -0.0178
C14 C 0.5308(3) 0.3198(3) 0.00710(18)
H17 H 0.5376 0.3794 0.0463
H18 H 0.5497 0.3547 -0.0469
H19 H 0.6069 0.2552 0.0093
C15 C 0.4652(2) 0.50558(17) 0.23693(11)
C16 C 0.4243(2) 0.63144(18) 0.24365(13)
H20 H 0.3197 0.6570 0.2519
C17 C 0.5307(3) 0.7153(2) 0.23857(15)
H21 H 0.4973 0.7958 0.2438
C18 C 0.6887(3) 0.6827(2) 0.22568(15)
H22 H 0.7611 0.7403 0.2225
C19 C 0.7349(2) 0.5647(2) 0.21776(14)
H23 H 0.8407 0.5427 0.2087
C20 C 0.6290(2) 0.47387(18) 0.22272(12)
C21 C 0.1931(2) 0.46451(19) 0.26681(13)
H24 H 0.1306 0.4030 0.2533
H25 H 0.1751 0.5354 0.2349
C22 C 0.1385(2) 0.4935(2) 0.35706(13)
H26 H 0.1722 0.4280 0.3894
H27 H 0.1868 0.5646 0.3688
C23 C -0.0368(3) 0.5144(3) 0.38256(16)
H28 H -0.0653 0.5324 0.4399
H29 H -0.0854 0.4437 0.3722
H30 H -0.0708 0.5804 0.3516
C24 C 0.6928(2) 0.3518(2) 0.21758(13)
C25 C 0.8905(3) 0.2115(3) 0.2047(3)
H31 H 0.9451 0.1838 0.2469
H32 H 0.9574 0.1948 0.1515
C26 C 0.7419(3) 0.1506(2) 0.21362(16)
C27 C 0.7365(5) 0.0705(4) 0.1450(3)
H33 H 0.7579 0.1146 0.0943
H34 H 0.6351 0.0400 0.1530
H35 H 0.8131 0.0051 0.1433
C28 C 0.7085(4) 0.0818(4) 0.2929(3)
H36 H 0.6128 0.0432 0.2978
H37 H 0.6995 0.1356 0.3378
H38 H 0.7917 0.0225 0.2939
C29 C 0.4918(8) 0.5586(7) 0.4781(4)
H39 H 0.5914 0.5706 0.4418
H40 H 0.4181 0.5490 0.4435
C30 C 0.4474(11) 0.6611(9) 0.5196(5)
H41 H 0.5179 0.6700 0.5560
H42 H 0.3450 0.6518 0.5538
C31 C 0.4402(11) 0.7779(7) 0.4711(4)
H43 H 0.4145 0.8437 0.5084
H44 H 0.3622 0.7751 0.4392
H45 H 0.5395 0.7882 0.4354
C29A C 0.5082(8) 0.4414(7) 0.5219(4)
H39A H 0.4086 0.4294 0.5582
H40A H 0.5819 0.4510 0.5565
C30A C 0.5526(11) 0.3389(9) 0.4804(5)
H41A H 0.4821 0.3300 0.4440
H42A H 0.6550 0.3482 0.4462
C31A C 0.5598(11) 0.2221(7) 0.5289(4)
H43A H 0.5855 0.1563 0.4916
H44A H 0.6378 0.2249 0.5608
H45A H 0.4605 0.2118 0.5646
loop_
_geom_bond_atom_site_label_1
_geom_bond_atom_site_label_2
_geom_bond_site_symmetry_1
_geom_bond_site_symmetry_2
Mg1 N1 1_555 1_555
O1 C10 1_555 1_555
O2 C24 1_555 1_555
N1 C1 1_555 1_555
N2 Mg1 1_555 1_555
N3 Mg1 1_555 1_555
N4 Mg1 1_555 1_555
C1 C2 1_555 1_555
C2 H1 1_555 1_555
C3 C2 1_555 1_555
H2 C3 1_555 1_555
C4 C3 1_555 1_555
H3 C4 1_555 1_555
C5 C4 1_555 1_555
H4 C5 1_555 1_555
C6 C1 1_555 1_555
C7 N1 1_555 1_555
H5 C7 1_555 1_555
H6 C7 1_555 1_555
C8 C7 1_555 1_555
H7 C8 1_555 1_555
H8 C8 1_555 1_555
C9 C8 1_555 1_555
H9 C9 1_555 1_555
H10 C9 1_555 1_555
H11 C9 1_555 1_555
C10 N2 1_555 1_555
C11 O1 1_555 1_555
H12 C11 1_555 1_555
H13 C11 1_555 1_555
C12 N2 1_555 1_555
C13 C12 1_555 1_555
H14 C13 1_555 1_555
H15 C13 1_555 1_555
H16 C13 1_555 1_555
C14 C12 1_555 1_555
H17 C14 1_555 1_555
H18 C14 1_555 1_555
H19 C14 1_555 1_555
C15 N3 1_555 1_555
C16 C15 1_555 1_555
H20 C16 1_555 1_555
C17 C16 1_555 1_555
H21 C17 1_555 1_555
C18 C17 1_555 1_555
H22 C18 1_555 1_555
C19 C18 1_555 1_555
H23 C19 1_555 1_555
C20 C15 1_555 1_555
C21 N3 1_555 1_555
H24 C21 1_555 1_555
H25 C21 1_555 1_555
C22 C21 1_555 1_555
H26 C22 1_555 1_555
H27 C22 1_555 1_555
C23 C22 1_555 1_555
H28 C23 1_555 1_555
H29 C23 1_555 1_555
H30 C23 1_555 1_555
C24 N4 1_555 1_555
C25 O2 1_555 1_555
H31 C25 1_555 1_555
H32 C25 1_555 1_555
C26 N4 1_555 1_555
C27 C26 1_555 1_555
H33 C27 1_555 1_555
H34 C27 1_555 1_555
H35 C27 1_555 1_555
C28 C26 1_555 1_555
H36 C28 1_555 1_555
H37 C28 1_555 1_555
H38 C28 1_555 1_555
C29 H39 1_555 1_555
H40 C29 1_555 1_555
C30 C29 1_555 1_555
H41 C30 1_555 1_555
H42 C30 1_555 1_555
C31 C30 1_555 1_555
H43 C31 1_555 1_555
H44 C31 1_555 1_555
H45 C31 1_555 1_555
C29A C29 1_555 1_555
H39A C29A 1_555 1_555
H40A C29A 1_555 1_555
C30A C29A 1_555 1_555
H41A C30A 1_555 1_555
H42A C30A 1_555 1_555
C31A C30A 1_555 1_555
H43A C31A 1_555 1_555
H44A C31A 1_555 1_555
H45A C31A 1_555 1_555
C5 C6 1_555 1_555
C6 C10 1_555 1_555
C11 C12 1_555 1_555
C19 C20 1_555 1_555
C20 C24 1_555 1_555
C25 C26 1_555 1_555

#END
