
#######################################################################
#
#                 Cambridge Crystallographic Data Centre
#                                CCDC 
#
#######################################################################
#
# If this CIF has been generated from an entry in the Cambridge 
# Structural Database, then it will include bibliographic, chemical, 
# crystal, experimental, refinement or atomic coordinate data resulting 
# from the CCDC's data processing and validation procedures.
#
#######################################################################

data_WUJFOY
_chemical_formula_moiety         'C18 H20 Br1 N1 O2'
_chemical_name_systematic        
5-bromo-N-methoxy-4,4-dimethyl-6-(1-naphthyl)tetrahydro-2H-pyran-2-imine
_symmetry_cell_setting           triclinic
_symmetry_space_group_name_H-M   'P 1'
_symmetry_Int_Tables_number      1
_space_group_name_Hall           'P 1'
loop_
_symmetry_equiv_pos_site_id
_symmetry_equiv_pos_as_xyz
1 x,y,z
_cell_length_a                   7.9136(3)
_cell_length_b                   10.4625(5)
_cell_length_c                   11.1965(5)
_cell_angle_alpha                68.134(5)
_cell_angle_beta                 76.650(4)
_cell_angle_gamma                87.633(4)
_cell_volume                     836.059
_chemical_melting_point          '162-164 deg.C'
_cell_formula_units_Z            1
loop_
_atom_site_label
_atom_site_type_symbol
_atom_site_fract_x
_atom_site_fract_y
_atom_site_fract_z
Br1 Br 0.774 1.0341 0.4125
O1 O 0.6565(2) 0.7292(2) 0.2855(2)
O2 O 0.7312(3) 0.5319(2) 0.2105(2)
N1 N 0.7468(3) 0.5078(2) 0.3407(2)
C1 C 0.6747(3) 1.0869(2) 0.0960(2)
C2 C 0.8550(3) 1.1217(3) 0.0505(2)
H1 H 0.9315 1.0643 0.0953
C3 C 0.9199(4) 1.2371(3) -0.0573(3)
H2 H 1.0392 1.2572 -0.0849
C4 C 0.8075(4) 1.3258(3) -0.1269(3)
H3 H 0.8526 1.4045 -0.2003
C5 C 0.6343(4) 1.2972(3) -0.0874(3)
H4 H 0.5613 1.3563 -0.1348
C6 C 0.5608(3) 1.1783(3) 0.0254(2)
C7 C 0.3796(4) 1.1479(3) 0.0669(3)
H5 H 0.3058 1.2077 0.0211
C8 C 0.3117(3) 1.0327(3) 0.1725(3)
H6 H 0.1921 1.0139 0.1989
C9 C 0.4230(3) 0.9411(3) 0.2427(3)
H7 H 0.3754 0.8622 0.3149
C10 C 0.5993(3) 0.9661(2) 0.2065(2)
C11 C 0.7101(3) 0.8612(2) 0.2840(2)
H8 H 0.8324 0.8829 0.2368
C12 C 0.6906(3) 0.8544(2) 0.4255(2)
H9 H 0.5665 0.8418 0.4687
C13 C 0.7846(3) 0.7354(2) 0.5092(2)
C14 C 0.7048(4) 0.6059(3) 0.5067(3)
H10 H 0.7668 0.5267 0.5502
H11 H 0.5848 0.5920 0.5566
C15 C 0.7102(3) 0.6133(2) 0.3704(3)
C16 C 0.7469(5) 0.7294(3) 0.6513(3)
H12 H 0.8044 0.8072 0.6535
H13 H 0.7887 0.6458 0.7061
H14 H 0.6238 0.7315 0.6836
C17 C 0.9809(3) 0.7459(3) 0.4527(3)
H15 H 1.0042 0.7416 0.3663
H16 H 1.0337 0.6709 0.5098
H17 H 1.0282 0.8318 0.4465
C18 C 0.7878(5) 0.4156(4) 0.1791(4)
H18 H 0.7895 0.4348 0.0880
H19 H 0.7095 0.3376 0.2346
H20 H 0.9026 0.3956 0.1934
loop_
_geom_bond_atom_site_label_1
_geom_bond_atom_site_label_2
_geom_bond_site_symmetry_1
_geom_bond_site_symmetry_2
Br1 C12 1_555 1_555
O1 C11 1_555 1_555
O2 N1 1_555 1_555
N1 C15 1_555 1_555
C1 C2 1_555 1_555
C2 H1 1_555 1_555
C3 C2 1_555 1_555
H2 C3 1_555 1_555
C4 C3 1_555 1_555
H3 C4 1_555 1_555
C5 C4 1_555 1_555
H4 C5 1_555 1_555
C6 C1 1_555 1_555
C7 C6 1_555 1_555
H5 C7 1_555 1_555
C8 C7 1_555 1_555
H6 C8 1_555 1_555
C9 C8 1_555 1_555
H7 C9 1_555 1_555
C10 C1 1_555 1_555
C11 C10 1_555 1_555
H8 C11 1_555 1_555
C12 C11 1_555 1_555
H9 C12 1_555 1_555
C13 C12 1_555 1_555
C14 C13 1_555 1_555
H10 C14 1_555 1_555
H11 C14 1_555 1_555
C15 O1 1_555 1_555
C16 C13 1_555 1_555
H12 C16 1_555 1_555
H13 C16 1_555 1_555
H14 C16 1_555 1_555
C17 C13 1_555 1_555
H15 C17 1_555 1_555
H16 C17 1_555 1_555
H17 C17 1_555 1_555
C18 O2 1_555 1_555
H18 C18 1_555 1_555
H19 C18 1_555 1_555
H20 C18 1_555 1_555
C5 C6 1_555 1_555
C9 C10 1_555 1_555
C14 C15 1_555 1_555

#END
