
#######################################################################
#
#                 Cambridge Crystallographic Data Centre
#                                CCDC 
#
#######################################################################
#
# If this CIF has been generated from an entry in the Cambridge 
# Structural Database, then it will include bibliographic, chemical, 
# crystal, experimental, refinement or atomic coordinate data resulting 
# from the CCDC's data processing and validation procedures.
#
#######################################################################

data_WUKRUQ
_chemical_formula_moiety         'C15 H17 N1 O2'
_chemical_name_systematic        
(2S',3R')-1,3'-Dimethyl-6',7'-dihydro-3'H-spiro[indole-3,2'-oxepin]-2(1H)-one
_symmetry_cell_setting           monoclinic
_symmetry_space_group_name_H-M   'P 21'
_symmetry_Int_Tables_number      4
_space_group_name_Hall           'P 2yb'
loop_
_symmetry_equiv_pos_site_id
_symmetry_equiv_pos_as_xyz
1 x,y,z
2 -x,1/2+y,-z
_cell_length_a                   8.5555(6)
_cell_length_b                   7.8352(8)
_cell_length_c                   9.5660(8)
_cell_angle_alpha                90
_cell_angle_beta                 100.670(5)
_cell_angle_gamma                90
_cell_volume                     630.161
_exptl_crystal_colour            colorless
_exptl_crystal_description       block
_chemical_melting_point          '151-155 deg.C'
_cell_formula_units_Z            2
_exptl_crystal_recrystallization_method dichloromethane/hexanes
loop_
_atom_site_label
_atom_site_type_symbol
_atom_site_fract_x
_atom_site_fract_y
_atom_site_fract_z
O1 O 0.18988(13) 0.38715(13) 0.73642(11)
O2 O -0.12972(12) 0.21922(16) 0.65365(12)
N1 N -0.05396(14) 0.15086(18) 0.88945(14)
C1 C 0.17259(18) 0.4285(2) 0.58851(16)
H1 H 0.091(2) 0.357(3) 0.532(2)
H2 H 0.130(2) 0.540(3) 0.5784(18)
C2 C 0.3319(2) 0.4141(2) 0.54012(17)
H3 H 0.313(2) 0.416(3) 0.439(2)
H4 H 0.396(2) 0.503(3) 0.573(2)
C3 C 0.42755(18) 0.2593(2) 0.58985(18)
H5 H 0.537(2) 0.262(3) 0.582(2)
C4 C 0.37781(18) 0.1193(2) 0.64544(17)
H6 H 0.451(2) 0.029(3) 0.679(2)
C5 C 0.20941(18) 0.0836(2) 0.66531(16)
H7 H 0.136(2) 0.091(3) 0.575(2)
C6 C 0.15430(16) 0.21425(19) 0.76682(15)
C7 C 0.21630(17) 0.18071(19) 0.92131(16)
C8 C 0.36976(19) 0.1818(2) 0.99815(18)
H8 H 0.452(2) 0.210(3) 0.9537(19)
C9 C 0.3943(2) 0.1393(3) 1.1416(2)
H9 H 0.503(3) 0.138(4) 1.196(2)
C10 C 0.2670(2) 0.0987(3) 1.20622(18)
H10 H 0.289(3) 0.056(5) 1.308(3)
C11 C 0.1113(2) 0.0995(2) 1.13078(18)
H11 H 0.021(2) 0.073(3) 1.1708(17)
C12 C 0.09014(17) 0.1416(2) 0.98829(16)
C13 C -0.02705(17) 0.1959(2) 0.75893(16)
C14 C 0.1910(2) -0.1002(2) 0.7129(2)
H12 H 0.218(3) -0.179(4) 0.644(3)
H13 H 0.076(3) -0.109(4) 0.734(2)
H14 H 0.265(3) -0.115(4) 0.801(2)
C15 C -0.21071(19) 0.1284(3) 0.9227(2)
H15 H -0.2177 0.1902 1.0092
H16 H -0.2298 0.0080 0.9362
H17 H -0.2899 0.1719 0.8450
loop_
_geom_bond_atom_site_label_1
_geom_bond_atom_site_label_2
_geom_bond_site_symmetry_1
_geom_bond_site_symmetry_2
O1 C1 1_555 1_555
O2 C13 1_555 1_555
N1 C12 1_555 1_555
C1 H1 1_555 1_555
H2 C1 1_555 1_555
C2 C1 1_555 1_555
H3 C2 1_555 1_555
H4 C2 1_555 1_555
C3 C2 1_555 1_555
H5 C3 1_555 1_555
C4 C3 1_555 1_555
H6 C4 1_555 1_555
C5 C4 1_555 1_555
H7 C5 1_555 1_555
C6 O1 1_555 1_555
C7 C6 1_555 1_555
C8 C7 1_555 1_555
H8 C8 1_555 1_555
C9 C8 1_555 1_555
H9 C9 1_555 1_555
C10 C9 1_555 1_555
H10 C10 1_555 1_555
C11 C10 1_555 1_555
H11 C11 1_555 1_555
C12 C7 1_555 1_555
C13 N1 1_555 1_555
C14 C5 1_555 1_555
H12 C14 1_555 1_555
H13 C14 1_555 1_555
H14 C14 1_555 1_555
C15 N1 1_555 1_555
H15 C15 1_555 1_555
H16 C15 1_555 1_555
H17 C15 1_555 1_555
C5 C6 1_555 1_555
C6 C13 1_555 1_555
C11 C12 1_555 1_555

#END
