
#######################################################################
#
#                 Cambridge Crystallographic Data Centre
#                                CCDC 
#
#######################################################################
#
# If this CIF has been generated from an entry in the Cambridge 
# Structural Database, then it will include bibliographic, chemical, 
# crystal, experimental, refinement or atomic coordinate data resulting 
# from the CCDC's data processing and validation procedures.
#
#######################################################################

data_WUKSAX
_chemical_formula_moiety         'C15 H16 Br1 N1 O2'
_chemical_name_systematic        
(2'R,3'R)-4-Bromo-1,3'-dimethyl-6',7'-dihydro-3'H-spiro[indole-3,2'-oxepin]-2(1H)-one
_symmetry_cell_setting           orthorhombic
_symmetry_space_group_name_H-M   'P 21 21 21'
_symmetry_Int_Tables_number      19
_space_group_name_Hall           'P 2ac 2ab'
loop_
_symmetry_equiv_pos_site_id
_symmetry_equiv_pos_as_xyz
1 x,y,z
2 1/2-x,-y,1/2+z
3 -x,1/2+y,1/2-z
4 1/2+x,1/2-y,-z
_cell_length_a                   9.0322(4)
_cell_length_b                   10.4795(7)
_cell_length_c                   29.1191(15)
_cell_angle_alpha                90
_cell_angle_beta                 90
_cell_angle_gamma                90
_cell_volume                     2756.21
_exptl_crystal_colour            colorless
_exptl_crystal_description       block
_chemical_melting_point          '120.0-124.0 deg.C'
_cell_formula_units_Z            8
_exptl_crystal_recrystallization_method dichloromethane/hexanes
loop_
_atom_site_label
_atom_site_type_symbol
_atom_site_fract_x
_atom_site_fract_y
_atom_site_fract_z
Br1 Br 1.17258(3) 0.84139(3) 1.121411(11)
O1 O 0.8277(2) 0.87346(19) 1.17646(6)
O3 O 0.64047(19) 1.1055(2) 1.19309(7)
N1 N 0.8720(2) 1.1600(3) 1.21862(7)
C1 C 0.7625(4) 0.7840(4) 1.14684(14)
H1 H 0.7638 0.7003 1.1626
H2 H 0.8269 0.7763 1.1195
C3 C 0.6122(4) 0.8067(4) 1.13083(14)
H5 H 0.5474 0.8159 1.1580
H6 H 0.5788 0.7299 1.1139
C5 C 0.5891(3) 0.9190(3) 1.10088(11)
H9 H 0.491(3) 0.923(3) 1.0877(11)
C7 C 0.6821(3) 1.0113(3) 1.09353(10)
H11 H 0.652(3) 1.081(3) 1.0796(10)
C9 C 0.8388(3) 1.0284(3) 1.10982(9)
H13 H 0.902(3) 0.975(3) 1.0942(9)
C11 C 0.8642(3) 0.9995(3) 1.16125(9)
C13 C 1.0215(3) 1.0267(3) 1.17689(9)
C15 C 1.1565(3) 0.9783(3) 1.16400(9)
C17 C 1.2862(3) 1.0235(3) 1.18401(10)
H15 H 1.375(3) 0.994(3) 1.1732(9)
C19 C 1.2786(3) 1.1171(3) 1.21749(11)
H17 H 1.369(3) 1.156(3) 1.2303(9)
C21 C 1.1432(3) 1.1667(3) 1.23152(10)
H19 H 1.141(3) 1.242(3) 1.2546(9)
C23 C 1.0183(3) 1.1214(3) 1.21084(10)
C25 C 0.7737(3) 1.0938(3) 1.19201(10)
C27 C 0.8903(3) 1.1654(4) 1.09900(10)
H21 H 0.8832 1.1807 1.0659
H22 H 0.9932 1.1762 1.1089
H23 H 0.8272 1.2264 1.1153
C29 C 0.8271(3) 1.2530(3) 1.25279(9)
H27 H 0.7210 1.2702 1.2496
H28 H 0.8828 1.3323 1.2482
H29 H 0.8473 1.2193 1.2836
Br2 Br 0.54907(3) 0.97086(4) 0.978057(11)
O2 O 0.8890(2) 0.8922(2) 0.93521(7)
O4 O 1.09394(18) 1.0219(2) 0.87094(7)
N2 N 0.8703(2) 1.0414(2) 0.83578(8)
C2 C 0.9352(4) 0.8785(4) 0.98160(11)
H3 H 0.9190 0.7891 0.9914
H4 H 0.8735 0.9341 1.0013
C4 C 1.0962(4) 0.9123(4) 0.98853(13)
H7 H 1.1270 0.8834 1.0194
H8 H 1.1562 0.8651 0.9657
C6 C 1.1293(4) 1.0503(5) 0.98419(13)
H10 H 1.224(4) 1.084(3) 0.9921(12)
C8 C 1.0423(3) 1.1401(4) 0.96782(12)
H12 H 1.077(3) 1.221(3) 0.9687(10)
C10 C 0.8899(3) 1.1309(3) 0.94754(11)
H14 H 0.810(3) 1.127(2) 0.9705(9)
C12 C 0.8628(3) 1.0155(3) 0.91641(9)
C14 C 0.7096(3) 1.0156(3) 0.89539(9)
C16 C 0.5704(3) 1.0004(3) 0.91399(9)
C18 C 0.4445(3) 1.0043(3) 0.88693(10)
H16 H 0.3491 0.9939 0.9002
C20 C 0.4603(3) 1.0235(3) 0.84058(11)
H18 H 0.369(3) 1.019(3) 0.8224(9)
C22 C 0.5977(3) 1.0357(3) 0.82003(10)
H20 H 0.612(3) 1.049(3) 0.7884(9)
C24 C 0.7204(3) 1.0321(3) 0.84800(9)
C26 C 0.9615(3) 1.0261(3) 0.87266(10)
C28 C 0.8538(4) 1.2547(3) 0.92206(12)
H24 H 0.8633 1.3271 0.9432
H25 H 0.7523 1.2508 0.9103
H26 H 0.9228 1.2656 0.8964
C30 C 0.9263(4) 1.0529(4) 0.78893(10)
H30 H 1.0281 1.0851 0.7897
H31 H 0.8637 1.1122 0.7716
H32 H 0.9246 0.9690 0.7741
loop_
_geom_bond_atom_site_label_1
_geom_bond_atom_site_label_2
_geom_bond_site_symmetry_1
_geom_bond_site_symmetry_2
Br1 C15 1_555 1_555
Br2 C16 1_555 1_555
O1 C1 1_555 1_555
O2 C2 1_555 1_555
O3 C25 1_555 1_555
O4 C26 1_555 1_555
N1 C23 1_555 1_555
N2 C24 1_555 1_555
C1 H1 1_555 1_555
H2 C1 1_555 1_555
C2 H3 1_555 1_555
H4 C2 1_555 1_555
C3 C1 1_555 1_555
H5 C3 1_555 1_555
H6 C3 1_555 1_555
C4 C2 1_555 1_555
H7 C4 1_555 1_555
H8 C4 1_555 1_555
C5 C3 1_555 1_555
H9 C5 1_555 1_555
C6 C4 1_555 1_555
H10 C6 1_555 1_555
C7 C5 1_555 1_555
H11 C7 1_555 1_555
C8 C6 1_555 1_555
H12 C8 1_555 1_555
C9 C7 1_555 1_555
H13 C9 1_555 1_555
C10 C8 1_555 1_555
H14 C10 1_555 1_555
C11 O1 1_555 1_555
C12 O2 1_555 1_555
C13 C11 1_555 1_555
C14 C12 1_555 1_555
C15 C13 1_555 1_555
C16 C14 1_555 1_555
C17 C15 1_555 1_555
H15 C17 1_555 1_555
C18 C16 1_555 1_555
H16 C18 1_555 1_555
C19 C17 1_555 1_555
H17 C19 1_555 1_555
C20 C18 1_555 1_555
H18 C20 1_555 1_555
C21 C19 1_555 1_555
H19 C21 1_555 1_555
C22 C20 1_555 1_555
H20 C22 1_555 1_555
C23 C13 1_555 1_555
C24 C14 1_555 1_555
C25 N1 1_555 1_555
C26 N2 1_555 1_555
C27 C9 1_555 1_555
H21 C27 1_555 1_555
H22 C27 1_555 1_555
H23 C27 1_555 1_555
C28 C10 1_555 1_555
H24 C28 1_555 1_555
H25 C28 1_555 1_555
H26 C28 1_555 1_555
C29 N1 1_555 1_555
H27 C29 1_555 1_555
H28 C29 1_555 1_555
H29 C29 1_555 1_555
C30 N2 1_555 1_555
H30 C30 1_555 1_555
H31 C30 1_555 1_555
H32 C30 1_555 1_555
C9 C11 1_555 1_555
C10 C12 1_555 1_555
C11 C25 1_555 1_555
C12 C26 1_555 1_555
C21 C23 1_555 1_555
C22 C24 1_555 1_555

#END
