
#######################################################################
#
#                 Cambridge Crystallographic Data Centre
#                                CCDC 
#
#######################################################################
#
# If this CIF has been generated from an entry in the Cambridge 
# Structural Database, then it will include bibliographic, chemical, 
# crystal, experimental, refinement or atomic coordinate data resulting 
# from the CCDC's data processing and validation procedures.
#
#######################################################################

data_WUKTOL
_chemical_formula_moiety         
'C36 H36 N24 O12,C6 H10 N2 2+,2(Br1 1-),10(H2 O1)'
_chemical_name_systematic        
'Cucurbituril 4-(ammoniomethyl)pyridinium clathrate dibromide decahydrate'
_symmetry_cell_setting           monoclinic
_symmetry_space_group_name_H-M   'P 21/n'
_symmetry_Int_Tables_number      14
_space_group_name_Hall           '-P 2yn'
loop_
_symmetry_equiv_pos_site_id
_symmetry_equiv_pos_as_xyz
1 x,y,z
2 1/2-x,1/2+y,1/2-z
3 -x,-y,-z
4 1/2+x,1/2-y,1/2+z
_cell_length_a                   11.8935(3)
_cell_length_b                   15.5261(4)
_cell_length_c                   14.8604(3)
_cell_angle_alpha                90
_cell_angle_beta                 91.6720(10)
_cell_angle_gamma                90
_cell_volume                     2742.95
_exptl_crystal_colour            colorless
_exptl_crystal_description       plate
_cell_formula_units_Z            2
loop_
_atom_site_label
_atom_site_type_symbol
_atom_site_fract_x
_atom_site_fract_y
_atom_site_fract_z
N13 N 0.1113(7) -0.0406(5) 0.4945(5)
C19 C 0.0252(10) -0.0370(8) 0.4220(8)
C20 C 0.0693(10) 0.0034(7) 0.5733(8)
C21 C 0.1932(10) -0.0673(7) 0.4838(7)
C22 C 0.1113(7) -0.0406(5) 0.4945(5)
C20B C -0.0693(10) -0.0034(7) 0.4267(8)
N13B N -0.1113(7) 0.0406(5) 0.5055(5)
C19B C -0.0252(10) 0.0370(8) 0.5780(8)
C21B C -0.1932(10) 0.0673(7) 0.5162(7)
O7 O 0.3770(4) 0.7067(4) 0.4915(3)
O8 O 0.0118(5) 0.4997(4) 0.6448(4)
O9 O 0.4407(15) -0.0947(15) 0.6558(16)
O10 O -0.4524(5) 0.1057(4) 0.6789(7)
Br1 Br 0.22244(5) 0.49624(4) 0.49304(4)
O1 O -0.3172(3) -0.1022(2) 0.3729(2)
O2 O -0.3259(3) -0.0950(3) 0.6026(3)
O3 O -0.2369(3) 0.0878(2) 0.7418(3)
O4 O -0.1562(3) 0.2480(2) 0.6265(3)
O5 O 0.1526(3) -0.2253(2) 0.6292(3)
O6 O 0.2348(3) -0.0662(2) 0.7555(2)
N1 N -0.1908(3) -0.1675(3) 0.2793(3)
N2 N -0.2201(3) -0.2255(3) 0.4131(3)
N3 N -0.2244(3) -0.2189(3) 0.5766(3)
N4 N -0.1932(3) -0.1493(3) 0.7044(3)
N5 N -0.1270(3) -0.0267(3) 0.7920(3)
N6 N -0.0654(3) 0.1075(3) 0.8147(3)
N7 N 0.0004(3) 0.2248(3) 0.7203(3)
N8 N -0.0252(3) -0.2753(3) 0.4185(3)
N9 N -0.0273(3) -0.2634(3) 0.5815(3)
N10 N -0.0022(3) -0.2046(3) 0.7175(3)
N11 N 0.0610(3) -0.0887(3) 0.8168(3)
N12 N 0.1233(3) 0.0459(3) 0.8038(3)
C1 C -0.2489(4) -0.1588(3) 0.3572(3)
C2 C -0.2812(4) -0.2446(4) 0.4935(3)
H1 H -0.3544 -0.2157 0.4893
H2 H -0.2952 -0.3068 0.4956
C3 C -0.2541(4) -0.1483(3) 0.6255(3)
C4 C -0.2136(4) -0.0915(3) 0.7789(4)
H3 H -0.2861 -0.0628 0.7682
H4 H -0.2188 -0.1255 0.8342
C5 C -0.1523(4) 0.0593(3) 0.7789(3)
C6 C -0.0584(4) 0.2002(3) 0.8004(4)
H5 H -0.1349 0.2237 0.7964
H6 H -0.0202 0.2263 0.8529
C7 C -0.1197(4) -0.2432(3) 0.2802(3)
H7 H -0.1423 -0.2843 0.2321
C8 C -0.1361(4) -0.2818(3) 0.3753(3)
H8 H -0.1625 -0.3422 0.3720
C9 C -0.1374(4) -0.2702(3) 0.6213(3)
H9 H -0.1609 -0.3310 0.6283
C10 C -0.1213(4) -0.2244(3) 0.7133(3)
H10 H -0.1434 -0.2617 0.7638
C11 C -0.0294(4) -0.0375(3) 0.8521(3)
H11 H -0.0510 -0.0575 0.9124
C12 C 0.0213(4) 0.0546(3) 0.8557(3)
H12 H 0.0390 0.0727 0.9184
C13 C -0.0551(4) 0.2493(3) 0.6411(3)
C14 C 0.0036(4) -0.3152(3) 0.5037(3)
H13 H 0.0848 -0.3258 0.5069
H14 H -0.0344 -0.3711 0.5067
C15 C 0.0522(4) -0.2308(3) 0.6415(3)
C16 C 0.0568(4) -0.1805(3) 0.7997(3)
H15 H 0.1340 -0.2024 0.7978
H16 H 0.0204 -0.2087 0.8502
C17 C 0.1487(4) -0.0392(3) 0.7887(3)
C18 C -0.2079(4) -0.1125(3) 0.2017(3)
H17 H -0.2068 -0.1478 0.1471
H18 H -0.2822 -0.0856 0.2044
N7B N -0.0004(3) -0.2248(3) 0.2797(3)
C6B C 0.0584(4) -0.2002(3) 0.1996(4)
N6B N 0.0654(3) -0.1075(3) 0.1853(3)
C5B C 0.1523(4) -0.0593(3) 0.2211(3)
O3B O 0.2369(3) -0.0878(2) 0.2582(3)
N5B N 0.1270(3) 0.0267(3) 0.2080(3)
C4B C 0.2136(4) 0.0915(3) 0.2211(4)
N4B N 0.1932(3) 0.1493(3) 0.2956(3)
C3B C 0.2541(4) 0.1483(3) 0.3745(3)
O2B O 0.3259(3) 0.0950(3) 0.3974(3)
N3B N 0.2244(3) 0.2189(3) 0.4234(3)
C2B C 0.2812(4) 0.2446(4) 0.5065(3)
N2B N 0.2201(3) 0.2255(3) 0.5869(3)
C1B C 0.2489(4) 0.1588(3) 0.6428(3)
O1B O 0.3172(3) 0.1022(2) 0.6271(2)
N1B N 0.1908(3) 0.1675(3) 0.7207(3)
C7B C 0.1197(4) 0.2432(3) 0.7198(3)
C13B C 0.0551(4) -0.2493(3) 0.3589(3)
O4B O 0.1562(3) -0.2480(2) 0.3735(3)
C18B C 0.2079(4) 0.1125(3) 0.7983(3)
H17B H 0.2068 0.1478 0.8529
H18B H 0.2822 0.0856 0.7956
N8B N 0.0252(3) 0.2753(3) 0.5815(3)
C8B C 0.1361(4) 0.2818(3) 0.6247(3)
H7B H 0.1423 0.2843 0.7679
H8B H 0.1625 0.3422 0.6280
C14B C -0.0036(4) 0.3152(3) 0.4963(3)
N9B N 0.0273(3) 0.2634(3) 0.4185(3)
C9B C 0.1374(4) 0.2702(3) 0.3787(3)
H9B H 0.1609 0.3310 0.3717
C10B C 0.1213(4) 0.2244(3) 0.2867(3)
N10B N 0.0022(3) 0.2046(3) 0.2825(3)
C15B C -0.0522(4) 0.2308(3) 0.3585(3)
O5B O -0.1526(3) 0.2253(2) 0.3708(3)
C16B C -0.0568(4) 0.1805(3) 0.2003(3)
N11B N -0.0610(3) 0.0887(3) 0.1832(3)
C11B C 0.0294(4) 0.0375(3) 0.1479(3)
H11B H 0.0510 0.0575 0.0876
C12B C -0.0213(4) -0.0546(3) 0.1443(3)
N12B N -0.1233(3) -0.0459(3) 0.1962(3)
C17B C -0.1487(4) 0.0392(3) 0.2113(3)
O6B O -0.2348(3) 0.0662(2) 0.2445(2)
H12B H -0.0390 -0.0727 0.0816
H15B H -0.1340 0.2024 0.2022
H16B H -0.0204 0.2087 0.1498
H10B H 0.1434 0.2617 0.2362
H13B H -0.0848 0.3258 0.4931
H14B H 0.0344 0.3711 0.4933
H1B H 0.3544 0.2157 0.5107
H2B H 0.2952 0.3068 0.5044
H3B H 0.2861 0.0628 0.2318
H4B H 0.2188 0.1255 0.1658
H5B H 0.1349 -0.2237 0.2036
H6B H 0.0202 -0.2263 0.1471
N14? N 0.2729(8) -0.0645(7) 0.5648(7)
O11? O 0.4712(17) -0.0867(19) 0.6857(18)
O12? O 0.4722(7) -0.1144(6) 0.4800(7)
O13? O 0.3274(9) -0.1191(7) 0.4943(7)
loop_
_geom_bond_atom_site_label_1
_geom_bond_atom_site_label_2
_geom_bond_site_symmetry_1
_geom_bond_site_symmetry_2
O1 C1 1_555 1_555
O2 C3 1_555 1_555
O3 C5 1_555 1_555
O4 C13 1_555 1_555
O5 C15 1_555 1_555
O6 C17 1_555 1_555
N1 C1 1_555 1_555
N2 C1 1_555 1_555
N3 C2 1_555 1_555
N4 C3 1_555 1_555
N5 C4 1_555 1_555
N6 C5 1_555 1_555
N7 C6 1_555 1_555
N8 C8 1_555 1_555
N9 C9 1_555 1_555
N10 C10 1_555 1_555
N11 C11 1_555 1_555
N12 C12 1_555 1_555
C2 N2 1_555 1_555
H1 C2 1_555 1_555
H2 C2 1_555 1_555
C3 N3 1_555 1_555
C4 N4 1_555 1_555
H3 C4 1_555 1_555
H4 C4 1_555 1_555
C5 N5 1_555 1_555
C6 N6 1_555 1_555
H5 C6 1_555 1_555
H6 C6 1_555 1_555
C7 N1 1_555 1_555
H7 C7 1_555 1_555
C8 N2 1_555 1_555
H8 C8 1_555 1_555
C9 N3 1_555 1_555
H9 C9 1_555 1_555
C10 N4 1_555 1_555
H10 C10 1_555 1_555
C11 N5 1_555 1_555
H11 C11 1_555 1_555
C12 N6 1_555 1_555
H12 C12 1_555 1_555
C13 N7 1_555 1_555
C14 N8 1_555 1_555
H13 C14 1_555 1_555
H14 C14 1_555 1_555
C15 N9 1_555 1_555
C16 N10 1_555 1_555
H15 C16 1_555 1_555
H16 C16 1_555 1_555
C17 N11 1_555 1_555
C18 N1 1_555 1_555
H17 C18 1_555 1_555
H18 C18 1_555 1_555
N13 C19 1_555 1_555
C19 C22 1_555 1_555
C20 N13 1_555 1_555
C21 N13 1_555 1_555
C22 C20 1_555 1_555
N7B C7 1_555 1_555
C6B N7B 1_555 1_555
N6B C6B 1_555 1_555
C5B N6B 1_555 1_555
O3B C5B 1_555 1_555
N5B C5B 1_555 1_555
C4B N5B 1_555 1_555
N4B C4B 1_555 1_555
C3B N4B 1_555 1_555
O2B C3B 1_555 1_555
N3B C3B 1_555 1_555
C2B N3B 1_555 1_555
N2B C2B 1_555 1_555
C1B N2B 1_555 1_555
O1B C1B 1_555 1_555
N1B C1B 1_555 1_555
C7B N7 1_555 1_555
C13B N8 1_555 1_555
O4B C13B 1_555 1_555
C18B N12 1_555 1_555
H17B C18B 1_555 1_555
H18B C18B 1_555 1_555
N8B C13 1_555 1_555
C8B N2B 1_555 1_555
H7B C7B 1_555 1_555
H8B C8B 1_555 1_555
C14B N8B 1_555 1_555
N9B C14B 1_555 1_555
C9B N3B 1_555 1_555
H9B C9B 1_555 1_555
C10B N4B 1_555 1_555
N10B C10B 1_555 1_555
C15B N9B 1_555 1_555
O5B C15B 1_555 1_555
C16B N10B 1_555 1_555
N11B C16B 1_555 1_555
C11B N5B 1_555 1_555
H11B C11B 1_555 1_555
C12B N6B 1_555 1_555
N12B C18 1_555 1_555
C17B N11B 1_555 1_555
O6B C17B 1_555 1_555
H12B C12B 1_555 1_555
H15B C16B 1_555 1_555
H16B C16B 1_555 1_555
H10B C10B 1_555 1_555
H13B C14B 1_555 1_555
H14B C14B 1_555 1_555
H1B C2B 1_555 1_555
H2B C2B 1_555 1_555
H3B C4B 1_555 1_555
H4B C4B 1_555 1_555
H5B C6B 1_555 1_555
H6B C6B 1_555 1_555
C20B C19 1_555 1_555
N13B C20B 1_555 1_555
C19B C20 1_555 1_555
C21B N13B 1_555 1_555
N9 C14 1_555 1_555
N10 C15 1_555 1_555
N11 C16 1_555 1_555
N12 C17 1_555 1_555
C7 C8 1_555 1_555
C9 C10 1_555 1_555
C11 C12 1_555 1_555
C21 C22 1_555 1_555
N7B C13B 1_555 1_555
N1B C7B 1_555 1_555
N1B C18B 1_555 1_555
C7B C8B 1_555 1_555
N8B C8B 1_555 1_555
N9B C9B 1_555 1_555
C9B C10B 1_555 1_555
N10B C15B 1_555 1_555
N11B C11B 1_555 1_555
C11B C12B 1_555 1_555
C12B N12B 1_555 1_555
N12B C17B 1_555 1_555
N13B C19B 1_555 1_555

#END
