
#######################################################################
#
#                 Cambridge Crystallographic Data Centre
#                                CCDC 
#
#######################################################################
#
# If this CIF has been generated from an entry in the Cambridge 
# Structural Database, then it will include bibliographic, chemical, 
# crystal, experimental, refinement or atomic coordinate data resulting 
# from the CCDC's data processing and validation procedures.
#
#######################################################################

data_WULGER01
_chemical_formula_moiety         'C26 H21 N3 O1 S1,0.5(C4 H8 O1)'
_chemical_name_systematic        
'2-(2-anilinopyrazolo[1,5-c][1,3]benzothiazin-5-ylidene)-1-(2,4-dimethylphenyl)ethanone tetrahydrofuran solvate'
_symmetry_cell_setting           monoclinic
_symmetry_space_group_name_H-M   'P 21/n'
_symmetry_Int_Tables_number      14
_space_group_name_Hall           '-P 2yn'
loop_
_symmetry_equiv_pos_site_id
_symmetry_equiv_pos_as_xyz
1 x,y,z
2 1/2-x,1/2+y,1/2-z
3 -x,-y,-z
4 1/2+x,1/2-y,1/2+z
_cell_length_a                   15.916(2)
_cell_length_b                   11.755(3)
_cell_length_c                   25.654(5)
_cell_angle_alpha                90
_cell_angle_beta                 106.285(3)
_cell_angle_gamma                90
_cell_volume                     4607.1
_exptl_crystal_colour            orange
_exptl_crystal_description       Plate
_cell_formula_units_Z            8
loop_
_atom_site_label
_atom_site_type_symbol
_atom_site_fract_x
_atom_site_fract_y
_atom_site_fract_z
S1 S 0.39119(4) 0.61778(6) 0.50548(3)
O1 O 0.41401(12) 0.78725(17) 0.43957(8)
N1 N 0.22358(13) 0.55450(18) 0.46127(9)
N2 N 0.14275(13) 0.56474(19) 0.42359(9)
N3 N 0.00596(14) 0.4742(2) 0.41420(10)
H1 H -0.0221 0.4296 0.4300
C1 C 0.38009(17) 0.5021(2) 0.54664(11)
C2 C 0.45697(19) 0.4717(3) 0.58608(12)
H2 H 0.5080 0.5132 0.5896
C3 C 0.4571(2) 0.3806(3) 0.61961(14)
H3 H 0.5085 0.3600 0.6456
C4 C 0.3810(2) 0.3194(3) 0.61482(14)
H4 H 0.3814 0.2577 0.6376
C5 C 0.3044(2) 0.3494(3) 0.57636(13)
H5 H 0.2536 0.3078 0.5735
C6 C 0.30243(17) 0.4420(2) 0.54163(11)
C7 C 0.22352(17) 0.4718(2) 0.49975(11)
C8 C 0.14020(17) 0.4293(2) 0.48700(11)
H6 H 0.1190 0.3730 0.5054
C9 C 0.09316(17) 0.4890(2) 0.44007(11)
C10 C 0.29015(15) 0.6260(2) 0.45641(10)
C11 C 0.27585(16) 0.7010(2) 0.41420(10)
H7 H 0.2214 0.7000 0.3885
C12 C 0.33981(16) 0.7812(2) 0.40705(11)
C13 C 0.31701(16) 0.8567(2) 0.35767(11)
C14 C 0.38491(18) 0.8800(2) 0.33425(12)
H8 H 0.4397 0.8476 0.3493
C15 C 0.3724(2) 0.9503(3) 0.28912(13)
H9 H 0.4182 0.9629 0.2740
C16 C 0.2923(2) 1.0014(3) 0.26670(12)
C17 C 0.22533(19) 0.9790(2) 0.28996(12)
H10 H 0.1714 1.0136 0.2751
C18 C 0.23464(17) 0.9069(2) 0.33458(11)
C19 C 0.2769(2) 1.0815(3) 0.21870(14)
H11 H 0.3321 1.1069 0.2148
H12 H 0.2436 1.1459 0.2246
H13 H 0.2452 1.0425 0.1863
C20 C 0.15666(17) 0.8932(3) 0.35658(13)
H14 H 0.1252 0.8255 0.3419
H15 H 0.1188 0.9580 0.3464
H16 H 0.1763 0.8876 0.3955
C21 C -0.04301(17) 0.5228(2) 0.36527(12)
C22 C -0.00599(19) 0.5691(3) 0.32669(12)
H17 H 0.0545 0.5714 0.3335
C23 C -0.0592(2) 0.6115(3) 0.27843(13)
H18 H -0.0340 0.6414 0.2528
C24 C -0.1490(2) 0.6102(3) 0.26770(14)
H19 H -0.1844 0.6385 0.2350
C25 C -0.1861(2) 0.5658(3) 0.30640(15)
H20 H -0.2466 0.5657 0.2999
C26 C -0.13375(19) 0.5221(3) 0.35433(14)
H21 H -0.1593 0.4917 0.3797
S2 S 0.73196(4) 0.28617(6) 0.39247(3)
O2 O 0.90237(12) 0.30138(18) 0.44600(9)
N4 N 0.67298(13) 0.11802(18) 0.44472(9)
N5 N 0.68491(13) 0.02858(19) 0.48130(9)
N6 N 0.58866(14) -0.1160(2) 0.49563(9)
H22 H 0.5364 -0.1423 0.4836
C27 C 0.61904(17) 0.2835(2) 0.35843(11)
C28 C 0.59168(19) 0.3640(3) 0.31693(13)
H23 H 0.6326 0.4109 0.3080
C29 C 0.5041(2) 0.3738(3) 0.28930(13)
H24 H 0.4861 0.4273 0.2617
C30 C 0.44289(19) 0.3037(3) 0.30270(13)
H25 H 0.3838 0.3115 0.2845
C31 C 0.46935(18) 0.2231(3) 0.34274(12)
H26 H 0.4280 0.1762 0.3512
C32 C 0.55808(16) 0.2110(2) 0.37096(11)
C33 C 0.58696(15) 0.1247(2) 0.41264(11)
C34 C 0.54307(16) 0.0381(2) 0.42847(11)
H27 H 0.4841 0.0203 0.4146
C35 C 0.60604(16) -0.0195(2) 0.47054(11)
C36 C 0.74434(16) 0.1850(2) 0.44409(11)
C37 C 0.82336(16) 0.1693(2) 0.48157(11)
H28 H 0.8264 0.1179 0.5096
C38 C 0.90191(16) 0.2272(2) 0.48024(12)
C39 C 0.98534(16) 0.1919(2) 0.52131(11)
C40 C 0.99368(18) 0.2052(2) 0.57624(12)
H29 H 0.9475 0.2356 0.5873
C41 C 1.07038(19) 0.1737(3) 0.61510(13)
H30 H 1.0754 0.1847 0.6518
C42 C 1.13919(18) 0.1262(3) 0.59955(14)
C43 C 1.13053(18) 0.1138(2) 0.54470(13)
H31 H 1.1771 0.0834 0.5340
C44 C 1.05488(17) 0.1449(2) 0.50474(12)
C45 C 1.2221(2) 0.0870(3) 0.64115(16)
H32 H 1.2323 0.1335 0.6731
H33 H 1.2707 0.0936 0.6261
H34 H 1.2156 0.0091 0.6506
C46 C 1.0477(2) 0.1248(3) 0.44561(14)
H35 H 0.9938 0.0859 0.4288
H36 H 1.0961 0.0793 0.4426
H37 H 1.0484 0.1965 0.4278
C47 C 0.64444(16) -0.1775(2) 0.53819(11)
C48 C 0.7209(2) -0.1330(3) 0.57228(12)
H38 H 0.7383 -0.0595 0.5668
C49 C 0.7712(2) -0.1981(3) 0.61441(13)
H39 H 0.8222 -0.1672 0.6372
C50 C 0.7478(2) -0.3076(3) 0.62358(13)
H40 H 0.7826 -0.3509 0.6518
C51 C 0.67140(19) -0.3513(3) 0.58965(13)
H41 H 0.6542 -0.4247 0.5954
C52 C 0.62030(18) -0.2881(2) 0.54755(13)
H42 H 0.5692 -0.3193 0.5251
O3 O 0.48411(17) 0.6240(2) 0.20943(13)
C53 C 0.4853(4) 0.7399(5) 0.2237(3)
H43 H 0.4655 0.7487 0.2560
H44 H 0.4464 0.7828 0.1945
C54 C 0.5756(5) 0.7829(6) 0.2342(2)
H45 H 0.5768 0.8627 0.2249
H46 H 0.6091 0.7715 0.2718
C55 C 0.6068(3) 0.7104(5) 0.1973(3)
H47 H 0.6701 0.7034 0.2091
H48 H 0.5893 0.7405 0.1606
C56 C 0.5644(3) 0.5996(4) 0.20015(18)
H49 H 0.5559 0.5582 0.1664
H50 H 0.6003 0.5539 0.2295
loop_
_geom_bond_atom_site_label_1
_geom_bond_atom_site_label_2
_geom_bond_site_symmetry_1
_geom_bond_site_symmetry_2
S1 C1 1_555 1_555
O1 C12 1_555 1_555
N1 N2 1_555 1_555
N2 C9 1_555 1_555
N3 H1 1_555 1_555
C1 C2 1_555 1_555
C2 H2 1_555 1_555
C3 C2 1_555 1_555
H3 C3 1_555 1_555
C4 C3 1_555 1_555
H4 C4 1_555 1_555
C5 C4 1_555 1_555
H5 C5 1_555 1_555
C6 C1 1_555 1_555
C7 N1 1_555 1_555
C8 C7 1_555 1_555
H6 C8 1_555 1_555
C9 N3 1_555 1_555
C10 S1 1_555 1_555
C11 C10 1_555 1_555
H7 C11 1_555 1_555
C12 C11 1_555 1_555
C13 C12 1_555 1_555
C14 C13 1_555 1_555
H8 C14 1_555 1_555
C15 C14 1_555 1_555
H9 C15 1_555 1_555
C16 C15 1_555 1_555
C17 C16 1_555 1_555
H10 C17 1_555 1_555
C18 C13 1_555 1_555
C19 C16 1_555 1_555
H11 C19 1_555 1_555
H12 C19 1_555 1_555
H13 C19 1_555 1_555
C20 C18 1_555 1_555
H14 C20 1_555 1_555
H15 C20 1_555 1_555
H16 C20 1_555 1_555
C21 N3 1_555 1_555
C22 C21 1_555 1_555
H17 C22 1_555 1_555
C23 C22 1_555 1_555
H18 C23 1_555 1_555
C24 C23 1_555 1_555
H19 C24 1_555 1_555
C25 C24 1_555 1_555
H20 C25 1_555 1_555
C26 C21 1_555 1_555
H21 C26 1_555 1_555
S2 C27 1_555 1_555
O2 C38 1_555 1_555
N4 N5 1_555 1_555
N5 C35 1_555 1_555
N6 H22 1_555 1_555
C27 C28 1_555 1_555
C28 H23 1_555 1_555
C29 C28 1_555 1_555
H24 C29 1_555 1_555
C30 C29 1_555 1_555
H25 C30 1_555 1_555
C31 C30 1_555 1_555
H26 C31 1_555 1_555
C32 C27 1_555 1_555
C33 N4 1_555 1_555
C34 C33 1_555 1_555
H27 C34 1_555 1_555
C35 N6 1_555 1_555
C36 S2 1_555 1_555
C37 C36 1_555 1_555
H28 C37 1_555 1_555
C38 C37 1_555 1_555
C39 C38 1_555 1_555
C40 C39 1_555 1_555
H29 C40 1_555 1_555
C41 C40 1_555 1_555
H30 C41 1_555 1_555
C42 C41 1_555 1_555
C43 C42 1_555 1_555
H31 C43 1_555 1_555
C44 C39 1_555 1_555
C45 C42 1_555 1_555
H32 C45 1_555 1_555
H33 C45 1_555 1_555
H34 C45 1_555 1_555
C46 C44 1_555 1_555
H35 C46 1_555 1_555
H36 C46 1_555 1_555
H37 C46 1_555 1_555
C47 N6 1_555 1_555
C48 C47 1_555 1_555
H38 C48 1_555 1_555
C49 C48 1_555 1_555
H39 C49 1_555 1_555
C50 C49 1_555 1_555
H40 C50 1_555 1_555
C51 C50 1_555 1_555
H41 C51 1_555 1_555
C52 C47 1_555 1_555
H42 C52 1_555 1_555
O3 C53 1_555 1_555
C53 H43 1_555 1_555
H44 C53 1_555 1_555
C54 C53 1_555 1_555
H45 C54 1_555 1_555
H46 C54 1_555 1_555
C55 C54 1_555 1_555
H47 C55 1_555 1_555
H48 C55 1_555 1_555
C56 O3 1_555 1_555
H49 C56 1_555 1_555
H50 C56 1_555 1_555
N1 C10 1_555 1_555
C5 C6 1_555 1_555
C6 C7 1_555 1_555
C8 C9 1_555 1_555
C17 C18 1_555 1_555
C25 C26 1_555 1_555
N4 C36 1_555 1_555
C31 C32 1_555 1_555
C32 C33 1_555 1_555
C34 C35 1_555 1_555
C43 C44 1_555 1_555
C51 C52 1_555 1_555
C55 C56 1_555 1_555

#END
