
#######################################################################
#
#                 Cambridge Crystallographic Data Centre
#                                CCDC 
#
#######################################################################
#
# If this CIF has been generated from an entry in the Cambridge 
# Structural Database, then it will include bibliographic, chemical, 
# crystal, experimental, refinement or atomic coordinate data resulting 
# from the CCDC's data processing and validation procedures.
#
#######################################################################

data_WULTUT
_chemical_formula_moiety         'C20 H21 N1 O1'
_chemical_name_systematic        
(1S*,5R*,6R*)-3,6-Diphenyl-2-azabicyclo[3.3.1]non-2-en-1-ol
_symmetry_cell_setting           monoclinic
_symmetry_space_group_name_H-M   'P 21/n'
_symmetry_Int_Tables_number      14
_space_group_name_Hall           '-P 2yn'
loop_
_symmetry_equiv_pos_site_id
_symmetry_equiv_pos_as_xyz
1 x,y,z
2 1/2-x,1/2+y,1/2-z
3 -x,-y,-z
4 1/2+x,1/2-y,1/2+z
_cell_length_a                   10.0059(4)
_cell_length_b                   8.9092(4)
_cell_length_c                   17.2816(8)
_cell_angle_alpha                90
_cell_angle_beta                 94.226(2)
_cell_angle_gamma                90
_cell_volume                     1536.37
_exptl_crystal_colour            colorless
_exptl_crystal_description       block
_chemical_melting_point          '183-184 deg.C'
_cell_formula_units_Z            4
_exptl_crystal_recrystallization_method 'ethyl acetate/hexane'
loop_
_atom_site_label
_atom_site_type_symbol
_atom_site_fract_x
_atom_site_fract_y
_atom_site_fract_z
C1 C 0.2999(2) 0.4480(3) 0.06841(14)
C2 C 0.3266(10) 0.5515(7) 0.1368(5)
C3 C 0.2580(5) 0.6845(7) 0.1424(3)
H1 H 0.1866 0.7068 0.1048
C4 C 0.2899(6) 0.7868(8) 0.2012(4)
H2 H 0.2444 0.8804 0.2018
C5 C 0.3876(8) 0.7527(9) 0.2590(4)
H3 H 0.4080 0.8214 0.3002
C6 C 0.4548(8) 0.6197(10) 0.2568(4)
H4 H 0.5211 0.5940 0.2968
C7 C 0.4252(7) 0.5228(7) 0.1954(4)
H5 H 0.4749 0.4322 0.1933
C8 C 0.32819(19) 0.0962(2) -0.00901(14)
H6 H 0.3933 0.0509 0.0310
C9 C 0.3213(9) -0.0109(6) -0.0784(3)
C10 C 0.2573(13) -0.1480(10) -0.0735(5)
H7 H 0.2174 -0.1729 -0.0270
C11 C 0.2493(13) -0.2494(11) -0.1336(5)
H8 H 0.2017 -0.3408 -0.1291
C12 C 0.3111(7) -0.2177(7) -0.2008(3)
H9 H 0.3091 -0.2886 -0.2419
C13 C 0.3759(11) -0.0815(8) -0.2074(4)
H10 H 0.4167 -0.0577 -0.2538
C14 C 0.3812(10) 0.0197(8) -0.1468(5)
H11 H 0.4268 0.1123 -0.1518
C15 C 0.1947(3) 0.1139(5) 0.0300(3)
H12 H 0.1541 0.0138 0.0364
H13 H 0.2130 0.1583 0.0823
C16 C 0.09574(18) 0.2141(3) -0.01802(12)
H14 H 0.0648 0.1605 -0.0662
H15 H 0.0166 0.2327 0.0118
C17 C 0.15629(19) 0.3645(2) -0.03931(14)
C18 C 0.2823(5) 0.3396(6) -0.0807(3)
H16 H 0.3210 0.4373 -0.0948
H17 H 0.2612 0.2816 -0.1290
C19 C 0.38301(17) 0.2530(3) -0.02652(11)
H18 H 0.4683 0.2412 -0.0526
C20 C 0.41155(15) 0.34490(19) 0.04758(10)
H19 H 0.4318 0.2747 0.0913
H20 H 0.4928 0.4061 0.0419
N1 N 0.1836(4) 0.4554(4) 0.03094(17)
O1 O 0.06701(11) 0.44687(13) -0.09048(6)
H21 H -0.011(2) 0.469(2) -0.0671(11)
C21? C 0.1097(5) 0.2992(8) 0.0031(4)
C22? C 0.1498(11) 0.1469(14) 0.0317(8)
C23? C 0.3015(6) 0.1337(6) 0.0420(4)
C24? C 0.3539(5) 0.2552(6) 0.1001(3)
C25? C 0.2732(7) 0.4017(8) 0.0951(4)
C26? C 0.329(3) 0.518(2) 0.1482(14)
C27? C 0.2637(18) 0.653(2) 0.1495(11)
C28? C 0.297(3) 0.750(2) 0.2095(14)
C29? C 0.408(3) 0.721(3) 0.2589(14)
C30? C 0.482(2) 0.594(3) 0.2515(15)
C31? C 0.391(3) 0.019(3) -0.1632(13)
C32? C 0.4424(19) 0.4881(19) 0.1963(11)
C33? C 0.377(3) -0.100(3) -0.2129(13)
C34? C 0.303(2) -0.223(2) -0.1931(12)
C35? C 0.258(4) -0.229(3) -0.1196(14)
C36? C 0.273(3) -0.106(2) -0.0706(14)
C37? C 0.339(3) 0.0244(17) -0.0924(10)
C38? C 0.3600(6) 0.1558(8) -0.0357(4)
C39? C 0.3128(13) 0.3032(16) -0.0744(9)
C40? C 0.1621(7) 0.3189(8) -0.0758(4)
H22? H 0.1139 0.0703 -0.0058
H23? H 0.1113 0.1278 0.0820
H24? H 0.3267 0.0321 0.0629
H25? H 0.3526 0.2145 0.1533
H26? H 0.4482 0.2780 0.0908
H27? H 0.1970 0.6784 0.1097
H28? H 0.2433 0.8367 0.2169
H29? H 0.4340 0.7911 0.2988
H30? H 0.5612 0.5786 0.2844
H31? H 0.4403 0.1038 -0.1789
H32? H -0.0562 0.3938 -0.0139
H33? H 0.4914 0.3977 0.1915
H34? H 0.4176 -0.0979 -0.2608
H35? H 0.2835 -0.3018 -0.2293
H36? H 0.2171 -0.3183 -0.1024
H37? H 0.2383 -0.1101 -0.0210
H38? H 0.4590 0.1654 -0.0244
H39? H 0.3557 0.3887 -0.0457
H40? H 0.3407 0.3060 -0.1282
H41? H 0.1360 0.4194 -0.0961
H42? H 0.1198 0.2431 -0.1117
N2? N 0.1642(10) 0.4241(12) 0.0553(5)
O2? O -0.0310(3) 0.3084(4) 0.0019(2)
loop_
_geom_bond_atom_site_label_1
_geom_bond_atom_site_label_2
_geom_bond_site_symmetry_1
_geom_bond_site_symmetry_2
C1 C2 1_555 1_555
C2 C3 1_555 1_555
C3 H1 1_555 1_555
C4 C3 1_555 1_555
H2 C4 1_555 1_555
C5 C4 1_555 1_555
H3 C5 1_555 1_555
C6 C5 1_555 1_555
H4 C6 1_555 1_555
C7 C2 1_555 1_555
H5 C7 1_555 1_555
C8 H6 1_555 1_555
C9 C8 1_555 1_555
C10 C9 1_555 1_555
H7 C10 1_555 1_555
C11 C10 1_555 1_555
H8 C11 1_555 1_555
C12 C11 1_555 1_555
H9 C12 1_555 1_555
C13 C12 1_555 1_555
H10 C13 1_555 1_555
C14 C9 1_555 1_555
H11 C14 1_555 1_555
C15 C8 1_555 1_555
H12 C15 1_555 1_555
H13 C15 1_555 1_555
C16 C15 1_555 1_555
H14 C16 1_555 1_555
H15 C16 1_555 1_555
C17 C16 1_555 1_555
C18 C17 1_555 1_555
H16 C18 1_555 1_555
H17 C18 1_555 1_555
C19 C8 1_555 1_555
H18 C19 1_555 1_555
C20 C1 1_555 1_555
H19 C20 1_555 1_555
H20 C20 1_555 1_555
N1 C1 1_555 1_555
O1 C17 1_555 1_555
H21 O1 1_555 1_555
C6 C7 1_555 1_555
C13 C14 1_555 1_555
C17 N1 1_555 1_555
C18 C19 1_555 1_555
C19 C20 1_555 1_555

#END
