
#######################################################################
#
#                 Cambridge Crystallographic Data Centre
#                                CCDC 
#
#######################################################################
#
# If this CIF has been generated from an entry in the Cambridge 
# Structural Database, then it will include bibliographic, chemical, 
# crystal, experimental, refinement or atomic coordinate data resulting 
# from the CCDC's data processing and validation procedures.
#
#######################################################################

data_WUMHOB
_chemical_formula_moiety         'C28 H37 Br1 O8'
_chemical_name_systematic        
'3,7,7,12,19-Pentamethyl-17-oxo-2,8,13,16,18-pentaoxatetracyclo(10.9.0.0^3,9^.0^14,19^)henicos-6-yl 4-bromobenzoate'
_symmetry_cell_setting           orthorhombic
_symmetry_space_group_name_H-M   'P 21 21 21'
_symmetry_Int_Tables_number      19
_space_group_name_Hall           'P 2ac 2ab'
loop_
_symmetry_equiv_pos_site_id
_symmetry_equiv_pos_as_xyz
1 x,y,z
2 1/2-x,-y,1/2+z
3 -x,1/2+y,1/2-z
4 1/2+x,1/2-y,-z
_cell_length_a                   7.08380(10)
_cell_length_b                   12.1709(3)
_cell_length_c                   32.0281(7)
_cell_angle_alpha                90
_cell_angle_beta                 90
_cell_angle_gamma                90
_cell_volume                     2761.34
_exptl_crystal_colour            colorless
_exptl_crystal_description       needle
_cell_formula_units_Z            4
_exptl_crystal_recrystallization_method heptane/dichloromethane
loop_
_atom_site_label
_atom_site_type_symbol
_atom_site_fract_x
_atom_site_fract_y
_atom_site_fract_z
Br1 Br -0.70709(6) 0.31016(4) 0.194904(14)
C1 C 0.0468(6) -0.0529(4) 0.51644(12)
H1 H 0.0543 0.0227 0.5277
H2 H -0.0884 -0.0728 0.5145
C2 C 0.1296(5) -0.0536(3) 0.47309(11)
H3 H 0.0764 -0.1168 0.4570
C3 C 0.0879(5) 0.0660(3) 0.41116(12)
C4 C -0.0415(5) 0.1634(3) 0.40319(11)
H4 H -0.1625 0.1490 0.4177
H5 H -0.0689 0.1658 0.3729
C5 C 0.0269(5) 0.2776(3) 0.41636(11)
H6 H -0.0840 0.3238 0.4231
H7 H 0.1040 0.2706 0.4420
C6 C 0.1432(5) 0.3348(3) 0.38301(11)
H8 H 0.0686 0.3357 0.3565
C7 C 0.1386(5) 0.5315(3) 0.36566(11)
C8 C 0.2302(5) 0.5098(3) 0.32302(10)
H9 H 0.2564 0.5831 0.3101
C9 C 0.0267(6) 0.5104(4) 0.26327(12)
C10 C -0.1471(5) 0.4567(3) 0.24618(11)
C11 C -0.1862(5) 0.3460(3) 0.25163(10)
H10 H -0.0997 0.3005 0.2663
C12 C -0.3506(5) 0.3019(3) 0.23575(10)
H11 H -0.3773 0.2258 0.2387
C13 C -0.4757(5) 0.3707(3) 0.21543(11)
C14 C -0.4433(5) 0.4808(3) 0.20985(11)
H12 H -0.5334 0.5261 0.1962
C15 C -0.2745(5) 0.5243(3) 0.22478(10)
H13 H -0.2458 0.5997 0.2205
C16 C 0.4177(5) 0.4470(3) 0.32412(11)
H14 H 0.4962 0.4787 0.3467
H15 H 0.4843 0.4606 0.2974
C17 C 0.4070(4) 0.3212(3) 0.33090(10)
H16 H 0.3217 0.2899 0.3095
H17 H 0.5342 0.2900 0.3261
C18 C 0.3389(5) 0.2839(3) 0.37374(11)
C19 C 0.2951(5) 0.0998(3) 0.40510(11)
H18 H 0.3309 0.1468 0.4295
C20 C 0.4396(5) 0.0070(3) 0.40235(11)
H19 H 0.5666 0.0405 0.4046
H20 H 0.4300 -0.0252 0.3740
C21 C 0.4311(5) -0.0884(3) 0.43386(11)
H21 H 0.3595 -0.1492 0.4208
H22 H 0.5615 -0.1150 0.4384
C22 C 0.3443(5) -0.0658(3) 0.47614(11)
C23 C 0.2857(6) -0.1896(4) 0.53474(12)
C24 C 0.4445(5) 0.0245(3) 0.50075(11)
H23 H 0.4081 0.0199 0.5302
H24 H 0.4083 0.0965 0.4896
H25 H 0.5814 0.0151 0.4982
C25 C 0.4820(4) 0.3121(3) 0.40765(10)
H26 H 0.4220 0.3059 0.4351
H27 H 0.5272 0.3875 0.4036
H28 H 0.5889 0.2612 0.4060
C26 C -0.0769(5) 0.5472(3) 0.36120(11)
H29 H -0.1352 0.4774 0.3531
H30 H -0.1026 0.6027 0.3398
H31 H -0.1297 0.5715 0.3879
C27 C 0.2265(5) 0.6335(3) 0.38467(10)
H32 H 0.1735 0.6457 0.4126
H33 H 0.1992 0.6971 0.3669
H34 H 0.3634 0.6235 0.3868
C28 C 0.0274(5) -0.0291(3) 0.38350(11)
H35 H 0.1065 -0.0933 0.3894
H36 H 0.0416 -0.0082 0.3541
H37 H -0.1050 -0.0471 0.3891
O1 O 0.3727(3) -0.1712(2) 0.49830(8)
O2 O 0.1377(4) -0.1267(2) 0.54564(8)
O3 O 0.3364(4) -0.2607(2) 0.55802(8)
O4 O 0.0639(3) 0.0456(2) 0.45579(8)
O5 O 0.1752(3) 0.4466(2) 0.39585(7)
O6 O 0.1003(3) 0.4522(2) 0.29524(7)
O7 O 0.0875(4) 0.5966(2) 0.25091(8)
O8 O 0.3187(3) 0.16534(18) 0.36797(7)
loop_
_geom_bond_atom_site_label_1
_geom_bond_atom_site_label_2
_geom_bond_site_symmetry_1
_geom_bond_site_symmetry_2
Br1 C13 1_555 1_555
C1 H1 1_555 1_555
H2 C1 1_555 1_555
C2 C1 1_555 1_555
H3 C2 1_555 1_555
C3 C4 1_555 1_555
C4 H4 1_555 1_555
H5 C4 1_555 1_555
C5 C4 1_555 1_555
H6 C5 1_555 1_555
H7 C5 1_555 1_555
C6 C5 1_555 1_555
H8 C6 1_555 1_555
C7 C8 1_555 1_555
C8 H9 1_555 1_555
C9 C10 1_555 1_555
C10 C11 1_555 1_555
C11 H10 1_555 1_555
C12 C11 1_555 1_555
H11 C12 1_555 1_555
C13 C12 1_555 1_555
C14 C13 1_555 1_555
H12 C14 1_555 1_555
C15 C10 1_555 1_555
H13 C15 1_555 1_555
C16 C8 1_555 1_555
H14 C16 1_555 1_555
H15 C16 1_555 1_555
C17 C16 1_555 1_555
H16 C17 1_555 1_555
H17 C17 1_555 1_555
C18 C6 1_555 1_555
C19 C3 1_555 1_555
H18 C19 1_555 1_555
C20 C19 1_555 1_555
H19 C20 1_555 1_555
H20 C20 1_555 1_555
C21 C20 1_555 1_555
H21 C21 1_555 1_555
H22 C21 1_555 1_555
C22 C2 1_555 1_555
C23 O1 1_555 1_555
C24 C22 1_555 1_555
H23 C24 1_555 1_555
H24 C24 1_555 1_555
H25 C24 1_555 1_555
C25 C18 1_555 1_555
H26 C25 1_555 1_555
H27 C25 1_555 1_555
H28 C25 1_555 1_555
C26 C7 1_555 1_555
H29 C26 1_555 1_555
H30 C26 1_555 1_555
H31 C26 1_555 1_555
C27 C7 1_555 1_555
H32 C27 1_555 1_555
H33 C27 1_555 1_555
H34 C27 1_555 1_555
C28 C3 1_555 1_555
H35 C28 1_555 1_555
H36 C28 1_555 1_555
H37 C28 1_555 1_555
O1 C22 1_555 1_555
O2 C1 1_555 1_555
O3 C23 1_555 1_555
O4 C2 1_555 1_555
O5 C6 1_555 1_555
O6 C8 1_555 1_555
O7 C9 1_555 1_555
O8 C18 1_555 1_555
C3 O4 1_555 1_555
C7 O5 1_555 1_555
C9 O6 1_555 1_555
C14 C15 1_555 1_555
C17 C18 1_555 1_555
C19 O8 1_555 1_555
C21 C22 1_555 1_555
C23 O2 1_555 1_555

#END
