
#######################################################################
#
#                 Cambridge Crystallographic Data Centre
#                                CCDC 
#
#######################################################################
#
# If this CIF has been generated from an entry in the Cambridge 
# Structural Database, then it will include bibliographic, chemical, 
# crystal, experimental, refinement or atomic coordinate data resulting 
# from the CCDC's data processing and validation procedures.
#
#######################################################################

data_WUMSAY
_chemical_formula_moiety         'C23 H28 N3 P3'
_chemical_name_systematic        
cis-2,4-Diethyl-6-methyl-2,4,6-triphenylcyclophosphazene
_symmetry_cell_setting           triclinic
_symmetry_space_group_name_H-M   'P -1'
_symmetry_Int_Tables_number      2
_space_group_name_Hall           '-P 1'
loop_
_symmetry_equiv_pos_site_id
_symmetry_equiv_pos_as_xyz
1 x,y,z
2 -x,-y,-z
_cell_length_a                   10.276(2)
_cell_length_b                   10.699(2)
_cell_length_c                   11.925(2)
_cell_angle_alpha                72.07(2)
_cell_angle_beta                 73.79(1)
_cell_angle_gamma                85.87(2)
_cell_volume                     1197.67
_exptl_crystal_colour            colorless
_exptl_crystal_description       plates
_cell_formula_units_Z            2
loop_
_atom_site_label
_atom_site_type_symbol
_atom_site_fract_x
_atom_site_fract_y
_atom_site_fract_z
P1 P 0.15891(6) 0.80974(6) 0.75359(6)
P2 P 0.34252(7) 0.72575(6) 0.57072(5)
P3 P 0.20413(6) 0.54088(6) 0.78670(6)
N1 N 0.2611(2) 0.83899(19) 0.62013(19)
N2 N 0.2933(2) 0.57748(19) 0.64691(18)
N3 N 0.1307(2) 0.65956(19) 0.83430(19)
C1 C 0.0005(3) 0.8856(3) 0.7379(3)
H1 H -0.0605 0.8756 0.8176
H2 H -0.0385 0.8445 0.6935
H3 H 0.0157 0.9774 0.6942
C2 C 0.3353(3) 0.7539(3) 0.4155(2)
H4 H 0.3787 0.8378 0.3652
H5 H 0.3859 0.6861 0.3841
C3 C 0.0755(3) 0.4228(3) 0.8108(3)
H6 H 0.1189 0.3460 0.7908
H7 H 0.0263 0.3955 0.8969
C4 C 0.1969(5) 0.7541(5) 0.4047(4)
H8 H 0.1993 0.7687 0.3206
H9 H 0.1469 0.8228 0.4331
H10 H 0.1536 0.6709 0.4533
C5 C -0.0250(3) 0.4744(4) 0.7353(3)
H11 H -0.0934 0.4085 0.7558
H12 H 0.0217 0.4951 0.6498
H13 H -0.0666 0.5520 0.7527
C6 C 0.2165(2) 0.8990(2) 0.8373(2)
C7 C 0.2787(3) 1.0206(3) 0.7771(3)
H14 H 0.2942 1.0545 0.6927
C8 C 0.3181(4) 1.0922(3) 0.8401(4)
H15 H 0.3584 1.1747 0.7985
C9 C 0.2983(5) 1.0426(4) 0.9629(4)
H16 H 0.3265 1.0905 1.0053
C10 C 0.2373(6) 0.9228(5) 1.0241(4)
H17 H 0.2224 0.8897 1.1085
C11 C 0.1974(4) 0.8503(3) 0.9610(3)
H18 H 0.1574 0.7678 1.0031
C12 C 0.5211(3) 0.7424(2) 0.5558(2)
C13 C 0.6135(3) 0.6579(3) 0.5093(3)
H19 H 0.5840 0.5946 0.4828
C14 C 0.7480(3) 0.6668(4) 0.5021(3)
H20 H 0.8089 0.6080 0.4728
C15 C 0.7937(3) 0.7627(3) 0.5379(3)
H21 H 0.8852 0.7688 0.5324
C16 C 0.7034(3) 0.8492(3) 0.5818(3)
H22 H 0.7339 0.9145 0.6053
C17 C 0.5682(3) 0.8389(2) 0.5908(2)
H23 H 0.5074 0.8974 0.6207
C18 C 0.3074(2) 0.4529(2) 0.8854(2)
C19 C 0.2517(3) 0.4049(3) 1.0109(3)
H24 H 0.1602 0.4170 1.0443
C20 C 0.3299(4) 0.3397(3) 1.0862(3)
H25 H 0.2913 0.3103 1.1704
C21 C 0.4645(4) 0.3173(3) 1.0391(3)
H26 H 0.5171 0.2717 1.0903
C22 C 0.5194(3) 0.3635(3) 0.9153(3)
H27 H 0.6105 0.3494 0.8823
C23 C 0.4426(3) 0.4306(3) 0.8382(3)
H28 H 0.4820 0.4609 0.7542
loop_
_geom_bond_atom_site_label_1
_geom_bond_atom_site_label_2
_geom_bond_site_symmetry_1
_geom_bond_site_symmetry_2
P1 N1 1_555 1_555
P2 N1 1_555 1_555
P3 N2 1_555 1_555
N2 P2 1_555 1_555
N3 P1 1_555 1_555
C1 P1 1_555 1_555
H1 C1 1_555 1_555
H2 C1 1_555 1_555
H3 C1 1_555 1_555
C2 P2 1_555 1_555
H4 C2 1_555 1_555
H5 C2 1_555 1_555
C3 P3 1_555 1_555
H6 C3 1_555 1_555
H7 C3 1_555 1_555
C4 C2 1_555 1_555
H8 C4 1_555 1_555
H9 C4 1_555 1_555
H10 C4 1_555 1_555
C5 C3 1_555 1_555
H11 C5 1_555 1_555
H12 C5 1_555 1_555
H13 C5 1_555 1_555
C6 P1 1_555 1_555
C7 C6 1_555 1_555
H14 C7 1_555 1_555
C8 C7 1_555 1_555
H15 C8 1_555 1_555
C9 C8 1_555 1_555
H16 C9 1_555 1_555
C10 C9 1_555 1_555
H17 C10 1_555 1_555
C11 C6 1_555 1_555
H18 C11 1_555 1_555
C12 P2 1_555 1_555
C13 C12 1_555 1_555
H19 C13 1_555 1_555
C14 C13 1_555 1_555
H20 C14 1_555 1_555
C15 C14 1_555 1_555
H21 C15 1_555 1_555
C16 C15 1_555 1_555
H22 C16 1_555 1_555
C17 C12 1_555 1_555
H23 C17 1_555 1_555
C18 P3 1_555 1_555
C19 C18 1_555 1_555
H24 C19 1_555 1_555
C20 C19 1_555 1_555
H25 C20 1_555 1_555
C21 C20 1_555 1_555
H26 C21 1_555 1_555
C22 C21 1_555 1_555
H27 C22 1_555 1_555
C23 C18 1_555 1_555
H28 C23 1_555 1_555
P3 N3 1_555 1_555
C10 C11 1_555 1_555
C16 C17 1_555 1_555
C22 C23 1_555 1_555

#END
