
#######################################################################
#
#                 Cambridge Crystallographic Data Centre
#                                CCDC 
#
#######################################################################
#
# If this CIF has been generated from an entry in the Cambridge 
# Structural Database, then it will include bibliographic, chemical, 
# crystal, experimental, refinement or atomic coordinate data resulting 
# from the CCDC's data processing and validation procedures.
#
#######################################################################

data_WUPHOF
_chemical_formula_moiety         'C19 H20 Br1 Cl1 N2 O3 S1'
_chemical_name_systematic        
N-(4-Bromobenzyl)-4-chloro-N-(2-oxoazepan-3-yl)benzenesulfonamide
_symmetry_cell_setting           monoclinic
_symmetry_space_group_name_H-M   'P 21'
_symmetry_Int_Tables_number      4
_space_group_name_Hall           'P 2yb'
loop_
_symmetry_equiv_pos_site_id
_symmetry_equiv_pos_as_xyz
1 x,y,z
2 -x,1/2+y,-z
_cell_length_a                   9.7069(4)
_cell_length_b                   9.1790(9)
_cell_length_c                   11.7094(7)
_cell_angle_alpha                90
_cell_angle_beta                 96.797(3)
_cell_angle_gamma                90
_cell_volume                     1035.97
_exptl_crystal_description       plate
_cell_formula_units_Z            2
loop_
_atom_site_label
_atom_site_type_symbol
_atom_site_fract_x
_atom_site_fract_y
_atom_site_fract_z
Br1 Br 0.77520(3) 0.99469(5) 0.63068(3)
Cl1 Cl 0.21379(9) 0.96233(9) -0.43081(6)
S1 S 0.34566(6) 1.20170(7) 0.06963(5)
O1 O 0.0911(2) 0.9137(2) 0.03542(18)
O2 O 0.28193(18) 1.3426(2) 0.07264(15)
O3 O 0.49228(16) 1.1882(2) 0.09800(14)
N1 N 0.2759(2) 1.0989(2) 0.15996(17)
N2 N -0.0959(2) 1.0500(3) 0.0609(2)
C1 C 0.1260(2) 1.1136(3) 0.1688(2)
C2 C 0.0388(2) 1.0169(3) 0.08127(19)
C3 C -0.1706(3) 1.1559(4) 0.1237(2)
C4 C -0.1710(3) 1.1180(4) 0.2500(3)
C5 C -0.0363(3) 1.1537(4) 0.3241(2)
C6 C 0.0941(3) 1.0777(4) 0.2913(2)
C7 C 0.3485(2) 0.9624(3) 0.1943(2)
C8 C 0.3050(3) 1.1320(3) -0.0712(2)
C9 C 0.3998(3) 1.0394(3) -0.1151(2)
C10 C 0.3702(3) 0.9848(4) -0.2255(2)
C11 C 0.2476(3) 1.0244(3) -0.2899(2)
C12 C 0.1527(3) 1.1148(4) -0.2467(2)
C13 C 0.1805(3) 1.1691(3) -0.1357(2)
C14 C 0.4577(2) 0.9788(3) 0.29813(19)
C15 C 0.4722(3) 1.1034(3) 0.3652(2)
C16 C 0.5682(3) 1.1087(4) 0.4624(2)
C17 C 0.6499(2) 0.9882(4) 0.4922(2)
C18 C 0.6412(3) 0.8649(3) 0.4255(2)
C19 C 0.5448(3) 0.8604(3) 0.3287(2)
H1 H 0.0991 1.2172 0.1521
H2 H -0.143(3) 0.995(4) 0.017(3)
H3 H -0.2677 1.1621 0.0870
H4 H -0.1276 1.2530 0.1177
H5 H -0.2475 1.1716 0.2801
H6 H -0.1899 1.0126 0.2567
H7 H -0.0470 1.1281 0.4047
H8 H -0.0215 1.2603 0.3213
H9 H 0.0823 0.9710 0.2980
H10 H 0.1745 1.1068 0.3467
H11 H 0.4839 1.0140 -0.0696
H12 H 0.4333 0.9210 -0.2565
H13 H 0.0688 1.1398 -0.2927
H14 H 0.1156 1.2304 -0.1044
H15 H 0.4158 1.1860 0.3442
H16 H 0.5778 1.1943 0.5082
H17 H 0.7003 0.7840 0.4455
H18 H 0.5377 0.7754 0.2821
H19 H 0.3937 0.9253 0.1286
H20 H 0.2794 0.8890 0.2121
loop_
_geom_bond_atom_site_label_1
_geom_bond_atom_site_label_2
_geom_bond_site_symmetry_1
_geom_bond_site_symmetry_2
Br1 C17 1_555 1_555
Cl1 C11 1_555 1_555
S1 O2 1_555 1_555
O1 C2 1_555 1_555
O3 S1 1_555 1_555
N1 S1 1_555 1_555
N2 C2 1_555 1_555
C1 N1 1_555 1_555
C2 C1 1_555 1_555
C3 N2 1_555 1_555
C4 C3 1_555 1_555
C5 C4 1_555 1_555
C6 C1 1_555 1_555
C7 N1 1_555 1_555
C8 S1 1_555 1_555
C9 C8 1_555 1_555
C10 C9 1_555 1_555
C11 C10 1_555 1_555
C12 C11 1_555 1_555
C13 C8 1_555 1_555
C14 C7 1_555 1_555
C15 C14 1_555 1_555
C16 C15 1_555 1_555
C17 C16 1_555 1_555
C18 C17 1_555 1_555
C19 C14 1_555 1_555
H1 C1 1_555 1_555
H2 N2 1_555 1_555
H3 C3 1_555 1_555
H4 C3 1_555 1_555
H5 C4 1_555 1_555
H6 C4 1_555 1_555
H7 C5 1_555 1_555
H8 C5 1_555 1_555
H9 C6 1_555 1_555
H10 C6 1_555 1_555
H11 C9 1_555 1_555
H12 C10 1_555 1_555
H13 C12 1_555 1_555
H14 C13 1_555 1_555
H15 C15 1_555 1_555
H16 C16 1_555 1_555
H17 C18 1_555 1_555
H18 C19 1_555 1_555
H19 C7 1_555 1_555
H20 C7 1_555 1_555
C5 C6 1_555 1_555
C12 C13 1_555 1_555
C18 C19 1_555 1_555

#END
