
#######################################################################
#
#                 Cambridge Crystallographic Data Centre
#                                CCDC 
#
#######################################################################
#
# If this CIF has been generated from an entry in the Cambridge 
# Structural Database, then it will include bibliographic, chemical, 
# crystal, experimental, refinement or atomic coordinate data resulting 
# from the CCDC's data processing and validation procedures.
#
#######################################################################

data_WUPPUU
_chemical_formula_moiety         'C24 H20 N2 O4'
_chemical_name_systematic        
'5-(3,4-dimethoxyphenyl)-1-phenyl-1H-pyrazol-3-yl benzoate'
_symmetry_cell_setting           triclinic
_symmetry_space_group_name_H-M   'P -1'
_symmetry_Int_Tables_number      2
_space_group_name_Hall           '-P 1'
loop_
_symmetry_equiv_pos_site_id
_symmetry_equiv_pos_as_xyz
1 x,y,z
2 -x,-y,-z
_cell_length_a                   9.3040(19)
_cell_length_b                   10.507(2)
_cell_length_c                   12.075(2)
_cell_angle_alpha                68.70(3)
_cell_angle_beta                 81.40(3)
_cell_angle_gamma                67.99(3)
_cell_volume                     1019.51
_cell_formula_units_Z            2
loop_
_atom_site_label
_atom_site_type_symbol
_atom_site_fract_x
_atom_site_fract_y
_atom_site_fract_z
O1 O 0.3556(3) 0.9295(3) 0.2857(2)
N1 N 0.8710(3) 0.4582(3) -0.0943(2)
C1 C 0.4171(7) 0.9044(5) 0.3960(4)
H1 H 0.3437 0.9674 0.4353
H2 H 0.5121 0.9243 0.3817
H3 H 0.4368 0.8047 0.4454
O2 O 0.2463(3) 0.9937(3) 0.0805(2)
N2 N 0.7781(3) 0.4887(3) -0.0008(2)
C2 C 0.1860(4) 1.0374(4) -0.0331(4)
H4 H 0.0877 1.1149 -0.0403
H5 H 0.1726 0.9563 -0.0437
H6 H 0.2566 1.0708 -0.0928
O3 O 0.9427(3) 0.5939(3) -0.2755(2)
C3 C 0.3861(4) 0.8856(3) 0.1060(3)
C4 C 0.4709(4) 0.8111(4) 0.0302(3)
H7 H 0.4322 0.8355 -0.0443
O4 O 0.7426(3) 0.7442(3) -0.3969(2)
C5 C 0.6126(4) 0.7009(4) 0.0637(3)
C6 C 0.6674(4) 0.6644(4) 0.1738(3)
H8 H 0.7618 0.5896 0.1973
C7 C 0.5830(5) 0.7384(4) 0.2516(3)
H9 H 0.6211 0.7128 0.3266
C8 C 0.4445(4) 0.8486(4) 0.2170(3)
C9 C 0.7054(4) 0.6345(4) -0.0241(3)
C10 C 0.7479(4) 0.7014(4) -0.1374(3)
H10 H 0.7157 0.8006 -0.1805
C11 C 0.8498(4) 0.5878(4) -0.1735(3)
C12 C 0.7695(4) 0.3685(4) 0.1016(3)
C13 C 0.9009(4) 0.2493(4) 0.1417(3)
H11 H 0.9951 0.2481 0.1024
C14 C 0.8951(5) 0.1320(4) 0.2389(4)
H12 H 0.9850 0.0525 0.2661
C15 C 0.7552(6) 0.1327(5) 0.2962(4)
H13 H 0.7501 0.0529 0.3615
C16 C 0.6241(5) 0.2509(5) 0.2566(3)
H14 H 0.5303 0.2520 0.2966
C17 C 0.6287(4) 0.3697(4) 0.1575(3)
H15 H 0.5385 0.4484 0.1293
C18 C 0.8777(4) 0.6767(4) -0.3839(3)
C19 C 0.9958(4) 0.6702(3) -0.4797(3)
C20 C 0.9476(5) 0.7141(4) -0.5929(4)
H16 H 0.8420 0.7525 -0.6080
C21 C 1.0530(7) 0.7029(5) -0.6863(4)
H17 H 1.0184 0.7333 -0.7632
C22 C 1.2048(7) 0.6479(5) -0.6644(4)
H18 H 1.2761 0.6388 -0.7264
C23 C 1.2555(5) 0.6056(6) -0.5533(4)
H19 H 1.3615 0.5680 -0.5396
C24 C 1.1506(5) 0.6176(5) -0.4584(4)
H20 H 1.1860 0.5902 -0.3821
loop_
_geom_bond_atom_site_label_1
_geom_bond_atom_site_label_2
_geom_bond_site_symmetry_1
_geom_bond_site_symmetry_2
O1 C1 1_555 1_555
N1 N2 1_555 1_555
C1 H1 1_555 1_555
H2 C1 1_555 1_555
H3 C1 1_555 1_555
O2 C2 1_555 1_555
N2 C9 1_555 1_555
C2 H4 1_555 1_555
H5 C2 1_555 1_555
H6 C2 1_555 1_555
O3 C11 1_555 1_555
C3 O2 1_555 1_555
C4 C3 1_555 1_555
H7 C4 1_555 1_555
O4 C18 1_555 1_555
C5 C4 1_555 1_555
C6 C5 1_555 1_555
H8 C6 1_555 1_555
C7 C6 1_555 1_555
H9 C7 1_555 1_555
C8 O1 1_555 1_555
C9 C5 1_555 1_555
C10 C9 1_555 1_555
H10 C10 1_555 1_555
C11 N1 1_555 1_555
C12 N2 1_555 1_555
C13 C12 1_555 1_555
H11 C13 1_555 1_555
C14 C13 1_555 1_555
H12 C14 1_555 1_555
C15 C14 1_555 1_555
H13 C15 1_555 1_555
C16 C15 1_555 1_555
H14 C16 1_555 1_555
C17 C12 1_555 1_555
H15 C17 1_555 1_555
C18 O3 1_555 1_555
C19 C18 1_555 1_555
C20 C19 1_555 1_555
H16 C20 1_555 1_555
C21 C20 1_555 1_555
H17 C21 1_555 1_555
C22 C21 1_555 1_555
H18 C22 1_555 1_555
C23 C22 1_555 1_555
H19 C23 1_555 1_555
C24 C19 1_555 1_555
H20 C24 1_555 1_555
C3 C8 1_555 1_555
C7 C8 1_555 1_555
C10 C11 1_555 1_555
C16 C17 1_555 1_555
C23 C24 1_555 1_555

#END
