
#######################################################################
#
#                 Cambridge Crystallographic Data Centre
#                                CCDC 
#
#######################################################################
#
# If this CIF has been generated from an entry in the Cambridge 
# Structural Database, then it will include bibliographic, chemical, 
# crystal, experimental, refinement or atomic coordinate data resulting 
# from the CCDC's data processing and validation procedures.
#
#######################################################################

data_WUPQEF
_chemical_formula_moiety         'C8 H9 Cl1 O3 S1'
_chemical_name_systematic        (2-Chloro-4-(methylsulfonyl)phenyl)methanol
_symmetry_cell_setting           monoclinic
_symmetry_space_group_name_H-M   'P 21/c'
_symmetry_Int_Tables_number      14
_space_group_name_Hall           '-P 2ybc'
loop_
_symmetry_equiv_pos_site_id
_symmetry_equiv_pos_as_xyz
1 x,y,z
2 -x,1/2+y,1/2-z
3 -x,-y,-z
4 x,1/2-y,1/2+z
_cell_length_a                   8.208(4)
_cell_length_b                   4.870(2)
_cell_length_c                   23.349(10)
_cell_angle_alpha                90
_cell_angle_beta                 97.160(6)
_cell_angle_gamma                90
_cell_volume                     926.051
_exptl_crystal_colour            colorless
_exptl_crystal_description       rod
_cell_formula_units_Z            4
loop_
_atom_site_label
_atom_site_type_symbol
_atom_site_fract_x
_atom_site_fract_y
_atom_site_fract_z
O1 O 0.9273(3) 0.7538(4) 0.01270(9)
O2 O 0.4704(2) -0.1600(4) 0.19898(8)
O3 O 0.3446(2) -0.1863(4) 0.09796(8)
S1 S 0.40988(7) -0.02236(11) 0.14636(3)
C1 C 0.7998(3) 0.5444(4) 0.08993(10)
C2 C 0.6900(3) 0.4083(5) 0.04949(10)
H1 H 0.6955 0.4358 0.0104
C3 C 0.5729(3) 0.2329(5) 0.06649(10)
H2 H 0.4983 0.1469 0.0390
C4 C 0.5669(3) 0.1858(4) 0.12466(10)
C5 C 0.6749(3) 0.3157(4) 0.16621(9)
H3 H 0.6705 0.2846 0.2053
C6 C 0.7891(3) 0.4923(4) 0.14806(10)
C7 C 0.2609(3) 0.2131(6) 0.16178(15)
H4 H 0.1706 0.1166 0.1749
H5 H 0.2226 0.3151 0.1276
H6 H 0.3077 0.3370 0.1913
C8 C 0.9236(3) 0.7454(5) 0.07279(11)
H7 H 0.8979 0.9270 0.0862
H8 H 1.0316 0.6954 0.0916
Cl1 Cl 0.92172(8) 0.66332(15) 0.19996(3)
H9 H 0.977(5) 0.627(6) 0.0038(14)
loop_
_geom_bond_atom_site_label_1
_geom_bond_atom_site_label_2
_geom_bond_site_symmetry_1
_geom_bond_site_symmetry_2
O1 C8 1_555 1_555
O2 S1 1_555 1_555
O3 S1 1_555 1_555
S1 C4 1_555 1_555
C1 C2 1_555 1_555
C2 H1 1_555 1_555
C3 C2 1_555 1_555
H2 C3 1_555 1_555
C4 C3 1_555 1_555
C5 C4 1_555 1_555
H3 C5 1_555 1_555
C6 C1 1_555 1_555
C7 S1 1_555 1_555
H4 C7 1_555 1_555
H5 C7 1_555 1_555
H6 C7 1_555 1_555
C8 C1 1_555 1_555
H7 C8 1_555 1_555
H8 C8 1_555 1_555
Cl1 C6 1_555 1_555
H9 O1 1_555 1_555
C5 C6 1_555 1_555

#END
