
#######################################################################
#
#                 Cambridge Crystallographic Data Centre
#                                CCDC 
#
#######################################################################
#
# If this CIF has been generated from an entry in the Cambridge 
# Structural Database, then it will include bibliographic, chemical, 
# crystal, experimental, refinement or atomic coordinate data resulting 
# from the CCDC's data processing and validation procedures.
#
#######################################################################

data_WUQYIS
_chemical_formula_moiety         'C24 H35 N3 O6 S2'
_chemical_name_systematic        
'Methyl N,N-bis(2-(((4-methylphenyl)sulfonyl)amino)ethyl)valinate'
_symmetry_cell_setting           triclinic
_symmetry_space_group_name_H-M   'P 1'
_symmetry_Int_Tables_number      1
_space_group_name_Hall           'P 1'
loop_
_symmetry_equiv_pos_site_id
_symmetry_equiv_pos_as_xyz
1 x,y,z
_cell_length_a                   8.2313(19)
_cell_length_b                   9.754(2)
_cell_length_c                   16.764(4)
_cell_angle_alpha                106.017(7)
_cell_angle_beta                 93.101(12)
_cell_angle_gamma                96.206(9)
_cell_volume                     1281.15
_exptl_crystal_colour            colorless
_exptl_crystal_description       Prism
_cell_formula_units_Z            2
loop_
_atom_site_label
_atom_site_type_symbol
_atom_site_fract_x
_atom_site_fract_y
_atom_site_fract_z
S1 S 0.44217(15) 0.72887(12) 0.41118(8)
S2 S 0.49855(14) 0.24171(12) 0.45960(8)
O1 O 0.3927(5) 0.8172(4) 0.3598(2)
O2 O 0.5861(4) 0.7789(4) 0.4694(2)
O3 O 0.5979(5) 0.3111(4) 0.0516(2)
O4 O 0.6365(4) 0.0977(3) 0.0677(2)
O5 O 0.4902(4) 0.3854(3) 0.4511(2)
O6 O 0.6395(4) 0.2132(4) 0.5035(2)
N1 N 0.4765(5) 0.5779(4) 0.3477(3)
H1 H 0.545(4) 0.536(4) 0.374(2)
N2 N 0.5203(5) 0.2989(4) 0.2334(2)
N3 N 0.4881(5) 0.1326(4) 0.3662(3)
H2 H 0.518(4) 0.056(2) 0.379(2)
C1 C 0.2756(6) 0.6945(5) 0.4666(3)
C2 C 0.1164(6) 0.6905(5) 0.4322(3)
H3 H 0.0990 0.7056 0.3789
C3 C -0.0175(6) 0.6641(5) 0.4762(4)
H4 H -0.1259 0.6617 0.4529
C4 C 0.0077(7) 0.6414(5) 0.5538(4)
C5 C 0.1688(7) 0.6462(5) 0.5881(4)
H5 H 0.1873 0.6320 0.6415
C6 C 0.3004(6) 0.6718(5) 0.5437(3)
H6 H 0.4090 0.6738 0.5666
C7 C -0.1394(7) 0.6146(6) 0.6022(4)
H7 H -0.2413 0.6053 0.5669
H8 H -0.1377 0.6955 0.6523
H9 H -0.1335 0.5258 0.6182
C8 C 0.3405(6) 0.4907(5) 0.2881(3)
H10 H 0.2687 0.5544 0.2708
H11 H 0.2739 0.4280 0.3148
C9 C 0.4118(5) 0.3983(5) 0.2117(3)
H12 H 0.3206 0.3413 0.1712
H13 H 0.4753 0.4622 0.1846
C10 C 0.6722(5) 0.3001(4) 0.1901(3)
H14 H 0.7140 0.4040 0.1999
C11 C 0.6348(6) 0.2409(5) 0.0971(3)
C12 C 0.6014(7) 0.0399(5) -0.0228(3)
H15 H 0.4847 0.0404 -0.0379
H16 H 0.6281 -0.0589 -0.0407
H17 H 0.6677 0.0996 -0.0505
C13 C 0.8081(4) 0.2374(4) 0.2285(2)
H18 H 0.7694 0.1354 0.2259
C14 C 0.8551(6) 0.3253(5) 0.3200(3)
H19 H 0.8858 0.4266 0.3229
H20 H 0.9480 0.2885 0.3426
H21 H 0.7613 0.3168 0.3527
C15 C 0.9604(6) 0.2426(6) 0.1801(3)
H22 H 0.9313 0.1905 0.1212
H23 H 1.0455 0.1977 0.2030
H24 H 1.0018 0.3429 0.1850
C16 C 0.4339(5) 0.1525(5) 0.2248(3)
H25 H 0.5126 0.0817 0.2092
H26 H 0.3457 0.1292 0.1788
C17 C 0.3600(5) 0.1365(5) 0.3024(3)
H27 H 0.2980 0.2182 0.3247
H28 H 0.2824 0.0468 0.2885
C18 C 0.3222(6) 0.1959(5) 0.5058(3)
C19 C 0.1900(6) 0.2725(5) 0.5091(3)
H29 H 0.1955 0.3544 0.4887
C20 C 0.0476(6) 0.2292(5) 0.5427(3)
H30 H -0.0438 0.2815 0.5448
C21 C 0.0401(6) 0.1107(5) 0.5726(3)
C22 C 0.1755(6) 0.0347(5) 0.5700(3)
H31 H 0.1709 -0.0465 0.5910
C23 C 0.3166(6) 0.0778(5) 0.5367(3)
H32 H 0.4087 0.0266 0.5352
C24 C -0.1147(6) 0.0617(6) 0.6093(3)
H33 H -0.0837 0.0365 0.6602
H34 H -0.1763 -0.0226 0.5687
H35 H -0.1833 0.1397 0.6224
S3 S -0.01774(14) 0.77147(12) 0.87179(8)
S4 S 0.02024(14) 0.27496(12) 0.91299(8)
O7 O -0.1578(4) 0.8161(4) 0.8364(2)
O8 O -0.0212(4) 0.6263(3) 0.8738(2)
O9 O -0.1298(4) 0.7005(4) 1.2668(2)
O10 O -0.1341(4) 0.9345(3) 1.2772(2)
O11 O 0.0630(4) 0.1868(3) 0.9652(2)
O12 O -0.1195(4) 0.2267(4) 0.8530(2)
N4 N 0.0168(5) 0.8733(4) 0.9682(3)
H36 H 0.017(4) 0.9680(14) 0.976(2)
N5 N -0.0298(4) 0.7232(4) 1.0968(2)
N6 N -0.0125(5) 0.4283(4) 0.9759(3)
H37 H -0.032(4) 0.486(4) 0.944(2)
C25 C 0.1563(6) 0.8135(5) 0.8205(3)
C26 C 0.1608(6) 0.9293(5) 0.7883(3)
H38 H 0.0677 0.9788 0.7879
C27 C 0.3029(6) 0.9723(5) 0.7566(3)
H39 H 0.3068 1.0529 0.7349
C28 C 0.4396(6) 0.9008(5) 0.7555(3)
C29 C 0.4305(6) 0.7832(6) 0.7878(3)
H40 H 0.5223 0.7317 0.7868
C30 C 0.2916(6) 0.7400(5) 0.8211(3)
H41 H 0.2881 0.6611 0.8441
C31 C 0.5923(6) 0.9497(5) 0.7210(3)
H42 H 0.5839 0.9060 0.6606
H43 H 0.6874 0.9205 0.7468
H44 H 0.6055 1.0547 0.7331
C32 C 0.1554(5) 0.8501(5) 1.0200(3)
H45 H 0.2450 0.9304 1.0284
H46 H 0.1978 0.7600 0.9909
C33 C 0.1022(5) 0.8404(4) 1.1050(3)
H47 H 0.1978 0.8256 1.1387
H48 H 0.0650 0.9325 1.1349
C34 C -0.1729(5) 0.7719(4) 1.1405(2)
H49 H -0.1870 0.8678 1.1323
C35 C -0.1432(6) 0.7945(5) 1.2348(3)
C36 C -0.1109(7) 0.9659(6) 1.3669(3)
H50 H -0.1923 0.9035 1.3858
H51 H -0.1242 1.0667 1.3927
H52 H -0.0003 0.9487 1.3831
C37 C -0.3332(5) 0.6737(4) 1.1064(2)
H53 H -0.3230 0.5776 1.1153
C38 C -0.4740(6) 0.7362(5) 1.1544(4)
H54 H -0.4503 0.7463 1.2139
H55 H -0.5763 0.6715 1.1336
H56 H -0.4855 0.8307 1.1466
C39 C -0.3701(6) 0.6529(6) 1.0142(3)
H57 H -0.4697 0.5844 0.9938
H58 H -0.2778 0.6155 0.9843
H59 H -0.3867 0.7453 1.0047
C40 C 0.0270(6) 0.5954(5) 1.1154(3)
H60 H -0.0682 0.5374 1.1290
H61 H 0.1062 0.6283 1.1655
C41 C 0.1074(6) 0.4997(5) 1.0455(3)
H62 H 0.1952 0.5585 1.0270
H63 H 0.1581 0.4269 1.0660
C42 C 0.1950(6) 0.3076(5) 0.8596(3)
C43 C 0.1739(6) 0.3361(5) 0.7831(3)
H64 H 0.0671 0.3374 0.7590
C44 C 0.3111(7) 0.3625(5) 0.7428(3)
H65 H 0.2978 0.3817 0.6905
C45 C 0.4666(7) 0.3613(5) 0.7772(4)
C46 C 0.4833(6) 0.3328(5) 0.8531(3)
H66 H 0.5901 0.3323 0.8774
C47 C 0.3496(6) 0.3052(5) 0.8946(3)
H67 H 0.3636 0.2847 0.9465
C48 C 0.6134(7) 0.3927(6) 0.7313(4)
H68 H 0.6712 0.4883 0.7602
H69 H 0.5762 0.3899 0.6743
H70 H 0.6878 0.3202 0.7298
loop_
_geom_bond_atom_site_label_1
_geom_bond_atom_site_label_2
_geom_bond_site_symmetry_1
_geom_bond_site_symmetry_2
S1 O1 1_555 1_555
S2 O5 1_555 1_555
O2 S1 1_555 1_555
O3 C11 1_555 1_555
O4 C11 1_555 1_555
O6 S2 1_555 1_555
N1 S1 1_555 1_555
H1 N1 1_555 1_555
N2 C9 1_555 1_555
N3 S2 1_555 1_555
H2 N3 1_555 1_555
C1 S1 1_555 1_555
C2 C1 1_555 1_555
H3 C2 1_555 1_555
C3 C2 1_555 1_555
H4 C3 1_555 1_555
C4 C3 1_555 1_555
C5 C4 1_555 1_555
H5 C5 1_555 1_555
C6 C1 1_555 1_555
H6 C6 1_555 1_555
C7 C4 1_555 1_555
H7 C7 1_555 1_555
H8 C7 1_555 1_555
H9 C7 1_555 1_555
C8 N1 1_555 1_555
H10 C8 1_555 1_555
H11 C8 1_555 1_555
C9 C8 1_555 1_555
H12 C9 1_555 1_555
H13 C9 1_555 1_555
C10 N2 1_555 1_555
H14 C10 1_555 1_555
C11 C10 1_555 1_555
C12 O4 1_555 1_555
H15 C12 1_555 1_555
H16 C12 1_555 1_555
H17 C12 1_555 1_555
C13 C10 1_555 1_555
H18 C13 1_555 1_555
C14 C13 1_555 1_555
H19 C14 1_555 1_555
H20 C14 1_555 1_555
H21 C14 1_555 1_555
C15 C13 1_555 1_555
H22 C15 1_555 1_555
H23 C15 1_555 1_555
H24 C15 1_555 1_555
C16 N2 1_555 1_555
H25 C16 1_555 1_555
H26 C16 1_555 1_555
C17 N3 1_555 1_555
H27 C17 1_555 1_555
H28 C17 1_555 1_555
C18 S2 1_555 1_555
C19 C18 1_555 1_555
H29 C19 1_555 1_555
C20 C19 1_555 1_555
H30 C20 1_555 1_555
C21 C20 1_555 1_555
C22 C21 1_555 1_555
H31 C22 1_555 1_555
C23 C18 1_555 1_555
H32 C23 1_555 1_555
C24 C21 1_555 1_555
H33 C24 1_555 1_555
H34 C24 1_555 1_555
H35 C24 1_555 1_555
S3 O7 1_555 1_555
S4 O11 1_555 1_555
O8 S3 1_555 1_555
O9 C35 1_555 1_555
O10 C35 1_555 1_555
O12 S4 1_555 1_555
N4 S3 1_555 1_555
H36 N4 1_555 1_555
N5 C33 1_555 1_555
N6 S4 1_555 1_555
H37 N6 1_555 1_555
C25 S3 1_555 1_555
C26 C25 1_555 1_555
H38 C26 1_555 1_555
C27 C26 1_555 1_555
H39 C27 1_555 1_555
C28 C27 1_555 1_555
C29 C28 1_555 1_555
H40 C29 1_555 1_555
C30 C25 1_555 1_555
H41 C30 1_555 1_555
C31 C28 1_555 1_555
H42 C31 1_555 1_555
H43 C31 1_555 1_555
H44 C31 1_555 1_555
C32 N4 1_555 1_555
H45 C32 1_555 1_555
H46 C32 1_555 1_555
C33 C32 1_555 1_555
H47 C33 1_555 1_555
H48 C33 1_555 1_555
C34 N5 1_555 1_555
H49 C34 1_555 1_555
C35 C34 1_555 1_555
C36 O10 1_555 1_555
H50 C36 1_555 1_555
H51 C36 1_555 1_555
H52 C36 1_555 1_555
C37 C34 1_555 1_555
H53 C37 1_555 1_555
C38 C37 1_555 1_555
H54 C38 1_555 1_555
H55 C38 1_555 1_555
H56 C38 1_555 1_555
C39 C37 1_555 1_555
H57 C39 1_555 1_555
H58 C39 1_555 1_555
H59 C39 1_555 1_555
C40 N5 1_555 1_555
H60 C40 1_555 1_555
H61 C40 1_555 1_555
C41 N6 1_555 1_555
H62 C41 1_555 1_555
H63 C41 1_555 1_555
C42 S4 1_555 1_555
C43 C42 1_555 1_555
H64 C43 1_555 1_555
C44 C43 1_555 1_555
H65 C44 1_555 1_555
C45 C44 1_555 1_555
C46 C45 1_555 1_555
H66 C46 1_555 1_555
C47 C42 1_555 1_555
H67 C47 1_555 1_555
C48 C45 1_555 1_555
H68 C48 1_555 1_555
H69 C48 1_555 1_555
H70 C48 1_555 1_555
C5 C6 1_555 1_555
C16 C17 1_555 1_555
C22 C23 1_555 1_555
C29 C30 1_555 1_555
C40 C41 1_555 1_555
C46 C47 1_555 1_555

#END
