
#######################################################################
#
#                 Cambridge Crystallographic Data Centre
#                                CCDC 
#
#######################################################################
#
# If this CIF has been generated from an entry in the Cambridge 
# Structural Database, then it will include bibliographic, chemical, 
# crystal, experimental, refinement or atomic coordinate data resulting 
# from the CCDC's data processing and validation procedures.
#
#######################################################################

data_WURLEC
_chemical_formula_moiety         'C27 H20 N2'
_chemical_name_systematic        1,3,4,5-tetraphenyl-1H-pyrazole
_symmetry_cell_setting           monoclinic
_symmetry_space_group_name_H-M   'P 21'
_symmetry_Int_Tables_number      4
_space_group_name_Hall           'P 2yb'
loop_
_symmetry_equiv_pos_site_id
_symmetry_equiv_pos_as_xyz
1 x,y,z
2 -x,1/2+y,-z
_cell_length_a                   9.9297(3)
_cell_length_b                   9.6354(3)
_cell_length_c                   10.6037(3)
_cell_angle_alpha                90
_cell_angle_beta                 90.080(2)
_cell_angle_gamma                90
_cell_volume                     1014.53
_exptl_crystal_colour            colorless
_exptl_crystal_description       block
_chemical_melting_point          '475.15 K'
_cell_formula_units_Z            2
_exptl_crystal_recrystallization_method 'vapour deposition'
loop_
_atom_site_label
_atom_site_type_symbol
_atom_site_fract_x
_atom_site_fract_y
_atom_site_fract_z
C1 C 0.83904(18) 0.2171(2) 0.24099(18)
C2 C 0.6131(2) 0.0599(2) 0.00692(19)
C3 C 0.8865(2) 0.2501(2) 0.00687(19)
C4 C 0.80809(19) 0.1948(2) 0.11444(18)
C5 C 0.69189(19) 0.1155(2) 0.11427(19)
C6 C 0.9476(2) 0.2977(2) 0.2998(2)
C7 C 0.5530(2) 0.0133(2) 0.29809(19)
C8 C 0.4784(2) 0.0711(3) 0.3948(2)
H1 H 0.4939 0.1623 0.4195
C9 C 0.4743(2) 0.0797(3) 0.0003(2)
H2 H 0.4308 0.1314 0.0620
C10 C 1.0250(2) 0.2296(3) -0.0006(2)
H3 H 1.0685 0.1768 0.0605
C11 C 1.0215(2) 0.2393(3) 0.3963(2)
H4 H 1.0052 0.1483 0.4212
C12 C 0.8997(3) 0.3842(3) -0.1843(3)
H5 H 0.8571 0.4359 -0.2468
C13 C 0.6753(2) -0.0164(2) -0.0871(2)
H6 H 0.7682 -0.0285 -0.0854
C14 C 0.5999(3) -0.0748(3) -0.1840(3)
H7 H 0.6425 -0.1271 -0.2459
C15 C 0.8245(2) 0.3268(2) -0.0877(2)
H8 H 0.7317 0.3397 -0.0861
C16 C 0.4639(3) -0.0561(3) -0.1891(3)
H9 H 0.4136 -0.0959 -0.2537
C17 C 1.0983(3) 0.2871(3) -0.0980(3)
H10 H 1.1908 0.2725 -0.1020
C18 C 1.0361(3) 0.3655(3) -0.1888(3)
H11 H 1.0863 0.4058 -0.2530
C19 C 0.4017(3) 0.0229(3) -0.0972(3)
H12 H 0.3093 0.0378 -0.1014
C20 C 1.1205(3) 0.3173(3) 0.4562(3)
H13 H 1.1707 0.2781 0.5212
C21 C 0.9732(3) 0.4328(3) 0.2625(3)
H14 H 0.9242 0.4722 0.1968
C22 C 0.3811(3) -0.0069(3) 0.4544(3)
H15 H 0.3312 0.0322 0.5195
C23 C 0.5284(3) -0.1225(3) 0.2621(3)
H16 H 0.5778 -0.1619 0.1967
C24 C 0.3570(3) -0.1421(3) 0.4185(3)
H17 H 0.2909 -0.1939 0.4589
C25 C 1.0717(3) 0.5088(3) 0.3232(3)
H18 H 1.0885 0.5996 0.2980
C26 C 1.1448(3) 0.4525(3) 0.4199(3)
H19 H 1.2103 0.5048 0.4608
C27 C 0.4311(3) -0.1998(3) 0.3227(3)
H20 H 0.4156 -0.2912 0.2985
N1 N 0.66060(18) 0.09365(19) 0.24025(17)
N2 N 0.75003(18) 0.1551(2) 0.31821(16)
loop_
_geom_bond_atom_site_label_1
_geom_bond_atom_site_label_2
_geom_bond_site_symmetry_1
_geom_bond_site_symmetry_2
C1 C4 1_555 1_555
C2 C5 1_555 1_555
C3 C4 1_555 1_555
C4 C5 1_555 1_555
C5 N1 1_555 1_555
C6 C1 1_555 1_555
C7 C8 1_555 1_555
C8 H1 1_555 1_555
C9 C2 1_555 1_555
H2 C9 1_555 1_555
C10 C3 1_555 1_555
H3 C10 1_555 1_555
C11 C6 1_555 1_555
H4 C11 1_555 1_555
C12 H5 1_555 1_555
C13 C2 1_555 1_555
H6 C13 1_555 1_555
C14 C13 1_555 1_555
H7 C14 1_555 1_555
C15 C3 1_555 1_555
H8 C15 1_555 1_555
C16 C14 1_555 1_555
H9 C16 1_555 1_555
C17 C10 1_555 1_555
H10 C17 1_555 1_555
C18 C12 1_555 1_555
H11 C18 1_555 1_555
C19 C9 1_555 1_555
H12 C19 1_555 1_555
C20 C11 1_555 1_555
H13 C20 1_555 1_555
C21 C6 1_555 1_555
H14 C21 1_555 1_555
C22 C8 1_555 1_555
H15 C22 1_555 1_555
C23 C7 1_555 1_555
H16 C23 1_555 1_555
C24 C22 1_555 1_555
H17 C24 1_555 1_555
C25 C21 1_555 1_555
H18 C25 1_555 1_555
C26 C20 1_555 1_555
H19 C26 1_555 1_555
C27 C23 1_555 1_555
H20 C27 1_555 1_555
N1 C7 1_555 1_555
N2 C1 1_555 1_555
C12 C15 1_555 1_555
C16 C19 1_555 1_555
C17 C18 1_555 1_555
C24 C27 1_555 1_555
C25 C26 1_555 1_555
N1 N2 1_555 1_555

#END
