
#######################################################################
#
#                 Cambridge Crystallographic Data Centre
#                                CCDC 
#
#######################################################################
#
# If this CIF has been generated from an entry in the Cambridge 
# Structural Database, then it will include bibliographic, chemical, 
# crystal, experimental, refinement or atomic coordinate data resulting 
# from the CCDC's data processing and validation procedures.
#
#######################################################################

data_WURZEP
_chemical_formula_moiety         'C42 H51 N3 O2,2(C1 H4 O1),H2 O1'
_chemical_name_systematic        
'2,5-bis((3,5-Di-t-butyl-4-oxocyclohexa-2,5-dien-1-ylidene)(1H-pyrrol-2-yl)methyl)-1H-pyrrole methanol solvate monohydrate'
_symmetry_cell_setting           monoclinic
_symmetry_space_group_name_H-M   'P 21/c'
_symmetry_Int_Tables_number      14
_space_group_name_Hall           '-P 2ybc'
loop_
_symmetry_equiv_pos_site_id
_symmetry_equiv_pos_as_xyz
1 x,y,z
2 -x,1/2+y,1/2-z
3 -x,-y,-z
4 x,1/2-y,1/2+z
_cell_length_a                   9.9033(8)
_cell_length_b                   23.558(2)
_cell_length_c                   18.9225(17)
_cell_angle_alpha                90
_cell_angle_beta                 102.366(2)
_cell_angle_gamma                90
_cell_volume                     4312.23
_cell_formula_units_Z            4
loop_
_atom_site_label
_atom_site_type_symbol
_atom_site_fract_x
_atom_site_fract_y
_atom_site_fract_z
N1 N 0.4115(3) 0.20554(15) 0.34731(19)
H1 H 0.3692 0.1809 0.3682
N2 N 0.5088(4) 0.08841(16) 0.3323(2)
H2 H 0.4769 0.1074 0.2935
N3 N 0.1458(4) 0.15740(16) 0.2636(2)
H3 H 0.2222 0.1498 0.2509
O1 O 1.1614(4) 0.24192(16) 0.5351(2)
O2 O -0.0330(4) 0.46728(15) 0.2784(2)
C1 C 0.5522(4) 0.20681(18) 0.3529(2)
C2 C 0.5785(5) 0.2498(2) 0.3095(3)
H8 H 0.6648 0.2601 0.3016
C3 C 0.4516(5) 0.2758(2) 0.2788(3)
H9 H 0.4397 0.3063 0.2468
C4 C 0.3471(5) 0.24860(19) 0.3040(2)
C5 C 0.6467(4) 0.16616(18) 0.3956(2)
C6 C 0.6009(4) 0.10889(19) 0.3919(2)
C7 C 0.6237(5) 0.0656(2) 0.4410(3)
H10 H 0.6815 0.0668 0.4867
C8 C 0.5458(6) 0.0196(2) 0.4106(4)
H11 H 0.5421 -0.0156 0.4325
C9 C 0.4761(5) 0.0344(2) 0.3440(3)
H12 H 0.4160 0.0113 0.3118
C10 C 0.7745(4) 0.18406(18) 0.4362(2)
C11 C 0.8906(4) 0.14636(19) 0.4608(2)
H13 H 0.8767 0.1077 0.4525
C12 C 1.0182(4) 0.16395(19) 0.4949(2)
C13 C 1.0418(5) 0.2241(2) 0.5085(3)
C14 C 0.9236(5) 0.26313(19) 0.4885(2)
C15 C 0.8000(5) 0.24247(18) 0.4536(2)
H14 H 0.7271 0.2679 0.4402
C16 C 1.1426(5) 0.1233(2) 0.5152(3)
C17 C 1.2536(5) 0.1374(2) 0.4721(3)
H15 H 1.3279 0.1106 0.4839
H16 H 1.2884 0.1750 0.4843
H17 H 1.2136 0.1355 0.4213
C18 C 1.2063(5) 0.1272(3) 0.5965(3)
H18 H 1.1375 0.1180 0.6235
H19 H 1.2395 0.1651 0.6082
H20 H 1.2819 0.1009 0.6087
C19 C 1.0974(6) 0.0630(2) 0.4985(4)
H21 H 1.0639 0.0588 0.4472
H22 H 1.0250 0.0537 0.5231
H23 H 1.1744 0.0380 0.5144
C20 C 0.9439(5) 0.3254(2) 0.5067(3)
C21 C 0.9975(7) 0.3324(3) 0.5880(3)
H24 H 0.9308 0.3175 0.6132
H25 H 1.0123 0.3720 0.5993
H26 H 1.0831 0.3122 0.6027
C22 C 1.0461(7) 0.3511(2) 0.4652(4)
H27 H 1.1342 0.3328 0.4799
H28 H 1.0561 0.3910 0.4755
H29 H 1.0120 0.3457 0.4142
C23 C 0.8074(6) 0.3577(2) 0.4853(4)
H30 H 0.7704 0.3531 0.4344
H31 H 0.8231 0.3973 0.4960
H32 H 0.7428 0.3431 0.5120
C24 C 0.1975(4) 0.25741(19) 0.2891(2)
C25 C 0.1080(5) 0.2092(2) 0.2856(2)
C26 C -0.0205(5) 0.2020(2) 0.3026(3)
H33 H -0.0710 0.2302 0.3197
C27 C -0.0611(5) 0.1463(2) 0.2900(3)
H34 H -0.1427 0.1300 0.2972
C28 C 0.0415(6) 0.1199(2) 0.2652(3)
H35 H 0.0407 0.0820 0.2513
C29 C 0.1430(5) 0.31154(19) 0.2803(3)
C30 C 0.0022(5) 0.3221(2) 0.2433(3)
H36 H -0.0506 0.2914 0.2224
C31 C -0.0572(5) 0.3736(2) 0.2373(3)
C32 C 0.0244(6) 0.4207(2) 0.2741(3)
C33 C 0.1734(5) 0.4131(2) 0.3040(3)
C34 C 0.2248(5) 0.3599(2) 0.3068(3)
H37 H 0.3180 0.3546 0.3271
C35 C -0.2063(5) 0.3835(2) 0.1926(3)
C36 C -0.2621(6) 0.3315(3) 0.1490(3)
H38 H -0.2704 0.3008 0.1812
H39 H -0.1999 0.3207 0.1187
H40 H -0.3512 0.3399 0.1193
C37 C -0.3053(5) 0.3971(2) 0.2417(3)
H41 H -0.3974 0.4009 0.2131
H42 H -0.2779 0.4319 0.2670
H43 H -0.3031 0.3669 0.2761
C38 C -0.2031(6) 0.4320(3) 0.1392(3)
H44 H -0.1361 0.4238 0.1108
H45 H -0.1785 0.4667 0.1655
H46 H -0.2928 0.4361 0.1080
C39 C 0.2653(6) 0.4633(2) 0.3318(4)
C40 C 0.2178(8) 0.4911(3) 0.3951(5)
H47 H 0.1220 0.5014 0.3804
H48 H 0.2719 0.5246 0.4098
H49 H 0.2294 0.4650 0.4348
C41 C 0.2578(8) 0.5054(3) 0.2703(5)
H50 H 0.3033 0.4898 0.2347
H51 H 0.3027 0.5401 0.2889
H52 H 0.1628 0.5130 0.2485
C42 C 0.4166(7) 0.4465(3) 0.3587(5)
H53 H 0.4243 0.4204 0.3983
H54 H 0.4705 0.4798 0.3745
H55 H 0.4501 0.4288 0.3201
O3 O 0.7901(6) 0.5296(2) 0.3432(3)
H4 H 0.8140 0.5062 0.3161
C43 C 0.8028(11) 0.5058(4) 0.4122(5)
H56 H 0.8896 0.5169 0.4423
H57 H 0.7988 0.4652 0.4084
H58 H 0.7286 0.5191 0.4333
O4 O 0.3915(6) 0.3028(3) 0.5901(4)
H5 H 0.3225 0.2834 0.5753
C44 C 0.4897(10) 0.2900(6) 0.5521(8)
H59 H 0.4577 0.3009 0.5025
H60 H 0.5073 0.2499 0.5548
H61 H 0.5734 0.3101 0.5723
O5 O 0.6334(4) 0.62377(17) 0.3054(2)
H6 H 0.6609 0.5958 0.3331
H7 H 0.6034 0.6483 0.3311
loop_
_geom_bond_atom_site_label_1
_geom_bond_atom_site_label_2
_geom_bond_site_symmetry_1
_geom_bond_site_symmetry_2
N1 H1 1_555 1_555
N2 H2 1_555 1_555
N3 H3 1_555 1_555
O1 C13 1_555 1_555
O2 C32 1_555 1_555
O3 H4 1_555 1_555
O4 H5 1_555 1_555
O5 H6 1_555 1_555
H7 O5 1_555 1_555
C1 N1 1_555 1_555
C2 C1 1_555 1_555
H8 C2 1_555 1_555
C3 C2 1_555 1_555
H9 C3 1_555 1_555
C4 N1 1_555 1_555
C5 C1 1_555 1_555
C6 N2 1_555 1_555
C7 C6 1_555 1_555
H10 C7 1_555 1_555
C8 C7 1_555 1_555
H11 C8 1_555 1_555
C9 N2 1_555 1_555
H12 C9 1_555 1_555
C10 C5 1_555 1_555
C11 C10 1_555 1_555
H13 C11 1_555 1_555
C12 C11 1_555 1_555
C13 C12 1_555 1_555
C14 C13 1_555 1_555
C15 C10 1_555 1_555
H14 C15 1_555 1_555
C16 C12 1_555 1_555
C17 C16 1_555 1_555
H15 C17 1_555 1_555
H16 C17 1_555 1_555
H17 C17 1_555 1_555
C18 C16 1_555 1_555
H18 C18 1_555 1_555
H19 C18 1_555 1_555
H20 C18 1_555 1_555
C19 C16 1_555 1_555
H21 C19 1_555 1_555
H22 C19 1_555 1_555
H23 C19 1_555 1_555
C20 C14 1_555 1_555
C21 C20 1_555 1_555
H24 C21 1_555 1_555
H25 C21 1_555 1_555
H26 C21 1_555 1_555
C22 C20 1_555 1_555
H27 C22 1_555 1_555
H28 C22 1_555 1_555
H29 C22 1_555 1_555
C23 C20 1_555 1_555
H30 C23 1_555 1_555
H31 C23 1_555 1_555
H32 C23 1_555 1_555
C24 C4 1_555 1_555
C25 N3 1_555 1_555
C26 C25 1_555 1_555
H33 C26 1_555 1_555
C27 C26 1_555 1_555
H34 C27 1_555 1_555
C28 N3 1_555 1_555
H35 C28 1_555 1_555
C29 C24 1_555 1_555
C30 C29 1_555 1_555
H36 C30 1_555 1_555
C31 C30 1_555 1_555
C32 C31 1_555 1_555
C33 C32 1_555 1_555
C34 C29 1_555 1_555
H37 C34 1_555 1_555
C35 C31 1_555 1_555
C36 C35 1_555 1_555
H38 C36 1_555 1_555
H39 C36 1_555 1_555
H40 C36 1_555 1_555
C37 C35 1_555 1_555
H41 C37 1_555 1_555
H42 C37 1_555 1_555
H43 C37 1_555 1_555
C38 C35 1_555 1_555
H44 C38 1_555 1_555
H45 C38 1_555 1_555
H46 C38 1_555 1_555
C39 C33 1_555 1_555
C40 C39 1_555 1_555
H47 C40 1_555 1_555
H48 C40 1_555 1_555
H49 C40 1_555 1_555
C41 C39 1_555 1_555
H50 C41 1_555 1_555
H51 C41 1_555 1_555
H52 C41 1_555 1_555
C42 C39 1_555 1_555
H53 C42 1_555 1_555
H54 C42 1_555 1_555
H55 C42 1_555 1_555
C43 O3 1_555 1_555
H56 C43 1_555 1_555
H57 C43 1_555 1_555
H58 C43 1_555 1_555
C44 O4 1_555 1_555
H59 C44 1_555 1_555
H60 C44 1_555 1_555
H61 C44 1_555 1_555
C3 C4 1_555 1_555
C5 C6 1_555 1_555
C8 C9 1_555 1_555
C14 C15 1_555 1_555
C24 C25 1_555 1_555
C27 C28 1_555 1_555
C33 C34 1_555 1_555

#END
