
#######################################################################
#
#                 Cambridge Crystallographic Data Centre
#                                CCDC 
#
#######################################################################
#
# If this CIF has been generated from an entry in the Cambridge 
# Structural Database, then it will include bibliographic, chemical, 
# crystal, experimental, refinement or atomic coordinate data resulting 
# from the CCDC's data processing and validation procedures.
#
#######################################################################

data_WUSLIF03
_chemical_name_common            
N,N'-di(2,6-diisopropylphenyl)acenaphthene-1,2-diimine
_chemical_formula_moiety         'C36 H40 N2'
_chemical_name_systematic        
1,4-bis(2,6-diisopropylphenyl)-2,3-(acenaphtheno)-1,4-diaza-1,3-butadiene
_symmetry_cell_setting           monoclinic
_symmetry_space_group_name_H-M   'C 2/c'
_symmetry_Int_Tables_number      15
_space_group_name_Hall           '-C 2yn'
loop_
_symmetry_equiv_pos_site_id
_symmetry_equiv_pos_as_xyz
1 x,y,z
2 1/2+x,1/2+y,z
3 -x,y,1/2-z
4 1/2-x,1/2+y,1/2-z
5 -x,-y,-z
6 1/2-x,1/2-y,-z
7 x,-y,1/2+z
8 1/2+x,1/2-y,1/2+z
_cell_length_a                   15.414(2)
_cell_length_b                   8.8595(11)
_cell_length_c                   21.452(3)
_cell_angle_alpha                90
_cell_angle_beta                 93.56(1)
_cell_angle_gamma                90
_cell_volume                     2923.84
_exptl_crystal_colour            amber
_exptl_crystal_description       trapezoid
_cell_formula_units_Z            4
_exptl_crystal_recrystallization_method hexane/dichloromethane
loop_
_atom_site_label
_atom_site_type_symbol
_atom_site_fract_x
_atom_site_fract_y
_atom_site_fract_z
N1 N 0.53138(6) 0.73377(10) 0.18983(4)
C1 C 0.52888(7) 0.44711(12) 0.19988(5)
C2 C 0.56058(7) 0.37417(13) 0.14920(5)
H1 H 0.5805 0.4300 0.1151
C3 C 0.56274(8) 0.21295(13) 0.14917(5)
H2 H 0.5854 0.1626 0.1146
C4 C 0.53316(8) 0.12741(13) 0.19736(5)
H3 H 0.5350 0.0204 0.1953
C5 C 0.5000 0.19966(16) 0.2500
C6 C 0.5000 0.35939(16) 0.2500
C7 C 0.51770(6) 0.60877(11) 0.21746(5)
C8 C 0.55966(7) 0.74297(11) 0.12806(5)
C9 C 0.49835(7) 0.72941(12) 0.07633(5)
C10 C 0.52703(8) 0.75634(15) 0.01689(6)
H4 H 0.4872 0.7470 -0.0185
C11 C 0.61216(9) 0.79650(15) 0.00838(6)
H5 H 0.6303 0.8144 -0.0325
C12 C 0.67070(9) 0.81046(14) 0.05943(6)
H6 H 0.7291 0.8377 0.0531
C13 C 0.64602(7) 0.78549(13) 0.12030(5)
C14 C 0.40433(8) 0.69244(13) 0.08604(6)
H7 H 0.4038 0.6116 0.1186
C15 C 0.35430(9) 0.63235(16) 0.02715(6)
H8 H 0.3504 0.7116 -0.0048
H9 H 0.2957 0.6022 0.0374
H10 H 0.3849 0.5448 0.0112
C16 C 0.35818(9) 0.83117(16) 0.11151(7)
H11 H 0.3901 0.8666 0.1496
H12 H 0.2988 0.8037 0.1210
H13 H 0.3562 0.9116 0.0801
C17 C 0.71035(8) 0.79834(15) 0.17667(6)
H14 H 0.6770 0.8252 0.2136
C18 C 0.77861(9) 0.92093(17) 0.16920(7)
H15 H 0.8156 0.8930 0.1355
H16 H 0.8145 0.9315 0.2083
H17 H 0.7496 1.0170 0.1590
C19 C 0.75503(10) 0.64642(18) 0.19029(8)
H18 H 0.7109 0.5683 0.1948
H19 H 0.7920 0.6538 0.2290
H20 H 0.7908 0.6200 0.1557
N1B N 0.46862(6) 0.73377(10) 0.31017(4)
C1B C 0.47112(7) 0.44711(12) 0.30012(5)
C2B C 0.43942(7) 0.37417(13) 0.35080(5)
H1B H 0.4195 0.4300 0.3849
C3B C 0.43726(8) 0.21295(13) 0.35083(5)
H2B H 0.4146 0.1626 0.3854
C4B C 0.46684(8) 0.12741(13) 0.30264(5)
H3B H 0.4650 0.0204 0.3047
C7B C 0.48230(6) 0.60877(11) 0.28254(5)
C8B C 0.44034(7) 0.74297(11) 0.37194(5)
C9B C 0.50165(7) 0.72941(12) 0.42367(5)
C10B C 0.47297(8) 0.75634(15) 0.48311(6)
H4B H 0.5128 0.7470 0.5185
C11B C 0.38784(9) 0.79650(15) 0.49162(6)
H5B H 0.3697 0.8144 0.5325
C12B C 0.32930(9) 0.81046(14) 0.44057(6)
H6B H 0.2709 0.8377 0.4469
C13B C 0.35398(7) 0.78549(13) 0.37970(5)
C14B C 0.59567(8) 0.69244(13) 0.41396(6)
H7B H 0.5962 0.6116 0.3814
C15B C 0.64570(9) 0.63235(16) 0.47285(6)
H8B H 0.6496 0.7116 0.5048
H9B H 0.7043 0.6022 0.4626
H10B H 0.6151 0.5448 0.4888
C16B C 0.64182(9) 0.83117(16) 0.38849(7)
H11B H 0.6099 0.8666 0.3504
H12B H 0.7012 0.8037 0.3790
H13B H 0.6438 0.9116 0.4199
C17B C 0.28965(8) 0.79834(15) 0.32333(6)
H14B H 0.3230 0.8252 0.2864
C18B C 0.22139(9) 0.92093(17) 0.33080(7)
H15B H 0.1844 0.8930 0.3645
H16B H 0.1855 0.9315 0.2917
H17B H 0.2504 1.0170 0.3410
C19B C 0.24497(10) 0.64642(18) 0.30971(8)
H18B H 0.2891 0.5683 0.3052
H19B H 0.2080 0.6538 0.2710
H20B H 0.2092 0.6200 0.3443
loop_
_geom_bond_atom_site_label_1
_geom_bond_atom_site_label_2
_geom_bond_site_symmetry_1
_geom_bond_site_symmetry_2
N1 C7 1_555 1_555
C1 C2 1_555 1_555
C2 H1 1_555 1_555
C3 C2 1_555 1_555
H2 C3 1_555 1_555
C4 C3 1_555 1_555
H3 C4 1_555 1_555
C5 C4 1_555 1_555
C6 C1 1_555 1_555
C7 C1 1_555 1_555
C8 N1 1_555 1_555
C9 C8 1_555 1_555
C10 C9 1_555 1_555
H4 C10 1_555 1_555
C11 C10 1_555 1_555
H5 C11 1_555 1_555
C12 C11 1_555 1_555
H6 C12 1_555 1_555
C13 C8 1_555 1_555
C14 C9 1_555 1_555
H7 C14 1_555 1_555
C15 C14 1_555 1_555
H8 C15 1_555 1_555
H9 C15 1_555 1_555
H10 C15 1_555 1_555
C16 C14 1_555 1_555
H11 C16 1_555 1_555
H12 C16 1_555 1_555
H13 C16 1_555 1_555
C17 C13 1_555 1_555
H14 C17 1_555 1_555
C18 C17 1_555 1_555
H15 C18 1_555 1_555
H16 C18 1_555 1_555
H17 C18 1_555 1_555
C19 C17 1_555 1_555
H18 C19 1_555 1_555
H19 C19 1_555 1_555
H20 C19 1_555 1_555
N1B C7B 1_555 1_555
C1B C6 1_555 1_555
C2B C1B 1_555 1_555
H1B C2B 1_555 1_555
C3B C2B 1_555 1_555
H2B C3B 1_555 1_555
C4B C5 1_555 1_555
H3B C4B 1_555 1_555
C7B C7 1_555 1_555
C8B N1B 1_555 1_555
C9B C8B 1_555 1_555
C10B C9B 1_555 1_555
H4B C10B 1_555 1_555
C11B C10B 1_555 1_555
H5B C11B 1_555 1_555
C12B C11B 1_555 1_555
H6B C12B 1_555 1_555
C13B C8B 1_555 1_555
C14B C9B 1_555 1_555
H7B C14B 1_555 1_555
C15B C14B 1_555 1_555
H8B C15B 1_555 1_555
H9B C15B 1_555 1_555
H10B C15B 1_555 1_555
C16B C14B 1_555 1_555
H11B C16B 1_555 1_555
H12B C16B 1_555 1_555
H13B C16B 1_555 1_555
C17B C13B 1_555 1_555
H14B C17B 1_555 1_555
C18B C17B 1_555 1_555
H15B C18B 1_555 1_555
H16B C18B 1_555 1_555
H17B C18B 1_555 1_555
C19B C17B 1_555 1_555
H18B C19B 1_555 1_555
H19B C19B 1_555 1_555
H20B C19B 1_555 1_555
C5 C6 1_555 1_555
C12 C13 1_555 1_555
C1B C7B 1_555 1_555
C3B C4B 1_555 1_555
C12B C13B 1_555 1_555

#END
