
#######################################################################
#
#                 Cambridge Crystallographic Data Centre
#                                CCDC 
#
#######################################################################
#
# If this CIF has been generated from an entry in the Cambridge 
# Structural Database, then it will include bibliographic, chemical, 
# crystal, experimental, refinement or atomic coordinate data resulting 
# from the CCDC's data processing and validation procedures.
#
#######################################################################

data_WUTMII
_chemical_formula_moiety         'C44 H42 N2 O4 P2'
_chemical_name_systematic        
N,N,N',N'-tetrakis(1-phenylethyl)[1,3,2]benzodioxaphosphepino[6,5,4-def][1,3,2]benzodioxaphosphepine-5,11-diamine
_symmetry_cell_setting           orthorhombic
_symmetry_space_group_name_H-M   'P 21 21 21'
_symmetry_Int_Tables_number      19
_space_group_name_Hall           'P 2ac 2ab'
loop_
_symmetry_equiv_pos_site_id
_symmetry_equiv_pos_as_xyz
1 x,y,z
2 1/2-x,-y,1/2+z
3 -x,1/2+y,1/2-z
4 1/2+x,1/2-y,-z
_cell_length_a                   12.4525(8)
_cell_length_b                   12.8410(9)
_cell_length_c                   24.4382(16)
_cell_angle_alpha                90
_cell_angle_beta                 90
_cell_angle_gamma                90
_cell_volume                     3907.73
_exptl_crystal_colour            colorless
_exptl_crystal_description       prismatic
_cell_formula_units_Z            4
loop_
_atom_site_label
_atom_site_type_symbol
_atom_site_fract_x
_atom_site_fract_y
_atom_site_fract_z
P1 P 0.63836(8) 0.63893(8) 0.76165(3)
P2 P 0.40789(7) 0.62578(8) 0.52055(3)
N1 N 0.6916(2) 0.7460(2) 0.78654(9)
N2 N 0.27613(18) 0.6252(2) 0.51631(9)
O1 O 0.68743(14) 0.65035(17) 0.69864(7)
O2 O 0.51064(17) 0.65924(19) 0.74631(8)
O3 O 0.41808(15) 0.53957(15) 0.57050(7)
O4 O 0.44781(17) 0.72867(17) 0.55542(9)
C1 C 0.6484(2) 0.5802(2) 0.66021(11)
C2 C 0.7122(3) 0.4972(3) 0.64577(14)
H1 H 0.7774 0.4863 0.6634
C3 C 0.6795(3) 0.4306(3) 0.60534(14)
H2 H 0.7229 0.3748 0.5954
C4 C 0.5818(3) 0.4462(3) 0.57910(12)
H3 H 0.5592 0.4009 0.5517
C5 C 0.5189(2) 0.5297(2) 0.59425(12)
C6 C 0.5493(2) 0.5984(2) 0.63527(11)
C7 C 0.4822(2) 0.6890(2) 0.65017(12)
C8 C 0.4687(3) 0.7199(3) 0.70452(13)
C9 C 0.4074(3) 0.8054(4) 0.71815(17)
H4 H 0.3984 0.8240 0.7546
C10 C 0.3598(3) 0.8626(3) 0.6776(2)
H5 H 0.3186 0.9205 0.6866
C11 C 0.3727(3) 0.8351(3) 0.62417(18)
H6 H 0.3412 0.8754 0.5969
C12 C 0.4317(3) 0.7487(3) 0.61005(15)
C13 C 0.7089(3) 0.7466(3) 0.84681(12)
H7 H 0.7505 0.8096 0.8549
C14 C 0.7766(3) 0.6560(3) 0.86570(14)
C15 C 0.7541(4) 0.5990(3) 0.91162(16)
H8 H 0.6914 0.6136 0.9308
C16 C 0.8211(5) 0.5200(5) 0.9308(2)
H9 H 0.8033 0.4817 0.9618
C17 C 0.9105(6) 0.5014(5) 0.9036(3)
H10 H 0.9569 0.4502 0.9165
C18 C 0.9374(4) 0.5534(5) 0.8577(3)
H11 H 1.0000 0.5372 0.8388
C19 C 0.8693(4) 0.6320(4) 0.83931(17)
H12 H 0.8878 0.6691 0.8080
C20 C 0.7147(3) 0.8457(3) 0.75750(14)
H13 H 0.6927 0.8358 0.7194
C21 C 0.8344(3) 0.8639(3) 0.75685(15)
C22 C 0.8995(4) 0.8071(4) 0.72279(16)
H14 H 0.8683 0.7612 0.6980
C23 C 1.0094(5) 0.8160(5) 0.72422(19)
H15 H 1.0516 0.7750 0.7014
C24 C 1.0564(5) 0.8851(6) 0.7591(2)
H16 H 1.1306 0.8932 0.7590
C25 C 0.9956(5) 0.9417(6) 0.7939(2)
H17 H 1.0279 0.9858 0.8192
C26 C 0.8844(4) 0.9335(4) 0.79158(17)
H18 H 0.8426 0.9759 0.8139
C27 C 0.6023(3) 0.7581(3) 0.87745(15)
H19 H 0.5598 0.8113 0.8603
H20 H 0.6161 0.7770 0.9148
H21 H 0.5641 0.6932 0.8764
C28 C 0.6497(3) 0.9369(3) 0.77944(16)
H22 H 0.5745 0.9218 0.7760
H23 H 0.6665 0.9985 0.7589
H24 H 0.6671 0.9480 0.8173
C29 C 0.1987(3) 0.6123(3) 0.56168(13)
H25 H 0.2410 0.5943 0.5942
C30 C 0.1240(3) 0.5203(4) 0.55092(12)
C31 C 0.1640(3) 0.4222(4) 0.54768(16)
H26 H 0.2374 0.4117 0.5519
C32 C 0.0979(5) 0.3378(4) 0.53831(17)
H27 H 0.1273 0.2713 0.5369
C33 C -0.0093(5) 0.3503(5) 0.5311(2)
H28 H -0.0537 0.2933 0.5248
C34 C -0.0498(4) 0.4478(6) 0.5332(2)
H29 H -0.1229 0.4578 0.5275
C35 C 0.0150(3) 0.5333(4) 0.54380(16)
H30 H -0.0151 0.5994 0.5461
C36 C 0.2262(3) 0.6411(3) 0.46170(12)
H31 H 0.1519 0.6625 0.4688
C37 C 0.2192(3) 0.5445(3) 0.42663(13)
C38 C 0.1341(3) 0.5332(3) 0.39237(16)
H32 H 0.0804 0.5836 0.3925
C39 C 0.1247(5) 0.4494(5) 0.3575(2)
H33 H 0.0655 0.4448 0.3344
C40 C 0.1996(5) 0.3745(5) 0.3563(2)
H34 H 0.1924 0.3173 0.3333
C41 C 0.2865(4) 0.3842(4) 0.3896(2)
H35 H 0.3406 0.3342 0.3888
C42 C 0.2946(4) 0.4682(4) 0.42470(17)
H36 H 0.3538 0.4727 0.4478
C43 C 0.1400(3) 0.7128(3) 0.57505(16)
H37 H 0.1913 0.7668 0.5823
H38 H 0.0956 0.7025 0.6067
H39 H 0.0959 0.7326 0.5445
C44 C 0.2782(3) 0.7314(3) 0.42992(15)
H40 H 0.3516 0.7144 0.4219
H41 H 0.2756 0.7936 0.4517
H42 H 0.2398 0.7425 0.3964
loop_
_geom_bond_atom_site_label_1
_geom_bond_atom_site_label_2
_geom_bond_site_symmetry_1
_geom_bond_site_symmetry_2
P1 N1 1_555 1_555
P2 N2 1_555 1_555
N1 C13 1_555 1_555
N2 C29 1_555 1_555
O1 P1 1_555 1_555
O2 P1 1_555 1_555
O3 P2 1_555 1_555
O4 P2 1_555 1_555
C1 O1 1_555 1_555
C2 C1 1_555 1_555
H1 C2 1_555 1_555
C3 C2 1_555 1_555
H2 C3 1_555 1_555
C4 C3 1_555 1_555
H3 C4 1_555 1_555
C5 O3 1_555 1_555
C6 C1 1_555 1_555
C7 C6 1_555 1_555
C8 O2 1_555 1_555
C9 C8 1_555 1_555
H4 C9 1_555 1_555
C10 C9 1_555 1_555
H5 C10 1_555 1_555
C11 C10 1_555 1_555
H6 C11 1_555 1_555
C12 O4 1_555 1_555
C13 H7 1_555 1_555
C14 C13 1_555 1_555
C15 C14 1_555 1_555
H8 C15 1_555 1_555
C16 C15 1_555 1_555
H9 C16 1_555 1_555
C17 C16 1_555 1_555
H10 C17 1_555 1_555
C18 C17 1_555 1_555
H11 C18 1_555 1_555
C19 C14 1_555 1_555
H12 C19 1_555 1_555
C20 N1 1_555 1_555
H13 C20 1_555 1_555
C21 C20 1_555 1_555
C22 C21 1_555 1_555
H14 C22 1_555 1_555
C23 C22 1_555 1_555
H15 C23 1_555 1_555
C24 C23 1_555 1_555
H16 C24 1_555 1_555
C25 C24 1_555 1_555
H17 C25 1_555 1_555
C26 C21 1_555 1_555
H18 C26 1_555 1_555
C27 C13 1_555 1_555
H19 C27 1_555 1_555
H20 C27 1_555 1_555
H21 C27 1_555 1_555
C28 C20 1_555 1_555
H22 C28 1_555 1_555
H23 C28 1_555 1_555
H24 C28 1_555 1_555
C29 H25 1_555 1_555
C30 C29 1_555 1_555
C31 C30 1_555 1_555
H26 C31 1_555 1_555
C32 C31 1_555 1_555
H27 C32 1_555 1_555
C33 C32 1_555 1_555
H28 C33 1_555 1_555
C34 C33 1_555 1_555
H29 C34 1_555 1_555
C35 C30 1_555 1_555
H30 C35 1_555 1_555
C36 N2 1_555 1_555
H31 C36 1_555 1_555
C37 C36 1_555 1_555
C38 C37 1_555 1_555
H32 C38 1_555 1_555
C39 C38 1_555 1_555
H33 C39 1_555 1_555
C40 C39 1_555 1_555
H34 C40 1_555 1_555
C41 C40 1_555 1_555
H35 C41 1_555 1_555
C42 C37 1_555 1_555
H36 C42 1_555 1_555
C43 C29 1_555 1_555
H37 C43 1_555 1_555
H38 C43 1_555 1_555
H39 C43 1_555 1_555
C44 C36 1_555 1_555
H40 C44 1_555 1_555
H41 C44 1_555 1_555
H42 C44 1_555 1_555
C4 C5 1_555 1_555
C5 C6 1_555 1_555
C7 C8 1_555 1_555
C7 C12 1_555 1_555
C11 C12 1_555 1_555
C18 C19 1_555 1_555
C25 C26 1_555 1_555
C34 C35 1_555 1_555
C41 C42 1_555 1_555

#END
