
#######################################################################
#
#                 Cambridge Crystallographic Data Centre
#                                CCDC 
#
#######################################################################
#
# If this CIF has been generated from an entry in the Cambridge 
# Structural Database, then it will include bibliographic, chemical, 
# crystal, experimental, refinement or atomic coordinate data resulting 
# from the CCDC's data processing and validation procedures.
#
#######################################################################

data_WUTQOT
_chemical_formula_moiety         'C14 H20 O3'
_chemical_name_systematic        
8-Hydroxy-5-methyldodecahydro-2H-acenaphtho[1,8-bc]furan-2-one
_symmetry_cell_setting           monoclinic
_symmetry_space_group_name_H-M   'P 21'
_symmetry_Int_Tables_number      4
_space_group_name_Hall           'P 2yb'
loop_
_symmetry_equiv_pos_site_id
_symmetry_equiv_pos_as_xyz
1 x,y,z
2 -x,1/2+y,-z
_cell_length_a                   15.8905(18)
_cell_length_b                   6.1745(5)
_cell_length_c                   19.186(4)
_cell_angle_alpha                90
_cell_angle_beta                 104.581(16)
_cell_angle_gamma                90
_cell_volume                     1821.82
_exptl_crystal_colour            colorless
_exptl_crystal_description       plate
_cell_formula_units_Z            6
loop_
_atom_site_label
_atom_site_type_symbol
_atom_site_fract_x
_atom_site_fract_y
_atom_site_fract_z
O1 O -0.2067(4) -0.1998(10) -0.6866(4)
H1 H -0.2462 -0.2109 -0.7233
O2 O -0.1154(3) -0.2041(9) -0.5454(4)
O3 O -0.1083(5) -0.1313(11) -0.4315(4)
C1 C -0.3596(5) -0.7094(13) -0.5446(5)
H2 H -0.3719 -0.7928 -0.5895
C2 C -0.3851(5) -0.4721(13) -0.5643(5)
H3 H -0.3951 -0.3990 -0.5224
H4 H -0.4391 -0.4694 -0.6017
C3 C -0.3142(5) -0.3469(12) -0.5911(5)
H5 H -0.3415 -0.2398 -0.6267
H6 H -0.2758 -0.2721 -0.5511
C4 C -0.2622(5) -0.5055(11) -0.6243(4)
H7 H -0.3023 -0.5826 -0.6637
C5 C -0.2144(5) -0.6732(12) -0.5685(4)
H8 H -0.2123 -0.8078 -0.5950
C6 C -0.2619(5) -0.7273(13) -0.5096(4)
H9 H -0.2498 -0.8798 -0.4968
C7 C -0.1886(6) -0.4082(15) -0.6531(5)
H10 H -0.1750 -0.5091 -0.6882
C8 C -0.1109(6) -0.3945(15) -0.5891(5)
H11 H -0.0564 -0.3977 -0.6043
C9 C -0.1181(5) -0.5910(13) -0.5420(5)
H12 H -0.0779 -0.7048 -0.5487
C10 C -0.0890(6) -0.4996(13) -0.4661(5)
H13 H -0.0262 -0.5218 -0.4486
C11 C -0.1330(6) -0.5975(15) -0.4113(5)
H14 H -0.1131 -0.7452 -0.4008
H15 H -0.1171 -0.5152 -0.3669
C12 C -0.2308(6) -0.5957(13) -0.4400(4)
H16 H -0.2503 -0.4472 -0.4491
H17 H -0.2571 -0.6543 -0.4037
C13 C -0.1056(6) -0.2627(14) -0.4762(6)
C14 C -0.4159(6) -0.8033(16) -0.4974(6)
H18 H -0.4039 -0.7271 -0.4523
H19 H -0.4026 -0.9541 -0.4887
H20 H -0.4762 -0.7873 -0.5216
O4 O -0.1953(3) -0.6588(9) -0.8292(3)
O5 O -0.2357(4) -0.3529(10) -0.8906(3)
O6 O -0.0992(4) -0.8707(10) -0.7035(3)
H21 H -0.1370 -0.9561 -0.6991
C15 C 0.1792(6) -0.3584(16) -0.8453(6)
H22 H 0.1523 -0.2185 -0.8539
H23 H 0.1930 -0.4092 -0.8884
H24 H 0.2316 -0.3478 -0.8073
C16 C 0.1168(5) -0.5173(14) -0.8232(5)
H25 H 0.1503 -0.6502 -0.8086
C17 C 0.0891(5) -0.4409(14) -0.7574(5)
H26 H 0.0791 -0.2859 -0.7614
H27 H 0.1366 -0.4660 -0.7152
C18 C 0.0066(6) -0.5513(12) -0.7455(5)
H28 H 0.0097 -0.5596 -0.6944
H29 H -0.0446 -0.4680 -0.7687
C19 C 0.0007(5) -0.7747(12) -0.7772(4)
H30 H 0.0532 -0.8545 -0.7528
C20 C -0.0058(5) -0.7771(12) -0.8595(4)
H31 H 0.0258 -0.9062 -0.8685
C21 C 0.0394(5) -0.5832(12) -0.8843(5)
H32 H 0.0621 -0.6316 -0.9247
C22 C -0.0218(5) -0.3914(13) -0.9109(4)
H33 H -0.0400 -0.3293 -0.8706
H34 H 0.0091 -0.2805 -0.9303
C23 C -0.1021(5) -0.4623(13) -0.9689(5)
H35 H -0.1383 -0.3373 -0.9863
H36 H -0.0841 -0.5250 -1.0093
C24 C -0.1541(5) -0.6288(13) -0.9381(5)
H37 H -0.1987 -0.6884 -0.9784
C25 C -0.1035(5) -0.8176(13) -0.8976(5)
H38 H -0.1091 -0.9442 -0.9292
C26 C -0.1492(5) -0.8604(13) -0.8372(5)
H39 H -0.1898 -0.9824 -0.8493
C27 C -0.0786(6) -0.9072(14) -0.7705(5)
H40 H -0.0633 -1.0605 -0.7721
C28 C -0.1998(6) -0.5304(14) -0.8861(5)
O7 O -0.5032(4) -0.6699(10) -1.0796(3)
O8 O -0.6514(4) -0.7382(10) -1.1937(4)
H41 H -0.6762 -0.7714 -1.1626
O9 O -0.3642(5) -0.7294(12) -1.0309(4)
C29 C -0.4274(6) -0.3178(14) -1.2879(5)
H42 H -0.4787 -0.2436 -1.3172
C30 C -0.4471(6) -0.5609(14) -1.2965(5)
H43 H -0.4782 -0.5897 -1.3460
H44 H -0.3926 -0.6401 -1.2869
C31 C -0.5010(5) -0.6444(13) -1.2464(4)
H45 H -0.5367 -0.7649 -1.2691
H46 H -0.4624 -0.6963 -1.2020
C32 C -0.5585(5) -0.4675(13) -1.2296(5)
H47 H -0.5962 -0.4165 -1.2752
C33 C -0.5056(5) -0.2710(13) -1.1914(5)
H48 H -0.5403 -0.1418 -1.2088
C34 C -0.4171(5) -0.2397(12) -1.2108(4)
H49 H -0.4054 -0.0838 -1.2100
C35 C -0.3410(5) -0.3465(14) -1.1577(5)
H50 H -0.3472 -0.5026 -1.1616
H51 H -0.2873 -0.3072 -1.1698
C36 C -0.3361(6) -0.2795(16) -1.0817(5)
H52 H -0.3323 -0.1230 -1.0778
H53 H -0.2843 -0.3404 -1.0497
C37 C -0.4157(6) -0.3579(15) -1.0598(5)
H54 H -0.4137 -0.2954 -1.0124
C38 C -0.5030(6) -0.2921(14) -1.1107(5)
H55 H -0.5246 -0.1589 -1.0935
C39 C -0.6157(6) -0.5236(15) -1.1798(5)
H56 H -0.6644 -0.4211 -1.1894
C40 C -0.3506(6) -0.2495(18) -1.3186(5)
H57 H -0.3001 -0.3330 -1.2961
H58 H -0.3386 -0.0985 -1.3092
H59 H -0.3653 -0.2746 -1.3696
C41 C -0.4202(7) -0.5983(18) -1.0527(5)
C42 C -0.5622(6) -0.4842(15) -1.1037(5)
H60 H -0.5985 -0.4531 -1.0705
loop_
_geom_bond_atom_site_label_1
_geom_bond_atom_site_label_2
_geom_bond_site_symmetry_1
_geom_bond_site_symmetry_2
O1 H1 1_555 1_555
O2 C8 1_555 1_555
O3 C13 1_555 1_555
C1 H2 1_555 1_555
C2 C1 1_555 1_555
H3 C2 1_555 1_555
H4 C2 1_555 1_555
C3 C2 1_555 1_555
H5 C3 1_555 1_555
H6 C3 1_555 1_555
C4 C3 1_555 1_555
H7 C4 1_555 1_555
C5 C4 1_555 1_555
H8 C5 1_555 1_555
C6 C1 1_555 1_555
H9 C6 1_555 1_555
C7 O1 1_555 1_555
H10 C7 1_555 1_555
C8 C7 1_555 1_555
H11 C8 1_555 1_555
C9 C5 1_555 1_555
H12 C9 1_555 1_555
C10 C9 1_555 1_555
H13 C10 1_555 1_555
C11 C10 1_555 1_555
H14 C11 1_555 1_555
H15 C11 1_555 1_555
C12 C6 1_555 1_555
H16 C12 1_555 1_555
H17 C12 1_555 1_555
C13 O2 1_555 1_555
C14 C1 1_555 1_555
H18 C14 1_555 1_555
H19 C14 1_555 1_555
H20 C14 1_555 1_555
O4 C26 1_555 1_555
O5 C28 1_555 1_555
O6 H21 1_555 1_555
C15 H22 1_555 1_555
H23 C15 1_555 1_555
H24 C15 1_555 1_555
C16 C15 1_555 1_555
H25 C16 1_555 1_555
C17 C16 1_555 1_555
H26 C17 1_555 1_555
H27 C17 1_555 1_555
C18 C17 1_555 1_555
H28 C18 1_555 1_555
H29 C18 1_555 1_555
C19 C18 1_555 1_555
H30 C19 1_555 1_555
C20 C19 1_555 1_555
H31 C20 1_555 1_555
C21 C16 1_555 1_555
H32 C21 1_555 1_555
C22 C21 1_555 1_555
H33 C22 1_555 1_555
H34 C22 1_555 1_555
C23 C22 1_555 1_555
H35 C23 1_555 1_555
H36 C23 1_555 1_555
C24 C23 1_555 1_555
H37 C24 1_555 1_555
C25 C20 1_555 1_555
H38 C25 1_555 1_555
C26 C25 1_555 1_555
H39 C26 1_555 1_555
C27 O6 1_555 1_555
H40 C27 1_555 1_555
C28 O4 1_555 1_555
O7 C41 1_555 1_555
O8 H41 1_555 1_555
O9 C41 1_555 1_555
C29 H42 1_555 1_555
C30 C29 1_555 1_555
H43 C30 1_555 1_555
H44 C30 1_555 1_555
C31 C30 1_555 1_555
H45 C31 1_555 1_555
H46 C31 1_555 1_555
C32 C31 1_555 1_555
H47 C32 1_555 1_555
C33 C32 1_555 1_555
H48 C33 1_555 1_555
C34 C29 1_555 1_555
H49 C34 1_555 1_555
C35 C34 1_555 1_555
H50 C35 1_555 1_555
H51 C35 1_555 1_555
C36 C35 1_555 1_555
H52 C36 1_555 1_555
H53 C36 1_555 1_555
C37 C36 1_555 1_555
H54 C37 1_555 1_555
C38 C33 1_555 1_555
H55 C38 1_555 1_555
C39 O8 1_555 1_555
H56 C39 1_555 1_555
C40 C29 1_555 1_555
H57 C40 1_555 1_555
H58 C40 1_555 1_555
H59 C40 1_555 1_555
C41 C37 1_555 1_555
C42 O7 1_555 1_555
H60 C42 1_555 1_555
C4 C7 1_555 1_555
C5 C6 1_555 1_555
C8 C9 1_555 1_555
C10 C13 1_555 1_555
C11 C12 1_555 1_555
C19 C27 1_555 1_555
C20 C21 1_555 1_555
C24 C25 1_555 1_555
C24 C28 1_555 1_555
C26 C27 1_555 1_555
C32 C39 1_555 1_555
C33 C34 1_555 1_555
C37 C38 1_555 1_555
C38 C42 1_555 1_555
C39 C42 1_555 1_555

#END
