
#######################################################################
#
#                 Cambridge Crystallographic Data Centre
#                                CCDC 
#
#######################################################################
#
# If this CIF has been generated from an entry in the Cambridge 
# Structural Database, then it will include bibliographic, chemical, 
# crystal, experimental, refinement or atomic coordinate data resulting 
# from the CCDC's data processing and validation procedures.
#
#######################################################################

data_WUVZIW
_chemical_name_common            
'Per(3-deoxy)-alpha-cyclomannin n-butanol clathrate hexahydrate'
_chemical_formula_moiety         'C36 H60 O24,C4 H10 O1,6(H2 O1)'
_chemical_name_systematic        
'Cyclohexakis(3-deoxy-\a-D-arabino-hexopyranosyl) n-butanol clathrate hexahydrate'
_symmetry_cell_setting           monoclinic
_symmetry_space_group_name_H-M   'P 21'
_symmetry_Int_Tables_number      4
_space_group_name_Hall           'P 2yb'
loop_
_symmetry_equiv_pos_site_id
_symmetry_equiv_pos_as_xyz
1 x,y,z
2 -x,1/2+y,-z
_cell_length_a                   7.3995(5)
_cell_length_b                   24.4481(18)
_cell_length_c                   14.2649(8)
_cell_angle_alpha                90
_cell_angle_beta                 99.116(5)
_cell_angle_gamma                90
_cell_volume                     2547.98
_exptl_crystal_colour            colorless
_exptl_crystal_description       plate
_cell_formula_units_Z            2
_exptl_crystal_recrystallization_method ethanol
loop_
_atom_site_label
_atom_site_type_symbol
_atom_site_fract_x
_atom_site_fract_y
_atom_site_fract_z
O1 O 0.2225(3) 0.31185(9) 0.28173(16)
C1 C 0.1623(5) 0.27395(14) 0.2093(2)
H1 H 0.1369 0.2386 0.2385
C2 C 0.3166(5) 0.26621(14) 0.1523(3)
H2 H 0.4301 0.2564 0.1956
O2 O 0.2697(5) 0.22328(11) 0.08454(19)
H3 H 0.3022 0.1934 0.1094
C3 C 0.3477(5) 0.31795(15) 0.0997(3)
H4 H 0.4348 0.3105 0.0562
H5 H 0.4021 0.3456 0.1454
C4 C 0.1716(5) 0.34044(13) 0.0435(3)
H6 H 0.1324 0.3178 -0.0136
C5 C 0.0208(5) 0.34344(14) 0.1037(3)
H7 H 0.0522 0.3723 0.1523
O3 O 0.0007(3) 0.29237(9) 0.15094(17)
C6 C -0.1642(5) 0.35617(15) 0.0474(3)
H8 H -0.2545 0.3580 0.0906
H9 H -0.1597 0.3921 0.0175
O4 O -0.2219(4) 0.31641(11) -0.02437(19)
H10 H -0.2117 0.2853 -0.0006
O5 O 0.2034(4) 0.39577(9) 0.01662(17)
C7 C 0.2172(5) 0.40684(14) -0.0790(2)
H11 H 0.2160 0.3718 -0.1139
C8 C 0.3992(5) 0.43492(14) -0.0801(3)
H12 H 0.4969 0.4126 -0.0430
O6 O 0.4337(4) 0.43879(11) -0.17533(18)
H13 H 0.4990 0.4128 -0.1867
C9 C 0.3982(5) 0.49086(15) -0.0343(3)
H14 H 0.5075 0.5110 -0.0452
H15 H 0.4047 0.4863 0.0344
C10 C 0.2283(5) 0.52446(13) -0.0726(2)
H16 H 0.2378 0.5389 -0.1365
C11 C 0.0543(4) 0.49150(14) -0.0757(3)
H17 H 0.0327 0.4850 -0.0099
O7 O 0.0692(3) 0.43910(9) -0.12140(17)
C12 C -0.1131(5) 0.51864(16) -0.1308(3)
H18 H -0.2188 0.4943 -0.1322
H19 H -0.1388 0.5525 -0.0984
O8 O -0.0885(4) 0.53099(12) -0.2253(2)
H20 H -0.0510 0.5629 -0.2278
O9 O 0.2312(4) 0.56883(9) -0.00572(17)
C13 C 0.1633(5) 0.62024(13) -0.0388(3)
H21 H 0.1384 0.6196 -0.1091
C14 C 0.3123(5) 0.66169(14) -0.0070(3)
H22 H 0.4267 0.6500 -0.0290
O10 O 0.2604(4) 0.71465(10) -0.04514(18)
H23 H 0.2488 0.7136 -0.1039
C15 C 0.3450(5) 0.66581(15) 0.1002(2)
H24 H 0.4012 0.6318 0.1272
H25 H 0.4302 0.6959 0.1198
C16 C 0.1681(5) 0.67571(14) 0.1383(2)
H26 H 0.1254 0.7136 0.1242
C17 C 0.0185(5) 0.63501(14) 0.0977(2)
H27 H 0.0534 0.5981 0.1230
O11 O 0.0000(3) 0.63362(9) -0.00432(17)
C18 C -0.1675(5) 0.64918(14) 0.1211(3)
H28 H -0.2596 0.6262 0.0827
H29 H -0.1698 0.6407 0.1880
O12 O -0.2158(4) 0.70547(10) 0.10437(18)
H30 H -0.2254 0.7121 0.0467
O13 O 0.2102(3) 0.66758(9) 0.24001(16)
C19 C 0.1384(5) 0.70530(13) 0.3004(2)
H31 H 0.0943 0.7382 0.2632
C20 C 0.2933(5) 0.72126(13) 0.3763(2)
H32 H 0.3942 0.7368 0.3467
O14 O 0.2344(4) 0.76077(10) 0.43948(17)
H33 H 0.1993 0.7889 0.4094
C21 C 0.3611(5) 0.67089(13) 0.4340(2)
H34 H 0.4189 0.6458 0.3941
H35 H 0.4540 0.6819 0.4875
C22 C 0.2072(5) 0.64144(13) 0.4715(2)
H36 H 0.1737 0.6618 0.5263
C23 C 0.0381(5) 0.63395(13) 0.3962(2)
H37 H 0.0610 0.6036 0.3537
O15 O -0.0084(3) 0.68235(9) 0.33964(16)
C24 C -0.1320(5) 0.62111(15) 0.4380(3)
H38 H -0.2377 0.6210 0.3870
H39 H -0.1205 0.5844 0.4658
O16 O -0.1644(4) 0.65909(11) 0.50879(18)
H40 H -0.1928 0.6892 0.4838
O17 O 0.2756(3) 0.58788(9) 0.50200(16)
C25 C 0.2629(5) 0.57213(14) 0.5958(2)
H41 H 0.2589 0.6055 0.6347
C26 C 0.4346(5) 0.54019(14) 0.6341(2)
H42 H 0.5422 0.5611 0.6205
O18 O 0.4451(4) 0.53597(10) 0.73517(18)
H43 H 0.4708 0.5041 0.7521
C27 C 0.4344(4) 0.48489(14) 0.5867(3)
H44 H 0.5356 0.4629 0.6197
H45 H 0.4546 0.4898 0.5209
C28 C 0.2552(5) 0.45440(13) 0.5871(3)
H46 H 0.2450 0.4426 0.6524
C29 C 0.0935(4) 0.48971(14) 0.5477(2)
H47 H 0.0987 0.4977 0.4801
O19 O 0.1021(3) 0.54085(9) 0.60000(17)
C30 C -0.0926(5) 0.46611(14) 0.5557(3)
H48 H -0.1865 0.4938 0.5359
H49 H -0.1168 0.4349 0.5123
O20 O -0.1062(4) 0.44867(11) 0.64923(19)
H50 H -0.0765 0.4742 0.6870
O21 O 0.2658(3) 0.40715(9) 0.52746(16)
C31 C 0.1890(5) 0.35722(13) 0.5528(3)
H51 H 0.1683 0.3595 0.6196
C32 C 0.3285(5) 0.31301(13) 0.5446(2)
H52 H 0.4454 0.3218 0.5859
O22 O 0.2604(4) 0.26115(9) 0.57169(17)
H53 H 0.2488 0.2621 0.6286
C33 C 0.3581(5) 0.30864(15) 0.4428(2)
H54 H 0.4375 0.2772 0.4363
H55 H 0.4208 0.3416 0.4258
C34 C 0.1809(5) 0.30196(14) 0.3752(2)
H56 H 0.1353 0.2641 0.3792
C35 C 0.0331(5) 0.34242(14) 0.3942(2)
H57 H 0.0639 0.3791 0.3717
O23 O 0.0217(3) 0.34577(9) 0.49425(17)
C36 C -0.1578(5) 0.32750(15) 0.3469(3)
H58 H -0.2450 0.3537 0.3663
H59 H -0.1646 0.3303 0.2779
O24 O -0.2094(4) 0.27375(11) 0.37012(18)
H60 H -0.2189 0.2724 0.4273
O25 O -0.2321(4) 0.19112(11) 0.24343(19)
H61 H -0.126(4) 0.1721(13) 0.258(3)
H62 H -0.216(5) 0.2220(11) 0.278(3)
O26 O 0.5907(4) 0.33858(11) 0.80191(19)
H63 H 0.648(5) 0.3291(16) 0.8611(14)
H64 H 0.678(4) 0.3350(17) 0.766(2)
O27 O 0.2425(4) 0.28763(11) 0.76561(19)
H65 H 0.356(3) 0.3028(14) 0.777(3)
H66 H 0.251(5) 0.2581(12) 0.804(3)
O28 O 0.1082(4) 0.13764(12) 0.2971(2)
H67 H 0.219(4) 0.1414(19) 0.278(3)
H68 H 0.125(5) 0.1439(19) 0.3592(15)
O29 O 0.8832(4) 0.34154(11) 0.7026(2)
H69 H 0.871(5) 0.3763(9) 0.688(3)
H70 H 1.000(3) 0.3347(15) 0.729(3)
O30 O 0.4265(4) 0.13750(13) 0.2063(2)
H71 H 0.535(4) 0.1565(14) 0.223(3)
H72 H 0.455(5) 0.1024(8) 0.214(3)
O31 O 0.793(5) 0.4946(16) 0.222(3)
C37 C 0.607(5) 0.5175(15) 0.246(2)
C38 C 0.487(4) 0.4693(12) 0.288(2)
C40 C 0.208(3) 0.4876(14) 0.207(2)
C44 C 0.310(3) 0.4701(11) 0.281(2)
C39? C 0.307(4) 0.5124(12) 0.292(2)
O32? O 0.869(5) 0.4853(17) 0.185(3)
C41? C 0.822(5) 0.479(2) 0.276(3)
C42? C 0.603(4) 0.4683(13) 0.245(2)
C43? C 0.461(4) 0.5154(10) 0.2769(18)
loop_
_geom_bond_atom_site_label_1
_geom_bond_atom_site_label_2
_geom_bond_site_symmetry_1
_geom_bond_site_symmetry_2
O1 C1 1_555 1_555
C1 H1 1_555 1_555
C2 C1 1_555 1_555
H2 C2 1_555 1_555
O2 C2 1_555 1_555
H3 O2 1_555 1_555
C3 C2 1_555 1_555
H4 C3 1_555 1_555
H5 C3 1_555 1_555
C4 C3 1_555 1_555
H6 C4 1_555 1_555
C5 C4 1_555 1_555
H7 C5 1_555 1_555
O3 C1 1_555 1_555
C6 C5 1_555 1_555
H8 C6 1_555 1_555
H9 C6 1_555 1_555
O4 C6 1_555 1_555
H10 O4 1_555 1_555
O5 C4 1_555 1_555
C7 O5 1_555 1_555
H11 C7 1_555 1_555
C8 C7 1_555 1_555
H12 C8 1_555 1_555
O6 C8 1_555 1_555
H13 O6 1_555 1_555
C9 C8 1_555 1_555
H14 C9 1_555 1_555
H15 C9 1_555 1_555
C10 C9 1_555 1_555
H16 C10 1_555 1_555
C11 C10 1_555 1_555
H17 C11 1_555 1_555
O7 C7 1_555 1_555
C12 C11 1_555 1_555
H18 C12 1_555 1_555
H19 C12 1_555 1_555
O8 C12 1_555 1_555
H20 O8 1_555 1_555
O9 C10 1_555 1_555
C13 O9 1_555 1_555
H21 C13 1_555 1_555
C14 C13 1_555 1_555
H22 C14 1_555 1_555
O10 C14 1_555 1_555
H23 O10 1_555 1_555
C15 C14 1_555 1_555
H24 C15 1_555 1_555
H25 C15 1_555 1_555
C16 C15 1_555 1_555
H26 C16 1_555 1_555
C17 C16 1_555 1_555
H27 C17 1_555 1_555
O11 C13 1_555 1_555
C18 C17 1_555 1_555
H28 C18 1_555 1_555
H29 C18 1_555 1_555
O12 C18 1_555 1_555
H30 O12 1_555 1_555
O13 C16 1_555 1_555
C19 O13 1_555 1_555
H31 C19 1_555 1_555
C20 C19 1_555 1_555
H32 C20 1_555 1_555
O14 C20 1_555 1_555
H33 O14 1_555 1_555
C21 C20 1_555 1_555
H34 C21 1_555 1_555
H35 C21 1_555 1_555
C22 C21 1_555 1_555
H36 C22 1_555 1_555
C23 C22 1_555 1_555
H37 C23 1_555 1_555
O15 C19 1_555 1_555
C24 C23 1_555 1_555
H38 C24 1_555 1_555
H39 C24 1_555 1_555
O16 C24 1_555 1_555
H40 O16 1_555 1_555
O17 C22 1_555 1_555
C25 O17 1_555 1_555
H41 C25 1_555 1_555
C26 C25 1_555 1_555
H42 C26 1_555 1_555
O18 C26 1_555 1_555
H43 O18 1_555 1_555
C27 C26 1_555 1_555
H44 C27 1_555 1_555
H45 C27 1_555 1_555
C28 C27 1_555 1_555
H46 C28 1_555 1_555
C29 C28 1_555 1_555
H47 C29 1_555 1_555
O19 C25 1_555 1_555
C30 C29 1_555 1_555
H48 C30 1_555 1_555
H49 C30 1_555 1_555
O20 C30 1_555 1_555
H50 O20 1_555 1_555
O21 C28 1_555 1_555
C31 O21 1_555 1_555
H51 C31 1_555 1_555
C32 C31 1_555 1_555
H52 C32 1_555 1_555
O22 C32 1_555 1_555
H53 O22 1_555 1_555
C33 C32 1_555 1_555
H54 C33 1_555 1_555
H55 C33 1_555 1_555
C34 O1 1_555 1_555
H56 C34 1_555 1_555
C35 C34 1_555 1_555
H57 C35 1_555 1_555
O23 C31 1_555 1_555
C36 C35 1_555 1_555
H58 C36 1_555 1_555
H59 C36 1_555 1_555
O24 C36 1_555 1_555
H60 O24 1_555 1_555
O25 H61 1_555 1_555
H62 O25 1_555 1_555
O26 H63 1_555 1_555
H64 O26 1_555 1_555
O27 H65 1_555 1_555
H66 O27 1_555 1_555
O28 H67 1_555 1_555
H68 O28 1_555 1_555
O29 H69 1_555 1_555
H70 O29 1_555 1_555
O30 H71 1_555 1_555
H72 O30 1_555 1_555
O31 C37 1_555 1_555
C37 C38 1_555 1_555
C38 C44 1_555 1_555
C40 C44 1_555 1_555
C5 O3 1_555 1_555
C11 O7 1_555 1_555
C17 O11 1_555 1_555
C23 O15 1_555 1_555
C29 O19 1_555 1_555
C33 C34 1_555 1_555
C35 O23 1_555 1_555

#END
