
#######################################################################
#
#                 Cambridge Crystallographic Data Centre
#                                CCDC 
#
#######################################################################
#
# If this CIF has been generated from an entry in the Cambridge 
# Structural Database, then it will include bibliographic, chemical, 
# crystal, experimental, refinement or atomic coordinate data resulting 
# from the CCDC's data processing and validation procedures.
#
#######################################################################

data_WUXCIB
_chemical_formula_moiety         'C12 H9 I1 N2 O2 S1'
_chemical_name_systematic        4-Iodo-N-(2-nitrophenylsulfanyl)aniline
_symmetry_cell_setting           orthorhombic
_symmetry_space_group_name_H-M   'P b c a'
_symmetry_Int_Tables_number      61
_space_group_name_Hall           '-P 2ac 2ab'
loop_
_symmetry_equiv_pos_site_id
_symmetry_equiv_pos_as_xyz
1 x,y,z
2 1/2+x,y,1/2-z
3 x,1/2-y,1/2+z
4 1/2-x,1/2+y,z
5 -x,-y,-z
6 1/2-x,-y,1/2+z
7 -x,1/2+y,1/2-z
8 1/2+x,1/2-y,-z
_cell_length_a                   7.4171(2)
_cell_length_b                   22.1145(8)
_cell_length_c                   15.7093(4)
_cell_angle_alpha                90
_cell_angle_beta                 90
_cell_angle_gamma                90
_cell_volume                     2576.73
_exptl_crystal_colour            orange
_exptl_crystal_description       plate
_cell_formula_units_Z            8
_exptl_crystal_recrystallization_method ethanol
loop_
_atom_site_label
_atom_site_type_symbol
_atom_site_fract_x
_atom_site_fract_y
_atom_site_fract_z
C1 C 0.5139(5) 0.60187(17) 0.0489(2)
C2 C 0.4337(5) 0.57878(18) -0.0242(2)
C3 C 0.5363(6) 0.55240(18) -0.0871(2)
C4 C 0.7206(6) 0.54941(18) -0.0777(2)
I1 I 0.87720(5) 0.505572(13) -0.171435(16)
C5 C 0.8042(6) 0.57209(18) -0.0058(2)
C6 C 0.6996(5) 0.59855(19) 0.0575(3)
S1 S 0.46633(13) 0.64314(5) 0.21155(6)
N1 N 0.4042(4) 0.62927(15) 0.11064(19)
C7 C 0.5423(5) 0.71901(17) 0.2043(2)
C8 C 0.5882(5) 0.75438(18) 0.2755(2)
C9 C 0.6467(5) 0.81364(19) 0.2685(2)
C10 C 0.6623(6) 0.84010(19) 0.1903(2)
C11 C 0.6187(6) 0.8060(2) 0.1191(2)
C12 C 0.5584(5) 0.74744(19) 0.1254(2)
N2 N 0.5739(4) 0.72846(18) 0.3604(2)
O1 O 0.5351(4) 0.67415(14) 0.36581(15)
O2 O 0.6018(5) 0.76111(15) 0.42184(16)
H1 H 0.3066 0.5812 -0.0309
H2 H 0.4804 0.5364 -0.1365
H3 H 0.9315 0.5696 0.0003
H4 H 0.7558 0.6145 0.1070
H5 H 0.2947 0.6400 0.0953
H6 H 0.6761 0.8360 0.3183
H7 H 0.7020 0.8808 0.1849
H8 H 0.6309 0.8237 0.0643
H9 H 0.5271 0.7259 0.0752
loop_
_geom_bond_atom_site_label_1
_geom_bond_atom_site_label_2
_geom_bond_site_symmetry_1
_geom_bond_site_symmetry_2
C1 C2 1_555 1_555
C2 C3 1_555 1_555
C3 C4 1_555 1_555
C4 I1 1_555 1_555
C5 C4 1_555 1_555
C6 C1 1_555 1_555
S1 N1 1_555 1_555
N1 C1 1_555 1_555
C7 S1 1_555 1_555
C8 C7 1_555 1_555
C9 C8 1_555 1_555
C10 C9 1_555 1_555
C11 C10 1_555 1_555
C12 C7 1_555 1_555
N2 C8 1_555 1_555
O1 N2 1_555 1_555
O2 N2 1_555 1_555
H1 C2 1_555 1_555
H2 C3 1_555 1_555
H3 C5 1_555 1_555
H4 C6 1_555 1_555
H5 N1 1_555 1_555
H6 C9 1_555 1_555
H7 C10 1_555 1_555
H8 C11 1_555 1_555
H9 C12 1_555 1_555
C5 C6 1_555 1_555
C11 C12 1_555 1_555

#END
