
#######################################################################
#
#                 Cambridge Crystallographic Data Centre
#                                CCDC 
#
#######################################################################
#
# If this CIF has been generated from an entry in the Cambridge 
# Structural Database, then it will include bibliographic, chemical, 
# crystal, experimental, refinement or atomic coordinate data resulting 
# from the CCDC's data processing and validation procedures.
#
#######################################################################

data_WUXHOM
_chemical_formula_moiety         'C12 H13 F2 N1 O1'
_chemical_name_systematic        
(1R,1'R)-2',2'-Difluoro-N-(1-phenylethyl)cyclopropane-1'-carboxamide
_symmetry_cell_setting           monoclinic
_symmetry_space_group_name_H-M   'P 21'
_symmetry_Int_Tables_number      4
_space_group_name_Hall           'P 2yb'
loop_
_symmetry_equiv_pos_site_id
_symmetry_equiv_pos_as_xyz
1 x,y,z
2 -x,1/2+y,-z
_cell_length_a                   9.2402(4)
_cell_length_b                   14.2669(5)
_cell_length_c                   9.3542(4)
_cell_angle_alpha                90
_cell_angle_beta                 109.330(10)
_cell_angle_gamma                90
_cell_volume                     1163.64
_exptl_crystal_colour            colorless
_exptl_crystal_description       plate
_chemical_melting_point          103-104deg.C
_cell_formula_units_Z            4
_exptl_crystal_recrystallization_method 'hexane/diethyl ether'
loop_
_atom_site_label
_atom_site_type_symbol
_atom_site_fract_x
_atom_site_fract_y
_atom_site_fract_z
F1 F 0.62539(16) 0.03015(10) 0.25394(15)
F2 F 0.86380(16) 0.01065(10) 0.39734(15)
O1 O 0.58366(17) 0.17844(11) 0.01546(16)
N1 N 0.7615(2) 0.11682(13) -0.0752(2)
C1 C 0.7271(2) 0.23260(15) -0.2767(2)
C2 C 0.6215(3) 0.30311(17) -0.3392(3)
C3 C 0.6697(3) 0.38934(18) -0.3742(3)
C4 C 0.8227(3) 0.40720(19) -0.3474(3)
C5 C 0.9285(3) 0.33740(17) -0.2860(3)
C6 C 0.8821(3) 0.25057(16) -0.2524(2)
C7 C 0.6765(3) 0.13861(16) -0.2341(2)
C8 C 0.6945(3) 0.05950(18) -0.3362(3)
C9 C 0.7113(2) 0.14259(15) 0.0375(2)
C10 C 0.8187(3) 0.12467(17) 0.1938(2)
C11 C 0.7812(3) 0.17008(19) 0.3279(3)
C12 C 0.7657(2) 0.07081(17) 0.3017(2)
H1 H 0.846(3) 0.0975(16) -0.058(2)
H2 H 0.513(3) 0.2879(17) -0.357(3)
H3 H 0.596(3) 0.4392(19) -0.419(3)
H4 H 0.852(3) 0.467(2) -0.363(3)
H5 H 1.032(3) 0.3490(19) -0.266(3)
H6 H 0.956(3) 0.1994(16) -0.210(2)
H7 H 0.574(2) 0.1453(14) -0.242(2)
H8 H 0.663(3) 0.0009(18) -0.308(2)
H9 H 0.638(3) 0.0739(16) -0.445(3)
H10 H 0.799(3) 0.0540(19) -0.329(3)
H11 H 0.916(3) 0.1185(16) 0.204(2)
H12 H 0.863(3) 0.1903(16) 0.415(3)
H13 H 0.691(3) 0.206(2) 0.298(3)
F3 F 0.09259(16) -0.01905(10) -0.28357(15)
F4 F 0.31949(17) -0.07215(10) -0.26885(15)
O2 O 0.08026(16) 0.06551(10) 0.00394(16)
N2 N 0.2897(2) 0.15807(13) 0.0464(2)
C13 C 0.2263(2) 0.23036(15) 0.2604(2)
C14 C 0.2869(3) 0.15399(17) 0.3511(3)
C15 C 0.2774(3) 0.14595(19) 0.4957(3)
C16 C 0.2075(3) 0.21638(18) 0.5516(3)
C17 C 0.1485(3) 0.29374(19) 0.4625(3)
C18 C 0.1568(3) 0.30095(17) 0.3182(3)
C19 C 0.2263(3) 0.24080(16) 0.0975(3)
C20 C 0.3135(4) 0.3266(2) 0.0746(4)
C21 C 0.2132(3) 0.07792(16) 0.0046(2)
C22 C 0.3009(3) 0.00220(15) -0.0419(2)
C23 C 0.2391(3) -0.09912(17) -0.0495(3)
C24 C 0.2288(3) -0.04759(16) -0.1862(2)
H14 H 0.374(3) 0.1623(17) 0.036(3)
H15 H 0.330(3) 0.1057(16) 0.308(3)
H16 H 0.311(3) 0.0875(18) 0.554(3)
H17 H 0.208(3) 0.2097(17) 0.649(3)
H18 H 0.099(3) 0.3375(18) 0.497(3)
H19 H 0.117(3) 0.3559(19) 0.258(3)
H20 H 0.115(3) 0.2499(16) 0.028(3)
H21 H 0.306(3) 0.3286(19) -0.037(3)
H22 H 0.415(3) 0.3261(18) 0.145(3)
H23 H 0.269(3) 0.383(2) 0.094(3)
H24 H 0.410(3) 0.0101(16) -0.011(2)
H25 H 0.142(3) -0.1015(17) -0.018(3)
H26 H 0.306(3) -0.145(2) -0.024(3)
loop_
_geom_bond_atom_site_label_1
_geom_bond_atom_site_label_2
_geom_bond_site_symmetry_1
_geom_bond_site_symmetry_2
F1 C12 1_555 1_555
F2 C12 1_555 1_555
F3 C24 1_555 1_555
F4 C24 1_555 1_555
O1 C9 1_555 1_555
O2 C21 1_555 1_555
N1 C7 1_555 1_555
N2 C19 1_555 1_555
C1 C2 1_555 1_555
C2 C3 1_555 1_555
C3 C4 1_555 1_555
C4 C5 1_555 1_555
C5 C6 1_555 1_555
C6 C1 1_555 1_555
C7 C1 1_555 1_555
C8 C7 1_555 1_555
C9 N1 1_555 1_555
C10 C9 1_555 1_555
C11 C10 1_555 1_555
C12 C10 1_555 1_555
C13 C14 1_555 1_555
C14 C15 1_555 1_555
C15 C16 1_555 1_555
C16 C17 1_555 1_555
C17 C18 1_555 1_555
C18 C13 1_555 1_555
C19 C13 1_555 1_555
C20 C19 1_555 1_555
C21 N2 1_555 1_555
C22 C21 1_555 1_555
C23 C22 1_555 1_555
C24 C22 1_555 1_555
H1 N1 1_555 1_555
H2 C2 1_555 1_555
H3 C3 1_555 1_555
H4 C4 1_555 1_555
H5 C5 1_555 1_555
H6 C6 1_555 1_555
H7 C7 1_555 1_555
H8 C8 1_555 1_555
H9 C8 1_555 1_555
H10 C8 1_555 1_555
H11 C10 1_555 1_555
H12 C11 1_555 1_555
H13 C11 1_555 1_555
H14 N2 1_555 1_555
H15 C14 1_555 1_555
H16 C15 1_555 1_555
H17 C16 1_555 1_555
H18 C17 1_555 1_555
H19 C18 1_555 1_555
H20 C19 1_555 1_555
H21 C20 1_555 1_555
H22 C20 1_555 1_555
H23 C20 1_555 1_555
H24 C22 1_555 1_555
H25 C23 1_555 1_555
H26 C23 1_555 1_555
C11 C12 1_555 1_555
C23 C24 1_555 1_555

#END
