
#######################################################################
#
#                 Cambridge Crystallographic Data Centre
#                                CCDC 
#
#######################################################################
#
# If this CIF has been generated from an entry in the Cambridge 
# Structural Database, then it will include bibliographic, chemical, 
# crystal, experimental, refinement or atomic coordinate data resulting 
# from the CCDC's data processing and validation procedures.
#
#######################################################################

data_WUXPUC
_chemical_formula_moiety         'C21 H24 F3 N1 O1,0.5(H2 O1)'
_chemical_name_systematic        
'4-(dibenzylamino)-1-(trifluoromethyl)cyclohexanol hemihydrate'
_symmetry_cell_setting           monoclinic
_symmetry_space_group_name_H-M   'P 21/c'
_symmetry_Int_Tables_number      14
_space_group_name_Hall           '-P 2ybc'
loop_
_symmetry_equiv_pos_site_id
_symmetry_equiv_pos_as_xyz
1 x,y,z
2 -x,1/2+y,1/2-z
3 -x,-y,-z
4 x,1/2-y,1/2+z
_cell_length_a                   16.8197(14)
_cell_length_b                   6.2849(5)
_cell_length_c                   18.1930(14)
_cell_angle_alpha                90
_cell_angle_beta                 93.240(7)
_cell_angle_gamma                90
_cell_volume                     1920.11
_exptl_crystal_colour            colorless
_cell_formula_units_Z            4
loop_
_atom_site_label
_atom_site_type_symbol
_atom_site_fract_x
_atom_site_fract_y
_atom_site_fract_z
F1 F -0.04027(9) -0.1395(2) 0.86859(8)
F2 F -0.06269(8) 0.1868(3) 0.83894(8)
F3 F 0.01211(8) -0.0033(2) 0.77426(6)
O1 O 0.03330(10) 0.1584(3) 0.96230(8)
H1 H 0.017(3) 0.048(6) 0.984(3)
N1 N 0.26561(10) 0.0436(3) 0.75110(9)
C1 C 0.21620(12) 0.0760(3) 0.81487(11)
H2 H 0.2531 0.1219 0.8569
C2 C 0.15795(13) 0.2589(3) 0.79943(11)
H3 H 0.1228 0.2239 0.7556
H4 H 0.1881 0.3890 0.7882
C3 C 0.10668(13) 0.3029(3) 0.86486(11)
H5 H 0.1408 0.3658 0.9053
H6 H 0.0656 0.4094 0.8498
C4 C 0.06550(12) 0.1061(3) 0.89402(11)
C5 C 0.12502(13) -0.0761(3) 0.90681(11)
H7 H 0.1621 -0.0396 0.9491
H8 H 0.0957 -0.2059 0.9199
C6 C 0.17337(12) -0.1244(3) 0.84031(11)
H9 H 0.1375 -0.1787 0.7995
H10 H 0.2131 -0.2363 0.8534
C7 C -0.00586(13) 0.0373(4) 0.84366(12)
C8 C 0.34215(12) -0.0567(4) 0.77230(12)
H11 H 0.3667 -0.1090 0.7275
H12 H 0.3329 -0.1809 0.8042
C9 C 0.39896(12) 0.0949(4) 0.81274(11)
C10 C 0.44566(13) 0.0301(4) 0.87415(12)
H13 H 0.4394 -0.1092 0.8933
C11 C 0.50142(14) 0.1671(4) 0.90792(13)
H14 H 0.5329 0.1208 0.9499
C12 C 0.51128(14) 0.3701(4) 0.88080(14)
H15 H 0.5496 0.4631 0.9038
C13 C 0.46494(13) 0.4371(4) 0.81991(13)
H16 H 0.4714 0.5767 0.8011
C14 C 0.40915(13) 0.3012(4) 0.78622(12)
H17 H 0.3774 0.3489 0.7446
C15 C 0.22438(13) -0.0703(4) 0.68967(11)
H18 H 0.1677 -0.0269 0.6860
H19 H 0.2265 -0.2251 0.6997
C16 C 0.26097(12) -0.0263(4) 0.61712(11)
C17 C 0.26961(13) -0.1900(4) 0.56683(12)
H20 H 0.2544 -0.3307 0.5789
C18 C 0.30041(13) -0.1488(4) 0.49880(12)
H21 H 0.3060 -0.2618 0.4648
C19 C 0.32294(14) 0.0550(4) 0.48020(12)
H22 H 0.3441 0.0822 0.4338
C20 C 0.31430(15) 0.2187(4) 0.52996(13)
H23 H 0.3296 0.3592 0.5177
C21 C 0.28335(14) 0.1784(4) 0.59786(12)
H24 H 0.2774 0.2921 0.6315
O2 O -0.0712(2) 0.4748(6) 0.9638(2)
H26 H -0.1198(17) 0.475(10) 0.945(3)
H27 H -0.065(3) 0.590(6) 0.990(3)
H25? H 0.000(2) 0.263(6) 0.958(3)
loop_
_geom_bond_atom_site_label_1
_geom_bond_atom_site_label_2
_geom_bond_site_symmetry_1
_geom_bond_site_symmetry_2
F1 C7 1_555 1_555
F2 C7 1_555 1_555
F3 C7 1_555 1_555
O1 H1 1_555 1_555
N1 C1 1_555 1_555
C1 H2 1_555 1_555
C2 C1 1_555 1_555
H3 C2 1_555 1_555
H4 C2 1_555 1_555
C3 C2 1_555 1_555
H5 C3 1_555 1_555
H6 C3 1_555 1_555
C4 O1 1_555 1_555
C5 C4 1_555 1_555
H7 C5 1_555 1_555
H8 C5 1_555 1_555
C6 C1 1_555 1_555
H9 C6 1_555 1_555
H10 C6 1_555 1_555
C7 C4 1_555 1_555
C8 N1 1_555 1_555
H11 C8 1_555 1_555
H12 C8 1_555 1_555
C9 C8 1_555 1_555
C10 C9 1_555 1_555
H13 C10 1_555 1_555
C11 C10 1_555 1_555
H14 C11 1_555 1_555
C12 C11 1_555 1_555
H15 C12 1_555 1_555
C13 C12 1_555 1_555
H16 C13 1_555 1_555
C14 C9 1_555 1_555
H17 C14 1_555 1_555
C15 N1 1_555 1_555
H18 C15 1_555 1_555
H19 C15 1_555 1_555
C16 C15 1_555 1_555
C17 C16 1_555 1_555
H20 C17 1_555 1_555
C18 C17 1_555 1_555
H21 C18 1_555 1_555
C19 C18 1_555 1_555
H22 C19 1_555 1_555
C20 C19 1_555 1_555
H23 C20 1_555 1_555
C21 C16 1_555 1_555
H24 C21 1_555 1_555
O2 H26 1_555 1_555
H27 O2 1_555 1_555
C3 C4 1_555 1_555
C5 C6 1_555 1_555
C13 C14 1_555 1_555
C20 C21 1_555 1_555

#END
