
#######################################################################
#
#                 Cambridge Crystallographic Data Centre
#                                CCDC 
#
#######################################################################
#
# If this CIF has been generated from an entry in the Cambridge 
# Structural Database, then it will include bibliographic, chemical, 
# crystal, experimental, refinement or atomic coordinate data resulting 
# from the CCDC's data processing and validation procedures.
#
#######################################################################

data_WUXQAJ
_chemical_formula_moiety         'C21 H24 F3 N1 O1'
_chemical_name_systematic        
4-(dibenzylamino)-1-(trifluoromethyl)cyclohexanol
_symmetry_cell_setting           monoclinic
_symmetry_space_group_name_H-M   'P 21/c'
_symmetry_Int_Tables_number      14
_space_group_name_Hall           '-P 2ybc'
loop_
_symmetry_equiv_pos_site_id
_symmetry_equiv_pos_as_xyz
1 x,y,z
2 -x,1/2+y,1/2-z
3 -x,-y,-z
4 x,1/2-y,1/2+z
_cell_length_a                   17.8003(4)
_cell_length_b                   6.1791(2)
_cell_length_c                   17.0864(3)
_cell_angle_alpha                90
_cell_angle_beta                 101.206(2)
_cell_angle_gamma                90
_cell_volume                     1843.5
_exptl_crystal_colour            colorless
_exptl_crystal_description       block
_cell_formula_units_Z            4
loop_
_atom_site_label
_atom_site_type_symbol
_atom_site_fract_x
_atom_site_fract_y
_atom_site_fract_z
F1 F 0.58765(5) 0.31857(16) 0.48285(4)
F2 F 0.49857(5) 0.47249(14) 0.39806(5)
F3 F 0.48753(5) 0.14007(15) 0.42905(5)
O1 O 0.51824(5) 0.17950(18) 0.27937(5)
H1 H 0.5058(10) 0.300(3) 0.2596(10)
N1 N 0.75963(5) 0.06942(15) 0.21976(5)
C1 C 0.71617(6) 0.12550(17) 0.28204(6)
H2 H 0.7547 0.1526 0.3320
C2 C 0.66350(7) -0.05461(18) 0.30108(7)
H3 H 0.6943 -0.1862 0.3175
H4 H 0.6254 -0.0899 0.2524
C3 C 0.62154(7) 0.01070(19) 0.36760(7)
H5 H 0.5856 -0.1058 0.3757
H6 H 0.6591 0.0295 0.4181
C4 C 0.57744(6) 0.22026(19) 0.34697(6)
C5 C 0.63061(7) 0.39957(19) 0.32971(7)
H7 H 0.6690 0.4308 0.3786
H8 H 0.6005 0.5330 0.3145
C6 C 0.67172(7) 0.33534(19) 0.26232(7)
H9 H 0.6336 0.3170 0.2122
H10 H 0.7074 0.4522 0.2540
C7 C 0.53774(7) 0.2874(2) 0.41470(7)
C8 C 0.82928(6) -0.05188(18) 0.25188(6)
H11 H 0.8477 -0.1248 0.2075
H12 H 0.8173 -0.1651 0.2886
C9 C 0.89212(6) 0.09237(18) 0.29621(6)
C10 C 0.90353(7) 0.29841(19) 0.26738(7)
H13 H 0.8691 0.3519 0.2219
C11 C 0.96423(7) 0.4264(2) 0.30395(7)
H14 H 0.9714 0.5661 0.2833
C12 C 1.01457(7) 0.3504(2) 0.37079(8)
H15 H 1.0563 0.4375 0.3960
C13 C 1.00355(7) 0.1469(2) 0.40031(7)
H16 H 1.0377 0.0944 0.4461
C14 C 0.94277(7) 0.0186(2) 0.36338(7)
H17 H 0.9357 -0.1209 0.3842
C15 C 0.71436(7) -0.03271(19) 0.14857(6)
H18 H 0.6642 0.0409 0.1342
H19 H 0.7049 -0.1862 0.1602
C16 C 0.75544(6) -0.02049(19) 0.07917(6)
C17 C 0.78758(7) 0.1731(2) 0.06026(7)
H20 H 0.7832 0.2989 0.0910
C18 C 0.82592(7) 0.1846(2) -0.00292(7)
H21 H 0.8478 0.3178 -0.0150
C19 C 0.83243(7) 0.0027(2) -0.04852(7)
H22 H 0.8589 0.0104 -0.0917
C20 C 0.80024(8) -0.1898(2) -0.03075(7)
H23 H 0.8043 -0.3149 -0.0620
C21 C 0.76177(7) -0.2015(2) 0.03280(7)
H24 H 0.7397 -0.3347 0.0445
loop_
_geom_bond_atom_site_label_1
_geom_bond_atom_site_label_2
_geom_bond_site_symmetry_1
_geom_bond_site_symmetry_2
F1 C7 1_555 1_555
F2 C7 1_555 1_555
F3 C7 1_555 1_555
O1 H1 1_555 1_555
N1 C1 1_555 1_555
C1 H2 1_555 1_555
C2 C1 1_555 1_555
H3 C2 1_555 1_555
H4 C2 1_555 1_555
C3 C2 1_555 1_555
H5 C3 1_555 1_555
H6 C3 1_555 1_555
C4 O1 1_555 1_555
C5 C4 1_555 1_555
H7 C5 1_555 1_555
H8 C5 1_555 1_555
C6 C1 1_555 1_555
H9 C6 1_555 1_555
H10 C6 1_555 1_555
C7 C4 1_555 1_555
C8 N1 1_555 1_555
H11 C8 1_555 1_555
H12 C8 1_555 1_555
C9 C8 1_555 1_555
C10 C9 1_555 1_555
H13 C10 1_555 1_555
C11 C10 1_555 1_555
H14 C11 1_555 1_555
C12 C11 1_555 1_555
H15 C12 1_555 1_555
C13 C12 1_555 1_555
H16 C13 1_555 1_555
C14 C9 1_555 1_555
H17 C14 1_555 1_555
C15 N1 1_555 1_555
H18 C15 1_555 1_555
H19 C15 1_555 1_555
C16 C15 1_555 1_555
C17 C16 1_555 1_555
H20 C17 1_555 1_555
C18 C17 1_555 1_555
H21 C18 1_555 1_555
C19 C18 1_555 1_555
H22 C19 1_555 1_555
C20 C19 1_555 1_555
H23 C20 1_555 1_555
C21 C16 1_555 1_555
H24 C21 1_555 1_555
C3 C4 1_555 1_555
C5 C6 1_555 1_555
C13 C14 1_555 1_555
C20 C21 1_555 1_555

#END
