
#######################################################################
#
#                 Cambridge Crystallographic Data Centre
#                                CCDC 
#
#######################################################################
#
# If this CIF has been generated from an entry in the Cambridge 
# Structural Database, then it will include bibliographic, chemical, 
# crystal, experimental, refinement or atomic coordinate data resulting 
# from the CCDC's data processing and validation procedures.
#
#######################################################################

data_WUXQEN
_chemical_formula_moiety         'C21 H24 F3 N1 O1'
_chemical_name_systematic        
2-(dibenzylamino)-1-(trifluoromethyl)cyclohexanol
_symmetry_cell_setting           triclinic
_symmetry_space_group_name_H-M   'P -1'
_symmetry_Int_Tables_number      2
_space_group_name_Hall           '-P 1'
loop_
_symmetry_equiv_pos_site_id
_symmetry_equiv_pos_as_xyz
1 x,y,z
2 -x,-y,-z
_cell_length_a                   9.0335(3)
_cell_length_b                   9.8976(3)
_cell_length_c                   11.7319(3)
_cell_angle_alpha                95.431(3)
_cell_angle_beta                 101.143(3)
_cell_angle_gamma                115.147(3)
_cell_volume                     912.99
_exptl_crystal_colour            colorless
_exptl_crystal_description       'cut block'
_cell_formula_units_Z            2
loop_
_atom_site_label
_atom_site_type_symbol
_atom_site_fract_x
_atom_site_fract_y
_atom_site_fract_z
F1 F 1.16072(9) 0.62670(8) 0.85896(6)
F2 F 1.32366(8) 0.51941(8) 0.88324(7)
F3 F 1.22973(8) 0.54900(7) 0.70962(6)
O1 O 0.98539(10) 0.35335(11) 0.90042(7)
N1 N 0.79466(10) 0.41914(9) 0.71040(7)
C1 C 1.03181(12) 0.35609(11) 0.79158(8)
C2 C 0.87530(11) 0.32021(10) 0.68923(8)
H1 H 0.7901 0.2171 0.6943
C3 C 0.90258(13) 0.29705(11) 0.56542(8)
H2 H 0.7955 0.2671 0.5047
H3 H 0.9889 0.3939 0.5534
C4 C 0.96083(14) 0.17363(12) 0.55065(10)
H4 H 0.8676 0.0739 0.5511
H5 H 0.9880 0.1672 0.4731
C5 C 1.11648(14) 0.20694(13) 0.64958(10)
H6 H 1.1451 0.1211 0.6408
H7 H 1.2140 0.2997 0.6427
C6 C 1.08503(13) 0.22992(12) 0.77158(10)
H8 H 1.1897 0.2551 0.8332
H9 H 0.9954 0.1332 0.7810
C7 C 1.18558(13) 0.51231(12) 0.80994(9)
C8 C 0.60889(12) 0.33323(11) 0.66555(9)
H10 H 0.5808 0.2809 0.5824
H11 H 0.5602 0.4059 0.6657
C9 C 0.52767(11) 0.21694(11) 0.73674(8)
C10 C 0.54213(13) 0.26390(12) 0.85598(9)
H12 H 0.6093 0.3682 0.8930
C11 C 0.45920(14) 0.15951(13) 0.92089(10)
H13 H 0.4701 0.1924 1.0022
C12 C 0.36022(13) 0.00692(12) 0.86757(10)
H14 H 0.3023 -0.0642 0.9120
C13 C 0.34623(14) -0.04109(12) 0.74968(10)
H15 H 0.2791 -0.1454 0.7130
C14 C 0.43070(13) 0.06379(11) 0.68487(9)
H16 H 0.4218 0.0301 0.6042
C15 C 0.85252(13) 0.55679(11) 0.65853(8)
H17 H 0.8020 0.5280 0.5718
H18 H 0.9772 0.6035 0.6726
C16 C 0.80322(12) 0.67183(11) 0.71181(9)
C17 C 0.70665(14) 0.72451(12) 0.63987(9)
H19 H 0.6716 0.6880 0.5566
C18 C 0.66054(15) 0.83014(13) 0.68843(10)
H20 H 0.5937 0.8646 0.6383
C19 C 0.71177(14) 0.88489(12) 0.80947(10)
H21 H 0.6808 0.9573 0.8427
C20 C 0.80862(14) 0.83336(13) 0.88196(10)
H22 H 0.8444 0.8709 0.9651
C21 C 0.85375(13) 0.72724(12) 0.83385(9)
H23 H 0.9195 0.6922 0.8844
H24 H 0.917(2) 0.391(2) 0.8944(15)
loop_
_geom_bond_atom_site_label_1
_geom_bond_atom_site_label_2
_geom_bond_site_symmetry_1
_geom_bond_site_symmetry_2
F1 C7 1_555 1_555
F2 C7 1_555 1_555
F3 C7 1_555 1_555
O1 C1 1_555 1_555
N1 C2 1_555 1_555
C1 C2 1_555 1_555
C2 H1 1_555 1_555
C3 C2 1_555 1_555
H2 C3 1_555 1_555
H3 C3 1_555 1_555
C4 C3 1_555 1_555
H4 C4 1_555 1_555
H5 C4 1_555 1_555
C5 C4 1_555 1_555
H6 C5 1_555 1_555
H7 C5 1_555 1_555
C6 C1 1_555 1_555
H8 C6 1_555 1_555
H9 C6 1_555 1_555
C7 C1 1_555 1_555
C8 N1 1_555 1_555
H10 C8 1_555 1_555
H11 C8 1_555 1_555
C9 C8 1_555 1_555
C10 C9 1_555 1_555
H12 C10 1_555 1_555
C11 C10 1_555 1_555
H13 C11 1_555 1_555
C12 C11 1_555 1_555
H14 C12 1_555 1_555
C13 C12 1_555 1_555
H15 C13 1_555 1_555
C14 C9 1_555 1_555
H16 C14 1_555 1_555
C15 N1 1_555 1_555
H17 C15 1_555 1_555
H18 C15 1_555 1_555
C16 C15 1_555 1_555
C17 C16 1_555 1_555
H19 C17 1_555 1_555
C18 C17 1_555 1_555
H20 C18 1_555 1_555
C19 C18 1_555 1_555
H21 C19 1_555 1_555
C20 C19 1_555 1_555
H22 C20 1_555 1_555
C21 C16 1_555 1_555
H23 C21 1_555 1_555
H24 O1 1_555 1_555
C5 C6 1_555 1_555
C13 C14 1_555 1_555
C20 C21 1_555 1_555

#END
