
#######################################################################
#
#                 Cambridge Crystallographic Data Centre
#                                CCDC 
#
#######################################################################
#
# If this CIF has been generated from an entry in the Cambridge 
# Structural Database, then it will include bibliographic, chemical, 
# crystal, experimental, refinement or atomic coordinate data resulting 
# from the CCDC's data processing and validation procedures.
#
#######################################################################

data_WUYRUE
_chemical_formula_moiety         'C19 H19 N1 O2 S1'
_chemical_name_systematic        
3-((4-Methylphenyl)sulfonyl)-2-phenyl-3-azabicyclo[3.2.0]hept-6-ene
_symmetry_cell_setting           orthorhombic
_symmetry_space_group_name_H-M   'P 21 21 21'
_symmetry_Int_Tables_number      19
_space_group_name_Hall           'P 2ac 2ab'
loop_
_symmetry_equiv_pos_site_id
_symmetry_equiv_pos_as_xyz
1 x,y,z
2 1/2-x,-y,1/2+z
3 -x,1/2+y,1/2-z
4 1/2+x,1/2-y,-z
_cell_length_a                   8.0470(7)
_cell_length_b                   13.3522(11)
_cell_length_c                   15.6609(13)
_cell_angle_alpha                90
_cell_angle_beta                 90
_cell_angle_gamma                90
_cell_volume                     1682.69
_exptl_crystal_colour            colorless
_exptl_crystal_description       prismatic
_cell_formula_units_Z            4
loop_
_atom_site_label
_atom_site_type_symbol
_atom_site_fract_x
_atom_site_fract_y
_atom_site_fract_z
S1 S 0.24116(6) 0.03947(4) 0.56049(3)
O1 O 0.2564(2) 0.00752(12) 0.64707(9)
O2 O 0.10089(18) 0.09669(12) 0.53377(12)
N1 N 0.40280(18) 0.10600(11) 0.53968(10)
C1 C 0.4155(3) 0.16805(14) 0.46205(13)
H1 H 0.4161 0.2387 0.4765
H2 H 0.3231 0.1550 0.4239
C2 C 0.5686(2) 0.07723(14) 0.57023(12)
H3 H 0.5642 0.0092 0.5937
C3 C 0.6753(3) 0.07732(16) 0.48939(13)
H4 H 0.7905 0.0988 0.4980
C4 C 0.5783(3) 0.13799(15) 0.42089(13)
H5 H 0.6406 0.1928 0.3943
C5 C 0.5764(3) 0.04179(18) 0.37129(15)
H6 H 0.5339 0.0251 0.3179
C6 C 0.6543(3) -0.00972(18) 0.42845(16)
H7 H 0.6861 -0.0766 0.4312
C7 C 0.6332(2) 0.14864(14) 0.63813(12)
C8 C 0.5549(3) 0.23680(16) 0.65935(13)
H8 H 0.4547 0.2535 0.6335
C9 C 0.6250(3) 0.30104(18) 0.71925(15)
H9 H 0.5716 0.3606 0.7331
C10 C 0.7709(4) 0.2773(2) 0.75765(13)
H10 H 0.8172 0.3206 0.7976
C11 C 0.8503(3) 0.1892(2) 0.73764(16)
H11 H 0.9495 0.1725 0.7646
C12 C 0.7830(3) 0.12575(16) 0.67766(14)
H12 H 0.8384 0.0669 0.6634
C13 C 0.2473(3) -0.06916(13) 0.49620(12)
C14 C 0.1715(3) -0.06942(16) 0.41742(15)
H13 H 0.1113 -0.0139 0.3992
C15 C 0.1852(3) -0.15222(18) 0.36585(16)
H14 H 0.1335 -0.1522 0.3127
C16 C 0.2744(3) -0.23555(16) 0.39130(14)
C17 C 0.3496(3) -0.23376(16) 0.47046(15)
H15 H 0.4102 -0.2891 0.4886
C18 C 0.3367(3) -0.15152(15) 0.52315(14)
H16 H 0.3877 -0.1515 0.5764
C19 C 0.2873(4) -0.32710(19) 0.33419(19)
H17 H 0.1802 -0.3582 0.3294
H18 H 0.3648 -0.3738 0.3585
H19 H 0.3251 -0.3072 0.2786
loop_
_geom_bond_atom_site_label_1
_geom_bond_atom_site_label_2
_geom_bond_site_symmetry_1
_geom_bond_site_symmetry_2
S1 O1 1_555 1_555
O2 S1 1_555 1_555
N1 S1 1_555 1_555
C1 N1 1_555 1_555
H1 C1 1_555 1_555
H2 C1 1_555 1_555
C2 N1 1_555 1_555
H3 C2 1_555 1_555
C3 C2 1_555 1_555
H4 C3 1_555 1_555
C4 C1 1_555 1_555
H5 C4 1_555 1_555
C5 C4 1_555 1_555
H6 C5 1_555 1_555
C6 C3 1_555 1_555
H7 C6 1_555 1_555
C7 C2 1_555 1_555
C8 C7 1_555 1_555
H8 C8 1_555 1_555
C9 C8 1_555 1_555
H9 C9 1_555 1_555
C10 C9 1_555 1_555
H10 C10 1_555 1_555
C11 C10 1_555 1_555
H11 C11 1_555 1_555
C12 C7 1_555 1_555
H12 C12 1_555 1_555
C13 S1 1_555 1_555
C14 C13 1_555 1_555
H13 C14 1_555 1_555
C15 C14 1_555 1_555
H14 C15 1_555 1_555
C16 C15 1_555 1_555
C17 C16 1_555 1_555
H15 C17 1_555 1_555
C18 C13 1_555 1_555
H16 C18 1_555 1_555
C19 C16 1_555 1_555
H17 C19 1_555 1_555
H18 C19 1_555 1_555
H19 C19 1_555 1_555
C3 C4 1_555 1_555
C5 C6 1_555 1_555
C11 C12 1_555 1_555
C17 C18 1_555 1_555

#END
