
#######################################################################
#
#                 Cambridge Crystallographic Data Centre
#                                CCDC 
#
#######################################################################
#
# If this CIF has been generated from an entry in the Cambridge 
# Structural Database, then it will include bibliographic, chemical, 
# crystal, experimental, refinement or atomic coordinate data resulting 
# from the CCDC's data processing and validation procedures.
#
#######################################################################

data_WUZKOT
_chemical_formula_moiety         'C3 H9 B12 Cl11 N1 1-,C4 H12 N1 1+'
_chemical_name_systematic        
'tetramethylammonium 1-(trimethylammonio)-2,3,4,5,6,7,8,9,10,11,12-undecachloro-closo-dodecaborate'
_symmetry_cell_setting           orthorhombic
_symmetry_space_group_name_H-M   'P b c m'
_symmetry_Int_Tables_number      57
_space_group_name_Hall           '-P 2c 2b'
loop_
_symmetry_equiv_pos_site_id
_symmetry_equiv_pos_as_xyz
1 x,y,z
2 -x,-y,1/2+z
3 x,1/2-y,-z
4 -x,1/2+y,1/2-z
5 -x,-y,-z
6 x,y,1/2-z
7 -x,1/2+y,z
8 x,1/2-y,1/2+z
_cell_length_a                   10.0158(5)
_cell_length_b                   17.2318(8)
_cell_length_c                   16.2320(11)
_cell_angle_alpha                90
_cell_angle_beta                 90
_cell_angle_gamma                90
_cell_volume                     2801.49
_cell_formula_units_Z            4
loop_
_atom_site_label
_atom_site_type_symbol
_atom_site_fract_x
_atom_site_fract_y
_atom_site_fract_z
N2 N 0.8855(5) 0.7500 0.5000
C3 C 0.8010(8) 0.7946(5) 0.5543(5)
H4 H 0.8088 0.8488 0.5411
H5 H 0.8282 0.7864 0.6103
H6 H 0.7100 0.7785 0.5476
C4 C 0.9670(7) 0.6971(4) 0.5482(5)
H7 H 0.9415 0.7002 0.6051
H8 H 1.0594 0.7111 0.5427
H9 H 0.9542 0.6450 0.5287
C3B C 0.8010(8) 0.7054(5) 0.4457(5)
H4B H 0.8088 0.6512 0.4589
H5B H 0.8282 0.7136 0.3897
H6B H 0.7100 0.7215 0.4524
C4B C 0.9670(7) 0.8029(4) 0.4518(5)
H7B H 0.9415 0.7998 0.3949
H8B H 1.0594 0.7889 0.4573
H9B H 0.9542 0.8550 0.4713
Cl1 Cl 0.63139(13) 0.60876(6) 0.63629(7)
Cl2 Cl 0.92921(14) 0.57455(9) 0.7500
Cl3 Cl 0.99212(17) 0.36179(12) 0.7500
Cl4 Cl 0.71807(14) 0.27052(6) 0.63672(10)
Cl5 Cl 0.41776(16) 0.30022(8) 0.7500
Cl6 Cl 0.50422(15) 0.41557(7) 0.56331(7)
Cl7 Cl 0.85066(15) 0.45971(8) 0.56835(9)
N1 N 0.3628(4) 0.5127(3) 0.7500
B1 B 0.5110(6) 0.4771(3) 0.7500
B2 B 0.6465(4) 0.5216(2) 0.6949(3)
B3 B 0.7978(6) 0.5037(3) 0.7500
B4 B 0.8265(6) 0.4026(4) 0.7500
B5 B 0.6959(4) 0.3573(2) 0.6955(3)
B6 B 0.5438(6) 0.3743(3) 0.7500
B7 B 0.5836(5) 0.4300(2) 0.6610(3)
B8 B 0.7590(5) 0.4480(3) 0.6620(3)
C1 C 0.2835(6) 0.4865(6) 0.8200(5)
H1 H 0.2792 0.4308 0.8200
H2 H 0.1948 0.5074 0.8159
H3 H 0.3241 0.5040 0.8703
C2 C 0.3569(10) 0.5948(6) 0.7831(9)
Cl1E Cl 0.63139(13) 0.60876(6) 0.86371(7)
Cl4E Cl 0.71807(14) 0.27052(6) 0.86328(10)
Cl6E Cl 0.50422(15) 0.41557(7) 0.93669(7)
Cl7E Cl 0.85066(15) 0.45971(8) 0.93165(9)
B2E B 0.6465(4) 0.5216(2) 0.8051(3)
B5E B 0.6959(4) 0.3573(2) 0.8045(3)
B7E B 0.5836(5) 0.4300(2) 0.8390(3)
B8E B 0.7590(5) 0.4480(3) 0.8380(3)
C1E C 0.2835(6) 0.4865(6) 0.6800(5)
H1E H 0.2792 0.4308 0.6800
H2E H 0.1948 0.5074 0.6841
H3E H 0.3241 0.5040 0.6297
C2E C 0.3569(10) 0.5948(6) 0.7169(9)
H10? H 0.3768 0.5944 0.8409
H11? H 0.2691 0.6156 0.7745
H12? H 0.4211 0.6263 0.7547
loop_
_geom_bond_atom_site_label_1
_geom_bond_atom_site_label_2
_geom_bond_site_symmetry_1
_geom_bond_site_symmetry_2
Cl1 B2 1_555 1_555
Cl2 B3 1_555 1_555
Cl3 B4 1_555 1_555
Cl4 B5 1_555 1_555
Cl5 B6 1_555 1_555
Cl6 B7 1_555 1_555
Cl7 B8 1_555 1_555
N1 B1 1_555 1_555
B1 B2 1_555 1_555
B2 B3 1_555 1_555
B3 B4 1_555 1_555
B4 B5 1_555 1_555
B5 B6 1_555 1_555
B6 B1 1_555 1_555
B7 B1 1_555 1_555
B8 B2 1_555 1_555
C1 N1 1_555 1_555
H1 C1 1_555 1_555
H2 C1 1_555 1_555
H3 C1 1_555 1_555
C2 N1 1_555 1_555
N2 C3 1_555 1_555
C3 H4 1_555 1_555
H5 C3 1_555 1_555
H6 C3 1_555 1_555
C4 N2 1_555 1_555
H7 C4 1_555 1_555
H8 C4 1_555 1_555
H9 C4 1_555 1_555
Cl1E B2E 1_555 1_555
Cl4E B5E 1_555 1_555
Cl6E B7E 1_555 1_555
Cl7E B8E 1_555 1_555
B2E B1 1_555 1_555
B5E B4 1_555 1_555
B7E B1 1_555 1_555
B8E B3 1_555 1_555
C1E N1 1_555 1_555
H1E C1E 1_555 1_555
H2E C1E 1_555 1_555
H3E C1E 1_555 1_555
C2E N1 1_555 1_555
C3B N2 1_555 1_555
H4B C3B 1_555 1_555
H5B C3B 1_555 1_555
H6B C3B 1_555 1_555
C4B N2 1_555 1_555
H7B C4B 1_555 1_555
H8B C4B 1_555 1_555
H9B C4B 1_555 1_555
B2 B7 1_555 1_555
B2 B2E 1_555 1_555
B3 B8 1_555 1_555
B3 B2E 1_555 1_555
B4 B8 1_555 1_555
B4 B8E 1_555 1_555
B5 B7 1_555 1_555
B5 B8 1_555 1_555
B5 B5E 1_555 1_555
B6 B7 1_555 1_555
B6 B5E 1_555 1_555
B6 B7E 1_555 1_555
B7 B8 1_555 1_555
B2E B7E 1_555 1_555
B2E B8E 1_555 1_555
B5E B7E 1_555 1_555
B5E B8E 1_555 1_555
B7E B8E 1_555 1_555

#END
