
#######################################################################
#
#                 Cambridge Crystallographic Data Centre
#                                CCDC 
#
#######################################################################
#
# If this CIF has been generated from an entry in the Cambridge 
# Structural Database, then it will include bibliographic, chemical, 
# crystal, experimental, refinement or atomic coordinate data resulting 
# from the CCDC's data processing and validation procedures.
#
#######################################################################

data_WUZKEJ
_chemical_formula_moiety         '2(C24 H20 P1 1+),B12 Cl12 2-'
_chemical_name_systematic        
'bis(tetraphenylphosphonium) dodecachloro-closo-dodecaborate'
_symmetry_cell_setting           monoclinic
_symmetry_space_group_name_H-M   'P 21/n'
_symmetry_Int_Tables_number      14
_space_group_name_Hall           '-P 2yn'
loop_
_symmetry_equiv_pos_site_id
_symmetry_equiv_pos_as_xyz
1 x,y,z
2 1/2-x,1/2+y,1/2-z
3 -x,-y,-z
4 1/2+x,1/2-y,1/2+z
_cell_length_a                   14.9365(8)
_cell_length_b                   10.2083(6)
_cell_length_c                   18.1821(13)
_cell_angle_alpha                90
_cell_angle_beta                 100.832(6)
_cell_angle_gamma                90
_cell_volume                     2722.94
_exptl_crystal_colour            colorless
_exptl_crystal_description       block
_cell_formula_units_Z            2
loop_
_atom_site_label
_atom_site_type_symbol
_atom_site_fract_x
_atom_site_fract_y
_atom_site_fract_z
P1 P 0.52601(7) 0.77215(12) 0.89175(7)
C1 C 0.6134(3) 0.6511(5) 1.0232(3)
H1 H 0.6614 0.6314 0.9973
C2 C 0.6226(4) 0.6207(5) 1.0978(3)
H2 H 0.6764 0.5791 1.1233
C3 C 0.5532(4) 0.6510(5) 1.1357(3)
H3 H 0.5597 0.6304 1.1874
C4 C 0.4754(4) 0.7103(5) 1.0994(3)
H4 H 0.4282 0.7301 1.1261
C5 C 0.4646(3) 0.7416(5) 1.0251(3)
H5 H 0.4104 0.7840 1.0008
C6 C 0.5330(3) 0.7114(5) 0.9849(3)
C7 C 0.5428(3) 0.6492(4) 0.8243(3)
C8 C 0.4880(4) 0.6483(5) 0.7545(3)
H6 H 0.4388 0.7084 0.7431
C9 C 0.5043(4) 0.5596(5) 0.7005(3)
H7 H 0.4665 0.5597 0.6522
C10 C 0.5758(3) 0.4707(5) 0.7169(3)
H8 H 0.5861 0.4084 0.6806
C11 C 0.6312(3) 0.4740(6) 0.7862(3)
H9 H 0.6812 0.4153 0.7975
C12 C 0.6146(3) 0.5618(5) 0.8392(3)
H10 H 0.6533 0.5626 0.8870
C13 C 0.6127(3) 0.8953(4) 0.8954(3)
C14 C 0.6662(3) 0.9361(5) 0.9627(3)
H11 H 0.6570 0.8996 1.0088
C15 C 0.7330(4) 1.0303(6) 0.9620(3)
H12 H 0.7687 1.0605 1.0077
C16 C 0.7470(3) 1.0792(5) 0.8953(3)
H13 H 0.7949 1.1402 0.8949
C17 C 0.6937(4) 1.0424(5) 0.8291(3)
H14 H 0.7026 1.0809 0.7835
C18 C 0.6269(3) 0.9492(5) 0.8287(3)
H15 H 0.5905 0.9219 0.7826
C19 C 0.4150(3) 0.8429(5) 0.8614(3)
C20 C 0.4044(3) 0.9764(5) 0.8473(3)
H16 H 0.4563 1.0319 0.8527
C21 C 0.3181(4) 1.0278(6) 0.8253(3)
H17 H 0.3103 1.1188 0.8151
C22 C 0.2426(4) 0.9463(7) 0.8182(3)
H18 H 0.1832 0.9819 0.8029
C23 C 0.2528(3) 0.8154(6) 0.8330(3)
H19 H 0.2006 0.7607 0.8279
C24 C 0.3383(3) 0.7622(6) 0.8551(3)
H20 H 0.3451 0.6713 0.8660
Cl1 Cl 0.61678(10) 0.84163(16) 0.65414(8)
Cl2 Cl 0.45995(9) 1.10901(14) 0.67255(7)
Cl3 Cl 0.67295(9) 1.17491(14) 0.61180(9)
Cl4 Cl 0.72182(7) 0.89634(11) 0.49595(7)
Cl5 Cl 0.53099(8) 0.66447(12) 0.48231(8)
Cl6 Cl 0.36599(8) 0.79787(14) 0.58959(8)
B1 B 0.5561(3) 0.9207(5) 0.5769(3)
B2 B 0.4798(3) 1.0535(5) 0.5838(3)
B3 B 0.5856(3) 1.0838(5) 0.5547(3)
B4 B 0.6076(3) 0.9495(5) 0.4982(3)
B5 B 0.5161(3) 0.8366(5) 0.4909(3)
B6 B 0.4358(3) 0.9011(5) 0.5444(3)
Cl1B Cl 0.38322(10) 1.15837(16) 0.34586(8)
Cl2B Cl 0.54005(9) 0.89099(14) 0.32745(7)
Cl3B Cl 0.32705(9) 0.82509(14) 0.38820(9)
Cl4B Cl 0.27818(7) 1.10366(11) 0.50405(7)
Cl5B Cl 0.46901(8) 1.33553(12) 0.51769(8)
Cl6B Cl 0.63401(8) 1.20213(14) 0.41041(8)
B1B B 0.4439(3) 1.0793(5) 0.4231(3)
B2B B 0.5202(3) 0.9465(5) 0.4162(3)
B3B B 0.4144(3) 0.9162(5) 0.4453(3)
B4B B 0.3924(3) 1.0505(5) 0.5018(3)
B5B B 0.4839(3) 1.1634(5) 0.5091(3)
B6B B 0.5642(3) 1.0989(5) 0.4556(3)
loop_
_geom_bond_atom_site_label_1
_geom_bond_atom_site_label_2
_geom_bond_site_symmetry_1
_geom_bond_site_symmetry_2
P1 C6 1_555 1_555
C1 H1 1_555 1_555
C2 C1 1_555 1_555
H2 C2 1_555 1_555
C3 C2 1_555 1_555
H3 C3 1_555 1_555
C4 C3 1_555 1_555
H4 C4 1_555 1_555
C5 C4 1_555 1_555
H5 C5 1_555 1_555
C6 C1 1_555 1_555
C7 P1 1_555 1_555
C8 C7 1_555 1_555
H6 C8 1_555 1_555
C9 C8 1_555 1_555
H7 C9 1_555 1_555
C10 C9 1_555 1_555
H8 C10 1_555 1_555
C11 C10 1_555 1_555
H9 C11 1_555 1_555
C12 C7 1_555 1_555
H10 C12 1_555 1_555
C13 P1 1_555 1_555
C14 C13 1_555 1_555
H11 C14 1_555 1_555
C15 C14 1_555 1_555
H12 C15 1_555 1_555
C16 C15 1_555 1_555
H13 C16 1_555 1_555
C17 C16 1_555 1_555
H14 C17 1_555 1_555
C18 C13 1_555 1_555
H15 C18 1_555 1_555
C19 P1 1_555 1_555
C20 C19 1_555 1_555
H16 C20 1_555 1_555
C21 C20 1_555 1_555
H17 C21 1_555 1_555
C22 C21 1_555 1_555
H18 C22 1_555 1_555
C23 C22 1_555 1_555
H19 C23 1_555 1_555
C24 C19 1_555 1_555
H20 C24 1_555 1_555
Cl1 B1 1_555 1_555
Cl2 B2 1_555 1_555
Cl3 B3 1_555 1_555
Cl4 B4 1_555 1_555
Cl5 B5 1_555 1_555
Cl6 B6 1_555 1_555
B1 B2 1_555 1_555
B2 B3 1_555 1_555
B3 B1 1_555 1_555
B4 B1 1_555 1_555
B5 B1 1_555 1_555
B6 B1 1_555 1_555
Cl1B B1B 1_555 1_555
Cl2B B2B 1_555 1_555
Cl3B B3B 1_555 1_555
Cl4B B4B 1_555 1_555
Cl5B B5B 1_555 1_555
Cl6B B6B 1_555 1_555
B1B B2B 1_555 1_555
B2B B4 1_555 1_555
B3B B5 1_555 1_555
B4B B2 1_555 1_555
B5B B2 1_555 1_555
B6B B3 1_555 1_555
C5 C6 1_555 1_555
C11 C12 1_555 1_555
C17 C18 1_555 1_555
C23 C24 1_555 1_555
B2 B6 1_555 1_555
B3 B4 1_555 1_555
B3 B5B 1_555 1_555
B4 B5 1_555 1_555
B4 B6B 1_555 1_555
B5 B6 1_555 1_555
B5 B2B 1_555 1_555
B6 B3B 1_555 1_555
B6 B4B 1_555 1_555
B1B B3B 1_555 1_555
B1B B4B 1_555 1_555
B1B B5B 1_555 1_555
B1B B6B 1_555 1_555
B2B B3B 1_555 1_555
B2B B6B 1_555 1_555
B3B B4B 1_555 1_555
B4B B5B 1_555 1_555
B5B B6B 1_555 1_555

#END
