
#######################################################################
#
#                 Cambridge Crystallographic Data Centre
#                                CCDC 
#
#######################################################################
#
# If this CIF has been generated from an entry in the Cambridge 
# Structural Database, then it will include bibliographic, chemical, 
# crystal, experimental, refinement or atomic coordinate data resulting 
# from the CCDC's data processing and validation procedures.
#
#######################################################################

data_XABGOZ
_chemical_formula_moiety         'C20 H15 N3'
_chemical_name_systematic        4-(5-(Biphenyl-4-yl)-1H-pyrazol-3-yl)pyridine
_symmetry_cell_setting           monoclinic
_symmetry_space_group_name_H-M   'P 21/c'
_symmetry_Int_Tables_number      14
_space_group_name_Hall           '-P 2ybc'
loop_
_symmetry_equiv_pos_site_id
_symmetry_equiv_pos_as_xyz
1 x,y,z
2 -x,1/2+y,1/2-z
3 -x,-y,-z
4 x,1/2-y,1/2+z
_cell_length_a                   10.051(5)
_cell_length_b                   27.214(4)
_cell_length_c                   11.572(8)
_cell_angle_alpha                90
_cell_angle_beta                 100.459(2)
_cell_angle_gamma                90
_cell_volume                     3112.67
_cell_formula_units_Z            8
loop_
_atom_site_label
_atom_site_type_symbol
_atom_site_fract_x
_atom_site_fract_y
_atom_site_fract_z
N1 N 0.82540(15) 0.32390(5) 0.57283(13)
N2 N 0.86906(15) 0.28658(5) 0.51247(13)
N3 N 1.16242(16) 0.22047(6) 0.23387(13)
H1 H 0.7593 0.3187 0.6241
C1 C 0.8853(2) 0.56662(8) 0.8775(2)
H2 H 0.9730 0.5550 0.8816
C2 C 0.8633(3) 0.60768(9) 0.9418(2)
H3 H 0.9361 0.6234 0.9883
C3 C 0.7348(3) 0.62534(8) 0.9373(2)
H4 H 0.7199 0.6531 0.9800
C4 C 0.6286(3) 0.60165(8) 0.8694(2)
H5 H 0.5410 0.6132 0.8667
C5 C 0.6503(2) 0.56067(7) 0.80476(18)
H6 H 0.5768 0.5451 0.7588
C6 C 0.7793(2) 0.54236(7) 0.80715(17)
C7 C 0.80350(19) 0.49814(6) 0.73895(16)
C8 C 0.70954(19) 0.46046(6) 0.71604(16)
H7 H 0.6270 0.4636 0.7408
C9 C 0.73538(18) 0.41835(6) 0.65741(15)
H8 H 0.6700 0.3938 0.6433
C10 C 0.85810(18) 0.41199(6) 0.61905(15)
C11 C 0.9504(2) 0.45039(7) 0.63702(19)
H9 H 1.0314 0.4478 0.6093
C12 C 0.9233(2) 0.49235(7) 0.69552(19)
H10 H 0.9868 0.5176 0.7063
C13 C 0.88905(18) 0.36679(6) 0.56041(15)
C14 C 0.97893(18) 0.35684(6) 0.48690(15)
H11 H 1.0385 0.3787 0.4614
C15 C 0.96223(17) 0.30702(6) 0.45845(15)
C16 C 1.03001(17) 0.27751(6) 0.38050(14)
C17 C 1.1101(2) 0.29837(7) 0.30853(16)
H12 H 1.1211 0.3323 0.3074
C18 C 1.1734(2) 0.26901(7) 0.23865(17)
H13 H 1.2274 0.2841 0.1917
C19 C 1.0823(2) 0.20039(7) 0.30110(17)
H14 H 1.0711 0.1665 0.2983
C20 C 1.0153(2) 0.22678(7) 0.37431(16)
H15 H 0.9607 0.2108 0.4192
H16 H 0.2624 0.1944 0.1246
N4 N 0.33209(15) 0.18930(5) 0.07922(13)
N5 N 0.37645(15) 0.22672(5) 0.01980(12)
N6 N 0.65821(16) 0.29220(5) -0.26868(13)
C21 C 0.28498(19) -0.03347(6) 0.29503(15)
C22 C 0.3104(3) -0.03534(7) 0.41714(17)
H17 H 0.3437 -0.0076 0.4598
C23 C 0.2872(3) -0.07756(8) 0.47609(19)
H18 H 0.3055 -0.0779 0.5578
C24 C 0.2375(2) -0.11901(7) 0.41638(19)
H19 H 0.2217 -0.1473 0.4568
C25 C 0.2114(2) -0.11801(7) 0.29626(18)
H20 H 0.1775 -0.1459 0.2546
C26 C 0.23498(19) -0.07595(6) 0.23610(16)
H21 H 0.2170 -0.0761 0.1544
C27 C 0.30705(18) 0.01214(6) 0.23051(15)
C28 C 0.3021(2) 0.05796(6) 0.28208(16)
H22 H 0.2849 0.0600 0.3582
C29 C 0.3220(2) 0.10062(6) 0.22323(16)
H23 H 0.3179 0.1307 0.2605
C30 C 0.34810(18) 0.09959(6) 0.10913(15)
C31 C 0.3524(2) 0.05376(6) 0.05665(16)
H24 H 0.3694 0.0518 -0.0196
C32 C 0.3318(2) 0.01111(6) 0.11585(16)
H25 H 0.3346 -0.0190 0.0783
C33 C 0.45257(19) 0.15389(6) -0.03570(15)
H26 H 0.4963 0.1309 -0.0750
C34 C 0.45129(18) 0.20503(6) -0.05046(15)
C35 C 0.37574(18) 0.14485(6) 0.04893(15)
C36 C 0.52036(18) 0.23504(6) -0.12636(14)
C37 C 0.5835(2) 0.21429(7) -0.21119(16)
H27 H 0.5811 0.1804 -0.2224
C38 C 0.6498(2) 0.24369(7) -0.27879(17)
H28 H 0.6913 0.2287 -0.3351
C39 C 0.5967(2) 0.31213(7) -0.18723(17)
H29 H 0.6003 0.3461 -0.1785
C40 C 0.5285(2) 0.28575(7) -0.11551(16)
H30 H 0.4880 0.3018 -0.0599
loop_
_geom_bond_atom_site_label_1
_geom_bond_atom_site_label_2
_geom_bond_site_symmetry_1
_geom_bond_site_symmetry_2
N1 N2 1_555 1_555
N2 C15 1_555 1_555
N3 C18 1_555 1_555
H1 N1 1_555 1_555
C1 H2 1_555 1_555
C2 C1 1_555 1_555
H3 C2 1_555 1_555
C3 C2 1_555 1_555
H4 C3 1_555 1_555
C4 C3 1_555 1_555
H5 C4 1_555 1_555
C5 C4 1_555 1_555
H6 C5 1_555 1_555
C6 C1 1_555 1_555
C7 C6 1_555 1_555
C8 C7 1_555 1_555
H7 C8 1_555 1_555
C9 C8 1_555 1_555
H8 C9 1_555 1_555
C10 C9 1_555 1_555
C11 C10 1_555 1_555
H9 C11 1_555 1_555
C12 C7 1_555 1_555
H10 C12 1_555 1_555
C13 N1 1_555 1_555
C14 C13 1_555 1_555
H11 C14 1_555 1_555
C15 C14 1_555 1_555
C16 C15 1_555 1_555
C17 C16 1_555 1_555
H12 C17 1_555 1_555
C18 C17 1_555 1_555
H13 C18 1_555 1_555
C19 N3 1_555 1_555
H14 C19 1_555 1_555
C20 C16 1_555 1_555
H15 C20 1_555 1_555
H16 N4 1_555 1_555
N4 N5 1_555 1_555
N5 C34 1_555 1_555
N6 C38 1_555 1_555
C21 C22 1_555 1_555
C22 H17 1_555 1_555
C23 C22 1_555 1_555
H18 C23 1_555 1_555
C24 C23 1_555 1_555
H19 C24 1_555 1_555
C25 C24 1_555 1_555
H20 C25 1_555 1_555
C26 C21 1_555 1_555
H21 C26 1_555 1_555
C27 C21 1_555 1_555
C28 C27 1_555 1_555
H22 C28 1_555 1_555
C29 C28 1_555 1_555
H23 C29 1_555 1_555
C30 C29 1_555 1_555
C31 C30 1_555 1_555
H24 C31 1_555 1_555
C32 C27 1_555 1_555
H25 C32 1_555 1_555
C33 H26 1_555 1_555
C34 C33 1_555 1_555
C35 N4 1_555 1_555
C36 C34 1_555 1_555
C37 C36 1_555 1_555
H27 C37 1_555 1_555
C38 C37 1_555 1_555
H28 C38 1_555 1_555
C39 N6 1_555 1_555
H29 C39 1_555 1_555
C40 C36 1_555 1_555
H30 C40 1_555 1_555
C5 C6 1_555 1_555
C10 C13 1_555 1_555
C11 C12 1_555 1_555
C19 C20 1_555 1_555
C25 C26 1_555 1_555
C30 C35 1_555 1_555
C31 C32 1_555 1_555
C33 C35 1_555 1_555
C39 C40 1_555 1_555

#END
