
#######################################################################
#
#                 Cambridge Crystallographic Data Centre
#                                CCDC 
#
#######################################################################
#
# If this CIF has been generated from an entry in the Cambridge 
# Structural Database, then it will include bibliographic, chemical, 
# crystal, experimental, refinement or atomic coordinate data resulting 
# from the CCDC's data processing and validation procedures.
#
#######################################################################

data_XABGOX
_chemical_formula_moiety         'C64 H68 N6 O2,7(C2 H6 O1 S1)'
_chemical_name_systematic        
"N,N'-bis(4-(1'-(4''-Amino-3'',5''-dimethylphenyl)cyclohexyl)-2,6-dimethylphenyl)-2,2'-biquinoline-4,4'-dicarboxylic amide dimethylsulfoxide solvate"
_symmetry_cell_setting           triclinic
_symmetry_space_group_name_H-M   'P -1'
_symmetry_Int_Tables_number      2
_space_group_name_Hall           '-P 1'
loop_
_symmetry_equiv_pos_site_id
_symmetry_equiv_pos_as_xyz
1 x,y,z
2 -x,-y,-z
_cell_length_a                   7.6535(2)
_cell_length_b                   22.3356(5)
_cell_length_c                   25.6017(7)
_cell_angle_alpha                107.6590(10)
_cell_angle_beta                 96.6860(10)
_cell_angle_gamma                96.7800(10)
_cell_volume                     4087.15
_exptl_crystal_colour            colorless
_exptl_crystal_description       plates
_chemical_melting_point          260deg.C(dec.)
_cell_formula_units_Z            2
loop_
_atom_site_label
_atom_site_type_symbol
_atom_site_fract_x
_atom_site_fract_y
_atom_site_fract_z
N1 N 0.8572(8) 0.8234(2) 0.8151(2)
H1 H 0.952(6) 0.854(2) 0.834(3)
H2 H 0.795(8) 0.793(2) 0.826(3)
C1 C 0.7843(8) 0.8366(2) 0.7684(2)
C2 C 0.8638(7) 0.8869(2) 0.7541(2)
C3 C 0.7915(7) 0.8976(2) 0.7055(2)
H3 H 0.8470 0.9325 0.6963
C4 C 0.6413(7) 0.8588(2) 0.67024(19)
C5 C 0.5702(7) 0.8066(2) 0.6846(2)
H4 H 0.4705 0.7781 0.6606
C6 C 0.6382(8) 0.7943(2) 0.7320(2)
C7 C 0.5566(7) 0.8680(2) 0.6162(2)
C8 C 0.3550(7) 0.8691(2) 0.6146(2)
H5 H 0.3022 0.8685 0.5773
H6 H 0.2988 0.8300 0.6207
C9 C 0.3111(9) 0.9275(3) 0.6583(2)
H7 H 0.1802 0.9247 0.6561
H8 H 0.3617 0.9284 0.6960
C10 C 0.3893(9) 0.9880(2) 0.6479(2)
H9 H 0.3636 1.0256 0.6765
H10 H 0.3327 0.9882 0.6112
C11 C 0.5905(8) 0.9923(2) 0.6495(2)
H11 H 0.6486 0.9981 0.6877
H12 H 0.6369 1.0299 0.6395
C12 C 0.6370(8) 0.9319(2) 0.6091(2)
H13 H 0.7684 0.9351 0.6139
H14 H 0.5954 0.9308 0.5707
C13 C 0.5916(7) 0.8117(2) 0.56795(19)
C14 C 0.4639(7) 0.7581(2) 0.54219(19)
H15 H 0.3522 0.7560 0.5548
C15 C 0.4929(8) 0.7069(2) 0.4983(2)
C16 C 0.6552(8) 0.7117(2) 0.48040(19)
C17 C 0.7912(7) 0.7634(2) 0.50583(19)
C18 C 0.7557(8) 0.8119(2) 0.5502(2)
H16 H 0.8482 0.8467 0.5692
N2 N 0.6852(6) 0.65983(17) 0.43345(16)
H17 H 0.6955 0.6227 0.4377
C19 C 0.6973(7) 0.6673(2) 0.3843(2)
O1 O 0.6866(5) 0.71801(16) 0.37487(14)
C20 C 0.7206(8) 0.6093(2) 0.3377(2)
C21 C 0.8782(8) 0.6089(2) 0.3135(2)
C22 C 1.0327(8) 0.6556(2) 0.3343(2)
H18 H 1.0337 0.6911 0.3663
C23 C 1.1810(8) 0.6503(3) 0.3092(2)
H19 H 1.2855 0.6812 0.3246
C24 C 1.1793(9) 0.5990(3) 0.2603(2)
H20 H 1.2818 0.5963 0.2426
C25 C 1.0330(8) 0.5540(3) 0.2386(2)
H21 H 1.0331 0.5202 0.2054
C26 C 0.8796(8) 0.5565(2) 0.2647(2)
N3 N 0.7374(6) 0.5085(2) 0.24188(17)
C27 C 0.5975(8) 0.5096(2) 0.2666(2)
C28 C 0.5819(8) 0.5594(2) 0.3154(2)
H22 H 0.4777 0.5581 0.3322
C29 C 0.4473(8) 0.4564(2) 0.2407(2)
N4 N 0.3091(7) 0.4547(2) 0.26698(17)
C30 C 0.1663(8) 0.4069(2) 0.2426(2)
C31 C 0.0163(9) 0.4081(3) 0.2696(2)
H23 H 0.0178 0.4406 0.3038
C32 C -0.1312(9) 0.3627(3) 0.2470(3)
H24 H -0.2313 0.3633 0.2658
C33 C -0.1356(9) 0.3155(3) 0.1965(3)
H25 H -0.2402 0.2848 0.1806
C34 C 0.0087(8) 0.3130(2) 0.1695(2)
H26 H 0.0038 0.2800 0.1353
C35 C 0.1620(8) 0.3578(2) 0.1912(2)
C36 C 0.3210(8) 0.3600(2) 0.16654(19)
C37 C 0.4591(8) 0.4083(2) 0.1900(2)
H27 H 0.5627 0.4103 0.1731
C38 C 0.3379(8) 0.3046(2) 0.1162(2)
O2 O 0.3307(6) 0.25134(16) 0.11831(14)
N5 N 0.3690(6) 0.32204(18) 0.07192(16)
H28 H 0.3678 0.3619 0.0736
C39 C 0.4047(8) 0.2773(2) 0.0212(2)
C40 C 0.5719(8) 0.2876(2) 0.0070(2)
C41 C 0.6051(8) 0.2448(2) -0.0429(2)
H29 H 0.7184 0.2510 -0.0539
C42 C 0.4758(8) 0.1936(2) -0.0765(2)
C43 C 0.3100(8) 0.1874(2) -0.0602(2)
H30 H 0.2196 0.1538 -0.0831
C44 C 0.2702(8) 0.2285(2) -0.0115(2)
C45 C 0.5125(8) 0.1464(3) -0.1303(2)
C46 C 0.7123(9) 0.1554(3) -0.1330(2)
H31 H 0.7795 0.1543 -0.0980
H32 H 0.7498 0.1976 -0.1369
C47 C 0.7585(11) 0.1020(4) -0.1833(3)
H33 H 0.6957 0.1042 -0.2185
H34 H 0.8883 0.1092 -0.1839
C48 C 0.7045(13) 0.0374(4) -0.1785(3)
H35 H 0.7355 0.0045 -0.2101
H36 H 0.7698 0.0347 -0.1437
C49 C 0.5109(12) 0.0259(3) -0.1782(3)
H37 H 0.4774 -0.0163 -0.1737
H38 H 0.4462 0.0251 -0.2142
C50 C 0.4541(10) 0.0779(2) -0.1306(2)
H39 H 0.3227 0.0699 -0.1337
H40 H 0.5055 0.0742 -0.0946
C51 C 0.4090(8) 0.1619(2) -0.1794(2)
C52 C 0.2654(8) 0.1214(2) -0.2152(2)
H41 H 0.2278 0.0820 -0.2096
C53 C 0.1724(8) 0.1352(2) -0.2590(2)
C54 C 0.2242(8) 0.1957(3) -0.2657(2)
C55 C 0.3642(8) 0.2383(2) -0.2283(2)
C56 C 0.4541(8) 0.2207(2) -0.1869(2)
H42 H 0.5513 0.2500 -0.1624
N6 N 0.1280(8) 0.2123(2) -0.3070(2)
H43 H 0.073(8) 0.1743(16) -0.332(2)
H44 H 0.187(8) 0.243(2) -0.318(3)
C57 C 1.0282(8) 0.9287(3) 0.7893(2)
H45 H 1.0042 0.9482 0.8270
H46 H 1.0649 0.9622 0.7735
H47 H 1.1237 0.9033 0.7906
C58 C 0.5588(9) 0.7342(3) 0.7435(3)
H48 H 0.6504 0.7072 0.7444
H49 H 0.4589 0.7108 0.7140
H50 H 0.5164 0.7462 0.7793
C59 C 0.3493(8) 0.6500(2) 0.4717(2)
H51 H 0.2975 0.6506 0.4350
H52 H 0.2562 0.6514 0.4951
H53 H 0.4007 0.6110 0.4677
C60 C 0.9688(8) 0.7674(2) 0.4868(2)
H54 H 1.0088 0.7260 0.4792
H55 H 1.0557 0.7996 0.5159
H56 H 0.9582 0.7793 0.4529
C61 C 0.7173(8) 0.3406(2) 0.0427(2)
H57 H 0.6730 0.3813 0.0502
H58 H 0.8200 0.3419 0.0233
H59 H 0.7534 0.3330 0.0779
C62 C 0.0889(8) 0.2193(3) 0.0045(2)
H60 H 0.0982 0.2070 0.0382
H61 H 0.0097 0.1858 -0.0258
H62 H 0.0402 0.2592 0.0114
C63 C 0.0218(9) 0.0891(3) -0.2988(2)
H63 H 0.0115 0.0486 -0.2910
H64 H 0.0446 0.0821 -0.3369
H65 H -0.0895 0.1064 -0.2944
C64 C 0.4146(10) 0.3039(3) -0.2325(3)
H66 H 0.4715 0.3006 -0.2655
H67 H 0.4978 0.3304 -0.1992
H68 H 0.3072 0.3234 -0.2356
S1 S 0.7520(2) 0.49126(6) 0.45879(6)
O3 O 0.6983(6) 0.55635(14) 0.47399(15)
C65 C 0.5662(7) 0.4383(2) 0.4151(2)
H69 H 0.4716 0.4335 0.4370
H70 H 0.6011 0.3967 0.3984
H71 H 0.5226 0.4551 0.3858
C66 C 0.8907(7) 0.4882(3) 0.4078(2)
H72 H 1.0050 0.5160 0.4249
H73 H 0.8328 0.5026 0.3786
H74 H 0.9111 0.4444 0.3916
S2 S 0.9487(2) 0.28869(6) 0.38599(6)
O4 O 0.8303(5) 0.33595(17) 0.38137(17)
C67 C 1.1696(6) 0.3271(2) 0.3951(2)
H75 H 1.2000 0.3593 0.4320
H76 H 1.1815 0.3476 0.3666
H77 H 1.2505 0.2957 0.3918
C68 C 0.9402(8) 0.2362(2) 0.3179(2)
H78 H 0.8220 0.2099 0.3051
H79 H 1.0310 0.2088 0.3181
H80 H 0.9629 0.2610 0.2930
S3 S -0.3116(3) 0.18280(8) -0.39152(7)
O5 O -0.1789(7) 0.1378(3) -0.3997(2)
C69 C -0.4954(11) 0.1469(4) -0.4435(3)
H81 H -0.4622 0.1452 -0.4797
H82 H -0.5926 0.1717 -0.4366
H83 H -0.5347 0.1036 -0.4434
C70 C -0.4091(13) 0.1777(5) -0.3348(3)
H84 H -0.3215 0.1968 -0.3008
H85 H -0.4497 0.1329 -0.3393
H86 H -0.5111 0.2006 -0.3323
S4 S 0.3288(3) 0.50123(8) 0.07978(9)
O6 O 0.4168(6) 0.44356(18) 0.06031(19)
C71 C 0.1119(8) 0.4733(4) 0.0866(3)
H87 H 0.1160 0.4579 0.1186
H88 H 0.0569 0.4383 0.0529
H89 H 0.0414 0.5079 0.0920
C72 C 0.2736(11) 0.5237(3) 0.0210(3)
H90 H 0.3824 0.5421 0.0109
H91 H 0.1937 0.5554 0.0290
H92 H 0.2138 0.4862 -0.0100
S5 S -0.0440(3) 0.67679(9) 0.09492(9)
O7 O 0.0273(9) 0.6161(3) 0.0733(3)
C73 C -0.2754(7) 0.6556(3) 0.0880(3)
H93 H -0.3275 0.6409 0.0485
H94 H -0.3262 0.6928 0.1076
H95 H -0.3018 0.6215 0.1038
C74 C 0.0044(10) 0.7003(5) 0.1676(2)
H96 H 0.1331 0.7142 0.1795
H97 H -0.0340 0.6643 0.1801
H98 H -0.0587 0.7355 0.1836
S8 S 0.7040(6) 1.15182(17) 1.09415(17)
O10 O 0.8442(11) 1.1105(5) 1.0931(4)
C79 C 0.5354(15) 1.1269(7) 1.1259(6)
H111 H 0.5802 1.1357 1.1654
H112 H 0.4949 1.0810 1.1083
H113 H 0.4356 1.1498 1.1221
C80 C 0.5878(17) 1.1299(7) 1.0265(3)
H114 H 0.6665 1.1417 1.0024
H115 H 0.4845 1.1520 1.0264
H116 H 0.5472 1.0838 1.0127
S6? S -0.1175(15) 0.0102(5) -0.4739(5)
O8? O -0.2972(16) 0.0089(7) -0.5070(6)
C75? C 0.039(2) 0.0532(11) -0.4994(13)
H99? H 0.0244 0.0981 -0.4881
H100? H 0.0212 0.0359 -0.5401
H101? H 0.1599 0.0496 -0.4843
C76? C -0.058(3) -0.0649(8) -0.5020(13)
H102? H -0.1338 -0.0965 -0.4914
H103? H 0.0669 -0.0639 -0.4877
H104? H -0.0748 -0.0766 -0.5426
S7? S 0.1551(14) -0.0079(5) -0.5226(5)
O9? O 0.3398(15) -0.0175(7) -0.5023(6)
C77? C 0.003(2) -0.0632(9) -0.5084(12)
H105? H 0.0102 -0.1062 -0.5321
H106? H -0.1180 -0.0541 -0.5159
H107? H 0.0308 -0.0603 -0.4693
C78? C 0.109(3) 0.0607(8) -0.4752(10)
H108? H 0.1855 0.0981 -0.4774
H109? H 0.1327 0.0581 -0.4376
H110? H -0.0162 0.0645 -0.4840
S9? S 0.5856(11) 1.0746(3) 1.0658(3)
O11? O 0.548(3) 1.0296(8) 1.0074(5)
C81? C 0.680(4) 1.1485(7) 1.0620(12)
H117? H 0.7975 1.1453 1.0504
H118? H 0.6938 1.1810 1.0985
H119? H 0.6024 1.1604 1.0348
C82? C 0.381(2) 1.0955(11) 1.0833(10)
H120? H 0.3039 1.0579 1.0845
H121? H 0.3238 1.1117 1.0553
H122? H 0.4017 1.1285 1.1197
O12? O 0.562(3) 1.0346(7) 0.9961(7)
S10? S 0.5002(11) 1.0922(4) 1.0321(3)
C83? C 0.531(4) 1.0880(11) 1.1000(5)
H123? H 0.6589 1.0913 1.1130
H124? H 0.4681 1.0473 1.1002
H125? H 0.4847 1.1231 1.1248
C84? C 0.671(3) 1.1568(8) 1.0434(11)
H126? H 0.6793 1.1655 1.0084
H127? H 0.7844 1.1465 1.0572
H128? H 0.6439 1.1945 1.0708
S11? S 0.9101(16) 0.9777(6) 0.9741(5)
O13? O 0.932(3) 0.9216(8) 0.9262(7)
C85? C 1.054(5) 1.0432(10) 0.9715(12)
H129? H 1.0078 1.0559 0.9398
H130? H 1.1726 1.0318 0.9674
H131? H 1.0624 1.0788 1.0059
C86? C 1.031(4) 0.9675(15) 1.0333(7)
H132? H 0.9673 0.9319 1.0420
H133? H 1.0440 1.0065 1.0650
H134? H 1.1497 0.9584 1.0257
S12? S 1.0621(17) 1.0150(6) 1.0295(5)
O14? O 0.996(3) 1.0700(8) 1.0683(8)
C87? C 0.893(4) 0.9491(9) 1.0130(13)
H135? H 0.8879 0.9347 1.0454
H136? H 0.9185 0.9146 0.9820
H137? H 0.7785 0.9611 1.0023
C88? C 1.037(5) 1.0274(14) 0.9645(8)
H138? H 1.1188 1.0656 0.9665
H139? H 0.9140 1.0331 0.9544
H140? H 1.0643 0.9905 0.9363
loop_
_geom_bond_atom_site_label_1
_geom_bond_atom_site_label_2
_geom_bond_site_symmetry_1
_geom_bond_site_symmetry_2
N1 H1 1_555 1_555
H2 N1 1_555 1_555
C1 N1 1_555 1_555
C2 C1 1_555 1_555
C3 C2 1_555 1_555
H3 C3 1_555 1_555
C4 C3 1_555 1_555
C5 C4 1_555 1_555
H4 C5 1_555 1_555
C6 C1 1_555 1_555
C7 C4 1_555 1_555
C8 C7 1_555 1_555
H5 C8 1_555 1_555
H6 C8 1_555 1_555
C9 C8 1_555 1_555
H7 C9 1_555 1_555
H8 C9 1_555 1_555
C10 C9 1_555 1_555
H9 C10 1_555 1_555
H10 C10 1_555 1_555
C11 C10 1_555 1_555
H11 C11 1_555 1_555
H12 C11 1_555 1_555
C12 C7 1_555 1_555
H13 C12 1_555 1_555
H14 C12 1_555 1_555
C13 C7 1_555 1_555
C14 C13 1_555 1_555
H15 C14 1_555 1_555
C15 C14 1_555 1_555
C16 C15 1_555 1_555
C17 C16 1_555 1_555
C18 C13 1_555 1_555
H16 C18 1_555 1_555
N2 C16 1_555 1_555
H17 N2 1_555 1_555
C19 N2 1_555 1_555
O1 C19 1_555 1_555
C20 C19 1_555 1_555
C21 C20 1_555 1_555
C22 C21 1_555 1_555
H18 C22 1_555 1_555
C23 C22 1_555 1_555
H19 C23 1_555 1_555
C24 C23 1_555 1_555
H20 C24 1_555 1_555
C25 C24 1_555 1_555
H21 C25 1_555 1_555
C26 C21 1_555 1_555
N3 C26 1_555 1_555
C27 N3 1_555 1_555
C28 C20 1_555 1_555
H22 C28 1_555 1_555
C29 C27 1_555 1_555
N4 C29 1_555 1_555
C30 N4 1_555 1_555
C31 C30 1_555 1_555
H23 C31 1_555 1_555
C32 C31 1_555 1_555
H24 C32 1_555 1_555
C33 C32 1_555 1_555
H25 C33 1_555 1_555
C34 C33 1_555 1_555
H26 C34 1_555 1_555
C35 C30 1_555 1_555
C36 C35 1_555 1_555
C37 C29 1_555 1_555
H27 C37 1_555 1_555
C38 C36 1_555 1_555
O2 C38 1_555 1_555
N5 C38 1_555 1_555
H28 N5 1_555 1_555
C39 N5 1_555 1_555
C40 C39 1_555 1_555
C41 C40 1_555 1_555
H29 C41 1_555 1_555
C42 C41 1_555 1_555
C43 C42 1_555 1_555
H30 C43 1_555 1_555
C44 C39 1_555 1_555
C45 C42 1_555 1_555
C46 C45 1_555 1_555
H31 C46 1_555 1_555
H32 C46 1_555 1_555
C47 C46 1_555 1_555
H33 C47 1_555 1_555
H34 C47 1_555 1_555
C48 C47 1_555 1_555
H35 C48 1_555 1_555
H36 C48 1_555 1_555
C49 C48 1_555 1_555
H37 C49 1_555 1_555
H38 C49 1_555 1_555
C50 C45 1_555 1_555
H39 C50 1_555 1_555
H40 C50 1_555 1_555
C51 C45 1_555 1_555
C52 C51 1_555 1_555
H41 C52 1_555 1_555
C53 C52 1_555 1_555
C54 C53 1_555 1_555
C55 C54 1_555 1_555
C56 C51 1_555 1_555
H42 C56 1_555 1_555
N6 C54 1_555 1_555
H43 N6 1_555 1_555
H44 N6 1_555 1_555
C57 C2 1_555 1_555
H45 C57 1_555 1_555
H46 C57 1_555 1_555
H47 C57 1_555 1_555
C58 C6 1_555 1_555
H48 C58 1_555 1_555
H49 C58 1_555 1_555
H50 C58 1_555 1_555
C59 C15 1_555 1_555
H51 C59 1_555 1_555
H52 C59 1_555 1_555
H53 C59 1_555 1_555
C60 C17 1_555 1_555
H54 C60 1_555 1_555
H55 C60 1_555 1_555
H56 C60 1_555 1_555
C61 C40 1_555 1_555
H57 C61 1_555 1_555
H58 C61 1_555 1_555
H59 C61 1_555 1_555
C62 C44 1_555 1_555
H60 C62 1_555 1_555
H61 C62 1_555 1_555
H62 C62 1_555 1_555
C63 C53 1_555 1_555
H63 C63 1_555 1_555
H64 C63 1_555 1_555
H65 C63 1_555 1_555
C64 C55 1_555 1_555
H66 C64 1_555 1_555
H67 C64 1_555 1_555
H68 C64 1_555 1_555
S1 O3 1_555 1_555
C65 S1 1_555 1_555
H69 C65 1_555 1_555
H70 C65 1_555 1_555
H71 C65 1_555 1_555
C66 S1 1_555 1_555
H72 C66 1_555 1_555
H73 C66 1_555 1_555
H74 C66 1_555 1_555
S2 O4 1_555 1_555
C67 S2 1_555 1_555
H75 C67 1_555 1_555
H76 C67 1_555 1_555
H77 C67 1_555 1_555
C68 S2 1_555 1_555
H78 C68 1_555 1_555
H79 C68 1_555 1_555
H80 C68 1_555 1_555
S3 O5 1_555 1_555
C69 S3 1_555 1_555
H81 C69 1_555 1_555
H82 C69 1_555 1_555
H83 C69 1_555 1_555
C70 S3 1_555 1_555
H84 C70 1_555 1_555
H85 C70 1_555 1_555
H86 C70 1_555 1_555
S4 O6 1_555 1_555
C71 S4 1_555 1_555
H87 C71 1_555 1_555
H88 C71 1_555 1_555
H89 C71 1_555 1_555
C72 S4 1_555 1_555
H90 C72 1_555 1_555
H91 C72 1_555 1_555
H92 C72 1_555 1_555
S5 O7 1_555 1_555
C73 S5 1_555 1_555
H93 C73 1_555 1_555
H94 C73 1_555 1_555
H95 C73 1_555 1_555
C74 S5 1_555 1_555
H96 C74 1_555 1_555
H97 C74 1_555 1_555
H98 C74 1_555 1_555
S8 O10 1_555 1_555
C79 S8 1_555 1_555
H111 C79 1_555 1_555
H112 C79 1_555 1_555
H113 C79 1_555 1_555
C80 S8 1_555 1_555
H114 C80 1_555 1_555
H115 C80 1_555 1_555
H116 C80 1_555 1_555
C5 C6 1_555 1_555
C11 C12 1_555 1_555
C17 C18 1_555 1_555
C25 C26 1_555 1_555
C27 C28 1_555 1_555
C34 C35 1_555 1_555
C36 C37 1_555 1_555
C43 C44 1_555 1_555
C49 C50 1_555 1_555
C55 C56 1_555 1_555

#END
