
#######################################################################
#
#                 Cambridge Crystallographic Data Centre
#                                CCDC 
#
#######################################################################
#
# If this CIF has been generated from an entry in the Cambridge 
# Structural Database, then it will include bibliographic, chemical, 
# crystal, experimental, refinement or atomic coordinate data resulting 
# from the CCDC's data processing and validation procedures.
#
#######################################################################

data_XABJER
_chemical_formula_moiety         'C26 H38 N4,H2 O1'
_chemical_name_systematic        
"4,4'-((5-t-Butyl-1,3-phenylene)bis(methylene))bis(3,5-diethyl-1H-pyrazole) monohydrate"
_symmetry_cell_setting           monoclinic
_symmetry_space_group_name_H-M   'C 2/c'
_symmetry_Int_Tables_number      15
_space_group_name_Hall           '-C 2yn'
loop_
_symmetry_equiv_pos_site_id
_symmetry_equiv_pos_as_xyz
1 x,y,z
2 -x,y,1/2-z
3 1/2+x,1/2+y,z
4 1/2-x,1/2+y,1/2-z
5 -x,-y,-z
6 x,-y,1/2+z
7 1/2-x,1/2-y,-z
8 1/2+x,1/2-y,1/2+z
_cell_length_a                   13.766(3)
_cell_length_b                   23.571(5)
_cell_length_c                   9.3333(19)
_cell_angle_alpha                90
_cell_angle_beta                 118.01(3)
_cell_angle_gamma                90
_cell_volume                     2673.72
_exptl_crystal_colour            colorless
_exptl_crystal_description       prism
_cell_formula_units_Z            4
loop_
_atom_site_label
_atom_site_type_symbol
_atom_site_fract_x
_atom_site_fract_y
_atom_site_fract_z
C1 C 0.1460(9) -0.1582(4) 0.9083(14)
H1 H 0.2075 -0.1736 1.0023
H2 H 0.0959 -0.1882 0.8493
H3 H 0.1089 -0.1309 0.9415
C2 C 0.1893(11) -0.1276(5) 0.7921(13)
H4 H 0.2346 -0.1529 0.7666
H5 H 0.1287 -0.1137 0.6923
C5 C 0.25996(16) -0.07653(9) 0.9070(2)
C6 C 0.25166(14) -0.02119(9) 0.8553(2)
C7 C 0.34144(15) 0.00652(9) 0.9775(2)
C8 C 0.37943(18) 0.06658(10) 0.9867(3)
H11 H 0.4589 0.0672 1.0324
H12 H 0.3483 0.0823 0.8781
C9 C 0.3466(2) 0.10237(12) 1.0877(3)
H13 H 0.2678 0.1026 1.0415
H14 H 0.3724 0.1404 1.0911
H15 H 0.3782 0.0873 1.1958
C10 C 0.16428(15) 0.00478(9) 0.6997(2)
H16 H 0.1992 0.0303 0.6562
H17 H 0.1287 -0.0251 0.6208
C11 C 0.0000 0.00824(12) 0.7500
H18 H 0.0000 -0.0312 0.7500
C12 C 0.07849(14) 0.03697(8) 0.7227(2)
C13 C 0.07552(16) 0.09586(10) 0.7215(3)
H19 H 0.1261 0.1155 0.7008
C14 C 0.0000 0.12681(14) 0.7500
C15 C 0.0000 0.19098(16) 0.7500
C16 C 0.0744(8) 0.2158(3) 0.6757(13)
C17 C 0.0295(8) 0.2125(3) 0.9207(10)
N1 N 0.35007(13) -0.08129(8) 1.0534(2)
H29 H 0.3722 -0.1119 1.1100
N2 N 0.39906(12) -0.03078(8) 1.09549(19)
C1A C -0.1460(9) -0.1582(4) 0.5917(14)
H1A H -0.2075 -0.1736 0.4977
H2A H -0.0959 -0.1882 0.6507
H3A H -0.1089 -0.1309 0.5585
C2A C -0.1893(11) -0.1276(5) 0.7079(13)
H4A H -0.2346 -0.1529 0.7334
H5A H -0.1287 -0.1137 0.8077
C5A C -0.25996(16) -0.07653(9) 0.5930(2)
C6A C -0.25166(14) -0.02119(9) 0.6447(2)
C7A C -0.34144(15) 0.00652(9) 0.5225(2)
C8A C -0.37943(18) 0.06658(10) 0.5133(3)
H11A H -0.4589 0.0672 0.4676
H12A H -0.3483 0.0823 0.6219
C9A C -0.3466(2) 0.10237(12) 0.4123(3)
H13A H -0.2678 0.1026 0.4585
H14A H -0.3724 0.1404 0.4089
H15A H -0.3782 0.0873 0.3042
C10A C -0.16428(15) 0.00478(9) 0.8003(2)
H16A H -0.1992 0.0303 0.8438
H17A H -0.1287 -0.0251 0.8792
C12A C -0.07849(14) 0.03697(8) 0.7773(2)
C13A C -0.07552(16) 0.09586(10) 0.7785(3)
H19A H -0.1261 0.1155 0.7992
C16A C -0.0744(8) 0.2158(3) 0.8243(13)
C17A C -0.0295(8) 0.2125(3) 0.5793(10)
N1A N -0.35007(13) -0.08129(8) 0.4466(2)
H29A H -0.3722 -0.1119 0.3900
N2A N -0.39906(12) -0.03078(8) 0.40451(19)
O1 O 0.0000 0.33604(12) 0.2500
H31 H 0.0155 0.3107 0.1920
H31A H -0.0155 0.3107 0.3080
C3? C 0.2287(5) -0.18201(16) 0.8757(6)
H6? H 0.2746 -0.1893 0.8259
H7? H 0.1694 -0.2089 0.8365
H8? H 0.2714 -0.1856 0.9913
C4? C 0.1855(3) -0.12669(16) 0.8365(4)
H9? H 0.1276 -0.1236 0.8674
H10? H 0.1509 -0.1231 0.7194
H20? H 0.0311 0.2193 0.5601
H21? H 0.1350 0.1906 0.7001
H22? H 0.1020 0.2524 0.7220
H23? H 0.0657 0.2486 0.9382
H24? H 0.0776 0.1858 0.9999
H25? H -0.0364 0.2166 0.9307
C18? C 0.1120(6) 0.2132(3) 0.8701(12)
H26? H 0.1139 0.2536 0.8589
H27? H 0.1673 0.1960 0.8493
H28? H 0.1259 0.2041 0.9784
H30? H 0.4579 -0.0234 1.1838
loop_
_geom_bond_atom_site_label_1
_geom_bond_atom_site_label_2
_geom_bond_site_symmetry_1
_geom_bond_site_symmetry_2
O1 H31 1_555 1_555
C1 H1 1_555 1_555
H2 C1 1_555 1_555
H3 C1 1_555 1_555
C2 C1 1_555 1_555
H4 C2 1_555 1_555
H5 C2 1_555 1_555
C5 C2 1_555 1_555
C6 C5 1_555 1_555
C7 C6 1_555 1_555
C8 C7 1_555 1_555
H11 C8 1_555 1_555
H12 C8 1_555 1_555
C9 C8 1_555 1_555
H13 C9 1_555 1_555
H14 C9 1_555 1_555
H15 C9 1_555 1_555
C10 C6 1_555 1_555
H16 C10 1_555 1_555
H17 C10 1_555 1_555
C11 H18 1_555 1_555
C12 C10 1_555 1_555
C13 C12 1_555 1_555
H19 C13 1_555 1_555
C14 C13 1_555 1_555
C15 C14 1_555 1_555
C16 C15 1_555 1_555
C17 C15 1_555 1_555
N1 C5 1_555 1_555
H29 N1 1_555 1_555
N2 C7 1_555 1_555
C1A H1A 1_555 1_555
H2A C1A 1_555 1_555
H3A C1A 1_555 1_555
C2A C1A 1_555 1_555
H4A C2A 1_555 1_555
H5A C2A 1_555 1_555
C5A C2A 1_555 1_555
C6A C5A 1_555 1_555
C7A C6A 1_555 1_555
C8A C7A 1_555 1_555
H11A C8A 1_555 1_555
H12A C8A 1_555 1_555
C9A C8A 1_555 1_555
H13A C9A 1_555 1_555
H14A C9A 1_555 1_555
H15A C9A 1_555 1_555
C10A C6A 1_555 1_555
H16A C10A 1_555 1_555
H17A C10A 1_555 1_555
C12A C11 1_555 1_555
C13A C14 1_555 1_555
H19A C13A 1_555 1_555
C16A C15 1_555 1_555
C17A C15 1_555 1_555
N1A C5A 1_555 1_555
H29A N1A 1_555 1_555
N2A C7A 1_555 1_555
H31A O1 1_555 1_555
C11 C12 1_555 1_555
C16 C17A 1_555 1_555
C17 C16A 1_555 1_555
N1 N2 1_555 1_555
C10A C12A 1_555 1_555
C12A C13A 1_555 1_555
N1A N2A 1_555 1_555

#END
