
#######################################################################
#
#                 Cambridge Crystallographic Data Centre
#                                CCDC 
#
#######################################################################
#
# If this CIF has been generated from an entry in the Cambridge 
# Structural Database, then it will include bibliographic, chemical, 
# crystal, experimental, refinement or atomic coordinate data resulting 
# from the CCDC's data processing and validation procedures.
#
#######################################################################

data_XABYAC
_chemical_formula_moiety         'C40 H40 O2 Si4'
_chemical_name_systematic        
8,8,10,10,27,27,29,29-Octamethyl-9,28-dioxa-8,10,27,29-tetrasilanonacyclo[28.8.0.0^4,37^.0^7,36^.0^11,20^.0^14,19^.0^17,26^.0^18,23^.0^33,38^]octatriaconta-1(30),2,4,6,11,13,15,17(26),18(23),19,21,24,31,33,35,37-hexadecaene
_symmetry_cell_setting           monoclinic
_symmetry_space_group_name_H-M   'P 21'
_symmetry_Int_Tables_number      4
_space_group_name_Hall           'P 2yb'
loop_
_symmetry_equiv_pos_site_id
_symmetry_equiv_pos_as_xyz
1 x,y,z
2 -x,1/2+y,-z
_cell_length_a                   11.2399(8)
_cell_length_b                   11.3711(8)
_cell_length_c                   26.6731(19)
_cell_angle_alpha                90
_cell_angle_beta                 96.806(2)
_cell_angle_gamma                90
_cell_volume                     3385.07
_exptl_crystal_colour            colorless
_exptl_crystal_description       plate
_cell_formula_units_Z            4
loop_
_atom_site_label
_atom_site_type_symbol
_atom_site_fract_x
_atom_site_fract_y
_atom_site_fract_z
Si1 Si 0.5361(2) 0.4689(2) 0.14994(10)
Si2 Si 0.9936(2) 0.3746(2) -0.14464(9)
Si3 Si 0.7555(2) 0.5109(2) -0.18836(9)
Si4 Si 0.7312(2) 0.2849(2) 0.18503(10)
C1 C 0.8338(7) 0.2910(7) 0.0359(3)
C2 C 0.7446(7) 0.5965(7) 0.0155(3)
C3 C 0.5714(7) 0.4868(7) 0.0409(3)
C4 C 0.9130(7) 0.3276(7) -0.0458(3)
C5 C 0.8416(7) 0.3035(7) 0.0898(3)
C6 C 0.7360(7) 0.2258(7) 0.0099(3)
C7 C 0.5069(7) 0.4194(7) -0.0629(3)
C8 C 0.4677(7) 0.4122(7) 0.0244(3)
H1 H 0.4195 0.3835 0.0487
C9 C 0.6512(7) 0.1782(7) 0.0375(3)
H2 H 0.5862 0.1347 0.0206
C10 C 1.0185(7) 0.4045(7) 0.0337(3)
C11 C 0.8102(7) 0.2646(7) -0.0697(3)
H3 H 0.8009 0.2564 -0.1054
C12 C 1.0931(7) 0.4401(7) -0.0465(3)
H4 H 1.1521 0.4760 -0.0642
C13 C 0.9211(7) 0.3398(7) 0.0076(3)
C14 C 0.6401(7) 0.5241(7) 0.0020(3)
C15 C 1.0266(7) 0.4165(7) 0.0873(3)
H5 H 1.0922 0.4584 0.1045
C16 C 0.8131(7) 0.6328(7) -0.0241(3)
H6 H 0.8813 0.6814 -0.0157
C17 C 0.6037(7) 0.5169(7) 0.0914(3)
C18 C 0.6826(7) 0.5285(7) -0.0871(3)
C19 C 0.7060(7) 0.5873(7) 0.1024(3)
H7 H 0.7291 0.6101 0.1364
C20 C 0.4399(7) 0.3838(7) -0.0240(3)
H8 H 0.3708 0.3367 -0.0329
C21 C 0.6109(7) 0.4928(7) -0.0494(3)
C22 C 0.7267(7) 0.2167(7) -0.0435(3)
H9 H 0.6606 0.1762 -0.0611
C23 C 0.9986(6) 0.3777(7) -0.0742(3)
C24 C 0.7745(7) 0.6246(7) 0.0658(3)
H10 H 0.8439 0.6708 0.0754
C25 C 0.9425(7) 0.3696(7) 0.1143(3)
H11 H 0.9501 0.3804 0.1499
C26 C 0.6553(7) 0.4879(7) -0.1367(3)
C27 C 0.7526(7) 0.2556(7) 0.1175(3)
C28 C 1.1029(7) 0.4510(7) 0.0055(3)
H12 H 1.1697 0.4917 0.0224
C29 C 0.5525(7) 0.4169(7) -0.1489(3)
H13 H 0.5323 0.3910 -0.1827
C30 C 0.7847(7) 0.6008(7) -0.0723(3)
H14 H 0.8331 0.6265 -0.0971
C31 C 0.6590(7) 0.1926(7) 0.0894(3)
H15 H 0.5987 0.1586 0.1069
C32 C 0.4819(7) 0.3851(7) -0.1130(3)
H16 H 0.4133 0.3378 -0.1226
O1 O 0.6419(5) 0.3991(5) 0.1860(2)
O2 O 0.8877(4) 0.4623(5) -0.1696(2)
C65 C 0.6542(7) 0.1570(7) 0.2106(3)
H33 H 0.6567 0.1651 0.2473
H34 H 0.6948 0.0842 0.2028
H35 H 0.5706 0.1545 0.1952
C66 C 0.8644(7) 0.3157(8) 0.2305(3)
H36 H 0.8888 0.3978 0.2270
H37 H 0.9300 0.2636 0.2237
H38 H 0.8451 0.3022 0.2649
C67 C 0.5012(7) 0.6027(7) 0.1856(3)
H39 H 0.4849 0.5802 0.2196
H40 H 0.4307 0.6418 0.1679
H41 H 0.5698 0.6565 0.1881
C68 C 0.3997(7) 0.3767(7) 0.1429(3)
H42 H 0.4153 0.3042 0.1249
H43 H 0.3340 0.4199 0.1236
H44 H 0.3776 0.3571 0.1763
C69 C 0.9684(7) 0.2264(7) -0.1741(3)
H45 H 0.8884 0.1980 -0.1689
H46 H 1.0290 0.1714 -0.1585
H47 H 0.9745 0.2319 -0.2104
C70 C 1.1353(7) 0.4310(8) -0.1636(3)
H48 H 1.1308 0.4310 -0.2005
H49 H 1.2016 0.3805 -0.1495
H50 H 1.1488 0.5113 -0.1510
C71 C 0.6955(7) 0.4238(7) -0.2449(3)
H51 H 0.7451 0.4375 -0.2722
H52 H 0.6129 0.4481 -0.2560
H53 H 0.6970 0.3400 -0.2364
C72 C 0.7727(7) 0.6668(7) -0.2079(3)
H54 H 0.8005 0.7145 -0.1782
H55 H 0.6953 0.6968 -0.2235
H56 H 0.8313 0.6712 -0.2323
Si5 Si 0.4792(2) 0.3114(2) 0.34962(10)
Si6 Si 0.2348(2) 0.2662(2) 0.68558(9)
Si7 Si 0.0132(2) 0.4253(2) 0.65025(10)
Si8 Si 0.2719(2) 0.4895(2) 0.31785(9)
C33 C 0.3419(7) 0.2791(7) 0.5874(3)
C34 C 0.2315(7) 0.1911(7) 0.5110(3)
C35 C 0.4023(7) 0.2864(7) 0.4501(3)
C36 C 0.5134(7) 0.3739(7) 0.5260(3)
C37 C 0.4144(7) 0.3042(7) 0.5032(3)
C38 C 0.1484(7) 0.1474(7) 0.5405(3)
H17 H 0.0816 0.1037 0.5254
C39 C 0.3313(7) 0.2594(7) 0.5342(3)
C40 C 0.2195(7) 0.1747(7) 0.4575(3)
H18 H 0.1538 0.1301 0.4419
C41 C 0.5238(7) 0.3912(7) 0.5793(3)
H19 H 0.5901 0.4351 0.5949
C42 C 0.5816(7) 0.3970(7) 0.4441(3)
H20 H 0.6398 0.4277 0.4246
C43 C 0.1628(7) 0.1676(7) 0.5920(3)
H21 H 0.1062 0.1332 0.6114
C44 C 0.2982(7) 0.2203(7) 0.4283(3)
H22 H 0.2853 0.2090 0.3928
C45 C 0.2554(7) 0.2354(7) 0.6177(3)
C46 C 0.4437(7) 0.3480(7) 0.6089(3)
H23 H 0.4546 0.3631 0.6442
C47 C 0.4852(7) 0.3318(6) 0.4195(3)
C48 C 0.5948(7) 0.4184(7) 0.4962(3)
H24 H 0.6606 0.4639 0.5111
C49 C 0.0594(7) 0.4524(7) 0.5424(3)
C50 C 0.0101(7) 0.3892(7) 0.4377(3)
C51 C 0.1102(7) 0.4627(7) 0.4538(3)
C52 C 0.1888(7) 0.5011(7) 0.4192(3)
C53 C 0.2347(7) 0.5651(7) 0.5232(3)
C54 C 0.1682(7) 0.4671(7) 0.3674(3)
C55 C 0.0837(7) 0.4810(7) 0.5938(3)
C56 C 0.1840(7) 0.5532(7) 0.6080(3)
H25 H 0.2023 0.5744 0.6425
C57 C 0.2562(7) 0.5940(7) 0.5738(3)
H26 H 0.3223 0.6432 0.5852
C58 C 0.1333(7) 0.4912(7) 0.5061(3)
C59 C 0.2900(7) 0.5737(7) 0.4380(3)
H27 H 0.3429 0.6005 0.4152
C60 C -0.0645(7) 0.3509(7) 0.4743(3)
H28 H -0.1326 0.3038 0.4635
C61 C -0.0420(7) 0.3789(7) 0.5235(3)
H29 H -0.0935 0.3500 0.5465
C62 C 0.3107(7) 0.6041(7) 0.4870(3)
H30 H 0.3775 0.6528 0.4979
C63 C 0.0654(7) 0.3974(7) 0.3531(3)
H31 H 0.0478 0.3748 0.3188
C64 C -0.0103(7) 0.3611(7) 0.3871(3)
H32 H -0.0786 0.3152 0.3754
O3 O 0.3591(5) 0.3725(5) 0.3204(2)
O4 O 0.1188(4) 0.3538(4) 0.6850(2)
C73 C 0.1975(8) 0.1285(7) 0.7172(3)
H57 H 0.1847 0.1456 0.7521
H58 H 0.2636 0.0725 0.7169
H59 H 0.1244 0.0946 0.6992
C74 C 0.3575(6) 0.3407(7) 0.7258(3)
H60 H 0.3693 0.4197 0.7125
H61 H 0.4315 0.2952 0.7259
H62 H 0.3367 0.3469 0.7604
C75 C 0.6145(7) 0.3782(7) 0.3273(3)
H63 H 0.6079 0.3737 0.2904
H64 H 0.6860 0.3353 0.3418
H65 H 0.6209 0.4607 0.3379
C76 C 0.3667(8) 0.6231(7) 0.3213(3)
H66 H 0.4376 0.6108 0.3459
H67 H 0.3208 0.6902 0.3318
H68 H 0.3920 0.6391 0.2881
C77 C 0.4721(7) 0.1547(7) 0.3302(3)
H69 H 0.3979 0.1195 0.3391
H70 H 0.5411 0.1125 0.3476
H71 H 0.4738 0.1493 0.2936
C78 C -0.1186(7) 0.3255(8) 0.6400(3)
H72 H -0.0971 0.2549 0.6220
H73 H -0.1848 0.3661 0.6199
H74 H -0.1433 0.3030 0.6727
C79 C -0.0268(7) 0.5538(7) 0.6875(3)
H75 H -0.0494 0.5270 0.7200
H76 H -0.0944 0.5956 0.6688
H77 H 0.0422 0.6068 0.6933
C80 C 0.1798(7) 0.4863(8) 0.2553(3)
H78 H 0.2306 0.5038 0.2288
H79 H 0.1160 0.5452 0.2546
H80 H 0.1442 0.4081 0.2495
loop_
_geom_bond_atom_site_label_1
_geom_bond_atom_site_label_2
_geom_bond_site_symmetry_1
_geom_bond_site_symmetry_2
Si1 C17 1_555 1_555
Si2 C23 1_555 1_555
Si3 C26 1_555 1_555
Si4 C27 1_555 1_555
Si5 C47 1_555 1_555
Si6 C45 1_555 1_555
Si7 C55 1_555 1_555
Si8 C54 1_555 1_555
C1 C5 1_555 1_555
C2 C14 1_555 1_555
C3 C8 1_555 1_555
C4 C11 1_555 1_555
C5 C25 1_555 1_555
C6 C1 1_555 1_555
C7 C20 1_555 1_555
C8 H1 1_555 1_555
C9 C6 1_555 1_555
H2 C9 1_555 1_555
C10 C13 1_555 1_555
C11 H3 1_555 1_555
C12 H4 1_555 1_555
C13 C1 1_555 1_555
C14 C3 1_555 1_555
C15 C10 1_555 1_555
H5 C15 1_555 1_555
C16 C2 1_555 1_555
H6 C16 1_555 1_555
C17 C3 1_555 1_555
C18 C21 1_555 1_555
C19 C17 1_555 1_555
H7 C19 1_555 1_555
C20 C8 1_555 1_555
H8 C20 1_555 1_555
C21 C7 1_555 1_555
C22 C6 1_555 1_555
H9 C22 1_555 1_555
C23 C4 1_555 1_555
C24 C2 1_555 1_555
H10 C24 1_555 1_555
C25 C15 1_555 1_555
H11 C25 1_555 1_555
C26 C18 1_555 1_555
C27 C5 1_555 1_555
C28 C10 1_555 1_555
H12 C28 1_555 1_555
C29 C26 1_555 1_555
H13 C29 1_555 1_555
C30 C16 1_555 1_555
H14 C30 1_555 1_555
C31 C9 1_555 1_555
H15 C31 1_555 1_555
C32 C7 1_555 1_555
H16 C32 1_555 1_555
C33 C39 1_555 1_555
C34 C38 1_555 1_555
C35 C37 1_555 1_555
C36 C37 1_555 1_555
C37 C39 1_555 1_555
C38 H17 1_555 1_555
C39 C34 1_555 1_555
C40 C34 1_555 1_555
H18 C40 1_555 1_555
C41 C36 1_555 1_555
H19 C41 1_555 1_555
C42 H20 1_555 1_555
C43 C38 1_555 1_555
H21 C43 1_555 1_555
C44 C35 1_555 1_555
H22 C44 1_555 1_555
C45 C33 1_555 1_555
C46 C33 1_555 1_555
H23 C46 1_555 1_555
C47 C35 1_555 1_555
C48 C36 1_555 1_555
H24 C48 1_555 1_555
C49 C55 1_555 1_555
C50 C51 1_555 1_555
C51 C52 1_555 1_555
C52 C54 1_555 1_555
C53 C57 1_555 1_555
C54 C63 1_555 1_555
C55 C56 1_555 1_555
C56 H25 1_555 1_555
C57 C56 1_555 1_555
H26 C57 1_555 1_555
C58 C49 1_555 1_555
C59 C52 1_555 1_555
H27 C59 1_555 1_555
C60 C50 1_555 1_555
H28 C60 1_555 1_555
C61 C49 1_555 1_555
H29 C61 1_555 1_555
C62 C53 1_555 1_555
H30 C62 1_555 1_555
C63 H31 1_555 1_555
C64 C50 1_555 1_555
H32 C64 1_555 1_555
O1 Si1 1_555 1_555
O2 Si2 1_555 1_555
O3 Si5 1_555 1_555
O4 Si6 1_555 1_555
C65 Si4 1_555 1_555
H33 C65 1_555 1_555
H34 C65 1_555 1_555
H35 C65 1_555 1_555
C66 Si4 1_555 1_555
H36 C66 1_555 1_555
H37 C66 1_555 1_555
H38 C66 1_555 1_555
C67 Si1 1_555 1_555
H39 C67 1_555 1_555
H40 C67 1_555 1_555
H41 C67 1_555 1_555
C68 Si1 1_555 1_555
H42 C68 1_555 1_555
H43 C68 1_555 1_555
H44 C68 1_555 1_555
C69 Si2 1_555 1_555
H45 C69 1_555 1_555
H46 C69 1_555 1_555
H47 C69 1_555 1_555
C70 Si2 1_555 1_555
H48 C70 1_555 1_555
H49 C70 1_555 1_555
H50 C70 1_555 1_555
C71 Si3 1_555 1_555
H51 C71 1_555 1_555
H52 C71 1_555 1_555
H53 C71 1_555 1_555
C72 Si3 1_555 1_555
H54 C72 1_555 1_555
H55 C72 1_555 1_555
H56 C72 1_555 1_555
C73 Si6 1_555 1_555
H57 C73 1_555 1_555
H58 C73 1_555 1_555
H59 C73 1_555 1_555
C74 Si6 1_555 1_555
H60 C74 1_555 1_555
H61 C74 1_555 1_555
H62 C74 1_555 1_555
C75 Si5 1_555 1_555
H63 C75 1_555 1_555
H64 C75 1_555 1_555
H65 C75 1_555 1_555
C76 Si8 1_555 1_555
H66 C76 1_555 1_555
H67 C76 1_555 1_555
H68 C76 1_555 1_555
C77 Si5 1_555 1_555
H69 C77 1_555 1_555
H70 C77 1_555 1_555
H71 C77 1_555 1_555
C78 Si7 1_555 1_555
H72 C78 1_555 1_555
H73 C78 1_555 1_555
H74 C78 1_555 1_555
C79 Si7 1_555 1_555
H75 C79 1_555 1_555
H76 C79 1_555 1_555
H77 C79 1_555 1_555
C80 Si8 1_555 1_555
H78 C80 1_555 1_555
H79 C80 1_555 1_555
H80 C80 1_555 1_555
Si3 O2 1_555 1_555
Si4 O1 1_555 1_555
Si7 O4 1_555 1_555
Si8 O3 1_555 1_555
C4 C13 1_555 1_555
C11 C22 1_555 1_555
C12 C23 1_555 1_555
C12 C28 1_555 1_555
C14 C21 1_555 1_555
C18 C30 1_555 1_555
C19 C24 1_555 1_555
C27 C31 1_555 1_555
C29 C32 1_555 1_555
C40 C44 1_555 1_555
C41 C46 1_555 1_555
C42 C47 1_555 1_555
C42 C48 1_555 1_555
C43 C45 1_555 1_555
C51 C58 1_555 1_555
C53 C58 1_555 1_555
C59 C62 1_555 1_555
C60 C61 1_555 1_555
C63 C64 1_555 1_555

#END
