
#######################################################################
#
#                 Cambridge Crystallographic Data Centre
#                                CCDC 
#
#######################################################################
#
# If this CIF has been generated from an entry in the Cambridge 
# Structural Database, then it will include bibliographic, chemical, 
# crystal, experimental, refinement or atomic coordinate data resulting 
# from the CCDC's data processing and validation procedures.
#
#######################################################################

data_XACQOI01
_chemical_formula_moiety         'C19 H15 N5'
_chemical_name_systematic        
2-amino-3-(((9-ethyl-9H-carbazol-3-yl)methylidene)amino)but-2-enedinitrile
_symmetry_cell_setting           monoclinic
_symmetry_space_group_name_H-M   'P 21/c'
_symmetry_Int_Tables_number      14
_space_group_name_Hall           '-P 2ybc'
loop_
_symmetry_equiv_pos_site_id
_symmetry_equiv_pos_as_xyz
1 x,y,z
2 -x,1/2+y,1/2-z
3 -x,-y,-z
4 x,1/2-y,1/2+z
_cell_length_a                   8.4581(4)
_cell_length_b                   11.5497(3)
_cell_length_c                   16.8657(6)
_cell_angle_alpha                90
_cell_angle_beta                 101.258(4)
_cell_angle_gamma                90
_cell_volume                     1615.88
_exptl_crystal_colour            'light yellow'
_exptl_crystal_description       block
_cell_formula_units_Z            4
_chemical_properties_physical    Light-sensitive
_exptl_crystal_preparation       Luminescent
loop_
_atom_site_label
_atom_site_type_symbol
_atom_site_fract_x
_atom_site_fract_y
_atom_site_fract_z
N1 N 0.0774(3) 0.57873(16) 0.64137(12)
N2 N 0.3928(2) 0.27629(14) 0.40219(11)
N3 N 0.4947(3) 0.34815(16) 0.26609(13)
H1 H 0.4578 0.3981 0.2957
H2 H 0.5262 0.3701 0.2230
N4 N 0.6197(3) 0.09668(19) 0.19444(14)
N5 N 0.4748(3) -0.02103(15) 0.38948(12)
C1 C 0.1900(3) 0.65125(17) 0.53995(12)
C2 C 0.2285(3) 0.73821(18) 0.49030(13)
H3 H 0.2832 0.7211 0.4490
C3 C 0.1842(3) 0.85052(19) 0.50313(14)
H4 H 0.2097 0.9094 0.4702
C4 C 0.1024(3) 0.8769(2) 0.56437(15)
H5 H 0.0752 0.9535 0.5722
C5 C 0.0606(3) 0.7925(2) 0.61385(15)
H6 H 0.0049 0.8108 0.6546
C6 C 0.1042(3) 0.67878(19) 0.60108(13)
C7 C -0.0259(3) 0.5711(2) 0.70183(16)
H7 H -0.1136 0.6263 0.6885
H8 H -0.0722 0.4942 0.7005
C8 C 0.0656(5) 0.5952(3) 0.78344(19)
H9 H 0.1149 0.6702 0.7843
H10 H 0.1477 0.5374 0.7982
H11 H -0.0059 0.5937 0.8212
C9 C 0.2154(3) 0.52735(17) 0.54424(12)
C10 C 0.2852(3) 0.44994(18) 0.49885(13)
H12 H 0.3308 0.4762 0.4562
C11 C 0.2870(3) 0.33196(17) 0.51742(13)
C12 C 0.2213(3) 0.29451(19) 0.58348(13)
H13 H 0.2268 0.2163 0.5969
C13 C 0.1495(3) 0.36962(19) 0.62878(14)
H14 H 0.1053 0.3432 0.6718
C14 C 0.1449(3) 0.48650(18) 0.60830(13)
C15 C 0.3514(3) 0.24774(18) 0.46834(13)
H15 H 0.3628 0.1711 0.4855
C16 C 0.4546(3) 0.19611(16) 0.35521(13)
C17 C 0.4682(3) 0.07507(17) 0.37432(13)
C18 C 0.5031(3) 0.23575(17) 0.28724(13)
C19 C 0.5678(3) 0.15774(19) 0.23566(14)
loop_
_geom_bond_atom_site_label_1
_geom_bond_atom_site_label_2
_geom_bond_site_symmetry_1
_geom_bond_site_symmetry_2
N1 C6 1_555 1_555
N2 C15 1_555 1_555
N3 H1 1_555 1_555
H2 N3 1_555 1_555
N4 C19 1_555 1_555
N5 C17 1_555 1_555
C1 C2 1_555 1_555
C2 H3 1_555 1_555
C3 C2 1_555 1_555
H4 C3 1_555 1_555
C4 C3 1_555 1_555
H5 C4 1_555 1_555
C5 C4 1_555 1_555
H6 C5 1_555 1_555
C6 C1 1_555 1_555
C7 N1 1_555 1_555
H7 C7 1_555 1_555
H8 C7 1_555 1_555
C8 C7 1_555 1_555
H9 C8 1_555 1_555
H10 C8 1_555 1_555
H11 C8 1_555 1_555
C9 C1 1_555 1_555
C10 C9 1_555 1_555
H12 C10 1_555 1_555
C11 C10 1_555 1_555
C12 C11 1_555 1_555
H13 C12 1_555 1_555
C13 C12 1_555 1_555
H14 C13 1_555 1_555
C14 N1 1_555 1_555
C15 C11 1_555 1_555
H15 C15 1_555 1_555
C16 N2 1_555 1_555
C17 C16 1_555 1_555
C18 N3 1_555 1_555
C19 C18 1_555 1_555
C5 C6 1_555 1_555
C9 C14 1_555 1_555
C13 C14 1_555 1_555
C16 C18 1_555 1_555

#END
