
#######################################################################
#
#                 Cambridge Crystallographic Data Centre
#                                CCDC 
#
#######################################################################
#
# If this CIF has been generated from an entry in the Cambridge 
# Structural Database, then it will include bibliographic, chemical, 
# crystal, experimental, refinement or atomic coordinate data resulting 
# from the CCDC's data processing and validation procedures.
#
#######################################################################

data_XACTUS
_chemical_compound_source        'Salvia castanea Diels f.pubescens Stib'
_chemical_name_common            Castanolide
_chemical_formula_moiety         'C19 H24 O4'
_chemical_name_systematic        
4',8,8-Trimethyl-7,7a,8,9,10,11-hexahydro-3H,5'H,6H-spiro[benzo[i]isochromene-5,2'-furan]-3,5'-dione
_symmetry_cell_setting           orthorhombic
_symmetry_space_group_name_H-M   'P 21 21 21'
_symmetry_Int_Tables_number      19
_space_group_name_Hall           'P 2ac 2ab'
loop_
_symmetry_equiv_pos_site_id
_symmetry_equiv_pos_as_xyz
1 x,y,z
2 1/2-x,-y,1/2+z
3 1/2+x,1/2-y,-z
4 -x,1/2+y,1/2-z
_cell_length_a                   6.5492(12)
_cell_length_b                   11.936(2)
_cell_length_c                   21.835(4)
_cell_angle_alpha                90
_cell_angle_beta                 90
_cell_angle_gamma                90
_cell_volume                     1706.87
_exptl_crystal_colour            colorless
_exptl_crystal_description       block
_chemical_melting_point          240-242deg.C
_cell_formula_units_Z            4
loop_
_atom_site_label
_atom_site_type_symbol
_atom_site_fract_x
_atom_site_fract_y
_atom_site_fract_z
O1 O 1.0194(3) 0.22815(15) 0.11404(8)
O2 O 1.2881(3) 0.11337(17) 0.11862(9)
O3 O 0.5063(4) 0.4493(2) 0.23914(10)
C1 C 0.7027(4) 0.2511(2) 0.05578(12)
H1 H 0.5713 0.2145 0.0513
H2 H 0.7908 0.2235 0.0234
C2 C 0.7949(4) 0.2176(2) 0.11765(13)
C3 C 0.7601(4) 0.4219(2) 0.15669(12)
C4 C 0.7204(4) 0.2976(3) 0.16599(12)
C5 C 0.9429(4) 0.0415(2) 0.12745(12)
O4 O 0.4547(4) 0.3147(2) 0.30576(11)
C6 C 0.9901(5) -0.0803(2) 0.13014(13)
H3 H 0.8851 -0.1183 0.1527
H4 H 1.1192 -0.0912 0.1501
H5 H 0.9964 -0.1100 0.0893
C7 C 0.9372(5) 0.4654(3) 0.19650(14)
H6 H 0.9012 0.4578 0.2394
H7 H 1.0578 0.4202 0.1890
C8 C 0.8206(4) 0.4432(2) 0.08872(12)
H8 H 0.9504 0.4032 0.0841
C9 C 0.7674(4) 0.0948(2) 0.12848(12)
H9 H 0.6418 0.0604 0.1351
C10 C 0.6056(4) 0.2631(3) 0.21203(13)
H10 H 0.5804 0.1869 0.2165
C11 C 1.1055(5) 0.1255(3) 0.11969(14)
C12 C 0.8725(5) 0.5645(3) 0.07061(14)
C13 C 0.6731(5) 0.3787(2) 0.04721(12)
H11 H 0.6979 0.3986 0.0048
H12 H 0.5336 0.3989 0.0572
C14 C 0.9859(6) 0.5885(3) 0.18262(15)
H13 H 0.8694 0.6345 0.1937
H14 H 1.1010 0.6121 0.2074
C15 C 1.0361(5) 0.6065(3) 0.11531(15)
H15 H 1.1637 0.5687 0.1062
H16 H 1.0569 0.6860 0.1084
C16 C 0.6901(5) 0.6450(2) 0.06707(15)
H17 H 0.7303 0.7121 0.0460
H18 H 0.6458 0.6635 0.1077
H19 H 0.5803 0.6097 0.0452
C17 C 0.5611(5) 0.4780(3) 0.17715(14)
H20 H 0.5760 0.5586 0.1740
H21 H 0.4517 0.4554 0.1499
C18 C 0.5167(6) 0.3411(4) 0.25626(17)
C19 C 0.9742(6) 0.5632(3) 0.00667(14)
H22 H 0.8746 0.5433 -0.0237
H23 H 1.0830 0.5093 0.0063
H24 H 1.0280 0.6362 -0.0023
loop_
_geom_bond_atom_site_label_1
_geom_bond_atom_site_label_2
_geom_bond_site_symmetry_1
_geom_bond_site_symmetry_2
O1 C2 1_555 1_555
O2 C11 1_555 1_555
O3 C17 1_555 1_555
C1 H1 1_555 1_555
H2 C1 1_555 1_555
C2 C1 1_555 1_555
C3 C4 1_555 1_555
C4 C2 1_555 1_555
C5 C6 1_555 1_555
O4 C18 1_555 1_555
C6 H3 1_555 1_555
H4 C6 1_555 1_555
H5 C6 1_555 1_555
C7 C3 1_555 1_555
H6 C7 1_555 1_555
H7 C7 1_555 1_555
C8 C3 1_555 1_555
H8 C8 1_555 1_555
C9 C2 1_555 1_555
H9 C9 1_555 1_555
C10 C4 1_555 1_555
H10 C10 1_555 1_555
C11 O1 1_555 1_555
C12 C8 1_555 1_555
C13 C1 1_555 1_555
H11 C13 1_555 1_555
H12 C13 1_555 1_555
C14 C7 1_555 1_555
H13 C14 1_555 1_555
H14 C14 1_555 1_555
C15 C12 1_555 1_555
H15 C15 1_555 1_555
H16 C15 1_555 1_555
C16 C12 1_555 1_555
H17 C16 1_555 1_555
H18 C16 1_555 1_555
H19 C16 1_555 1_555
C17 C3 1_555 1_555
H20 C17 1_555 1_555
H21 C17 1_555 1_555
C18 O3 1_555 1_555
C19 C12 1_555 1_555
H22 C19 1_555 1_555
H23 C19 1_555 1_555
H24 C19 1_555 1_555
C5 C9 1_555 1_555
C5 C11 1_555 1_555
C8 C13 1_555 1_555
C10 C18 1_555 1_555
C14 C15 1_555 1_555

#END
