
#######################################################################
#
#                 Cambridge Crystallographic Data Centre
#                                CCDC 
#
#######################################################################
#
# If this CIF has been generated from an entry in the Cambridge 
# Structural Database, then it will include bibliographic, chemical, 
# crystal, experimental, refinement or atomic coordinate data resulting 
# from the CCDC's data processing and validation procedures.
#
#######################################################################

data_XACXEH
_chemical_formula_moiety         'C88 Cl22,C88 Cl12'
_chemical_name_systematic        
'docosachloro-C~s~-(isomer 17)-C88fullerene dodecachloro-C~2~-(isomer 7)-C88fullerene'
_symmetry_cell_setting           triclinic
_symmetry_space_group_name_H-M   'P -1'
_symmetry_Int_Tables_number      2
_space_group_name_Hall           '-P 1'
loop_
_symmetry_equiv_pos_site_id
_symmetry_equiv_pos_as_xyz
1 x,y,z
2 -x,-y,-z
_cell_length_a                   12.3120(10)
_cell_length_b                   19.6360(10)
_cell_length_c                   24.416(2)
_cell_angle_alpha                93.481(8)
_cell_angle_beta                 96.883(7)
_cell_angle_gamma                92.418(7)
_cell_volume                     5842.13
_exptl_crystal_colour            orange
_exptl_crystal_description       plate
_cell_formula_units_Z            2
loop_
_atom_site_label
_atom_site_type_symbol
_atom_site_fract_x
_atom_site_fract_y
_atom_site_fract_z
Cl1 Cl 1.2347(2) 1.54988(12) 0.22695(13)
Cl2 Cl 1.2068(2) 1.61179(12) 0.39608(13)
Cl3 Cl 1.7030(2) 1.56572(11) 0.46570(11)
Cl4 Cl 1.4732(2) 1.64946(12) 0.50482(12)
Cl5 Cl 1.9336(2) 1.90785(14) 0.18952(14)
Cl6 Cl 1.9989(2) 1.67413(13) 0.45656(11)
Cl7 Cl 1.5436(2) 1.84466(12) 0.56588(11)
Cl8 Cl 1.5174(2) 2.11001(11) 0.31346(11)
Cl9 Cl 1.99678(18) 1.99938(11) 0.33341(11)
Cl10 Cl 2.02496(19) 1.86114(12) 0.48404(11)
Cl11 Cl 1.8105(2) 1.94689(11) 0.54264(10)
Cl12 Cl 1.79201(19) 2.09242(11) 0.39477(11)
C1 C 1.4613(7) 1.6583(4) 0.1920(4)
C2 C 1.5284(8) 1.6154(4) 0.2261(5)
C3 C 1.4951(8) 1.6014(4) 0.2801(4)
C4 C 1.3939(7) 1.6242(4) 0.2959(4)
C5 C 1.3030(8) 1.6335(5) 0.2492(4)
C6 C 1.3509(8) 1.6637(5) 0.1999(4)
C7 C 1.2922(8) 1.7202(5) 0.1843(5)
C8 C 1.3420(8) 1.7740(4) 0.1608(4)
C9 C 1.4528(8) 1.7695(4) 0.1517(4)
C10 C 1.5142(8) 1.7129(5) 0.1654(4)
C11 C 1.6319(8) 1.7217(4) 0.1712(4)
C12 C 1.6930(8) 1.6664(5) 0.1924(4)
C13 C 1.6406(8) 1.6145(4) 0.2214(4)
C14 C 1.7204(7) 1.5961(4) 0.2655(4)
C15 C 1.6887(7) 1.5850(4) 0.3158(4)
C16 C 1.5770(9) 1.5903(4) 0.3235(4)
C17 C 1.5685(7) 1.6151(4) 0.3783(4)
C18 C 1.4779(8) 1.6497(5) 0.3925(4)
C19 C 1.3851(8) 1.6482(5) 0.3501(4)
C20 C 1.2826(7) 1.6791(5) 0.3657(4)
C21 C 1.2154(7) 1.7066(5) 0.3175(5)
C22 C 1.2250(7) 1.6861(4) 0.2638(5)
C23 C 1.2111(8) 1.7337(5) 0.2205(5)
C24 C 1.1882(7) 1.8006(5) 0.2342(5)
C25 C 1.2482(8) 1.8562(5) 0.2129(5)
C26 C 1.3226(8) 1.8432(5) 0.1763(4)
C27 C 1.4249(8) 1.8821(5) 0.1814(4)
C28 C 1.5063(7) 1.8377(4) 0.1645(4)
C29 C 1.6163(7) 1.8480(4) 0.1813(4)
C30 C 1.6848(7) 1.7902(5) 0.1776(4)
C31 C 1.7952(7) 1.7984(5) 0.1998(4)
C32 C 1.8530(7) 1.7428(5) 0.2211(4)
C33 C 1.8019(7) 1.6769(4) 0.2162(4)
C34 C 1.8216(7) 1.6334(4) 0.2627(4)
C35 C 1.8838(7) 1.6570(4) 0.3106(4)
C36 C 1.8510(7) 1.6440(4) 0.3634(4)
C37 C 1.7523(8) 1.6093(4) 0.3664(4)
C38 C 1.6814(8) 1.6249(4) 0.4104(4)
C39 C 1.7006(7) 1.6967(4) 0.4367(4)
C40 C 1.6133(8) 1.7324(4) 0.4538(4)
C41 C 1.4924(8) 1.6983(4) 0.4440(4)
C42 C 1.4056(8) 1.7515(4) 0.4405(4)
C43 C 1.3095(8) 1.7410(5) 0.4056(5)
C44 C 1.2482(7) 1.7959(5) 0.3840(4)
C45 C 1.1943(7) 1.7753(4) 0.3310(4)
C46 C 1.1807(7) 1.8213(5) 0.2900(4)
C47 C 1.2286(7) 1.8916(5) 0.3022(5)
C48 C 1.2703(7) 1.9109(4) 0.2538(5)
C49 C 1.3721(7) 1.9528(4) 0.2589(4)
C50 C 1.4528(8) 1.9341(4) 0.2230(4)
C51 C 1.5702(7) 1.9471(4) 0.2426(4)
C52 C 1.6503(7) 1.9067(4) 0.2209(4)
C53 C 1.7591(7) 1.9108(4) 0.2476(4)
C54 C 1.8431(7) 1.8638(4) 0.2300(4)
C55 C 1.9109(7) 1.8384(4) 0.2799(4)
C56 C 1.9208(7) 1.7679(4) 0.2704(4)
C57 C 1.9343(7) 1.7266(4) 0.3143(4)
C58 C 1.9361(7) 1.7540(4) 0.3692(4)
C59 C 1.8920(7) 1.7010(4) 0.4059(4)
C60 C 1.8014(7) 1.7307(4) 0.4356(4)
C61 C 1.8163(7) 1.8005(4) 0.4523(3)
C62 C 1.7330(7) 1.8337(4) 0.4726(4)
C63 C 1.6325(8) 1.8004(4) 0.4751(3)
C64 C 1.5425(8) 1.8440(4) 0.4914(4)
C65 C 1.4288(7) 1.8184(5) 0.4622(4)
C66 C 1.3734(8) 1.8743(4) 0.4413(4)
C67 C 1.2877(7) 1.8648(4) 0.3987(4)
C68 C 1.2764(7) 1.9133(4) 0.3555(4)
C69 C 1.3608(7) 1.9667(4) 0.3574(4)
C70 C 1.4047(7) 1.9868(4) 0.3108(4)
C71 C 1.5179(7) 2.0187(4) 0.3261(4)
C72 C 1.6011(7) 1.9871(4) 0.2929(4)
C73 C 1.7063(7) 1.9858(4) 0.3197(4)
C74 C 1.7840(6) 1.9490(4) 0.2968(4)
C75 C 1.8821(7) 1.9391(4) 0.3393(4)
C76 C 1.9185(7) 1.8659(5) 0.3338(4)
C77 C 1.9312(6) 1.8246(5) 0.3785(4)
C78 C 1.9013(7) 1.8500(5) 0.4333(4)
C79 C 1.8369(7) 1.9144(4) 0.4338(4)
C80 C 1.7543(7) 1.9110(4) 0.4738(4)
C81 C 1.6492(7) 1.9455(4) 0.4561(4)
C82 C 1.5550(7) 1.9159(4) 0.4706(4)
C83 C 1.4514(7) 1.9320(4) 0.4459(4)
C84 C 1.4459(7) 1.9775(4) 0.4046(4)
C85 C 1.5421(8) 2.0055(4) 0.3858(4)
C86 C 1.6442(7) 1.9897(4) 0.4123(3)
C87 C 1.7392(7) 2.0025(4) 0.3810(4)
C88 C 1.8320(7) 1.9540(4) 0.3916(4)
Cl13 Cl 0.46940(17) 1.37285(11) -0.02926(10)
Cl14 Cl 0.76755(18) 1.45703(11) -0.05300(11)
Cl15 Cl 0.98690(18) 1.33678(13) -0.08373(11)
Cl16 Cl 0.92722(18) 1.13560(12) -0.08938(10)
Cl17 Cl 0.64879(17) 1.06254(11) -0.05819(10)
Cl18 Cl 0.42765(17) 1.18124(11) -0.03085(10)
Cl19 Cl 0.47564(18) 1.48868(11) 0.11053(11)
Cl20 Cl 0.78161(19) 1.56873(11) 0.09045(11)
Cl21 Cl 1.25414(17) 1.32517(12) 0.02820(11)
Cl22 Cl 1.19355(18) 1.11372(12) 0.01453(11)
Cl23 Cl 0.63241(17) 0.97221(10) 0.10277(10)
Cl24 Cl 0.41141(17) 1.08751(10) 0.13797(10)
Cl25 Cl 0.43310(19) 1.39954(11) 0.25061(11)
Cl26 Cl 1.16624(17) 1.01636(10) 0.15458(10)
Cl27 Cl 0.6359(2) 1.40820(12) 0.35991(11)
Cl28 Cl 0.8735(2) 1.45472(11) 0.39811(11)
Cl29 Cl 1.1983(2) 1.44285(11) 0.35232(11)
Cl30 Cl 1.29086(19) 1.23747(11) 0.34203(11)
Cl31 Cl 1.22561(18) 1.09825(10) 0.28208(11)
Cl32 Cl 0.8716(2) 1.30112(12) 0.41801(10)
Cl33 Cl 1.1137(2) 1.34482(12) 0.42373(11)
Cl34 Cl 1.08113(19) 1.19244(11) 0.39049(10)
C89 C 0.7597(8) 1.3338(4) -0.0062(4)
C90 C 0.8435(6) 1.2894(4) -0.0162(4)
C91 C 0.8232(7) 1.2188(4) -0.0204(4)
C92 C 0.7197(7) 1.1925(4) -0.0140(3)
C93 C 0.6384(7) 1.2362(4) -0.0023(3)
C94 C 0.6554(7) 1.3063(4) 0.0011(4)
C95 C 0.5721(6) 1.3492(4) 0.0263(4)
C96 C 0.6226(7) 1.4103(4) 0.0602(4)
C97 C 0.7196(7) 1.4375(4) 0.0535(4)
C98 C 0.7863(7) 1.4099(4) 0.0094(4)
C99 C 0.8996(7) 1.4202(4) 0.0383(4)
C100 C 0.9828(7) 1.3764(4) 0.0268(4)
C101 C 0.9612(7) 1.3179(4) -0.0141(4)
C102 C 1.0421(7) 1.2682(4) 0.0108(4)
C103 C 1.0245(7) 1.2021(4) 0.0086(4)
C104 C 0.9159(7) 1.1683(4) -0.0196(4)
C105 C 0.8966(7) 1.1138(4) 0.0195(4)
C106 C 0.7940(6) 1.0941(4) 0.0331(4)
C107 C 0.6945(7) 1.1211(4) 0.0013(4)
C108 C 0.6035(7) 1.1332(4) 0.0363(4)
C109 C 0.5474(6) 1.1977(4) 0.0207(4)
C110 C 0.5137(6) 1.2388(4) 0.0696(4)
C111 C 0.5204(6) 1.3104(4) 0.0688(4)
C112 C 0.5185(7) 1.3526(4) 0.1164(4)
C113 C 0.5737(7) 1.4212(4) 0.1140(4)
C114 C 0.6575(7) 1.4366(4) 0.1641(4)
C115 C 0.7639(7) 1.4634(4) 0.1564(4)
C116 C 0.7904(7) 1.4768(4) 0.0992(4)
C117 C 0.9036(7) 1.4541(4) 0.0899(4)
C118 C 0.9865(7) 1.4444(4) 0.1336(4)
C119 C 1.0738(7) 1.3999(4) 0.1214(4)
C120 C 1.0674(7) 1.3680(4) 0.0688(4)
C121 C 1.1256(7) 1.3034(4) 0.0553(4)
C122 C 1.1496(6) 1.2633(4) 0.1054(4)
C123 C 1.1297(7) 1.1906(4) 0.1015(4)
C124 C 1.0847(7) 1.1538(4) 0.0465(4)
C125 C 0.9925(7) 1.1035(4) 0.0537(4)
C126 C 0.9883(7) 1.0733(4) 0.1026(4)
C127 C 0.8867(7) 1.0576(4) 0.1181(4)
C128 C 0.7879(7) 1.0661(4) 0.0839(4)
C129 C 0.6844(7) 1.0617(4) 0.1095(4)
C130 C 0.5962(6) 1.1073(4) 0.0844(4)
C131 C 0.5362(6) 1.1368(4) 0.1290(4)
C132 C 0.5081(6) 1.2106(4) 0.1207(4)
C133 C 0.5091(7) 1.2538(4) 0.1686(4)
C134 C 0.5059(6) 1.3248(4) 0.1662(4)
C135 C 0.5453(7) 1.3612(4) 0.2216(4)
C136 C 0.6397(7) 1.4125(4) 0.2167(4)
C137 C 0.7208(7) 1.4218(4) 0.2614(4)
C138 C 0.8264(8) 1.4467(4) 0.2519(4)
C139 C 0.8507(7) 1.4635(4) 0.2008(4)
C140 C 0.9637(7) 1.4576(4) 0.1891(4)
C141 C 1.0380(7) 1.4353(4) 0.2310(4)
C142 C 1.1237(7) 1.3915(4) 0.2194(4)
C143 C 1.1351(7) 1.3687(4) 0.1664(4)
C144 C 1.1685(6) 1.2991(4) 0.1572(4)
C145 C 1.1841(6) 1.2607(4) 0.2046(4)
C146 C 1.1675(6) 1.1898(4) 0.2016(4)
C147 C 1.1363(7) 1.1548(4) 0.1514(4)
C148 C 1.0737(7) 1.0863(4) 0.1519(4)
C149 C 1.0030(7) 1.0915(4) 0.1995(4)
C150 C 0.8946(7) 1.0706(4) 0.1785(4)
C151 C 0.8049(7) 1.0971(4) 0.2024(4)
C152 C 0.7014(7) 1.0907(4) 0.1681(4)
C153 C 0.6208(6) 1.1344(4) 0.1796(4)
C154 C 0.6368(7) 1.1844(4) 0.2241(4)
C155 C 0.5659(7) 1.2395(4) 0.2216(4)
C156 C 0.5950(7) 1.3013(4) 0.2522(4)
C157 C 0.6940(7) 1.3085(4) 0.2886(4)
C158 C 0.7291(8) 1.3809(4) 0.3125(4)
C159 C 0.8558(8) 1.3936(4) 0.3397(4)
C160 C 0.9073(8) 1.4273(4) 0.2943(4)
C161 C 1.0111(7) 1.4242(4) 0.2847(4)
C162 C 1.0939(8) 1.3811(4) 0.3152(4)
C163 C 1.1472(7) 1.3536(4) 0.2673(4)
C164 C 1.1726(7) 1.2877(5) 0.2587(4)
C165 C 1.1612(7) 1.2349(4) 0.2990(4)
C166 C 1.1396(7) 1.1659(4) 0.2570(4)
C167 C 1.0244(7) 1.1358(4) 0.2449(4)
C168 C 0.9388(7) 1.1662(4) 0.2672(4)
C169 C 0.8256(7) 1.1483(4) 0.2454(4)
C170 C 0.7408(7) 1.1928(4) 0.2573(4)
C171 C 0.7658(7) 1.2558(4) 0.2904(4)
C172 C 0.8788(7) 1.2695(4) 0.3141(4)
C173 C 0.9161(8) 1.3266(5) 0.3538(4)
C174 C 1.0482(8) 1.3279(4) 0.3556(4)
C175 C 1.0674(7) 1.2485(4) 0.3346(4)
C176 C 0.9579(8) 1.2261(4) 0.3020(4)
loop_
_geom_bond_atom_site_label_1
_geom_bond_atom_site_label_2
_geom_bond_site_symmetry_1
_geom_bond_site_symmetry_2
Cl1 C5 1_555 1_555
Cl2 C20 1_555 1_555
Cl3 C38 1_555 1_555
Cl4 C41 1_555 1_555
Cl5 C54 1_555 1_555
Cl6 C59 1_555 1_555
Cl7 C64 1_555 1_555
Cl8 C71 1_555 1_555
Cl9 C75 1_555 1_555
Cl10 C78 1_555 1_555
Cl11 C80 1_555 1_555
Cl12 C87 1_555 1_555
C1 C2 1_555 1_555
C2 C3 1_555 1_555
C3 C4 1_555 1_555
C4 C5 1_555 1_555
C5 C6 1_555 1_555
C6 C1 1_555 1_555
C7 C6 1_555 1_555
C8 C7 1_555 1_555
C9 C8 1_555 1_555
C10 C1 1_555 1_555
C11 C10 1_555 1_555
C12 C11 1_555 1_555
C13 C2 1_555 1_555
C14 C13 1_555 1_555
C15 C14 1_555 1_555
C16 C3 1_555 1_555
C17 C16 1_555 1_555
C18 C17 1_555 1_555
C19 C4 1_555 1_555
C20 C19 1_555 1_555
C21 C20 1_555 1_555
C22 C5 1_555 1_555
C23 C7 1_555 1_555
C24 C23 1_555 1_555
C25 C24 1_555 1_555
C26 C8 1_555 1_555
C27 C26 1_555 1_555
C28 C9 1_555 1_555
C29 C28 1_555 1_555
C30 C11 1_555 1_555
C31 C30 1_555 1_555
C32 C31 1_555 1_555
C33 C12 1_555 1_555
C34 C14 1_555 1_555
C35 C34 1_555 1_555
C36 C35 1_555 1_555
C37 C15 1_555 1_555
C38 C17 1_555 1_555
C39 C38 1_555 1_555
C40 C39 1_555 1_555
C41 C18 1_555 1_555
C42 C41 1_555 1_555
C43 C20 1_555 1_555
C44 C43 1_555 1_555
C45 C21 1_555 1_555
C46 C24 1_555 1_555
C47 C46 1_555 1_555
C48 C25 1_555 1_555
C49 C48 1_555 1_555
C50 C27 1_555 1_555
C51 C50 1_555 1_555
C52 C29 1_555 1_555
C53 C52 1_555 1_555
C54 C31 1_555 1_555
C55 C54 1_555 1_555
C56 C32 1_555 1_555
C57 C35 1_555 1_555
C58 C57 1_555 1_555
C59 C36 1_555 1_555
C60 C39 1_555 1_555
C61 C60 1_555 1_555
C62 C61 1_555 1_555
C63 C40 1_555 1_555
C64 C63 1_555 1_555
C65 C42 1_555 1_555
C66 C65 1_555 1_555
C67 C44 1_555 1_555
C68 C47 1_555 1_555
C69 C68 1_555 1_555
C70 C49 1_555 1_555
C71 C70 1_555 1_555
C72 C51 1_555 1_555
C73 C72 1_555 1_555
C74 C53 1_555 1_555
C75 C74 1_555 1_555
C76 C55 1_555 1_555
C77 C58 1_555 1_555
C78 C61 1_555 1_555
C79 C78 1_555 1_555
C80 C62 1_555 1_555
C81 C80 1_555 1_555
C82 C64 1_555 1_555
C83 C66 1_555 1_555
C84 C69 1_555 1_555
C85 C71 1_555 1_555
C86 C81 1_555 1_555
C87 C73 1_555 1_555
C88 C75 1_555 1_555
Cl13 C95 1_555 1_555
Cl14 C98 1_555 1_555
Cl15 C101 1_555 1_555
Cl16 C104 1_555 1_555
Cl17 C107 1_555 1_555
Cl18 C109 1_555 1_555
Cl19 C113 1_555 1_555
Cl20 C116 1_555 1_555
Cl21 C121 1_555 1_555
Cl22 C124 1_555 1_555
Cl23 C129 1_555 1_555
Cl24 C131 1_555 1_555
Cl25 C135 1_555 1_555
Cl26 C148 1_555 1_555
Cl27 C158 1_555 1_555
Cl28 C159 1_555 1_555
Cl29 C162 1_555 1_555
Cl30 C165 1_555 1_555
Cl31 C166 1_555 1_555
Cl32 C173 1_555 1_555
Cl33 C174 1_555 1_555
Cl34 C175 1_555 1_555
C89 C90 1_555 1_555
C90 C91 1_555 1_555
C91 C92 1_555 1_555
C92 C93 1_555 1_555
C93 C94 1_555 1_555
C94 C89 1_555 1_555
C95 C94 1_555 1_555
C96 C95 1_555 1_555
C97 C96 1_555 1_555
C98 C89 1_555 1_555
C99 C98 1_555 1_555
C100 C99 1_555 1_555
C101 C90 1_555 1_555
C102 C101 1_555 1_555
C103 C102 1_555 1_555
C104 C91 1_555 1_555
C105 C104 1_555 1_555
C106 C105 1_555 1_555
C107 C92 1_555 1_555
C108 C107 1_555 1_555
C109 C93 1_555 1_555
C110 C109 1_555 1_555
C111 C95 1_555 1_555
C112 C111 1_555 1_555
C113 C96 1_555 1_555
C114 C113 1_555 1_555
C115 C114 1_555 1_555
C116 C97 1_555 1_555
C117 C99 1_555 1_555
C118 C117 1_555 1_555
C119 C118 1_555 1_555
C120 C100 1_555 1_555
C121 C102 1_555 1_555
C122 C121 1_555 1_555
C123 C122 1_555 1_555
C124 C103 1_555 1_555
C125 C105 1_555 1_555
C126 C125 1_555 1_555
C127 C126 1_555 1_555
C128 C106 1_555 1_555
C129 C128 1_555 1_555
C130 C108 1_555 1_555
C131 C130 1_555 1_555
C132 C110 1_555 1_555
C133 C132 1_555 1_555
C134 C112 1_555 1_555
C135 C134 1_555 1_555
C136 C114 1_555 1_555
C137 C136 1_555 1_555
C138 C137 1_555 1_555
C139 C115 1_555 1_555
C140 C118 1_555 1_555
C141 C140 1_555 1_555
C142 C141 1_555 1_555
C143 C119 1_555 1_555
C144 C122 1_555 1_555
C145 C144 1_555 1_555
C146 C145 1_555 1_555
C147 C123 1_555 1_555
C148 C126 1_555 1_555
C149 C148 1_555 1_555
C150 C127 1_555 1_555
C151 C150 1_555 1_555
C152 C129 1_555 1_555
C153 C131 1_555 1_555
C154 C153 1_555 1_555
C155 C133 1_555 1_555
C156 C135 1_555 1_555
C157 C156 1_555 1_555
C158 C137 1_555 1_555
C159 C158 1_555 1_555
C160 C138 1_555 1_555
C161 C141 1_555 1_555
C162 C161 1_555 1_555
C163 C142 1_555 1_555
C164 C145 1_555 1_555
C165 C164 1_555 1_555
C166 C146 1_555 1_555
C167 C149 1_555 1_555
C168 C167 1_555 1_555
C169 C151 1_555 1_555
C170 C154 1_555 1_555
C171 C157 1_555 1_555
C172 C171 1_555 1_555
C173 C159 1_555 1_555
C174 C162 1_555 1_555
C175 C165 1_555 1_555
C176 C168 1_555 1_555
C9 C10 1_555 1_555
C12 C13 1_555 1_555
C15 C16 1_555 1_555
C18 C19 1_555 1_555
C21 C22 1_555 1_555
C22 C23 1_555 1_555
C25 C26 1_555 1_555
C27 C28 1_555 1_555
C29 C30 1_555 1_555
C32 C33 1_555 1_555
C33 C34 1_555 1_555
C36 C37 1_555 1_555
C37 C38 1_555 1_555
C40 C41 1_555 1_555
C42 C43 1_555 1_555
C44 C45 1_555 1_555
C45 C46 1_555 1_555
C47 C48 1_555 1_555
C49 C50 1_555 1_555
C51 C52 1_555 1_555
C53 C54 1_555 1_555
C55 C56 1_555 1_555
C56 C57 1_555 1_555
C58 C59 1_555 1_555
C59 C60 1_555 1_555
C62 C63 1_555 1_555
C64 C65 1_555 1_555
C66 C67 1_555 1_555
C67 C68 1_555 1_555
C69 C70 1_555 1_555
C71 C72 1_555 1_555
C73 C74 1_555 1_555
C75 C76 1_555 1_555
C76 C77 1_555 1_555
C77 C78 1_555 1_555
C79 C80 1_555 1_555
C79 C88 1_555 1_555
C81 C82 1_555 1_555
C82 C83 1_555 1_555
C83 C84 1_555 1_555
C84 C85 1_555 1_555
C85 C86 1_555 1_555
C86 C87 1_555 1_555
C87 C88 1_555 1_555
C97 C98 1_555 1_555
C100 C101 1_555 1_555
C103 C104 1_555 1_555
C106 C107 1_555 1_555
C108 C109 1_555 1_555
C110 C111 1_555 1_555
C112 C113 1_555 1_555
C115 C116 1_555 1_555
C116 C117 1_555 1_555
C119 C120 1_555 1_555
C120 C121 1_555 1_555
C123 C124 1_555 1_555
C124 C125 1_555 1_555
C127 C128 1_555 1_555
C129 C130 1_555 1_555
C131 C132 1_555 1_555
C133 C134 1_555 1_555
C135 C136 1_555 1_555
C138 C139 1_555 1_555
C139 C140 1_555 1_555
C142 C143 1_555 1_555
C143 C144 1_555 1_555
C146 C147 1_555 1_555
C147 C148 1_555 1_555
C149 C150 1_555 1_555
C151 C152 1_555 1_555
C152 C153 1_555 1_555
C154 C155 1_555 1_555
C155 C156 1_555 1_555
C157 C158 1_555 1_555
C159 C160 1_555 1_555
C160 C161 1_555 1_555
C162 C163 1_555 1_555
C163 C164 1_555 1_555
C165 C166 1_555 1_555
C166 C167 1_555 1_555
C168 C169 1_555 1_555
C169 C170 1_555 1_555
C170 C171 1_555 1_555
C172 C173 1_555 1_555
C172 C176 1_555 1_555
C173 C174 1_555 1_555
C174 C175 1_555 1_555
C175 C176 1_555 1_555

#END
