
#######################################################################
#
#                 Cambridge Crystallographic Data Centre
#                                CCDC 
#
#######################################################################
#
# If this CIF has been generated from an entry in the Cambridge 
# Structural Database, then it will include bibliographic, chemical, 
# crystal, experimental, refinement or atomic coordinate data resulting 
# from the CCDC's data processing and validation procedures.
#
#######################################################################

data_XACXIL
_chemical_formula_moiety         'C88 Cl24'
_chemical_name_systematic        'tetracosachloro-C~2~-(isomer 7)-C88fullerene'
_symmetry_cell_setting           monoclinic
_symmetry_space_group_name_H-M   'P 21/n'
_symmetry_Int_Tables_number      14
_space_group_name_Hall           '-P 2yn'
loop_
_symmetry_equiv_pos_site_id
_symmetry_equiv_pos_as_xyz
1 x,y,z
2 1/2-x,1/2+y,1/2-z
3 -x,-y,-z
4 1/2+x,1/2-y,1/2+z
_cell_length_a                   14.2240(10)
_cell_length_b                   19.0240(10)
_cell_length_c                   23.105(2)
_cell_angle_alpha                90
_cell_angle_beta                 95.890(7)
_cell_angle_gamma                90
_cell_volume                     6219.15
_exptl_crystal_colour            orange
_exptl_crystal_description       plate
_cell_formula_units_Z            4
loop_
_atom_site_label
_atom_site_type_symbol
_atom_site_fract_x
_atom_site_fract_y
_atom_site_fract_z
Cl1 Cl 0.75268(5) 0.87516(3) 0.27378(3)
Cl2 Cl 0.81138(5) 0.72299(3) 0.29679(3)
Cl3 Cl 0.69641(5) 0.57690(3) 0.25316(3)
Cl4 Cl 0.87258(5) 0.52798(3) 0.19843(3)
Cl5 Cl 0.52814(5) 0.93109(3) 0.18895(3)
Cl6 Cl 0.56218(5) 0.79581(3) 0.26115(3)
Cl7 Cl 0.46321(5) 0.59966(3) 0.17256(3)
Cl8 Cl 0.61578(5) 0.49551(3) 0.14372(3)
Cl9 Cl 1.12714(5) 0.60415(4) -0.09660(3)
Cl10 Cl 1.16204(5) 0.83595(4) -0.11904(3)
Cl11 Cl 0.39533(5) 0.93112(3) 0.04559(3)
Cl12 Cl 0.37084(5) 0.82756(4) 0.14369(3)
Cl13 Cl 0.31835(5) 0.69452(4) 0.05734(3)
Cl14 Cl 0.41757(4) 0.55499(3) 0.04258(3)
Cl15 Cl 0.70401(5) 0.52463(3) -0.16147(3)
Cl16 Cl 0.91603(5) 0.52902(3) -0.14563(3)
Cl17 Cl 0.96648(5) 0.93863(4) -0.17712(3)
Cl18 Cl 0.75938(5) 0.97691(4) -0.18327(3)
Cl19 Cl 0.39680(5) 0.90977(3) -0.09056(3)
Cl20 Cl 0.35062(4) 0.66291(3) -0.08337(3)
Cl21 Cl 0.50456(4) 0.63877(3) -0.19580(3)
Cl22 Cl 0.72255(5) 0.64572(4) -0.24638(3)
Cl23 Cl 0.74636(5) 0.84111(4) -0.25620(3)
Cl24 Cl 0.53526(5) 0.88880(3) -0.20464(3)
C1 C 0.92543(19) 0.78848(14) 0.18035(11)
C2 C 0.86650(18) 0.72903(14) 0.19093(11)
C3 C 0.88331(18) 0.66452(14) 0.16699(11)
C4 C 0.96132(18) 0.65530(14) 0.13193(11)
C5 C 1.03146(19) 0.70704(14) 0.13612(11)
C6 C 1.01190(19) 0.77523(14) 0.15936(11)
C7 C 1.05992(19) 0.82691(15) 0.12689(12)
C8 C 1.0137(2) 0.88889(14) 0.11126(12)
C9 C 0.92109(19) 0.90130(14) 0.12893(11)
C10 C 0.87780(19) 0.85474(14) 0.16563(11)
C11 C 0.77704(19) 0.85864(13) 0.16492(11)
C12 C 0.73184(19) 0.81935(14) 0.21149(11)
C13 C 0.77835(19) 0.74170(13) 0.22103(11)
C14 C 0.70191(18) 0.69447(14) 0.19398(10)
C15 C 0.71285(19) 0.61695(14) 0.18493(11)
C16 C 0.81387(18) 0.60292(13) 0.16352(11)
C17 C 0.78978(19) 0.58930(13) 0.09968(11)
C18 C 0.85714(18) 0.58951(13) 0.05891(11)
C19 C 0.95006(19) 0.61308(13) 0.07871(11)
C20 C 1.01154(18) 0.62320(14) 0.03592(12)
C21 C 1.08614(19) 0.67444(15) 0.04228(12)
C22 C 1.09481(19) 0.71702(15) 0.09153(12)
C23 C 1.11219(19) 0.79040(15) 0.08550(12)
C24 C 1.11672(19) 0.81809(15) 0.02939(12)
C25 C 1.0650(2) 0.88149(15) 0.01297(12)
C26 C 1.0144(2) 0.91606(14) 0.05263(12)
C27 C 0.9225(2) 0.94169(14) 0.03357(12)
C28 C 0.8662(2) 0.93485(13) 0.08187(11)
C29 C 0.7701(2) 0.92530(14) 0.07270(12)
C30 C 0.72471(19) 0.89288(13) 0.11922(11)
C31 C 0.62521(19) 0.88133(13) 0.10852(11)
C32 C 0.56561(19) 0.85430(14) 0.15226(11)
C33 C 0.62167(19) 0.80398(14) 0.19594(11)
C34 C 0.62491(19) 0.73054(14) 0.17446(11)
C35 C 0.55313(19) 0.70394(14) 0.13349(11)
C36 C 0.54371(18) 0.62743(13) 0.12171(11)
C37 C 0.63861(19) 0.58730(13) 0.13360(11)
C38 C 0.69610(19) 0.58920(13) 0.08361(11)
C39 C 0.65911(18) 0.59624(13) 0.02435(11)
C40 C 0.72433(18) 0.59196(13) -0.01876(11)
C41 C 0.82496(18) 0.58394(13) -0.00141(11)
C42 C 0.89039(19) 0.59264(13) -0.04363(11)
C43 C 0.98172(19) 0.61282(14) -0.02410(11)
C44 C 1.04493(19) 0.65676(15) -0.06020(12)
C45 C 1.09749(19) 0.70262(15) -0.01422(12)
C46 C 1.11043(19) 0.77308(15) -0.02050(12)
C47 C 1.0702(2) 0.81354(15) -0.07391(12)
C48 C 1.0278(2) 0.87818(14) -0.04652(12)
C49 C 0.9404(2) 0.90697(14) -0.06594(12)
C50 C 0.8820(2) 0.93441(14) -0.02395(12)
C51 C 0.7790(2) 0.92832(14) -0.03445(12)
C52 C 0.7239(2) 0.92696(13) 0.01435(11)
C53 C 0.62648(19) 0.90850(13) 0.00617(11)
C54 C 0.57861(19) 0.88961(13) 0.05538(12)
C55 C 0.47977(19) 0.86027(14) 0.05038(11)
C56 C 0.47925(19) 0.82057(14) 0.11076(11)
C57 C 0.49263(18) 0.74386(14) 0.10029(11)
C58 C 0.44338(18) 0.70395(14) 0.05035(11)
C59 C 0.49588(18) 0.62783(14) 0.05679(11)
C60 C 0.56673(18) 0.62152(13) 0.01185(11)
C61 C 0.54111(18) 0.64661(13) -0.04319(11)
C62 C 0.60322(19) 0.64106(13) -0.08651(11)
C63 C 0.69196(19) 0.61175(14) -0.07669(11)
C64 C 0.74981(19) 0.60381(13) -0.12763(11)
C65 C 0.86078(19) 0.59912(14) -0.10864(11)
C66 C 0.8971(2) 0.66881(14) -0.12733(11)
C67 C 0.98188(19) 0.70030(15) -0.10318(11)
C68 C 0.9921(2) 0.77334(15) -0.10837(11)
C69 C 0.9172(2) 0.81173(14) -0.13624(11)
C70 C 0.9007(2) 0.88908(14) -0.12758(12)
C71 C 0.7889(2) 0.89800(14) -0.14275(12)
C72 C 0.7360(2) 0.90567(13) -0.08947(11)
C73 C 0.6402(2) 0.88793(14) -0.09532(11)
C74 C 0.5854(2) 0.89198(13) -0.04915(12)
C75 C 0.49297(18) 0.85271(13) -0.06019(11)
C76 C 0.46811(19) 0.81477(14) -0.00510(11)
C77 C 0.45587(18) 0.74434(14) -0.00549(11)
C78 C 0.46449(18) 0.70014(13) -0.05876(11)
C79 C 0.50822(18) 0.73691(14) -0.10763(11)
C80 C 0.57058(19) 0.68757(13) -0.13766(11)
C81 C 0.65647(19) 0.72140(14) -0.15895(11)
C82 C 0.7359(2) 0.67087(14) -0.16990(11)
C83 C 0.82765(19) 0.70731(14) -0.15791(11)
C84 C 0.8374(2) 0.77976(14) -0.16208(11)
C85 C 0.7562(2) 0.82752(15) -0.17774(12)
C86 C 0.66572(19) 0.79214(14) -0.16179(11)
C87 C 0.5922(2) 0.84126(14) -0.14247(11)
C88 C 0.51995(19) 0.80570(14) -0.10858(11)
loop_
_geom_bond_atom_site_label_1
_geom_bond_atom_site_label_2
_geom_bond_site_symmetry_1
_geom_bond_site_symmetry_2
Cl1 C12 1_555 1_555
Cl2 C13 1_555 1_555
Cl3 C15 1_555 1_555
Cl4 C16 1_555 1_555
Cl5 C32 1_555 1_555
Cl6 C33 1_555 1_555
Cl7 C36 1_555 1_555
Cl8 C37 1_555 1_555
Cl9 C44 1_555 1_555
Cl10 C47 1_555 1_555
Cl11 C55 1_555 1_555
Cl12 C56 1_555 1_555
Cl13 C58 1_555 1_555
Cl14 C59 1_555 1_555
Cl15 C64 1_555 1_555
Cl16 C65 1_555 1_555
Cl17 C70 1_555 1_555
Cl18 C71 1_555 1_555
Cl19 C75 1_555 1_555
Cl20 C78 1_555 1_555
Cl21 C80 1_555 1_555
Cl22 C82 1_555 1_555
Cl23 C85 1_555 1_555
Cl24 C87 1_555 1_555
C1 C2 1_555 1_555
C2 C3 1_555 1_555
C3 C4 1_555 1_555
C4 C5 1_555 1_555
C5 C6 1_555 1_555
C6 C1 1_555 1_555
C7 C6 1_555 1_555
C8 C7 1_555 1_555
C9 C8 1_555 1_555
C10 C1 1_555 1_555
C11 C10 1_555 1_555
C12 C11 1_555 1_555
C13 C2 1_555 1_555
C14 C13 1_555 1_555
C15 C14 1_555 1_555
C16 C3 1_555 1_555
C17 C16 1_555 1_555
C18 C17 1_555 1_555
C19 C4 1_555 1_555
C20 C19 1_555 1_555
C21 C20 1_555 1_555
C22 C5 1_555 1_555
C23 C7 1_555 1_555
C24 C23 1_555 1_555
C25 C24 1_555 1_555
C26 C8 1_555 1_555
C27 C26 1_555 1_555
C28 C9 1_555 1_555
C29 C28 1_555 1_555
C30 C11 1_555 1_555
C31 C30 1_555 1_555
C32 C31 1_555 1_555
C33 C12 1_555 1_555
C34 C14 1_555 1_555
C35 C34 1_555 1_555
C36 C35 1_555 1_555
C37 C15 1_555 1_555
C38 C17 1_555 1_555
C39 C38 1_555 1_555
C40 C39 1_555 1_555
C41 C18 1_555 1_555
C42 C41 1_555 1_555
C43 C20 1_555 1_555
C44 C43 1_555 1_555
C45 C21 1_555 1_555
C46 C24 1_555 1_555
C47 C46 1_555 1_555
C48 C25 1_555 1_555
C49 C48 1_555 1_555
C50 C27 1_555 1_555
C51 C50 1_555 1_555
C52 C29 1_555 1_555
C53 C52 1_555 1_555
C54 C31 1_555 1_555
C55 C54 1_555 1_555
C56 C32 1_555 1_555
C57 C35 1_555 1_555
C58 C57 1_555 1_555
C59 C36 1_555 1_555
C60 C39 1_555 1_555
C61 C60 1_555 1_555
C62 C61 1_555 1_555
C63 C40 1_555 1_555
C64 C63 1_555 1_555
C65 C42 1_555 1_555
C66 C65 1_555 1_555
C67 C44 1_555 1_555
C68 C47 1_555 1_555
C69 C68 1_555 1_555
C70 C49 1_555 1_555
C71 C70 1_555 1_555
C72 C51 1_555 1_555
C73 C72 1_555 1_555
C74 C53 1_555 1_555
C75 C74 1_555 1_555
C76 C55 1_555 1_555
C77 C58 1_555 1_555
C78 C61 1_555 1_555
C79 C78 1_555 1_555
C80 C62 1_555 1_555
C81 C80 1_555 1_555
C82 C64 1_555 1_555
C83 C66 1_555 1_555
C84 C69 1_555 1_555
C85 C71 1_555 1_555
C86 C81 1_555 1_555
C87 C73 1_555 1_555
C88 C75 1_555 1_555
C9 C10 1_555 1_555
C12 C13 1_555 1_555
C15 C16 1_555 1_555
C18 C19 1_555 1_555
C21 C22 1_555 1_555
C22 C23 1_555 1_555
C25 C26 1_555 1_555
C27 C28 1_555 1_555
C29 C30 1_555 1_555
C32 C33 1_555 1_555
C33 C34 1_555 1_555
C36 C37 1_555 1_555
C37 C38 1_555 1_555
C40 C41 1_555 1_555
C42 C43 1_555 1_555
C44 C45 1_555 1_555
C45 C46 1_555 1_555
C47 C48 1_555 1_555
C49 C50 1_555 1_555
C51 C52 1_555 1_555
C53 C54 1_555 1_555
C55 C56 1_555 1_555
C56 C57 1_555 1_555
C58 C59 1_555 1_555
C59 C60 1_555 1_555
C62 C63 1_555 1_555
C64 C65 1_555 1_555
C66 C67 1_555 1_555
C67 C68 1_555 1_555
C69 C70 1_555 1_555
C71 C72 1_555 1_555
C73 C74 1_555 1_555
C75 C76 1_555 1_555
C76 C77 1_555 1_555
C77 C78 1_555 1_555
C79 C80 1_555 1_555
C79 C88 1_555 1_555
C81 C82 1_555 1_555
C82 C83 1_555 1_555
C83 C84 1_555 1_555
C84 C85 1_555 1_555
C85 C86 1_555 1_555
C86 C87 1_555 1_555
C87 C88 1_555 1_555

#END
