
#######################################################################
#
#                 Cambridge Crystallographic Data Centre
#                                CCDC 
#
#######################################################################
#
# If this CIF has been generated from an entry in the Cambridge 
# Structural Database, then it will include bibliographic, chemical, 
# crystal, experimental, refinement or atomic coordinate data resulting 
# from the CCDC's data processing and validation procedures.
#
#######################################################################

data_XACYOR
_chemical_formula_moiety         'C30 H47 Cl1 N4 Si2'
_chemical_name_systematic        
1,3-Di-t-butyl-2-(1,3-di-t-butyl-2-chloro-4-phenyl-1,3,2-diazasiletidin-2-yl)-4-phenyl-1,2-dihydro-1\l^5^,3,2-diazasilete
_symmetry_cell_setting           monoclinic
_symmetry_space_group_name_H-M   'P 21/c'
_symmetry_Int_Tables_number      14
_space_group_name_Hall           '-P 2ybc'
loop_
_symmetry_equiv_pos_site_id
_symmetry_equiv_pos_as_xyz
1 x,y,z
2 -x,1/2+y,1/2-z
3 -x,-y,-z
4 x,1/2-y,1/2+z
_cell_length_a                   11.5240(4)
_cell_length_b                   16.2230(6)
_cell_length_c                   17.0161(6)
_cell_angle_alpha                90
_cell_angle_beta                 94.828(2)
_cell_angle_gamma                90
_cell_volume                     3169.94
_exptl_crystal_colour            colorless
_exptl_crystal_description       block
_chemical_melting_point          187.0deg.C
_cell_formula_units_Z            4
_chemical_properties_physical    'air- and moisture-sensitive'
loop_
_atom_site_label
_atom_site_type_symbol
_atom_site_fract_x
_atom_site_fract_y
_atom_site_fract_z
C1 C 0.14985(16) -0.01082(12) 0.29188(11)
C2 C 0.08992(17) 0.10654(13) 0.38004(11)
C3 C 0.1413(2) 0.07440(15) 0.46013(12)
H1 H 0.1221 0.0159 0.4651
H2 H 0.1086 0.1056 0.5024
H3 H 0.2261 0.0811 0.4642
C4 C -0.0412(2) 0.09073(17) 0.37046(15)
H4 H -0.0727 0.1088 0.3180
H5 H -0.0790 0.1216 0.4108
H6 H -0.0561 0.0317 0.3765
C5 C 0.1123(2) 0.19947(14) 0.37552(13)
H7 H 0.1964 0.2097 0.3794
H8 H 0.0778 0.2272 0.4191
H9 H 0.0771 0.2209 0.3252
C6 C 0.23361(18) -0.07664(13) 0.17138(12)
C7 C 0.2621(2) -0.03519(15) 0.09477(13)
H10 H 0.1905 -0.0129 0.0676
H11 H 0.2962 -0.0758 0.0608
H12 H 0.3177 0.0097 0.1067
C8 C 0.34434(19) -0.11255(15) 0.21391(14)
H13 H 0.3995 -0.0679 0.2281
H14 H 0.3797 -0.1517 0.1791
H15 H 0.3248 -0.1411 0.2618
C9 C 0.1445(2) -0.14559(15) 0.15355(16)
H16 H 0.1309 -0.1745 0.2025
H17 H 0.1744 -0.1846 0.1162
H18 H 0.0712 -0.1218 0.1306
C10 C 0.10425(17) -0.08408(13) 0.33226(11)
C11 C -0.00793(19) -0.11299(14) 0.30849(13)
H19 H -0.0553 -0.0844 0.2690
C12 C -0.0494(2) -0.18341(15) 0.34274(14)
H20 H -0.1254 -0.2029 0.3266
C13 C 0.0186(2) -0.22545(15) 0.40015(14)
H21 H -0.0102 -0.2740 0.4229
C14 C 0.1291(2) -0.19677(14) 0.42462(13)
H22 H 0.1755 -0.2254 0.4646
C15 C 0.17243(19) -0.12610(13) 0.39071(12)
H23 H 0.2483 -0.1067 0.4074
C16 C 0.57386(17) 0.13129(13) 0.20352(11)
H24 H 0.6129 0.1840 0.2211
C17 C 0.46363(18) 0.20233(13) 0.08195(11)
C18 C 0.3351(2) 0.21898(15) 0.05600(12)
H25 H 0.2942 0.1665 0.0465
H26 H 0.3293 0.2516 0.0074
H27 H 0.2995 0.2495 0.0975
C19 C 0.5265(2) 0.28444(15) 0.09912(14)
H28 H 0.4903 0.3135 0.1413
H29 H 0.5208 0.3184 0.0514
H30 H 0.6087 0.2739 0.1157
C20 C 0.5199(2) 0.15704(16) 0.01604(12)
H31 H 0.6036 0.1511 0.0304
H32 H 0.5075 0.1886 -0.0330
H33 H 0.4846 0.1023 0.0085
C21 C 0.56498(18) 0.08030(14) 0.34850(11)
C22 C 0.4639(2) 0.06594(17) 0.39999(13)
H34 H 0.4154 0.1156 0.3998
H35 H 0.4949 0.0537 0.4541
H36 H 0.4168 0.0194 0.3790
C23 C 0.6417(2) 0.00286(15) 0.34890(14)
H37 H 0.5956 -0.0435 0.3264
H38 H 0.6708 -0.0103 0.4032
H39 H 0.7076 0.0130 0.3174
C24 C 0.6387(2) 0.15348(15) 0.38096(13)
H40 H 0.7020 0.1635 0.3471
H41 H 0.6716 0.1409 0.4346
H42 H 0.5896 0.2027 0.3819
C25 C 0.66093(17) 0.07456(13) 0.16963(11)
C26 C 0.63014(19) -0.00459(14) 0.14382(13)
H43 H 0.5523 -0.0232 0.1461
C27 C 0.7123(2) -0.05649(16) 0.11484(13)
H44 H 0.6909 -0.1106 0.0980
C28 C 0.8258(2) -0.02915(18) 0.11046(13)
H45 H 0.8818 -0.0646 0.0903
C29 C 0.8574(2) 0.04924(18) 0.13516(14)
H46 H 0.9351 0.0678 0.1321
C30 C 0.77479(18) 0.10125(15) 0.16473(13)
H47 H 0.7966 0.1553 0.1816
Cl1 Cl 0.36824(5) 0.26395(4) 0.28299(4)
N1 N 0.15010(14) 0.06845(10) 0.31531(9)
N2 N 0.18937(14) -0.00997(10) 0.22015(9)
N3 N 0.51055(14) 0.09646(11) 0.26884(9)
N4 N 0.46571(14) 0.14960(11) 0.15230(9)
Si1 Si 0.18314(5) 0.10374(3) 0.21452(3)
Si2 Si 0.38247(5) 0.14353(3) 0.23245(3)
loop_
_geom_bond_atom_site_label_1
_geom_bond_atom_site_label_2
_geom_bond_site_symmetry_1
_geom_bond_site_symmetry_2
C1 C10 1_555 1_555
C2 C3 1_555 1_555
C3 H1 1_555 1_555
H2 C3 1_555 1_555
H3 C3 1_555 1_555
C4 C2 1_555 1_555
H4 C4 1_555 1_555
H5 C4 1_555 1_555
H6 C4 1_555 1_555
C5 C2 1_555 1_555
H7 C5 1_555 1_555
H8 C5 1_555 1_555
H9 C5 1_555 1_555
C6 C7 1_555 1_555
C7 H10 1_555 1_555
H11 C7 1_555 1_555
H12 C7 1_555 1_555
C8 C6 1_555 1_555
H13 C8 1_555 1_555
H14 C8 1_555 1_555
H15 C8 1_555 1_555
C9 C6 1_555 1_555
H16 C9 1_555 1_555
H17 C9 1_555 1_555
H18 C9 1_555 1_555
C10 C11 1_555 1_555
C11 H19 1_555 1_555
C12 C11 1_555 1_555
H20 C12 1_555 1_555
C13 C12 1_555 1_555
H21 C13 1_555 1_555
C14 C13 1_555 1_555
H22 C14 1_555 1_555
C15 C10 1_555 1_555
H23 C15 1_555 1_555
C16 H24 1_555 1_555
C17 C18 1_555 1_555
C18 H25 1_555 1_555
H26 C18 1_555 1_555
H27 C18 1_555 1_555
C19 C17 1_555 1_555
H28 C19 1_555 1_555
H29 C19 1_555 1_555
H30 C19 1_555 1_555
C20 C17 1_555 1_555
H31 C20 1_555 1_555
H32 C20 1_555 1_555
H33 C20 1_555 1_555
C21 C22 1_555 1_555
C22 H34 1_555 1_555
H35 C22 1_555 1_555
H36 C22 1_555 1_555
C23 C21 1_555 1_555
H37 C23 1_555 1_555
H38 C23 1_555 1_555
H39 C23 1_555 1_555
C24 C21 1_555 1_555
H40 C24 1_555 1_555
H41 C24 1_555 1_555
H42 C24 1_555 1_555
C25 C16 1_555 1_555
C26 C25 1_555 1_555
H43 C26 1_555 1_555
C27 C26 1_555 1_555
H44 C27 1_555 1_555
C28 C27 1_555 1_555
H45 C28 1_555 1_555
C29 C28 1_555 1_555
H46 C29 1_555 1_555
C30 C25 1_555 1_555
H47 C30 1_555 1_555
Cl1 Si2 1_555 1_555
N1 C1 1_555 1_555
N2 C1 1_555 1_555
N3 C16 1_555 1_555
N4 C16 1_555 1_555
Si1 N1 1_555 1_555
Si2 N3 1_555 1_555
C2 N1 1_555 1_555
C6 N2 1_555 1_555
C14 C15 1_555 1_555
C17 N4 1_555 1_555
C21 N3 1_555 1_555
C29 C30 1_555 1_555
N2 Si1 1_555 1_555
N4 Si2 1_555 1_555
Si1 Si2 1_555 1_555

#END
