
#######################################################################
#
#                 Cambridge Crystallographic Data Centre
#                                CCDC 
#
#######################################################################
#
# If this CIF has been generated from an entry in the Cambridge 
# Structural Database, then it will include bibliographic, chemical, 
# crystal, experimental, refinement or atomic coordinate data resulting 
# from the CCDC's data processing and validation procedures.
#
#######################################################################

data_XADPIC
_chemical_name_common            
syn-(1'S,2R)-(N-t-Butyloxycarbonyl)-2-(acetoxy)benzyl-1,3-thiazolidine
_chemical_formula_moiety         'C17 H23 N1 O4 S1'
_chemical_name_systematic        
"(1'S,2R)-t-Butyl 2-(1-acetoxy-1-phenylmethyl)thiazolidine-3-carboxylate"
_symmetry_cell_setting           orthorhombic
_symmetry_space_group_name_H-M   'P 21 21 21'
_symmetry_Int_Tables_number      19
_space_group_name_Hall           'P 2ac 2ab'
loop_
_symmetry_equiv_pos_site_id
_symmetry_equiv_pos_as_xyz
1 x,y,z
2 1/2+x,1/2-y,-z
3 -x,1/2+y,1/2-z
4 1/2-x,-y,1/2+z
_cell_length_a                   8.23(1)
_cell_length_b                   9.09(2)
_cell_length_c                   22.57(4)
_cell_angle_alpha                90
_cell_angle_beta                 90
_cell_angle_gamma                90
_cell_volume                     1688.48
_exptl_crystal_colour            colorless
_exptl_crystal_description       block
_chemical_melting_point          '88-89 deg.C'
_cell_formula_units_Z            4
_exptl_crystal_recrystallization_method hexane
loop_
_atom_site_label
_atom_site_type_symbol
_atom_site_fract_x
_atom_site_fract_y
_atom_site_fract_z
S1 S 0.6382(2) 0.6835(2) 0.02177(6)
O1 O 0.6523(5) 1.0113(4) 0.0092(1)
O2 O 0.4371(5) 1.1559(5) 0.0203(2)
O3 O 0.8326(5) 0.8005(4) -0.1438(1)
O4 O 0.7129(5) 0.5910(4) -0.1775(2)
N1 N 0.6313(6) 0.7039(5) -0.0933(2)
C1 C 0.6750(7) 0.7963(6) -0.0441(2)
C2 C 0.5742(8) 0.5251(6) -0.0205(3)
C3 C 0.5172(8) 0.5884(6) -0.0784(3)
C4 C 0.5760(8) 0.9377(6) -0.0400(2)
C5 C 0.5783(7) 1.0309(6) -0.0948(2)
C6 C 0.6803(7) 1.1495(6) -0.1009(3)
C7 C 0.6774(8) 1.2313(7) -0.1524(3)
C8 C 0.5762(8) 1.1921(8) -0.1975(3)
C9 C 0.4773(8) 1.0728(7) -0.1920(3)
C10 C 0.4769(8) 0.9948(7) -0.1403(3)
C11 C 0.5686(9) 1.1229(7) 0.0351(3)
C12 C 0.6674(8) 1.1924(7) 0.0822(2)
C13 C 0.7252(7) 0.6899(7) -0.1412(2)
C14 C 0.9514(7) 0.8079(7) -0.1908(2)
C15 C 1.0366(8) 0.9505(7) -0.1770(3)
C16 C 0.8712(8) 0.8150(7) -0.2501(2)
C17 C 1.0639(8) 0.6778(7) -0.1846(2)
H1 H 0.7870 0.8207 -0.0466
H2 H 0.6622 0.4592 -0.0267
H3 H 0.4886 0.4751 -0.0007
H4 H 0.4109 0.6277 -0.0742
H5 H 0.5171 0.5152 -0.1084
H6 H 0.4673 0.9135 -0.0298
H7 H 0.7519 1.1748 -0.0695
H8 H 0.7454 1.3151 -0.1563
H9 H 0.5740 1.2483 -0.2330
H10 H 0.4090 1.0434 -0.2237
H11 H 0.4061 0.9130 -0.1358
H12 H 0.6941 1.1214 0.1115
H13 H 0.7642 1.2305 0.0653
H14 H 0.6074 1.2701 0.0999
H15 H 1.0826 0.9473 -0.1384
H16 H 1.1200 0.9674 -0.2053
H17 H 0.9593 1.0278 -0.1790
H18 H 0.8046 0.9001 -0.2518
H19 H 0.9504 0.8192 -0.2806
H20 H 0.8061 0.7297 -0.2551
H21 H 1.0026 0.5896 -0.1874
H22 H 1.1430 0.6800 -0.2152
H23 H 1.1166 0.6817 -0.1472
loop_
_geom_bond_atom_site_label_1
_geom_bond_atom_site_label_2
_geom_bond_site_symmetry_1
_geom_bond_site_symmetry_2
S1 C1 1_555 1_555
O1 C4 1_555 1_555
O2 C11 1_555 1_555
O3 C13 1_555 1_555
O4 C13 1_555 1_555
N1 C1 1_555 1_555
C1 C4 1_555 1_555
C2 S1 1_555 1_555
C3 N1 1_555 1_555
C4 C5 1_555 1_555
C5 C6 1_555 1_555
C6 C7 1_555 1_555
C7 C8 1_555 1_555
C8 C9 1_555 1_555
C9 C10 1_555 1_555
C10 C5 1_555 1_555
C11 O1 1_555 1_555
C12 C11 1_555 1_555
C13 N1 1_555 1_555
C14 O3 1_555 1_555
C15 C14 1_555 1_555
C16 C14 1_555 1_555
C17 C14 1_555 1_555
H1 C1 1_555 1_555
H2 C2 1_555 1_555
H3 C2 1_555 1_555
H4 C3 1_555 1_555
H5 C3 1_555 1_555
H6 C4 1_555 1_555
H7 C6 1_555 1_555
H8 C7 1_555 1_555
H9 C8 1_555 1_555
H10 C9 1_555 1_555
H11 C10 1_555 1_555
H12 C12 1_555 1_555
H13 C12 1_555 1_555
H14 C12 1_555 1_555
H15 C15 1_555 1_555
H16 C15 1_555 1_555
H17 C15 1_555 1_555
H18 C16 1_555 1_555
H19 C16 1_555 1_555
H20 C16 1_555 1_555
H21 C17 1_555 1_555
H22 C17 1_555 1_555
H23 C17 1_555 1_555
C2 C3 1_555 1_555

#END
