
#######################################################################
#
#                 Cambridge Crystallographic Data Centre
#                                CCDC 
#
#######################################################################
#
# If this CIF has been generated from an entry in the Cambridge 
# Structural Database, then it will include bibliographic, chemical, 
# crystal, experimental, refinement or atomic coordinate data resulting 
# from the CCDC's data processing and validation procedures.
#
#######################################################################

data_XAFHET
_chemical_formula_moiety         'C22 H20 N2 O2,H2 O1'
_chemical_name_systematic        
'10-((Phenylimino)methyl)-2,3,6,7-tetrahydro-1H,5H,11H-pyrano[2,3-f]pyrido[3,2,1-ij]quinolin-11-one monohydrate'
_symmetry_cell_setting           monoclinic
_symmetry_space_group_name_H-M   'C c'
_symmetry_Int_Tables_number      9
_space_group_name_Hall           'C -2yc'
loop_
_symmetry_equiv_pos_site_id
_symmetry_equiv_pos_as_xyz
1 x,y,z
2 x,-y,1/2+z
3 1/2+x,1/2+y,z
4 1/2+x,1/2-y,1/2+z
_cell_length_a                   28.146(6)
_cell_length_b                   18.342(4)
_cell_length_c                   7.3994(15)
_cell_angle_alpha                90
_cell_angle_beta                 104.32(3)
_cell_angle_gamma                90
_cell_volume                     3701.28
_exptl_crystal_colour            red
_exptl_crystal_description       plate
_cell_formula_units_Z            8
loop_
_atom_site_label
_atom_site_type_symbol
_atom_site_fract_x
_atom_site_fract_y
_atom_site_fract_z
C1 C 0.2537(3) 0.3837(6) 0.8868(12)
C2 C 0.2483(4) 0.4464(6) 0.9855(11)
H1 H 0.2758 0.4733 1.0445
C3 C 0.2019(5) 0.4689(5) 0.9960(13)
H2 H 0.1983 0.5108 1.0620
C4 C 0.1608(4) 0.4287(7) 0.9077(16)
H3 H 0.1298 0.4437 0.9147
C5 C 0.1662(4) 0.3660(6) 0.8090(15)
H4 H 0.1387 0.3391 0.7500
C6 C 0.2126(5) 0.3435(5) 0.7985(12)
H5 H 0.2162 0.3016 0.7325
C7 C 0.3116(6) 0.2943(9) 0.8932(16)
H6 H 0.2879 0.2613 0.9097
C8 C 0.3597(4) 0.2659(6) 0.8777(12)
C9 C 0.3644(5) 0.1875(6) 0.8778(15)
C10 C 0.4493(4) 0.2010(7) 0.8638(14)
C11 C 0.4455(4) 0.2779(7) 0.8583(13)
C12 C 0.3990(5) 0.3087(7) 0.8653(14)
H7 H 0.3953 0.3591 0.8613
C13 C 0.4856(6) 0.3158(8) 0.8453(18)
H8 H 0.4835 0.3664 0.8452
C14 C 0.5283(6) 0.2862(8) 0.8324(16)
C15 C 0.5724(6) 0.3281(8) 0.8173(17)
H9 H 0.5694 0.3410 0.6878
H10 H 0.5742 0.3729 0.8883
C16 C 0.6176(7) 0.2857(9) 0.887(2)
H11 H 0.6229 0.2798 1.0210
H12 H 0.6450 0.3134 0.8652
C17 C 0.6175(6) 0.2115(10) 0.800(2)
H13 H 0.6158 0.2163 0.6682
H14 H 0.6473 0.1855 0.8588
C18 C 0.5752(7) 0.0922(9) 0.802(2)
H15 H 0.5767 0.0818 0.6751
H16 H 0.6049 0.0729 0.8843
C19 C 0.5347(10) 0.0549(14) 0.838(3)
H17 H 0.5247 0.0205 0.7359
H18 H 0.5481 0.0257 0.9482
C20 C 0.4934(7) 0.0817(9) 0.863(2)
H19 H 0.4899 0.0675 0.9858
H20 H 0.4660 0.0612 0.7711
C21 C 0.4918(6) 0.1624(9) 0.8483(19)
C22 C 0.5322(7) 0.2040(9) 0.8351(16)
N1 N 0.3011(5) 0.3625(9) 0.8847(16)
N2 N 0.5749(5) 0.1718(7) 0.8262(16)
O2 O 0.4099(4) 0.1589(5) 0.8716(11)
O3 O 0.3311(5) 0.1469(6) 0.8817(14)
C23 C 0.6246(3) 0.6134(6) 0.8197(12)
C24 C 0.6304(4) 0.5537(6) 0.7116(11)
H21 H 0.6031 0.5278 0.6468
C25 C 0.6770(5) 0.5327(5) 0.7004(13)
H22 H 0.6809 0.4927 0.6280
C26 C 0.7179(3) 0.5714(7) 0.7972(16)
H23 H 0.7491 0.5574 0.7897
C27 C 0.7121(3) 0.6312(6) 0.9053(14)
H24 H 0.7394 0.6571 0.9701
C28 C 0.6655(4) 0.6522(5) 0.9166(12)
H25 H 0.6616 0.6922 0.9889
C29 C 0.5657(5) 0.7030(10) 0.8180(17)
H26 H 0.5907 0.7346 0.8082
C30 C 0.5201(3) 0.7355(6) 0.8271(11)
C31 C 0.5165(3) 0.8111(6) 0.8268(10)
O1 O 0.4730(3) 0.8441(4) 0.8396(11)
C32 C 0.4331(3) 0.8016(5) 0.8527(11)
C33 C 0.4367(3) 0.7260(5) 0.8529(12)
C34 C 0.4802(4) 0.6930(4) 0.8402(12)
H27 H 0.4827 0.6424 0.8403
C35 C 0.3941(6) 0.6857(10) 0.8646(18)
H28 H 0.3953 0.6350 0.8660
C36 C 0.3511(6) 0.7202(9) 0.8738(16)
C37 C 0.3076(6) 0.6746(10) 0.890(2)
H29 H 0.3120 0.6597 1.0190
H30 H 0.3065 0.6309 0.8154
C38 C 0.2588(7) 0.7155(10) 0.826(2)
H31 H 0.2497 0.7202 0.6915
H32 H 0.2330 0.6893 0.8645
C39 C 0.2660(6) 0.7882(11) 0.915(2)
H33 H 0.2360 0.8160 0.8726
H34 H 0.2717 0.7821 1.0487
C40 C 0.3045(8) 0.9050(11) 0.900(2)
H35 H 0.3162 0.9165 1.0313
H36 H 0.2706 0.9206 0.8602
C41 C 0.3332(5) 0.9454(7) 0.7957(16)
H37 H 0.3322 0.9970 0.8235
H38 H 0.3193 0.9388 0.6630
C42 C 0.3887(6) 0.9178(8) 0.849(2)
H39 H 0.4054 0.9361 0.7587
H40 H 0.4052 0.9369 0.9706
C43 C 0.3912(6) 0.8361(8) 0.8534(18)
C44 C 0.3498(5) 0.7943(9) 0.8694(16)
N3 N 0.5751(5) 0.6362(7) 0.8218(15)
N4 N 0.3066(5) 0.8307(8) 0.8769(15)
O4 O 0.5473(4) 0.8587(6) 0.8231(15)
O5 O 0.3601(5) 0.4850(6) 0.8598(19)
O6 O 0.5067(6) 0.5086(7) 0.705(2)
loop_
_geom_bond_atom_site_label_1
_geom_bond_atom_site_label_2
_geom_bond_site_symmetry_1
_geom_bond_site_symmetry_2
C1 C2 1_555 1_555
C2 H1 1_555 1_555
C3 C2 1_555 1_555
H2 C3 1_555 1_555
C4 C3 1_555 1_555
H3 C4 1_555 1_555
C5 C4 1_555 1_555
H4 C5 1_555 1_555
C6 C1 1_555 1_555
H5 C6 1_555 1_555
C7 H6 1_555 1_555
C8 C7 1_555 1_555
C9 C8 1_555 1_555
C10 C11 1_555 1_555
C11 C12 1_555 1_555
C12 C8 1_555 1_555
H7 C12 1_555 1_555
C13 C11 1_555 1_555
H8 C13 1_555 1_555
C14 C13 1_555 1_555
C15 C14 1_555 1_555
H9 C15 1_555 1_555
H10 C15 1_555 1_555
C16 C15 1_555 1_555
H11 C16 1_555 1_555
H12 C16 1_555 1_555
C17 C16 1_555 1_555
H13 C17 1_555 1_555
H14 C17 1_555 1_555
C18 H15 1_555 1_555
H16 C18 1_555 1_555
C19 C18 1_555 1_555
H17 C19 1_555 1_555
H18 C19 1_555 1_555
C20 C19 1_555 1_555
H19 C20 1_555 1_555
H20 C20 1_555 1_555
C21 C10 1_555 1_555
C22 C14 1_555 1_555
C23 C24 1_555 1_555
C24 H21 1_555 1_555
C25 C24 1_555 1_555
H22 C25 1_555 1_555
C26 C25 1_555 1_555
H23 C26 1_555 1_555
C27 C26 1_555 1_555
H24 C27 1_555 1_555
C28 C23 1_555 1_555
H25 C28 1_555 1_555
C29 H26 1_555 1_555
C30 C29 1_555 1_555
C31 C30 1_555 1_555
O1 C31 1_555 1_555
C32 O1 1_555 1_555
C33 C32 1_555 1_555
C34 C30 1_555 1_555
H27 C34 1_555 1_555
C35 C33 1_555 1_555
H28 C35 1_555 1_555
C36 C35 1_555 1_555
C37 C36 1_555 1_555
H29 C37 1_555 1_555
H30 C37 1_555 1_555
C38 C37 1_555 1_555
H31 C38 1_555 1_555
H32 C38 1_555 1_555
C39 C38 1_555 1_555
H33 C39 1_555 1_555
H34 C39 1_555 1_555
C40 H35 1_555 1_555
H36 C40 1_555 1_555
C41 C40 1_555 1_555
H37 C41 1_555 1_555
H38 C41 1_555 1_555
C42 C41 1_555 1_555
H39 C42 1_555 1_555
H40 C42 1_555 1_555
C43 C32 1_555 1_555
C44 C36 1_555 1_555
N1 C1 1_555 1_555
N2 C17 1_555 1_555
N3 C23 1_555 1_555
N4 C39 1_555 1_555
O2 C9 1_555 1_555
O3 C9 1_555 1_555
O4 C31 1_555 1_555
C5 C6 1_555 1_555
C7 N1 1_555 1_555
C10 O2 1_555 1_555
C18 N2 1_555 1_555
C20 C21 1_555 1_555
C21 C22 1_555 1_555
C22 N2 1_555 1_555
C27 C28 1_555 1_555
C29 N3 1_555 1_555
C33 C34 1_555 1_555
C40 N4 1_555 1_555
C42 C43 1_555 1_555
C43 C44 1_555 1_555
C44 N4 1_555 1_555

#END
