
#######################################################################
#
#                 Cambridge Crystallographic Data Centre
#                                CCDC 
#
#######################################################################
#
# If this CIF has been generated from an entry in the Cambridge 
# Structural Database, then it will include bibliographic, chemical, 
# crystal, experimental, refinement or atomic coordinate data resulting 
# from the CCDC's data processing and validation procedures.
#
#######################################################################

data_XAFHAP
_chemical_formula_moiety         'C22 H18 N2 O2 S1,0.5(C2 H3 N1)'
_chemical_name_systematic        
'10-(1,3-benzothiazol-2-yl)-2,3,6,7-tetrahydro-1H,5H,11H-pyrano[2,3-f]pyrido[3,2,1-ij]quinolin-11-one acetonitrile solvate'
_symmetry_cell_setting           triclinic
_symmetry_space_group_name_H-M   'P 1'
_symmetry_Int_Tables_number      1
_space_group_name_Hall           'P 1'
loop_
_symmetry_equiv_pos_site_id
_symmetry_equiv_pos_as_xyz
1 x,y,z
_cell_length_a                   8.028(2)
_cell_length_b                   13.869(4)
_cell_length_c                   17.479(5)
_cell_angle_alpha                79.692(10)
_cell_angle_beta                 80.891(11)
_cell_angle_gamma                89.210(11)
_cell_volume                     1890.35
_exptl_crystal_colour            red
_exptl_crystal_description       plate
_cell_formula_units_Z            4
loop_
_atom_site_label
_atom_site_type_symbol
_atom_site_fract_x
_atom_site_fract_y
_atom_site_fract_z
S1 S 1.0588(4) -0.2729(2) 0.11405(18)
N1 N 0.9307(12) -0.2254(7) 0.2482(6)
N2 N 0.5444(12) 0.3123(8) 0.0503(7)
O1 O 0.8518(9) 0.0230(5) 0.0249(5)
O2 O 1.0028(11) -0.1056(6) 0.0097(5)
C1 C 1.0670(15) -0.3580(8) 0.1989(8)
C2 C 1.1345(16) -0.4536(9) 0.2067(8)
H1 H 1.1894 -0.4770 0.1629
C3 C 1.1180(17) -0.5092(9) 0.2779(8)
H2 H 1.1489 -0.5746 0.2824
C4 C 1.0542(14) -0.4716(8) 0.3476(8)
H3 H 1.0572 -0.5086 0.3973
C5 C 0.9854(13) -0.3748(9) 0.3385(7)
H4 H 0.9370 -0.3502 0.3829
C6 C 0.9902(13) -0.3185(8) 0.2657(6)
C7 C 0.9517(15) -0.1903(8) 0.1722(7)
C8 C 0.8908(15) -0.0995(9) 0.1388(7)
C9 C 0.9282(15) -0.0652(8) 0.0522(7)
C10 C 0.7533(16) 0.0800(9) 0.0711(8)
C11 C 0.7276(13) 0.0503(9) 0.1521(7)
C12 C 0.8010(14) -0.0433(7) 0.1842(7)
H5 H 0.7841 -0.0642 0.2384
C13 C 0.6295(14) 0.1117(8) 0.2003(7)
H6 H 0.6085 0.0926 0.2548
C14 C 0.5691(15) 0.1961(9) 0.1666(7)
C15 C 0.4708(16) 0.2630(9) 0.2164(8)
H7 H 0.3509 0.2509 0.2201
H8 H 0.4991 0.2494 0.2691
C16 C 0.5121(18) 0.3686(8) 0.1802(8)
H9 H 0.4436 0.4112 0.2104
H10 H 0.6299 0.3825 0.1809
C17 C 0.4789(18) 0.3866(10) 0.0994(10)
H11 H 0.5276 0.4500 0.0736
H12 H 0.3578 0.3907 0.1007
C18 C 0.5694(19) 0.3450(10) -0.0324(10)
H13 H 0.6688 0.3873 -0.0469
H14 H 0.4736 0.3841 -0.0458
C19 C 0.5907(16) 0.2648(10) -0.0805(8)
H15 H 0.6225 0.2930 -0.1357
H16 H 0.4847 0.2293 -0.0743
C20 C 0.7296(17) 0.1929(8) -0.0532(7)
H17 H 0.7268 0.1343 -0.0762
H18 H 0.8400 0.2238 -0.0709
C21 C 0.6989(15) 0.1660(9) 0.0350(7)
C22 C 0.6051(14) 0.2206(9) 0.0843(8)
S2 S 0.0113(4) 0.8087(2) 0.60940(18)
N3 N 0.0585(13) 0.7056(7) 0.7429(5)
N4 N 0.5732(13) 0.2600(7) 0.5323(6)
O3 O 0.2767(11) 0.5569(5) 0.5172(4)
O4 O 0.1263(11) 0.6948(6) 0.5024(5)
C23 C -0.0552(14) 0.8593(9) 0.6958(7)
C24 C -0.1251(16) 0.9472(9) 0.7037(8)
H19 H -0.1490 0.9921 0.6607
C25 C -0.1580(16) 0.9653(10) 0.7781(9)
H20 H -0.2027 1.0258 0.7855
C26 C -0.1293(16) 0.9000(9) 0.8434(7)
H21 H -0.1598 0.9154 0.8933
C27 C -0.0584(17) 0.8154(10) 0.8352(7)
H22 H -0.0371 0.7721 0.8796
C28 C -0.0139(14) 0.7892(7) 0.7595(6)
C29 C 0.0804(14) 0.7043(8) 0.6666(7)
C30 C 0.1645(14) 0.6221(8) 0.6335(7)
C31 C 0.1895(15) 0.6313(9) 0.5458(6)
C32 C 0.3429(15) 0.4806(8) 0.5605(7)
C33 C 0.3171(14) 0.4705(8) 0.6432(7)
C34 C 0.2324(15) 0.5483(9) 0.6754(7)
H23 H 0.2246 0.5468 0.7292
C35 C 0.3907(14) 0.3905(8) 0.6881(7)
H24 H 0.3810 0.3861 0.7423
C36 C 0.4779(13) 0.3177(8) 0.6521(7)
C37 C 0.5442(15) 0.2332(8) 0.6966(7)
H25 H 0.4801 0.2196 0.7493
H26 H 0.6606 0.2459 0.7009
C38 C 0.5351(14) 0.1421(8) 0.6560(7)
H27 H 0.5913 0.0870 0.6831
H28 H 0.4185 0.1236 0.6575
C39 C 0.6190(16) 0.1696(9) 0.5745(9)
H29 H 0.7398 0.1713 0.5745
H30 H 0.5964 0.1183 0.5461
C40 C 0.6097(16) 0.2686(9) 0.4471(8)
H31 H 0.5229 0.2338 0.4298
H32 H 0.7166 0.2377 0.4332
C41 C 0.6183(16) 0.3702(9) 0.4059(7)
H33 H 0.6317 0.3717 0.3495
H34 H 0.7152 0.4031 0.4169
C42 C 0.4557(17) 0.4239(9) 0.4327(7)
H35 H 0.4671 0.4930 0.4098
H36 H 0.3607 0.3972 0.4148
C43 C 0.4250(15) 0.4112(9) 0.5217(8)
C44 C 0.4920(13) 0.3323(8) 0.5676(8)
S3 S 0.0040(4) 0.3006(2) 0.14436(18)
N5 N 0.1319(13) 0.2563(7) 0.0092(6)
N6 N 0.5094(14) -0.2847(7) 0.2093(7)
O5 O 0.2045(10) 0.0078(6) 0.2319(4)
O6 O 0.0476(10) 0.1371(7) 0.2525(5)
C45 C -0.0015(15) 0.3877(9) 0.0600(7)
C46 C -0.0573(13) 0.4807(8) 0.0527(7)
H37 H -0.0963 0.5082 0.0969
C47 C -0.0546(15) 0.5346(9) -0.0238(9)
H38 H -0.1055 0.5955 -0.0309
C48 C 0.0234(17) 0.4974(11) -0.0881(8)
H39 H 0.0390 0.5375 -0.1374
C49 C 0.0758(16) 0.4071(9) -0.0813(7)
H40 H 0.1178 0.3805 -0.1256
C50 C 0.0670(14) 0.3508(8) -0.0048(8)
C51 C 0.1048(13) 0.2251(9) 0.0837(7)
C52 C 0.1675(14) 0.1249(8) 0.1180(7)
C53 C 0.1392(14) 0.0960(9) 0.1988(7)
C54 C 0.3014(13) -0.0477(8) 0.1837(7)
C55 C 0.3277(14) -0.0171(7) 0.1014(6)
C56 C 0.2674(13) 0.0691(9) 0.0720(7)
H41 H 0.2938 0.0925 0.0182
C57 C 0.4239(15) -0.0767(9) 0.0599(7)
H42 H 0.4480 -0.0574 0.0055
C58 C 0.4892(14) -0.1650(8) 0.0930(7)
C59 C 0.5888(18) -0.2310(9) 0.0443(9)
H43 H 0.7085 -0.2182 0.0409
H44 H 0.5613 -0.2184 -0.0086
C60 C 0.5481(12) -0.3361(9) 0.0815(8)
H45 H 0.6159 -0.3792 0.0514
H46 H 0.4302 -0.3502 0.0814
C61 C 0.5849(17) -0.3545(9) 0.1666(9)
H47 H 0.5432 -0.4193 0.1928
H48 H 0.7059 -0.3528 0.1658
C62 C 0.4878(18) -0.3193(10) 0.2947(7)
H49 H 0.5829 -0.3590 0.3083
H50 H 0.3857 -0.3591 0.3120
C63 C 0.4763(17) -0.2304(10) 0.3348(8)
H51 H 0.4541 -0.2522 0.3914
H52 H 0.5840 -0.1957 0.3220
C64 C 0.3422(14) -0.1619(9) 0.3112(6)
H53 H 0.3472 -0.1034 0.3341
H54 H 0.2323 -0.1928 0.3304
C65 C 0.3673(15) -0.1343(9) 0.2221(7)
C66 C 0.4562(13) -0.1987(7) 0.1760(7)
S4 S 1.0520(4) 0.2199(2) 0.64805(18)
N7 N 1.0054(12) 0.3277(6) 0.5151(6)
N8 N 0.4870(12) 0.7689(7) 0.7277(7)
O7 O 0.7922(10) 0.4705(6) 0.7418(5)
O8 O 0.9251(12) 0.3342(6) 0.7580(5)
C67 C 1.1129(14) 0.1751(9) 0.5646(7)
C68 C 1.1884(15) 0.0835(8) 0.5570(8)
H55 H 1.2069 0.0395 0.6015
C69 C 1.2356(16) 0.0594(9) 0.4809(7)
H56 H 1.2916 0.0015 0.4747
C70 C 1.1963(18) 0.1242(10) 0.4159(8)
H57 H 1.2209 0.1072 0.3663
C71 C 1.1194(15) 0.2157(9) 0.4234(7)
H58 H 1.0938 0.2586 0.3797
C72 C 1.0836(13) 0.2389(9) 0.4988(8)
C73 C 0.9840(15) 0.3260(9) 0.5896(8)
C74 C 0.9001(16) 0.4019(9) 0.6265(8)
C75 C 0.8840(14) 0.3989(7) 0.7068(8)
C76 C 0.7219(13) 0.5507(8) 0.6940(7)
C77 C 0.7421(16) 0.5550(9) 0.6129(8)
C78 C 0.8323(14) 0.4836(8) 0.5791(8)
H59 H 0.8493 0.4886 0.5246
C79 C 0.6773(12) 0.6394(9) 0.5721(7)
H60 H 0.6928 0.6491 0.5174
C80 C 0.5958(15) 0.7053(8) 0.6076(7)
C81 C 0.5187(13) 0.7985(9) 0.5578(8)
H61 H 0.5792 0.8116 0.5044
H62 H 0.4008 0.7865 0.5559
C82 C 0.5355(17) 0.8822(8) 0.5966(7)
H63 H 0.4923 0.9400 0.5665
H64 H 0.6542 0.8940 0.5970
C83 C 0.4380(13) 0.8659(7) 0.6843(7)
H65 H 0.4669 0.9182 0.7103
H66 H 0.3172 0.8668 0.6842
C84 C 0.4522(18) 0.7599(9) 0.8137(7)
H67 H 0.3421 0.7865 0.8290
H68 H 0.5357 0.7976 0.8308
C85 C 0.4566(17) 0.6540(9) 0.8535(8)
H69 H 0.4517 0.6509 0.9097
H70 H 0.3582 0.6195 0.8455
C86 C 0.6102(17) 0.6050(9) 0.8225(7)
H71 H 0.6028 0.5360 0.8458
H72 H 0.7074 0.6329 0.8378
C87 C 0.6348(15) 0.6155(8) 0.7352(7)
C88 C 0.5676(14) 0.7010(9) 0.6900(7)
N9 N 0.418(2) 0.0169(12) 0.8510(9)
C89 C 0.151(2) 0.1107(15) 0.8564(9)
H73 H 0.1152 0.1239 0.9085
H74 H 0.0646 0.0741 0.8416
H75 H 0.1720 0.1715 0.8200
C90 C 0.295(3) 0.0580(12) 0.8550(8)
N10 N 0.641(2) 1.0075(13) 0.4009(9)
C91 C 0.9300(17) 0.9166(11) 0.4017(9)
H76 H 0.9307 0.8670 0.3697
H77 H 0.9442 0.8867 0.4541
H78 H 1.0206 0.9626 0.3796
C92 C 0.7623(19) 0.9699(9) 0.4041(8)
loop_
_geom_bond_atom_site_label_1
_geom_bond_atom_site_label_2
_geom_bond_site_symmetry_1
_geom_bond_site_symmetry_2
S1 C1 1_555 1_555
S2 C23 1_555 1_555
S3 C45 1_555 1_555
S4 C67 1_555 1_555
N1 C6 1_555 1_555
N2 C17 1_555 1_555
N3 C28 1_555 1_555
N4 C39 1_555 1_555
N5 C50 1_555 1_555
N6 C61 1_555 1_555
N7 C72 1_555 1_555
N8 C83 1_555 1_555
O1 C9 1_555 1_555
O2 C9 1_555 1_555
O3 C31 1_555 1_555
O4 C31 1_555 1_555
O5 C53 1_555 1_555
O6 C53 1_555 1_555
O7 C75 1_555 1_555
O8 C75 1_555 1_555
C1 C2 1_555 1_555
C2 H1 1_555 1_555
C3 C2 1_555 1_555
H2 C3 1_555 1_555
C4 C3 1_555 1_555
H3 C4 1_555 1_555
C5 C4 1_555 1_555
H4 C5 1_555 1_555
C6 C1 1_555 1_555
C7 S1 1_555 1_555
C8 C7 1_555 1_555
C9 C8 1_555 1_555
C10 O1 1_555 1_555
C11 C10 1_555 1_555
C12 C8 1_555 1_555
H5 C12 1_555 1_555
C13 C11 1_555 1_555
H6 C13 1_555 1_555
C14 C13 1_555 1_555
C15 C14 1_555 1_555
H7 C15 1_555 1_555
H8 C15 1_555 1_555
C16 C15 1_555 1_555
H9 C16 1_555 1_555
H10 C16 1_555 1_555
C17 C16 1_555 1_555
H11 C17 1_555 1_555
H12 C17 1_555 1_555
C18 N2 1_555 1_555
H13 C18 1_555 1_555
H14 C18 1_555 1_555
C19 C18 1_555 1_555
H15 C19 1_555 1_555
H16 C19 1_555 1_555
C20 C19 1_555 1_555
H17 C20 1_555 1_555
H18 C20 1_555 1_555
C21 C10 1_555 1_555
C22 N2 1_555 1_555
C23 C24 1_555 1_555
C24 H19 1_555 1_555
C25 C24 1_555 1_555
H20 C25 1_555 1_555
C26 C25 1_555 1_555
H21 C26 1_555 1_555
C27 C26 1_555 1_555
H22 C27 1_555 1_555
C28 C23 1_555 1_555
C29 S2 1_555 1_555
C30 C29 1_555 1_555
C31 C30 1_555 1_555
C32 O3 1_555 1_555
C33 C32 1_555 1_555
C34 C30 1_555 1_555
H23 C34 1_555 1_555
C35 C33 1_555 1_555
H24 C35 1_555 1_555
C36 C35 1_555 1_555
C37 C36 1_555 1_555
H25 C37 1_555 1_555
H26 C37 1_555 1_555
C38 C37 1_555 1_555
H27 C38 1_555 1_555
H28 C38 1_555 1_555
C39 C38 1_555 1_555
H29 C39 1_555 1_555
H30 C39 1_555 1_555
C40 N4 1_555 1_555
H31 C40 1_555 1_555
H32 C40 1_555 1_555
C41 C40 1_555 1_555
H33 C41 1_555 1_555
H34 C41 1_555 1_555
C42 C41 1_555 1_555
H35 C42 1_555 1_555
H36 C42 1_555 1_555
C43 C32 1_555 1_555
C44 N4 1_555 1_555
C45 C46 1_555 1_555
C46 H37 1_555 1_555
C47 C46 1_555 1_555
H38 C47 1_555 1_555
C48 C47 1_555 1_555
H39 C48 1_555 1_555
C49 C48 1_555 1_555
H40 C49 1_555 1_555
C50 C45 1_555 1_555
C51 S3 1_555 1_555
C52 C51 1_555 1_555
C53 C52 1_555 1_555
C54 O5 1_555 1_555
C55 C54 1_555 1_555
C56 C52 1_555 1_555
H41 C56 1_555 1_555
C57 C55 1_555 1_555
H42 C57 1_555 1_555
C58 C57 1_555 1_555
C59 C58 1_555 1_555
H43 C59 1_555 1_555
H44 C59 1_555 1_555
C60 C59 1_555 1_555
H45 C60 1_555 1_555
H46 C60 1_555 1_555
C61 C60 1_555 1_555
H47 C61 1_555 1_555
H48 C61 1_555 1_555
C62 N6 1_555 1_555
H49 C62 1_555 1_555
H50 C62 1_555 1_555
C63 C62 1_555 1_555
H51 C63 1_555 1_555
H52 C63 1_555 1_555
C64 C63 1_555 1_555
H53 C64 1_555 1_555
H54 C64 1_555 1_555
C65 C54 1_555 1_555
C66 N6 1_555 1_555
C67 C68 1_555 1_555
C68 H55 1_555 1_555
C69 C68 1_555 1_555
H56 C69 1_555 1_555
C70 C69 1_555 1_555
H57 C70 1_555 1_555
C71 C70 1_555 1_555
H58 C71 1_555 1_555
C72 C67 1_555 1_555
C73 S4 1_555 1_555
C74 C73 1_555 1_555
C75 C74 1_555 1_555
C76 O7 1_555 1_555
C77 C76 1_555 1_555
C78 C74 1_555 1_555
H59 C78 1_555 1_555
C79 C77 1_555 1_555
H60 C79 1_555 1_555
C80 C79 1_555 1_555
C81 C80 1_555 1_555
H61 C81 1_555 1_555
H62 C81 1_555 1_555
C82 C81 1_555 1_555
H63 C82 1_555 1_555
H64 C82 1_555 1_555
C83 C82 1_555 1_555
H65 C83 1_555 1_555
H66 C83 1_555 1_555
C84 N8 1_555 1_555
H67 C84 1_555 1_555
H68 C84 1_555 1_555
C85 C84 1_555 1_555
H69 C85 1_555 1_555
H70 C85 1_555 1_555
C86 C85 1_555 1_555
H71 C86 1_555 1_555
H72 C86 1_555 1_555
C87 C76 1_555 1_555
C88 N8 1_555 1_555
N9 C90 1_555 1_555
C89 H73 1_555 1_555
H74 C89 1_555 1_555
H75 C89 1_555 1_555
C90 C89 1_555 1_555
N10 C92 1_555 1_555
C91 H76 1_555 1_555
H77 C91 1_555 1_555
H78 C91 1_555 1_555
C92 C91 1_555 1_555
N1 C7 1_555 1_555
N3 C29 1_555 1_555
N5 C51 1_555 1_555
N7 C73 1_555 1_555
C5 C6 1_555 1_555
C11 C12 1_555 1_555
C14 C22 1_555 1_555
C20 C21 1_555 1_555
C21 C22 1_555 1_555
C27 C28 1_555 1_555
C33 C34 1_555 1_555
C36 C44 1_555 1_555
C42 C43 1_555 1_555
C43 C44 1_555 1_555
C49 C50 1_555 1_555
C55 C56 1_555 1_555
C58 C66 1_555 1_555
C64 C65 1_555 1_555
C65 C66 1_555 1_555
C71 C72 1_555 1_555
C77 C78 1_555 1_555
C80 C88 1_555 1_555
C86 C87 1_555 1_555
C87 C88 1_555 1_555

#END
