
#######################################################################
#
#                 Cambridge Crystallographic Data Centre
#                                CCDC 
#
#######################################################################
#
# If this CIF has been generated from an entry in the Cambridge 
# Structural Database, then it will include bibliographic, chemical, 
# crystal, experimental, refinement or atomic coordinate data resulting 
# from the CCDC's data processing and validation procedures.
#
#######################################################################

data_XAGDUH
_chemical_formula_moiety         'C26 H21 N3 O5'
_chemical_name_systematic        
"Dimethyl 1'-t-butyl-2-(dicyanomethylene)-5'-oxo-1',5'-dihydro-2H-spiro[acenaphthylene-1,2'-pyrrole]-3',4'-dicarboxylate"
_symmetry_cell_setting           monoclinic
_symmetry_space_group_name_H-M   'C 2/c'
_symmetry_Int_Tables_number      15
_space_group_name_Hall           '-C 2yn'
loop_
_symmetry_equiv_pos_site_id
_symmetry_equiv_pos_as_xyz
1 x,y,z
2 -x,y,1/2-z
3 1/2+x,1/2+y,z
4 1/2-x,1/2+y,1/2-z
5 -x,-y,-z
6 x,-y,1/2+z
7 1/2-x,1/2-y,-z
8 1/2+x,1/2-y,1/2+z
_cell_length_a                   28.1196(15)
_cell_length_b                   10.6029(6)
_cell_length_c                   31.9973(17)
_cell_angle_alpha                90
_cell_angle_beta                 98.631(3)
_cell_angle_gamma                90
_cell_volume                     9431.94
_exptl_crystal_colour            yellow
_exptl_crystal_description       block
_cell_formula_units_Z            16
loop_
_atom_site_label
_atom_site_type_symbol
_atom_site_fract_x
_atom_site_fract_y
_atom_site_fract_z
N1 N 0.34985(4) 1.06972(11) 0.05622(4)
C1 C 0.42324(5) 0.92164(14) 0.06865(5)
C2 C 0.34684(5) 0.84362(14) 0.08318(5)
C3 C 0.37724(5) 0.74365(14) 0.07587(5)
C4 C 0.42260(5) 0.78360(14) 0.06712(5)
C5 C 0.45896(5) 1.00072(15) 0.06170(5)
C6 C 0.37452(5) 0.96706(14) 0.08163(5)
C7 C 0.34306(5) 1.17258(14) 0.08085(5)
C8 C 0.36731(5) 1.14325(15) 0.12438(5)
C9 C 0.30192(6) 0.81859(16) 0.09214(6)
H1 H 0.2816 0.8837 0.0977
O1 O 0.41321(5) 1.23532(14) 0.18193(4)
C10 C 0.36342(6) 0.61641(15) 0.07711(5)
C11 C 0.38396(5) 1.02615(15) 0.12540(5)
C12 C 0.45564(6) 0.69274(16) 0.05980(5)
H2 H 0.4859 0.7156 0.0540
C13 C 0.39830(7) 0.52692(16) 0.06943(6)
H3 H 0.3912 0.4413 0.0699
C14 C 0.40931(6) 0.95659(17) 0.16246(5)
C15 C 0.44247(7) 0.56489(16) 0.06125(6)
H4 H 0.4647 0.5037 0.0564
C16 C 0.32804(6) 1.06388(16) 0.01020(5)
C17 C 0.28683(7) 0.69103(18) 0.09281(6)
H5 H 0.2559 0.6735 0.0982
C18 C 0.31621(7) 0.59313(17) 0.08577(6)
H6 H 0.3052 0.5106 0.0867
C19 C 0.45637(6) 1.13561(18) 0.06549(6)
C20 C 0.37019(6) 1.23345(17) 0.16010(6)
N2 N 0.53823(6) 0.91891(19) 0.04030(6)
O2 O 0.38807(6) 0.96532(17) 0.19513(5)
C21 C 0.50329(6) 0.95426(17) 0.04990(6)
N3 N 0.45635(7) 1.24249(16) 0.06852(8)
O3 O 0.44496(7) 0.9016(2) 0.16186(5)
C22 C 0.34421(8) 0.94512(18) -0.01076(6)
H7 H 0.3786 0.9447 -0.0085
H8 H 0.3303 0.9441 -0.0401
H9 H 0.3339 0.8719 0.0031
O4 O 0.33708(6) 1.2920(2) 0.16851(6)
C23 C 0.27333(6) 1.0636(2) 0.00733(7)
H10 H 0.2632 0.9864 0.0190
H11 H 0.2589 1.0703 -0.0217
H12 H 0.2635 1.1338 0.0229
C24 C 0.34531(8) 1.17858(19) -0.01235(6)
H13 H 0.3348 1.2544 -0.0001
H14 H 0.3321 1.1755 -0.0418
H15 H 0.3798 1.1778 -0.0093
C25 C 0.42028(9) 1.3090(3) 0.22046(7)
H16 H 0.4161 1.3969 0.2136
H17 H 0.4522 1.2950 0.2352
H18 H 0.3972 1.2839 0.2381
C26 C 0.41295(12) 0.9076(3) 0.23402(8)
H19 H 0.4216 0.8224 0.2283
H20 H 0.3921 0.9077 0.2552
H21 H 0.4415 0.9550 0.2440
O5 O 0.32103(5) 1.26896(11) 0.06967(4)
N4 N 0.13571(5) -0.05879(12) 0.12030(4)
C27 C 0.08040(5) 0.09223(15) 0.15391(5)
C28 C 0.08016(6) 0.22991(15) 0.15079(5)
C29 C 0.13204(5) 0.04551(14) 0.14993(5)
C30 C 0.16303(6) -0.15543(15) 0.13987(5)
C31 C 0.12613(6) 0.26831(15) 0.14349(5)
C32 C 0.15771(6) 0.16791(15) 0.14103(5)
C33 C 0.15630(6) 0.06093(17) 0.23187(5)
O6 O 0.17935(5) -0.29879(14) 0.22833(5)
C34 C 0.04466(6) 0.01438(16) 0.16190(5)
O7 O 0.18244(5) 0.00602(12) 0.26394(4)
C35 C 0.15637(5) -0.00967(15) 0.19169(5)
C36 C 0.13982(7) 0.39530(16) 0.14032(6)
C37 C 0.11912(6) -0.05830(17) 0.07324(5)
C38 C 0.04618(7) 0.32135(17) 0.15493(6)
H22 H 0.0154 0.2992 0.1595
C39 C 0.05036(6) -0.11974(18) 0.16575(6)
O8 O 0.24769(5) -0.19632(15) 0.22402(6)
C40 C 0.21823(7) 0.31868(19) 0.13070(6)
H23 H 0.2494 0.3352 0.1259
C41 C 0.17484(6) -0.12211(15) 0.18538(5)
C42 C 0.20374(6) 0.19107(18) 0.13485(6)
H24 H 0.2252 0.1252 0.1334
N5 N 0.05314(7) -0.22682(17) 0.16965(7)
C43 C 0.05937(7) 0.44894(17) 0.15210(6)
H25 H 0.0367 0.5107 0.1551
C44 C 0.08891(7) 0.05865(19) 0.06002(6)
H26 H 0.0608 0.0583 0.0737
H27 H 0.0795 0.0583 0.0299
H28 H 0.1075 0.1330 0.0682
C45 C 0.10417(8) 0.48589(17) 0.14506(6)
H29 H 0.1112 0.5713 0.1434
C46 C 0.18789(7) 0.41693(19) 0.13352(6)
H30 H 0.1987 0.4991 0.1310
O9 O 0.13416(7) 0.15492(18) 0.23436(5)
C47 C 0.20522(6) -0.20828(18) 0.21524(6)
C48 C -0.00152(7) 0.06022(19) 0.16921(7)
C49 C 0.18323(10) 0.0684(2) 0.30471(6)
H31 H 0.1952 0.1528 0.3031
H32 H 0.2038 0.0224 0.3261
H33 H 0.1512 0.0710 0.3117
C50 C 0.08795(8) -0.1752(2) 0.06191(7)
H34 H 0.1063 -0.2496 0.0707
H35 H 0.0778 -0.1778 0.0319
H36 H 0.0602 -0.1716 0.0761
N6 N -0.03826(7) 0.0910(2) 0.17600(8)
C51 C 0.16309(8) -0.0582(2) 0.05063(6)
H37 H 0.1820 0.0159 0.0585
H38 H 0.1529 -0.0584 0.0206
H39 H 0.1821 -0.1319 0.0586
C52 C 0.20536(10) -0.3945(3) 0.25568(10)
H40 H 0.2215 -0.4507 0.2390
H41 H 0.1831 -0.4413 0.2696
H42 H 0.2286 -0.3542 0.2765
O10 O 0.17591(5) -0.25121(11) 0.12350(4)
loop_
_geom_bond_atom_site_label_1
_geom_bond_atom_site_label_2
_geom_bond_site_symmetry_1
_geom_bond_site_symmetry_2
N1 C6 1_555 1_555
C1 C4 1_555 1_555
C2 C3 1_555 1_555
C3 C4 1_555 1_555
C4 C12 1_555 1_555
C5 C1 1_555 1_555
C6 C1 1_555 1_555
C7 N1 1_555 1_555
C8 C7 1_555 1_555
C9 C2 1_555 1_555
H1 C9 1_555 1_555
O1 C20 1_555 1_555
C10 C3 1_555 1_555
C11 C6 1_555 1_555
C12 H2 1_555 1_555
C13 C10 1_555 1_555
H3 C13 1_555 1_555
C14 C11 1_555 1_555
C15 C12 1_555 1_555
H4 C15 1_555 1_555
C16 N1 1_555 1_555
C17 C9 1_555 1_555
H5 C17 1_555 1_555
C18 C10 1_555 1_555
H6 C18 1_555 1_555
C19 C5 1_555 1_555
C20 C8 1_555 1_555
N2 C21 1_555 1_555
O2 C14 1_555 1_555
C21 C5 1_555 1_555
N3 C19 1_555 1_555
O3 C14 1_555 1_555
C22 C16 1_555 1_555
H7 C22 1_555 1_555
H8 C22 1_555 1_555
H9 C22 1_555 1_555
O4 C20 1_555 1_555
C23 C16 1_555 1_555
H10 C23 1_555 1_555
H11 C23 1_555 1_555
H12 C23 1_555 1_555
C24 C16 1_555 1_555
H13 C24 1_555 1_555
H14 C24 1_555 1_555
H15 C24 1_555 1_555
C25 O1 1_555 1_555
H16 C25 1_555 1_555
H17 C25 1_555 1_555
H18 C25 1_555 1_555
C26 O2 1_555 1_555
H19 C26 1_555 1_555
H20 C26 1_555 1_555
H21 C26 1_555 1_555
O5 C7 1_555 1_555
N4 C29 1_555 1_555
C27 C28 1_555 1_555
C28 C31 1_555 1_555
C29 C27 1_555 1_555
C30 N4 1_555 1_555
C31 C32 1_555 1_555
C32 C29 1_555 1_555
C33 O7 1_555 1_555
O6 C47 1_555 1_555
C34 C27 1_555 1_555
O7 C49 1_555 1_555
C35 C29 1_555 1_555
C36 C31 1_555 1_555
C37 N4 1_555 1_555
C38 C28 1_555 1_555
H22 C38 1_555 1_555
C39 C34 1_555 1_555
O8 C47 1_555 1_555
C40 H23 1_555 1_555
C41 C30 1_555 1_555
C42 C32 1_555 1_555
H24 C42 1_555 1_555
N5 C39 1_555 1_555
C43 C38 1_555 1_555
H25 C43 1_555 1_555
C44 C37 1_555 1_555
H26 C44 1_555 1_555
H27 C44 1_555 1_555
H28 C44 1_555 1_555
C45 C36 1_555 1_555
H29 C45 1_555 1_555
C46 C36 1_555 1_555
H30 C46 1_555 1_555
O9 C33 1_555 1_555
C47 C41 1_555 1_555
C48 C34 1_555 1_555
C49 H31 1_555 1_555
H32 C49 1_555 1_555
H33 C49 1_555 1_555
C50 C37 1_555 1_555
H34 C50 1_555 1_555
H35 C50 1_555 1_555
H36 C50 1_555 1_555
N6 C48 1_555 1_555
C51 C37 1_555 1_555
H37 C51 1_555 1_555
H38 C51 1_555 1_555
H39 C51 1_555 1_555
C52 O6 1_555 1_555
H40 C52 1_555 1_555
H41 C52 1_555 1_555
H42 C52 1_555 1_555
O10 C30 1_555 1_555
C2 C6 1_555 1_555
C8 C11 1_555 1_555
C13 C15 1_555 1_555
C17 C18 1_555 1_555
C33 C35 1_555 1_555
C35 C41 1_555 1_555
C40 C42 1_555 1_555
C40 C46 1_555 1_555
C43 C45 1_555 1_555

#END
