
#######################################################################
#
#                 Cambridge Crystallographic Data Centre
#                                CCDC 
#
#######################################################################
#
# If this CIF has been generated from an entry in the Cambridge 
# Structural Database, then it will include bibliographic, chemical, 
# crystal, experimental, refinement or atomic coordinate data resulting 
# from the CCDC's data processing and validation procedures.
#
#######################################################################

data_XAGHEV
_chemical_name_common            
trans-2,3-di-4-tolyl-4-tosyl-1,2,3,4-tetrahydrocyclopenta[b]indole
_chemical_formula_moiety         'C32 H29 N1 O2 S1'
_chemical_name_systematic        
2,3-bis(4-methylphenyl)-4-((4-methylphenyl)sulfonyl)-1,2,3,4-tetrahydrocyclopenta[b]indole
_symmetry_cell_setting           monoclinic
_symmetry_space_group_name_H-M   'P 21/c'
_symmetry_Int_Tables_number      14
_space_group_name_Hall           '-P 2ybc'
loop_
_symmetry_equiv_pos_site_id
_symmetry_equiv_pos_as_xyz
1 x,y,z
2 -x,1/2+y,1/2-z
3 -x,-y,-z
4 x,1/2-y,1/2+z
_cell_length_a                   11.6200(16)
_cell_length_b                   11.0673(14)
_cell_length_c                   21.125(3)
_cell_angle_alpha                90
_cell_angle_beta                 98.311(4)
_cell_angle_gamma                90
_cell_volume                     2688.19
_exptl_crystal_colour            colorless
_exptl_crystal_description       block
_cell_formula_units_Z            4
loop_
_atom_site_label
_atom_site_type_symbol
_atom_site_fract_x
_atom_site_fract_y
_atom_site_fract_z
S1 S 0.47469(5) 0.61154(7) 0.16253(3)
O1 O 0.48164(15) 0.70469(16) 0.11603(9)
C1 C 0.1174(2) 0.9744(2) 0.12847(11)
N1 N 0.35306(16) 0.64004(18) 0.19324(9)
C2 C 0.2061(2) 0.6186(2) 0.25328(13)
C3 C 0.2555(2) 0.7066(2) 0.16447(12)
C4 C 0.45214(19) 0.4721(2) 0.12395(12)
O2 O 0.56313(14) 0.5975(2) 0.21577(9)
C5 C 0.1697(2) 0.6967(2) 0.20005(13)
C6 C 0.3201(2) 0.5832(2) 0.24824(12)
C7 C 0.2213(2) 0.7178(2) 0.04325(12)
C8 C 0.1564(2) 0.6141(2) 0.03218(12)
H1 H 0.1175 0.5839 0.0643
C9 C 0.1871(2) 1.0239(2) 0.18052(12)
H2 H 0.2311 0.9730 0.2095
C10 C 0.4134(2) 0.4673(2) 0.06000(12)
H3 H 0.4016 0.5382 0.0363
C11 C 0.1305(2) 1.2256(2) 0.14803(13)
C12 C 0.0548(2) 1.0542(2) 0.08661(11)
H4 H 0.0063 1.0243 0.0512
C13 C 0.0628(2) 1.1774(2) 0.09633(13)
H5 H 0.0208 1.2288 0.0667
C14 C 0.2302(2) 0.7836(2) 0.10622(12)
H6 H 0.2886 0.8477 0.1076
C15 C 0.1086(2) 0.8402(2) 0.11718(13)
H7 H 0.0522 0.8255 0.0788
C16 C 0.1477(2) 0.5539(3) -0.02530(13)
H8 H 0.1046 0.4829 -0.0307
C17 C 0.2754(3) 0.7608(3) -0.00642(15)
H9 H 0.3197 0.8310 -0.0008
C18 C 0.3917(2) 0.3565(3) 0.03041(13)
H10 H 0.3666 0.3539 -0.0134
C19 C 0.3805(3) 0.5038(3) 0.29162(14)
H11 H 0.4563 0.4807 0.2880
C20 C 0.1928(2) 1.1466(2) 0.19040(12)
H12 H 0.2395 1.1769 0.2263
C21 C 0.1522(3) 0.5740(2) 0.30347(15)
H13 H 0.0770 0.5977 0.3080
C22 C 0.2643(3) 0.7002(3) -0.06443(16)
H14 H 0.3010 0.7315 -0.0971
C23 C 0.4710(3) 0.3662(3) 0.15872(14)
H15 H 0.4995 0.3687 0.2022
C24 C 0.4065(3) 0.2498(3) 0.06420(16)
C25 C 0.0672(2) 0.7712(2) 0.17466(15)
H16 H 0.0475 0.8271 0.2068
H17 H 0.0002 0.7208 0.1603
C26 C 0.4470(3) 0.2566(3) 0.12817(16)
H18 H 0.4588 0.1857 0.1518
C27 C 0.2014(3) 0.5964(3) -0.07520(14)
C28 C 0.3797(4) 0.1293(3) 0.03093(19)
H19 H 0.4359 0.0704 0.0487
H20 H 0.3829 0.1382 -0.0140
H21 H 0.3033 0.1032 0.0371
C29 C 0.1386(3) 1.3595(2) 0.16006(18)
H22 H 0.2137 1.3880 0.1529
H23 H 0.1280 1.3758 0.2035
H24 H 0.0793 1.4001 0.1314
C30 C 0.2126(3) 0.4942(3) 0.34604(15)
H25 H 0.1770 0.4629 0.3792
C31 C 0.1937(3) 0.5311(4) -0.13813(15)
H26 H 0.2435 0.5699 -0.1644
H27 H 0.1149 0.5331 -0.1594
H28 H 0.2177 0.4487 -0.1307
C32 C 0.3251(3) 0.4598(3) 0.34043(14)
H29 H 0.3641 0.4063 0.3700
loop_
_geom_bond_atom_site_label_1
_geom_bond_atom_site_label_2
_geom_bond_site_symmetry_1
_geom_bond_site_symmetry_2
S1 O1 1_555 1_555
C1 C9 1_555 1_555
N1 S1 1_555 1_555
C2 C5 1_555 1_555
C3 N1 1_555 1_555
C4 S1 1_555 1_555
O2 S1 1_555 1_555
C5 C3 1_555 1_555
C6 N1 1_555 1_555
C7 C8 1_555 1_555
C8 H1 1_555 1_555
C9 H2 1_555 1_555
C10 C4 1_555 1_555
H3 C10 1_555 1_555
C11 C13 1_555 1_555
C12 C1 1_555 1_555
H4 C12 1_555 1_555
C13 C12 1_555 1_555
H5 C13 1_555 1_555
C14 C3 1_555 1_555
H6 C14 1_555 1_555
C15 C1 1_555 1_555
H7 C15 1_555 1_555
C16 C8 1_555 1_555
H8 C16 1_555 1_555
C17 C7 1_555 1_555
H9 C17 1_555 1_555
C18 C10 1_555 1_555
H10 C18 1_555 1_555
C19 C6 1_555 1_555
H11 C19 1_555 1_555
C20 C9 1_555 1_555
H12 C20 1_555 1_555
C21 C2 1_555 1_555
H13 C21 1_555 1_555
C22 C17 1_555 1_555
H14 C22 1_555 1_555
C23 C4 1_555 1_555
H15 C23 1_555 1_555
C24 C18 1_555 1_555
C25 C5 1_555 1_555
H16 C25 1_555 1_555
H17 C25 1_555 1_555
C26 C23 1_555 1_555
H18 C26 1_555 1_555
C27 C16 1_555 1_555
C28 C24 1_555 1_555
H19 C28 1_555 1_555
H20 C28 1_555 1_555
H21 C28 1_555 1_555
C29 C11 1_555 1_555
H22 C29 1_555 1_555
H23 C29 1_555 1_555
H24 C29 1_555 1_555
C30 C21 1_555 1_555
H25 C30 1_555 1_555
C31 C27 1_555 1_555
H26 C31 1_555 1_555
H27 C31 1_555 1_555
H28 C31 1_555 1_555
C32 C19 1_555 1_555
H29 C32 1_555 1_555
C2 C6 1_555 1_555
C7 C14 1_555 1_555
C11 C20 1_555 1_555
C14 C15 1_555 1_555
C15 C25 1_555 1_555
C22 C27 1_555 1_555
C24 C26 1_555 1_555
C30 C32 1_555 1_555

#END
