
#######################################################################
#
#                 Cambridge Crystallographic Data Centre
#                                CCDC 
#
#######################################################################
#
# If this CIF has been generated from an entry in the Cambridge 
# Structural Database, then it will include bibliographic, chemical, 
# crystal, experimental, refinement or atomic coordinate data resulting 
# from the CCDC's data processing and validation procedures.
#
#######################################################################

data_XAGKAT
_chemical_formula_moiety         'C40 H48 Ba1 O12 2+,I8 2-'
_chemical_name_systematic        
'bis(6,7,9,10,17,18,20,21-octahydrodibenzo[b,k][1,4,7,10,13,16]hexaoxacyclooctadecine)-barium octaiodide'
_symmetry_cell_setting           orthorhombic
_symmetry_space_group_name_H-M   'P b c n'
_symmetry_Int_Tables_number      60
_space_group_name_Hall           '-P 2n 2ab'
loop_
_symmetry_equiv_pos_site_id
_symmetry_equiv_pos_as_xyz
1 x,y,z
2 1/2-x,1/2-y,1/2+z
3 1/2+x,1/2-y,-z
4 -x,y,1/2-z
5 -x,-y,-z
6 1/2+x,1/2+y,1/2-z
7 1/2-x,1/2+y,z
8 x,-y,1/2+z
_cell_length_a                   14.5201(18)
_cell_length_b                   19.246(2)
_cell_length_c                   19.1210(18)
_cell_angle_alpha                90
_cell_angle_beta                 90
_cell_angle_gamma                90
_cell_volume                     5343.44
_exptl_crystal_colour            black
_exptl_crystal_description       column
_cell_formula_units_Z            4
loop_
_atom_site_label
_atom_site_type_symbol
_atom_site_fract_x
_atom_site_fract_y
_atom_site_fract_z
Ba1 Ba 0.5000 0.08024(3) 0.2500
O1 O 0.5890(3) -0.0379(2) 0.1871(2)
O2 O 0.5655(3) 0.0842(2) 0.1079(2)
O3 O 0.3021(3) 0.0749(3) 0.2052(2)
O4 O 0.4118(3) -0.0333(3) 0.1502(2)
O5 O 0.4462(3) 0.1923(2) 0.1459(2)
O6 O 0.3729(3) 0.1926(3) 0.2742(2)
C1 C 0.5442(5) -0.1000(4) 0.1683(3)
C2 C 0.6542(5) -0.0152(4) 0.1362(4)
H1 H 0.6862 -0.0550 0.1168
H2 H 0.6994 0.0148 0.1582
C3 C 0.4352(5) 0.3195(5) 0.1398(5)
H3 H 0.4615 0.3211 0.0954
C4 C 0.2785(6) 0.1700(4) 0.2787(4)
H4 H 0.2393 0.2097 0.2880
H5 H 0.2720 0.1376 0.3172
C5 C 0.6066(5) 0.0236(4) 0.0787(4)
H6 H 0.6506 0.0366 0.0428
H7 H 0.5597 -0.0055 0.0575
C6 C 0.5118(5) 0.1216(4) 0.0577(3)
H8 H 0.4529 0.0986 0.0514
H9 H 0.5434 0.1217 0.0130
C7 C 0.3118(5) -0.0323(5) 0.1438(4)
H10 H 0.2841 -0.0557 0.1835
H11 H 0.2932 -0.0565 0.1016
C8 C 0.4556(8) -0.2213(5) 0.1386(4)
H12 H 0.4256 -0.2628 0.1284
C9 C 0.3589(5) 0.3172(5) 0.2721(4)
H13 H 0.3338 0.3166 0.3168
C10 C 0.5466(8) -0.2232(5) 0.1548(5)
H14 H 0.5785 -0.2651 0.1556
C11 C 0.4513(5) -0.0977(4) 0.1517(3)
C12 C 0.4054(6) -0.1595(5) 0.1366(4)
H15 H 0.3430 -0.1595 0.1255
C13 C 0.2804(5) 0.0402(5) 0.1410(4)
H16 H 0.3102 0.0639 0.1024
H17 H 0.2144 0.0415 0.1333
C14 C 0.4219(4) 0.2561(4) 0.1735(4)
C15 C 0.3825(4) 0.2555(4) 0.2398(4)
C16 C 0.4967(5) 0.1935(4) 0.0809(3)
H18 H 0.5553 0.2166 0.0876
H19 H 0.4621 0.2188 0.0458
C17 C 0.2488(5) 0.1362(4) 0.2132(5)
H20 H 0.1838 0.1247 0.2155
H21 H 0.2586 0.1671 0.1738
C18 C 0.5898(6) -0.1628(4) 0.1698(4)
H22 H 0.6520 -0.1636 0.1814
C19 C 0.3721(6) 0.3789(5) 0.2388(7)
H23 H 0.3561 0.4203 0.2608
C20 C 0.4088(7) 0.3800(5) 0.1733(7)
H24 H 0.4162 0.4223 0.1506
O1C O 0.4110(3) -0.0379(2) 0.3129(2)
O2C O 0.4345(3) 0.0842(2) 0.3921(2)
O3C O 0.6979(3) 0.0749(3) 0.2948(2)
O4C O 0.5882(3) -0.0333(3) 0.3498(2)
O5C O 0.5538(3) 0.1923(2) 0.3541(2)
O6C O 0.6271(3) 0.1926(3) 0.2258(2)
C1C C 0.4558(5) -0.1000(4) 0.3317(3)
C2C C 0.3458(5) -0.0152(4) 0.3638(4)
H1C H 0.3138 -0.0550 0.3832
H2C H 0.3006 0.0148 0.3418
C3C C 0.5648(5) 0.3195(5) 0.3602(5)
H3C H 0.5385 0.3211 0.4046
C4C C 0.7215(6) 0.1700(4) 0.2213(4)
H4C H 0.7607 0.2097 0.2120
H5C H 0.7280 0.1376 0.1828
C5C C 0.3934(5) 0.0236(4) 0.4213(4)
H6C H 0.3494 0.0366 0.4572
H7C H 0.4403 -0.0055 0.4425
C6C C 0.4882(5) 0.1216(4) 0.4423(3)
H8C H 0.5471 0.0986 0.4486
H9C H 0.4566 0.1217 0.4870
C7C C 0.6882(5) -0.0323(5) 0.3562(4)
H10C H 0.7159 -0.0557 0.3165
H11C H 0.7068 -0.0565 0.3984
C8C C 0.5444(8) -0.2213(5) 0.3614(4)
H12C H 0.5744 -0.2628 0.3716
C9C C 0.6411(5) 0.3172(5) 0.2279(4)
H13C H 0.6662 0.3166 0.1832
C10C C 0.4534(8) -0.2232(5) 0.3452(5)
H14C H 0.4215 -0.2651 0.3444
C11C C 0.5487(5) -0.0977(4) 0.3483(3)
C12C C 0.5946(6) -0.1595(5) 0.3634(4)
H15C H 0.6570 -0.1595 0.3745
C13C C 0.7196(5) 0.0402(5) 0.3590(4)
H16C H 0.6898 0.0639 0.3976
H17C H 0.7856 0.0415 0.3667
C14C C 0.5781(4) 0.2561(4) 0.3265(4)
C15C C 0.6175(4) 0.2555(4) 0.2602(4)
C16C C 0.5033(5) 0.1935(4) 0.4191(3)
H18C H 0.4447 0.2166 0.4124
H19C H 0.5379 0.2188 0.4542
C17C C 0.7512(5) 0.1362(4) 0.2868(5)
H20C H 0.8162 0.1247 0.2845
H21C H 0.7414 0.1671 0.3262
C18C C 0.4102(6) -0.1628(4) 0.3302(4)
H22C H 0.3480 -0.1636 0.3186
C19C C 0.6279(6) 0.3789(5) 0.2612(7)
H23C H 0.6439 0.4203 0.2392
C20C C 0.5912(7) 0.3800(5) 0.3267(7)
H24C H 0.5838 0.4223 0.3494
I1 I 0.22154(5) 0.19777(5) 0.48149(3)
I2 I 0.13080(5) 0.05837(6) 0.47830(4)
I3 I 0.30317(7) 0.33405(5) 0.48639(4)
I4 I 0.03396(4) 0.06546(3) 0.31781(4)
I1C I -0.22154(5) 0.19777(5) 0.01851(3)
I2C I -0.13080(5) 0.05837(6) 0.02170(4)
I3C I -0.30317(7) 0.33405(5) 0.01361(4)
I4C I -0.03396(4) 0.06546(3) 0.18219(4)
loop_
_geom_bond_atom_site_label_1
_geom_bond_atom_site_label_2
_geom_bond_site_symmetry_1
_geom_bond_site_symmetry_2
Ba1 O1 1_555 1_555
O1 C1 1_555 1_555
O2 Ba1 1_555 1_555
O3 Ba1 1_555 1_555
O4 Ba1 1_555 1_555
O5 Ba1 1_555 1_555
O6 Ba1 1_555 1_555
C1 C11 1_555 1_555
C2 O1 1_555 1_555
H1 C2 1_555 1_555
H2 C2 1_555 1_555
C3 H3 1_555 1_555
C4 O6 1_555 1_555
H4 C4 1_555 1_555
H5 C4 1_555 1_555
C5 O2 1_555 1_555
H6 C5 1_555 1_555
H7 C5 1_555 1_555
C6 O2 1_555 1_555
H8 C6 1_555 1_555
H9 C6 1_555 1_555
C7 O4 1_555 1_555
H10 C7 1_555 1_555
H11 C7 1_555 1_555
C8 H12 1_555 1_555
C9 H13 1_555 1_555
C10 C8 1_555 1_555
H14 C10 1_555 1_555
C11 O4 1_555 1_555
C12 C8 1_555 1_555
H15 C12 1_555 1_555
C13 O3 1_555 1_555
H16 C13 1_555 1_555
H17 C13 1_555 1_555
C14 O5 1_555 1_555
C15 O6 1_555 1_555
C16 O5 1_555 1_555
H18 C16 1_555 1_555
H19 C16 1_555 1_555
C17 O3 1_555 1_555
H20 C17 1_555 1_555
H21 C17 1_555 1_555
C18 C1 1_555 1_555
H22 C18 1_555 1_555
C19 C9 1_555 1_555
H23 C19 1_555 1_555
C20 C3 1_555 1_555
H24 C20 1_555 1_555
I1 I2 1_555 1_555
I2 I4 1_555 1_555
I3 I1 1_555 1_555
I4 I4C 1_555 1_555
O1C Ba1 1_555 1_555
O2C Ba1 1_555 1_555
O3C Ba1 1_555 1_555
O4C Ba1 1_555 1_555
O5C Ba1 1_555 1_555
O6C Ba1 1_555 1_555
C1C O1C 1_555 1_555
C2C O1C 1_555 1_555
H1C C2C 1_555 1_555
H2C C2C 1_555 1_555
C3C H3C 1_555 1_555
C4C O6C 1_555 1_555
H4C C4C 1_555 1_555
H5C C4C 1_555 1_555
C5C O2C 1_555 1_555
H6C C5C 1_555 1_555
H7C C5C 1_555 1_555
C6C O2C 1_555 1_555
H8C C6C 1_555 1_555
H9C C6C 1_555 1_555
C7C O4C 1_555 1_555
H10C C7C 1_555 1_555
H11C C7C 1_555 1_555
C8C H12C 1_555 1_555
C9C H13C 1_555 1_555
C10C C8C 1_555 1_555
H14C C10C 1_555 1_555
C11C O4C 1_555 1_555
C12C C8C 1_555 1_555
H15C C12C 1_555 1_555
C13C O3C 1_555 1_555
H16C C13C 1_555 1_555
H17C C13C 1_555 1_555
C14C O5C 1_555 1_555
C15C O6C 1_555 1_555
C16C O5C 1_555 1_555
H18C C16C 1_555 1_555
H19C C16C 1_555 1_555
C17C O3C 1_555 1_555
H20C C17C 1_555 1_555
H21C C17C 1_555 1_555
C18C C1C 1_555 1_555
H22C C18C 1_555 1_555
C19C C9C 1_555 1_555
H23C C19C 1_555 1_555
C20C C3C 1_555 1_555
H24C C20C 1_555 1_555
I1C I2C 1_555 1_555
I2C I4C 1_555 1_555
I3C I1C 1_555 1_555
C2 C5 1_555 1_555
C3 C14 1_555 1_555
C4 C17 1_555 1_555
C6 C16 1_555 1_555
C7 C13 1_555 1_555
C9 C15 1_555 1_555
C10 C18 1_555 1_555
C11 C12 1_555 1_555
C14 C15 1_555 1_555
C19 C20 1_555 1_555
C1C C11C 1_555 1_555
C2C C5C 1_555 1_555
C3C C14C 1_555 1_555
C4C C17C 1_555 1_555
C6C C16C 1_555 1_555
C7C C13C 1_555 1_555
C9C C15C 1_555 1_555
C10C C18C 1_555 1_555
C11C C12C 1_555 1_555
C14C C15C 1_555 1_555
C19C C20C 1_555 1_555

#END
