
#######################################################################
#
#                 Cambridge Crystallographic Data Centre
#                                CCDC 
#
#######################################################################
#
# If this CIF has been generated from an entry in the Cambridge 
# Structural Database, then it will include bibliographic, chemical, 
# crystal, experimental, refinement or atomic coordinate data resulting 
# from the CCDC's data processing and validation procedures.
#
#######################################################################

data_XAGNID
_chemical_name_common            
4-(4H-1,2,4-triazol-4-yl)-4-bromophenylmethanimine
_chemical_formula_moiety         'C9 H7 Br1 N4'
_chemical_name_systematic        
N-((4-bromophenyl)methylene)-4H-1,2,4-triazol-4-amine
_symmetry_cell_setting           monoclinic
_symmetry_space_group_name_H-M   'P 21/n'
_symmetry_Int_Tables_number      14
_space_group_name_Hall           '-P 2yn'
loop_
_symmetry_equiv_pos_site_id
_symmetry_equiv_pos_as_xyz
1 x,y,z
2 1/2-x,1/2+y,1/2-z
3 -x,-y,-z
4 1/2+x,1/2-y,1/2+z
_cell_length_a                   4.1520(10)
_cell_length_b                   11.494(2)
_cell_length_c                   19.246(4)
_cell_angle_alpha                90
_cell_angle_beta                 94.18(3)
_cell_angle_gamma                90
_cell_volume                     916.035
_chemical_melting_point          '197 deg.C'
_cell_formula_units_Z            4
loop_
_atom_site_label
_atom_site_type_symbol
_atom_site_fract_x
_atom_site_fract_y
_atom_site_fract_z
Br1 Br 0.17061(9) 0.37415(3) 0.092690(19)
N1 N 1.4087(8) -0.0303(3) -0.28309(18)
N2 N 1.3700(9) -0.1378(3) -0.25119(19)
N3 N 1.1176(8) -0.0051(3) -0.19337(16)
N4 N 0.9386(8) 0.0366(3) -0.13955(17)
C1 C 0.8701(9) 0.1449(3) -0.1415(2)
H1 H 0.919(11) 0.198(4) -0.180(3)
C2 C 0.6935(9) 0.1969(3) -0.08603(19)
C3 C 0.5796(9) 0.3106(3) -0.0935(2)
H2 H 0.615(12) 0.356(4) -0.137(3)
C4 C 0.4119(9) 0.3625(3) -0.0416(2)
H3 H 0.325(11) 0.437(5) -0.048(2)
C5 C 0.3647(8) 0.2986(3) 0.01817(19)
C6 C 0.4708(9) 0.1845(3) 0.0269(2)
H4 H 0.421(13) 0.143(4) 0.067(3)
C7 C 0.6358(9) 0.1341(3) -0.0251(2)
H5 H 0.704(11) 0.054(5) -0.020(2)
C8 C 1.2550(9) 0.0475(4) -0.2478(2)
H6 H 1.247(13) 0.131(4) -0.258(3)
C9 C 1.1957(10) -0.1195(3) -0.1982(2)
H7 H 1.132(12) -0.175(5) -0.166(3)
loop_
_geom_bond_atom_site_label_1
_geom_bond_atom_site_label_2
_geom_bond_site_symmetry_1
_geom_bond_site_symmetry_2
Br1 C5 1_555 1_555
N1 N2 1_555 1_555
N2 C9 1_555 1_555
N3 N4 1_555 1_555
N4 C1 1_555 1_555
C1 H1 1_555 1_555
C2 C1 1_555 1_555
C3 C2 1_555 1_555
H2 C3 1_555 1_555
C4 C3 1_555 1_555
H3 C4 1_555 1_555
C5 C4 1_555 1_555
C6 C5 1_555 1_555
H4 C6 1_555 1_555
C7 C2 1_555 1_555
H5 C7 1_555 1_555
C8 N1 1_555 1_555
H6 C8 1_555 1_555
C9 N3 1_555 1_555
H7 C9 1_555 1_555
N3 C8 1_555 1_555
C6 C7 1_555 1_555

#END
