
#######################################################################
#
#                 Cambridge Crystallographic Data Centre
#                                CCDC 
#
#######################################################################
#
# If this CIF has been generated from an entry in the Cambridge 
# Structural Database, then it will include bibliographic, chemical, 
# crystal, experimental, refinement or atomic coordinate data resulting 
# from the CCDC's data processing and validation procedures.
#
#######################################################################

data_XAGQOO
_chemical_formula_moiety         'C22 H17 F6 N3 O3 S1'
_chemical_name_systematic        
(9R*,10S*,17S*,N3R*)-4-(3-(5-Nitrothien-2-yl)hexahydro(1,3)oxazolo(3,4-a)pyridin-1-yl)-2,8-bis(trifluoromethyl)quinoline
_symmetry_cell_setting           orthorhombic
_symmetry_space_group_name_H-M   'P b c a'
_symmetry_Int_Tables_number      61
_space_group_name_Hall           '-P 2ac 2ab'
loop_
_symmetry_equiv_pos_site_id
_symmetry_equiv_pos_as_xyz
1 x,y,z
2 1/2-x,-y,1/2+z
3 -x,1/2+y,1/2-z
4 1/2+x,1/2-y,-z
5 -x,-y,-z
6 1/2+x,y,1/2-z
7 x,1/2-y,1/2+z
8 1/2-x,1/2+y,z
_cell_length_a                   10.19740(10)
_cell_length_b                   17.3683(4)
_cell_length_c                   24.4172(6)
_cell_angle_alpha                90
_cell_angle_beta                 90
_cell_angle_gamma                90
_cell_volume                     4324.57
_exptl_crystal_colour            yellow
_exptl_crystal_description       SLAB
_cell_formula_units_Z            8
loop_
_atom_site_label
_atom_site_type_symbol
_atom_site_fract_x
_atom_site_fract_y
_atom_site_fract_z
S1 S 0.84659(5) 0.04077(3) 0.64669(2)
F1 F 0.51984(14) 0.17860(8) 0.33918(5)
F2 F 0.54293(13) 0.28659(8) 0.38141(6)
F3 F 0.36612(13) 0.26277(9) 0.33726(6)
N1 N 0.56574(16) 0.08934(10) 0.66841(7)
O1 O 0.54095(14) -0.01305(8) 0.61239(6)
N2 N 0.60899(17) 0.15745(10) 0.44953(7)
O2 O 1.12484(16) 0.05267(10) 0.63647(8)
C1 C 0.43563(19) 0.09836(12) 0.64382(9)
H1 H 0.3693 0.0757 0.6693
F4 F 0.89471(15) 0.13319(13) 0.51907(7)
F5 F 0.86664(16) 0.05000(10) 0.45873(10)
C2 C 0.4189(2) 0.12275(11) 0.50563(9)
C3 C 0.5025(2) 0.08334(11) 0.54303(9)
O3 O 1.17860(17) -0.05332(11) 0.67809(9)
C4 C 0.4037(2) 0.18283(12) 0.63586(9)
H2 H 0.3143 0.1884 0.6206
H3 H 0.4666 0.2063 0.6099
C5 C 0.47733(19) 0.15817(11) 0.45920(9)
C6 C 0.3964(2) 0.19589(12) 0.42025(9)
C7 C 0.7731(2) -0.07950(12) 0.70006(10)
H4 H 0.7194 -0.1167 0.7178
C8 C 0.6341(2) 0.08118(12) 0.53156(9)
H5 H 0.6927 0.0538 0.5547
C9 C 0.5727(2) 0.12379(12) 0.72306(9)
H6 H 0.6608 0.1155 0.7390
H7 H 0.5071 0.0995 0.7475
C10 C 0.4495(2) 0.04482(11) 0.59396(9)
H8 H 0.3630 0.0203 0.5857
N3 N 1.09768(18) -0.00711(12) 0.66096(8)
C11 C 0.9109(2) -0.08365(13) 0.69818(10)
H9 H 0.9617 -0.1234 0.7144
C12 C 0.4121(2) 0.22358(13) 0.69126(10)
H10 H 0.3988 0.2796 0.6861
H11 H 0.3418 0.2043 0.7156
C13 C 0.5452(2) 0.20952(12) 0.71793(9)
H12 H 0.6147 0.2340 0.6956
H13 H 0.5465 0.2334 0.7547
C14 C 0.7247(2) -0.01600(12) 0.67354(9)
F6 F 0.86523(15) 0.16654(14) 0.43704(10)
C15 C 0.9611(2) -0.02299(12) 0.67004(9)
C16 C 0.5844(2) 0.00681(12) 0.66628(9)
H14 H 0.5284 -0.0191 0.6944
C17 C 0.2808(2) 0.12759(13) 0.51194(9)
H15 H 0.2400 0.1042 0.5427
C18 C 0.4570(2) 0.23069(13) 0.37023(10)
C19 C 0.2061(2) 0.16548(14) 0.47435(10)
H16 H 0.1139 0.1689 0.4795
C20 C 0.2636(2) 0.19959(13) 0.42795(10)
H17 H 0.2101 0.2253 0.4019
C21 C 0.6808(2) 0.11990(12) 0.48517(9)
C22 C 0.8267(2) 0.11865(12) 0.47435(9)
loop_
_geom_bond_atom_site_label_1
_geom_bond_atom_site_label_2
_geom_bond_site_symmetry_1
_geom_bond_site_symmetry_2
S1 C14 1_555 1_555
F1 C18 1_555 1_555
F2 C18 1_555 1_555
F3 C18 1_555 1_555
N1 C1 1_555 1_555
O1 C10 1_555 1_555
N2 C5 1_555 1_555
O2 N3 1_555 1_555
C1 H1 1_555 1_555
F4 C22 1_555 1_555
F5 C22 1_555 1_555
C2 C3 1_555 1_555
C3 C8 1_555 1_555
O3 N3 1_555 1_555
C4 C1 1_555 1_555
H2 C4 1_555 1_555
H3 C4 1_555 1_555
C5 C2 1_555 1_555
C6 C5 1_555 1_555
C7 H4 1_555 1_555
C8 H5 1_555 1_555
C9 N1 1_555 1_555
H6 C9 1_555 1_555
H7 C9 1_555 1_555
C10 C1 1_555 1_555
H8 C10 1_555 1_555
N3 C15 1_555 1_555
C11 C7 1_555 1_555
H9 C11 1_555 1_555
C12 C4 1_555 1_555
H10 C12 1_555 1_555
H11 C12 1_555 1_555
C13 C9 1_555 1_555
H12 C13 1_555 1_555
H13 C13 1_555 1_555
C14 C7 1_555 1_555
F6 C22 1_555 1_555
C15 S1 1_555 1_555
C16 N1 1_555 1_555
H14 C16 1_555 1_555
C17 C2 1_555 1_555
H15 C17 1_555 1_555
C18 C6 1_555 1_555
C19 C17 1_555 1_555
H16 C19 1_555 1_555
C20 C6 1_555 1_555
H17 C20 1_555 1_555
C21 N2 1_555 1_555
C22 C21 1_555 1_555
O1 C16 1_555 1_555
C3 C10 1_555 1_555
C8 C21 1_555 1_555
C11 C15 1_555 1_555
C12 C13 1_555 1_555
C14 C16 1_555 1_555
C19 C20 1_555 1_555

#END
