
#######################################################################
#
#                 Cambridge Crystallographic Data Centre
#                                CCDC 
#
#######################################################################
#
# If this CIF has been generated from an entry in the Cambridge 
# Structural Database, then it will include bibliographic, chemical, 
# crystal, experimental, refinement or atomic coordinate data resulting 
# from the CCDC's data processing and validation procedures.
#
#######################################################################

data_XAGREF
_chemical_formula_moiety         'C24 H20 F6 N2 O2'
_chemical_name_systematic        
2-(1-(2,8-bis(Trifluoromethyl)quinolin-4-yl)hexahydro[1,3]oxazolo[3,4-a]pyridin-3-yl)phenol
_symmetry_cell_setting           monoclinic
_symmetry_space_group_name_H-M   'P 21/n'
_symmetry_Int_Tables_number      14
_space_group_name_Hall           '-P 2yn'
loop_
_symmetry_equiv_pos_site_id
_symmetry_equiv_pos_as_xyz
1 x,y,z
2 1/2-x,1/2+y,1/2-z
3 -x,-y,-z
4 1/2+x,1/2-y,1/2+z
_cell_length_a                   10.2982(2)
_cell_length_b                   18.5676(5)
_cell_length_c                   11.3153(3)
_cell_angle_alpha                90
_cell_angle_beta                 93.294(2)
_cell_angle_gamma                90
_cell_volume                     2160.06
_exptl_crystal_colour            colorless
_exptl_crystal_description       prism
_cell_formula_units_Z            4
loop_
_atom_site_label
_atom_site_type_symbol
_atom_site_fract_x
_atom_site_fract_y
_atom_site_fract_z
F1 F 1.43709(8) -0.02054(5) 0.80104(8)
F2 F 1.46274(9) -0.12956(5) 0.74319(9)
F3 F 1.45121(8) -0.04397(5) 0.61568(8)
F4 F 1.32687(10) 0.18418(5) 0.66657(10)
O1 O 0.75863(10) 0.08947(6) 0.56714(9)
F5 F 1.14750(11) 0.22613(6) 0.59161(13)
N1 N 0.72070(11) 0.12100(7) 0.75527(11)
F6 F 1.27167(12) 0.16411(6) 0.48435(10)
O2 O 0.85585(11) 0.24125(6) 0.72112(11)
H1 H 0.8377 0.2010 0.7498
N2 N 1.23304(12) 0.04650(7) 0.65296(11)
C1 C 1.01955(14) 0.09905(8) 0.61760(13)
H2 H 0.9704 0.1407 0.5955
C2 C 0.95873(14) 0.03573(8) 0.64364(12)
C3 C 0.81182(14) 0.03218(8) 0.63992(13)
H3 H 0.7821 -0.0151 0.6059
C4 C 1.06606(15) -0.15164(8) 0.72386(14)
H4 H 1.0300 -0.1975 0.7397
C5 C 1.03681(14) -0.02553(8) 0.67350(12)
C6 C 0.66981(14) 0.13138(8) 0.63293(13)
H5 H 0.5798 0.1114 0.6220
C7 C 1.40050(15) -0.06782(9) 0.71473(13)
C8 C 1.15589(14) 0.10094(8) 0.62431(13)
C9 C 0.98527(15) -0.09474(8) 0.69884(13)
H6 H 0.8937 -0.1013 0.6983
C10 C 1.20231(15) -0.14335(8) 0.72655(13)
H7 H 1.2572 -0.1836 0.7433
C11 C 1.25545(14) -0.07765(8) 0.70509(13)
C12 C 1.17459(14) -0.01730(8) 0.67687(12)
C13 C 0.58656(15) 0.22819(9) 0.49529(14)
H8 H 0.5198 0.1959 0.4683
C14 C 0.75224(14) 0.04359(8) 0.76060(13)
H9 H 0.6691 0.0158 0.7609
C15 C 0.67304(14) 0.20763(8) 0.58884(13)
C16 C 0.74930(18) 0.04769(9) 0.97860(15)
H10 H 0.6735 0.0150 0.9799
H11 H 0.8019 0.0415 1.0539
C17 C 1.22560(16) 0.16880(9) 0.59200(16)
C18 C 0.63299(16) 0.14084(9) 0.84819(14)
H12 H 0.5518 0.1124 0.8391
H13 H 0.6102 0.1925 0.8416
C19 C 0.59605(16) 0.29465(9) 0.44094(15)
H14 H 0.5373 0.3074 0.3766
C20 C 0.83155(16) 0.02761(9) 0.87475(13)
H15 H 0.9130 0.0560 0.8783
H16 H 0.8546 -0.0241 0.8786
C21 C 0.76857(15) 0.25706(8) 0.62945(14)
C22 C 0.77704(17) 0.32396(9) 0.57602(16)
H17 H 0.8414 0.3574 0.6044
C23 C 0.70174(18) 0.12578(9) 0.96805(15)
H18 H 0.6413 0.1356 1.0311
H19 H 0.7770 0.1587 0.9800
C24 C 0.69195(18) 0.34225(9) 0.48134(16)
H20 H 0.6996 0.3878 0.4440
loop_
_geom_bond_atom_site_label_1
_geom_bond_atom_site_label_2
_geom_bond_site_symmetry_1
_geom_bond_site_symmetry_2
F1 C7 1_555 1_555
F2 C7 1_555 1_555
F3 C7 1_555 1_555
F4 C17 1_555 1_555
O1 C3 1_555 1_555
F5 C17 1_555 1_555
N1 C6 1_555 1_555
F6 C17 1_555 1_555
O2 H1 1_555 1_555
N2 C8 1_555 1_555
C1 H2 1_555 1_555
C2 C1 1_555 1_555
C3 C2 1_555 1_555
H3 C3 1_555 1_555
C4 H4 1_555 1_555
C5 C2 1_555 1_555
C6 O1 1_555 1_555
H5 C6 1_555 1_555
C7 C11 1_555 1_555
C8 C1 1_555 1_555
C9 C4 1_555 1_555
H6 C9 1_555 1_555
C10 C4 1_555 1_555
H7 C10 1_555 1_555
C11 C10 1_555 1_555
C12 N2 1_555 1_555
C13 H8 1_555 1_555
C14 N1 1_555 1_555
H9 C14 1_555 1_555
C15 C6 1_555 1_555
C16 H10 1_555 1_555
H11 C16 1_555 1_555
C17 C8 1_555 1_555
C18 N1 1_555 1_555
H12 C18 1_555 1_555
H13 C18 1_555 1_555
C19 C13 1_555 1_555
H14 C19 1_555 1_555
C20 C14 1_555 1_555
H15 C20 1_555 1_555
H16 C20 1_555 1_555
C21 O2 1_555 1_555
C22 C21 1_555 1_555
H17 C22 1_555 1_555
C23 C16 1_555 1_555
H18 C23 1_555 1_555
H19 C23 1_555 1_555
C24 C19 1_555 1_555
H20 C24 1_555 1_555
C3 C14 1_555 1_555
C5 C9 1_555 1_555
C5 C12 1_555 1_555
C11 C12 1_555 1_555
C13 C15 1_555 1_555
C15 C21 1_555 1_555
C16 C20 1_555 1_555
C18 C23 1_555 1_555
C22 C24 1_555 1_555

#END
