
#######################################################################
#
#                 Cambridge Crystallographic Data Centre
#                                CCDC 
#
#######################################################################
#
# If this CIF has been generated from an entry in the Cambridge 
# Structural Database, then it will include bibliographic, chemical, 
# crystal, experimental, refinement or atomic coordinate data resulting 
# from the CCDC's data processing and validation procedures.
#
#######################################################################

data_XAGWEK
_chemical_formula_moiety         'C11 H11 I1 N2 P1 1+,I1 1-'
_chemical_name_systematic        
'5-iodo-1,3-dimethyl-5H-pyrazolo[1,2-a][1,2,3]benzodiazaphosphol-4-ium iodide'
_symmetry_cell_setting           orthorhombic
_symmetry_space_group_name_H-M   'P n a 21'
_symmetry_Int_Tables_number      33
_space_group_name_Hall           'P 2c -2n'
loop_
_symmetry_equiv_pos_site_id
_symmetry_equiv_pos_as_xyz
1 x,y,z
2 -x,-y,1/2+z
3 1/2+x,1/2-y,z
4 1/2-x,1/2+y,1/2+z
_cell_length_a                   16.4115(3)
_cell_length_b                   10.83959(18)
_cell_length_c                   7.77270(16)
_cell_angle_alpha                90
_cell_angle_beta                 90
_cell_angle_gamma                90
_cell_volume                     1382.72
_exptl_crystal_colour            red
_exptl_crystal_description       stick
_cell_formula_units_Z            4
loop_
_atom_site_label
_atom_site_type_symbol
_atom_site_fract_x
_atom_site_fract_y
_atom_site_fract_z
P1 P 0.07338(5) 0.34067(8) 0.22463(11)
I1 I 0.051596(13) 0.112791(19) 0.09294(3)
N1 N 0.15018(16) 0.2841(3) 0.3646(3)
N2 N 0.22870(16) 0.2991(2) 0.3110(4)
C1 C 0.1505(2) 0.2326(3) 0.5243(4)
C2 C 0.2307(2) 0.2161(3) 0.5703(4)
H1 H 0.2494 0.1816 0.6754
C3 C 0.27961(19) 0.2582(3) 0.4371(4)
C4 C 0.0727(2) 0.2061(4) 0.6146(5)
H2 H 0.0402 0.2818 0.6221
H3 H 0.0844 0.1756 0.7307
H4 H 0.0423 0.1434 0.5506
C5 C 0.3702(2) 0.2614(3) 0.4211(6)
H5 H 0.3867 0.2184 0.3159
H6 H 0.3948 0.2207 0.5210
H7 H 0.3887 0.3473 0.4160
C6 C 0.15655(19) 0.3816(3) 0.0794(5)
C7 C 0.2350(2) 0.3533(3) 0.1460(4)
C8 C 0.3052(2) 0.3755(3) 0.0554(4)
H8 H 0.3569 0.3548 0.1020
C9 C 0.2984(2) 0.4296(3) -0.1081(6)
H9 H 0.3461 0.4466 -0.1732
C10 C 0.2228(2) 0.4582(3) -0.1746(4)
H10 H 0.2193 0.4944 -0.2857
C11 C 0.1510(2) 0.4353(3) -0.0830(6)
H11 H 0.0995 0.4561 -0.1305
I2 I 0.089487(12) 0.575328(18) 0.40602(3)
loop_
_geom_bond_atom_site_label_1
_geom_bond_atom_site_label_2
_geom_bond_site_symmetry_1
_geom_bond_site_symmetry_2
P1 I1 1_555 1_555
N1 P1 1_555 1_555
N2 N1 1_555 1_555
C1 N1 1_555 1_555
C2 C1 1_555 1_555
H1 C2 1_555 1_555
C3 N2 1_555 1_555
C4 C1 1_555 1_555
H2 C4 1_555 1_555
H3 C4 1_555 1_555
H4 C4 1_555 1_555
C5 C3 1_555 1_555
H5 C5 1_555 1_555
H6 C5 1_555 1_555
H7 C5 1_555 1_555
C6 P1 1_555 1_555
C7 N2 1_555 1_555
C8 C7 1_555 1_555
H8 C8 1_555 1_555
C9 C8 1_555 1_555
H9 C9 1_555 1_555
C10 C9 1_555 1_555
H10 C10 1_555 1_555
C11 C6 1_555 1_555
H11 C11 1_555 1_555
C2 C3 1_555 1_555
C6 C7 1_555 1_555
C10 C11 1_555 1_555

#END
