
#######################################################################
#
#                 Cambridge Crystallographic Data Centre
#                                CCDC 
#
#######################################################################
#
# If this CIF has been generated from an entry in the Cambridge 
# Structural Database, then it will include bibliographic, chemical, 
# crystal, experimental, refinement or atomic coordinate data resulting 
# from the CCDC's data processing and validation procedures.
#
#######################################################################

data_XAHTEI
_chemical_name_common            'Ginkgolide K dimethyl sulfoxide solvate'
_chemical_formula_moiety         'C20 H22 O9,C2 H6 O1 S1'
_chemical_name_systematic        
'8-t-Butyl-6,12-dihydroxy-16-methyl-2,4,14,19-tetraoxahexacyclo[8.7.2.0^1,11^.0^3,7^.0^7,11^.0^13,17^]nonadec-16-ene-5,15,18-trione dimethyl sulfoxide solvate'
_symmetry_cell_setting           orthorhombic
_symmetry_space_group_name_H-M   'P 21 21 21'
_symmetry_Int_Tables_number      19
_space_group_name_Hall           'P 2ac 2ab'
loop_
_symmetry_equiv_pos_site_id
_symmetry_equiv_pos_as_xyz
1 x,y,z
2 1/2-x,-y,1/2+z
3 1/2+x,1/2-y,-z
4 -x,1/2+y,1/2-z
_cell_length_a                   12.537(4)
_cell_length_b                   12.602(8)
_cell_length_c                   15.296(5)
_cell_angle_alpha                90
_cell_angle_beta                 90
_cell_angle_gamma                90
_cell_volume                     2416.63
_exptl_crystal_colour            colorless
_exptl_crystal_description       Prism
_cell_formula_units_Z            4
loop_
_atom_site_label
_atom_site_type_symbol
_atom_site_fract_x
_atom_site_fract_y
_atom_site_fract_z
O1 O 0.05954(19) -0.1090(2) -0.08587(16)
O2 O 0.26006(15) -0.2315(2) -0.31921(17)
O3 O 0.23489(17) -0.0509(2) -0.34039(17)
O4 O 0.07010(19) -0.4081(2) -0.30739(19)
O5 O 0.1910(3) -0.0286(3) -0.0120(2)
O6 O -0.10174(16) -0.1486(2) -0.24653(17)
H1 H -0.134(5) -0.092(4) -0.272(5)
O7 O 0.2188(2) -0.4413(3) -0.2326(3)
O8 O 0.1362(2) 0.0970(3) -0.3372(2)
O9 O -0.03475(18) -0.0386(3) -0.4038(2)
H2 H -0.050(4) 0.029(3) -0.425(4)
C1 C 0.2329(3) -0.1517(4) -0.1278(2)
C2 C 0.1653(3) -0.0899(4) -0.0674(3)
C3 C 0.0537(2) -0.1846(3) -0.1557(2)
H3 H 0.0164 -0.2492 -0.1373
C4 C 0.0111(2) -0.1440(3) -0.2426(2)
H4 H 0.0345 -0.0706 -0.2514
C5 C 0.0674(2) -0.2171(3) -0.3105(2)
C6 C 0.1696(2) -0.2583(3) -0.2650(2)
C7 C 0.1672(2) -0.2073(3) -0.1784(2)
C8 C 0.1591(3) -0.3782(3) -0.2649(3)
C9 C 0.0035(2) -0.3179(3) -0.3324(3)
H5 H -0.0648 -0.3189 -0.3012
C10 C -0.0132(3) -0.3168(4) -0.4301(3)
H6 H -0.0770 -0.2772 -0.4452
H7 H -0.0200 -0.3885 -0.4526
C11 C 0.0867(3) -0.2624(3) -0.4674(2)
H8 H 0.1448 -0.3135 -0.4590
C12 C 0.1086(2) -0.1718(3) -0.4004(2)
C13 C 0.2281(2) -0.1556(3) -0.3790(2)
H9 H 0.2714 -0.1596 -0.4323
C14 C 0.1480(3) 0.0078(4) -0.3617(2)
C15 C 0.0743(2) -0.0588(3) -0.4195(2)
H10 H 0.0899 -0.0429 -0.4809
C16 C 0.3514(3) -0.1396(5) -0.1312(4)
H11 H 0.3743 -0.0936 -0.0848
H12 H 0.3844 -0.2079 -0.1244
H13 H 0.3716 -0.1096 -0.1864
C17 C 0.0819(3) -0.2426(4) -0.5678(2)
C18 C 0.1881(3) -0.1963(5) -0.6004(3)
H14 H 0.2003 -0.1288 -0.5732
H15 H 0.2452 -0.2439 -0.5857
H16 H 0.1852 -0.1875 -0.6627
C19 C -0.0101(3) -0.1685(5) -0.5959(3)
H17 H -0.0009 -0.1002 -0.5690
H18 H -0.0095 -0.1607 -0.6583
H19 H -0.0769 -0.1984 -0.5778
C20 C 0.0642(5) -0.3498(6) -0.6119(3)
H20 H -0.0020 -0.3797 -0.5921
H21 H 0.0617 -0.3404 -0.6741
H22 H 0.1217 -0.3968 -0.5971
S1 S 0.18567(17) -0.3285(3) 0.03636(15)
O10 O 0.0823(12) -0.3602(17) -0.0037(7)
C21 C 0.1644(11) -0.320(2) 0.1512(8)
H23 H 0.2296 -0.3001 0.1795
H24 H 0.1103 -0.2685 0.1632
H25 H 0.1419 -0.3883 0.1728
C22 C 0.2600(16) -0.4502(16) 0.048(3)
H26 H 0.3282 -0.4351 0.0740
H27 H 0.2213 -0.4982 0.0852
H28 H 0.2702 -0.4820 -0.0082
S2? S 0.1591(3) -0.3932(4) 0.0748(3)
O11? O 0.0959(18) -0.381(2) -0.0031(14)
C23? C 0.1716(19) -0.2673(14) 0.1253(12)
H29? H 0.2136 -0.2738 0.1775
H30? H 0.2058 -0.2189 0.0857
H31? H 0.1020 -0.2408 0.1400
C24? C 0.2927(12) -0.391(2) 0.0310(16)
H32? H 0.3432 -0.3983 0.0778
H33? H 0.3014 -0.4481 -0.0096
H34? H 0.3046 -0.3245 0.0016
loop_
_geom_bond_atom_site_label_1
_geom_bond_atom_site_label_2
_geom_bond_site_symmetry_1
_geom_bond_site_symmetry_2
O1 C2 1_555 1_555
O2 C6 1_555 1_555
O3 C13 1_555 1_555
O4 C8 1_555 1_555
O5 C2 1_555 1_555
O6 H1 1_555 1_555
O7 C8 1_555 1_555
O8 C14 1_555 1_555
O9 H2 1_555 1_555
C1 C2 1_555 1_555
C3 O1 1_555 1_555
H3 C3 1_555 1_555
C4 O6 1_555 1_555
H4 C4 1_555 1_555
C5 C4 1_555 1_555
C6 C5 1_555 1_555
C7 C1 1_555 1_555
C8 C6 1_555 1_555
C9 O4 1_555 1_555
H5 C9 1_555 1_555
C10 C9 1_555 1_555
H6 C10 1_555 1_555
H7 C10 1_555 1_555
C11 C10 1_555 1_555
H8 C11 1_555 1_555
C12 C5 1_555 1_555
C13 O2 1_555 1_555
H9 C13 1_555 1_555
C14 O3 1_555 1_555
C15 O9 1_555 1_555
H10 C15 1_555 1_555
C16 C1 1_555 1_555
H11 C16 1_555 1_555
H12 C16 1_555 1_555
H13 C16 1_555 1_555
C17 C11 1_555 1_555
C18 C17 1_555 1_555
H14 C18 1_555 1_555
H15 C18 1_555 1_555
H16 C18 1_555 1_555
C19 C17 1_555 1_555
H17 C19 1_555 1_555
H18 C19 1_555 1_555
H19 C19 1_555 1_555
C20 C17 1_555 1_555
H20 C20 1_555 1_555
H21 C20 1_555 1_555
H22 C20 1_555 1_555
S1 O10 1_555 1_555
C21 S1 1_555 1_555
H23 C21 1_555 1_555
H24 C21 1_555 1_555
H25 C21 1_555 1_555
C22 S1 1_555 1_555
H26 C22 1_555 1_555
H27 C22 1_555 1_555
H28 C22 1_555 1_555
C3 C4 1_555 1_555
C3 C7 1_555 1_555
C5 C9 1_555 1_555
C6 C7 1_555 1_555
C11 C12 1_555 1_555
C12 C13 1_555 1_555
C12 C15 1_555 1_555
C14 C15 1_555 1_555

#END
