
#######################################################################
#
#                 Cambridge Crystallographic Data Centre
#                                CCDC 
#
#######################################################################
#
# If this CIF has been generated from an entry in the Cambridge 
# Structural Database, then it will include bibliographic, chemical, 
# crystal, experimental, refinement or atomic coordinate data resulting 
# from the CCDC's data processing and validation procedures.
#
#######################################################################

data_XAJDUK
_chemical_formula_moiety         'C24 H27 N3 O7 S1'
_chemical_name_systematic        
'Dimethyl 2-(cyclohexyl(ethoxy(oxo)acetyl)amino)-4H-pyrimido[2,1-b][1,3]benzothiazole-3,4-dicarboxylate'
_symmetry_cell_setting           triclinic
_symmetry_space_group_name_H-M   'P -1'
_symmetry_Int_Tables_number      2
_space_group_name_Hall           '-P 1'
loop_
_symmetry_equiv_pos_site_id
_symmetry_equiv_pos_as_xyz
1 x,y,z
2 -x,-y,-z
_cell_length_a                   8.8055(3)
_cell_length_b                   8.9952(3)
_cell_length_c                   16.4958(6)
_cell_angle_alpha                98.277(2)
_cell_angle_beta                 101.140(2)
_cell_angle_gamma                104.570(2)
_cell_volume                     1214.96
_exptl_crystal_colour            yellow
_exptl_crystal_description       block
_cell_formula_units_Z            2
loop_
_atom_site_label
_atom_site_type_symbol
_atom_site_fract_x
_atom_site_fract_y
_atom_site_fract_z
S1 S 1.21338(12) 0.47597(10) 0.36045(6)
O1 O 1.2910(2) 0.9513(2) 0.41495(14)
O2 O 1.1170(3) 1.0945(2) 0.41429(15)
N1 N 1.0823(3) 0.6854(2) 0.40922(15)
O3 O 0.7243(3) 0.8933(3) 0.38712(14)
N2 N 1.0392(3) 0.6137(3) 0.26029(17)
C1 C 1.1574(3) 0.6522(3) 0.48397(19)
C2 C 1.0151(3) 0.8169(3) 0.40328(17)
H1 H 0.9601 0.8288 0.4491
C3 C 1.1454(3) 0.9710(3) 0.41177(17)
C4 C 1.1609(3) 0.7195(3) 0.56525(19)
H2 H 1.1091 0.7962 0.5754
C5 C 1.1003(4) 0.6045(3) 0.3370(2)
C6 C 0.8901(3) 0.7760(3) 0.31988(17)
O4 O 0.6233(3) 0.7614(4) 0.25370(15)
C7 C 1.2352(4) 0.5368(3) 0.4683(2)
C8 C 0.7419(4) 0.8187(4) 0.32443(19)
N3 N 0.8335(3) 0.6728(4) 0.16873(17)
C9 C 1.2441(4) 0.6693(4) 0.6313(2)
H3 H 1.2490 0.7134 0.6867
C10 C 0.9225(4) 0.6903(3) 0.25292(19)
C11 C 1.3160(4) 0.4862(4) 0.5353(3)
H4 H 1.3661 0.4080 0.5256
C12 C 1.3199(4) 0.5539(4) 0.6156(2)
H5 H 1.3747 0.5220 0.6609
C13 C 1.4217(4) 1.0930(4) 0.4271(3)
H6 H 1.3944 1.1524 0.3854
H7 H 1.5185 1.0661 0.4215
H8 H 1.4389 1.1546 0.4824
C14 C 0.4789(5) 0.8095(8) 0.2537(3)
H9 H 0.4469 0.7971 0.3053
H10 H 0.3938 0.7458 0.2068
H11 H 0.5000 0.9175 0.2490
O5 O 1.0642(5) 0.9763(4) 0.1772(2)
O6 O 0.8674(6) 1.0625(5) 0.2177(2)
O7 O 0.7182(6) 0.7926(6) 0.0719(2)
C15 C 0.7493(5) 0.5189(5) 0.1119(2)
H12 H 0.6494 0.5315 0.0793
C16 C 0.8102(6) 0.8006(6) 0.1381(3)
C17 C 0.8425(5) 0.4797(5) 0.0473(2)
H13 H 0.9455 0.4700 0.0760
H14 H 0.8638 0.5643 0.0168
C18 C 0.9148(8) 0.9624(6) 0.1854(3)
C19 C 0.5986(6) 0.2359(5) 0.0886(3)
H15 H 0.5801 0.1498 0.1182
H16 H 0.4943 0.2458 0.0620
C20 C 0.7480(8) 0.3275(7) -0.0148(3)
H17 H 0.7320 0.3184 -0.0729
C21 C 0.6984(8) 0.3920(6) 0.1535(3)
H18 H 0.6327 0.4202 0.1907
H19 H 0.7928 0.3751 0.1878
C22 C 0.6863(8) 0.2010(6) 0.0226(4)
H20 H 0.7755 0.1643 0.0477
H21 H 0.6133 0.1159 -0.0215
C23 C 1.1858(11) 1.1331(6) 0.2052(4)
H22 H 1.1637 1.1899 0.2541
H23 H 1.2923 1.1193 0.2223
C24 C 1.1859(11) 1.2226(11) 0.1421(6)
H24 H 1.1841 1.1587 0.0898
H25 H 1.2816 1.3103 0.1580
H26 H 1.0922 1.2599 0.1354
loop_
_geom_bond_atom_site_label_1
_geom_bond_atom_site_label_2
_geom_bond_site_symmetry_1
_geom_bond_site_symmetry_2
S1 C5 1_555 1_555
O1 C3 1_555 1_555
O2 C3 1_555 1_555
N1 C1 1_555 1_555
O3 C8 1_555 1_555
N2 C5 1_555 1_555
C1 C4 1_555 1_555
C2 N1 1_555 1_555
H1 C2 1_555 1_555
C3 C2 1_555 1_555
C4 H2 1_555 1_555
C5 N1 1_555 1_555
C6 C2 1_555 1_555
O4 C8 1_555 1_555
C7 S1 1_555 1_555
C8 C6 1_555 1_555
N3 C10 1_555 1_555
C9 C4 1_555 1_555
H3 C9 1_555 1_555
C10 N2 1_555 1_555
C11 C7 1_555 1_555
H4 C11 1_555 1_555
C12 C9 1_555 1_555
H5 C12 1_555 1_555
C13 O1 1_555 1_555
H6 C13 1_555 1_555
H7 C13 1_555 1_555
H8 C13 1_555 1_555
C14 O4 1_555 1_555
H9 C14 1_555 1_555
H10 C14 1_555 1_555
H11 C14 1_555 1_555
O5 C18 1_555 1_555
O6 C18 1_555 1_555
O7 C16 1_555 1_555
C15 N3 1_555 1_555
H12 C15 1_555 1_555
C16 N3 1_555 1_555
C17 C15 1_555 1_555
H13 C17 1_555 1_555
H14 C17 1_555 1_555
C18 C16 1_555 1_555
C19 H15 1_555 1_555
H16 C19 1_555 1_555
C20 C17 1_555 1_555
H17 C20 1_555 1_555
C21 C15 1_555 1_555
H18 C21 1_555 1_555
H19 C21 1_555 1_555
C22 C19 1_555 1_555
H20 C22 1_555 1_555
H21 C22 1_555 1_555
C23 O5 1_555 1_555
H22 C23 1_555 1_555
H23 C23 1_555 1_555
C24 C23 1_555 1_555
H24 C24 1_555 1_555
H25 C24 1_555 1_555
H26 C24 1_555 1_555
C1 C7 1_555 1_555
C6 C10 1_555 1_555
C11 C12 1_555 1_555
C19 C21 1_555 1_555
C20 C22 1_555 1_555

#END
