
#######################################################################
#
#                 Cambridge Crystallographic Data Centre
#                                CCDC 
#
#######################################################################
#
# If this CIF has been generated from an entry in the Cambridge 
# Structural Database, then it will include bibliographic, chemical, 
# crystal, experimental, refinement or atomic coordinate data resulting 
# from the CCDC's data processing and validation procedures.
#
#######################################################################

data_XAJNUT01
_chemical_formula_moiety         'C6 H2 Br1 F3'
_chemical_name_systematic        1-Bromo-2,4,6-trifluorobenzene
_symmetry_cell_setting           monoclinic
_symmetry_space_group_name_H-M   'P c'
_symmetry_Int_Tables_number      7
_space_group_name_Hall           'P -2yc'
loop_
_symmetry_equiv_pos_site_id
_symmetry_equiv_pos_as_xyz
1 x,y,z
2 x,-y,1/2+z
_cell_length_a                   6.038(2)
_cell_length_b                   3.8780(12)
_cell_length_c                   13.594(5)
_cell_angle_alpha                90
_cell_angle_beta                 98.474(6)
_cell_angle_gamma                90
_cell_volume                     314.833
_exptl_crystal_colour            colorless
_exptl_crystal_description       block
_chemical_melting_point          '276.7 K'
_cell_formula_units_Z            2
loop_
_atom_site_label
_atom_site_type_symbol
_atom_site_fract_x
_atom_site_fract_y
_atom_site_fract_z
Br1 Br 0.40175(15) 0.03452(11) 0.25594(10)
F1 F 0.4216(7) 0.0888(11) 0.4808(4)
C1 C 0.6049(10) -0.0706(14) 0.4570(5)
C2 C 0.8151(9) -0.2836(14) 0.3371(4)
F2 F 0.8386(6) -0.3350(10) 0.2413(3)
C3 C 0.6215(9) -0.1206(15) 0.3573(4)
C4 C 0.9532(9) -0.3365(16) 0.5072(4)
C5 C 0.9826(10) -0.3932(15) 0.4095(5)
H1 H 1.1130 -0.5032 0.3933
C6 C 0.7669(9) -0.1781(15) 0.5335(4)
H2 H 0.7501 -0.1440 0.6012
F3 F 1.1152(8) -0.4415(10) 0.5802(4)
loop_
_geom_bond_atom_site_label_1
_geom_bond_atom_site_label_2
_geom_bond_site_symmetry_1
_geom_bond_site_symmetry_2
Br1 C3 1_555 1_555
F1 C1 1_555 1_555
C1 C3 1_555 1_555
C2 F2 1_555 1_555
C3 C2 1_555 1_555
C4 C5 1_555 1_555
C5 C2 1_555 1_555
H1 C5 1_555 1_555
C6 C1 1_555 1_555
H2 C6 1_555 1_555
F3 C4 1_555 1_555
C4 C6 1_555 1_555

#END
