
#######################################################################
#
#                 Cambridge Crystallographic Data Centre
#                                CCDC 
#
#######################################################################
#
# If this CIF has been generated from an entry in the Cambridge 
# Structural Database, then it will include bibliographic, chemical, 
# crystal, experimental, refinement or atomic coordinate data resulting 
# from the CCDC's data processing and validation procedures.
#
#######################################################################

data_XAJRUX
_chemical_formula_moiety         'C28 H28 O7'
_chemical_name_systematic        
'Dimethyl 5-(2-methoxy-2-oxyethylidene)-3-methyl-4-(2-oxo-2-phenylethyl)-2-phenylcyclohex-3-ene-1,1-dicarboxylate'
_symmetry_cell_setting           monoclinic
_symmetry_space_group_name_H-M   'P 21/n'
_symmetry_Int_Tables_number      14
_space_group_name_Hall           '-P 2yn'
loop_
_symmetry_equiv_pos_site_id
_symmetry_equiv_pos_as_xyz
1 x,y,z
2 1/2-x,1/2+y,1/2-z
3 -x,-y,-z
4 1/2+x,1/2-y,1/2+z
_cell_length_a                   13.2968(7)
_cell_length_b                   8.3126(5)
_cell_length_c                   22.9353(12)
_cell_angle_alpha                90
_cell_angle_beta                 99.526(2)
_cell_angle_gamma                90
_cell_volume                     2500.1
_exptl_crystal_colour            colorless
_exptl_crystal_description       block
_cell_formula_units_Z            4
loop_
_atom_site_label
_atom_site_type_symbol
_atom_site_fract_x
_atom_site_fract_y
_atom_site_fract_z
C1 C 0.60670(16) 0.7842(3) 0.07475(10)
H1 H 0.6415 0.8029 0.0434
C2 C 0.52740(19) 0.8857(3) 0.08355(11)
H2 H 0.5102 0.9727 0.0584
C3 C 0.47454(19) 0.8584(4) 0.12890(13)
H3 H 0.4213 0.9261 0.1345
C4 C 0.50041(18) 0.7310(4) 0.16585(13)
H4 H 0.4644 0.7120 0.1966
C5 C 0.58007(16) 0.6290(3) 0.15796(11)
H5 H 0.5970 0.5427 0.1835
C6 C 0.63411(14) 0.6555(2) 0.11232(9)
C7 C 0.71934(14) 0.5387(2) 0.10306(9)
H6 H 0.7061 0.4371 0.1221
C8 C 0.71639(15) 0.5033(2) 0.03826(10)
C9 C 0.78554(17) 0.5595(2) 0.00631(9)
C10 C 0.86986(16) 0.6639(2) 0.03288(8)
C11 C 0.86461(15) 0.7251(2) 0.09394(8)
H7 H 0.8189 0.8166 0.0912
H8 H 0.9317 0.7609 0.1125
C12 C 0.82715(13) 0.5954(2) 0.13192(8)
C13 C 0.6258(2) 0.4019(4) 0.01303(19)
C14 C 0.60860(18) 0.6962(4) -0.19550(11)
H9 H 0.5651 0.7596 -0.1774
C15 C 0.5905(2) 0.6772(5) -0.25584(14)
H10 H 0.5350 0.7288 -0.2780
C16 C 0.6511(3) 0.5860(4) -0.28330(12)
H11 H 0.6378 0.5740 -0.3242
C17 C 0.7320(3) 0.5113(5) -0.25083(13)
H12 H 0.7743 0.4473 -0.2696
C18 C 0.7526(2) 0.5290(4) -0.19028(11)
H13 H 0.8088 0.4776 -0.1686
C19 C 0.69074(15) 0.6219(3) -0.16168(9)
C20 C 0.70835(17) 0.6459(3) -0.09682(9)
C21 C 0.77392(19) 0.5233(3) -0.05881(9)
H14 H 0.7436 0.4176 -0.0662
H15 H 0.8409 0.5207 -0.0703
C22 C 0.82551(13) 0.6651(2) 0.19317(8)
C23 C 0.8122(2) 0.6083(3) 0.29153(9)
H16 H 0.8043 0.5181 0.3165
H17 H 0.7557 0.6805 0.2910
H18 H 0.8746 0.6635 0.3065
C24 C 0.90530(14) 0.4578(2) 0.13914(8)
C25 C 0.93849(19) 0.1828(3) 0.15310(11)
H19 H 0.9026 0.0831 0.1547
H20 H 0.9828 0.2002 0.1901
H21 H 0.9782 0.1784 0.1218
C26 C 0.94695(18) 0.7049(2) 0.00452(9)
H22 H 0.9462 0.6615 -0.0329
C27 C 1.03185(18) 0.8118(2) 0.02726(9)
C28 C 1.1906(2) 0.9045(3) 0.00967(16)
H23 H 1.2393 0.8857 -0.0162
H24 H 1.2221 0.8852 0.0498
H25 H 1.1674 1.0139 0.0056
O1 O 0.66962(18) 0.7569(2) -0.07471(8)
O2 O 0.83347(12) 0.80549(17) 0.20472(6)
O3 O 0.81515(11) 0.55235(16) 0.23236(6)
O4 O 0.86561(10) 0.31405(15) 0.14215(6)
O5 O 0.99483(11) 0.4825(2) 0.14191(8)
O6 O 1.03762(14) 0.9041(2) 0.06784(7)
O7 O 1.10581(14) 0.7984(2) -0.00561(8)
H26 H 0.573(3) 0.411(4) 0.0353(14)
H27 H 0.638(4) 0.290(6) 0.015(2)
H28 H 0.605(4) 0.417(6) -0.025(2)
loop_
_geom_bond_atom_site_label_1
_geom_bond_atom_site_label_2
_geom_bond_site_symmetry_1
_geom_bond_site_symmetry_2
C1 H1 1_555 1_555
C2 C1 1_555 1_555
H2 C2 1_555 1_555
C3 C2 1_555 1_555
H3 C3 1_555 1_555
C4 C3 1_555 1_555
H4 C4 1_555 1_555
C5 C4 1_555 1_555
H5 C5 1_555 1_555
C6 C1 1_555 1_555
C7 C6 1_555 1_555
H6 C7 1_555 1_555
C8 C7 1_555 1_555
C9 C8 1_555 1_555
C10 C9 1_555 1_555
C11 C10 1_555 1_555
H7 C11 1_555 1_555
H8 C11 1_555 1_555
C12 C7 1_555 1_555
C13 C8 1_555 1_555
C14 H9 1_555 1_555
C15 C14 1_555 1_555
H10 C15 1_555 1_555
C16 C15 1_555 1_555
H11 C16 1_555 1_555
C17 C16 1_555 1_555
H12 C17 1_555 1_555
C18 C17 1_555 1_555
H13 C18 1_555 1_555
C19 C14 1_555 1_555
C20 C19 1_555 1_555
C21 C9 1_555 1_555
H14 C21 1_555 1_555
H15 C21 1_555 1_555
C22 C12 1_555 1_555
C23 H16 1_555 1_555
H17 C23 1_555 1_555
H18 C23 1_555 1_555
C24 C12 1_555 1_555
C25 H19 1_555 1_555
H20 C25 1_555 1_555
H21 C25 1_555 1_555
C26 C10 1_555 1_555
H22 C26 1_555 1_555
C27 C26 1_555 1_555
C28 H23 1_555 1_555
H24 C28 1_555 1_555
H25 C28 1_555 1_555
O1 C20 1_555 1_555
O2 C22 1_555 1_555
O3 C22 1_555 1_555
O4 C24 1_555 1_555
O5 C24 1_555 1_555
O6 C27 1_555 1_555
O7 C27 1_555 1_555
H26 C13 1_555 1_555
H27 C13 1_555 1_555
H28 C13 1_555 1_555
C5 C6 1_555 1_555
C11 C12 1_555 1_555
C18 C19 1_555 1_555
C20 C21 1_555 1_555
C23 O3 1_555 1_555
C25 O4 1_555 1_555
C28 O7 1_555 1_555

#END
