
#######################################################################
#
#                 Cambridge Crystallographic Data Centre
#                                CCDC 
#
#######################################################################
#
# If this CIF has been generated from an entry in the Cambridge 
# Structural Database, then it will include bibliographic, chemical, 
# crystal, experimental, refinement or atomic coordinate data resulting 
# from the CCDC's data processing and validation procedures.
#
#######################################################################

data_XAJROR
_chemical_formula_moiety         'C33 H30 O7'
_chemical_name_systematic        
'Dimethyl 4-(2-methoxy-2-oxoethyl)-2,7,7a-triphenyl-7,7a-dihydro-1-benzofuran-6,6(5H)-dicarboxylate'
_symmetry_cell_setting           monoclinic
_symmetry_space_group_name_H-M   'P 21/c'
_symmetry_Int_Tables_number      14
_space_group_name_Hall           '-P 2ybc'
loop_
_symmetry_equiv_pos_site_id
_symmetry_equiv_pos_as_xyz
1 x,y,z
2 -x,1/2+y,1/2-z
3 -x,-y,-z
4 x,1/2-y,1/2+z
_cell_length_a                   11.5123(6)
_cell_length_b                   25.3494(13)
_cell_length_c                   10.4758(5)
_cell_angle_alpha                90
_cell_angle_beta                 114.093(2)
_cell_angle_gamma                90
_cell_volume                     2790.82
_exptl_crystal_colour            colorless
_exptl_crystal_description       block
_cell_formula_units_Z            4
loop_
_atom_site_label
_atom_site_type_symbol
_atom_site_fract_x
_atom_site_fract_y
_atom_site_fract_z
O1 O 0.9498(3) 0.23165(10) 0.2527(3)
O2 O 0.9472(2) 0.30525(8) 0.3624(2)
O3 O 0.80046(17) 0.01470(6) 0.45132(18)
O4 O 0.90784(17) 0.07381(7) 0.61353(17)
O5 O 0.66270(19) 0.17596(6) 0.53499(18)
O6 O 0.65090(16) 0.09257(6) 0.59672(16)
O7 O 0.50028(14) 0.11204(5) 0.03500(15)
C1 C 0.3115(2) 0.12126(10) -0.2355(3)
H1 H 0.3264 0.0888 -0.1900
C2 C 0.2206(3) 0.12502(12) -0.3707(3)
H2 H 0.1746 0.0953 -0.4153
C3 C 0.1981(3) 0.17206(13) -0.4389(3)
H3 H 0.1363 0.1747 -0.5298
C4 C 0.2667(4) 0.21547(13) -0.3729(4)
H4 H 0.2524 0.2476 -0.4198
C5 C 0.3574(3) 0.21197(11) -0.2372(3)
H5 H 0.4031 0.2418 -0.1931
C6 C 0.3807(2) 0.16471(9) -0.1665(2)
C7 C 0.4821(2) 0.16120(8) -0.0263(2)
C8 C 0.5646(2) 0.19722(9) 0.0520(2)
H6 H 0.5652 0.2327 0.0296
C9 C 0.6529(2) 0.17193(8) 0.1774(2)
C10 C 0.6241(2) 0.11380(8) 0.1555(2)
C11 C 0.6158(2) 0.08737(8) 0.2849(2)
H7 H 0.6295 0.0496 0.2764
C12 C 0.7295(2) 0.10608(8) 0.4240(2)
C13 C 0.8171(2) 0.14820(9) 0.4009(2)
H8 H 0.8666 0.1654 0.4892
H9 H 0.8760 0.1308 0.3698
C14 C 0.7440(2) 0.18915(9) 0.2953(2)
C15 C 0.7817(3) 0.24602(9) 0.3255(3)
H10 H 0.7134 0.2681 0.2627
H11 H 0.7930 0.2541 0.4204
C16 C 0.9017(3) 0.25891(11) 0.3091(3)
C17 C 1.0601(3) 0.32269(14) 0.3466(4)
H12 H 1.0850 0.3567 0.3892
H13 H 1.0426 0.3250 0.2490
H14 H 1.1277 0.2979 0.3911
C18 C 0.8131(2) 0.05877(9) 0.4944(2)
C19 C 0.9947(3) 0.03335(11) 0.6947(3)
H15 H 1.0584 0.0487 0.7774
H16 H 1.0348 0.0174 0.6399
H17 H 0.9487 0.0069 0.7208
C20 C 0.6775(2) 0.12980(9) 0.5243(2)
C21 C 0.5883(3) 0.10980(12) 0.6847(3)
H18 H 0.5735 0.0799 0.7324
H19 H 0.5086 0.1261 0.6279
H20 H 0.6415 0.1348 0.7521
C22 C 0.4371(3) 0.04811(10) 0.3276(3)
H21 H 0.4847 0.0172 0.3495
C23 C 0.3208(3) 0.04870(14) 0.3345(3)
H22 H 0.2911 0.0186 0.3623
C24 C 0.2488(3) 0.09321(15) 0.3007(3)
H23 H 0.1692 0.0935 0.3037
C25 C 0.2945(3) 0.13792(13) 0.2622(3)
H24 H 0.2459 0.1686 0.2395
C26 C 0.4134(3) 0.13710(10) 0.2572(3)
H25 H 0.4444 0.1674 0.2320
C27 C 0.4856(2) 0.09195(9) 0.2890(2)
C28 C 0.6820(2) 0.03058(9) 0.0655(2)
H26 H 0.6173 0.0141 0.0823
C29 C 0.7463(3) 0.00274(11) 0.0028(3)
H27 H 0.7248 -0.0321 -0.0238
C30 C 0.8420(3) 0.02659(14) -0.0202(3)
H28 H 0.8848 0.0080 -0.0644
C31 C 0.8760(3) 0.07756(15) 0.0208(3)
H29 H 0.9434 0.0930 0.0075
C32 C 0.8097(3) 0.10627(11) 0.0826(3)
H30 H 0.8317 0.1411 0.1089
C33 C 0.7116(2) 0.08307(9) 0.1046(2)
loop_
_geom_bond_atom_site_label_1
_geom_bond_atom_site_label_2
_geom_bond_site_symmetry_1
_geom_bond_site_symmetry_2
O1 C16 1_555 1_555
O2 C16 1_555 1_555
O3 C18 1_555 1_555
O4 C18 1_555 1_555
O5 C20 1_555 1_555
O6 C20 1_555 1_555
O7 C7 1_555 1_555
C1 H1 1_555 1_555
C2 C1 1_555 1_555
H2 C2 1_555 1_555
C3 C2 1_555 1_555
H3 C3 1_555 1_555
C4 C3 1_555 1_555
H4 C4 1_555 1_555
C5 C4 1_555 1_555
H5 C5 1_555 1_555
C6 C1 1_555 1_555
C7 C6 1_555 1_555
C8 C7 1_555 1_555
H6 C8 1_555 1_555
C9 C8 1_555 1_555
C10 O7 1_555 1_555
C11 C10 1_555 1_555
H7 C11 1_555 1_555
C12 C11 1_555 1_555
C13 C12 1_555 1_555
H8 C13 1_555 1_555
H9 C13 1_555 1_555
C14 C9 1_555 1_555
C15 C14 1_555 1_555
H10 C15 1_555 1_555
H11 C15 1_555 1_555
C16 C15 1_555 1_555
C17 O2 1_555 1_555
H12 C17 1_555 1_555
H13 C17 1_555 1_555
H14 C17 1_555 1_555
C18 C12 1_555 1_555
C19 O4 1_555 1_555
H15 C19 1_555 1_555
H16 C19 1_555 1_555
H17 C19 1_555 1_555
C20 C12 1_555 1_555
C21 O6 1_555 1_555
H18 C21 1_555 1_555
H19 C21 1_555 1_555
H20 C21 1_555 1_555
C22 H21 1_555 1_555
C23 C22 1_555 1_555
H22 C23 1_555 1_555
C24 C23 1_555 1_555
H23 C24 1_555 1_555
C25 C24 1_555 1_555
H24 C25 1_555 1_555
C26 C25 1_555 1_555
H25 C26 1_555 1_555
C27 C11 1_555 1_555
C28 H26 1_555 1_555
C29 C28 1_555 1_555
H27 C29 1_555 1_555
C30 C29 1_555 1_555
H28 C30 1_555 1_555
C31 C30 1_555 1_555
H29 C31 1_555 1_555
C32 C31 1_555 1_555
H30 C32 1_555 1_555
C33 C10 1_555 1_555
C5 C6 1_555 1_555
C9 C10 1_555 1_555
C13 C14 1_555 1_555
C22 C27 1_555 1_555
C26 C27 1_555 1_555
C28 C33 1_555 1_555
C32 C33 1_555 1_555

#END
