
#######################################################################
#
#                 Cambridge Crystallographic Data Centre
#                                CCDC 
#
#######################################################################
#
# If this CIF has been generated from an entry in the Cambridge 
# Structural Database, then it will include bibliographic, chemical, 
# crystal, experimental, refinement or atomic coordinate data resulting 
# from the CCDC's data processing and validation procedures.
#
#######################################################################

data_XAJROS
_chemical_formula_moiety         'C29 H28 N3 1+,F6 P1 1-'
_chemical_name_systematic        
'1,3,3-Trimethyl-2-(2-(1-methyl-4,5-diphenyl-1H-imidazol-2-yl)vinyl)-3H-indolium hexafluorophosphate'
_symmetry_cell_setting           monoclinic
_symmetry_space_group_name_H-M   'P 21/c'
_symmetry_Int_Tables_number      14
_space_group_name_Hall           '-P 2ybc'
loop_
_symmetry_equiv_pos_site_id
_symmetry_equiv_pos_as_xyz
1 x,y,z
2 -x,1/2+y,1/2-z
3 -x,-y,-z
4 x,1/2-y,1/2+z
_cell_length_a                   23.33225(15)
_cell_length_b                   10.78319(7)
_cell_length_c                   21.99770(14)
_cell_angle_alpha                90
_cell_angle_beta                 102.2274(6)
_cell_angle_gamma                90
_cell_volume                     5408.98
_exptl_crystal_colour            red
_cell_formula_units_Z            8
loop_
_atom_site_label
_atom_site_type_symbol
_atom_site_fract_x
_atom_site_fract_y
_atom_site_fract_z
N1 N 0.88612(5) 0.49169(11) 0.82664(5)
C1 C 0.83784(6) 0.44123(13) 0.78792(6)
N2 N 0.78935(5) 0.50534(11) 0.79059(5)
C2 C 0.80672(6) 0.59815(13) 0.83191(6)
C3 C 0.86757(6) 0.59203(13) 0.85453(6)
C4 C 0.90886(6) 0.67052(14) 0.89889(7)
C5 C 0.91538(7) 0.65202(15) 0.96241(7)
H1 H 0.8943 0.5875 0.9773
C6 C 0.95258(8) 0.72734(17) 1.00426(8)
H2 H 0.9565 0.7149 1.0477
C7 C 0.98384(8) 0.82031(16) 0.98288(8)
H3 H 1.0090 0.8725 1.0116
C8 C 0.97862(8) 0.83766(17) 0.91947(8)
H4 H 1.0008 0.9006 0.9048
C9 C 0.94102(8) 0.76309(16) 0.87751(8)
H5 H 0.9373 0.7754 0.8341
C10 C 0.76338(7) 0.68228(14) 0.85003(6)
C11 C 0.70426(7) 0.64875(15) 0.83552(7)
H6 H 0.6927 0.5748 0.8127
C12 C 0.66208(8) 0.72216(16) 0.85397(8)
H7 H 0.6220 0.6988 0.8432
C13 C 0.67830(8) 0.82930(16) 0.88795(8)
H8 H 0.6496 0.8784 0.9015
C14 C 0.73665(8) 0.86429(15) 0.90208(7)
H9 H 0.7479 0.9380 0.9252
C15 C 0.77908(7) 0.79258(14) 0.88277(7)
H10 H 0.8189 0.8187 0.8919
C16 C 0.83983(7) 0.33609(13) 0.74933(7)
H11 H 0.8762 0.2960 0.7501
C17 C 0.79030(7) 0.29230(13) 0.71129(7)
H12 H 0.7544 0.3322 0.7132
C18 C 0.78755(6) 0.19266(13) 0.66919(6)
N3 N 0.73713(5) 0.15735(12) 0.63318(6)
C19 C 0.74552(7) 0.05960(14) 0.59280(7)
C20 C 0.80435(7) 0.02834(14) 0.60566(7)
C21 C 0.83728(6) 0.11159(13) 0.65664(7)
C22 C 0.70440(8) 0.00167(16) 0.54678(7)
H13 H 0.6643 0.0257 0.5378
C23 C 0.72510(9) -0.09351(17) 0.51447(7)
H14 H 0.6985 -0.1355 0.4824
C24 C 0.78344(9) -0.12853(16) 0.52791(8)
H15 H 0.7959 -0.1952 0.5057
C25 C 0.82412(8) -0.06749(15) 0.57357(7)
H16 H 0.8643 -0.0909 0.5824
C26 C 0.67919(7) 0.20665(16) 0.63579(8)
H17 H 0.6722 0.1959 0.6779
H18 H 0.6490 0.1620 0.6060
H19 H 0.6776 0.2951 0.6252
C27 C 0.86368(7) 0.03413(14) 0.71489(7)
H20 H 0.8843 0.0891 0.7478
H21 H 0.8913 -0.0267 0.7044
H22 H 0.8322 -0.0092 0.7294
C28 C 0.88434(7) 0.18654(15) 0.63258(7)
H23 H 0.8657 0.2337 0.5956
H24 H 0.9134 0.1296 0.6219
H25 H 0.9038 0.2439 0.6650
C29 C 0.94612(6) 0.44307(14) 0.83847(7)
H26 H 0.9475 0.3631 0.8599
H27 H 0.9726 0.5017 0.8646
H28 H 0.9584 0.4319 0.7989
N4 N 0.38045(5) -0.03397(12) 0.23198(6)
C30 C 0.33547(6) 0.02298(14) 0.25267(7)
N5 N 0.28390(5) -0.02864(12) 0.22751(6)
C31 C 0.29553(6) -0.12007(13) 0.18922(7)
C32 C 0.35610(6) -0.12616(13) 0.19209(7)
C33 C 0.39217(6) -0.20720(14) 0.16091(7)
C34 C 0.39735(7) -0.33328(16) 0.17475(9)
H29 H 0.3794 -0.3667 0.2061
C35 C 0.42854(8) -0.41033(17) 0.14301(10)
H30 H 0.4314 -0.4964 0.1523
C36 C 0.45550(8) -0.36223(19) 0.09783(9)
H31 H 0.4761 -0.4155 0.0755
C37 C 0.45239(7) -0.23653(18) 0.08525(8)
H32 H 0.4716 -0.2031 0.0549
C38 C 0.42115(7) -0.15918(16) 0.11696(8)
H33 H 0.4195 -0.0727 0.1086
C39 C 0.24644(6) -0.18401(14) 0.14729(7)
C40 C 0.19069(7) -0.13039(15) 0.13831(7)
H34 H 0.1853 -0.0569 0.1603
C41 C 0.14320(7) -0.18257(16) 0.09791(7)
H35 H 0.1056 -0.1450 0.0926
C42 C 0.15023(7) -0.28957(16) 0.06508(7)
H36 H 0.1177 -0.3252 0.0372
C43 C 0.20516(7) -0.34379(15) 0.07342(7)
H37 H 0.2103 -0.4170 0.0511
C44 C 0.25289(7) -0.29203(14) 0.11418(7)
H38 H 0.2903 -0.3304 0.1196
C45 C 0.34313(7) 0.12594(14) 0.29444(7)
H39 H 0.3816 0.1541 0.3122
C46 C 0.29653(7) 0.18402(14) 0.30910(7)
H40 H 0.2588 0.1532 0.2904
C47 C 0.29879(7) 0.28662(14) 0.34985(7)
N6 N 0.25024(5) 0.34095(12) 0.35865(6)
C48 C 0.26271(7) 0.43793(14) 0.40315(7)
C49 C 0.32310(7) 0.44709(14) 0.42266(7)
C50 C 0.35214(7) 0.35281(14) 0.38813(7)
C51 C 0.22317(7) 0.51188(14) 0.42547(7)
H41 H 0.1820 0.5035 0.4110
C52 C 0.24715(8) 0.59901(15) 0.47026(7)
H42 H 0.2219 0.6520 0.4870
C53 C 0.30759(8) 0.60983(15) 0.49089(7)
H43 H 0.3228 0.6701 0.5216
C54 C 0.34632(7) 0.53407(15) 0.46746(7)
H44 H 0.3875 0.5419 0.4819
C55 C 0.18992(7) 0.31362(15) 0.32724(7)
H45 H 0.1900 0.2595 0.2915
H46 H 0.1695 0.3911 0.3129
H47 H 0.1697 0.2719 0.3563
C56 C 0.39300(7) 0.26768(16) 0.43376(8)
H48 H 0.3704 0.2250 0.4603
H49 H 0.4240 0.3174 0.4597
H50 H 0.4107 0.2063 0.4104
C57 C 0.38573(8) 0.41961(16) 0.34397(8)
H51 H 0.4033 0.3578 0.3207
H52 H 0.4167 0.4715 0.3684
H53 H 0.3585 0.4718 0.3148
C58 C 0.44228(7) 0.00363(15) 0.24624(8)
H54 H 0.4480 0.0722 0.2189
H55 H 0.4668 -0.0668 0.2396
H56 H 0.4533 0.0306 0.2897
P1 P 0.512926(19) 0.24748(4) 0.61591(2)
F1 F 0.48056(6) 0.37808(12) 0.61116(7)
F2 F 0.54567(5) 0.11547(10) 0.62086(5)
F3 F 0.45893(5) 0.18791(13) 0.56856(6)
F4 F 0.48306(4) 0.21000(10) 0.67224(5)
F5 F 0.56756(5) 0.30263(10) 0.66441(6)
F6 F 0.54352(6) 0.28525(13) 0.56038(6)
P2 P 0.028121(16) 0.36473(4) 0.315565(17)
F7 F 0.00111(4) 0.49561(9) 0.29037(4)
F8 F 0.05563(4) 0.23312(9) 0.34128(4)
F9 F -0.02022(4) 0.29438(9) 0.26467(4)
F10 F -0.01482(4) 0.35967(9) 0.36361(4)
F11 F 0.07684(4) 0.43402(10) 0.36677(4)
F12 F 0.07098(4) 0.36787(9) 0.26751(4)
loop_
_geom_bond_atom_site_label_1
_geom_bond_atom_site_label_2
_geom_bond_site_symmetry_1
_geom_bond_site_symmetry_2
N1 C1 1_555 1_555
C1 N2 1_555 1_555
N2 C2 1_555 1_555
C2 C3 1_555 1_555
C3 N1 1_555 1_555
C4 C3 1_555 1_555
C5 C4 1_555 1_555
H1 C5 1_555 1_555
C6 C5 1_555 1_555
H2 C6 1_555 1_555
C7 C6 1_555 1_555
H3 C7 1_555 1_555
C8 C7 1_555 1_555
H4 C8 1_555 1_555
C9 C4 1_555 1_555
H5 C9 1_555 1_555
C10 C2 1_555 1_555
C11 C10 1_555 1_555
H6 C11 1_555 1_555
C12 C11 1_555 1_555
H7 C12 1_555 1_555
C13 C12 1_555 1_555
H8 C13 1_555 1_555
C14 C13 1_555 1_555
H9 C14 1_555 1_555
C15 C10 1_555 1_555
H10 C15 1_555 1_555
C16 C1 1_555 1_555
H11 C16 1_555 1_555
C17 C16 1_555 1_555
H12 C17 1_555 1_555
C18 C17 1_555 1_555
N3 C18 1_555 1_555
C19 N3 1_555 1_555
C20 C19 1_555 1_555
C21 C18 1_555 1_555
C22 C19 1_555 1_555
H13 C22 1_555 1_555
C23 C22 1_555 1_555
H14 C23 1_555 1_555
C24 C23 1_555 1_555
H15 C24 1_555 1_555
C25 C20 1_555 1_555
H16 C25 1_555 1_555
C26 N3 1_555 1_555
H17 C26 1_555 1_555
H18 C26 1_555 1_555
H19 C26 1_555 1_555
C27 C21 1_555 1_555
H20 C27 1_555 1_555
H21 C27 1_555 1_555
H22 C27 1_555 1_555
C28 C21 1_555 1_555
H23 C28 1_555 1_555
H24 C28 1_555 1_555
H25 C28 1_555 1_555
C29 N1 1_555 1_555
H26 C29 1_555 1_555
H27 C29 1_555 1_555
H28 C29 1_555 1_555
N4 C30 1_555 1_555
C30 N5 1_555 1_555
N5 C31 1_555 1_555
C31 C32 1_555 1_555
C32 N4 1_555 1_555
C33 C32 1_555 1_555
C34 C33 1_555 1_555
H29 C34 1_555 1_555
C35 C34 1_555 1_555
H30 C35 1_555 1_555
C36 C35 1_555 1_555
H31 C36 1_555 1_555
C37 C36 1_555 1_555
H32 C37 1_555 1_555
C38 C33 1_555 1_555
H33 C38 1_555 1_555
C39 C31 1_555 1_555
C40 C39 1_555 1_555
H34 C40 1_555 1_555
C41 C40 1_555 1_555
H35 C41 1_555 1_555
C42 C41 1_555 1_555
H36 C42 1_555 1_555
C43 C42 1_555 1_555
H37 C43 1_555 1_555
C44 C39 1_555 1_555
H38 C44 1_555 1_555
C45 C30 1_555 1_555
H39 C45 1_555 1_555
C46 C45 1_555 1_555
H40 C46 1_555 1_555
C47 C46 1_555 1_555
N6 C47 1_555 1_555
C48 N6 1_555 1_555
C49 C48 1_555 1_555
C50 C47 1_555 1_555
C51 C48 1_555 1_555
H41 C51 1_555 1_555
C52 C51 1_555 1_555
H42 C52 1_555 1_555
C53 C52 1_555 1_555
H43 C53 1_555 1_555
C54 C49 1_555 1_555
H44 C54 1_555 1_555
C55 N6 1_555 1_555
H45 C55 1_555 1_555
H46 C55 1_555 1_555
H47 C55 1_555 1_555
C56 C50 1_555 1_555
H48 C56 1_555 1_555
H49 C56 1_555 1_555
H50 C56 1_555 1_555
C57 C50 1_555 1_555
H51 C57 1_555 1_555
H52 C57 1_555 1_555
H53 C57 1_555 1_555
C58 N4 1_555 1_555
H54 C58 1_555 1_555
H55 C58 1_555 1_555
H56 C58 1_555 1_555
P1 F1 1_555 1_555
F2 P1 1_555 1_555
F3 P1 1_555 1_555
F4 P1 1_555 1_555
F5 P1 1_555 1_555
F6 P1 1_555 1_555
P2 F7 1_555 1_555
F8 P2 1_555 1_555
F9 P2 1_555 1_555
F10 P2 1_555 1_555
F11 P2 1_555 1_555
F12 P2 1_555 1_555
C8 C9 1_555 1_555
C14 C15 1_555 1_555
C20 C21 1_555 1_555
C24 C25 1_555 1_555
C37 C38 1_555 1_555
C43 C44 1_555 1_555
C49 C50 1_555 1_555
C53 C54 1_555 1_555

#END
