
#######################################################################
#
#                 Cambridge Crystallographic Data Centre
#                                CCDC 
#
#######################################################################
#
# If this CIF has been generated from an entry in the Cambridge 
# Structural Database, then it will include bibliographic, chemical, 
# crystal, experimental, refinement or atomic coordinate data resulting 
# from the CCDC's data processing and validation procedures.
#
#######################################################################

data_XAJYIT
_chemical_formula_moiety         'C28 H35 Cl3 N2 O2'
_chemical_name_systematic        
2,6-Dichloro-3-((Z)-2-chloro-2-(4-(diisopropylamino)phenyl)vinyl)-5-((E)-2-(diisopropylamino)vinyl)-1,4-benzoquinone
_symmetry_cell_setting           monoclinic
_symmetry_space_group_name_H-M   'P 21/c'
_symmetry_Int_Tables_number      14
_space_group_name_Hall           '-P 2ybc'
loop_
_symmetry_equiv_pos_site_id
_symmetry_equiv_pos_as_xyz
1 x,y,z
2 -x,1/2+y,1/2-z
3 -x,-y,-z
4 x,1/2-y,1/2+z
_cell_length_a                   8.0457(2)
_cell_length_b                   12.1770(3)
_cell_length_c                   28.6882(8)
_cell_angle_alpha                90
_cell_angle_beta                 101.477(2)
_cell_angle_gamma                90
_cell_volume                     2754.45
_exptl_crystal_colour            black
_exptl_crystal_description       plate
_chemical_melting_point          '183-184 deg.C'
_cell_formula_units_Z            4
loop_
_atom_site_label
_atom_site_type_symbol
_atom_site_fract_x
_atom_site_fract_y
_atom_site_fract_z
Cl1 Cl 0.12004(5) 0.34689(4) 0.59592(2)
Cl2 Cl 0.76978(5) 0.58009(3) 0.51493(2)
Cl3 Cl 0.43325(6) 0.50469(3) 0.65651(2)
O1 O 0.63922(15) 0.19890(10) 0.56811(4)
O2 O 0.61268(16) 0.62776(10) 0.59639(4)
N1 N 0.76529(18) 0.18358(12) 0.44183(5)
N2 N -0.02391(17) -0.09362(11) 0.72146(5)
C1 C 0.8040(3) 0.24823(17) 0.36321(7)
H1 H 0.8005 0.1772 0.3485
H2 H 0.8707 0.2973 0.3482
H3 H 0.6909 0.2765 0.3598
C2 C 0.8836(2) 0.23809(14) 0.41595(7)
H4 H 0.9034 0.3126 0.4287
C3 C 0.7109(2) 0.22989(15) 0.47794(6)
H5 H 0.6414 0.1865 0.4927
C4 C 0.7439(2) 0.33388(14) 0.49647(6)
H6 H 0.8127 0.3796 0.4825
C5 C 0.67964(19) 0.37511(13) 0.53538(5)
C6 C 0.60995(19) 0.29771(13) 0.56756(5)
C7 C 0.50908(19) 0.34139(13) 0.60174(5)
C8 C 0.4252(2) 0.25781(13) 0.62577(5)
H7 H 0.4946 0.2030 0.6417
C9 C 0.2612(2) 0.25121(13) 0.62746(6)
C10 C 0.1849(2) 0.16543(13) 0.65234(5)
C11 C 0.2828(2) 0.10594(13) 0.68958(6)
H8 H 0.3971 0.1233 0.6992
C12 C 0.2158(2) 0.02227(13) 0.71253(6)
H9 H 0.2863 -0.0157 0.7369
C13 C 0.0424(2) -0.00717(12) 0.69996(5)
C14 C 0.0506(2) -0.13212(15) 0.77016(6)
H10 H -0.0379 -0.1770 0.7798
C15 C 0.0846(3) -0.03991(17) 0.80650(6)
H11 H 0.1790 0.0032 0.8011
H12 H 0.1105 -0.0706 0.8379
H13 H -0.0140 0.0059 0.8034
C16 C 1.0529(2) 0.17957(16) 0.42456(7)
H14 H 1.0978 0.1757 0.4581
H15 H 1.1304 0.2192 0.4093
H16 H 1.0380 0.1066 0.4117
C17 C 0.7014(2) 0.07238(14) 0.42577(6)
H17 H 0.7513 0.0527 0.3984
C18 C 0.7563(3) -0.01400(16) 0.46381(7)
H18 H 0.8779 -0.0180 0.4712
H19 H 0.7108 -0.0840 0.4524
H20 H 0.7151 0.0054 0.4919
C19 C 0.5098(2) 0.07423(16) 0.40887(8)
H21 H 0.4565 0.0859 0.4356
H22 H 0.4728 0.0054 0.3941
H23 H 0.4792 0.1326 0.3863
C20 C 0.6816(2) 0.48452(13) 0.54780(5)
C21 C 0.6080(2) 0.53007(13) 0.58545(6)
C22 C 0.5185(2) 0.44943(14) 0.61129(6)
C23 C 0.0134(2) 0.13786(14) 0.64007(6)
H24 H -0.0562 0.1763 0.6157
C24 C -0.0556(2) 0.05517(14) 0.66304(6)
H25 H -0.1708 0.0400 0.6539
C25 C -0.1971(2) -0.13123(14) 0.70187(6)
H26 H -0.2237 -0.1076 0.6686
C26 C -0.3275(2) -0.07789(17) 0.72633(8)
H27 H -0.3080 -0.1007 0.7590
H28 H -0.4393 -0.0998 0.7107
H29 H -0.3177 0.0005 0.7248
C27 C -0.2115(3) -0.25543(15) 0.70172(7)
H30 H -0.1270 -0.2865 0.6863
H31 H -0.3222 -0.2767 0.6849
H32 H -0.1945 -0.2817 0.7339
C28 C 0.2016(2) -0.20953(16) 0.77229(8)
H33 H 0.1724 -0.2663 0.7489
H34 H 0.2303 -0.2420 0.8033
H35 H 0.2971 -0.1689 0.7660
loop_
_geom_bond_atom_site_label_1
_geom_bond_atom_site_label_2
_geom_bond_site_symmetry_1
_geom_bond_site_symmetry_2
Cl1 C9 1_555 1_555
Cl2 C20 1_555 1_555
Cl3 C22 1_555 1_555
O1 C6 1_555 1_555
O2 C21 1_555 1_555
N1 C2 1_555 1_555
N2 C13 1_555 1_555
C1 H1 1_555 1_555
H2 C1 1_555 1_555
H3 C1 1_555 1_555
C2 C1 1_555 1_555
H4 C2 1_555 1_555
C3 N1 1_555 1_555
H5 C3 1_555 1_555
C4 C3 1_555 1_555
H6 C4 1_555 1_555
C5 C4 1_555 1_555
C6 C5 1_555 1_555
C7 C6 1_555 1_555
C8 C7 1_555 1_555
H7 C8 1_555 1_555
C9 C8 1_555 1_555
C10 C9 1_555 1_555
C11 C10 1_555 1_555
H8 C11 1_555 1_555
C12 C11 1_555 1_555
H9 C12 1_555 1_555
C13 C12 1_555 1_555
C14 N2 1_555 1_555
H10 C14 1_555 1_555
C15 C14 1_555 1_555
H11 C15 1_555 1_555
H12 C15 1_555 1_555
H13 C15 1_555 1_555
C16 C2 1_555 1_555
H14 C16 1_555 1_555
H15 C16 1_555 1_555
H16 C16 1_555 1_555
C17 N1 1_555 1_555
H17 C17 1_555 1_555
C18 C17 1_555 1_555
H18 C18 1_555 1_555
H19 C18 1_555 1_555
H20 C18 1_555 1_555
C19 C17 1_555 1_555
H21 C19 1_555 1_555
H22 C19 1_555 1_555
H23 C19 1_555 1_555
C20 C5 1_555 1_555
C21 C20 1_555 1_555
C22 C7 1_555 1_555
C23 C10 1_555 1_555
H24 C23 1_555 1_555
C24 C13 1_555 1_555
H25 C24 1_555 1_555
C25 N2 1_555 1_555
H26 C25 1_555 1_555
C26 C25 1_555 1_555
H27 C26 1_555 1_555
H28 C26 1_555 1_555
H29 C26 1_555 1_555
C27 C25 1_555 1_555
H30 C27 1_555 1_555
H31 C27 1_555 1_555
H32 C27 1_555 1_555
C28 C14 1_555 1_555
H33 C28 1_555 1_555
H34 C28 1_555 1_555
H35 C28 1_555 1_555
C21 C22 1_555 1_555
C23 C24 1_555 1_555

#END
