
#######################################################################
#
#                 Cambridge Crystallographic Data Centre
#                                CCDC 
#
#######################################################################
#
# If this CIF has been generated from an entry in the Cambridge 
# Structural Database, then it will include bibliographic, chemical, 
# crystal, experimental, refinement or atomic coordinate data resulting 
# from the CCDC's data processing and validation procedures.
#
#######################################################################

data_XALBEU
_chemical_formula_moiety         'C19 H15 N1 O4 S1'
_chemical_name_systematic        
'7-methyl-6H-benzo[c]chromen-1-yl pyridine-2-sulfonate'
_symmetry_cell_setting           monoclinic
_symmetry_space_group_name_H-M   'P 21/n'
_symmetry_Int_Tables_number      14
_space_group_name_Hall           '-P 2yn'
loop_
_symmetry_equiv_pos_site_id
_symmetry_equiv_pos_as_xyz
1 x,y,z
2 1/2-x,1/2+y,1/2-z
3 -x,-y,-z
4 1/2+x,1/2-y,1/2+z
_cell_length_a                   10.786(2)
_cell_length_b                   10.726(2)
_cell_length_c                   14.291(3)
_cell_angle_alpha                90
_cell_angle_beta                 98.556(3)
_cell_angle_gamma                90
_cell_volume                     1634.93
_exptl_crystal_colour            colorless
_exptl_crystal_description       block
_cell_formula_units_Z            4
loop_
_atom_site_label
_atom_site_type_symbol
_atom_site_fract_x
_atom_site_fract_y
_atom_site_fract_z
S1 S 0.89990(4) 0.91924(4) 0.20498(3)
N1 N 0.75906(15) 1.02013(14) 0.31969(11)
O1 O 0.98219(13) 1.02145(15) 0.22924(11)
O2 O 0.94759(13) 0.79753(14) 0.19294(10)
O3 O 0.81489(12) 0.96217(12) 0.10818(9)
O4 O 0.50935(12) 0.66607(13) -0.04383(9)
C1 C 0.67323(19) 1.01739(19) 0.37799(14)
H1 H 0.6508 1.0921 0.4040
C2 C 0.6162(2) 0.9090(2) 0.40155(14)
H2 H 0.5568 0.9112 0.4425
C3 C 0.6482(2) 0.7980(2) 0.36370(15)
H3 H 0.6109 0.7240 0.3788
C4 C 0.73656(19) 0.79757(18) 0.30295(14)
H4 H 0.7602 0.7242 0.2757
C5 C 0.78790(16) 0.91077(16) 0.28455(12)
C6 C 0.77229(16) 0.87028(17) 0.03866(12)
C7 C 0.85349(18) 0.8396(2) -0.02385(13)
H5 H 0.9321 0.8768 -0.0189
C8 C 0.81646(19) 0.7528(2) -0.09376(14)
H6 H 0.8689 0.7340 -0.1379
C9 C 0.70233(18) 0.6940(2) -0.09848(13)
H7 H 0.6788 0.6332 -0.1441
C10 C 0.62273(16) 0.72614(17) -0.03458(12)
C11 C 0.65188(15) 0.81982(16) 0.03368(11)
C12 C 0.55093(16) 0.86041(16) 0.08706(11)
C13 C 0.45285(16) 0.77636(18) 0.09171(12)
C14 C 0.46184(18) 0.65183(19) 0.04481(14)
H8 H 0.5171 0.5976 0.0863
H9 H 0.3796 0.6133 0.0335
C15 C 0.35131(17) 0.8076(2) 0.13829(13)
C16 C 0.3498(2) 0.9257(2) 0.17774(14)
H10 H 0.2835 0.9481 0.2090
C17 C 0.4446(2) 1.01064(19) 0.17174(13)
H11 H 0.4412 1.0892 0.1987
C18 C 0.54430(17) 0.97940(17) 0.12584(12)
H12 H 0.6070 1.0375 0.1208
C19 C 0.2473(2) 0.7154(3) 0.14671(17)
H13 H 0.1850 0.7543 0.1785
H14 H 0.2812 0.6442 0.1823
H15 H 0.2097 0.6894 0.0847
loop_
_geom_bond_atom_site_label_1
_geom_bond_atom_site_label_2
_geom_bond_site_symmetry_1
_geom_bond_site_symmetry_2
S1 O1 1_555 1_555
N1 C1 1_555 1_555
O2 S1 1_555 1_555
O3 S1 1_555 1_555
O4 C10 1_555 1_555
C1 H1 1_555 1_555
C2 C1 1_555 1_555
H2 C2 1_555 1_555
C3 C2 1_555 1_555
H3 C3 1_555 1_555
C4 C3 1_555 1_555
H4 C4 1_555 1_555
C5 S1 1_555 1_555
C6 O3 1_555 1_555
C7 C6 1_555 1_555
H5 C7 1_555 1_555
C8 C7 1_555 1_555
H6 C8 1_555 1_555
C9 C8 1_555 1_555
H7 C9 1_555 1_555
C10 C9 1_555 1_555
C11 C6 1_555 1_555
C12 C11 1_555 1_555
C13 C12 1_555 1_555
C14 O4 1_555 1_555
H8 C14 1_555 1_555
H9 C14 1_555 1_555
C15 C13 1_555 1_555
C16 C15 1_555 1_555
H10 C16 1_555 1_555
C17 C16 1_555 1_555
H11 C17 1_555 1_555
C18 C12 1_555 1_555
H12 C18 1_555 1_555
C19 C15 1_555 1_555
H13 C19 1_555 1_555
H14 C19 1_555 1_555
H15 C19 1_555 1_555
N1 C5 1_555 1_555
C4 C5 1_555 1_555
C10 C11 1_555 1_555
C13 C14 1_555 1_555
C17 C18 1_555 1_555

#END
