
#######################################################################
#
#                 Cambridge Crystallographic Data Centre
#                                CCDC 
#
#######################################################################
#
# If this CIF has been generated from an entry in the Cambridge 
# Structural Database, then it will include bibliographic, chemical, 
# crystal, experimental, refinement or atomic coordinate data resulting 
# from the CCDC's data processing and validation procedures.
#
#######################################################################

data_XALSAG
_chemical_formula_moiety         'C23 H16 O6'
_chemical_name_systematic        
'5,10-Dioxo-5,7,8,10-tetrahydrodibenzo[f,h][1,4]dioxecin-7-yl benzoate'
_symmetry_cell_setting           monoclinic
_symmetry_space_group_name_H-M   'P 21/c'
_symmetry_Int_Tables_number      14
_space_group_name_Hall           '-P 2ybc'
loop_
_symmetry_equiv_pos_site_id
_symmetry_equiv_pos_as_xyz
1 x,y,z
2 -x,1/2+y,1/2-z
3 -x,-y,-z
4 x,1/2-y,1/2+z
_cell_length_a                   9.5616(3)
_cell_length_b                   9.3551(3)
_cell_length_c                   20.8303(6)
_cell_angle_alpha                90
_cell_angle_beta                 100.119(1)
_cell_angle_gamma                90
_cell_volume                     1834.28
_exptl_crystal_colour            colorless
_exptl_crystal_description       plate
_cell_formula_units_Z            4
loop_
_atom_site_label
_atom_site_type_symbol
_atom_site_fract_x
_atom_site_fract_y
_atom_site_fract_z
O1 O 0.28433(7) 0.77300(7) 0.17213(3)
O2 O 0.56805(7) 0.74423(8) 0.22567(3)
O3 O 0.22791(7) 0.77972(7) 0.27454(3)
O4 O 0.38689(7) 0.96741(8) 0.13393(3)
O5 O 0.52247(7) 0.54999(7) 0.16006(3)
O6 O 0.15084(8) 1.00591(8) 0.25431(4)
C1 C 0.33503(9) 0.85061(10) 0.12546(4)
C2 C 0.32006(9) 0.76520(10) 0.06404(4)
C3 C 0.18782(9) 0.70747(11) 0.03734(4)
H1 H 0.1084 0.7234 0.0581
C4 C 0.17200(10) 0.62696(11) -0.01946(4)
H2 H 0.0819 0.5886 -0.0378
C5 C 0.28905(10) 0.60291(11) -0.04925(4)
H3 H 0.2787 0.5481 -0.0882
C6 C 0.42111(10) 0.65863(11) -0.02235(4)
H4 H 0.5001 0.6415 -0.0433
C7 C 0.43994(9) 0.73944(10) 0.03501(4)
C8 C 0.58683(9) 0.78668(10) 0.06400(4)
C9 C 0.66463(10) 0.86739(11) 0.02597(5)
H5 H 0.6214 0.8955 -0.0168
C10 C 0.80433(11) 0.90716(12) 0.04981(5)
H6 H 0.8558 0.9615 0.0233
C11 C 0.86886(10) 0.86762(11) 0.11233(5)
H7 H 0.9650 0.8928 0.1281
C12 C 0.79252(9) 0.79123(10) 0.15163(5)
H8 H 0.8352 0.7671 0.1950
C13 C 0.65281(9) 0.74970(10) 0.12754(4)
C14 C 0.57434(8) 0.66669(10) 0.17140(4)
C15 C 0.46005(9) 0.70841(11) 0.26344(4)
H9 H 0.4957 0.7230 0.3106
H10 H 0.4300 0.6076 0.2562
C16 C 0.33753(9) 0.80920(10) 0.23927(4)
H11 H 0.3680 0.9115 0.2440
C17 C 0.13629(9) 0.89115(10) 0.27828(4)
C18 C 0.02141(9) 0.85261(10) 0.31436(4)
C19 C 0.01407(9) 0.71859(10) 0.34252(4)
H12 H 0.0839 0.6482 0.3390
C20 C -0.09626(10) 0.68857(11) 0.37584(5)
H13 H -0.1018 0.5973 0.3953
C21 C -0.19839(10) 0.79140(11) 0.38084(5)
H14 H -0.2737 0.7700 0.4036
C22 C -0.19132(10) 0.92533(12) 0.35283(5)
H15 H -0.2615 0.9954 0.3564
C23 C -0.08113(9) 0.95647(11) 0.31956(5)
H16 H -0.0755 1.0480 0.3004
loop_
_geom_bond_atom_site_label_1
_geom_bond_atom_site_label_2
_geom_bond_site_symmetry_1
_geom_bond_site_symmetry_2
O1 C1 1_555 1_555
O2 C14 1_555 1_555
O3 C16 1_555 1_555
O4 C1 1_555 1_555
O5 C14 1_555 1_555
O6 C17 1_555 1_555
C1 C2 1_555 1_555
C2 C3 1_555 1_555
C3 H1 1_555 1_555
C4 C3 1_555 1_555
H2 C4 1_555 1_555
C5 C4 1_555 1_555
H3 C5 1_555 1_555
C6 C5 1_555 1_555
H4 C6 1_555 1_555
C7 C2 1_555 1_555
C8 C7 1_555 1_555
C9 C8 1_555 1_555
H5 C9 1_555 1_555
C10 C9 1_555 1_555
H6 C10 1_555 1_555
C11 C10 1_555 1_555
H7 C11 1_555 1_555
C12 C11 1_555 1_555
H8 C12 1_555 1_555
C13 C8 1_555 1_555
C14 C13 1_555 1_555
C15 O2 1_555 1_555
H9 C15 1_555 1_555
H10 C15 1_555 1_555
C16 O1 1_555 1_555
H11 C16 1_555 1_555
C17 O3 1_555 1_555
C18 C17 1_555 1_555
C19 C18 1_555 1_555
H12 C19 1_555 1_555
C20 C19 1_555 1_555
H13 C20 1_555 1_555
C21 C20 1_555 1_555
H14 C21 1_555 1_555
C22 C21 1_555 1_555
H15 C22 1_555 1_555
C23 C18 1_555 1_555
H16 C23 1_555 1_555
C6 C7 1_555 1_555
C12 C13 1_555 1_555
C15 C16 1_555 1_555
C22 C23 1_555 1_555

#END
