
#######################################################################
#
#                 Cambridge Crystallographic Data Centre
#                                CCDC 
#
#######################################################################
#
# If this CIF has been generated from an entry in the Cambridge 
# Structural Database, then it will include bibliographic, chemical, 
# crystal, experimental, refinement or atomic coordinate data resulting 
# from the CCDC's data processing and validation procedures.
#
#######################################################################

data_XALWOW
_chemical_formula_moiety         'C14 H18 Cl1 N2 O1 1+,C2 H1 O4 1-'
_chemical_name_systematic        
'(+)-4-(4-Chlorophenyl)-6-(methoxyimino)-1-azoniabicyclo(3.2.1)octane monohydrogenoxalate'
_symmetry_cell_setting           monoclinic
_symmetry_space_group_name_H-M   'P 21'
_symmetry_Int_Tables_number      4
_space_group_name_Hall           'P 2yb'
loop_
_symmetry_equiv_pos_site_id
_symmetry_equiv_pos_as_xyz
1 x,y,z
2 -x,1/2+y,-z
_cell_length_a                   12.999(6)
_cell_length_b                   7.150(3)
_cell_length_c                   19.413(6)
_cell_angle_alpha                90
_cell_angle_beta                 108.39(3)
_cell_angle_gamma                90
_cell_volume                     1712.16
_cell_formula_units_Z            4
loop_
_atom_site_label
_atom_site_type_symbol
_atom_site_fract_x
_atom_site_fract_y
_atom_site_fract_z
Cl1 Cl -0.86739(17) 0.1584(5) -0.49772(11)
N1 N -0.2587(5) 0.0867(9) -0.1374(3)
H1 H -0.195(6) 0.050(13) -0.093(4)
C1 C -0.3569(5) 0.1064(11) -0.1142(3)
H2 H -0.3459 0.2072 -0.0792
H3 H -0.3680 -0.0081 -0.0907
C2 C -0.4572(5) 0.1472(12) -0.1785(3)
H4 H -0.4544 0.2755 -0.1940
H5 H -0.5213 0.1336 -0.1635
C3 C -0.4661(5) 0.0149(9) -0.2428(3)
H6 H -0.4796 -0.1104 -0.2271
C4 C -0.5639(5) 0.0637(9) -0.3085(3)
C5 C -0.6658(5) 0.0520(11) -0.3000(4)
H7 H -0.6716 0.0231 -0.2547
C6 C -0.7595(6) 0.0827(12) -0.3581(4)
H8 H -0.8274 0.0755 -0.3517
C7 C -0.7503(6) 0.1237(12) -0.4248(4)
C8 C -0.6503(6) 0.1397(12) -0.4341(3)
H9 H -0.6450 0.1729 -0.4791
C9 C -0.5575(5) 0.1066(11) -0.3766(3)
H10 H -0.4901 0.1133 -0.3837
C10 C -0.3574(5) 0.0051(10) -0.2579(4)
H11 H -0.3618 -0.0650 -0.3021
C11 C -0.3082(5) 0.2007(10) -0.2567(4)
N2 N -0.3174(5) 0.2936(10) -0.3146(3)
O1 O -0.2583(5) 0.4652(9) -0.2956(3)
C12 C -0.2665(9) 0.5634(16) -0.3602(5)
H12 H -0.2267 0.6786 -0.3485
H13 H -0.3413 0.5901 -0.3855
H14 H -0.2370 0.4885 -0.3905
C13 C -0.2418(6) 0.2519(12) -0.1811(4)
H15 H -0.2676 0.3667 -0.1657
H16 H -0.1660 0.2662 -0.1772
C14 C -0.2727(6) -0.0761(11) -0.1895(4)
H17 H -0.2999 -0.1863 -0.1718
H18 H -0.2053 -0.1065 -0.1985
Cl2 Cl -0.3453(2) 0.1463(4) 0.49352(11)
N3 N -0.0914(4) 0.0737(9) 0.1283(3)
H19 H -0.053(5) 0.068(10) 0.094(3)
C15 C -0.1103(7) -0.1177(11) 0.1544(5)
H20 H -0.0449 -0.1919 0.1636
H21 H -0.1677 -0.1799 0.1169
C16 C -0.1415(6) -0.1047(11) 0.2230(4)
H22 H -0.0776 -0.0730 0.2632
H23 H -0.1666 -0.2263 0.2331
C17 C -0.2293(5) 0.0394(10) 0.2188(4)
H24 H -0.2961 -0.0069 0.1833
C18 C -0.2534(5) 0.0675(10) 0.2890(3)
C19 C -0.1745(6) 0.0951(11) 0.3560(4)
H25 H -0.1017 0.0945 0.3590
C20 C -0.2026(7) 0.1232(12) 0.4176(4)
H26 H -0.1488 0.1457 0.4615
C21 C -0.3083(7) 0.1186(12) 0.4155(4)
C22 C -0.3899(6) 0.0868(11) 0.3499(4)
H27 H -0.4623 0.0809 0.3479
C23 C -0.3604(6) 0.0644(10) 0.2884(4)
H28 H -0.4147 0.0463 0.2444
C24 C -0.1987(5) 0.2254(9) 0.1877(3)
H29 H -0.2491 0.3272 0.1879
C25 C -0.0831(5) 0.2800(10) 0.2236(4)
N4 N -0.0539(4) 0.4003(9) 0.2746(3)
O2 O 0.0598(4) 0.4250(9) 0.2951(3)
C26 C 0.0930(7) 0.5577(15) 0.3527(5)
H30 H 0.1703 0.5724 0.3673
H31 H 0.0722 0.5142 0.3932
H32 H 0.0588 0.6758 0.3365
C27 C -0.0128(5) 0.1882(12) 0.1859(4)
H33 H 0.0415 0.1096 0.2190
H34 H 0.0231 0.2802 0.1648
C28 C -0.1938(5) 0.1840(12) 0.1111(3)
H35 H -0.2558 0.1113 0.0829
H36 H -0.1895 0.2981 0.0851
C29 C 0.1049(5) 0.0689(10) 0.0237(4)
C30 C -0.0081(5) 0.0582(10) -0.0351(3)
O3 O 0.1138(4) 0.0798(9) 0.0872(2)
O4 O 0.1846(4) 0.0653(9) -0.0028(2)
H37 H 0.245(6) 0.069(13) 0.032(4)
O5 O -0.0113(4) 0.0495(8) -0.0989(2)
O6 O -0.0865(3) 0.0626(9) -0.0108(2)
C31 C 0.4845(5) -0.0018(10) 0.0289(3)
C32 C 0.4593(5) 0.1249(10) 0.0835(3)
O7 O 0.5738(4) -0.0484(13) 0.0335(4)
O8 O 0.4008(4) -0.0590(9) -0.0241(3)
O9 O 0.3739(4) 0.0990(7) 0.0982(2)
O10 O 0.5303(4) 0.2443(7) 0.1140(2)
H38 H 0.573(6) 0.291(12) 0.082(4)
loop_
_geom_bond_atom_site_label_1
_geom_bond_atom_site_label_2
_geom_bond_site_symmetry_1
_geom_bond_site_symmetry_2
Cl1 C7 1_555 1_555
N1 H1 1_555 1_555
C1 N1 1_555 1_555
H2 C1 1_555 1_555
H3 C1 1_555 1_555
C2 C1 1_555 1_555
H4 C2 1_555 1_555
H5 C2 1_555 1_555
C3 C2 1_555 1_555
H6 C3 1_555 1_555
C4 C3 1_555 1_555
C5 C4 1_555 1_555
H7 C5 1_555 1_555
C6 C5 1_555 1_555
H8 C6 1_555 1_555
C7 C6 1_555 1_555
C8 C7 1_555 1_555
H9 C8 1_555 1_555
C9 C4 1_555 1_555
H10 C9 1_555 1_555
C10 C3 1_555 1_555
H11 C10 1_555 1_555
C11 C10 1_555 1_555
N2 C11 1_555 1_555
O1 N2 1_555 1_555
C12 O1 1_555 1_555
H12 C12 1_555 1_555
H13 C12 1_555 1_555
H14 C12 1_555 1_555
C13 N1 1_555 1_555
H15 C13 1_555 1_555
H16 C13 1_555 1_555
C14 N1 1_555 1_555
H17 C14 1_555 1_555
H18 C14 1_555 1_555
Cl2 C21 1_555 1_555
N3 H19 1_555 1_555
C15 N3 1_555 1_555
H20 C15 1_555 1_555
H21 C15 1_555 1_555
C16 C15 1_555 1_555
H22 C16 1_555 1_555
H23 C16 1_555 1_555
C17 C16 1_555 1_555
H24 C17 1_555 1_555
C18 C17 1_555 1_555
C19 C18 1_555 1_555
H25 C19 1_555 1_555
C20 C19 1_555 1_555
H26 C20 1_555 1_555
C21 C20 1_555 1_555
C22 C21 1_555 1_555
H27 C22 1_555 1_555
C23 C18 1_555 1_555
H28 C23 1_555 1_555
C24 C17 1_555 1_555
H29 C24 1_555 1_555
C25 C24 1_555 1_555
N4 C25 1_555 1_555
O2 N4 1_555 1_555
C26 O2 1_555 1_555
H30 C26 1_555 1_555
H31 C26 1_555 1_555
H32 C26 1_555 1_555
C27 N3 1_555 1_555
H33 C27 1_555 1_555
H34 C27 1_555 1_555
C28 N3 1_555 1_555
H35 C28 1_555 1_555
H36 C28 1_555 1_555
C29 C30 1_555 1_555
C30 O5 1_555 1_555
O3 C29 1_555 1_555
O4 C29 1_555 1_555
H37 O4 1_555 1_555
O6 C30 1_555 1_555
C31 C32 1_555 1_555
C32 O9 1_555 1_555
O7 C31 1_555 1_555
O8 C31 1_555 1_555
O10 C32 1_555 1_555
H38 O10 1_555 1_555
C8 C9 1_555 1_555
C10 C14 1_555 1_555
C11 C13 1_555 1_555
C22 C23 1_555 1_555
C24 C28 1_555 1_555
C25 C27 1_555 1_555

#END
