
#######################################################################
#
#                 Cambridge Crystallographic Data Centre
#                                CCDC 
#
#######################################################################
#
# If this CIF has been generated from an entry in the Cambridge 
# Structural Database, then it will include bibliographic, chemical, 
# crystal, experimental, refinement or atomic coordinate data resulting 
# from the CCDC's data processing and validation procedures.
#
#######################################################################

data_XALYAN
_chemical_formula_moiety         'C20 H23 N1 O6'
_chemical_name_systematic        
4-(4-ethoxyphenyl)-3-hydroxy-1-(3,4,5-trimethoxyphenyl)azetidin-2-one
_chemical_properties_biological  
'evaluated for anti-proliferative effects in MCF-7, HL-60 and HT-29 cancer cells, showed nanomolar activities'
_symmetry_cell_setting           monoclinic
_symmetry_space_group_name_H-M   'C 2/c'
_symmetry_Int_Tables_number      15
_space_group_name_Hall           '-C 2yn'
loop_
_symmetry_equiv_pos_site_id
_symmetry_equiv_pos_as_xyz
1 x,y,z
2 -x,y,1/2-z
3 1/2+x,1/2+y,z
4 1/2-x,1/2+y,1/2-z
5 -x,-y,-z
6 x,-y,1/2+z
7 1/2-x,1/2-y,-z
8 1/2+x,1/2-y,1/2+z
_cell_length_a                   17.9743(8)
_cell_length_b                   13.2393(6)
_cell_length_c                   15.7125(8)
_cell_angle_alpha                90
_cell_angle_beta                 99.6430(15)
_cell_angle_gamma                90
_cell_volume                     3686.23
_exptl_crystal_colour            colorless
_exptl_crystal_description       needle
_cell_formula_units_Z            8
loop_
_atom_site_label
_atom_site_type_symbol
_atom_site_fract_x
_atom_site_fract_y
_atom_site_fract_z
C1 C 0.39142(10) 0.54723(14) 0.63175(11)
C2 C 0.31584(11) 0.48997(15) 0.62294(13)
C3 C 0.35741(10) 0.40235(14) 0.58168(11)
H1 H 0.3403 0.3984 0.5179
C4 C 0.36289(10) 0.29909(14) 0.62197(12)
C5 C 0.34280(13) 0.21227(16) 0.57282(14)
H2 H 0.3235 0.2188 0.5130
C6 C 0.35045(13) 0.11697(16) 0.60953(14)
H3 H 0.3366 0.0587 0.5752
C7 C 0.37869(12) 0.10718(16) 0.69751(15)
C8 C 0.39945(12) 0.19295(17) 0.74709(14)
H4 H 0.4191 0.1866 0.8069
C9 C 0.39142(12) 0.28783(17) 0.70906(13)
H5 H 0.4057 0.3460 0.7433
C10 C 0.40384(14) -0.00027(17) 0.82065(15)
H6 H 0.3733 0.0457 0.8506
H7 H 0.4578 0.0164 0.8393
C11 C 0.38945(15) -0.10720(18) 0.84240(17)
H8 H 0.4029 -0.1170 0.9049
H9 H 0.3359 -0.1229 0.8240
H10 H 0.4201 -0.1520 0.8126
C12 C 0.50223(10) 0.44296(14) 0.59759(11)
C13 C 0.51861(10) 0.35207(14) 0.55993(11)
H11 H 0.4794 0.3061 0.5383
C14 C 0.59313(11) 0.32976(14) 0.55454(11)
C15 C 0.65065(10) 0.39769(14) 0.58546(11)
C16 C 0.63286(10) 0.48845(14) 0.62319(11)
C17 C 0.55867(10) 0.51180(14) 0.63034(11)
H12 H 0.5468 0.5729 0.6568
C18 C 0.55913(12) 0.17866(16) 0.47557(14)
H13 H 0.5289 0.2170 0.4288
H14 H 0.5266 0.1543 0.5153
H15 H 0.5827 0.1210 0.4514
C19 C 0.76406(12) 0.30563(16) 0.63031(14)
H16 H 0.8137 0.2939 0.6143
H17 H 0.7355 0.2422 0.6255
H18 H 0.7704 0.3303 0.6899
C20 C 0.67667(11) 0.65136(15) 0.67398(13)
H19 H 0.6419 0.6824 0.6264
H20 H 0.7236 0.6905 0.6850
H21 H 0.6533 0.6506 0.7260
N1 N 0.42669(8) 0.46498(11) 0.60324(9)
O1 O 0.38355(10) 0.01151(13) 0.72873(12)
O2 O 0.61640(8) 0.24238(10) 0.52109(9)
O3 O 0.72369(7) 0.37981(10) 0.57326(9)
O4 O 0.69301(7) 0.54974(10) 0.65121(9)
O5 O 0.41383(8) 0.63090(10) 0.65450(9)
O6 O 0.24981(8) 0.53231(12) 0.57894(10)
H22 H 0.2584 0.5591 0.5331
H23 H 0.2923(12) 0.4692(16) 0.6748(14)
C21? C 0.3371(10) 0.2229(6) 0.5635(6)
H24? H 0.3117 0.2397 0.5073
C22? C 0.3482(14) 0.1223(4) 0.5874(13)
H25? H 0.3306 0.0702 0.5475
C23? C 0.3853(13) 0.0978(5) 0.6697(14)
C24? C 0.4111(12) 0.1739(11) 0.7281(10)
H26? H 0.4364 0.1571 0.7844
C25? C 0.3999(9) 0.2746(8) 0.7043(5)
H27? H 0.4176 0.3266 0.7442
C26? C 0.4387(16) -0.0386(18) 0.7830(14)
H28? H 0.4300 0.0156 0.8237
H29? H 0.4938 -0.0451 0.7850
C27? C 0.4084(18) -0.1355(19) 0.811(2)
H30? H 0.4336 -0.1517 0.8697
H31? H 0.3540 -0.1289 0.8103
H32? H 0.4178 -0.1896 0.7716
O7? O 0.4038(13) -0.0108(17) 0.6972(14)
loop_
_geom_bond_atom_site_label_1
_geom_bond_atom_site_label_2
_geom_bond_site_symmetry_1
_geom_bond_site_symmetry_2
C1 C2 1_555 1_555
C2 C3 1_555 1_555
C3 H1 1_555 1_555
C4 C3 1_555 1_555
C5 C4 1_555 1_555
H2 C5 1_555 1_555
C6 C5 1_555 1_555
H3 C6 1_555 1_555
C7 C6 1_555 1_555
C8 C7 1_555 1_555
H4 C8 1_555 1_555
C9 C4 1_555 1_555
H5 C9 1_555 1_555
C10 H6 1_555 1_555
H7 C10 1_555 1_555
C11 C10 1_555 1_555
H8 C11 1_555 1_555
H9 C11 1_555 1_555
H10 C11 1_555 1_555
C12 C13 1_555 1_555
C13 H11 1_555 1_555
C14 C13 1_555 1_555
C15 C14 1_555 1_555
C16 C15 1_555 1_555
C17 C12 1_555 1_555
H12 C17 1_555 1_555
C18 H13 1_555 1_555
H14 C18 1_555 1_555
H15 C18 1_555 1_555
C19 H16 1_555 1_555
H17 C19 1_555 1_555
H18 C19 1_555 1_555
C20 H19 1_555 1_555
H20 C20 1_555 1_555
H21 C20 1_555 1_555
N1 C1 1_555 1_555
O1 C7 1_555 1_555
O2 C14 1_555 1_555
O3 C15 1_555 1_555
O4 C16 1_555 1_555
O5 C1 1_555 1_555
O6 C2 1_555 1_555
H22 O6 1_555 1_555
H23 C2 1_555 1_555
C3 N1 1_555 1_555
C8 C9 1_555 1_555
C10 O1 1_555 1_555
C12 N1 1_555 1_555
C16 C17 1_555 1_555
C18 O2 1_555 1_555
C19 O3 1_555 1_555
C20 O4 1_555 1_555

#END
