
#######################################################################
#
#                 Cambridge Crystallographic Data Centre
#                                CCDC 
#
#######################################################################
#
# If this CIF has been generated from an entry in the Cambridge 
# Structural Database, then it will include bibliographic, chemical, 
# crystal, experimental, refinement or atomic coordinate data resulting 
# from the CCDC's data processing and validation procedures.
#
#######################################################################

data_XAMLII
_chemical_formula_moiety         'C30 H22 F2 N2 O1'
_chemical_name_systematic        
(2-(1,5-bis(4-fluorophenyl)-3-oxopent-4-en-1-yl)-3,4-dihydronaphthalen-1(2H)-ylidene)malononitrile
_symmetry_cell_setting           monoclinic
_symmetry_space_group_name_H-M   'C c'
_symmetry_Int_Tables_number      9
_space_group_name_Hall           'C -2yc'
loop_
_symmetry_equiv_pos_site_id
_symmetry_equiv_pos_as_xyz
1 x,y,z
2 x,-y,1/2+z
3 1/2+x,1/2+y,z
4 1/2+x,1/2-y,1/2+z
_cell_length_a                   12.828(2)
_cell_length_b                   11.141(2)
_cell_length_c                   16.665(3)
_cell_angle_alpha                90
_cell_angle_beta                 103.208(10)
_cell_angle_gamma                90
_cell_volume                     2318.7
_exptl_crystal_colour            colorless
_exptl_crystal_description       prism
_cell_formula_units_Z            4
loop_
_atom_site_label
_atom_site_type_symbol
_atom_site_fract_x
_atom_site_fract_y
_atom_site_fract_z
F1 F 0.27307(7) -0.22081(8) 0.17484(6)
F2 F 1.16980(7) 0.06101(9) 0.49581(7)
O1 O 0.51428(8) 0.22895(10) 0.23819(7)
N1 N 0.22727(11) 0.37733(12) 0.47334(10)
N2 N 0.48491(10) 0.45798(11) 0.68831(9)
C1 C 0.31071(11) 0.02863(13) 0.31642(10)
H1 H 0.2699 0.0913 0.3329
C2 C 0.26098(13) -0.05169(13) 0.25666(10)
H2 H 0.1866 -0.0456 0.2323
C3 C 0.32214(12) -0.14018(13) 0.23370(10)
C4 C 0.42913(13) -0.15395(13) 0.26756(11)
H3 H 0.4690 -0.2167 0.2502
C5 C 0.47767(12) -0.07306(13) 0.32832(10)
H4 H 0.5517 -0.0813 0.3532
C6 C 0.41958(11) 0.01947(13) 0.35309(10)
C7 C 0.47640(11) 0.10908(12) 0.41707(9)
H5 H 0.5481 0.0746 0.4432
C8 C 0.49593(12) 0.22982(13) 0.37695(10)
H6 H 0.4261 0.2677 0.3525
H7 H 0.5359 0.2843 0.4201
C9 C 0.55804(12) 0.21448(13) 0.31086(10)
C10 C 0.67179(12) 0.17892(13) 0.33306(10)
H8 H 0.7026 0.1528 0.2894
C11 C 0.73567(11) 0.17995(13) 0.40868(10)
H9 H 0.7045 0.2036 0.4528
C12 C 0.84971(12) 0.14779(13) 0.42966(11)
C13 C 0.89971(13) 0.09056(13) 0.37421(11)
H10 H 0.8594 0.0713 0.3205
C14 C 1.00754(13) 0.06142(14) 0.39634(11)
H11 H 1.0413 0.0218 0.3586
C15 C 1.06447(12) 0.09127(14) 0.47415(11)
C16 C 1.01930(13) 0.14815(14) 0.53099(11)
H12 H 1.0607 0.1682 0.5842
C17 C 0.91084(12) 0.17536(13) 0.50793(11)
H13 H 0.8775 0.2137 0.5465
C18 C 0.41570(11) 0.12850(12) 0.48598(9)
H14 H 0.3406 0.1538 0.4606
C19 C 0.41283(11) 0.01349(13) 0.53746(10)
H15 H 0.3715 0.0295 0.5798
H16 H 0.3757 -0.0510 0.5010
C20 C 0.52538(12) -0.02897(13) 0.57982(10)
H17 H 0.5203 -0.0811 0.6269
H18 H 0.5541 -0.0783 0.5404
C21 C 0.60334(12) 0.07125(13) 0.61090(9)
C22 C 0.70668(12) 0.04441(14) 0.65560(10)
H19 H 0.7260 -0.0370 0.6679
C23 C 0.78106(12) 0.13321(14) 0.68218(10)
H20 H 0.8501 0.1128 0.7140
C24 C 0.75583(12) 0.25301(15) 0.66270(10)
H21 H 0.8082 0.3139 0.6791
C25 C 0.65388(12) 0.28207(13) 0.61923(10)
H22 H 0.6360 0.3636 0.6061
C26 C 0.57652(11) 0.19242(13) 0.59428(9)
C27 C 0.46771(11) 0.22223(13) 0.54733(10)
C28 C 0.41473(12) 0.32272(13) 0.56131(10)
C29 C 0.30990(12) 0.35231(13) 0.51192(10)
C30 C 0.45456(11) 0.40051(13) 0.63086(10)
loop_
_geom_bond_atom_site_label_1
_geom_bond_atom_site_label_2
_geom_bond_site_symmetry_1
_geom_bond_site_symmetry_2
F1 C3 1_555 1_555
F2 C15 1_555 1_555
O1 C9 1_555 1_555
N1 C29 1_555 1_555
N2 C30 1_555 1_555
C1 H1 1_555 1_555
C2 C1 1_555 1_555
H2 C2 1_555 1_555
C3 C2 1_555 1_555
C4 C3 1_555 1_555
H3 C4 1_555 1_555
C5 C4 1_555 1_555
H4 C5 1_555 1_555
C6 C1 1_555 1_555
C7 C6 1_555 1_555
H5 C7 1_555 1_555
C8 C7 1_555 1_555
H6 C8 1_555 1_555
H7 C8 1_555 1_555
C9 C8 1_555 1_555
C10 C9 1_555 1_555
H8 C10 1_555 1_555
C11 C10 1_555 1_555
H9 C11 1_555 1_555
C12 C11 1_555 1_555
C13 C12 1_555 1_555
H10 C13 1_555 1_555
C14 C13 1_555 1_555
H11 C14 1_555 1_555
C15 C14 1_555 1_555
C16 C15 1_555 1_555
H12 C16 1_555 1_555
C17 C12 1_555 1_555
H13 C17 1_555 1_555
C18 C7 1_555 1_555
H14 C18 1_555 1_555
C19 C18 1_555 1_555
H15 C19 1_555 1_555
H16 C19 1_555 1_555
C20 C19 1_555 1_555
H17 C20 1_555 1_555
H18 C20 1_555 1_555
C21 C20 1_555 1_555
C22 C21 1_555 1_555
H19 C22 1_555 1_555
C23 C22 1_555 1_555
H20 C23 1_555 1_555
C24 C23 1_555 1_555
H21 C24 1_555 1_555
C25 C24 1_555 1_555
H22 C25 1_555 1_555
C26 C21 1_555 1_555
C27 C18 1_555 1_555
C28 C27 1_555 1_555
C29 C28 1_555 1_555
C30 C28 1_555 1_555
C5 C6 1_555 1_555
C16 C17 1_555 1_555
C25 C26 1_555 1_555
C26 C27 1_555 1_555

#END
