
#######################################################################
#
#                 Cambridge Crystallographic Data Centre
#                                CCDC 
#
#######################################################################
#
# If this CIF has been generated from an entry in the Cambridge 
# Structural Database, then it will include bibliographic, chemical, 
# crystal, experimental, refinement or atomic coordinate data resulting 
# from the CCDC's data processing and validation procedures.
#
#######################################################################

data_XAMROS
_chemical_formula_moiety         'C13 H18 N2 O2'
_chemical_name_systematic        
3,4-Diaza-10-oxatricyclo(10.3.1.0^4,15^)hexadeca-1(15),2-dien-11-one
_symmetry_cell_setting           monoclinic
_symmetry_space_group_name_H-M   'P 21/c'
_symmetry_Int_Tables_number      14
_space_group_name_Hall           '-P 2ybc'
loop_
_symmetry_equiv_pos_site_id
_symmetry_equiv_pos_as_xyz
1 x,y,z
2 -x,1/2+y,1/2-z
3 -x,-y,-z
4 x,1/2-y,1/2+z
_cell_length_a                   11.786(6)
_cell_length_b                   7.099(3)
_cell_length_c                   14.155(13)
_cell_angle_alpha                90
_cell_angle_beta                 90.69(6)
_cell_angle_gamma                90
_cell_volume                     1184.25
_exptl_crystal_colour            white
_chemical_melting_point          '152-153 deg.C'
_cell_formula_units_Z            4
loop_
_atom_site_label
_atom_site_type_symbol
_atom_site_fract_x
_atom_site_fract_y
_atom_site_fract_z
O1 O 0.8834(1) 0.1944(2) 0.9919(1)
O2 O 0.8323(2) 0.4961(2) 0.9846(2)
N1 N 0.6378(1) -0.0487(2) 0.8636(1)
N2 N 0.5908(1) 0.0741(2) 0.8001(1)
C1 C 0.6460(1) 0.0288(2) 0.9507(1)
C2 C 0.6956(2) -0.0604(3) 1.0376(1)
C3 C 0.7194(2) 0.0880(3) 1.1142(1)
C4 C 0.7219(2) 0.2909(3) 1.0801(1)
C5 C 0.6114(2) 0.3395(3) 1.0268(1)
C6 C 0.6033(1) 0.2078(2) 0.9449(1)
C7 C 0.5701(2) 0.2285(3) 0.8499(1)
C8 C 0.6878(2) -0.2238(3) 0.8302(2)
C9 C 0.8008(2) -0.2008(4) 0.7814(2)
C10 C 0.8906(2) -0.0990(3) 0.8395(2)
C11 C 0.8925(2) 0.1141(4) 0.8285(2)
C12 C 0.9533(2) 0.2117(4) 0.9085(2)
C13 C 0.8178(2) 0.3413(2) 1.0155(2)
H1 H 0.7624(18) -0.1250(28) 1.0188(14)
H2 H 0.6412(20) -0.1582(32) 1.0619(15)
H3 H 0.5486(18) 0.3245(29) 1.0705(15)
H4 H 0.6141(16) 0.4775(31) 1.0052(13)
H5 H 0.6978(17) -0.3075(29) 0.8874(15)
H6 H 0.8161(19) 0.1682(28) 0.8229(13)
H7 H 0.8822(19) -0.1364(31) 0.9066(18)
H8 H 0.5367(17) 0.3377(30) 0.8214(14)
H9 H 0.9314(23) 0.1466(33) 0.7696(19)
H10 H 0.9662(23) -0.1532(36) 0.8173(19)
H11 H 0.7261(20) 0.3771(31) 1.1335(18)
H12 H 0.7938(23) 0.0589(35) 1.1487(17)
H13 H 0.9687(23) 0.3422(41) 0.8950(18)
H14 H 1.0269(23) 0.1503(32) 0.9243(16)
H15 H 0.6342(23) -0.2887(34) 0.7883(18)
H16 H 0.7826(24) -0.1372(39) 0.7198(20)
H17 H 0.6579(24) 0.0787(35) 1.1605(19)
H18 H 0.8292(23) -0.3356(38) 0.7700(17)
loop_
_geom_bond_atom_site_label_1
_geom_bond_atom_site_label_2
_geom_bond_site_symmetry_1
_geom_bond_site_symmetry_2
O1 C12 1_555 1_555
O2 C13 1_555 1_555
N1 N2 1_555 1_555
N2 C7 1_555 1_555
C1 N1 1_555 1_555
C2 C1 1_555 1_555
C3 C2 1_555 1_555
C4 C3 1_555 1_555
C5 C4 1_555 1_555
C6 C1 1_555 1_555
C7 C6 1_555 1_555
C8 N1 1_555 1_555
C9 C8 1_555 1_555
C10 C9 1_555 1_555
C11 C10 1_555 1_555
C12 C11 1_555 1_555
C13 O1 1_555 1_555
H1 C2 1_555 1_555
H2 C2 1_555 1_555
H3 C5 1_555 1_555
H4 C5 1_555 1_555
H5 C8 1_555 1_555
H6 C11 1_555 1_555
H7 C10 1_555 1_555
H8 C7 1_555 1_555
H9 C11 1_555 1_555
H10 C10 1_555 1_555
H11 C4 1_555 1_555
H12 C3 1_555 1_555
H13 C12 1_555 1_555
H14 C12 1_555 1_555
H15 C8 1_555 1_555
H16 C9 1_555 1_555
H17 C3 1_555 1_555
H18 C9 1_555 1_555
C4 C13 1_555 1_555
C5 C6 1_555 1_555

#END
