
#######################################################################
#
#                 Cambridge Crystallographic Data Centre
#                                CCDC 
#
#######################################################################
#
# If this CIF has been generated from an entry in the Cambridge 
# Structural Database, then it will include bibliographic, chemical, 
# crystal, experimental, refinement or atomic coordinate data resulting 
# from the CCDC's data processing and validation procedures.
#
#######################################################################

data_XANFAW
_chemical_formula_moiety         'C18 H13 O1 S1 1+,C1 F3 O3 S1 1-'
_chemical_name_systematic        
'10-phenylphenoxathiin-10-ium trifluoromethanesulfonate'
_symmetry_cell_setting           monoclinic
_symmetry_space_group_name_H-M   'P 21/n'
_symmetry_Int_Tables_number      14
_space_group_name_Hall           '-P 2yn'
loop_
_symmetry_equiv_pos_site_id
_symmetry_equiv_pos_as_xyz
1 x,y,z
2 1/2-x,1/2+y,1/2-z
3 -x,-y,-z
4 1/2+x,1/2-y,1/2+z
_cell_length_a                   9.2490(2)
_cell_length_b                   10.7437(3)
_cell_length_c                   19.2145(4)
_cell_angle_alpha                90
_cell_angle_beta                 95.804(2)
_cell_angle_gamma                90
_cell_volume                     1899.53
_exptl_crystal_colour            colorless
_exptl_crystal_description       block
_cell_formula_units_Z            4
_exptl_crystal_recrystallization_method 'dichloromethane / ethyl acetate'
loop_
_atom_site_label
_atom_site_type_symbol
_atom_site_fract_x
_atom_site_fract_y
_atom_site_fract_z
S1 S 0.75141(9) 0.70438(9) 0.01065(5)
O1 O 0.6753(3) 0.9780(3) 0.00380(15)
C1 C 0.8359(4) 0.8204(3) -0.03581(18)
C2 C 0.6993(4) 0.7974(4) 0.07972(19)
C3 C 0.5804(4) 0.6840(3) -0.04187(19)
C4 C 0.5778(4) 0.6817(4) -0.1134(2)
H1 H 0.6616 0.6976 -0.1349
C5 C 0.7853(4) 0.9415(4) -0.03528(19)
C6 C 0.4566(4) 0.6592(4) -0.0092(2)
H2 H 0.4594 0.6614 0.0393
C7 C 0.8458(5) 1.0314(4) -0.0748(2)
H3 H 0.8115 1.1128 -0.0753
C8 C 1.0100(5) 0.8804(5) -0.1131(2)
H4 H 1.0866 0.8613 -0.1392
C9 C 0.9503(4) 0.7880(4) -0.0742(2)
H5 H 0.9856 0.7070 -0.0738
C10 C 0.6629(4) 0.9207(4) 0.0665(2)
C11 C 0.4480(5) 0.6551(5) -0.1530(2)
H6 H 0.4442 0.6544 -0.2016
C12 C 0.6097(5) 0.9911(6) 0.1189(3)
H7 H 0.5841 1.0740 0.1110
C13 C 0.3248(5) 0.6297(4) -0.1214(3)
H8 H 0.2383 0.6114 -0.1485
C14 C 0.3296(4) 0.6314(4) -0.0497(3)
H9 H 0.2462 0.6135 -0.0283
C15 C 0.9567(5) 0.9993(5) -0.1132(2)
H10 H 0.9969 1.0598 -0.1400
C16 C 0.6349(6) 0.8156(7) 0.1962(3)
H11 H 0.6262 0.7815 0.2400
C17 C 0.6881(5) 0.7435(5) 0.1444(2)
H12 H 0.7156 0.6612 0.1530
C18 C 0.5954(6) 0.9364(8) 0.1829(3)
H13 H 0.5579 0.9829 0.2177
S2 S 0.91478(10) 1.42013(10) -0.12654(6)
O2 O 0.9550(4) 1.3047(4) -0.0958(2)
O3 O 0.8343(5) 1.4932(4) -0.08138(19)
O4 O 1.0214(4) 1.4880(5) -0.1562(2)
F1 F 0.7334(6) 1.4834(6) -0.2303(2)
F2 F 0.8290(6) 1.3173(7) -0.2439(3)
C19 C 0.7836(6) 1.3816(7) -0.1979(3)
F3 F 0.6725(5) 1.3279(6) -0.1773(3)
loop_
_geom_bond_atom_site_label_1
_geom_bond_atom_site_label_2
_geom_bond_site_symmetry_1
_geom_bond_site_symmetry_2
S1 C1 1_555 1_555
O1 C5 1_555 1_555
C1 C5 1_555 1_555
C2 S1 1_555 1_555
C3 S1 1_555 1_555
C4 C3 1_555 1_555
H1 C4 1_555 1_555
C5 C7 1_555 1_555
C6 C3 1_555 1_555
H2 C6 1_555 1_555
C7 H3 1_555 1_555
C8 H4 1_555 1_555
C9 C1 1_555 1_555
H5 C9 1_555 1_555
C10 O1 1_555 1_555
C11 C4 1_555 1_555
H6 C11 1_555 1_555
C12 C10 1_555 1_555
H7 C12 1_555 1_555
C13 C11 1_555 1_555
H8 C13 1_555 1_555
C14 C6 1_555 1_555
H9 C14 1_555 1_555
C15 C7 1_555 1_555
H10 C15 1_555 1_555
C16 H11 1_555 1_555
C17 C2 1_555 1_555
H12 C17 1_555 1_555
C18 C12 1_555 1_555
H13 C18 1_555 1_555
S2 O2 1_555 1_555
O3 S2 1_555 1_555
O4 S2 1_555 1_555
F1 C19 1_555 1_555
F2 C19 1_555 1_555
C19 S2 1_555 1_555
F3 C19 1_555 1_555
C2 C10 1_555 1_555
C8 C9 1_555 1_555
C8 C15 1_555 1_555
C13 C14 1_555 1_555
C16 C17 1_555 1_555
C16 C18 1_555 1_555

#END
