
#######################################################################
#
#                 Cambridge Crystallographic Data Centre
#                                CCDC 
#
#######################################################################
#
# If this CIF has been generated from an entry in the Cambridge 
# Structural Database, then it will include bibliographic, chemical, 
# crystal, experimental, refinement or atomic coordinate data resulting 
# from the CCDC's data processing and validation procedures.
#
#######################################################################

data_XANQIO
_chemical_formula_moiety         'C46 H45 O4 1-,C9 H13 N2 1+,2(C1 H2 Cl2)'
_chemical_name_systematic        
"4-(pyrrolidin-1-yl)pyridinium 3,3'-bis(4-t-butyl-2,6-dimethylphenyl)-2'-carboxy-1,1'-binaphthalene-2-carboxylate dichloromethane solvate"
_symmetry_cell_setting           monoclinic
_symmetry_space_group_name_H-M   'P 21'
_symmetry_Int_Tables_number      4
_space_group_name_Hall           'P 2yb'
loop_
_symmetry_equiv_pos_site_id
_symmetry_equiv_pos_as_xyz
1 x,y,z
2 -x,1/2+y,-z
_cell_length_a                   9.14269(17)
_cell_length_b                   9.68223(18)
_cell_length_c                   30.1893(6)
_cell_angle_alpha                90
_cell_angle_beta                 93.6506(12)
_cell_angle_gamma                90
_cell_volume                     2666.98
_exptl_crystal_colour            colorless
_exptl_crystal_description       block
_cell_formula_units_Z            2
_exptl_crystal_recrystallization_method hexane/dichloromethane
loop_
_atom_site_label
_atom_site_type_symbol
_atom_site_fract_x
_atom_site_fract_y
_atom_site_fract_z
Cl1 Cl -0.35650(19) -0.0201(2) 0.89578(5)
Cl4 Cl -0.2230(4) 0.2331(4) 0.93213(17)
C54 C -0.2008(9) 0.0633(10) 0.9242(4)
H54 H -0.1808 0.0183 0.9534
H55 H -0.1139 0.0491 0.9067
Cl2 Cl -0.11715(19) 0.2917(3) 0.55558(8)
Cl3 Cl -0.0142(4) 0.5022(4) 0.61636(13)
C49 C 0.0175(7) 0.3427(6) 0.59692(17)
H45 H 0.0191 0.2759 0.6218
H46 H 0.1150 0.3408 0.5844
O1 O 0.0581(4) 0.0934(3) 0.66529(9)
O2 O 0.2256(3) 0.1145(3) 0.72167(8)
O3 O 0.3957(3) -0.0116(3) 0.77466(10)
O4 O 0.4043(3) -0.1830(4) 0.82321(9)
C1 C 0.2682(4) -0.3304(4) 0.69961(11)
C2 C -0.0384(4) -0.1984(4) 0.73762(11)
C3 C 0.3584(5) -0.2400(4) 0.63042(12)
C4 C 0.2110(4) -0.1966(4) 0.70744(11)
C5 C 0.1663(4) 0.0494(4) 0.68857(11)
C6 C 0.3173(4) 0.0014(4) 0.60530(10)
C7 C 0.2082(4) 0.0167(5) 0.57059(11)
C8 C 0.4407(4) 0.0855(4) 0.60673(10)
C9 C -0.1322(4) -0.1739(4) 0.77317(12)
C10 C 0.4563(4) 0.1840(4) 0.57304(11)
C11 C 0.1709(4) -0.1332(4) 0.78700(11)
C12 C 0.2525(5) -0.4428(4) 0.72881(12)
C13 C 0.3514(4) 0.2002(4) 0.53779(11)
C14 C 0.3442(4) -0.3514(4) 0.66030(11)
C15 C -0.1018(4) -0.2396(4) 0.69639(12)
C16 C 0.1151(4) -0.1755(4) 0.74600(11)
C17 C 0.0767(4) -0.1066(4) 0.82214(12)
C18 C 0.2286(4) -0.0904(4) 0.67811(11)
C19 C 0.1330(5) -0.0425(5) 0.86532(11)
C20 C 0.3028(4) -0.1116(4) 0.63851(11)
C21 C -0.2515(5) -0.2541(5) 0.68930(14)
C22 C 0.1361(5) 0.1006(5) 0.86862(14)
C23 C 0.3800(6) -0.5929(5) 0.68070(15)
C24 C -0.3436(5) -0.2268(5) 0.72421(15)
C25 C 0.3345(4) -0.1108(4) 0.79629(11)
C27 C -0.2864(4) -0.1880(4) 0.76447(13)
C29 C 0.3706(5) 0.3077(5) 0.50088(12)
C30 C 0.2276(4) 0.1148(5) 0.53774(11)
C31 C 0.3991(5) -0.4849(5) 0.65154(13)
C32 C 0.0743(5) -0.0744(5) 0.56799(14)
C33 C 0.5614(5) 0.0704(5) 0.64276(12)
C34 C 0.3079(5) -0.5700(4) 0.71968(14)
C35 C 0.1735(5) -0.1244(5) 0.90269(14)
C36 C 0.0885(6) 0.1917(5) 0.82955(14)
C38 C 0.1783(6) 0.1626(6) 0.90893(14)
C41 C 0.3093(6) 0.2526(6) 0.45586(13)
C42 C 0.1668(7) -0.2807(6) 0.89959(15)
C43 C 0.2175(6) -0.0582(6) 0.94265(14)
C46 C 0.2214(7) 0.0849(7) 0.94616(15)
C47 C 0.5294(6) 0.3451(6) 0.49696(16)
C48 C 0.2846(7) 0.4386(5) 0.51163(15)
C51 C 0.2698(9) 0.1531(8) 0.99095(18)
C53 C 0.1620(11) 0.1275(13) 1.02348(19)
C55 C 0.294(3) 0.3045(13) 0.9864(3)
C56 C 0.4194(10) 0.0922(18) 1.0073(3)
C57 C -0.0703(5) -0.1304(4) 0.81470(13)
H1 H 0.345(6) 0.022(6) 0.7553(16)
H3 H 0.4078 -0.2546 0.6041
H4 H 0.5410 0.2411 0.5744
H5 H 0.2027 -0.4297 0.7552
H6 H -0.0406 -0.2579 0.6728
H7 H -0.2927 -0.2824 0.6611
H8 H 0.4157 -0.6824 0.6743
H9 H -0.4467 -0.2359 0.7192
H11 H -0.3500 -0.1697 0.7875
H12 H 0.1538 0.1243 0.5143
H13 H 0.4495 -0.5005 0.6254
H14 H 0.0785 -0.1375 0.5934
H15 H 0.0712 -0.1279 0.5404
H16 H -0.0138 -0.0169 0.5685
H17 H 0.6382 0.1386 0.6383
H18 H 0.6029 -0.0228 0.6417
H19 H 0.5215 0.0855 0.6717
H20 H 0.2974 -0.6438 0.7400
H21 H 0.0991 0.2889 0.8382
H22 H -0.0142 0.1726 0.8203
H23 H 0.1499 0.1725 0.8048
H25 H 0.1777 0.2605 0.9111
H28 H 0.2060 0.2276 0.4578
H29 H 0.3650 0.1709 0.4478
H30 H 0.3175 0.3242 0.4332
H31 H 0.1335 -0.3077 0.8693
H32 H 0.0980 -0.3160 0.9205
H33 H 0.2644 -0.3192 0.9069
H34 H 0.2454 -0.1126 0.9680
H39 H 0.5706 0.3806 0.5255
H40 H 0.5367 0.4161 0.4741
H41 H 0.5840 0.2629 0.4888
H42 H 0.1813 0.4150 0.5142
H43 H 0.2927 0.5063 0.4878
H44 H 0.3251 0.4779 0.5397
H51 H 0.1461 0.0279 1.0262
H52 H 0.0693 0.1725 1.0138
H53 H 0.1978 0.1650 1.0523
H56 H 0.3675 0.3210 0.9648
H57 H 0.3283 0.3430 1.0152
H58 H 0.2015 0.3490 0.9762
H59 H 0.4108 -0.0083 1.0101
H60 H 0.4502 0.1321 1.0362
H61 H 0.4923 0.1140 0.9859
H62 H -0.1326 -0.1172 0.8384
N1 N -0.1126(4) 0.2366(4) 0.71757(13)
N2 N -0.3843(4) 0.3868(4) 0.80951(13)
C26 C -0.2148(5) 0.1540(5) 0.73451(13)
C28 C -0.3004(5) 0.3388(5) 0.77938(15)
C37 C -0.1026(6) 0.3693(5) 0.73043(18)
C39 C -0.3076(5) 0.1990(4) 0.76436(13)
C40 C -0.1936(6) 0.4223(5) 0.76061(19)
C44 C -0.5017(6) 0.3091(6) 0.82905(16)
C45 C -0.4633(8) 0.5238(6) 0.86744(17)
C50 C -0.3739(8) 0.5269(6) 0.8283(3)
C52 C -0.5803(8) 0.4243(9) 0.8538(2)
H2 H -0.031(7) 0.202(7) 0.7019(18)
H10 H -0.2214 0.0606 0.7250
H24 H -0.0314 0.4274 0.7184
H26 H -0.3778 0.1376 0.7754
H27 H -0.1848 0.5167 0.7690
H35 H -0.4618 0.2372 0.8498
H36 H -0.5680 0.2655 0.8059
H37 H -0.4050 0.4913 0.8942
H38 H -0.5043 0.6161 0.8734
H47 H -0.4129 0.5959 0.8064
H48 H -0.2708 0.5504 0.8371
H49 H -0.6567 0.4689 0.8339
H50 H -0.6265 0.3866 0.8800
loop_
_geom_bond_atom_site_label_1
_geom_bond_atom_site_label_2
_geom_bond_site_symmetry_1
_geom_bond_site_symmetry_2
Cl1 C54 1_555 1_555
Cl2 C49 1_555 1_555
Cl3 C49 1_555 1_555
Cl4 C54 1_555 1_555
O1 C5 1_555 1_555
O2 C5 1_555 1_555
O3 C25 1_555 1_555
O4 C25 1_555 1_555
N1 C26 1_555 1_555
N2 C28 1_555 1_555
C1 C4 1_555 1_555
C2 C9 1_555 1_555
C3 C14 1_555 1_555
C4 C16 1_555 1_555
C5 C18 1_555 1_555
C6 C7 1_555 1_555
C7 C30 1_555 1_555
C8 C6 1_555 1_555
C9 C27 1_555 1_555
C10 C8 1_555 1_555
C11 C16 1_555 1_555
C12 C1 1_555 1_555
C13 C10 1_555 1_555
C14 C1 1_555 1_555
C15 C2 1_555 1_555
C16 C2 1_555 1_555
C17 C11 1_555 1_555
C18 C4 1_555 1_555
C19 C17 1_555 1_555
C20 C3 1_555 1_555
C21 C15 1_555 1_555
C22 C19 1_555 1_555
C23 C31 1_555 1_555
C24 C21 1_555 1_555
C25 C11 1_555 1_555
C26 C39 1_555 1_555
C27 C24 1_555 1_555
C28 C39 1_555 1_555
C29 C13 1_555 1_555
C30 C13 1_555 1_555
C31 C14 1_555 1_555
C32 C7 1_555 1_555
C33 C8 1_555 1_555
C34 C12 1_555 1_555
C35 C19 1_555 1_555
C36 C22 1_555 1_555
C37 N1 1_555 1_555
C38 C22 1_555 1_555
C39 H26 1_555 1_555
C40 C28 1_555 1_555
C41 C29 1_555 1_555
C42 C35 1_555 1_555
C43 C35 1_555 1_555
C44 N2 1_555 1_555
C45 C50 1_555 1_555
C46 C38 1_555 1_555
C47 C29 1_555 1_555
C48 C29 1_555 1_555
C49 H45 1_555 1_555
C50 N2 1_555 1_555
C51 C46 1_555 1_555
C52 C44 1_555 1_555
C53 C51 1_555 1_555
C54 H54 1_555 1_555
C55 C51 1_555 1_555
C56 C51 1_555 1_555
C57 C9 1_555 1_555
H1 O3 1_555 1_555
H2 N1 1_555 1_555
H3 C3 1_555 1_555
H4 C10 1_555 1_555
H5 C12 1_555 1_555
H6 C15 1_555 1_555
H7 C21 1_555 1_555
H8 C23 1_555 1_555
H9 C24 1_555 1_555
H10 C26 1_555 1_555
H11 C27 1_555 1_555
H12 C30 1_555 1_555
H13 C31 1_555 1_555
H14 C32 1_555 1_555
H15 C32 1_555 1_555
H16 C32 1_555 1_555
H17 C33 1_555 1_555
H18 C33 1_555 1_555
H19 C33 1_555 1_555
H20 C34 1_555 1_555
H21 C36 1_555 1_555
H22 C36 1_555 1_555
H23 C36 1_555 1_555
H24 C37 1_555 1_555
H25 C38 1_555 1_555
H27 C40 1_555 1_555
H28 C41 1_555 1_555
H29 C41 1_555 1_555
H30 C41 1_555 1_555
H31 C42 1_555 1_555
H32 C42 1_555 1_555
H33 C42 1_555 1_555
H34 C43 1_555 1_555
H35 C44 1_555 1_555
H36 C44 1_555 1_555
H37 C45 1_555 1_555
H38 C45 1_555 1_555
H39 C47 1_555 1_555
H40 C47 1_555 1_555
H41 C47 1_555 1_555
H42 C48 1_555 1_555
H43 C48 1_555 1_555
H44 C48 1_555 1_555
H46 C49 1_555 1_555
H47 C50 1_555 1_555
H48 C50 1_555 1_555
H49 C52 1_555 1_555
H50 C52 1_555 1_555
H51 C53 1_555 1_555
H52 C53 1_555 1_555
H53 C53 1_555 1_555
H55 C54 1_555 1_555
H56 C55 1_555 1_555
H57 C55 1_555 1_555
H58 C55 1_555 1_555
H59 C56 1_555 1_555
H60 C56 1_555 1_555
H61 C56 1_555 1_555
H62 C57 1_555 1_555
C6 C20 1_555 1_555
C17 C57 1_555 1_555
C18 C20 1_555 1_555
C23 C34 1_555 1_555
C37 C40 1_555 1_555
C43 C46 1_555 1_555
C45 C52 1_555 1_555

#END
