
#######################################################################
#
#                 Cambridge Crystallographic Data Centre
#                                CCDC 
#
#######################################################################
#
# If this CIF has been generated from an entry in the Cambridge 
# Structural Database, then it will include bibliographic, chemical, 
# crystal, experimental, refinement or atomic coordinate data resulting 
# from the CCDC's data processing and validation procedures.
#
#######################################################################

data_XANSEN
_chemical_formula_moiety         'C12 H24 B10 N2'
_chemical_name_systematic        
1-(2-(4-t-butylphenyl)diazen-1-yl)-1,2-dicarba-closo-dodecaborane(11)
_symmetry_cell_setting           monoclinic
_symmetry_space_group_name_H-M   'P 21/n'
_symmetry_Int_Tables_number      14
_space_group_name_Hall           '-P 2yn'
loop_
_symmetry_equiv_pos_site_id
_symmetry_equiv_pos_as_xyz
1 x,y,z
2 1/2-x,1/2+y,1/2-z
3 -x,-y,-z
4 1/2+x,1/2-y,1/2+z
_cell_length_a                   7.0584(8)
_cell_length_b                   12.6160(14)
_cell_length_c                   21.271(3)
_cell_angle_alpha                90
_cell_angle_beta                 97.699(2)
_cell_angle_gamma                90
_cell_volume                     1877.08
_exptl_crystal_colour            yellow
_exptl_crystal_description       block
_cell_formula_units_Z            4
loop_
_atom_site_label
_atom_site_type_symbol
_atom_site_fract_x
_atom_site_fract_y
_atom_site_fract_z
C1 C 0.7506(2) 0.12518(12) 0.21788(7)
H1 H 0.6996 0.2077 0.2154
N1 N 0.47270(17) 0.05962(11) 0.12764(6)
N2 N 0.41940(17) 0.15279(10) 0.13352(6)
C2 C 0.6385(2) 0.03271(12) 0.17289(7)
C3 C 0.2596(2) 0.18447(12) 0.08935(7)
C4 C -0.0544(2) 0.26315(12) 0.00819(7)
C5 C 0.1816(2) 0.12471(13) 0.03683(7)
H2 H 0.2329 0.0590 0.0287
C6 C 0.0275(2) 0.16477(13) -0.00265(7)
H3 H -0.0239 0.1251 -0.0377
C7 C 0.0264(2) 0.32058(13) 0.06084(8)
H4 H -0.0253 0.3860 0.0694
C8 C 0.1828(2) 0.28210(13) 0.10081(8)
H5 H 0.2360 0.3222 0.1354
C9 C -0.2243(2) 0.30345(14) -0.03802(7)
B1 B 0.8955(2) -0.11719(15) 0.22345(9)
H6 H 0.9463 -0.1997 0.2256
B2 B 0.7932(2) -0.05812(14) 0.15105(8)
H7 H 0.7741 -0.1015 0.1058
B3 B 0.8540(2) 0.07879(14) 0.15458(8)
H8 H 0.8732 0.1249 0.1120
B4 B 1.0217(2) -0.01556(15) 0.18815(9)
H9 H 1.1532 -0.0320 0.1673
B5 B 1.0160(3) -0.01678(15) 0.27210(9)
H10 H 1.1445 -0.0341 0.3058
B6 B 0.9899(2) 0.10489(15) 0.22954(9)
H11 H 1.0989 0.1677 0.2355
B7 B 0.8432(3) 0.07719(16) 0.28976(8)
H12 H 0.8584 0.1223 0.3344
B8 B 0.6147(3) 0.03463(16) 0.25261(8)
H13 H 0.4821 0.0526 0.2724
B9 B 0.7837(3) -0.06010(16) 0.28617(9)
H14 H 0.7614 -0.1054 0.3288
B10 B 0.6471(2) -0.08594(14) 0.21092(8)
H15 H 0.5350 -0.1470 0.2042
C10 C -0.3026(3) 0.40823(17) -0.01696(11)
H16 H -0.4086 0.4301 -0.0472
H17 H -0.2041 0.4612 -0.0142
H18 H -0.3443 0.3995 0.0239
C11 C -0.1569(3) 0.3200(2) -0.10292(9)
H19 H -0.1115 0.2540 -0.1177
H20 H -0.0555 0.3712 -0.0991
H21 H -0.2617 0.3451 -0.1326
C12 C -0.3846(3) 0.22134(17) -0.04402(11)
H22 H -0.3388 0.1558 -0.0593
H23 H -0.4904 0.2465 -0.0733
H24 H -0.4253 0.2100 -0.0032
loop_
_geom_bond_atom_site_label_1
_geom_bond_atom_site_label_2
_geom_bond_site_symmetry_1
_geom_bond_site_symmetry_2
C1 H1 1_555 1_555
N1 N2 1_555 1_555
N2 C3 1_555 1_555
C2 C1 1_555 1_555
C3 C5 1_555 1_555
C4 C6 1_555 1_555
C5 H2 1_555 1_555
C6 C5 1_555 1_555
H3 C6 1_555 1_555
C7 C4 1_555 1_555
H4 C7 1_555 1_555
C8 C3 1_555 1_555
H5 C8 1_555 1_555
C9 C4 1_555 1_555
B1 H6 1_555 1_555
B2 C2 1_555 1_555
H7 B2 1_555 1_555
B3 C1 1_555 1_555
H8 B3 1_555 1_555
B4 B1 1_555 1_555
H9 B4 1_555 1_555
B5 B1 1_555 1_555
H10 B5 1_555 1_555
B6 C1 1_555 1_555
H11 B6 1_555 1_555
B7 C1 1_555 1_555
H12 B7 1_555 1_555
B8 C1 1_555 1_555
H13 B8 1_555 1_555
B9 B1 1_555 1_555
H14 B9 1_555 1_555
B10 C2 1_555 1_555
H15 B10 1_555 1_555
C10 C9 1_555 1_555
H16 C10 1_555 1_555
H17 C10 1_555 1_555
H18 C10 1_555 1_555
C11 C9 1_555 1_555
H19 C11 1_555 1_555
H20 C11 1_555 1_555
H21 C11 1_555 1_555
C12 C9 1_555 1_555
H22 C12 1_555 1_555
H23 C12 1_555 1_555
H24 C12 1_555 1_555
N1 C2 1_555 1_555
C2 B3 1_555 1_555
C2 B8 1_555 1_555
C7 C8 1_555 1_555
B1 B2 1_555 1_555
B1 B10 1_555 1_555
B2 B3 1_555 1_555
B2 B4 1_555 1_555
B2 B10 1_555 1_555
B3 B4 1_555 1_555
B3 B6 1_555 1_555
B4 B5 1_555 1_555
B4 B6 1_555 1_555
B5 B6 1_555 1_555
B5 B7 1_555 1_555
B5 B9 1_555 1_555
B6 B7 1_555 1_555
B7 B8 1_555 1_555
B7 B9 1_555 1_555
B8 B9 1_555 1_555
B8 B10 1_555 1_555
B9 B10 1_555 1_555

#END
