
#######################################################################
#
#                 Cambridge Crystallographic Data Centre
#                                CCDC 
#
#######################################################################
#
# If this CIF has been generated from an entry in the Cambridge 
# Structural Database, then it will include bibliographic, chemical, 
# crystal, experimental, refinement or atomic coordinate data resulting 
# from the CCDC's data processing and validation procedures.
#
#######################################################################

data_XANSAJ
_chemical_formula_moiety         'C9 H18 B10 N2 O1'
_chemical_name_systematic        
1-(2-(4-methoxyphenyl)diazen-1-yl)-1,2-dicarba-closo-dodecaborane(11)
_symmetry_cell_setting           orthorhombic
_symmetry_space_group_name_H-M   'P 21 21 21'
_symmetry_Int_Tables_number      19
_space_group_name_Hall           'P 2ac 2ab'
loop_
_symmetry_equiv_pos_site_id
_symmetry_equiv_pos_as_xyz
1 x,y,z
2 1/2-x,-y,1/2+z
3 1/2+x,1/2-y,-z
4 -x,1/2+y,1/2-z
_cell_length_a                   7.0280(8)
_cell_length_b                   19.930(2)
_cell_length_c                   33.434(3)
_cell_angle_alpha                90
_cell_angle_beta                 90
_cell_angle_gamma                90
_cell_volume                     4683.03
_exptl_crystal_colour            yellow
_exptl_crystal_description       block
_cell_formula_units_Z            12
loop_
_atom_site_label
_atom_site_type_symbol
_atom_site_fract_x
_atom_site_fract_y
_atom_site_fract_z
N1 N 0.2724(6) 0.62600(19) 0.07622(11)
N2 N 0.2305(6) 0.68335(19) 0.08593(11)
O1 O 0.2185(6) 0.75146(15) 0.24383(9)
B1 B 0.4509(10) 0.6522(3) 0.00764(19)
H1 H 0.5680 0.6811 0.0211
B2 B 0.3509(10) 0.6743(4) -0.0383(2)
H2 H 0.4043 0.7173 -0.0556
B3 B 0.4775(10) 0.5999(4) -0.0340(2)
H3 H 0.6160 0.5937 -0.0488
B4 B 0.4321(10) 0.5630(3) 0.01335(19)
H4 H 0.5383 0.5332 0.0297
B5 B 0.1858(10) 0.5446(3) 0.01536(19)
H5 H 0.1320 0.5031 0.0339
B6 B 0.0557(10) 0.6184(3) 0.00992(19)
H6 H -0.0829 0.6255 0.0246
B7 B 0.1046(10) 0.6539(4) -0.03617(19)
H7 H -0.0031 0.6841 -0.0519
B8 B 0.2651(10) 0.6008(3) -0.06082(19)
H8 H 0.2636 0.5953 -0.0936
B9 B 0.3123(11) 0.5331(4) -0.0290(2)
H9 H 0.3419 0.4826 -0.0407
B10 B 0.0854(10) 0.5660(3) -0.0310(2)
H10 H -0.0333 0.5374 -0.0440
C1 C 0.2719(8) 0.6165(2) 0.03352(13)
C2 C 0.2265(8) 0.6791(2) 0.00420(13)
H11 H 0.1965 0.7293 0.0163
C3 C 0.2328(7) 0.6956(2) 0.12716(13)
C4 C 0.2839(7) 0.6499(2) 0.15525(13)
H12 H 0.3211 0.6070 0.1475
C5 C 0.2809(7) 0.6667(2) 0.19500(13)
H13 H 0.3144 0.6353 0.2143
C6 C 0.2290(7) 0.7288(2) 0.20562(13)
C7 C 0.1765(7) 0.7755(2) 0.17773(15)
H14 H 0.1394 0.8183 0.1857
C8 C 0.1789(7) 0.7590(2) 0.13806(14)
H15 H 0.1445 0.7904 0.1188
C9 C 0.2699(10) 0.7052(2) 0.27400(14)
H16 H 0.1917 0.6659 0.2719
H17 H 0.2519 0.7254 0.2998
H18 H 0.4011 0.6929 0.2708
N3 N 0.2614(7) 0.28450(17) 0.23113(12)
N4 N 0.2900(6) 0.30647(18) 0.26494(13)
O2 O 0.2481(6) 0.13478(16) 0.39240(9)
B11 B 0.4818(11) 0.3716(3) 0.1906(2)
H19 H 0.6179 0.3568 0.2042
B12 B 0.4282(12) 0.4544(3) 0.1792(2)
H20 H 0.5305 0.4949 0.1852
B13 B 0.4632(11) 0.3958(3) 0.1413(2)
H21 H 0.5886 0.3973 0.1217
B14 B 0.3617(11) 0.3206(3) 0.1569(2)
H22 H 0.4193 0.2716 0.1479
B15 B 0.1182(11) 0.3318(3) 0.1630(2)
H23 H 0.0172 0.2904 0.1581
B16 B 0.0847(11) 0.3909(3) 0.2007(2)
H24 H -0.0377 0.3887 0.2211
B17 B 0.1821(12) 0.4667(3) 0.1847(2)
H25 H 0.1226 0.5151 0.1944
B18 B 0.2766(12) 0.4547(3) 0.1378(2)
H26 H 0.2795 0.4954 0.1156
B19 B 0.2384(12) 0.3723(3) 0.1241(2)
H27 H 0.2158 0.3581 0.0927
B20 B 0.0641(13) 0.4163(3) 0.1507(2)
H28 H -0.0728 0.4310 0.1374
C10 C 0.2678(8) 0.3372(2) 0.20182(14)
C11 C 0.3071(9) 0.4140(2) 0.21393(16)
H29 H 0.3318 0.4283 0.2453
C12 C 0.2810(7) 0.2573(2) 0.29497(14)
C13 C 0.2297(8) 0.1920(2) 0.28986(14)
H30 H 0.2029 0.1763 0.2643
C14 C 0.2172(7) 0.1497(2) 0.32130(13)
H31 H 0.1830 0.1051 0.3173
C15 C 0.2549(8) 0.1727(2) 0.35908(14)
C16 C 0.3095(7) 0.2378(2) 0.36473(15)
H32 H 0.3396 0.2529 0.3903
C17 C 0.3200(7) 0.2806(2) 0.33332(15)
H33 H 0.3531 0.3253 0.3374
C18 C 0.1967(10) 0.0673(3) 0.38918(15)
H34 H 0.0710 0.0641 0.3781
H35 H 0.1986 0.0470 0.4152
H36 H 0.2851 0.0446 0.3720
N5 N 0.2665(7) 0.1074(2) 0.06861(13)
N6 N 0.2748(7) 0.13205(18) 0.10224(12)
O3 O 0.2652(15) 0.2941(4) -0.05229(19)
B21 B 0.4511(11) 0.0220(3) 0.13016(19)
H37 H 0.5613 0.0192 0.1069
B22 B 0.3513(10) -0.0488(3) 0.14910(19)
H38 H 0.3935 -0.0988 0.1383
B23 B 0.4965(11) 0.0009(3) 0.1789(2)
H39 H 0.6376 -0.0162 0.1887
B24 B 0.4506(11) 0.0843(3) 0.16625(19)
H40 H 0.5623 0.1229 0.1669
B25 B 0.2189(11) 0.1030(3) 0.17887(18)
H41 H 0.1768 0.1538 0.1883
B26 B 0.0692(11) 0.0535(3) 0.1496(2)
H42 H -0.0707 0.0708 0.1391
B27 B 0.1161(11) -0.0315(3) 0.1629(2)
H43 H 0.0045 -0.0702 0.1616
B28 B 0.2896(11) -0.0318(3) 0.19936(18)
H44 H 0.2944 -0.0705 0.2228
B29 B 0.3506(12) 0.0513(3) 0.2092(2)
H45 H 0.3950 0.0680 0.2392
B30 B 0.1178(12) 0.0298(3) 0.1989(2)
H46 H 0.0062 0.0314 0.2219
C19 C 0.2766(8) 0.0820(2) 0.13256(13)
C20 C 0.2250(9) 0.0049(2) 0.12298(15)
H47 H 0.1824 -0.0101 0.0926
C21 C 0.2647(9) 0.1555(2) 0.03768(14)
C22 C 0.268(4) 0.2233(3) 0.0454(3)
H48 H 0.2703 0.2383 0.0717
C23 C 0.267(3) 0.2693(4) 0.0148(3)
H49 H 0.2687 0.3151 0.0201
C24 C 0.263(2) 0.2463(4) -0.0238(3)
C25 C 0.276(2) 0.1788(5) -0.0324(3)
H50 H 0.2785 0.1641 -0.0588
C26 C 0.2845(18) 0.1328(5) -0.0012(2)
H51 H 0.3034 0.0875 -0.0064
C27 C 0.275(2) 0.2760(7) -0.0929(3)
H52 H 0.3347 0.2329 -0.0954
H53 H 0.3482 0.3088 -0.1073
H54 H 0.1489 0.2740 -0.1039
O4? O 0.261(3) 0.2569(6) -0.0677(4)
C28? C 0.265(8) 0.2245(4) 0.0376(4)
H55? H 0.2637 0.2480 0.0616
C29? C 0.267(5) 0.2587(7) 0.0018(5)
H56? H 0.2657 0.3053 0.0013
C30? C 0.270(4) 0.2224(8) -0.0333(4)
C31? C 0.227(3) 0.1550(8) -0.0333(3)
H57? H 0.2016 0.1328 -0.0572
C32? C 0.223(3) 0.1206(6) 0.0028(3)
H58? H 0.1933 0.0752 0.0036
C33? C 0.266(4) 0.3291(7) -0.0659(6)
H59? H 0.1681 0.3449 -0.0484
H60? H 0.2469 0.3471 -0.0922
H61? H 0.3881 0.3433 -0.0560
loop_
_geom_bond_atom_site_label_1
_geom_bond_atom_site_label_2
_geom_bond_site_symmetry_1
_geom_bond_site_symmetry_2
N1 N2 1_555 1_555
N2 C3 1_555 1_555
O1 C6 1_555 1_555
B1 H1 1_555 1_555
B2 B1 1_555 1_555
H2 B2 1_555 1_555
B3 B1 1_555 1_555
H3 B3 1_555 1_555
B4 B1 1_555 1_555
H4 B4 1_555 1_555
B5 B4 1_555 1_555
H5 B5 1_555 1_555
B6 B5 1_555 1_555
H6 B6 1_555 1_555
B7 B2 1_555 1_555
H7 B7 1_555 1_555
B8 B2 1_555 1_555
H8 B8 1_555 1_555
B9 B3 1_555 1_555
H9 B9 1_555 1_555
B10 B5 1_555 1_555
H10 B10 1_555 1_555
C1 N1 1_555 1_555
C2 B1 1_555 1_555
H11 C2 1_555 1_555
C3 C4 1_555 1_555
C4 H12 1_555 1_555
C5 C4 1_555 1_555
H13 C5 1_555 1_555
C6 C5 1_555 1_555
C7 C6 1_555 1_555
H14 C7 1_555 1_555
C8 C3 1_555 1_555
H15 C8 1_555 1_555
C9 O1 1_555 1_555
H16 C9 1_555 1_555
H17 C9 1_555 1_555
H18 C9 1_555 1_555
N3 N4 1_555 1_555
N4 C12 1_555 1_555
O2 C15 1_555 1_555
B11 H19 1_555 1_555
B12 B11 1_555 1_555
H20 B12 1_555 1_555
B13 B11 1_555 1_555
H21 B13 1_555 1_555
B14 B11 1_555 1_555
H22 B14 1_555 1_555
B15 B14 1_555 1_555
H23 B15 1_555 1_555
B16 B15 1_555 1_555
H24 B16 1_555 1_555
B17 B12 1_555 1_555
H25 B17 1_555 1_555
B18 B12 1_555 1_555
H26 B18 1_555 1_555
B19 B13 1_555 1_555
H27 B19 1_555 1_555
B20 B15 1_555 1_555
H28 B20 1_555 1_555
C10 N3 1_555 1_555
C11 B11 1_555 1_555
H29 C11 1_555 1_555
C12 C13 1_555 1_555
C13 H30 1_555 1_555
C14 C13 1_555 1_555
H31 C14 1_555 1_555
C15 C14 1_555 1_555
C16 C15 1_555 1_555
H32 C16 1_555 1_555
C17 C12 1_555 1_555
H33 C17 1_555 1_555
C18 O2 1_555 1_555
H34 C18 1_555 1_555
H35 C18 1_555 1_555
H36 C18 1_555 1_555
N5 N6 1_555 1_555
N6 C19 1_555 1_555
O3 C24 1_555 1_555
B21 H37 1_555 1_555
B22 B21 1_555 1_555
H38 B22 1_555 1_555
B23 B21 1_555 1_555
H39 B23 1_555 1_555
B24 B21 1_555 1_555
H40 B24 1_555 1_555
B25 B24 1_555 1_555
H41 B25 1_555 1_555
B26 B25 1_555 1_555
H42 B26 1_555 1_555
B27 B22 1_555 1_555
H43 B27 1_555 1_555
B28 B22 1_555 1_555
H44 B28 1_555 1_555
B29 B23 1_555 1_555
H45 B29 1_555 1_555
B30 B25 1_555 1_555
H46 B30 1_555 1_555
C19 B21 1_555 1_555
C20 B21 1_555 1_555
H47 C20 1_555 1_555
C21 N5 1_555 1_555
C22 C21 1_555 1_555
H48 C22 1_555 1_555
C23 C22 1_555 1_555
H49 C23 1_555 1_555
C24 C23 1_555 1_555
C25 C24 1_555 1_555
H50 C25 1_555 1_555
C26 C21 1_555 1_555
H51 C26 1_555 1_555
C27 O3 1_555 1_555
H52 C27 1_555 1_555
H53 C27 1_555 1_555
H54 C27 1_555 1_555
B1 C1 1_555 1_555
B2 B3 1_555 1_555
B2 C2 1_555 1_555
B3 B4 1_555 1_555
B3 B8 1_555 1_555
B4 B9 1_555 1_555
B4 C1 1_555 1_555
B5 B9 1_555 1_555
B5 C1 1_555 1_555
B6 B7 1_555 1_555
B6 B10 1_555 1_555
B6 C1 1_555 1_555
B6 C2 1_555 1_555
B7 B8 1_555 1_555
B7 B10 1_555 1_555
B7 C2 1_555 1_555
B8 B9 1_555 1_555
B8 B10 1_555 1_555
B9 B10 1_555 1_555
C1 C2 1_555 1_555
C7 C8 1_555 1_555
B11 C10 1_555 1_555
B12 B13 1_555 1_555
B12 C11 1_555 1_555
B13 B14 1_555 1_555
B13 B18 1_555 1_555
B14 B19 1_555 1_555
B14 C10 1_555 1_555
B15 B19 1_555 1_555
B15 C10 1_555 1_555
B16 B17 1_555 1_555
B16 B20 1_555 1_555
B16 C10 1_555 1_555
B16 C11 1_555 1_555
B17 B18 1_555 1_555
B17 B20 1_555 1_555
B17 C11 1_555 1_555
B18 B19 1_555 1_555
B18 B20 1_555 1_555
B19 B20 1_555 1_555
C10 C11 1_555 1_555
C16 C17 1_555 1_555
B22 B23 1_555 1_555
B22 C20 1_555 1_555
B23 B24 1_555 1_555
B23 B28 1_555 1_555
B24 B29 1_555 1_555
B24 C19 1_555 1_555
B25 B29 1_555 1_555
B25 C19 1_555 1_555
B26 B27 1_555 1_555
B26 B30 1_555 1_555
B26 C19 1_555 1_555
B26 C20 1_555 1_555
B27 B28 1_555 1_555
B27 B30 1_555 1_555
B27 C20 1_555 1_555
B28 B29 1_555 1_555
B28 B30 1_555 1_555
B29 B30 1_555 1_555
C19 C20 1_555 1_555
C25 C26 1_555 1_555

#END
