
#######################################################################
#
#                 Cambridge Crystallographic Data Centre
#                                CCDC 
#
#######################################################################
#
# If this CIF has been generated from an entry in the Cambridge 
# Structural Database, then it will include bibliographic, chemical, 
# crystal, experimental, refinement or atomic coordinate data resulting 
# from the CCDC's data processing and validation procedures.
#
#######################################################################

data_XAPDOJ
_chemical_formula_moiety         'C24 H21 Cl1 N2 O2 S1'
_chemical_name_systematic        
N-(2-(8-Chloroquinolin-2-yl)-1-phenylethyl)-4-methylbenzenesulfonamide
_symmetry_cell_setting           tetragonal
_symmetry_space_group_name_H-M   'P 42/n'
_symmetry_Int_Tables_number      86
_space_group_name_Hall           '-P 4bc'
loop_
_symmetry_equiv_pos_site_id
_symmetry_equiv_pos_as_xyz
1 x,y,z
2 1/2-x,1/2-y,z
3 -y,1/2+x,1/2+z
4 1/2+y,-x,1/2+z
5 -x,-y,-z
6 1/2+x,1/2+y,-z
7 y,1/2-x,1/2-z
8 1/2-y,x,1/2-z
_cell_length_a                   22.6880(5)
_cell_length_b                   22.6880(5)
_cell_length_c                   8.4809(3)
_cell_angle_alpha                90
_cell_angle_beta                 90
_cell_angle_gamma                90
_cell_volume                     4365.5
_exptl_crystal_colour            colorless
_exptl_crystal_description       block
_cell_formula_units_Z            8
loop_
_atom_site_label
_atom_site_type_symbol
_atom_site_fract_x
_atom_site_fract_y
_atom_site_fract_z
C1 C 0.93772(19) 0.14209(18) 0.9876(9)
H1 H 0.9451 0.1804 0.9541
C2 C 0.86354(14) -0.16369(13) 0.5433(4)
C3 C 0.86419(13) -0.11175(12) 0.6577(4)
H2 H 0.8319 -0.1167 0.7333
C4 C 0.89949(15) -0.16298(14) 0.4122(4)
H3 H 0.9236 -0.1306 0.3929
C5 C 0.82889(15) -0.21206(15) 0.5704(5)
H4 H 0.8048 -0.2132 0.6590
N1 N 0.93338(11) -0.00690(11) 0.8218(3)
C6 C 0.92243(15) -0.10895(14) 0.7486(4)
H5 H 0.9294 -0.1466 0.7993
H6 H 0.9544 -0.1019 0.6750
C7 C 0.90463(17) -0.02973(17) 1.1367(4)
H7 H 0.8950 -0.0379 1.2411
C8 C 0.92972(13) 0.03747(14) 0.9295(5)
C9 C 0.90727(16) -0.07405(16) 1.0297(4)
H8 H 0.8992 -0.1126 1.0600
C10 C 0.86476(18) -0.25807(17) 0.3353(5)
H9 H 0.8647 -0.2895 0.2650
C11 C 0.76765(15) -0.00081(16) 0.8713(4)
H10 H 0.7612 -0.0411 0.8822
C12 C 0.79348(16) 0.08234(16) 0.7121(4)
H11 H 0.8051 0.0982 0.6159
C13 C 0.89988(17) -0.21032(16) 0.3093(4)
H12 H 0.9244 -0.2095 0.2214
C14 C 0.91625(15) 0.02795(16) 1.0904(4)
C15 C 0.76130(16) 0.03610(17) 0.9999(5)
H13 H 0.7510 0.0200 1.0970
C16 C 0.92242(14) -0.06117(14) 0.8715(4)
C17 C 0.78344(13) 0.02202(14) 0.7278(4)
C18 C 0.76970(16) 0.09511(18) 0.9882(5)
C19 C 0.93927(16) 0.09626(17) 0.8814(6)
C20 C 0.82946(17) -0.25910(17) 0.4671(5)
H14 H 0.8058 -0.2917 0.4868
C21 C 0.91443(19) 0.07612(19) 1.1958(6)
H15 H 0.9057 0.0697 1.3016
C22 C 0.7619(2) 0.1359(2) 1.1286(6)
H16 H 0.7216 0.1345 1.1635
H17 H 0.7717 0.1755 1.0983
H18 H 0.7873 0.1235 1.2126
C23 C 0.9252(2) 0.1309(2) 1.1447(8)
H19 H 0.9243 0.1621 1.2160
C24 C 0.78579(17) 0.11801(17) 0.8427(5)
H20 H 0.7916 0.1584 0.8328
O1 O 0.74866(10) -0.07033(11) 0.5711(3)
O2 O 0.79278(11) 0.01344(12) 0.4258(3)
N2 N 0.85556(13) -0.05546(12) 0.5728(3)
S1 S 0.79167(4) -0.02411(4) 0.56113(10)
Cl1 Cl 0.95221(6) 0.11064(5) 0.68376(18)
H21 H 0.8819(15) -0.0356(14) 0.583(4)
loop_
_geom_bond_atom_site_label_1
_geom_bond_atom_site_label_2
_geom_bond_site_symmetry_1
_geom_bond_site_symmetry_2
C1 H1 1_555 1_555
C2 C3 1_555 1_555
C3 H2 1_555 1_555
C4 C2 1_555 1_555
H3 C4 1_555 1_555
C5 C2 1_555 1_555
H4 C5 1_555 1_555
N1 C8 1_555 1_555
C6 C3 1_555 1_555
H5 C6 1_555 1_555
H6 C6 1_555 1_555
C7 H7 1_555 1_555
C8 C14 1_555 1_555
C9 C7 1_555 1_555
H8 C9 1_555 1_555
C10 H9 1_555 1_555
C11 H10 1_555 1_555
C12 H11 1_555 1_555
C13 C4 1_555 1_555
H12 C13 1_555 1_555
C14 C7 1_555 1_555
C15 C11 1_555 1_555
H13 C15 1_555 1_555
C16 N1 1_555 1_555
C17 C11 1_555 1_555
C18 C15 1_555 1_555
C19 C1 1_555 1_555
C20 C5 1_555 1_555
H14 C20 1_555 1_555
C21 C14 1_555 1_555
H15 C21 1_555 1_555
C22 C18 1_555 1_555
H16 C22 1_555 1_555
H17 C22 1_555 1_555
H18 C22 1_555 1_555
C23 C1 1_555 1_555
H19 C23 1_555 1_555
C24 C12 1_555 1_555
H20 C24 1_555 1_555
O1 S1 1_555 1_555
O2 S1 1_555 1_555
N2 C3 1_555 1_555
S1 C17 1_555 1_555
Cl1 C19 1_555 1_555
H21 N2 1_555 1_555
C6 C16 1_555 1_555
C8 C19 1_555 1_555
C9 C16 1_555 1_555
C10 C13 1_555 1_555
C10 C20 1_555 1_555
C12 C17 1_555 1_555
C18 C24 1_555 1_555
C21 C23 1_555 1_555
N2 S1 1_555 1_555

#END
