
#######################################################################
#
#                 Cambridge Crystallographic Data Centre
#                                CCDC 
#
#######################################################################
#
# If this CIF has been generated from an entry in the Cambridge 
# Structural Database, then it will include bibliographic, chemical, 
# crystal, experimental, refinement or atomic coordinate data resulting 
# from the CCDC's data processing and validation procedures.
#
#######################################################################

data_XAPTAM
_chemical_formula_moiety         'C31 H32 F1 N5 O5 Si1'
_chemical_name_systematic        
'(2R,3S,5R)-2-ethynyl-5-(2-fluoro-6-((trimethylsilyl)amino)-9H-purin-9-yl)-2-(((4-methylbenzoyl)oxy)methyl)tetrahydrofuran-3-yl 4-methylbenzoate'
_symmetry_cell_setting           orthorhombic
_symmetry_space_group_name_H-M   'P 21 21 21'
_symmetry_Int_Tables_number      19
_space_group_name_Hall           'P 2ac 2ab'
loop_
_symmetry_equiv_pos_site_id
_symmetry_equiv_pos_as_xyz
1 x,y,z
2 1/2+x,1/2-y,-z
3 -x,1/2+y,1/2-z
4 1/2-x,-y,1/2+z
_cell_length_a                   7.0414(8)
_cell_length_b                   12.1941(13)
_cell_length_c                   34.833(4)
_cell_angle_alpha                90
_cell_angle_beta                 90
_cell_angle_gamma                90
_cell_volume                     2990.88
_exptl_crystal_colour            colorless
_exptl_crystal_description       plate
_cell_formula_units_Z            4
_exptl_crystal_recrystallization_method acetonitrile
loop_
_atom_site_label
_atom_site_type_symbol
_atom_site_fract_x
_atom_site_fract_y
_atom_site_fract_z
C1 C 0.2392(3) 0.00306(15) 0.17807(5)
C2 C 0.0258(3) -0.00624(16) 0.16886(5)
H1 H -0.0350 0.0652 0.1650
C3 C -0.0514(3) -0.06728(16) 0.20328(5)
H2 H -0.1691 -0.1047 0.1972
H3 H -0.0722 -0.0183 0.2248
C4 C 0.1075(3) -0.14829(15) 0.21155(5)
H4 H 0.0872 -0.2141 0.1959
C5 C 0.2880(3) 0.09516(14) 0.20603(5)
H5 H 0.1997 0.0940 0.2274
H6 H 0.4149 0.0840 0.2161
C6 C 0.3263(3) 0.28371(15) 0.21050(5)
C7 C 0.3434(2) 0.39017(15) 0.19054(6)
C8 C 0.4209(3) 0.47734(16) 0.21118(5)
H7 H 0.4535 0.4677 0.2368
C9 C 0.4498(3) 0.57812(16) 0.19384(6)
H8 H 0.5035 0.6352 0.2078
C10 C 0.3990(3) 0.59466(16) 0.15555(6)
C11 C 0.3165(3) 0.50782(16) 0.13557(6)
H9 H 0.2773 0.5186 0.1104
C12 C 0.2916(3) 0.40617(16) 0.15229(6)
H10 H 0.2405 0.3486 0.1381
C13 C 0.4381(3) 0.70266(17) 0.13616(7)
H11 H 0.5546 0.6978 0.1220
H12 H 0.4488 0.7593 0.1552
H13 H 0.3357 0.7198 0.1190
C14 C -0.0370(3) -0.03429(16) 0.10197(5)
C15 C -0.0482(3) -0.11942(16) 0.07122(5)
C16 C -0.0662(3) -0.08398(17) 0.03318(6)
H14 H -0.0738 -0.0095 0.0277
C17 C -0.0726(3) -0.16023(18) 0.00377(6)
H15 H -0.0846 -0.1361 -0.0214
C18 C -0.0615(3) -0.27115(18) 0.01105(6)
C19 C -0.0463(3) -0.30548(17) 0.04914(6)
H16 H -0.0409 -0.3801 0.0546
C20 C -0.0391(3) -0.23064(16) 0.07901(6)
H17 H -0.0282 -0.2550 0.1042
C21 C -0.0640(3) -0.35257(19) -0.02178(6)
H18 H -0.1805 -0.3451 -0.0359
H19 H -0.0547 -0.4257 -0.0118
H20 H 0.0414 -0.3386 -0.0385
C22 C 0.3607(3) 0.00677(15) 0.14371(5)
C23 C 0.4596(3) 0.01034(17) 0.11638(6)
H21 H 0.5375 0.0131 0.0948
C24 C 0.1767(3) -0.28578(15) 0.26262(5)
H22 H 0.1830 -0.3445 0.2456
C25 C 0.1873(2) -0.18951(15) 0.31324(6)
C26 C 0.2047(3) -0.14683(15) 0.35044(5)
C27 C 0.1203(3) 0.01721(15) 0.32469(5)
C28 C 0.1348(2) -0.11830(15) 0.28423(5)
C29 C -0.0152(3) -0.1423(2) 0.44108(6)
H23 H -0.0640 -0.0867 0.4242
H24 H -0.0269 -0.1182 0.4672
H25 H -0.0862 -0.2088 0.4376
C30 C 0.3343(4) -0.2846(2) 0.45780(7)
H26 H 0.2672 -0.3504 0.4510
H27 H 0.3183 -0.2706 0.4847
H28 H 0.4669 -0.2935 0.4522
C31 C 0.3828(3) -0.04553(18) 0.44089(6)
H29 H 0.5151 -0.0645 0.4401
H30 H 0.3511 -0.0191 0.4660
H31 H 0.3574 0.0107 0.4223
F1 F 0.08842(16) 0.12407(9) 0.33187(3)
N1 N 0.1285(2) -0.18087(12) 0.25128(4)
N2 N 0.2127(2) -0.29550(12) 0.29909(4)
N3 N 0.1680(2) -0.03919(13) 0.35561(4)
N4 N 0.0983(2) -0.01021(12) 0.28844(4)
N5 N 0.2548(3) -0.20732(14) 0.38126(5)
H32 H 0.2992 -0.2718 0.3768
O1 O 0.28114(18) -0.09655(10) 0.19939(4)
O2 O 0.27818(18) 0.19995(10) 0.18708(4)
O3 O 0.3535(2) 0.27125(11) 0.24461(4)
O4 O 0.00371(19) -0.07907(10) 0.13630(4)
O5 O -0.0632(2) 0.06200(12) 0.09691(4)
Si1 Si 0.23855(9) -0.16768(5) 0.429858(15)
loop_
_geom_bond_atom_site_label_1
_geom_bond_atom_site_label_2
_geom_bond_site_symmetry_1
_geom_bond_site_symmetry_2
C1 C2 1_555 1_555
C2 H1 1_555 1_555
C3 C2 1_555 1_555
H2 C3 1_555 1_555
H3 C3 1_555 1_555
C4 C3 1_555 1_555
H4 C4 1_555 1_555
C5 C1 1_555 1_555
H5 C5 1_555 1_555
H6 C5 1_555 1_555
C6 C7 1_555 1_555
C7 C8 1_555 1_555
C8 H7 1_555 1_555
C9 C8 1_555 1_555
H8 C9 1_555 1_555
C10 C9 1_555 1_555
C11 C10 1_555 1_555
H9 C11 1_555 1_555
C12 C7 1_555 1_555
H10 C12 1_555 1_555
C13 C10 1_555 1_555
H11 C13 1_555 1_555
H12 C13 1_555 1_555
H13 C13 1_555 1_555
C14 C15 1_555 1_555
C15 C16 1_555 1_555
C16 H14 1_555 1_555
C17 C16 1_555 1_555
H15 C17 1_555 1_555
C18 C17 1_555 1_555
C19 C18 1_555 1_555
H16 C19 1_555 1_555
C20 C15 1_555 1_555
H17 C20 1_555 1_555
C21 C18 1_555 1_555
H18 C21 1_555 1_555
H19 C21 1_555 1_555
H20 C21 1_555 1_555
C22 C1 1_555 1_555
C23 C22 1_555 1_555
H21 C23 1_555 1_555
C24 H22 1_555 1_555
C25 C26 1_555 1_555
C26 N3 1_555 1_555
C27 F1 1_555 1_555
C28 C25 1_555 1_555
C29 H23 1_555 1_555
H24 C29 1_555 1_555
H25 C29 1_555 1_555
C30 H26 1_555 1_555
H27 C30 1_555 1_555
H28 C30 1_555 1_555
C31 H29 1_555 1_555
H30 C31 1_555 1_555
H31 C31 1_555 1_555
N1 C4 1_555 1_555
N2 C24 1_555 1_555
N3 C27 1_555 1_555
N4 C27 1_555 1_555
N5 C26 1_555 1_555
H32 N5 1_555 1_555
O1 C1 1_555 1_555
O2 C5 1_555 1_555
O3 C6 1_555 1_555
O4 C2 1_555 1_555
O5 C14 1_555 1_555
Si1 C29 1_555 1_555
C4 O1 1_555 1_555
C6 O2 1_555 1_555
C11 C12 1_555 1_555
C14 O4 1_555 1_555
C19 C20 1_555 1_555
C24 N1 1_555 1_555
C25 N2 1_555 1_555
C28 N1 1_555 1_555
C28 N4 1_555 1_555
C30 Si1 1_555 1_555
C31 Si1 1_555 1_555
N5 Si1 1_555 1_555

#END
