
#######################################################################
#
#                 Cambridge Crystallographic Data Centre
#                                CCDC 
#
#######################################################################
#
# If this CIF has been generated from an entry in the Cambridge 
# Structural Database, then it will include bibliographic, chemical, 
# crystal, experimental, refinement or atomic coordinate data resulting 
# from the CCDC's data processing and validation procedures.
#
#######################################################################

data_XAPWIV
_chemical_formula_moiety         'C20 H20 N2 O2 S1'
_chemical_name_systematic        
(Z)-4-(4-Methoxybenzylidene)-2-methylsulfanyl-3-(2-phenylethyl)-1H-imidazol-5(4H)-one
_symmetry_cell_setting           triclinic
_symmetry_space_group_name_H-M   'P -1'
_symmetry_Int_Tables_number      2
_space_group_name_Hall           '-P 1'
loop_
_symmetry_equiv_pos_site_id
_symmetry_equiv_pos_as_xyz
1 x,y,z
2 -x,-y,-z
_cell_length_a                   9.7833(10)
_cell_length_b                   9.9027(10)
_cell_length_c                   10.2853(11)
_cell_angle_alpha                101.957(2)
_cell_angle_beta                 104.951(2)
_cell_angle_gamma                101.511(2)
_cell_volume                     907.461
_exptl_crystal_colour            colorless
_exptl_crystal_description       block
_chemical_melting_point          402-404K
_cell_formula_units_Z            2
_exptl_crystal_recrystallization_method ethanol
loop_
_atom_site_label
_atom_site_type_symbol
_atom_site_fract_x
_atom_site_fract_y
_atom_site_fract_z
S1 S 0.50209(11) 0.61314(10) 0.84456(9)
O1 O 0.1406(3) 0.3660(3) 0.3744(3)
O2 O 0.6707(3) 1.0700(3) 0.1980(3)
N1 N 0.2948(3) 0.4583(3) 0.6018(3)
N2 N 0.4485(3) 0.6532(3) 0.5857(3)
C1 C -0.0364(4) 0.1606(4) 0.7171(4)
H1 H -0.0477 0.1267 0.6226
C2 C -0.0959(5) 0.0687(5) 0.7855(6)
H2 H -0.1461 -0.0260 0.7372
C3 C -0.0804(5) 0.1182(5) 0.9239(5)
H3 H -0.1222 0.0577 0.9696
C4 C -0.0044(4) 0.2552(5) 0.9951(4)
H4 H 0.0077 0.2882 1.0899
C5 C 0.0550(4) 0.3453(4) 0.9266(4)
H5 H 0.1074 0.4391 0.9765
C6 C 0.0389(4) 0.3007(4) 0.7865(4)
C7 C 0.1041(4) 0.4011(4) 0.7127(4)
H6 H 0.0277 0.4025 0.6317
H7 H 0.1414 0.4973 0.7752
C8 C 0.2265(4) 0.3574(3) 0.6663(4)
H8 H 0.3004 0.3508 0.7465
H9 H 0.1879 0.2633 0.5998
C9 C 0.4144(3) 0.5774(3) 0.6674(3)
C10 C 0.3452(3) 0.5849(3) 0.4542(3)
C11 C 0.2441(4) 0.4554(4) 0.4626(4)
C12 C 0.3336(3) 0.6248(3) 0.3353(3)
H10 H 0.2557 0.5666 0.2583
C13 C 0.4242(3) 0.7447(3) 0.3086(3)
C14 C 0.3934(4) 0.7582(4) 0.1727(3)
H11 H 0.3146 0.6913 0.1024
C15 C 0.4760(4) 0.8672(4) 0.1396(3)
H12 H 0.4524 0.8740 0.0480
C16 C 0.5937(4) 0.9668(3) 0.2417(3)
C17 C 0.6258(4) 0.9579(4) 0.3784(3)
H13 H 0.7039 1.0258 0.4484
C18 C 0.5411(4) 0.8474(3) 0.4102(3)
H14 H 0.5633 0.8422 0.5022
C19 C 0.6400(4) 0.7728(4) 0.8683(4)
H15 H 0.6995 0.7525 0.8096
H16 H 0.7006 0.8066 0.9644
H17 H 0.5939 0.8449 0.8438
C20 C 0.8012(4) 1.1660(4) 0.2945(4)
H18 H 0.7798 1.2163 0.3740
H19 H 0.8422 1.2335 0.2507
H20 H 0.8704 1.1136 0.3244
loop_
_geom_bond_atom_site_label_1
_geom_bond_atom_site_label_2
_geom_bond_site_symmetry_1
_geom_bond_site_symmetry_2
S1 C9 1_555 1_555
O1 C11 1_555 1_555
O2 C16 1_555 1_555
N1 C8 1_555 1_555
N2 C9 1_555 1_555
C1 H1 1_555 1_555
C2 C1 1_555 1_555
H2 C2 1_555 1_555
C3 C2 1_555 1_555
H3 C3 1_555 1_555
C4 C3 1_555 1_555
H4 C4 1_555 1_555
C5 C4 1_555 1_555
H5 C5 1_555 1_555
C6 C1 1_555 1_555
C7 C6 1_555 1_555
H6 C7 1_555 1_555
H7 C7 1_555 1_555
C8 C7 1_555 1_555
H8 C8 1_555 1_555
H9 C8 1_555 1_555
C9 N1 1_555 1_555
C10 N2 1_555 1_555
C11 N1 1_555 1_555
C12 C10 1_555 1_555
H10 C12 1_555 1_555
C13 C12 1_555 1_555
C14 C13 1_555 1_555
H11 C14 1_555 1_555
C15 C14 1_555 1_555
H12 C15 1_555 1_555
C16 C15 1_555 1_555
C17 C16 1_555 1_555
H13 C17 1_555 1_555
C18 C13 1_555 1_555
H14 C18 1_555 1_555
C19 S1 1_555 1_555
H15 C19 1_555 1_555
H16 C19 1_555 1_555
H17 C19 1_555 1_555
C20 O2 1_555 1_555
H18 C20 1_555 1_555
H19 C20 1_555 1_555
H20 C20 1_555 1_555
C5 C6 1_555 1_555
C10 C11 1_555 1_555
C17 C18 1_555 1_555

#END
