
#######################################################################
#
#                 Cambridge Crystallographic Data Centre
#                                CCDC 
#
#######################################################################
#
# If this CIF has been generated from an entry in the Cambridge 
# Structural Database, then it will include bibliographic, chemical, 
# crystal, experimental, refinement or atomic coordinate data resulting 
# from the CCDC's data processing and validation procedures.
#
#######################################################################

data_XAPXIV
_chemical_formula_moiety         'C4 H8 N3 S1 1+,C8 H4 Cl3 O3 1-'
_chemical_name_systematic        
'2-Amino-5-ethyl-1,3,4-thiadiazole (2,4,5-trichlorophenoxy)acetic acid'
_symmetry_cell_setting           monoclinic
_symmetry_space_group_name_H-M   'C 2/c'
_symmetry_Int_Tables_number      15
_space_group_name_Hall           '-C 2yn'
loop_
_symmetry_equiv_pos_site_id
_symmetry_equiv_pos_as_xyz
1 x,y,z
2 -x,y,1/2-z
3 1/2+x,1/2+y,z
4 1/2-x,1/2+y,1/2-z
5 -x,-y,-z
6 x,-y,1/2+z
7 1/2-x,1/2-y,-z
8 1/2+x,1/2-y,1/2+z
_cell_length_a                   24.281(3)
_cell_length_b                   7.699(2)
_cell_length_c                   18.634(4)
_cell_angle_alpha                90
_cell_angle_beta                 99.53(1)
_cell_angle_gamma                90
_cell_volume                     3435.35
_exptl_crystal_colour            colorless
_exptl_crystal_description       prisms
_chemical_melting_point          '93-95 deg.C'
_cell_formula_units_Z            8
_exptl_crystal_recrystallization_method water/ethanol
loop_
_atom_site_label
_atom_site_type_symbol
_atom_site_fract_x
_atom_site_fract_y
_atom_site_fract_z
S1 S 0.8457(1) 0.2888(2) -0.2170(1)
C1 C 0.8210(2) 0.4838(7) -0.1896(3)
N1 N 0.7908(2) 0.5941(7) -0.2313(3)
N2 N 0.8398(2) 0.5061(7) -0.1191(3)
N3 N 0.8721(2) 0.3768(7) -0.0832(3)
C2 C 0.8784(3) 0.2551(8) -0.1281(4)
C3 C 0.9115(4) 0.0911(12) -0.1101(7)
C4 C 0.9311(7) 0.0760(2) -0.0432(12)
H1 H 0.7810(2) 0.6910(8) -0.2140(3)
H2 H 0.7760(3) 0.5500(8) -0.2770(4)
H3 H 0.8280(2) 0.5880(7) -0.0930(3)
C5 C 0.8294(3) 0.3658(7) 0.1026(3)
C6 C 0.8619(3) 0.2292(9) 0.1346(4)
Cl1 Cl 0.8302(1) 0.0388(3) 0.1550(1)
C7 C 0.9187(4) 0.2456(13) 0.1506(6)
C8 C 0.9437(4) 0.3986(17) 0.1347(6)
Cl2 Cl 1.0160(1) 0.4122(8) 0.1540(3)
C9 C 0.9121(4) 0.5344(12) 0.1029(5)
Cl3 Cl 0.9421(1) 0.7249(4) 0.0829(2)
C10 C 0.8555(3) 0.5168(9) 0.0879(3)
O1 O 0.7741(2) 0.3363(5) 0.0882(2)
C11 C 0.7393(3) 0.4608(7) 0.0453(3)
C12 C 0.7241(2) 0.6146(7) 0.0882(3)
O2 O 0.7411(2) 0.6205(5) 0.1552(2)
O3 O 0.6935(2) 0.7256(5) 0.0514(2)
H4 H 0.9403 0.1539 0.1720
H5 H 0.8340 0.6094 0.0671
H6 H 0.7052 0.4036 0.0226
H7 H 0.7584 0.5021 0.0069
C13? C 0.9255(14) -0.0270(4) -0.1478(17)
loop_
_geom_bond_atom_site_label_1
_geom_bond_atom_site_label_2
_geom_bond_site_symmetry_1
_geom_bond_site_symmetry_2
S1 C1 1_555 1_555
C1 N1 1_555 1_555
N1 H1 1_555 1_555
N2 C1 1_555 1_555
N3 N2 1_555 1_555
C2 S1 1_555 1_555
C3 C2 1_555 1_555
C4 C3 1_555 1_555
H2 N1 1_555 1_555
H3 N2 1_555 1_555
C5 C6 1_555 1_555
C6 Cl1 1_555 1_555
C7 C6 1_555 1_555
C8 C7 1_555 1_555
Cl2 C8 1_555 1_555
C9 C8 1_555 1_555
Cl3 C9 1_555 1_555
C10 C5 1_555 1_555
O1 C5 1_555 1_555
C11 O1 1_555 1_555
C12 C11 1_555 1_555
O2 C12 1_555 1_555
O3 C12 1_555 1_555
H4 C7 1_555 1_555
H5 C10 1_555 1_555
H6 C11 1_555 1_555
H7 C11 1_555 1_555
N3 C2 1_555 1_555
C9 C10 1_555 1_555

#END
