
#######################################################################
#
#                 Cambridge Crystallographic Data Centre
#                                CCDC 
#
#######################################################################
#
# If this CIF has been generated from an entry in the Cambridge 
# Structural Database, then it will include bibliographic, chemical, 
# crystal, experimental, refinement or atomic coordinate data resulting 
# from the CCDC's data processing and validation procedures.
#
#######################################################################

data_XAPYOC
_chemical_formula_moiety         'C32 H42 N6 O2 4+,4(Cl1 1-),6(C1 H4 O1)'
_chemical_name_systematic        
'15,31-Dimethyl-3,11,19,27-tetraazonia-33,35-diazapentacyclo(27.3.1.1^5,9^.1^13,17^.1^21,25^)hexatriaconta-1(36),5,7,9(33),13,15,17(34),21,23,25(35),29,31-dodecaene-34,36-diol tetrachloride methanol solvate'
_symmetry_cell_setting           triclinic
_symmetry_space_group_name_H-M   'P -1'
_symmetry_Int_Tables_number      2
_space_group_name_Hall           '-P 1'
loop_
_symmetry_equiv_pos_site_id
_symmetry_equiv_pos_as_xyz
1 x,y,z
2 -x,-y,-z
_cell_length_a                   9.2906(11)
_cell_length_b                   9.4416(13)
_cell_length_c                   14.332(2)
_cell_angle_alpha                76.417(11)
_cell_angle_beta                 73.912(10)
_cell_angle_gamma                71.765(10)
_cell_volume                     1132.06
_exptl_crystal_colour            colorless
_exptl_crystal_description       parallelepiped
_cell_formula_units_Z            1
loop_
_atom_site_label
_atom_site_type_symbol
_atom_site_fract_x
_atom_site_fract_y
_atom_site_fract_z
Cl1 Cl 0.2002(2) 0.5799(2) 0.5420(1)
Cl2 Cl 0.4075(2) 0.7272(2) 0.8040(1)
O1 O 0.4722(5) 0.3347(4) 0.4054(3)
N1 N 0.5041(6) 0.6565(5) 0.3856(3)
N2 N 0.3368(6) 0.6422(5) 0.2670(3)
N3 N 0.1139(6) 0.4917(5) 0.3623(3)
C1 C 0.4565(7) 0.8101(6) 0.4176(4)
C2 C 0.5847(7) 0.6526(7) 0.2815(4)
C3 C 0.4729(7) 0.6655(6) 0.2200(4)
C4 C 0.5172(8) 0.6902(7) 0.1174(4)
C5 C 0.4187(8) 0.6850(7) 0.0643(4)
C6 C 0.2770(8) 0.6572(7) 0.1129(4)
C7 C 0.2398(7) 0.6378(6) 0.2135(4)
C8 C 0.0882(7) 0.6090(7) 0.2731(4)
C9 C 0.2031(7) 0.3352(6) 0.3415(4)
C10 C 0.2496(7) 0.2378(6) 0.4335(4)
C11 C 0.1582(7) 0.1474(6) 0.4967(4)
C12 C 0.1906(7) 0.0640(6) 0.5866(4)
C13 C 0.3170(7) 0.0794(6) 0.6123(4)
C14 C 0.4132(7) 0.1678(6) 0.5525(4)
C15 C 0.3768(7) 0.2469(6) 0.4615(4)
C16 C 0.0918(8) -0.0347(7) 0.6513(4)
H1 H 0.4413(5) 0.3782(4) 0.3551(3)
H5 H 0.5666(6) 0.5908(5) 0.4236(3)
H6 H 0.4183(6) 0.6243(5) 0.3969(3)
H7 H 0.0207(6) 0.4874(5) 0.4017(3)
H8 H 0.1651(6) 0.5217(5) 0.3957(3)
H9 H 0.4280(7) 0.8889(6) 0.3637(4)
H10 H 0.3669(7) 0.8162(6) 0.4724(4)
H11 H 0.6657(7) 0.5586(7) 0.2762(4)
H12 H 0.6334(7) 0.7353(7) 0.2572(4)
H13 H 0.6125(8) 0.7099(7) 0.0858(4)
H14 H 0.4464(8) 0.7001(7) -0.0041(4)
H15 H 0.2086(8) 0.6517(7) 0.0780(4)
H16 H 0.0411(7) 0.5744(7) 0.2332(4)
H17 H 0.0178(7) 0.7021(7) 0.2935(4)
H18 H 0.2951(7) 0.3400(6) 0.2897(4)
H19 H 0.1392(7) 0.2916(6) 0.3194(4)
H20 H 0.0716(7) 0.1421(6) 0.4785(4)
H21 H 0.3390(7) 0.0280(6) 0.6727(4)
H22 H 0.0098(8) -0.0298(7) 0.6212(4)
H23 H 0.0479(8) 0.0000(7) 0.7136(4)
H24 H 0.1540(8) -0.1372(7) 0.6613(4)
C14A C 0.5868(7) 0.8322(6) 0.4475(4)
C13A C 0.6830(7) 0.9206(6) 0.3877(4)
C12A C 0.8094(7) 0.9360(6) 0.4134(4)
C11A C 0.8418(7) 0.8526(6) 0.5033(4)
C10A C 0.7504(7) 0.7622(6) 0.5665(4)
C9A C 0.7969(7) 0.6648(6) 0.6585(4)
N3A N 0.8861(6) 0.5083(5) 0.6377(3)
C8A C 0.9118(7) 0.3910(7) 0.7269(4)
C7A C 0.7602(7) 0.3622(6) 0.7865(4)
N2A N 0.6632(6) 0.3578(5) 0.7330(3)
C3A C 0.5271(7) 0.3345(6) 0.7800(4)
C2A C 0.4153(7) 0.3474(7) 0.7185(4)
N1A N 0.4959(6) 0.3435(5) 0.6144(3)
C1A C 0.5435(7) 0.1899(6) 0.5824(4)
H9A H 0.5720(7) 0.1111(6) 0.6363(4)
H10A H 0.6331(7) 0.1838(6) 0.5276(4)
H5A H 0.4334(6) 0.4092(5) 0.5764(3)
H6A H 0.5817(6) 0.3757(5) 0.6031(3)
H11A H 0.3343(7) 0.4414(7) 0.7238(4)
H12A H 0.3666(7) 0.2647(7) 0.7428(4)
C4A C 0.4828(8) 0.3098(7) 0.8826(4)
C5A C 0.5813(8) 0.3150(7) 0.9357(4)
C6A C 0.7230(8) 0.3428(7) 0.8871(4)
H15A H 0.7914(8) 0.3483(7) 0.9220(4)
H14A H 0.5536(8) 0.2999(7) 1.0041(4)
H13A H 0.3875(8) 0.2901(7) 0.9142(4)
H16A H 0.9589(7) 0.4256(7) 0.7668(4)
H17A H 0.9822(7) 0.2979(7) 0.7065(4)
H7A H 0.9793(6) 0.5126(5) 0.5983(3)
H8A H 0.8349(6) 0.4783(5) 0.6043(3)
H18A H 0.7049(7) 0.6600(6) 0.7103(4)
H19A H 0.8608(7) 0.7084(6) 0.6806(4)
C15A C 0.6232(7) 0.7531(6) 0.5385(4)
O1A O 0.5278(5) 0.6653(4) 0.5946(3)
H1A H 0.5587(5) 0.6218(4) 0.6449(3)
H20A H 0.9284(7) 0.8579(6) 0.5215(4)
C16A C 0.9082(8) 1.0347(7) 0.3487(4)
H22A H 0.9902(8) 1.0298(7) 0.3788(4)
H23A H 0.9521(8) 1.0000(7) 0.2864(4)
H24A H 0.8460(8) 1.1372(7) 0.3387(4)
H21A H 0.6610(7) 0.9720(6) 0.3273(4)
O2 O 0.8720(6) 0.7719(5) 0.0890(3)
C17 C 0.8308(10) 0.9235(8) 0.0952(6)
H2 H 0.9625(6) 0.7115(5) 0.0812(3)
H25 H 0.9222(10) 0.9554(8) 0.0881(6)
H26 H 0.7789(10) 0.9794(8) 0.0432(6)
H27 H 0.7622(10) 0.9415(8) 0.1576(6)
O3 O 0.3990(7) 1.0441(6) 0.2147(4)
C18 C 0.3235(10) 1.0786(9) 0.1382(6)
H3 H 0.4487(7) 1.1095(6) 0.2060(4)
H28 H 0.3461(10) 1.1667(9) 0.0943(6)
H29 H 0.3594(10) 0.9946(9) 0.1032(6)
H30 H 0.2134(10) 1.0974(9) 0.1639(6)
O4 O 0.0761(6) 0.7137(7) 0.9145(4)
C19 C 0.0532(9) 0.6100(8) 0.8707(5)
H4 H 0.1391(6) 0.7687(7) 0.8952(4)
H31 H 0.1241(9) 0.6021(8) 0.8079(5)
H32 H 0.0706(9) 0.5135(8) 0.9127(5)
H33 H -0.0516(9) 0.6411(8) 0.8620(5)
loop_
_geom_bond_atom_site_label_1
_geom_bond_atom_site_label_2
_geom_bond_site_symmetry_1
_geom_bond_site_symmetry_2
O1 C15 1_555 1_555
O2 C17 1_555 1_555
O3 C18 1_555 1_555
O4 C19 1_555 1_555
N1 C1 1_555 1_555
N2 C3 1_555 1_555
N3 C8 1_555 1_555
C1 H9 1_555 1_555
C2 N1 1_555 1_555
C3 C2 1_555 1_555
C4 C3 1_555 1_555
C5 C4 1_555 1_555
C6 C5 1_555 1_555
C7 N2 1_555 1_555
C8 C7 1_555 1_555
C9 N3 1_555 1_555
C10 C9 1_555 1_555
C11 C10 1_555 1_555
C12 C11 1_555 1_555
C13 C12 1_555 1_555
C14 C13 1_555 1_555
C15 C10 1_555 1_555
C16 C12 1_555 1_555
C17 H25 1_555 1_555
C18 H28 1_555 1_555
C19 H31 1_555 1_555
H1 O1 1_555 1_555
H2 O2 1_555 1_555
H3 O3 1_555 1_555
H4 O4 1_555 1_555
H5 N1 1_555 1_555
H6 N1 1_555 1_555
H7 N3 1_555 1_555
H8 N3 1_555 1_555
H10 C1 1_555 1_555
H11 C2 1_555 1_555
H12 C2 1_555 1_555
H13 C4 1_555 1_555
H14 C5 1_555 1_555
H15 C6 1_555 1_555
H16 C8 1_555 1_555
H17 C8 1_555 1_555
H18 C9 1_555 1_555
H19 C9 1_555 1_555
H20 C11 1_555 1_555
H21 C13 1_555 1_555
H22 C16 1_555 1_555
H23 C16 1_555 1_555
H24 C16 1_555 1_555
H26 C17 1_555 1_555
H27 C17 1_555 1_555
H29 C18 1_555 1_555
H30 C18 1_555 1_555
H32 C19 1_555 1_555
H33 C19 1_555 1_555
C14A C1 1_555 1_555
C13A C14A 1_555 1_555
C12A C13A 1_555 1_555
C11A C12A 1_555 1_555
C10A C11A 1_555 1_555
C9A C10A 1_555 1_555
N3A C9A 1_555 1_555
C8A N3A 1_555 1_555
C7A C8A 1_555 1_555
N2A C7A 1_555 1_555
C3A N2A 1_555 1_555
C2A C3A 1_555 1_555
N1A C2A 1_555 1_555
C1A C14 1_555 1_555
H9A C1A 1_555 1_555
H10A C1A 1_555 1_555
H5A N1A 1_555 1_555
H6A N1A 1_555 1_555
H11A C2A 1_555 1_555
H12A C2A 1_555 1_555
C4A C3A 1_555 1_555
C5A C4A 1_555 1_555
C6A C7A 1_555 1_555
H15A C6A 1_555 1_555
H14A C5A 1_555 1_555
H13A C4A 1_555 1_555
H16A C8A 1_555 1_555
H17A C8A 1_555 1_555
H7A N3A 1_555 1_555
H8A N3A 1_555 1_555
H18A C9A 1_555 1_555
H19A C9A 1_555 1_555
C15A C14A 1_555 1_555
O1A C15A 1_555 1_555
H1A O1A 1_555 1_555
H20A C11A 1_555 1_555
C16A C12A 1_555 1_555
H22A C16A 1_555 1_555
H23A C16A 1_555 1_555
H24A C16A 1_555 1_555
H21A C13A 1_555 1_555
C6 C7 1_555 1_555
C14 C15 1_555 1_555
C10A C15A 1_555 1_555
N1A C1A 1_555 1_555
C5A C6A 1_555 1_555

#END
