
#######################################################################
#
#                 Cambridge Crystallographic Data Centre
#                                CCDC 
#
#######################################################################
#
# If this CIF has been generated from an entry in the Cambridge 
# Structural Database, then it will include bibliographic, chemical, 
# crystal, experimental, refinement or atomic coordinate data resulting 
# from the CCDC's data processing and validation procedures.
#
#######################################################################

data_XAQDAV
_chemical_compound_source        'aerial part of Epigynum auritum'
_chemical_formula_moiety         'C28 H46 O8,C4 H8 O2,2(H2 O1)'
_chemical_name_systematic        'Epigynoside A ethyl acetate solvate dihydrate'
_symmetry_cell_setting           orthorhombic
_symmetry_space_group_name_H-M   'P 21 21 2'
_symmetry_Int_Tables_number      18
_space_group_name_Hall           'P 2 2ab'
loop_
_symmetry_equiv_pos_site_id
_symmetry_equiv_pos_as_xyz
1 x,y,z
2 -x,-y,z
3 1/2+x,1/2-y,-z
4 1/2-x,1/2+y,-z
_cell_length_a                   43.798(2)
_cell_length_b                   11.221(1)
_cell_length_c                   6.985(1)
_cell_angle_alpha                90
_cell_angle_beta                 90
_cell_angle_gamma                90
_cell_volume                     3432.83
_exptl_crystal_colour            colorless
_exptl_crystal_description       block
_cell_formula_units_Z            4
loop_
_atom_site_label
_atom_site_type_symbol
_atom_site_fract_x
_atom_site_fract_y
_atom_site_fract_z
O1 O -0.1135(10) -0.2955(5) -0.9634(10)
O2 O -0.3509(10) -0.3473(6) -1.4126(8)
O3 O -0.3434(10) -0.4367(5) -1.1109(8)
O4 O -0.3982(11) -0.3080(7) -1.2085(11)
C1 C -0.1984(15) -0.2799(9) -0.8604(12)
C2 C -0.1634(17) -0.2534(9) -0.8378(13)
C3 C -0.1452(15) -0.3339(8) -0.9731(14)
C4 C -0.1557(16) -0.3153(9) -1.1786(13)
C5 C -0.1899(15) -0.3346(8) -1.2010(12)
C6 C -0.2007(17) -0.4091(10) -1.3343(14)
C7 C -0.2341(17) -0.4244(9) -1.3797(12)
C8 C -0.2539(14) -0.3260(8) -1.2914(12)
C9 C -0.2442(15) -0.3063(7) -1.0814(11)
C10 C -0.2097(14) -0.2593(8) -1.0700(11)
C11 C -0.2660(16) -0.2224(8) -0.9727(13)
C12 C -0.2993(15) -0.2665(8) -0.9914(12)
C13 C -0.3102(15) -0.2726(7) -1.1986(12)
C14 C -0.2883(15) -0.3658(8) -1.3022(11)
C15 C -0.2982(17) -0.3807(9) -1.5098(12)
C16 C -0.3312(17) -0.4294(9) -1.5101(13)
C17 C -0.3434(16) -0.3300(8) -1.2102(12)
C18 C -0.3104(18) -0.1479(8) -1.2942(16)
C19 C -0.2073(18) -0.1271(9) -1.1239(14)
C20 C -0.3703(17) -0.2462(8) -1.1484(13)
C21 C -0.3736(19) -0.2198(11) -0.9391(15)
O5 O -0.0978(10) -0.4071(6) -0.7090(8)
O6 O -0.0558(10) -0.2362(6) -0.8598(9)
O7 O -0.0421(12) -0.5481(6) -0.9879(9)
O8 O -0.0354(12) -0.3837(6) -0.5399(9)
C22 C -0.0935(15) -0.3868(8) -0.9094(13)
C23 C -0.0606(15) -0.3479(9) -0.9514(13)
C24 C -0.0388(16) -0.4431(8) -0.8779(12)
C25 C -0.0455(16) -0.4765(8) -0.6681(12)
C26 C -0.0796(17) -0.5093(9) -0.6477(13)
C27 C -0.0889(22) -0.5311(12) -0.4387(14)
C28 C -0.0306(21) -0.1717(10) -0.9330(18)
H1 H -0.203 -0.374 -0.820
H2 H -0.212 -0.226 -0.761
H3 H -0.159 -0.159 -0.878
H4 H -0.156 -0.263 -0.691
H5 H -0.148 -0.428 -0.931
H6 H -0.143 -0.375 -1.275
H7 H -0.150 -0.223 -1.221
H8 H -0.184 -0.461 -1.422
H9 H -0.242 -0.509 -1.310
H10 H -0.238 -0.433 -1.530
H11 H -0.251 -0.241 -1.376
H12 H -0.245 -0.393 -1.008
H13 H -0.264 -0.132 -1.043
H14 H -0.259 -0.210 -0.826
H15 H -0.300 -0.358 -0.932
H16 H -0.315 -0.212 -0.908
H17 H -0.290 -0.451 -1.226
H18 H -0.298 -0.294 -1.585
H19 H -0.283 -0.439 -1.589
H20 H -0.339 -0.450 -1.652
H21 H -0.331 -0.517 -1.429
H22 H -0.288 -0.111 -1.294
H23 H -0.326 -0.090 -1.220
H24 H -0.318 -0.158 -1.442
H25 H -0.215 -0.117 -1.270
H26 H -0.184 -0.099 -1.113
H27 H -0.222 -0.076 -1.030
H28 H -0.368 -0.162 -1.227
H29 H -0.353 -0.178 -0.879
H30 H -0.378 -0.301 -0.856
H31 H -0.392 -0.158 -0.909
H32 H -0.044 -0.648 -0.961
H33 H -0.098 -0.470 -0.992
H34 H -0.057 -0.337 -1.106
H35 H -0.015 -0.410 -0.888
H36 H -0.032 -0.557 -0.635
H37 H -0.085 -0.589 -0.731
H38 H -0.085 -0.451 -0.352
H39 H -0.076 -0.603 -0.373
H40 H -0.113 -0.554 -0.427
H41 H -0.033 -0.152 -1.083
H42 H -0.009 -0.223 -0.915
H43 H -0.028 -0.088 -0.855
O9 O -0.0456(15) -0.1314(9) -0.4385(13)
O10 O -0.0683(16) 0.0429(8) -0.4841(15)
C29 C -0.0992(21) -0.1257(11) -0.4802(17)
C30 C -0.0686(21) -0.0741(11) -0.4645(16)
C31 C -0.0391(3) 0.1096(14) -0.4972(20)
C32 C -0.0356(3) 0.1771(14) -0.3492(24)
H44 H -0.106 -0.177 -0.354
H45 H -0.101 -0.184 -0.604
H46 H -0.116 -0.054 -0.498
H47 H -0.019 0.051 -0.522
H48 H -0.039 0.175 -0.615
H49 H -0.035 0.105 -0.201
H50 H -0.055 0.229 -0.293
H51 H -0.015 0.223 -0.310
O11 O -0.1018(15) -0.0405(7) -0.9981(13)
O12 O 0.0000 -0.5 -0.2753(11)
loop_
_geom_bond_atom_site_label_1
_geom_bond_atom_site_label_2
_geom_bond_site_symmetry_1
_geom_bond_site_symmetry_2
O1 C3 1_555 1_555
O2 C16 1_555 1_555
O3 C17 1_555 1_555
O4 C20 1_555 1_555
C1 C2 1_555 1_555
C2 C3 1_555 1_555
C3 C4 1_555 1_555
C4 C5 1_555 1_555
C5 C6 1_555 1_555
C6 C7 1_555 1_555
C7 C8 1_555 1_555
C8 C9 1_555 1_555
C9 C10 1_555 1_555
C10 C1 1_555 1_555
C11 C9 1_555 1_555
C12 C11 1_555 1_555
C13 C12 1_555 1_555
C14 C8 1_555 1_555
C15 C14 1_555 1_555
C16 C15 1_555 1_555
C17 O2 1_555 1_555
C18 C13 1_555 1_555
C19 C10 1_555 1_555
C20 C17 1_555 1_555
C21 C20 1_555 1_555
O5 C22 1_555 1_555
O6 C23 1_555 1_555
O7 C24 1_555 1_555
O8 C25 1_555 1_555
C22 O1 1_555 1_555
C23 C22 1_555 1_555
C24 C23 1_555 1_555
C25 C24 1_555 1_555
C26 O5 1_555 1_555
C27 C26 1_555 1_555
C28 O6 1_555 1_555
O9 C30 1_555 1_555
O10 C30 1_555 1_555
C29 C30 1_555 1_555
C31 O10 1_555 1_555
C32 C31 1_555 1_555
H1 C1 1_555 1_555
H2 C1 1_555 1_555
H3 C2 1_555 1_555
H4 C2 1_555 1_555
H5 C3 1_555 1_555
H6 C4 1_555 1_555
H7 C4 1_555 1_555
H8 C6 1_555 1_555
H9 C7 1_555 1_555
H10 C7 1_555 1_555
H11 C8 1_555 1_555
H12 C9 1_555 1_555
H13 C11 1_555 1_555
H14 C11 1_555 1_555
H15 C12 1_555 1_555
H16 C12 1_555 1_555
H17 C14 1_555 1_555
H18 C15 1_555 1_555
H19 C15 1_555 1_555
H20 C16 1_555 1_555
H21 C16 1_555 1_555
H22 C18 1_555 1_555
H23 C18 1_555 1_555
H24 C18 1_555 1_555
H25 C19 1_555 1_555
H26 C19 1_555 1_555
H27 C19 1_555 1_555
H28 C20 1_555 1_555
H29 C21 1_555 1_555
H30 C21 1_555 1_555
H31 C21 1_555 1_555
H32 O7 1_555 1_555
H33 C22 1_555 1_555
H34 C23 1_555 1_555
H35 C24 1_555 1_555
H36 C25 1_555 1_555
H37 C26 1_555 1_555
H38 C27 1_555 1_555
H39 C27 1_555 1_555
H40 C27 1_555 1_555
H41 C28 1_555 1_555
H42 C28 1_555 1_555
H43 C28 1_555 1_555
H44 C29 1_555 1_555
H45 C29 1_555 1_555
H46 C29 1_555 1_555
H47 C31 1_555 1_555
H48 C31 1_555 1_555
H49 C32 1_555 1_555
H50 C32 1_555 1_555
H51 C32 1_555 1_555
C5 C10 1_555 1_555
C13 C14 1_555 1_555
C13 C17 1_555 1_555
C25 C26 1_555 1_555

#END
