
#######################################################################
#
#                 Cambridge Crystallographic Data Centre
#                                CCDC 
#
#######################################################################
#
# If this CIF has been generated from an entry in the Cambridge 
# Structural Database, then it will include bibliographic, chemical, 
# crystal, experimental, refinement or atomic coordinate data resulting 
# from the CCDC's data processing and validation procedures.
#
#######################################################################

data_XAQFIF
_chemical_formula_moiety         'C26 H32 Br1 N1 O4'
_chemical_name_systematic        
'(Z,S,R)-t-Butyl ((E)-(2-((4-bromophenyl)(hydroxy)methyl)cyclohexylidene)methyl)(4-methoxyphenyl)carbamate'
_symmetry_cell_setting           orthorhombic
_symmetry_space_group_name_H-M   'P 21 21 21'
_symmetry_Int_Tables_number      19
_space_group_name_Hall           'P 2ac 2ab'
loop_
_symmetry_equiv_pos_site_id
_symmetry_equiv_pos_as_xyz
1 x,y,z
2 1/2-x,-y,1/2+z
3 -x,1/2+y,1/2-z
4 1/2+x,1/2-y,-z
_cell_length_a                   6.4190(11)
_cell_length_b                   17.531(3)
_cell_length_c                   22.374(4)
_cell_angle_alpha                90
_cell_angle_beta                 90
_cell_angle_gamma                90
_cell_volume                     2517.78
_exptl_crystal_colour            colorless
_exptl_crystal_description       tabular
_cell_formula_units_Z            4
loop_
_atom_site_label
_atom_site_type_symbol
_atom_site_fract_x
_atom_site_fract_y
_atom_site_fract_z
Br1 Br 1.08779(6) 0.63033(3) 0.971705(17)
C1 C 0.7997(6) 0.5744(2) 0.81289(15)
H1 H 0.8334 0.5450 0.7785
C2 C 0.9436(6) 0.5806(2) 0.85825(15)
H2 H 1.0749 0.5559 0.8554
C3 C 0.8932(5) 0.6235(2) 0.90781(13)
C4 C 0.7069(6) 0.6593(2) 0.91262(14)
H3 H 0.6748 0.6888 0.9470
C5 C 0.5639(6) 0.65223(18) 0.86650(13)
H4 H 0.4330 0.6772 0.8698
C6 C 0.6068(5) 0.60985(17) 0.81597(12)
C7 C 0.4462(5) 0.6017(2) 0.76726(13)
H5 H 0.3242 0.6339 0.7788
C8 C 0.5254(5) 0.6313(2) 0.70658(12)
H6 H 0.6643 0.6079 0.6982
C9 C 0.5500(6) 0.7190(2) 0.70750(15)
H7 H 0.6327 0.7337 0.7430
H8 H 0.6286 0.7350 0.6716
C10 C 0.3435(7) 0.7612(2) 0.70898(18)
H9 H 0.3691 0.8166 0.7042
H10 H 0.2762 0.7532 0.7483
C11 C 0.1966(7) 0.7338(3) 0.65934(19)
H11 H 0.0590 0.7585 0.6644
H12 H 0.2532 0.7496 0.6201
C12 C 0.1687(5) 0.6478(3) 0.65984(17)
H13 H 0.0977 0.6317 0.6971
H14 H 0.0823 0.6317 0.6254
C13 C 0.3791(5) 0.61164(19) 0.65612(13)
C14 C 0.4314(6) 0.57102(19) 0.60892(13)
H15 H 0.3276 0.5637 0.5792
C15 C 0.7506(5) 0.56546(19) 0.54866(12)
C16 C 0.7774(5) 0.64336(19) 0.54295(12)
H16 H 0.7108 0.6770 0.5702
C17 C 0.9008(6) 0.67252(19) 0.49773(14)
H17 H 0.9216 0.7260 0.4946
C18 C 0.9941(5) 0.6241(2) 0.45702(13)
C19 C 0.9592(6) 0.5462(2) 0.46120(14)
H18 H 1.0192 0.5125 0.4327
C20 C 0.8380(6) 0.5179(2) 0.50638(14)
H19 H 0.8136 0.4645 0.5087
C21 C 0.6964(6) 0.47795(19) 0.63439(14)
C22 C 0.9675(5) 0.38128(19) 0.64476(14)
C23 C 0.8172(6) 0.3167(2) 0.63325(16)
H20 H 0.6918 0.3239 0.6576
H21 H 0.8833 0.2681 0.6439
H22 H 0.7790 0.3160 0.5908
C24 C 1.0154(6) 0.3935(2) 0.71068(14)
H23 H 1.0971 0.4403 0.7155
H24 H 1.0952 0.3500 0.7259
H25 H 0.8847 0.3981 0.7330
C25 C 1.1641(5) 0.3701(2) 0.60898(17)
H26 H 1.1294 0.3670 0.5664
H27 H 1.2325 0.3227 0.6215
H28 H 1.2582 0.4132 0.6158
C26 C 1.2401(9) 0.6074(3) 0.3783(2)
H29 H 1.3313 0.5759 0.4034
H30 H 1.3250 0.6374 0.3505
H31 H 1.1456 0.5743 0.3557
N1 N 0.6307(4) 0.53696(15) 0.59842(10)
O1 O 0.3753(4) 0.52497(14) 0.76423(10)
H32 H 0.4419 0.5015 0.7377
O2 O 1.1212(5) 0.65762(13) 0.41535(11)
O3 O 0.8841(4) 0.45259(13) 0.61862(9)
O4 O 0.5933(4) 0.45291(13) 0.67567(9)
loop_
_geom_bond_atom_site_label_1
_geom_bond_atom_site_label_2
_geom_bond_site_symmetry_1
_geom_bond_site_symmetry_2
Br1 C3 1_555 1_555
C1 H1 1_555 1_555
C2 C1 1_555 1_555
H2 C2 1_555 1_555
C3 C2 1_555 1_555
C4 C3 1_555 1_555
H3 C4 1_555 1_555
C5 C4 1_555 1_555
H4 C5 1_555 1_555
C6 C1 1_555 1_555
C7 C6 1_555 1_555
H5 C7 1_555 1_555
C8 C7 1_555 1_555
H6 C8 1_555 1_555
C9 C8 1_555 1_555
H7 C9 1_555 1_555
H8 C9 1_555 1_555
C10 C9 1_555 1_555
H9 C10 1_555 1_555
H10 C10 1_555 1_555
C11 C10 1_555 1_555
H11 C11 1_555 1_555
H12 C11 1_555 1_555
C12 C11 1_555 1_555
H13 C12 1_555 1_555
H14 C12 1_555 1_555
C13 C8 1_555 1_555
C14 C13 1_555 1_555
H15 C14 1_555 1_555
C15 C16 1_555 1_555
C16 H16 1_555 1_555
C17 C16 1_555 1_555
H17 C17 1_555 1_555
C18 C17 1_555 1_555
C19 C18 1_555 1_555
H18 C19 1_555 1_555
C20 C15 1_555 1_555
H19 C20 1_555 1_555
C21 N1 1_555 1_555
C22 C23 1_555 1_555
C23 H20 1_555 1_555
H21 C23 1_555 1_555
H22 C23 1_555 1_555
C24 C22 1_555 1_555
H23 C24 1_555 1_555
H24 C24 1_555 1_555
H25 C24 1_555 1_555
C25 C22 1_555 1_555
H26 C25 1_555 1_555
H27 C25 1_555 1_555
H28 C25 1_555 1_555
C26 H29 1_555 1_555
H30 C26 1_555 1_555
H31 C26 1_555 1_555
N1 C14 1_555 1_555
O1 C7 1_555 1_555
H32 O1 1_555 1_555
O2 C18 1_555 1_555
O3 C21 1_555 1_555
O4 C21 1_555 1_555
C5 C6 1_555 1_555
C12 C13 1_555 1_555
C15 N1 1_555 1_555
C19 C20 1_555 1_555
C22 O3 1_555 1_555
C26 O2 1_555 1_555

#END
