
#######################################################################
#
#                 Cambridge Crystallographic Data Centre
#                                CCDC 
#
#######################################################################
#
# If this CIF has been generated from an entry in the Cambridge 
# Structural Database, then it will include bibliographic, chemical, 
# crystal, experimental, refinement or atomic coordinate data resulting 
# from the CCDC's data processing and validation procedures.
#
#######################################################################

data_XAQFOL
_chemical_formula_moiety         'C15 H18 Br1 N1 O3'
_chemical_name_systematic        
1-Hydroxy-2-nitro-3-(4-bromophenyl)-2,3,3a,4,5,6,7,7a-octahydroindene
_symmetry_cell_setting           monoclinic
_symmetry_space_group_name_H-M   'P 21'
_symmetry_Int_Tables_number      4
_space_group_name_Hall           'P 2yb'
loop_
_symmetry_equiv_pos_site_id
_symmetry_equiv_pos_as_xyz
1 x,y,z
2 -x,1/2+y,-z
_cell_length_a                   7.623(3)
_cell_length_b                   6.294(3)
_cell_length_c                   15.896(6)
_cell_angle_alpha                90
_cell_angle_beta                 100.643(7)
_cell_angle_gamma                90
_cell_volume                     749.556
_exptl_crystal_colour            colorless
_exptl_crystal_description       columnar
_cell_formula_units_Z            2
loop_
_atom_site_label
_atom_site_type_symbol
_atom_site_fract_x
_atom_site_fract_y
_atom_site_fract_z
Br1 Br 0.79086(7) 0.57526(12) -0.12911(3)
C1 C 0.6731(6) 0.6477(7) 0.3839(3)
H1 H 0.6282 0.7927 0.3945
C2 C 0.8749(6) 0.6558(7) 0.3948(3)
H2 H 0.9219 0.5071 0.3975
C3 C 0.9092(6) 0.7614(7) 0.3104(3)
H3 H 0.9996 0.6768 0.2865
C4 C 0.7288(5) 0.7585(7) 0.2468(3)
H4 H 0.6719 0.9010 0.2488
C5 C 0.6199(5) 0.5970(10) 0.2884(2)
H5 H 0.6650 0.4516 0.2786
C6 C 0.4181(5) 0.5968(10) 0.2591(3)
H6 H 0.3875 0.5562 0.1980
H7 H 0.3697 0.7406 0.2657
C7 C 0.3378(6) 0.4380(8) 0.3136(3)
H8 H 0.2062 0.4402 0.2965
H9 H 0.3796 0.2934 0.3027
C8 C 0.3881(6) 0.4864(8) 0.4087(3)
H10 H 0.3348 0.3781 0.4415
H11 H 0.3394 0.6268 0.4205
C9 C 0.5917(6) 0.4873(8) 0.4380(3)
H12 H 0.6223 0.5268 0.4993
H13 H 0.6403 0.3438 0.4311
C10 C 0.7447(6) 0.7150(8) 0.1555(3)
C11 C 0.6798(6) 0.8561(8) 0.0904(3)
H14 H 0.6254 0.9839 0.1044
C12 C 0.6911(7) 0.8185(9) 0.0066(3)
H15 H 0.6458 0.9186 -0.0367
C13 C 0.7700(6) 0.6315(9) -0.0136(3)
C14 C 0.8360(7) 0.4876(9) 0.0483(3)
H16 H 0.8915 0.3611 0.0338
C15 C 0.8213(6) 0.5274(7) 0.1333(3)
H17 H 0.8641 0.4254 0.1763
N1 N 0.9779(6) 0.9827(7) 0.3304(3)
O1 O 0.9617(5) 0.7679(6) 0.4682(2)
H18 H 1.0298 0.6850 0.5004
O2 O 1.1379(5) 1.0106(6) 0.3369(3)
O3 O 0.8740(6) 1.1183(6) 0.3443(3)
loop_
_geom_bond_atom_site_label_1
_geom_bond_atom_site_label_2
_geom_bond_site_symmetry_1
_geom_bond_site_symmetry_2
Br1 C13 1_555 1_555
C1 H1 1_555 1_555
C2 C1 1_555 1_555
H2 C2 1_555 1_555
C3 C2 1_555 1_555
H3 C3 1_555 1_555
C4 C3 1_555 1_555
H4 C4 1_555 1_555
C5 C1 1_555 1_555
H5 C5 1_555 1_555
C6 C5 1_555 1_555
H6 C6 1_555 1_555
H7 C6 1_555 1_555
C7 C6 1_555 1_555
H8 C7 1_555 1_555
H9 C7 1_555 1_555
C8 C7 1_555 1_555
H10 C8 1_555 1_555
H11 C8 1_555 1_555
C9 C1 1_555 1_555
H12 C9 1_555 1_555
H13 C9 1_555 1_555
C10 C4 1_555 1_555
C11 C10 1_555 1_555
H14 C11 1_555 1_555
C12 C11 1_555 1_555
H15 C12 1_555 1_555
C13 C12 1_555 1_555
C14 C13 1_555 1_555
H16 C14 1_555 1_555
C15 C10 1_555 1_555
H17 C15 1_555 1_555
N1 C3 1_555 1_555
O1 C2 1_555 1_555
H18 O1 1_555 1_555
O2 N1 1_555 1_555
O3 N1 1_555 1_555
C4 C5 1_555 1_555
C8 C9 1_555 1_555
C14 C15 1_555 1_555

#END
