
#######################################################################
#
#                 Cambridge Crystallographic Data Centre
#                                CCDC 
#
#######################################################################
#
# If this CIF has been generated from an entry in the Cambridge 
# Structural Database, then it will include bibliographic, chemical, 
# crystal, experimental, refinement or atomic coordinate data resulting 
# from the CCDC's data processing and validation procedures.
#
#######################################################################

data_XAQGOM
_chemical_formula_moiety         'C25 H30 Br1 N1 O4,0.5(C4 H8 O2)'
_chemical_name_systematic        
'2-(N-(t-Butyloxycarbonyl)-N-(4-methoxyphenyl)aminomethylene)-1-(4-bromophenyl(hydroxy)methyl)cyclopentane ethyl acetate solvate'
_symmetry_cell_setting           monoclinic
_symmetry_space_group_name_H-M   'P 21'
_symmetry_Int_Tables_number      4
_space_group_name_Hall           'P 2yb'
loop_
_symmetry_equiv_pos_site_id
_symmetry_equiv_pos_as_xyz
1 x,y,z
2 -x,1/2+y,-z
_cell_length_a                   6.4713(18)
_cell_length_b                   27.311(7)
_cell_length_c                   14.938(4)
_cell_angle_alpha                90
_cell_angle_beta                 90.220(5)
_cell_angle_gamma                90
_cell_volume                     2640.09
_exptl_crystal_colour            colorless
_exptl_crystal_description       columnar
_cell_formula_units_Z            4
loop_
_atom_site_label
_atom_site_type_symbol
_atom_site_fract_x
_atom_site_fract_y
_atom_site_fract_z
Br1 Br 0.4326(3) 0.67620(11) 0.71956(12)
C1 C 0.6002(18) 0.8102(5) 0.6240(8)
H1 H 0.5339 0.8350 0.5897
C2 C 0.491(2) 0.7690(5) 0.6459(9)
H2 H 0.3495 0.7662 0.6294
C3 C 0.585(2) 0.7324(6) 0.6907(9)
C4 C 0.795(2) 0.7349(5) 0.7175(8)
H3 H 0.8618 0.7090 0.7489
C5 C 0.896(2) 0.7771(6) 0.6951(9)
H4 H 1.0381 0.7793 0.7111
C6 C 0.810(2) 0.8173(5) 0.6508(8)
C7 C 0.9208(17) 0.8643(5) 0.6283(9)
H5 H 0.8733 0.8763 0.5684
C8 C 0.8841(18) 0.9038(5) 0.6979(8)
H6 H 0.9614 0.9338 0.6793
C9 C 0.9584(19) 0.8892(6) 0.7947(8)
H7 H 1.0556 0.8613 0.7925
H8 H 1.0275 0.9172 0.8246
C10 C 0.763(2) 0.8753(6) 0.8433(9)
H9 H 0.7312 0.8403 0.8334
H10 H 0.7795 0.8809 0.9084
C11 C 0.5934(19) 0.9068(6) 0.8064(8)
H11 H 0.5790 0.9373 0.8416
H12 H 0.4598 0.8892 0.8065
C12 C 0.6621(17) 0.9177(5) 0.7121(7)
C13 C 0.5402(18) 0.9381(4) 0.6506(8)
H13 H 0.3994 0.9436 0.6655
C14 C 0.7724(16) 0.9875(4) 0.5587(7)
C15 C 0.7587(17) 1.0286(6) 0.6132(9)
H14 H 0.6438 1.0325 0.6519
C16 C 0.913(2) 1.0640(5) 0.6109(12)
H15 H 0.9036 1.0921 0.6482
C17 C 1.0811(16) 1.0582(4) 0.5543(10)
C18 C 1.0949(17) 1.0171(5) 0.4998(8)
H16 H 1.2097 1.0132 0.4610
C19 C 0.941(2) 0.9818(4) 0.5020(8)
H17 H 0.9499 0.9537 0.4647
C20 C 0.495(2) 0.9355(5) 0.4915(9)
C21 C 0.506(2) 0.9306(5) 0.3271(8)
C22 C 0.2783(19) 0.9307(6) 0.3102(9)
H18 H 0.2278 0.9645 0.3094
H19 H 0.2084 0.9125 0.3578
H20 H 0.2493 0.9152 0.2523
C23 C 0.600(2) 0.8797(6) 0.3290(10)
H21 H 0.5698 0.8630 0.2724
H22 H 0.5407 0.8610 0.3787
H23 H 0.7498 0.8823 0.3371
C24 C 0.609(2) 0.9653(6) 0.2603(8)
H24 H 0.5401 0.9972 0.2620
H25 H 0.5983 0.9516 0.1998
H26 H 0.7553 0.9694 0.2762
C25 C 1.366(3) 1.0985(8) 0.4754(12)
H27 H 1.4570 1.1269 0.4822
H28 H 1.2801 1.1026 0.4216
H29 H 1.4489 1.0687 0.4698
N1 N 0.6084(14) 0.9521(3) 0.5638(6)
O1 O 1.1332(13) 0.8515(4) 0.6238(6)
H30 H 1.1921 0.8690 0.5854
O2 O 1.231(2) 1.0945(5) 0.5549(9)
O3 O 0.5557(12) 0.9554(3) 0.4149(5)
O4 O 0.3661(13) 0.9052(4) 0.4994(5)
Br2 Br -0.0880(3) 0.98341(10) 0.01493(13)
C26 C 0.0899(19) 0.8504(5) 0.1191(9)
H31 H 0.0271 0.8264 0.1562
C27 C -0.0247(19) 0.8924(5) 0.0918(8)
H32 H -0.1661 0.8953 0.1078
C28 C 0.063(2) 0.9268(5) 0.0452(9)
C29 C 0.272(2) 0.9218(6) 0.0226(8)
H33 H 0.3390 0.9476 -0.0083
C30 C 0.3776(19) 0.8815(5) 0.0436(8)
H34 H 0.5169 0.8787 0.0244
C31 C 0.2934(18) 0.8443(5) 0.0915(7)
C32 C 0.4038(17) 0.7986(5) 0.1131(9)
H35 H 0.3522 0.7873 0.1726
C33 C 0.3814(16) 0.7546(5) 0.0473(8)
H36 H 0.4600 0.7258 0.0711
C34 C 0.4573(19) 0.7667(5) -0.0477(8)
H37 H 0.5599 0.7936 -0.0460
H38 H 0.5218 0.7376 -0.0756
C35 C 0.264(2) 0.7823(7) -0.1003(10)
H39 H 0.2372 0.8177 -0.0921
H40 H 0.2818 0.7757 -0.1650
C36 C 0.089(2) 0.7521(6) -0.0623(9)
H41 H 0.0704 0.7217 -0.0975
H42 H -0.0416 0.7708 -0.0638
C37 C 0.150(2) 0.7400(5) 0.0335(9)
C38 C 0.030(2) 0.7207(4) 0.0921(9)
H43 H -0.1094 0.7151 0.0754
C39 C 0.225(2) 0.6646(4) 0.1895(8)
C40 C 0.1512(18) 0.6215(6) 0.1518(10)
H44 H 0.0193 0.6209 0.1237
C41 C 0.270(2) 0.5791(4) 0.1552(11)
H45 H 0.2195 0.5496 0.1294
C42 C 0.463(2) 0.5799(4) 0.1963(11)
C43 C 0.5372(19) 0.6230(5) 0.2341(12)
H46 H 0.6691 0.6235 0.2622
C44 C 0.418(3) 0.6654(4) 0.2306(11)
H47 H 0.4690 0.6948 0.2564
C45 C -0.011(2) 0.7255(5) 0.2506(8)
C46 C -0.003(2) 0.7308(5) 0.4144(8)
C47 C -0.229(2) 0.7285(6) 0.4295(10)
H48 H -0.2731 0.6942 0.4319
H49 H -0.3010 0.7451 0.3803
H50 H -0.2624 0.7447 0.4862
C48 C 0.075(2) 0.7837(6) 0.4110(11)
H51 H -0.0033 0.8020 0.3659
H52 H 0.2221 0.7838 0.3951
H53 H 0.0575 0.7991 0.4697
C49 C 0.120(2) 0.7001(6) 0.4820(10)
H54 H 0.0652 0.6666 0.4828
H55 H 0.1066 0.7146 0.5417
H56 H 0.2654 0.6995 0.4647
C50 C 0.782(3) 0.5332(9) 0.2218(19)
H57 H 0.8392 0.5008 0.2086
H58 H 0.7755 0.5378 0.2868
H59 H 0.8707 0.5584 0.1956
N2 N 0.0937(12) 0.7066(3) 0.1829(6)
O5 O 0.6185(12) 0.8107(3) 0.1244(6)
H60 H 0.6722 0.7916 0.1620
O6 O 0.572(2) 0.5370(4) 0.1833(11)
O7 O 0.0517(12) 0.7067(3) 0.3276(5)
O8 O -0.1465(13) 0.7562(4) 0.2431(6)
C51 C 0.731(9) 0.5932(16) 0.895(5)
C52 C 0.666(11) 0.6339(15) 0.954(4)
H61 H 0.7796 0.6574 0.9604
H62 H 0.6299 0.6209 1.0133
H63 H 0.5455 0.6504 0.9281
C53 C 0.884(8) 0.5664(19) 0.769(4)
H64 H 0.7482 0.5706 0.7395
H65 H 0.8975 0.5317 0.7878
C54 C 1.055(11) 0.5790(19) 0.704(4)
H66 H 1.0337 0.5611 0.6475
H67 H 1.1892 0.5698 0.7295
H68 H 1.0536 0.6143 0.6916
O9 O 0.898(6) 0.5977(15) 0.845(3)
O10 O 0.617(7) 0.5568(12) 0.888(3)
C55? C 0.857(15) 0.595(3) 0.835(6)
C56? C 1.052(18) 0.575(4) 0.801(9)
H69? H 1.0574 0.5789 0.7356
H70? H 1.0591 0.5397 0.8153
H71? H 1.1695 0.5917 0.8284
C57? C 0.681(18) 0.615(4) 0.960(6)
H72? H 0.7391 0.6474 0.9422
H73? H 0.7123 0.6103 1.0246
C58? C 0.449(18) 0.615(4) 0.946(10)
H74? H 0.3828 0.6358 0.9914
H75? H 0.3962 0.5818 0.9504
H76? H 0.4171 0.6284 0.8862
O11? O 0.772(16) 0.577(3) 0.908(7)
O12? O 0.792(16) 0.635(2) 0.803(6)
C59? C 0.249(2) 0.6694(6) 0.1894(12)
C60? C 0.416(3) 0.6778(5) 0.2460(13)
H77? H 0.4247 0.7075 0.2790
C61? C 0.571(3) 0.6428(7) 0.2545(14)
H78? H 0.6853 0.6486 0.2932
C62? C 0.559(2) 0.5994(6) 0.2062(13)
C63? C 0.392(3) 0.5909(6) 0.1496(13)
H79? H 0.3832 0.5613 0.1166
C64? C 0.237(2) 0.6259(7) 0.1411(13)
H80? H 0.1227 0.6202 0.1024
C65? C 0.711(5) 0.5199(8) 0.165(2)
H81? H 0.8360 0.5008 0.1782
H82? H 0.7050 0.5272 0.1010
H83? H 0.5890 0.5010 0.1824
O13? O 0.717(3) 0.5661(6) 0.2162(14)
C66? C 0.741(5) 0.9944(11) 0.5604(16)
C67? C 0.719(5) 1.0423(14) 0.591(3)
H84? H 0.5967 1.0521 0.6203
C68? C 0.878(6) 1.0759(10) 0.577(3)
H85? H 0.8631 1.1086 0.5978
C69? C 1.057(5) 1.0616(12) 0.534(3)
C70? C 1.079(5) 1.0137(15) 0.503(3)
H86? H 1.2014 1.0039 0.4737
C71? C 0.920(7) 0.9801(9) 0.517(2)
H87? H 0.9349 0.9474 0.4963
C72? C 1.407(4) 1.094(2) 0.506(5)
H88? H 1.4839 1.1244 0.5148
H89? H 1.4174 1.0834 0.4438
H90? H 1.4652 1.0684 0.5454
O14? O 1.187(5) 1.1017(9) 0.529(3)
loop_
_geom_bond_atom_site_label_1
_geom_bond_atom_site_label_2
_geom_bond_site_symmetry_1
_geom_bond_site_symmetry_2
Br1 C3 1_555 1_555
C1 H1 1_555 1_555
C2 C1 1_555 1_555
H2 C2 1_555 1_555
C3 C2 1_555 1_555
C4 C3 1_555 1_555
H3 C4 1_555 1_555
C5 C4 1_555 1_555
H4 C5 1_555 1_555
C6 C1 1_555 1_555
C7 C6 1_555 1_555
H5 C7 1_555 1_555
C8 C7 1_555 1_555
H6 C8 1_555 1_555
C9 C8 1_555 1_555
H7 C9 1_555 1_555
H8 C9 1_555 1_555
C10 C9 1_555 1_555
H9 C10 1_555 1_555
H10 C10 1_555 1_555
C11 C10 1_555 1_555
H11 C11 1_555 1_555
H12 C11 1_555 1_555
C12 C8 1_555 1_555
C13 C12 1_555 1_555
H13 C13 1_555 1_555
C14 C15 1_555 1_555
C15 H14 1_555 1_555
C16 C15 1_555 1_555
H15 C16 1_555 1_555
C17 C16 1_555 1_555
C18 C17 1_555 1_555
H16 C18 1_555 1_555
C19 C14 1_555 1_555
H17 C19 1_555 1_555
C20 N1 1_555 1_555
C21 C22 1_555 1_555
C22 H18 1_555 1_555
H19 C22 1_555 1_555
H20 C22 1_555 1_555
C23 C21 1_555 1_555
H21 C23 1_555 1_555
H22 C23 1_555 1_555
H23 C23 1_555 1_555
C24 C21 1_555 1_555
H24 C24 1_555 1_555
H25 C24 1_555 1_555
H26 C24 1_555 1_555
C25 H27 1_555 1_555
H28 C25 1_555 1_555
H29 C25 1_555 1_555
N1 C13 1_555 1_555
O1 C7 1_555 1_555
H30 O1 1_555 1_555
O2 C17 1_555 1_555
O3 C20 1_555 1_555
O4 C20 1_555 1_555
Br2 C28 1_555 1_555
C26 H31 1_555 1_555
C27 C26 1_555 1_555
H32 C27 1_555 1_555
C28 C27 1_555 1_555
C29 C28 1_555 1_555
H33 C29 1_555 1_555
C30 C29 1_555 1_555
H34 C30 1_555 1_555
C31 C26 1_555 1_555
C32 C31 1_555 1_555
H35 C32 1_555 1_555
C33 C32 1_555 1_555
H36 C33 1_555 1_555
C34 C33 1_555 1_555
H37 C34 1_555 1_555
H38 C34 1_555 1_555
C35 C34 1_555 1_555
H39 C35 1_555 1_555
H40 C35 1_555 1_555
C36 C35 1_555 1_555
H41 C36 1_555 1_555
H42 C36 1_555 1_555
C37 C33 1_555 1_555
C38 C37 1_555 1_555
H43 C38 1_555 1_555
C39 C40 1_555 1_555
C40 H44 1_555 1_555
C41 C40 1_555 1_555
H45 C41 1_555 1_555
C42 C41 1_555 1_555
C43 C42 1_555 1_555
H46 C43 1_555 1_555
C44 C39 1_555 1_555
H47 C44 1_555 1_555
C45 N2 1_555 1_555
C46 C47 1_555 1_555
C47 H48 1_555 1_555
H49 C47 1_555 1_555
H50 C47 1_555 1_555
C48 C46 1_555 1_555
H51 C48 1_555 1_555
H52 C48 1_555 1_555
H53 C48 1_555 1_555
C49 C46 1_555 1_555
H54 C49 1_555 1_555
H55 C49 1_555 1_555
H56 C49 1_555 1_555
C50 H57 1_555 1_555
H58 C50 1_555 1_555
H59 C50 1_555 1_555
N2 C38 1_555 1_555
O5 C32 1_555 1_555
H60 O5 1_555 1_555
O6 C42 1_555 1_555
O7 C45 1_555 1_555
O8 C45 1_555 1_555
C51 C52 1_555 1_555
C52 H61 1_555 1_555
H62 C52 1_555 1_555
H63 C52 1_555 1_555
C53 H64 1_555 1_555
H65 C53 1_555 1_555
C54 C53 1_555 1_555
H66 C54 1_555 1_555
H67 C54 1_555 1_555
H68 C54 1_555 1_555
O9 C51 1_555 1_555
O10 C51 1_555 1_555
C5 C6 1_555 1_555
C11 C12 1_555 1_555
C14 N1 1_555 1_555
C18 C19 1_555 1_555
C21 O3 1_555 1_555
C25 O2 1_555 1_555
C30 C31 1_555 1_555
C36 C37 1_555 1_555
C39 N2 1_555 1_555
C43 C44 1_555 1_555
C46 O7 1_555 1_555
C50 O6 1_555 1_555
C53 O9 1_555 1_555

#END
