
#######################################################################
#
#                 Cambridge Crystallographic Data Centre
#                                CCDC 
#
#######################################################################
#
# If this CIF has been generated from an entry in the Cambridge 
# Structural Database, then it will include bibliographic, chemical, 
# crystal, experimental, refinement or atomic coordinate data resulting 
# from the CCDC's data processing and validation procedures.
#
#######################################################################

data_XAQGIG
_chemical_formula_moiety         'C26 H32 Br1 N1 O3'
_chemical_name_systematic        
2-(N-(t-Butyloxycarbonyl)-N-(4-methoxyphenyl)aminomethylene)-1-(4-bromobenzyl)cyclohexane
_symmetry_cell_setting           monoclinic
_symmetry_space_group_name_H-M   'C 2'
_symmetry_Int_Tables_number      5
_space_group_name_Hall           'C 2y'
loop_
_symmetry_equiv_pos_site_id
_symmetry_equiv_pos_as_xyz
1 x,y,z
2 -x,y,-z
3 1/2+x,1/2+y,z
4 1/2-x,1/2+y,-z
_cell_length_a                   15.123(3)
_cell_length_b                   12.592(3)
_cell_length_c                   25.895(5)
_cell_angle_alpha                90
_cell_angle_beta                 94.988(3)
_cell_angle_gamma                90
_cell_volume                     4912.48
_exptl_crystal_colour            colorless
_exptl_crystal_description       prism
_cell_formula_units_Z            8
loop_
_atom_site_label
_atom_site_type_symbol
_atom_site_fract_x
_atom_site_fract_y
_atom_site_fract_z
Br1 Br 0.95818(2) 0.44062(3) 0.584423(14)
C1 C 0.9426(2) 0.2793(2) 0.72287(14)
H1 H 0.9111 0.2198 0.7344
C2 C 0.9294(2) 0.3102(3) 0.67178(13)
H2 H 0.8893 0.2720 0.6483
C3 C 0.9744(2) 0.3965(3) 0.65491(13)
C4 C 1.0327(2) 0.4521(3) 0.68857(13)
H3 H 1.0636 0.5118 0.6767
C5 C 1.04581(19) 0.4204(2) 0.73984(12)
H4 H 1.0861 0.4588 0.7631
C6 C 1.00118(19) 0.3336(2) 0.75793(13)
C7 C 1.01644(19) 0.2994(3) 0.81358(12)
H5 H 1.0722 0.3321 0.8289
H6 H 1.0246 0.2214 0.8147
C8 C 0.94025(18) 0.3292(2) 0.84749(10)
H7 H 0.8869 0.2863 0.8352
C9 C 0.96587(19) 0.3004(3) 0.90402(11)
H8 H 0.9885 0.2266 0.9059
H9 H 0.9124 0.3036 0.9235
C10 C 1.0373(2) 0.3756(3) 0.92957(12)
H10 H 1.0488 0.3572 0.9667
H11 H 1.0933 0.3657 0.9130
C11 C 1.0088(2) 0.4910(2) 0.92460(11)
H12 H 1.0582 0.5372 0.9386
H13 H 0.9578 0.5032 0.9453
C12 C 0.98262(19) 0.5207(2) 0.86794(11)
H14 H 0.9583 0.5938 0.8662
H15 H 1.0359 0.5192 0.8483
C13 C 0.91457(18) 0.4450(3) 0.84385(11)
C14 C 0.83414(18) 0.4733(2) 0.82381(10)
H16 H 0.7953 0.4189 0.8102
C15 C 0.79179(19) 0.6282(2) 0.77101(11)
C16 C 0.84489(18) 0.5938(2) 0.73336(11)
H17 H 0.8893 0.5418 0.7419
C17 C 0.83411(19) 0.6339(2) 0.68369(11)
H18 H 0.8708 0.6088 0.6583
C18 C 0.7713(2) 0.7093(2) 0.67055(11)
C19 C 0.7183(2) 0.7455(2) 0.70757(12)
H19 H 0.6748 0.7984 0.6988
C20 C 0.72823(19) 0.7052(2) 0.75755(12)
H20 H 0.6913 0.7304 0.7828
C21 C 0.7027(3) 0.8253(3) 0.60652(12)
H21 H 0.6432 0.8000 0.6127
H22 H 0.7043 0.8431 0.5698
H23 H 0.7169 0.8886 0.6277
C22 C 0.7760(2) 0.6315(3) 0.86503(12)
C23 C 0.7559(2) 0.5955(3) 0.95679(11)
C24 C 0.8199(2) 0.6821(3) 0.97718(12)
H24 H 0.8810 0.6584 0.9746
H25 H 0.8109 0.6970 1.0135
H26 H 0.8088 0.7468 0.9566
C25 C 0.7690(2) 0.4951(3) 0.98770(12)
H27 H 0.7257 0.4419 0.9743
H28 H 0.7608 0.5097 1.0241
H29 H 0.8292 0.4681 0.9849
C26 C 0.6598(2) 0.6314(3) 0.95482(12)
H30 H 0.6514 0.6939 0.9324
H31 H 0.6450 0.6495 0.9899
H32 H 0.6210 0.5739 0.9409
N1 N 0.80206(15) 0.58047(19) 0.82137(9)
O1 O 0.76575(15) 0.74465(17) 0.62021(8)
O2 O 0.77707(12) 0.56213(15) 0.90435(7)
O3 O 0.75571(14) 0.72371(16) 0.86664(7)
Br2 Br 0.54072(2) 0.31706(3) 0.914344(14)
C27 C 0.4490(2) 0.3668(3) 0.76100(13)
H33 H 0.4046 0.3370 0.7371
C28 C 0.46081(19) 0.3256(3) 0.81068(13)
H34 H 0.4250 0.2686 0.8208
C29 C 0.5253(2) 0.3687(3) 0.84515(13)
C30 C 0.5788(2) 0.4502(3) 0.83058(13)
H35 H 0.6239 0.4792 0.8543
C31 C 0.5650(2) 0.4888(3) 0.78040(14)
H36 H 0.6020 0.5445 0.7700
C32 C 0.49953(18) 0.4495(2) 0.74498(12)
C33 C 0.4856(2) 0.4950(2) 0.69108(13)
H37 H 0.5275 0.5548 0.6882
H38 H 0.4247 0.5242 0.6859
C34 C 0.4986(2) 0.4148(2) 0.64725(11)
H39 H 0.4504 0.3603 0.6470
C35 C 0.4914(2) 0.4708(3) 0.59411(13)
H40 H 0.4876 0.4164 0.5664
H41 H 0.4359 0.5129 0.5904
C36 C 0.5696(2) 0.5436(3) 0.58702(13)
H42 H 0.5692 0.6035 0.6117
H43 H 0.5639 0.5731 0.5515
C37 C 0.6575(2) 0.4827(3) 0.59616(13)
H44 H 0.6611 0.4292 0.5684
H45 H 0.7075 0.5329 0.5943
C38 C 0.66617(18) 0.4271(2) 0.64890(11)
H46 H 0.7205 0.3829 0.6519
H47 H 0.6717 0.4809 0.6769
C39 C 0.5868(2) 0.3584(2) 0.65512(12)
C40 C 0.59013(19) 0.2555(2) 0.66483(11)
H48 H 0.5355 0.2197 0.6677
C41 C 0.69992(19) 0.1605(2) 0.72311(12)
C42 C 0.67918(19) 0.2251(2) 0.76443(11)
H49 H 0.6464 0.2886 0.7576
C43 C 0.70568(19) 0.1977(3) 0.81470(12)
H50 H 0.6909 0.2425 0.8422
C44 C 0.75342(19) 0.1060(3) 0.82595(11)
C45 C 0.7731(2) 0.0403(3) 0.78541(13)
H51 H 0.8050 -0.0239 0.7924
C46 C 0.74608(18) 0.0684(2) 0.73477(12)
H52 H 0.7598 0.0227 0.7074
C47 C 0.8438(2) 0.0046(3) 0.88761(12)
H53 H 0.8171 -0.0642 0.8778
H54 H 0.8639 0.0041 0.9246
H55 H 0.8946 0.0175 0.8674
C48 C 0.7147(2) 0.1629(2) 0.62969(12)
C49 C 0.7034(2) 0.1706(3) 0.53426(11)
C50 C 0.7062(3) 0.0510(3) 0.52752(13)
H56 H 0.7545 0.0214 0.5508
H57 H 0.7163 0.0341 0.4916
H58 H 0.6496 0.0203 0.5358
C51 C 0.7940(2) 0.2206(3) 0.53001(12)
H59 H 0.7908 0.2970 0.5369
H60 H 0.8122 0.2092 0.4950
H61 H 0.8375 0.1878 0.5554
C52 C 0.6338(2) 0.2213(3) 0.49645(11)
H62 H 0.5759 0.1886 0.5003
H63 H 0.6497 0.2106 0.4610
H64 H 0.6306 0.2976 0.5036
N2 N 0.66976(14) 0.19367(19) 0.67137(9)
O4 O 0.77930(14) 0.0872(2) 0.87738(8)
O5 O 0.67054(12) 0.19674(16) 0.58516(7)
O6 O 0.78344(13) 0.11392(17) 0.63232(7)
loop_
_geom_bond_atom_site_label_1
_geom_bond_atom_site_label_2
_geom_bond_site_symmetry_1
_geom_bond_site_symmetry_2
Br1 C3 1_555 1_555
C1 H1 1_555 1_555
C2 C1 1_555 1_555
H2 C2 1_555 1_555
C3 C2 1_555 1_555
C4 C3 1_555 1_555
H3 C4 1_555 1_555
C5 C4 1_555 1_555
H4 C5 1_555 1_555
C6 C1 1_555 1_555
C7 C6 1_555 1_555
H5 C7 1_555 1_555
H6 C7 1_555 1_555
C8 C7 1_555 1_555
H7 C8 1_555 1_555
C9 C8 1_555 1_555
H8 C9 1_555 1_555
H9 C9 1_555 1_555
C10 C9 1_555 1_555
H10 C10 1_555 1_555
H11 C10 1_555 1_555
C11 C10 1_555 1_555
H12 C11 1_555 1_555
H13 C11 1_555 1_555
C12 C11 1_555 1_555
H14 C12 1_555 1_555
H15 C12 1_555 1_555
C13 C8 1_555 1_555
C14 C13 1_555 1_555
H16 C14 1_555 1_555
C15 C16 1_555 1_555
C16 H17 1_555 1_555
C17 C16 1_555 1_555
H18 C17 1_555 1_555
C18 C17 1_555 1_555
C19 C18 1_555 1_555
H19 C19 1_555 1_555
C20 C15 1_555 1_555
H20 C20 1_555 1_555
C21 H21 1_555 1_555
H22 C21 1_555 1_555
H23 C21 1_555 1_555
C22 N1 1_555 1_555
C23 C24 1_555 1_555
C24 H24 1_555 1_555
H25 C24 1_555 1_555
H26 C24 1_555 1_555
C25 C23 1_555 1_555
H27 C25 1_555 1_555
H28 C25 1_555 1_555
H29 C25 1_555 1_555
C26 C23 1_555 1_555
H30 C26 1_555 1_555
H31 C26 1_555 1_555
H32 C26 1_555 1_555
N1 C14 1_555 1_555
O1 C18 1_555 1_555
O2 C22 1_555 1_555
O3 C22 1_555 1_555
Br2 C29 1_555 1_555
C27 H33 1_555 1_555
C28 C27 1_555 1_555
H34 C28 1_555 1_555
C29 C28 1_555 1_555
C30 C29 1_555 1_555
H35 C30 1_555 1_555
C31 C30 1_555 1_555
H36 C31 1_555 1_555
C32 C27 1_555 1_555
C33 C32 1_555 1_555
H37 C33 1_555 1_555
H38 C33 1_555 1_555
C34 C33 1_555 1_555
H39 C34 1_555 1_555
C35 C34 1_555 1_555
H40 C35 1_555 1_555
H41 C35 1_555 1_555
C36 C35 1_555 1_555
H42 C36 1_555 1_555
H43 C36 1_555 1_555
C37 C36 1_555 1_555
H44 C37 1_555 1_555
H45 C37 1_555 1_555
C38 C37 1_555 1_555
H46 C38 1_555 1_555
H47 C38 1_555 1_555
C39 C34 1_555 1_555
C40 C39 1_555 1_555
H48 C40 1_555 1_555
C41 C42 1_555 1_555
C42 H49 1_555 1_555
C43 C42 1_555 1_555
H50 C43 1_555 1_555
C44 C43 1_555 1_555
C45 C44 1_555 1_555
H51 C45 1_555 1_555
C46 C41 1_555 1_555
H52 C46 1_555 1_555
C47 H53 1_555 1_555
H54 C47 1_555 1_555
H55 C47 1_555 1_555
C48 N2 1_555 1_555
C49 C50 1_555 1_555
C50 H56 1_555 1_555
H57 C50 1_555 1_555
H58 C50 1_555 1_555
C51 C49 1_555 1_555
H59 C51 1_555 1_555
H60 C51 1_555 1_555
H61 C51 1_555 1_555
C52 C49 1_555 1_555
H62 C52 1_555 1_555
H63 C52 1_555 1_555
H64 C52 1_555 1_555
N2 C40 1_555 1_555
O4 C44 1_555 1_555
O5 C48 1_555 1_555
O6 C48 1_555 1_555
C5 C6 1_555 1_555
C12 C13 1_555 1_555
C15 N1 1_555 1_555
C19 C20 1_555 1_555
C21 O1 1_555 1_555
C23 O2 1_555 1_555
C31 C32 1_555 1_555
C38 C39 1_555 1_555
C41 N2 1_555 1_555
C45 C46 1_555 1_555
C47 O4 1_555 1_555
C49 O5 1_555 1_555

#END
