
#######################################################################
#
#                 Cambridge Crystallographic Data Centre
#                                CCDC 
#
#######################################################################
#
# If this CIF has been generated from an entry in the Cambridge 
# Structural Database, then it will include bibliographic, chemical, 
# crystal, experimental, refinement or atomic coordinate data resulting 
# from the CCDC's data processing and validation procedures.
#
#######################################################################

data_XAQXOC
_chemical_formula_moiety         '2(C1 H6 N3 1+),C12 H8 O6 S2 2-,C6 H4 Br2'
_chemical_name_systematic        
"bis(Guanidinium) 4,4'-biphenyldisulfonate 1,3-dibromobenzene clathrate"
_symmetry_cell_setting           triclinic
_symmetry_space_group_name_H-M   'P -1'
_symmetry_Int_Tables_number      2
_space_group_name_Hall           '-P 1'
loop_
_symmetry_equiv_pos_site_id
_symmetry_equiv_pos_as_xyz
1 x,y,z
2 -x,-y,-z
_cell_length_a                   12.6295(3)
_cell_length_b                   14.3458(3)
_cell_length_c                   16.0331(4)
_cell_angle_alpha                104.108(1)
_cell_angle_beta                 110.916(1)
_cell_angle_gamma                92.764(1)
_cell_volume                     2602.13
_exptl_crystal_colour            colorless
_exptl_crystal_description       block
_cell_formula_units_Z            4
loop_
_atom_site_label
_atom_site_type_symbol
_atom_site_fract_x
_atom_site_fract_y
_atom_site_fract_z
S1 S 1.0163(1) 0.0759(1) 0.8658(1)
O1 O 0.9878(2) 0.1646(2) 0.9143(2)
O2 O 1.1360(2) 0.0867(2) 0.8736(2)
O3 O 0.9858(2) -0.0095(2) 0.8919(2)
C1 C 0.9300(3) 0.0530(3) 0.7456(3)
C2 C 0.8111(3) 0.0370(3) 0.7174(3)
C3 C 0.7430(3) 0.0173(3) 0.6240(3)
C4 C 0.7914(3) 0.0133(3) 0.5566(3)
C5 C 0.9099(3) 0.0311(3) 0.5870(3)
C6 C 0.9799(3) 0.0512(3) 0.6809(3)
C7 C 0.7169(3) -0.0093(3) 0.4563(3)
C8 C 0.6118(3) 0.0253(3) 0.4278(3)
C9 C 0.5427(3) 0.0054(3) 0.3343(3)
C10 C 0.5776(3) -0.0506(3) 0.2674(3)
C11 C 0.6809(3) -0.0870(3) 0.2939(3)
C12 C 0.7500(3) -0.0658(3) 0.3875(3)
S2 S 0.4918(1) -0.0688(1) 0.1474(1)
O4 O 0.5225(2) 0.0189(2) 0.1248(2)
O5 O 0.3722(2) -0.0788(2) 0.1406(2)
O6 O 0.5196(2) -0.1562(2) 0.0961(2)
H1 H 0.7771(3) 0.0397(3) 0.7619(3)
H2 H 0.6620(3) 0.0063(3) 0.6048(3)
H3 H 0.9442(3) 0.0295(3) 0.5428(3)
H4 H 1.0609(3) 0.0635(3) 0.7004(3)
H5 H 0.5873(3) 0.0629(3) 0.4732(3)
H6 H 0.4720(3) 0.0299(3) 0.3159(3)
H7 H 0.7040(3) -0.1261(3) 0.2483(3)
H8 H 0.8210(3) -0.0899(3) 0.4054(3)
S3 S 1.0145(1) 0.5795(1) 0.8642(1)
O7 O 1.1341(2) 0.5901(2) 0.8711(2)
O8 O 0.9847(2) 0.4939(2) 0.8901(2)
O9 O 0.9867(2) 0.6679(2) 0.9139(2)
C13 C 0.9269(3) 0.5584(3) 0.7442(3)
C14 C 0.8086(3) 0.5542(3) 0.7173(3)
C15 C 0.7397(3) 0.5338(3) 0.6237(3)
C16 C 0.7870(3) 0.5174(3) 0.5556(3)
C17 C 0.9062(3) 0.5221(3) 0.5846(3)
C18 C 0.9762(4) 0.5424(3) 0.6783(3)
C19 C 0.7132(3) 0.4953(3) 0.4545(3)
C20 C 0.6110(4) 0.5335(3) 0.4250(3)
C21 C 0.5426(3) 0.5146(3) 0.3306(3)
C22 C 0.5764(3) 0.4562(3) 0.2650(3)
C23 C 0.6770(3) 0.4165(3) 0.2929(3)
C24 C 0.7450(3) 0.4364(3) 0.3865(3)
S4 S 0.4900(1) 0.4327(1) 0.1443(1)
O10 O 0.5186(2) 0.3437(2) 0.0958(2)
O11 O 0.3707(2) 0.4231(2) 0.1379(2)
O12 O 0.5188(2) 0.5177(2) 0.1168(2)
H9 H 0.7754(3) 0.5651(3) 0.7628(3)
H10 H 0.6590(3) 0.5310(3) 0.6055(3)
H11 H 0.9399(3) 0.5112(3) 0.5394(3)
H12 H 1.0569(4) 0.5453(3) 0.6968(3)
H13 H 0.5874(4) 0.5732(3) 0.4700(3)
H14 H 0.4735(3) 0.5415(3) 0.3117(3)
H15 H 0.6992(3) 0.3756(3) 0.2476(3)
H16 H 0.8143(3) 0.4097(3) 0.4049(3)
C25 C 1.2233(3) 0.3471(3) 0.9083(3)
N1 N 1.1183(3) 0.3379(3) 0.9071(3)
N2 N 1.2809(3) 0.2714(2) 0.9100(2)
N3 N 1.2708(3) 0.4315(2) 0.9066(2)
H17 H 1.0797(3) 0.3873(3) 0.9051(3)
H18 H 1.0868(3) 0.2824(3) 0.9082(3)
H19 H 1.2487(3) 0.2157(2) 0.9102(2)
H20 H 1.3510(3) 0.2772(2) 0.9108(2)
H21 H 1.2320(3) 0.4808(2) 0.9047(2)
H22 H 1.3409(3) 0.4378(2) 0.9074(2)
C26 C 0.7691(3) 0.1499(3) 0.0841(3)
N4 N 0.7199(3) 0.0652(2) 0.0818(2)
N5 N 0.8733(3) 0.1587(3) 0.0835(2)
N6 N 0.7146(3) 0.2279(2) 0.0867(2)
H23 H 0.7567(3) 0.0146(2) 0.0798(2)
H24 H 0.6504(3) 0.0595(2) 0.0823(2)
H25 H 0.9101(3) 0.1082(3) 0.0815(2)
H26 H 0.9058(3) 0.2150(3) 0.0850(2)
H27 H 0.7483(3) 0.2836(2) 0.0879(2)
H28 H 0.6451(3) 0.2234(2) 0.0871(2)
C27 C 0.7226(3) 0.3376(3) 0.8997(3)
N7 N 0.7790(3) 0.2614(2) 0.9011(2)
N8 N 0.7708(3) 0.4229(2) 0.9005(2)
N9 N 0.6168(3) 0.3285(3) 0.8974(3)
H29 H 0.7457(3) 0.2057(2) 0.9005(2)
H30 H 0.8494(3) 0.2667(2) 0.9026(2)
H31 H 0.7322(3) 0.4724(2) 0.8996(2)
H32 H 0.8411(3) 0.4297(2) 0.9020(2)
H33 H 0.5843(3) 0.2726(3) 0.8968(3)
H34 H 0.5790(3) 0.3784(3) 0.8965(3)
C28 C 0.2793(3) 0.1625(3) 0.1014(3)
N10 N 0.3857(3) 0.1720(3) 0.1043(3)
N11 N 0.2231(3) 0.2393(2) 0.1000(2)
N12 N 0.2306(3) 0.0776(2) 0.1008(2)
H35 H 0.4240(3) 0.1224(3) 0.1058(3)
H36 H 0.4180(3) 0.2280(3) 0.1047(3)
H37 H 0.2568(3) 0.2950(2) 0.1011(2)
H38 H 0.1525(3) 0.2341(2) 0.0981(2)
H39 H 0.2690(3) 0.0281(2) 0.1023(2)
H40 H 0.1600(3) 0.0712(2) 0.0989(2)
C29 C 1.0869(4) 0.2694(3) 0.5359(3)
C30 C 0.9711(4) 0.2426(3) 0.4892(3)
C31 C 0.9286(4) 0.2085(3) 0.3924(3)
C32 C 1.0015(5) 0.1998(4) 0.3448(4)
C33 C 1.1170(5) 0.2258(4) 0.3934(4)
C34 C 1.1614(5) 0.2612(4) 0.4889(4)
Br1 Br 1.1492(1) 0.3195(1) 0.6676(1)
Br2 Br 0.7693(1) 0.1719(1) 0.3258(1)
H41 H 0.9210(4) 0.2472(3) 0.5218(3)
H42 H 0.9715(5) 0.1759(4) 0.2789(4)
H43 H 1.1673(5) 0.2195(4) 0.3609(4)
H44 H 1.2417(5) 0.2798(4) 0.5222(4)
C35 C 0.6834(4) 0.2664(3) 0.6110(3)
C36 C 0.6430(4) 0.2773(3) 0.5218(3)
C37 C 0.5255(4) 0.2527(3) 0.4704(3)
C38 C 0.4513(4) 0.2194(3) 0.5061(3)
C39 C 0.4940(4) 0.2127(3) 0.5967(4)
C40 C 0.6099(4) 0.2359(3) 0.6503(3)
Br4 Br 0.8438(1) 0.2953(1) 0.6834(1)
Br5 Br 0.4674(1) 0.2611(1) 0.3458(1)
H45 H 0.6933(4) 0.3006(3) 0.4969(3)
H46 H 0.3718(4) 0.2014(3) 0.4690(3)
H47 H 0.4429(4) 0.1918(3) 0.6221(4)
H48 H 0.6390(4) 0.2314(3) 0.7123(3)
Br3? Br 1.1470(4) 0.2123(3) 0.3050(3)
loop_
_geom_bond_atom_site_label_1
_geom_bond_atom_site_label_2
_geom_bond_site_symmetry_1
_geom_bond_site_symmetry_2
S1 O1 1_555 1_555
O2 S1 1_555 1_555
O3 S1 1_555 1_555
C1 S1 1_555 1_555
C2 C1 1_555 1_555
C3 C2 1_555 1_555
C4 C3 1_555 1_555
C5 C4 1_555 1_555
C6 C1 1_555 1_555
C7 C4 1_555 1_555
C8 C7 1_555 1_555
C9 C8 1_555 1_555
C10 C9 1_555 1_555
C11 C10 1_555 1_555
C12 C7 1_555 1_555
S2 C10 1_555 1_555
O4 S2 1_555 1_555
O5 S2 1_555 1_555
O6 S2 1_555 1_555
S3 O7 1_555 1_555
O8 S3 1_555 1_555
O9 S3 1_555 1_555
C13 S3 1_555 1_555
C14 C13 1_555 1_555
C15 C14 1_555 1_555
C16 C15 1_555 1_555
C17 C16 1_555 1_555
C18 C13 1_555 1_555
C19 C16 1_555 1_555
C20 C19 1_555 1_555
C21 C20 1_555 1_555
C22 C21 1_555 1_555
C23 C22 1_555 1_555
C24 C19 1_555 1_555
S4 C22 1_555 1_555
O10 S4 1_555 1_555
O11 S4 1_555 1_555
O12 S4 1_555 1_555
C25 N1 1_555 1_555
N1 H17 1_555 1_555
N2 C25 1_555 1_555
N3 C25 1_555 1_555
C26 N4 1_555 1_555
N4 H23 1_555 1_555
N5 C26 1_555 1_555
N6 C26 1_555 1_555
C27 N7 1_555 1_555
N7 H29 1_555 1_555
N8 C27 1_555 1_555
N9 C27 1_555 1_555
C28 N10 1_555 1_555
N10 H35 1_555 1_555
N11 C28 1_555 1_555
N12 C28 1_555 1_555
C29 C30 1_555 1_555
C30 C31 1_555 1_555
C31 C32 1_555 1_555
C32 C33 1_555 1_555
C33 C34 1_555 1_555
C34 C29 1_555 1_555
Br1 C29 1_555 1_555
Br2 C31 1_555 1_555
C35 C36 1_555 1_555
C36 C37 1_555 1_555
C37 C38 1_555 1_555
C38 C39 1_555 1_555
C39 C40 1_555 1_555
C40 C35 1_555 1_555
Br4 C35 1_555 1_555
Br5 C37 1_555 1_555
H1 C2 1_555 1_555
H2 C3 1_555 1_555
H3 C5 1_555 1_555
H4 C6 1_555 1_555
H5 C8 1_555 1_555
H6 C9 1_555 1_555
H7 C11 1_555 1_555
H8 C12 1_555 1_555
H9 C14 1_555 1_555
H10 C15 1_555 1_555
H11 C17 1_555 1_555
H12 C18 1_555 1_555
H13 C20 1_555 1_555
H14 C21 1_555 1_555
H15 C23 1_555 1_555
H16 C24 1_555 1_555
H18 N1 1_555 1_555
H19 N2 1_555 1_555
H20 N2 1_555 1_555
H21 N3 1_555 1_555
H22 N3 1_555 1_555
H24 N4 1_555 1_555
H25 N5 1_555 1_555
H26 N5 1_555 1_555
H27 N6 1_555 1_555
H28 N6 1_555 1_555
H30 N7 1_555 1_555
H31 N8 1_555 1_555
H32 N8 1_555 1_555
H33 N9 1_555 1_555
H34 N9 1_555 1_555
H36 N10 1_555 1_555
H37 N11 1_555 1_555
H38 N11 1_555 1_555
H39 N12 1_555 1_555
H40 N12 1_555 1_555
H41 C30 1_555 1_555
H42 C32 1_555 1_555
H43 C33 1_555 1_555
H44 C34 1_555 1_555
H45 C36 1_555 1_555
H46 C38 1_555 1_555
H47 C39 1_555 1_555
H48 C40 1_555 1_555
C5 C6 1_555 1_555
C11 C12 1_555 1_555
C17 C18 1_555 1_555
C23 C24 1_555 1_555

#END
