
#######################################################################
#
#                 Cambridge Crystallographic Data Centre
#                                CCDC 
#
#######################################################################
#
# If this CIF has been generated from an entry in the Cambridge 
# Structural Database, then it will include bibliographic, chemical, 
# crystal, experimental, refinement or atomic coordinate data resulting 
# from the CCDC's data processing and validation procedures.
#
#######################################################################

data_XAQXAO
_chemical_formula_moiety         '2(C1 H6 N3 1+),C12 H8 O6 S2 2-,C6 H4 Br2'
_chemical_name_systematic        
"bis(Guanidinium) 4,4'-biphenyldisulfonate 1,2-dibromobenzene clathrate"
_symmetry_cell_setting           triclinic
_symmetry_space_group_name_H-M   'P -1'
_symmetry_Int_Tables_number      2
_space_group_name_Hall           '-P 1'
loop_
_symmetry_equiv_pos_site_id
_symmetry_equiv_pos_as_xyz
1 x,y,z
2 -x,-y,-z
_cell_length_a                   7.2730(3)
_cell_length_b                   12.3595(6)
_cell_length_c                   14.0896(6)
_cell_angle_alpha                90.569(1)
_cell_angle_beta                 98.416(1)
_cell_angle_gamma                94.897(1)
_cell_volume                     1247.99
_exptl_crystal_colour            colorless
_exptl_crystal_description       block
_cell_formula_units_Z            2
loop_
_atom_site_label
_atom_site_type_symbol
_atom_site_fract_x
_atom_site_fract_y
_atom_site_fract_z
S1 S -0.2389(3) 0.5795(2) 0.1359(1)
O1 O -0.2173(7) 0.6976(4) 0.1271(4)
O2 O -0.1279(7) 0.5246(5) 0.0759(4)
O3 O -0.4347(7) 0.5382(4) 0.1235(4)
C1 C -0.1478(10) 0.5518(6) 0.2561(5)
C2 C -0.1819(15) 0.4499(8) 0.2895(6)
C3 C -0.1181(15) 0.4299(8) 0.3849(6)
C4 C -0.0295(10) 0.5117(6) 0.4488(5)
C5 C 0.0019(12) 0.6104(8) 0.4108(6)
C6 C -0.0589(12) 0.6348(7) 0.3158(6)
H1 H -0.2480(15) 0.3938(8) 0.2484(6)
H2 H -0.1353(15) 0.3581(8) 0.4075(6)
H3 H 0.0695(12) 0.6665(8) 0.4515(6)
H4 H -0.0396(12) 0.7063(7) 0.2930(6)
C4A C 0.0295(10) 0.4883(6) 0.5512(5)
C3A C 0.1181(15) 0.5701(8) 0.6151(6)
C2A C 0.1819(15) 0.5501(8) 0.7105(6)
C1A C 0.1478(10) 0.4482(6) 0.7439(5)
S1A S 0.2389(3) 0.4205(2) 0.8641(1)
O1A O 0.2173(7) 0.3024(4) 0.8729(4)
O2A O 0.1279(7) 0.4754(5) 0.9241(4)
O3A O 0.4347(7) 0.4618(4) 0.8765(4)
C6A C 0.0589(12) 0.3652(7) 0.6842(6)
C5A C -0.0019(12) 0.3896(8) 0.5892(6)
H3A H -0.0695(12) 0.3335(8) 0.5485(6)
H4A H 0.0396(12) 0.2937(7) 0.7070(6)
H1A H 0.2480(15) 0.6062(8) 0.7516(6)
H2A H 0.1353(15) 0.6419(8) 0.5925(6)
S2 S -0.2462(3) 1.0815(2) 0.1377(1)
O4 O -0.2238(8) 1.1969(4) 0.1288(4)
O5 O -0.1348(8) 1.0264(4) 0.0780(4)
O6 O -0.4409(8) 1.0380(5) 0.1235(4)
C7 C -0.1571(10) 1.0549(6) 0.2575(5)
C8 C -0.1997(12) 0.9534(7) 0.2957(6)
C9 C -0.1394(12) 0.9319(7) 0.3890(6)
C10 C -0.0320(10) 1.0113(6) 0.4491(5)
C11 C 0.0112(13) 1.1116(7) 0.4098(6)
C12 C -0.0517(12) 1.1302(7) 0.3163(6)
H5 H -0.2722(12) 0.8984(7) 0.2557(6)
H6 H -0.1705(12) 0.8624(7) 0.4134(6)
H7 H 0.0850(13) 1.1672(7) 0.4486(6)
H8 H -0.0201(12) 1.1993(7) 0.2913(6)
C10A C 0.0320(10) 0.9887(6) 0.5509(5)
C9A C 0.1394(12) 1.0681(7) 0.6110(6)
C8A C 0.1997(12) 1.0466(7) 0.7043(6)
C7A C 0.1571(10) 0.9451(6) 0.7425(5)
S2A S 0.2462(3) 0.9185(2) 0.8623(1)
O4A O 0.2238(8) 0.8031(4) 0.8712(4)
O5A O 0.1348(8) 0.9736(4) 0.9220(4)
O6A O 0.4409(8) 0.9620(5) 0.8765(4)
C12A C 0.0517(12) 0.8698(7) 0.6837(6)
C11A C -0.0112(13) 0.8884(7) 0.5902(6)
H7A H -0.0850(13) 0.8328(7) 0.5514(6)
H8A H 0.0201(12) 0.8007(7) 0.7087(6)
H5A H 0.2722(12) 1.1016(7) 0.7443(6)
H6A H 0.1705(12) 1.1376(7) 0.5866(6)
C13 C 0.2681(11) 0.7670(6) 0.0980(5)
N1 N 0.1266(8) 0.8248(5) 0.0997(5)
N2 N 0.2408(9) 0.6597(5) 0.0978(5)
N3 N 0.4391(9) 0.8126(5) 0.0975(5)
H9 H 0.1437(8) 0.8962(5) 0.1006(5)
H10 H 0.0141(8) 0.7924(5) 0.1000(5)
H11 H 0.1281(9) 0.6280(5) 0.0988(5)
H12 H 0.3354(9) 0.6201(5) 0.0966(5)
H13 H 0.4598(9) 0.8839(5) 0.0983(5)
H14 H 0.5321(9) 0.7718(5) 0.0963(5)
C14 C 0.2632(11) 1.2669(6) 0.0981(5)
N4 N 0.1183(9) 1.3257(6) 0.1006(5)
N5 N 0.4333(9) 1.3138(6) 0.0984(5)
N6 N 0.2351(10) 1.1590(5) 0.0975(5)
H15 H 0.1353(9) 1.3971(6) 0.1026(5)
H16 H 0.0058(9) 1.2931(6) 0.1003(5)
H17 H 0.5277(9) 1.2738(6) 0.0983(5)
H18 H 0.4523(9) 1.3851(6) 0.0988(5)
H19 H 0.3298(10) 1.1192(5) 0.0974(5)
H20 H 0.1218(10) 1.1276(5) 0.0973(5)
Br1 Br 0.3201(2) 0.8722(1) 0.3730(1)
Br2 Br 0.4689(2) 0.6297(1) 0.3393(1)
C15 C 0.4400(10) 0.7962(6) 0.4761(5)
C16 C 0.4637(11) 0.8426(5) 0.5678(6)
C17 C 0.5491(13) 0.7876(7) 0.6453(4)
C18 C 0.6109(13) 0.6861(7) 0.6312(5)
C19 C 0.5873(12) 0.6397(5) 0.5395(6)
C20 C 0.5019(12) 0.6948(6) 0.4619(4)
H21 H 0.4214(16) 0.9120(6) 0.5775(8)
H22 H 0.5653(19) 0.8193(10) 0.7080(5)
H23 H 0.6693(18) 0.6485(10) 0.6842(6)
H24 H 0.6295(17) 0.5703(6) 0.5298(8)
Br3? Br 0.6782(6) 0.6272(3) 0.6279(3)
Br4? Br 0.5272(6) 0.8683(3) 0.6607(3)
C21? C 0.5683(22) 0.7003(15) 0.5236(14)
C22? C 0.5482(23) 0.6549(11) 0.4316(17)
C23? C 0.4613(27) 0.7094(15) 0.3541(12)
C24? C 0.3945(23) 0.8094(15) 0.3686(11)
C25? C 0.4145(20) 0.8549(11) 0.4606(13)
C26? C 0.5014(24) 0.8003(15) 0.5381(10)
H25? H 0.5939(31) 0.5865(13) 0.4217(23)
H26? H 0.4476(39) 0.6784(22) 0.2913(14)
H27? H 0.3351(31) 0.8467(20) 0.3156(13)
H28? H 0.3688(27) 0.9232(12) 0.4704(19)
loop_
_geom_bond_atom_site_label_1
_geom_bond_atom_site_label_2
_geom_bond_site_symmetry_1
_geom_bond_site_symmetry_2
S1 O1 1_555 1_555
O2 S1 1_555 1_555
O3 S1 1_555 1_555
C1 S1 1_555 1_555
C2 C1 1_555 1_555
C3 C2 1_555 1_555
C4 C3 1_555 1_555
C5 C4 1_555 1_555
C6 C1 1_555 1_555
S2 O4 1_555 1_555
O5 S2 1_555 1_555
O6 S2 1_555 1_555
C7 S2 1_555 1_555
C8 C7 1_555 1_555
C9 C8 1_555 1_555
C10 C9 1_555 1_555
C11 C10 1_555 1_555
C12 C7 1_555 1_555
C13 N1 1_555 1_555
N1 H9 1_555 1_555
N2 C13 1_555 1_555
N3 C13 1_555 1_555
C14 N4 1_555 1_555
N4 H15 1_555 1_555
N5 C14 1_555 1_555
N6 C14 1_555 1_555
Br1 C15 1_555 1_555
Br2 C20 1_555 1_555
C15 C16 1_555 1_555
C16 C17 1_555 1_555
C17 C18 1_555 1_555
C18 C19 1_555 1_555
C19 C20 1_555 1_555
C20 C15 1_555 1_555
H1 C2 1_555 1_555
H2 C3 1_555 1_555
H3 C5 1_555 1_555
H4 C6 1_555 1_555
H5 C8 1_555 1_555
H6 C9 1_555 1_555
H7 C11 1_555 1_555
H8 C12 1_555 1_555
H10 N1 1_555 1_555
H11 N2 1_555 1_555
H12 N2 1_555 1_555
H13 N3 1_555 1_555
H14 N3 1_555 1_555
H16 N4 1_555 1_555
H17 N5 1_555 1_555
H18 N5 1_555 1_555
H19 N6 1_555 1_555
H20 N6 1_555 1_555
H21 C16 1_555 1_555
H22 C17 1_555 1_555
H23 C18 1_555 1_555
H24 C19 1_555 1_555
C4A C4 1_555 1_555
C3A C4A 1_555 1_555
C2A C3A 1_555 1_555
C1A C2A 1_555 1_555
S1A C1A 1_555 1_555
O1A S1A 1_555 1_555
O2A S1A 1_555 1_555
O3A S1A 1_555 1_555
C6A C1A 1_555 1_555
C5A C4A 1_555 1_555
H3A C5A 1_555 1_555
H4A C6A 1_555 1_555
H1A C2A 1_555 1_555
H2A C3A 1_555 1_555
C10A C10 1_555 1_555
C9A C10A 1_555 1_555
C8A C9A 1_555 1_555
C7A C8A 1_555 1_555
S2A C7A 1_555 1_555
O4A S2A 1_555 1_555
O5A S2A 1_555 1_555
O6A S2A 1_555 1_555
C12A C7A 1_555 1_555
C11A C10A 1_555 1_555
H7A C11A 1_555 1_555
H8A C12A 1_555 1_555
H5A C8A 1_555 1_555
H6A C9A 1_555 1_555
C5 C6 1_555 1_555
C11 C12 1_555 1_555
C6A C5A 1_555 1_555
C12A C11A 1_555 1_555

#END
