
#######################################################################
#
#                 Cambridge Crystallographic Data Centre
#                                CCDC 
#
#######################################################################
#
# If this CIF has been generated from an entry in the Cambridge 
# Structural Database, then it will include bibliographic, chemical, 
# crystal, experimental, refinement or atomic coordinate data resulting 
# from the CCDC's data processing and validation procedures.
#
#######################################################################

data_XASTEQ
_chemical_formula_moiety         'C36 H51 P1'
_chemical_name_systematic        
2,6-bis(2,4,6-Tri-isopropylphenyl)phenylphosphine
_symmetry_cell_setting           orthorhombic
_symmetry_space_group_name_H-M   'P n m a'
_symmetry_Int_Tables_number      62
_space_group_name_Hall           '-P 2ac 2n'
loop_
_symmetry_equiv_pos_site_id
_symmetry_equiv_pos_as_xyz
1 x,y,z
2 1/2-x,-y,1/2+z
3 -x,1/2+y,-z
4 1/2+x,1/2-y,1/2-z
5 -x,-y,-z
6 1/2+x,y,1/2-z
7 x,1/2-y,z
8 1/2-x,1/2+y,1/2+z
_cell_length_a                   8.0950(16)
_cell_length_b                   25.562(5)
_cell_length_c                   15.904(3)
_cell_angle_alpha                90
_cell_angle_beta                 90
_cell_angle_gamma                90
_cell_volume                     3290.93
_exptl_crystal_colour            colorless
_exptl_crystal_description       needle
_chemical_melting_point          215-218deg.C
_cell_formula_units_Z            4
loop_
_atom_site_label
_atom_site_type_symbol
_atom_site_fract_x
_atom_site_fract_y
_atom_site_fract_z
P1 P 0.2403(3) 0.7500 0.58489(12)
H1 H 0.343(7) 0.7079(18) 0.568(4)
C1 C 0.0861(8) 0.7500 0.4995(4)
C2 C 0.0219(6) 0.79798(18) 0.4696(3)
C3 C -0.0972(6) 0.79674(18) 0.4075(3)
H2 H -0.1387 0.8288 0.3860
C4 C 0.0853(6) 0.84873(18) 0.5023(3)
C5 C 0.2167(6) 0.87396(19) 0.4617(3)
C6 C 0.2740(6) 0.92142(19) 0.4936(3)
H3 H 0.3611 0.9389 0.4650
C7 C 0.2090(6) 0.94391(19) 0.5649(3)
C8 C 0.0793(6) 0.9180(2) 0.6045(3)
H4 H 0.0335 0.9330 0.6539
C9 C 0.0135(6) 0.87099(19) 0.5750(3)
C10 C -0.1342(6) 0.8464(2) 0.6177(3)
H5 H -0.1545 0.8118 0.5903
C11 C -0.2869(7) 0.8796(3) 0.6046(3)
H6 H -0.3051 0.8847 0.5442
H7 H -0.2715 0.9137 0.6318
H8 H -0.3828 0.8620 0.6292
C12 C -0.1073(7) 0.8365(2) 0.7110(3)
H9 H -0.0038 0.8172 0.7190
H10 H -0.1994 0.8158 0.7332
H11 H -0.1013 0.8700 0.7408
C13 C 0.2737(6) 0.99495(19) 0.5994(3)
H12 H 0.3557 1.0076 0.5569
C14 C 0.3681(8) 0.9887(2) 0.6782(3)
H13 H 0.4541 0.9622 0.6704
H14 H 0.2933 0.9777 0.7233
H15 H 0.4194 1.0222 0.6933
C15 C 0.1431(8) 1.0368(2) 0.6031(4)
H16 H 0.1920 1.0694 0.6241
H17 H 0.0543 1.0257 0.6411
H18 H 0.0978 1.0426 0.5468
C16 C 0.2927(6) 0.8516(2) 0.3817(3)
H19 H 0.2422 0.8164 0.3717
C17 C 0.4797(7) 0.8441(2) 0.3898(3)
H20 H 0.5031 0.8206 0.4371
H21 H 0.5325 0.8780 0.3998
H22 H 0.5231 0.8288 0.3378
C18 C -0.1583(9) 0.7500 0.3755(4)
H23 H -0.2401 0.7500 0.3327
C19 C 0.2515(7) 0.8857(2) 0.3070(3)
H24 H 0.1313 0.8873 0.2998
H25 H 0.3019 0.8709 0.2562
H26 H 0.2946 0.9211 0.3164
H1F H 0.343(7) 0.7921(18) 0.568(4)
C3F C -0.0972(6) 0.70326(18) 0.4075(3)
C2F C 0.0219(6) 0.70202(18) 0.4696(3)
C4F C 0.0853(6) 0.65127(18) 0.5023(3)
C5F C 0.2167(6) 0.62604(19) 0.4617(3)
C6F C 0.2740(6) 0.57858(19) 0.4936(3)
H3F H 0.3611 0.5611 0.4650
C7F C 0.2090(6) 0.55609(19) 0.5649(3)
C8F C 0.0793(6) 0.5820(2) 0.6045(3)
H4F H 0.0335 0.5670 0.6539
C9F C 0.0135(6) 0.62901(19) 0.5750(3)
C10F C -0.1342(6) 0.6536(2) 0.6177(3)
H5F H -0.1545 0.6882 0.5903
C11F C -0.2869(7) 0.6204(3) 0.6046(3)
H6F H -0.3051 0.6153 0.5442
H7F H -0.2715 0.5863 0.6318
H8F H -0.3828 0.6380 0.6292
C12F C -0.1073(7) 0.6635(2) 0.7110(3)
H9F H -0.0038 0.6828 0.7190
H10F H -0.1994 0.6842 0.7332
H11F H -0.1013 0.6300 0.7408
C13F C 0.2737(6) 0.50505(19) 0.5994(3)
H12F H 0.3557 0.4924 0.5569
C14F C 0.3681(8) 0.5113(2) 0.6782(3)
H13F H 0.4541 0.5378 0.6704
H14F H 0.2933 0.5223 0.7233
H15F H 0.4194 0.4778 0.6933
C15F C 0.1431(8) 0.4632(2) 0.6031(4)
H16F H 0.1920 0.4306 0.6241
H17F H 0.0543 0.4743 0.6411
H18F H 0.0978 0.4574 0.5468
C16F C 0.2927(6) 0.6484(2) 0.3817(3)
H19F H 0.2422 0.6836 0.3717
C17F C 0.4797(7) 0.6559(2) 0.3898(3)
H20F H 0.5031 0.6794 0.4371
H21F H 0.5325 0.6220 0.3998
H22F H 0.5231 0.6712 0.3378
C19F C 0.2515(7) 0.6143(2) 0.3070(3)
H24F H 0.1313 0.6127 0.2998
H25F H 0.3019 0.6291 0.2562
H26F H 0.2946 0.5789 0.3164
H2F H -0.1387 0.6712 0.3860
loop_
_geom_bond_atom_site_label_1
_geom_bond_atom_site_label_2
_geom_bond_site_symmetry_1
_geom_bond_site_symmetry_2
P1 H1 1_555 1_555
C1 P1 1_555 1_555
C2 C1 1_555 1_555
C3 C2 1_555 1_555
H2 C3 1_555 1_555
C4 C2 1_555 1_555
C5 C4 1_555 1_555
C6 C5 1_555 1_555
H3 C6 1_555 1_555
C7 C6 1_555 1_555
C8 C7 1_555 1_555
H4 C8 1_555 1_555
C9 C4 1_555 1_555
C10 C9 1_555 1_555
H5 C10 1_555 1_555
C11 C10 1_555 1_555
H6 C11 1_555 1_555
H7 C11 1_555 1_555
H8 C11 1_555 1_555
C12 C10 1_555 1_555
H9 C12 1_555 1_555
H10 C12 1_555 1_555
H11 C12 1_555 1_555
C13 C7 1_555 1_555
H12 C13 1_555 1_555
C14 C13 1_555 1_555
H13 C14 1_555 1_555
H14 C14 1_555 1_555
H15 C14 1_555 1_555
C15 C13 1_555 1_555
H16 C15 1_555 1_555
H17 C15 1_555 1_555
H18 C15 1_555 1_555
C16 C5 1_555 1_555
H19 C16 1_555 1_555
C17 C16 1_555 1_555
H20 C17 1_555 1_555
H21 C17 1_555 1_555
H22 C17 1_555 1_555
C18 C3 1_555 1_555
H23 C18 1_555 1_555
C19 C16 1_555 1_555
H24 C19 1_555 1_555
H25 C19 1_555 1_555
H26 C19 1_555 1_555
H1F P1 1_555 1_555
C3F C18 1_555 1_555
C2F C1 1_555 1_555
C4F C2F 1_555 1_555
C5F C4F 1_555 1_555
C6F C5F 1_555 1_555
H3F C6F 1_555 1_555
C7F C6F 1_555 1_555
C8F C7F 1_555 1_555
H4F C8F 1_555 1_555
C9F C4F 1_555 1_555
C10F C9F 1_555 1_555
H5F C10F 1_555 1_555
C11F C10F 1_555 1_555
H6F C11F 1_555 1_555
H7F C11F 1_555 1_555
H8F C11F 1_555 1_555
C12F C10F 1_555 1_555
H9F C12F 1_555 1_555
H10F C12F 1_555 1_555
H11F C12F 1_555 1_555
C13F C7F 1_555 1_555
H12F C13F 1_555 1_555
C14F C13F 1_555 1_555
H13F C14F 1_555 1_555
H14F C14F 1_555 1_555
H15F C14F 1_555 1_555
C15F C13F 1_555 1_555
H16F C15F 1_555 1_555
H17F C15F 1_555 1_555
H18F C15F 1_555 1_555
C16F C5F 1_555 1_555
H19F C16F 1_555 1_555
C17F C16F 1_555 1_555
H20F C17F 1_555 1_555
H21F C17F 1_555 1_555
H22F C17F 1_555 1_555
C19F C16F 1_555 1_555
H24F C19F 1_555 1_555
H25F C19F 1_555 1_555
H26F C19F 1_555 1_555
H2F C3F 1_555 1_555
C8 C9 1_555 1_555
C3F C2F 1_555 1_555
C8F C9F 1_555 1_555

#END
