
#######################################################################
#
#                 Cambridge Crystallographic Data Centre
#                                CCDC 
#
#######################################################################
#
# If this CIF has been generated from an entry in the Cambridge 
# Structural Database, then it will include bibliographic, chemical, 
# crystal, experimental, refinement or atomic coordinate data resulting 
# from the CCDC's data processing and validation procedures.
#
#######################################################################

data_XATDOL
_chemical_name_common            1,12-Diethynyl-para-carborane
_chemical_formula_moiety         'C6 H12 B10'
_chemical_name_systematic        
1,12-Diethynyl-1,12-dicarba-closo-dodecaborane(10)
_symmetry_cell_setting           triclinic
_symmetry_space_group_name_H-M   'P -1'
_symmetry_Int_Tables_number      2
_space_group_name_Hall           '-P 1'
loop_
_symmetry_equiv_pos_site_id
_symmetry_equiv_pos_as_xyz
1 x,y,z
2 -x,-y,-z
_cell_length_a                   7.287(2)
_cell_length_b                   7.5787(13)
_cell_length_c                   10.953(3)
_cell_angle_alpha                82.73(2)
_cell_angle_beta                 72.96(2)
_cell_angle_gamma                80.01(2)
_cell_volume                     567.723
_exptl_crystal_colour            colorless
_exptl_crystal_description       block
_chemical_melting_point          '135-136 deg.C'
_cell_formula_units_Z            2
_exptl_crystal_recrystallization_method sublimation
loop_
_atom_site_label
_atom_site_type_symbol
_atom_site_fract_x
_atom_site_fract_y
_atom_site_fract_z
C1 C 0.6044(2) 0.3131(2) 0.03697(14)
B1 B 0.5205(3) 0.3351(2) -0.0964(2)
H1 H 0.5442(28) 0.2172(26) -0.1516(18)
B2 B 0.7254(3) 0.4359(2) -0.0971(2)
H2 H 0.8741(28) 0.3777(25) -0.1528(18)
B3 B 0.6878(3) 0.5016(3) 0.0611(2)
H3 H 0.8107(27) 0.4891(24) 0.1001(17)
B4 B 0.4600(3) 0.4415(2) 0.1593(2)
H4 H 0.4447(29) 0.3905(27) 0.2588(19)
B5 B 0.3564(3) 0.3379(3) 0.0620(2)
H5 H 0.2840(28) 0.2252(25) 0.1007(18)
C2 C 0.7008(3) 0.1385(2) 0.0721(2)
C3 C 0.7775(3) -0.0044(3) 0.1007(2)
H6 H 0.8415(37) -0.1194(36) 0.1233(25)
B1A B 0.4795(3) 0.6649(2) 0.0964(2)
C1A C 0.3956(2) 0.6869(2) -0.03697(14)
B2A B 0.2746(3) 0.5641(2) 0.0971(2)
H1A H 0.4558(28) 0.7828(26) 0.1516(18)
B3A B 0.3122(3) 0.4984(3) -0.0611(2)
B4A B 0.5400(3) 0.5585(2) -0.1593(2)
H2A H 0.1259(28) 0.6223(25) 0.1528(18)
H3A H 0.1893(27) 0.5109(24) -0.1001(17)
H4A H 0.5553(29) 0.6095(27) -0.2588(19)
B5A B 0.6436(3) 0.6621(3) -0.0620(2)
C2A C 0.2992(3) 0.8615(2) -0.0721(2)
C3A C 0.2225(3) 1.0044(3) -0.1007(2)
H6A H 0.1585(37) 1.1194(36) -0.1233(25)
H5A H 0.7160(28) 0.7748(25) -0.1007(18)
C4 C 0.1101(2) 0.1288(2) 0.54179(14)
B6 B 0.1785(3) -0.0997(2) 0.5674(2)
H7 H 0.2993(28) -0.1482(26) 0.6113(19)
B7 B -0.0476(3) 0.0119(2) 0.6598(2)
H8 H -0.0739(28) 0.0326(25) 0.7603(18)
B8 B -0.1359(3) 0.1921(2) 0.5597(2)
H9 H -0.2075(28) 0.3187(26) 0.5979(19)
B9 B 0.0368(3) 0.1924(2) 0.4045(2)
H10 H 0.0699(28) 0.3177(26) 0.3521(18)
B10 B 0.2310(3) 0.0126(2) 0.4089(2)
H11 H 0.3775(29) 0.0338(25) 0.3604(18)
C5 C 0.2128(2) 0.2505(2) 0.58015(15)
C6 C 0.2974(3) 0.3500(3) 0.6096(2)
H12 H 0.3614(37) 0.4300(36) 0.6338(25)
B6A B -0.1785(3) 0.0997(2) 0.4326(2)
C4A C -0.1101(2) -0.1288(2) 0.45821(14)
B7A B 0.0476(3) -0.0119(2) 0.3402(2)
H7A H -0.2993(28) 0.1482(26) 0.3887(19)
B8A B 0.1359(3) -0.1921(2) 0.4403(2)
B9A B -0.0368(3) -0.1924(2) 0.5955(2)
H8A H 0.0739(28) -0.0326(25) 0.2397(18)
H9A H 0.2075(28) -0.3187(26) 0.4021(19)
H10A H -0.0699(28) -0.3177(26) 0.6479(18)
B10A B -0.2310(3) -0.0126(2) 0.5911(2)
C5A C -0.2128(2) -0.2505(2) 0.41985(15)
C6A C -0.2974(3) -0.3500(3) 0.3904(2)
H12A H -0.3614(37) -0.4300(36) 0.3662(25)
H11A H -0.3775(29) -0.0338(25) 0.6396(18)
loop_
_geom_bond_atom_site_label_1
_geom_bond_atom_site_label_2
_geom_bond_site_symmetry_1
_geom_bond_site_symmetry_2
C1 B1 1_555 1_555
B1 H1 1_555 1_555
B2 C1 1_555 1_555
H2 B2 1_555 1_555
B3 C1 1_555 1_555
H3 B3 1_555 1_555
B4 C1 1_555 1_555
H4 B4 1_555 1_555
B5 C1 1_555 1_555
H5 B5 1_555 1_555
C2 C1 1_555 1_555
C3 C2 1_555 1_555
H6 C3 1_555 1_555
C4 B6 1_555 1_555
B6 H7 1_555 1_555
B7 C4 1_555 1_555
H8 B7 1_555 1_555
B8 C4 1_555 1_555
H9 B8 1_555 1_555
B9 C4 1_555 1_555
H10 B9 1_555 1_555
B10 C4 1_555 1_555
H11 B10 1_555 1_555
C5 C4 1_555 1_555
C6 C5 1_555 1_555
H12 C6 1_555 1_555
B1A B3 1_555 1_555
C1A B1A 1_555 1_555
B2A B4 1_555 1_555
H1A B1A 1_555 1_555
B3A B1 1_555 1_555
B4A B1 1_555 1_555
H2A B2A 1_555 1_555
H3A B3A 1_555 1_555
H4A B4A 1_555 1_555
B5A B2 1_555 1_555
C2A C1A 1_555 1_555
C3A C2A 1_555 1_555
H6A C3A 1_555 1_555
H5A B5A 1_555 1_555
B6A B8 1_555 1_555
C4A B6A 1_555 1_555
B7A B9 1_555 1_555
H7A B6A 1_555 1_555
B8A B6 1_555 1_555
B9A B6 1_555 1_555
H8A B7A 1_555 1_555
H9A B8A 1_555 1_555
H10A B9A 1_555 1_555
B10A B7 1_555 1_555
C5A C4A 1_555 1_555
C6A C5A 1_555 1_555
H12A C6A 1_555 1_555
H11A B10A 1_555 1_555
B1 B2 1_555 1_555
B1 B5 1_555 1_555
B2 B3 1_555 1_555
B2 B4A 1_555 1_555
B3 B4 1_555 1_555
B3 B5A 1_555 1_555
B4 B5 1_555 1_555
B4 B1A 1_555 1_555
B5 B2A 1_555 1_555
B5 B3A 1_555 1_555
B6 B7 1_555 1_555
B6 B10 1_555 1_555
B7 B8 1_555 1_555
B7 B9A 1_555 1_555
B8 B9 1_555 1_555
B8 B10A 1_555 1_555
B9 B10 1_555 1_555
B9 B6A 1_555 1_555
B10 B7A 1_555 1_555
B10 B8A 1_555 1_555
B1A B2A 1_555 1_555
B1A B5A 1_555 1_555
C1A B2A 1_555 1_555
C1A B3A 1_555 1_555
C1A B4A 1_555 1_555
C1A B5A 1_555 1_555
B2A B3A 1_555 1_555
B3A B4A 1_555 1_555
B4A B5A 1_555 1_555
B6A B7A 1_555 1_555
B6A B10A 1_555 1_555
C4A B7A 1_555 1_555
C4A B8A 1_555 1_555
C4A B9A 1_555 1_555
C4A B10A 1_555 1_555
B7A B8A 1_555 1_555
B8A B9A 1_555 1_555
B9A B10A 1_555 1_555

#END
