
#######################################################################
#
#                 Cambridge Crystallographic Data Centre
#                                CCDC 
#
#######################################################################
#
# If this CIF has been generated from an entry in the Cambridge 
# Structural Database, then it will include bibliographic, chemical, 
# crystal, experimental, refinement or atomic coordinate data resulting 
# from the CCDC's data processing and validation procedures.
#
#######################################################################

data_XATJAF
_chemical_name_common            'Meloxicam hydrobromide'
_chemical_formula_moiety         'C14 H14 N3 O4 S2 1+,Br1 1-'
_chemical_name_systematic        
'4-Hydroxy-2-methyl-N-(5-methyl-3-thiazolium-2-yl)-2H-1,2-benzothiazine-3-carboxamide 1,1-dioxide bromide'
_chemical_properties_biological  
'meloxicam is a non-steroidal antiinflammatory drug'
_symmetry_cell_setting           monoclinic
_symmetry_space_group_name_H-M   'P 21/c'
_symmetry_Int_Tables_number      14
_space_group_name_Hall           '-P 2ybc'
loop_
_symmetry_equiv_pos_site_id
_symmetry_equiv_pos_as_xyz
1 x,y,z
2 -x,1/2+y,1/2-z
3 -x,-y,-z
4 x,1/2-y,1/2+z
_cell_length_a                   5.9205(4)
_cell_length_b                   21.4304(12)
_cell_length_c                   14.8031(9)
_cell_angle_alpha                90
_cell_angle_beta                 113.337(7)
_cell_angle_gamma                90
_cell_volume                     1724.54
_exptl_crystal_colour            colorless
_exptl_crystal_description       prism
_cell_formula_units_Z            4
loop_
_atom_site_label
_atom_site_type_symbol
_atom_site_fract_x
_atom_site_fract_y
_atom_site_fract_z
Br1 Br 0.10959(3) 0.418771(9) 0.643944(13)
S1 S 0.50113(8) 0.588981(18) 0.68947(3)
O1 O 0.7516(2) 0.47593(5) 1.03329(8)
C1 C 0.8014(2) 0.42587(6) 0.89932(10)
C2 C 0.8129(2) 0.42645(6) 0.99286(10)
O2 O 0.6201(2) 0.52547(5) 0.85757(7)
N1 N 0.7634(2) 0.48116(6) 0.75236(9)
N2 N 0.7505(3) 0.53338(7) 0.61180(10)
C3 C 0.9068(2) 0.37387(6) 1.06061(10)
C4 C 1.0772(3) 0.27066(8) 1.18344(12)
C5 C 0.6874(3) 0.52891(7) 0.68777(10)
C6 C 1.1312(3) 0.27621(8) 1.10162(11)
C7 C 0.7197(2) 0.48042(6) 0.83704(10)
C8 C 1.0489(2) 0.32773(6) 1.04124(10)
C9 C 0.6519(4) 0.58462(8) 0.55231(13)
C10 C 0.8535(3) 0.36768(7) 1.14381(11)
C11 C 0.9403(3) 0.31633(8) 1.20438(12)
C12 C 0.5121(3) 0.61966(8) 0.58221(12)
S2 S 1.12241(6) 0.338754(17) 0.93830(3)
N3 N 0.8727(2) 0.37186(5) 0.85943(8)
O3 O 1.1488(2) 0.27933(5) 0.89999(8)
O4 O 1.31630(18) 0.38315(6) 0.96296(8)
C13 C 0.6670(3) 0.33023(8) 0.80043(13)
H1 H 0.6001 0.3107 0.8427
H2 H 0.7266 0.2988 0.7691
H3 H 0.5412 0.3543 0.7512
C14 C 0.3760(4) 0.67856(9) 0.53935(15)
H4 H 0.2077 0.6745 0.5314
H5 H 0.3821 0.6862 0.4765
H6 H 0.4509 0.7128 0.5827
H7 H 0.760(3) 0.4005(8) 1.1615(12)
H8 H 1.219(3) 0.2485(9) 1.0903(13)
H9 H 1.129(3) 0.2351(8) 1.2264(13)
H10 H 0.854(3) 0.4545(8) 0.7491(11)
H11 H 0.690(3) 0.4995(8) 0.9910(12)
H12 H 0.835(3) 0.5072(9) 0.6070(13)
H13 H 0.909(3) 0.3123(8) 1.2625(13)
H14 H 0.690(4) 0.5883(10) 0.4990(16)
loop_
_geom_bond_atom_site_label_1
_geom_bond_atom_site_label_2
_geom_bond_site_symmetry_1
_geom_bond_site_symmetry_2
S1 C5 1_555 1_555
O1 C2 1_555 1_555
C1 C2 1_555 1_555
C2 C3 1_555 1_555
O2 C7 1_555 1_555
N1 C5 1_555 1_555
N2 C5 1_555 1_555
C3 C8 1_555 1_555
C4 C6 1_555 1_555
C6 C8 1_555 1_555
C7 C1 1_555 1_555
C8 S2 1_555 1_555
C9 N2 1_555 1_555
C10 C3 1_555 1_555
C11 C4 1_555 1_555
C12 S1 1_555 1_555
S2 N3 1_555 1_555
N3 C1 1_555 1_555
O3 S2 1_555 1_555
O4 S2 1_555 1_555
C13 N3 1_555 1_555
H1 C13 1_555 1_555
H2 C13 1_555 1_555
H3 C13 1_555 1_555
C14 C12 1_555 1_555
H4 C14 1_555 1_555
H5 C14 1_555 1_555
H6 C14 1_555 1_555
H7 C10 1_555 1_555
H8 C6 1_555 1_555
H9 C4 1_555 1_555
H10 N1 1_555 1_555
H11 O1 1_555 1_555
H12 N2 1_555 1_555
H13 C11 1_555 1_555
H14 C9 1_555 1_555
N1 C7 1_555 1_555
C9 C12 1_555 1_555
C10 C11 1_555 1_555

#END
