
#######################################################################
#
#                 Cambridge Crystallographic Data Centre
#                                CCDC 
#
#######################################################################
#
# If this CIF has been generated from an entry in the Cambridge 
# Structural Database, then it will include bibliographic, chemical, 
# crystal, experimental, refinement or atomic coordinate data resulting 
# from the CCDC's data processing and validation procedures.
#
#######################################################################

data_XATLAH
_chemical_formula_moiety         '2(C5 H12 N1 O1 1+),O6 S2 2-'
_chemical_name_systematic        'bis(N-Methylmorpholinium) dithionate'
_symmetry_cell_setting           monoclinic
_symmetry_space_group_name_H-M   'P 21/n'
_symmetry_Int_Tables_number      14
_space_group_name_Hall           '-P 2yn'
loop_
_symmetry_equiv_pos_site_id
_symmetry_equiv_pos_as_xyz
1 x,y,z
2 1/2-x,1/2+y,1/2-z
3 -x,-y,-z
4 1/2+x,1/2-y,1/2+z
_cell_length_a                   6.4580(1)
_cell_length_b                   11.4650(3)
_cell_length_c                   11.1475(3)
_cell_angle_alpha                90
_cell_angle_beta                 102.2614(16)
_cell_angle_gamma                90
_cell_volume                     806.544
_exptl_crystal_colour            colorless
_exptl_crystal_description       rod
_cell_formula_units_Z            2
loop_
_atom_site_label
_atom_site_type_symbol
_atom_site_fract_x
_atom_site_fract_y
_atom_site_fract_z
S1 S 0.05025(5) 0.54964(3) 0.58193(3)
O2 O 0.26135(16) 0.58991(10) 0.57437(10)
O3 O 0.0504(2) 0.46830(11) 0.68096(10)
O4 O -0.1017(2) 0.64319(11) 0.57293(12)
S1B S -0.05025(5) 0.45036(3) 0.41807(3)
O2B O -0.26135(16) 0.41009(10) 0.42563(10)
O3B O -0.0504(2) 0.53170(11) 0.31904(10)
O4B O 0.1017(2) 0.35681(11) 0.42707(12)
O1 O 0.20439(17) 0.95084(9) 0.45222(10)
N1 N 0.31172(18) 0.72543(10) 0.37310(11)
C1 C 0.4708(2) 0.80371(14) 0.45108(15)
C2 C 0.3595(3) 0.87989(15) 0.52805(15)
C3 C 0.0441(2) 0.87725(14) 0.38356(15)
C4 C 0.1335(2) 0.79662(13) 0.30029(13)
C5 C 0.4108(3) 0.64778(15) 0.29372(17)
H1 H 0.260(3) 0.6811(16) 0.4241(17)
H2 H 0.534(3) 0.8503(16) 0.3932(17)
H3 H 0.575(3) 0.7556(16) 0.4975(18)
H4 H 0.459(3) 0.9301(17) 0.5780(18)
H5 H 0.291(3) 0.8314(16) 0.5827(18)
H6 H -0.060(3) 0.9277(16) 0.3326(17)
H7 H -0.019(3) 0.8324(16) 0.4385(17)
H8 H 0.191(3) 0.8383(15) 0.2414(16)
H9 H 0.028(3) 0.7431(15) 0.2605(16)
H10 H 0.309(3) 0.5979(19) 0.249(2)
H11 H 0.470(3) 0.695(2) 0.238(2)
H12 H 0.523(3) 0.6029(19) 0.344(2)
loop_
_geom_bond_atom_site_label_1
_geom_bond_atom_site_label_2
_geom_bond_site_symmetry_1
_geom_bond_site_symmetry_2
S1 O2 1_555 1_555
O1 C2 1_555 1_555
O3 S1 1_555 1_555
O4 S1 1_555 1_555
N1 C1 1_555 1_555
C1 C2 1_555 1_555
C2 H4 1_555 1_555
C3 O1 1_555 1_555
C4 N1 1_555 1_555
C5 N1 1_555 1_555
H1 N1 1_555 1_555
H2 C1 1_555 1_555
H3 C1 1_555 1_555
H5 C2 1_555 1_555
H6 C3 1_555 1_555
H7 C3 1_555 1_555
H8 C4 1_555 1_555
H9 C4 1_555 1_555
H10 C5 1_555 1_555
H11 C5 1_555 1_555
H12 C5 1_555 1_555
S1B S1 1_555 1_555
O2B S1B 1_555 1_555
O3B S1B 1_555 1_555
O4B S1B 1_555 1_555
C3 C4 1_555 1_555

#END
