
#######################################################################
#
#                 Cambridge Crystallographic Data Centre
#                                CCDC 
#
#######################################################################
#
# If this CIF has been generated from an entry in the Cambridge 
# Structural Database, then it will include bibliographic, chemical, 
# crystal, experimental, refinement or atomic coordinate data resulting 
# from the CCDC's data processing and validation procedures.
#
#######################################################################

data_XAVMUF
_chemical_formula_moiety         'C14 H18 N4'
_chemical_name_systematic        
1-t-butyl-5-(3-phenylprop-2-en-1-yl)-1H-tetrazole
_symmetry_cell_setting           hexagonal
_symmetry_space_group_name_H-M   'P 65'
_symmetry_Int_Tables_number      170
_space_group_name_Hall           'P 65'
loop_
_symmetry_equiv_pos_site_id
_symmetry_equiv_pos_as_xyz
1 x,y,z
2 -y,x-y,2/3+z
3 -x+y,-x,1/3+z
4 -x,-y,1/2+z
5 y,-x+y,1/6+z
6 x-y,x,5/6+z
_cell_length_a                   20.5887(17)
_cell_length_b                   20.5887(17)
_cell_length_c                   5.9024(8)
_cell_angle_alpha                90
_cell_angle_beta                 90
_cell_angle_gamma                120
_cell_volume                     2166.79
_exptl_crystal_colour            colorless
_exptl_crystal_description       prism
_cell_formula_units_Z            6
loop_
_atom_site_label
_atom_site_type_symbol
_atom_site_fract_x
_atom_site_fract_y
_atom_site_fract_z
N1 N 0.32113(15) 0.23351(14) -0.1206(4)
N2 N 0.28154(16) 0.21665(16) 0.0762(5)
N3 N 0.29592(16) 0.27984(16) 0.1687(5)
N4 N 0.34358(15) 0.33843(14) 0.0351(4)
C1 C 0.35848(16) 0.30922(16) -0.1439(5)
C2 C 0.40644(17) 0.35531(17) -0.3372(6)
H1 H 0.3814 0.3315 -0.4816
H2 H 0.4549 0.3561 -0.3320
C3 C 0.42120(17) 0.43521(17) -0.3322(6)
H3 H 0.4427 0.4648 -0.2005
C4 C 0.40482(17) 0.46466(17) -0.5070(5)
H4 H 0.3827 0.4328 -0.6342
C5 C 0.41710(17) 0.54192(17) -0.5267(6)
C6 C 0.45652(17) 0.59822(17) -0.3645(6)
H5 H 0.4766 0.5874 -0.2344
C7 C 0.46625(18) 0.66936(18) -0.3934(6)
H6 H 0.4924 0.7066 -0.2814
C8 C 0.43834(18) 0.68721(19) -0.5837(6)
H7 H 0.4458 0.7363 -0.6026
C9 C 0.39924(18) 0.63189(19) -0.7462(6)
H8 H 0.3796 0.6431 -0.8766
C10 C 0.38899(17) 0.56028(18) -0.7174(6)
H9 H 0.3624 0.5231 -0.8293
C11 C 0.31105(19) 0.16840(17) -0.2648(6)
C12 C 0.23548(18) 0.13590(19) -0.3866(6)
H10 H 0.1953 0.1206 -0.2745
H11 H 0.2268 0.0922 -0.4764
H12 H 0.2359 0.1740 -0.4869
C13 C 0.37529(19) 0.19343(18) -0.4353(6)
H13 H 0.3723 0.2269 -0.5476
H14 H 0.3713 0.1494 -0.5119
H15 H 0.4234 0.2201 -0.3554
C14 C 0.3123(2) 0.1100(2) -0.1061(7)
H16 H 0.3605 0.1324 -0.0266
H17 H 0.3056 0.0668 -0.1950
H18 H 0.2716 0.0934 0.0047
loop_
_geom_bond_atom_site_label_1
_geom_bond_atom_site_label_2
_geom_bond_site_symmetry_1
_geom_bond_site_symmetry_2
N1 N2 1_555 1_555
N2 N3 1_555 1_555
N3 N4 1_555 1_555
N4 C1 1_555 1_555
C1 N1 1_555 1_555
C2 C1 1_555 1_555
H1 C2 1_555 1_555
H2 C2 1_555 1_555
C3 C2 1_555 1_555
H3 C3 1_555 1_555
C4 C3 1_555 1_555
H4 C4 1_555 1_555
C5 C4 1_555 1_555
C6 C5 1_555 1_555
H5 C6 1_555 1_555
C7 C6 1_555 1_555
H6 C7 1_555 1_555
C8 C7 1_555 1_555
H7 C8 1_555 1_555
C9 C8 1_555 1_555
H8 C9 1_555 1_555
C10 C5 1_555 1_555
H9 C10 1_555 1_555
C11 N1 1_555 1_555
C12 C11 1_555 1_555
H10 C12 1_555 1_555
H11 C12 1_555 1_555
H12 C12 1_555 1_555
C13 C11 1_555 1_555
H13 C13 1_555 1_555
H14 C13 1_555 1_555
H15 C13 1_555 1_555
C14 C11 1_555 1_555
H16 C14 1_555 1_555
H17 C14 1_555 1_555
H18 C14 1_555 1_555
C9 C10 1_555 1_555

#END
