
#######################################################################
#
#                 Cambridge Crystallographic Data Centre
#                                CCDC 
#
#######################################################################
#
# If this CIF has been generated from an entry in the Cambridge 
# Structural Database, then it will include bibliographic, chemical, 
# crystal, experimental, refinement or atomic coordinate data resulting 
# from the CCDC's data processing and validation procedures.
#
#######################################################################

data_XAVTEW
_chemical_name_common            "mycophenolic acid 2,2'-dipyridylamine"
_chemical_formula_moiety         'C17 H20 O6,C10 H9 N3'
_chemical_name_systematic        
'6-(4-hydroxy-6-methoxy-7-methyl-3-oxo-1,3-dihydro-2-benzofuran-5-yl)-4-methylhex-4-enoic acid N-(pyridin-2-yl)pyridin-2-amine'
_symmetry_cell_setting           monoclinic
_symmetry_space_group_name_H-M   'P 21/c'
_symmetry_Int_Tables_number      14
_space_group_name_Hall           '-P 2ybc'
loop_
_symmetry_equiv_pos_site_id
_symmetry_equiv_pos_as_xyz
1 x,y,z
2 -x,1/2+y,1/2-z
3 -x,-y,-z
4 x,1/2-y,1/2+z
_cell_length_a                   11.6989(13)
_cell_length_b                   14.8760(18)
_cell_length_c                   15.019(2)
_cell_angle_alpha                90
_cell_angle_beta                 107.925(13)
_cell_angle_gamma                90
_cell_volume                     2486.93
_exptl_crystal_colour            colorless
_exptl_crystal_description       block
_cell_formula_units_Z            4
loop_
_atom_site_label
_atom_site_type_symbol
_atom_site_fract_x
_atom_site_fract_y
_atom_site_fract_z
C1 C 0.84469(19) 0.04470(19) 0.38295(17)
C2 C 0.9433(2) 0.1793(2) 0.3909(2)
H1 H 0.9626 0.2056 0.3382
H2 H 0.9977 0.2035 0.4483
C3 C 0.81460(17) 0.19875(16) 0.38483(14)
C4 C 0.75622(18) 0.27842(15) 0.38674(13)
C5 C 0.63474(17) 0.27030(13) 0.38217(12)
C6 C 0.57474(16) 0.18792(13) 0.37490(12)
C7 C 0.63970(16) 0.10967(13) 0.37557(13)
C8 C 0.75926(16) 0.11630(14) 0.37973(14)
C9 C 0.44312(16) 0.18164(13) 0.36594(13)
H3 H 0.4311 0.1353 0.4076
H4 H 0.4162 0.2384 0.3843
C10 C 0.37040(16) 0.15986(12) 0.26720(13)
H5 H 0.4030 0.1170 0.2369
C11 C 0.26647(16) 0.19383(13) 0.21838(14)
C12 C 0.21366(16) 0.17228(14) 0.11608(14)
H6 H 0.1274 0.1651 0.1011
H7 H 0.2467 0.1159 0.1027
C13 C 0.24053(16) 0.24666(15) 0.05506(14)
H8 H 0.1993 0.2337 -0.0102
H9 H 0.2104 0.3035 0.0703
C14 C 0.37308(17) 0.25465(15) 0.06943(13)
C15 C 0.8197(2) 0.36770(17) 0.39644(18)
H10 H 0.9014 0.3608 0.4354
H11 H 0.7796 0.4105 0.4243
H12 H 0.8187 0.3887 0.3358
C16 C 0.5243(3) 0.39851(17) 0.30919(18)
H13 H 0.5848 0.4077 0.2791
H14 H 0.4984 0.4556 0.3257
H15 H 0.4571 0.3676 0.2673
C17 C 0.1963(2) 0.26033(18) 0.25629(17)
H16 H 0.2401 0.2743 0.3201
H17 H 0.1199 0.2349 0.2535
H18 H 0.1841 0.3143 0.2195
H19 H 0.4992(16) 0.3382(19) 0.095(2)
O1 O 0.83058(15) -0.03546(13) 0.38049(14)
O2 O 0.95255(13) 0.08304(13) 0.38948(13)
O3 O 0.57248(14) 0.34639(9) 0.39110(10)
O4 O 0.58355(12) 0.02910(9) 0.37227(11)
H20 H 0.6330 -0.0116 0.3801
O5 O 0.41560(12) 0.33641(10) 0.08625(11)
O6 O 0.43478(12) 0.19045(10) 0.06496(11)
C18 C 0.67815(19) 0.44223(14) 0.11340(16)
H21 H 0.6183 0.4851 0.1071
C19 C 0.7922(2) 0.47111(15) 0.12315(18)
H22 H 0.8099 0.5320 0.1230
C20 C 0.87949(19) 0.40706(15) 0.13312(17)
H23 H 0.9580 0.4245 0.1397
C21 C 0.85220(17) 0.31840(14) 0.13341(15)
H24 H 0.9117 0.2750 0.1411
C22 C 0.73360(16) 0.29323(13) 0.12196(13)
C23 C 0.75166(17) 0.12594(13) 0.12179(13)
C24 C 0.68193(19) 0.04938(13) 0.09222(15)
H25 H 0.5986 0.0532 0.0708
C25 C 0.7380(2) -0.03122(15) 0.09516(17)
H26 H 0.6932 -0.0832 0.0753
C26 C 0.8612(2) -0.03508(16) 0.12767(19)
H27 H 0.9015 -0.0894 0.1305
C27 C 0.9223(2) 0.04289(16) 0.15554(18)
H28 H 1.0057 0.0400 0.1775
H29 H 0.616(2) 0.2016(14) 0.1020(15)
N1 N 0.64817(13) 0.35540(11) 0.11244(11)
N2 N 0.69225(15) 0.20672(11) 0.11762(12)
N3 N 0.87084(15) 0.12350(12) 0.15356(13)
loop_
_geom_bond_atom_site_label_1
_geom_bond_atom_site_label_2
_geom_bond_site_symmetry_1
_geom_bond_site_symmetry_2
C1 C8 1_555 1_555
C2 H1 1_555 1_555
H2 C2 1_555 1_555
C3 C2 1_555 1_555
C4 C3 1_555 1_555
C5 C4 1_555 1_555
C6 C5 1_555 1_555
C7 C6 1_555 1_555
C8 C3 1_555 1_555
C9 C6 1_555 1_555
H3 C9 1_555 1_555
H4 C9 1_555 1_555
C10 C9 1_555 1_555
H5 C10 1_555 1_555
C11 C10 1_555 1_555
C12 C11 1_555 1_555
H6 C12 1_555 1_555
H7 C12 1_555 1_555
C13 C12 1_555 1_555
H8 C13 1_555 1_555
H9 C13 1_555 1_555
C14 C13 1_555 1_555
C15 C4 1_555 1_555
H10 C15 1_555 1_555
H11 C15 1_555 1_555
H12 C15 1_555 1_555
C16 H13 1_555 1_555
H14 C16 1_555 1_555
H15 C16 1_555 1_555
C17 C11 1_555 1_555
H16 C17 1_555 1_555
H17 C17 1_555 1_555
H18 C17 1_555 1_555
H19 O5 1_555 1_555
O1 C1 1_555 1_555
O2 C1 1_555 1_555
O3 C5 1_555 1_555
O4 C7 1_555 1_555
H20 O4 1_555 1_555
O5 C14 1_555 1_555
O6 C14 1_555 1_555
C18 H21 1_555 1_555
C19 C18 1_555 1_555
H22 C19 1_555 1_555
C20 C19 1_555 1_555
H23 C20 1_555 1_555
C21 C20 1_555 1_555
H24 C21 1_555 1_555
C22 C21 1_555 1_555
C23 C24 1_555 1_555
C24 H25 1_555 1_555
C25 C24 1_555 1_555
H26 C25 1_555 1_555
C26 C25 1_555 1_555
H27 C26 1_555 1_555
C27 C26 1_555 1_555
H28 C27 1_555 1_555
H29 N2 1_555 1_555
N1 C18 1_555 1_555
N2 C22 1_555 1_555
N3 C23 1_555 1_555
C2 O2 1_555 1_555
C7 C8 1_555 1_555
C16 O3 1_555 1_555
C22 N1 1_555 1_555
C23 N2 1_555 1_555
C27 N3 1_555 1_555

#END
