
#######################################################################
#
#                 Cambridge Crystallographic Data Centre
#                                CCDC 
#
#######################################################################
#
# If this CIF has been generated from an entry in the Cambridge 
# Structural Database, then it will include bibliographic, chemical, 
# crystal, experimental, refinement or atomic coordinate data resulting 
# from the CCDC's data processing and validation procedures.
#
#######################################################################

data_XAWKIS
_chemical_name_common            'expanded rosarin P!3$P!6$'
_chemical_formula_moiety         'C84 H87 N9'
_chemical_name_systematic        
3,4,8,9,17,18,22,23,31,32,36,37-dodecaethyl-6,20,34-triphenyl-43,44,45,46,47,48,49,50,51-nona-azadecacyclo[37.3.1.1^2,5^.1^7,10^.1^11,15^.1^16,19^.1^21,24^.1^25,29^.1^30,33^.1^35,38^]henpentaconta-1(43),2(51),3,5,7,9,11(49),12,14,16(48),17,19,21,23,25(46),26,28,30(45),31,33,35,37,39,41-tetracosaene
_symmetry_cell_setting           rhombohedral
_symmetry_space_group_name_H-M   'R 3 c'
_symmetry_Int_Tables_number      161
_space_group_name_Hall           'R 3 -2"c'
loop_
_symmetry_equiv_pos_site_id
_symmetry_equiv_pos_as_xyz
1 x,y,z
2 -y,x-y,z
3 -x+y,-x,z
4 -x+y,y,1/2+z
5 x,x-y,1/2+z
6 -y,-x,1/2+z
7 2/3+x,1/3+y,1/3+z
8 2/3-y,1/3+x-y,1/3+z
9 2/3-x+y,1/3-x,1/3+z
10 2/3-x+y,1/3+y,5/6+z
11 2/3+x,1/3+x-y,5/6+z
12 2/3-y,1/3-x,5/6+z
13 1/3+x,2/3+y,2/3+z
14 1/3-y,2/3+x-y,2/3+z
15 1/3-x+y,2/3-x,2/3+z
16 1/3-x+y,2/3+y,1/6+z
17 1/3+x,2/3+x-y,1/6+z
18 1/3-y,2/3-x,1/6+z
_cell_length_a                   33.1271(7)
_cell_length_b                   33.1271(7)
_cell_length_c                   10.8586(3)
_cell_angle_alpha                90
_cell_angle_beta                 90
_cell_angle_gamma                120
_cell_volume                     10319.8
_exptl_crystal_colour            red
_exptl_crystal_description       needle
_cell_formula_units_Z            6
loop_
_atom_site_label
_atom_site_type_symbol
_atom_site_fract_x
_atom_site_fract_y
_atom_site_fract_z
C1 C 0.16144(8) 0.55333(8) 0.9715(2)
C2 C 0.11285(8) 0.52850(8) 0.9329(2)
C3 C 0.10451(8) 0.48640(8) 0.8888(2)
C4 C 0.14904(8) 0.48682(8) 0.8978(2)
C5 C 0.16166(8) 0.45498(8) 0.8578(2)
C6 C 0.20789(8) 0.46161(8) 0.8727(2)
C7 C 0.22950(8) 0.43652(8) 0.8306(2)
C8 C 0.27684(8) 0.46181(8) 0.8693(2)
C9 C 0.28225(8) 0.49994(8) 0.9373(2)
C10 C 0.32116(8) 0.53569(8) 1.0105(2)
C11 C 0.31189(8) 0.55177(9) 1.1199(3)
H1 H 0.2809 0.5386 1.1496
C12 C 0.34852(9) 0.58717(9) 1.1841(3)
H2 H 0.3433 0.5980 1.2601
C13 C 0.39323(9) 0.60659(9) 1.1351(3)
H3 H 0.4189 0.6322 1.1743
C14 C 0.39957(8) 0.58768(8) 1.0274(2)
C15 C 0.07933(8) 0.54597(8) 0.9524(3)
H4 H 0.0507 0.5266 0.9039
H5 H 0.0936 0.5784 0.9218
C16 C 0.06633(10) 0.54465(11) 1.0878(3)
H6 H 0.0944 0.5648 1.1357
H7 H 0.0522 0.5126 1.1184
H8 H 0.0440 0.5557 1.0961
C17 C 0.05732(8) 0.44719(8) 0.8514(2)
H9 H 0.0611 0.4286 0.7857
H10 H 0.0386 0.4603 0.8176
C18 C 0.03128(9) 0.41517(9) 0.9609(3)
H11 H 0.0245 0.4327 1.0224
H12 H 0.0507 0.4038 0.9981
H13 H 0.0020 0.3886 0.9319
C19 C 0.12652(8) 0.41188(8) 0.7926(2)
C20 C 0.09771(8) 0.37114(8) 0.8582(2)
H14 H 0.1007 0.3705 0.9451
C21 C 0.06460(9) 0.33149(9) 0.7966(3)
H15 H 0.0446 0.3041 0.8417
C22 C 0.06073(9) 0.33192(9) 0.6694(3)
H16 H 0.0383 0.3048 0.6273
C23 C 0.08967(9) 0.37204(9) 0.6043(3)
H17 H 0.0872 0.3723 0.5172
C24 C 0.12236(9) 0.41195(8) 0.6654(3)
H18 H 0.1420 0.4394 0.6200
C25 C 0.20817(8) 0.39068(8) 0.7643(2)
H19 H 0.1741 0.3736 0.7791
H20 H 0.2210 0.3718 0.7988
C26 C 0.21706(10) 0.39586(9) 0.6255(3)
H21 H 0.2506 0.4103 0.6099
H22 H 0.2055 0.4155 0.5911
H23 H 0.2008 0.3651 0.5866
C27 C 0.31428(8) 0.45000(8) 0.8415(2)
H24 H 0.2994 0.4162 0.8245
H25 H 0.3343 0.4568 0.9152
C28 C 0.34496(9) 0.47697(9) 0.7316(3)
H26 H 0.3627 0.5103 0.7516
H27 H 0.3252 0.4722 0.6596
H28 H 0.3666 0.4657 0.7133
N1 N 0.18231(7) 0.52916(7) 0.9522(2)
N2 N 0.24086(7) 0.49902(7) 0.9383(2)
N3 N 0.36461(7) 0.55224(7) 0.9655(2)
H29 H 0.2344(12) 0.5209(13) 0.973(3)
C1A C 0.44667(8) 0.60811(11) 0.9715(2)
C2A C 0.47150(8) 0.58435(11) 0.9329(2)
C3A C 0.51360(8) 0.61811(11) 0.8888(2)
C4A C 0.51318(8) 0.66222(11) 0.8978(2)
C5A C 0.54502(8) 0.70668(11) 0.8578(2)
C6A C 0.53839(8) 0.74628(11) 0.8727(2)
C7A C 0.56348(8) 0.79298(11) 0.8306(2)
C8A C 0.53819(8) 0.81503(11) 0.8693(2)
C9A C 0.50006(8) 0.78231(11) 0.9373(2)
C10A C 0.46431(8) 0.78547(11) 1.0105(2)
C11A C 0.44823(9) 0.76012(12) 1.1199(3)
H1A H 0.4614 0.7423 1.1496
C12A C 0.41283(9) 0.76135(13) 1.1841(3)
H2A H 0.4020 0.7453 1.2601
C13A C 0.39341(9) 0.78664(13) 1.1351(3)
H3A H 0.3678 0.7867 1.1743
C14A C 0.41232(8) 0.81189(11) 1.0274(2)
C15A C 0.45403(8) 0.53336(11) 0.9524(3)
H4A H 0.4734 0.5241 0.9039
H5A H 0.4216 0.5152 0.9218
C16A C 0.45535(11) 0.52168(15) 1.0878(3)
H6A H 0.4352 0.5296 1.1357
H7A H 0.4874 0.5396 1.1184
H8A H 0.4443 0.4883 1.0961
C17A C 0.55281(8) 0.61013(11) 0.8514(2)
H9A H 0.5714 0.6325 0.7857
H10A H 0.5397 0.5783 0.8176
C18A C 0.58483(9) 0.61611(13) 0.9609(3)
H11A H 0.5673 0.5918 1.0224
H12A H 0.5962 0.6469 0.9981
H13A H 0.6114 0.6134 0.9319
C19A C 0.58812(8) 0.71464(11) 0.7926(2)
C20A C 0.62886(8) 0.72657(11) 0.8582(2)
H14A H 0.6295 0.7302 0.9451
C21A C 0.66851(9) 0.73311(13) 0.7966(3)
H15A H 0.6959 0.7405 0.8417
C22A C 0.66808(9) 0.72881(13) 0.6694(3)
H16A H 0.6952 0.7335 0.6273
C23A C 0.62796(9) 0.71763(13) 0.6043(3)
H17A H 0.6277 0.7149 0.5172
C24A C 0.58805(8) 0.71041(12) 0.6654(3)
H18A H 0.5606 0.7026 0.6200
C25A C 0.60932(8) 0.81749(11) 0.7643(2)
H19A H 0.6264 0.8005 0.7791
H20A H 0.6282 0.8492 0.7988
C26A C 0.60414(9) 0.82120(13) 0.6255(3)
H21A H 0.5897 0.8403 0.6099
H22A H 0.5845 0.7900 0.5911
H23A H 0.6349 0.8357 0.5866
C27A C 0.55000(8) 0.86428(11) 0.8415(2)
H24A H 0.5838 0.8832 0.8245
H25A H 0.5432 0.8775 0.9152
C28A C 0.52303(9) 0.86799(13) 0.7316(3)
H26A H 0.4897 0.8524 0.7516
H27A H 0.5278 0.8530 0.6596
H28A H 0.5343 0.9009 0.7133
N1A N 0.47084(7) 0.65315(10) 0.9522(2)
N2A N 0.50098(7) 0.74184(10) 0.9383(2)
N3A N 0.44776(7) 0.81237(10) 0.9655(2)
H29A H 0.4791(13) 0.7135(18) 0.973(3)
C1B C 0.39189(11) 0.83856(8) 0.9715(2)
C2B C 0.41565(11) 0.88715(8) 0.9329(2)
C3B C 0.38189(11) 0.89549(8) 0.8888(2)
C4B C 0.33778(11) 0.85096(8) 0.8978(2)
C5B C 0.29332(11) 0.83834(8) 0.8578(2)
C6B C 0.25372(11) 0.79211(8) 0.8727(2)
C7B C 0.20702(11) 0.77050(8) 0.8306(2)
C8B C 0.18497(11) 0.72316(8) 0.8693(2)
C9B C 0.21769(11) 0.71775(8) 0.9373(2)
C10B C 0.21453(11) 0.67884(8) 1.0105(2)
C11B C 0.23988(12) 0.68811(8) 1.1199(3)
H1B H 0.2577 0.7191 1.1496
C12B C 0.23865(13) 0.65148(9) 1.1841(3)
H2B H 0.2547 0.6567 1.2601
C13B C 0.21336(13) 0.60677(9) 1.1351(3)
H3B H 0.2133 0.5811 1.1743
C14B C 0.18811(11) 0.60043(8) 1.0274(2)
C15B C 0.46664(11) 0.92067(8) 0.9524(3)
H4B H 0.4759 0.9493 0.9039
H5B H 0.4848 0.9064 0.9218
C16B C 0.47832(15) 0.93367(10) 1.0878(3)
H6B H 0.4704 0.9056 1.1357
H7B H 0.4604 0.9478 1.1184
H8B H 0.5117 0.9560 1.0961
C17B C 0.38987(11) 0.94268(8) 0.8514(2)
H9B H 0.3675 0.9389 0.7857
H10B H 0.4217 0.9614 0.8176
C18B C 0.38389(13) 0.96872(9) 0.9609(3)
H11B H 0.4082 0.9755 1.0224
H12B H 0.3531 0.9493 0.9981
H13B H 0.3866 0.9980 0.9319
C19B C 0.28536(11) 0.87348(8) 0.7926(2)
C20B C 0.27343(11) 0.90229(8) 0.8582(2)
H14B H 0.2698 0.8993 0.9451
C21B C 0.26689(13) 0.93540(9) 0.7966(3)
H15B H 0.2595 0.9554 0.8417
C22B C 0.27119(13) 0.93927(9) 0.6694(3)
H16B H 0.2665 0.9617 0.6273
C23B C 0.28237(13) 0.91033(9) 0.6043(3)
H17B H 0.2851 0.9128 0.5172
C24B C 0.28959(12) 0.87764(9) 0.6654(3)
H18B H 0.2974 0.8580 0.6200
C25B C 0.18251(11) 0.79183(8) 0.7643(2)
H19B H 0.1995 0.8259 0.7791
H20B H 0.1508 0.7790 0.7988
C26B C 0.17880(13) 0.78294(10) 0.6255(3)
H21B H 0.1597 0.7494 0.6099
H22B H 0.2100 0.7945 0.5911
H23B H 0.1643 0.7992 0.5866
C27B C 0.13572(11) 0.68572(8) 0.8415(2)
H24B H 0.1168 0.7006 0.8245
H25B H 0.1225 0.6657 0.9152
C28B C 0.13201(13) 0.65504(9) 0.7316(3)
H26B H 0.1476 0.6373 0.7516
H27B H 0.1470 0.6748 0.6596
H28B H 0.0991 0.6334 0.7133
N1B N 0.34685(10) 0.81769(7) 0.9522(2)
N2B N 0.25816(10) 0.75914(7) 0.9383(2)
N3B N 0.18763(10) 0.63539(7) 0.9655(2)
H29B H 0.2865(18) 0.7656(12) 0.973(3)
loop_
_geom_bond_atom_site_label_1
_geom_bond_atom_site_label_2
_geom_bond_site_symmetry_1
_geom_bond_site_symmetry_2
C1 C2 1_555 1_555
C2 C3 1_555 1_555
C3 C4 1_555 1_555
C4 C5 1_555 1_555
C5 C6 1_555 1_555
C6 C7 1_555 1_555
C7 C8 1_555 1_555
C8 C9 1_555 1_555
C9 C10 1_555 1_555
C10 C11 1_555 1_555
C11 H1 1_555 1_555
C12 C11 1_555 1_555
H2 C12 1_555 1_555
C13 C12 1_555 1_555
H3 C13 1_555 1_555
C14 C13 1_555 1_555
C15 C2 1_555 1_555
H4 C15 1_555 1_555
H5 C15 1_555 1_555
C16 C15 1_555 1_555
H6 C16 1_555 1_555
H7 C16 1_555 1_555
H8 C16 1_555 1_555
C17 C3 1_555 1_555
H9 C17 1_555 1_555
H10 C17 1_555 1_555
C18 C17 1_555 1_555
H11 C18 1_555 1_555
H12 C18 1_555 1_555
H13 C18 1_555 1_555
C19 C5 1_555 1_555
C20 C19 1_555 1_555
H14 C20 1_555 1_555
C21 C20 1_555 1_555
H15 C21 1_555 1_555
C22 C21 1_555 1_555
H16 C22 1_555 1_555
C23 C22 1_555 1_555
H17 C23 1_555 1_555
C24 C19 1_555 1_555
H18 C24 1_555 1_555
C25 C7 1_555 1_555
H19 C25 1_555 1_555
H20 C25 1_555 1_555
C26 C25 1_555 1_555
H21 C26 1_555 1_555
H22 C26 1_555 1_555
H23 C26 1_555 1_555
C27 C8 1_555 1_555
H24 C27 1_555 1_555
H25 C27 1_555 1_555
C28 C27 1_555 1_555
H26 C28 1_555 1_555
H27 C28 1_555 1_555
H28 C28 1_555 1_555
N1 C1 1_555 1_555
N2 C6 1_555 1_555
N3 C10 1_555 1_555
H29 N2 1_555 1_555
C1A C14 1_555 1_555
C2A C1A 1_555 1_555
C3A C2A 1_555 1_555
C4A C3A 1_555 1_555
C5A C4A 1_555 1_555
C6A C5A 1_555 1_555
C7A C6A 1_555 1_555
C8A C7A 1_555 1_555
C9A C8A 1_555 1_555
C10A C9A 1_555 1_555
C11A C10A 1_555 1_555
H1A C11A 1_555 1_555
C12A C11A 1_555 1_555
H2A C12A 1_555 1_555
C13A C12A 1_555 1_555
H3A C13A 1_555 1_555
C14A C13A 1_555 1_555
C15A C2A 1_555 1_555
H4A C15A 1_555 1_555
H5A C15A 1_555 1_555
C16A C15A 1_555 1_555
H6A C16A 1_555 1_555
H7A C16A 1_555 1_555
H8A C16A 1_555 1_555
C17A C3A 1_555 1_555
H9A C17A 1_555 1_555
H10A C17A 1_555 1_555
C18A C17A 1_555 1_555
H11A C18A 1_555 1_555
H12A C18A 1_555 1_555
H13A C18A 1_555 1_555
C19A C5A 1_555 1_555
C20A C19A 1_555 1_555
H14A C20A 1_555 1_555
C21A C20A 1_555 1_555
H15A C21A 1_555 1_555
C22A C21A 1_555 1_555
H16A C22A 1_555 1_555
C23A C22A 1_555 1_555
H17A C23A 1_555 1_555
C24A C19A 1_555 1_555
H18A C24A 1_555 1_555
C25A C7A 1_555 1_555
H19A C25A 1_555 1_555
H20A C25A 1_555 1_555
C26A C25A 1_555 1_555
H21A C26A 1_555 1_555
H22A C26A 1_555 1_555
H23A C26A 1_555 1_555
C27A C8A 1_555 1_555
H24A C27A 1_555 1_555
H25A C27A 1_555 1_555
C28A C27A 1_555 1_555
H26A C28A 1_555 1_555
H27A C28A 1_555 1_555
H28A C28A 1_555 1_555
N1A C1A 1_555 1_555
N2A C6A 1_555 1_555
N3A C10A 1_555 1_555
H29A N2A 1_555 1_555
C1B C14A 1_555 1_555
C2B C1B 1_555 1_555
C3B C2B 1_555 1_555
C4B C3B 1_555 1_555
C5B C4B 1_555 1_555
C6B C5B 1_555 1_555
C7B C6B 1_555 1_555
C8B C7B 1_555 1_555
C9B C8B 1_555 1_555
C10B C9B 1_555 1_555
C11B C10B 1_555 1_555
H1B C11B 1_555 1_555
C12B C11B 1_555 1_555
H2B C12B 1_555 1_555
C13B C12B 1_555 1_555
H3B C13B 1_555 1_555
C14B C1 1_555 1_555
C15B C2B 1_555 1_555
H4B C15B 1_555 1_555
H5B C15B 1_555 1_555
C16B C15B 1_555 1_555
H6B C16B 1_555 1_555
H7B C16B 1_555 1_555
H8B C16B 1_555 1_555
C17B C3B 1_555 1_555
H9B C17B 1_555 1_555
H10B C17B 1_555 1_555
C18B C17B 1_555 1_555
H11B C18B 1_555 1_555
H12B C18B 1_555 1_555
H13B C18B 1_555 1_555
C19B C5B 1_555 1_555
C20B C19B 1_555 1_555
H14B C20B 1_555 1_555
C21B C20B 1_555 1_555
H15B C21B 1_555 1_555
C22B C21B 1_555 1_555
H16B C22B 1_555 1_555
C23B C22B 1_555 1_555
H17B C23B 1_555 1_555
C24B C19B 1_555 1_555
H18B C24B 1_555 1_555
C25B C7B 1_555 1_555
H19B C25B 1_555 1_555
H20B C25B 1_555 1_555
C26B C25B 1_555 1_555
H21B C26B 1_555 1_555
H22B C26B 1_555 1_555
H23B C26B 1_555 1_555
C27B C8B 1_555 1_555
H24B C27B 1_555 1_555
H25B C27B 1_555 1_555
C28B C27B 1_555 1_555
H26B C28B 1_555 1_555
H27B C28B 1_555 1_555
H28B C28B 1_555 1_555
N1B C1B 1_555 1_555
N2B C6B 1_555 1_555
N3B C10B 1_555 1_555
H29B N2B 1_555 1_555
C4 N1 1_555 1_555
C9 N2 1_555 1_555
C14 N3 1_555 1_555
C23 C24 1_555 1_555
C4A N1A 1_555 1_555
C9A N2A 1_555 1_555
C14A N3A 1_555 1_555
C23A C24A 1_555 1_555
C4B N1B 1_555 1_555
C9B N2B 1_555 1_555
C13B C14B 1_555 1_555
C14B N3B 1_555 1_555
C23B C24B 1_555 1_555

#END
