
#######################################################################
#
#                 Cambridge Crystallographic Data Centre
#                                CCDC 
#
#######################################################################
#
# If this CIF has been generated from an entry in the Cambridge 
# Structural Database, then it will include bibliographic, chemical, 
# crystal, experimental, refinement or atomic coordinate data resulting 
# from the CCDC's data processing and validation procedures.
#
#######################################################################

data_XAWKUE
_chemical_formula_moiety         '2(C84 H87 N9),C60,C7 H8'
_chemical_name_systematic        
'bis(3,4,8,9,17,18,22,23,31,32,36,37-dodecaethyl-6,20,34-triphenyl-43,44,45,46,47,48,49,50,51-nonaazadecacyclo[37.3.1.1^2,5^.1^7,10^.1^11,15^.1^16,19^.1^21,24^.1^25,29^.1^30,33^.1^35,38^]henpentaconta-1(43),2(51),3,5,7,9,11(49),12,14,16(48),17,19,21,23,25(46),26,28,30,32,34,36,38(44),39,41-tetracosaene) C60fullerene toluene solvate'
_symmetry_cell_setting           triclinic
_symmetry_space_group_name_H-M   'P -1'
_symmetry_Int_Tables_number      2
_space_group_name_Hall           '-P 1'
loop_
_symmetry_equiv_pos_site_id
_symmetry_equiv_pos_as_xyz
1 x,y,z
2 -x,-y,-z
_cell_length_a                   16.2770(10)
_cell_length_b                   16.6922(12)
_cell_length_c                   18.7187(13)
_cell_angle_alpha                108.487(7)
_cell_angle_beta                 105.496(6)
_cell_angle_gamma                107.046(6)
_cell_volume                     4232.2
_exptl_crystal_colour            red
_exptl_crystal_description       needle
_cell_formula_units_Z            1
loop_
_atom_site_label
_atom_site_type_symbol
_atom_site_fract_x
_atom_site_fract_y
_atom_site_fract_z
C85 C 0.5655(3) 0.7404(3) 0.5590(3)
C86 C 0.4986(3) 0.7028(3) 0.4781(3)
C87 C 0.5165(3) 0.6569(3) 0.4091(3)
C88 C 0.6034(3) 0.6508(3) 0.4213(3)
C89 C 0.6720(3) 0.6906(3) 0.5036(3)
C90 C 0.6554(3) 0.7342(3) 0.5711(3)
C91 C 0.6824(3) 0.7192(3) 0.6443(3)
C92 C 0.6113(3) 0.7161(3) 0.6766(3)
C93 C 0.5381(3) 0.7290(3) 0.6230(3)
C94 C 0.4448(3) 0.6798(3) 0.6059(3)
C95 C 0.3745(3) 0.6405(3) 0.5229(3)
C96 C 0.4002(3) 0.6512(3) 0.4607(3)
C97 C 0.3588(3) 0.5744(3) 0.3797(3)
C98 C 0.4321(3) 0.5776(3) 0.3478(3)
C99 C 0.4349(3) 0.4955(3) 0.3018(3)
C100 C 0.5247(3) 0.4893(3) 0.3150(3)
C101 C 0.6066(3) 0.5667(3) 0.3738(3)
C102 C 0.6796(3) 0.5525(3) 0.4273(3)
C103 C 0.7201(3) 0.6297(3) 0.5082(3)
C104 C 0.7463(3) 0.6155(3) 0.5772(3)
C105 C 0.7273(3) 0.6597(3) 0.6466(3)
C106 C 0.5864(3) 0.6544(3) 0.7102(3)
C107 C 0.4885(3) 0.6027(3) 0.6925(3)
C108 C 0.4180(3) 0.6146(3) 0.6401(3)
C109 C 0.3055(3) 0.5516(3) 0.5068(3)
C110 C 0.2667(3) 0.4786(3) 0.4303(3)
C111 C 0.2930(3) 0.4888(3) 0.3651(3)
C112 C 0.2967(3) 0.4035(3) 0.3166(3)
C113 C 0.3663(3) 0.4071(3) 0.2862(3)
C114 C 0.6660(3) 0.4638(3) 0.4193(3)
C85A C 0.4345(3) 0.2596(3) 0.4410(3)
C86A C 0.5014(3) 0.2972(3) 0.5219(3)
C87A C 0.4835(3) 0.3431(3) 0.5909(3)
C88A C 0.3966(3) 0.3492(3) 0.5787(3)
C89A C 0.3280(3) 0.3094(3) 0.4964(3)
C90A C 0.3446(3) 0.2658(3) 0.4289(3)
C91A C 0.3176(3) 0.2808(3) 0.3557(3)
C92A C 0.3887(3) 0.2839(3) 0.3234(3)
C93A C 0.4619(3) 0.2710(3) 0.3770(3)
C94A C 0.5552(3) 0.3202(3) 0.3941(3)
C95A C 0.6255(3) 0.3595(3) 0.4771(3)
C96A C 0.5998(3) 0.3488(3) 0.5393(3)
C97A C 0.6412(3) 0.4256(3) 0.6203(3)
C98A C 0.5679(3) 0.4224(3) 0.6522(3)
C99A C 0.5651(3) 0.5045(3) 0.6982(3)
C100A C 0.4753(3) 0.5107(3) 0.6850(3)
C101A C 0.3934(3) 0.4333(3) 0.6262(3)
C102A C 0.3204(3) 0.4475(3) 0.5727(3)
C103A C 0.2799(3) 0.3703(3) 0.4918(3)
C104A C 0.2537(3) 0.3845(3) 0.4228(3)
C105A C 0.2727(3) 0.3403(3) 0.3534(3)
C106A C 0.4136(3) 0.3456(3) 0.2898(3)
C107A C 0.5115(3) 0.3973(3) 0.3075(3)
C108A C 0.5820(3) 0.3854(3) 0.3599(3)
C109A C 0.6945(3) 0.4484(3) 0.4932(3)
C110A C 0.7333(3) 0.5214(3) 0.5697(3)
C111A C 0.7070(3) 0.5112(3) 0.6349(3)
C112A C 0.7033(3) 0.5965(3) 0.6834(3)
C113A C 0.6337(3) 0.5929(3) 0.7138(3)
C114A C 0.3340(3) 0.5362(3) 0.5807(3)
C1 C 0.5424(3) 0.9485(3) 0.7175(3)
C2 C 0.5506(3) 0.9617(3) 0.7998(3)
C3 C 0.4626(3) 0.9091(3) 0.7926(3)
C4 C 0.4032(3) 0.8639(3) 0.7069(3)
C5 C 0.3068(3) 0.7919(3) 0.6608(3)
C6 C 0.2484(3) 0.7880(3) 0.5904(3)
H1 H 0.2660 0.8375 0.5750
C7 C 0.1637(3) 0.7114(3) 0.5418(3)
H2 H 0.1216 0.7082 0.4937
C8 C 0.1421(2) 0.6394(3) 0.5655(3)
H3 H 0.0861 0.5845 0.5322
C9 C 0.2034(2) 0.6489(3) 0.6385(3)
C10 C 0.1853(2) 0.5708(3) 0.6626(3)
C11 C 0.2208(3) 0.5708(3) 0.7420(3)
C12 C 0.1870(3) 0.4786(3) 0.7289(3)
C13 C 0.1323(2) 0.4245(3) 0.6403(2)
C14 C 0.0946(2) 0.3287(3) 0.5914(3)
C15 C 0.0567(2) 0.2874(3) 0.5040(2)
C16 C 0.0160(2) 0.1928(3) 0.4420(3)
C17 C -0.0012(2) 0.1959(3) 0.3664(3)
C18 C 0.0272(2) 0.2896(3) 0.3802(2)
C19 C 0.0306(2) 0.3364(3) 0.3252(3)
C20 C 0.0198(2) 0.4204(3) 0.3454(3)
H4 H 0.0073 0.4457 0.3924
C21 C 0.0280(2) 0.4653(3) 0.2951(3)
H5 H 0.0173 0.5201 0.3049
C22 C 0.0518(3) 0.4294(3) 0.2308(3)
H6 H 0.0597 0.4602 0.1967
C23 C 0.0644(2) 0.3479(3) 0.2159(3)
C24 C 0.1049(3) 0.3159(2) 0.1568(2)
C25 C 0.1021(3) 0.2264(3) 0.1135(3)
C26 C 0.1639(3) 0.2387(3) 0.0747(3)
C27 C 0.2043(3) 0.3378(3) 0.0972(3)
C28 C 0.2794(3) 0.3923(3) 0.0849(2)
C29 C 0.3178(3) 0.4897(3) 0.1201(3)
C30 C 0.3951(3) 0.5578(3) 0.1174(3)
C31 C 0.4204(8) 0.6434(8) 0.1765(10)
C32 C 0.4902(7) 0.7338(6) 0.1895(6)
H7 H 0.5341 0.7217 0.1642
H8 H 0.5269 0.7724 0.2491
C33 C 0.4441(7) 0.7881(7) 0.1525(7)
H9 H 0.4062 0.7496 0.0937
H10 H 0.4928 0.8449 0.1602
H11 H 0.4040 0.8043 0.1800
C34 C 0.3385(3) 0.6307(3) 0.2027(3)
C35 C 0.3273(3) 0.6954(3) 0.2690(3)
C36 C 0.2411(3) 0.6800(3) 0.2748(3)
H12 H 0.1858 0.6300 0.2317
C37 C 0.2365(3) 0.7377(3) 0.3437(3)
H13 H 0.1779 0.7299 0.3477
C38 C 0.3196(3) 0.8078(3) 0.4074(3)
H14 H 0.3185 0.8473 0.4562
C39 C 0.4047(3) 0.8193(2) 0.3990(3)
C40 C 0.4935(3) 0.8810(3) 0.4679(3)
C41 C 0.5870(4) 0.9187(3) 0.4735(3)
C42 C 0.6460(3) 0.9653(3) 0.5558(3)
C43 C 0.5877(3) 0.9541(2) 0.6015(3)
C44 C 0.6092(3) 0.9783(2) 0.6857(3)
C45 C 0.6339(3) 1.0167(3) 0.8797(3)
H15 H 0.6155 1.0506 0.9220
H16 H 0.6825 1.0631 0.8738
C46 C 0.6747(4) 0.9561(4) 0.9080(4)
H17 H 0.6267 0.9096 0.9134
H18 H 0.7278 0.9946 0.9612
H19 H 0.6961 0.9248 0.8676
C47 C 0.4318(3) 0.9051(3) 0.8607(3)
H20 H 0.4836 0.9085 0.9054
H21 H 0.3781 0.8449 0.8398
C48 C 0.4035(4) 0.9831(4) 0.8948(4)
H22 H 0.4571 1.0428 0.9174
H23 H 0.3832 0.9770 0.9384
H24 H 0.3520 0.9798 0.8509
C49 C 0.2789(3) 0.6536(3) 0.8228(3)
H25 H 0.3354 0.6925 0.8193
H26 H 0.2999 0.6323 0.8652
C50 C 0.2275(4) 0.7129(3) 0.8495(3)
H27 H 0.2066 0.7345 0.8079
H28 H 0.2699 0.7665 0.9021
H29 H 0.1732 0.6759 0.8558
C51 C 0.2021(4) 0.4459(3) 0.7956(3)
H30 H 0.2643 0.4884 0.8405
H31 H 0.2015 0.3833 0.7733
C52 C 0.1256(6) 0.4422(5) 0.8302(5)
H32 H 0.1255 0.5039 0.8516
H33 H 0.1386 0.4227 0.8746
H34 H 0.0643 0.3978 0.7865
C53 C 0.0935(10) 0.2706(10) 0.6355(9)
C54 C 0.1605(10) 0.2352(9) 0.6450(9)
H35 H 0.2071 0.2511 0.6242
C55 C 0.1619(8) 0.1769(8) 0.6842(7)
H36 H 0.2087 0.1535 0.6899
C56 C 0.0944(10) 0.1535(7) 0.7145(6)
H37 H 0.0947 0.1138 0.7413
C57 C 0.0253(8) 0.1882(7) 0.7059(7)
H38 H -0.0212 0.1725 0.7268
C58 C 0.0264(7) 0.2460(8) 0.6662(7)
H39 H -0.0205 0.2694 0.6600
C59 C -0.0100(3) 0.1050(3) 0.4539(3)
H40 H 0.0366 0.1160 0.5063
H41 H -0.0075 0.0558 0.4091
C60 C -0.1084(3) 0.0707(3) 0.4548(3)
H42 H -0.1112 0.1186 0.4995
H43 H -0.1214 0.0139 0.4631
H44 H -0.1552 0.0577 0.4023
C61 C -0.0467(3) 0.1152(3) 0.2834(3)
H45 H -0.0380 0.0610 0.2894
H46 H -0.0150 0.1308 0.2482
C62 C -0.1509(4) 0.0889(4) 0.2414(4)
H47 H -0.1820 0.0779 0.2778
H48 H -0.1782 0.0323 0.1902
H49 H -0.1597 0.1394 0.2292
C63 C 0.0394(3) 0.1372(3) 0.1084(3)
H50 H 0.0544 0.1401 0.1642
H51 H 0.0514 0.0858 0.0754
C64 C -0.0628(4) 0.1171(4) 0.0701(4)
H52 H -0.0746 0.1686 0.1015
H53 H -0.1012 0.0598 0.0704
H54 H -0.0790 0.1098 0.0134
C65 C 0.1803(3) 0.1616(3) 0.0222(3)
H55 H 0.1723 0.1131 0.0427
H56 H 0.2456 0.1858 0.0265
C66 C 0.1129(3) 0.1180(4) -0.0684(3)
H57 H 0.0491 0.0852 -0.0742
H58 H 0.1316 0.0740 -0.1017
H59 H 0.1151 0.1668 -0.0871
C67 C 0.3248(3) 0.3420(3) 0.0379(3)
C68 C 0.2892(3) 0.3055(3) -0.0473(3)
H60 H 0.2396 0.3169 -0.0763
C69 C 0.3275(4) 0.2516(3) -0.0901(3)
H61 H 0.3035 0.2261 -0.1484
C70 C 0.3998(4) 0.2356(3) -0.0480(3)
H62 H 0.4242 0.1980 -0.0774
C71 C 0.4373(3) 0.2741(3) 0.0376(3)
H63 H 0.4882 0.2644 0.0666
C72 C 0.3993(3) 0.3264(3) 0.0791(3)
H64 H 0.4244 0.3526 0.1373
C73 C 0.4598(3) 0.5428(3) 0.0752(3)
H65 H 0.4717 0.5866 0.0500
H66 H 0.4301 0.4789 0.0311
C74 C 0.5527(4) 0.5581(4) 0.1377(3)
H67 H 0.5827 0.6220 0.1805
H68 H 0.5942 0.5473 0.1098
H69 H 0.5406 0.5148 0.1627
C75 C 0.6330(5) 0.8972(5) 0.4125(5)
H70 H 0.7014 0.9188 0.4417
H71 H 0.6056 0.8297 0.3771
C76 C 0.6125(6) 0.9499(5) 0.3624(5)
H72 H 0.5446 0.9277 0.3344
H73 H 0.6401 0.9400 0.3216
H74 H 0.6394 1.0163 0.3988
C77 C 0.7517(3) 1.0145(3) 0.5872(4)
H75 H 0.7757 1.0645 0.6431
H76 H 0.7672 1.0439 0.5514
C78 C 0.8021(3) 0.9499(3) 0.5901(4)
H77 H 0.7904 0.9234 0.6282
H78 H 0.8695 0.9853 0.6089
H79 H 0.7783 0.8997 0.5352
C79 C 0.7092(3) 1.0352(3) 0.7443(3)
C80 C 0.7674(3) 0.9941(3) 0.7688(3)
H80 H 0.7435 0.9285 0.7488
C81 C 0.8605(3) 1.0484(3) 0.8224(3)
H81 H 0.9004 1.0202 0.8386
C82 C 0.8950(3) 1.1445(3) 0.8521(3)
H82 H 0.9586 1.1818 0.8890
C83 C 0.8380(3) 1.1859(3) 0.8286(3)
H83 H 0.8621 1.2516 0.8489
C84 C 0.7451(3) 1.1315(3) 0.7748(3)
H84 H 0.7056 1.1602 0.7588
N1 N 0.4500(2) 0.8896(2) 0.6635(2)
N2 N 0.2847(2) 0.7243(2) 0.6879(2)
N3 N 0.1321(2) 0.4851(2) 0.6030(2)
N4 N 0.06000(19) 0.3423(2) 0.4621(2)
H85 H 0.0805 0.4031 0.4852
N5 N 0.05129(19) 0.2999(2) 0.2614(2)
N6 N 0.1645(2) 0.3805(2) 0.1455(2)
N7 N 0.2857(2) 0.5386(2) 0.1720(2)
H86 H 0.2380 0.5138 0.1833
N8 N 0.4084(3) 0.7653(2) 0.3296(2)
N9 N 0.4966(2) 0.9048(2) 0.5448(2)
H87 H 0.4473 0.8908 0.5570
C115? C 0.3916(8) 0.6445(6) 0.1596(8)
C116? C 0.4461(7) 0.7366(6) 0.1634(6)
H88? H 0.5066 0.7386 0.1606
H89? H 0.4599 0.7865 0.2166
C117? C 0.3928(8) 0.7549(8) 0.0929(7)
H90? H 0.3804 0.7067 0.0401
H91? H 0.4308 0.8157 0.0981
H92? H 0.3333 0.7540 0.0959
C118? C 0.1043(9) 0.2611(8) 0.6300(8)
C119? C 0.1817(10) 0.2406(7) 0.6426(7)
H93? H 0.2269 0.2652 0.6232
C120? C 0.1961(8) 0.1852(7) 0.6826(7)
H94? H 0.2501 0.1723 0.6904
C121? C 0.1306(11) 0.1497(7) 0.7107(7)
H95? H 0.1393 0.1120 0.7383
C122? C 0.0506(9) 0.1689(7) 0.6989(6)
H96? H 0.0052 0.1443 0.7181
C123? C 0.0388(8) 0.2248(7) 0.6585(7)
H97? H -0.0150 0.2380 0.6504
C124? C 0.5962(5) 0.9275(6) 0.3940(6)
H98? H 0.5349 0.9157 0.3546
H99? H 0.6415 0.9905 0.4087
C125? C 0.6303(6) 0.8554(7) 0.3566(6)
H100? H 0.6871 0.8633 0.3983
H101? H 0.6441 0.8634 0.3108
H102? H 0.5816 0.7932 0.3364
C126? C 0.0958(8) 0.5635(9) 0.0134(7)
C127? C 0.0828(9) 0.4825(8) 0.0223(8)
H103? H 0.1340 0.4659 0.0357
C128? C -0.0040(9) 0.4257(9) 0.0118(9)
H104? H -0.0128 0.3698 0.0179
C129? C -0.0783(10) 0.4497(10) -0.0075(10)
H105? H -0.1384 0.4104 -0.0148
C130? C -0.0652(9) 0.5308(11) -0.0164(9)
H106? H -0.1163 0.5476 -0.0296
C131? C 0.0217(9) 0.5873(10) -0.0062(9)
H107? H 0.0305 0.6430 -0.0127
C132? C 0.1911(7) 0.6256(8) 0.0251(7)
H108? H 0.2254 0.6713 0.0826
H109? H 0.1843 0.6578 -0.0103
H110? H 0.2257 0.5883 0.0106
loop_
_geom_bond_atom_site_label_1
_geom_bond_atom_site_label_2
_geom_bond_site_symmetry_1
_geom_bond_site_symmetry_2
C1 C2 1_555 1_555
C2 C3 1_555 1_555
C3 C4 1_555 1_555
C4 C5 1_555 1_555
C5 C6 1_555 1_555
C6 H1 1_555 1_555
C7 C6 1_555 1_555
H2 C7 1_555 1_555
C8 C7 1_555 1_555
H3 C8 1_555 1_555
C9 C8 1_555 1_555
C10 C9 1_555 1_555
C11 C10 1_555 1_555
C12 C11 1_555 1_555
C13 C12 1_555 1_555
C14 C13 1_555 1_555
C15 C14 1_555 1_555
C16 C15 1_555 1_555
C17 C16 1_555 1_555
C18 C17 1_555 1_555
C19 C18 1_555 1_555
C20 C19 1_555 1_555
H4 C20 1_555 1_555
C21 C20 1_555 1_555
H5 C21 1_555 1_555
C22 C21 1_555 1_555
H6 C22 1_555 1_555
C23 C22 1_555 1_555
C24 C23 1_555 1_555
C25 C24 1_555 1_555
C26 C25 1_555 1_555
C27 C26 1_555 1_555
C28 C27 1_555 1_555
C29 C28 1_555 1_555
C30 C29 1_555 1_555
C31 C30 1_555 1_555
C32 C31 1_555 1_555
H7 C32 1_555 1_555
H8 C32 1_555 1_555
C33 C32 1_555 1_555
H9 C33 1_555 1_555
H10 C33 1_555 1_555
H11 C33 1_555 1_555
C34 C31 1_555 1_555
C35 C34 1_555 1_555
C36 C35 1_555 1_555
H12 C36 1_555 1_555
C37 C36 1_555 1_555
H13 C37 1_555 1_555
C38 C37 1_555 1_555
H14 C38 1_555 1_555
C39 C38 1_555 1_555
C40 C39 1_555 1_555
C41 C40 1_555 1_555
C42 C41 1_555 1_555
C43 C42 1_555 1_555
C44 C1 1_555 1_555
C45 C2 1_555 1_555
H15 C45 1_555 1_555
H16 C45 1_555 1_555
C46 C45 1_555 1_555
H17 C46 1_555 1_555
H18 C46 1_555 1_555
H19 C46 1_555 1_555
C47 C3 1_555 1_555
H20 C47 1_555 1_555
H21 C47 1_555 1_555
C48 C47 1_555 1_555
H22 C48 1_555 1_555
H23 C48 1_555 1_555
H24 C48 1_555 1_555
C49 C11 1_555 1_555
H25 C49 1_555 1_555
H26 C49 1_555 1_555
C50 C49 1_555 1_555
H27 C50 1_555 1_555
H28 C50 1_555 1_555
H29 C50 1_555 1_555
C51 C12 1_555 1_555
H30 C51 1_555 1_555
H31 C51 1_555 1_555
C52 C51 1_555 1_555
H32 C52 1_555 1_555
H33 C52 1_555 1_555
H34 C52 1_555 1_555
C53 C14 1_555 1_555
C54 C53 1_555 1_555
H35 C54 1_555 1_555
C55 C54 1_555 1_555
H36 C55 1_555 1_555
C56 C55 1_555 1_555
H37 C56 1_555 1_555
C57 C56 1_555 1_555
H38 C57 1_555 1_555
C58 C53 1_555 1_555
H39 C58 1_555 1_555
C59 C16 1_555 1_555
H40 C59 1_555 1_555
H41 C59 1_555 1_555
C60 C59 1_555 1_555
H42 C60 1_555 1_555
H43 C60 1_555 1_555
H44 C60 1_555 1_555
C61 C17 1_555 1_555
H45 C61 1_555 1_555
H46 C61 1_555 1_555
C62 C61 1_555 1_555
H47 C62 1_555 1_555
H48 C62 1_555 1_555
H49 C62 1_555 1_555
C63 C25 1_555 1_555
H50 C63 1_555 1_555
H51 C63 1_555 1_555
C64 C63 1_555 1_555
H52 C64 1_555 1_555
H53 C64 1_555 1_555
H54 C64 1_555 1_555
C65 C26 1_555 1_555
H55 C65 1_555 1_555
H56 C65 1_555 1_555
C66 C65 1_555 1_555
H57 C66 1_555 1_555
H58 C66 1_555 1_555
H59 C66 1_555 1_555
C67 C28 1_555 1_555
C68 C67 1_555 1_555
H60 C68 1_555 1_555
C69 C68 1_555 1_555
H61 C69 1_555 1_555
C70 C69 1_555 1_555
H62 C70 1_555 1_555
C71 C70 1_555 1_555
H63 C71 1_555 1_555
C72 C67 1_555 1_555
H64 C72 1_555 1_555
C73 C30 1_555 1_555
H65 C73 1_555 1_555
H66 C73 1_555 1_555
C74 C73 1_555 1_555
H67 C74 1_555 1_555
H68 C74 1_555 1_555
H69 C74 1_555 1_555
C75 C41 1_555 1_555
H70 C75 1_555 1_555
H71 C75 1_555 1_555
C76 C75 1_555 1_555
H72 C76 1_555 1_555
H73 C76 1_555 1_555
H74 C76 1_555 1_555
C77 C42 1_555 1_555
H75 C77 1_555 1_555
H76 C77 1_555 1_555
C78 C77 1_555 1_555
H77 C78 1_555 1_555
H78 C78 1_555 1_555
H79 C78 1_555 1_555
C79 C44 1_555 1_555
C80 C79 1_555 1_555
H80 C80 1_555 1_555
C81 C80 1_555 1_555
H81 C81 1_555 1_555
C82 C81 1_555 1_555
H82 C82 1_555 1_555
C83 C82 1_555 1_555
H83 C83 1_555 1_555
C84 C79 1_555 1_555
H84 C84 1_555 1_555
N1 C1 1_555 1_555
N2 C5 1_555 1_555
N3 C10 1_555 1_555
N4 C15 1_555 1_555
H85 N4 1_555 1_555
N5 C19 1_555 1_555
N6 C24 1_555 1_555
N7 C29 1_555 1_555
H86 N7 1_555 1_555
N8 C35 1_555 1_555
N9 C40 1_555 1_555
H87 N9 1_555 1_555
C85 C86 1_555 1_555
C86 C87 1_555 1_555
C87 C88 1_555 1_555
C88 C89 1_555 1_555
C89 C90 1_555 1_555
C90 C85 1_555 1_555
C91 C90 1_555 1_555
C92 C91 1_555 1_555
C93 C85 1_555 1_555
C94 C93 1_555 1_555
C95 C94 1_555 1_555
C96 C86 1_555 1_555
C97 C96 1_555 1_555
C98 C87 1_555 1_555
C99 C98 1_555 1_555
C100 C99 1_555 1_555
C101 C88 1_555 1_555
C102 C101 1_555 1_555
C103 C89 1_555 1_555
C104 C103 1_555 1_555
C105 C91 1_555 1_555
C106 C92 1_555 1_555
C107 C106 1_555 1_555
C108 C94 1_555 1_555
C109 C95 1_555 1_555
C110 C109 1_555 1_555
C111 C97 1_555 1_555
C112 C111 1_555 1_555
C113 C99 1_555 1_555
C114 C102 1_555 1_555
C85A C86A 1_555 1_555
C86A C87A 1_555 1_555
C87A C88A 1_555 1_555
C88A C89A 1_555 1_555
C89A C90A 1_555 1_555
C90A C85A 1_555 1_555
C91A C90A 1_555 1_555
C92A C91A 1_555 1_555
C93A C85A 1_555 1_555
C94A C93A 1_555 1_555
C95A C94A 1_555 1_555
C96A C86A 1_555 1_555
C97A C96A 1_555 1_555
C98A C87A 1_555 1_555
C99A C98A 1_555 1_555
C100A C107 1_555 1_555
C101A C88A 1_555 1_555
C102A C101A 1_555 1_555
C103A C89A 1_555 1_555
C104A C110 1_555 1_555
C105A C112 1_555 1_555
C106A C113 1_555 1_555
C107A C100 1_555 1_555
C108A C114 1_555 1_555
C109A C114 1_555 1_555
C110A C104 1_555 1_555
C111A C97A 1_555 1_555
C112A C105 1_555 1_555
C113A C106 1_555 1_555
C114A C108 1_555 1_555
C4 N1 1_555 1_555
C9 N2 1_555 1_555
C13 N3 1_555 1_555
C18 N4 1_555 1_555
C23 N5 1_555 1_555
C27 N6 1_555 1_555
C34 N7 1_555 1_555
C39 N8 1_555 1_555
C43 C44 1_555 1_555
C43 N9 1_555 1_555
C57 C58 1_555 1_555
C71 C72 1_555 1_555
C83 C84 1_555 1_555
C92 C93 1_555 1_555
C95 C96 1_555 1_555
C97 C98 1_555 1_555
C100 C101 1_555 1_555
C102 C103 1_555 1_555
C104 C105 1_555 1_555
C107 C108 1_555 1_555
C109 C114A 1_555 1_555
C110 C111 1_555 1_555
C112 C113 1_555 1_555
C91A C105A 1_555 1_555
C92A C93A 1_555 1_555
C92A C106A 1_555 1_555
C94A C108A 1_555 1_555
C95A C96A 1_555 1_555
C95A C109A 1_555 1_555
C97A C98A 1_555 1_555
C99A C100A 1_555 1_555
C99A C113A 1_555 1_555
C100A C101A 1_555 1_555
C102A C103A 1_555 1_555
C102A C114A 1_555 1_555
C103A C104A 1_555 1_555
C104A C105A 1_555 1_555
C106A C107A 1_555 1_555
C107A C108A 1_555 1_555
C109A C110A 1_555 1_555
C110A C111A 1_555 1_555
C111A C112A 1_555 1_555
C112A C113A 1_555 1_555

#END
