
#######################################################################
#
#                 Cambridge Crystallographic Data Centre
#                                CCDC 
#
#######################################################################
#
# If this CIF has been generated from an entry in the Cambridge 
# Structural Database, then it will include bibliographic, chemical, 
# crystal, experimental, refinement or atomic coordinate data resulting 
# from the CCDC's data processing and validation procedures.
#
#######################################################################

data_XAXFUZ
_chemical_formula_moiety         'C6 H14 N2 2+,I1 1-,I3 1-'
_chemical_name_systematic        
'1,4-Diazoniabicyclo[2.2.2]octane triiodide iodide'
_symmetry_cell_setting           orthorhombic
_symmetry_space_group_name_H-M   'P n m a'
_symmetry_Int_Tables_number      62
_space_group_name_Hall           '-P 2ac 2n'
loop_
_symmetry_equiv_pos_site_id
_symmetry_equiv_pos_as_xyz
1 x,y,z
2 1/2-x,-y,1/2+z
3 -x,1/2+y,-z
4 1/2+x,1/2-y,1/2-z
5 -x,-y,-z
6 1/2+x,y,1/2-z
7 x,1/2-y,z
8 1/2-x,1/2+y,1/2+z
_cell_length_a                   18.646(3)
_cell_length_b                   8.2199(10)
_cell_length_c                   9.1174(12)
_cell_angle_alpha                90
_cell_angle_beta                 90
_cell_angle_gamma                90
_cell_volume                     1397.41
_exptl_crystal_colour            black
_exptl_crystal_description       block
_cell_formula_units_Z            4
loop_
_atom_site_label
_atom_site_type_symbol
_atom_site_fract_x
_atom_site_fract_y
_atom_site_fract_z
I1 I 0.57371(6) -0.2500 -0.07750(12)
I2 I 0.62882(7) -0.2500 -0.37373(12)
I3 I 0.51040(8) -0.2500 0.22282(13)
I4 I 0.25216(7) 0.2500 -0.28635(13)
N1 N 0.3568(5) -0.0984(12) -0.3136(11)
H1 H 0.361(7) -0.002(19) -0.304(14)
C1 C 0.2907(8) -0.1596(14) -0.3931(15)
H2 H 0.2479 -0.1197 -0.3446
H3 H 0.2907 -0.1197 -0.4932
C2 C 0.3559(8) -0.1565(14) -0.1598(12)
H4 H 0.3134 -0.1163 -0.1103
H5 H 0.3978 -0.1163 -0.1081
C3 C 0.4221(8) -0.1569(14) -0.3898(15)
H6 H 0.4646 -0.1168 -0.3401
H7 H 0.4228 -0.1168 -0.4899
N1F N 0.3568(5) -0.4016(12) -0.3136(11)
H1F H 0.361(7) -0.498(19) -0.304(14)
C1F C 0.2907(8) -0.3404(14) -0.3931(15)
H2F H 0.2479 -0.3803 -0.3446
H3F H 0.2907 -0.3803 -0.4932
C2F C 0.3559(8) -0.3435(14) -0.1598(12)
H4F H 0.3134 -0.3837 -0.1103
H5F H 0.3978 -0.3837 -0.1081
C3F C 0.4221(8) -0.3431(14) -0.3898(15)
H6F H 0.4646 -0.3832 -0.3401
H7F H 0.4228 -0.3832 -0.4899
loop_
_geom_bond_atom_site_label_1
_geom_bond_atom_site_label_2
_geom_bond_site_symmetry_1
_geom_bond_site_symmetry_2
I1 I2 1_555 1_555
I3 I1 1_555 1_555
N1 H1 1_555 1_555
C1 N1 1_555 1_555
H2 C1 1_555 1_555
H3 C1 1_555 1_555
C2 N1 1_555 1_555
H4 C2 1_555 1_555
H5 C2 1_555 1_555
C3 N1 1_555 1_555
H6 C3 1_555 1_555
H7 C3 1_555 1_555
N1F H1F 1_555 1_555
C1F C1 1_555 1_555
H2F C1F 1_555 1_555
H3F C1F 1_555 1_555
C2F C2 1_555 1_555
H4F C2F 1_555 1_555
H5F C2F 1_555 1_555
C3F C3 1_555 1_555
H6F C3F 1_555 1_555
H7F C3F 1_555 1_555
N1F C1F 1_555 1_555
N1F C2F 1_555 1_555
N1F C3F 1_555 1_555

#END
