
#######################################################################
#
#                 Cambridge Crystallographic Data Centre
#                                CCDC 
#
#######################################################################
#
# If this CIF has been generated from an entry in the Cambridge 
# Structural Database, then it will include bibliographic, chemical, 
# crystal, experimental, refinement or atomic coordinate data resulting 
# from the CCDC's data processing and validation procedures.
#
#######################################################################

data_XAXHIQ
_chemical_compound_source        
'isolated from the whole plant of Lycopodium annotinum'
_chemical_name_common            'annotinolide D'
_chemical_formula_moiety         'C16 H21 N1 O3'
_chemical_name_systematic        
10-hydroxy-16-methyl-14-oxa-6-azapentacyclo[8.7.0.0^1,6^.0^2,13^.0^11,16^]heptadec-8-en-15-one
_symmetry_cell_setting           orthorhombic
_symmetry_space_group_name_H-M   'P 21 21 21'
_symmetry_Int_Tables_number      19
_space_group_name_Hall           'P 2ac 2ab'
loop_
_symmetry_equiv_pos_site_id
_symmetry_equiv_pos_as_xyz
1 x,y,z
2 1/2-x,-y,1/2+z
3 -x,1/2+y,1/2-z
4 1/2+x,1/2-y,-z
_cell_length_a                   10.8188(2)
_cell_length_b                   15.8491(3)
_cell_length_c                   16.1410(3)
_cell_angle_alpha                90
_cell_angle_beta                 90
_cell_angle_gamma                90
_cell_volume                     2767.67
_exptl_crystal_colour            colorless
_exptl_crystal_description       block
_cell_formula_units_Z            8
loop_
_atom_site_label
_atom_site_type_symbol
_atom_site_fract_x
_atom_site_fract_y
_atom_site_fract_z
O1 O 0.36484(12) 0.70713(10) 0.20203(10)
H1 H 0.4129 0.6684 0.2121
O2 O -0.12810(15) 0.79424(14) 0.08987(12)
O3 O -0.02836(14) 0.79320(11) 0.20789(10)
N1 N 0.19576(16) 0.55574(10) 0.24060(11)
C1 C 0.1022(2) 0.51916(16) 0.29628(17)
H2 H 0.1338 0.4669 0.3193
H3 H 0.0286 0.5058 0.2645
C2 C 0.0678(2) 0.57806(19) 0.36618(15)
H4 H 0.1387 0.5862 0.4022
H5 H 0.0019 0.5532 0.3987
C3 C 0.0259(2) 0.66266(17) 0.33237(13)
H6 H 0.0099 0.7012 0.3778
H7 H -0.0500 0.6556 0.3012
C4 C 0.12584(17) 0.69899(13) 0.27639(12)
H8 H 0.2004 0.7044 0.3105
C5 C 0.0949(2) 0.78768(14) 0.24517(14)
H9 H 0.0970 0.8260 0.2928
C6 C 0.1856(2) 0.82021(13) 0.18172(16)
H10 H 0.2652 0.8309 0.2074
H11 H 0.1557 0.8724 0.1575
C7 C 0.19783(19) 0.75257(13) 0.11544(14)
H12 H 0.2419 0.7738 0.0667
C8 C -0.0368(2) 0.77375(15) 0.12703(14)
C9 C 0.2291(3) 0.49418(14) 0.17706(17)
H13 H 0.1542 0.4682 0.1561
H14 H 0.2787 0.4502 0.2023
C10 C 0.2993(3) 0.53088(16) 0.10590(16)
H15 H 0.3357 0.4939 0.0684
C11 C 0.3126(2) 0.61237(16) 0.09329(14)
H16 H 0.3527 0.6308 0.0456
C12 C 0.26476(18) 0.67619(13) 0.15390(12)
C13 C 0.15824(16) 0.63764(11) 0.20568(11)
C14 C 0.05463(19) 0.63441(13) 0.14037(12)
H17 H -0.0257 0.6299 0.1667
H18 H 0.0658 0.5867 0.1035
C15 C 0.06615(18) 0.71897(13) 0.09201(13)
C16 C 0.0505(2) 0.70835(19) -0.00110(14)
H19 H -0.0281 0.6827 -0.0124
H20 H 0.1154 0.6731 -0.0222
H21 H 0.0542 0.7626 -0.0274
O4 O 0.36573(13) 0.58811(10) 0.37058(9)
H22 H 0.3385 0.5751 0.3249
O5 O 0.8037(2) 0.62633(15) 0.57368(14)
O6 O 0.67340(18) 0.71040(11) 0.50950(10)
N2 N 0.58411(15) 0.61817(10) 0.25136(10)
C17 C 0.66967(19) 0.67963(14) 0.21418(13)
H23 H 0.6618 0.6775 0.1543
H24 H 0.7539 0.6642 0.2282
C18 C 0.6451(2) 0.76840(14) 0.24342(15)
H25 H 0.5647 0.7866 0.2236
H26 H 0.7069 0.8060 0.2204
C19 C 0.6480(2) 0.77390(13) 0.33743(15)
H27 H 0.6239 0.8301 0.3549
H28 H 0.7313 0.7634 0.3572
C20 C 0.55972(19) 0.70887(13) 0.37433(12)
H29 H 0.4772 0.7233 0.3537
C21 C 0.5524(2) 0.71350(15) 0.46924(13)
H30 H 0.5138 0.7674 0.4839
C22 C 0.4745(2) 0.64367(17) 0.50650(13)
H31 H 0.3882 0.6512 0.4919
H32 H 0.4817 0.6438 0.5664
C23 C 0.5232(2) 0.56105(14) 0.47108(13)
H33 H 0.4894 0.5123 0.5008
C24 C 0.7199(2) 0.63269(17) 0.52512(15)
C25 C 0.6090(2) 0.53420(14) 0.21673(13)
H34 H 0.6975 0.5247 0.2164
H35 H 0.5806 0.5328 0.1597
C26 C 0.5484(2) 0.46453(13) 0.26330(14)
H36 H 0.5456 0.4114 0.2389
C27 C 0.4982(2) 0.47384(13) 0.33730(14)
H37 H 0.4678 0.4266 0.3648
C28 C 0.48902(17) 0.55859(13) 0.37828(12)
C29 C 0.58768(17) 0.61917(12) 0.34259(11)
C30 C 0.70607(18) 0.58360(13) 0.38233(13)
H38 H 0.7717 0.6253 0.3817
H39 H 0.7340 0.5337 0.3530
C31 C 0.6682(2) 0.56134(14) 0.47309(13)
C32 C 0.7223(3) 0.47723(17) 0.50092(17)
H40 H 0.6905 0.4328 0.4665
H41 H 0.6998 0.4668 0.5575
H42 H 0.8107 0.4790 0.4962
loop_
_geom_bond_atom_site_label_1
_geom_bond_atom_site_label_2
_geom_bond_site_symmetry_1
_geom_bond_site_symmetry_2
O1 H1 1_555 1_555
O2 C8 1_555 1_555
O3 C5 1_555 1_555
N1 C1 1_555 1_555
C1 H2 1_555 1_555
H3 C1 1_555 1_555
C2 C1 1_555 1_555
H4 C2 1_555 1_555
H5 C2 1_555 1_555
C3 C2 1_555 1_555
H6 C3 1_555 1_555
H7 C3 1_555 1_555
C4 C3 1_555 1_555
H8 C4 1_555 1_555
C5 C4 1_555 1_555
H9 C5 1_555 1_555
C6 C5 1_555 1_555
H10 C6 1_555 1_555
H11 C6 1_555 1_555
C7 C6 1_555 1_555
H12 C7 1_555 1_555
C8 O3 1_555 1_555
C9 N1 1_555 1_555
H13 C9 1_555 1_555
H14 C9 1_555 1_555
C10 C9 1_555 1_555
H15 C10 1_555 1_555
C11 C10 1_555 1_555
H16 C11 1_555 1_555
C12 O1 1_555 1_555
C13 N1 1_555 1_555
C14 C13 1_555 1_555
H17 C14 1_555 1_555
H18 C14 1_555 1_555
C15 C7 1_555 1_555
C16 C15 1_555 1_555
H19 C16 1_555 1_555
H20 C16 1_555 1_555
H21 C16 1_555 1_555
O4 H22 1_555 1_555
O5 C24 1_555 1_555
O6 C21 1_555 1_555
N2 C17 1_555 1_555
C17 H23 1_555 1_555
H24 C17 1_555 1_555
C18 C17 1_555 1_555
H25 C18 1_555 1_555
H26 C18 1_555 1_555
C19 C18 1_555 1_555
H27 C19 1_555 1_555
H28 C19 1_555 1_555
C20 C19 1_555 1_555
H29 C20 1_555 1_555
C21 C20 1_555 1_555
H30 C21 1_555 1_555
C22 C21 1_555 1_555
H31 C22 1_555 1_555
H32 C22 1_555 1_555
C23 C22 1_555 1_555
H33 C23 1_555 1_555
C24 O6 1_555 1_555
C25 N2 1_555 1_555
H34 C25 1_555 1_555
H35 C25 1_555 1_555
C26 C25 1_555 1_555
H36 C26 1_555 1_555
C27 C26 1_555 1_555
H37 C27 1_555 1_555
C28 O4 1_555 1_555
C29 N2 1_555 1_555
C30 C29 1_555 1_555
H38 C30 1_555 1_555
H39 C30 1_555 1_555
C31 C23 1_555 1_555
C32 C31 1_555 1_555
H40 C32 1_555 1_555
H41 C32 1_555 1_555
H42 C32 1_555 1_555
C4 C13 1_555 1_555
C7 C12 1_555 1_555
C8 C15 1_555 1_555
C11 C12 1_555 1_555
C12 C13 1_555 1_555
C14 C15 1_555 1_555
C20 C29 1_555 1_555
C23 C28 1_555 1_555
C24 C31 1_555 1_555
C27 C28 1_555 1_555
C28 C29 1_555 1_555
C30 C31 1_555 1_555

#END
