
#######################################################################
#
#                 Cambridge Crystallographic Data Centre
#                                CCDC 
#
#######################################################################
#
# If this CIF has been generated from an entry in the Cambridge 
# Structural Database, then it will include bibliographic, chemical, 
# crystal, experimental, refinement or atomic coordinate data resulting 
# from the CCDC's data processing and validation procedures.
#
#######################################################################

data_XAXQES
_chemical_name_common            3alpha-Tosyloxymethyltropane(N$8!-B)borane
_chemical_formula_moiety         'C16 H26 B1 N1 O3 S1'
_chemical_name_systematic        
3-(p-Tosyloxymethyl)-8-boryl-8-methyl-8-azabicyclo(3.2.1)octane
_symmetry_cell_setting           orthorhombic
_symmetry_space_group_name_H-M   'P n a 21'
_symmetry_Int_Tables_number      33
_space_group_name_Hall           'P 2c -2n'
loop_
_symmetry_equiv_pos_site_id
_symmetry_equiv_pos_as_xyz
1 x,y,z
2 -x,-y,1/2+z
3 1/2+x,1/2-y,z
4 1/2-x,1/2+y,1/2+z
_cell_length_a                   21.443(2)
_cell_length_b                   7.9590(10)
_cell_length_c                   10.224(2)
_cell_angle_alpha                90
_cell_angle_beta                 90
_cell_angle_gamma                90
_cell_volume                     1744.88
_exptl_crystal_colour            colorless
_exptl_crystal_description       prism
_chemical_melting_point          386.8-389.5K
_cell_formula_units_Z            4
loop_
_atom_site_label
_atom_site_type_symbol
_atom_site_fract_x
_atom_site_fract_y
_atom_site_fract_z
S1 S 0.62305(5) 0.40959(14) 0.49106(13)
O1 O 0.55683(14) 0.4624(4) 0.4392(3)
O2 O 0.6527(2) 0.3351(4) 0.3808(4)
O3 O 0.6162(2) 0.3152(5) 0.6094(4)
N1 N 0.3988(2) 0.9398(4) 0.5051(4)
C1 C 0.3977(2) 0.8095(6) 0.6114(5)
H1 H 0.3598(2) 0.8212(6) 0.6641(5)
C2 C 0.4024(2) 0.6322(6) 0.5566(6)
H2 H 0.3641(2) 0.6071(6) 0.5100(6)
H3 H 0.4055(2) 0.5540(6) 0.6290(6)
C3 C 0.4580(2) 0.6017(6) 0.4633(5)
H4 H 0.4436(2) 0.5223(6) 0.3966(5)
C4 C 0.4783(2) 0.7622(6) 0.3904(5)
H5 H 0.5225(2) 0.7541(6) 0.3716(5)
H6 H 0.4564(2) 0.7666(6) 0.3074(5)
C5 C 0.4665(2) 0.9258(6) 0.4631(5)
H7 H 0.4780(2) 1.0218(6) 0.4082(5)
C6 C 0.5006(2) 0.9343(7) 0.5936(5)
H8 H 0.5103(2) 1.0496(7) 0.6165(5)
H9 H 0.5390(2) 0.8701(7) 0.5906(5)
C7 C 0.4546(3) 0.8577(7) 0.6921(5)
H10 H 0.4726(3) 0.7594(7) 0.7338(5)
H11 H 0.4436(3) 0.9387(7) 0.7591(5)
C8 C 0.3543(3) 0.9034(7) 0.3959(6)
H12 H 0.3609(12) 0.982(3) 0.3263(17)
H13 H 0.3122(3) 0.913(5) 0.4271(11)
H14 H 0.3612(12) 0.7914(19) 0.364(3)
C9 C 0.5105(2) 0.5163(6) 0.5362(5)
H15 H 0.5293(2) 0.5937(6) 0.5980(5)
H16 H 0.4948(2) 0.4200(6) 0.5841(5)
C10 C 0.7495(3) 1.0692(7) 0.6108(7)
H17 H 0.7187(4) 1.1483(19) 0.640(4)
H18 H 0.7693(18) 1.111(3) 0.5332(13)
H19 H 0.7802(15) 1.0534(14) 0.678(3)
C11 C 0.6586(2) 0.6013(6) 0.5268(5)
C12 C 0.6851(2) 0.6273(7) 0.6478(5)
H20 H 0.6829(2) 0.5447(7) 0.7120(5)
C13 C 0.7151(3) 0.7806(7) 0.6730(6)
H21 H 0.7333(3) 0.7988(7) 0.7543(6)
C14 C 0.7180(2) 0.9020(8) 0.5810(6)
C15 C 0.6919(2) 0.8745(7) 0.4600(6)
H22 H 0.6940(2) 0.9585(7) 0.3969(6)
C16 C 0.6628(2) 0.7257(7) 0.4310(5)
H23 H 0.6458(2) 0.7079(7) 0.3484(5)
B1 B 0.3812(3) 1.1297(9) 0.5579(8)
H24 H 0.4151(12) 1.1668(19) 0.646(3)
H25 H 0.3286(12) 1.1315(13) 0.595(3)
H26 H 0.3871(12) 1.228(3) 0.471(2)
loop_
_geom_bond_atom_site_label_1
_geom_bond_atom_site_label_2
_geom_bond_site_symmetry_1
_geom_bond_site_symmetry_2
S1 O1 1_555 1_555
O1 C9 1_555 1_555
O2 S1 1_555 1_555
O3 S1 1_555 1_555
N1 C1 1_555 1_555
C1 H1 1_555 1_555
C2 C1 1_555 1_555
H2 C2 1_555 1_555
H3 C2 1_555 1_555
C3 C2 1_555 1_555
H4 C3 1_555 1_555
C4 C3 1_555 1_555
H5 C4 1_555 1_555
H6 C4 1_555 1_555
C5 N1 1_555 1_555
H7 C5 1_555 1_555
C6 C5 1_555 1_555
H8 C6 1_555 1_555
H9 C6 1_555 1_555
C7 C1 1_555 1_555
H10 C7 1_555 1_555
H11 C7 1_555 1_555
C8 N1 1_555 1_555
H12 C8 1_555 1_555
H13 C8 1_555 1_555
H14 C8 1_555 1_555
C9 C3 1_555 1_555
H15 C9 1_555 1_555
H16 C9 1_555 1_555
C10 H17 1_555 1_555
H18 C10 1_555 1_555
H19 C10 1_555 1_555
C11 S1 1_555 1_555
C12 C11 1_555 1_555
H20 C12 1_555 1_555
C13 C12 1_555 1_555
H21 C13 1_555 1_555
C14 C10 1_555 1_555
C15 C14 1_555 1_555
H22 C15 1_555 1_555
C16 C11 1_555 1_555
H23 C16 1_555 1_555
B1 N1 1_555 1_555
H24 B1 1_555 1_555
H25 B1 1_555 1_555
H26 B1 1_555 1_555
C4 C5 1_555 1_555
C6 C7 1_555 1_555
C13 C14 1_555 1_555
C15 C16 1_555 1_555

#END
