
#######################################################################
#
#                 Cambridge Crystallographic Data Centre
#                                CCDC 
#
#######################################################################
#
# If this CIF has been generated from an entry in the Cambridge 
# Structural Database, then it will include bibliographic, chemical, 
# crystal, experimental, refinement or atomic coordinate data resulting 
# from the CCDC's data processing and validation procedures.
#
#######################################################################

data_XAXYON
_chemical_formula_moiety         'C38 H31 N1 O4 S1'
_chemical_name_systematic        
12-(4-methoxyphenyl)-7-[(4-methylphenyl)sulfonyl]-6a-phenyl-6a,6b,7,11b-tetrahydro-5H-[2]benzopyrano[4',3':4,5]cyclopenta[1,2-b]indole
_symmetry_cell_setting           monoclinic
_symmetry_space_group_name_H-M   'C 2/c'
_symmetry_Int_Tables_number      15
_space_group_name_Hall           '-C 2yn'
loop_
_symmetry_equiv_pos_site_id
_symmetry_equiv_pos_as_xyz
1 x,y,z
2 -x,y,1/2-z
3 1/2+x,1/2+y,z
4 1/2-x,1/2+y,1/2-z
5 -x,-y,-z
6 x,-y,1/2+z
7 1/2-x,1/2-y,-z
8 1/2+x,1/2-y,1/2+z
_cell_length_a                   35.535(6)
_cell_length_b                   8.3152(14)
_cell_length_c                   26.015(4)
_cell_angle_alpha                90
_cell_angle_beta                 126.844(3)
_cell_angle_gamma                90
_cell_volume                     6151.63
_exptl_crystal_colour            colorless
_exptl_crystal_description       prismatic
_chemical_melting_point          '145-148 deg.C'
_cell_formula_units_Z            8
loop_
_atom_site_label
_atom_site_type_symbol
_atom_site_fract_x
_atom_site_fract_y
_atom_site_fract_z
S1 S 0.16711(2) -0.02816(7) 0.37662(2)
N1 N 0.14180(5) -0.05406(19) 0.29980(7)
O1 O 0.03378(4) 0.11325(16) 0.21900(6)
O2 O 0.13975(6) 0.4120(2) -0.00365(10)
O3 O 0.13056(5) 0.01596(19) 0.38137(7)
O4 O 0.19461(5) -0.16781(19) 0.40854(7)
C1 C 0.00354(6) 0.1683(2) 0.09227(9)
C2 C -0.01225(7) 0.2373(3) 0.03321(10)
H1 H 0.0091 0.2554 0.0243
C3 C -0.05831(8) 0.2784(3) -0.01135(11)
H2 H -0.0679 0.3251 -0.0499
C4 C -0.09047(8) 0.2514(3) 0.00036(11)
H3 H -0.1220 0.2755 -0.0309
C5 C -0.07609(7) 0.1890(3) 0.05811(11)
H4 H -0.0980 0.1730 0.0662
C6 C -0.02951(7) 0.1492(2) 0.10480(9)
C7 C -0.01520(7) 0.0935(3) 0.16915(9)
H5 H -0.0329 0.1534 0.1802
H6 H -0.0233 -0.0193 0.1663
C8 C 0.06127(6) 0.0398(2) 0.20167(8)
C9 C 0.05281(6) 0.1251(2) 0.14413(9)
C10 C 0.09346(6) 0.1596(2) 0.15323(9)
C11 C 0.13524(7) 0.1218(2) 0.22149(9)
H7 H 0.1559 0.2156 0.2413
C12 C 0.11346(6) 0.0808(2) 0.25600(9)
H8 H 0.1154 0.1738 0.2806
C13 C 0.16651(7) -0.1231(3) 0.27748(9)
C14 C 0.16322(7) -0.0264(3) 0.23200(10)
C15 C 0.18406(8) -0.0746(4) 0.20330(12)
H9 H 0.1821 -0.0102 0.1726
C16 C 0.20757(9) -0.2189(4) 0.22094(14)
H10 H 0.2221 -0.2514 0.2026
C17 C 0.20971(9) -0.3159(4) 0.26568(13)
H11 H 0.2256 -0.4135 0.2768
C18 C 0.18872(8) -0.2709(3) 0.29430(11)
H12 H 0.1895 -0.3374 0.3237
C19 C 0.05213(6) -0.1400(2) 0.19339(9)
C20 C 0.04574(9) -0.2241(3) 0.14300(12)
H13 H 0.0461 -0.1702 0.1120
C21 C 0.03883(12) -0.3888(3) 0.13869(15)
H14 H 0.0344 -0.4451 0.1046
C22 C 0.03843(11) -0.4688(3) 0.18402(15)
H15 H 0.0340 -0.5796 0.1809
C23 C 0.04455(9) -0.3867(3) 0.23405(13)
H16 H 0.0445 -0.4416 0.2651
C24 C 0.05083(8) -0.2229(3) 0.23827(10)
H17 H 0.0542 -0.1671 0.2718
C25 C 0.10317(6) 0.2263(2) 0.10977(9)
C26 C 0.13615(8) 0.3484(3) 0.13039(11)
H18 H 0.1509 0.3921 0.1711
C27 C 0.14734(8) 0.4055(3) 0.09144(12)
H19 H 0.1695 0.4870 0.1064
C28 C 0.12644(8) 0.3446(3) 0.03115(12)
C29 C 0.09475(8) 0.2224(3) 0.01014(11)
H20 H 0.0804 0.1795 -0.0307
C30 C 0.08387(7) 0.1621(3) 0.04949(10)
H21 H 0.0631 0.0763 0.0351
C31 C 0.11339(12) 0.3725(4) -0.06980(15)
H22 H 0.1171 0.2602 -0.0743
H23 H 0.1245 0.4351 -0.0893
H24 H 0.0808 0.3954 -0.0906
C32 C 0.20420(7) 0.1372(3) 0.39983(9)
C33 C 0.24551(8) 0.1207(3) 0.40635(12)
H25 H 0.2546 0.0212 0.4009
C34 C 0.27306(8) 0.2554(4) 0.42115(13)
H26 H 0.3007 0.2447 0.4250
C35 C 0.26147(7) 0.4036(3) 0.43040(10)
C36 C 0.22093(8) 0.4159(3) 0.42538(11)
H27 H 0.2126 0.5146 0.4328
C37 C 0.19218(7) 0.2844(3) 0.40953(10)
H28 H 0.1645 0.2959 0.4054
C38 C 0.29272(9) 0.5472(4) 0.44683(12)
H29 H 0.2793 0.6401 0.4521
H30 H 0.2954 0.5662 0.4128
H31 H 0.3233 0.5267 0.4860
loop_
_geom_bond_atom_site_label_1
_geom_bond_atom_site_label_2
_geom_bond_site_symmetry_1
_geom_bond_site_symmetry_2
S1 N1 1_555 1_555
N1 C12 1_555 1_555
O1 C7 1_555 1_555
O2 C28 1_555 1_555
O3 S1 1_555 1_555
O4 S1 1_555 1_555
C1 C2 1_555 1_555
C2 H1 1_555 1_555
C3 C2 1_555 1_555
H2 C3 1_555 1_555
C4 C3 1_555 1_555
H3 C4 1_555 1_555
C5 C4 1_555 1_555
H4 C5 1_555 1_555
C6 C1 1_555 1_555
C7 C6 1_555 1_555
H5 C7 1_555 1_555
H6 C7 1_555 1_555
C8 O1 1_555 1_555
C9 C1 1_555 1_555
C10 C9 1_555 1_555
C11 C10 1_555 1_555
H7 C11 1_555 1_555
C12 C8 1_555 1_555
H8 C12 1_555 1_555
C13 N1 1_555 1_555
C14 C11 1_555 1_555
C15 C14 1_555 1_555
H9 C15 1_555 1_555
C16 C15 1_555 1_555
H10 C16 1_555 1_555
C17 C16 1_555 1_555
H11 C17 1_555 1_555
C18 C13 1_555 1_555
H12 C18 1_555 1_555
C19 C8 1_555 1_555
C20 C19 1_555 1_555
H13 C20 1_555 1_555
C21 C20 1_555 1_555
H14 C21 1_555 1_555
C22 C21 1_555 1_555
H15 C22 1_555 1_555
C23 C22 1_555 1_555
H16 C23 1_555 1_555
C24 C19 1_555 1_555
H17 C24 1_555 1_555
C25 C10 1_555 1_555
C26 C25 1_555 1_555
H18 C26 1_555 1_555
C27 C26 1_555 1_555
H19 C27 1_555 1_555
C28 C27 1_555 1_555
C29 C28 1_555 1_555
H20 C29 1_555 1_555
C30 C25 1_555 1_555
H21 C30 1_555 1_555
C31 O2 1_555 1_555
H22 C31 1_555 1_555
H23 C31 1_555 1_555
H24 C31 1_555 1_555
C32 S1 1_555 1_555
C33 C32 1_555 1_555
H25 C33 1_555 1_555
C34 C33 1_555 1_555
H26 C34 1_555 1_555
C35 C34 1_555 1_555
C36 C35 1_555 1_555
H27 C36 1_555 1_555
C37 C32 1_555 1_555
H28 C37 1_555 1_555
C38 C35 1_555 1_555
H29 C38 1_555 1_555
H30 C38 1_555 1_555
H31 C38 1_555 1_555
C5 C6 1_555 1_555
C8 C9 1_555 1_555
C11 C12 1_555 1_555
C13 C14 1_555 1_555
C17 C18 1_555 1_555
C23 C24 1_555 1_555
C29 C30 1_555 1_555
C36 C37 1_555 1_555

#END
