
#######################################################################
#
#                 Cambridge Crystallographic Data Centre
#                                CCDC 
#
#######################################################################
#
# If this CIF has been generated from an entry in the Cambridge 
# Structural Database, then it will include bibliographic, chemical, 
# crystal, experimental, refinement or atomic coordinate data resulting 
# from the CCDC's data processing and validation procedures.
#
#######################################################################

data_XAYGAF
_chemical_formula_moiety         'C51 H59 N1 O11 S1'
_chemical_name_systematic        
25,27-(6-p-Tosyl-3,9-dioxa-6-azaundecane-1,11-diyldioxy)-26,28-(3,6,9-trioxaundecane-1,11-dioxy)calix(4)arene
_symmetry_cell_setting           monoclinic
_symmetry_space_group_name_H-M   'P 21/c'
_symmetry_Int_Tables_number      14
_space_group_name_Hall           '-P 2ybc'
loop_
_symmetry_equiv_pos_site_id
_symmetry_equiv_pos_as_xyz
1 x,y,z
2 -x,1/2+y,1/2-z
3 -x,-y,-z
4 x,1/2-y,1/2+z
_cell_length_a                   23.547(2)
_cell_length_b                   10.922(3)
_cell_length_c                   19.4876(18)
_cell_angle_alpha                90
_cell_angle_beta                 113.340(7)
_cell_angle_gamma                90
_cell_volume                     4601.71
_exptl_crystal_colour            colorless
_exptl_crystal_description       plate
_chemical_melting_point          398-400K
_cell_formula_units_Z            4
loop_
_atom_site_label
_atom_site_type_symbol
_atom_site_fract_x
_atom_site_fract_y
_atom_site_fract_z
S1 S 0.06312(7) 1.01239(14) 0.28128(8)
N1 N 0.1047(2) 0.8889(4) 0.2911(2)
O1 O 0.39555(18) 0.5743(3) 0.2113(2)
O2 O 0.48751(18) 0.5042(4) 0.1425(2)
O3 O 0.46299(17) 0.2476(4) 0.0829(2)
O4 O 0.34067(19) 0.1042(4) 0.0492(2)
O5 O 0.2661(2) 0.3100(4) 0.1235(2)
O6 O 0.24194(16) 0.5956(3) 0.09681(18)
O7 O 0.1247(2) 0.7687(4) 0.1230(2)
O8 O 0.17782(19) 0.6421(4) 0.3443(2)
O9 O 0.26539(15) 0.4886(3) 0.30399(18)
O10 O 0.10127(18) 1.1159(3) 0.2836(2)
O11 O 0.03513(18) 1.0051(4) 0.3343(2)
C1 C 0.3124(2) 0.4086(5) 0.3081(3)
C2 C 0.2992(3) 0.2865(5) 0.2844(3)
C3 C 0.3490(3) 0.2108(5) 0.2945(3)
H1 H 0.3417 0.1289 0.2807
C4 C 0.4087(3) 0.2526(5) 0.3242(3)
H2 H 0.4414 0.1990 0.3318
C5 C 0.4201(3) 0.3744(6) 0.3426(3)
H3 H 0.4605 0.4033 0.3612
C6 C 0.3719(3) 0.4551(5) 0.3339(3)
C7 C 0.3848(2) 0.5888(5) 0.3541(3)
H4 H 0.4293 0.6005 0.3755
H5 H 0.3700 0.6075 0.3929
C8 C 0.3568(2) 0.6808(5) 0.2917(3)
C9 C 0.3243(2) 0.7793(5) 0.3017(3)
H6 H 0.3179 0.7854 0.3457
C10 C 0.3012(3) 0.8688(5) 0.2482(4)
H7 H 0.2807 0.9363 0.2565
C11 C 0.3090(3) 0.8565(5) 0.1820(4)
H8 H 0.2935 0.9169 0.1458
C12 C 0.3391(3) 0.7571(5) 0.1678(3)
C13 C 0.3646(2) 0.6734(5) 0.2255(3)
C14 C 0.4586(4) 0.5933(7) 0.2343(4)
H9 H 0.4774 0.6024 0.2882
H10 H 0.4659 0.6679 0.2121
C15 C 0.4880(4) 0.4848(7) 0.2109(4)
H11 H 0.5303 0.4741 0.2467
H12 H 0.4652 0.4106 0.2105
C16 C 0.5258(3) 0.4257(6) 0.1227(4)
H13 H 0.5498 0.3756 0.1655
H14 H 0.5546 0.4745 0.1097
C17 C 0.4902(3) 0.3445(6) 0.0586(4)
H15 H 0.4582 0.3915 0.0204
H16 H 0.5176 0.3114 0.0369
C18 C 0.4307(3) 0.1649(6) 0.0246(3)
H17 H 0.4595 0.1248 0.0076
H18 H 0.4008 0.2092 -0.0173
C19 C 0.3983(3) 0.0714(6) 0.0517(4)
H19 H 0.3936 -0.0022 0.0221
H20 H 0.4247 0.0511 0.1029
C20 C 0.3421(3) 0.1963(6) 0.0984(5)
H21 H 0.3551 0.2732 0.0843
H22 H 0.3701 0.1758 0.1490
C21 C 0.2740(3) 0.2048(6) 0.0923(4)
H23 H 0.2457 0.2022 0.0401
H24 H 0.2651 0.1356 0.1176
C22 C 0.2051(3) 0.3291(5) 0.1174(3)
C23 C 0.1906(2) 0.3022(5) 0.1779(3)
C24 C 0.2345(2) 0.2380(5) 0.2476(3)
H25 H 0.2161 0.2398 0.2842
H26 H 0.2371 0.1529 0.2350
C25 C 0.1310(3) 0.3300(5) 0.1703(3)
H27 H 0.1193 0.3142 0.2098
C26 C 0.0893(3) 0.3801(6) 0.1063(4)
H28 H 0.0495 0.3980 0.1025
C27 C 0.1054(3) 0.4044(5) 0.0473(4)
H29 H 0.0760 0.4373 0.0036
C28 C 0.1646(3) 0.3809(5) 0.0515(3)
C29 C 0.1802(3) 0.4094(6) -0.0151(3)
H30 H 0.1803 0.3320 -0.0395
H31 H 0.1461 0.4568 -0.0497
C30 C 0.2382(3) 0.4748(5) -0.0072(3)
C31 C 0.2661(3) 0.4443(5) -0.0557(3)
H32 H 0.2496 0.3809 -0.0897
C32 C 0.3173(3) 0.5052(7) -0.0547(4)
H33 H 0.3350 0.4835 -0.0880
C33 C 0.3422(3) 0.5979(6) -0.0047(3)
H34 H 0.3774 0.6380 -0.0037
C34 C 0.3160(3) 0.6333(5) 0.0444(3)
C35 C 0.3448(3) 0.7435(6) 0.0940(3)
H35 H 0.3886 0.7436 0.1039
H36 H 0.3272 0.8165 0.0649
C36 C 0.2646(2) 0.5691(5) 0.0431(3)
C37 C 0.1909(3) 0.6767(5) 0.0756(3)
H37 H 0.1573 0.6473 0.0310
H38 H 0.2028 0.7577 0.0657
C38 C 0.1715(3) 0.6804(5) 0.1407(3)
H39 H 0.1561 0.6010 0.1477
H40 H 0.2062 0.7025 0.1863
C39 C 0.0975(3) 0.7772(7) 0.1763(4)
H41 H 0.0977 0.6972 0.1980
H42 H 0.0549 0.8039 0.1517
C40 C 0.1336(3) 0.8685(5) 0.2384(3)
H43 H 0.1753 0.8378 0.2653
H44 H 0.1367 0.9460 0.2158
C41 C 0.0963(3) 0.7844(5) 0.3328(3)
H45 H 0.0713 0.7232 0.2978
H46 H 0.0738 0.8109 0.3626
C42 C 0.1561(3) 0.7274(6) 0.3832(3)
H47 H 0.1869 0.7910 0.4044
H48 H 0.1503 0.6861 0.4241
C43 C 0.2265(3) 0.5706(6) 0.3920(3)
H49 H 0.2177 0.5455 0.4345
H50 H 0.2641 0.6192 0.4106
C44 C 0.2364(3) 0.4613(5) 0.3542(3)
H51 H 0.2620 0.4036 0.3915
H52 H 0.1969 0.4224 0.3265
C45 C 0.0055(2) 1.0045(5) 0.1908(3)
C46 C 0.0086(3) 1.0763(5) 0.1344(4)
H53 H 0.0401 1.1338 0.1454
C47 C -0.0339(3) 1.0645(5) 0.0620(4)
H54 H -0.0317 1.1157 0.0250
C48 C -0.0799(3) 0.9768(6) 0.0439(4)
C49 C -0.0833(3) 0.9061(6) 0.1011(4)
H55 H -0.1148 0.8486 0.0902
C50 C -0.0411(3) 0.9188(6) 0.1737(4)
H56 H -0.0440 0.8697 0.2112
C51 C -0.1257(3) 0.9606(6) -0.0359(4)
H57 H -0.1177 1.0206 -0.0671
H58 H -0.1669 0.9710 -0.0384
H59 H -0.1214 0.8800 -0.0529
loop_
_geom_bond_atom_site_label_1
_geom_bond_atom_site_label_2
_geom_bond_site_symmetry_1
_geom_bond_site_symmetry_2
S1 N1 1_555 1_555
N1 C40 1_555 1_555
O1 C13 1_555 1_555
O2 C15 1_555 1_555
O3 C17 1_555 1_555
O4 C19 1_555 1_555
O5 C21 1_555 1_555
O6 C36 1_555 1_555
O7 C38 1_555 1_555
O8 C42 1_555 1_555
O9 C1 1_555 1_555
O10 S1 1_555 1_555
O11 S1 1_555 1_555
C1 C2 1_555 1_555
C2 C3 1_555 1_555
C3 H1 1_555 1_555
C4 C3 1_555 1_555
H2 C4 1_555 1_555
C5 C4 1_555 1_555
H3 C5 1_555 1_555
C6 C1 1_555 1_555
C7 C6 1_555 1_555
H4 C7 1_555 1_555
H5 C7 1_555 1_555
C8 C7 1_555 1_555
C9 C8 1_555 1_555
H6 C9 1_555 1_555
C10 C9 1_555 1_555
H7 C10 1_555 1_555
C11 C10 1_555 1_555
H8 C11 1_555 1_555
C12 C11 1_555 1_555
C13 C8 1_555 1_555
C14 O1 1_555 1_555
H9 C14 1_555 1_555
H10 C14 1_555 1_555
C15 C14 1_555 1_555
H11 C15 1_555 1_555
H12 C15 1_555 1_555
C16 O2 1_555 1_555
H13 C16 1_555 1_555
H14 C16 1_555 1_555
C17 C16 1_555 1_555
H15 C17 1_555 1_555
H16 C17 1_555 1_555
C18 O3 1_555 1_555
H17 C18 1_555 1_555
H18 C18 1_555 1_555
C19 C18 1_555 1_555
H19 C19 1_555 1_555
H20 C19 1_555 1_555
C20 O4 1_555 1_555
H21 C20 1_555 1_555
H22 C20 1_555 1_555
C21 C20 1_555 1_555
H23 C21 1_555 1_555
H24 C21 1_555 1_555
C22 O5 1_555 1_555
C23 C22 1_555 1_555
C24 C2 1_555 1_555
H25 C24 1_555 1_555
H26 C24 1_555 1_555
C25 C23 1_555 1_555
H27 C25 1_555 1_555
C26 C25 1_555 1_555
H28 C26 1_555 1_555
C27 C26 1_555 1_555
H29 C27 1_555 1_555
C28 C22 1_555 1_555
C29 C28 1_555 1_555
H30 C29 1_555 1_555
H31 C29 1_555 1_555
C30 C29 1_555 1_555
C31 C30 1_555 1_555
H32 C31 1_555 1_555
C32 C31 1_555 1_555
H33 C32 1_555 1_555
C33 C32 1_555 1_555
H34 C33 1_555 1_555
C34 C33 1_555 1_555
C35 C12 1_555 1_555
H35 C35 1_555 1_555
H36 C35 1_555 1_555
C36 C30 1_555 1_555
C37 O6 1_555 1_555
H37 C37 1_555 1_555
H38 C37 1_555 1_555
C38 C37 1_555 1_555
H39 C38 1_555 1_555
H40 C38 1_555 1_555
C39 O7 1_555 1_555
H41 C39 1_555 1_555
H42 C39 1_555 1_555
C40 C39 1_555 1_555
H43 C40 1_555 1_555
H44 C40 1_555 1_555
C41 N1 1_555 1_555
H45 C41 1_555 1_555
H46 C41 1_555 1_555
C42 C41 1_555 1_555
H47 C42 1_555 1_555
H48 C42 1_555 1_555
C43 O8 1_555 1_555
H49 C43 1_555 1_555
H50 C43 1_555 1_555
C44 O9 1_555 1_555
H51 C44 1_555 1_555
H52 C44 1_555 1_555
C45 S1 1_555 1_555
C46 C45 1_555 1_555
H53 C46 1_555 1_555
C47 C46 1_555 1_555
H54 C47 1_555 1_555
C48 C47 1_555 1_555
C49 C48 1_555 1_555
H55 C49 1_555 1_555
C50 C45 1_555 1_555
H56 C50 1_555 1_555
C51 C48 1_555 1_555
H57 C51 1_555 1_555
H58 C51 1_555 1_555
H59 C51 1_555 1_555
C5 C6 1_555 1_555
C12 C13 1_555 1_555
C23 C24 1_555 1_555
C27 C28 1_555 1_555
C34 C35 1_555 1_555
C34 C36 1_555 1_555
C43 C44 1_555 1_555
C49 C50 1_555 1_555

#END
