
#######################################################################
#
#                 Cambridge Crystallographic Data Centre
#                                CCDC 
#
#######################################################################
#
# If this CIF has been generated from an entry in the Cambridge 
# Structural Database, then it will include bibliographic, chemical, 
# crystal, experimental, refinement or atomic coordinate data resulting 
# from the CCDC's data processing and validation procedures.
#
#######################################################################

data_XAYLOB
_chemical_formula_moiety         'C14 H8 N2,C6 F3 I3'
_chemical_name_systematic        
"4,4'-(buta-1,3-diyne-1,4-diyl)dipyridine 1,3,5-trifluoro-2,4,6-triiodobenzene"
_symmetry_cell_setting           monoclinic
_symmetry_space_group_name_H-M   'P 21/n'
_symmetry_Int_Tables_number      14
_space_group_name_Hall           '-P 2yn'
loop_
_symmetry_equiv_pos_site_id
_symmetry_equiv_pos_as_xyz
1 x,y,z
2 1/2-x,1/2+y,1/2-z
3 -x,-y,-z
4 1/2+x,1/2-y,1/2+z
_cell_length_a                   10.309(2)
_cell_length_b                   8.9709(18)
_cell_length_c                   22.251(5)
_cell_angle_alpha                90
_cell_angle_beta                 97.88(3)
_cell_angle_gamma                90
_cell_volume                     2038.36
_exptl_crystal_colour            colorless
_exptl_crystal_description       Plate
_cell_formula_units_Z            4
loop_
_atom_site_label
_atom_site_type_symbol
_atom_site_fract_x
_atom_site_fract_y
_atom_site_fract_z
N1 N 0.4979(4) 0.2435(5) 0.45153(18)
N2 N -0.3078(4) 1.0850(5) 0.6256(2)
C1 C 0.4450(5) 0.2102(6) 0.5014(2)
H1 H 0.4729 0.1240 0.5225
C2 C 0.3513(5) 0.2966(6) 0.5231(2)
H2 H 0.3172 0.2684 0.5579
C3 C 0.3084(4) 0.4254(5) 0.4927(2)
C4 C 0.3637(5) 0.4624(6) 0.4408(2)
H3 H 0.3381 0.5482 0.4189
C5 C 0.4569(5) 0.3688(6) 0.4229(2)
H4 H 0.4938 0.3947 0.3885
C6 C 0.2111(5) 0.5201(6) 0.5145(2)
C7 C 0.1311(5) 0.5989(6) 0.5325(2)
C8 C 0.0393(5) 0.6925(6) 0.5520(2)
C9 C -0.0390(5) 0.7765(6) 0.5684(2)
C10 C -0.1306(4) 0.8802(6) 0.5876(2)
C11 C -0.2009(5) 0.8471(6) 0.6349(2)
H5 H -0.1902 0.7560 0.6549
C12 C -0.2874(5) 0.9529(6) 0.6517(2)
H6 H -0.3342 0.9294 0.6833
C13 C -0.2407(5) 1.1160(6) 0.5799(3)
H7 H -0.2543 1.2076 0.5605
C14 C -0.1513(5) 1.0177(6) 0.5598(2)
H8 H -0.1061 1.0442 0.5280
I1 I 1.01864(4) -0.40327(4) 0.30907(2)
I2 I 0.67688(3) 0.09596(4) 0.37866(2)
I3 I 1.05266(3) 0.20892(4) 0.19612(2)
F1 F 0.8140(3) -0.2212(3) 0.37002(14)
F2 F 0.8293(3) 0.2505(3) 0.27970(13)
F3 F 1.1030(3) -0.1342(3) 0.22894(13)
C15 C 0.9585(4) -0.1820(5) 0.2993(2)
C16 C 0.8625(4) -0.1270(5) 0.3315(2)
C17 C 0.8158(4) 0.0159(5) 0.3257(2)
C18 C 0.8707(4) 0.1074(5) 0.2859(2)
C19 C 0.9665(4) 0.0604(5) 0.25232(19)
C20 C 1.0089(4) -0.0847(6) 0.2601(2)
loop_
_geom_bond_atom_site_label_1
_geom_bond_atom_site_label_2
_geom_bond_site_symmetry_1
_geom_bond_site_symmetry_2
N1 C1 1_555 1_555
N2 C12 1_555 1_555
C1 H1 1_555 1_555
C2 C1 1_555 1_555
H2 C2 1_555 1_555
C3 C2 1_555 1_555
C4 C3 1_555 1_555
H3 C4 1_555 1_555
C5 N1 1_555 1_555
H4 C5 1_555 1_555
C6 C3 1_555 1_555
C7 C6 1_555 1_555
C8 C7 1_555 1_555
C9 C8 1_555 1_555
C10 C9 1_555 1_555
C11 C10 1_555 1_555
H5 C11 1_555 1_555
C12 C11 1_555 1_555
H6 C12 1_555 1_555
C13 N2 1_555 1_555
H7 C13 1_555 1_555
C14 C10 1_555 1_555
H8 C14 1_555 1_555
I1 C15 1_555 1_555
I2 C17 1_555 1_555
I3 C19 1_555 1_555
F1 C16 1_555 1_555
F2 C18 1_555 1_555
F3 C20 1_555 1_555
C15 C16 1_555 1_555
C16 C17 1_555 1_555
C17 C18 1_555 1_555
C18 C19 1_555 1_555
C19 C20 1_555 1_555
C20 C15 1_555 1_555
C4 C5 1_555 1_555
C13 C14 1_555 1_555

#END
