
#######################################################################
#
#                 Cambridge Crystallographic Data Centre
#                                CCDC 
#
#######################################################################
#
# If this CIF has been generated from an entry in the Cambridge 
# Structural Database, then it will include bibliographic, chemical, 
# crystal, experimental, refinement or atomic coordinate data resulting 
# from the CCDC's data processing and validation procedures.
#
#######################################################################

data_XAYQEV
_chemical_formula_moiety         'C6 H9 N2 1+,N1 O3 1-'
_chemical_name_systematic        '2-Amino-5-methylpyridinium nitrate'
_symmetry_cell_setting           monoclinic
_symmetry_space_group_name_H-M   'C c'
_symmetry_Int_Tables_number      9
_space_group_name_Hall           'C -2yc'
loop_
_symmetry_equiv_pos_site_id
_symmetry_equiv_pos_as_xyz
1 x,y,z
2 x,-y,1/2+z
3 1/2+x,1/2+y,z
4 1/2+x,1/2-y,1/2+z
_cell_length_a                   8.7711(7)
_cell_length_b                   15.7261(13)
_cell_length_c                   6.8539(5)
_cell_angle_alpha                90
_cell_angle_beta                 117.455(2)
_cell_angle_gamma                90
_cell_volume                     838.917
_exptl_crystal_colour            'light yellow'
_exptl_crystal_description       needle
_cell_formula_units_Z            4
loop_
_atom_site_label
_atom_site_type_symbol
_atom_site_fract_x
_atom_site_fract_y
_atom_site_fract_z
N1 N 0.3088(3) 0.46545(15) 0.4791(4)
H1 H 0.2362 0.4246 0.4239
N2 N 0.5229(4) 0.36493(16) 0.6464(4)
H2 H 0.4482 0.3251 0.5882
H3 H 0.6289 0.3524 0.7293
C1 C 0.4743(3) 0.44596(15) 0.6084(4)
C2 C 0.5894(4) 0.51441(18) 0.6972(5)
H4 H 0.7054 0.5042 0.7882
C3 C 0.5302(4) 0.59519(18) 0.6493(5)
H5 H 0.6077 0.6399 0.7078
C4 C 0.3574(4) 0.61376(17) 0.5153(5)
C5 C 0.2500(4) 0.54681(17) 0.4312(5)
H6 H 0.1340 0.5565 0.3390
C6 C 0.2926(5) 0.7045(2) 0.4632(7)
H7 H 0.1721 0.7042 0.3623
H8 H 0.3539 0.7339 0.3982
H9 H 0.3109 0.7328 0.5963
N3 N 0.4592(3) 0.14462(15) 0.6312(5)
O1 O 0.3527(3) 0.19547(15) 0.5007(4)
O2 O 0.5816(3) 0.17188(14) 0.8011(5)
O3 O 0.4431(3) 0.06826(15) 0.5931(5)
loop_
_geom_bond_atom_site_label_1
_geom_bond_atom_site_label_2
_geom_bond_site_symmetry_1
_geom_bond_site_symmetry_2
N1 H1 1_555 1_555
N2 H2 1_555 1_555
H3 N2 1_555 1_555
N3 O1 1_555 1_555
O2 N3 1_555 1_555
O3 N3 1_555 1_555
C1 N1 1_555 1_555
C2 C1 1_555 1_555
H4 C2 1_555 1_555
C3 C2 1_555 1_555
H5 C3 1_555 1_555
C4 C3 1_555 1_555
C5 N1 1_555 1_555
H6 C5 1_555 1_555
C6 C4 1_555 1_555
H7 C6 1_555 1_555
H8 C6 1_555 1_555
H9 C6 1_555 1_555
N2 C1 1_555 1_555
C4 C5 1_555 1_555

#END
