
#######################################################################
#
#                 Cambridge Crystallographic Data Centre
#                                CCDC 
#
#######################################################################
#
# If this CIF has been generated from an entry in the Cambridge 
# Structural Database, then it will include bibliographic, chemical, 
# crystal, experimental, refinement or atomic coordinate data resulting 
# from the CCDC's data processing and validation procedures.
#
#######################################################################

data_XAYSEY
_chemical_formula_moiety         'C25 H19 Br1 N2 O2'
_chemical_name_systematic        
4-(4-bromophenyl)-3-methyl-1,5-diphenyl-4,5-dihydropyrano[2,3-c]pyrazol-6(1H)-one
_symmetry_cell_setting           orthorhombic
_symmetry_space_group_name_H-M   'P 21 21 21'
_symmetry_Int_Tables_number      19
_space_group_name_Hall           'P 2ac 2ab'
loop_
_symmetry_equiv_pos_site_id
_symmetry_equiv_pos_as_xyz
1 x,y,z
2 1/2-x,-y,1/2+z
3 -x,1/2+y,1/2-z
4 1/2+x,1/2-y,-z
_cell_length_a                   9.5611(8)
_cell_length_b                   9.7674(7)
_cell_length_c                   44.019(3)
_cell_angle_alpha                90
_cell_angle_beta                 90
_cell_angle_gamma                90
_cell_volume                     4110.81
_exptl_crystal_colour            yellow
_exptl_crystal_description       plate
_cell_formula_units_Z            8
loop_
_atom_site_label
_atom_site_type_symbol
_atom_site_fract_x
_atom_site_fract_y
_atom_site_fract_z
Br1 Br 0.73822(6) 0.32431(5) 0.14773(2)
C1 C 0.5293(4) 0.0013(4) -0.02102(8)
C2 C 0.5440(4) 0.0598(4) 0.01098(8)
H1 H 0.6072 0.1408 0.0090
C3 C 0.6161(4) -0.0373(4) 0.03464(8)
H2 H 0.5492 -0.1115 0.0405
C4 C 0.7404(5) -0.1001(4) 0.01892(8)
C5 C 0.8690(5) -0.1581(4) 0.02799(8)
C6 C 0.7444(5) -0.1052(4) -0.01199(8)
C7 C 0.4073(4) 0.1150(4) 0.02319(8)
C8 C 0.2844(5) 0.0378(4) 0.02218(9)
H3 H 0.2841 -0.0486 0.0123
C9 C 0.1622(5) 0.0866(5) 0.03559(10)
H4 H 0.0781 0.0351 0.0343
C10 C 0.1644(5) 0.2132(5) 0.05103(10)
H5 H 0.0818 0.2462 0.0606
C11 C 0.2857(5) 0.2892(4) 0.05235(9)
H6 H 0.2872 0.3742 0.0629
C12 C 0.4063(5) 0.2404(4) 0.03815(9)
H7 H 0.4893 0.2939 0.0387
C13 C 0.6533(4) 0.0464(4) 0.06287(8)
C14 C 0.5884(5) 0.0205(4) 0.09044(8)
H8 H 0.5247 -0.0538 0.0920
C15 C 0.6143(5) 0.1009(5) 0.11597(9)
H9 H 0.5700 0.0811 0.1348
C16 C 0.7061(5) 0.2105(4) 0.11343(8)
C17 C 0.7743(5) 0.2377(4) 0.08630(8)
H10 H 0.8378 0.3122 0.0848
C18 C 0.7482(5) 0.1542(4) 0.06121(8)
H11 H 0.7961 0.1712 0.0427
C19 C 0.9196(5) -0.1876(5) 0.05941(9)
H12 H 0.8638 -0.2618 0.0682
H13 H 0.9102 -0.1053 0.0720
H14 H 1.0181 -0.2153 0.0587
C20 C 0.9304(5) -0.1516(4) -0.05068(8)
C21 C 0.8543(5) -0.1928(4) -0.07600(9)
H15 H 0.7633 -0.2306 -0.0737
C22 C 0.9128(5) -0.1780(5) -0.10469(9)
H16 H 0.8615 -0.2055 -0.1221
C23 C 1.0465(6) -0.1232(5) -0.10803(10)
H17 H 1.0853 -0.1119 -0.1277
C24 C 1.1223(6) -0.0853(5) -0.08275(10)
H18 H 1.2143 -0.0501 -0.0851
C25 C 1.0652(5) -0.0983(4) -0.05360(9)
H19 H 1.1171 -0.0714 -0.0362
N1 N 0.8690(4) -0.1591(4) -0.02121(7)
N2 N 0.9489(4) -0.1919(4) 0.00390(7)
O1 O 0.4331(3) 0.0187(3) -0.03797(6)
O2 O 0.6446(3) -0.0682(3) -0.03253(6)
Br2 Br 0.06380(5) 0.50248(4) 0.10308(2)
C26 C 0.3823(5) 0.5609(5) 0.28168(9)
C27 C 0.3676(5) 0.5690(4) 0.24711(8)
H20 H 0.3012 0.6458 0.2430
C28 C 0.3000(5) 0.4380(4) 0.23302(8)
H21 H 0.3674 0.3600 0.2342
C29 C 0.1725(5) 0.4065(4) 0.25199(9)
C30 C 0.0453(5) 0.3406(4) 0.24647(9)
C31 C 0.1619(5) 0.4534(4) 0.28108(9)
C32 C 0.5019(5) 0.6051(5) 0.23100(9)
C33 C 0.6265(6) 0.5326(5) 0.23590(11)
H22 H 0.6317 0.4653 0.2514
C34 C 0.7439(6) 0.5604(6) 0.21759(12)
H23 H 0.8291 0.5129 0.2212
C35 C 0.7365(6) 0.6550(6) 0.19470(11)
H24 H 0.8162 0.6713 0.1823
C36 C 0.6142(6) 0.7274(5) 0.18933(10)
H25 H 0.6097 0.7930 0.1734
C37 C 0.4978(5) 0.7024(5) 0.20765(9)
H26 H 0.4141 0.7525 0.2042
C38 C 0.2566(5) 0.4615(4) 0.20016(8)
C39 C 0.2980(5) 0.3713(4) 0.17711(9)
H27 H 0.3646 0.3017 0.1814
C40 C 0.2422(5) 0.3827(5) 0.14797(8)
H28 H 0.2689 0.3205 0.1324
C41 C 0.1469(5) 0.4867(4) 0.14201(8)
C42 C 0.1104(5) 0.5817(5) 0.16402(8)
H29 H 0.0489 0.6550 0.1592
C43 C 0.1646(5) 0.5685(4) 0.19311(9)
H30 H 0.1391 0.6326 0.2084
C44 C -0.0326(5) 0.4527(4) 0.32023(8)
C45 C 0.0433(6) 0.4831(5) 0.34627(9)
H31 H 0.1427 0.4819 0.3460
C46 C -0.0284(6) 0.5156(6) 0.37285(9)
H32 H 0.0233 0.5379 0.3906
C47 C -0.1733(6) 0.5160(5) 0.37408(10)
H33 H -0.2208 0.5375 0.3924
C48 C -0.2465(6) 0.4845(6) 0.34808(10)
H34 H -0.3459 0.4837 0.3486
C49 C -0.1776(6) 0.4539(5) 0.32103(10)
H35 H -0.2298 0.4339 0.3032
C50 C -0.0021(6) 0.2647(6) 0.21853(10)
H36 H -0.0990 0.2343 0.2213
H37 H 0.0583 0.1850 0.2153
H38 H 0.0035 0.3255 0.2009
N3 N 0.0356(4) 0.4186(4) 0.29248(7)
N4 N -0.0393(4) 0.3484(4) 0.27048(8)
O3 O 0.4819(4) 0.5919(4) 0.29655(7)
O4 O 0.2613(4) 0.5221(3) 0.29758(6)
loop_
_geom_bond_atom_site_label_1
_geom_bond_atom_site_label_2
_geom_bond_site_symmetry_1
_geom_bond_site_symmetry_2
Br1 C16 1_555 1_555
C1 C2 1_555 1_555
C2 H1 1_555 1_555
C3 C2 1_555 1_555
H2 C3 1_555 1_555
C4 C3 1_555 1_555
C5 C4 1_555 1_555
C6 C4 1_555 1_555
C7 C2 1_555 1_555
C8 C7 1_555 1_555
H3 C8 1_555 1_555
C9 C8 1_555 1_555
H4 C9 1_555 1_555
C10 C9 1_555 1_555
H5 C10 1_555 1_555
C11 C10 1_555 1_555
H6 C11 1_555 1_555
C12 C7 1_555 1_555
H7 C12 1_555 1_555
C13 C3 1_555 1_555
C14 C13 1_555 1_555
H8 C14 1_555 1_555
C15 C14 1_555 1_555
H9 C15 1_555 1_555
C16 C15 1_555 1_555
C17 C16 1_555 1_555
H10 C17 1_555 1_555
C18 C13 1_555 1_555
H11 C18 1_555 1_555
C19 C5 1_555 1_555
H12 C19 1_555 1_555
H13 C19 1_555 1_555
H14 C19 1_555 1_555
C20 C21 1_555 1_555
C21 H15 1_555 1_555
C22 C21 1_555 1_555
H16 C22 1_555 1_555
C23 C22 1_555 1_555
H17 C23 1_555 1_555
C24 C23 1_555 1_555
H18 C24 1_555 1_555
C25 C20 1_555 1_555
H19 C25 1_555 1_555
N1 C6 1_555 1_555
N2 C5 1_555 1_555
O1 C1 1_555 1_555
O2 C1 1_555 1_555
Br2 C41 1_555 1_555
C26 C27 1_555 1_555
C27 H20 1_555 1_555
C28 C27 1_555 1_555
H21 C28 1_555 1_555
C29 C28 1_555 1_555
C30 C29 1_555 1_555
C31 C29 1_555 1_555
C32 C27 1_555 1_555
C33 C32 1_555 1_555
H22 C33 1_555 1_555
C34 C33 1_555 1_555
H23 C34 1_555 1_555
C35 C34 1_555 1_555
H24 C35 1_555 1_555
C36 C35 1_555 1_555
H25 C36 1_555 1_555
C37 C32 1_555 1_555
H26 C37 1_555 1_555
C38 C28 1_555 1_555
C39 C38 1_555 1_555
H27 C39 1_555 1_555
C40 C39 1_555 1_555
H28 C40 1_555 1_555
C41 C40 1_555 1_555
C42 C41 1_555 1_555
H29 C42 1_555 1_555
C43 C38 1_555 1_555
H30 C43 1_555 1_555
C44 C45 1_555 1_555
C45 H31 1_555 1_555
C46 C45 1_555 1_555
H32 C46 1_555 1_555
C47 C46 1_555 1_555
H33 C47 1_555 1_555
C48 C47 1_555 1_555
H34 C48 1_555 1_555
C49 C44 1_555 1_555
H35 C49 1_555 1_555
C50 C30 1_555 1_555
H36 C50 1_555 1_555
H37 C50 1_555 1_555
H38 C50 1_555 1_555
N3 C31 1_555 1_555
N4 C30 1_555 1_555
O3 C26 1_555 1_555
O4 C26 1_555 1_555
C6 O2 1_555 1_555
C11 C12 1_555 1_555
C17 C18 1_555 1_555
C20 N1 1_555 1_555
C24 C25 1_555 1_555
N1 N2 1_555 1_555
C31 O4 1_555 1_555
C36 C37 1_555 1_555
C42 C43 1_555 1_555
C44 N3 1_555 1_555
C48 C49 1_555 1_555
N3 N4 1_555 1_555

#END
