
#######################################################################
#
#                 Cambridge Crystallographic Data Centre
#                                CCDC 
#
#######################################################################
#
# If this CIF has been generated from an entry in the Cambridge 
# Structural Database, then it will include bibliographic, chemical, 
# crystal, experimental, refinement or atomic coordinate data resulting 
# from the CCDC's data processing and validation procedures.
#
#######################################################################

data_XAYSAU
_chemical_formula_moiety         'C24 H17 N1 O2 S1'
_chemical_name_systematic        
2,6,7-triphenyl-6,7-dihydro-5H-pyrano[2,3-d][1,3]thiazol-5-one
_symmetry_cell_setting           orthorhombic
_symmetry_space_group_name_H-M   'P 21 21 21'
_symmetry_Int_Tables_number      19
_space_group_name_Hall           'P 2ac 2ab'
loop_
_symmetry_equiv_pos_site_id
_symmetry_equiv_pos_as_xyz
1 x,y,z
2 1/2-x,-y,1/2+z
3 -x,1/2+y,1/2-z
4 1/2+x,1/2-y,-z
_cell_length_a                   6.2831(5)
_cell_length_b                   10.5060(7)
_cell_length_c                   28.682(2)
_cell_angle_alpha                90
_cell_angle_beta                 90
_cell_angle_gamma                90
_cell_volume                     1893.31
_exptl_crystal_colour            colorless
_exptl_crystal_description       plate
_cell_formula_units_Z            4
loop_
_atom_site_label
_atom_site_type_symbol
_atom_site_fract_x
_atom_site_fract_y
_atom_site_fract_z
C1 C 0.5158(5) 0.3782(3) 0.44128(10)
C2 C 0.7488(5) 0.3405(3) 0.44218(11)
H1 H 0.7747 0.2946 0.4722
C3 C 0.8972(5) 0.4589(3) 0.44156(11)
H2 H 1.0468 0.4304 0.4359
C4 C 0.8232(5) 0.5362(3) 0.40068(10)
C5 C 0.7281(5) 0.6630(3) 0.33255(11)
C6 C 0.6159(5) 0.5390(3) 0.38754(11)
C7 C 0.7954(5) 0.2472(3) 0.40264(11)
C8 C 0.6552(6) 0.2261(3) 0.36587(11)
H3 H 0.5259 0.2728 0.3643
C9 C 0.7021(6) 0.1377(4) 0.33143(12)
H4 H 0.6040 0.1235 0.3068
C10 C 0.8906(7) 0.0701(4) 0.33283(12)
H5 H 0.9236 0.0106 0.3090
C11 C 1.0313(7) 0.0900(3) 0.36946(12)
H6 H 1.1602 0.0429 0.3709
C12 C 0.9848(6) 0.1779(3) 0.40387(12)
H7 H 1.0828 0.1913 0.4286
C13 C 0.8872(6) 0.5312(3) 0.48805(11)
C14 C 1.0411(6) 0.5089(3) 0.52190(11)
H8 H 1.1529 0.4503 0.5158
C15 C 1.0331(7) 0.5718(4) 0.56477(12)
H9 H 1.1396 0.5567 0.5876
C16 C 0.8697(6) 0.6558(4) 0.57367(11)
H10 H 0.8635 0.6987 0.6028
C17 C 0.7161(7) 0.6777(4) 0.54074(13)
H11 H 0.6026 0.7347 0.5473
C18 C 0.7260(6) 0.6168(4) 0.49784(11)
H12 H 0.6208 0.6341 0.4749
C19 C 0.7265(6) 0.7465(3) 0.29161(11)
C20 C 0.5436(6) 0.8152(3) 0.28120(11)
H13 H 0.4205 0.8063 0.3002
C21 C 0.5402(6) 0.8966(4) 0.24329(11)
H14 H 0.4150 0.9438 0.2364
C22 C 0.7189(6) 0.9095(4) 0.21522(11)
H15 H 0.7166 0.9667 0.1896
C23 C 0.8998(6) 0.8396(4) 0.22449(11)
H16 H 1.0208 0.8471 0.2048
C24 C 0.9048(6) 0.7578(4) 0.26281(11)
H17 H 1.0295 0.7099 0.2693
N1 N 0.5592(4) 0.6088(3) 0.35001(8)
O1 O 0.3784(4) 0.3294(2) 0.46359(8)
O2 O 0.4558(4) 0.4741(2) 0.41096(7)
S1 S 0.96313(13) 0.62964(8) 0.36245(3)
loop_
_geom_bond_atom_site_label_1
_geom_bond_atom_site_label_2
_geom_bond_site_symmetry_1
_geom_bond_site_symmetry_2
C1 C2 1_555 1_555
C2 H1 1_555 1_555
C3 C2 1_555 1_555
H2 C3 1_555 1_555
C4 C3 1_555 1_555
C5 C19 1_555 1_555
C6 C4 1_555 1_555
C7 C2 1_555 1_555
C8 C7 1_555 1_555
H3 C8 1_555 1_555
C9 C8 1_555 1_555
H4 C9 1_555 1_555
C10 C9 1_555 1_555
H5 C10 1_555 1_555
C11 C10 1_555 1_555
H6 C11 1_555 1_555
C12 C7 1_555 1_555
H7 C12 1_555 1_555
C13 C3 1_555 1_555
C14 C13 1_555 1_555
H8 C14 1_555 1_555
C15 C14 1_555 1_555
H9 C15 1_555 1_555
C16 C15 1_555 1_555
H10 C16 1_555 1_555
C17 C16 1_555 1_555
H11 C17 1_555 1_555
C18 C13 1_555 1_555
H12 C18 1_555 1_555
C19 C20 1_555 1_555
C20 H13 1_555 1_555
C21 C20 1_555 1_555
H14 C21 1_555 1_555
C22 C21 1_555 1_555
H15 C22 1_555 1_555
C23 C22 1_555 1_555
H16 C23 1_555 1_555
C24 C19 1_555 1_555
H17 C24 1_555 1_555
N1 C5 1_555 1_555
O1 C1 1_555 1_555
O2 C1 1_555 1_555
S1 C4 1_555 1_555
C5 S1 1_555 1_555
C6 N1 1_555 1_555
C6 O2 1_555 1_555
C11 C12 1_555 1_555
C17 C18 1_555 1_555
C23 C24 1_555 1_555

#END
