
#######################################################################
#
#                 Cambridge Crystallographic Data Centre
#                                CCDC 
#
#######################################################################
#
# If this CIF has been generated from an entry in the Cambridge 
# Structural Database, then it will include bibliographic, chemical, 
# crystal, experimental, refinement or atomic coordinate data resulting 
# from the CCDC's data processing and validation procedures.
#
#######################################################################

data_XAZBAD
_chemical_formula_moiety         'C18 H14 N2 O2'
_chemical_name_systematic        
6-((2-Hydroxyethyl)amino)-7H-dibenzo[de,h]quinolin-7-one
_symmetry_cell_setting           monoclinic
_symmetry_space_group_name_H-M   'P 21/n'
_symmetry_Int_Tables_number      14
_space_group_name_Hall           '-P 2yn'
loop_
_symmetry_equiv_pos_site_id
_symmetry_equiv_pos_as_xyz
1 x,y,z
2 1/2-x,1/2+y,1/2-z
3 -x,-y,-z
4 1/2+x,1/2-y,1/2+z
_cell_length_a                   9.8047(16)
_cell_length_b                   12.865(2)
_cell_length_c                   10.7623(17)
_cell_angle_alpha                90
_cell_angle_beta                 100.113(2)
_cell_angle_gamma                90
_cell_volume                     1336.44
_exptl_crystal_colour            red
_exptl_crystal_description       rod
_cell_formula_units_Z            4
loop_
_atom_site_label
_atom_site_type_symbol
_atom_site_fract_x
_atom_site_fract_y
_atom_site_fract_z
N1 N 0.21519(14) 0.40120(11) -0.17380(12)
N2 N 0.12415(13) 0.52517(10) 0.35165(12)
H1 H 0.0651 0.4763 0.3552
O1 O -0.01188(13) 0.36243(10) 0.25513(11)
O2 O -0.07301(12) 0.66500(10) 0.43621(12)
H2 H -0.0969 0.6421 0.3646
C1 C 0.16539(15) 0.39304(11) -0.06593(14)
C2 C 0.07454(15) 0.30520(11) -0.05216(14)
C3 C 0.04876(17) 0.22647(12) -0.14357(15)
H3 H 0.0925 0.2284 -0.2135
C4 C -0.04056(18) 0.14653(13) -0.13055(18)
H4 H -0.0573 0.0950 -0.1920
C5 C -0.10582(19) 0.14211(14) -0.02650(18)
H5 H -0.1679 0.0887 -0.0194
C6 C -0.07916(17) 0.21610(13) 0.06584(16)
H6 H -0.1217 0.2118 0.1364
C7 C 0.01172(15) 0.29820(11) 0.05497(14)
C8 C 0.04297(15) 0.37373(11) 0.15948(14)
C9 C 0.13798(14) 0.45744(10) 0.14699(13)
C10 C 0.17469(14) 0.53226(11) 0.24424(14)
C11 C 0.26736(16) 0.61437(12) 0.22536(16)
H7 H 0.2907 0.6641 0.2882
C12 C 0.32171(16) 0.62173(12) 0.11914(16)
H8 H 0.3820 0.6760 0.1106
C13 C 0.28866(15) 0.54778(12) 0.01932(15)
C14 C 0.34160(18) 0.55268(13) -0.09252(16)
H9 H 0.4035 0.6050 -0.1044
C15 C 0.30213(18) 0.48015(14) -0.18484(16)
H10 H 0.3374 0.4858 -0.2593
C16 C 0.19688(14) 0.46567(11) 0.03452(13)
C17 C 0.15778(18) 0.59083(13) 0.46331(15)
H11 H 0.2545 0.6110 0.4737
H12 H 0.1456 0.5509 0.5370
C18 C 0.06966(18) 0.68764(13) 0.45660(17)
H13 H 0.0940 0.7261 0.5349
H14 H 0.0894 0.7315 0.3886
loop_
_geom_bond_atom_site_label_1
_geom_bond_atom_site_label_2
_geom_bond_site_symmetry_1
_geom_bond_site_symmetry_2
N1 C1 1_555 1_555
N2 H1 1_555 1_555
O1 C8 1_555 1_555
O2 H2 1_555 1_555
C1 C2 1_555 1_555
C2 C3 1_555 1_555
C3 H3 1_555 1_555
C4 C3 1_555 1_555
H4 C4 1_555 1_555
C5 C4 1_555 1_555
H5 C5 1_555 1_555
C6 C5 1_555 1_555
H6 C6 1_555 1_555
C7 C2 1_555 1_555
C8 C7 1_555 1_555
C9 C8 1_555 1_555
C10 N2 1_555 1_555
C11 C10 1_555 1_555
H7 C11 1_555 1_555
C12 C11 1_555 1_555
H8 C12 1_555 1_555
C13 C12 1_555 1_555
C14 C13 1_555 1_555
H9 C14 1_555 1_555
C15 N1 1_555 1_555
H10 C15 1_555 1_555
C16 C1 1_555 1_555
C17 N2 1_555 1_555
H11 C17 1_555 1_555
H12 C17 1_555 1_555
C18 O2 1_555 1_555
H13 C18 1_555 1_555
H14 C18 1_555 1_555
C6 C7 1_555 1_555
C9 C10 1_555 1_555
C9 C16 1_555 1_555
C13 C16 1_555 1_555
C14 C15 1_555 1_555
C17 C18 1_555 1_555

#END
