
#######################################################################
#
#                 Cambridge Crystallographic Data Centre
#                                CCDC 
#
#######################################################################
#
# If this CIF has been generated from an entry in the Cambridge 
# Structural Database, then it will include bibliographic, chemical, 
# crystal, experimental, refinement or atomic coordinate data resulting 
# from the CCDC's data processing and validation procedures.
#
#######################################################################

data_XAZDOS
_chemical_formula_moiety         'C13 H14 Br1 N1 O4'
_chemical_name_systematic        
3-((R)-1-(4-Bromophenyl)-2-nitroethyl)pentane-2,4-dione
_symmetry_cell_setting           monoclinic
_symmetry_space_group_name_H-M   'C 2'
_symmetry_Int_Tables_number      5
_space_group_name_Hall           'C 2y'
loop_
_symmetry_equiv_pos_site_id
_symmetry_equiv_pos_as_xyz
1 x,y,z
2 -x,y,-z
3 1/2+x,1/2+y,z
4 1/2-x,1/2+y,-z
_cell_length_a                   16.5687(13)
_cell_length_b                   5.2350(4)
_cell_length_c                   16.4498(13)
_cell_angle_alpha                90
_cell_angle_beta                 92.7870(10)
_cell_angle_gamma                90
_cell_volume                     1425.12
_exptl_crystal_colour            colorless
_exptl_crystal_description       needle
_cell_formula_units_Z            4
loop_
_atom_site_label
_atom_site_type_symbol
_atom_site_fract_x
_atom_site_fract_y
_atom_site_fract_z
Br1 Br 0.38797(3) 0.55279(19) 0.45308(2)
O1 O 0.4403(3) 0.7873(13) 0.8695(3)
O2 O 0.4667(3) 0.3964(16) 0.8553(6)
O3 O 0.15256(16) 0.9980(7) 0.74909(16)
O4 O 0.2020(2) 0.8902(7) 0.93686(17)
N1 N 0.4211(2) 0.5619(16) 0.8649(2)
C1 C 0.3605(2) 0.8142(9) 0.6875(2)
H1 H 0.3795 0.9507 0.7191
C2 C 0.3860(3) 0.7873(10) 0.6085(2)
H2 H 0.4224 0.9028 0.5877
C3 C 0.3569(2) 0.5890(10) 0.56243(18)
C4 C 0.3043(3) 0.4192(9) 0.5921(2)
H3 H 0.2846 0.2855 0.5596
C5 C 0.2797(2) 0.4454(7) 0.6719(2)
H4 H 0.2441 0.3275 0.6926
C6 C 0.3078(2) 0.6440(7) 0.7196(2)
C7 C 0.2837(2) 0.6734(8) 0.8071(2)
H5 H 0.2943(17) 0.847(7) 0.8189(18)
C8 C 0.3332(2) 0.4978(11) 0.8626(2)
H6 H 0.3201(19) 0.502(9) 0.909(2)
H7 H 0.324(3) 0.304(11) 0.842(3)
C9 C 0.1937(2) 0.6188(8) 0.8202(2)
H8 H 0.183(2) 0.430(8) 0.811(2)
C10 C 0.1391(2) 0.7737(9) 0.7609(2)
C11 C 0.0699(3) 0.6345(10) 0.7209(3)
H9 H 0.0413 0.5435 0.7612
H10 H 0.0895 0.5156 0.6821
H11 H 0.0340 0.7542 0.6936
C12 C 0.1721(2) 0.7004(8) 0.9060(2)
C13 C 0.1154(2) 0.5365(15) 0.9485(2)
H12 H 0.0650 0.5271 0.9173
H13 H 0.1064 0.6074 1.0011
H14 H 0.1378 0.3682 0.9548
loop_
_geom_bond_atom_site_label_1
_geom_bond_atom_site_label_2
_geom_bond_site_symmetry_1
_geom_bond_site_symmetry_2
Br1 C3 1_555 1_555
O1 N1 1_555 1_555
O2 N1 1_555 1_555
O3 C10 1_555 1_555
O4 C12 1_555 1_555
N1 C8 1_555 1_555
C1 H1 1_555 1_555
C2 C1 1_555 1_555
H2 C2 1_555 1_555
C3 C2 1_555 1_555
C4 C3 1_555 1_555
H3 C4 1_555 1_555
C5 C4 1_555 1_555
H4 C5 1_555 1_555
C6 C1 1_555 1_555
C7 C6 1_555 1_555
H5 C7 1_555 1_555
C8 C7 1_555 1_555
H6 C8 1_555 1_555
H7 C8 1_555 1_555
C9 C7 1_555 1_555
H8 C9 1_555 1_555
C10 C9 1_555 1_555
C11 C10 1_555 1_555
H9 C11 1_555 1_555
H10 C11 1_555 1_555
H11 C11 1_555 1_555
C12 C9 1_555 1_555
C13 C12 1_555 1_555
H12 C13 1_555 1_555
H13 C13 1_555 1_555
H14 C13 1_555 1_555
C5 C6 1_555 1_555

#END
