
#######################################################################
#
#                 Cambridge Crystallographic Data Centre
#                                CCDC 
#
#######################################################################
#
# If this CIF has been generated from an entry in the Cambridge 
# Structural Database, then it will include bibliographic, chemical, 
# crystal, experimental, refinement or atomic coordinate data resulting 
# from the CCDC's data processing and validation procedures.
#
#######################################################################

data_XAZFIP01
_chemical_formula_moiety         'C14 H12 Br1 N1'
_chemical_name_systematic        9-(2-bromoethyl)-9H-carbazole
_symmetry_cell_setting           monoclinic
_symmetry_space_group_name_H-M   'P 21/c'
_symmetry_Int_Tables_number      14
_space_group_name_Hall           '-P 2ybc'
loop_
_symmetry_equiv_pos_site_id
_symmetry_equiv_pos_as_xyz
1 x,y,z
2 -x,1/2+y,1/2-z
3 -x,-y,-z
4 x,1/2-y,1/2+z
_cell_length_a                   5.4234(4)
_cell_length_b                   12.2775(9)
_cell_length_c                   17.5537(11)
_cell_angle_alpha                90
_cell_angle_beta                 96.458(5)
_cell_angle_gamma                90
_cell_volume                     1161.41
_cell_formula_units_Z            4
loop_
_atom_site_label
_atom_site_type_symbol
_atom_site_fract_x
_atom_site_fract_y
_atom_site_fract_z
Br1 Br 0.24588(7) -0.06968(3) 0.56927(2)
N1 N 0.4550(4) 0.12418(19) 0.69410(14)
C1 C 0.2607(5) 0.1945(2) 0.67077(17)
C2 C 0.4734(5) 0.1134(2) 0.77316(17)
C3 C 0.6179(5) 0.0713(2) 0.64550(18)
H1 H 0.7876 0.0784 0.6692
H2 H 0.6058 0.1092 0.5967
C4 C 0.2846(5) 0.1754(2) 0.80131(17)
C5 C -0.0487(6) 0.3007(3) 0.7264(2)
H3 H -0.1249 0.3238 0.7685
C6 C 0.1508(5) 0.2284(2) 0.73618(17)
C7 C 0.6259(6) 0.0608(3) 0.89922(19)
H4 H 0.7410 0.0238 0.9330
C8 C 0.2678(6) 0.1767(3) 0.88012(18)
H5 H 0.1426 0.2159 0.8998
C9 C 0.6462(6) 0.0560(2) 0.82197(18)
H6 H 0.7713 0.0158 0.8031
C10 C 0.4386(6) 0.1193(3) 0.92822(19)
H7 H 0.4283 0.1197 0.9807
C11 C -0.1319(6) 0.3377(3) 0.6541(2)
H8 H -0.2643 0.3862 0.6474
C12 C 0.1773(6) 0.2315(3) 0.59753(19)
H9 H 0.2512 0.2088 0.5549
C13 C -0.0195(6) 0.3032(3) 0.5906(2)
H10 H -0.0790 0.3292 0.5423
C14 C 0.5630(5) -0.0473(3) 0.63077(19)
H11 H 0.5617 -0.0847 0.6794
H12 H 0.6938 -0.0790 0.6045
loop_
_geom_bond_atom_site_label_1
_geom_bond_atom_site_label_2
_geom_bond_site_symmetry_1
_geom_bond_site_symmetry_2
Br1 C14 1_555 1_555
N1 C1 1_555 1_555
C1 C6 1_555 1_555
C2 N1 1_555 1_555
C3 N1 1_555 1_555
H1 C3 1_555 1_555
H2 C3 1_555 1_555
C4 C2 1_555 1_555
C5 H3 1_555 1_555
C6 C4 1_555 1_555
C7 H4 1_555 1_555
C8 C4 1_555 1_555
H5 C8 1_555 1_555
C9 C2 1_555 1_555
H6 C9 1_555 1_555
C10 C7 1_555 1_555
H7 C10 1_555 1_555
C11 C5 1_555 1_555
H8 C11 1_555 1_555
C12 C1 1_555 1_555
H9 C12 1_555 1_555
C13 C11 1_555 1_555
H10 C13 1_555 1_555
C14 C3 1_555 1_555
H11 C14 1_555 1_555
H12 C14 1_555 1_555
C5 C6 1_555 1_555
C7 C9 1_555 1_555
C8 C10 1_555 1_555
C12 C13 1_555 1_555

#END
