
#######################################################################
#
#                 Cambridge Crystallographic Data Centre
#                                CCDC 
#
#######################################################################
#
# If this CIF has been generated from an entry in the Cambridge 
# Structural Database, then it will include bibliographic, chemical, 
# crystal, experimental, refinement or atomic coordinate data resulting 
# from the CCDC's data processing and validation procedures.
#
#######################################################################

data_XEBBAJ
_chemical_formula_moiety         'C16 H13 Cl1 N4 S1'
_chemical_name_systematic        
N-(4-Chlorophenyl)-5-(4,5-dihydro-1H-imidazol-2-yl)thieno[2,3-b]pyridin-4-amine
_symmetry_cell_setting           monoclinic
_symmetry_space_group_name_H-M   'P 21/c'
_symmetry_Int_Tables_number      14
_space_group_name_Hall           '-P 2ybc'
loop_
_symmetry_equiv_pos_site_id
_symmetry_equiv_pos_as_xyz
1 x,y,z
2 -x,1/2+y,1/2-z
3 -x,-y,-z
4 x,1/2-y,1/2+z
_cell_length_a                   17.784(3)
_cell_length_b                   6.2264(4)
_cell_length_c                   13.6226(18)
_cell_angle_alpha                90
_cell_angle_beta                 102.700(4)
_cell_angle_gamma                90
_cell_volume                     1471.53
_exptl_crystal_colour            colorless
_exptl_crystal_description       plate
_cell_formula_units_Z            4
loop_
_atom_site_label
_atom_site_type_symbol
_atom_site_fract_x
_atom_site_fract_y
_atom_site_fract_z
S1 S 0.12641(12) 0.5151(2) 0.60112(15)
N1 N 0.0697(3) 0.2115(6) 0.7026(4)
N2 N 0.2209(3) -0.3570(7) 0.8955(4)
N3 N 0.0959(3) -0.3191(7) 0.8940(4)
H1 H 0.0473(11) -0.288(8) 0.869(4)
C1 C 0.0829(3) 0.0361(8) 0.7610(4)
H2 H 0.0394 -0.0312 0.7777
C2 C 0.1545(3) -0.0563(7) 0.7995(4)
C3 C 0.2210(3) 0.0395(8) 0.7765(5)
C4 C 0.2088(4) 0.2238(8) 0.7136(5)
C5 C 0.2606(4) 0.3478(10) 0.6675(6)
H3 H 0.3144 0.3211 0.6777
C6 C 0.2236(5) 0.5055(10) 0.6084(6)
H4 H 0.2493 0.6035 0.5736
C7 C 0.1334(4) 0.2970(8) 0.6822(5)
Cl1 Cl 0.6039(3) 0.3366(8) 0.9082(4)
N4 N 0.2952(7) -0.067(3) 0.8204(17)
H5 H 0.292(7) -0.200(8) 0.842(9)
C8 C 0.3602(3) 0.0556(17) 0.8170(11)
C9 C 0.3724(3) 0.2610(16) 0.8574(12)
H6 H 0.3297 0.3483 0.8629
C10 C 0.4470(3) 0.3387(12) 0.8896(11)
H7 H 0.4554 0.4790 0.9172
C11 C 0.5095(3) 0.2109(10) 0.8815(5)
C12 C 0.4973(4) 0.0056(14) 0.8411(8)
H8 H 0.5400 -0.0817 0.8356
C13 C 0.4227(4) -0.0721(16) 0.8089(10)
H9 H 0.4143 -0.2124 0.7813
C14 C 0.1587(2) -0.2514(6) 0.8627(3)
C15 C 0.2003(2) -0.5287(6) 0.9594(4)
H10 H 0.2272 -0.5067 1.0304
H11 H 0.2153 -0.6706 0.9371
C16 C 0.1138(3) -0.5183(6) 0.9492(3)
H12 H 0.0875 -0.6421 0.9108
H13 H 0.1000 -0.5117 1.0157
C17? C 0.4582(4) 0.3178(14) 0.9004(9)
C18? C 0.5200(4) 0.1836(17) 0.8968(9)
C19? C 0.5071(3) -0.0313(16) 0.8709(9)
C20? C 0.4325(3) -0.1121(14) 0.8486(7)
C21? C 0.3706(3) 0.0220(11) 0.8521(6)
C22? C 0.3835(4) 0.2370(11) 0.8780(8)
Cl2? Cl 0.6109(3) 0.2495(8) 0.9508(4)
H14? H 0.4670 0.4647 0.9181
H15? H 0.5494 -0.1230 0.8685
H16? H 0.4237 -0.2590 0.8309
H17? H 0.2828 -0.1058 0.8574
H18? H 0.3412 0.3287 0.8805
N5? N 0.2871(4) -0.045(2) 0.8004(14)
loop_
_geom_bond_atom_site_label_1
_geom_bond_atom_site_label_2
_geom_bond_site_symmetry_1
_geom_bond_site_symmetry_2
S1 C6 1_555 1_555
N1 C1 1_555 1_555
N2 C14 1_555 1_555
N3 H1 1_555 1_555
C1 H2 1_555 1_555
C2 C1 1_555 1_555
C3 C2 1_555 1_555
C4 C3 1_555 1_555
C5 C4 1_555 1_555
H3 C5 1_555 1_555
C6 C5 1_555 1_555
H4 C6 1_555 1_555
C7 S1 1_555 1_555
Cl1 C11 1_555 1_555
N4 C3 1_555 1_555
H5 N4 1_555 1_555
C8 N4 1_555 1_555
C9 C8 1_555 1_555
H6 C9 1_555 1_555
C10 C9 1_555 1_555
H7 C10 1_555 1_555
C11 C10 1_555 1_555
C12 C11 1_555 1_555
H8 C12 1_555 1_555
C13 C8 1_555 1_555
H9 C13 1_555 1_555
C14 N3 1_555 1_555
C15 N2 1_555 1_555
H10 C15 1_555 1_555
H11 C15 1_555 1_555
C16 N3 1_555 1_555
H12 C16 1_555 1_555
H13 C16 1_555 1_555
N1 C7 1_555 1_555
C2 C14 1_555 1_555
C4 C7 1_555 1_555
C12 C13 1_555 1_555
C15 C16 1_555 1_555

#END
