
#######################################################################
#
#                 Cambridge Crystallographic Data Centre
#                                CCDC 
#
#######################################################################
#
# If this CIF has been generated from an entry in the Cambridge 
# Structural Database, then it will include bibliographic, chemical, 
# crystal, experimental, refinement or atomic coordinate data resulting 
# from the CCDC's data processing and validation procedures.
#
#######################################################################

data_XEBGUI
_chemical_formula_moiety         'C6 H5 O4 S1 1-,C5 H6 N3 O2 1+'
_chemical_name_systematic        
'2-Amino-3-nitropyridinium 4-hydroxybenzenesulfonate'
_symmetry_cell_setting           monoclinic
_symmetry_space_group_name_H-M   'C c'
_symmetry_Int_Tables_number      9
_space_group_name_Hall           'C -2yc'
loop_
_symmetry_equiv_pos_site_id
_symmetry_equiv_pos_as_xyz
1 x,y,z
2 x,-y,1/2+z
3 1/2+x,1/2+y,z
4 1/2+x,1/2-y,1/2+z
_cell_length_a                   9.0683(19)
_cell_length_b                   13.5177(16)
_cell_length_c                   10.9203(17)
_cell_angle_alpha                90
_cell_angle_beta                 94.042(14)
_cell_angle_gamma                90
_cell_volume                     1335.31
_exptl_crystal_colour            yellow
_exptl_crystal_description       block
_chemical_melting_point          '481 K'
_cell_formula_units_Z            4
loop_
_atom_site_label
_atom_site_type_symbol
_atom_site_fract_x
_atom_site_fract_y
_atom_site_fract_z
S1 S 0.61553(5) 0.16714(3) 0.00229(4)
O3 O 1.09361(18) -0.09220(13) 0.20630(15)
O4 O 0.57072(19) 0.22726(11) 0.10356(14)
O5 O 0.49921(15) 0.10255(11) -0.04791(14)
O6 O 0.67629(17) 0.22667(11) -0.09397(13)
C1 C 0.9047(3) -0.05629(15) 0.0470(2)
H4 H 0.9272 -0.1133 0.0045
C2 C 0.9832(2) -0.03311(14) 0.15597(17)
C4 C 0.8393(2) 0.11399(14) 0.17267(17)
H6 H 0.8172 0.1712 0.2149
C7 C 0.7930(2) 0.00511(15) 0.00116(18)
H9 H 0.7403 -0.0106 -0.0724
C10 C 0.9519(2) 0.05312(16) 0.21828(18)
H10 H 1.0069 0.0697 0.2905
C11 C 0.7585(2) 0.09035(13) 0.06404(17)
H11 H 1.099(3) -0.136(2) 0.164(3)
O1 O 0.27111(18) 0.05257(12) -0.51298(15)
O2 O 0.35055(19) 0.09208(11) -0.68818(14)
N1 N 0.4364(2) 0.09853(13) -0.30840(16)
H1 H 0.4637 0.1008 -0.2314
H2 H 0.3651 0.0603 -0.3342
N2 N 0.35713(19) 0.09660(12) -0.57633(16)
N3 N 0.61555(19) 0.21303(12) -0.34220(15)
H3 H 0.6404 0.2109 -0.2648
C3 C 0.6574(3) 0.28190(19) -0.5342(2)
H5 H 0.7071 0.3261 -0.5819
C5 C 0.6903(3) 0.27529(18) -0.4120(2)
H7 H 0.7657 0.3142 -0.3753
C6 C 0.5476(3) 0.22104(17) -0.58661(19)
H8 H 0.5247 0.2231 -0.6709
C8 C 0.5037(2) 0.15357(14) -0.38655(17)
C9 C 0.4725(2) 0.15784(13) -0.51561(17)
loop_
_geom_bond_atom_site_label_1
_geom_bond_atom_site_label_2
_geom_bond_site_symmetry_1
_geom_bond_site_symmetry_2
S1 O4 1_555 1_555
O1 N2 1_555 1_555
O2 N2 1_555 1_555
O3 C2 1_555 1_555
O5 S1 1_555 1_555
O6 S1 1_555 1_555
N1 H1 1_555 1_555
H2 N1 1_555 1_555
N2 C9 1_555 1_555
N3 H3 1_555 1_555
C1 H4 1_555 1_555
C2 C1 1_555 1_555
C3 H5 1_555 1_555
C4 H6 1_555 1_555
C5 N3 1_555 1_555
H7 C5 1_555 1_555
C6 C3 1_555 1_555
H8 C6 1_555 1_555
C7 C1 1_555 1_555
H9 C7 1_555 1_555
C8 N1 1_555 1_555
C9 C6 1_555 1_555
C10 C2 1_555 1_555
H10 C10 1_555 1_555
C11 S1 1_555 1_555
H11 O3 1_555 1_555
N3 C8 1_555 1_555
C3 C5 1_555 1_555
C4 C10 1_555 1_555
C4 C11 1_555 1_555
C7 C11 1_555 1_555
C8 C9 1_555 1_555

#END
