
#######################################################################
#
#                 Cambridge Crystallographic Data Centre
#                                CCDC 
#
#######################################################################
#
# If this CIF has been generated from an entry in the Cambridge 
# Structural Database, then it will include bibliographic, chemical, 
# crystal, experimental, refinement or atomic coordinate data resulting 
# from the CCDC's data processing and validation procedures.
#
#######################################################################

data_XEBHES
_chemical_formula_moiety         'C8 H10 Cl1 N1 O1'
_chemical_name_systematic        
rac-2-Chlorobicyclo(2.2.1)hept-5-ene-exo-2-carboxamide
_symmetry_cell_setting           monoclinic
_symmetry_space_group_name_H-M   'P 21/c'
_symmetry_Int_Tables_number      14
_space_group_name_Hall           '-P 2ybc'
loop_
_symmetry_equiv_pos_site_id
_symmetry_equiv_pos_as_xyz
1 x,y,z
2 -x,1/2+y,1/2-z
3 -x,-y,-z
4 x,1/2-y,1/2+z
_cell_length_a                   12.987(3)
_cell_length_b                   5.9170(10)
_cell_length_c                   10.524(3)
_cell_angle_alpha                90
_cell_angle_beta                 104.006(9)
_cell_angle_gamma                90
_cell_volume                     784.665
_exptl_crystal_colour            colorless
_exptl_crystal_description       plate
_chemical_melting_point          '112-114 deg.C'
_cell_formula_units_Z            4
loop_
_atom_site_label
_atom_site_type_symbol
_atom_site_fract_x
_atom_site_fract_y
_atom_site_fract_z
C1 C 0.30275(14) 0.0614(3) 0.91347(17)
C2 C 0.19616(15) 0.1821(4) 0.8470(2)
H1 H 0.2010 0.3093 0.7862
C3 C 0.11832(16) -0.0043(4) 0.7920(2)
H2 H 0.0911 -0.0377 0.7019
C4 C 0.09506(16) -0.1114(4) 0.8902(2)
H3 H 0.0479 -0.2359 0.8840
C5 C 0.15673(17) -0.0016(4) 1.0152(2)
H4 H 0.1285 -0.0277 1.0944
C6 C 0.27472(15) -0.0617(4) 1.02996(18)
H5 H 0.3189 -0.0064 1.1144
H6 H 0.2845 -0.2271 1.0242
C7 C 0.15764(17) 0.2438(4) 0.9705(2)
H7 H 0.2088 0.3391 1.0329
H8 H 0.0863 0.3141 0.9498
C8 C 0.39123(14) 0.2384(3) 0.95366(17)
N1 N 0.44537(14) 0.2944(3) 0.86654(18)
O1 O 0.40512(10) 0.3302(2) 1.06178(12)
Cl1 Cl 0.33922(4) -0.13884(9) 0.80331(5)
H9 H 0.4901(17) 0.399(4) 0.885(2)
H10 H 0.4344(17) 0.232(4) 0.798(2)
loop_
_geom_bond_atom_site_label_1
_geom_bond_atom_site_label_2
_geom_bond_site_symmetry_1
_geom_bond_site_symmetry_2
C1 C2 1_555 1_555
C2 H1 1_555 1_555
C3 C2 1_555 1_555
H2 C3 1_555 1_555
C4 C3 1_555 1_555
H3 C4 1_555 1_555
C5 C4 1_555 1_555
H4 C5 1_555 1_555
C6 C1 1_555 1_555
H5 C6 1_555 1_555
H6 C6 1_555 1_555
C7 C2 1_555 1_555
H7 C7 1_555 1_555
H8 C7 1_555 1_555
C8 C1 1_555 1_555
N1 C8 1_555 1_555
O1 C8 1_555 1_555
Cl1 C1 1_555 1_555
H9 N1 1_555 1_555
H10 N1 1_555 1_555
C5 C6 1_555 1_555
C5 C7 1_555 1_555

#END
