
#######################################################################
#
#                 Cambridge Crystallographic Data Centre
#                                CCDC 
#
#######################################################################
#
# If this CIF has been generated from an entry in the Cambridge 
# Structural Database, then it will include bibliographic, chemical, 
# crystal, experimental, refinement or atomic coordinate data resulting 
# from the CCDC's data processing and validation procedures.
#
#######################################################################

data_XEBMUN
_chemical_formula_moiety         'C30 H46 O3'
_chemical_name_systematic        
(16\b,24R)-16,24-Epoxy-25-hydroxycycloart-1-en-3-one
_chemical_properties_biological  
'Some activity against HCT-15, K562, PC-3 and U251 human cancer cell lines'
_symmetry_cell_setting           orthorhombic
_symmetry_space_group_name_H-M   'P 21 21 21'
_symmetry_Int_Tables_number      19
_space_group_name_Hall           'P 2ac 2ab'
loop_
_symmetry_equiv_pos_site_id
_symmetry_equiv_pos_as_xyz
1 x,y,z
2 1/2-x,-y,1/2+z
3 -x,1/2+y,1/2-z
4 1/2+x,1/2-y,-z
_cell_length_a                   11.710(2)
_cell_length_b                   12.128(2)
_cell_length_c                   18.811(4)
_cell_angle_alpha                90
_cell_angle_beta                 90
_cell_angle_gamma                90
_cell_volume                     2671.52
_exptl_crystal_colour            'pale yellow'
_exptl_crystal_description       'irregular prism'
_chemical_melting_point          165-167deg.C
_cell_formula_units_Z            4
loop_
_atom_site_label
_atom_site_type_symbol
_atom_site_fract_x
_atom_site_fract_y
_atom_site_fract_z
O1 O -0.5950(3) -1.6463(2) -0.17545(17)
O2 O -0.05266(18) -0.89068(17) -0.11293(13)
O3 O -0.0935(3) -0.6783(2) -0.1202(2)
H1 H -0.127(4) -0.741(4) -0.131(2)
C1 C -0.3188(4) -1.5306(3) -0.1619(2)
H2 H -0.251(4) -1.551(4) -0.155(2)
C2 C -0.4013(4) -1.6049(3) -0.1640(2)
H3 H -0.382(3) -1.700(3) -0.152(2)
C3 C -0.5202(4) -1.5758(3) -0.17660(19)
C4 C -0.5468(3) -1.4562(3) -0.19424(18)
C5 C -0.4631(3) -1.3840(3) -0.15118(17)
H4 H -0.4725 -1.4087 -0.1031
C6 C -0.4853(3) -1.2606(3) -0.15014(17)
H5 H -0.5612 -1.2460 -0.1334
H6 H -0.4784 -1.2316 -0.1974
C7 C -0.3973(3) -1.2049(3) -0.10269(17)
H7 H -0.3943 -1.2426 -0.0579
H8 H -0.4190 -1.1297 -0.0941
C8 C -0.2785(3) -1.2097(3) -0.13639(16)
H9 H -0.2839 -1.1677 -0.1795
C9 C -0.2438(3) -1.3279(3) -0.15879(16)
C10 C -0.3401(3) -1.4122(3) -0.17029(17)
C11 C -0.1291(3) -1.3726(3) -0.1325(2)
H10 H -0.1069 -1.4320 -0.1633
H11 H -0.1409 -1.4031 -0.0860
C12 C -0.0298(3) -1.2902(3) -0.1277(2)
H12 H 0.0226 -1.3049 -0.1658
H13 H 0.0103 -1.3009 -0.0837
C13 C -0.0665(3) -1.1688(3) -0.13165(16)
C14 C -0.1826(3) -1.1541(3) -0.09310(16)
C15 C -0.1926(3) -1.0287(3) -0.08892(19)
H14 H -0.2460 -1.0072 -0.0527
H15 H -0.2167 -0.9988 -0.1337
C16 C -0.0718(3) -0.9889(3) -0.07196(18)
H16 H -0.0654 -0.9719 -0.0223
C17 C 0.0110(3) -1.0854(3) -0.09169(16)
H17 H 0.0345 -1.1214 -0.0487
C18 C -0.0748(3) -1.1356(3) -0.21108(16)
H18 H -0.0020 -1.1458 -0.2336
H19 H -0.1307 -1.1813 -0.2341
H20 H -0.0972 -1.0597 -0.2149
C19 C -0.2794(3) -1.3583(3) -0.23329(17)
H21 H -0.2281 -1.4026 -0.2611
H22 H -0.3214 -1.3040 -0.2597
C20 C 0.1219(3) -1.0458(3) -0.12712(18)
H23 H 0.1006 -1.0023 -0.1676
C21 C 0.1994(3) -1.1392(3) -0.1508(2)
H24 H 0.1587 -1.1853 -0.1837
H25 H 0.2662 -1.1099 -0.1735
H26 H 0.2216 -1.1820 -0.1101
C22 C 0.1912(3) -0.9698(3) -0.0782(2)
H27 H 0.2564 -0.9408 -0.1029
H28 H 0.2193 -1.0168 -0.0411
C23 C 0.1277(3) -0.8723(3) -0.0445(2)
H29 H 0.1817 -0.8180 -0.0287
H30 H 0.0859 -0.8979 -0.0038
C24 C 0.0421(3) -0.8197(3) -0.0948(2)
H31 H 0.0838 -0.8034 -0.1374
C25 C -0.0066(3) -0.7100(3) -0.0697(2)
C26 C 0.0818(4) -0.6196(3) -0.0755(3)
H32 H 0.0513 -0.5515 -0.0577
H33 H 0.1457 -0.6415 -0.0468
H34 H 0.1064 -0.6097 -0.1238
C27 C -0.0591(4) -0.7153(4) 0.0021(3)
H35 H -0.0891 -0.6452 0.0167
H36 H -0.1200 -0.7682 -0.0002
H37 H -0.0029 -0.7396 0.0357
C28 C -0.1812(3) -1.1991(3) -0.01622(16)
H38 H -0.2544 -1.1879 0.0057
H39 H -0.1635 -1.2763 -0.0166
H40 H -0.1238 -1.1601 0.0102
C29 C -0.5306(4) -1.4437(3) -0.27573(19)
H41 H -0.4530 -1.4585 -0.2890
H42 H -0.5803 -1.4948 -0.2994
H43 H -0.5504 -1.3698 -0.2893
C30 C -0.6712(3) -1.4308(4) -0.1755(3)
H44 H -0.7208 -1.4753 -0.2043
H45 H -0.6836 -1.4478 -0.1263
H46 H -0.6874 -1.3543 -0.1837
loop_
_geom_bond_atom_site_label_1
_geom_bond_atom_site_label_2
_geom_bond_site_symmetry_1
_geom_bond_site_symmetry_2
O1 C3 1_555 1_555
O2 C16 1_555 1_555
O3 H1 1_555 1_555
C1 H2 1_555 1_555
C2 C1 1_555 1_555
H3 C2 1_555 1_555
C3 C2 1_555 1_555
C4 C3 1_555 1_555
C5 C4 1_555 1_555
H4 C5 1_555 1_555
C6 C5 1_555 1_555
H5 C6 1_555 1_555
H6 C6 1_555 1_555
C7 C6 1_555 1_555
H7 C7 1_555 1_555
H8 C7 1_555 1_555
C8 C7 1_555 1_555
H9 C8 1_555 1_555
C9 C8 1_555 1_555
C10 C1 1_555 1_555
C11 C9 1_555 1_555
H10 C11 1_555 1_555
H11 C11 1_555 1_555
C12 C11 1_555 1_555
H12 C12 1_555 1_555
H13 C12 1_555 1_555
C13 C12 1_555 1_555
C14 C8 1_555 1_555
C15 C14 1_555 1_555
H14 C15 1_555 1_555
H15 C15 1_555 1_555
C16 C15 1_555 1_555
H16 C16 1_555 1_555
C17 C13 1_555 1_555
H17 C17 1_555 1_555
C18 C13 1_555 1_555
H18 C18 1_555 1_555
H19 C18 1_555 1_555
H20 C18 1_555 1_555
C19 C9 1_555 1_555
H21 C19 1_555 1_555
H22 C19 1_555 1_555
C20 C17 1_555 1_555
H23 C20 1_555 1_555
C21 C20 1_555 1_555
H24 C21 1_555 1_555
H25 C21 1_555 1_555
H26 C21 1_555 1_555
C22 C20 1_555 1_555
H27 C22 1_555 1_555
H28 C22 1_555 1_555
C23 C22 1_555 1_555
H29 C23 1_555 1_555
H30 C23 1_555 1_555
C24 O2 1_555 1_555
H31 C24 1_555 1_555
C25 O3 1_555 1_555
C26 C25 1_555 1_555
H32 C26 1_555 1_555
H33 C26 1_555 1_555
H34 C26 1_555 1_555
C27 C25 1_555 1_555
H35 C27 1_555 1_555
H36 C27 1_555 1_555
H37 C27 1_555 1_555
C28 C14 1_555 1_555
H38 C28 1_555 1_555
H39 C28 1_555 1_555
H40 C28 1_555 1_555
C29 C4 1_555 1_555
H41 C29 1_555 1_555
H42 C29 1_555 1_555
H43 C29 1_555 1_555
C30 C4 1_555 1_555
H44 C30 1_555 1_555
H45 C30 1_555 1_555
H46 C30 1_555 1_555
C5 C10 1_555 1_555
C9 C10 1_555 1_555
C10 C19 1_555 1_555
C13 C14 1_555 1_555
C16 C17 1_555 1_555
C23 C24 1_555 1_555
C24 C25 1_555 1_555

#END
