
#######################################################################
#
#                 Cambridge Crystallographic Data Centre
#                                CCDC 
#
#######################################################################
#
# If this CIF has been generated from an entry in the Cambridge 
# Structural Database, then it will include bibliographic, chemical, 
# crystal, experimental, refinement or atomic coordinate data resulting 
# from the CCDC's data processing and validation procedures.
#
#######################################################################

data_XEBXOU
_chemical_formula_moiety         'C22 H20 O6'
_chemical_name_systematic        
2-((E)-3-oxobut-1-en-1-yl)phenyl(E)-3-(4-acetoxy-3-methoxyphenyl)acrylate
_symmetry_cell_setting           monoclinic
_symmetry_space_group_name_H-M   'P 21/c'
_symmetry_Int_Tables_number      14
_space_group_name_Hall           '-P 2ybc'
loop_
_symmetry_equiv_pos_site_id
_symmetry_equiv_pos_as_xyz
1 x,y,z
2 -x,1/2+y,1/2-z
3 -x,-y,-z
4 x,1/2-y,1/2+z
_cell_length_a                   6.07840(10)
_cell_length_b                   17.3377(4)
_cell_length_c                   18.3150(5)
_cell_angle_alpha                90
_cell_angle_beta                 90.5980(10)
_cell_angle_gamma                90
_cell_volume                     1930.03
_exptl_crystal_colour            colorless
_exptl_crystal_description       Prism
_cell_formula_units_Z            4
loop_
_atom_site_label
_atom_site_type_symbol
_atom_site_fract_x
_atom_site_fract_y
_atom_site_fract_z
O1 O 0.8087(2) 1.14704(8) 0.21564(8)
O2 O 1.0179(2) 1.10146(8) 0.12438(9)
O3 O 0.4285(2) 0.76878(8) -0.04855(8)
O4 O 0.0599(2) 0.75979(8) 0.02750(8)
O5 O 0.2711(3) 0.66795(9) 0.07869(10)
O6 O 1.1927(3) 0.95602(12) 0.36514(13)
C1 C 0.8521(3) 1.09764(12) 0.15923(12)
C2 C 0.6731(3) 1.04253(11) 0.14947(11)
H1 H 0.5527 1.0430 0.1821
C3 C 0.6771(3) 0.99190(11) 0.09566(11)
H2 H 0.8007 0.9941 0.0644
C4 C 0.5117(3) 0.93235(11) 0.07856(11)
C5 C 0.5553(3) 0.87992(11) 0.02240(11)
H3 H 0.6878 0.8842 -0.0044
C6 C 0.4067(3) 0.82178(11) 0.00555(11)
C7 C 0.2159(3) 0.81603(11) 0.04618(11)
C8 C 0.1687(3) 0.86785(12) 0.10033(12)
H4 H 0.0354 0.8634 0.1266
C9 C 0.3152(3) 0.92658(11) 0.11677(12)
H5 H 0.2819 0.9628 0.1540
C10 C 0.6137(3) 0.77711(13) -0.09509(12)
H6 H 0.6067 0.8273 -0.1197
H7 H 0.6123 0.7359 -0.1317
H8 H 0.7494 0.7739 -0.0659
C11 C 0.1124(3) 0.68530(13) 0.04338(12)
C12 C -0.0514(4) 0.63159(13) 0.01024(14)
H9 H -0.0346 0.6312 -0.0429
H10 H -0.2003 0.6487 0.0224
H11 H -0.0272 0.5795 0.0294
C13 C 0.9700(3) 1.20315(12) 0.23232(11)
C14 C 1.1500(3) 1.18261(13) 0.27571(12)
C15 C 1.3007(3) 1.24172(14) 0.29390(12)
H12 H 1.4254 1.2302 0.3236
C16 C 1.2691(4) 1.31562(13) 0.26917(12)
H13 H 1.3731 1.3546 0.2813
C17 C 1.0865(3) 1.33378(13) 0.22653(13)
H14 H 1.0646 1.3853 0.2102
C18 C 0.9357(3) 1.27684(12) 0.20760(13)
H15 H 0.8109 1.2888 0.1780
C19 C 1.1749(3) 1.10422(13) 0.30289(12)
H16 H 1.0482 1.0722 0.3003
C20 C 1.3557(4) 1.07276(14) 0.33088(13)
H17 H 1.4885 1.1017 0.3305
C21 C 1.3586(4) 0.99539(15) 0.36229(15)
C22 C 1.5648(5) 0.96676(18) 0.3955(2)
H18 H 1.5394 0.9159 0.4171
H19 H 1.6144 1.0027 0.4335
H20 H 1.6777 0.9627 0.3578
loop_
_geom_bond_atom_site_label_1
_geom_bond_atom_site_label_2
_geom_bond_site_symmetry_1
_geom_bond_site_symmetry_2
O1 C1 1_555 1_555
O2 C1 1_555 1_555
O3 C6 1_555 1_555
O4 C7 1_555 1_555
O5 C11 1_555 1_555
O6 C21 1_555 1_555
C1 C2 1_555 1_555
C2 H1 1_555 1_555
C3 C2 1_555 1_555
H2 C3 1_555 1_555
C4 C3 1_555 1_555
C5 C4 1_555 1_555
H3 C5 1_555 1_555
C6 C5 1_555 1_555
C7 C6 1_555 1_555
C8 C7 1_555 1_555
H4 C8 1_555 1_555
C9 C4 1_555 1_555
H5 C9 1_555 1_555
C10 O3 1_555 1_555
H6 C10 1_555 1_555
H7 C10 1_555 1_555
H8 C10 1_555 1_555
C11 O4 1_555 1_555
C12 C11 1_555 1_555
H9 C12 1_555 1_555
H10 C12 1_555 1_555
H11 C12 1_555 1_555
C13 O1 1_555 1_555
C14 C13 1_555 1_555
C15 C14 1_555 1_555
H12 C15 1_555 1_555
C16 C15 1_555 1_555
H13 C16 1_555 1_555
C17 C16 1_555 1_555
H14 C17 1_555 1_555
C18 C13 1_555 1_555
H15 C18 1_555 1_555
C19 C14 1_555 1_555
H16 C19 1_555 1_555
C20 C19 1_555 1_555
H17 C20 1_555 1_555
C21 C20 1_555 1_555
C22 C21 1_555 1_555
H18 C22 1_555 1_555
H19 C22 1_555 1_555
H20 C22 1_555 1_555
C8 C9 1_555 1_555
C17 C18 1_555 1_555

#END
