
#######################################################################
#
#                 Cambridge Crystallographic Data Centre
#                                CCDC 
#
#######################################################################
#
# If this CIF has been generated from an entry in the Cambridge 
# Structural Database, then it will include bibliographic, chemical, 
# crystal, experimental, refinement or atomic coordinate data resulting 
# from the CCDC's data processing and validation procedures.
#
#######################################################################

data_XEBYUB
_chemical_formula_moiety         'C17 H15 Br1 N2 O2'
_chemical_name_systematic        
2-acetyl-3-(2-bromophenyl)-2-methyl-2,3-dihydroquinazolin-4(1H)-one
_symmetry_cell_setting           orthorhombic
_symmetry_space_group_name_H-M   'P n a 21'
_symmetry_Int_Tables_number      33
_space_group_name_Hall           'P 2c -2n'
loop_
_symmetry_equiv_pos_site_id
_symmetry_equiv_pos_as_xyz
1 x,y,z
2 -x,-y,1/2+z
3 1/2+x,1/2-y,z
4 1/2-x,1/2+y,1/2+z
_cell_length_a                   12.957(2)
_cell_length_b                   30.147(5)
_cell_length_c                   16.771(3)
_cell_angle_alpha                90
_cell_angle_beta                 90
_cell_angle_gamma                90
_cell_volume                     6551
_exptl_crystal_colour            colorless
_exptl_crystal_description       block
_cell_formula_units_Z            16
loop_
_atom_site_label
_atom_site_type_symbol
_atom_site_fract_x
_atom_site_fract_y
_atom_site_fract_z
Br1 Br 0.09430(9) 0.30128(3) 1.15012(8)
N1 N 0.0724(4) 0.24073(18) 1.0019(4)
O1 O 0.1947(4) 0.28648(16) 0.9515(4)
N2 N -0.1015(5) 0.24886(19) 0.9624(4)
C1 C 0.1057(6) 0.2722(2) 0.9476(5)
C2 C -0.0772(5) 0.2764(2) 0.8996(5)
C3 C -0.0262(5) 0.2169(2) 0.9885(5)
C4 C -0.0082(7) 0.1831(2) 0.9194(5)
C5 C 0.2342(7) 0.2321(3) 1.1859(6)
H1 H 0.2469 0.2479 1.2325
C6 C -0.0647(5) 0.1945(2) 1.0640(5)
H2 H -0.1286 0.1795 1.0531
H3 H -0.0756 0.2164 1.1046
H4 H -0.0144 0.1734 1.0820
C7 C 0.0258(6) 0.2874(2) 0.8901(5)
O2 O 0.0708(5) 0.1810(2) 0.8812(4)
C8 C 0.1452(5) 0.2243(2) 1.0610(5)
C9 C 0.2667(7) 0.1700(3) 1.1046(7)
H5 H 0.3001 0.1430 1.0967
C10 C -0.1520(6) 0.2951(3) 0.8481(6)
H6 H -0.2220 0.2894 0.8548
C11 C -0.0146(8) 0.3320(3) 0.7786(6)
H7 H 0.0053 0.3508 0.7373
C12 C 0.0579(6) 0.3150(2) 0.8285(5)
H8 H 0.1274 0.3216 0.8216
C13 C 0.1633(6) 0.2481(2) 1.1304(6)
C14 C -0.1176(8) 0.3217(3) 0.7887(6)
H9 H -0.1654 0.3336 0.7533
C15 C 0.1992(6) 0.1855(2) 1.0477(5)
H10 H 0.1901 0.1700 1.0003
C16 C 0.2849(8) 0.1933(3) 1.1715(8)
H11 H 0.3326 0.1828 1.2084
C17 C -0.0982(7) 0.1539(3) 0.8965(6)
H12 H -0.0777 0.1343 0.8542
H13 H -0.1545 0.1721 0.8788
H14 H -0.1195 0.1367 0.9418
H15 H -0.1657(14) 0.2426(18) 0.969(4)
Br2 Br 0.80547(9) 0.19299(3) 0.64569(8)
N3 N 0.9995(5) 0.24758(19) 0.4603(4)
N4 N 0.8273(4) 0.25712(18) 0.5026(4)
C18 C 0.9707(6) 0.2215(2) 0.3971(6)
C19 C 0.7909(6) 0.2283(2) 0.4479(5)
O3 O 0.7004(4) 0.21485(16) 0.4515(4)
C20 C 0.9274(5) 0.2811(2) 0.4899(5)
C21 C 0.7577(5) 0.2732(2) 0.5632(5)
C22 C 1.0054(9) 0.1763(3) 0.2844(7)
H16 H 1.0530 0.1631 0.2504
C23 C 0.9100(6) 0.3157(2) 0.4232(6)
C24 C 0.8660(5) 0.2118(2) 0.3899(5)
O4 O 0.8320(4) 0.31875(18) 0.3856(4)
C25 C 0.6270(7) 0.3034(3) 0.6779(7)
H17 H 0.5843 0.3144 0.7179
C26 C 0.9677(6) 0.3002(2) 0.5653(5)
H18 H 0.9775 0.2769 0.6037
H19 H 0.9192 0.3214 0.5859
H20 H 1.0325 0.3146 0.5553
C27 C 0.7385(6) 0.2481(2) 0.6316(5)
C28 C 1.0410(7) 0.2027(3) 0.3415(6)
H21 H 1.1112 0.2089 0.3450
C29 C 0.9001(8) 0.1669(3) 0.2722(6)
H22 H 0.8777 0.1497 0.2296
C30 C 0.7069(6) 0.3130(2) 0.5540(6)
H23 H 0.7172 0.3299 0.5082
C31 C 0.8318(6) 0.1847(2) 0.3272(5)
H24 H 0.7617 0.1786 0.3223
C32 C 0.6712(6) 0.2641(3) 0.6890(6)
H25 H 0.6572 0.2475 0.7345
C33 C 0.6404(7) 0.3279(3) 0.6128(7)
H26 H 0.6056 0.3547 0.6069
C34 C 1.0026(6) 0.3454(3) 0.4013(6)
H27 H 0.9826 0.3658 0.3601
H28 H 1.0585 0.3272 0.3825
H29 H 1.0245 0.3616 0.4475
H30 H 1.057(2) 0.2595(14) 0.474(3)
Br3 Br 0.64534(10) 0.55494(3) 0.23901(7)
N5 N 0.6231(5) 0.4905(2) 0.3816(4)
N6 N 0.4517(5) 0.4993(2) 0.4211(4)
C35 C 0.4788(7) 0.5257(2) 0.4842(5)
O5 O 0.7467(4) 0.53439(17) 0.4384(4)
C36 C 0.5823(7) 0.5355(2) 0.4956(5)
C37 C 0.6952(6) 0.4763(2) 0.3232(5)
C38 C 0.5377(7) 0.4311(3) 0.4628(6)
O6 O 0.6185(5) 0.4288(2) 0.4966(4)
C39 C 0.6580(6) 0.5198(2) 0.4379(6)
C40 C 0.5366(8) 0.5789(2) 0.6122(6)
H31 H 0.5565 0.5956 0.6563
C41 C 0.5261(6) 0.4674(2) 0.3929(5)
C42 C 0.7135(6) 0.4999(2) 0.2551(5)
C43 C 0.4041(7) 0.5445(3) 0.5333(6)
H32 H 0.3344 0.5400 0.5228
C44 C 0.4869(6) 0.4471(3) 0.3168(5)
H33 H 0.4828 0.4695 0.2763
H34 H 0.4196 0.4347 0.3257
H35 H 0.5332 0.4241 0.2999
C45 C 0.4344(8) 0.5700(3) 0.5981(6)
H36 H 0.3846 0.5813 0.6324
C46 C 0.8128(8) 0.4206(3) 0.2756(7)
H37 H 0.8439 0.3930 0.2818
C47 C 0.8334(6) 0.4446(3) 0.2111(7)
H38 H 0.8818 0.4345 0.1744
C48 C 0.6086(7) 0.5629(2) 0.5603(6)
H39 H 0.6775 0.5703 0.5680
C49 C 0.7467(6) 0.4357(3) 0.3331(5)
H40 H 0.7358 0.4190 0.3790
C50 C 0.7830(7) 0.4849(3) 0.1980(6)
H41 H 0.7956 0.5013 0.1520
C51 C 0.4487(6) 0.4025(3) 0.4782(6)
H42 H 0.4644 0.3826 0.5212
H43 H 0.4328 0.3858 0.4311
H44 H 0.3903 0.4205 0.4925
H45 H 0.3876(14) 0.4924(17) 0.424(4)
Br4 Br 0.14182(10) 0.44803(4) 0.23296(8)
C52 C -0.0128(7) 0.4699(2) 0.4874(5)
C53 C 0.1609(7) 0.4773(2) 0.4325(6)
N7 N 0.1217(5) 0.5077(2) 0.3816(4)
N8 N -0.0492(5) 0.4981(2) 0.4278(5)
O7 O 0.2483(4) 0.46208(18) 0.4286(4)
O8 O 0.1220(5) 0.56646(19) 0.5010(4)
C54 C 0.0905(7) 0.4597(2) 0.4920(5)
C55 C 0.0248(6) 0.5304(2) 0.3986(5)
C56 C 0.0520(8) 0.4146(3) 0.6078(6)
H46 H 0.0747 0.3966 0.6492
C57 C 0.3141(8) 0.5806(3) 0.2810(7)
H47 H 0.3478 0.6073 0.2902
C58 C -0.0499(8) 0.4243(3) 0.6005(6)
H48 H -0.0963 0.4127 0.6372
C59 C 0.0394(7) 0.5656(3) 0.4676(6)
C60 C 0.1906(6) 0.5244(2) 0.3234(6)
C61 C 0.2449(6) 0.5641(2) 0.3375(6)
H49 H 0.2346 0.5794 0.3850
C62 C -0.0861(7) 0.4512(3) 0.5399(6)
H50 H -0.1563 0.4568 0.5338
C63 C 0.2098(6) 0.5026(3) 0.2537(6)
C64 C 0.2787(8) 0.5183(4) 0.1966(6)
H51 H 0.2889 0.5032 0.1490
C65 C -0.0192(6) 0.5519(3) 0.3249(5)
H52 H -0.0262 0.5300 0.2836
H53 H 0.0263 0.5750 0.3072
H54 H -0.0857 0.5642 0.3370
C66 C 0.3322(8) 0.5577(4) 0.2132(8)
H55 H 0.3807 0.5683 0.1770
C67 C 0.1213(7) 0.4314(2) 0.5536(6)
H56 H 0.1906 0.4237 0.5580
C68 C -0.0487(7) 0.5941(3) 0.4895(6)
H57 H -0.0292 0.6132 0.5326
H58 H -0.1057 0.5758 0.5058
H59 H -0.0688 0.6116 0.4443
H60 H -0.1148(17) 0.501(3) 0.422(7)
loop_
_geom_bond_atom_site_label_1
_geom_bond_atom_site_label_2
_geom_bond_site_symmetry_1
_geom_bond_site_symmetry_2
Br1 C13 1_555 1_555
N1 C1 1_555 1_555
O1 C1 1_555 1_555
N2 C2 1_555 1_555
C1 C7 1_555 1_555
C2 C7 1_555 1_555
C3 N1 1_555 1_555
C4 C3 1_555 1_555
C5 H1 1_555 1_555
C6 C3 1_555 1_555
H2 C6 1_555 1_555
H3 C6 1_555 1_555
H4 C6 1_555 1_555
C7 C12 1_555 1_555
O2 C4 1_555 1_555
C8 N1 1_555 1_555
C9 H5 1_555 1_555
C10 C2 1_555 1_555
H6 C10 1_555 1_555
C11 H7 1_555 1_555
C12 C11 1_555 1_555
H8 C12 1_555 1_555
C13 C5 1_555 1_555
C14 C10 1_555 1_555
H9 C14 1_555 1_555
C15 C8 1_555 1_555
H10 C15 1_555 1_555
C16 C5 1_555 1_555
H11 C16 1_555 1_555
C17 C4 1_555 1_555
H12 C17 1_555 1_555
H13 C17 1_555 1_555
H14 C17 1_555 1_555
H15 N2 1_555 1_555
Br2 C27 1_555 1_555
N3 C18 1_555 1_555
N4 C19 1_555 1_555
C18 C24 1_555 1_555
C19 O3 1_555 1_555
C20 N3 1_555 1_555
C21 N4 1_555 1_555
C22 H16 1_555 1_555
C23 C20 1_555 1_555
C24 C19 1_555 1_555
O4 C23 1_555 1_555
C25 H17 1_555 1_555
C26 C20 1_555 1_555
H18 C26 1_555 1_555
H19 C26 1_555 1_555
H20 C26 1_555 1_555
C27 C21 1_555 1_555
C28 C18 1_555 1_555
H21 C28 1_555 1_555
C29 C22 1_555 1_555
H22 C29 1_555 1_555
C30 C21 1_555 1_555
H23 C30 1_555 1_555
C31 C24 1_555 1_555
H24 C31 1_555 1_555
C32 C25 1_555 1_555
H25 C32 1_555 1_555
C33 C25 1_555 1_555
H26 C33 1_555 1_555
C34 C23 1_555 1_555
H27 C34 1_555 1_555
H28 C34 1_555 1_555
H29 C34 1_555 1_555
H30 N3 1_555 1_555
Br3 C42 1_555 1_555
N5 C37 1_555 1_555
N6 C35 1_555 1_555
C35 C36 1_555 1_555
O5 C39 1_555 1_555
C36 C39 1_555 1_555
C37 C42 1_555 1_555
C38 O6 1_555 1_555
C39 N5 1_555 1_555
C40 H31 1_555 1_555
C41 N5 1_555 1_555
C42 C50 1_555 1_555
C43 C35 1_555 1_555
H32 C43 1_555 1_555
C44 C41 1_555 1_555
H33 C44 1_555 1_555
H34 C44 1_555 1_555
H35 C44 1_555 1_555
C45 C40 1_555 1_555
H36 C45 1_555 1_555
C46 H37 1_555 1_555
C47 C46 1_555 1_555
H38 C47 1_555 1_555
C48 C36 1_555 1_555
H39 C48 1_555 1_555
C49 C37 1_555 1_555
H40 C49 1_555 1_555
C50 C47 1_555 1_555
H41 C50 1_555 1_555
C51 C38 1_555 1_555
H42 C51 1_555 1_555
H43 C51 1_555 1_555
H44 C51 1_555 1_555
H45 N6 1_555 1_555
Br4 C63 1_555 1_555
C52 N8 1_555 1_555
C53 N7 1_555 1_555
N7 C55 1_555 1_555
N8 C55 1_555 1_555
O7 C53 1_555 1_555
O8 C59 1_555 1_555
C54 C52 1_555 1_555
C55 C59 1_555 1_555
C56 H46 1_555 1_555
C57 H47 1_555 1_555
C58 C56 1_555 1_555
H48 C58 1_555 1_555
C59 C68 1_555 1_555
C60 N7 1_555 1_555
C61 C57 1_555 1_555
H49 C61 1_555 1_555
C62 C52 1_555 1_555
H50 C62 1_555 1_555
C63 C60 1_555 1_555
C64 C63 1_555 1_555
H51 C64 1_555 1_555
C65 C55 1_555 1_555
H52 C65 1_555 1_555
H53 C65 1_555 1_555
H54 C65 1_555 1_555
C66 C57 1_555 1_555
H55 C66 1_555 1_555
C67 C54 1_555 1_555
H56 C67 1_555 1_555
C68 H57 1_555 1_555
H58 C68 1_555 1_555
H59 C68 1_555 1_555
H60 N8 1_555 1_555
N2 C3 1_555 1_555
C8 C13 1_555 1_555
C9 C15 1_555 1_555
C9 C16 1_555 1_555
C11 C14 1_555 1_555
N4 C20 1_555 1_555
C22 C28 1_555 1_555
C27 C32 1_555 1_555
C29 C31 1_555 1_555
C30 C33 1_555 1_555
N6 C41 1_555 1_555
C38 C41 1_555 1_555
C40 C48 1_555 1_555
C43 C45 1_555 1_555
C46 C49 1_555 1_555
C53 C54 1_555 1_555
C56 C67 1_555 1_555
C58 C62 1_555 1_555
C60 C61 1_555 1_555
C64 C66 1_555 1_555

#END
