
#######################################################################
#
#                 Cambridge Crystallographic Data Centre
#                                CCDC 
#
#######################################################################
#
# If this CIF has been generated from an entry in the Cambridge 
# Structural Database, then it will include bibliographic, chemical, 
# crystal, experimental, refinement or atomic coordinate data resulting 
# from the CCDC's data processing and validation procedures.
#
#######################################################################

data_XECBOZ
_chemical_formula_moiety         'C17 H13 N1'
_chemical_name_systematic        2-(biphenyl-2-yl)pyridine
_symmetry_cell_setting           monoclinic
_symmetry_space_group_name_H-M   'P 21/c'
_symmetry_Int_Tables_number      14
_space_group_name_Hall           '-P 2ybc'
loop_
_symmetry_equiv_pos_site_id
_symmetry_equiv_pos_as_xyz
1 x,y,z
2 -x,1/2+y,1/2-z
3 -x,-y,-z
4 x,1/2-y,1/2+z
_cell_length_a                   11.8380(9)
_cell_length_b                   11.3408(9)
_cell_length_c                   10.1226(8)
_cell_angle_alpha                90
_cell_angle_beta                 108.954(2)
_cell_angle_gamma                90
_cell_volume                     1285.3
_exptl_crystal_colour            colorless
_exptl_crystal_description       plate
_cell_formula_units_Z            4
loop_
_atom_site_label
_atom_site_type_symbol
_atom_site_fract_x
_atom_site_fract_y
_atom_site_fract_z
N1 N 0.53842(9) 0.56254(9) 0.19721(9)
C1 C 0.44844(11) 0.61252(12) 0.09787(12)
H1 H 0.4166 0.5721 0.0115
C2 C 0.39906(12) 0.71876(12) 0.11283(14)
H2 H 0.3337(12) 0.7487(13) 0.0367(14)
C3 C 0.44439(13) 0.77738(13) 0.23727(16)
H3 H 0.4120(13) 0.8509(14) 0.2542(15)
C4 C 0.53642(12) 0.72774(12) 0.34106(14)
H4 H 0.5714(12) 0.7624(13) 0.4281(13)
C5 C 0.58104(11) 0.61992(11) 0.31921(12)
C6 C 0.67584(11) 0.55899(11) 0.43182(12)
C7 C 0.65830(13) 0.54394(14) 0.56046(14)
H5 H 0.5846(14) 0.5779(13) 0.5713(14)
C8 C 0.73840(15) 0.48129(17) 0.66636(15)
H6 H 0.7195(17) 0.4708(16) 0.7525(19)
C9 C 0.83721(15) 0.43256(16) 0.64628(16)
H7 H 0.8939(15) 0.3869(16) 0.7161(17)
C10 C 0.85715(13) 0.44760(13) 0.52038(15)
H8 H 0.9278(12) 0.4161(12) 0.5074(13)
C11 C 0.77829(11) 0.51154(11) 0.41212(13)
C12 C 0.80841(11) 0.53236(12) 0.28230(13)
C13 C 0.81124(12) 0.64506(14) 0.23217(14)
H9 H 0.7925(12) 0.7113(13) 0.2816(14)
C14 C 0.84248(14) 0.66548(18) 0.11363(16)
H10 H 0.8490(15) 0.7503(17) 0.0865(17)
C15 C 0.87103(14) 0.5733(2) 0.04438(17)
H11 H 0.8940(17) 0.5882(17) -0.042(2)
C16 C 0.86909(14) 0.46168(19) 0.09196(18)
H12 H 0.8888 0.3977 0.0430
C17 C 0.83863(13) 0.43957(15) 0.21143(17)
H13 H 0.8375(13) 0.3589(14) 0.2454(14)
loop_
_geom_bond_atom_site_label_1
_geom_bond_atom_site_label_2
_geom_bond_site_symmetry_1
_geom_bond_site_symmetry_2
N1 C1 1_555 1_555
C1 H1 1_555 1_555
C2 C1 1_555 1_555
H2 C2 1_555 1_555
C3 C2 1_555 1_555
H3 C3 1_555 1_555
C4 C3 1_555 1_555
H4 C4 1_555 1_555
C5 N1 1_555 1_555
C6 C5 1_555 1_555
C7 C6 1_555 1_555
H5 C7 1_555 1_555
C8 C7 1_555 1_555
H6 C8 1_555 1_555
C9 C8 1_555 1_555
H7 C9 1_555 1_555
C10 C9 1_555 1_555
H8 C10 1_555 1_555
C11 C6 1_555 1_555
C12 C11 1_555 1_555
C13 C12 1_555 1_555
H9 C13 1_555 1_555
C14 C13 1_555 1_555
H10 C14 1_555 1_555
C15 C14 1_555 1_555
H11 C15 1_555 1_555
C16 C15 1_555 1_555
H12 C16 1_555 1_555
C17 C12 1_555 1_555
H13 C17 1_555 1_555
C4 C5 1_555 1_555
C10 C11 1_555 1_555
C16 C17 1_555 1_555

#END
