
#######################################################################
#
#                 Cambridge Crystallographic Data Centre
#                                CCDC 
#
#######################################################################
#
# If this CIF has been generated from an entry in the Cambridge 
# Structural Database, then it will include bibliographic, chemical, 
# crystal, experimental, refinement or atomic coordinate data resulting 
# from the CCDC's data processing and validation procedures.
#
#######################################################################

data_XECNUR
_chemical_formula_moiety         'C12 H11 N5'
_chemical_name_systematic        
1-[(pyridin-4-yl)methyl]-1H,1'H-2,2'-bi-imidazole
_symmetry_cell_setting           monoclinic
_symmetry_space_group_name_H-M   'P 21/n'
_symmetry_Int_Tables_number      14
_space_group_name_Hall           '-P 2yn'
loop_
_symmetry_equiv_pos_site_id
_symmetry_equiv_pos_as_xyz
1 x,y,z
2 1/2-x,1/2+y,1/2-z
3 -x,-y,-z
4 1/2+x,1/2-y,1/2+z
_cell_length_a                   7.490(3)
_cell_length_b                   9.841(4)
_cell_length_c                   15.253(5)
_cell_angle_alpha                90
_cell_angle_beta                 99.072(17)
_cell_angle_gamma                90
_cell_volume                     1110.22
_exptl_crystal_colour            orange
_exptl_crystal_description       Blocks
_cell_formula_units_Z            4
loop_
_atom_site_label
_atom_site_type_symbol
_atom_site_fract_x
_atom_site_fract_y
_atom_site_fract_z
C1 C 0.32934(18) 0.56217(15) 0.33079(10)
N1 N 0.32136(15) 0.48227(13) 0.25658(8)
C2 C 0.14080(19) 0.47323(17) 0.21961(11)
H1 H 0.0909 0.425 0.1675
C3 C 0.0489(2) 0.54795(18) 0.27356(11)
H2 H -0.0786 0.5599 0.2643
N2 N 0.16602(16) 0.60356(13) 0.34315(8)
C4 C 0.49458(18) 0.59599(15) 0.39043(10)
N3 N 0.66285(15) 0.56380(13) 0.38017(8)
C5 C 0.76979(19) 0.61525(16) 0.45477(10)
H3 H 0.8978 0.6079 0.4669
C6 C 0.66603(19) 0.67829(16) 0.50876(11)
H4 H 0.707 0.7216 0.5639
H5 H 0.394(2) 0.6998(19) 0.4884(11)
N4 N 0.49055(16) 0.66613(14) 0.46692(8)
C7 C 0.4701(2) 0.42178(16) 0.21798(10)
H6 H 0.4236 0.3424 0.1815
H7 H 0.5633 0.3886 0.2666
C8 C 0.55726(18) 0.51988(16) 0.16076(10)
C9 C 0.6647(2) 0.46658(18) 0.10235(11)
H8 H 0.6793 0.3711 0.0973
C10 C 0.7498(2) 0.5552(2) 0.05172(11)
H9 H 0.8217 0.5174 0.0119
N5 N 0.73729(17) 0.69119(16) 0.05528(9)
C11 C 0.63346(19) 0.74165(18) 0.11156(11)
H10 H 0.622 0.8375 0.1155
C12 C 0.54172(19) 0.66056(16) 0.16449(10)
H11 H 0.4688 0.701 0.203
loop_
_geom_bond_atom_site_label_1
_geom_bond_atom_site_label_2
_geom_bond_site_symmetry_1
_geom_bond_site_symmetry_2
C1 N1 1_555 1_555
N1 C2 1_555 1_555
C2 H1 1_555 1_555
C3 C2 1_555 1_555
H2 C3 1_555 1_555
N2 C1 1_555 1_555
C4 C1 1_555 1_555
N3 C4 1_555 1_555
C5 N3 1_555 1_555
H3 C5 1_555 1_555
C6 C5 1_555 1_555
H4 C6 1_555 1_555
H5 N4 1_555 1_555
N4 C4 1_555 1_555
C7 N1 1_555 1_555
H6 C7 1_555 1_555
H7 C7 1_555 1_555
C8 C7 1_555 1_555
C9 C8 1_555 1_555
H8 C9 1_555 1_555
C10 C9 1_555 1_555
H9 C10 1_555 1_555
N5 C10 1_555 1_555
C11 N5 1_555 1_555
H10 C11 1_555 1_555
C12 C8 1_555 1_555
H11 C12 1_555 1_555
C3 N2 1_555 1_555
C6 N4 1_555 1_555
C11 C12 1_555 1_555

#END
