
#######################################################################
#
#                 Cambridge Crystallographic Data Centre
#                                CCDC 
#
#######################################################################
#
# If this CIF has been generated from an entry in the Cambridge 
# Structural Database, then it will include bibliographic, chemical, 
# crystal, experimental, refinement or atomic coordinate data resulting 
# from the CCDC's data processing and validation procedures.
#
#######################################################################

data_XECPIH
_chemical_formula_moiety         'C12 H11 N5,C6 F3 I3'
_chemical_name_systematic        
"1-[(pyridin-3-yl)methyl]-1H,1'H-2,2'-bi-imidazole 1,3,5-trifluoro-2,4,6-tri-iodobenzene"
_symmetry_cell_setting           monoclinic
_symmetry_space_group_name_H-M   'P 21/c'
_symmetry_Int_Tables_number      14
_space_group_name_Hall           '-P 2ybc'
loop_
_symmetry_equiv_pos_site_id
_symmetry_equiv_pos_as_xyz
1 x,y,z
2 -x,1/2+y,1/2-z
3 -x,-y,-z
4 x,1/2-y,1/2+z
_cell_length_a                   16.0707(15)
_cell_length_b                   9.0666(8)
_cell_length_c                   14.8610(14)
_cell_angle_alpha                90
_cell_angle_beta                 107.218(3)
_cell_angle_gamma                90
_cell_volume                     2068.31
_exptl_crystal_colour            colorless
_exptl_crystal_description       plate
_cell_formula_units_Z            4
loop_
_atom_site_label
_atom_site_type_symbol
_atom_site_fract_x
_atom_site_fract_y
_atom_site_fract_z
N1 N 0.19615(10) -0.23761(17) 0.52507(11)
C1 C 0.11848(11) -0.30831(19) 0.49303(13)
N2 N 0.09764(10) -0.37568(18) 0.56256(11)
C2 C 0.16510(12) -0.3458(2) 0.64227(14)
H1 H 0.1686 -0.3795 0.7038
C3 C 0.22589(12) -0.2614(2) 0.62034(14)
H2 H 0.2787 -0.2258 0.6626
N3 N 0.00402(10) -0.42108(17) 0.36546(12)
H3 H -0.0148(16) -0.477(3) 0.4007(18)
C4 C 0.06762(11) -0.3190(2) 0.39490(13)
N4 N 0.07866(10) -0.24168(18) 0.32367(12)
C5 C 0.01975(12) -0.2989(2) 0.24520(14)
H4 H 0.0123 -0.2663 0.1825
C6 C -0.02671(13) -0.4095(2) 0.26996(14)
H5 H -0.0715 -0.4670 0.2288
N5 N 0.29302(12) 0.2519(2) 0.54905(14)
C7 C 0.29849(13) 0.1089(2) 0.52938(15)
H6 H 0.3548 0.0673 0.5399
C8 C 0.22710(12) 0.0179(2) 0.49464(13)
C9 C 0.14532(13) 0.0791(2) 0.48093(15)
H7 H 0.0945 0.0205 0.4574
C10 C 0.13837(14) 0.2259(2) 0.50179(16)
H8 H 0.0829 0.2699 0.4933
C11 C 0.21402(14) 0.3081(2) 0.53543(16)
H9 H 0.2090 0.4094 0.5494
C12 C 0.23939(12) -0.1416(2) 0.47385(14)
H10 H 0.2151 -0.1596 0.4053
H11 H 0.3024 -0.1649 0.4923
C13 C 0.53532(12) 0.6034(2) 0.64134(14)
I1 I 0.432425(8) 0.451966(13) 0.601485(9)
C14 C 0.62108(14) 0.5570(2) 0.66981(14)
F1 F 0.63708(9) 0.41128(13) 0.67558(10)
C15 C 0.69133(12) 0.6515(2) 0.69184(14)
I2 I 0.817728(9) 0.571798(16) 0.731653(11)
C16 C 0.67321(12) 0.8008(2) 0.68399(14)
F2 F 0.73970(8) 0.89609(14) 0.70418(9)
C17 C 0.58933(13) 0.8552(2) 0.65554(14)
I3 I 0.564548(9) 1.079646(13) 0.641020(9)
C18 C 0.52198(12) 0.7536(2) 0.63605(13)
F3 F 0.43984(7) 0.80443(13) 0.61038(9)
loop_
_geom_bond_atom_site_label_1
_geom_bond_atom_site_label_2
_geom_bond_site_symmetry_1
_geom_bond_site_symmetry_2
N1 C1 1_555 1_555
C1 N2 1_555 1_555
N2 C2 1_555 1_555
C2 H1 1_555 1_555
C3 N1 1_555 1_555
H2 C3 1_555 1_555
N3 H3 1_555 1_555
C4 C1 1_555 1_555
N4 C4 1_555 1_555
C5 N4 1_555 1_555
H4 C5 1_555 1_555
C6 N3 1_555 1_555
H5 C6 1_555 1_555
N5 C7 1_555 1_555
C7 H6 1_555 1_555
C8 C7 1_555 1_555
C9 C8 1_555 1_555
H7 C9 1_555 1_555
C10 C9 1_555 1_555
H8 C10 1_555 1_555
C11 N5 1_555 1_555
H9 C11 1_555 1_555
C12 N1 1_555 1_555
H10 C12 1_555 1_555
H11 C12 1_555 1_555
C13 I1 1_555 1_555
C14 C13 1_555 1_555
F1 C14 1_555 1_555
C15 C14 1_555 1_555
I2 C15 1_555 1_555
C16 C15 1_555 1_555
F2 C16 1_555 1_555
C17 C16 1_555 1_555
I3 C17 1_555 1_555
C18 C13 1_555 1_555
F3 C18 1_555 1_555
C2 C3 1_555 1_555
N3 C4 1_555 1_555
C5 C6 1_555 1_555
C8 C12 1_555 1_555
C10 C11 1_555 1_555
C17 C18 1_555 1_555

#END
