
#######################################################################
#
#                 Cambridge Crystallographic Data Centre
#                                CCDC 
#
#######################################################################
#
# If this CIF has been generated from an entry in the Cambridge 
# Structural Database, then it will include bibliographic, chemical, 
# crystal, experimental, refinement or atomic coordinate data resulting 
# from the CCDC's data processing and validation procedures.
#
#######################################################################

data_XEDLEY
_chemical_compound_source        'Sagittaria sagittifolia'
_chemical_name_common            'Sagittine A'
_chemical_formula_moiety         'C20 H30 O2'
_chemical_name_systematic        'ent-Rosa-5,15-dien-19-oic acid'
_chemical_properties_biological  
'strong antibacterial activity against Streptococcus mutans and Actinomyces naeslundiis'
_symmetry_cell_setting           monoclinic
_symmetry_space_group_name_H-M   'P 21'
_symmetry_Int_Tables_number      4
_space_group_name_Hall           'P 2yb'
loop_
_symmetry_equiv_pos_site_id
_symmetry_equiv_pos_as_xyz
1 x,y,z
2 -x,1/2+y,-z
_cell_length_a                   12.6906(15)
_cell_length_b                   10.2956(12)
_cell_length_c                   14.9114(18)
_cell_angle_alpha                90.00
_cell_angle_beta                 112.175(2)
_cell_angle_gamma                90.00
_cell_volume                     1804.18
_exptl_crystal_colour            colorless
_exptl_crystal_description       block
_chemical_melting_point          162-163deg.C
_cell_formula_units_Z            4
loop_
_atom_site_label
_atom_site_type_symbol
_atom_site_fract_x
_atom_site_fract_y
_atom_site_fract_z
O1 O -0.2023(2) 0.4634(3) 0.5215(3)
H1 H -0.2627 0.5087 0.5000
O2 O -0.1316(2) 0.6411(3) 0.5836(3)
C1 C 0.1748(3) 0.5474(5) 0.5980(4)
H2 H 0.2070 0.6067 0.5627
H3 H 0.2360 0.4878 0.6374
C2 C 0.0778(4) 0.4688(5) 0.5254(4)
H4 H 0.0180 0.5283 0.4839
H5 H 0.1068 0.4178 0.4833
C3 C 0.0287(3) 0.3794(4) 0.5782(3)
H6 H 0.0884 0.3178 0.6171
H7 H -0.0332 0.3282 0.5304
C4 C -0.0188(2) 0.4504(3) 0.6455(3)
C5 C 0.0672(2) 0.5466(3) 0.7111(2)
C6 C 0.0772(3) 0.5661(5) 0.8015(3)
H8 H 0.0380 0.5084 0.8277
C7 C 0.1457(4) 0.6721(5) 0.8656(2)
H9 H 0.1006 0.7138 0.8992
H10 H 0.2150 0.6347 0.9154
C8 C 0.1785(2) 0.7708(3) 0.80893(19)
H11 H 0.1068 0.8154 0.7671
C9 C 0.2285(2) 0.7096(4) 0.7413(2)
C10 C 0.1322(2) 0.6276(3) 0.6657(2)
H12 H 0.0764 0.6917 0.6231
C11 C 0.2629(4) 0.8175(5) 0.6901(4)
H13 H 0.1937 0.8636 0.6476
H14 H 0.2998 0.7793 0.6484
C12 C 0.3453(4) 0.9171(5) 0.7595(4)
H15 H 0.4159 0.8721 0.8008
H16 H 0.3660 0.9835 0.7210
C13 C 0.2925(3) 0.9835(4) 0.8234(3)
C14 C 0.2556(2) 0.8760(4) 0.8759(2)
H17 H 0.2145 0.9161 0.9136
H18 H 0.3245 0.8335 0.9225
C15 C 0.3885(4) 1.0614(5) 0.8994(4)
H19 H 0.4492 1.0108 0.9423
C16 C 0.3986(6) 1.1835(9) 0.9132(6)
H20 H 0.3412 1.2403 0.8731
H21 H 0.4635 1.2178 0.9637
C17 C 0.1983(5) 1.0689(6) 0.7663(4)
H22 H 0.2266 1.1355 0.7342
H23 H 0.1660 1.1106 0.8093
H24 H 0.1393 1.0174 0.7175
C18 C -0.0591(3) 0.3477(5) 0.7003(4)
H25 H -0.0897 0.3910 0.7438
H26 H 0.0053 0.2926 0.7383
H27 H -0.1185 0.2940 0.6538
C19 C -0.1246(2) 0.5223(3) 0.5819(2)
C20 C 0.3291(3) 0.6254(5) 0.7990(5)
H28 H 0.3878 0.6793 0.8462
H29 H 0.3604 0.5844 0.7551
H30 H 0.3043 0.5581 0.8332
O3 O 0.6728(2) 0.7515(3) 0.4754(3)
H31 H 0.7310 0.7080 0.5099
O4 O 0.5972(2) 0.5700(3) 0.4362(2)
C21 C 0.3814(3) 0.7538(4) 0.2019(3)
H32 H 0.3898 0.7346 0.1399
H33 H 0.3088 0.8010 0.1870
C22 C 0.4800(3) 0.8400(4) 0.2641(3)
H34 H 0.5530 0.7950 0.2760
H35 H 0.4797 0.9217 0.2289
C23 C 0.4705(3) 0.8711(3) 0.3591(3)
H36 H 0.3992 0.9199 0.3470
H37 H 0.5350 0.9272 0.3977
C24 C 0.4707(2) 0.7478(3) 0.4174(2)
C25 C 0.3789(2) 0.6517(3) 0.3538(2)
C26 C 0.3103(2) 0.5905(4) 0.3878(2)
H38 H 0.3109 0.6163 0.4492
C27 C 0.2323(2) 0.4836(4) 0.3362(2)
H39 H 0.1534 0.5170 0.3078
H40 H 0.2347 0.4141 0.3828
C28 C 0.2657(2) 0.4284(3) 0.25708(17)
H41 H 0.3429 0.3896 0.2904
C29 C 0.2795(2) 0.5326(3) 0.19150(18)
C30 C 0.3773(2) 0.6252(3) 0.25332(19)
H42 H 0.4500 0.5789 0.2629
C31 C 0.3123(2) 0.4714(3) 0.11166(19)
H43 H 0.3906 0.4363 0.1411
H44 H 0.3122 0.5397 0.0649
C32 C 0.2312(2) 0.3616(4) 0.0570(2)
H45 H 0.1548 0.3989 0.0216
H46 H 0.2586 0.3243 0.0086
C33 C 0.2208(2) 0.2529(3) 0.1226(2)
C34 C 0.1882(2) 0.3163(3) 0.2022(2)
H47 H 0.1093 0.3493 0.1722
H48 H 0.1891 0.2485 0.2496
C35 C 0.1277(3) 0.1632(4) 0.0655(3)
H49 H 0.0571 0.2032 0.0287
C36 C 0.1303(4) 0.0378(5) 0.0593(3)
H50 H 0.1983 -0.0083 0.0943
H51 H 0.0641 -0.0081 0.0197
C37 C 0.3345(3) 0.1790(4) 0.1694(3)
H52 H 0.3256 0.1096 0.2109
H53 H 0.3938 0.2393 0.2083
H54 H 0.3561 0.1412 0.1185
C38 C 0.4564(3) 0.7824(4) 0.5126(3)
H55 H 0.4558 0.7026 0.5482
H56 H 0.3846 0.8291 0.4980
H57 H 0.5199 0.8376 0.5521
C39 C 0.5878(3) 0.6840(3) 0.4476(2)
C40 C 0.1684(2) 0.6132(4) 0.1456(2)
H58 H 0.1062 0.5559 0.1068
H59 H 0.1797 0.6810 0.1040
H60 H 0.1491 0.6534 0.1970
loop_
_geom_bond_atom_site_label_1
_geom_bond_atom_site_label_2
_geom_bond_site_symmetry_1
_geom_bond_site_symmetry_2
O1 H1 1_555 1_555
O2 C19 1_555 1_555
C1 H2 1_555 1_555
H3 C1 1_555 1_555
C2 C1 1_555 1_555
H4 C2 1_555 1_555
H5 C2 1_555 1_555
C3 C2 1_555 1_555
H6 C3 1_555 1_555
H7 C3 1_555 1_555
C4 C3 1_555 1_555
C5 C4 1_555 1_555
C6 C5 1_555 1_555
H8 C6 1_555 1_555
C7 C6 1_555 1_555
H9 C7 1_555 1_555
H10 C7 1_555 1_555
C8 C7 1_555 1_555
H11 C8 1_555 1_555
C9 C8 1_555 1_555
C10 C1 1_555 1_555
H12 C10 1_555 1_555
C11 C9 1_555 1_555
H13 C11 1_555 1_555
H14 C11 1_555 1_555
C12 C11 1_555 1_555
H15 C12 1_555 1_555
H16 C12 1_555 1_555
C13 C12 1_555 1_555
C14 C8 1_555 1_555
H17 C14 1_555 1_555
H18 C14 1_555 1_555
C15 C13 1_555 1_555
H19 C15 1_555 1_555
C16 C15 1_555 1_555
H20 C16 1_555 1_555
H21 C16 1_555 1_555
C17 C13 1_555 1_555
H22 C17 1_555 1_555
H23 C17 1_555 1_555
H24 C17 1_555 1_555
C18 C4 1_555 1_555
H25 C18 1_555 1_555
H26 C18 1_555 1_555
H27 C18 1_555 1_555
C19 O1 1_555 1_555
C20 C9 1_555 1_555
H28 C20 1_555 1_555
H29 C20 1_555 1_555
H30 C20 1_555 1_555
O3 H31 1_555 1_555
O4 C39 1_555 1_555
C21 H32 1_555 1_555
H33 C21 1_555 1_555
C22 C21 1_555 1_555
H34 C22 1_555 1_555
H35 C22 1_555 1_555
C23 C22 1_555 1_555
H36 C23 1_555 1_555
H37 C23 1_555 1_555
C24 C23 1_555 1_555
C25 C24 1_555 1_555
C26 C25 1_555 1_555
H38 C26 1_555 1_555
C27 C26 1_555 1_555
H39 C27 1_555 1_555
H40 C27 1_555 1_555
C28 C27 1_555 1_555
H41 C28 1_555 1_555
C29 C28 1_555 1_555
C30 C21 1_555 1_555
H42 C30 1_555 1_555
C31 C29 1_555 1_555
H43 C31 1_555 1_555
H44 C31 1_555 1_555
C32 C31 1_555 1_555
H45 C32 1_555 1_555
H46 C32 1_555 1_555
C33 C32 1_555 1_555
C34 C28 1_555 1_555
H47 C34 1_555 1_555
H48 C34 1_555 1_555
C35 C33 1_555 1_555
H49 C35 1_555 1_555
C36 C35 1_555 1_555
H50 C36 1_555 1_555
H51 C36 1_555 1_555
C37 C33 1_555 1_555
H52 C37 1_555 1_555
H53 C37 1_555 1_555
H54 C37 1_555 1_555
C38 C24 1_555 1_555
H55 C38 1_555 1_555
H56 C38 1_555 1_555
H57 C38 1_555 1_555
C39 O3 1_555 1_555
C40 C29 1_555 1_555
H58 C40 1_555 1_555
H59 C40 1_555 1_555
H60 C40 1_555 1_555
C4 C19 1_555 1_555
C5 C10 1_555 1_555
C9 C10 1_555 1_555
C13 C14 1_555 1_555
C24 C39 1_555 1_555
C25 C30 1_555 1_555
C29 C30 1_555 1_555
C33 C34 1_555 1_555

#END
