
#######################################################################
#
#                 Cambridge Crystallographic Data Centre
#                                CCDC 
#
#######################################################################
#
# If this CIF has been generated from an entry in the Cambridge 
# Structural Database, then it will include bibliographic, chemical, 
# crystal, experimental, refinement or atomic coordinate data resulting 
# from the CCDC's data processing and validation procedures.
#
#######################################################################

data_XEDXAI
_chemical_formula_moiety         'C12 H12 N4 O3,H2 O1'
_chemical_name_systematic        
'2-((3,5-dimethyl-4H-1,2,4-triazol-4-yl)carbamoyl)benzoic acid monohydrate'
_symmetry_cell_setting           monoclinic
_symmetry_space_group_name_H-M   'P 21/n'
_symmetry_Int_Tables_number      14
_space_group_name_Hall           '-P 2yn'
loop_
_symmetry_equiv_pos_site_id
_symmetry_equiv_pos_as_xyz
1 x,y,z
2 1/2-x,1/2+y,1/2-z
3 -x,-y,-z
4 1/2+x,1/2-y,1/2+z
_cell_length_a                   7.5141(15)
_cell_length_b                   24.108(5)
_cell_length_c                   7.8825(16)
_cell_angle_alpha                90
_cell_angle_beta                 102.32(3)
_cell_angle_gamma                90
_cell_volume                     1395.03
_exptl_crystal_colour            colorless
_exptl_crystal_description       block
_cell_formula_units_Z            4
loop_
_atom_site_label
_atom_site_type_symbol
_atom_site_fract_x
_atom_site_fract_y
_atom_site_fract_z
O1 O -0.54249(18) 0.55575(6) -0.81499(16)
H1 H -0.587(3) 0.5203(11) -0.826(3)
H2 H -0.444(3) 0.5590(10) -0.856(3)
O2 O -0.4744(2) 0.62114(8) -0.5440(2)
H3 H -0.514(5) 0.5951(14) -0.640(4)
O3 O -0.6816(2) 0.58166(7) -0.42266(18)
O4 O -0.93564(18) 0.66082(6) -0.2861(2)
N1 N -0.82493(19) 0.60632(6) -0.05534(19)
H4 H -0.7303 0.5951 0.0182
N2 N -0.99522(18) 0.58587(6) -0.04895(18)
N3 N -1.2492(2) 0.54016(7) -0.11019(19)
N4 N -1.2407(2) 0.56886(7) 0.04452(19)
C1 C -0.5099(2) 0.65736(7) -0.2794(2)
C2 C -0.3441(2) 0.68475(8) -0.2607(2)
H5 H -0.2724 0.6790 -0.3418
C3 C -0.2847(3) 0.72029(9) -0.1240(3)
H6 H -0.1735 0.7384 -0.1130
C4 C -0.3898(3) 0.72908(9) -0.0037(3)
H7 H -0.3495 0.7530 0.0892
C5 C -0.5556(3) 0.70235(9) -0.0211(3)
H8 H -0.6263 0.7086 0.0605
C6 C -0.6176(2) 0.66660(7) -0.1572(2)
C7 C -0.5664(2) 0.61625(8) -0.4203(2)
C8 C -0.8077(2) 0.64413(7) -0.1779(2)
C9 C -1.1007(2) 0.55076(7) -0.1646(2)
C10 C -1.0532(3) 0.52980(9) -0.3254(3)
H9 H -1.1483 0.5058 -0.3848
H10 H -0.9408 0.5095 -0.2967
H11 H -1.0395 0.5605 -0.3993
C11 C -1.0886(2) 0.59649(8) 0.0792(2)
C12 C -1.0220(3) 0.63288(10) 0.2302(3)
H12 H -1.1104 0.6340 0.3019
H13 H -1.0033 0.6696 0.1905
H14 H -0.9090 0.6186 0.2963
loop_
_geom_bond_atom_site_label_1
_geom_bond_atom_site_label_2
_geom_bond_site_symmetry_1
_geom_bond_site_symmetry_2
O1 H1 1_555 1_555
H2 O1 1_555 1_555
O2 H3 1_555 1_555
O3 C7 1_555 1_555
O4 C8 1_555 1_555
N1 H4 1_555 1_555
N2 N1 1_555 1_555
N3 N4 1_555 1_555
N4 C11 1_555 1_555
C1 C2 1_555 1_555
C2 H5 1_555 1_555
C3 C2 1_555 1_555
H6 C3 1_555 1_555
C4 C3 1_555 1_555
H7 C4 1_555 1_555
C5 C4 1_555 1_555
H8 C5 1_555 1_555
C6 C1 1_555 1_555
C7 O2 1_555 1_555
C8 N1 1_555 1_555
C9 N2 1_555 1_555
C10 C9 1_555 1_555
H9 C10 1_555 1_555
H10 C10 1_555 1_555
H11 C10 1_555 1_555
C11 N2 1_555 1_555
C12 C11 1_555 1_555
H12 C12 1_555 1_555
H13 C12 1_555 1_555
H14 C12 1_555 1_555
N3 C9 1_555 1_555
C1 C7 1_555 1_555
C5 C6 1_555 1_555
C6 C8 1_555 1_555

#END
