
#######################################################################
#
#                 Cambridge Crystallographic Data Centre
#                                CCDC 
#
#######################################################################
#
# If this CIF has been generated from an entry in the Cambridge 
# Structural Database, then it will include bibliographic, chemical, 
# crystal, experimental, refinement or atomic coordinate data resulting 
# from the CCDC's data processing and validation procedures.
#
#######################################################################

data_XEFKEB
_chemical_formula_moiety         'C32 H24 N2 O2,0.5(C2 H6 O1),0.5(H2 O1)'
_chemical_name_systematic        
"1-methyl-6'-phenyl-6',7'-dihydro-13'H-spiro[indole-3,12'-[6,13]methano[1]benzoxocino[3,4-b]indol]-2(1H)-one ethanol solvate hemihydrate"
_symmetry_cell_setting           triclinic
_symmetry_space_group_name_H-M   'P 1'
_symmetry_Int_Tables_number      1
_space_group_name_Hall           'P 1'
loop_
_symmetry_equiv_pos_site_id
_symmetry_equiv_pos_as_xyz
1 x,y,z
_cell_length_a                   9.8978(6)
_cell_length_b                   10.2382(7)
_cell_length_c                   14.8927(10)
_cell_angle_alpha                70.8640(10)
_cell_angle_beta                 81.8930(10)
_cell_angle_gamma                62.4650(10)
_cell_volume                     1264.17
_exptl_crystal_colour            colorless
_exptl_crystal_description       block
_cell_formula_units_Z            2
loop_
_atom_site_label
_atom_site_type_symbol
_atom_site_fract_x
_atom_site_fract_y
_atom_site_fract_z
O1 O 0.0520(2) 0.4842(2) 0.92697(14)
O2 O 0.5922(3) 0.1363(3) 1.07977(18)
N1 N 0.1229(3) 0.1521(3) 1.07700(18)
H1 H 0.0351 0.1930 1.1045
C1 C 0.3836(3) 0.3606(3) 0.90341(19)
H2 H 0.4684 0.3909 0.8829
C2 C 0.4539(3) 0.1779(3) 0.9375(2)
C3 C -0.0798(5) 0.5629(6) 1.2434(3)
H3 H -0.1308 0.5984 1.2959
C4 C -0.1553(5) 0.6223(6) 1.1572(3)
H4 H -0.2576 0.7005 1.1502
C5 C -0.0822(4) 0.5681(5) 1.0804(3)
H5 H -0.1356 0.6072 1.0220
C6 C 0.0691(3) 0.4567(4) 1.0896(2)
C7 C 0.1562(3) 0.3989(3) 1.00774(19)
C8 C 0.2988(3) 0.4264(3) 0.9843(2)
H6 H 0.2690 0.5384 0.9651
H7 H 0.3660 0.3755 1.0411
C9 C 0.5290(3) 0.1071(3) 0.8582(2)
C10 C 0.4702(3) 0.1120(3) 0.7775(2)
H8 H 0.3635 0.1658 0.7652
C11 C 0.5698(4) 0.0367(4) 0.7140(2)
H9 H 0.5306 0.0416 0.6577
C12 C 0.7254(4) -0.0449(4) 0.7333(3)
H10 H 0.7912 -0.0942 0.6892
C13 C 0.1151(3) 0.4892(3) 0.83858(19)
C14 C 0.0100(3) 0.5581(3) 0.7637(2)
H11 H -0.0957 0.5929 0.7765
C15 C 0.0602(3) 0.5756(3) 0.6709(2)
H12 H -0.0108 0.6203 0.6200
C16 C 0.2160(3) 0.5274(3) 0.6520(2)
H13 H 0.2509 0.5413 0.5884
C17 C 0.3189(3) 0.4593(3) 0.7269(2)
H14 H 0.4241 0.4285 0.7136
C18 C 0.2718(3) 0.4345(3) 0.82167(19)
C19 C 0.5934(3) 0.1146(4) 1.0041(2)
N2 N 0.7214(3) 0.0285(3) 0.9621(2)
C20 C 0.8748(4) -0.0381(5) 1.0005(3)
H15 H 0.9317 0.0139 0.9579
H16 H 0.9271 -0.1484 1.0061
H17 H 0.8685 -0.0247 1.0634
C21 C 0.6866(3) 0.0211(3) 0.8759(2)
C22 C 0.7873(4) -0.0562(4) 0.8154(3)
H18 H 0.8935 -0.1141 0.8292
C23 C 0.3357(3) 0.1310(3) 0.99157(19)
C24 C 0.2059(3) 0.2294(3) 1.02553(19)
C25 C 0.2018(3) 0.0000(3) 1.0778(2)
C26 C 0.1677(4) -0.1243(4) 1.1239(2)
H19 H 0.0789 -0.1115 1.1613
C27 C 0.2682(4) -0.2657(4) 1.1127(3)
H20 H 0.2479 -0.3521 1.1430
C28 C 0.4001(4) -0.2860(4) 1.0577(3)
H21 H 0.4657 -0.3849 1.0504
C29 C 0.4358(4) -0.1642(4) 1.0139(2)
H22 H 0.5258 -0.1791 0.9776
C30 C 0.3360(3) -0.0175(3) 1.02412(19)
C31 C 0.1453(4) 0.3987(4) 1.1765(2)
H23 H 0.2486 0.3227 1.1833
C32 C 0.0709(4) 0.4514(5) 1.2530(2)
H24 H 0.1232 0.4109 1.3120
O3 O 0.7936(5) -0.0486(5) 0.2749(3)
N3 N 0.8735(3) 0.6834(3) 0.44558(17)
H25 H 0.8215 0.7840 0.4213
O4 O 0.6060(2) 0.6910(2) 0.59775(15)
O5 O 0.8418(3) 0.2731(3) 0.42774(18)
C33 C 1.2130(4) -0.1141(4) 0.7723(2)
H26 H 1.2773 -0.2097 0.8154
C34 C 1.1574(4) -0.1133(4) 0.6908(3)
H27 H 1.1851 -0.2062 0.6764
C35 C 1.0601(3) 0.0292(3) 0.6320(2)
C36 C 1.0171(3) 0.1677(3) 0.6509(2)
C37 C 0.8993(3) 0.2993(3) 0.5775(2)
C38 C 0.7342(3) 0.3584(3) 0.6209(2)
H28 H 0.7069 0.2704 0.6448
C39 C 0.6194(3) 0.4860(3) 0.5429(2)
H29 H 0.5141 0.5101 0.5658
H30 H 0.6332 0.4514 0.4861
C40 C 0.6460(3) 0.6304(3) 0.5173(2)
C41 C 0.5448(4) 0.7582(3) 0.4350(2)
C42 C 0.4456(5) 0.9027(4) 0.4424(3)
H31 H 0.4400 0.9258 0.5000
C43 C 0.3525(7) 1.0156(5) 0.3641(4)
H32 H 0.2831 1.1150 0.3692
C44 C 0.3614(6) 0.9831(5) 0.2801(3)
H33 H 0.2991 1.0605 0.2273
C45 C 1.1758(3) 0.0223(4) 0.7915(2)
H34 H 1.2164 0.0190 0.8468
C46 C 1.0785(3) 0.1658(3) 0.7298(2)
H35 H 1.0554 0.2594 0.7420
C47 C 0.9284(3) 0.4356(3) 0.52633(19)
C48 C 0.8131(3) 0.5826(3) 0.49675(19)
C49 C 1.0288(3) 0.5990(3) 0.43939(19)
C50 C 1.0686(3) 0.4424(3) 0.4904(2)
C51 C 1.2228(3) 0.3311(4) 0.4957(2)
H36 H 1.2520 0.2259 0.5306
C52 C 1.3300(4) 0.3801(4) 0.4483(2)
H37 H 1.4340 0.3069 0.4506
C53 C 1.2880(4) 0.5360(5) 0.3970(2)
H38 H 1.3645 0.5653 0.3654
C54 C 1.1375(4) 0.6485(4) 0.3912(2)
H39 H 1.1096 0.7535 0.3565
C55 C 0.6500(3) 0.5843(3) 0.6860(2)
C56 C 0.7187(3) 0.4238(3) 0.7017(2)
C57 C 0.7604(3) 0.3287(3) 0.7953(2)
H40 H 0.8073 0.2199 0.8079
C58 C 0.7347(3) 0.3901(4) 0.8708(2)
H41 H 0.7675 0.3237 0.9334
C59 C 0.6609(3) 0.5493(4) 0.8533(2)
H42 H 0.6400 0.5917 0.9045
C60 C 0.6173(3) 0.6467(4) 0.7614(2)
H43 H 0.5655 0.7554 0.7498
C61 C 0.5528(4) 0.7274(4) 0.3492(2)
H44 H 0.6226 0.6286 0.3434
C62 C 0.4600(4) 0.8391(4) 0.2723(2)
H45 H 0.4648 0.8162 0.2147
C63 C 0.9044(4) 0.2134(4) 0.5062(2)
N4 N 0.9912(3) 0.0592(3) 0.5462(2)
C64 C 1.0226(5) -0.0552(4) 0.4986(3)
H46 H 0.9787 -0.0030 0.4342
H47 H 0.9772 -0.1239 0.5344
H48 H 1.1330 -0.1158 0.4951
C65 C 0.7229(6) 0.3242(6) 0.1859(4)
H49 H 0.7056 0.2941 0.1334
H50 H 0.7275 0.4241 0.1579
O6 O 0.8662(4) 0.2095(4) 0.2318(3)
H51 H 0.8748 0.2265 0.2816
C66 C 0.5913(6) 0.3444(7) 0.2529(4)
H52 H 0.5823 0.2475 0.2778
H53 H 0.4972 0.4264 0.2189
H54 H 0.6087 0.3724 0.3056
loop_
_geom_bond_atom_site_label_1
_geom_bond_atom_site_label_2
_geom_bond_site_symmetry_1
_geom_bond_site_symmetry_2
O1 C7 1_555 1_555
O2 C19 1_555 1_555
N1 H1 1_555 1_555
C1 H2 1_555 1_555
C2 C1 1_555 1_555
C3 H3 1_555 1_555
C4 C3 1_555 1_555
H4 C4 1_555 1_555
C5 C4 1_555 1_555
H5 C5 1_555 1_555
C6 C5 1_555 1_555
C7 C6 1_555 1_555
C8 C1 1_555 1_555
H6 C8 1_555 1_555
H7 C8 1_555 1_555
C9 C2 1_555 1_555
C10 C9 1_555 1_555
H8 C10 1_555 1_555
C11 C10 1_555 1_555
H9 C11 1_555 1_555
C12 C11 1_555 1_555
H10 C12 1_555 1_555
C13 O1 1_555 1_555
C14 C13 1_555 1_555
H11 C14 1_555 1_555
C15 C14 1_555 1_555
H12 C15 1_555 1_555
C16 C15 1_555 1_555
H13 C16 1_555 1_555
C17 C16 1_555 1_555
H14 C17 1_555 1_555
C18 C1 1_555 1_555
C19 C2 1_555 1_555
N2 C19 1_555 1_555
C20 N2 1_555 1_555
H15 C20 1_555 1_555
H16 C20 1_555 1_555
H17 C20 1_555 1_555
C21 C9 1_555 1_555
C22 C12 1_555 1_555
H18 C22 1_555 1_555
C23 C2 1_555 1_555
C24 N1 1_555 1_555
C25 N1 1_555 1_555
C26 C25 1_555 1_555
H19 C26 1_555 1_555
C27 C26 1_555 1_555
H20 C27 1_555 1_555
C28 C27 1_555 1_555
H21 C28 1_555 1_555
C29 C28 1_555 1_555
H22 C29 1_555 1_555
C30 C23 1_555 1_555
C31 C6 1_555 1_555
H23 C31 1_555 1_555
C32 C3 1_555 1_555
H24 C32 1_555 1_555
N3 H25 1_555 1_555
O4 C40 1_555 1_555
O5 C63 1_555 1_555
C33 H26 1_555 1_555
C34 C33 1_555 1_555
H27 C34 1_555 1_555
C35 C34 1_555 1_555
C36 C35 1_555 1_555
C37 C36 1_555 1_555
C38 C37 1_555 1_555
H28 C38 1_555 1_555
C39 C38 1_555 1_555
H29 C39 1_555 1_555
H30 C39 1_555 1_555
C40 C39 1_555 1_555
C41 C40 1_555 1_555
C42 C41 1_555 1_555
H31 C42 1_555 1_555
C43 C42 1_555 1_555
H32 C43 1_555 1_555
C44 C43 1_555 1_555
H33 C44 1_555 1_555
C45 C33 1_555 1_555
H34 C45 1_555 1_555
C46 C36 1_555 1_555
H35 C46 1_555 1_555
C47 C37 1_555 1_555
C48 N3 1_555 1_555
C49 N3 1_555 1_555
C50 C47 1_555 1_555
C51 C50 1_555 1_555
H36 C51 1_555 1_555
C52 C51 1_555 1_555
H37 C52 1_555 1_555
C53 C52 1_555 1_555
H38 C53 1_555 1_555
C54 C49 1_555 1_555
H39 C54 1_555 1_555
C55 O4 1_555 1_555
C56 C38 1_555 1_555
C57 C56 1_555 1_555
H40 C57 1_555 1_555
C58 C57 1_555 1_555
H41 C58 1_555 1_555
C59 C58 1_555 1_555
H42 C59 1_555 1_555
C60 C55 1_555 1_555
H43 C60 1_555 1_555
C61 C41 1_555 1_555
H44 C61 1_555 1_555
C62 C44 1_555 1_555
H45 C62 1_555 1_555
C63 C37 1_555 1_555
N4 C35 1_555 1_555
C64 N4 1_555 1_555
H46 C64 1_555 1_555
H47 C64 1_555 1_555
H48 C64 1_555 1_555
C65 H49 1_555 1_555
H50 C65 1_555 1_555
O6 C65 1_555 1_555
H51 O6 1_555 1_555
C66 C65 1_555 1_555
H52 C66 1_555 1_555
H53 C66 1_555 1_555
H54 C66 1_555 1_555
C7 C8 1_555 1_555
C7 C24 1_555 1_555
C13 C18 1_555 1_555
C17 C18 1_555 1_555
N2 C21 1_555 1_555
C21 C22 1_555 1_555
C23 C24 1_555 1_555
C25 C30 1_555 1_555
C29 C30 1_555 1_555
C31 C32 1_555 1_555
C40 C48 1_555 1_555
C45 C46 1_555 1_555
C47 C48 1_555 1_555
C49 C50 1_555 1_555
C53 C54 1_555 1_555
C55 C56 1_555 1_555
C59 C60 1_555 1_555
C61 C62 1_555 1_555
C63 N4 1_555 1_555

#END
