
#######################################################################
#
#                 Cambridge Crystallographic Data Centre
#                                CCDC 
#
#######################################################################
#
# If this CIF has been generated from an entry in the Cambridge 
# Structural Database, then it will include bibliographic, chemical, 
# crystal, experimental, refinement or atomic coordinate data resulting 
# from the CCDC's data processing and validation procedures.
#
#######################################################################

data_XEGMEC
_chemical_name_common            '5-(bis((2-quinolyl)methyl)amino)valeric acid'
_chemical_formula_moiety         'C25 H25 N3 O2'
_chemical_name_systematic        
'5-(bis((2-quinolyl)methyl)amino)pentanoic acid'
_symmetry_cell_setting           triclinic
_symmetry_space_group_name_H-M   'P -1'
_symmetry_Int_Tables_number      2
_space_group_name_Hall           '-P 1'
loop_
_symmetry_equiv_pos_site_id
_symmetry_equiv_pos_as_xyz
1 x,y,z
2 -x,-y,-z
_cell_length_a                   8.9134(6)
_cell_length_b                   9.2492(6)
_cell_length_c                   12.6225(8)
_cell_angle_alpha                84.1110(10)
_cell_angle_beta                 89.9260(10)
_cell_angle_gamma                83.0130(10)
_cell_volume                     1027.38
_exptl_crystal_colour            colorless
_exptl_crystal_description       parallelepiped
_cell_formula_units_Z            2
_exptl_crystal_recrystallization_method dichloromethane
loop_
_atom_site_label
_atom_site_type_symbol
_atom_site_fract_x
_atom_site_fract_y
_atom_site_fract_z
O1 O 0.16105(12) 0.71538(11) 0.52285(8)
O2 O 0.12115(12) 0.90041(10) 0.39365(8)
H1 H 0.1733 0.9402 0.4326
N1 N 0.25908(11) 0.27894(10) 0.25271(8)
N2 N 0.29817(11) 0.06835(10) 0.48778(8)
N3 N 0.49290(11) 0.21868(11) 0.03551(8)
C1 C 0.34591(13) 0.14317(12) 0.30171(9)
H2 H 0.4435 0.1282 0.2679
H3 H 0.2922 0.0603 0.2920
C2 C 0.36738(13) 0.15450(12) 0.41901(9)
C3 C 0.45817(13) 0.25857(13) 0.45128(10)
H4 H 0.5075 0.3156 0.4008
C4 C 0.47234(14) 0.27410(13) 0.55667(10)
H5 H 0.5311 0.3422 0.5786
C5 C 0.40319(14) 0.19634(14) 0.74397(10)
H6 H 0.4584 0.2644 0.7700
C6 C 0.32866(14) 0.10727(14) 0.81345(10)
H7 H 0.3336 0.1150 0.8862
C7 C 0.24423(13) 0.00350(13) 0.77484(10)
H8 H 0.1933 -0.0561 0.8225
C8 C 0.23658(13) -0.01026(13) 0.66787(9)
H9 H 0.1820 -0.0799 0.6434
C9 C 0.31194(12) 0.08179(12) 0.59473(9)
C10 C 0.39716(13) 0.18607(12) 0.63286(9)
C11 C 0.27294(13) 0.29386(13) 0.13690(9)
H10 H 0.2068 0.3794 0.1070
H11 H 0.2406 0.2086 0.1090
C12 C 0.43291(13) 0.30884(12) 0.10287(9)
C13 C 0.51105(14) 0.41659(13) 0.14354(10)
H12 H 0.4634 0.4789 0.1900
C14 C 0.65664(14) 0.42786(13) 0.11383(10)
H13 H 0.7092 0.4981 0.1396
C15 C 0.87966(13) 0.32963(14) 0.01158(10)
H14 H 0.9385 0.3955 0.0368
C16 C 0.94161(14) 0.23217(15) -0.05567(11)
H15 H 1.0420 0.2322 -0.0758
C17 C 0.85381(14) 0.13170(15) -0.09467(10)
H16 H 0.8965 0.0665 -0.1409
C18 C 0.70575(14) 0.12944(14) -0.06482(10)
H17 H 0.6489 0.0624 -0.0905
C19 C 0.63953(12) 0.22902(12) 0.00501(9)
C20 C 0.72706(13) 0.33139(13) 0.04326(9)
C21 C 0.09953(12) 0.28794(12) 0.28396(9)
H18 H 0.0929 0.2395 0.3554
H19 H 0.0451 0.2364 0.2362
C22 C 0.02470(13) 0.44540(12) 0.28115(9)
H20 H 0.0242 0.4919 0.2087
H21 H -0.0794 0.4456 0.3037
C23 C 0.10708(14) 0.53268(13) 0.35340(10)
H22 H 0.2054 0.5463 0.3237
H23 H 0.1231 0.4771 0.4228
C24 C 0.02041(14) 0.68202(13) 0.36705(10)
H24 H 0.0024 0.7374 0.2978
H25 H -0.0769 0.6690 0.3988
C25 C 0.10752(13) 0.76626(13) 0.43689(10)
loop_
_geom_bond_atom_site_label_1
_geom_bond_atom_site_label_2
_geom_bond_site_symmetry_1
_geom_bond_site_symmetry_2
O1 C25 1_555 1_555
O2 H1 1_555 1_555
N1 C1 1_555 1_555
N2 C2 1_555 1_555
N3 C12 1_555 1_555
C1 H2 1_555 1_555
H3 C1 1_555 1_555
C2 C1 1_555 1_555
C3 C2 1_555 1_555
H4 C3 1_555 1_555
C4 C3 1_555 1_555
H5 C4 1_555 1_555
C5 H6 1_555 1_555
C6 C5 1_555 1_555
H7 C6 1_555 1_555
C7 C6 1_555 1_555
H8 C7 1_555 1_555
C8 C7 1_555 1_555
H9 C8 1_555 1_555
C9 N2 1_555 1_555
C10 C4 1_555 1_555
C11 N1 1_555 1_555
H10 C11 1_555 1_555
H11 C11 1_555 1_555
C12 C11 1_555 1_555
C13 C12 1_555 1_555
H12 C13 1_555 1_555
C14 C13 1_555 1_555
H13 C14 1_555 1_555
C15 H14 1_555 1_555
C16 C15 1_555 1_555
H15 C16 1_555 1_555
C17 C16 1_555 1_555
H16 C17 1_555 1_555
C18 C17 1_555 1_555
H17 C18 1_555 1_555
C19 N3 1_555 1_555
C20 C14 1_555 1_555
C21 N1 1_555 1_555
H18 C21 1_555 1_555
H19 C21 1_555 1_555
C22 C21 1_555 1_555
H20 C22 1_555 1_555
H21 C22 1_555 1_555
C23 C22 1_555 1_555
H22 C23 1_555 1_555
H23 C23 1_555 1_555
C24 C23 1_555 1_555
H24 C24 1_555 1_555
H25 C24 1_555 1_555
C25 O2 1_555 1_555
C5 C10 1_555 1_555
C8 C9 1_555 1_555
C9 C10 1_555 1_555
C15 C20 1_555 1_555
C18 C19 1_555 1_555
C19 C20 1_555 1_555
C24 C25 1_555 1_555

#END
