
#######################################################################
#
#                 Cambridge Crystallographic Data Centre
#                                CCDC 
#
#######################################################################
#
# If this CIF has been generated from an entry in the Cambridge 
# Structural Database, then it will include bibliographic, chemical, 
# crystal, experimental, refinement or atomic coordinate data resulting 
# from the CCDC's data processing and validation procedures.
#
#######################################################################

data_XEHHUO
_chemical_formula_moiety         'C14 H22 O4 S1'
_chemical_name_systematic        
'1-((E)-Butadienylsulfonyl)-3,3-dimethylbut-2-yl methacrylate'
_symmetry_cell_setting           monoclinic
_symmetry_space_group_name_H-M   'P 21/c'
_symmetry_Int_Tables_number      14
_space_group_name_Hall           '-P 2ybc'
loop_
_symmetry_equiv_pos_site_id
_symmetry_equiv_pos_as_xyz
1 x,y,z
2 -x,1/2+y,1/2-z
3 -x,-y,-z
4 x,1/2-y,1/2+z
_cell_length_a                   8.8062(5)
_cell_length_b                   16.8880(10)
_cell_length_c                   10.6858(6)
_cell_angle_alpha                90
_cell_angle_beta                 93.1020(10)
_cell_angle_gamma                90
_cell_volume                     1586.85
_exptl_crystal_colour            colorless
_exptl_crystal_description       block
_cell_formula_units_Z            4
_exptl_crystal_recrystallization_method toluene
loop_
_atom_site_label
_atom_site_type_symbol
_atom_site_fract_x
_atom_site_fract_y
_atom_site_fract_z
C1 C 0.38702(11) 0.11749(6) 0.95398(10)
H1 H 0.3652 0.0606 0.9398
H2 H 0.3622 0.1301 1.0410
C2 C 0.28394(11) 0.16558(6) 0.86488(9)
H3 H 0.3214 0.1621 0.7784
C3 C 0.11579(12) 0.13997(6) 0.86252(10)
C4 C 0.05587(14) 0.13956(8) 0.99403(12)
H4 H 0.0714 0.1918 1.0324
H5 H 0.1106 0.0996 1.0453
H6 H -0.0529 0.1270 0.9887
C5 C 0.10063(14) 0.05714(7) 0.80474(12)
H7 H -0.0070 0.0423 0.7963
H8 H 0.1559 0.0189 0.8591
H9 H 0.1433 0.0572 0.7219
C6 C 0.02243(13) 0.19767(8) 0.77878(12)
H10 H -0.0841 0.1806 0.7727
H11 H 0.0624 0.1984 0.6950
H12 H 0.0292 0.2509 0.8151
C7 C 0.33767(11) 0.30301(6) 0.82837(9)
C8 C 0.35105(12) 0.38288(6) 0.88768(10)
C9 C 0.34282(16) 0.39078(7) 1.01140(11)
H13 H 0.3565 0.4413 1.0493
H14 H 0.3233 0.3458 1.0615
C10 C 0.38095(18) 0.44932(7) 0.80140(12)
H15 H 0.3886 0.4989 0.8489
H16 H 0.2975 0.4532 0.7372
H17 H 0.4766 0.4397 0.7611
C11 C 0.62538(12) 0.22577(6) 1.00759(10)
H18 H 0.5946 0.2366 1.0897
C12 C 0.69963(12) 0.28070(6) 0.94572(11)
H19 H 0.7191 0.2708 0.8606
C13 C 0.75245(13) 0.35494(7) 1.00118(12)
H20 H 0.7260 0.3673 1.0840
C14 C 0.83615(17) 0.40607(8) 0.94064(16)
H21 H 0.8637 0.3947 0.8578
H22 H 0.8685 0.4540 0.9801
O1 O 0.29568(8) 0.24705(4) 0.90888(6)
O2 O 0.36294(10) 0.29046(5) 0.72036(7)
O3 O 0.61579(10) 0.13718(5) 0.80823(9)
O4 O 0.66169(10) 0.07499(5) 1.01659(11)
S1 S 0.58416(3) 0.133785(15) 0.93886(3)
loop_
_geom_bond_atom_site_label_1
_geom_bond_atom_site_label_2
_geom_bond_site_symmetry_1
_geom_bond_site_symmetry_2
C1 H1 1_555 1_555
H2 C1 1_555 1_555
C2 C1 1_555 1_555
H3 C2 1_555 1_555
C3 C2 1_555 1_555
C4 C3 1_555 1_555
H4 C4 1_555 1_555
H5 C4 1_555 1_555
H6 C4 1_555 1_555
C5 C3 1_555 1_555
H7 C5 1_555 1_555
H8 C5 1_555 1_555
H9 C5 1_555 1_555
C6 C3 1_555 1_555
H10 C6 1_555 1_555
H11 C6 1_555 1_555
H12 C6 1_555 1_555
C7 C8 1_555 1_555
C8 C9 1_555 1_555
C9 H13 1_555 1_555
H14 C9 1_555 1_555
C10 C8 1_555 1_555
H15 C10 1_555 1_555
H16 C10 1_555 1_555
H17 C10 1_555 1_555
C11 H18 1_555 1_555
C12 C11 1_555 1_555
H19 C12 1_555 1_555
C13 C12 1_555 1_555
H20 C13 1_555 1_555
C14 C13 1_555 1_555
H21 C14 1_555 1_555
H22 C14 1_555 1_555
O1 C2 1_555 1_555
O2 C7 1_555 1_555
O3 S1 1_555 1_555
O4 S1 1_555 1_555
S1 C1 1_555 1_555
C7 O1 1_555 1_555
C11 S1 1_555 1_555

#END
