
#######################################################################
#
#                 Cambridge Crystallographic Data Centre
#                                CCDC 
#
#######################################################################
#
# If this CIF has been generated from an entry in the Cambridge 
# Structural Database, then it will include bibliographic, chemical, 
# crystal, experimental, refinement or atomic coordinate data resulting 
# from the CCDC's data processing and validation procedures.
#
#######################################################################

data_XEHMOM04
_chemical_formula_moiety         'C13 H10 N4'
_chemical_name_systematic        
3-(2,2-Dicyanoethenyl)-1-phenyl-4,5-dihydropyrazole
_symmetry_cell_setting           monoclinic
_symmetry_space_group_name_H-M   'C c'
_symmetry_Int_Tables_number      9
_space_group_name_Hall           'C -2yc'
loop_
_symmetry_equiv_pos_site_id
_symmetry_equiv_pos_as_xyz
1 x,y,z
2 x,-y,1/2+z
3 1/2+x,1/2+y,z
4 1/2+x,1/2-y,1/2+z
_cell_length_a                   11.8751(5)
_cell_length_b                   12.3735(5)
_cell_length_c                   7.8876(3)
_cell_angle_alpha                90
_cell_angle_beta                 90.412(2)
_cell_angle_gamma                90
_cell_volume                     1158.95
_exptl_crystal_colour            red
_exptl_crystal_description       irregular
_cell_formula_units_Z            4
loop_
_atom_site_label
_atom_site_type_symbol
_atom_site_fract_x
_atom_site_fract_y
_atom_site_fract_z
N1 N 0.5680(3) 0.0617(2) 1.3306(4)
N2 N 0.5043(3) 0.3978(3) 1.2314(5)
N3 N 0.3487(3) 0.1913(2) 0.7106(4)
N4 N 0.3117(3) 0.2651(2) 0.6021(3)
C1 C 0.5296(3) 0.1237(3) 1.2380(5)
C2 C 0.4955(3) 0.3117(3) 1.1817(5)
C3 C 0.4852(3) 0.2029(3) 1.1231(4)
C4 C 0.4376(3) 0.1725(3) 0.9743(5)
C5 C 0.3924(3) 0.2390(2) 0.8453(4)
C6 C 0.3377(4) 0.3779(3) 0.6567(5)
C7 C 0.3852(4) 0.3605(3) 0.8359(5)
C8 C 0.2632(3) 0.2358(3) 0.4468(4)
C9 C 0.2547(3) 0.1276(3) 0.4016(5)
C10 C 0.2039(4) 0.1005(5) 0.2489(6)
C11 C 0.1624(4) 0.1796(7) 0.1407(7)
C12 C 0.1710(4) 0.2852(5) 0.1856(6)
C13 C 0.2215(3) 0.3157(4) 0.3378(6)
H1 H 0.435(2) 0.097(2) 0.950(4)
H2 H 0.391(3) 0.405(2) 0.587(5)
H3 H 0.260(3) 0.419(3) 0.651(5)
H4 H 0.462(3) 0.391(3) 0.861(5)
H5 H 0.331(3) 0.383(2) 0.915(4)
H6 H 0.285(3) 0.073(3) 0.487(5)
H7 H 0.197(3) 0.030(3) 0.224(5)
H8 H 0.129(4) 0.162(4) 0.028(7)
H9 H 0.139(3) 0.352(4) 0.114(6)
H10 H 0.224(3) 0.393(3) 0.365(6)
loop_
_geom_bond_atom_site_label_1
_geom_bond_atom_site_label_2
_geom_bond_site_symmetry_1
_geom_bond_site_symmetry_2
N1 C1 1_555 1_555
N2 C2 1_555 1_555
N3 N4 1_555 1_555
N4 C6 1_555 1_555
C1 C3 1_555 1_555
C2 C3 1_555 1_555
C3 C4 1_555 1_555
C4 C5 1_555 1_555
C5 N3 1_555 1_555
C6 C7 1_555 1_555
C7 C5 1_555 1_555
C8 N4 1_555 1_555
C9 C8 1_555 1_555
C10 C9 1_555 1_555
C11 C10 1_555 1_555
C12 C11 1_555 1_555
C13 C8 1_555 1_555
H1 C4 1_555 1_555
H2 C6 1_555 1_555
H3 C6 1_555 1_555
H4 C7 1_555 1_555
H5 C7 1_555 1_555
H6 C9 1_555 1_555
H7 C10 1_555 1_555
H8 C11 1_555 1_555
H9 C12 1_555 1_555
H10 C13 1_555 1_555
C12 C13 1_555 1_555

#END
