
#######################################################################
#
#                 Cambridge Crystallographic Data Centre
#                                CCDC 
#
#######################################################################
#
# If this CIF has been generated from an entry in the Cambridge 
# Structural Database, then it will include bibliographic, chemical, 
# crystal, experimental, refinement or atomic coordinate data resulting 
# from the CCDC's data processing and validation procedures.
#
#######################################################################

data_XEHPOQ
_chemical_formula_moiety         'C27 H27 N1 O2'
_chemical_name_systematic        
(2RS,3SR,6SR)-3-ethyl-2,6-diphenyl-1-(phenylacetyl)piperidin-4-one
_symmetry_cell_setting           monoclinic
_symmetry_space_group_name_H-M   'P 21/c'
_symmetry_Int_Tables_number      14
_space_group_name_Hall           '-P 2ybc'
loop_
_symmetry_equiv_pos_site_id
_symmetry_equiv_pos_as_xyz
1 x,y,z
2 -x,1/2+y,1/2-z
3 -x,-y,-z
4 x,1/2-y,1/2+z
_cell_length_a                   19.355(6)
_cell_length_b                   22.944(8)
_cell_length_c                   9.959(3)
_cell_angle_alpha                90
_cell_angle_beta                 97.905(6)
_cell_angle_gamma                90
_cell_volume                     4380.58
_exptl_crystal_colour            colorless
_exptl_crystal_description       lath
_chemical_melting_point          '368-371 K'
_cell_formula_units_Z            8
_exptl_crystal_recrystallization_method ethanol/water
loop_
_atom_site_label
_atom_site_type_symbol
_atom_site_fract_x
_atom_site_fract_y
_atom_site_fract_z
N1 N 0.6763(3) 0.3221(3) 0.9826(6)
C1 C 0.6095(4) 0.3205(5) 1.0347(8)
C2 C 0.5988(4) 0.3713(5) 1.1295(8)
C3 C 0.6501(4) 0.3807(5) 1.2418(9)
C4 C 0.6409(6) 0.4260(6) 1.3317(10)
C5 C 0.5824(7) 0.4597(6) 1.3165(11)
C6 C 0.5314(6) 0.4504(6) 1.2081(12)
C7 C 0.5390(5) 0.4058(5) 1.1154(11)
C8 C 0.5503(4) 0.3123(5) 0.9160(9)
C9 C 0.5544(5) 0.2550(5) 0.8515(10)
C10 C 0.5403(6) 0.2030(5) 0.9362(11)
C11 C 0.5511(4) 0.3595(5) 0.8117(9)
O1 O 0.4994(3) 0.3714(3) 0.7273(6)
C12 C 0.6148(4) 0.3930(4) 0.8189(8)
C13 C 0.6838(4) 0.3582(4) 0.8596(8)
C14 C 0.7431(4) 0.4012(3) 0.8795(8)
C15 C 0.7574(4) 0.4338(4) 1.0009(8)
C16 C 0.8106(5) 0.4738(4) 1.0139(10)
C17 C 0.8494(4) 0.4850(4) 0.9134(10)
C18 C 0.8363(4) 0.4526(4) 0.7949(9)
C19 C 0.7838(4) 0.4103(4) 0.7785(8)
C20 C 0.7275(4) 0.2832(4) 1.0293(8)
O2 O 0.7193(3) 0.2498(3) 1.1245(6)
C21 C 0.7936(4) 0.2809(3) 0.9635(8)
C22 C 0.8359(4) 0.2263(4) 0.9909(8)
C23 C 0.8311(4) 0.1809(4) 0.8988(9)
C24 C 0.8698(5) 0.1317(4) 0.9191(9)
C25 C 0.9187(4) 0.1258(4) 1.0353(9)
C26 C 0.9243(4) 0.1694(4) 1.1271(9)
C27 C 0.8838(4) 0.2203(4) 1.1092(8)
H1 H 0.6101 0.2844 1.0910
H2 H 0.6905 0.3567 1.2563
H3 H 0.6764 0.4335 1.4054
H4 H 0.5769 0.4895 1.3804
H5 H 0.4909 0.4743 1.1962
H6 H 0.5030 0.3990 1.0422
H7 H 0.5049 0.3145 0.9529
H8 H 0.6016 0.2507 0.8250
H9 H 0.5206 0.2544 0.7673
H10 H 0.4948 0.2074 0.9674
H11 H 0.5767 0.2001 1.0148
H12 H 0.5404 0.1674 0.8815
H13 H 0.6128 0.4249 0.8852
H14 H 0.6166 0.4111 0.7292
H15 H 0.6910 0.3314 0.7835
H16 H 0.7305 0.4281 1.0727
H17 H 0.8207 0.4946 1.0969
H18 H 0.8846 0.5142 0.9237
H19 H 0.8635 0.4592 0.7238
H20 H 0.7762 0.3878 0.6977
H21 H 0.7808 0.2851 0.8642
H22 H 0.8232 0.3147 0.9955
H23 H 0.7993 0.1844 0.8176
H24 H 0.8636 0.1011 0.8543
H25 H 0.9471 0.0920 1.0493
H26 H 0.9570 0.1655 1.2070
H27 H 0.8887 0.2502 1.1760
N2 N 0.7780(3) 0.7033(3) 0.3650(6)
C28 C 0.7804(4) 0.6604(4) 0.2513(8)
C29 C 0.8336(4) 0.6127(3) 0.2872(8)
C30 C 0.8316(5) 0.5773(4) 0.3979(8)
C31 C 0.8800(5) 0.5343(4) 0.4243(9)
C32 C 0.9309(5) 0.5248(4) 0.3449(10)
C33 C 0.9344(4) 0.5603(3) 0.2308(8)
C34 C 0.8855(4) 0.6039(3) 0.2027(8)
C35 C 0.7057(4) 0.6369(4) 0.2075(8)
C36 C 0.7021(4) 0.6025(4) 0.0778(8)
C37 C 0.6417(5) 0.5574(5) 0.0659(10)
C38 C 0.6532(4) 0.6883(4) 0.1948(8)
O3 O 0.6163(3) 0.6997(3) 0.0870(5)
C39 C 0.6523(4) 0.7261(4) 0.3121(7)
C40 C 0.7137(4) 0.7120(4) 0.4259(7)
C41 C 0.7030(4) 0.6645(4) 0.5269(7)
C42 C 0.7553(4) 0.6584(4) 0.6401(8)
C43 C 0.7513(5) 0.6144(4) 0.7334(9)
C44 C 0.6975(5) 0.5751(5) 0.7195(9)
C45 C 0.6433(5) 0.5819(5) 0.6104(9)
C46 C 0.6475(4) 0.6263(5) 0.5169(8)
C47 C 0.8332(4) 0.7413(4) 0.4046(8)
O4 O 0.8300(3) 0.7766(3) 0.4954(5)
C48 C 0.8982(4) 0.7358(3) 0.3368(7)
C49 C 0.9411(4) 0.7912(4) 0.3484(8)
C50 C 0.9853(4) 0.8049(4) 0.4697(7)
C51 C 1.0237(4) 0.8554(4) 0.4775(8)
C52 C 1.0202(4) 0.8941(4) 0.3692(8)
C53 C 0.9773(5) 0.8794(4) 0.2489(9)
C54 C 0.9397(4) 0.8286(4) 0.2419(8)
H28 H 0.7945 0.6824 0.1727
H29 H 0.7968 0.5828 0.4553
H30 H 0.8783 0.5101 0.5011
H31 H 0.9638 0.4943 0.3663
H32 H 0.9697 0.5545 0.1745
H33 H 0.8867 0.6282 0.1258
H34 H 0.6937 0.6101 0.2801
H35 H 0.7469 0.5819 0.0755
H36 H 0.6949 0.6295 -0.0005
H37 H 0.6516 0.5280 0.1373
H38 H 0.6374 0.5385 -0.0230
H39 H 0.5979 0.5774 0.0759
H40 H 0.6075 0.7212 0.3482
H41 H 0.6557 0.7673 0.2838
H42 H 0.7215 0.7486 0.4807
H43 H 0.7935 0.6848 0.6521
H44 H 0.7868 0.6113 0.8092
H45 H 0.6966 0.5440 0.7822
H46 H 0.6044 0.5563 0.6008
H47 H 0.6108 0.6305 0.4437
H48 H 0.8847 0.7262 0.2398
H49 H 0.9271 0.7033 0.3791
H50 H 0.9884 0.7793 0.5452
H51 H 1.0535 0.8642 0.5590
H52 H 1.0460 0.9294 0.3766
H53 H 0.9743 0.9045 0.1725
H54 H 0.9115 0.8190 0.1590
loop_
_geom_bond_atom_site_label_1
_geom_bond_atom_site_label_2
_geom_bond_site_symmetry_1
_geom_bond_site_symmetry_2
N1 C1 1_555 1_555
C1 C2 1_555 1_555
C2 C3 1_555 1_555
C3 C4 1_555 1_555
C4 C5 1_555 1_555
C5 C6 1_555 1_555
C6 C7 1_555 1_555
C7 C2 1_555 1_555
C8 C1 1_555 1_555
C9 C8 1_555 1_555
C10 C9 1_555 1_555
C11 C8 1_555 1_555
O1 C11 1_555 1_555
C12 C11 1_555 1_555
C13 N1 1_555 1_555
C14 C13 1_555 1_555
C15 C14 1_555 1_555
C16 C15 1_555 1_555
C17 C16 1_555 1_555
C18 C17 1_555 1_555
C19 C14 1_555 1_555
C20 N1 1_555 1_555
O2 C20 1_555 1_555
C21 C20 1_555 1_555
C22 C21 1_555 1_555
C23 C22 1_555 1_555
C24 C23 1_555 1_555
C25 C24 1_555 1_555
C26 C25 1_555 1_555
C27 C22 1_555 1_555
N2 C28 1_555 1_555
C28 C29 1_555 1_555
C29 C30 1_555 1_555
C30 C31 1_555 1_555
C31 C32 1_555 1_555
C32 C33 1_555 1_555
C33 C34 1_555 1_555
C34 C29 1_555 1_555
C35 C28 1_555 1_555
C36 C35 1_555 1_555
C37 C36 1_555 1_555
C38 C35 1_555 1_555
O3 C38 1_555 1_555
C39 C38 1_555 1_555
C40 N2 1_555 1_555
C41 C40 1_555 1_555
C42 C41 1_555 1_555
C43 C42 1_555 1_555
C44 C43 1_555 1_555
C45 C44 1_555 1_555
C46 C41 1_555 1_555
C47 N2 1_555 1_555
O4 C47 1_555 1_555
C48 C47 1_555 1_555
C49 C48 1_555 1_555
C50 C49 1_555 1_555
C51 C50 1_555 1_555
C52 C51 1_555 1_555
C53 C52 1_555 1_555
C54 C49 1_555 1_555
H1 C1 1_555 1_555
H2 C3 1_555 1_555
H3 C4 1_555 1_555
H4 C5 1_555 1_555
H5 C6 1_555 1_555
H6 C7 1_555 1_555
H7 C8 1_555 1_555
H8 C9 1_555 1_555
H9 C9 1_555 1_555
H10 C10 1_555 1_555
H11 C10 1_555 1_555
H12 C10 1_555 1_555
H13 C12 1_555 1_555
H14 C12 1_555 1_555
H15 C13 1_555 1_555
H16 C15 1_555 1_555
H17 C16 1_555 1_555
H18 C17 1_555 1_555
H19 C18 1_555 1_555
H20 C19 1_555 1_555
H21 C21 1_555 1_555
H22 C21 1_555 1_555
H23 C23 1_555 1_555
H24 C24 1_555 1_555
H25 C25 1_555 1_555
H26 C26 1_555 1_555
H27 C27 1_555 1_555
H28 C28 1_555 1_555
H29 C30 1_555 1_555
H30 C31 1_555 1_555
H31 C32 1_555 1_555
H32 C33 1_555 1_555
H33 C34 1_555 1_555
H34 C35 1_555 1_555
H35 C36 1_555 1_555
H36 C36 1_555 1_555
H37 C37 1_555 1_555
H38 C37 1_555 1_555
H39 C37 1_555 1_555
H40 C39 1_555 1_555
H41 C39 1_555 1_555
H42 C40 1_555 1_555
H43 C42 1_555 1_555
H44 C43 1_555 1_555
H45 C44 1_555 1_555
H46 C45 1_555 1_555
H47 C46 1_555 1_555
H48 C48 1_555 1_555
H49 C48 1_555 1_555
H50 C50 1_555 1_555
H51 C51 1_555 1_555
H52 C52 1_555 1_555
H53 C53 1_555 1_555
H54 C54 1_555 1_555
C12 C13 1_555 1_555
C18 C19 1_555 1_555
C26 C27 1_555 1_555
C39 C40 1_555 1_555
C45 C46 1_555 1_555
C53 C54 1_555 1_555

#END
