
#######################################################################
#
#                 Cambridge Crystallographic Data Centre
#                                CCDC 
#
#######################################################################
#
# If this CIF has been generated from an entry in the Cambridge 
# Structural Database, then it will include bibliographic, chemical, 
# crystal, experimental, refinement or atomic coordinate data resulting 
# from the CCDC's data processing and validation procedures.
#
#######################################################################

data_XEHSUB
_chemical_formula_moiety         'C24 H19 N1 O2'
_chemical_name_systematic        
11a-(2-phenylethenyl)-11,11a-dihydro[1]benzopyrano[4,3-b]indole-6a(6H)-carbaldehyde
_symmetry_cell_setting           triclinic
_symmetry_space_group_name_H-M   'P -1'
_symmetry_Int_Tables_number      2
_space_group_name_Hall           '-P 1'
loop_
_symmetry_equiv_pos_site_id
_symmetry_equiv_pos_as_xyz
1 x,y,z
2 -x,-y,-z
_cell_length_a                   9.2362(9)
_cell_length_b                   9.2949(8)
_cell_length_c                   10.8564(9)
_cell_angle_alpha                89.518(7)
_cell_angle_beta                 83.330(8)
_cell_angle_gamma                80.219(8)
_cell_volume                     912.192
_exptl_crystal_colour            white
_exptl_crystal_description       block
_cell_formula_units_Z            2
loop_
_atom_site_label
_atom_site_type_symbol
_atom_site_fract_x
_atom_site_fract_y
_atom_site_fract_z
O1 O 0.33005(14) 0.40812(15) 0.05963(10)
O2 O 0.57526(14) 0.47662(16) 0.34369(13)
N1 N 0.11779(16) 0.63092(15) 0.36363(13)
H1 H 0.0241 0.6339 0.3809
C1 C 0.18912(19) 0.38701(18) 0.10138(15)
C2 C 0.1112(2) 0.33328(19) 0.01476(16)
H2 H 0.1561 0.3120 -0.0657
C3 C -0.0312(2) 0.3116(2) 0.04752(19)
H3 H -0.0828 0.2758 -0.0108
C4 C -0.0982(2) 0.3427(2) 0.1666(2)
H4 H -0.1950 0.3283 0.1889
C5 C -0.0207(2) 0.3954(2) 0.25291(17)
H5 H -0.0662 0.4151 0.3334
C6 C 0.12365(18) 0.41958(18) 0.22225(14)
C7 C 0.20125(17) 0.48658(17) 0.31901(14)
C8 C 0.15735(19) 0.73534(18) 0.27818(15)
C9 C 0.0838(2) 0.8758(2) 0.26065(19)
H6 H -0.0071 0.9110 0.3057
C10 C 0.1499(2) 0.9615(2) 0.1741(2)
H7 H 0.1017 1.0556 0.1605
C11 C 0.2854(2) 0.9115(2) 0.1073(2)
H8 H 0.3276 0.9722 0.0504
C12 C 0.3589(2) 0.7712(2) 0.12490(17)
H9 H 0.4505 0.7368 0.0808
C13 C 0.29237(18) 0.68345(18) 0.20970(15)
C14 C 0.34755(17) 0.53079(18) 0.25310(14)
C15 C 0.4533(2) 0.5453(2) 0.34708(16)
H10 H 0.4211 0.6123 0.4118
C16 C 0.42137(19) 0.4195(2) 0.15491(15)
H11 H 0.5136 0.4470 0.1185
H12 H 0.4445 0.3250 0.1932
C17 C 0.23019(19) 0.38715(19) 0.42730(14)
H13 H 0.2449 0.4305 0.5007
C18 C 0.2365(2) 0.2442(2) 0.42728(16)
H14 H 0.2152 0.2021 0.3555
C19 C 0.2738(2) 0.1448(2) 0.52916(16)
C20 C 0.2820(3) -0.0036(2) 0.5115(2)
H15 H 0.2660 -0.0386 0.4351
C21 C 0.3135(3) -0.1008(2) 0.6055(2)
H16 H 0.3172 -0.2001 0.5921
C22 C 0.3391(3) -0.0523(3) 0.7177(2)
H17 H 0.3606 -0.1181 0.7808
C23 C 0.3331(2) 0.0944(3) 0.73708(19)
H18 H 0.3518 0.1278 0.8132
C24 C 0.2994(2) 0.1930(2) 0.64415(18)
H19 H 0.2938 0.2923 0.6588
loop_
_geom_bond_atom_site_label_1
_geom_bond_atom_site_label_2
_geom_bond_site_symmetry_1
_geom_bond_site_symmetry_2
O1 C1 1_555 1_555
O2 C15 1_555 1_555
N1 H1 1_555 1_555
C1 C2 1_555 1_555
C2 H2 1_555 1_555
C3 C2 1_555 1_555
H3 C3 1_555 1_555
C4 C3 1_555 1_555
H4 C4 1_555 1_555
C5 C4 1_555 1_555
H5 C5 1_555 1_555
C6 C1 1_555 1_555
C7 N1 1_555 1_555
C8 N1 1_555 1_555
C9 C8 1_555 1_555
H6 C9 1_555 1_555
C10 C9 1_555 1_555
H7 C10 1_555 1_555
C11 C10 1_555 1_555
H8 C11 1_555 1_555
C12 C11 1_555 1_555
H9 C12 1_555 1_555
C13 C8 1_555 1_555
C14 C7 1_555 1_555
C15 C14 1_555 1_555
H10 C15 1_555 1_555
C16 O1 1_555 1_555
H11 C16 1_555 1_555
H12 C16 1_555 1_555
C17 C7 1_555 1_555
H13 C17 1_555 1_555
C18 C17 1_555 1_555
H14 C18 1_555 1_555
C19 C18 1_555 1_555
C20 C19 1_555 1_555
H15 C20 1_555 1_555
C21 C20 1_555 1_555
H16 C21 1_555 1_555
C22 C21 1_555 1_555
H17 C22 1_555 1_555
C23 C22 1_555 1_555
H18 C23 1_555 1_555
C24 C19 1_555 1_555
H19 C24 1_555 1_555
C5 C6 1_555 1_555
C6 C7 1_555 1_555
C12 C13 1_555 1_555
C13 C14 1_555 1_555
C14 C16 1_555 1_555
C23 C24 1_555 1_555

#END
