
#######################################################################
#
#                 Cambridge Crystallographic Data Centre
#                                CCDC 
#
#######################################################################
#
# If this CIF has been generated from an entry in the Cambridge 
# Structural Database, then it will include bibliographic, chemical, 
# crystal, experimental, refinement or atomic coordinate data resulting 
# from the CCDC's data processing and validation procedures.
#
#######################################################################

data_XEJCEX
_chemical_formula_moiety         'C23 H15 F2 N1 O1'
_chemical_name_systematic        
4-(3,3-difluoro-4-oxo-1,4-diphenylbut-1-en-1-yl)benzonitrile
_symmetry_cell_setting           triclinic
_symmetry_space_group_name_H-M   'P -1'
_symmetry_Int_Tables_number      2
_space_group_name_Hall           '-P 1'
loop_
_symmetry_equiv_pos_site_id
_symmetry_equiv_pos_as_xyz
1 x,y,z
2 -x,-y,-z
_cell_length_a                   6.4036(10)
_cell_length_b                   8.0350(12)
_cell_length_c                   18.041(3)
_cell_angle_alpha                97.831(3)
_cell_angle_beta                 95.750(3)
_cell_angle_gamma                102.675(3)
_cell_volume                     889.032
_exptl_crystal_colour            colorless
_exptl_crystal_description       prismatic
_chemical_melting_point          '410 K'
_cell_formula_units_Z            2
_exptl_crystal_recrystallization_method n-hexane/dichloromethane
loop_
_atom_site_label
_atom_site_type_symbol
_atom_site_fract_x
_atom_site_fract_y
_atom_site_fract_z
F1 F 0.26418(16) 0.47872(12) 0.15696(6)
F2 F 0.38206(16) 0.24961(14) 0.12476(6)
N1 N -0.3260(3) 1.0205(2) 0.27967(12)
O1 O -0.1039(2) 0.31376(16) 0.08893(8)
C1 C 0.0023(3) 0.2208(2) 0.11147(9)
C2 C 0.2238(3) 0.3066(2) 0.15962(9)
C3 C 0.2457(2) 0.2742(2) 0.23898(9)
H1 H 0.3059 0.1824 0.2480
C4 C 0.1883(2) 0.36242(19) 0.29867(9)
C5 C 0.2330(2) 0.3187(2) 0.37520(9)
C6 C 0.4199(3) 0.2678(2) 0.39702(10)
H2 H 0.5235 0.2673 0.3644
C7 C 0.4540(3) 0.2180(3) 0.46648(11)
H3 H 0.5798 0.1835 0.4803
C8 C 0.3041(4) 0.2190(3) 0.51521(12)
H4 H 0.3267 0.1839 0.5618
C9 C 0.1204(4) 0.2720(4) 0.49510(12)
H5 H 0.0184 0.2736 0.5283
C10 C 0.0861(3) 0.3230(3) 0.42609(10)
H6 H -0.0380 0.3610 0.4135
C11 C 0.0772(2) 0.5066(2) 0.29375(8)
C12 C 0.1864(3) 0.6756(2) 0.32256(10)
H7 H 0.3295 0.6985 0.3445
C13 C 0.0870(3) 0.8099(2) 0.31922(10)
H8 H 0.1628 0.9228 0.3383
C14 C -0.1270(3) 0.7760(2) 0.28727(9)
C15 C -0.2381(3) 0.6080(2) 0.25914(10)
H9 H -0.3820 0.5851 0.2379
C16 C -0.1367(3) 0.4741(2) 0.26234(10)
H10 H -0.2125 0.3612 0.2433
C17 C -0.2358(3) 0.9141(2) 0.28304(11)
C18 C -0.0761(3) 0.0299(2) 0.09816(8)
C19 C -0.2946(3) -0.0357(2) 0.07339(10)
H11 H -0.3832 0.0398 0.0662
C20 C -0.3818(3) -0.2110(3) 0.05930(12)
H12 H -0.5290 -0.2533 0.0433
C21 C -0.2525(4) -0.3230(3) 0.06870(12)
H13 H -0.3112 -0.4416 0.0588
C22 C -0.0359(4) -0.2604(2) 0.09279(11)
H14 H 0.0516 -0.3372 0.0988
C23 C 0.0545(3) -0.0841(2) 0.10826(10)
H15 H 0.2012 -0.0427 0.1252
loop_
_geom_bond_atom_site_label_1
_geom_bond_atom_site_label_2
_geom_bond_site_symmetry_1
_geom_bond_site_symmetry_2
F1 C2 1_555 1_555
F2 C2 1_555 1_555
N1 C17 1_555 1_555
O1 C1 1_555 1_555
C1 C2 1_555 1_555
C2 C3 1_555 1_555
C3 H1 1_555 1_555
C4 C3 1_555 1_555
C5 C4 1_555 1_555
C6 C5 1_555 1_555
H2 C6 1_555 1_555
C7 C6 1_555 1_555
H3 C7 1_555 1_555
C8 C7 1_555 1_555
H4 C8 1_555 1_555
C9 C8 1_555 1_555
H5 C9 1_555 1_555
C10 C5 1_555 1_555
H6 C10 1_555 1_555
C11 C4 1_555 1_555
C12 C11 1_555 1_555
H7 C12 1_555 1_555
C13 C12 1_555 1_555
H8 C13 1_555 1_555
C14 C13 1_555 1_555
C15 C14 1_555 1_555
H9 C15 1_555 1_555
C16 C11 1_555 1_555
H10 C16 1_555 1_555
C17 C14 1_555 1_555
C18 C1 1_555 1_555
C19 C18 1_555 1_555
H11 C19 1_555 1_555
C20 C19 1_555 1_555
H12 C20 1_555 1_555
C21 C20 1_555 1_555
H13 C21 1_555 1_555
C22 C21 1_555 1_555
H14 C22 1_555 1_555
C23 C18 1_555 1_555
H15 C23 1_555 1_555
C9 C10 1_555 1_555
C15 C16 1_555 1_555
C22 C23 1_555 1_555

#END
