
#######################################################################
#
#                 Cambridge Crystallographic Data Centre
#                                CCDC 
#
#######################################################################
#
# If this CIF has been generated from an entry in the Cambridge 
# Structural Database, then it will include bibliographic, chemical, 
# crystal, experimental, refinement or atomic coordinate data resulting 
# from the CCDC's data processing and validation procedures.
#
#######################################################################

data_XEJFAW
_chemical_formula_moiety         'C19 H24'
_chemical_name_systematic        
1,2,4-trimethyl-5-(2,4,5-trimethylbenzyl)benzene
_symmetry_cell_setting           triclinic
_symmetry_space_group_name_H-M   'P -1'
_symmetry_Int_Tables_number      2
_space_group_name_Hall           '-P 1'
loop_
_symmetry_equiv_pos_site_id
_symmetry_equiv_pos_as_xyz
1 x,y,z
2 -x,-y,-z
_cell_length_a                   5.1628(4)
_cell_length_b                   7.1504(4)
_cell_length_c                   21.1147(15)
_cell_angle_alpha                87.481(5)
_cell_angle_beta                 88.173(6)
_cell_angle_gamma                70.205(6)
_cell_volume                     732.585
_exptl_crystal_colour            colorless
_exptl_crystal_description       plate
_cell_formula_units_Z            2
_exptl_crystal_recrystallization_method 'Vapour deposition'
_exptl_crystal_preparation       Luminescent
loop_
_atom_site_label
_atom_site_type_symbol
_atom_site_fract_x
_atom_site_fract_y
_atom_site_fract_z
C1 C 0.7259(2) 0.71325(17) 0.23349(6)
H1 H 0.6651 0.8500 0.2146
H2 H 0.9280 0.6704 0.2383
C2 C 0.5929(2) 0.71883(16) 0.29922(5)
C3 C 0.6043(2) 0.86085(16) 0.34176(6)
C4 C 0.4786(2) 0.86378(16) 0.40138(5)
H3 H 0.4836 0.9613 0.4300
C5 C 0.3460(2) 0.72993(16) 0.42077(5)
C6 C 0.3389(2) 0.58578(16) 0.37873(6)
C7 C 0.4622(2) 0.58336(16) 0.31868(5)
H4 H 0.4569 0.4860 0.2900
C8 C 0.7501(2) 1.00704(17) 0.32398(6)
H5 H 0.6609 1.0899 0.2873
H6 H 0.9432 0.9343 0.3132
H7 H 0.7408 1.0917 0.3598
C9 C 0.2068(3) 0.74318(18) 0.48506(6)
H8 H 0.2375 0.8490 0.5085
H9 H 0.2837 0.6161 0.5086
H10 H 0.0087 0.7731 0.4799
C10 C 0.1968(2) 0.43804(17) 0.39729(6)
H11 H 0.2310 0.3395 0.3644
H12 H -0.0017 0.5080 0.4018
H13 H 0.2689 0.3707 0.4377
C11 C 0.6629(2) 0.57796(17) 0.18769(5)
C12 C 0.8181(2) 0.37500(17) 0.18528(5)
C13 C 0.7418(2) 0.26027(17) 0.14254(6)
H14 H 0.8456 0.1225 0.1410
C14 C 0.5202(2) 0.33858(18) 0.10197(6)
C15 C 0.3682(2) 0.54212(18) 0.10372(6)
C16 C 0.4429(2) 0.65633(17) 0.14667(6)
H15 H 0.3391 0.7941 0.1481
C17 C 1.0631(2) 0.28085(18) 0.22720(6)
H16 H 1.1356 0.1372 0.2210
H17 H 1.0064 0.3055 0.2717
H18 H 1.2064 0.3387 0.2161
C18 C 0.4426(3) 0.2041(2) 0.05852(6)
H19 H 0.4496 0.2514 0.0144
H20 H 0.2558 0.2058 0.0693
H21 H 0.5723 0.0681 0.0637
C19 C 0.1257(3) 0.6363(2) 0.06101(6)
H22 H -0.0189 0.5795 0.0718
H23 H 0.1847 0.6103 0.0167
H24 H 0.0540 0.7802 0.0668
loop_
_geom_bond_atom_site_label_1
_geom_bond_atom_site_label_2
_geom_bond_site_symmetry_1
_geom_bond_site_symmetry_2
C1 H1 1_555 1_555
H2 C1 1_555 1_555
C2 C1 1_555 1_555
C3 C2 1_555 1_555
C4 C3 1_555 1_555
H3 C4 1_555 1_555
C5 C4 1_555 1_555
C6 C5 1_555 1_555
C7 C2 1_555 1_555
H4 C7 1_555 1_555
C8 C3 1_555 1_555
H5 C8 1_555 1_555
H6 C8 1_555 1_555
H7 C8 1_555 1_555
C9 C5 1_555 1_555
H8 C9 1_555 1_555
H9 C9 1_555 1_555
H10 C9 1_555 1_555
C10 C6 1_555 1_555
H11 C10 1_555 1_555
H12 C10 1_555 1_555
H13 C10 1_555 1_555
C11 C1 1_555 1_555
C12 C11 1_555 1_555
C13 C12 1_555 1_555
H14 C13 1_555 1_555
C14 C13 1_555 1_555
C15 C14 1_555 1_555
C16 C11 1_555 1_555
H15 C16 1_555 1_555
C17 C12 1_555 1_555
H16 C17 1_555 1_555
H17 C17 1_555 1_555
H18 C17 1_555 1_555
C18 C14 1_555 1_555
H19 C18 1_555 1_555
H20 C18 1_555 1_555
H21 C18 1_555 1_555
C19 C15 1_555 1_555
H22 C19 1_555 1_555
H23 C19 1_555 1_555
H24 C19 1_555 1_555
C6 C7 1_555 1_555
C15 C16 1_555 1_555

#END
