
#######################################################################
#
#                 Cambridge Crystallographic Data Centre
#                                CCDC 
#
#######################################################################
#
# If this CIF has been generated from an entry in the Cambridge 
# Structural Database, then it will include bibliographic, chemical, 
# crystal, experimental, refinement or atomic coordinate data resulting 
# from the CCDC's data processing and validation procedures.
#
#######################################################################

data_XEJMOR
_chemical_formula_moiety         'C35 H27 N3 S1'
_chemical_name_systematic        
10-ethyl-3-(1,4,5-triphenyl-1H-imidazol-2-yl)-10H-phenothiazine
_symmetry_cell_setting           monoclinic
_symmetry_space_group_name_H-M   'P 21/n'
_symmetry_Int_Tables_number      14
_space_group_name_Hall           '-P 2yn'
loop_
_symmetry_equiv_pos_site_id
_symmetry_equiv_pos_as_xyz
1 x,y,z
2 1/2-x,1/2+y,1/2-z
3 -x,-y,-z
4 1/2+x,1/2-y,1/2+z
_cell_length_a                   9.184(2)
_cell_length_b                   15.906(4)
_cell_length_c                   18.479(5)
_cell_angle_alpha                90
_cell_angle_beta                 97.709(5)
_cell_angle_gamma                90
_cell_volume                     2675.03
_exptl_crystal_colour            colorless
_exptl_crystal_description       block
_cell_formula_units_Z            4
loop_
_atom_site_label
_atom_site_type_symbol
_atom_site_fract_x
_atom_site_fract_y
_atom_site_fract_z
S1 S 0.14378(9) 1.05799(4) 0.19258(3)
N1 N -0.1202(2) 0.95190(12) 0.18532(10)
N2 N 0.2289(2) 0.91957(11) 0.51394(10)
N3 N 0.2666(2) 1.05418(11) 0.49534(10)
C1 C 0.0949(3) 0.97860(14) 0.12790(12)
C2 C 0.1817(3) 0.96323(16) 0.07444(14)
H1 H 0.2702 0.9917 0.0748
C3 C 0.1377(3) 0.90563(18) 0.02019(14)
H2 H 0.1952 0.8957 -0.0167
C4 C 0.0089(4) 0.86333(18) 0.02121(15)
H3 H -0.0213 0.8245 -0.0153
C5 C -0.0765(3) 0.87718(16) 0.07512(14)
H4 H -0.1633 0.8470 0.0753
C6 C -0.0355(3) 0.93531(15) 0.12923(13)
C7 C -0.2733(3) 0.92590(18) 0.17630(14)
H5 H -0.3119 0.9327 0.2223
H6 H -0.2797 0.8668 0.1633
C8 C -0.3648(3) 0.97586(19) 0.11862(15)
H7 H -0.4650 0.9573 0.1146
H8 H -0.3285 0.9681 0.0727
H9 H -0.3595 1.0343 0.1315
C9 C -0.0453(3) 0.96043(14) 0.25644(13)
C10 C 0.0813(3) 1.00923(13) 0.26751(12)
C11 C 0.1571(3) 1.01906(14) 0.33670(13)
H10 H 0.2413 1.0522 0.3434
C12 C 0.1091(3) 0.98010(14) 0.39650(12)
C13 C -0.0175(3) 0.93276(15) 0.38487(13)
H11 H -0.0524 0.9072 0.4244
C14 C -0.0930(3) 0.92262(14) 0.31628(13)
H12 H -0.1775 0.8898 0.3099
C15 C 0.1989(3) 0.98679(15) 0.46806(12)
C16 C 0.3431(3) 1.03077(14) 0.56171(12)
C17 C 0.3219(3) 0.94746(14) 0.57390(12)
C18 C 0.4184(3) 1.09399(14) 0.61056(12)
C19 C 0.3860(3) 1.17809(15) 0.59838(13)
H13 H 0.3226 1.1940 0.5572
C20 C 0.4465(3) 1.23845(16) 0.64650(14)
H14 H 0.4221 1.2947 0.6381
C21 C 0.5423(3) 1.21631(17) 0.70659(14)
H15 H 0.5836 1.2573 0.7389
C22 C 0.5767(3) 1.13409(17) 0.71883(14)
H16 H 0.6421 1.1188 0.7596
C23 C 0.5153(3) 1.07329(15) 0.67132(13)
H17 H 0.5398 1.0172 0.6804
C24 C 0.3832(3) 0.88801(14) 0.63122(13)
C25 C 0.5066(3) 0.84326(15) 0.62216(14)
H18 H 0.5500 0.8509 0.5800
C26 C 0.5677(3) 0.78727(17) 0.67419(17)
H19 H 0.6522 0.7578 0.6673
C27 C 0.5044(5) 0.77498(19) 0.73574(18)
H20 H 0.5456 0.7373 0.7712
C28 C 0.3809(5) 0.8181(2) 0.74518(16)
H21 H 0.3370 0.8095 0.7871
C29 C 0.3197(4) 0.87476(18) 0.69296(15)
H22 H 0.2350 0.9039 0.6999
C30 C 0.1706(3) 0.83643(14) 0.50242(13)
C31 C 0.0680(3) 0.80841(17) 0.54367(14)
H23 H 0.0409 0.8414 0.5812
C32 C 0.0051(4) 0.73067(19) 0.52910(17)
H24 H -0.0654 0.7109 0.5566
C33 C 0.0464(4) 0.68276(19) 0.4741(2)
H25 H 0.0035 0.6303 0.4641
C34 C 0.1497(4) 0.71094(19) 0.43374(17)
H26 H 0.1771 0.6778 0.3963
C35 C 0.2137(3) 0.78824(15) 0.44814(13)
H27 H 0.2856 0.8075 0.4212
loop_
_geom_bond_atom_site_label_1
_geom_bond_atom_site_label_2
_geom_bond_site_symmetry_1
_geom_bond_site_symmetry_2
S1 C1 1_555 1_555
N1 C6 1_555 1_555
N2 C15 1_555 1_555
N3 C15 1_555 1_555
C1 C2 1_555 1_555
C2 H1 1_555 1_555
C3 C2 1_555 1_555
H2 C3 1_555 1_555
C4 C3 1_555 1_555
H3 C4 1_555 1_555
C5 C4 1_555 1_555
H4 C5 1_555 1_555
C6 C1 1_555 1_555
C7 N1 1_555 1_555
H5 C7 1_555 1_555
H6 C7 1_555 1_555
C8 C7 1_555 1_555
H7 C8 1_555 1_555
H8 C8 1_555 1_555
H9 C8 1_555 1_555
C9 N1 1_555 1_555
C10 S1 1_555 1_555
C11 C10 1_555 1_555
H10 C11 1_555 1_555
C12 C11 1_555 1_555
C13 C12 1_555 1_555
H11 C13 1_555 1_555
C14 C9 1_555 1_555
H12 C14 1_555 1_555
C15 C12 1_555 1_555
C16 N3 1_555 1_555
C17 N2 1_555 1_555
C18 C16 1_555 1_555
C19 C18 1_555 1_555
H13 C19 1_555 1_555
C20 C19 1_555 1_555
H14 C20 1_555 1_555
C21 C20 1_555 1_555
H15 C21 1_555 1_555
C22 C21 1_555 1_555
H16 C22 1_555 1_555
C23 C18 1_555 1_555
H17 C23 1_555 1_555
C24 C17 1_555 1_555
C25 C24 1_555 1_555
H18 C25 1_555 1_555
C26 C25 1_555 1_555
H19 C26 1_555 1_555
C27 C26 1_555 1_555
H20 C27 1_555 1_555
C28 C27 1_555 1_555
H21 C28 1_555 1_555
C29 C24 1_555 1_555
H22 C29 1_555 1_555
C30 N2 1_555 1_555
C31 C30 1_555 1_555
H23 C31 1_555 1_555
C32 C31 1_555 1_555
H24 C32 1_555 1_555
C33 C32 1_555 1_555
H25 C33 1_555 1_555
C34 C33 1_555 1_555
H26 C34 1_555 1_555
C35 C30 1_555 1_555
H27 C35 1_555 1_555
C5 C6 1_555 1_555
C9 C10 1_555 1_555
C13 C14 1_555 1_555
C16 C17 1_555 1_555
C22 C23 1_555 1_555
C28 C29 1_555 1_555
C34 C35 1_555 1_555

#END
