
#######################################################################
#
#                 Cambridge Crystallographic Data Centre
#                                CCDC 
#
#######################################################################
#
# If this CIF has been generated from an entry in the Cambridge 
# Structural Database, then it will include bibliographic, chemical, 
# crystal, experimental, refinement or atomic coordinate data resulting 
# from the CCDC's data processing and validation procedures.
#
#######################################################################

data_XEKKUW
_chemical_formula_moiety         'C26 H22 F2 N2 O2'
_chemical_name_systematic        
7-(diethylamino)-3-(2-(2-(2,4-difluorophenyl)pyridin-4-yl)vinyl)-2H-chromen-2-one
_symmetry_cell_setting           monoclinic
_symmetry_space_group_name_H-M   'P 21/c'
_symmetry_Int_Tables_number      14
_space_group_name_Hall           '-P 2ybc'
loop_
_symmetry_equiv_pos_site_id
_symmetry_equiv_pos_as_xyz
1 x,y,z
2 -x,1/2+y,1/2-z
3 -x,-y,-z
4 x,1/2-y,1/2+z
_cell_length_a                   8.3521(17)
_cell_length_b                   12.418(2)
_cell_length_c                   20.681(4)
_cell_angle_alpha                90
_cell_angle_beta                 97.923(4)
_cell_angle_gamma                90
_cell_volume                     2124.48
_exptl_crystal_colour            yellow
_exptl_crystal_description       block
_cell_formula_units_Z            4
loop_
_atom_site_label
_atom_site_type_symbol
_atom_site_fract_x
_atom_site_fract_y
_atom_site_fract_z
F1 F 0.55768(14) 0.57853(8) 0.81342(5)
F2 F 0.56480(17) 0.67898(10) 0.59679(5)
O1 O 0.10372(15) 0.39019(9) 1.12338(5)
O2 O 0.11920(19) 0.56312(10) 1.10621(6)
C1 C 0.3478(2) 0.69290(12) 0.88554(8)
H1 H 0.3600 0.6207 0.8753
N1 N 0.0745(2) 0.02119(11) 1.18124(8)
C2 C 0.1352(2) 0.28463(13) 1.10932(8)
N2 N 0.3682(2) 0.87646(11) 0.85483(7)
C3 C 0.4384(2) 0.74541(12) 0.77866(8)
C4 C 0.3850(2) 0.77079(12) 0.84257(8)
C5 C 0.2093(2) 0.25972(13) 1.05515(8)
C6 C 0.2238(2) 0.45017(13) 1.02911(8)
C7 C 0.1185(2) 0.09930(14) 1.14054(9)
C8 C 0.2466(2) 0.64107(14) 0.99017(8)
H2 H 0.1983 0.6670 1.0250
C9 C 0.2516(2) 0.34533(14) 1.01589(8)
H3 H 0.3006 0.3291 0.9793
C10 C 0.2682(2) 0.53493(14) 0.98680(8)
H4 H 0.3194 0.5118 0.9521
C11 C 0.0909(2) 0.20857(13) 1.15148(8)
H5 H 0.0425 0.2296 1.1874
C12 C 0.4040(2) 0.81637(13) 0.72625(8)
H6 H 0.3504 0.8803 0.7327
C13 C 0.2927(2) 0.71982(13) 0.94371(8)
C14 C 0.4461(2) 0.79562(14) 0.66556(9)
H7 H 0.4217 0.8443 0.6314
C15 C 0.5250(2) 0.70150(14) 0.65680(8)
C16 C 0.5189(2) 0.65225(13) 0.76529(8)
C17 C 0.3166(3) 0.90197(14) 0.91072(10)
H8 H 0.3052 0.9746 0.9200
C18 C 0.2789(3) 0.82882(14) 0.95574(9)
H9 H 0.2442 0.8522 0.9942
C19 C 0.5628(2) 0.62779(14) 0.70554(9)
H10 H 0.6159 0.5639 0.6985
C20 C 0.1933(3) 0.07281(14) 1.08536(10)
H11 H 0.2133 0.0009 1.0767
C21 C 0.0214(2) 0.04931(15) 1.24306(10)
H12 H -0.0351 -0.0116 1.2586
H13 H -0.0543 0.1088 1.2362
C22 C 0.2367(3) 0.15030(15) 1.04471(10)
H14 H 0.2860 0.1300 1.0089
C23 C 0.1187(3) -0.09171(15) 1.17306(12)
H15 H 0.1344 -0.1263 1.2155
H16 H 0.2206 -0.0945 1.1556
C24 C 0.1596(3) 0.0807(2) 1.29459(11)
H17 H 0.2358 0.0225 1.3012
H18 H 0.1187 0.0959 1.3348
H19 H 0.2122 0.1435 1.2806
C25 C -0.0047(3) -0.1526(2) 1.12910(16)
H20 H -0.1046 -0.1533 1.1472
H21 H 0.0318 -0.2252 1.1247
H22 H -0.0212 -0.1187 1.0870
C26 C 0.1478(2) 0.47519(13) 1.08620(8)
loop_
_geom_bond_atom_site_label_1
_geom_bond_atom_site_label_2
_geom_bond_site_symmetry_1
_geom_bond_site_symmetry_2
F1 C16 1_555 1_555
F2 C15 1_555 1_555
O1 C2 1_555 1_555
O2 C26 1_555 1_555
C1 H1 1_555 1_555
N1 C7 1_555 1_555
C2 C5 1_555 1_555
N2 C4 1_555 1_555
C3 C4 1_555 1_555
C4 C1 1_555 1_555
C5 C9 1_555 1_555
C6 C9 1_555 1_555
C7 C11 1_555 1_555
C8 H2 1_555 1_555
C9 H3 1_555 1_555
C10 C6 1_555 1_555
H4 C10 1_555 1_555
C11 C2 1_555 1_555
H5 C11 1_555 1_555
C12 C3 1_555 1_555
H6 C12 1_555 1_555
C13 C1 1_555 1_555
C14 C12 1_555 1_555
H7 C14 1_555 1_555
C15 C14 1_555 1_555
C16 C3 1_555 1_555
C17 N2 1_555 1_555
H8 C17 1_555 1_555
C18 C13 1_555 1_555
H9 C18 1_555 1_555
C19 C15 1_555 1_555
H10 C19 1_555 1_555
C20 C7 1_555 1_555
H11 C20 1_555 1_555
C21 N1 1_555 1_555
H12 C21 1_555 1_555
H13 C21 1_555 1_555
C22 C5 1_555 1_555
H14 C22 1_555 1_555
C23 N1 1_555 1_555
H15 C23 1_555 1_555
H16 C23 1_555 1_555
C24 C21 1_555 1_555
H17 C24 1_555 1_555
H18 C24 1_555 1_555
H19 C24 1_555 1_555
C25 C23 1_555 1_555
H20 C25 1_555 1_555
H21 C25 1_555 1_555
H22 C25 1_555 1_555
C26 O1 1_555 1_555
C6 C26 1_555 1_555
C8 C10 1_555 1_555
C8 C13 1_555 1_555
C16 C19 1_555 1_555
C17 C18 1_555 1_555
C20 C22 1_555 1_555

#END
