
#######################################################################
#
#                 Cambridge Crystallographic Data Centre
#                                CCDC 
#
#######################################################################
#
# If this CIF has been generated from an entry in the Cambridge 
# Structural Database, then it will include bibliographic, chemical, 
# crystal, experimental, refinement or atomic coordinate data resulting 
# from the CCDC's data processing and validation procedures.
#
#######################################################################

data_XEKLUX
_chemical_formula_moiety         'C33 H31 Cl2 N3 O4 S2'
_chemical_name_systematic        
'3-{2-[(4-chlorophenyl)diazenyl]propan-2-yl}-5-[(4-chlorophenyl)sulfonyl]-1-[(4-methylphenyl)sulfonyl]-4-phenyl-1,2,3,6-tetrahydropyridine unknown solvate'
_symmetry_cell_setting           triclinic
_symmetry_space_group_name_H-M   'P -1'
_symmetry_Int_Tables_number      2
_space_group_name_Hall           '-P 1'
loop_
_symmetry_equiv_pos_site_id
_symmetry_equiv_pos_as_xyz
1 x,y,z
2 -x,-y,-z
_cell_length_a                   9.974(3)
_cell_length_b                   14.056(4)
_cell_length_c                   14.062(4)
_cell_angle_alpha                83.992(5)
_cell_angle_beta                 88.531(5)
_cell_angle_gamma                73.514(5)
_cell_volume                     1879.97
_exptl_crystal_colour            yellow
_exptl_crystal_description       block
_cell_formula_units_Z            2
loop_
_atom_site_label
_atom_site_type_symbol
_atom_site_fract_x
_atom_site_fract_y
_atom_site_fract_z
S1 S 0.31083(8) 0.71287(6) 0.06333(5)
S2 S -0.07646(9) 0.90876(6) 0.30108(7)
Cl1 Cl 0.95799(11) 0.64438(10) 0.07255(10)
Cl2 Cl 0.65188(13) 0.04928(8) 0.51638(13)
N1 N 0.0673(3) 0.82119(19) 0.28412(17)
N2 N 0.2775(3) 0.5147(2) 0.4240(2)
O1 O 0.2838(2) 0.62828(19) 0.02686(16)
O2 O 0.2532(3) 0.8087(2) 0.01166(16)
O3 O -0.1717(3) 0.9075(2) 0.2275(2)
O4 O -0.1117(3) 0.89082(19) 0.3988(2)
C1 C 0.1238(4) 0.8174(2) 0.1865(2)
H1 H 0.1554 0.8759 0.1682
H2 H 0.0514 0.8170 0.1420
C2 C 0.2439(3) 0.7249(2) 0.18291(19)
C3 C 0.3031(3) 0.6604(2) 0.25795(19)
C4 C 0.2526(3) 0.6823(2) 0.3580(2)
H3 H 0.3366 0.6700 0.3975
C5 C 0.1768(4) 0.7938(2) 0.3567(2)
H4 H 0.1362 0.8079 0.4189
H5 H 0.2427 0.8325 0.3426
C6 C 0.4942(3) 0.6920(2) 0.0710(2)
C7 C 0.5827(4) 0.6099(3) 0.0321(2)
H6 H 0.5457 0.5653 0.0049
C8 C 0.7260(4) 0.5949(3) 0.0339(3)
H7 H 0.7859 0.5402 0.0081
C9 C 0.7784(4) 0.6618(3) 0.0744(3)
C10 C 0.6923(4) 0.7423(3) 0.1150(3)
H8 H 0.7299 0.7856 0.1439
C11 C 0.5481(4) 0.7578(2) 0.1120(2)
H9 H 0.4884 0.8125 0.1377
C12 C -0.0403(3) 1.0251(2) 0.2833(2)
C13 C 0.0258(4) 1.0545(3) 0.3562(3)
H10 H 0.0459 1.0148 0.4141
C14 C 0.0614(4) 1.1427(3) 0.3423(3)
H11 H 0.1073 1.1613 0.3908
C15 C 0.0300(4) 1.2039(3) 0.2577(3)
C16 C -0.0403(5) 1.1758(3) 0.1875(3)
H12 H -0.0654 1.2173 0.1310
C17 C -0.0743(4) 1.0848(3) 0.2008(3)
H13 H -0.1203 1.0657 0.1527
C18 C 0.0699(6) 1.3009(3) 0.2409(4)
H14 H 0.0094 1.3451 0.1931
H15 H 0.1650 1.2873 0.2195
H16 H 0.0605 1.3317 0.2995
C19 C 0.4256(3) 0.5719(2) 0.2493(2)
C20 C 0.4172(4) 0.4908(3) 0.2054(2)
H17 H 0.3331 0.4890 0.1796
C21 C 0.5402(6) 0.4097(3) 0.2003(3)
H18 H 0.5354 0.3534 0.1728
C22 C 0.6618(6) 0.4134(4) 0.2343(3)
H19 H 0.7417 0.3609 0.2277
C23 C 0.6707(4) 0.4920(4) 0.2779(3)
H20 H 0.7564 0.4930 0.3017
C24 C 0.5543(4) 0.5711(3) 0.2879(2)
H21 H 0.5610 0.6241 0.3203
C25 C 0.1673(4) 0.6116(2) 0.4052(2)
N3 N 0.2409(4) 0.4465(2) 0.4646(3)
C26 C 0.3459(4) 0.3534(3) 0.4780(3)
C27 C 0.4759(4) 0.3365(3) 0.4377(3)
H22 H 0.5003 0.3881 0.4011
C28 C 0.5700(4) 0.2442(3) 0.4509(3)
H23 H 0.6589 0.2328 0.4244
C29 C 0.5313(4) 0.1682(3) 0.5040(3)
C30 C 0.4072(5) 0.1816(3) 0.5470(4)
H24 H 0.3849 0.1299 0.5848
C31 C 0.3120(5) 0.2768(3) 0.5329(4)
H25 H 0.2243 0.2883 0.5612
C32 C 0.0584(4) 0.5966(3) 0.3400(3)
H26 H 0.1039 0.5603 0.2885
H27 H -0.0007 0.6604 0.3146
H28 H 0.0028 0.5597 0.3756
C33 C 0.1039(4) 0.6455(3) 0.4990(2)
H29 H 0.0431 0.7122 0.4882
H30 H 0.1770 0.6442 0.5426
H31 H 0.0513 0.6017 0.5257
loop_
_geom_bond_atom_site_label_1
_geom_bond_atom_site_label_2
_geom_bond_site_symmetry_1
_geom_bond_site_symmetry_2
S1 O1 1_555 1_555
S2 N1 1_555 1_555
Cl1 C9 1_555 1_555
Cl2 C29 1_555 1_555
N1 C1 1_555 1_555
N2 C25 1_555 1_555
O2 S1 1_555 1_555
O3 S2 1_555 1_555
O4 S2 1_555 1_555
C1 H1 1_555 1_555
H2 C1 1_555 1_555
C2 S1 1_555 1_555
C3 C2 1_555 1_555
C4 C3 1_555 1_555
H3 C4 1_555 1_555
C5 N1 1_555 1_555
H4 C5 1_555 1_555
H5 C5 1_555 1_555
C6 S1 1_555 1_555
C7 C6 1_555 1_555
H6 C7 1_555 1_555
C8 C7 1_555 1_555
H7 C8 1_555 1_555
C9 C8 1_555 1_555
C10 C9 1_555 1_555
H8 C10 1_555 1_555
C11 C6 1_555 1_555
H9 C11 1_555 1_555
C12 S2 1_555 1_555
C13 C12 1_555 1_555
H10 C13 1_555 1_555
C14 C13 1_555 1_555
H11 C14 1_555 1_555
C15 C14 1_555 1_555
C16 C15 1_555 1_555
H12 C16 1_555 1_555
C17 C12 1_555 1_555
H13 C17 1_555 1_555
C18 C15 1_555 1_555
H14 C18 1_555 1_555
H15 C18 1_555 1_555
H16 C18 1_555 1_555
C19 C3 1_555 1_555
C20 C19 1_555 1_555
H17 C20 1_555 1_555
C21 C20 1_555 1_555
H18 C21 1_555 1_555
C22 C21 1_555 1_555
H19 C22 1_555 1_555
C23 C22 1_555 1_555
H20 C23 1_555 1_555
C24 C19 1_555 1_555
H21 C24 1_555 1_555
C25 C4 1_555 1_555
N3 N2 1_555 1_555
C26 N3 1_555 1_555
C27 C26 1_555 1_555
H22 C27 1_555 1_555
C28 C27 1_555 1_555
H23 C28 1_555 1_555
C29 C28 1_555 1_555
C30 C29 1_555 1_555
H24 C30 1_555 1_555
C31 C26 1_555 1_555
H25 C31 1_555 1_555
C32 C25 1_555 1_555
H26 C32 1_555 1_555
H27 C32 1_555 1_555
H28 C32 1_555 1_555
C33 C25 1_555 1_555
H29 C33 1_555 1_555
H30 C33 1_555 1_555
H31 C33 1_555 1_555
C1 C2 1_555 1_555
C4 C5 1_555 1_555
C10 C11 1_555 1_555
C16 C17 1_555 1_555
C23 C24 1_555 1_555
C30 C31 1_555 1_555

#END
