
#######################################################################
#
#                 Cambridge Crystallographic Data Centre
#                                CCDC 
#
#######################################################################
#
# If this CIF has been generated from an entry in the Cambridge 
# Structural Database, then it will include bibliographic, chemical, 
# crystal, experimental, refinement or atomic coordinate data resulting 
# from the CCDC's data processing and validation procedures.
#
#######################################################################

data_XELGEC
_chemical_formula_moiety         'C27 H28 O10,2(H2 O1)'
_chemical_name_systematic        
'4-(3,4-Dihydroxy-5-(1-hydroxyethyl)tetrahydrofuran-2-yl)-1-hydroxy-8-(1-hydroxyethyl)-10,12-dimethoxy-6H-dibenzo[c,h]chromen-6-one dihydrate'
_symmetry_cell_setting           orthorhombic
_symmetry_space_group_name_H-M   'P 21 21 21'
_symmetry_Int_Tables_number      19
_space_group_name_Hall           'P 2ac 2ab'
loop_
_symmetry_equiv_pos_site_id
_symmetry_equiv_pos_as_xyz
1 x,y,z
2 1/2-x,-y,1/2+z
3 1/2+x,1/2-y,-z
4 -x,1/2+y,1/2-z
_cell_length_a                   16.9509(17)
_cell_length_b                   4.8840(4)
_cell_length_c                   31.013(3)
_cell_angle_alpha                90
_cell_angle_beta                 90
_cell_angle_gamma                90
_cell_volume                     2567.51
_cell_formula_units_Z            4
loop_
_atom_site_label
_atom_site_type_symbol
_atom_site_fract_x
_atom_site_fract_y
_atom_site_fract_z
O1 O 0.4407(2) -0.1619(11) 0.57314(15)
H1 H 0.4444 -0.1733 0.5468
O2 O 0.1975(2) 0.7341(9) 0.54874(12)
O3 O 0.1076(2) 1.0504(11) 0.53972(12)
O4 O 0.0205(3) 0.9588(14) 0.35826(16)
H2 H -0.0017 0.8756 0.3778
O5 O 0.3089(2) 0.6050(13) 0.39982(13)
O6 O 0.4296(2) 0.0187(11) 0.49786(15)
O7 O 0.2231(2) 0.6045(10) 0.67765(11)
O8 O 0.0247(2) 0.8303(11) 0.66600(14)
H3 H 0.0423 0.9718 0.6556
O9 O 0.1047(2) 0.2505(10) 0.62383(13)
H4 H 0.1194 0.1967 0.6001
O10 O 0.2273(2) 0.7452(11) 0.76416(13)
H5 H 0.2410 0.9010 0.7577
C1 C 0.3842(3) 0.0286(15) 0.5835(2)
C2 C 0.3645(3) 0.0415(15) 0.6264(2)
H10 H 0.3889 -0.0734 0.6462
C3 C 0.3067(3) 0.2316(15) 0.6401(2)
H11 H 0.2936 0.2395 0.6692
C4 C 0.2694(3) 0.4048(13) 0.61172(19)
C5 C 0.2899(3) 0.3925(14) 0.56666(18)
C6 C 0.2553(3) 0.5587(13) 0.53413(18)
C7 C 0.1550(3) 0.8999(14) 0.52271(18)
C8 C 0.1691(3) 0.8825(14) 0.47626(18)
C9 C 0.1201(3) 1.0341(15) 0.44918(19)
H12 H 0.0794 1.1363 0.4612
C10 C 0.1304(4) 1.0365(17) 0.40575(18)
C11 C 0.1949(4) 0.8888(17) 0.3899(2)
H13 H 0.2045 0.8913 0.3604
C12 C 0.2445(3) 0.7409(16) 0.41574(19)
C13 C 0.2324(3) 0.7206(14) 0.46091(18)
C14 C 0.2747(3) 0.5519(13) 0.49124(18)
C15 C 0.3352(3) 0.3614(15) 0.4792(2)
H14 H 0.3503 0.3477 0.4505
C16 C 0.3707(3) 0.2011(16) 0.5092(2)
C17 C 0.3496(3) 0.2037(14) 0.55268(19)
C18 C 0.2096(3) 0.5996(14) 0.63207(16)
H15 H 0.2191 0.7838 0.6207
C19 C 0.1211(3) 0.5362(14) 0.62791(18)
H16 H 0.0985 0.6368 0.6035
C20 C 0.0856(3) 0.6386(14) 0.67040(18)
H17 H 0.0643 0.4797 0.6858
C21 C 0.1571(3) 0.7434(14) 0.69582(17)
H18 H 0.1629 0.9409 0.6913
C22 C 0.1551(3) 0.6837(15) 0.74374(17)
H19 H 0.1449 0.4876 0.7475
C23 C 0.0891(4) 0.8401(17) 0.7659(2)
H20 H 0.0905 0.8037 0.7963
H21 H 0.0392 0.7826 0.7544
H22 H 0.0959 1.0327 0.7610
C24 C 0.0718(4) 1.1680(18) 0.3766(2)
H23 H 0.0398 1.2979 0.3932
C25 C 0.1034(5) 1.304(2) 0.3394(3)
H24 H 0.1118 1.1725 0.3168
H25 H 0.1527 1.3888 0.3467
H26 H 0.0669 1.4409 0.3297
C26 C 0.3295(4) 0.645(2) 0.3558(2)
H27 H 0.2914 0.5561 0.3377
H28 H 0.3808 0.5693 0.3505
H29 H 0.3301 0.8378 0.3495
C27 C 0.4540(4) 0.0008(19) 0.4543(2)
H30 H 0.4111 -0.0644 0.4370
H31 H 0.4976 -0.1238 0.4521
H32 H 0.4700 0.1785 0.4444
O11 O 0.6934(3) 0.7471(13) 0.73521(19)
H6 H 0.6433 0.7492 0.7342
H7 H 0.7101 0.9112 0.7353
O12 O 0.5239(4) 0.6605(18) 0.7319(2)
H8 H 0.5235 0.6346 0.7048
H9 H 0.5101 0.5124 0.7442
loop_
_geom_bond_atom_site_label_1
_geom_bond_atom_site_label_2
_geom_bond_site_symmetry_1
_geom_bond_site_symmetry_2
O1 H1 1_555 1_555
O2 C6 1_555 1_555
O3 C7 1_555 1_555
O4 H2 1_555 1_555
O5 C12 1_555 1_555
O6 C16 1_555 1_555
O7 C18 1_555 1_555
O8 H3 1_555 1_555
O9 H4 1_555 1_555
O10 H5 1_555 1_555
O11 H6 1_555 1_555
H7 O11 1_555 1_555
O12 H8 1_555 1_555
H9 O12 1_555 1_555
C1 O1 1_555 1_555
C2 C1 1_555 1_555
H10 C2 1_555 1_555
C3 C2 1_555 1_555
H11 C3 1_555 1_555
C4 C3 1_555 1_555
C5 C4 1_555 1_555
C6 C5 1_555 1_555
C7 O2 1_555 1_555
C8 C7 1_555 1_555
C9 C8 1_555 1_555
H12 C9 1_555 1_555
C10 C9 1_555 1_555
C11 C10 1_555 1_555
H13 C11 1_555 1_555
C12 C11 1_555 1_555
C13 C8 1_555 1_555
C14 C6 1_555 1_555
C15 C14 1_555 1_555
H14 C15 1_555 1_555
C16 C15 1_555 1_555
C17 C1 1_555 1_555
C18 C4 1_555 1_555
H15 C18 1_555 1_555
C19 O9 1_555 1_555
H16 C19 1_555 1_555
C20 O8 1_555 1_555
H17 C20 1_555 1_555
C21 O7 1_555 1_555
H18 C21 1_555 1_555
C22 O10 1_555 1_555
H19 C22 1_555 1_555
C23 C22 1_555 1_555
H20 C23 1_555 1_555
H21 C23 1_555 1_555
H22 C23 1_555 1_555
C24 O4 1_555 1_555
H23 C24 1_555 1_555
C25 C24 1_555 1_555
H24 C25 1_555 1_555
H25 C25 1_555 1_555
H26 C25 1_555 1_555
C26 O5 1_555 1_555
H27 C26 1_555 1_555
H28 C26 1_555 1_555
H29 C26 1_555 1_555
C27 O6 1_555 1_555
H30 C27 1_555 1_555
H31 C27 1_555 1_555
H32 C27 1_555 1_555
C5 C17 1_555 1_555
C10 C24 1_555 1_555
C12 C13 1_555 1_555
C13 C14 1_555 1_555
C16 C17 1_555 1_555
C18 C19 1_555 1_555
C19 C20 1_555 1_555
C20 C21 1_555 1_555
C21 C22 1_555 1_555

#END
