
#######################################################################
#
#                 Cambridge Crystallographic Data Centre
#                                CCDC 
#
#######################################################################
#
# If this CIF has been generated from an entry in the Cambridge 
# Structural Database, then it will include bibliographic, chemical, 
# crystal, experimental, refinement or atomic coordinate data resulting 
# from the CCDC's data processing and validation procedures.
#
#######################################################################

data_XELQUD
_chemical_formula_moiety         'C12 H15 N3 S1 Si1'
_chemical_name_systematic        
6,6-dimethyl-2-phenyl-6,7-dihydro-5H-[1,2,4]triazolo[5,1-b][1,3,5]thiazasiline
_symmetry_cell_setting           monoclinic
_symmetry_space_group_name_H-M   'P 21/n'
_symmetry_Int_Tables_number      14
_space_group_name_Hall           '-P 2yn'
loop_
_symmetry_equiv_pos_site_id
_symmetry_equiv_pos_as_xyz
1 x,y,z
2 1/2-x,1/2+y,1/2-z
3 -x,-y,-z
4 1/2+x,1/2-y,1/2+z
_cell_length_a                   6.4642(2)
_cell_length_b                   17.5522(5)
_cell_length_c                   11.5933(3)
_cell_angle_alpha                90
_cell_angle_beta                 92.2200(10)
_cell_angle_gamma                90
_cell_volume                     1314.4
_cell_formula_units_Z            4
loop_
_atom_site_label
_atom_site_type_symbol
_atom_site_fract_x
_atom_site_fract_y
_atom_site_fract_z
Si1 Si 0.60362(16) 0.16588(6) 0.35211(8)
N1 N 0.3042(4) 0.28160(15) 0.3307(2)
S1 S 0.33932(16) 0.19136(5) 0.13407(8)
C1 C -0.1373(5) 0.39779(19) 0.2894(3)
C2 C 0.5999(6) 0.1785(2) 0.1916(3)
H1 H 0.6844 0.2235 0.1723
H2 H 0.6619 0.1332 0.1557
C3 C 0.4804(5) 0.2567(2) 0.4031(3)
H3 H 0.4344 0.2490 0.4827
H4 H 0.5860 0.2976 0.4055
C4 C 0.0362(5) 0.34530(18) 0.2841(3)
C5 C -0.4619(6) 0.4483(2) 0.2129(3)
H5 H -0.5684 0.4489 0.1542
C6 C -0.4749(6) 0.4955(2) 0.3070(3)
H6 H -0.5901 0.5287 0.3132
N2 N 0.1749(4) 0.33701(16) 0.3700(2)
C7 C 0.8705(6) 0.1579(2) 0.4141(3)
H7 H 0.9343 0.1111 0.3861
H8 H 0.8670 0.1563 0.4985
H9 H 0.9516 0.2020 0.3905
C8 C 0.4470(6) 0.0815(2) 0.3890(3)
H10 H 0.5044 0.0360 0.3530
H11 H 0.3037 0.0889 0.3605
H12 H 0.4502 0.0749 0.4730
C9 C 0.2377(6) 0.26105(19) 0.2234(3)
C10 C -0.2939(6) 0.3998(2) 0.2035(3)
H13 H -0.2856 0.3678 0.1378
C11 C -0.1530(6) 0.4460(2) 0.3844(3)
H14 H -0.0479 0.4454 0.4440
C12 C -0.3198(6) 0.4946(2) 0.3928(3)
H15 H -0.3281 0.5275 0.4575
N3 N 0.0698(4) 0.30003(16) 0.1898(2)
loop_
_geom_bond_atom_site_label_1
_geom_bond_atom_site_label_2
_geom_bond_site_symmetry_1
_geom_bond_site_symmetry_2
Si1 C2 1_555 1_555
N1 C3 1_555 1_555
S1 C2 1_555 1_555
C1 C4 1_555 1_555
C2 H1 1_555 1_555
H2 C2 1_555 1_555
C3 Si1 1_555 1_555
H3 C3 1_555 1_555
H4 C3 1_555 1_555
C4 N2 1_555 1_555
C5 H5 1_555 1_555
C6 C5 1_555 1_555
H6 C6 1_555 1_555
N2 N1 1_555 1_555
C7 Si1 1_555 1_555
H7 C7 1_555 1_555
H8 C7 1_555 1_555
H9 C7 1_555 1_555
C8 Si1 1_555 1_555
H10 C8 1_555 1_555
H11 C8 1_555 1_555
H12 C8 1_555 1_555
C9 N1 1_555 1_555
C10 C1 1_555 1_555
H13 C10 1_555 1_555
C11 C1 1_555 1_555
H14 C11 1_555 1_555
C12 C6 1_555 1_555
H15 C12 1_555 1_555
N3 C4 1_555 1_555
S1 C9 1_555 1_555
C5 C10 1_555 1_555
C9 N3 1_555 1_555
C11 C12 1_555 1_555

#END
