
#######################################################################
#
#                 Cambridge Crystallographic Data Centre
#                                CCDC 
#
#######################################################################
#
# If this CIF has been generated from an entry in the Cambridge 
# Structural Database, then it will include bibliographic, chemical, 
# crystal, experimental, refinement or atomic coordinate data resulting 
# from the CCDC's data processing and validation procedures.
#
#######################################################################

data_XELRAJ
_chemical_formula_moiety         '0.5(C10 H10 N2 2+),C9 H7 O3 1-,C10 H8 N2'
_chemical_name_systematic        
"hemikis(4,4'-bipyridinediium) trans-2-hydroxycinnamate 4,4'-bipyridine"
_symmetry_cell_setting           triclinic
_symmetry_space_group_name_H-M   'P -1'
_symmetry_Int_Tables_number      2
_space_group_name_Hall           '-P 1'
loop_
_symmetry_equiv_pos_site_id
_symmetry_equiv_pos_as_xyz
1 x,y,z
2 -x,-y,-z
_cell_length_a                   7.4211(8)
_cell_length_b                   9.9516(11)
_cell_length_c                   13.8587(15)
_cell_angle_alpha                92.510(2)
_cell_angle_beta                 96.772(2)
_cell_angle_gamma                99.164(2)
_cell_volume                     1001.33
_exptl_crystal_colour            colorless
_exptl_crystal_description       prism
_cell_formula_units_Z            2
_exptl_crystal_recrystallization_method ethanol
loop_
_atom_site_label
_atom_site_type_symbol
_atom_site_fract_x
_atom_site_fract_y
_atom_site_fract_z
N1 N 0.2839(4) -0.2171(2) 0.92170(18)
H3 H 0.3528 -0.1485 0.9020
C3 C 0.3549(4) -0.3138(3) 0.9660(3)
H4 H 0.4823 -0.3064 0.9767
C4 C 0.2494(4) -0.4255(3) 0.9973(2)
H5 H 0.3060 -0.4917 1.0283
C5 C 0.0595(4) -0.4406(3) 0.98325(19)
C6 C -0.0115(4) -0.3366(3) 0.9378(2)
H6 H -0.1382 -0.3398 0.9270
C7 C 0.1034(5) -0.2285(3) 0.9083(3)
H7 H 0.0515 -0.1601 0.8775
N1A N -0.2839(4) -0.7829(2) 1.07830(18)
H3A H -0.3528 -0.8515 1.0980
C3A C -0.3549(4) -0.6862(3) 1.0340(3)
H4A H -0.4823 -0.6936 1.0233
C4A C -0.2494(4) -0.5745(3) 1.0027(2)
H5A H -0.3060 -0.5083 0.9717
C5A C -0.0595(4) -0.5594(3) 1.01675(19)
C6A C 0.0115(4) -0.6634(3) 1.0622(2)
H6A H 0.1382 -0.6602 1.0730
C7A C -0.1034(5) -0.7715(3) 1.0917(3)
H7A H -0.0515 -0.8399 1.1225
O4 O 0.7301(11) -0.0835(8) 0.9009(9)
O5 O 0.4845(8) 0.0110(6) 0.8682(5)
O6 O 0.8116(18) 0.385(2) 0.7375(13)
H8 H 0.7966 0.4532 0.7083
C8 C 0.6472(14) 0.0111(9) 0.8714(6)
C9 C 0.7481(8) 0.1314(5) 0.8298(4)
H9 H 0.6799 0.1912 0.7985
C10 C 0.9282(8) 0.1584(6) 0.8347(5)
H10 H 0.9881 0.0939 0.8658
C12 C 1.0520(8) 0.2700(7) 0.8008(7)
C13 C 0.9932(14) 0.3795(9) 0.7542(9)
C14 C 1.115(3) 0.4873(18) 0.723(2)
H12 H 1.0743 0.5591 0.6907
C15 C 1.298(4) 0.479(2) 0.742(2)
H13 H 1.3824 0.5497 0.7236
C16 C 1.366(2) 0.3731(16) 0.7883(15)
H14 H 1.4914 0.3714 0.7983
C17 C 1.2416(8) 0.2700(10) 0.8190(9)
H15 H 1.2846 0.1998 0.8521
N2 N 0.7346(4) 0.6076(3) 0.6241(2)
N3 N 0.7631(5) 1.2447(3) 0.4085(3)
C24 C 0.7412(5) 0.7232(4) 0.6748(3)
H20 H 0.7437 0.7205 0.7419
C25 C 0.7447(5) 0.8479(3) 0.6357(2)
H21 H 0.7501 0.9257 0.6763
C26 C 0.7404(4) 0.8583(3) 0.5372(2)
C27 C 0.7325(6) 0.7374(4) 0.4838(3)
H22 H 0.7295 0.7370 0.4165
C28 C 0.7291(6) 0.6171(4) 0.5294(3)
H23 H 0.7226 0.5372 0.4908
C29 C 0.7469(4) 0.9907(3) 0.4915(2)
C30 C 0.7259(5) 1.0018(4) 0.3931(3)
H24 H 0.7051 0.9240 0.3511
C31 C 0.7358(6) 1.1297(5) 0.3563(3)
H25 H 0.7219 1.1336 0.2889
C32 C 0.7823(7) 1.2323(4) 0.5021(3)
H26 H 0.8027 1.3121 0.5422
C33 C 0.7749(6) 1.1120(3) 0.5464(3)
H27 H 0.7890 1.1123 0.6140
C1? C 0.8646(11) 0.0700(8) 0.8806(6)
H1? H 0.9824 0.0588 0.9065
O1? O 0.7393(11) -0.1243(12) 0.9534(8)
C2? C 0.7047(18) -0.0314(15) 0.9042(13)
O2? O 0.782(4) 0.396(4) 0.723(3)
H2? H 0.7740 0.4649 0.6936
O3? O 0.535(2) -0.0248(18) 0.8697(15)
C11? C 0.8485(16) 0.1739(11) 0.8254(10)
H11? H 0.7294 0.1837 0.8010
C18? C 0.997(2) 0.2751(17) 0.7986(17)
C19? C 0.961(3) 0.3843(18) 0.7436(19)
C20? C 1.121(6) 0.466(4) 0.719(5)
H16? H 1.0975 0.5395 0.6831
C21? C 1.303(8) 0.456(5) 0.737(4)
H17? H 1.3974 0.5140 0.7152
C22? C 1.327(4) 0.347(4) 0.794(3)
H18? H 1.4464 0.3336 0.8159
C23? C 1.1802(19) 0.257(2) 0.819(2)
H19? H 1.2045 0.1807 0.8515
loop_
_geom_bond_atom_site_label_1
_geom_bond_atom_site_label_2
_geom_bond_site_symmetry_1
_geom_bond_site_symmetry_2
N1 H3 1_555 1_555
C3 N1 1_555 1_555
H4 C3 1_555 1_555
C4 C3 1_555 1_555
H5 C4 1_555 1_555
C5 C4 1_555 1_555
C6 C5 1_555 1_555
H6 C6 1_555 1_555
C7 N1 1_555 1_555
H7 C7 1_555 1_555
O4 C8 1_555 1_555
O5 C8 1_555 1_555
O6 H8 1_555 1_555
C8 C9 1_555 1_555
C9 H9 1_555 1_555
C10 C9 1_555 1_555
H10 C10 1_555 1_555
C12 C10 1_555 1_555
C13 O6 1_555 1_555
C14 C13 1_555 1_555
H12 C14 1_555 1_555
C15 C14 1_555 1_555
H13 C15 1_555 1_555
C16 C15 1_555 1_555
H14 C16 1_555 1_555
C17 C12 1_555 1_555
H15 C17 1_555 1_555
N2 C24 1_555 1_555
N3 C31 1_555 1_555
C24 H20 1_555 1_555
C25 C24 1_555 1_555
H21 C25 1_555 1_555
C26 C25 1_555 1_555
C27 C26 1_555 1_555
H22 C27 1_555 1_555
C28 N2 1_555 1_555
H23 C28 1_555 1_555
C29 C26 1_555 1_555
C30 C29 1_555 1_555
H24 C30 1_555 1_555
C31 C30 1_555 1_555
H25 C31 1_555 1_555
C32 N3 1_555 1_555
H26 C32 1_555 1_555
C33 C29 1_555 1_555
H27 C33 1_555 1_555
N1A H3A 1_555 1_555
C3A N1A 1_555 1_555
H4A C3A 1_555 1_555
C4A C3A 1_555 1_555
H5A C4A 1_555 1_555
C5A C5 1_555 1_555
C6A C5A 1_555 1_555
H6A C6A 1_555 1_555
C7A N1A 1_555 1_555
H7A C7A 1_555 1_555
C6 C7 1_555 1_555
C12 C13 1_555 1_555
C16 C17 1_555 1_555
C27 C28 1_555 1_555
C32 C33 1_555 1_555
C4A C5A 1_555 1_555
C6A C7A 1_555 1_555

#END
