
#######################################################################
#
#                 Cambridge Crystallographic Data Centre
#                                CCDC 
#
#######################################################################
#
# If this CIF has been generated from an entry in the Cambridge 
# Structural Database, then it will include bibliographic, chemical, 
# crystal, experimental, refinement or atomic coordinate data resulting 
# from the CCDC's data processing and validation procedures.
#
#######################################################################

data_XEMGON
_chemical_formula_moiety         'C98 F48,0.83(C6 H14)'
_chemical_name_systematic        
'hexadecakis(trifluoromethyl)-C82fullerene hexane solvate'
_symmetry_cell_setting           monoclinic
_symmetry_space_group_name_H-M   'P 21/c'
_symmetry_Int_Tables_number      14
_space_group_name_Hall           '-P 2ybc'
loop_
_symmetry_equiv_pos_site_id
_symmetry_equiv_pos_as_xyz
1 x,y,z
2 -x,1/2+y,1/2-z
3 -x,-y,-z
4 x,1/2-y,1/2+z
_cell_length_a                   13.100(1)
_cell_length_b                   19.235(1)
_cell_length_c                   29.087(1)
_cell_angle_alpha                90
_cell_angle_beta                 91.921(5)
_cell_angle_gamma                90
_cell_volume                     7325.18
_exptl_crystal_colour            orange
_exptl_crystal_description       needle
_cell_formula_units_Z            4
loop_
_atom_site_label
_atom_site_type_symbol
_atom_site_fract_x
_atom_site_fract_y
_atom_site_fract_z
F1 F -0.13521(14) 0.63701(11) 0.27677(7)
F2 F -0.08730(14) 0.73949(9) 0.29592(6)
F3 F -0.04657(16) 0.65303(11) 0.33872(6)
F4 F -0.19047(13) 0.68750(9) 0.19492(7)
F5 F -0.19847(13) 0.57596(9) 0.19256(7)
F6 F -0.19519(14) 0.63451(10) 0.13024(6)
F7 F 0.11708(14) 0.60264(9) 0.38922(5)
F8 F 0.19072(14) 0.50333(9) 0.38561(6)
F9 F 0.03968(14) 0.51785(9) 0.35548(6)
F10 F 0.04770(16) 0.85725(9) 0.29851(6)
F11 F 0.18631(15) 0.85852(9) 0.34032(7)
F12 F 0.07141(14) 0.78310(9) 0.35252(6)
F13 F -0.12991(13) 0.76346(9) 0.10522(6)
F14 F -0.11453(14) 0.69596(9) 0.04706(6)
F15 F -0.04694(13) 0.79698(9) 0.04701(6)
F16 F 0.14744(17) 0.33057(10) 0.27524(7)
F17 F 0.27913(15) 0.34486(11) 0.32018(7)
F18 F 0.14033(15) 0.39879(9) 0.33277(6)
F19 F 0.31782(15) 0.62820(9) 0.40414(6)
F20 F 0.25497(15) 0.73074(10) 0.39268(6)
F21 F 0.41636(14) 0.71384(10) 0.38951(6)
F22 F 0.2105(13) 0.9423(5) 0.2653(4)
F23 F 0.2670(13) 0.9779(4) 0.2018(6)
F24 F 0.1130(5) 0.9435(5) 0.2058(6)
F25 F 0.02256(14) 0.89323(9) 0.10563(6)
F26 F 0.16522(18) 0.94526(10) 0.11042(10)
F27 F 0.12015(17) 0.89177(10) 0.04853(6)
F28 F 0.05374(14) 0.71724(9) -0.01908(6)
F29 F 0.05842(14) 0.60680(9) -0.02683(6)
F30 F 0.18783(14) 0.66837(9) -0.04491(5)
F31 F 0.21201(14) 0.52432(9) -0.03744(5)
F32 F 0.10771(14) 0.45210(9) -0.00838(6)
F33 F 0.26630(15) 0.42526(10) -0.01427(6)
F34 F 0.18166(15) 0.28570(9) 0.11045(6)
F35 F 0.14550(15) 0.34055(9) 0.04762(6)
F36 F 0.29810(14) 0.30327(9) 0.06113(7)
F37 F 0.67017(14) 0.60964(9) 0.31089(6)
F38 F 0.66284(15) 0.72094(9) 0.31669(7)
F39 F 0.57993(15) 0.65629(10) 0.36273(6)
F40 F 0.3372(3) 0.86856(14) 0.01592(7)
F41 F 0.22558(15) 0.80465(11) -0.01470(6)
F42 F 0.37971(19) 0.77525(16) -0.01726(9)
F43 F 0.58533(15) 0.44284(11) 0.05285(7)
F44 F 0.61844(15) 0.38214(11) 0.11393(8)
F45 F 0.49907(15) 0.35014(10) 0.06605(7)
F46 F 0.65855(13) 0.79006(9) 0.08256(6)
F47 F 0.65450(14) 0.68596(10) 0.05528(7)
F48 F 0.56320(14) 0.76647(10) 0.02284(6)
C1 C 0.0474(2) 0.58808(14) 0.25177(9)
C2 C 0.0407(2) 0.66225(15) 0.26883(9)
C3 C 0.0500(2) 0.71166(13) 0.22757(10)
C4 C 0.01626(19) 0.69559(13) 0.18295(9)
C5 C -0.03834(19) 0.62645(12) 0.17445(9)
C6 C 0.0049(2) 0.57295(13) 0.20905(9)
C7 C 0.0356(2) 0.51296(13) 0.18569(9)
C8 C 0.1042(2) 0.46555(13) 0.20560(9)
C9 C 0.1449(2) 0.47975(14) 0.25066(9)
C10 C 0.1180(2) 0.54102(15) 0.27317(9)
C11 C 0.1784(3) 0.56878(14) 0.31551(10)
C12 C 0.2014(4) 0.6469(2) 0.31483(13)
C13 C 0.1361(4) 0.6903(2) 0.29447(15)
C14 C 0.1683(2) 0.76623(14) 0.28467(9)
C15 C 0.1175(2) 0.76702(14) 0.23593(10)
C16 C 0.1530(2) 0.80690(13) 0.19970(10)
C17 C 0.1198(2) 0.79072(13) 0.15453(10)
C18 C 0.0517(2) 0.73542(13) 0.14593(10)
C19 C 0.0335(2) 0.71131(14) 0.09569(9)
C20 C 0.0336(2) 0.63236(14) 0.09425(9)
C21 C -0.0018(2) 0.59462(13) 0.12993(9)
C22 C 0.0319(2) 0.52605(13) 0.13700(9)
C23 C 0.0980(2) 0.49283(13) 0.10693(9)
C24 C 0.1516(2) 0.43356(13) 0.12651(9)
C25 C 0.1553(2) 0.42116(12) 0.17344(9)
C26 C 0.2540(2) 0.39130(12) 0.18680(9)
C27 C 0.2964(2) 0.40600(13) 0.22950(9)
C28 C 0.2358(2) 0.43642(13) 0.26894(9)
C29 C 0.3150(2) 0.48693(15) 0.29031(9)
C30 C 0.2897(3) 0.54727(17) 0.31087(10)
C31 C 0.3608(3) 0.60286(17) 0.31252(10)
C32 C 0.3117(2) 0.67144(18) 0.32735(9)
C33 C 0.3517(2) 0.73186(16) 0.30059(9)
C34 C 0.2812(2) 0.78024(16) 0.28048(9)
C35 C 0.3129(2) 0.82580(14) 0.24708(9)
C36 C 0.2427(2) 0.85657(12) 0.20884(9)
C37 C 0.3140(2) 0.85423(13) 0.16809(10)
C38 C 0.2828(2) 0.83488(16) 0.12436(10)
C39 C 0.1721(2) 0.82180(14) 0.11228(9)
C40 C 0.1917(4) 0.7697(2) 0.07366(13)
C41 C 0.1257(3) 0.7195(2) 0.06496(14)
C42 C 0.1587(3) 0.65522(14) 0.03581(9)
C43 C 0.1021(2) 0.60105(15) 0.06389(9)
C44 C 0.1332(2) 0.53241(14) 0.06902(9)
C45 C 0.2276(2) 0.50699(13) 0.04418(9)
C46 C 0.2904(2) 0.45518(13) 0.07405(9)
C47 C 0.2452(2) 0.40070(13) 0.10419(9)
C48 C 0.3150(2) 0.38939(13) 0.14698(9)
C49 C 0.4147(2) 0.40964(13) 0.15025(9)
C50 C 0.4559(2) 0.43369(13) 0.19321(9)
C51 C 0.3983(2) 0.42946(13) 0.23235(9)
C52 C 0.4083(2) 0.48189(14) 0.26728(9)
C53 C 0.4739(2) 0.53950(14) 0.26279(9)
C54 C 0.4516(2) 0.59926(15) 0.28966(9)
C55 C 0.5175(2) 0.66335(14) 0.28477(9)
C56 C 0.4516(2) 0.72990(14) 0.28588(9)
C57 C 0.4815(2) 0.77448(14) 0.25082(9)
C58 C 0.4138(2) 0.82305(13) 0.23217(9)
C59 C 0.4144(2) 0.84031(13) 0.18367(10)
C60 C 0.4816(2) 0.80631(14) 0.15510(10)
C61 C 0.4502(2) 0.78775(14) 0.10976(10)
C62 C 0.3530(2) 0.80221(16) 0.09482(10)
C63 C 0.3031(2) 0.76351(17) 0.05524(10)
C64 C 0.3439(3) 0.68890(16) 0.05321(10)
C65 C 0.2720(3) 0.63727(16) 0.03928(10)
C66 C 0.3013(2) 0.56856(15) 0.04278(9)
C67 C 0.3945(2) 0.54958(15) 0.06313(9)
C68 C 0.3861(2) 0.47881(14) 0.08025(9)
C69 C 0.4667(2) 0.44881(13) 0.11199(9)
C70 C 0.5203(2) 0.50876(14) 0.13856(9)
C71 C 0.5198(2) 0.49361(13) 0.18729(9)
C72 C 0.5308(2) 0.54521(13) 0.22056(9)
C73 C 0.5614(2) 0.61349(13) 0.20496(9)
C74 C 0.5584(2) 0.66882(14) 0.23598(9)
C75 C 0.5487(2) 0.73714(14) 0.22072(9)
C76 C 0.5472(2) 0.75213(13) 0.17374(9)
C77 C 0.5538(2) 0.69816(14) 0.14178(9)
C78 C 0.5101(2) 0.72353(14) 0.09492(9)
C79 C 0.4387(2) 0.66966(15) 0.07326(9)
C80 C 0.4634(2) 0.59837(15) 0.08186(9)
C81 C 0.5263(2) 0.57586(14) 0.12279(9)
C82 C 0.55807(19) 0.62888(13) 0.15587(9)
C83 C -0.0590(2) 0.67340(14) 0.29554(9)
C84 C -0.1573(2) 0.63141(13) 0.17319(10)
C85 C 0.1304(2) 0.54748(14) 0.36219(9)
C86 C 0.1177(2) 0.81719(14) 0.31956(9)
C87 C -0.0659(2) 0.74270(13) 0.07340(9)
C88 C 0.2006(2) 0.37748(14) 0.30024(10)
C89 C 0.3257(2) 0.68630(15) 0.37948(9)
C90 C 0.2083(2) 0.93172(13) 0.22019(10)
C91 C 0.1189(2) 0.88928(14) 0.09371(10)
C92 C 0.1150(2) 0.66187(14) -0.01485(9)
C93 C 0.2027(2) 0.47639(14) -0.00463(9)
C94 C 0.2171(2) 0.33117(14) 0.08031(10)
C95 C 0.6082(2) 0.66283(15) 0.31982(10)
C96 C 0.3120(2) 0.80317(16) 0.00880(10)
C97 C 0.5437(2) 0.40490(16) 0.08593(11)
C98 C 0.5977(2) 0.74185(15) 0.06313(10)
C108 C 0.031(2) 1.0330(16) 0.0157(11)
H1 H -0.0130 1.0747 0.0132
H2 H 0.0318 1.0186 0.0484
C109 C 0.137(3) 1.056(2) 0.0062(14)
H3 H 0.1851 1.0167 0.0084
H4 H 0.1396 1.0764 -0.0251
C110 C 0.164(3) 1.108(2) 0.0402(14)
H5 H 0.1294 1.1520 0.0325
H6 H 0.2383 1.1156 0.0408
H7 H 0.1435 1.0924 0.0706
C108B C -0.031(2) 0.9670(16) -0.0157(11)
H1B H 0.0130 0.9253 -0.0132
H2B H -0.0318 0.9814 -0.0484
C109B C -0.137(3) 0.944(2) -0.0062(14)
H3B H -0.1851 0.9833 -0.0084
H4B H -0.1396 0.9236 0.0251
C110B C -0.164(3) 0.892(2) -0.0402(14)
H5B H -0.1294 0.8480 -0.0325
H6B H -0.2383 0.8844 -0.0408
H7B H -0.1435 0.9076 -0.0706
C99? C 0.4730(12) 0.9895(8) 0.1039(6)
C100? C 0.5348(12) 0.9751(8) 0.0518(6)
C101? C 0.4222(19) 1.0318(12) 0.0239(8)
C102? C 0.5883(16) 0.9599(10) 0.0218(7)
C103? C 0.332(5) 1.052(3) 0.045(2)
C104? C 0.4930(12) 1.0029(8) 0.0260(5)
C105? C 0.5355(17) 0.9710(11) 0.0992(8)
C106? C 0.4520(17) 1.0120(11) 0.0554(8)
C107? C 0.4979(17) 0.9765(11) 0.1283(8)
C111? C 0.1970(11) 0.6970(5) 0.3087(3)
C112? C 0.1307(9) 0.6465(5) 0.3024(3)
C113? C 0.1948(7) 0.7270(4) 0.0557(3)
C114? C 0.1321(8) 0.7550(5) 0.0840(3)
F49? F 0.141(2) 0.9569(9) 0.1904(8)
F50? F 0.168(2) 0.9360(6) 0.2614(7)
F51? F 0.2892(10) 0.9743(6) 0.2209(11)
loop_
_geom_bond_atom_site_label_1
_geom_bond_atom_site_label_2
_geom_bond_site_symmetry_1
_geom_bond_site_symmetry_2
F1 C83 1_555 1_555
F2 C83 1_555 1_555
F3 C83 1_555 1_555
F4 C84 1_555 1_555
F5 C84 1_555 1_555
F6 C84 1_555 1_555
F7 C85 1_555 1_555
F8 C85 1_555 1_555
F9 C85 1_555 1_555
F10 C86 1_555 1_555
F11 C86 1_555 1_555
F12 C86 1_555 1_555
F13 C87 1_555 1_555
F14 C87 1_555 1_555
F15 C87 1_555 1_555
F16 C88 1_555 1_555
F17 C88 1_555 1_555
F18 C88 1_555 1_555
F19 C89 1_555 1_555
F20 C89 1_555 1_555
F21 C89 1_555 1_555
F22 C90 1_555 1_555
F23 C90 1_555 1_555
F24 C90 1_555 1_555
F25 C91 1_555 1_555
F26 C91 1_555 1_555
F27 C91 1_555 1_555
F28 C92 1_555 1_555
F29 C92 1_555 1_555
F30 C92 1_555 1_555
F31 C93 1_555 1_555
F32 C93 1_555 1_555
F33 C93 1_555 1_555
F34 C94 1_555 1_555
F35 C94 1_555 1_555
F36 C94 1_555 1_555
F37 C95 1_555 1_555
F38 C95 1_555 1_555
F39 C95 1_555 1_555
F40 C96 1_555 1_555
F41 C96 1_555 1_555
F42 C96 1_555 1_555
F43 C97 1_555 1_555
F44 C97 1_555 1_555
F45 C97 1_555 1_555
F46 C98 1_555 1_555
F47 C98 1_555 1_555
F48 C98 1_555 1_555
C1 C2 1_555 1_555
C2 C3 1_555 1_555
C3 C4 1_555 1_555
C4 C5 1_555 1_555
C5 C6 1_555 1_555
C6 C1 1_555 1_555
C7 C6 1_555 1_555
C8 C7 1_555 1_555
C9 C8 1_555 1_555
C10 C1 1_555 1_555
C11 C10 1_555 1_555
C12 C11 1_555 1_555
C13 C2 1_555 1_555
C14 C13 1_555 1_555
C15 C3 1_555 1_555
C16 C15 1_555 1_555
C17 C16 1_555 1_555
C18 C4 1_555 1_555
C19 C18 1_555 1_555
C20 C19 1_555 1_555
C21 C5 1_555 1_555
C22 C7 1_555 1_555
C23 C22 1_555 1_555
C24 C23 1_555 1_555
C25 C8 1_555 1_555
C26 C25 1_555 1_555
C27 C26 1_555 1_555
C28 C9 1_555 1_555
C29 C28 1_555 1_555
C30 C11 1_555 1_555
C31 C30 1_555 1_555
C32 C12 1_555 1_555
C33 C32 1_555 1_555
C34 C14 1_555 1_555
C35 C34 1_555 1_555
C36 C16 1_555 1_555
C37 C36 1_555 1_555
C38 C37 1_555 1_555
C39 C17 1_555 1_555
C40 C39 1_555 1_555
C41 C19 1_555 1_555
C42 C41 1_555 1_555
C43 C20 1_555 1_555
C44 C23 1_555 1_555
C45 C44 1_555 1_555
C46 C45 1_555 1_555
C47 C24 1_555 1_555
C48 C26 1_555 1_555
C49 C48 1_555 1_555
C50 C49 1_555 1_555
C51 C27 1_555 1_555
C52 C29 1_555 1_555
C53 C52 1_555 1_555
C54 C31 1_555 1_555
C55 C54 1_555 1_555
C56 C33 1_555 1_555
C57 C56 1_555 1_555
C58 C35 1_555 1_555
C59 C37 1_555 1_555
C60 C59 1_555 1_555
C61 C60 1_555 1_555
C62 C38 1_555 1_555
C63 C40 1_555 1_555
C64 C63 1_555 1_555
C65 C42 1_555 1_555
C66 C45 1_555 1_555
C67 C66 1_555 1_555
C68 C46 1_555 1_555
C69 C49 1_555 1_555
C70 C69 1_555 1_555
C71 C50 1_555 1_555
C72 C53 1_555 1_555
C73 C72 1_555 1_555
C74 C55 1_555 1_555
C75 C57 1_555 1_555
C76 C60 1_555 1_555
C77 C76 1_555 1_555
C78 C61 1_555 1_555
C79 C64 1_555 1_555
C80 C67 1_555 1_555
C81 C70 1_555 1_555
C82 C73 1_555 1_555
C83 C2 1_555 1_555
C84 C5 1_555 1_555
C85 C11 1_555 1_555
C86 C14 1_555 1_555
C87 C19 1_555 1_555
C88 C28 1_555 1_555
C89 C32 1_555 1_555
C90 C36 1_555 1_555
C91 C39 1_555 1_555
C92 C42 1_555 1_555
C93 C45 1_555 1_555
C94 C47 1_555 1_555
C95 C55 1_555 1_555
C96 C63 1_555 1_555
C97 C69 1_555 1_555
C98 C78 1_555 1_555
C108 H1 1_555 1_555
H2 C108 1_555 1_555
C109 C108 1_555 1_555
H3 C109 1_555 1_555
H4 C109 1_555 1_555
C110 C109 1_555 1_555
H5 C110 1_555 1_555
H6 C110 1_555 1_555
H7 C110 1_555 1_555
C108B C108 1_555 1_555
H1B C108B 1_555 1_555
H2B C108B 1_555 1_555
C109B C108B 1_555 1_555
H3B C109B 1_555 1_555
H4B C109B 1_555 1_555
C110B C109B 1_555 1_555
H5B C110B 1_555 1_555
H6B C110B 1_555 1_555
H7B C110B 1_555 1_555
C9 C10 1_555 1_555
C12 C13 1_555 1_555
C14 C15 1_555 1_555
C17 C18 1_555 1_555
C20 C21 1_555 1_555
C21 C22 1_555 1_555
C24 C25 1_555 1_555
C27 C28 1_555 1_555
C29 C30 1_555 1_555
C31 C32 1_555 1_555
C33 C34 1_555 1_555
C35 C36 1_555 1_555
C38 C39 1_555 1_555
C40 C41 1_555 1_555
C42 C43 1_555 1_555
C43 C44 1_555 1_555
C46 C47 1_555 1_555
C47 C48 1_555 1_555
C50 C51 1_555 1_555
C51 C52 1_555 1_555
C53 C54 1_555 1_555
C55 C56 1_555 1_555
C57 C58 1_555 1_555
C58 C59 1_555 1_555
C61 C62 1_555 1_555
C62 C63 1_555 1_555
C64 C65 1_555 1_555
C65 C66 1_555 1_555
C67 C68 1_555 1_555
C68 C69 1_555 1_555
C70 C71 1_555 1_555
C71 C72 1_555 1_555
C73 C74 1_555 1_555
C74 C75 1_555 1_555
C75 C76 1_555 1_555
C77 C78 1_555 1_555
C77 C82 1_555 1_555
C78 C79 1_555 1_555
C79 C80 1_555 1_555
C80 C81 1_555 1_555
C81 C82 1_555 1_555

#END
