
#######################################################################
#
#                 Cambridge Crystallographic Data Centre
#                                CCDC 
#
#######################################################################
#
# If this CIF has been generated from an entry in the Cambridge 
# Structural Database, then it will include bibliographic, chemical, 
# crystal, experimental, refinement or atomic coordinate data resulting 
# from the CCDC's data processing and validation procedures.
#
#######################################################################

data_XEMLIL
_chemical_formula_moiety         'C17 H17 N3 O1'
_chemical_name_systematic        
'1H-Pyrrole-2-carboxylic acid N-(2-(naphthalen-1-ylamino)ethyl)amide'
_symmetry_cell_setting           monoclinic
_symmetry_space_group_name_H-M   'P 21/n'
_symmetry_Int_Tables_number      14
_space_group_name_Hall           '-P 2yn'
loop_
_symmetry_equiv_pos_site_id
_symmetry_equiv_pos_as_xyz
1 x,y,z
2 1/2-x,1/2+y,1/2-z
3 -x,-y,-z
4 1/2+x,1/2-y,1/2+z
_cell_length_a                   5.930(6)
_cell_length_b                   12.144(13)
_cell_length_c                   20.10(2)
_cell_angle_alpha                90
_cell_angle_beta                 95.709(17)
_cell_angle_gamma                90
_cell_volume                     1440.3
_exptl_crystal_colour            colorless
_exptl_crystal_description       block
_chemical_melting_point          '470 K'
_cell_formula_units_Z            4
_exptl_crystal_recrystallization_method 'ethyl acetate'
loop_
_atom_site_label
_atom_site_type_symbol
_atom_site_fract_x
_atom_site_fract_y
_atom_site_fract_z
C1 C 0.3351(3) 0.70140(16) 0.01521(9)
C2 C 0.3031(4) 0.81125(18) 0.00192(9)
H1 H 0.1856 0.8543 0.0150
C3 C 0.4768(4) 0.84730(18) -0.03450(10)
H2 H 0.4965 0.9183 -0.0503
C4 C 0.6121(4) 0.75864(17) -0.04256(10)
H3 H 0.7419 0.7586 -0.0650
C5 C 0.2163(3) 0.62055(18) 0.05232(9)
C6 C -0.0818(3) 0.58802(18) 0.12677(9)
H4 H -0.0941 0.5157 0.1063
H5 H -0.2336 0.6181 0.1261
C7 C 0.0181(3) 0.57612(17) 0.19868(9)
H6 H 0.0532 0.6483 0.2177
H7 H -0.0911 0.5411 0.2247
C8 C 0.3495(3) 0.48462(16) 0.25999(9)
C9 C 0.3029(4) 0.52803(17) 0.32059(9)
H8 H 0.1786 0.5742 0.3225
C10 C 0.4409(4) 0.5031(2) 0.37896(10)
H9 H 0.4067 0.5333 0.4193
C11 C 0.6232(4) 0.43620(19) 0.37849(10)
H10 H 0.7128 0.4215 0.4181
C12 C 0.6782(3) 0.38832(16) 0.31760(10)
C13 C 0.8680(4) 0.31989(19) 0.31428(13)
H11 H 0.9634 0.3067 0.3530
C14 C 0.9159(4) 0.2727(2) 0.25628(13)
H12 H 1.0426 0.2277 0.2555
C15 C 0.7745(4) 0.2916(2) 0.19752(13)
H13 H 0.8049 0.2578 0.1579
C16 C 0.5929(4) 0.35944(18) 0.19830(10)
H14 H 0.5022 0.3725 0.1586
C17 C 0.5376(3) 0.41083(15) 0.25761(9)
N1 N 0.5266(3) 0.67119(13) -0.01271(7)
H15 H 0.5839 0.6061 -0.0114
N2 N 0.0512(3) 0.65840(14) 0.08750(8)
H16 H 0.0232 0.7279 0.0867
N3 N 0.2213(3) 0.51064(14) 0.20146(8)
H17 H 0.2645 0.4866 0.1646
O1 O 0.2674(3) 0.52129(12) 0.05261(7)
loop_
_geom_bond_atom_site_label_1
_geom_bond_atom_site_label_2
_geom_bond_site_symmetry_1
_geom_bond_site_symmetry_2
C1 C2 1_555 1_555
C2 H1 1_555 1_555
C3 C2 1_555 1_555
H2 C3 1_555 1_555
C4 C3 1_555 1_555
H3 C4 1_555 1_555
C5 C1 1_555 1_555
C6 H4 1_555 1_555
H5 C6 1_555 1_555
C7 C6 1_555 1_555
H6 C7 1_555 1_555
H7 C7 1_555 1_555
C8 C9 1_555 1_555
C9 H8 1_555 1_555
C10 C9 1_555 1_555
H9 C10 1_555 1_555
C11 C10 1_555 1_555
H10 C11 1_555 1_555
C12 C11 1_555 1_555
C13 C12 1_555 1_555
H11 C13 1_555 1_555
C14 C13 1_555 1_555
H12 C14 1_555 1_555
C15 C14 1_555 1_555
H13 C15 1_555 1_555
C16 C15 1_555 1_555
H14 C16 1_555 1_555
C17 C8 1_555 1_555
N1 C1 1_555 1_555
H15 N1 1_555 1_555
N2 C5 1_555 1_555
H16 N2 1_555 1_555
N3 C7 1_555 1_555
H17 N3 1_555 1_555
O1 C5 1_555 1_555
C4 N1 1_555 1_555
C6 N2 1_555 1_555
C8 N3 1_555 1_555
C12 C17 1_555 1_555
C16 C17 1_555 1_555

#END
