
#######################################################################
#
#                 Cambridge Crystallographic Data Centre
#                                CCDC 
#
#######################################################################
#
# If this CIF has been generated from an entry in the Cambridge 
# Structural Database, then it will include bibliographic, chemical, 
# crystal, experimental, refinement or atomic coordinate data resulting 
# from the CCDC's data processing and validation procedures.
#
#######################################################################

data_XEMREO
_chemical_formula_moiety         'C16 H16 N1 O1 1+,Cl1 O4 1-,0.5(C6 H6)'
_chemical_name_systematic        
'1-Ethyl-4-((4-methoxyphenyl)ethynyl)pyridinium perchlorate benzene solvate'
_symmetry_cell_setting           triclinic
_symmetry_space_group_name_H-M   'P -1'
_symmetry_Int_Tables_number      2
_space_group_name_Hall           '-P 1'
loop_
_symmetry_equiv_pos_site_id
_symmetry_equiv_pos_as_xyz
1 x,y,z
2 -x,-y,-z
_cell_length_a                   6.6448(3)
_cell_length_b                   8.8221(5)
_cell_length_c                   16.5298(9)
_cell_angle_alpha                100.596(2)
_cell_angle_beta                 92.142(2)
_cell_angle_gamma                107.251(2)
_cell_volume                     905.254
_exptl_crystal_colour            yellow
_exptl_crystal_description       prism
_cell_formula_units_Z            2
_exptl_crystal_recrystallization_method acetonitrile/benzene
loop_
_atom_site_label
_atom_site_type_symbol
_atom_site_fract_x
_atom_site_fract_y
_atom_site_fract_z
Cl1 Cl 0.11289(9) 0.11435(6) 0.83851(3)
O1 O -0.0651(3) 0.0420(2) 0.77691(10)
O2 O 0.3048(3) 0.1538(2) 0.79838(11)
O3 O 0.1200(3) 0.0007(2) 0.88993(10)
O4 O 0.0914(3) 0.2603(2) 0.88722(11)
O5 O 0.4399(3) 0.68401(18) 0.86960(9)
N1 N 0.1632(3) 0.4810(2) 0.19428(10)
C1 C 0.2265(4) 0.6362(3) 0.23669(13)
C2 C 0.2595(4) 0.6718(3) 0.32100(13)
C3 C 0.2262(3) 0.5465(3) 0.36520(13)
C4 C 0.1576(4) 0.3870(3) 0.31974(14)
C5 C 0.1279(4) 0.3576(3) 0.23568(14)
C6 C 0.2603(4) 0.5798(3) 0.45318(14)
C7 C 0.2895(4) 0.6041(3) 0.52732(14)
C8 C 0.3246(4) 0.6289(3) 0.61513(12)
C9 C 0.3925(4) 0.7847(3) 0.66491(14)
C10 C 0.4303(4) 0.8094(3) 0.74965(14)
C11 C 0.4001(3) 0.6751(3) 0.78681(12)
C12 C 0.3266(3) 0.5178(3) 0.73883(12)
C13 C 0.2898(4) 0.4950(3) 0.65397(13)
C14 C 0.5301(5) 0.8427(3) 0.92154(16)
C15 C 0.1231(4) 0.4438(3) 0.10187(13)
C16 C 0.2891(5) 0.5535(3) 0.06177(16)
H1 H 0.252(4) 0.716(3) 0.2060(12)
H2 H 0.309(4) 0.781(3) 0.3491(13)
H3 H 0.131(4) 0.290(3) 0.3456(14)
H4 H 0.087(4) 0.259(3) 0.2031(13)
H5 H 0.417(4) 0.880(3) 0.6405(13)
H6 H 0.483(4) 0.912(3) 0.7799(14)
H7 H 0.301(3) 0.421(2) 0.7658(11)
H8 H 0.234(4) 0.386(3) 0.6210(13)
H9 H 0.551(4) 0.819(3) 0.9773(14)
H10 H 0.658(5) 0.903(3) 0.9022(15)
H11 H 0.422(5) 0.899(3) 0.9248(15)
H12 H -0.016(4) 0.456(3) 0.0866(14)
H13 H 0.125(4) 0.330(3) 0.0842(14)
H14 H 0.270(4) 0.514(3) 0.0008(15)
H15 H 0.279(4) 0.663(3) 0.0703(12)
H16 H 0.424(5) 0.558(3) 0.0816(17)
C17 C -0.1082(4) -0.0265(3) 0.56821(15)
C18 C 0.1081(4) 0.0438(3) 0.57813(16)
C19 C -0.2173(5) -0.0697(3) 0.49036(16)
H17 H -0.183(4) -0.043(3) 0.6136(15)
H18 H 0.174(4) 0.079(3) 0.6305(16)
H19 H -0.375(5) -0.121(3) 0.4826(16)
C17A C 0.1082(4) 0.0265(3) 0.43179(15)
C18A C -0.1081(4) -0.0438(3) 0.42187(16)
C19A C 0.2173(5) 0.0697(3) 0.50964(16)
H17A H 0.183(4) 0.043(3) 0.3864(15)
H18A H -0.174(4) -0.079(3) 0.3695(16)
H19A H 0.375(5) 0.121(3) 0.5174(16)
loop_
_geom_bond_atom_site_label_1
_geom_bond_atom_site_label_2
_geom_bond_site_symmetry_1
_geom_bond_site_symmetry_2
Cl1 O1 1_555 1_555
O2 Cl1 1_555 1_555
O3 Cl1 1_555 1_555
O4 Cl1 1_555 1_555
O5 C11 1_555 1_555
N1 C1 1_555 1_555
C1 C2 1_555 1_555
C2 C3 1_555 1_555
C3 C4 1_555 1_555
C4 C5 1_555 1_555
C5 N1 1_555 1_555
C6 C3 1_555 1_555
C7 C6 1_555 1_555
C8 C7 1_555 1_555
C9 C8 1_555 1_555
C10 C9 1_555 1_555
C11 C10 1_555 1_555
C12 C11 1_555 1_555
C13 C8 1_555 1_555
C14 O5 1_555 1_555
C15 N1 1_555 1_555
C16 C15 1_555 1_555
C17 C18 1_555 1_555
C18 H18 1_555 1_555
C19 C17 1_555 1_555
H1 C1 1_555 1_555
H2 C2 1_555 1_555
H3 C4 1_555 1_555
H4 C5 1_555 1_555
H5 C9 1_555 1_555
H6 C10 1_555 1_555
H7 C12 1_555 1_555
H8 C13 1_555 1_555
H9 C14 1_555 1_555
H10 C14 1_555 1_555
H11 C14 1_555 1_555
H12 C15 1_555 1_555
H13 C15 1_555 1_555
H14 C16 1_555 1_555
H15 C16 1_555 1_555
H16 C16 1_555 1_555
H17 C17 1_555 1_555
H19 C19 1_555 1_555
C17A C18A 1_555 1_555
C18A C19 1_555 1_555
C19A C18 1_555 1_555
H17A C17A 1_555 1_555
H18A C18A 1_555 1_555
H19A C19A 1_555 1_555
C12 C13 1_555 1_555
C17A C19A 1_555 1_555

#END
