
#######################################################################
#
#                 Cambridge Crystallographic Data Centre
#                                CCDC 
#
#######################################################################
#
# If this CIF has been generated from an entry in the Cambridge 
# Structural Database, then it will include bibliographic, chemical, 
# crystal, experimental, refinement or atomic coordinate data resulting 
# from the CCDC's data processing and validation procedures.
#
#######################################################################

data_XEMRIS
_chemical_formula_moiety         
'C22 H26 N1 O5 1+,I1 1-,0.25(C6 H6),1.75(H2 O1)'
_chemical_name_systematic        
'1-Methyl-4-(2,3,5,6,8,9,11,12-octahydro-1,4,7,10,13-benzopentaoxacyclopentadec-15-ylethynyl)pyridinium iodide benzene solvate hydrate'
_symmetry_cell_setting           monoclinic
_symmetry_space_group_name_H-M   'P 21/c'
_symmetry_Int_Tables_number      14
_space_group_name_Hall           '-P 2ybc'
loop_
_symmetry_equiv_pos_site_id
_symmetry_equiv_pos_as_xyz
1 x,y,z
2 -x,1/2+y,1/2-z
3 -x,-y,-z
4 x,1/2-y,1/2+z
_cell_length_a                   20.0437(7)
_cell_length_b                   6.8511(3)
_cell_length_c                   19.4292(7)
_cell_angle_alpha                90
_cell_angle_beta                 106.611(2)
_cell_angle_gamma                90
_cell_volume                     2556.7
_exptl_crystal_colour            yellow
_exptl_crystal_description       plate
_cell_formula_units_Z            4
_exptl_crystal_recrystallization_method acetonitrile/benzene
loop_
_atom_site_label
_atom_site_type_symbol
_atom_site_fract_x
_atom_site_fract_y
_atom_site_fract_z
O1 O 0.29753(13) 0.3407(4) 0.49481(13)
O2 O 0.25516(13) 0.3090(4) 0.60563(13)
O3 O 0.34467(13) 0.0759(4) 0.70187(13)
O4 O 0.46643(14) 0.1090(4) 0.66255(13)
O5 O 0.43003(13) 0.1761(4) 0.51267(13)
N1 N -0.25331(16) 0.1846(5) 0.46099(15)
C1 C -0.2396(2) 0.2217(5) 0.39795(19)
H1 H -0.2771 0.2315 0.3552
C2 C -0.1731(2) 0.2450(5) 0.39478(19)
H2 H -0.1643 0.2692 0.3500
C3 C -0.1176(2) 0.2332(6) 0.4580(2)
C4 C -0.1335(2) 0.2024(7) 0.5226(2)
H3 H -0.0973 0.1990 0.5665
C5 C -0.2010(2) 0.1772(6) 0.52282(19)
H4 H -0.2113 0.1542 0.5669
C6 C -0.0471(2) 0.2533(6) 0.4568(2)
C7 C 0.0133(2) 0.2660(7) 0.4594(2)
C8 C 0.0862(2) 0.2823(6) 0.4661(2)
C9 C 0.1096(2) 0.2993(7) 0.4051(2)
H5 H 0.0772 0.2988 0.3586
C10 C 0.1800(2) 0.3170(7) 0.4127(2)
H6 H 0.1959 0.3267 0.3712
C11 C 0.22768(19) 0.3208(6) 0.47995(19)
C12 C 0.20385(18) 0.3023(6) 0.54203(17)
C13 C 0.1340(2) 0.2841(6) 0.53484(19)
H7 H 0.1181 0.2727 0.5762
C14 C 0.32773(19) 0.3248(6) 0.43594(18)
H8 H 0.3102 0.4302 0.4005
H9 H 0.3159 0.1974 0.4114
C15 C 0.2384(2) 0.2517(6) 0.66979(19)
H10 H 0.2104 0.1304 0.6613
H11 H 0.2112 0.3554 0.6849
C16 C 0.3060(2) 0.2189(6) 0.72682(18)
H12 H 0.3327 0.3423 0.7370
H13 H 0.2969 0.1738 0.7717
C17 C 0.41052(19) 0.0387(6) 0.75201(18)
H14 H 0.4054 -0.0583 0.7879
H15 H 0.4294 0.1605 0.7776
C18 C 0.45954(19) -0.0383(6) 0.71232(19)
H16 H 0.5055 -0.0676 0.7465
H17 H 0.4407 -0.1598 0.6864
C19 C 0.5092(2) 0.0513(6) 0.6187(2)
H18 H 0.4957 -0.0804 0.5985
H19 H 0.5587 0.0477 0.6474
C20 C 0.49885(18) 0.1985(6) 0.55931(19)
H20 H 0.5052 0.3322 0.5795
H21 H 0.5333 0.1772 0.5324
C21 C 0.4053(2) 0.3426(5) 0.46850(19)
H22 H 0.4286 0.3505 0.4300
H23 H 0.4161 0.4631 0.4977
C22 C -0.3255(2) 0.1456(6) 0.4614(2)
H24 H -0.3566 0.1570 0.4125
H25 H -0.3393 0.2405 0.4926
H26 H -0.3287 0.0134 0.4795
O6 O 0.39778(16) 0.4728(4) 0.63619(16)
H27 H 0.3593(18) 0.426(9) 0.615(3)
O7 O -0.0439(10) 0.229(3) 0.7225(12)
O8 O -0.0095(15) 0.515(5) 0.7808(16)
O9 O 0.0616(18) 0.339(5) 0.7264(19)
I1 I 0.263218(14) 0.69808(4) 0.809530(13)
C23? C -0.0137(7) 0.6504(18) 0.7956(7)
H28? H -0.0209 0.7603 0.8225
C24? C 0.0487(6) 0.630(2) 0.7786(8)
H29? H 0.0841 0.7255 0.7937
C25? C 0.0592(6) 0.469(2) 0.7393(9)
H30? H 0.1018 0.4547 0.7276
C26? C 0.0073(8) 0.3287(19) 0.7172(8)
H31? H 0.0145 0.2188 0.6903
C27? C -0.0551(7) 0.3494(19) 0.7342(8)
H32? H -0.0905 0.2536 0.7191
C28? C -0.0656(6) 0.510(2) 0.7735(8)
H33? H -0.1083 0.5244 0.7852
O10? O -0.070(2) 0.660(7) 0.778(2)
loop_
_geom_bond_atom_site_label_1
_geom_bond_atom_site_label_2
_geom_bond_site_symmetry_1
_geom_bond_site_symmetry_2
O1 C11 1_555 1_555
O2 C12 1_555 1_555
O3 C16 1_555 1_555
O4 C18 1_555 1_555
O5 C20 1_555 1_555
N1 C1 1_555 1_555
C1 H1 1_555 1_555
C2 C1 1_555 1_555
H2 C2 1_555 1_555
C3 C2 1_555 1_555
C4 C3 1_555 1_555
H3 C4 1_555 1_555
C5 N1 1_555 1_555
H4 C5 1_555 1_555
C6 C3 1_555 1_555
C7 C6 1_555 1_555
C8 C7 1_555 1_555
C9 C8 1_555 1_555
H5 C9 1_555 1_555
C10 C9 1_555 1_555
H6 C10 1_555 1_555
C11 C10 1_555 1_555
C12 C11 1_555 1_555
C13 C8 1_555 1_555
H7 C13 1_555 1_555
C14 O1 1_555 1_555
H8 C14 1_555 1_555
H9 C14 1_555 1_555
C15 O2 1_555 1_555
H10 C15 1_555 1_555
H11 C15 1_555 1_555
C16 C15 1_555 1_555
H12 C16 1_555 1_555
H13 C16 1_555 1_555
C17 O3 1_555 1_555
H14 C17 1_555 1_555
H15 C17 1_555 1_555
C18 C17 1_555 1_555
H16 C18 1_555 1_555
H17 C18 1_555 1_555
C19 O4 1_555 1_555
H18 C19 1_555 1_555
H19 C19 1_555 1_555
C20 C19 1_555 1_555
H20 C20 1_555 1_555
H21 C20 1_555 1_555
C21 O5 1_555 1_555
H22 C21 1_555 1_555
H23 C21 1_555 1_555
C22 N1 1_555 1_555
H24 C22 1_555 1_555
H25 C22 1_555 1_555
H26 C22 1_555 1_555
O6 H27 1_555 1_555
C4 C5 1_555 1_555
C12 C13 1_555 1_555
C14 C21 1_555 1_555

#END
