
#######################################################################
#
#                 Cambridge Crystallographic Data Centre
#                                CCDC 
#
#######################################################################
#
# If this CIF has been generated from an entry in the Cambridge 
# Structural Database, then it will include bibliographic, chemical, 
# crystal, experimental, refinement or atomic coordinate data resulting 
# from the CCDC's data processing and validation procedures.
#
#######################################################################

data_XEMSIU
_chemical_formula_moiety         'C24 H20 F1 N5 O1 S1'
_chemical_name_systematic        
2-[(3-fluorophenyl)(5-methyl-3-oxo-2-phenyl-2,3-dihydro-1H-pyrazol-4-yl)methylidene]-N-phenylhydrazine-1-carbothioamide
_symmetry_cell_setting           monoclinic
_symmetry_space_group_name_H-M   'P 21/n'
_symmetry_Int_Tables_number      14
_space_group_name_Hall           '-P 2yn'
loop_
_symmetry_equiv_pos_site_id
_symmetry_equiv_pos_as_xyz
1 x,y,z
2 1/2-x,1/2+y,1/2-z
3 -x,-y,-z
4 1/2+x,1/2-y,1/2+z
_cell_length_a                   10.700(2)
_cell_length_b                   14.421(3)
_cell_length_c                   14.701(3)
_cell_angle_alpha                90
_cell_angle_beta                 101.754(3)
_cell_angle_gamma                90
_cell_volume                     2220.87
_exptl_crystal_colour            yellow
_exptl_crystal_description       block
_chemical_melting_point          '447.6-448 K'
_cell_formula_units_Z            4
_chemical_properties_physical    ', Light-sensitive'
loop_
_atom_site_label
_atom_site_type_symbol
_atom_site_fract_x
_atom_site_fract_y
_atom_site_fract_z
C1 C 1.1871(4) 0.3067(3) 1.1886(3)
H1 H 1.2595 0.3019 1.1631
C2 C 1.1892(6) 0.2769(3) 1.2783(3)
H2 H 1.2641 0.2530 1.3140
C3 C 1.0814(7) 0.2826(4) 1.3150(3)
H3 H 1.0826 0.2607 1.3747
C4 C 0.9715(6) 0.3206(4) 1.2637(3)
H4 H 0.8988 0.3245 1.2889
C5 C 0.9684(5) 0.3530(3) 1.1747(3)
H5 H 0.8949 0.3806 1.1407
C6 C 1.0746(4) 0.3441(3) 1.1373(3)
C7 C 1.1532(4) 0.3981(3) 0.9202(3)
C8 C 1.2601(4) 0.4232(4) 0.8733(3)
H6 H 1.3215 0.4602 0.9145
H7 H 1.2270 0.4578 0.8179
H8 H 1.3004 0.3677 0.8575
C9 C 1.0239(3) 0.3875(2) 0.8895(2)
C10 C 0.9702(4) 0.3715(2) 0.9691(2)
C11 C 0.9571(4) 0.3905(2) 0.7917(2)
C12 C 1.0245(4) 0.3528(3) 0.7203(2)
C13 C 1.0258(4) 0.4013(3) 0.6391(3)
H9 H 0.9862 0.4588 0.6283
C14 C 1.0864(5) 0.3625(4) 0.5756(3)
C15 C 1.1432(5) 0.2773(4) 0.5863(3)
H10 H 1.1833 0.2530 0.5411
C16 C 1.1393(4) 0.2290(3) 0.6658(3)
H11 H 1.1766 0.1706 0.6748
C17 C 1.0806(4) 0.2659(3) 0.7325(3)
H12 H 1.0785 0.2323 0.7862
C18 C 0.6560(4) 0.4898(3) 0.7848(3)
C19 C 0.5203(4) 0.5439(3) 0.6358(3)
C20 C 0.5445(5) 0.5994(3) 0.5654(3)
H13 H 0.6281 0.6090 0.5588
C21 C 0.4454(6) 0.6408(3) 0.5047(3)
H14 H 0.4619 0.6771 0.4562
C22 C 0.3231(7) 0.6288(4) 0.5157(4)
H15 H 0.2563 0.6578 0.4753
C23 C 0.2980(5) 0.5738(4) 0.5862(4)
H16 H 0.2145 0.5657 0.5936
C24 C 0.3982(4) 0.5301(3) 0.6468(3)
H17 H 0.3818 0.4921 0.6940
F1 F 1.0903(4) 0.4114(2) 0.4966(2)
N1 N 1.0698(3) 0.3739(2) 1.0448(2)
N2 N 1.1821(3) 0.3867(2) 1.0126(2)
H18 H 1.2578 0.3871 1.0464
N3 N 0.8435(3) 0.4210(2) 0.7580(2)
N4 N 0.7713(3) 0.4530(2) 0.8191(2)
H19 H 0.7996 0.4495 0.8781
N5 N 0.6276(3) 0.4998(2) 0.6928(2)
H20 H 0.6819 0.4762 0.6636
O1 O 0.8574(3) 0.3550(2) 0.97596(17)
S1 S 0.56534(10) 0.52295(9) 0.85925(7)
loop_
_geom_bond_atom_site_label_1
_geom_bond_atom_site_label_2
_geom_bond_site_symmetry_1
_geom_bond_site_symmetry_2
C1 H1 1_555 1_555
C2 C1 1_555 1_555
H2 C2 1_555 1_555
C3 C2 1_555 1_555
H3 C3 1_555 1_555
C4 C3 1_555 1_555
H4 C4 1_555 1_555
C5 C4 1_555 1_555
H5 C5 1_555 1_555
C6 C1 1_555 1_555
C7 C8 1_555 1_555
C8 H6 1_555 1_555
H7 C8 1_555 1_555
H8 C8 1_555 1_555
C9 C7 1_555 1_555
C10 C9 1_555 1_555
C11 C9 1_555 1_555
C12 C11 1_555 1_555
C13 C12 1_555 1_555
H9 C13 1_555 1_555
C14 C13 1_555 1_555
C15 C14 1_555 1_555
H10 C15 1_555 1_555
C16 C15 1_555 1_555
H11 C16 1_555 1_555
C17 C12 1_555 1_555
H12 C17 1_555 1_555
C18 N4 1_555 1_555
C19 C20 1_555 1_555
C20 H13 1_555 1_555
C21 C20 1_555 1_555
H14 C21 1_555 1_555
C22 C21 1_555 1_555
H15 C22 1_555 1_555
C23 C22 1_555 1_555
H16 C23 1_555 1_555
C24 C19 1_555 1_555
H17 C24 1_555 1_555
F1 C14 1_555 1_555
N1 C6 1_555 1_555
N2 C7 1_555 1_555
H18 N2 1_555 1_555
N3 C11 1_555 1_555
N4 N3 1_555 1_555
H19 N4 1_555 1_555
N5 C18 1_555 1_555
H20 N5 1_555 1_555
O1 C10 1_555 1_555
S1 C18 1_555 1_555
C5 C6 1_555 1_555
C10 N1 1_555 1_555
C16 C17 1_555 1_555
C19 N5 1_555 1_555
C23 C24 1_555 1_555
N1 N2 1_555 1_555

#END
