
#######################################################################
#
#                 Cambridge Crystallographic Data Centre
#                                CCDC 
#
#######################################################################
#
# If this CIF has been generated from an entry in the Cambridge 
# Structural Database, then it will include bibliographic, chemical, 
# crystal, experimental, refinement or atomic coordinate data resulting 
# from the CCDC's data processing and validation procedures.
#
#######################################################################

data_XENCAX
_chemical_formula_moiety         'C21 H21 N1 O5'
_chemical_name_systematic        
'ethyl 3-{3-[2-(2-cyano-4-methoxyphenoxy)ethoxy]phenyl}prop-2-enoate'
_symmetry_cell_setting           monoclinic
_symmetry_space_group_name_H-M   'P 21/c'
_symmetry_Int_Tables_number      14
_space_group_name_Hall           '-P 2ybc'
loop_
_symmetry_equiv_pos_site_id
_symmetry_equiv_pos_as_xyz
1 x,y,z
2 -x,1/2+y,1/2-z
3 -x,-y,-z
4 x,1/2-y,1/2+z
_cell_length_a                   9.8073(18)
_cell_length_b                   14.799(3)
_cell_length_c                   25.366(5)
_cell_angle_alpha                90
_cell_angle_beta                 97.318(4)
_cell_angle_gamma                90
_cell_volume                     3651.59
_exptl_crystal_colour            colorless
_exptl_crystal_description       Prism
_cell_formula_units_Z            8
_exptl_crystal_preparation       Fiber
loop_
_atom_site_label
_atom_site_type_symbol
_atom_site_fract_x
_atom_site_fract_y
_atom_site_fract_z
O1 O 1.04675(9) 0.26291(6) 0.25341(3)
O2 O 0.97055(8) 0.40403(5) 0.23581(3)
O3 O 0.37877(8) 0.44443(5) 0.04375(3)
O4 O 0.10274(8) 0.51567(5) -0.05161(3)
O5 O -0.19344(8) 0.81374(5) -0.13141(3)
N1 N -0.14153(11) 0.41477(7) -0.13734(4)
C1 C 1.06908(13) 0.53839(8) 0.27551(5)
H1 H 1.0745 0.5644 0.2403
H2 H 1.1429 0.5633 0.3011
H3 H 0.9799 0.5533 0.2868
C2 C 1.08424(11) 0.43735(8) 0.27296(4)
H4 H 1.1730 0.4213 0.2606
H5 H 1.0815 0.4104 0.3085
C3 C 0.96439(11) 0.31389(7) 0.22975(4)
C4 C 0.84897(11) 0.28445(7) 0.19077(4)
H6 H 0.8405 0.2218 0.1829
C5 C 0.75586(11) 0.34014(7) 0.16585(4)
H7 H 0.7650 0.4022 0.1752
C6 C 0.64085(11) 0.31670(7) 0.12558(4)
C7 C 0.61053(11) 0.22788(7) 0.10876(4)
H8 H 0.6655 0.1792 0.1238
C8 C 0.50120(12) 0.21133(8) 0.07041(4)
H9 H 0.4805 0.1508 0.0597
C9 C 0.41976(12) 0.28157(8) 0.04685(4)
H10 H 0.3452 0.2693 0.0201
C10 C 0.44998(11) 0.36946(7) 0.06334(4)
C11 C 0.55902(11) 0.38674(7) 0.10258(4)
H11 H 0.5781 0.4471 0.1139
C12 C 0.27076(12) 0.43279(8) 0.00129(4)
H12 H 0.1994 0.3916 0.0118
H13 H 0.3064 0.4077 -0.0304
C13 C 0.21337(11) 0.52619(8) -0.00980(4)
H14 H 0.1799 0.5517 0.0223
H15 H 0.2845 0.5669 -0.0209
C14 C 0.03268(11) 0.59181(7) -0.06958(4)
C15 C 0.06339(12) 0.67919(8) -0.05164(4)
H16 H 0.1381 0.6894 -0.0246
C16 C -0.01460(12) 0.75115(8) -0.07316(5)
H17 H 0.0069 0.8106 -0.0606
C17 C -0.12431(11) 0.73783(7) -0.11307(4)
C18 C -0.15761(11) 0.65117(7) -0.13109(4)
H18 H -0.2328 0.6412 -0.1580
C19 C -0.07830(11) 0.57847(7) -0.10896(4)
C20 C -0.11336(11) 0.48773(8) -0.12550(4)
C21 C -0.30144(12) 0.80157(8) -0.17454(5)
H19 H -0.2633 0.7759 -0.2051
H20 H -0.3440 0.8601 -0.1844
H21 H -0.3708 0.7604 -0.1636
O6 O -0.55167(9) 1.14068(6) 0.74232(4)
O7 O -0.46025(8) 1.00227(5) 0.75568(3)
O8 O 0.11474(8) 0.97620(5) 0.95716(3)
O9 O 0.39317(8) 0.90684(5) 1.05225(3)
O10 O 0.65926(8) 0.60400(5) 1.14186(3)
N2 N 0.65069(11) 1.00494(7) 1.13350(4)
C22 C -0.58836(13) 0.86682(8) 0.73600(5)
H22 H -0.5051 0.8354 0.7284
H23 H -0.6688 0.8403 0.7146
H24 H -0.5978 0.8606 0.7738
C23 C -0.57827(12) 0.96483(8) 0.72246(5)
H25 H -0.5668 0.9718 0.6845
H26 H -0.6631 0.9969 0.7290
C24 C -0.46197(11) 1.09207(7) 0.76324(4)
C25 C -0.34496(11) 1.12436(8) 0.80061(4)
H27 H -0.3347 1.1877 0.8056
C26 C -0.25275(11) 1.07067(7) 0.82776(4)
H28 H -0.2636 1.0077 0.8213
C27 C -0.13625(11) 1.09751(7) 0.86653(4)
C28 C -0.09765(11) 1.18786(7) 0.87650(4)
H29 H -0.1478 1.2353 0.8577
C29 C 0.01348(12) 1.20734(8) 0.91375(4)
H30 H 0.0392 1.2686 0.9203
C30 C 0.08931(11) 1.13894(8) 0.94213(4)
H31 H 0.1655 1.1534 0.9678
C31 C 0.05107(11) 1.04974(7) 0.93212(4)
C32 C -0.06039(11) 1.02934(7) 0.89446(4)
H32 H -0.0852 0.9680 0.8877
C33 C 0.23309(11) 0.99043(7) 0.99499(4)
H33 H 0.2109 1.0289 1.0247
H34 H 0.3077 1.0194 0.9782
C34 C 0.27360(11) 0.89649(7) 1.01417(4)
H35 H 0.1983 0.8680 1.0308
H36 H 0.2943 0.8582 0.9842
C35 C 0.45219(11) 0.82982(7) 1.07452(4)
C36 C 0.40355(12) 0.74266(8) 1.06417(4)
H37 H 0.3211 0.7332 1.0408
C37 C 0.47502(12) 0.66959(8) 1.08788(4)
H38 H 0.4410 0.6102 1.0805
C38 C 0.59585(11) 0.68158(7) 1.12230(4)
C39 C 0.64368(11) 0.76817(7) 1.13451(4)
H39 H 0.7246 0.7773 1.1588
C40 C 0.57090(11) 0.84187(7) 1.11053(4)
C41 C 0.61616(12) 0.93238(8) 1.12344(4)
C42 C 0.78361(12) 0.61413(8) 1.17754(5)
H40 H 0.8521 0.6457 1.1594
H41 H 0.8188 0.5544 1.1890
H42 H 0.7650 0.6492 1.2086
loop_
_geom_bond_atom_site_label_1
_geom_bond_atom_site_label_2
_geom_bond_site_symmetry_1
_geom_bond_site_symmetry_2
O1 C3 1_555 1_555
O2 C2 1_555 1_555
O3 C10 1_555 1_555
O4 C13 1_555 1_555
O5 C17 1_555 1_555
N1 C20 1_555 1_555
C1 H1 1_555 1_555
H2 C1 1_555 1_555
H3 C1 1_555 1_555
C2 C1 1_555 1_555
H4 C2 1_555 1_555
H5 C2 1_555 1_555
C3 O2 1_555 1_555
C4 C3 1_555 1_555
H6 C4 1_555 1_555
C5 C4 1_555 1_555
H7 C5 1_555 1_555
C6 C5 1_555 1_555
C7 C6 1_555 1_555
H8 C7 1_555 1_555
C8 C7 1_555 1_555
H9 C8 1_555 1_555
C9 C8 1_555 1_555
H10 C9 1_555 1_555
C10 C9 1_555 1_555
C11 C6 1_555 1_555
H11 C11 1_555 1_555
C12 O3 1_555 1_555
H12 C12 1_555 1_555
H13 C12 1_555 1_555
C13 C12 1_555 1_555
H14 C13 1_555 1_555
H15 C13 1_555 1_555
C14 O4 1_555 1_555
C15 C14 1_555 1_555
H16 C15 1_555 1_555
C16 C15 1_555 1_555
H17 C16 1_555 1_555
C17 C16 1_555 1_555
C18 C17 1_555 1_555
H18 C18 1_555 1_555
C19 C14 1_555 1_555
C20 C19 1_555 1_555
C21 O5 1_555 1_555
H19 C21 1_555 1_555
H20 C21 1_555 1_555
H21 C21 1_555 1_555
O6 C24 1_555 1_555
O7 C23 1_555 1_555
O8 C31 1_555 1_555
O9 C34 1_555 1_555
O10 C38 1_555 1_555
N2 C41 1_555 1_555
C22 H22 1_555 1_555
H23 C22 1_555 1_555
H24 C22 1_555 1_555
C23 C22 1_555 1_555
H25 C23 1_555 1_555
H26 C23 1_555 1_555
C24 O7 1_555 1_555
C25 C24 1_555 1_555
H27 C25 1_555 1_555
C26 C25 1_555 1_555
H28 C26 1_555 1_555
C27 C26 1_555 1_555
C28 C27 1_555 1_555
H29 C28 1_555 1_555
C29 C28 1_555 1_555
H30 C29 1_555 1_555
C30 C29 1_555 1_555
H31 C30 1_555 1_555
C31 C30 1_555 1_555
C32 C27 1_555 1_555
H32 C32 1_555 1_555
C33 O8 1_555 1_555
H33 C33 1_555 1_555
H34 C33 1_555 1_555
C34 C33 1_555 1_555
H35 C34 1_555 1_555
H36 C34 1_555 1_555
C35 O9 1_555 1_555
C36 C35 1_555 1_555
H37 C36 1_555 1_555
C37 C36 1_555 1_555
H38 C37 1_555 1_555
C38 C37 1_555 1_555
C39 C38 1_555 1_555
H39 C39 1_555 1_555
C40 C35 1_555 1_555
C41 C40 1_555 1_555
C42 O10 1_555 1_555
H40 C42 1_555 1_555
H41 C42 1_555 1_555
H42 C42 1_555 1_555
C10 C11 1_555 1_555
C18 C19 1_555 1_555
C31 C32 1_555 1_555
C39 C40 1_555 1_555

#END
