
#######################################################################
#
#                 Cambridge Crystallographic Data Centre
#                                CCDC 
#
#######################################################################
#
# If this CIF has been generated from an entry in the Cambridge 
# Structural Database, then it will include bibliographic, chemical, 
# crystal, experimental, refinement or atomic coordinate data resulting 
# from the CCDC's data processing and validation procedures.
#
#######################################################################

data_XEPBUR
_chemical_formula_moiety         'C10 H18 O4,C10 H8 N4'
_chemical_name_systematic        "3,3'-azopyridine decanedioic acid"
_symmetry_cell_setting           triclinic
_symmetry_space_group_name_H-M   'P -1'
_symmetry_Int_Tables_number      2
_space_group_name_Hall           '-P 1'
loop_
_symmetry_equiv_pos_site_id
_symmetry_equiv_pos_as_xyz
1 x,y,z
2 -x,-y,-z
_cell_length_a                   7.0388(14)
_cell_length_b                   8.2451(18)
_cell_length_c                   17.490(4)
_cell_angle_alpha                77.525(14)
_cell_angle_beta                 80.368(13)
_cell_angle_gamma                85.474(14)
_cell_volume                     976.142
_exptl_crystal_colour            orange
_exptl_crystal_description       plate
_cell_formula_units_Z            2
loop_
_atom_site_label
_atom_site_type_symbol
_atom_site_fract_x
_atom_site_fract_y
_atom_site_fract_z
N1 N 0.0857(3) 0.5352(2) 0.72502(11)
C1 C 0.2303(4) 0.4661(3) 0.68101(13)
H1 H 0.3569 0.4631 0.6936
C2 C 0.2033(3) 0.3984(3) 0.61759(13)
N2 N 0.3754(3) 0.3364(2) 0.57424(11)
C3 C 0.0181(4) 0.3991(3) 0.60046(13)
H2 H -0.0050 0.3530 0.5577
C4 C -0.1317(4) 0.4676(3) 0.64619(14)
H3 H -0.2603 0.4678 0.6362
C5 C -0.0920(4) 0.5365(3) 0.70728(14)
H4 H -0.1954 0.5866 0.7377
N3 N 0.6347(3) 0.0966(2) 0.36068(11)
C6 C 0.4888(4) 0.1610(3) 0.40656(13)
H5 H 0.3628 0.1670 0.3931
C7 C 0.5140(4) 0.2192(3) 0.47281(13)
N4 N 0.3443(3) 0.2808(2) 0.51574(11)
C8 C 0.6992(4) 0.2100(3) 0.49337(14)
H6 H 0.7207 0.2457 0.5392
C9 C 0.8499(4) 0.1472(3) 0.44488(14)
H7 H 0.9778 0.1423 0.4562
C10 C 0.8132(4) 0.0912(3) 0.37923(14)
H8 H 0.9177 0.0477 0.3466
C11 C 0.3644(4) 0.6487(3) 0.84364(13)
O1 O 0.1782(3) 0.6731(2) 0.83866(10)
H9 H 0.146(4) 0.614(3) 0.7959(17)
O2 O 0.4776(3) 0.5801(2) 0.80016(10)
C12 C 0.4133(3) 0.7154(3) 0.91117(14)
H10 H 0.3317 0.6615 0.9605
H11 H 0.3779 0.8359 0.9021
C13 C 0.6229(3) 0.6919(3) 0.92453(14)
H12 H 0.7057 0.7541 0.8777
H13 H 0.6633 0.5726 0.9307
C14 C 0.6501(3) 0.7530(3) 0.99840(14)
H14 H 0.6059 0.8715 0.9919
H15 H 0.5658 0.6902 1.0446
C15 C 0.8543(4) 0.7368(3) 1.01674(14)
H16 H 0.9403 0.7964 0.9702
H17 H 0.8974 0.6179 1.0259
C16 C 0.8744(4) 0.8058(3) 1.08918(14)
H18 H 0.8266 0.9235 1.0808
H19 H 0.7917 0.7434 1.1360
C17 C 1.0800(4) 0.7957(3) 1.10665(14)
H20 H 1.1640 0.8510 1.0583
H21 H 1.1242 0.6772 1.1184
C18 C 1.1070(4) 0.8745(3) 1.17577(13)
H22 H 1.0636 0.9933 1.1648
H23 H 1.0265 0.8183 1.2249
C19 C 1.3169(4) 0.8602(3) 1.18793(13)
H24 H 1.3572 0.7407 1.1993
H25 H 1.3957 0.9123 1.1375
C20 C 1.3638(4) 0.9369(3) 1.25281(14)
O3 O 1.5498(3) 0.9540(2) 1.24719(10)
H26 H 1.578(4) 1.022(3) 1.2905(16)
O4 O 1.2446(3) 0.9794(3) 1.30463(10)
loop_
_geom_bond_atom_site_label_1
_geom_bond_atom_site_label_2
_geom_bond_site_symmetry_1
_geom_bond_site_symmetry_2
N1 C1 1_555 1_555
C1 H1 1_555 1_555
C2 C1 1_555 1_555
N2 C2 1_555 1_555
C3 C2 1_555 1_555
H2 C3 1_555 1_555
C4 C3 1_555 1_555
H3 C4 1_555 1_555
C5 N1 1_555 1_555
H4 C5 1_555 1_555
N3 C6 1_555 1_555
C6 H5 1_555 1_555
C7 C6 1_555 1_555
N4 N2 1_555 1_555
C8 C7 1_555 1_555
H6 C8 1_555 1_555
C9 C8 1_555 1_555
H7 C9 1_555 1_555
C10 N3 1_555 1_555
H8 C10 1_555 1_555
C11 O1 1_555 1_555
O1 H9 1_555 1_555
O2 C11 1_555 1_555
C12 C11 1_555 1_555
H10 C12 1_555 1_555
H11 C12 1_555 1_555
C13 C12 1_555 1_555
H12 C13 1_555 1_555
H13 C13 1_555 1_555
C14 C13 1_555 1_555
H14 C14 1_555 1_555
H15 C14 1_555 1_555
C15 C14 1_555 1_555
H16 C15 1_555 1_555
H17 C15 1_555 1_555
C16 C15 1_555 1_555
H18 C16 1_555 1_555
H19 C16 1_555 1_555
C17 C16 1_555 1_555
H20 C17 1_555 1_555
H21 C17 1_555 1_555
C18 C17 1_555 1_555
H22 C18 1_555 1_555
H23 C18 1_555 1_555
C19 C18 1_555 1_555
H24 C19 1_555 1_555
H25 C19 1_555 1_555
C20 C19 1_555 1_555
O3 C20 1_555 1_555
H26 O3 1_555 1_555
O4 C20 1_555 1_555
C4 C5 1_555 1_555
C7 N4 1_555 1_555
C9 C10 1_555 1_555

#END
