
#######################################################################
#
#                 Cambridge Crystallographic Data Centre
#                                CCDC 
#
#######################################################################
#
# If this CIF has been generated from an entry in the Cambridge 
# Structural Database, then it will include bibliographic, chemical, 
# crystal, experimental, refinement or atomic coordinate data resulting 
# from the CCDC's data processing and validation procedures.
#
#######################################################################

data_XEPHUX
_chemical_formula_moiety         'C22 H18 F6 O4'
_chemical_name_systematic        
'cis-Ethyl (2,6-diphenyl-2,6-bis(trifluoromethyl)-1,3-dioxan-4-ylidene)acetate'
_symmetry_cell_setting           triclinic
_symmetry_space_group_name_H-M   'P 1'
_symmetry_Int_Tables_number      1
_space_group_name_Hall           'P 1'
loop_
_symmetry_equiv_pos_site_id
_symmetry_equiv_pos_as_xyz
1 x,y,z
_cell_length_a                   9.923(2)
_cell_length_b                   9.993(2)
_cell_length_c                   12.909(3)
_cell_angle_alpha                96.07(3)
_cell_angle_beta                 109.69(3)
_cell_angle_gamma                115.18(3)
_cell_volume                     1043.04
_exptl_crystal_colour            colorless
_exptl_crystal_description       block
_cell_formula_units_Z            2
loop_
_atom_site_label
_atom_site_type_symbol
_atom_site_fract_x
_atom_site_fract_y
_atom_site_fract_z
O1 O 0.0632(2) 0.8990(2) 0.51464(16)
O3 O -0.1917(2) 0.8650(2) 0.39020(17)
O6 O -0.3717(3) 0.4515(3) 0.12838(19)
O7 O -0.6160(2) 0.4383(2) 0.09171(17)
F2 F -0.0923(2) 0.9970(2) 0.61289(16)
F3 F -0.1015(2) 1.1488(2) 0.50816(17)
F5 F 0.1313(2) 1.1821(2) 0.62415(15)
F7 F -0.1966(2) 0.6302(2) 0.50555(17)
F9 F -0.0892(2) 0.4958(2) 0.46814(17)
F12 F 0.0433(2) 0.6833(2) 0.62492(16)
C2 C 0.0575(4) 1.0599(3) 0.3857(3)
C3 C -0.0376(5) 1.0726(5) 0.2853(3)
H1 H -0.1538 1.0227 0.2582
C6 C 0.0378(6) 1.1588(5) 0.2245(4)
H4 H -0.0276 1.1651 0.1541
C8 C 0.2062(6) 1.2356(5) 0.2645(4)
H6 H 0.2566 1.2954 0.2223
C10 C 0.3014(5) 1.2254(4) 0.3659(4)
H8 H 0.4178 1.2794 0.3944
C12 C 0.2274(4) 1.1363(4) 0.4267(3)
H10 H 0.2928 1.1277 0.4960
C13 C -0.0210(4) 1.0756(3) 0.5523(3)
C16 C -0.0214(3) 0.9695(3) 0.4558(2)
C17 C 0.1844(3) 0.7496(3) 0.4656(2)
C19 C 0.3310(4) 0.8500(4) 0.5607(3)
H11 H 0.3337 0.9234 0.6157
C21 C 0.4736(4) 0.8442(4) 0.5764(3)
H13 H 0.5732 0.9138 0.6418
C24 C 0.4713(4) 0.7381(4) 0.4977(3)
H16 H 0.5690 0.7342 0.5085
C26 C 0.3260(4) 0.6373(4) 0.4029(3)
H18 H 0.3239 0.5639 0.3483
C28 C 0.1830(4) 0.6424(4) 0.3866(3)
H20 H 0.0836 0.5723 0.3212
C29 C -0.0550(4) 0.6394(4) 0.5130(3)
C31 C 0.0255(3) 0.7496(3) 0.4517(2)
C34 C -0.0925(3) 0.7040(3) 0.3257(2)
H21 H -0.0312 0.7627 0.2844
H22 H -0.1373 0.5926 0.2902
C35 C -0.2313(3) 0.7345(3) 0.3122(2)
C37 C -0.3892(3) 0.6498(3) 0.2364(2)
H24 H -0.4639 0.6844 0.2390
C39 C -0.4508(3) 0.5060(3) 0.1499(2)
C41 C -0.6880(4) 0.3034(4) -0.0050(3)
H27 H -0.6746 0.2193 0.0230
H28 H -0.6321 0.3295 -0.0565
C44 C -0.8633(4) 0.2530(4) -0.0677(3)
H34 H -0.9137 0.1625 -0.1338
H35 H -0.8754 0.3370 -0.0947
H36 H -0.9180 0.2257 -0.0164
O2 O 0.7174(3) 0.4961(2) 0.77451(17)
O4 O 0.9314(2) 0.4607(2) 0.89127(17)
O5 O 1.1532(3) 0.8472(3) 1.18973(19)
O8 O 1.3802(2) 0.8335(3) 1.20658(18)
F1 F 0.8756(2) 0.4102(2) 0.67083(17)
F4 F 0.6212(2) 0.2421(2) 0.61256(15)
F6 F 0.8103(2) 0.2025(2) 0.72130(16)
F8 F 0.7795(3) 0.7689(3) 0.73124(18)
F10 F 0.8943(3) 0.8943(2) 0.9103(2)
F11 F 0.9995(2) 0.7772(2) 0.84446(18)
C1 C 0.6494(3) 0.2689(3) 0.8469(2)
C4 C 0.7093(4) 0.2062(4) 0.9293(3)
H2 H 0.8242 0.2435 0.9671
C5 C 0.6022(5) 0.0895(5) 0.9566(4)
H3 H 0.6438 0.0472 1.0137
C7 C 0.4347(4) 0.0334(4) 0.9015(3)
H5 H 0.3615 -0.0474 0.9205
C9 C 0.3744(4) 0.0945(4) 0.8194(3)
H7 H 0.2592 0.0560 0.7814
C11 C 0.4814(4) 0.2127(3) 0.7918(2)
H9 H 0.4394 0.2552 0.7350
C14 C 0.7687(4) 0.3101(3) 0.7016(3)
C15 C 0.7642(3) 0.3884(3) 0.8091(2)
C18 C 0.5944(3) 0.6202(3) 0.8532(3)
C20 C 0.4589(4) 0.5560(4) 0.7466(3)
H12 H 0.4648 0.5113 0.6806
C22 C 0.3158(4) 0.5569(4) 0.7363(3)
H14 H 0.2237 0.5123 0.6635
C23 C 0.3067(4) 0.6230(4) 0.8321(3)
H15 H 0.2083 0.6232 0.8251
C25 C 0.4404(4) 0.6882(4) 0.9371(3)
H17 H 0.4342 0.7340 1.0024
C27 C 0.5849(4) 0.6877(3) 0.9486(3)
H19 H 0.6769 0.7334 1.0215
C30 C 0.8569(4) 0.7663(4) 0.8362(3)
C32 C 0.7528(3) 0.6214(3) 0.8639(2)
C33 C 0.9803(3) 0.5796(3) 0.9834(2)
C36 C 1.1361(4) 0.6425(3) 1.0616(2)
H23 H 1.1977 0.5936 1.0545
C38 C 1.2171(4) 0.7830(3) 1.1579(2)
C40 C 1.4811(4) 0.9750(4) 1.3019(3)
H25 H 1.5760 0.9710 1.3569
H26 H 1.4157 0.9843 1.3427
C42 C 1.5415(5) 1.1123(5) 1.2593(4)
H29 H 1.6092 1.2066 1.3245
H30 H 1.4475 1.1168 1.2056
H31 H 1.6076 1.1037 1.2199
C43 C 0.8529(3) 0.6214(3) 0.9831(2)
H32 H 0.9070 0.7253 1.0377
H33 H 0.7780 0.5467 1.0096
loop_
_geom_bond_atom_site_label_1
_geom_bond_atom_site_label_2
_geom_bond_site_symmetry_1
_geom_bond_site_symmetry_2
O1 C16 1_555 1_555
O2 C15 1_555 1_555
O3 C16 1_555 1_555
O4 C15 1_555 1_555
O5 C38 1_555 1_555
O6 C39 1_555 1_555
O7 C39 1_555 1_555
O8 C38 1_555 1_555
F1 C14 1_555 1_555
F2 C13 1_555 1_555
F3 C13 1_555 1_555
F4 C14 1_555 1_555
F5 C13 1_555 1_555
F6 C14 1_555 1_555
F7 C29 1_555 1_555
F8 C30 1_555 1_555
F9 C29 1_555 1_555
F10 C30 1_555 1_555
F11 C30 1_555 1_555
F12 C29 1_555 1_555
C1 C4 1_555 1_555
C2 C3 1_555 1_555
C3 H1 1_555 1_555
C4 H2 1_555 1_555
C5 C4 1_555 1_555
H3 C5 1_555 1_555
C6 C3 1_555 1_555
H4 C6 1_555 1_555
C7 C5 1_555 1_555
H5 C7 1_555 1_555
C8 C6 1_555 1_555
H6 C8 1_555 1_555
C9 C7 1_555 1_555
H7 C9 1_555 1_555
C10 C8 1_555 1_555
H8 C10 1_555 1_555
C11 C1 1_555 1_555
H9 C11 1_555 1_555
C12 C2 1_555 1_555
H10 C12 1_555 1_555
C13 C16 1_555 1_555
C14 C15 1_555 1_555
C15 C1 1_555 1_555
C16 C2 1_555 1_555
C17 C19 1_555 1_555
C18 C20 1_555 1_555
C19 H11 1_555 1_555
C20 H12 1_555 1_555
C21 C19 1_555 1_555
H13 C21 1_555 1_555
C22 C20 1_555 1_555
H14 C22 1_555 1_555
C23 C22 1_555 1_555
H15 C23 1_555 1_555
C24 C21 1_555 1_555
H16 C24 1_555 1_555
C25 C23 1_555 1_555
H17 C25 1_555 1_555
C26 C24 1_555 1_555
H18 C26 1_555 1_555
C27 C18 1_555 1_555
H19 C27 1_555 1_555
C28 C17 1_555 1_555
H20 C28 1_555 1_555
C29 C31 1_555 1_555
C30 C32 1_555 1_555
C31 O1 1_555 1_555
C32 O2 1_555 1_555
C33 O4 1_555 1_555
C34 C31 1_555 1_555
H21 C34 1_555 1_555
H22 C34 1_555 1_555
C35 O3 1_555 1_555
C36 C33 1_555 1_555
H23 C36 1_555 1_555
C37 C35 1_555 1_555
H24 C37 1_555 1_555
C38 C36 1_555 1_555
C39 C37 1_555 1_555
C40 O8 1_555 1_555
H25 C40 1_555 1_555
H26 C40 1_555 1_555
C41 O7 1_555 1_555
H27 C41 1_555 1_555
H28 C41 1_555 1_555
C42 C40 1_555 1_555
H29 C42 1_555 1_555
H30 C42 1_555 1_555
H31 C42 1_555 1_555
C43 C32 1_555 1_555
H32 C43 1_555 1_555
H33 C43 1_555 1_555
C44 C41 1_555 1_555
H34 C44 1_555 1_555
H35 C44 1_555 1_555
H36 C44 1_555 1_555
C9 C11 1_555 1_555
C10 C12 1_555 1_555
C17 C31 1_555 1_555
C18 C32 1_555 1_555
C25 C27 1_555 1_555
C26 C28 1_555 1_555
C33 C43 1_555 1_555
C34 C35 1_555 1_555

#END
