
#######################################################################
#
#                 Cambridge Crystallographic Data Centre
#                                CCDC 
#
#######################################################################
#
# If this CIF has been generated from an entry in the Cambridge 
# Structural Database, then it will include bibliographic, chemical, 
# crystal, experimental, refinement or atomic coordinate data resulting 
# from the CCDC's data processing and validation procedures.
#
#######################################################################

data_XEPSIV
_chemical_formula_moiety         'C16 H12 N2 O6 S2'
_chemical_name_systematic        
'2-(2-((1,1-Dioxo-1,2-benzisothiazol-3-yl)oxy)ethyl)-1,2-benzisothiazol-3(2H)-one 1,1-dioxide'
_symmetry_cell_setting           triclinic
_symmetry_space_group_name_H-M   'P -1'
_symmetry_Int_Tables_number      2
_space_group_name_Hall           '-P 1'
loop_
_symmetry_equiv_pos_site_id
_symmetry_equiv_pos_as_xyz
1 x,y,z
2 -x,-y,-z
_cell_length_a                   6.194(2)
_cell_length_b                   10.840(4)
_cell_length_c                   12.625(4)
_cell_angle_alpha                86.406(5)
_cell_angle_beta                 80.673(5)
_cell_angle_gamma                79.499(6)
_cell_volume                     821.983
_exptl_crystal_colour            colorless
_exptl_crystal_description       column
_chemical_melting_point          'above 260deg.C'
_cell_formula_units_Z            2
_exptl_crystal_recrystallization_method dichloromethane
loop_
_atom_site_label
_atom_site_type_symbol
_atom_site_fract_x
_atom_site_fract_y
_atom_site_fract_z
S1 S 0.16950(10) 0.53972(6) 0.32479(5)
O1 O 0.1080(3) 0.41851(15) 0.35313(14)
C1 C 0.1490(4) 0.6909(2) 0.4609(2)
C2 C -0.0501(4) 0.7425(2) 0.4092(2)
O2 O 0.3218(3) 0.54909(17) 0.22699(14)
C3 C -0.2092(4) 0.8498(2) 0.4323(2)
H1 H -0.1973 0.9054 0.4855
C4 C -0.3877(4) 0.8723(2) 0.3741(2)
H2 H -0.4995 0.9444 0.3882
C5 C -0.4037(4) 0.7906(2) 0.2958(2)
H3 H -0.5274 0.8077 0.2581
C6 C -0.2420(4) 0.6840(2) 0.2716(2)
H4 H -0.2517 0.6288 0.2177
C7 C -0.0667(4) 0.6628(2) 0.3300(2)
O3 O 0.1851(3) 0.75365(15) 0.54114(14)
N1 N 0.2732(3) 0.58677(19) 0.42588(17)
S2 S -0.08080(11) 0.91205(6) 0.77498(5)
O4 O 0.0055(3) 1.00626(16) 0.82296(15)
N2 N 0.1023(3) 0.77676(19) 0.77027(17)
C8 C -0.1943(4) 0.7249(2) 0.8968(2)
O5 O -0.1538(3) 0.94454(17) 0.67262(14)
C9 C -0.3231(5) 0.6562(3) 0.9696(2)
H5 H -0.2655 0.5729 0.9915
O6 O 0.1567(3) 0.58118(17) 0.85500(15)
C10 C -0.5407(5) 0.7131(3) 1.0100(2)
H6 H -0.6310 0.6683 1.0607
C11 C -0.6256(5) 0.8347(3) 0.9762(2)
H7 H -0.7745 0.8706 1.0035
C12 C -0.4981(4) 0.9048(2) 0.9038(2)
H8 H -0.5562 0.9877 0.8810
C13 C -0.2803(4) 0.8476(2) 0.8660(2)
C14 C 0.0381(4) 0.6815(3) 0.8416(2)
C15 C 0.3269(4) 0.7640(2) 0.7052(2)
H9 H 0.4383 0.7230 0.7501
H10 H 0.3598 0.8487 0.6831
C16 C 0.3490(4) 0.6883(2) 0.6057(2)
H11 H 0.5006 0.6822 0.5646
H12 H 0.3205 0.6024 0.6262
loop_
_geom_bond_atom_site_label_1
_geom_bond_atom_site_label_2
_geom_bond_site_symmetry_1
_geom_bond_site_symmetry_2
S1 O1 1_555 1_555
C1 C2 1_555 1_555
C2 C3 1_555 1_555
O2 S1 1_555 1_555
C3 H1 1_555 1_555
C4 C3 1_555 1_555
H2 C4 1_555 1_555
C5 C4 1_555 1_555
H3 C5 1_555 1_555
C6 C5 1_555 1_555
H4 C6 1_555 1_555
C7 S1 1_555 1_555
O3 C1 1_555 1_555
N1 S1 1_555 1_555
S2 O4 1_555 1_555
N2 S2 1_555 1_555
C8 C9 1_555 1_555
O5 S2 1_555 1_555
C9 H5 1_555 1_555
O6 C14 1_555 1_555
C10 C9 1_555 1_555
H6 C10 1_555 1_555
C11 C10 1_555 1_555
H7 C11 1_555 1_555
C12 C11 1_555 1_555
H8 C12 1_555 1_555
C13 S2 1_555 1_555
C14 N2 1_555 1_555
C15 N2 1_555 1_555
H9 C15 1_555 1_555
H10 C15 1_555 1_555
C16 O3 1_555 1_555
H11 C16 1_555 1_555
H12 C16 1_555 1_555
C1 N1 1_555 1_555
C2 C7 1_555 1_555
C6 C7 1_555 1_555
C8 C13 1_555 1_555
C8 C14 1_555 1_555
C12 C13 1_555 1_555
C15 C16 1_555 1_555

#END
