
#######################################################################
#
#                 Cambridge Crystallographic Data Centre
#                                CCDC 
#
#######################################################################
#
# If this CIF has been generated from an entry in the Cambridge 
# Structural Database, then it will include bibliographic, chemical, 
# crystal, experimental, refinement or atomic coordinate data resulting 
# from the CCDC's data processing and validation procedures.
#
#######################################################################

data_XEPXOI
_chemical_name_common            gene822
_chemical_formula_moiety         'C23 H22 O1'
_chemical_name_systematic        
1,1'-[1-(3-methoxyphenyl)but-1-ene-1,2-diyl]dibenzene
_symmetry_cell_setting           triclinic
_symmetry_space_group_name_H-M   'P -1'
_symmetry_Int_Tables_number      2
_space_group_name_Hall           '-P 1'
loop_
_symmetry_equiv_pos_site_id
_symmetry_equiv_pos_as_xyz
1 x,y,z
2 -x,-y,-z
_cell_length_a                   8.7067(9)
_cell_length_b                   9.2287(10)
_cell_length_c                   12.6140(13)
_cell_angle_alpha                77.052(2)
_cell_angle_beta                 72.793(2)
_cell_angle_gamma                64.314(2)
_cell_volume                     867.091
_exptl_crystal_colour            colorless
_exptl_crystal_description       prism
_cell_formula_units_Z            2
loop_
_atom_site_label
_atom_site_type_symbol
_atom_site_fract_x
_atom_site_fract_y
_atom_site_fract_z
C1 C 0.4894(2) 0.4936(2) 0.24175(14)
C2 C 0.4033(2) 0.6416(2) 0.19273(14)
C3 C 0.4945(2) 0.7497(2) 0.12229(15)
H1 H 0.619905 0.697128 0.124357
H2 H 0.443791 0.853077 0.155104
C4 C 0.4789(3) 0.7856(2) 0.00080(16)
H3 H 0.531392 0.683980 -0.032852
H4 H 0.540114 0.855831 -0.040613
H5 H 0.355129 0.839969 -0.002076
C5 C 0.2102(2) 0.7102(2) 0.20316(14)
C6 C 0.1287(2) 0.6211(2) 0.18355(14)
H6 H 0.196607 0.513049 0.166071
C7 C -0.0489(2) 0.6868(2) 0.18905(14)
H7 H -0.101946 0.623640 0.175910
C8 C -0.1503(2) 0.8446(2) 0.21366(15)
H8 H -0.272441 0.890298 0.217055
C9 C -0.0714(2) 0.9345(2) 0.23315(15)
H9 H -0.139942 1.042524 0.250556
C10 C 0.1061(2) 0.8689(2) 0.22758(14)
H10 H 0.158380 0.932889 0.240583
C11 C 0.3997(2) 0.3925(2) 0.32248(14)
C12 C 0.4424(2) 0.2352(2) 0.30333(14)
H11 H 0.523901 0.194503 0.237034
C13 C 0.3671(2) 0.1369(2) 0.38024(14)
C14 C 0.2539(2) 0.1921(2) 0.47954(15)
H12 H 0.205258 0.124163 0.533319
C15 C 0.2127(2) 0.3485(2) 0.49924(15)
H13 H 0.135294 0.387235 0.567153
C16 C 0.2824(2) 0.4483(2) 0.42163(14)
H14 H 0.250418 0.555759 0.435764
C17 C 0.3529(3) -0.1236(2) 0.42910(16)
H15 H 0.392353 -0.138963 0.497480
H16 H 0.401197 -0.227594 0.399033
H17 H 0.224826 -0.080961 0.446102
C18 C 0.6842(2) 0.4178(2) 0.22683(14)
C19 C 0.7985(2) 0.3803(2) 0.12349(15)
H18 H 0.752741 0.404774 0.059006
C20 C 0.9784(2) 0.3075(2) 0.11368(16)
H19 H 1.054665 0.282565 0.042781
C21 C 1.0467(2) 0.2713(2) 0.20706(16)
H20 H 1.169691 0.221921 0.200354
C22 C 0.9347(2) 0.3075(2) 0.31023(16)
H21 H 0.981053 0.283595 0.374405
C23 C 0.7560(2) 0.3783(2) 0.32000(15)
H22 H 0.680408 0.400454 0.391457
O1 O 0.41166(16) -0.01200(14) 0.34856(10)
loop_
_geom_bond_atom_site_label_1
_geom_bond_atom_site_label_2
_geom_bond_site_symmetry_1
_geom_bond_site_symmetry_2
C1 C2 1_555 1_555
C2 C3 1_555 1_555
C3 H1 1_555 1_555
H2 C3 1_555 1_555
C4 C3 1_555 1_555
H3 C4 1_555 1_555
H4 C4 1_555 1_555
H5 C4 1_555 1_555
C5 C2 1_555 1_555
C6 C5 1_555 1_555
H6 C6 1_555 1_555
C7 C6 1_555 1_555
H7 C7 1_555 1_555
C8 C7 1_555 1_555
H8 C8 1_555 1_555
C9 C8 1_555 1_555
H9 C9 1_555 1_555
C10 C5 1_555 1_555
H10 C10 1_555 1_555
C11 C1 1_555 1_555
C12 C11 1_555 1_555
H11 C12 1_555 1_555
C13 C12 1_555 1_555
C14 C13 1_555 1_555
H12 C14 1_555 1_555
C15 C14 1_555 1_555
H13 C15 1_555 1_555
C16 C11 1_555 1_555
H14 C16 1_555 1_555
C17 H15 1_555 1_555
H16 C17 1_555 1_555
H17 C17 1_555 1_555
C18 C1 1_555 1_555
C19 C18 1_555 1_555
H18 C19 1_555 1_555
C20 C19 1_555 1_555
H19 C20 1_555 1_555
C21 C20 1_555 1_555
H20 C21 1_555 1_555
C22 C21 1_555 1_555
H21 C22 1_555 1_555
C23 C18 1_555 1_555
H22 C23 1_555 1_555
O1 C13 1_555 1_555
C9 C10 1_555 1_555
C15 C16 1_555 1_555
C17 O1 1_555 1_555
C22 C23 1_555 1_555

#END
