
#######################################################################
#
#                 Cambridge Crystallographic Data Centre
#                                CCDC 
#
#######################################################################
#
# If this CIF has been generated from an entry in the Cambridge 
# Structural Database, then it will include bibliographic, chemical, 
# crystal, experimental, refinement or atomic coordinate data resulting 
# from the CCDC's data processing and validation procedures.
#
#######################################################################

data_XEPYEY
_chemical_formula_moiety         'C15 H9 F4 I1 O3 S2'
_chemical_name_systematic        
2-(((4-(2,3,5,6-Tetrafluoro-4-iodophenoxy)phenyl)sulfonyl)methyl)thiirane
_symmetry_cell_setting           monoclinic
_symmetry_space_group_name_H-M   'P 21/n'
_symmetry_Int_Tables_number      14
_space_group_name_Hall           '-P 2yn'
loop_
_symmetry_equiv_pos_site_id
_symmetry_equiv_pos_as_xyz
1 x,y,z
2 1/2-x,1/2+y,1/2-z
3 -x,-y,-z
4 1/2+x,1/2-y,1/2+z
_cell_length_a                   16.9301(8)
_cell_length_b                   5.6351(3)
_cell_length_c                   18.5698(8)
_cell_angle_alpha                90
_cell_angle_beta                 111.768(2)
_cell_angle_gamma                90
_cell_volume                     1645.28
_exptl_crystal_colour            colorless
_exptl_crystal_description       parallelepiped
_cell_formula_units_Z            4
loop_
_atom_site_label
_atom_site_type_symbol
_atom_site_fract_x
_atom_site_fract_y
_atom_site_fract_z
I1 I 1.201025(11) -0.33950(4) 0.104251(10)
S1 S 0.63027(4) 0.52913(13) 0.11338(4)
S2 S 0.72085(5) 0.78136(15) -0.02496(4)
F1 F 1.07924(12) 0.0276(4) 0.31054(10)
F2 F 1.16805(12) -0.2899(4) 0.26224(11)
F3 F 1.08559(12) 0.1081(4) 0.02125(10)
F4 F 0.99909(12) 0.4264(4) 0.07179(10)
O1 O 1.00173(13) 0.4074(4) 0.22134(12)
O2 O 0.61167(15) 0.5974(4) 0.18007(13)
O3 O 0.59107(14) 0.3167(4) 0.07136(14)
C1 C 1.03889(19) 0.2343(6) 0.19245(18)
C2 C 1.12702(19) -0.1130(6) 0.21398(18)
C3 C 1.08149(19) 0.0485(6) 0.23946(17)
C4 C 1.13054(19) -0.0970(6) 0.14099(17)
C5 C 1.08563(19) 0.0853(6) 0.09340(17)
C6 C 1.04085(19) 0.2497(6) 0.11838(18)
C7 C 0.91399(18) 0.4303(6) 0.19084(16)
C8 C 0.8826(2) 0.6219(6) 0.21953(17)
H1 H 0.9203 0.7293 0.2554
C9 C 0.7958(2) 0.6532(6) 0.19506(18)
H2 H 0.7732 0.7816 0.2145
C10 C 0.74121(18) 0.4958(5) 0.14170(16)
C11 C 0.7731(2) 0.3088(6) 0.11247(17)
H3 H 0.7352 0.2047 0.0754
C12 C 0.86033(19) 0.2725(6) 0.13719(17)
H4 H 0.8828 0.1432 0.1180
C13 C 0.5993(2) 0.7707(6) 0.04695(17)
H5 H 0.5381 0.8039 0.0342
H6 H 0.6316 0.9137 0.0723
C14 C 0.61378(19) 0.7256(6) -0.02683(18)
H7 H 0.5846 0.5825 -0.0568
C15 C 0.6190(2) 0.9375(7) -0.07520(18)
H8 H 0.6123 1.0968 -0.0557
H9 H 0.5928 0.9208 -0.1323
loop_
_geom_bond_atom_site_label_1
_geom_bond_atom_site_label_2
_geom_bond_site_symmetry_1
_geom_bond_site_symmetry_2
I1 C4 1_555 1_555
S1 O2 1_555 1_555
S2 C14 1_555 1_555
F1 C3 1_555 1_555
F2 C2 1_555 1_555
F3 C5 1_555 1_555
F4 C6 1_555 1_555
O1 C1 1_555 1_555
O3 S1 1_555 1_555
C1 C3 1_555 1_555
C2 C3 1_555 1_555
C4 C2 1_555 1_555
C5 C4 1_555 1_555
C6 C1 1_555 1_555
C7 O1 1_555 1_555
C8 C7 1_555 1_555
H1 C8 1_555 1_555
C9 C8 1_555 1_555
H2 C9 1_555 1_555
C10 S1 1_555 1_555
C11 C10 1_555 1_555
H3 C11 1_555 1_555
C12 C7 1_555 1_555
H4 C12 1_555 1_555
C13 S1 1_555 1_555
H5 C13 1_555 1_555
H6 C13 1_555 1_555
C14 C13 1_555 1_555
H7 C14 1_555 1_555
C15 S2 1_555 1_555
H8 C15 1_555 1_555
H9 C15 1_555 1_555
C5 C6 1_555 1_555
C9 C10 1_555 1_555
C11 C12 1_555 1_555
C14 C15 1_555 1_555

#END
