
#######################################################################
#
#                 Cambridge Crystallographic Data Centre
#                                CCDC 
#
#######################################################################
#
# If this CIF has been generated from an entry in the Cambridge 
# Structural Database, then it will include bibliographic, chemical, 
# crystal, experimental, refinement or atomic coordinate data resulting 
# from the CCDC's data processing and validation procedures.
#
#######################################################################

data_XEPYOJ
_chemical_name_common            gene637
_chemical_formula_moiety         'C22 H20 Cl1 F1 O1'
_chemical_name_systematic        
1-(4-chlorophenyl)-2-(4-fluorophenyl)-1-phenylbutan-1-ol
_symmetry_cell_setting           orthorhombic
_symmetry_space_group_name_H-M   'P 21 21 21'
_symmetry_Int_Tables_number      19
_space_group_name_Hall           'P 2ac 2ab'
loop_
_symmetry_equiv_pos_site_id
_symmetry_equiv_pos_as_xyz
1 x,y,z
2 1/2-x,-y,1/2+z
3 -x,1/2+y,1/2-z
4 1/2+x,1/2-y,-z
_cell_length_a                   5.9730(5)
_cell_length_b                   15.8880(14)
_cell_length_c                   18.3194(16)
_cell_angle_alpha                90
_cell_angle_beta                 90
_cell_angle_gamma                90
_cell_volume                     1738.49
_exptl_crystal_colour            colorless
_exptl_crystal_description       rod
_cell_formula_units_Z            4
loop_
_atom_site_label
_atom_site_type_symbol
_atom_site_fract_x
_atom_site_fract_y
_atom_site_fract_z
C1 C 0.3575(5) 0.49439(15) 0.63855(14)
C2 C 0.2111(4) 0.46302(16) 0.70399(14)
H1 H 0.0527 0.4788 0.6929
C3 C 0.2714(5) 0.50409(16) 0.77751(14)
H2 H 0.4292 0.4909 0.7895
H3 H 0.2579 0.5660 0.7729
C4 C 0.1213(5) 0.47400(17) 0.83986(14)
H4 H -0.0361 0.4811 0.8260
H5 H 0.1525 0.5072 0.8838
H6 H 0.1512 0.4144 0.8498
C5 C 0.2914(4) 0.44530(15) 0.56997(15)
C6 C 0.0842(4) 0.46091(17) 0.53725(14)
H7 H -0.0077 0.5052 0.5551
C7 C 0.0114(5) 0.41236(18) 0.47890(15)
H8 H -0.1303 0.4232 0.4573
C8 C 0.1446(5) 0.34843(17) 0.45216(14)
H9 H 0.0943 0.3150 0.4124
C9 C 0.3521(6) 0.33312(18) 0.48345(15)
H10 H 0.4448 0.2897 0.4646
C10 C 0.4250(5) 0.38123(17) 0.54238(14)
H11 H 0.5669 0.3702 0.5638
C11 C 0.3406(5) 0.58938(16) 0.62348(14)
C12 C 0.1542(5) 0.63822(16) 0.64029(13)
H12 H 0.0279 0.6124 0.6625
C13 C 0.1490(5) 0.72444(16) 0.62522(14)
H13 H 0.0209 0.7572 0.6370
C14 C 0.3339(5) 0.76129(16) 0.59275(13)
C15 C 0.5177(4) 0.71384(17) 0.57351(15)
H14 H 0.6423 0.7396 0.5502
C16 C 0.5194(5) 0.62845(17) 0.58832(14)
H15 H 0.6453 0.5957 0.5742
C17 C 0.2192(4) 0.36729(17) 0.70913(14)
C18 C 0.0370(4) 0.31916(17) 0.68637(14)
H16 H -0.0924 0.3464 0.6676
C19 C 0.0424(5) 0.23131(17) 0.69079(14)
H17 H -0.0819 0.1984 0.6754
C20 C 0.2311(5) 0.19409(16) 0.71776(15)
C21 C 0.4161(5) 0.23871(17) 0.74059(14)
H18 H 0.5453 0.2108 0.7587
C22 C 0.4068(4) 0.32598(17) 0.73620(14)
H19 H 0.5317 0.3582 0.7521
O1 O 0.5887(3) 0.47518(11) 0.65369(10)
H20 H 0.6350 0.5062 0.6876
F1 F 0.2374(3) 0.10802(9) 0.72325(9)
Cl1 Cl 0.34007(12) 0.86935(4) 0.57708(4)
loop_
_geom_bond_atom_site_label_1
_geom_bond_atom_site_label_2
_geom_bond_site_symmetry_1
_geom_bond_site_symmetry_2
C1 C2 1_555 1_555
C2 H1 1_555 1_555
C3 C2 1_555 1_555
H2 C3 1_555 1_555
H3 C3 1_555 1_555
C4 C3 1_555 1_555
H4 C4 1_555 1_555
H5 C4 1_555 1_555
H6 C4 1_555 1_555
C5 C1 1_555 1_555
C6 C5 1_555 1_555
H7 C6 1_555 1_555
C7 C6 1_555 1_555
H8 C7 1_555 1_555
C8 C7 1_555 1_555
H9 C8 1_555 1_555
C9 C8 1_555 1_555
H10 C9 1_555 1_555
C10 C5 1_555 1_555
H11 C10 1_555 1_555
C11 C1 1_555 1_555
C12 C11 1_555 1_555
H12 C12 1_555 1_555
C13 C12 1_555 1_555
H13 C13 1_555 1_555
C14 C13 1_555 1_555
C15 C14 1_555 1_555
H14 C15 1_555 1_555
C16 C11 1_555 1_555
H15 C16 1_555 1_555
C17 C2 1_555 1_555
C18 C17 1_555 1_555
H16 C18 1_555 1_555
C19 C18 1_555 1_555
H17 C19 1_555 1_555
C20 C19 1_555 1_555
C21 C20 1_555 1_555
H18 C21 1_555 1_555
C22 C17 1_555 1_555
H19 C22 1_555 1_555
O1 C1 1_555 1_555
H20 O1 1_555 1_555
F1 C20 1_555 1_555
Cl1 C14 1_555 1_555
C9 C10 1_555 1_555
C15 C16 1_555 1_555
C21 C22 1_555 1_555

#END
