
#######################################################################
#
#                 Cambridge Crystallographic Data Centre
#                                CCDC 
#
#######################################################################
#
# If this CIF has been generated from an entry in the Cambridge 
# Structural Database, then it will include bibliographic, chemical, 
# crystal, experimental, refinement or atomic coordinate data resulting 
# from the CCDC's data processing and validation procedures.
#
#######################################################################

data_XEQCAA
_chemical_name_common            
4,9-dihydro-o-benzeno-2-(4-dimethylaminophenyl)-2H-naphtho[2,3-d][1,2,3]triazole
_chemical_formula_moiety         'C24 H20 N4'
_chemical_name_systematic        
N,N-dimethyl-4-(16,17,18-triazapentacyclo[6.6.5.0^2,7^.0^9,14^.0^15,19^]nonadeca-2,4,6,9,11,13,15,18-octaen-17-yl)aniline
_symmetry_cell_setting           monoclinic
_symmetry_space_group_name_H-M   'P 21/c'
_symmetry_Int_Tables_number      14
_space_group_name_Hall           '-P 2ybc'
loop_
_symmetry_equiv_pos_site_id
_symmetry_equiv_pos_as_xyz
1 x,y,z
2 -x,1/2+y,1/2-z
3 -x,-y,-z
4 x,1/2-y,1/2+z
_cell_length_a                   19.3283(6)
_cell_length_b                   6.4042(2)
_cell_length_c                   15.6646(6)
_cell_angle_alpha                90
_cell_angle_beta                 109.031(4)
_cell_angle_gamma                90
_cell_volume                     1833.02
_exptl_crystal_colour            yellow
_exptl_crystal_description       needle
_cell_formula_units_Z            4
_exptl_crystal_recrystallization_method pentane/chloroform
_exptl_crystal_preparation       'preparation details are provided in the paper'
loop_
_atom_site_label
_atom_site_type_symbol
_atom_site_fract_x
_atom_site_fract_y
_atom_site_fract_z
N1 N 0.32704(6) 0.37107(19) 0.46864(8)
N2 N 0.27375(6) 0.49003(19) 0.41214(8)
N3 N 0.31575(6) 0.16278(19) 0.46044(8)
N4 N 0.58264(7) 0.6806(2) 0.72439(10)
C1 C 0.22611(7) 0.3480(2) 0.36545(9)
C2 C 0.16829(7) 0.2132(2) 0.21656(9)
C3 C 0.25179(7) 0.1494(2) 0.39513(9)
C4 C 0.03645(7) 0.2944(2) 0.33211(9)
H1 H 0.0185 0.4295 0.3111
C5 C 0.19414(7) 0.0124(2) 0.24706(9)
C6 C 0.15401(7) 0.3512(2) 0.28890(9)
H2 H 0.1359 0.4944 0.2675
C7 C 0.10230(7) 0.2250(2) 0.32550(8)
C8 C 0.12875(7) 0.0244(2) 0.35619(9)
C9 C 0.39236(7) 0.4559(2) 0.53004(9)
C10 C 0.15972(7) 0.2712(3) 0.12833(9)
H3 H 0.1424 0.4067 0.1072
C11 C -0.00328(8) 0.1625(3) 0.37023(9)
H4 H -0.0483 0.2090 0.3757
C12 C 0.20331(7) -0.0266(2) 0.34672(9)
H5 H 0.2222 -0.1688 0.3689
C13 C 0.08866(8) -0.1059(2) 0.39307(9)
H6 H 0.1061 -0.2418 0.4134
C14 C 0.21090(7) -0.1286(2) 0.18987(10)
H7 H 0.2280 -0.2646 0.2106
C15 C 0.02242(8) -0.0351(3) 0.39996(9)
H8 H -0.0053 -0.1233 0.4253
C16 C 0.39683(8) 0.6643(2) 0.55489(10)
H9 H 0.3563 0.7547 0.5298
C17 C 0.45277(8) 0.3260(2) 0.56431(10)
H10 H 0.4504 0.1848 0.5450
C18 C 0.46093(8) 0.7404(2) 0.61681(10)
H11 H 0.4640 0.8840 0.6329
C19 C 0.51617(8) 0.4020(3) 0.62636(10)
H12 H 0.5571 0.3118 0.6492
C20 C 0.17681(8) 0.1287(3) 0.07089(10)
H13 H 0.1708 0.1675 0.0104
C21 C 0.52149(8) 0.6094(3) 0.65632(10)
C22 C 0.20242(8) -0.0685(3) 0.10124(10)
H14 H 0.2143 -0.1637 0.0616
C23 C 0.64402(8) 0.5415(3) 0.76114(11)
H15 H 0.6271 0.4119 0.7811
H16 H 0.6804 0.6086 0.8127
H17 H 0.6662 0.5097 0.7146
C24 C 0.59994(9) 0.9010(3) 0.72877(12)
H18 H 0.6086 0.9436 0.6730
H19 H 0.6440 0.9275 0.7805
H20 H 0.5589 0.9812 0.7358
loop_
_geom_bond_atom_site_label_1
_geom_bond_atom_site_label_2
_geom_bond_site_symmetry_1
_geom_bond_site_symmetry_2
N1 N2 1_555 1_555
N2 C1 1_555 1_555
N3 N1 1_555 1_555
N4 C21 1_555 1_555
C1 C3 1_555 1_555
C2 C5 1_555 1_555
C3 N3 1_555 1_555
C4 H1 1_555 1_555
C5 C12 1_555 1_555
C6 C1 1_555 1_555
H2 C6 1_555 1_555
C7 C4 1_555 1_555
C8 C7 1_555 1_555
C9 N1 1_555 1_555
C10 C2 1_555 1_555
H3 C10 1_555 1_555
C11 C4 1_555 1_555
H4 C11 1_555 1_555
C12 C3 1_555 1_555
H5 C12 1_555 1_555
C13 C8 1_555 1_555
H6 C13 1_555 1_555
C14 C5 1_555 1_555
H7 C14 1_555 1_555
C15 C11 1_555 1_555
H8 C15 1_555 1_555
C16 C9 1_555 1_555
H9 C16 1_555 1_555
C17 C9 1_555 1_555
H10 C17 1_555 1_555
C18 C16 1_555 1_555
H11 C18 1_555 1_555
C19 C17 1_555 1_555
H12 C19 1_555 1_555
C20 C10 1_555 1_555
H13 C20 1_555 1_555
C21 C18 1_555 1_555
C22 C14 1_555 1_555
H14 C22 1_555 1_555
C23 N4 1_555 1_555
H15 C23 1_555 1_555
H16 C23 1_555 1_555
H17 C23 1_555 1_555
C24 N4 1_555 1_555
H18 C24 1_555 1_555
H19 C24 1_555 1_555
H20 C24 1_555 1_555
C2 C6 1_555 1_555
C6 C7 1_555 1_555
C8 C12 1_555 1_555
C13 C15 1_555 1_555
C19 C21 1_555 1_555
C20 C22 1_555 1_555

#END
