
#######################################################################
#
#                 Cambridge Crystallographic Data Centre
#                                CCDC 
#
#######################################################################
#
# If this CIF has been generated from an entry in the Cambridge 
# Structural Database, then it will include bibliographic, chemical, 
# crystal, experimental, refinement or atomic coordinate data resulting 
# from the CCDC's data processing and validation procedures.
#
#######################################################################

data_XEQCOO
_chemical_name_common            
4,9-dihydro-o-benzeno-2-(4-methoxyphenyl)-2H-naphtho[2,3-d][1,2,3]triazole
_chemical_formula_moiety         'C23 H17 N3 O1'
_chemical_name_systematic        
17-(4-methoxyphenyl)-16,17,18-triazapentacyclo[6.6.5.0^2,7^.0^9,14^.0^15,19^]nonadeca-2,4,6,9,11,13,15,18-octaene
_symmetry_cell_setting           triclinic
_symmetry_space_group_name_H-M   'P -1'
_symmetry_Int_Tables_number      2
_space_group_name_Hall           '-P 1'
loop_
_symmetry_equiv_pos_site_id
_symmetry_equiv_pos_as_xyz
1 x,y,z
2 -x,-y,-z
_cell_length_a                   6.4174(4)
_cell_length_b                   8.1350(6)
_cell_length_c                   16.7629(12)
_cell_angle_alpha                79.984(6)
_cell_angle_beta                 81.951(6)
_cell_angle_gamma                86.028(6)
_cell_volume                     852.383
_exptl_crystal_colour            yellow
_exptl_crystal_description       block
_cell_formula_units_Z            2
_exptl_crystal_recrystallization_method pentane/chloroform
_exptl_crystal_preparation       'preparation details are provided in the paper'
loop_
_atom_site_label
_atom_site_type_symbol
_atom_site_fract_x
_atom_site_fract_y
_atom_site_fract_z
O1 O 0.57747(13) 0.82810(10) 0.61049(5)
N1 N 0.30767(14) 0.60106(12) 0.34964(6)
N2 N 0.10199(14) 0.57672(11) 0.34773(6)
N3 N 0.44243(15) 0.55931(12) 0.28602(6)
C1 C 0.37934(17) 0.66225(13) 0.41498(7)
C2 C 0.10740(17) 0.51664(13) 0.27874(7)
C3 C -0.05441(17) 0.46660(14) 0.23137(7)
H1 H -0.2001 0.4769 0.2575
C4 C 0.01848(18) 0.28905(14) 0.21750(7)
C5 C 0.32765(18) 0.70473(14) 0.55418(7)
H2 H 0.2452 0.6951 0.6049
C6 C 0.31488(17) 0.50502(13) 0.24158(7)
C7 C 0.22811(18) 0.27453(14) 0.18135(7)
C8 C -0.00997(18) 0.57517(14) 0.14670(7)
C9 C 0.64589(18) 0.79230(14) 0.46717(7)
H3 H 0.7761 0.8403 0.4593
C10 C 0.25601(18) 0.64671(14) 0.49068(7)
H4 H 0.1264 0.5977 0.4986
C11 C 0.57296(18) 0.73467(14) 0.40308(7)
H5 H 0.6544 0.7448 0.3522
C12 C 0.34123(17) 0.43997(14) 0.16165(7)
H6 H 0.4878 0.4301 0.1363
C13 C 0.19918(19) 0.56086(14) 0.10956(7)
C14 C 0.31492(19) 0.12103(15) 0.16547(7)
H7 H 0.4543 0.1109 0.1419
C15 C -0.10489(19) 0.15055(15) 0.23718(7)
H8 H -0.2440 0.1603 0.2611
C16 C 0.52239(18) 0.77757(14) 0.54302(7)
C17 C 0.77405(19) 0.90520(15) 0.60112(7)
H9 H 0.7765 0.9997 0.5579
H10 H 0.8865 0.8263 0.5880
H11 H 0.7916 0.9415 0.6512
C18 C -0.0168(2) -0.00392(15) 0.22054(7)
H12 H -0.0981 -0.0975 0.2333
C19 C 0.2613(2) 0.65345(15) 0.03330(7)
H13 H 0.4001 0.6450 0.0088
C20 C 0.1905(2) -0.01872(15) 0.18527(7)
H14 H 0.2475 -0.1222 0.1747
C21 C -0.1558(2) 0.68130(15) 0.10750(7)
H15 H -0.2941 0.6913 0.1322
C22 C -0.0928(2) 0.77350(16) 0.03019(8)
H16 H -0.1902 0.8445 0.0033
C23 C 0.1130(2) 0.75971(16) -0.00648(7)
H17 H 0.1532 0.8213 -0.0579
loop_
_geom_bond_atom_site_label_1
_geom_bond_atom_site_label_2
_geom_bond_site_symmetry_1
_geom_bond_site_symmetry_2
O1 C16 1_555 1_555
N1 N2 1_555 1_555
N2 C2 1_555 1_555
N3 N1 1_555 1_555
C1 N1 1_555 1_555
C2 C3 1_555 1_555
C3 H1 1_555 1_555
C4 C3 1_555 1_555
C5 H2 1_555 1_555
C6 N3 1_555 1_555
C7 C4 1_555 1_555
C8 C3 1_555 1_555
C9 H3 1_555 1_555
C10 C1 1_555 1_555
H4 C10 1_555 1_555
C11 C1 1_555 1_555
H5 C11 1_555 1_555
C12 C6 1_555 1_555
H6 C12 1_555 1_555
C13 C8 1_555 1_555
C14 C7 1_555 1_555
H7 C14 1_555 1_555
C15 C4 1_555 1_555
H8 C15 1_555 1_555
C16 C5 1_555 1_555
C17 O1 1_555 1_555
H9 C17 1_555 1_555
H10 C17 1_555 1_555
H11 C17 1_555 1_555
C18 C15 1_555 1_555
H12 C18 1_555 1_555
C19 C13 1_555 1_555
H13 C19 1_555 1_555
C20 C14 1_555 1_555
H14 C20 1_555 1_555
C21 C8 1_555 1_555
H15 C21 1_555 1_555
C22 C21 1_555 1_555
H16 C22 1_555 1_555
C23 C19 1_555 1_555
H17 C23 1_555 1_555
C2 C6 1_555 1_555
C5 C10 1_555 1_555
C7 C12 1_555 1_555
C9 C11 1_555 1_555
C9 C16 1_555 1_555
C12 C13 1_555 1_555
C18 C20 1_555 1_555
C22 C23 1_555 1_555

#END
