
#######################################################################
#
#                 Cambridge Crystallographic Data Centre
#                                CCDC 
#
#######################################################################
#
# If this CIF has been generated from an entry in the Cambridge 
# Structural Database, then it will include bibliographic, chemical, 
# crystal, experimental, refinement or atomic coordinate data resulting 
# from the CCDC's data processing and validation procedures.
#
#######################################################################

data_XEQQOC
_chemical_formula_moiety         'C22 H15 N3'
_chemical_name_systematic        
17-phenyl-16,17,18-triazapentacyclo[6.6.5.0^2,7^.0^9,14^.0^15,19^]nonadeca-2,4,6,9,11,13,15,18-octaene
_symmetry_cell_setting           monoclinic
_symmetry_space_group_name_H-M   'P 21/n'
_symmetry_Int_Tables_number      14
_space_group_name_Hall           '-P 2yn'
loop_
_symmetry_equiv_pos_site_id
_symmetry_equiv_pos_as_xyz
1 x,y,z
2 1/2-x,1/2+y,1/2-z
3 -x,-y,-z
4 1/2+x,1/2-y,1/2+z
_cell_length_a                   17.0309(3)
_cell_length_b                   15.7428(2)
_cell_length_c                   6.36470(10)
_cell_angle_alpha                90
_cell_angle_beta                 111.994(2)
_cell_angle_gamma                90
_cell_volume                     1582.27
_exptl_crystal_colour            white
_exptl_crystal_description       block
_cell_formula_units_Z            4
_exptl_crystal_recrystallization_method 
'prepared by slow diffusion of pentane into a chloroform solution of this material'
_exptl_crystal_preparation       
'Preparation details are provided in the paper.'
loop_
_atom_site_label
_atom_site_type_symbol
_atom_site_fract_x
_atom_site_fract_y
_atom_site_fract_z
N1 N 0.37383(6) 0.56996(7) 0.70364(17)
N2 N 0.38341(7) 0.57575(7) 0.50262(17)
N3 N 0.31863(7) 0.54428(7) 0.32172(18)
C1 C 0.29891(8) 0.53284(8) 0.6464(2)
C2 C 0.26521(8) 0.51718(8) 0.4139(2)
C3 C 0.22597(8) 0.41126(8) 0.7087(2)
C4 C 0.16887(8) 0.31336(8) 0.3953(2)
H1 H 0.1452 0.3026 0.2404
C5 C 0.12462(8) 0.53468(8) 0.4123(2)
C6 C 0.45644(8) 0.61250(8) 0.4821(2)
C7 C 0.19074(8) 0.39533(8) 0.4744(2)
C8 C 0.15945(8) 0.55005(8) 0.6472(2)
C9 C 0.17869(8) 0.47582(8) 0.3285(2)
H2 H 0.1551 0.4653 0.1649
C10 C 0.47842(8) 0.58995(9) 0.3001(2)
H3 H 0.4458 0.5513 0.1922
C11 C 0.11698(8) 0.60065(8) 0.7476(2)
H4 H 0.1404 0.6114 0.9024
C12 C 0.24404(8) 0.50532(8) 0.7716(2)
H5 H 0.2685 0.5163 0.9350
C13 C 0.04754(8) 0.57023(8) 0.2807(2)
H6 H 0.0247 0.5611 0.1251
C14 C 0.50424(8) 0.67034(8) 0.6448(2)
H7 H 0.4885 0.6852 0.7649
C15 C 0.24029(8) 0.34526(8) 0.8621(2)
H8 H 0.2642 0.3558 1.0170
C16 C 0.21836(8) 0.26269(9) 0.7816(2)
H9 H 0.2278 0.2180 0.8836
C17 C 0.18269(8) 0.24678(8) 0.5509(2)
H10 H 0.1678 0.1916 0.4991
C18 C 0.59921(8) 0.68350(9) 0.4450(3)
H11 H 0.6475 0.7069 0.4332
C19 C 0.03874(9) 0.63538(9) 0.6145(3)
H12 H 0.0096 0.6690 0.6813
C20 C 0.55008(8) 0.62634(9) 0.2827(2)
H13 H 0.5653 0.6123 0.1612
C21 C 0.57597(8) 0.70551(9) 0.6248(2)
H14 H 0.6087 0.7441 0.7328
C22 C 0.00421(8) 0.62007(8) 0.3841(3)
H15 H -0.0482 0.6431 0.2971
loop_
_geom_bond_atom_site_label_1
_geom_bond_atom_site_label_2
_geom_bond_site_symmetry_1
_geom_bond_site_symmetry_2
N1 N2 1_555 1_555
N2 N3 1_555 1_555
N3 C2 1_555 1_555
C1 N1 1_555 1_555
C2 C1 1_555 1_555
C3 C7 1_555 1_555
C4 H1 1_555 1_555
C5 C8 1_555 1_555
C6 N2 1_555 1_555
C7 C4 1_555 1_555
C8 C11 1_555 1_555
C9 C2 1_555 1_555
H2 C9 1_555 1_555
C10 C6 1_555 1_555
H3 C10 1_555 1_555
C11 H4 1_555 1_555
C12 C1 1_555 1_555
H5 C12 1_555 1_555
C13 C5 1_555 1_555
H6 C13 1_555 1_555
C14 C6 1_555 1_555
H7 C14 1_555 1_555
C15 C3 1_555 1_555
H8 C15 1_555 1_555
C16 C15 1_555 1_555
H9 C16 1_555 1_555
C17 C4 1_555 1_555
H10 C17 1_555 1_555
C18 H11 1_555 1_555
C19 C11 1_555 1_555
H12 C19 1_555 1_555
C20 C10 1_555 1_555
H13 C20 1_555 1_555
C21 C14 1_555 1_555
H14 C21 1_555 1_555
C22 C13 1_555 1_555
H15 C22 1_555 1_555
C3 C12 1_555 1_555
C5 C9 1_555 1_555
C7 C9 1_555 1_555
C8 C12 1_555 1_555
C16 C17 1_555 1_555
C18 C20 1_555 1_555
C18 C21 1_555 1_555
C19 C22 1_555 1_555

#END
