
#######################################################################
#
#                 Cambridge Crystallographic Data Centre
#                                CCDC 
#
#######################################################################
#
# If this CIF has been generated from an entry in the Cambridge 
# Structural Database, then it will include bibliographic, chemical, 
# crystal, experimental, refinement or atomic coordinate data resulting 
# from the CCDC's data processing and validation procedures.
#
#######################################################################

data_XEQYEZ
_chemical_formula_moiety         'C70 H62 B2 N2 S2,2(C1 H2 Cl2)'
_chemical_name_systematic        
"3,3'-(2,2'-Bithiene-5,5'-diyldiethyne-2,1-diyl)bis(6,6-dimesityl-6H-5\l^5^,6\l^5^-pyrido[1,2-b][2,1]benzazaborole) dichloromethane solvate"
_symmetry_cell_setting           monoclinic
_symmetry_space_group_name_H-M   'P 21/c'
_symmetry_Int_Tables_number      14
_space_group_name_Hall           '-P 2ybc'
loop_
_symmetry_equiv_pos_site_id
_symmetry_equiv_pos_as_xyz
1 x,y,z
2 -x,1/2+y,1/2-z
3 -x,-y,-z
4 x,1/2-y,1/2+z
_cell_length_a                   13.9623(15)
_cell_length_b                   26.777(3)
_cell_length_c                   8.7487(8)
_cell_angle_alpha                90
_cell_angle_beta                 108.141(2)
_cell_angle_gamma                90
_cell_volume                     3108.28
_cell_formula_units_Z            2
loop_
_atom_site_label
_atom_site_type_symbol
_atom_site_fract_x
_atom_site_fract_y
_atom_site_fract_z
S1 S 0.92996(6) 0.02661(4) 0.25525(13)
N1 N 0.71163(16) 0.06512(8) -0.5471(3)
B1 B 0.6788(2) 0.12253(11) -0.6213(4)
C1 C 0.6389(2) 0.10463(11) -0.8071(3)
C2 C 0.5887(2) 0.13070(14) -0.9463(4)
H1 H 0.5746 0.1652 -0.9404
C3 C 0.5590(3) 0.10639(19) -1.0941(4)
H2 H 0.5264 0.1248 -1.1889
C4 C 0.5761(3) 0.0558(2) -1.1054(5)
H3 H 0.5559 0.0399 -1.2075
C5 C 0.6218(3) 0.02876(16) -0.9705(5)
H4 H 0.6325 -0.0061 -0.9772
C6 C 0.6528(2) 0.05334(12) -0.8217(4)
C7 C 0.6987(2) 0.03059(11) -0.6661(4)
C8 C 0.7280(3) -0.01874(12) -0.6278(5)
H5 H 0.7184 -0.0429 -0.7109
C9 C 0.7706(3) -0.03255(12) -0.4705(6)
H6 H 0.7911 -0.0661 -0.4442
C10 C 0.7837(2) 0.00296(12) -0.3492(5)
C11 C 0.7538(2) 0.05159(11) -0.3944(4)
H7 H 0.7638 0.0763 -0.3130
C12 C 0.8275(2) -0.00823(13) -0.1818(5)
C13 C 0.8663(2) -0.01662(13) -0.0426(6)
C14 C 0.9113(2) -0.02394(13) 0.1256(5)
C15 C 0.9472(3) -0.06713(14) 0.2083(5)
H8 H 0.9447 -0.0988 0.1585
C16 C 0.9879(2) -0.05930(14) 0.3739(5)
H9 H 1.0161 -0.0855 0.4475
C17 C 0.9837(2) -0.01093(13) 0.4211(4)
C18 C 0.78624(19) 0.15307(9) -0.5490(3)
C19 C 0.8534(2) 0.16265(9) -0.6392(3)
C20 C 0.9465(2) 0.18548(10) -0.5672(4)
H10 H 0.9898 0.1909 -0.6304
C21 C 0.9783(2) 0.20049(11) -0.4088(4)
C22 C 0.9132(2) 0.19226(10) -0.3212(4)
H11 H 0.9329 0.2025 -0.2118
C23 C 0.8190(2) 0.16945(10) -0.3872(3)
C24 C 0.7570(2) 0.16703(12) -0.2731(3)
H12 H 0.7965 0.1509 -0.1727
H13 H 0.6956 0.1477 -0.3226
H14 H 0.7389 0.2009 -0.2502
C25 C 1.0787(2) 0.22569(15) -0.3349(5)
H15 H 1.1312 0.2072 -0.3637
H16 H 1.0947 0.2262 -0.2176
H17 H 1.0756 0.2600 -0.3752
C26 C 0.8290(2) 0.15220(11) -0.8175(3)
H18 H 0.8893 0.1576 -0.8500
H19 H 0.7753 0.1747 -0.8783
H20 H 0.8065 0.1175 -0.8396
C27 C 0.58017(19) 0.14603(9) -0.5817(3)
C28 C 0.5627(2) 0.19832(10) -0.5947(3)
C29 C 0.4802(2) 0.21971(10) -0.5629(3)
H21 H 0.4714 0.2549 -0.5729
C30 C 0.4105(2) 0.19166(10) -0.5173(3)
C31 C 0.4231(2) 0.14038(10) -0.5138(3)
H22 H 0.3752 0.1200 -0.4863
C32 C 0.5038(2) 0.11737(10) -0.5491(3)
C33 C 0.6314(2) 0.23419(10) -0.6449(4)
H23 H 0.5936 0.2643 -0.6911
H24 H 0.6568 0.2182 -0.7253
H25 H 0.6882 0.2433 -0.5507
C34 C 0.3228(2) 0.21575(13) -0.4783(4)
H26 H 0.2956 0.2430 -0.5543
H27 H 0.3460 0.2291 -0.3686
H28 H 0.2702 0.1908 -0.4866
C35 C 0.5001(2) 0.06098(10) -0.5584(4)
H29 H 0.4353 0.0492 -0.5505
H30 H 0.5550 0.0470 -0.4697
H31 H 0.5075 0.0501 -0.6611
S1B S 1.07004(6) -0.02661(4) 0.74475(13)
N1B N 1.28837(16) -0.06512(8) 1.5471(3)
B1B B 1.3212(2) -0.12253(11) 1.6213(4)
C1B C 1.3611(2) -0.10463(11) 1.8071(3)
C2B C 1.4113(2) -0.13070(14) 1.9463(4)
H1B H 1.4254 -0.1652 1.9404
C3B C 1.4410(3) -0.10639(19) 2.0941(4)
H2B H 1.4736 -0.1248 2.1889
C4B C 1.4239(3) -0.0558(2) 2.1054(5)
H3B H 1.4441 -0.0399 2.2075
C5B C 1.3782(3) -0.02876(16) 1.9705(5)
H4B H 1.3675 0.0061 1.9772
C6B C 1.3472(2) -0.05334(12) 1.8217(4)
C7B C 1.3013(2) -0.03059(11) 1.6661(4)
C8B C 1.2720(3) 0.01874(12) 1.6278(5)
H5B H 1.2816 0.0429 1.7109
C9B C 1.2294(3) 0.03255(12) 1.4705(6)
H6B H 1.2089 0.0661 1.4442
C10B C 1.2163(2) -0.00296(12) 1.3492(5)
C11B C 1.2462(2) -0.05159(11) 1.3944(4)
H7B H 1.2362 -0.0763 1.3130
C12B C 1.1725(2) 0.00823(13) 1.1818(5)
C13B C 1.1337(2) 0.01662(13) 1.0426(6)
C14B C 1.0887(2) 0.02394(13) 0.8744(5)
C15B C 1.0528(3) 0.06713(14) 0.7917(5)
H8B H 1.0553 0.0988 0.8415
C16B C 1.0121(2) 0.05930(14) 0.6261(5)
H9B H 0.9839 0.0855 0.5525
C17B C 1.0163(2) 0.01093(13) 0.5789(4)
C18B C 1.21376(19) -0.15307(9) 1.5490(3)
C19B C 1.1466(2) -0.16265(9) 1.6392(3)
C20B C 1.0535(2) -0.18548(10) 1.5672(4)
H10B H 1.0102 -0.1909 1.6304
C21B C 1.0217(2) -0.20049(11) 1.4088(4)
C22B C 1.0868(2) -0.19226(10) 1.3212(4)
H11B H 1.0671 -0.2025 1.2118
C23B C 1.1810(2) -0.16945(10) 1.3872(3)
C24B C 1.2430(2) -0.16703(12) 1.2731(3)
H12B H 1.2035 -0.1509 1.1727
H13B H 1.3044 -0.1477 1.3226
H14B H 1.2611 -0.2009 1.2502
C25B C 0.9213(2) -0.22569(15) 1.3349(5)
H15B H 0.8688 -0.2072 1.3637
H16B H 0.9053 -0.2262 1.2176
H17B H 0.9244 -0.2600 1.3752
C26B C 1.1710(2) -0.15220(11) 1.8175(3)
H18B H 1.1107 -0.1576 1.8500
H19B H 1.2247 -0.1747 1.8783
H20B H 1.1935 -0.1175 1.8396
C27B C 1.41983(19) -0.14603(9) 1.5817(3)
C28B C 1.4373(2) -0.19832(10) 1.5947(3)
C29B C 1.5198(2) -0.21971(10) 1.5629(3)
H21B H 1.5286 -0.2549 1.5729
C30B C 1.5895(2) -0.19166(10) 1.5173(3)
C31B C 1.5769(2) -0.14038(10) 1.5138(3)
H22B H 1.6248 -0.1200 1.4863
C32B C 1.4962(2) -0.11737(10) 1.5491(3)
C33B C 1.3686(2) -0.23419(10) 1.6449(4)
H23B H 1.4064 -0.2643 1.6911
H24B H 1.3432 -0.2182 1.7253
H25B H 1.3118 -0.2433 1.5507
C34B C 1.6772(2) -0.21575(13) 1.4783(4)
H26B H 1.7044 -0.2430 1.5543
H27B H 1.6540 -0.2291 1.3686
H28B H 1.7298 -0.1908 1.4866
C35B C 1.4999(2) -0.06098(10) 1.5584(4)
H29B H 1.5647 -0.0492 1.5505
H30B H 1.4450 -0.0470 1.4697
H31B H 1.4925 -0.0501 1.6611
Cl1 Cl 1.69479(8) -0.13891(4) 2.11915(12)
Cl2 Cl 1.79305(9) -0.15448(4) 1.87537(14)
C36 C 1.6873(3) -0.13126(16) 1.9179(5)
H32 H 1.6799 -0.0953 1.8907
H33 H 1.6264 -0.1486 1.8494
loop_
_geom_bond_atom_site_label_1
_geom_bond_atom_site_label_2
_geom_bond_site_symmetry_1
_geom_bond_site_symmetry_2
S1 C14 1_555 1_555
N1 B1 1_555 1_555
B1 C1 1_555 1_555
Cl1 C36 1_555 1_555
Cl2 C36 1_555 1_555
C1 C2 1_555 1_555
C2 H1 1_555 1_555
C3 C2 1_555 1_555
H2 C3 1_555 1_555
C4 C3 1_555 1_555
H3 C4 1_555 1_555
C5 C4 1_555 1_555
H4 C5 1_555 1_555
C6 C1 1_555 1_555
C7 N1 1_555 1_555
C8 C7 1_555 1_555
H5 C8 1_555 1_555
C9 C8 1_555 1_555
H6 C9 1_555 1_555
C10 C9 1_555 1_555
C11 N1 1_555 1_555
H7 C11 1_555 1_555
C12 C10 1_555 1_555
C13 C12 1_555 1_555
C14 C13 1_555 1_555
C15 C14 1_555 1_555
H8 C15 1_555 1_555
C16 C15 1_555 1_555
H9 C16 1_555 1_555
C17 S1 1_555 1_555
C18 B1 1_555 1_555
C19 C18 1_555 1_555
C20 C19 1_555 1_555
H10 C20 1_555 1_555
C21 C20 1_555 1_555
C22 C21 1_555 1_555
H11 C22 1_555 1_555
C23 C18 1_555 1_555
C24 C23 1_555 1_555
H12 C24 1_555 1_555
H13 C24 1_555 1_555
H14 C24 1_555 1_555
C25 C21 1_555 1_555
H15 C25 1_555 1_555
H16 C25 1_555 1_555
H17 C25 1_555 1_555
C26 C19 1_555 1_555
H18 C26 1_555 1_555
H19 C26 1_555 1_555
H20 C26 1_555 1_555
C27 B1 1_555 1_555
C28 C27 1_555 1_555
C29 C28 1_555 1_555
H21 C29 1_555 1_555
C30 C29 1_555 1_555
C31 C30 1_555 1_555
H22 C31 1_555 1_555
C32 C27 1_555 1_555
C33 C28 1_555 1_555
H23 C33 1_555 1_555
H24 C33 1_555 1_555
H25 C33 1_555 1_555
C34 C30 1_555 1_555
H26 C34 1_555 1_555
H27 C34 1_555 1_555
H28 C34 1_555 1_555
C35 C32 1_555 1_555
H29 C35 1_555 1_555
H30 C35 1_555 1_555
H31 C35 1_555 1_555
C36 H32 1_555 1_555
H33 C36 1_555 1_555
S1B C14B 1_555 1_555
N1B B1B 1_555 1_555
B1B C1B 1_555 1_555
C1B C2B 1_555 1_555
C2B H1B 1_555 1_555
C3B C2B 1_555 1_555
H2B C3B 1_555 1_555
C4B C3B 1_555 1_555
H3B C4B 1_555 1_555
C5B C4B 1_555 1_555
H4B C5B 1_555 1_555
C6B C1B 1_555 1_555
C7B N1B 1_555 1_555
C8B C7B 1_555 1_555
H5B C8B 1_555 1_555
C9B C8B 1_555 1_555
H6B C9B 1_555 1_555
C10B C9B 1_555 1_555
C11B N1B 1_555 1_555
H7B C11B 1_555 1_555
C12B C10B 1_555 1_555
C13B C12B 1_555 1_555
C14B C13B 1_555 1_555
C15B C14B 1_555 1_555
H8B C15B 1_555 1_555
C16B C15B 1_555 1_555
H9B C16B 1_555 1_555
C17B C17 1_555 1_555
C18B B1B 1_555 1_555
C19B C18B 1_555 1_555
C20B C19B 1_555 1_555
H10B C20B 1_555 1_555
C21B C20B 1_555 1_555
C22B C21B 1_555 1_555
H11B C22B 1_555 1_555
C23B C18B 1_555 1_555
C24B C23B 1_555 1_555
H12B C24B 1_555 1_555
H13B C24B 1_555 1_555
H14B C24B 1_555 1_555
C25B C21B 1_555 1_555
H15B C25B 1_555 1_555
H16B C25B 1_555 1_555
H17B C25B 1_555 1_555
C26B C19B 1_555 1_555
H18B C26B 1_555 1_555
H19B C26B 1_555 1_555
H20B C26B 1_555 1_555
C27B B1B 1_555 1_555
C28B C27B 1_555 1_555
C29B C28B 1_555 1_555
H21B C29B 1_555 1_555
C30B C29B 1_555 1_555
C31B C30B 1_555 1_555
H22B C31B 1_555 1_555
C32B C27B 1_555 1_555
C33B C28B 1_555 1_555
H23B C33B 1_555 1_555
H24B C33B 1_555 1_555
H25B C33B 1_555 1_555
C34B C30B 1_555 1_555
H26B C34B 1_555 1_555
H27B C34B 1_555 1_555
H28B C34B 1_555 1_555
C35B C32B 1_555 1_555
H29B C35B 1_555 1_555
H30B C35B 1_555 1_555
H31B C35B 1_555 1_555
C5 C6 1_555 1_555
C6 C7 1_555 1_555
C10 C11 1_555 1_555
C16 C17 1_555 1_555
C22 C23 1_555 1_555
C31 C32 1_555 1_555
S1B C17B 1_555 1_555
C5B C6B 1_555 1_555
C6B C7B 1_555 1_555
C10B C11B 1_555 1_555
C16B C17B 1_555 1_555
C22B C23B 1_555 1_555
C31B C32B 1_555 1_555

#END
