
#######################################################################
#
#                 Cambridge Crystallographic Data Centre
#                                CCDC 
#
#######################################################################
#
# If this CIF has been generated from an entry in the Cambridge 
# Structural Database, then it will include bibliographic, chemical, 
# crystal, experimental, refinement or atomic coordinate data resulting 
# from the CCDC's data processing and validation procedures.
#
#######################################################################

data_XERCAB
_chemical_formula_moiety         '2(C14 H11 N1 O1),C10 H2 N4'
_chemical_name_systematic        
'benzene-1,2,4,5-tetracarbonitrile bis(1-(9H-carbazol-9-yl)ethan-1-one)'
_symmetry_cell_setting           monoclinic
_symmetry_space_group_name_H-M   'P 21/n'
_symmetry_Int_Tables_number      14
_space_group_name_Hall           '-P 2yn'
loop_
_symmetry_equiv_pos_site_id
_symmetry_equiv_pos_as_xyz
1 x,y,z
2 1/2-x,1/2+y,1/2-z
3 -x,-y,-z
4 1/2+x,1/2-y,1/2+z
_cell_length_a                   10.619(2)
_cell_length_b                   6.0200(12)
_cell_length_c                   24.732(5)
_cell_angle_alpha                90
_cell_angle_beta                 102.33(3)
_cell_angle_gamma                90
_cell_volume                     1544.56
_exptl_crystal_colour            yellow
_exptl_crystal_description       'rod like'
_cell_formula_units_Z            2
loop_
_atom_site_label
_atom_site_type_symbol
_atom_site_fract_x
_atom_site_fract_y
_atom_site_fract_z
O1 O 0.4869(3) 0.9283(5) 0.61534(12)
N1 N 0.4341(3) 0.6746(5) 0.67353(11)
C1 C 0.4532(3) 0.5384(6) 0.72139(15)
C2 C 0.5293(3) 0.5639(7) 0.77346(15)
H1 H 0.5825 0.6873 0.7820
C3 C 0.5253(4) 0.4033(10) 0.81267(18)
H2 H 0.5771 0.4194 0.8479
C4 C 0.4461(5) 0.2172(10) 0.8013(2)
H3 H 0.4463 0.1099 0.8283
C5 C 0.3672(4) 0.1936(8) 0.7496(2)
H4 H 0.3124 0.0720 0.7416
C6 C 0.3710(3) 0.3552(7) 0.70938(17)
C7 C 0.2961(3) 0.3778(7) 0.65413(17)
C8 C 0.1975(4) 0.2500(8) 0.6226(2)
H5 H 0.1725 0.1168 0.6362
C9 C 0.1387(5) 0.3254(12) 0.5714(3)
H6 H 0.0744 0.2402 0.5495
C10 C 0.1731(5) 0.5268(12) 0.5515(2)
H7 H 0.1287 0.5765 0.5171
C11 C 0.2714(4) 0.6559(8) 0.58145(17)
H8 H 0.2953 0.7893 0.5675
C12 C 0.3330(3) 0.5777(7) 0.63327(15)
C13 C 0.5122(4) 0.8451(7) 0.66117(17)
C14 C 0.6272(3) 0.9173(7) 0.70312(15)
H9 H 0.6318 0.8342 0.7366
H10 H 0.7036 0.8914 0.6892
H11 H 0.6202 1.0728 0.7106
N2 N 0.7432(4) 0.4407(7) 0.64435(14)
N3 N 0.2346(4) 0.0349(7) 0.45486(15)
C15 C 0.6745(4) 0.4582(7) 0.60290(17)
C16 C 0.5854(4) 0.4804(7) 0.55019(14)
C17 C 0.4927(4) 0.3189(7) 0.53425(15)
H12 H 0.4882 0.1976 0.5571
C18 C 0.4061(4) 0.3394(7) 0.48373(15)
C19 C 0.3088(5) 0.1706(8) 0.46730(15)
N2B N 0.2568(4) 0.5593(7) 0.35565(14)
N3B N 0.7654(4) 0.9651(7) 0.54514(15)
C15B C 0.3255(4) 0.5418(7) 0.39710(17)
C16B C 0.4146(4) 0.5196(7) 0.44981(14)
C17B C 0.5073(4) 0.6811(7) 0.46575(15)
H12B H 0.5118 0.8024 0.4429
C18B C 0.5939(4) 0.6606(7) 0.51627(15)
C19B C 0.6912(5) 0.8294(8) 0.53270(15)
loop_
_geom_bond_atom_site_label_1
_geom_bond_atom_site_label_2
_geom_bond_site_symmetry_1
_geom_bond_site_symmetry_2
O1 C13 1_555 1_555
N1 C1 1_555 1_555
C1 C2 1_555 1_555
C2 H1 1_555 1_555
C3 C2 1_555 1_555
H2 C3 1_555 1_555
C4 C3 1_555 1_555
H3 C4 1_555 1_555
C5 C4 1_555 1_555
H4 C5 1_555 1_555
C6 C1 1_555 1_555
C7 C6 1_555 1_555
C8 C7 1_555 1_555
H5 C8 1_555 1_555
C9 C8 1_555 1_555
H6 C9 1_555 1_555
C10 C9 1_555 1_555
H7 C10 1_555 1_555
C11 C10 1_555 1_555
H8 C11 1_555 1_555
C12 N1 1_555 1_555
C13 N1 1_555 1_555
C14 C13 1_555 1_555
H9 C14 1_555 1_555
H10 C14 1_555 1_555
H11 C14 1_555 1_555
N2 C15 1_555 1_555
N3 C19 1_555 1_555
C15 C16 1_555 1_555
C16 C17 1_555 1_555
C17 H12 1_555 1_555
C18 C17 1_555 1_555
C19 C18 1_555 1_555
N2B C15B 1_555 1_555
N3B C19B 1_555 1_555
C15B C16B 1_555 1_555
C16B C18 1_555 1_555
C17B C16B 1_555 1_555
H12B C17B 1_555 1_555
C18B C16 1_555 1_555
C19B C18B 1_555 1_555
C5 C6 1_555 1_555
C7 C12 1_555 1_555
C11 C12 1_555 1_555
C17B C18B 1_555 1_555

#END
