
#######################################################################
#
#                 Cambridge Crystallographic Data Centre
#                                CCDC 
#
#######################################################################
#
# If this CIF has been generated from an entry in the Cambridge 
# Structural Database, then it will include bibliographic, chemical, 
# crystal, experimental, refinement or atomic coordinate data resulting 
# from the CCDC's data processing and validation procedures.
#
#######################################################################

data_XERRIV
_chemical_formula_moiety         'C20 H29 N1 O3 Si1'
_chemical_name_systematic        
(3R,6S,8R)-9-Aza-3-methyl-6-(1-methylethenyl)-1-phenyl-1-sila-2,12,13-trioxatetracyclo(7.3.3.0^1,9^.0^3,8^)pentadecane
_symmetry_cell_setting           orthorhombic
_symmetry_space_group_name_H-M   'P 21 21 21'
_symmetry_Int_Tables_number      19
_space_group_name_Hall           'P 2ac 2ab'
loop_
_symmetry_equiv_pos_site_id
_symmetry_equiv_pos_as_xyz
1 x,y,z
2 1/2-x,-y,1/2+z
3 1/2+x,1/2-y,-z
4 -x,1/2+y,1/2-z
_cell_length_a                   7.3171(1)
_cell_length_b                   11.4650(2)
_cell_length_c                   23.1197(3)
_cell_angle_alpha                90
_cell_angle_beta                 90
_cell_angle_gamma                90
_cell_volume                     1939.52
_exptl_crystal_colour            yellow
_exptl_crystal_description       parallelepiped
_chemical_melting_point          144-145deg.C
_cell_formula_units_Z            4
loop_
_atom_site_label
_atom_site_type_symbol
_atom_site_fract_x
_atom_site_fract_y
_atom_site_fract_z
Si1 Si 0.34354(5) 0.01141(3) 0.27858(1)
O1 O 0.28723(15) -0.09817(8) 0.23510(4)
O2 O 0.56183(14) 0.02913(10) 0.29391(5)
O3 O 0.20480(16) 0.12533(9) 0.28131(5)
N1 N 0.42837(18) 0.09674(9) 0.19559(5)
C1 C 0.2666(2) -0.08420(14) 0.17368(6)
C2 C 0.4186(2) -0.00197(12) 0.15451(6)
C3 C 0.6969(2) 0.05576(15) 0.25166(8)
C4 C 0.6163(2) 0.13662(14) 0.20747(8)
C5 C 0.2321(3) 0.22662(15) 0.24721(9)
C6 C 0.2988(3) 0.19330(15) 0.18730(8)
C7 C 0.3034(3) -0.20050(14) 0.14341(6)
C8 C 0.3106(3) -0.18334(19) 0.07733(7)
C9 C 0.4418(2) -0.08919(16) 0.05584(6)
C10 C 0.4127(3) 0.02552(15) 0.08996(6)
C11 C 0.0710(3) -0.0444(2) 0.16256(8)
C12 C 0.6424(3) -0.12353(16) 0.05351(7)
C13 C 0.7103(4) -0.2214(2) 0.07293(10)
C14 C 0.7670(4) -0.0398(3) 0.02346(13)
C15 C 0.2735(2) -0.05876(12) 0.34915(6)
C16 C 0.3940(3) -0.07412(18) 0.39518(7)
C17 C 0.0971(3) -0.0989(2) 0.35742(8)
C18 C 0.3410(4) -0.1280(2) 0.44598(8)
C19 C 0.0451(4) -0.1538(3) 0.40865(9)
C20 C 0.1661(5) -0.1688(2) 0.45215(8)
H1 H 0.531(2) -0.0462(12) 0.1624(6)
H2 H 0.740(3) -0.0229(17) 0.2334(9)
H3 H 0.799(2) 0.0950(14) 0.2703(7)
H4 H 0.611(2) 0.2144(17) 0.2225(8)
H5 H 0.686(3) 0.1404(16) 0.1725(9)
H6 H 0.323(3) 0.280(2) 0.2661(9)
H7 H 0.112(3) 0.2638(16) 0.2411(7)
H8 H 0.203(3) 0.1659(16) 0.1627(8)
H9 H 0.360(4) 0.256(2) 0.1644(10)
H10 H 0.204(3) -0.2507(18) 0.1540(8)
H11 H 0.421(3) -0.2329(14) 0.1561(7)
H12 H 0.351(3) -0.263(2) 0.0627(9)
H13 H 0.188(3) -0.159(2) 0.0617(11)
H14 H 0.404(2) -0.0757(17) 0.0145(8)
H15 H 0.503(3) 0.0833(17) 0.0803(8)
H16 H 0.296(3) 0.0642(16) 0.0806(8)
H17 H 0.033(3) 0.024(2) 0.1881(11)
H18 H 0.011(3) -0.114(2) 0.1674(10)
H19 H 0.045(3) -0.0155(18) 0.1224(10)
H20 H 0.649(3) -0.2683(19) 0.0911(9)
H21 H 0.840(4) -0.237(2) 0.0697(9)
H22 H 0.711(3) -0.025(2) -0.0075(12)
H23 H 0.906(5) -0.070(3) 0.0192(13)
H24 H 0.769(4) 0.029(3) 0.0446(16)
H25 H 0.521(4) -0.047(3) 0.3881(14)
H26 H 0.002(3) -0.0813(19) 0.3258(10)
H27 H 0.410(5) -0.131(3) 0.4790(14)
H28 H -0.068(4) -0.173(2) 0.4116(10)
H29 H 0.136(4) -0.2032(18) 0.4893(11)
loop_
_geom_bond_atom_site_label_1
_geom_bond_atom_site_label_2
_geom_bond_site_symmetry_1
_geom_bond_site_symmetry_2
Si1 O1 1_555 1_555
O1 C1 1_555 1_555
O2 Si1 1_555 1_555
O3 Si1 1_555 1_555
N1 Si1 1_555 1_555
C1 C2 1_555 1_555
C2 N1 1_555 1_555
C3 O2 1_555 1_555
C4 N1 1_555 1_555
C5 O3 1_555 1_555
C6 N1 1_555 1_555
C7 C1 1_555 1_555
C8 C7 1_555 1_555
C9 C8 1_555 1_555
C10 C2 1_555 1_555
C11 C1 1_555 1_555
C12 C9 1_555 1_555
C13 C12 1_555 1_555
C14 C12 1_555 1_555
C15 Si1 1_555 1_555
C16 C15 1_555 1_555
C17 C15 1_555 1_555
C18 C16 1_555 1_555
C19 C17 1_555 1_555
C20 C18 1_555 1_555
H1 C2 1_555 1_555
H2 C3 1_555 1_555
H3 C3 1_555 1_555
H4 C4 1_555 1_555
H5 C4 1_555 1_555
H6 C5 1_555 1_555
H7 C5 1_555 1_555
H8 C6 1_555 1_555
H9 C6 1_555 1_555
H10 C7 1_555 1_555
H11 C7 1_555 1_555
H12 C8 1_555 1_555
H13 C8 1_555 1_555
H14 C9 1_555 1_555
H15 C10 1_555 1_555
H16 C10 1_555 1_555
H17 C11 1_555 1_555
H18 C11 1_555 1_555
H19 C11 1_555 1_555
H20 C13 1_555 1_555
H21 C13 1_555 1_555
H22 C14 1_555 1_555
H23 C14 1_555 1_555
H24 C14 1_555 1_555
H25 C16 1_555 1_555
H26 C17 1_555 1_555
H27 C18 1_555 1_555
H28 C19 1_555 1_555
H29 C20 1_555 1_555
C3 C4 1_555 1_555
C5 C6 1_555 1_555
C9 C10 1_555 1_555
C19 C20 1_555 1_555

#END
