
#######################################################################
#
#                 Cambridge Crystallographic Data Centre
#                                CCDC 
#
#######################################################################
#
# If this CIF has been generated from an entry in the Cambridge 
# Structural Database, then it will include bibliographic, chemical, 
# crystal, experimental, refinement or atomic coordinate data resulting 
# from the CCDC's data processing and validation procedures.
#
#######################################################################

data_XESSIX
_chemical_formula_moiety         'C18 H30 N2 O4,4(H2 O1)'
_chemical_name_systematic        
"N,N'-bis(Propargyl)-4,13-diaza-18-crown-6 tetrahydrate"
_symmetry_cell_setting           monoclinic
_symmetry_space_group_name_H-M   'P 21/n'
_symmetry_Int_Tables_number      14
_space_group_name_Hall           '-P 2yn'
loop_
_symmetry_equiv_pos_site_id
_symmetry_equiv_pos_as_xyz
1 x,y,z
2 1/2+x,1/2-y,1/2+z
3 -x,-y,-z
4 1/2-x,1/2+y,1/2-z
_cell_length_a                   7.421(3)
_cell_length_b                   20.441(2)
_cell_length_c                   8.193(1)
_cell_angle_alpha                90
_cell_angle_beta                 112.43(3)
_cell_angle_gamma                90
_cell_volume                     1148.79
_exptl_crystal_colour            colorless
_exptl_crystal_description       prism
_cell_formula_units_Z            2
loop_
_atom_site_label
_atom_site_type_symbol
_atom_site_fract_x
_atom_site_fract_y
_atom_site_fract_z
O1 O 0.6311(1) 0.02162(6) 0.2623(1)
O2 O 0.7117(2) -0.10386(5) 0.4367(1)
N1 N 0.8747(2) 0.13494(6) 0.4064(2)
C1 C 0.6998(3) 0.13465(8) 0.2435(2)
C2 C 0.5509(2) 0.08545(9) 0.2421(2)
C3 C 0.4896(2) -0.0273(1) 0.2445(2)
C4 C 0.5778(3) -0.09339(9) 0.2630(2)
C5 C 0.7808(3) -0.17009(9) 0.4636(2)
C6 C 1.0275(2) 0.17433(8) 0.3851(2)
C7 C 0.8312(2) 0.15411(8) 0.5589(2)
C8 C 0.7505(2) 0.22045(9) 0.5480(2)
C9 C 0.6851(3) 0.27345(9) 0.5282(2)
H5 H 0.7380 0.1255 0.1476
H6 H 0.6420 0.1768 0.2283
H7 H 0.5101 0.0943 0.3366
H8 H 0.4419 0.0881 0.1332
H9 H 0.3874 -0.0237 0.1314
H10 H 0.4382 -0.0214 0.3334
H11 H 0.4776 -0.1254 0.2347
H12 H 0.6435 -0.0973 0.1841
H13 H 0.7952 -0.1854 0.3597
H14 H 0.6887 -0.1966 0.4876
H15 H 0.9865 0.2187 0.3715
H16 H 1.0447 0.1601 0.2816
H17 H 0.9484 0.1519 0.6609
H18 H 0.7392 0.1240 0.5704
H19 H 0.6321 0.3164 0.5122
C5B C 1.2192(3) 0.17009(9) 0.5364(2)
O2B O 1.2883(2) 0.10386(5) 0.5633(1)
C4B C 1.4222(3) 0.09339(9) 0.7370(2)
C3B C 1.5104(2) 0.0273(1) 0.7555(2)
O1B O 1.3689(1) -0.02162(6) 0.7377(1)
C2B C 1.4491(2) -0.08545(9) 0.7579(2)
C1B C 1.3002(3) -0.13465(8) 0.7565(2)
N1B N 1.1253(2) -0.13494(6) 0.5936(2)
C6B C 0.9725(2) -0.17433(8) 0.6149(2)
H15B H 1.0135 -0.2187 0.6285
H16B H 0.9553 -0.1601 0.7184
C7B C 1.1688(2) -0.15411(8) 0.4411(2)
C8B C 1.2495(2) -0.22045(9) 0.4520(2)
C9B C 1.3149(3) -0.27345(9) 0.4718(2)
H19B H 1.3679 -0.3164 0.4878
H17B H 1.0516 -0.1519 0.3391
H18B H 1.2608 -0.1240 0.4296
H5B H 1.2620 -0.1255 0.8524
H6B H 1.3580 -0.1768 0.7717
H7B H 1.4899 -0.0943 0.6634
H8B H 1.5581 -0.0881 0.8668
H9B H 1.6126 0.0237 0.8686
H10B H 1.5618 0.0214 0.6666
H11B H 1.5224 0.1254 0.7653
H12B H 1.3565 0.0973 0.8159
H13B H 1.2048 0.1854 0.6403
H14B H 1.3113 0.1966 0.5124
O3 O 0.5327(2) 0.48915(6) 0.7904(1)
H1 H 0.417(3) 0.4843(9) 0.795(3)
H2 H 0.609(3) 0.4703(9) 0.878(3)
O4 O 0.5026(2) 0.41590(6) 0.4748(2)
H3 H 0.499(3) 0.445(1) 0.388(2)
H4 H 0.514(3) 0.438(1) 0.569(2)
loop_
_geom_bond_atom_site_label_1
_geom_bond_atom_site_label_2
_geom_bond_site_symmetry_1
_geom_bond_site_symmetry_2
O1 C2 1_555 1_555
O2 C4 1_555 1_555
N1 C1 1_555 1_555
C1 C2 1_555 1_555
C2 H7 1_555 1_555
C3 O1 1_555 1_555
C4 C3 1_555 1_555
C5 O2 1_555 1_555
C6 N1 1_555 1_555
C7 N1 1_555 1_555
C8 C7 1_555 1_555
C9 C8 1_555 1_555
O3 H1 1_555 1_555
O4 H3 1_555 1_555
H2 O3 1_555 1_555
H4 O4 1_555 1_555
H5 C1 1_555 1_555
H6 C1 1_555 1_555
H8 C2 1_555 1_555
H9 C3 1_555 1_555
H10 C3 1_555 1_555
H11 C4 1_555 1_555
H12 C4 1_555 1_555
H13 C5 1_555 1_555
H14 C5 1_555 1_555
H15 C6 1_555 1_555
H16 C6 1_555 1_555
H17 C7 1_555 1_555
H18 C7 1_555 1_555
H19 C9 1_555 1_555
C5B C6 1_555 1_555
O2B C5B 1_555 1_555
C4B O2B 1_555 1_555
C3B C4B 1_555 1_555
O1B C3B 1_555 1_555
C2B O1B 1_555 1_555
C1B C2B 1_555 1_555
N1B C1B 1_555 1_555
C6B C5 1_555 1_555
H15B C6B 1_555 1_555
H16B C6B 1_555 1_555
C7B N1B 1_555 1_555
C8B C7B 1_555 1_555
C9B C8B 1_555 1_555
H19B C9B 1_555 1_555
H17B C7B 1_555 1_555
H18B C7B 1_555 1_555
H5B C1B 1_555 1_555
H6B C1B 1_555 1_555
H7B C2B 1_555 1_555
H8B C2B 1_555 1_555
H9B C3B 1_555 1_555
H10B C3B 1_555 1_555
H11B C4B 1_555 1_555
H12B C4B 1_555 1_555
H13B C5B 1_555 1_555
H14B C5B 1_555 1_555
N1B C6B 1_555 1_555

#END
