
#######################################################################
#
#                 Cambridge Crystallographic Data Centre
#                                CCDC 
#
#######################################################################
#
# If this CIF has been generated from an entry in the Cambridge 
# Structural Database, then it will include bibliographic, chemical, 
# crystal, experimental, refinement or atomic coordinate data resulting 
# from the CCDC's data processing and validation procedures.
#
#######################################################################

data_XESVUP
_chemical_formula_moiety         'C9 H7 Br3 N2 O2'
_chemical_name_systematic        
N,2,2-tribromo-1-(4-methylphenyl)-2-nitroethanimine
_symmetry_cell_setting           monoclinic
_symmetry_space_group_name_H-M   'P 21/c'
_symmetry_Int_Tables_number      14
_space_group_name_Hall           '-P 2ybc'
loop_
_symmetry_equiv_pos_site_id
_symmetry_equiv_pos_as_xyz
1 x,y,z
2 -x,1/2+y,1/2-z
3 -x,-y,-z
4 x,1/2-y,1/2+z
_cell_length_a                   7.8301(8)
_cell_length_b                   13.0039(13)
_cell_length_c                   12.2207(13)
_cell_angle_alpha                90
_cell_angle_beta                 99.669(2)
_cell_angle_gamma                90
_cell_volume                     1226.66
_cell_formula_units_Z            4
loop_
_atom_site_label
_atom_site_type_symbol
_atom_site_fract_x
_atom_site_fract_y
_atom_site_fract_z
Br1 Br 0.4293(2) 0.14606(11) 0.00591(13)
Br2 Br 0.0272(2) 0.21915(12) 0.30690(13)
Br3 Br -0.0923(3) 0.00993(15) 0.18767(16)
C1 C 0.3314(18) 0.0801(11) 0.2246(11)
C2 C 0.452(2) 0.1420(11) 0.2938(13)
N1 N 0.2091(16) 0.1611(8) 0.0490(10)
C3 C 0.1950(17) 0.1257(10) 0.1429(11)
N2 N -0.0966(19) 0.2023(10) 0.0775(12)
C4 C 0.604(2) -0.0078(11) 0.3818(12)
C5 C 0.348(2) -0.0298(12) 0.2397(13)
O1 O -0.174(2) 0.1507(10) -0.0019(12)
C6 C 0.484(2) -0.0675(13) 0.3189(14)
O2 O -0.102(2) 0.2919(10) 0.0814(12)
C7 C 0.743(3) -0.0525(14) 0.4627(16)
C8 C 0.583(2) 0.0978(12) 0.3674(13)
C9 C 0.009(3) 0.144(2) 0.175(2)
C10? C 0.034(7) 0.130(4) 0.166(5)
loop_
_geom_bond_atom_site_label_1
_geom_bond_atom_site_label_2
_geom_bond_site_symmetry_1
_geom_bond_site_symmetry_2
Br1 N1 1_555 1_555
Br2 C9 1_555 1_555
Br3 C9 1_555 1_555
C1 C2 1_555 1_555
C2 C8 1_555 1_555
N1 C3 1_555 1_555
C3 C1 1_555 1_555
N2 O1 1_555 1_555
C4 C6 1_555 1_555
C5 C1 1_555 1_555
C6 C5 1_555 1_555
O2 N2 1_555 1_555
C7 C4 1_555 1_555
C8 C4 1_555 1_555
C9 C3 1_555 1_555
N2 C9 1_555 1_555

#END
