
#######################################################################
#
#                 Cambridge Crystallographic Data Centre
#                                CCDC 
#
#######################################################################
#
# If this CIF has been generated from an entry in the Cambridge 
# Structural Database, then it will include bibliographic, chemical, 
# crystal, experimental, refinement or atomic coordinate data resulting 
# from the CCDC's data processing and validation procedures.
#
#######################################################################

data_XETSIB
_chemical_name_common            
'4(24),6(10),12(16),18(22)-tetra(3,6-dioxopentacyclo[6.6.6.0$2,7!.0$9,14!.0$15,20!]icosa-2(7),4,9,11,13,15,17,19-octaene-4,5-bis(olato))-2,8,14,20-tetraheptylresorcin[4]arene N,N-dimethylformamide acetonitrile solvate'
_chemical_formula_moiety         'C132 H104 O16,6(C3 H7 N1 O1),4(C2 H3 N1)'
_chemical_name_systematic        
'4(24),6(10),12(16),18(22)-tetra(14,15-dioxy-9,10-dihydro-9,10-[1,2]benzenoanthracene-13,16-dione)-2,8,14,20-tetraheptylresorcin[4]arene N,N-dimethylformamide acetonitrile solvate'
_symmetry_cell_setting           monoclinic
_symmetry_space_group_name_H-M   'C 2/c'
_symmetry_Int_Tables_number      15
_space_group_name_Hall           '-C 2yn'
loop_
_symmetry_equiv_pos_site_id
_symmetry_equiv_pos_as_xyz
1 x,y,z
2 -x,y,1/2-z
3 1/2+x,1/2+y,z
4 1/2-x,1/2+y,1/2-z
5 -x,-y,-z
6 x,-y,1/2+z
7 1/2-x,1/2-y,-z
8 1/2+x,1/2-y,1/2+z
_cell_length_a                   39.2760(15)
_cell_length_b                   11.7320(5)
_cell_length_c                   30.4229(12)
_cell_angle_alpha                90
_cell_angle_beta                 102.706(4)
_cell_angle_gamma                90
_cell_volume                     13675.2
_exptl_crystal_colour            'dark orange'
_exptl_crystal_description       plate
_cell_formula_units_Z            4
_chemical_properties_physical    Heat-sensitive
loop_
_atom_site_label
_atom_site_type_symbol
_atom_site_fract_x
_atom_site_fract_y
_atom_site_fract_z
O1 O 0.59863(6) 0.5735(2) 0.41063(8)
O2 O 0.57116(6) 0.4689(2) 0.32183(8)
O3 O 0.48131(6) 0.5781(2) 0.42679(8)
O4 O 0.46373(6) 0.4707(2) 0.33738(8)
O5 O 0.61315(7) 0.3107(2) 0.29620(9)
O6 O 0.43847(7) 0.5482(2) 0.48054(9)
O7 O 0.66056(7) 0.5142(3) 0.45382(10)
O8 O 0.40590(8) 0.3374(3) 0.32188(9)
C1 C 0.53924(9) 0.5744(3) 0.41602(11)
H1 H 0.5453 0.5288 0.4416
C2 C 0.56392(9) 0.6079(3) 0.39270(12)
C3 C 0.50549(9) 0.6101(3) 0.40061(11)
C4 C 0.43419(8) 0.7077(3) 0.25849(11)
H2 H 0.4309 0.7862 0.2587
C5 C 0.61511(9) 0.4984(3) 0.38879(12)
C6 C 0.55599(8) 0.6786(3) 0.35536(11)
C7 C 0.43009(9) 0.5027(3) 0.44377(12)
C8 C 0.44965(9) 0.5342(3) 0.29819(11)
C9 C 0.45305(9) 0.5144(3) 0.40997(12)
C10 C 0.52135(8) 0.7114(3) 0.34132(11)
H3 H 0.5153 0.7568 0.3157
C11 C 0.43189(8) 0.5327(3) 0.21828(11)
C12 C 0.44600(8) 0.6514(3) 0.29949(11)
C13 C 0.60396(9) 0.4502(3) 0.34809(12)
C14 C 0.42709(8) 0.6499(3) 0.21699(11)
C15 C 0.65028(10) 0.4696(3) 0.41704(13)
C16 C 0.58505(9) 0.8423(3) 0.32466(12)
H4 H 0.5624 0.8725 0.3100
H5 H 0.6014 0.8611 0.3061
C17 C 0.44341(9) 0.4648(3) 0.36881(12)
C18 C 0.62490(9) 0.3612(3) 0.33140(13)
C19 C 0.44270(9) 0.4737(3) 0.25799(11)
H6 H 0.4453 0.3950 0.2579
C20 C 0.49531(9) 0.6807(3) 0.36308(11)
C21 C 0.58252(8) 0.7133(3) 0.32816(11)
H7 H 0.6054 0.6853 0.3442
C22 C 0.45763(8) 0.7161(3) 0.34399(11)
H8 H 0.4436 0.6879 0.3647
C23 C 0.45387(9) 0.8451(3) 0.34187(12)
H9 H 0.4295 0.8649 0.3308
H10 H 0.4670 0.8755 0.3209
C24 C 0.67113(9) 0.3856(3) 0.39967(13)
C25 C 0.41223(10) 0.3917(3) 0.35717(13)
C26 C 0.65913(9) 0.3334(3) 0.36009(13)
C27 C 0.59695(11) 0.8985(3) 0.37088(13)
H11 H 0.5830 0.8690 0.3910
H12 H 0.6211 0.8781 0.3833
C28 C 0.38963(9) 0.3863(4) 0.38987(14)
C29 C 0.39761(9) 0.4383(3) 0.42932(14)
C30 C 0.46715(11) 0.8989(4) 0.38827(14)
H13 H 0.4585 0.8542 0.4103
H14 H 0.4924 0.8936 0.3958
C31 C 0.68967(10) 0.1588(4) 0.38837(16)
C32 C 0.68348(10) 0.2425(4) 0.34863(15)
H15 H 0.6745 0.2057 0.3195
C33 C 0.36713(10) 0.2935(4) 0.46256(15)
C34 C 0.37089(11) 0.2334(4) 0.50252(15)
H16 H 0.3767 0.2704 0.5302
C35 C 0.70250(10) 0.2144(4) 0.42999(16)
C36 C 0.37094(10) 0.4227(4) 0.45875(16)
H17 H 0.3768 0.4626 0.4877
C37 C 0.35909(11) 0.2378(4) 0.42087(15)
C38 C 0.45712(13) 1.0207(4) 0.39265(15)
H18 H 0.4319 1.0264 0.3855
H19 H 0.4657 1.0659 0.3707
C39 C 0.68555(11) 0.0427(4) 0.38600(19)
H20 H 0.6775 0.0061 0.3586
C40 C 0.70696(10) 0.3437(4) 0.42498(15)
H21 H 0.7156 0.3828 0.4537
C41 C 0.35543(11) 0.3190(5) 0.38127(16)
H22 H 0.3501 0.2805 0.3520
C42 C 0.59377(12) 1.0279(4) 0.36908(15)
H23 H 0.6107 1.0591 0.3943
H24 H 0.6002 1.0540 0.3418
C43 C 0.71016(12) 0.1519(5) 0.46933(18)
H25 H 0.7180 0.1877 0.4970
C44 C 0.36575(15) 0.1161(5) 0.50010(18)
H26 H 0.3675 0.0741 0.5264
C45 C 0.70595(14) 0.0333(5) 0.4668(2)
H27 H 0.7115 -0.0100 0.4930
C46 C 0.47109(14) 1.0708(4) 0.43930(17)
H28 H 0.4657 1.0183 0.4615
H29 H 0.4963 1.0755 0.4443
C47 C 0.71838(11) 0.3017(4) 0.35163(17)
C48 C 0.35429(14) 0.1230(5) 0.41908(18)
H30 H 0.3485 0.0859 0.3914
C49 C 0.73087(10) 0.3556(4) 0.39240(17)
C50 C 0.33603(11) 0.4605(5) 0.42786(18)
C51 C 0.69395(13) -0.0192(5) 0.4267(2)
H31 H 0.6912 -0.0979 0.4260
C52 C 0.76305(13) 0.4082(5) 0.4011(2)
H32 H 0.7717 0.4436 0.4286
C53 C 0.35807(16) 0.0617(5) 0.4590(2)
H33 H 0.3554 -0.0171 0.4580
C54 C 0.73767(14) 0.3011(5) 0.3183(2)
H34 H 0.7290 0.2669 0.2906
C55 C 0.32794(12) 0.4058(5) 0.38692(19)
C56 C 0.31298(14) 0.5372(6) 0.4391(2)
H35 H 0.3177 0.5735 0.4670
C57 C 0.45750(18) 1.1854(5) 0.44761(19)
H36 H 0.4629 1.2380 0.4255
H37 H 0.4323 1.1807 0.4428
C58 C 0.78215(17) 0.4074(7) 0.3681(3)
H38 H 0.8036 0.4444 0.3732
C59 C 0.4714(2) 1.2333(6) 0.4932(2)
H39 H 0.4955 1.2532 0.4962
H40 H 0.4694 1.1775 0.5156
H41 H 0.4583 1.3000 0.4973
C60 C 0.76984(17) 0.3522(7) 0.3275(3)
H42 H 0.7836 0.3498 0.3062
C61 C 0.55963(15) 1.0751(5) 0.3701(2)
H43 H 0.5533 1.0519 0.3978
H44 H 0.5424 1.0437 0.3452
C62 C 0.29761(14) 0.4277(8) 0.3562(3)
H45 H 0.2924 0.3890 0.3288
C63 C 0.28190(18) 0.5593(9) 0.4070(3)
H46 H 0.2659 0.6105 0.4142
C64 C 0.55845(16) 1.2031(5) 0.3670(3)
H47 H 0.5632 1.2261 0.3383
H48 H 0.5767 1.2344 0.3907
C65 C 0.5235(2) 1.2530(6) 0.3712(4)
H49 H 0.5060 1.2336 0.3450
H50 H 0.5254 1.3345 0.3738
H51 H 0.5171 1.2225 0.3976
C66 C 0.27470(19) 0.5087(10) 0.3664(3)
H52 H 0.2546 0.5277 0.3453
O1A O 0.40137(6) 0.5735(2) 0.08937(8)
O2A O 0.42884(6) 0.4689(2) 0.17817(8)
O3A O 0.51869(6) 0.5781(2) 0.07321(8)
O4A O 0.53627(6) 0.4707(2) 0.16262(8)
O5A O 0.38685(7) 0.3107(2) 0.20380(9)
O6A O 0.56153(7) 0.5482(2) 0.01946(9)
O7A O 0.33944(7) 0.5142(3) 0.04618(10)
O8A O 0.59410(8) 0.3374(3) 0.17812(9)
C1A C 0.46076(9) 0.5744(3) 0.08398(11)
H1A H 0.4547 0.5288 0.0584
C2A C 0.43608(9) 0.6079(3) 0.10730(12)
C3A C 0.49451(9) 0.6101(3) 0.09939(11)
C4A C 0.56581(8) 0.7077(3) 0.24151(11)
H2A H 0.5691 0.7862 0.2413
C5A C 0.38489(9) 0.4984(3) 0.11121(12)
C6A C 0.44401(8) 0.6786(3) 0.14464(11)
C7A C 0.56991(9) 0.5027(3) 0.05623(12)
C8A C 0.55035(9) 0.5342(3) 0.20181(11)
C9A C 0.54695(9) 0.5144(3) 0.09003(12)
C10A C 0.47865(8) 0.7114(3) 0.15868(11)
H3A H 0.4847 0.7568 0.1843
C11A C 0.56811(8) 0.5327(3) 0.28172(11)
C12A C 0.55400(8) 0.6514(3) 0.20051(11)
C13A C 0.39604(9) 0.4502(3) 0.15191(12)
C14A C 0.57291(8) 0.6499(3) 0.28301(11)
C15A C 0.34972(10) 0.4696(3) 0.08296(13)
C16A C 0.41495(9) 0.8423(3) 0.17534(12)
H4A H 0.4376 0.8725 0.1900
H5A H 0.3986 0.8611 0.1939
C17A C 0.55659(9) 0.4648(3) 0.13119(12)
C18A C 0.37510(9) 0.3612(3) 0.16860(13)
C19A C 0.55730(9) 0.4737(3) 0.24201(11)
H6A H 0.5547 0.3950 0.2421
C20A C 0.50469(9) 0.6807(3) 0.13692(11)
C21A C 0.41748(8) 0.7133(3) 0.17184(11)
H7A H 0.3946 0.6853 0.1558
C22A C 0.54237(8) 0.7161(3) 0.15601(11)
H8A H 0.5564 0.6879 0.1353
C23A C 0.54613(9) 0.8451(3) 0.15813(12)
H9A H 0.5705 0.8649 0.1692
H10A H 0.5330 0.8755 0.1791
C24A C 0.32887(9) 0.3856(3) 0.10033(13)
C25A C 0.58777(10) 0.3917(3) 0.14283(13)
C26A C 0.34087(9) 0.3334(3) 0.13991(13)
C27A C 0.40305(11) 0.8985(3) 0.12912(13)
H11A H 0.4170 0.8690 0.1090
H12A H 0.3789 0.8781 0.1167
C28A C 0.61037(9) 0.3863(4) 0.11013(14)
C29A C 0.60239(9) 0.4383(3) 0.07068(14)
C30A C 0.53285(11) 0.8989(4) 0.11173(14)
H13A H 0.5415 0.8542 0.0897
H14A H 0.5076 0.8936 0.1042
C31A C 0.31033(10) 0.1588(4) 0.11163(16)
C32A C 0.31652(10) 0.2425(4) 0.15137(15)
H15A H 0.3255 0.2057 0.1805
C33A C 0.63287(10) 0.2935(4) 0.03744(15)
C34A C 0.62911(11) 0.2334(4) -0.00252(15)
H16A H 0.6233 0.2704 -0.0302
C35A C 0.29750(10) 0.2144(4) 0.07001(16)
C36A C 0.62906(10) 0.4227(4) 0.04125(16)
H17A H 0.6232 0.4626 0.0123
C37A C 0.64091(11) 0.2378(4) 0.07913(15)
C38A C 0.54288(13) 1.0207(4) 0.10735(15)
H18A H 0.5681 1.0264 0.1145
H19A H 0.5343 1.0659 0.1293
C39A C 0.31445(11) 0.0427(4) 0.11400(19)
H20A H 0.3225 0.0061 0.1414
C40A C 0.29304(10) 0.3437(4) 0.07502(15)
H21A H 0.2844 0.3828 0.0463
C41A C 0.64457(11) 0.3190(5) 0.11873(16)
H22A H 0.6499 0.2805 0.1480
C42A C 0.40623(12) 1.0279(4) 0.13092(15)
H23A H 0.3893 1.0591 0.1057
H24A H 0.3998 1.0540 0.1582
C43A C 0.28984(12) 0.1519(5) 0.03067(18)
H25A H 0.2820 0.1877 0.0030
C44A C 0.63425(15) 0.1161(5) -0.00010(18)
H26A H 0.6325 0.0741 -0.0264
C45A C 0.29405(14) 0.0333(5) 0.0332(2)
H27A H 0.2885 -0.0100 0.0070
C46A C 0.52891(14) 1.0708(4) 0.06070(17)
H28A H 0.5343 1.0183 0.0385
H29A H 0.5037 1.0755 0.0557
C47A C 0.28162(11) 0.3017(4) 0.14837(17)
C48A C 0.64571(14) 0.1230(5) 0.08092(18)
H30A H 0.6515 0.0859 0.1086
C49A C 0.26913(10) 0.3556(4) 0.10760(17)
C50A C 0.66397(11) 0.4605(5) 0.07214(18)
C51A C 0.30605(13) -0.0192(5) 0.0733(2)
H31A H 0.3088 -0.0979 0.0740
C52A C 0.23695(13) 0.4082(5) 0.0989(2)
H32A H 0.2283 0.4436 0.0714
C53A C 0.64193(16) 0.0617(5) 0.0410(2)
H33A H 0.6446 -0.0171 0.0420
C54A C 0.26233(14) 0.3011(5) 0.1817(2)
H34A H 0.2710 0.2669 0.2094
C55A C 0.67206(12) 0.4058(5) 0.11308(19)
C56A C 0.68702(14) 0.5372(6) 0.0609(2)
H35A H 0.6823 0.5735 0.0330
C57A C 0.54250(18) 1.1854(5) 0.05239(19)
H36A H 0.5371 1.2380 0.0745
H37A H 0.5677 1.1807 0.0572
C58A C 0.21785(17) 0.4074(7) 0.1319(3)
H38A H 0.1964 0.4444 0.1268
C59A C 0.5286(2) 1.2333(6) 0.0068(2)
H39A H 0.5045 1.2532 0.0038
H40A H 0.5306 1.1775 -0.0156
H41A H 0.5417 1.3000 0.0027
C60A C 0.23016(17) 0.3522(7) 0.1725(3)
H42A H 0.2164 0.3498 0.1938
C61A C 0.44037(15) 1.0751(5) 0.1299(2)
H43A H 0.4467 1.0519 0.1022
H44A H 0.4576 1.0437 0.1548
C62A C 0.70239(14) 0.4277(8) 0.1438(3)
H45A H 0.7076 0.3890 0.1712
C63A C 0.71810(18) 0.5593(9) 0.0930(3)
H46A H 0.7341 0.6105 0.0858
C64A C 0.44155(16) 1.2031(5) 0.1330(3)
H47A H 0.4368 1.2261 0.1617
H48A H 0.4233 1.2344 0.1093
C65A C 0.4765(2) 1.2530(6) 0.1288(4)
H49A H 0.4940 1.2336 0.1550
H50A H 0.4746 1.3345 0.1262
H51A H 0.4829 1.2225 0.1024
C66A C 0.72530(19) 0.5087(10) 0.1336(3)
H52A H 0.7454 0.5277 0.1547
loop_
_geom_bond_atom_site_label_1
_geom_bond_atom_site_label_2
_geom_bond_site_symmetry_1
_geom_bond_site_symmetry_2
O1 C2 1_555 1_555
O2 C13 1_555 1_555
O3 C3 1_555 1_555
O4 C8 1_555 1_555
O5 C18 1_555 1_555
O6 C7 1_555 1_555
O7 C15 1_555 1_555
O8 C25 1_555 1_555
C1 H1 1_555 1_555
C2 C1 1_555 1_555
C3 C1 1_555 1_555
C4 H2 1_555 1_555
C5 O1 1_555 1_555
C6 C2 1_555 1_555
C7 C9 1_555 1_555
C8 C12 1_555 1_555
C9 O3 1_555 1_555
C10 C6 1_555 1_555
H3 C10 1_555 1_555
C11 C14 1_555 1_555
C12 C4 1_555 1_555
C13 C5 1_555 1_555
C14 C4 1_555 1_555
C15 C5 1_555 1_555
C16 H4 1_555 1_555
H5 C16 1_555 1_555
C17 O4 1_555 1_555
C18 C13 1_555 1_555
C19 C8 1_555 1_555
H6 C19 1_555 1_555
C20 C3 1_555 1_555
C21 C6 1_555 1_555
H7 C21 1_555 1_555
C22 C12 1_555 1_555
H8 C22 1_555 1_555
C23 C22 1_555 1_555
H9 C23 1_555 1_555
H10 C23 1_555 1_555
C24 C15 1_555 1_555
C25 C17 1_555 1_555
C26 C18 1_555 1_555
C27 C16 1_555 1_555
H11 C27 1_555 1_555
H12 C27 1_555 1_555
C28 C25 1_555 1_555
C29 C7 1_555 1_555
C30 C23 1_555 1_555
H13 C30 1_555 1_555
H14 C30 1_555 1_555
C31 C32 1_555 1_555
C32 C26 1_555 1_555
H15 C32 1_555 1_555
C33 C34 1_555 1_555
C34 H16 1_555 1_555
C35 C31 1_555 1_555
C36 C29 1_555 1_555
H17 C36 1_555 1_555
C37 C33 1_555 1_555
C38 C30 1_555 1_555
H18 C38 1_555 1_555
H19 C38 1_555 1_555
C39 C31 1_555 1_555
H20 C39 1_555 1_555
C40 C24 1_555 1_555
H21 C40 1_555 1_555
C41 C28 1_555 1_555
H22 C41 1_555 1_555
C42 C27 1_555 1_555
H23 C42 1_555 1_555
H24 C42 1_555 1_555
C43 C35 1_555 1_555
H25 C43 1_555 1_555
C44 C34 1_555 1_555
H26 C44 1_555 1_555
C45 C43 1_555 1_555
H27 C45 1_555 1_555
C46 C38 1_555 1_555
H28 C46 1_555 1_555
H29 C46 1_555 1_555
C47 C32 1_555 1_555
C48 C37 1_555 1_555
H30 C48 1_555 1_555
C49 C40 1_555 1_555
C50 C36 1_555 1_555
C51 C39 1_555 1_555
H31 C51 1_555 1_555
C52 C49 1_555 1_555
H32 C52 1_555 1_555
C53 C44 1_555 1_555
H33 C53 1_555 1_555
C54 C47 1_555 1_555
H34 C54 1_555 1_555
C55 C41 1_555 1_555
C56 C50 1_555 1_555
H35 C56 1_555 1_555
C57 C46 1_555 1_555
H36 C57 1_555 1_555
H37 C57 1_555 1_555
C58 C52 1_555 1_555
H38 C58 1_555 1_555
C59 C57 1_555 1_555
H39 C59 1_555 1_555
H40 C59 1_555 1_555
H41 C59 1_555 1_555
C60 C54 1_555 1_555
H42 C60 1_555 1_555
C61 C42 1_555 1_555
H43 C61 1_555 1_555
H44 C61 1_555 1_555
C62 C55 1_555 1_555
H45 C62 1_555 1_555
C63 C56 1_555 1_555
H46 C63 1_555 1_555
C64 C61 1_555 1_555
H47 C64 1_555 1_555
H48 C64 1_555 1_555
C65 C64 1_555 1_555
H49 C65 1_555 1_555
H50 C65 1_555 1_555
H51 C65 1_555 1_555
C66 C62 1_555 1_555
H52 C66 1_555 1_555
O1A C2A 1_555 1_555
O2A C11 1_555 1_555
O3A C3A 1_555 1_555
O4A C8A 1_555 1_555
O5A C18A 1_555 1_555
O6A C7A 1_555 1_555
O7A C15A 1_555 1_555
O8A C25A 1_555 1_555
C1A H1A 1_555 1_555
C2A C1A 1_555 1_555
C3A C1A 1_555 1_555
C4A H2A 1_555 1_555
C5A O1A 1_555 1_555
C6A C2A 1_555 1_555
C7A C9A 1_555 1_555
C8A C12A 1_555 1_555
C9A O3A 1_555 1_555
C10A C6A 1_555 1_555
H3A C10A 1_555 1_555
C11A O2 1_555 1_555
C12A C4A 1_555 1_555
C13A O2A 1_555 1_555
C14A C21 1_555 1_555
C15A C5A 1_555 1_555
C16A H4A 1_555 1_555
H5A C16A 1_555 1_555
C17A O4A 1_555 1_555
C18A C13A 1_555 1_555
C19A C8A 1_555 1_555
H6A C19A 1_555 1_555
C20A C3A 1_555 1_555
C21A C14 1_555 1_555
H7A C21A 1_555 1_555
C22A C12A 1_555 1_555
H8A C22A 1_555 1_555
C23A C22A 1_555 1_555
H9A C23A 1_555 1_555
H10A C23A 1_555 1_555
C24A C15A 1_555 1_555
C25A C17A 1_555 1_555
C26A C18A 1_555 1_555
C27A C16A 1_555 1_555
H11A C27A 1_555 1_555
H12A C27A 1_555 1_555
C28A C25A 1_555 1_555
C29A C7A 1_555 1_555
C30A C23A 1_555 1_555
H13A C30A 1_555 1_555
H14A C30A 1_555 1_555
C31A C32A 1_555 1_555
C32A C26A 1_555 1_555
H15A C32A 1_555 1_555
C33A C34A 1_555 1_555
C34A H16A 1_555 1_555
C35A C31A 1_555 1_555
C36A C29A 1_555 1_555
H17A C36A 1_555 1_555
C37A C33A 1_555 1_555
C38A C30A 1_555 1_555
H18A C38A 1_555 1_555
H19A C38A 1_555 1_555
C39A C31A 1_555 1_555
H20A C39A 1_555 1_555
C40A C24A 1_555 1_555
H21A C40A 1_555 1_555
C41A C28A 1_555 1_555
H22A C41A 1_555 1_555
C42A C27A 1_555 1_555
H23A C42A 1_555 1_555
H24A C42A 1_555 1_555
C43A C35A 1_555 1_555
H25A C43A 1_555 1_555
C44A C34A 1_555 1_555
H26A C44A 1_555 1_555
C45A C43A 1_555 1_555
H27A C45A 1_555 1_555
C46A C38A 1_555 1_555
H28A C46A 1_555 1_555
H29A C46A 1_555 1_555
C47A C32A 1_555 1_555
C48A C37A 1_555 1_555
H30A C48A 1_555 1_555
C49A C40A 1_555 1_555
C50A C36A 1_555 1_555
C51A C39A 1_555 1_555
H31A C51A 1_555 1_555
C52A C49A 1_555 1_555
H32A C52A 1_555 1_555
C53A C44A 1_555 1_555
H33A C53A 1_555 1_555
C54A C47A 1_555 1_555
H34A C54A 1_555 1_555
C55A C41A 1_555 1_555
C56A C50A 1_555 1_555
H35A C56A 1_555 1_555
C57A C46A 1_555 1_555
H36A C57A 1_555 1_555
H37A C57A 1_555 1_555
C58A C52A 1_555 1_555
H38A C58A 1_555 1_555
C59A C57A 1_555 1_555
H39A C59A 1_555 1_555
H40A C59A 1_555 1_555
H41A C59A 1_555 1_555
C60A C54A 1_555 1_555
H42A C60A 1_555 1_555
C61A C42A 1_555 1_555
H43A C61A 1_555 1_555
H44A C61A 1_555 1_555
C62A C55A 1_555 1_555
H45A C62A 1_555 1_555
C63A C56A 1_555 1_555
H46A C63A 1_555 1_555
C64A C61A 1_555 1_555
H47A C64A 1_555 1_555
H48A C64A 1_555 1_555
C65A C64A 1_555 1_555
H49A C65A 1_555 1_555
H50A C65A 1_555 1_555
H51A C65A 1_555 1_555
C66A C62A 1_555 1_555
H52A C66A 1_555 1_555
C9 C17 1_555 1_555
C10 C20 1_555 1_555
C11 C19 1_555 1_555
C16 C21 1_555 1_555
C20 C22 1_555 1_555
C24 C26 1_555 1_555
C28 C29 1_555 1_555
C33 C36 1_555 1_555
C35 C40 1_555 1_555
C37 C41 1_555 1_555
C45 C51 1_555 1_555
C47 C49 1_555 1_555
C48 C53 1_555 1_555
C50 C55 1_555 1_555
C58 C60 1_555 1_555
C63 C66 1_555 1_555
C4A C14A 1_555 1_555
C5A C13A 1_555 1_555
C6A C21A 1_555 1_555
C9A C17A 1_555 1_555
C10A C20A 1_555 1_555
C11A C14A 1_555 1_555
C11A C19A 1_555 1_555
C16A C21A 1_555 1_555
C20A C22A 1_555 1_555
C24A C26A 1_555 1_555
C28A C29A 1_555 1_555
C33A C36A 1_555 1_555
C35A C40A 1_555 1_555
C37A C41A 1_555 1_555
C45A C51A 1_555 1_555
C47A C49A 1_555 1_555
C48A C53A 1_555 1_555
C50A C55A 1_555 1_555
C58A C60A 1_555 1_555
C63A C66A 1_555 1_555

#END
