
#######################################################################
#
#                 Cambridge Crystallographic Data Centre
#                                CCDC 
#
#######################################################################
#
# If this CIF has been generated from an entry in the Cambridge 
# Structural Database, then it will include bibliographic, chemical, 
# crystal, experimental, refinement or atomic coordinate data resulting 
# from the CCDC's data processing and validation procedures.
#
#######################################################################

data_XETWAW
_chemical_formula_moiety         'C20 H18 Br1 O1 P1'
_chemical_name_systematic        
'(1-(4-Bromophenyl)ethyl)(diphenyl)phosphine oxide'
_symmetry_cell_setting           monoclinic
_symmetry_space_group_name_H-M   'P 21/c'
_symmetry_Int_Tables_number      14
_space_group_name_Hall           '-P 2ybc'
loop_
_symmetry_equiv_pos_site_id
_symmetry_equiv_pos_as_xyz
1 x,y,z
2 -x,1/2+y,1/2-z
3 -x,-y,-z
4 x,1/2-y,1/2+z
_cell_length_a                   16.408(8)
_cell_length_b                   5.907(3)
_cell_length_c                   18.981(10)
_cell_angle_alpha                90
_cell_angle_beta                 108.429(5)
_cell_angle_gamma                90
_cell_volume                     1745.33
_exptl_crystal_colour            yellow
_exptl_crystal_description       stick
_cell_formula_units_Z            4
loop_
_atom_site_label
_atom_site_type_symbol
_atom_site_fract_x
_atom_site_fract_y
_atom_site_fract_z
Br1 Br 0.43110(3) 0.01127(8) 0.06703(3)
C1 C 0.3522(2) 0.0612(6) 0.2823(2)
C2 C 0.3942(2) -0.1287(7) 0.2676(2)
H1 H 0.4065 -0.2482 0.3012
C3 C 0.4178(2) -0.1440(7) 0.2047(2)
H2 H 0.4459 -0.2725 0.1960
C4 C 0.3999(2) 0.0311(6) 0.1549(2)
C5 C 0.3585(2) 0.2225(7) 0.1671(2)
H3 H 0.3460 0.3406 0.1329
C6 C 0.3357(2) 0.2355(6) 0.2313(2)
H4 H 0.3085 0.3654 0.2403
C7 C 0.3255(2) 0.0784(6) 0.35123(19)
H5 H 0.3083 0.2350 0.3561
C8 C 0.3985(2) 0.0140(7) 0.4224(2)
H6 H 0.4113 -0.1442 0.4211
H7 H 0.3808 0.0446 0.4650
H8 H 0.4488 0.1014 0.4253
C9 C 0.1488(2) -0.0079(5) 0.26208(19)
C10 C 0.1179(3) -0.1604(7) 0.2058(2)
H9 H 0.1419 -0.3043 0.2102
C11 C 0.0514(3) -0.1046(9) 0.1424(2)
H10 H 0.0315 -0.2097 0.1044
C12 C 0.0151(2) 0.1049(8) 0.1361(2)
H11 H -0.0301 0.1427 0.0939
C13 C 0.0454(2) 0.2589(7) 0.1916(2)
H12 H 0.0203 0.4015 0.1878
C14 C 0.1131(2) 0.2039(7) 0.2533(2)
H13 H 0.1350 0.3126 0.2898
C15 C 0.2037(2) -0.0478(6) 0.4247(2)
C16 C 0.1724(3) 0.1555(7) 0.4400(2)
H14 H 0.1646 0.2743 0.4064
C17 C 0.1522(3) 0.1855(8) 0.5047(2)
H15 H 0.1292 0.3227 0.5133
C18 C 0.1654(3) 0.0188(8) 0.5556(2)
H16 H 0.1520 0.0411 0.5991
C19 C 0.1984(3) -0.1827(8) 0.5426(2)
H17 H 0.2084 -0.2977 0.5777
C20 C 0.2172(3) -0.2167(7) 0.4774(2)
H18 H 0.2392 -0.3554 0.4689
O1 O 0.25183(15) -0.3482(4) 0.33722(13)
P1 P 0.23408(6) -0.10461(15) 0.34286(5)
loop_
_geom_bond_atom_site_label_1
_geom_bond_atom_site_label_2
_geom_bond_site_symmetry_1
_geom_bond_site_symmetry_2
Br1 C4 1_555 1_555
C1 C2 1_555 1_555
C2 H1 1_555 1_555
C3 C2 1_555 1_555
H2 C3 1_555 1_555
C4 C3 1_555 1_555
C5 C4 1_555 1_555
H3 C5 1_555 1_555
C6 C1 1_555 1_555
H4 C6 1_555 1_555
C7 C1 1_555 1_555
H5 C7 1_555 1_555
C8 C7 1_555 1_555
H6 C8 1_555 1_555
H7 C8 1_555 1_555
H8 C8 1_555 1_555
C9 C10 1_555 1_555
C10 H9 1_555 1_555
C11 C10 1_555 1_555
H10 C11 1_555 1_555
C12 C11 1_555 1_555
H11 C12 1_555 1_555
C13 C12 1_555 1_555
H12 C13 1_555 1_555
C14 C9 1_555 1_555
H13 C14 1_555 1_555
C15 C16 1_555 1_555
C16 H14 1_555 1_555
C17 C16 1_555 1_555
H15 C17 1_555 1_555
C18 C17 1_555 1_555
H16 C18 1_555 1_555
C19 C18 1_555 1_555
H17 C19 1_555 1_555
C20 C15 1_555 1_555
H18 C20 1_555 1_555
O1 P1 1_555 1_555
P1 C7 1_555 1_555
C5 C6 1_555 1_555
C9 P1 1_555 1_555
C13 C14 1_555 1_555
C15 P1 1_555 1_555
C19 C20 1_555 1_555

#END
