
#######################################################################
#
#                 Cambridge Crystallographic Data Centre
#                                CCDC 
#
#######################################################################
#
# If this CIF has been generated from an entry in the Cambridge 
# Structural Database, then it will include bibliographic, chemical, 
# crystal, experimental, refinement or atomic coordinate data resulting 
# from the CCDC's data processing and validation procedures.
#
#######################################################################

data_XEVBOR
_chemical_formula_moiety         'C78 H58 O2,2(C1 H1 Cl3)'
_chemical_name_systematic        
'8,11,14,17-Tetramesitylhexabenzo[bc,ef,hi,kl,no,qr]coronene-2,5-diol chloroform solvate'
_symmetry_cell_setting           monoclinic
_symmetry_space_group_name_H-M   'P 21/n'
_symmetry_Int_Tables_number      14
_space_group_name_Hall           '-P 2yn'
loop_
_symmetry_equiv_pos_site_id
_symmetry_equiv_pos_as_xyz
1 x,y,z
2 1/2-x,1/2+y,1/2-z
3 -x,-y,-z
4 1/2+x,1/2-y,1/2+z
_cell_length_a                   8.099(4)
_cell_length_b                   22.002(11)
_cell_length_c                   35.641(18)
_cell_angle_alpha                90
_cell_angle_beta                 92.477(10)
_cell_angle_gamma                90
_cell_volume                     6345.09
_exptl_crystal_colour            yellow
_exptl_crystal_description       prism
_cell_formula_units_Z            4
loop_
_atom_site_label
_atom_site_type_symbol
_atom_site_fract_x
_atom_site_fract_y
_atom_site_fract_z
C1 C 0.4377(4) 0.36698(16) -0.01339(9)
C2 C 0.5465(4) 0.33876(15) 0.01379(10)
C3 C 0.5735(4) 0.36543(15) 0.04932(9)
C4 C 0.4934(4) 0.42042(15) 0.05836(9)
C5 C 0.3888(4) 0.44910(16) 0.03109(10)
C6 C 0.3614(4) 0.42244(15) -0.00474(10)
C7 C 0.4096(4) 0.33949(17) -0.04970(10)
C8 C 0.3022(4) 0.36726(17) -0.07703(10)
C9 C 0.2692(5) 0.33804(18) -0.11092(10)
H1 H 0.1951 0.3564 -0.1289
C10 C 0.3404(5) 0.28321(18) -0.11935(10)
C11 C 0.4513(5) 0.25747(18) -0.09324(10)
H2 H 0.5035 0.2202 -0.0992
C12 C 0.4883(4) 0.28432(16) -0.05882(10)
C13 C 0.6328(4) 0.28405(15) 0.00414(9)
C14 C 0.6071(4) 0.25719(16) -0.03170(10)
C15 C 0.7011(4) 0.20676(17) -0.04102(10)
H3 H 0.6863 0.1896 -0.0654
C16 C 0.8154(5) 0.18100(17) -0.01577(10)
C17 C 0.8363(5) 0.20677(17) 0.01947(10)
H4 H 0.9128 0.1888 0.0371
C18 C 0.7501(4) 0.25781(16) 0.03000(10)
C19 C 0.6895(4) 0.33841(16) 0.07643(9)
C20 C 0.7790(4) 0.28582(16) 0.06700(9)
C21 C 0.8947(5) 0.26163(17) 0.09320(10)
H5 H 0.9544 0.2262 0.0869
C22 C 0.9244(4) 0.28816(16) 0.12811(10)
C23 C 0.8366(4) 0.33945(16) 0.13707(10)
H6 H 0.8581 0.3582 0.1608
C24 C 0.7166(4) 0.36473(16) 0.11220(9)
C25 C 0.5177(4) 0.44659(16) 0.09515(9)
C26 C 0.6221(4) 0.41787(16) 0.12264(9)
C27 C 0.6273(5) 0.44007(17) 0.15913(10)
H7 H 0.6971 0.4206 0.1776
C28 C 0.5351(5) 0.48910(17) 0.16953(10)
C29 C 0.4422(5) 0.51979(17) 0.14177(10)
H8 H 0.3829 0.5552 0.1484
C30 C 0.4339(4) 0.50010(16) 0.10465(10)
C31 C 0.3117(4) 0.50608(16) 0.03970(10)
C32 C 0.3355(4) 0.53222(16) 0.07579(10)
C33 C 0.2640(4) 0.58825(16) 0.08322(11)
H9 H 0.2827 0.6068 0.1071
C34 C 0.1664(4) 0.61694(17) 0.05606(11)
C35 C 0.1403(4) 0.59217(16) 0.02111(10)
H10 H 0.0725 0.6129 0.0029
C36 C 0.2120(4) 0.53707(16) 0.01203(10)
C37 C 0.2582(4) 0.45273(16) -0.03294(10)
C38 C 0.1846(4) 0.50972(16) -0.02487(10)
C39 C 0.0863(4) 0.53775(17) -0.05297(10)
H11 H 0.0359 0.5758 -0.0481
C40 C 0.0614(5) 0.51114(18) -0.08762(10)
C41 C 0.1315(4) 0.45650(17) -0.09564(10)
H12 H 0.1135 0.4391 -0.1199
C42 C 0.2289(4) 0.42627(17) -0.06866(10)
C43 C 0.2965(5) 0.25199(18) -0.15575(11)
C44 C 0.1561(6) 0.2157(2) -0.15869(12)
C45 C 0.1226(6) 0.1853(2) -0.19227(14)
H13 H 0.0280 0.1598 -0.1943
C46 C 0.2189(7) 0.1903(2) -0.22247(13)
C47 C 0.3550(8) 0.2280(2) -0.21925(13)
H14 H 0.4219 0.2328 -0.2403
C48 C 0.3976(7) 0.2590(2) -0.18624(12)
C49 C 0.0455(7) 0.2079(3) -0.12636(16)
H15 H -0.0543 0.1857 -0.1348
H16 H 0.0144 0.2479 -0.1168
H17 H 0.1039 0.1849 -0.1063
C50 C 0.1801(9) 0.1550(3) -0.25815(14)
H18 H 0.1889 0.1114 -0.2529
H19 H 0.2586 0.1662 -0.2771
H20 H 0.0675 0.1645 -0.2675
C51 C 0.5495(8) 0.2984(3) -0.18323(15)
H21 H 0.5166 0.3413 -0.1825
H22 H 0.6167 0.2914 -0.2050
H23 H 0.6141 0.2883 -0.1602
C52 C 0.9158(5) 0.12729(17) -0.02667(10)
C53 C 0.8377(5) 0.07260(19) -0.03629(11)
C54 C 0.9316(6) 0.0240(2) -0.04679(13)
H24 H 0.8778 -0.0132 -0.0531
C55 C 1.1019(6) 0.0273(2) -0.04852(12)
C56 C 1.1774(5) 0.0810(2) -0.03850(11)
H25 H 1.2944 0.0838 -0.0388
C57 C 1.0872(5) 0.13174(18) -0.02788(11)
C58 C 0.6546(5) 0.0640(2) -0.03397(14)
H26 H 0.5989 0.0782 -0.0573
H27 H 0.6150 0.0874 -0.0128
H28 H 0.6305 0.0208 -0.0304
C59 C 1.2001(7) -0.0273(2) -0.06095(15)
H29 H 1.3182 -0.0174 -0.0598
H30 H 1.1655 -0.0381 -0.0868
H31 H 1.1802 -0.0618 -0.0443
C60 C 1.1791(6) 0.1902(2) -0.01904(14)
H32 H 1.1337 0.2229 -0.0351
H33 H 1.2965 0.1847 -0.0237
H34 H 1.1668 0.2008 0.0074
C61 C 1.0475(5) 0.26092(16) 0.15546(10)
C62 C 0.9982(5) 0.21717(18) 0.18062(11)
C63 C 1.1139(5) 0.1915(2) 0.20571(11)
H35 H 1.0789 0.1611 0.2226
C64 C 1.2776(5) 0.2084(2) 0.20704(12)
C65 C 1.3242(5) 0.2518(2) 0.18156(12)
H36 H 1.4368 0.2639 0.1818
C66 C 1.2132(5) 0.27885(18) 0.15549(11)
C67 C 0.8197(5) 0.1973(2) 0.18089(14)
H37 H 0.7485 0.2332 0.1824
H38 H 0.8039 0.1711 0.2027
H39 H 0.7909 0.1749 0.1578
C68 C 1.4007(6) 0.1790(3) 0.23440(15)
H40 H 1.4788 0.1545 0.2206
H41 H 1.3421 0.1529 0.2517
H42 H 1.4610 0.2106 0.2487
C69 C 1.2734(6) 0.3250(2) 0.12813(15)
H43 H 1.2046 0.3232 0.1049
H44 H 1.3885 0.3161 0.1226
H45 H 1.2664 0.3657 0.1391
C70 C 0.5299(5) 0.50603(18) 0.21003(11)
C71 C 0.3956(6) 0.4878(2) 0.23054(12)
C72 C 0.3968(7) 0.4988(2) 0.26891(13)
H46 H 0.3042 0.4868 0.2826
C73 C 0.5290(6) 0.5266(2) 0.28771(12)
C74 C 0.6578(6) 0.5455(2) 0.26679(11)
H47 H 0.7480 0.5659 0.2792
C75 C 0.6623(6) 0.53613(19) 0.22845(11)
C76 C 0.2522(6) 0.4534(3) 0.21199(15)
H48 H 0.2057 0.4771 0.1908
H49 H 0.1670 0.4468 0.2303
H50 H 0.2912 0.4141 0.2029
C77 C 0.5307(7) 0.5362(3) 0.32960(12)
H51 H 0.6431 0.5463 0.3388
H52 H 0.4942 0.4989 0.3418
H53 H 0.4559 0.5696 0.3354
C78 C 0.8082(6) 0.5576(2) 0.20706(13)
H54 H 0.8548 0.5233 0.1936
H55 H 0.8924 0.5745 0.2247
H56 H 0.7720 0.5890 0.1890
O1 O 0.0964(3) 0.67122(11) 0.06643(8)
H57 H 0.0383 0.6852 0.0483
O2 O -0.0333(3) 0.53914(12) -0.11567(7)
H58 H -0.0980 0.5136 -0.1259
C79 C 0.3606(7) 0.1423(2) 0.11316(15)
H59 H 0.3210 0.1693 0.1335
Cl1 Cl 0.5080(3) 0.18096(12) 0.09115(8)
Cl2 Cl 0.1931(2) 0.12413(8) 0.08506(7)
Cl3 Cl 0.4439(2) 0.07762(9) 0.13482(6)
C80 C 0.5291(9) 0.8979(3) 0.1596(2)
H60 H 0.5609 0.8565 0.1690
Cl4 Cl 0.6521(2) 0.91613(8) 0.12206(5)
Cl5 Cl 0.3257(2) 0.89564(9) 0.14287(6)
Cl6 Cl 0.5563(2) 0.94967(7) 0.19638(4)
C81? C 0.453(3) 0.8837(13) 0.1804(8)
H61? H 0.5372 0.8527 0.1737
Cl7? Cl 0.3185(10) 0.8510(4) 0.2105(3)
loop_
_geom_bond_atom_site_label_1
_geom_bond_atom_site_label_2
_geom_bond_site_symmetry_1
_geom_bond_site_symmetry_2
C1 C2 1_555 1_555
C2 C3 1_555 1_555
C3 C4 1_555 1_555
C4 C5 1_555 1_555
C5 C6 1_555 1_555
C6 C1 1_555 1_555
C7 C1 1_555 1_555
C8 C7 1_555 1_555
C9 C8 1_555 1_555
H1 C9 1_555 1_555
C10 C9 1_555 1_555
C11 C10 1_555 1_555
H2 C11 1_555 1_555
C12 C7 1_555 1_555
C13 C2 1_555 1_555
C14 C12 1_555 1_555
C15 C14 1_555 1_555
H3 C15 1_555 1_555
C16 C15 1_555 1_555
C17 C16 1_555 1_555
H4 C17 1_555 1_555
C18 C13 1_555 1_555
C19 C3 1_555 1_555
C20 C18 1_555 1_555
C21 C20 1_555 1_555
H5 C21 1_555 1_555
C22 C21 1_555 1_555
C23 C22 1_555 1_555
H6 C23 1_555 1_555
C24 C19 1_555 1_555
C25 C4 1_555 1_555
C26 C24 1_555 1_555
C27 C26 1_555 1_555
H7 C27 1_555 1_555
C28 C27 1_555 1_555
C29 C28 1_555 1_555
H8 C29 1_555 1_555
C30 C25 1_555 1_555
C31 C5 1_555 1_555
C32 C30 1_555 1_555
C33 C32 1_555 1_555
H9 C33 1_555 1_555
C34 C33 1_555 1_555
C35 C34 1_555 1_555
H10 C35 1_555 1_555
C36 C31 1_555 1_555
C37 C6 1_555 1_555
C38 C36 1_555 1_555
C39 C38 1_555 1_555
H11 C39 1_555 1_555
C40 C39 1_555 1_555
C41 C40 1_555 1_555
H12 C41 1_555 1_555
C42 C8 1_555 1_555
C43 C10 1_555 1_555
C44 C43 1_555 1_555
C45 C44 1_555 1_555
H13 C45 1_555 1_555
C46 C45 1_555 1_555
C47 C46 1_555 1_555
H14 C47 1_555 1_555
C48 C43 1_555 1_555
C49 C44 1_555 1_555
H15 C49 1_555 1_555
H16 C49 1_555 1_555
H17 C49 1_555 1_555
C50 C46 1_555 1_555
H18 C50 1_555 1_555
H19 C50 1_555 1_555
H20 C50 1_555 1_555
C51 C48 1_555 1_555
H21 C51 1_555 1_555
H22 C51 1_555 1_555
H23 C51 1_555 1_555
C52 C16 1_555 1_555
C53 C52 1_555 1_555
C54 C53 1_555 1_555
H24 C54 1_555 1_555
C55 C54 1_555 1_555
C56 C55 1_555 1_555
H25 C56 1_555 1_555
C57 C52 1_555 1_555
C58 C53 1_555 1_555
H26 C58 1_555 1_555
H27 C58 1_555 1_555
H28 C58 1_555 1_555
C59 C55 1_555 1_555
H29 C59 1_555 1_555
H30 C59 1_555 1_555
H31 C59 1_555 1_555
C60 C57 1_555 1_555
H32 C60 1_555 1_555
H33 C60 1_555 1_555
H34 C60 1_555 1_555
C61 C22 1_555 1_555
C62 C61 1_555 1_555
C63 C62 1_555 1_555
H35 C63 1_555 1_555
C64 C63 1_555 1_555
C65 C64 1_555 1_555
H36 C65 1_555 1_555
C66 C61 1_555 1_555
C67 C62 1_555 1_555
H37 C67 1_555 1_555
H38 C67 1_555 1_555
H39 C67 1_555 1_555
C68 C64 1_555 1_555
H40 C68 1_555 1_555
H41 C68 1_555 1_555
H42 C68 1_555 1_555
C69 C66 1_555 1_555
H43 C69 1_555 1_555
H44 C69 1_555 1_555
H45 C69 1_555 1_555
C70 C28 1_555 1_555
C71 C70 1_555 1_555
C72 C71 1_555 1_555
H46 C72 1_555 1_555
C73 C72 1_555 1_555
C74 C73 1_555 1_555
H47 C74 1_555 1_555
C75 C70 1_555 1_555
C76 C71 1_555 1_555
H48 C76 1_555 1_555
H49 C76 1_555 1_555
H50 C76 1_555 1_555
C77 C73 1_555 1_555
H51 C77 1_555 1_555
H52 C77 1_555 1_555
H53 C77 1_555 1_555
C78 C75 1_555 1_555
H54 C78 1_555 1_555
H55 C78 1_555 1_555
H56 C78 1_555 1_555
O1 C34 1_555 1_555
H57 O1 1_555 1_555
O2 C40 1_555 1_555
H58 O2 1_555 1_555
C79 H59 1_555 1_555
Cl1 C79 1_555 1_555
Cl2 C79 1_555 1_555
Cl3 C79 1_555 1_555
C80 H60 1_555 1_555
Cl4 C80 1_555 1_555
Cl5 C80 1_555 1_555
Cl6 C80 1_555 1_555
C11 C12 1_555 1_555
C13 C14 1_555 1_555
C17 C18 1_555 1_555
C19 C20 1_555 1_555
C23 C24 1_555 1_555
C25 C26 1_555 1_555
C29 C30 1_555 1_555
C31 C32 1_555 1_555
C35 C36 1_555 1_555
C37 C38 1_555 1_555
C37 C42 1_555 1_555
C41 C42 1_555 1_555
C47 C48 1_555 1_555
C56 C57 1_555 1_555
C65 C66 1_555 1_555
C74 C75 1_555 1_555

#END
