
#######################################################################
#
#                 Cambridge Crystallographic Data Centre
#                                CCDC 
#
#######################################################################
#
# If this CIF has been generated from an entry in the Cambridge 
# Structural Database, then it will include bibliographic, chemical, 
# crystal, experimental, refinement or atomic coordinate data resulting 
# from the CCDC's data processing and validation procedures.
#
#######################################################################

data_XEVMEQ
_chemical_formula_moiety         'C30 H32 N12 O30 Sr2,2(C5 H4 N2 O4),4(H2 O1)'
_chemical_name_systematic        
'bis(\m~2~-Pyrazole-5-carboxylato-3-carboxylic acid)-bis(pyrazole-5-carboxylato-3-carboxylic acid)-bis(3,5-pyrazoledicarboxylic acid)-hexa-aqua-di-strontium(ii) 3,5-pyrazoledicarboxylic acid solvate tetrahydrate'
_symmetry_cell_setting           triclinic
_symmetry_space_group_name_H-M   'P -1'
_symmetry_Int_Tables_number      2
_space_group_name_Hall           '-P 1'
loop_
_symmetry_equiv_pos_site_id
_symmetry_equiv_pos_as_xyz
1 x,y,z
2 -x,-y,-z
_cell_length_a                   11.263(2)
_cell_length_b                   11.460(2)
_cell_length_c                   12.904(3)
_cell_angle_alpha                71.54(3)
_cell_angle_beta                 68.34(3)
_cell_angle_gamma                89.93(3)
_cell_volume                     1455.63
_exptl_crystal_colour            colorless
_exptl_crystal_description       prismatic
_cell_formula_units_Z            1
loop_
_atom_site_label
_atom_site_type_symbol
_atom_site_fract_x
_atom_site_fract_y
_atom_site_fract_z
Sr1 Sr 0.92420(3) 0.71853(4) 0.72833(3)
O1 O 0.7434(2) 0.7318(3) 0.9111(3)
O2 O 0.6846(2) 0.7766(3) 1.0779(2)
H1 H 0.7616 0.8003 1.0548
O3 O 0.8845(2) 0.4738(2) 0.8087(2)
O4 O 0.8630(2) 0.3470(3) 0.7142(2)
O5 O 1.1694(2) 0.7495(3) 0.6157(3)
O6 O 1.2424(2) 0.6958(3) 0.4541(2)
H2 H 1.1614 0.6434 0.5054
O7 O 1.8102(2) 0.9060(3) 0.3920(2)
O8 O 1.7800(2) 0.8335(3) 0.2604(2)
O9 O 0.9717(2) 0.6612(3) 0.5351(2)
O10 O 0.9042(2) 0.5995(3) 0.4169(2)
H3 H 1.0019 0.5990 0.3806
O11 O 0.3378(2) 0.5483(3) 0.8398(2)
O12 O 0.3561(3) 0.4863(3) 0.6878(2)
H4 H 0.2734 0.4611 0.7295
O17 O 1.0191(3) 0.6373(3) 0.8890(3)
H7 H 1.0383 0.5440 0.8934
H8 H 1.0930 0.6944 0.8636
O18 O 0.8792(4) 0.9110(3) 0.5819(3)
H9 H 0.8522 0.9041 0.5198
H10 H 0.9489 0.9607 0.5468
O19 O 0.9768(2) 0.9191(2) 0.7632(2)
H11 H 0.9720 0.8975 0.8379
H12 H 1.0418 0.9706 0.7133
N1 N 0.4898(3) 0.6506(3) 0.9680(3)
N2 N 0.3638(3) 0.6154(3) 1.0265(3)
H17 H 0.3268 0.5852 0.9950
N3 N 1.4208(3) 0.8267(3) 0.5755(3)
N4 N 1.5480(3) 0.8582(3) 0.5245(3)
H18 H 1.5791 0.8777 0.5759
N5 N 0.7251(3) 0.6452(3) 0.6870(3)
N6 N 0.5993(3) 0.6220(3) 0.7438(3)
H19 H 0.5656 0.6333 0.8115
C1 C 0.6619(3) 0.7375(4) 1.0014(3)
C2 C 0.5244(3) 0.6982(3) 1.0370(3)
C3 C 0.4183(3) 0.6950(3) 1.1377(3)
H21 H 0.4164 0.7238 1.2014
C4 C 0.3161(3) 0.6406(3) 1.1281(3)
C5 C 0.8216(3) 0.3964(3) 0.7928(3)
C6 C 1.2570(4) 0.7406(4) 0.5310(3)
C7 C 1.3925(3) 0.7813(4) 0.5025(3)
C8 C 1.5031(3) 0.7821(4) 0.4063(3)
H22 H 1.5092 0.7619 0.3432
C9 C 1.6017(3) 0.8332(4) 0.4231(3)
C10 C 1.7423(3) 0.8608(4) 0.3546(3)
C11 C 0.8861(3) 0.6260(4) 0.5105(3)
C12 C 0.7500(3) 0.6107(3) 0.5914(3)
C13 C 0.6373(3) 0.5643(4) 0.5896(3)
H23 H 0.6221 0.5351 0.5368
C14 C 0.5416(3) 0.5722(3) 0.6893(3)
C15 C 0.4015(3) 0.5356(4) 0.7467(3)
C5A C 0.1784(3) 0.6036(3) 1.2072(3)
O3A O 0.1155(2) 0.5262(2) 1.1913(2)
Sr1A Sr 0.07580(3) 0.28147(4) 1.27167(3)
O1A O 0.2566(2) 0.2682(3) 1.0889(3)
C1A C 0.3381(3) 0.2625(4) 0.9986(3)
O2A O 0.3154(2) 0.2234(3) 0.9221(2)
H1A H 0.2384 0.1997 0.9452
C2A C 0.4756(3) 0.3018(3) 0.9630(3)
N1A N 0.5102(3) 0.3494(3) 1.0320(3)
N2A N 0.6362(3) 0.3846(3) 0.9735(3)
H17A H 0.6732 0.4148 1.0050
C4A C 0.6839(3) 0.3594(3) 0.8719(3)
C3A C 0.5817(3) 0.3050(3) 0.8623(3)
H21A H 0.5836 0.2762 0.7986
O5A O -0.1694(2) 0.2505(3) 1.3843(3)
C6A C -0.2570(4) 0.2594(4) 1.4690(3)
O6A O -0.2424(2) 0.3042(3) 1.5459(2)
H2A H -0.1614 0.3566 1.4946
C7A C -0.3925(3) 0.2187(4) 1.4975(3)
N3A N -0.4208(3) 0.1733(3) 1.4245(3)
N4A N -0.5480(3) 0.1418(3) 1.4755(3)
H18A H -0.5791 0.1223 1.4241
C9A C -0.6017(3) 0.1668(4) 1.5769(3)
C8A C -0.5031(3) 0.2179(4) 1.5937(3)
H22A H -0.5092 0.2381 1.6568
C10A C -0.7423(3) 0.1392(4) 1.6454(3)
O7A O -0.8102(2) 0.0940(3) 1.6080(2)
O8A O -0.7800(2) 0.1665(3) 1.7396(2)
O9A O 0.0283(2) 0.3388(3) 1.4649(2)
C11A C 0.1139(3) 0.3740(4) 1.4895(3)
O10A O 0.0958(2) 0.4005(3) 1.5831(2)
H3A H -0.0019 0.4010 1.6194
C12A C 0.2500(3) 0.3893(3) 1.4086(3)
N5A N 0.2749(3) 0.3548(3) 1.3130(3)
O17A O -0.0191(3) 0.3627(3) 1.1110(3)
H7A H -0.0383 0.4560 1.1066
H8A H -0.0930 0.3056 1.1364
O18A O 0.1208(4) 0.0890(3) 1.4181(3)
H9A H 0.1478 0.0959 1.4802
H10A H 0.0511 0.0393 1.4532
O19A O 0.0232(2) 0.0809(2) 1.2368(2)
H11A H 0.0280 0.1025 1.1621
H12A H -0.0418 0.0294 1.2867
N6A N 0.4007(3) 0.3780(3) 1.2562(3)
H19A H 0.4344 0.3667 1.1885
C14A C 0.4584(3) 0.4278(3) 1.3107(3)
C13A C 0.3627(3) 0.4357(4) 1.4104(3)
H23A H 0.3779 0.4649 1.4632
C15A C 0.5985(3) 0.4644(4) 1.2533(3)
O11A O 0.6622(2) 0.4517(3) 1.1602(2)
O12A O 0.6439(3) 0.5137(3) 1.3122(2)
H4A H 0.7266 0.5389 1.2705
O4A O 0.1370(2) 0.6530(3) 1.2858(2)
O13 O 0.9893(2) 1.1400(3) 0.8606(2)
H5 H 1.0998 1.1536 0.7941
O14 O 1.0584(2) 1.1565(3) 0.9965(2)
O15 O 0.4434(3) 0.9950(3) 1.1500(2)
H6 H 0.3574 0.9440 1.2128
O16 O 0.4206(2) 1.0692(3) 1.2953(2)
N7 N 0.8125(3) 1.1662(3) 1.1390(3)
N8 N 0.6858(3) 1.1404(3) 1.1995(3)
H20 H 0.6473 1.1533 1.2743
C16 C 0.9715(3) 1.1426(3) 0.9624(3)
C17 C 0.8354(3) 1.1290(3) 1.0452(3)
C18 C 0.7208(3) 1.0795(3) 1.0479(3)
H24 H 0.7107 1.0447 0.9977
C19 C 0.6273(3) 1.0874(3) 1.1485(3)
C20 C 0.4869(3) 1.0500(4) 1.2054(3)
O20 O 1.1169(3) 0.4263(3) 0.8272(3)
H13 H 1.1552 0.3398 0.8353
H14 H 1.0371 0.4326 0.8433
O21 O 0.7968(3) 1.0848(3) 0.7470(3)
H15 H 0.8629 1.0359 0.7547
H16 H 0.8178 1.1561 0.7364
loop_
_geom_bond_atom_site_label_1
_geom_bond_atom_site_label_2
_geom_bond_site_symmetry_1
_geom_bond_site_symmetry_2
Sr1 O1 1_555 1_555
O1 C1 1_555 1_555
O2 H1 1_555 1_555
O3 Sr1 1_555 1_555
O4 C5 1_555 1_555
O5 Sr1 1_555 1_555
O6 H2 1_555 1_555
O7 C10 1_555 1_555
O8 C10 1_555 1_555
O9 Sr1 1_555 1_555
O10 H3 1_555 1_555
O11 C15 1_555 1_555
O12 H4 1_555 1_555
O13 H5 1_555 1_555
O14 C16 1_555 1_555
O15 H6 1_555 1_555
O16 C20 1_555 1_555
O17 Sr1 1_555 1_555
H7 O17 1_555 1_555
H8 O17 1_555 1_555
O18 Sr1 1_555 1_555
H9 O18 1_555 1_555
H10 O18 1_555 1_555
O19 Sr1 1_555 1_555
H11 O19 1_555 1_555
H12 O19 1_555 1_555
O20 H13 1_555 1_555
H14 O20 1_555 1_555
O21 H15 1_555 1_555
H16 O21 1_555 1_555
N1 N2 1_555 1_555
N2 H17 1_555 1_555
N3 N4 1_555 1_555
N4 H18 1_555 1_555
N5 Sr1 1_555 1_555
N6 N5 1_555 1_555
H19 N6 1_555 1_555
N7 N8 1_555 1_555
N8 H20 1_555 1_555
C1 O2 1_555 1_555
C2 N1 1_555 1_555
C3 C2 1_555 1_555
H21 C3 1_555 1_555
C4 N2 1_555 1_555
C5 O3 1_555 1_555
C6 O5 1_555 1_555
C7 N3 1_555 1_555
C8 C7 1_555 1_555
H22 C8 1_555 1_555
C9 N4 1_555 1_555
C10 C9 1_555 1_555
C11 O9 1_555 1_555
C12 N5 1_555 1_555
C13 C12 1_555 1_555
H23 C13 1_555 1_555
C14 N6 1_555 1_555
C15 O12 1_555 1_555
C16 O13 1_555 1_555
C17 N7 1_555 1_555
C18 C17 1_555 1_555
H24 C18 1_555 1_555
C19 N8 1_555 1_555
C20 O15 1_555 1_555
C5A C4 1_555 1_555
O3A C5A 1_555 1_555
Sr1A O3A 1_555 1_555
O1A Sr1A 1_555 1_555
C1A O1A 1_555 1_555
O2A C1A 1_555 1_555
H1A O2A 1_555 1_555
C2A C1A 1_555 1_555
N1A C2A 1_555 1_555
N2A N1A 1_555 1_555
H17A N2A 1_555 1_555
C4A C5 1_555 1_555
C3A C2A 1_555 1_555
H21A C3A 1_555 1_555
O5A Sr1A 1_555 1_555
C6A O5A 1_555 1_555
O6A C6A 1_555 1_555
H2A O6A 1_555 1_555
C7A C6A 1_555 1_555
N3A C7A 1_555 1_555
N4A N3A 1_555 1_555
H18A N4A 1_555 1_555
C9A N4A 1_555 1_555
C8A C7A 1_555 1_555
H22A C8A 1_555 1_555
C10A C9A 1_555 1_555
O7A C10A 1_555 1_555
O8A C10A 1_555 1_555
O9A Sr1A 1_555 1_555
C11A O9A 1_555 1_555
O10A C11A 1_555 1_555
H3A O10A 1_555 1_555
C12A C11A 1_555 1_555
N5A Sr1A 1_555 1_555
O17A Sr1A 1_555 1_555
H7A O17A 1_555 1_555
H8A O17A 1_555 1_555
O18A Sr1A 1_555 1_555
H9A O18A 1_555 1_555
H10A O18A 1_555 1_555
O19A Sr1A 1_555 1_555
H11A O19A 1_555 1_555
H12A O19A 1_555 1_555
N6A N5A 1_555 1_555
H19A N6A 1_555 1_555
C14A N6A 1_555 1_555
C13A C12A 1_555 1_555
H23A C13A 1_555 1_555
C15A C14A 1_555 1_555
O11A C15A 1_555 1_555
O12A C15A 1_555 1_555
H4A O12A 1_555 1_555
O4A C5A 1_555 1_555
O6 C6 1_555 1_555
O10 C11 1_555 1_555
C1 C2 1_555 1_555
C3 C4 1_555 1_555
C6 C7 1_555 1_555
C8 C9 1_555 1_555
C11 C12 1_555 1_555
C13 C14 1_555 1_555
C14 C15 1_555 1_555
C16 C17 1_555 1_555
C18 C19 1_555 1_555
C19 C20 1_555 1_555
N2A C4A 1_555 1_555
C4A C3A 1_555 1_555
C9A C8A 1_555 1_555
C12A N5A 1_555 1_555
C14A C13A 1_555 1_555

#END
