
#######################################################################
#
#                 Cambridge Crystallographic Data Centre
#                                CCDC 
#
#######################################################################
#
# If this CIF has been generated from an entry in the Cambridge 
# Structural Database, then it will include bibliographic, chemical, 
# crystal, experimental, refinement or atomic coordinate data resulting 
# from the CCDC's data processing and validation procedures.
#
#######################################################################

data_XEVXEE
_chemical_name_common            
1-((2,2,2-trifluoroacetamido)methyl)-2,4,5-triphenyl-ortho-carborane
_chemical_formula_moiety         'C23 H26 B10 F3 N1 O1'
_chemical_name_systematic        
1-((2,2,2-trifluoroacetamido)methyl)-2,4,5-triphenyl-1,2-dicarba-closo-dodecaborane(8)
_symmetry_cell_setting           monoclinic
_symmetry_space_group_name_H-M   'P 21/n'
_symmetry_Int_Tables_number      14
_space_group_name_Hall           '-P 2yn'
loop_
_symmetry_equiv_pos_site_id
_symmetry_equiv_pos_as_xyz
1 x,y,z
2 1/2-x,1/2+y,1/2-z
3 -x,-y,-z
4 1/2+x,1/2-y,1/2+z
_cell_length_a                   18.1161(10)
_cell_length_b                   8.1173(5)
_cell_length_c                   18.6508(11)
_cell_angle_alpha                90
_cell_angle_beta                 113.681(2)
_cell_angle_gamma                90
_cell_volume                     2511.73
_exptl_crystal_description       Block
_cell_formula_units_Z            4
loop_
_atom_site_label
_atom_site_type_symbol
_atom_site_fract_x
_atom_site_fract_y
_atom_site_fract_z
N1 N 0.23357(7) 1.07308(14) 0.07184(7)
H1 H 0.2279 1.0438 0.1137
C1 C 0.28177(8) 0.80700(17) 0.22293(8)
H2 H 0.3338 0.8493 0.2460
C2 C 0.25693(8) 0.72874(16) 0.15006(8)
C3 C 0.32457(8) 0.81855(16) -0.03691(8)
C4 C 0.48434(9) 0.76406(18) 0.27717(8)
H3 H 0.4607 0.6610 0.2736
C5 C 0.33217(8) 0.87290(16) 0.05639(7)
C6 C 0.12663(9) 0.68118(18) 0.15692(9)
H4 H 0.0748 0.6377 0.1348
C7 C 0.29178(8) 0.94271(16) -0.10217(8)
B1 B 0.29965(10) 0.61625(18) -0.05398(9)
H5 H 0.2628 0.5650 -0.1120
C8 C 0.17757(9) 0.66735(17) 0.11799(8)
H6 H 0.1587 0.6160 0.0693
C9 C 0.46820(8) 0.85514(18) 0.20850(8)
C10 C 0.31105(8) 1.05078(16) 0.06746(8)
H7 H 0.3526 1.0935 0.1152
H8 H 0.3119 1.1162 0.0243
C11 C 0.17996(9) 1.04131(18) -0.21669(8)
H9 H 0.1264 1.0320 -0.2518
B2 B 0.25786(9) 0.74231(18) -0.00123(8)
H10 H 0.1937 0.7768 -0.0260
C12 C 0.23060(9) 0.82299(18) 0.26168(9)
H11 H 0.2484 0.8763 0.3098
C13 C 0.15307(9) 0.75965(18) 0.22864(9)
H12 H 0.1190 0.7699 0.2547
B3 B 0.31082(9) 0.70580(18) 0.10178(8)
B4 B 0.38190(10) 0.5059(2) 0.01631(9)
H13 H 0.3988 0.3823 0.0040
B5 B 0.40030(10) 0.68579(19) -0.02904(9)
H14 H 0.4292 0.6809 -0.0708
B6 B 0.41739(9) 0.85089(19) 0.03894(9)
H15 H 0.4562 0.9560 0.0401
B7 B 0.45576(10) 0.6524(2) 0.07330(9)
H16 H 0.5206 0.6248 0.0972
C14 C 0.50563(8) 1.00880(19) 0.21672(9)
H17 H 0.4968 1.0719 0.1724
C15 C 0.21164(9) 0.92995(17) -0.15568(8)
H18 H 0.1793 0.8460 -0.1503
C16 C 0.53466(9) 0.8239(2) 0.35012(8)
H19 H 0.5444 0.7609 0.3947
C17 C 0.57051(9) 0.9774(2) 0.35693(9)
H20 H 0.6039 1.0180 0.4059
C18 C 0.33965(10) 1.0664(2) -0.11217(9)
H21 H 0.3935 1.0749 -0.0778
C19 C 0.22744(10) 1.1665(2) -0.22574(9)
H22 H 0.2060 1.2421 -0.2664
C20 C 0.55607(9) 1.0694(2) 0.29023(9)
H23 H 0.5801 1.1722 0.2944
B8 B 0.41374(9) 0.77447(19) 0.12761(9)
B9 B 0.29263(9) 0.54227(19) 0.03276(9)
H24 H 0.2509 0.4420 0.0304
C21 C 0.30729(11) 1.1777(2) -0.17355(10)
H25 H 0.3397 1.2607 -0.1796
B10 B 0.38926(9) 0.56107(18) 0.11147(9)
H26 H 0.4108 0.4724 0.1601
O1 O 0.16881(8) 1.17807(16) -0.05085(6)
C22 C 0.17064(9) 1.13801(17) 0.01246(9)
C23 C 0.09668(9) 1.17115(19) 0.03138(11)
F1 F 0.09964(6) 1.09323(13) 0.09512(6)
F2 F 0.09126(8) 1.33172(13) 0.04274(11)
F3 F 0.03025(6) 1.12858(18) -0.02797(8)
loop_
_geom_bond_atom_site_label_1
_geom_bond_atom_site_label_2
_geom_bond_site_symmetry_1
_geom_bond_site_symmetry_2
N1 H1 1_555 1_555
C1 H2 1_555 1_555
C2 C1 1_555 1_555
C3 C5 1_555 1_555
C4 H3 1_555 1_555
C5 C10 1_555 1_555
C6 H4 1_555 1_555
C7 C3 1_555 1_555
B1 C3 1_555 1_555
H5 B1 1_555 1_555
C8 C2 1_555 1_555
H6 C8 1_555 1_555
C9 C4 1_555 1_555
C10 N1 1_555 1_555
H7 C10 1_555 1_555
H8 C10 1_555 1_555
C11 H9 1_555 1_555
B2 C3 1_555 1_555
H10 B2 1_555 1_555
C12 C1 1_555 1_555
H11 C12 1_555 1_555
C13 C6 1_555 1_555
H12 C13 1_555 1_555
B3 C2 1_555 1_555
B4 B1 1_555 1_555
H13 B4 1_555 1_555
B5 C3 1_555 1_555
H14 B5 1_555 1_555
B6 C3 1_555 1_555
H15 B6 1_555 1_555
B7 B4 1_555 1_555
H16 B7 1_555 1_555
C14 C9 1_555 1_555
H17 C14 1_555 1_555
C15 C7 1_555 1_555
H18 C15 1_555 1_555
C16 C4 1_555 1_555
H19 C16 1_555 1_555
C17 C16 1_555 1_555
H20 C17 1_555 1_555
C18 C7 1_555 1_555
H21 C18 1_555 1_555
C19 C11 1_555 1_555
H22 C19 1_555 1_555
C20 C14 1_555 1_555
H23 C20 1_555 1_555
B8 C5 1_555 1_555
B9 B1 1_555 1_555
H24 B9 1_555 1_555
C21 C18 1_555 1_555
H25 C21 1_555 1_555
B10 B3 1_555 1_555
H26 B10 1_555 1_555
O1 C22 1_555 1_555
C22 N1 1_555 1_555
C23 C22 1_555 1_555
F1 C23 1_555 1_555
F2 C23 1_555 1_555
F3 C23 1_555 1_555
C5 B2 1_555 1_555
C5 B3 1_555 1_555
C5 B6 1_555 1_555
C6 C8 1_555 1_555
B1 B2 1_555 1_555
B1 B5 1_555 1_555
C9 B8 1_555 1_555
C11 C15 1_555 1_555
B2 B3 1_555 1_555
B2 B9 1_555 1_555
C12 C13 1_555 1_555
B3 B8 1_555 1_555
B3 B9 1_555 1_555
B4 B5 1_555 1_555
B4 B9 1_555 1_555
B4 B10 1_555 1_555
B5 B6 1_555 1_555
B5 B7 1_555 1_555
B6 B7 1_555 1_555
B6 B8 1_555 1_555
B7 B8 1_555 1_555
B7 B10 1_555 1_555
C17 C20 1_555 1_555
C19 C21 1_555 1_555
B8 B10 1_555 1_555
B9 B10 1_555 1_555

#END
