
#######################################################################
#
#                 Cambridge Crystallographic Data Centre
#                                CCDC 
#
#######################################################################
#
# If this CIF has been generated from an entry in the Cambridge 
# Structural Database, then it will include bibliographic, chemical, 
# crystal, experimental, refinement or atomic coordinate data resulting 
# from the CCDC's data processing and validation procedures.
#
#######################################################################

data_XEWDAE01
_chemical_name_common            'Double calix(4)arene chloroform solvate'
_chemical_formula_moiety         'C92 H100 N4 O8 S2,2(C1 H1 Cl3)'
_chemical_name_systematic        
'3,5,9,11-Tetra-aza-1,7(2,5)-dithiophena-4,10(5,17)-di(tetrapropoxycalix(4)arena)cyclododecaphane chloroform solvate'
_symmetry_cell_setting           triclinic
_symmetry_space_group_name_H-M   'P -1'
_symmetry_Int_Tables_number      2
_space_group_name_Hall           '-P 1'
loop_
_symmetry_equiv_pos_site_id
_symmetry_equiv_pos_as_xyz
1 x,y,z
2 -x,-y,-z
_cell_length_a                   10.03980(10)
_cell_length_b                   12.6750(2)
_cell_length_c                   19.0134(4)
_cell_angle_alpha                71.5080(10)
_cell_angle_beta                 86.9880(10)
_cell_angle_gamma                73.63
_cell_volume                     2199.79
_exptl_crystal_colour            colorless
_exptl_crystal_description       block
_chemical_melting_point          'above 330deg.C(dec.)'
_cell_formula_units_Z            1
_exptl_crystal_recrystallization_method chloroform/methanol
loop_
_atom_site_label
_atom_site_type_symbol
_atom_site_fract_x
_atom_site_fract_y
_atom_site_fract_z
S1 S 0.89409(10) 0.39541(8) 0.05577(5)
O1 O 1.0260(3) -0.0090(2) -0.24942(14)
O2 O 1.3396(3) 0.0319(2) -0.23802(13)
O3 O 1.4470(3) 0.2299(2) -0.36810(14)
O4 O 1.1032(3) 0.2265(2) -0.35898(14)
N1 N 0.9560(3) 0.2518(3) -0.05455(16)
N2 N 1.2252(3) 0.4469(3) -0.15606(17)
C1 C 0.9804(4) 0.1843(3) -0.1040(2)
C2 C 0.9051(4) 0.2295(3) -0.1709(2)
H1 H 0.841(3) 0.3059(16) -0.184(2)
C3 C 0.9218(4) 0.1673(3) -0.2211(2)
C4 C 1.0139(4) 0.0556(3) -0.2011(2)
C5 C 1.0956(4) 0.0103(3) -0.1356(2)
C6 C 1.0765(4) 0.0745(3) -0.0866(2)
H2 H 1.127(3) 0.044(3) -0.0399(11)
C7 C 0.9413(4) -0.0888(4) -0.2280(2)
H3 H 0.975(4) -0.147(3) -0.1807(12)
H4 H 0.8482(19) -0.045(3) -0.223(2)
C8 C 0.9445(5) -0.1428(4) -0.2887(3)
H5 H 0.908(4) -0.081(3) -0.3339(14)
H6 H 0.881(4) -0.189(3) -0.273(2)
C9 C 1.0860(6) -0.2136(5) -0.2995(3)
H7 H 1.159(4) -0.177(4) -0.311(3)
H8 H 1.075(5) -0.245(4) -0.338(2)
H9 H 1.128(5) -0.274(3) -0.2551(17)
C10 C 1.2107(4) -0.1034(3) -0.1184(2)
H10 H 1.194(4) -0.156(2) -0.0724(11)
H11 H 1.207(4) -0.135(3) -0.1580(14)
C11 C 1.5448(4) -0.1048(3) -0.0319(2)
H12 H 1.598(3) -0.137(3) 0.0144(12)
C12 C 1.4242(4) -0.1314(3) -0.0419(2)
H13 H 1.388(4) -0.182(3) -0.0017(15)
C13 C 1.3507(4) -0.0843(3) -0.1096(2)
C14 C 1.4040(4) -0.0108(3) -0.1684(2)
C15 C 1.5189(4) 0.0250(3) -0.1579(2)
C16 C 1.5894(4) -0.0249(3) -0.0890(2)
H14 H 1.671(2) -0.004(3) -0.081(2)
C17 C 1.3683(5) -0.0515(4) -0.2782(2)
H15 H 1.361(4) -0.1243(19) -0.2443(18)
H16 H 1.293(3) -0.023(3) -0.3148(17)
C18 C 1.5075(5) -0.0657(4) -0.3122(3)
H17 H 1.514(5) 0.009(2) -0.343(2)
H18 H 1.582(3) -0.102(4) -0.2750(19)
C19 C 1.5256(8) -0.1414(6) -0.3623(4)
H19 H 1.455(5) -0.099(5) -0.401(2)
H20 H 1.615(3) -0.153(5) -0.384(3)
H21 H 1.510(6) -0.214(3) -0.334(3)
C20 C 1.5603(4) 0.1202(3) -0.2183(2)
H22 H 1.639(3) 0.133(3) -0.199(2)
H23 H 1.591(4) 0.096(3) -0.2609(13)
C21 C 1.2794(4) 0.3896(3) -0.2098(2)
C22 C 1.3900(4) 0.2895(3) -0.1902(2)
H24 H 1.433(3) 0.257(3) -0.1411(10)
C23 C 1.4462(4) 0.2336(3) -0.2420(2)
C24 C 1.3907(4) 0.2835(3) -0.3153(2)
C25 C 1.2773(4) 0.3815(3) -0.33541(19)
C26 C 1.2238(4) 0.4345(3) -0.2819(2)
H25 H 1.146(3) 0.503(2) -0.296(2)
C27 C 1.5263(4) 0.2925(4) -0.4218(2)
H26 H 1.470(3) 0.3696(16) -0.4473(19)
H27 H 1.605(3) 0.297(3) -0.398(2)
C28 C 1.5732(8) 0.2313(6) -0.4777(3)
H28 H 1.493(4) 0.220(5) -0.496(3)
H29 H 1.630(5) 0.160(3) -0.445(3)
C29 C 1.6540(9) 0.2955(7) -0.5382(4)
H30 H 1.694(6) 0.255(5) -0.572(3)
H31 H 1.733(4) 0.300(6) -0.514(3)
H32 H 1.598(6) 0.372(3) -0.565(3)
C30 C 1.1995(4) 0.4266(3) -0.4104(2)
H33 H 1.234(4) 0.377(3) -0.4404(18)
H34 H 1.201(4) 0.5040(15) -0.4380(18)
C31 C 0.8149(5) 0.5435(4) -0.3829(2)
H35 H 0.744(3) 0.613(2) -0.386(2)
C32 C 0.9487(5) 0.5389(3) -0.4054(2)
H36 H 0.975(4) 0.609(2) -0.427(2)
C33 C 1.0480(4) 0.4335(3) -0.3978(2)
C34 C 1.0063(4) 0.3322(3) -0.36802(19)
C35 C 0.7787(4) 0.4413(4) -0.3489(2)
H37 H 0.687(2) 0.445(3) -0.331(2)
C36 C 0.8746(4) 0.3339(3) -0.3399(2)
C37 C 1.1542(10) 0.1977(7) -0.4220(4)
H38 H 1.2534(17) 0.168(6) -0.415(4)
H39 H 1.165(8) 0.267(4) -0.459(3)
C38 C 1.0713(11) 0.1222(10) -0.4419(6)
H40 H 0.977(4) 0.170(7) -0.449(6)
H41 H 1.065(12) 0.061(6) -0.398(3)
C39 C 1.1528(11) 0.0772(8) -0.5048(4)
H42 H 1.092(12) 0.040(13) -0.518(9)
H43 H 1.118(16) 0.145(7) -0.547(5)
H44 H 1.244(7) 0.027(11) -0.488(9)
C40 C 0.8423(4) 0.2223(3) -0.2958(2)
H45 H 0.7444(14) 0.239(3) -0.287(2)
H46 H 0.864(4) 0.168(3) -0.3233(19)
C41 C 1.0604(4) 0.2502(3) -0.0182(2)
H47 H 1.1529(18) 0.208(3) -0.025(2)
C42 C 1.0506(4) 0.3120(3) 0.0354(2)
C43 C 1.1601(4) 0.3154(3) 0.0739(2)
H48 H 1.2557(15) 0.279(3) 0.070(2)
C44 C 1.1188(4) 0.3851(3) 0.1200(2)
H49 H 1.183(3) 0.396(3) 0.1508(18)
C45 C 0.9781(4) 0.4350(3) 0.1163(2)
C46 C 1.0938(4) 0.4906(3) -0.1587(2)
H50 H 1.032(3) 0.481(3) -0.1919(17)
C45A C 1.0219(4) 0.5650(3) -0.1163(2)
S1A S 1.10591(10) 0.60459(8) -0.05577(5)
C42A C 0.9494(4) 0.6880(3) -0.0354(2)
C41A C 0.9396(4) 0.7498(3) 0.0182(2)
N1A N 1.0440(3) 0.7482(3) 0.05455(16)
C1A C 1.0196(4) 0.8157(3) 0.1040(2)
C2A C 1.0949(4) 0.7705(3) 0.1709(2)
H1A H 1.159(3) 0.6941(16) 0.184(2)
C3A C 1.0782(4) 0.8327(3) 0.2211(2)
C4A C 0.9861(4) 0.9444(3) 0.2011(2)
O1A O 0.9740(3) 1.0090(2) 0.24942(14)
C7A C 1.0587(4) 1.0888(4) 0.2280(2)
H3A H 1.025(4) 1.147(3) 0.1807(12)
H4A H 1.1518(19) 1.045(3) 0.223(2)
C8A C 1.0555(5) 1.1428(4) 0.2887(3)
H5A H 1.092(4) 1.081(3) 0.3339(14)
H6A H 1.119(4) 1.189(3) 0.273(2)
C9A C 0.9140(6) 1.2136(5) 0.2995(3)
H7A H 0.841(4) 1.177(4) 0.311(3)
H8A H 0.925(5) 1.245(4) 0.338(2)
H9A H 0.872(5) 1.274(3) 0.2551(17)
C5A C 0.9044(4) 0.9897(3) 0.1356(2)
C6A C 0.9235(4) 0.9255(3) 0.0866(2)
H2A H 0.873(3) 0.956(3) 0.0399(11)
C10A C 0.7893(4) 1.1034(3) 0.1184(2)
H10A H 0.806(4) 1.156(2) 0.0724(11)
H11A H 0.793(4) 1.135(3) 0.1580(14)
C13A C 0.6493(4) 1.0843(3) 0.1096(2)
C12A C 0.5758(4) 1.1314(3) 0.0419(2)
C11A C 0.4552(4) 1.1048(3) 0.0319(2)
H12A H 0.402(3) 1.137(3) -0.0144(12)
C16A C 0.4106(4) 1.0249(3) 0.0890(2)
C15A C 0.4811(4) 0.9750(3) 0.1579(2)
C14A C 0.5960(4) 1.0108(3) 0.1684(2)
O2A O 0.6604(3) 0.9681(2) 0.23802(13)
C17A C 0.6317(5) 1.0515(4) 0.2782(2)
H15A H 0.639(4) 1.1243(19) 0.2443(18)
H16A H 0.707(3) 1.023(3) 0.3148(17)
C18A C 0.4925(5) 1.0657(4) 0.3122(3)
H17A H 0.486(5) 0.991(2) 0.343(2)
H18A H 0.418(3) 1.102(4) 0.2750(19)
C19A C 0.4744(8) 1.1414(6) 0.3623(4)
H19A H 0.545(5) 1.099(5) 0.401(2)
H20A H 0.385(3) 1.153(5) 0.384(3)
H21A H 0.490(6) 1.214(3) 0.334(3)
C20A C 0.4397(4) 0.8798(3) 0.2183(2)
H22A H 0.361(3) 0.867(3) 0.199(2)
H23A H 0.409(4) 0.904(3) 0.2609(13)
C23A C 0.5538(4) 0.7664(3) 0.2420(2)
C22A C 0.6100(4) 0.7105(3) 0.1902(2)
C21A C 0.7206(4) 0.6104(3) 0.2098(2)
N2A N 0.7748(3) 0.5531(3) 0.15606(17)
C46A C 0.9062(4) 0.5094(3) 0.1587(2)
H50A H 0.968(3) 0.519(3) 0.1919(17)
C26A C 0.7762(4) 0.5655(3) 0.2819(2)
C25A C 0.7227(4) 0.6185(3) 0.33541(19)
C24A C 0.6093(4) 0.7165(3) 0.3153(2)
O3A O 0.5530(3) 0.7701(2) 0.36810(14)
C27A C 0.4737(4) 0.7075(4) 0.4218(2)
H26A H 0.530(3) 0.6304(16) 0.4473(19)
H27A H 0.395(3) 0.703(3) 0.398(2)
C28A C 0.4268(8) 0.7687(6) 0.4777(3)
H28A H 0.507(4) 0.780(5) 0.496(3)
H29A H 0.370(5) 0.840(3) 0.445(3)
C29A C 0.3460(9) 0.7045(7) 0.5382(4)
H30A H 0.306(6) 0.745(5) 0.572(3)
H31A H 0.267(4) 0.700(6) 0.514(3)
H32A H 0.402(6) 0.628(3) 0.565(3)
C30A C 0.8005(4) 0.5734(3) 0.4104(2)
H33A H 0.766(4) 0.623(3) 0.4404(18)
H34A H 0.799(4) 0.4960(15) 0.4380(18)
C33A C 0.9520(4) 0.5665(3) 0.3978(2)
C32A C 1.0513(5) 0.4611(3) 0.4054(2)
C31A C 1.1851(5) 0.4565(4) 0.3829(2)
H35A H 1.256(3) 0.387(2) 0.386(2)
C35A C 1.2213(4) 0.5587(4) 0.3489(2)
H37A H 1.313(2) 0.555(3) 0.331(2)
C36A C 1.1254(4) 0.6661(3) 0.3399(2)
C34A C 0.9937(4) 0.6678(3) 0.36802(19)
O4A O 0.8968(3) 0.7735(2) 0.35898(14)
C37A C 0.8458(10) 0.8023(7) 0.4220(4)
H38A H 0.7466(17) 0.832(6) 0.415(4)
H39A H 0.835(8) 0.733(4) 0.459(3)
C38A C 0.9287(11) 0.8778(10) 0.4419(6)
H40A H 1.023(4) 0.830(7) 0.449(6)
H41A H 0.935(12) 0.939(6) 0.398(3)
C39A C 0.8472(11) 0.9228(8) 0.5048(4)
H42A H 0.908(12) 0.960(13) 0.518(9)
H43A H 0.882(16) 0.855(7) 0.547(5)
H44A H 0.756(7) 0.973(11) 0.488(9)
C40A C 1.1577(4) 0.7777(3) 0.2958(2)
H45A H 1.2556(14) 0.761(3) 0.287(2)
H46A H 1.136(4) 0.832(3) 0.3233(19)
H36A H 1.025(4) 0.391(2) 0.427(2)
H25A H 0.854(3) 0.497(2) 0.296(2)
H24A H 0.567(3) 0.743(3) 0.1411(10)
H14A H 0.329(2) 1.004(3) 0.081(2)
H13A H 0.612(4) 1.182(3) 0.0017(15)
H47A H 0.8471(18) 0.792(3) 0.025(2)
C43A C 0.8399(4) 0.6846(3) -0.0739(2)
H48A H 0.7443(15) 0.721(3) -0.070(2)
C44A C 0.8812(4) 0.6149(3) -0.1200(2)
H49A H 0.817(3) 0.604(3) -0.1508(18)
C47 C 1.4961(5) -0.4748(4) -0.1354(3)
H51 H 1.419(3) -0.506(3) -0.119(2)
Cl1 Cl 1.64735(13) -0.58497(10) -0.09667(8)
Cl2 Cl 1.48053(13) -0.35618(11) -0.10376(9)
Cl3 Cl 1.49907(19) -0.43014(14) -0.23282(8)
C48? C 1.0787(14) 0.1657(10) -0.4135(6)
H52? H 0.992(6) 0.203(8) -0.442(6)
H53? H 1.063(13) 0.093(5) -0.385(5)
C49? C 1.1910(13) 0.1493(10) -0.4613(6)
H54? H 1.262(8) 0.113(8) -0.422(4)
H55? H 1.179(11) 0.226(4) -0.496(5)
H56? H 1.221(12) 0.073(13) -0.542(7)
H57? H 1.165(18) -0.003(3) -0.478(7)
H58? H 1.061(7) 0.098(13) -0.527(9)
loop_
_geom_bond_atom_site_label_1
_geom_bond_atom_site_label_2
_geom_bond_site_symmetry_1
_geom_bond_site_symmetry_2
S1 C42 1_555 1_555
O1 C4 1_555 1_555
O2 C14 1_555 1_555
O3 C24 1_555 1_555
O4 C34 1_555 1_555
N1 C1 1_555 1_555
N2 C21 1_555 1_555
C1 C2 1_555 1_555
C2 H1 1_555 1_555
C3 C2 1_555 1_555
C4 C3 1_555 1_555
C5 C4 1_555 1_555
C6 C1 1_555 1_555
H2 C6 1_555 1_555
C7 O1 1_555 1_555
H3 C7 1_555 1_555
H4 C7 1_555 1_555
C8 C7 1_555 1_555
H5 C8 1_555 1_555
H6 C8 1_555 1_555
C9 C8 1_555 1_555
H7 C9 1_555 1_555
H8 C9 1_555 1_555
H9 C9 1_555 1_555
C10 C5 1_555 1_555
H10 C10 1_555 1_555
H11 C10 1_555 1_555
C11 H12 1_555 1_555
C12 C11 1_555 1_555
H13 C12 1_555 1_555
C13 C10 1_555 1_555
C14 C13 1_555 1_555
C15 C14 1_555 1_555
C16 C11 1_555 1_555
H14 C16 1_555 1_555
C17 O2 1_555 1_555
H15 C17 1_555 1_555
H16 C17 1_555 1_555
C18 C17 1_555 1_555
H17 C18 1_555 1_555
H18 C18 1_555 1_555
C19 C18 1_555 1_555
H19 C19 1_555 1_555
H20 C19 1_555 1_555
H21 C19 1_555 1_555
C20 C15 1_555 1_555
H22 C20 1_555 1_555
H23 C20 1_555 1_555
C21 C22 1_555 1_555
C22 H24 1_555 1_555
C23 C20 1_555 1_555
C24 C23 1_555 1_555
C25 C24 1_555 1_555
C26 C21 1_555 1_555
H25 C26 1_555 1_555
C27 O3 1_555 1_555
H26 C27 1_555 1_555
H27 C27 1_555 1_555
C28 C27 1_555 1_555
H28 C28 1_555 1_555
H29 C28 1_555 1_555
C29 C28 1_555 1_555
H30 C29 1_555 1_555
H31 C29 1_555 1_555
H32 C29 1_555 1_555
C30 C25 1_555 1_555
H33 C30 1_555 1_555
H34 C30 1_555 1_555
C31 H35 1_555 1_555
C32 C31 1_555 1_555
H36 C32 1_555 1_555
C33 C30 1_555 1_555
C34 C33 1_555 1_555
C35 C31 1_555 1_555
H37 C35 1_555 1_555
C36 C34 1_555 1_555
C37 O4 1_555 1_555
H38 C37 1_555 1_555
H39 C37 1_555 1_555
C38 C37 1_555 1_555
H40 C38 1_555 1_555
H41 C38 1_555 1_555
C39 C38 1_555 1_555
H42 C39 1_555 1_555
H43 C39 1_555 1_555
H44 C39 1_555 1_555
C40 C3 1_555 1_555
H45 C40 1_555 1_555
H46 C40 1_555 1_555
C41 N1 1_555 1_555
H47 C41 1_555 1_555
C42 C41 1_555 1_555
C43 C42 1_555 1_555
H48 C43 1_555 1_555
C44 C43 1_555 1_555
H49 C44 1_555 1_555
C45 S1 1_555 1_555
C46 N2 1_555 1_555
H50 C46 1_555 1_555
C47 H51 1_555 1_555
Cl1 C47 1_555 1_555
Cl2 C47 1_555 1_555
Cl3 C47 1_555 1_555
C45A C46 1_555 1_555
S1A C45A 1_555 1_555
C42A S1A 1_555 1_555
C41A C42A 1_555 1_555
N1A C41A 1_555 1_555
C1A N1A 1_555 1_555
C2A C1A 1_555 1_555
H1A C2A 1_555 1_555
C3A C2A 1_555 1_555
C4A C3A 1_555 1_555
O1A C4A 1_555 1_555
C7A O1A 1_555 1_555
H3A C7A 1_555 1_555
H4A C7A 1_555 1_555
C8A C7A 1_555 1_555
H5A C8A 1_555 1_555
H6A C8A 1_555 1_555
C9A C8A 1_555 1_555
H7A C9A 1_555 1_555
H8A C9A 1_555 1_555
H9A C9A 1_555 1_555
C5A C4A 1_555 1_555
C6A C1A 1_555 1_555
H2A C6A 1_555 1_555
C10A C5A 1_555 1_555
H10A C10A 1_555 1_555
H11A C10A 1_555 1_555
C13A C10A 1_555 1_555
C12A C13A 1_555 1_555
C11A C12A 1_555 1_555
H12A C11A 1_555 1_555
C16A C11A 1_555 1_555
C15A C16A 1_555 1_555
C14A C13A 1_555 1_555
O2A C14A 1_555 1_555
C17A O2A 1_555 1_555
H15A C17A 1_555 1_555
H16A C17A 1_555 1_555
C18A C17A 1_555 1_555
H17A C18A 1_555 1_555
H18A C18A 1_555 1_555
C19A C18A 1_555 1_555
H19A C19A 1_555 1_555
H20A C19A 1_555 1_555
H21A C19A 1_555 1_555
C20A C15A 1_555 1_555
H22A C20A 1_555 1_555
H23A C20A 1_555 1_555
C23A C20A 1_555 1_555
C22A C23A 1_555 1_555
C21A C22A 1_555 1_555
N2A C21A 1_555 1_555
C46A C45 1_555 1_555
H50A C46A 1_555 1_555
C26A C21A 1_555 1_555
C25A C26A 1_555 1_555
C24A C23A 1_555 1_555
O3A C24A 1_555 1_555
C27A O3A 1_555 1_555
H26A C27A 1_555 1_555
H27A C27A 1_555 1_555
C28A C27A 1_555 1_555
H28A C28A 1_555 1_555
H29A C28A 1_555 1_555
C29A C28A 1_555 1_555
H30A C29A 1_555 1_555
H31A C29A 1_555 1_555
H32A C29A 1_555 1_555
C30A C25A 1_555 1_555
H33A C30A 1_555 1_555
H34A C30A 1_555 1_555
C33A C30A 1_555 1_555
C32A C33A 1_555 1_555
C31A C32A 1_555 1_555
H35A C31A 1_555 1_555
C35A C31A 1_555 1_555
H37A C35A 1_555 1_555
C36A C35A 1_555 1_555
C34A C33A 1_555 1_555
O4A C34A 1_555 1_555
C37A O4A 1_555 1_555
H38A C37A 1_555 1_555
H39A C37A 1_555 1_555
C38A C37A 1_555 1_555
H40A C38A 1_555 1_555
H41A C38A 1_555 1_555
C39A C38A 1_555 1_555
H42A C39A 1_555 1_555
H43A C39A 1_555 1_555
H44A C39A 1_555 1_555
C40A C3A 1_555 1_555
H45A C40A 1_555 1_555
H46A C40A 1_555 1_555
H36A C32A 1_555 1_555
H25A C26A 1_555 1_555
H24A C22A 1_555 1_555
H14A C16A 1_555 1_555
H13A C12A 1_555 1_555
H47A C41A 1_555 1_555
C43A C42A 1_555 1_555
H48A C43A 1_555 1_555
C44A C45A 1_555 1_555
H49A C44A 1_555 1_555
C5 C6 1_555 1_555
C12 C13 1_555 1_555
C15 C16 1_555 1_555
C22 C23 1_555 1_555
C25 C26 1_555 1_555
C32 C33 1_555 1_555
C35 C36 1_555 1_555
C36 C40 1_555 1_555
C44 C45 1_555 1_555
C5A C6A 1_555 1_555
C15A C14A 1_555 1_555
N2A C46A 1_555 1_555
C25A C24A 1_555 1_555
C36A C34A 1_555 1_555
C36A C40A 1_555 1_555
C43A C44A 1_555 1_555

#END
