
#######################################################################
#
#                 Cambridge Crystallographic Data Centre
#                                CCDC 
#
#######################################################################
#
# If this CIF has been generated from an entry in the Cambridge 
# Structural Database, then it will include bibliographic, chemical, 
# crystal, experimental, refinement or atomic coordinate data resulting 
# from the CCDC's data processing and validation procedures.
#
#######################################################################

data_XEWGIS
_chemical_formula_moiety         'C16 H22 O1'
_chemical_name_systematic        
(1,4-dimethyl-2-methylidenecyclohexyl)(phenyl)methanol
_symmetry_cell_setting           monoclinic
_symmetry_space_group_name_H-M   'P 21/c'
_symmetry_Int_Tables_number      14
_space_group_name_Hall           '-P 2ybc'
loop_
_symmetry_equiv_pos_site_id
_symmetry_equiv_pos_as_xyz
1 x,y,z
2 -x,1/2+y,1/2-z
3 -x,-y,-z
4 x,1/2-y,1/2+z
_cell_length_a                   12.1361(4)
_cell_length_b                   24.4718(9)
_cell_length_c                   10.3110(4)
_cell_angle_alpha                90
_cell_angle_beta                 113.718(2)
_cell_angle_gamma                90
_cell_volume                     2803.63
_cell_formula_units_Z            8
loop_
_atom_site_label
_atom_site_type_symbol
_atom_site_fract_x
_atom_site_fract_y
_atom_site_fract_z
O1 O 0.48505(11) 0.27653(5) 0.46497(13)
H1 H 0.457132 0.270513 0.523966
C1 C 0.53077(15) 0.33135(7) 0.48179(17)
H2 H 0.554172 0.341774 0.581102
C2 C 0.43365(14) 0.37041(7) 0.39159(17)
C3 C 0.33957(17) 0.35402(8) 0.26831(19)
H3 H 0.336308 0.318034 0.237961
C4 C 0.25037(19) 0.39018(10) 0.1895(2)
H4 H 0.188031 0.378339 0.106768
C5 C 0.2530(2) 0.44339(10) 0.2323(2)
H5 H 0.193077 0.467774 0.179061
C6 C 0.34538(19) 0.46005(9) 0.3548(2)
H6 H 0.347766 0.495978 0.385190
C7 C 0.43469(16) 0.42414(7) 0.4333(2)
H7 H 0.496837 0.436275 0.515793
C8 C 0.64660(15) 0.33167(7) 0.45105(18)
C9 C 0.71161(15) 0.38623(7) 0.49884(19)
C10 C 0.77014(17) 0.39559(8) 0.6563(2)
H8 H 0.707927 0.400141 0.691971
H9 H 0.816307 0.429197 0.674709
C11 C 0.85330(17) 0.34886(9) 0.7368(2)
H10 H 0.920098 0.347363 0.706437
C12 C 0.78582(18) 0.29521(9) 0.6963(2)
H11 H 0.840179 0.265403 0.742435
H12 H 0.721436 0.294977 0.729378
C13 C 0.73341(17) 0.28647(8) 0.5378(2)
H13 H 0.690828 0.251870 0.516889
H14 H 0.799013 0.283766 0.507130
C14 C 0.61349(18) 0.32017(9) 0.2944(2)
H15 H 0.559773 0.348041 0.238237
H16 H 0.574725 0.285204 0.270106
H17 H 0.685122 0.320042 0.276254
C15 C 0.72300(19) 0.42288(9) 0.4111(3)
H18 H 0.767260 0.454556 0.446537
H19 H 0.686774 0.417031 0.313820
C16 C 0.9064(2) 0.35883(13) 0.8960(2)
H20 H 0.842688 0.360209 0.928752
H21 H 0.949214 0.392896 0.916569
H22 H 0.960625 0.329675 0.943203
O2 O 0.39198(12) 0.28818(5) 0.68504(13)
H23 H 0.411916 0.274322 0.763629
C17 C 0.34350(15) 0.34164(7) 0.68532(18)
H24 H 0.319913 0.356127 0.589267
C18 C 0.43853(15) 0.38015(7) 0.78295(18)
C19 C 0.53780(16) 0.36166(9) 0.89712(19)
H25 H 0.546627 0.324454 0.916981
C20 C 0.62480(19) 0.39783(11) 0.9829(2)
H26 H 0.691006 0.384632 1.059657
C21 C 0.6139(2) 0.45247(11) 0.9555(2)
H27 H 0.672774 0.476495 1.012756
C22 C 0.5155(2) 0.47185(9) 0.8427(3)
H28 H 0.507125 0.509141 0.823921
C23 C 0.42933(18) 0.43600(8) 0.7574(2)
H29 H 0.363377 0.449543 0.680912
C24 C 0.22539(15) 0.33856(8) 0.71246(19)
C25 C 0.16005(16) 0.39302(8) 0.6747(2)
C26 C 0.10240(19) 0.40659(10) 0.5190(2)
H30 H 0.165050 0.413185 0.485006
H31 H 0.056144 0.439989 0.506170
C27 C 0.02016(19) 0.36147(12) 0.4307(2)
H32 H -0.045639 0.357271 0.462048
C28 C 0.08913(19) 0.30827(11) 0.4597(2)
H33 H 0.153711 0.311035 0.427321
H34 H 0.035784 0.279084 0.407104
C29 C 0.14136(18) 0.29454(9) 0.6159(2)
H35 H 0.185857 0.260566 0.629883
H36 H 0.075632 0.288523 0.645002
C30 C 0.25635(19) 0.32177(10) 0.8660(2)
H37 H 0.311964 0.347593 0.928651
H38 H 0.292238 0.286084 0.882527
H39 H 0.184276 0.321083 0.883197
C31 C 0.1484(2) 0.42646(10) 0.7689(3)
H40 H 0.104474 0.458590 0.739403
H41 H 0.184184 0.417870 0.864819
C32 C -0.0352(2) 0.37617(16) 0.2742(3)
H42 H -0.081747 0.408997 0.260878
H43 H -0.086302 0.346919 0.221518
H44 H 0.027668 0.381863 0.241495
loop_
_geom_bond_atom_site_label_1
_geom_bond_atom_site_label_2
_geom_bond_site_symmetry_1
_geom_bond_site_symmetry_2
O1 H1 1_555 1_555
C1 O1 1_555 1_555
H2 C1 1_555 1_555
C2 C1 1_555 1_555
C3 C2 1_555 1_555
H3 C3 1_555 1_555
C4 C3 1_555 1_555
H4 C4 1_555 1_555
C5 C4 1_555 1_555
H5 C5 1_555 1_555
C6 C5 1_555 1_555
H6 C6 1_555 1_555
C7 C2 1_555 1_555
H7 C7 1_555 1_555
C8 C1 1_555 1_555
C9 C8 1_555 1_555
C10 C9 1_555 1_555
H8 C10 1_555 1_555
H9 C10 1_555 1_555
C11 C10 1_555 1_555
H10 C11 1_555 1_555
C12 C11 1_555 1_555
H11 C12 1_555 1_555
H12 C12 1_555 1_555
C13 C8 1_555 1_555
H13 C13 1_555 1_555
H14 C13 1_555 1_555
C14 C8 1_555 1_555
H15 C14 1_555 1_555
H16 C14 1_555 1_555
H17 C14 1_555 1_555
C15 C9 1_555 1_555
H18 C15 1_555 1_555
H19 C15 1_555 1_555
C16 C11 1_555 1_555
H20 C16 1_555 1_555
H21 C16 1_555 1_555
H22 C16 1_555 1_555
O2 H23 1_555 1_555
C17 O2 1_555 1_555
H24 C17 1_555 1_555
C18 C17 1_555 1_555
C19 C18 1_555 1_555
H25 C19 1_555 1_555
C20 C19 1_555 1_555
H26 C20 1_555 1_555
C21 C20 1_555 1_555
H27 C21 1_555 1_555
C22 C21 1_555 1_555
H28 C22 1_555 1_555
C23 C18 1_555 1_555
H29 C23 1_555 1_555
C24 C17 1_555 1_555
C25 C24 1_555 1_555
C26 C25 1_555 1_555
H30 C26 1_555 1_555
H31 C26 1_555 1_555
C27 C26 1_555 1_555
H32 C27 1_555 1_555
C28 C27 1_555 1_555
H33 C28 1_555 1_555
H34 C28 1_555 1_555
C29 C24 1_555 1_555
H35 C29 1_555 1_555
H36 C29 1_555 1_555
C30 C24 1_555 1_555
H37 C30 1_555 1_555
H38 C30 1_555 1_555
H39 C30 1_555 1_555
C31 C25 1_555 1_555
H40 C31 1_555 1_555
H41 C31 1_555 1_555
C32 C27 1_555 1_555
H42 C32 1_555 1_555
H43 C32 1_555 1_555
H44 C32 1_555 1_555
C6 C7 1_555 1_555
C12 C13 1_555 1_555
C22 C23 1_555 1_555
C28 C29 1_555 1_555

#END
