
#######################################################################
#
#                 Cambridge Crystallographic Data Centre
#                                CCDC 
#
#######################################################################
#
# If this CIF has been generated from an entry in the Cambridge 
# Structural Database, then it will include bibliographic, chemical, 
# crystal, experimental, refinement or atomic coordinate data resulting 
# from the CCDC's data processing and validation procedures.
#
#######################################################################

data_XEWYEE
_chemical_formula_moiety         
'C20 H30 Mg1 O6 P2 Se4,C24 H36 Mg1 O6 P2 Se4,2(C4 H8 O1)'
_chemical_name_systematic        
"diaqua-(diselenobis(phenyl(phosphinoselenoate))-O,O')-bis(tetrahydrofuran)-magnesium aqua-(diselenobis(phenyl(phosphinoselenoate))-O,O')-tris(tetrahydrofuran)-magnesium tetrahydrofuran solvate"
_symmetry_cell_setting           orthorhombic
_symmetry_space_group_name_H-M   'P c a 21'
_symmetry_Int_Tables_number      29
_space_group_name_Hall           'P 2c -2ac'
loop_
_symmetry_equiv_pos_site_id
_symmetry_equiv_pos_as_xyz
1 x,y,z
2 -x,-y,1/2+z
3 1/2+x,-y,z
4 1/2-x,y,1/2+z
_cell_length_a                   42.900(9)
_cell_length_b                   15.650(3)
_cell_length_c                   10.115(2)
_cell_angle_alpha                90
_cell_angle_beta                 90
_cell_angle_gamma                90
_cell_volume                     6791.06
_exptl_crystal_colour            colorless
_exptl_crystal_description       block
_chemical_melting_point          '130 deg.C (dec.)'
_cell_formula_units_Z            4
loop_
_atom_site_label
_atom_site_type_symbol
_atom_site_fract_x
_atom_site_fract_y
_atom_site_fract_z
Se1 Se -0.69772(2) -0.03579(5) -0.79999(10)
Se2 Se -0.642709(18) 0.09199(5) -0.93614(8)
Se3 Se -0.623223(19) 0.22901(5) -0.90016(9)
Se4 Se -0.57102(2) 0.32370(5) -0.69323(10)
P1 P -0.68147(4) 0.09128(11) -0.78469(19)
P2 P -0.58795(5) 0.20006(12) -0.74184(19)
Mg1 Mg -0.63473(6) 0.08433(15) -0.5331(2)
O1 O -0.66951(12) 0.1214(3) -0.6530(5)
O2 O -0.60228(13) 0.1459(3) -0.6357(5)
O3 O -0.59794(14) 0.0520(4) -0.3990(6)
O4 O -0.66768(13) 0.0200(4) -0.4082(6)
O5 O -0.64254(14) 0.1897(3) -0.4108(5)
O6 O -0.62975(13) -0.0333(3) -0.6224(6)
H1 H -0.640(2) -0.032(5) -0.707(5)
H2 H -0.6172(18) -0.084(3) -0.616(8)
C1 C -0.70859(18) 0.1690(4) -0.8467(8)
C2 C -0.7076(2) 0.2541(5) -0.8001(9)
H7 H -0.6931 0.2699 -0.7333
C3 C -0.7278(2) 0.3141(5) -0.8528(11)
H8 H -0.7272 0.3714 -0.8217
C4 C -0.7488(2) 0.2918(6) -0.9494(13)
H9 H -0.7630 0.3333 -0.9815
C5 C -0.7495(3) 0.2090(6) -1.0014(12)
H10 H -0.7627 0.1953 -1.0735
C6 C -0.7301(2) 0.1465(6) -0.9449(10)
H11 H -0.7316 0.0888 -0.9734
C7 C -0.55813(19) 0.1361(5) -0.8218(8)
C8 C -0.53668(19) 0.1723(5) -0.9101(9)
H12 H -0.5375 0.2318 -0.9280
C9 C -0.5144(2) 0.1224(6) -0.9714(9)
H13 H -0.5001 0.1472 -1.0318
C10 C -0.5133(2) 0.0363(6) -0.9438(11)
H14 H -0.4980 0.0017 -0.9850
C11 C -0.5347(3) -0.0013(6) -0.8554(12)
H15 H -0.5336 -0.0606 -0.8362
C12 C -0.5573(2) 0.0496(5) -0.7967(10)
H16 H -0.5722 0.0247 -0.7390
C13 C -0.5977(2) -0.0145(6) -0.3000(11)
H17 H -0.6001 -0.0715 -0.3410
H18 H -0.6145 -0.0057 -0.2346
C14 C -0.5662(3) -0.0057(11) -0.2364(16)
H19 H -0.5679 -0.0139 -0.1397
H20 H -0.5518 -0.0494 -0.2719
C15 C -0.5544(3) 0.0794(9) -0.2651(14)
H21 H -0.5314 0.0795 -0.2698
H22 H -0.5612 0.1208 -0.1969
C16 C -0.5685(2) 0.1005(6) -0.3973(11)
H23 H -0.5724 0.1626 -0.4054
H24 H -0.5546 0.0822 -0.4702
C17 C -0.6986(2) 0.0552(8) -0.3880(11)
H25 H -0.7125 0.0415 -0.4634
H26 H -0.6978 0.1180 -0.3768
C18 C -0.7099(3) 0.0115(9) -0.2612(14)
H27 H -0.7053 0.0472 -0.1828
H28 H -0.7326 0.0006 -0.2650
C19 C -0.6918(3) -0.0723(9) -0.2559(13)
H29 H -0.7061 -0.1219 -0.2597
H30 H -0.6793 -0.0760 -0.1738
C20 C -0.6701(3) -0.0700(6) -0.3803(11)
H31 H -0.6495 -0.0951 -0.3607
H32 H -0.6796 -0.1011 -0.4554
C21 C -0.6506(3) 0.2739(5) -0.4615(8)
H33 H -0.6700 0.2711 -0.5147
H34 H -0.6337 0.2967 -0.5176
C22 C -0.6554(3) 0.3302(6) -0.3400(11)
H35 H -0.6725 0.3717 -0.3540
H36 H -0.6361 0.3617 -0.3175
C23 C -0.6638(3) 0.2648(6) -0.2309(10)
H37 H -0.6589 0.2871 -0.1417
H38 H -0.6861 0.2487 -0.2347
C24 C -0.6429(2) 0.1902(6) -0.2675(7)
H39 H -0.6216 0.1986 -0.2319
H40 H -0.6514 0.1359 -0.2327
Se5 Se -0.568207(19) -0.16524(5) -0.61360(10)
Se6 Se -0.615271(19) -0.29008(5) -0.43988(9)
Se7 Se -0.638189(19) -0.42548(6) -0.43899(9)
Se8 Se -0.69414(2) -0.53224(5) -0.60547(11)
P3 P -0.58202(5) -0.29599(12) -0.6117(2)
P4 P -0.67559(5) -0.40692(12) -0.5925(2)
Mg2 Mg -0.62841(6) -0.39784(16) -0.8434(3)
O7 O -0.59604(14) -0.3357(3) -0.7320(5)
O8 O -0.66271(12) -0.3673(3) -0.7142(5)
O9 O -0.63725(15) -0.2841(4) -0.9465(6)
O10 O -0.62578(14) -0.5228(3) -0.7714(7)
H3 H -0.6097(12) -0.561(5) -0.738(9)
H4 H -0.6451(10) -0.539(5) -0.729(9)
O11 O -0.66251(13) -0.4460(4) -0.9804(6)
O12 O -0.59191(15) -0.4270(4) -0.9674(7)
H5 H -0.5877(19) -0.470(5) -1.034(7)
H6 H -0.5723(11) -0.399(5) -0.948(10)
C25 C -0.54928(18) -0.3629(5) -0.5650(8)
C26 C -0.5267(2) -0.3376(5) -0.4738(9)
H41 H -0.5285 -0.2828 -0.4339
C27 C -0.50236(18) -0.3886(5) -0.4400(9)
H42 H -0.4878 -0.3709 -0.3747
C28 C -0.4991(2) -0.4675(5) -0.5033(10)
H43 H -0.4820 -0.5038 -0.4829
C29 C -0.5208(2) -0.4919(5) -0.5950(11)
H44 H -0.5183 -0.5453 -0.6384
C30 C -0.5458(2) -0.4429(5) -0.6262(10)
H45 H -0.5608 -0.4623 -0.6885
C31 C -0.70265(18) -0.3333(5) -0.5230(10)
C32 C -0.7084(2) -0.2559(5) -0.5848(10)
H46 H -0.6968 -0.2393 -0.6605
C33 C -0.7318(2) -0.2024(6) -0.5334(12)
H47 H -0.7362 -0.1500 -0.5770
C34 C -0.7483(3) -0.2233(7) -0.4228(13)
H48 H -0.7635 -0.1851 -0.3887
C35 C -0.7429(3) -0.2994(7) -0.3616(13)
H49 H -0.7545 -0.3146 -0.2853
C36 C -0.7199(2) -0.3558(6) -0.4119(9)
H50 H -0.7162 -0.4091 -0.3696
C37 C -0.6302(3) -0.2704(6) -1.0877(10)
H51 H -0.6497 -0.2654 -1.1396
H52 H -0.6178 -0.3184 -1.1234
C38 C -0.6120(4) -0.1888(7) -1.0932(14)
H53 H -0.5899 -0.2005 -1.1136
H54 H -0.6205 -0.1505 -1.1622
C39 C -0.6150(4) -0.1483(7) -0.9596(13)
H55 H -0.6227 -0.0889 -0.9677
H56 H -0.5946 -0.1474 -0.9140
C40 C -0.6378(3) -0.2021(5) -0.8845(11)
H57 H -0.6316 -0.2066 -0.7905
H58 H -0.6590 -0.1769 -0.8891
C41 C -0.6926(2) -0.4031(7) -0.9933(16)
H59 H -0.7003 -0.3842 -0.9058
H60 H -0.6908 -0.3526 -1.0517
C42 C -0.7126(3) -0.4626(10) -1.048(2)
H61 H -0.7267 -0.4344 -1.1115
H62 H -0.7255 -0.4888 -0.9771
C43 C -0.6939(2) -0.5307(7) -1.1166(13)
H63 H -0.7038 -0.5875 -1.1068
H64 H -0.6915 -0.5176 -1.2118
C44 C -0.6637(3) -0.5271(6) -1.0473(11)
H65 H -0.6620 -0.5745 -0.9828
H66 H -0.6463 -0.5318 -1.1113
O13 O -0.5843(2) -0.5407(4) -1.1633(8)
C45 C -0.5797(3) -0.6254(7) -1.1192(12)
H67 H -0.5998 -0.6559 -1.1131
H68 H -0.5697 -0.6257 -1.0311
C46 C -0.5592(4) -0.6664(7) -1.2187(16)
H69 H -0.5385 -0.6788 -1.1803
H70 H -0.5685 -0.7206 -1.2502
C47 C -0.5565(5) -0.6063(9) -1.3256(15)
H71 H -0.5347 -0.6036 -1.3575
H72 H -0.5701 -0.6234 -1.4002
C48 C -0.5660(3) -0.5255(7) -1.2748(13)
H73 H -0.5475 -0.4910 -1.2507
H74 H -0.5781 -0.4938 -1.3421
O14 O -0.54077(19) -0.3303(5) -1.0045(8)
C49 C -0.5339(3) -0.2957(8) -1.1310(12)
H75 H -0.5533 -0.2862 -1.1818
H76 H -0.5203 -0.3350 -1.1815
C50 C -0.5172(3) -0.2108(8) -1.1060(17)
H77 H -0.5017 -0.1989 -1.1759
H78 H -0.5322 -0.1628 -1.1016
C51 C -0.5016(3) -0.2254(7) -0.9736(14)
H79 H -0.4990 -0.1712 -0.9244
H80 H -0.4810 -0.2532 -0.9842
C52 C -0.5251(3) -0.2852(8) -0.9045(11)
H81 H -0.5140 -0.3254 -0.8452
H82 H -0.5400 -0.2516 -0.8512
loop_
_geom_bond_atom_site_label_1
_geom_bond_atom_site_label_2
_geom_bond_site_symmetry_1
_geom_bond_site_symmetry_2
Se1 P1 1_555 1_555
Se2 Se3 1_555 1_555
Se3 P2 1_555 1_555
Se4 P2 1_555 1_555
Se5 P3 1_555 1_555
Se6 Se7 1_555 1_555
Se7 P4 1_555 1_555
Se8 P4 1_555 1_555
P1 Se2 1_555 1_555
P2 O2 1_555 1_555
P3 Se6 1_555 1_555
P4 O8 1_555 1_555
Mg1 O1 1_555 1_555
Mg2 O7 1_555 1_555
O1 P1 1_555 1_555
O2 Mg1 1_555 1_555
O3 Mg1 1_555 1_555
O4 Mg1 1_555 1_555
O5 Mg1 1_555 1_555
O6 Mg1 1_555 1_555
H1 O6 1_555 1_555
H2 O6 1_555 1_555
O7 P3 1_555 1_555
O8 Mg2 1_555 1_555
O9 Mg2 1_555 1_555
O10 Mg2 1_555 1_555
H3 O10 1_555 1_555
H4 O10 1_555 1_555
O11 Mg2 1_555 1_555
O12 Mg2 1_555 1_555
H5 O12 1_555 1_555
H6 O12 1_555 1_555
O13 C45 1_555 1_555
O14 C49 1_555 1_555
C1 P1 1_555 1_555
C2 C1 1_555 1_555
H7 C2 1_555 1_555
C3 C2 1_555 1_555
H8 C3 1_555 1_555
C4 C3 1_555 1_555
H9 C4 1_555 1_555
C5 C4 1_555 1_555
H10 C5 1_555 1_555
C6 C1 1_555 1_555
H11 C6 1_555 1_555
C7 P2 1_555 1_555
C8 C7 1_555 1_555
H12 C8 1_555 1_555
C9 C8 1_555 1_555
H13 C9 1_555 1_555
C10 C9 1_555 1_555
H14 C10 1_555 1_555
C11 C10 1_555 1_555
H15 C11 1_555 1_555
C12 C7 1_555 1_555
H16 C12 1_555 1_555
C13 O3 1_555 1_555
H17 C13 1_555 1_555
H18 C13 1_555 1_555
C14 C13 1_555 1_555
H19 C14 1_555 1_555
H20 C14 1_555 1_555
C15 C14 1_555 1_555
H21 C15 1_555 1_555
H22 C15 1_555 1_555
C16 O3 1_555 1_555
H23 C16 1_555 1_555
H24 C16 1_555 1_555
C17 O4 1_555 1_555
H25 C17 1_555 1_555
H26 C17 1_555 1_555
C18 C17 1_555 1_555
H27 C18 1_555 1_555
H28 C18 1_555 1_555
C19 C18 1_555 1_555
H29 C19 1_555 1_555
H30 C19 1_555 1_555
C20 O4 1_555 1_555
H31 C20 1_555 1_555
H32 C20 1_555 1_555
C21 O5 1_555 1_555
H33 C21 1_555 1_555
H34 C21 1_555 1_555
C22 C21 1_555 1_555
H35 C22 1_555 1_555
H36 C22 1_555 1_555
C23 C22 1_555 1_555
H37 C23 1_555 1_555
H38 C23 1_555 1_555
C24 O5 1_555 1_555
H39 C24 1_555 1_555
H40 C24 1_555 1_555
C25 P3 1_555 1_555
C26 C25 1_555 1_555
H41 C26 1_555 1_555
C27 C26 1_555 1_555
H42 C27 1_555 1_555
C28 C27 1_555 1_555
H43 C28 1_555 1_555
C29 C28 1_555 1_555
H44 C29 1_555 1_555
C30 C25 1_555 1_555
H45 C30 1_555 1_555
C31 P4 1_555 1_555
C32 C31 1_555 1_555
H46 C32 1_555 1_555
C33 C32 1_555 1_555
H47 C33 1_555 1_555
C34 C33 1_555 1_555
H48 C34 1_555 1_555
C35 C34 1_555 1_555
H49 C35 1_555 1_555
C36 C31 1_555 1_555
H50 C36 1_555 1_555
C37 O9 1_555 1_555
H51 C37 1_555 1_555
H52 C37 1_555 1_555
C38 C37 1_555 1_555
H53 C38 1_555 1_555
H54 C38 1_555 1_555
C39 C38 1_555 1_555
H55 C39 1_555 1_555
H56 C39 1_555 1_555
C40 O9 1_555 1_555
H57 C40 1_555 1_555
H58 C40 1_555 1_555
C41 O11 1_555 1_555
H59 C41 1_555 1_555
H60 C41 1_555 1_555
C42 C41 1_555 1_555
H61 C42 1_555 1_555
H62 C42 1_555 1_555
C43 C42 1_555 1_555
H63 C43 1_555 1_555
H64 C43 1_555 1_555
C44 O11 1_555 1_555
H65 C44 1_555 1_555
H66 C44 1_555 1_555
C45 H67 1_555 1_555
H68 C45 1_555 1_555
C46 C45 1_555 1_555
H69 C46 1_555 1_555
H70 C46 1_555 1_555
C47 C46 1_555 1_555
H71 C47 1_555 1_555
H72 C47 1_555 1_555
C48 O13 1_555 1_555
H73 C48 1_555 1_555
H74 C48 1_555 1_555
C49 H75 1_555 1_555
H76 C49 1_555 1_555
C50 C49 1_555 1_555
H77 C50 1_555 1_555
H78 C50 1_555 1_555
C51 C50 1_555 1_555
H79 C51 1_555 1_555
H80 C51 1_555 1_555
C52 O14 1_555 1_555
H81 C52 1_555 1_555
H82 C52 1_555 1_555
C5 C6 1_555 1_555
C11 C12 1_555 1_555
C15 C16 1_555 1_555
C19 C20 1_555 1_555
C23 C24 1_555 1_555
C29 C30 1_555 1_555
C35 C36 1_555 1_555
C39 C40 1_555 1_555
C43 C44 1_555 1_555
C47 C48 1_555 1_555
C51 C52 1_555 1_555

#END
