
#######################################################################
#
#                 Cambridge Crystallographic Data Centre
#                                CCDC 
#
#######################################################################
#
# If this CIF has been generated from an entry in the Cambridge 
# Structural Database, then it will include bibliographic, chemical, 
# crystal, experimental, refinement or atomic coordinate data resulting 
# from the CCDC's data processing and validation procedures.
#
#######################################################################

data_XEWZIL
_chemical_formula_moiety         'C17 H13 F1 N2 O1'
_chemical_name_systematic        N-(5-fluoroquinolin-8-yl)-4-methylbenzamide
_symmetry_cell_setting           monoclinic
_symmetry_space_group_name_H-M   'P 21'
_symmetry_Int_Tables_number      4
_space_group_name_Hall           'P 2yb'
loop_
_symmetry_equiv_pos_site_id
_symmetry_equiv_pos_as_xyz
1 x,y,z
2 -x,1/2+y,-z
_cell_length_a                   3.9321(8)
_cell_length_b                   21.987(4)
_cell_length_c                   7.9882(16)
_cell_angle_alpha                90
_cell_angle_beta                 101.83(3)
_cell_angle_gamma                90
_cell_volume                     675.952
_exptl_crystal_colour            colorless
_exptl_crystal_description       block
_cell_formula_units_Z            2
loop_
_atom_site_label
_atom_site_type_symbol
_atom_site_fract_x
_atom_site_fract_y
_atom_site_fract_z
C1 C 0.5892(8) 0.72039(11) 0.8542(4)
H1 H 0.5544 0.7274 0.7371
C2 C 0.7601(7) 0.76499(12) 0.9631(4)
H2 H 0.8356 0.8005 0.9190
C3 C 0.8158(6) 0.75597(11) 1.1364(4)
H3 H 0.9327 0.7849 1.2118
C4 C 0.6930(6) 0.70232(11) 1.1974(3)
C5 C 0.7262(7) 0.68825(12) 1.3712(3)
C6 C 0.6012(7) 0.63641(13) 1.4268(3)
H4 H 0.6265 0.6291 1.5434
C7 C 0.4332(7) 0.59377(12) 1.3074(3)
H5 H 0.3478 0.5580 1.3452
C8 C 0.3941(6) 0.60450(10) 1.1356(3)
C9 C 0.5229(6) 0.65929(10) 1.0781(3)
C10 C 0.0875(6) 0.50975(10) 1.0171(3)
C11 C -0.0505(6) 0.47818(10) 0.8524(3)
C12 C -0.2185(6) 0.42328(10) 0.8602(3)
H6 H -0.2481 0.4084 0.9653
C13 C -0.3428(6) 0.39036(11) 0.7127(4)
H7 H -0.4547 0.3535 0.7205
C14 C -0.3049(6) 0.41085(12) 0.5542(3)
C15 C -0.1382(7) 0.46597(11) 0.5466(3)
H8 H -0.1105 0.4809 0.4413
C16 C -0.0132(6) 0.49899(10) 0.6925(3)
H9 H 0.0981 0.5359 0.6842
C17 C -0.4376(8) 0.37464(14) 0.3942(4)
H10 H -0.6010 0.3448 0.4165
H11 H -0.2466 0.3546 0.3593
H12 H -0.5500 0.4014 0.3049
F1 F 0.8921(5) 0.72994(9) 1.4867(2)
N1 N 0.4729(6) 0.66873(9) 0.9055(3)
N2 N 0.2328(6) 0.56537(9) 1.0051(2)
H13 H 0.2243 0.5783 0.9027
O1 O 0.0709(6) 0.48717(9) 1.1547(2)
loop_
_geom_bond_atom_site_label_1
_geom_bond_atom_site_label_2
_geom_bond_site_symmetry_1
_geom_bond_site_symmetry_2
C1 H1 1_555 1_555
C2 C1 1_555 1_555
H2 C2 1_555 1_555
C3 C2 1_555 1_555
H3 C3 1_555 1_555
C4 C3 1_555 1_555
C5 C4 1_555 1_555
C6 C5 1_555 1_555
H4 C6 1_555 1_555
C7 C6 1_555 1_555
H5 C7 1_555 1_555
C8 C7 1_555 1_555
C9 C4 1_555 1_555
C10 C11 1_555 1_555
C11 C12 1_555 1_555
C12 H6 1_555 1_555
C13 C12 1_555 1_555
H7 C13 1_555 1_555
C14 C13 1_555 1_555
C15 C14 1_555 1_555
H8 C15 1_555 1_555
C16 C11 1_555 1_555
H9 C16 1_555 1_555
C17 C14 1_555 1_555
H10 C17 1_555 1_555
H11 C17 1_555 1_555
H12 C17 1_555 1_555
F1 C5 1_555 1_555
N1 C1 1_555 1_555
N2 C8 1_555 1_555
H13 N2 1_555 1_555
O1 C10 1_555 1_555
C8 C9 1_555 1_555
C9 N1 1_555 1_555
C10 N2 1_555 1_555
C15 C16 1_555 1_555

#END
