
#######################################################################
#
#                 Cambridge Crystallographic Data Centre
#                                CCDC 
#
#######################################################################
#
# If this CIF has been generated from an entry in the Cambridge 
# Structural Database, then it will include bibliographic, chemical, 
# crystal, experimental, refinement or atomic coordinate data resulting 
# from the CCDC's data processing and validation procedures.
#
#######################################################################

data_XEWZAB01
_chemical_formula_moiety         'C31 H25 N3'
_chemical_name_systematic        
(3-(2-(4-(9H-Carbazol-9-yl)phenyl)vinyl)-5,5-dimethylcyclohex-2-en-1-ylidene)malononitrile
_symmetry_cell_setting           monoclinic
_symmetry_space_group_name_H-M   'P 21/n'
_symmetry_Int_Tables_number      14
_space_group_name_Hall           '-P 2yn'
loop_
_symmetry_equiv_pos_site_id
_symmetry_equiv_pos_as_xyz
1 x,y,z
2 1/2-x,1/2+y,1/2-z
3 -x,-y,-z
4 1/2+x,1/2-y,1/2+z
_cell_length_a                   12.286(5)
_cell_length_b                   13.694(5)
_cell_length_c                   15.580(5)
_cell_angle_alpha                90
_cell_angle_beta                 110.838(5)
_cell_angle_gamma                90
_cell_volume                     2449.79
_cell_formula_units_Z            4
loop_
_atom_site_label
_atom_site_type_symbol
_atom_site_fract_x
_atom_site_fract_y
_atom_site_fract_z
N1 N 0.21139(12) 0.04664(10) -0.00485(9)
C1 C 0.41516(13) 0.30306(11) 0.05840(10)
C2 C 0.45125(14) 0.21997(11) 0.02366(11)
H1 H 0.5225 0.2207 0.0154
C3 C 0.27658(14) 0.13471(11) 0.01339(10)
C4 C 0.77700(14) 0.48239(12) 0.10733(11)
H2 H 0.7944 0.4310 0.0754
C5 C 0.74291(13) 0.62122(11) 0.23259(10)
C6 C 0.67113(13) 0.48348(11) 0.11641(10)
C7 C 0.30571(14) 0.29959(12) 0.06655(11)
H3 H 0.2782 0.3545 0.0874
C8 C 0.82698(14) 0.64550(11) 0.18282(11)
H4 H 0.7897 0.6910 0.1333
H5 H 0.8956 0.6771 0.2254
C9 C 0.97439(15) 0.54585(13) 0.14543(12)
C10 C 0.59251(14) 0.40290(11) 0.08052(10)
H6 H 0.6166 0.3554 0.0484
C11 C 0.63846(13) 0.56608(11) 0.16633(11)
H7 H 0.5926 0.5401 0.2005
H8 H 0.5898 0.6118 0.1215
C12 C 0.48885(14) 0.38900(11) 0.08834(10)
H9 H 0.4611 0.4389 0.1155
C13 C 0.38363(14) 0.13733(12) 0.00155(11)
H10 H 0.4094 0.0829 -0.0214
C14 C 0.86299(14) 0.55631(11) 0.14438(10)
C15 C 0.23737(15) 0.21697(12) 0.04450(11)
H11 H 0.1648 0.2167 0.0506
C16 C 0.10093(16) 0.03286(13) -0.07121(12)
C17 C 0.25420(17) -0.04388(12) 0.03413(12)
C18 C 0.1710(2) -0.11562(13) -0.00743(14)
C19 C 0.07398(18) -0.06712(14) -0.07505(14)
C20 C 0.70173(16) 0.71613(13) 0.26259(13)
H12 H 0.6463 0.7016 0.2914
H13 H 0.6658 0.7568 0.2099
H14 H 0.7672 0.7497 0.3054
C21 C 0.80454(15) 0.55739(14) 0.31637(11)
H15 H 0.7518 0.5429 0.3477
H16 H 0.8711 0.5916 0.3572
H17 H 0.8294 0.4977 0.2968
C22 C 1.06187(16) 0.61831(14) 0.18467(13)
C23 C 0.02564(16) 0.10114(16) -0.12728(13)
H18 H 0.0450 0.1671 -0.1236
N2 N 1.13229(15) 0.67562(14) 0.21654(13)
C24 C 1.01124(17) 0.46064(16) 0.11006(15)
C25 C 0.3581(2) -0.06519(15) 0.10511(14)
H19 H 0.4123 -0.0166 0.1322
N3 N 1.04184(17) 0.39238(15) 0.08280(16)
C26 C -0.07930(18) 0.0678(2) -0.18884(15)
H20 H -0.1322 0.1118 -0.2269
C27 C -0.0319(2) -0.0990(2) -0.13917(18)
H21 H -0.0514 -0.1649 -0.1442
C28 C 0.1934(3) -0.21209(16) 0.0233(2)
H22 H 0.1393 -0.2610 -0.0031
C29 C 0.2962(3) -0.23374(19) 0.0929(2)
H23 H 0.3117 -0.2979 0.1130
C30 C 0.3778(3) -0.16105(18) 0.13396(18)
H24 H 0.4465 -0.1774 0.1814
C31 C -0.1064(2) -0.0315(2) -0.19428(19)
H25 H -0.1772 -0.0523 -0.2366
loop_
_geom_bond_atom_site_label_1
_geom_bond_atom_site_label_2
_geom_bond_site_symmetry_1
_geom_bond_site_symmetry_2
N1 C3 1_555 1_555
C1 C2 1_555 1_555
C2 H1 1_555 1_555
C3 C13 1_555 1_555
C4 H2 1_555 1_555
C5 C8 1_555 1_555
C6 C4 1_555 1_555
C7 C1 1_555 1_555
H3 C7 1_555 1_555
C8 H4 1_555 1_555
H5 C8 1_555 1_555
C9 C14 1_555 1_555
C10 C6 1_555 1_555
H6 C10 1_555 1_555
C11 C5 1_555 1_555
H7 C11 1_555 1_555
H8 C11 1_555 1_555
C12 C1 1_555 1_555
H9 C12 1_555 1_555
C13 C2 1_555 1_555
H10 C13 1_555 1_555
C14 C4 1_555 1_555
C15 C3 1_555 1_555
H11 C15 1_555 1_555
C16 N1 1_555 1_555
C17 N1 1_555 1_555
C18 C17 1_555 1_555
C19 C16 1_555 1_555
C20 C5 1_555 1_555
H12 C20 1_555 1_555
H13 C20 1_555 1_555
H14 C20 1_555 1_555
C21 C5 1_555 1_555
H15 C21 1_555 1_555
H16 C21 1_555 1_555
H17 C21 1_555 1_555
C22 C9 1_555 1_555
C23 C16 1_555 1_555
H18 C23 1_555 1_555
N2 C22 1_555 1_555
C24 C9 1_555 1_555
C25 C17 1_555 1_555
H19 C25 1_555 1_555
N3 C24 1_555 1_555
C26 C23 1_555 1_555
H20 C26 1_555 1_555
C27 C19 1_555 1_555
H21 C27 1_555 1_555
C28 C18 1_555 1_555
H22 C28 1_555 1_555
C29 C28 1_555 1_555
H23 C29 1_555 1_555
C30 C25 1_555 1_555
H24 C30 1_555 1_555
C31 C26 1_555 1_555
H25 C31 1_555 1_555
C6 C11 1_555 1_555
C7 C15 1_555 1_555
C8 C14 1_555 1_555
C10 C12 1_555 1_555
C18 C19 1_555 1_555
C27 C31 1_555 1_555
C29 C30 1_555 1_555

#END
