
#######################################################################
#
#                 Cambridge Crystallographic Data Centre
#                                CCDC 
#
#######################################################################
#
# If this CIF has been generated from an entry in the Cambridge 
# Structural Database, then it will include bibliographic, chemical, 
# crystal, experimental, refinement or atomic coordinate data resulting 
# from the CCDC's data processing and validation procedures.
#
#######################################################################

data_XEXDAI
_chemical_formula_moiety         'C58 H36 Cl2 N6 O4'
_chemical_name_systematic        
10,26-dichloro-2,18-bis(diphenylmethylene)-7,13,23,29-tetraoxa-9,11,25,27,35,40-hexaazaheptacyclo[28.2.2.2^3,6^.2^14,17^.2^19,22^.1^8,12^.1^24,28^]dotetraconta-1(32),3,5,8(40),9,11,14,16,19,21,24(35),25,27,30,33,36,38,41-octadecaene
_symmetry_cell_setting           monoclinic
_symmetry_space_group_name_H-M   'P 21/c'
_symmetry_Int_Tables_number      14
_space_group_name_Hall           '-P 2ybc'
loop_
_symmetry_equiv_pos_site_id
_symmetry_equiv_pos_as_xyz
1 x,y,z
2 -x,1/2+y,1/2-z
3 -x,-y,-z
4 x,1/2-y,1/2+z
_cell_length_a                   12.207(2)
_cell_length_b                   28.602(6)
_cell_length_c                   31.801(6)
_cell_angle_alpha                90
_cell_angle_beta                 90.00(3)
_cell_angle_gamma                90
_cell_volume                     11103.1
_cell_formula_units_Z            8
_chemical_properties_physical    ', Efflorescent'
_exptl_crystal_preparation       ', Luminescent'
loop_
_atom_site_label
_atom_site_type_symbol
_atom_site_fract_x
_atom_site_fract_y
_atom_site_fract_z
Cl1 Cl -0.3118(2) 0.46145(9) 0.63653(12)
Cl2 Cl -0.1321(3) 1.03218(9) 0.64488(11)
O1 O 0.1272(5) 0.9077(3) 0.6244(2)
C1 C 0.1557(7) 0.6884(3) 0.5975(3)
O2 O -0.1930(6) 0.9053(2) 0.5458(2)
N1 N -0.1593(7) 0.5853(3) 0.5846(3)
C2 C -0.1218(8) 0.7833(4) 0.5233(3)
H1 H -0.1146 0.7546 0.5367
N2 N -0.1863(6) 0.5340(3) 0.6422(3)
C3 C -0.0929(9) 0.9822(3) 0.6211(4)
C4 C 0.0014(7) 0.6269(3) 0.6299(3)
C5 C 0.1166(8) 0.6163(3) 0.6322(3)
H2 H 0.1410 0.5888 0.6446
O3 O -0.0710(6) 0.5951(2) 0.6475(2)
C6 C 0.0331(8) 0.9269(4) 0.6127(3)
C7 C 0.1894(6) 0.7819(3) 0.6304(3)
H3 H 0.1860 0.7581 0.6503
N3 N -0.2734(7) 0.5201(3) 0.5758(3)
O4 O -0.2549(7) 0.5720(3) 0.5236(2)
N4 N -0.0290(7) 0.9032(3) 0.5839(2)
C8 C 0.4569(7) 0.7731(4) 0.5608(4)
H4 H 0.4382 0.7760 0.5891
C9 C 0.1899(8) 0.6480(3) 0.6154(3)
H5 H 0.2645 0.6414 0.6164
C10 C -0.1636(8) 0.8654(3) 0.5250(3)
C11 C 0.3254(7) 0.6574(3) 0.5369(3)
C12 C -0.1207(10) 0.9248(4) 0.5739(4)
C13 C -0.0821(7) 0.7424(3) 0.4562(3)
N5 N 0.0099(8) 0.9640(3) 0.6308(3)
C14 C 0.5174(10) 0.7625(5) 0.4752(4)
H6 H 0.5416 0.7572 0.4479
C15 C 0.1539(8) 0.8603(3) 0.6122(4)
C16 C 0.2362(8) 0.7201(3) 0.5785(3)
C17 C -0.1127(8) 0.7846(3) 0.4802(3)
C18 C 0.2430(13) 0.5914(5) 0.5026(4)
H7 H 0.1827 0.5776 0.4898
C19 C -0.2369(7) 0.6929(4) 0.4855(3)
H8 H -0.2823 0.7188 0.4825
C20 C 0.4152(12) 0.5837(4) 0.5307(4)
H9 H 0.4742 0.5646 0.5376
C21 C -0.1095(8) 0.6161(3) 0.4970(4)
H10 H -0.0656 0.5900 0.5014
C22 C 0.1760(10) 0.8529(5) 0.5689(4)
H11 H 0.1699 0.8761 0.5485
C23 C 0.0440(7) 0.6972(4) 0.5943(3)
H12 H 0.0206 0.7240 0.5805
C24 C 0.2077(9) 0.8076(4) 0.5603(3)
H13 H 0.2220 0.8004 0.5324
C25 C -0.0323(11) 0.6677(4) 0.6108(4)
H14 H -0.1064 0.6750 0.6092
C26 C -0.1408(9) 0.8217(4) 0.5476(3)
H15 H -0.1395 0.8203 0.5768
C27 C -0.0615(8) 0.6577(5) 0.4785(3)
H16 H 0.0117 0.6583 0.4703
C28 C -0.1411(8) 0.5733(3) 0.6240(3)
C29 C -0.0744(8) 0.6394(4) 0.3544(4)
H17 H -0.1374 0.6259 0.3433
C30 C -0.2511(10) 0.5093(4) 0.6142(4)
C31 C 0.2370(9) 0.6369(4) 0.5150(3)
H18 H 0.1748 0.6545 0.5090
C32 C 0.1062(7) 0.6834(3) 0.3862(3)
H19 H 0.1672 0.6994 0.3963
C33 C 0.5326(9) 0.8021(4) 0.5433(4)
H20 H 0.5664 0.8241 0.5604
C34 C 0.2203(7) 0.7721(3) 0.5891(3)
C35 C 0.1226(10) 0.6427(5) 0.3609(5)
H21 H 0.1926 0.6320 0.3546
C36 C -0.2305(9) 0.5590(4) 0.5638(3)
C37 C 0.4071(7) 0.7386(3) 0.5353(3)
C38 C -0.1278(9) 0.6963(4) 0.4734(3)
C39 C 0.3373(9) 0.5651(4) 0.5087(4)
H22 H 0.3442 0.5352 0.4975
C40 C 0.0020(8) 0.7000(3) 0.3963(3)
C41 C 0.3177(7) 0.7076(3) 0.5518(3)
C42 C -0.2098(9) 0.6144(3) 0.5074(4)
N6 N -0.1589(7) 0.9640(3) 0.5922(3)
C43 C 0.4187(10) 0.6295(4) 0.5448(4)
H23 H 0.4796 0.6413 0.5588
C44 C -0.1621(8) 0.8664(3) 0.4825(3)
H24 H -0.1782 0.8938 0.4681
C45 C -0.0856(11) 0.6763(5) 0.3771(3)
H25 H -0.1559 0.6881 0.3810
C46 C 0.1286(10) 0.8395(5) 0.3650(5)
H26 H 0.1202 0.8546 0.3393
C47 C -0.0107(7) 0.7405(3) 0.4227(3)
C48 C 0.0633(9) 0.7801(4) 0.4126(3)
C49 C 0.1631(7) 0.8286(3) 0.6418(3)
H27 H 0.1526 0.8366 0.6698
C50 C -0.1353(9) 0.8247(4) 0.4600(3)
H28 H -0.1335 0.8253 0.4308
C51 C -0.2800(7) 0.6517(3) 0.5018(3)
H29 H -0.3538 0.6494 0.5087
C52 C 0.1477(11) 0.7945(5) 0.4393(4)
H30 H 0.1501 0.7820 0.4662
C53 C 0.4391(9) 0.7362(4) 0.4938(3)
H31 H 0.4035 0.7144 0.4770
C54 C 0.5613(9) 0.8003(4) 0.5021(4)
H32 H 0.6082 0.8227 0.4908
C55 C 0.2152(14) 0.8524(6) 0.3889(5)
H33 H 0.2635 0.8761 0.3812
C56 C 0.0513(10) 0.8059(4) 0.3751(4)
H34 H -0.0079 0.8004 0.3573
C57 C 0.0250(11) 0.6186(4) 0.3453(4)
H35 H 0.0296 0.5908 0.3302
C58 C 0.2260(12) 0.8256(5) 0.4282(4)
H36 H 0.2866 0.8300 0.4455
Cl3 Cl -0.1648(2) 0.93754(8) 0.37881(8)
Cl4 Cl -0.3961(2) 1.51722(9) 0.37045(11)
O5 O -0.6250(6) 1.3817(2) 0.3706(2)
O6 O -0.3122(7) 1.3791(3) 0.2901(2)
O7 O -0.2281(6) 1.0455(2) 0.2660(2)
C59 C -0.7123(7) 1.2438(3) 0.3363(3)
N7 N -0.5162(7) 1.4432(3) 0.3700(3)
C60 C -0.5072(7) 1.1788(3) 0.1385(3)
C61 C -0.5023(9) 1.0962(3) 0.3695(4)
C62 C -0.6583(7) 1.3353(3) 0.3576(3)
N8 N -0.3020(6) 1.0058(3) 0.3823(3)
N9 N -0.2105(8) 0.9940(3) 0.3175(3)
C63 C -1.0651(8) 1.2734(3) 0.2484(3)
H37 H -1.1178 1.2935 0.2376
N10 N -0.3332(7) 1.0584(3) 0.3245(3)
C64 C -0.6118(8) 1.0837(3) 0.3724(4)
H38 H -0.6356 1.0553 0.3833
C65 C -0.3394(7) 1.3374(4) 0.2693(3)
C66 C -0.6888(7) 1.2564(3) 0.3771(4)
H39 H -0.6935 1.2335 0.3978
C67 C -0.9041(6) 1.2149(3) 0.2823(3)
C68 C -0.7338(7) 1.1946(3) 0.3231(3)
C69 C -0.5363(8) 1.3997(3) 0.3563(3)
N11 N -0.3517(7) 1.4430(3) 0.3290(3)
N12 N -0.4703(7) 1.3754(3) 0.3290(3)
C70 C -0.3872(6) 1.2576(4) 0.2258(3)
C71 C -0.4629(8) 1.1390(4) 0.3551(3)
H40 H -0.3886 1.1461 0.3549
C72 C -0.6805(8) 1.1171(4) 0.3575(3)
H41 H -0.7549 1.1104 0.3594
C73 C -0.2095(8) 1.1272(4) 0.2455(3)
H42 H -0.1364 1.1266 0.2536
C74 C -0.3884(8) 1.0875(4) 0.2345(3)
H43 H -0.4309 1.0606 0.2361
C75 C -0.3823(8) 1.2558(4) 0.2693(3)
H44 H -0.3948 1.2277 0.2832
C76 C -0.4270(9) 1.4602(3) 0.3559(3)
C77 C -0.4183(6) 1.2150(3) 0.2025(3)
C78 C -0.6125(8) 1.1591(4) 0.1290(4)
H45 H -0.6726 1.1695 0.1443
C79 C -0.9566(7) 1.2460(4) 0.3085(3)
H46 H -0.9412 1.2471 0.3372
C80 C -0.6813(8) 1.3269(3) 0.3160(3)
H47 H -0.6802 1.3506 0.2961
O8 O -0.4287(7) 1.0638(3) 0.3882(3)
C81 C -0.8155(8) 1.1811(3) 0.2954(3)
C82 C -1.0140(9) 1.2396(4) 0.2231(3)
H48 H -1.0326 1.2372 0.1948
C83 C -0.3395(9) 1.3379(4) 0.2273(3)
H49 H -0.3239 1.3652 0.2127
C84 C -0.2331(8) 0.9852(3) 0.3568(3)
C85 C -0.7066(7) 1.2804(3) 0.3051(3)
H50 H -0.7200 1.2732 0.2770
C86 C -0.3580(7) 1.2973(3) 0.2928(3)
H51 H -0.3549 1.2973 0.3220
C87 C -0.3542(7) 1.0419(3) 0.3645(3)
C88 C -0.3837(8) 1.3986(3) 0.3189(4)
C89 C -0.5589(9) 1.2905(4) 0.1352(4)
H52 H -0.4958 1.2900 0.1188
C90 C -0.6592(8) 1.3003(3) 0.3890(3)
H53 H -0.6402 1.3070 0.4167
C91 C -0.4219(9) 1.1627(4) 0.1118(4)
H54 H -0.3515 1.1744 0.1152
C92 C -0.4409(12) 1.1308(5) 0.0817(3)
H55 H -0.3819 1.1211 0.0654
C93 C -0.6531(7) 1.1608(3) 0.3396(3)
C94 C -0.5738(7) 1.2552(3) 0.1649(3)
C95 C -0.6290(9) 1.1273(4) 0.1000(5)
H56 H -0.6989 1.1149 0.0967
C96 C -0.8164(9) 1.1334(3) 0.2774(4)
C97 C -0.3642(7) 1.1688(3) 0.2149(3)
C98 C -0.5421(7) 1.1704(3) 0.3412(3)
H57 H -0.5188 1.1998 0.3325
C99 C -1.0330(7) 1.2754(3) 0.2906(3)
H58 H -1.0651 1.2981 0.3076
C100 C -0.5423(11) 1.1113(4) 0.0733(3)
H59 H -0.5533 1.0895 0.0521
C101 C -0.2775(7) 1.0871(3) 0.2489(3)
C102 C -0.2581(10) 1.1680(4) 0.2292(4)
H60 H -0.2170 1.1953 0.2280
C103 C -0.4919(7) 1.2162(4) 0.1693(3)
C104 C -0.4302(7) 1.1269(3) 0.2188(3)
H61 H -0.5031 1.1274 0.2103
C105 C -0.2624(8) 1.0334(3) 0.3032(3)
C106 C -0.6339(13) 1.3263(4) 0.1290(4)
H62 H -0.6236 1.3495 0.1088
C107 C -0.3629(11) 1.2973(4) 0.2063(3)
H63 H -0.3618 1.2976 0.1771
C108 C -0.9346(9) 1.2090(4) 0.2402(3)
H64 H -0.9033 1.1856 0.2238
C109 C -0.8160(11) 1.0447(5) 0.2431(5)
H65 H -0.8140 1.0135 0.2348
C110 C -0.7275(10) 1.1170(4) 0.2534(4)
H66 H -0.6689 1.1372 0.2491
C111 C -0.7337(11) 1.3250(5) 0.1571(4)
H67 H -0.7900 1.3464 0.1533
C112 C -0.7410(12) 1.2919(5) 0.1886(4)
H68 H -0.7997 1.2919 0.2073
C113 C -0.9130(12) 1.0606(4) 0.2624(5)
H69 H -0.9774 1.0432 0.2619
C114 C -0.9064(7) 1.1038(4) 0.2820(3)
H70 H -0.9643 1.1133 0.2990
C115 C -0.7210(16) 1.0720(6) 0.2353(5)
H71 H -0.6610 1.0614 0.2200
C116 C -0.6581(11) 1.2584(4) 0.1917(4)
H72 H -0.6617 1.2370 0.2136
loop_
_geom_bond_atom_site_label_1
_geom_bond_atom_site_label_2
_geom_bond_site_symmetry_1
_geom_bond_site_symmetry_2
Cl1 C30 1_555 1_555
Cl2 C3 1_555 1_555
O1 C6 1_555 1_555
C1 C9 1_555 1_555
O2 C10 1_555 1_555
N1 C28 1_555 1_555
C2 H1 1_555 1_555
N2 C28 1_555 1_555
C3 N5 1_555 1_555
C4 C5 1_555 1_555
C5 H2 1_555 1_555
O3 C4 1_555 1_555
C6 N4 1_555 1_555
C7 H3 1_555 1_555
N3 C30 1_555 1_555
O4 C36 1_555 1_555
N4 C12 1_555 1_555
C8 H4 1_555 1_555
C9 C5 1_555 1_555
H5 C9 1_555 1_555
C10 C26 1_555 1_555
C11 C31 1_555 1_555
C12 O2 1_555 1_555
C13 C17 1_555 1_555
N5 C6 1_555 1_555
C14 H6 1_555 1_555
C15 O1 1_555 1_555
C16 C1 1_555 1_555
C17 C2 1_555 1_555
C18 H7 1_555 1_555
C19 H8 1_555 1_555
C20 H9 1_555 1_555
C21 H10 1_555 1_555
C22 C15 1_555 1_555
H11 C22 1_555 1_555
C23 C1 1_555 1_555
H12 C23 1_555 1_555
C24 C22 1_555 1_555
H13 C24 1_555 1_555
C25 C4 1_555 1_555
H14 C25 1_555 1_555
C26 C2 1_555 1_555
H15 C26 1_555 1_555
C27 C21 1_555 1_555
H16 C27 1_555 1_555
C28 O3 1_555 1_555
C29 H17 1_555 1_555
C30 N2 1_555 1_555
C31 C18 1_555 1_555
H18 C31 1_555 1_555
C32 H19 1_555 1_555
C33 C8 1_555 1_555
H20 C33 1_555 1_555
C34 C7 1_555 1_555
C35 C32 1_555 1_555
H21 C35 1_555 1_555
C36 N1 1_555 1_555
C37 C8 1_555 1_555
C38 C13 1_555 1_555
C39 C18 1_555 1_555
H22 C39 1_555 1_555
C40 C32 1_555 1_555
C41 C11 1_555 1_555
C42 O4 1_555 1_555
N6 C3 1_555 1_555
C43 C11 1_555 1_555
H23 C43 1_555 1_555
C44 C10 1_555 1_555
H24 C44 1_555 1_555
C45 C29 1_555 1_555
H25 C45 1_555 1_555
C46 H26 1_555 1_555
C47 C13 1_555 1_555
C48 C47 1_555 1_555
C49 C7 1_555 1_555
H27 C49 1_555 1_555
C50 C17 1_555 1_555
H28 C50 1_555 1_555
C51 C19 1_555 1_555
H29 C51 1_555 1_555
C52 C48 1_555 1_555
H30 C52 1_555 1_555
C53 C14 1_555 1_555
H31 C53 1_555 1_555
C54 C14 1_555 1_555
H32 C54 1_555 1_555
C55 C46 1_555 1_555
H33 C55 1_555 1_555
C56 C46 1_555 1_555
H34 C56 1_555 1_555
C57 C29 1_555 1_555
H35 C57 1_555 1_555
C58 C52 1_555 1_555
H36 C58 1_555 1_555
Cl3 C84 1_555 1_555
Cl4 C76 1_555 1_555
O5 C62 1_555 1_555
O6 C65 1_555 1_555
O7 C101 1_555 1_555
C59 C66 1_555 1_555
N7 C69 1_555 1_555
C60 C78 1_555 1_555
C61 C64 1_555 1_555
C62 C80 1_555 1_555
N8 C84 1_555 1_555
N9 C84 1_555 1_555
C63 H37 1_555 1_555
N10 C87 1_555 1_555
C64 H38 1_555 1_555
C65 C83 1_555 1_555
C66 H39 1_555 1_555
C67 C79 1_555 1_555
C68 C59 1_555 1_555
C69 O5 1_555 1_555
N11 C76 1_555 1_555
N12 C69 1_555 1_555
C70 C75 1_555 1_555
C71 C61 1_555 1_555
H40 C71 1_555 1_555
C72 C64 1_555 1_555
H41 C72 1_555 1_555
C73 H42 1_555 1_555
C74 H43 1_555 1_555
C75 H44 1_555 1_555
C76 N7 1_555 1_555
C77 C70 1_555 1_555
C78 H45 1_555 1_555
C79 H46 1_555 1_555
C80 H47 1_555 1_555
O8 C61 1_555 1_555
C81 C67 1_555 1_555
C82 C63 1_555 1_555
H48 C82 1_555 1_555
C83 H49 1_555 1_555
C85 C59 1_555 1_555
H50 C85 1_555 1_555
C86 C65 1_555 1_555
H51 C86 1_555 1_555
C87 N8 1_555 1_555
C88 O6 1_555 1_555
C89 H52 1_555 1_555
C90 C62 1_555 1_555
H53 C90 1_555 1_555
C91 C60 1_555 1_555
H54 C91 1_555 1_555
C92 C91 1_555 1_555
H55 C92 1_555 1_555
C93 C68 1_555 1_555
C94 C89 1_555 1_555
C95 C78 1_555 1_555
H56 C95 1_555 1_555
C96 C81 1_555 1_555
C97 C77 1_555 1_555
C98 C71 1_555 1_555
H57 C98 1_555 1_555
C99 C63 1_555 1_555
H58 C99 1_555 1_555
C100 C92 1_555 1_555
H59 C100 1_555 1_555
C101 C73 1_555 1_555
C102 C73 1_555 1_555
H60 C102 1_555 1_555
C103 C60 1_555 1_555
C104 C74 1_555 1_555
H61 C104 1_555 1_555
C105 O7 1_555 1_555
C106 C89 1_555 1_555
H62 C106 1_555 1_555
C107 C70 1_555 1_555
H63 C107 1_555 1_555
C108 C67 1_555 1_555
H64 C108 1_555 1_555
C109 H65 1_555 1_555
C110 C96 1_555 1_555
H66 C110 1_555 1_555
C111 C106 1_555 1_555
H67 C111 1_555 1_555
C112 C111 1_555 1_555
H68 C112 1_555 1_555
C113 C109 1_555 1_555
H69 C113 1_555 1_555
C114 C96 1_555 1_555
H70 C114 1_555 1_555
C115 C109 1_555 1_555
H71 C115 1_555 1_555
C116 C94 1_555 1_555
H72 C116 1_555 1_555
N3 C36 1_555 1_555
C12 N6 1_555 1_555
C15 C49 1_555 1_555
C16 C34 1_555 1_555
C16 C41 1_555 1_555
C19 C38 1_555 1_555
C20 C39 1_555 1_555
C20 C43 1_555 1_555
C21 C42 1_555 1_555
C23 C25 1_555 1_555
C24 C34 1_555 1_555
C27 C38 1_555 1_555
C33 C54 1_555 1_555
C35 C57 1_555 1_555
C37 C41 1_555 1_555
C37 C53 1_555 1_555
C40 C45 1_555 1_555
C40 C47 1_555 1_555
C42 C51 1_555 1_555
C44 C50 1_555 1_555
C48 C56 1_555 1_555
C55 C58 1_555 1_555
N9 C105 1_555 1_555
N10 C105 1_555 1_555
C66 C90 1_555 1_555
C68 C81 1_555 1_555
N11 C88 1_555 1_555
N12 C88 1_555 1_555
C72 C93 1_555 1_555
C74 C101 1_555 1_555
C75 C86 1_555 1_555
C77 C103 1_555 1_555
C79 C99 1_555 1_555
C80 C85 1_555 1_555
O8 C87 1_555 1_555
C82 C108 1_555 1_555
C83 C107 1_555 1_555
C93 C98 1_555 1_555
C94 C103 1_555 1_555
C95 C100 1_555 1_555
C97 C102 1_555 1_555
C97 C104 1_555 1_555
C110 C115 1_555 1_555
C112 C116 1_555 1_555
C113 C114 1_555 1_555

#END
