
#######################################################################
#
#                 Cambridge Crystallographic Data Centre
#                                CCDC 
#
#######################################################################
#
# If this CIF has been generated from an entry in the Cambridge 
# Structural Database, then it will include bibliographic, chemical, 
# crystal, experimental, refinement or atomic coordinate data resulting 
# from the CCDC's data processing and validation procedures.
#
#######################################################################

data_XEXNUK
_chemical_formula_moiety         'C18 H20 S2'
_chemical_name_systematic        
3,6,8,11,14,16-Hexahydrodicyclohepta(c,h)(1,6)dithiecin
_symmetry_cell_setting           triclinic
_symmetry_space_group_name_H-M   'P -1'
_symmetry_Int_Tables_number      2
_space_group_name_Hall           '-P 1'
loop_
_symmetry_equiv_pos_site_id
_symmetry_equiv_pos_as_xyz
1 x,y,z
2 -x,-y,-z
_cell_length_a                   7.233(2)
_cell_length_b                   8.348(2)
_cell_length_c                   6.583(3)
_cell_angle_alpha                105.96(2)
_cell_angle_beta                 95.45(3)
_cell_angle_gamma                92.79(2)
_cell_volume                     379.276
_exptl_crystal_colour            colorless
_exptl_crystal_description       prismatic
_chemical_melting_point          '260-261 deg.C'
_cell_formula_units_Z            1
_exptl_crystal_recrystallization_method acetone/dichloromethane/hexane
loop_
_atom_site_label
_atom_site_type_symbol
_atom_site_fract_x
_atom_site_fract_y
_atom_site_fract_z
S1 S -0.15088(4) 0.29453(4) 0.12795(4)
C1 C 0.0816(2) 0.3991(2) 0.2067(2)
C2 C 0.1933(2) 0.3388(1) 0.3739(2)
C3 C 0.2250(2) 0.1607(2) 0.3022(2)
C4 C 0.2452(2) 0.0573(2) 0.4240(2)
C5 C 0.2277(2) 0.1120(2) 0.6568(3)
C6 C 0.3833(2) 0.2426(2) 0.7597(2)
C7 C 0.3958(2) 0.3900(2) 0.7169(2)
C8 C 0.2722(2) 0.4432(1) 0.5635(2)
C9 C -0.2557(2) 0.3699(2) 0.3735(2)
H1 H 0.0707 0.5155 0.2619
H2 H 0.1467 0.3797 0.0845
H3 H 0.2318 0.1145 0.1544
H4 H 0.2716 -0.0547 0.3607
H5 H 0.2370 0.0196 0.7141
H6 H 0.1112 0.1575 0.6803
H7 H 0.4758 0.2201 0.8584
H8 H 0.4952 0.4680 0.7941
H9 H -0.1893 0.3213 0.4813
H10 H -0.3796 0.3147 0.3267
S1A S 0.15088(4) 0.70547(4) 0.87205(4)
C1A C -0.0816(2) 0.6009(2) 0.7933(2)
C2A C -0.1933(2) 0.6612(1) 0.6261(2)
C3A C -0.2250(2) 0.8393(2) 0.6978(2)
C4A C -0.2452(2) 0.9427(2) 0.5760(2)
C5A C -0.2277(2) 0.8880(2) 0.3432(3)
C6A C -0.3833(2) 0.7574(2) 0.2403(2)
C7A C -0.3958(2) 0.6100(2) 0.2831(2)
C8A C -0.2722(2) 0.5568(1) 0.4365(2)
C9A C 0.2557(2) 0.6301(2) 0.6265(2)
H1A H -0.0707 0.4845 0.7381
H2A H -0.1467 0.6203 0.9155
H3A H -0.2318 0.8855 0.8456
H4A H -0.2716 1.0547 0.6393
H5A H -0.2370 0.9804 0.2859
H6A H -0.1112 0.8425 0.3197
H7A H -0.4758 0.7799 0.1416
H8A H -0.4952 0.5320 0.2059
H9A H 0.1893 0.6787 0.5187
H10A H 0.3796 0.6853 0.6733
loop_
_geom_bond_atom_site_label_1
_geom_bond_atom_site_label_2
_geom_bond_site_symmetry_1
_geom_bond_site_symmetry_2
S1 C1 1_555 1_555
C1 C2 1_555 1_555
C2 C3 1_555 1_555
C3 C4 1_555 1_555
C4 C5 1_555 1_555
C5 C6 1_555 1_555
C6 C7 1_555 1_555
C7 C8 1_555 1_555
C8 C2 1_555 1_555
C9 S1 1_555 1_555
H1 C1 1_555 1_555
H2 C1 1_555 1_555
H3 C3 1_555 1_555
H4 C4 1_555 1_555
H5 C5 1_555 1_555
H6 C5 1_555 1_555
H7 C6 1_555 1_555
H8 C7 1_555 1_555
H9 C9 1_555 1_555
H10 C9 1_555 1_555
S1A C1A 1_555 1_555
C1A C2A 1_555 1_555
C2A C3A 1_555 1_555
C3A C4A 1_555 1_555
C4A C5A 1_555 1_555
C5A C6A 1_555 1_555
C6A C7A 1_555 1_555
C7A C8A 1_555 1_555
C8A C9 1_555 1_555
C9A C8 1_555 1_555
H1A C1A 1_555 1_555
H2A C1A 1_555 1_555
H3A C3A 1_555 1_555
H4A C4A 1_555 1_555
H5A C5A 1_555 1_555
H6A C5A 1_555 1_555
H7A C6A 1_555 1_555
H8A C7A 1_555 1_555
H9A C9A 1_555 1_555
H10A C9A 1_555 1_555
S1A C9A 1_555 1_555
C2A C8A 1_555 1_555

#END
