
#######################################################################
#
#                 Cambridge Crystallographic Data Centre
#                                CCDC 
#
#######################################################################
#
# If this CIF has been generated from an entry in the Cambridge 
# Structural Database, then it will include bibliographic, chemical, 
# crystal, experimental, refinement or atomic coordinate data resulting 
# from the CCDC's data processing and validation procedures.
#
#######################################################################

data_XEYBAG
_chemical_formula_moiety         'C29 H27 N3 S2'
_chemical_name_systematic        
((4-(2-(5-(2-(4-(Dimethylamino)phenyl)vinyl)-2-methyl-3-thienyl)cyclopent-1-en-1-yl)-5-methyl-2-thienyl)methylene)malononitrile
_symmetry_cell_setting           monoclinic
_symmetry_space_group_name_H-M   'P 21/c'
_symmetry_Int_Tables_number      14
_space_group_name_Hall           '-P 2ybc'
loop_
_symmetry_equiv_pos_site_id
_symmetry_equiv_pos_as_xyz
1 x,y,z
2 -x,1/2+y,1/2-z
3 -x,-y,-z
4 x,1/2-y,1/2+z
_cell_length_a                   24.443(4)
_cell_length_b                   8.3483(15)
_cell_length_c                   12.521(2)
_cell_angle_alpha                90
_cell_angle_beta                 99.817(3)
_cell_angle_gamma                90
_cell_volume                     2517.59
_exptl_crystal_colour            orange
_exptl_crystal_description       plate
_cell_formula_units_Z            4
loop_
_atom_site_label
_atom_site_type_symbol
_atom_site_fract_x
_atom_site_fract_y
_atom_site_fract_z
S1 S 0.56479(3) 0.64612(11) 0.40733(7)
S2 S 0.77438(5) 0.84770(15) 0.41139(9)
N1 N 0.45781(13) 0.8690(4) 0.3247(3)
N2 N 0.38810(15) 0.9130(4) 0.6197(3)
N3 N 1.05842(15) 0.6858(4) 0.0357(3)
C1 C 0.46095(14) 0.8363(4) 0.4143(3)
C2 C 0.46587(14) 0.7974(4) 0.5266(3)
C3 C 0.42300(15) 0.8601(5) 0.5802(3)
C4 C 0.50922(14) 0.7116(4) 0.5814(3)
H1 H 0.5083 0.6939 0.6560
C5 C 0.55543(14) 0.6450(4) 0.5423(3)
C6 C 0.59947(14) 0.5684(4) 0.6048(3)
H2 H 0.6018 0.5522 0.6806
C7 C 0.64109(14) 0.5155(4) 0.5471(3)
C8 C 0.62692(14) 0.5474(4) 0.4374(3)
C9 C 0.65728(15) 0.5063(5) 0.3473(3)
H3 H 0.6795 0.5984 0.3318
H4 H 0.6305 0.4788 0.2823
H5 H 0.6817 0.4146 0.3686
C10 C 0.69241(15) 0.4340(4) 0.5987(3)
C11 C 0.69002(16) 0.2933(5) 0.6735(3)
H6 H 0.6738 0.1980 0.6329
H7 H 0.6679 0.3193 0.7305
C12 C 0.75119(16) 0.2652(5) 0.7226(3)
H8 H 0.7606 0.3182 0.7941
H9 H 0.7591 0.1492 0.7316
C13 C 0.78420(16) 0.3391(5) 0.6411(3)
H10 H 0.8188 0.3900 0.6787
H11 H 0.7938 0.2572 0.5902
C14 C 0.74469(15) 0.4628(4) 0.5825(3)
C15 C 0.76364(15) 0.5868(5) 0.5136(3)
C16 C 0.74760(17) 0.7452(5) 0.5101(3)
C17 C 0.71368(19) 0.8341(5) 0.5783(4)
H12 H 0.6763 0.8514 0.5372
H13 H 0.7311 0.9378 0.5989
H14 H 0.7113 0.7719 0.6437
C18 C 0.79982(16) 0.5510(5) 0.4384(3)
H15 H 0.8159 0.4490 0.4308
C19 C 0.80845(18) 0.6879(7) 0.3768(3)
C20 C 0.84461(19) 0.6987(6) 0.2929(4)
H16 H 0.8386 0.7852 0.2430
C21 C 0.88337(18) 0.5991(6) 0.2835(4)
H17 H 0.8859 0.5057 0.3274
C22 C 0.92549(17) 0.6168(6) 0.2086(3)
C23 C 0.97409(17) 0.5292(6) 0.2297(3)
H18 H 0.9779 0.4511 0.2856
C24 C 1.01737(17) 0.5499(5) 0.1734(3)
H19 H 1.0501 0.4874 0.1927
C25 C 1.01444(16) 0.6602(5) 0.0887(3)
C26 C 0.96332(18) 0.7432(5) 0.0615(3)
H20 H 0.9578 0.8141 0.0013
C27 C 0.92112(17) 0.7221(6) 0.1221(4)
H21 H 0.8879 0.7824 0.1033
C28 C 1.10949(17) 0.6007(5) 0.0672(4)
H22 H 1.1263 0.6321 0.1410
H23 H 1.1350 0.6266 0.0172
H24 H 1.1022 0.4853 0.0652
C29 C 1.0541(2) 0.7958(6) -0.0535(4)
H25 H 1.0229 0.7645 -0.1097
H26 H 1.0885 0.7938 -0.0836
H27 H 1.0478 0.9042 -0.0281
loop_
_geom_bond_atom_site_label_1
_geom_bond_atom_site_label_2
_geom_bond_site_symmetry_1
_geom_bond_site_symmetry_2
S1 C5 1_555 1_555
S2 C16 1_555 1_555
N1 C1 1_555 1_555
N2 C3 1_555 1_555
N3 C25 1_555 1_555
C1 C2 1_555 1_555
C2 C3 1_555 1_555
C4 C2 1_555 1_555
H1 C4 1_555 1_555
C5 C4 1_555 1_555
C6 C5 1_555 1_555
H2 C6 1_555 1_555
C7 C6 1_555 1_555
C8 S1 1_555 1_555
C9 C8 1_555 1_555
H3 C9 1_555 1_555
H4 C9 1_555 1_555
H5 C9 1_555 1_555
C10 C7 1_555 1_555
C11 C10 1_555 1_555
H6 C11 1_555 1_555
H7 C11 1_555 1_555
C12 C11 1_555 1_555
H8 C12 1_555 1_555
H9 C12 1_555 1_555
C13 C12 1_555 1_555
H10 C13 1_555 1_555
H11 C13 1_555 1_555
C14 C10 1_555 1_555
C15 C14 1_555 1_555
C16 C15 1_555 1_555
C17 C16 1_555 1_555
H12 C17 1_555 1_555
H13 C17 1_555 1_555
H14 C17 1_555 1_555
C18 C15 1_555 1_555
H15 C18 1_555 1_555
C19 S2 1_555 1_555
C20 C19 1_555 1_555
H16 C20 1_555 1_555
C21 C20 1_555 1_555
H17 C21 1_555 1_555
C22 C21 1_555 1_555
C23 C22 1_555 1_555
H18 C23 1_555 1_555
C24 C23 1_555 1_555
H19 C24 1_555 1_555
C25 C24 1_555 1_555
C26 C25 1_555 1_555
H20 C26 1_555 1_555
C27 C22 1_555 1_555
H21 C27 1_555 1_555
C28 N3 1_555 1_555
H22 C28 1_555 1_555
H23 C28 1_555 1_555
H24 C28 1_555 1_555
C29 N3 1_555 1_555
H25 C29 1_555 1_555
H26 C29 1_555 1_555
H27 C29 1_555 1_555
C7 C8 1_555 1_555
C13 C14 1_555 1_555
C18 C19 1_555 1_555
C26 C27 1_555 1_555

#END
