
#######################################################################
#
#                 Cambridge Crystallographic Data Centre
#                                CCDC 
#
#######################################################################
#
# If this CIF has been generated from an entry in the Cambridge 
# Structural Database, then it will include bibliographic, chemical, 
# crystal, experimental, refinement or atomic coordinate data resulting 
# from the CCDC's data processing and validation procedures.
#
#######################################################################

data_XEYPID
_chemical_formula_moiety         'C38 H29 N5 O1,C6 H12'
_chemical_name_systematic        
"4-[{5'-[(4-methylphenyl)(1H-pyrrol-2-yl)methylidene][1H,5'H-[2,2'-bipyrrole]]-5-yl}(2H-pyrrol-2-ylidene)methyl]-N-phenylbenzamide cyclohexane solvate"
_symmetry_cell_setting           monoclinic
_symmetry_space_group_name_H-M   'P 21/c'
_symmetry_Int_Tables_number      14
_space_group_name_Hall           '-P 2ybc'
loop_
_symmetry_equiv_pos_site_id
_symmetry_equiv_pos_as_xyz
1 x,y,z
2 -x,1/2+y,1/2-z
3 -x,-y,-z
4 x,1/2-y,1/2+z
_cell_length_a                   23.5417(12)
_cell_length_b                   16.6120(8)
_cell_length_c                   9.1741(5)
_cell_angle_alpha                90
_cell_angle_beta                 100.111(2)
_cell_angle_gamma                90
_cell_volume                     3532.04
_exptl_crystal_colour            'dark purple'
_exptl_crystal_description       platelet
_cell_formula_units_Z            4
loop_
_atom_site_label
_atom_site_type_symbol
_atom_site_fract_x
_atom_site_fract_y
_atom_site_fract_z
C1 C 0.62873(14) 0.54355(17) 0.0320(3)
H1 H 0.590656 0.563056 -0.000074
C2 C 0.67795(14) 0.57232(18) -0.0147(3)
H2 H 0.679584 0.614510 -0.083757
C3 C 0.72373(12) 0.52849(16) 0.0574(3)
H3 H 0.762952 0.534920 0.047332
C4 C 0.70240(10) 0.47242(15) 0.1489(3)
C5 C 0.73180(10) 0.41309(14) 0.2434(3)
C6 C 0.70358(10) 0.35803(14) 0.3218(3)
C7 C 0.72663(11) 0.29433(16) 0.4193(3)
H4 H 0.766098 0.279449 0.444621
C8 C 0.68186(11) 0.25927(17) 0.4686(3)
H5 H 0.683799 0.214489 0.533699
C9 C 0.63127(10) 0.30198(15) 0.4048(3)
C10 C 0.79543(10) 0.41041(15) 0.2609(3)
C11 C 0.82781(11) 0.47860(16) 0.3112(3)
H6 H 0.808683 0.527048 0.328910
C12 C 0.88717(11) 0.47617(18) 0.3354(3)
H7 H 0.908238 0.523207 0.370120
C13 C 0.91703(12) 0.40733(19) 0.3106(4)
C14 C 0.88478(13) 0.34073(19) 0.2572(4)
H8 H 0.904137 0.293104 0.236005
C15 C 0.82527(12) 0.34144(18) 0.2338(4)
H9 H 0.804469 0.294242 0.198809
C16 C 0.98198(13) 0.4068(3) 0.3410(5)
H10 H 0.996405 0.451841 0.288815
H11 H 0.995993 0.356003 0.306309
H12 H 0.995822 0.412381 0.447681
C17 C 0.57329(10) 0.29332(14) 0.4289(3)
C18 C 0.54703(10) 0.23527(15) 0.5070(3)
H13 H 0.564870 0.188645 0.554544
C19 C 0.49040(10) 0.25891(15) 0.5013(3)
H14 H 0.461948 0.231042 0.543400
C20 C 0.48254(9) 0.33151(14) 0.4223(2)
C21 C 0.43549(9) 0.38640(14) 0.4007(2)
C22 C 0.43763(10) 0.46340(14) 0.3442(2)
C23 C 0.39424(11) 0.52408(15) 0.3224(3)
H15 H 0.356364 0.519706 0.344060
C24 C 0.41701(13) 0.58924(16) 0.2648(3)
H16 H 0.398307 0.639163 0.238550
C25 C 0.47424(12) 0.56819(16) 0.2515(3)
H17 H 0.500122 0.603221 0.213921
C26 C 0.38086(9) 0.35866(14) 0.4447(2)
C27 C 0.35194(9) 0.29173(14) 0.3769(2)
H18 H 0.368661 0.261759 0.307050
C28 C 0.29924(9) 0.26811(14) 0.4097(2)
H19 H 0.279760 0.222922 0.360837
C29 C 0.27471(9) 0.31032(13) 0.5138(2)
C30 C 0.30491(10) 0.37505(14) 0.5870(2)
H20 H 0.289449 0.402917 0.661575
C31 C 0.35701(10) 0.39903(15) 0.5521(3)
H21 H 0.376812 0.443657 0.602180
C32 C 0.21707(9) 0.29052(14) 0.5525(2)
C33 C 0.12576(10) 0.21720(16) 0.4703(3)
C34 C 0.09055(11) 0.25980(19) 0.5492(3)
H22 H 0.103995 0.307960 0.599565
C35 C 0.03590(13) 0.2316(2) 0.5538(4)
H23 H 0.011971 0.260256 0.609138
C36 C 0.01542(14) 0.1631(3) 0.4801(4)
H24 H -0.022785 0.145203 0.481758
C37 C 0.05076(14) 0.1204(2) 0.4037(4)
H25 H 0.037176 0.072236 0.353542
C38 C 0.10612(12) 0.1475(2) 0.3997(3)
H26 H 0.130534 0.117525 0.347629
N1 N 0.64349(9) 0.48406(13) 0.1292(2)
H27 H 0.619472 0.456643 0.173707
N2 N 0.64442(8) 0.36039(12) 0.3156(2)
N3 N 0.53374(8) 0.34982(12) 0.3785(2)
H28 H 0.539838 0.392080 0.325475
N4 N 0.48720(9) 0.49440(13) 0.2974(2)
N5 N 0.18225(8) 0.24332(13) 0.4575(2)
H29 H 0.195711 0.226771 0.378984
O1 O 0.20316(7) 0.31825(10) 0.66611(17)
C39 C 0.1359(2) 0.4550(2) 0.2807(5)
H30 H 0.139173 0.452383 0.389656
H31 H 0.112286 0.408709 0.237474
C40 C 0.1058(2) 0.5336(3) 0.2237(10)
H32 H 0.095505 0.530688 0.114440
H33 H 0.069379 0.538264 0.263245
C41 C 0.1399(3) 0.6056(3) 0.2634(11)
H34 H 0.143504 0.615467 0.371026
H35 H 0.120035 0.652521 0.210501
C42 C 0.2034(3) 0.5966(3) 0.2212(6)
H36 H 0.200909 0.596260 0.112343
H37 H 0.228367 0.641940 0.262816
C43 C 0.22656(18) 0.5212(4) 0.2840(7)
H38 H 0.234766 0.526614 0.393160
H39 H 0.263707 0.510989 0.250788
C44 C 0.18848(17) 0.4500(2) 0.2451(5)
H40 H 0.184043 0.440897 0.137032
H41 H 0.208108 0.402135 0.294976
loop_
_geom_bond_atom_site_label_1
_geom_bond_atom_site_label_2
_geom_bond_site_symmetry_1
_geom_bond_site_symmetry_2
C1 H1 1_555 1_555
C2 C1 1_555 1_555
H2 C2 1_555 1_555
C3 C2 1_555 1_555
H3 C3 1_555 1_555
C4 C3 1_555 1_555
C5 C4 1_555 1_555
C6 C5 1_555 1_555
C7 C6 1_555 1_555
H4 C7 1_555 1_555
C8 C7 1_555 1_555
H5 C8 1_555 1_555
C9 C8 1_555 1_555
C10 C5 1_555 1_555
C11 C10 1_555 1_555
H6 C11 1_555 1_555
C12 C11 1_555 1_555
H7 C12 1_555 1_555
C13 C12 1_555 1_555
C14 C13 1_555 1_555
H8 C14 1_555 1_555
C15 C10 1_555 1_555
H9 C15 1_555 1_555
C16 C13 1_555 1_555
H10 C16 1_555 1_555
H11 C16 1_555 1_555
H12 C16 1_555 1_555
C17 C9 1_555 1_555
C18 C17 1_555 1_555
H13 C18 1_555 1_555
C19 C18 1_555 1_555
H14 C19 1_555 1_555
C20 C19 1_555 1_555
C21 C20 1_555 1_555
C22 C21 1_555 1_555
C23 C22 1_555 1_555
H15 C23 1_555 1_555
C24 C23 1_555 1_555
H16 C24 1_555 1_555
C25 C24 1_555 1_555
H17 C25 1_555 1_555
C26 C21 1_555 1_555
C27 C26 1_555 1_555
H18 C27 1_555 1_555
C28 C27 1_555 1_555
H19 C28 1_555 1_555
C29 C28 1_555 1_555
C30 C29 1_555 1_555
H20 C30 1_555 1_555
C31 C26 1_555 1_555
H21 C31 1_555 1_555
C32 C29 1_555 1_555
C33 C34 1_555 1_555
C34 H22 1_555 1_555
C35 C34 1_555 1_555
H23 C35 1_555 1_555
C36 C35 1_555 1_555
H24 C36 1_555 1_555
C37 C36 1_555 1_555
H25 C37 1_555 1_555
C38 C33 1_555 1_555
H26 C38 1_555 1_555
N1 C1 1_555 1_555
H27 N1 1_555 1_555
N2 C6 1_555 1_555
N3 C17 1_555 1_555
H28 N3 1_555 1_555
N4 C22 1_555 1_555
N5 C32 1_555 1_555
H29 N5 1_555 1_555
O1 C32 1_555 1_555
C39 H30 1_555 1_555
H31 C39 1_555 1_555
C40 C39 1_555 1_555
H32 C40 1_555 1_555
H33 C40 1_555 1_555
C41 C40 1_555 1_555
H34 C41 1_555 1_555
H35 C41 1_555 1_555
C42 C41 1_555 1_555
H36 C42 1_555 1_555
H37 C42 1_555 1_555
C43 C42 1_555 1_555
H38 C43 1_555 1_555
H39 C43 1_555 1_555
C44 C39 1_555 1_555
H40 C44 1_555 1_555
H41 C44 1_555 1_555
C4 N1 1_555 1_555
C9 N2 1_555 1_555
C14 C15 1_555 1_555
C20 N3 1_555 1_555
C25 N4 1_555 1_555
C30 C31 1_555 1_555
C33 N5 1_555 1_555
C37 C38 1_555 1_555
C43 C44 1_555 1_555

#END
