
#######################################################################
#
#                 Cambridge Crystallographic Data Centre
#                                CCDC 
#
#######################################################################
#
# If this CIF has been generated from an entry in the Cambridge 
# Structural Database, then it will include bibliographic, chemical, 
# crystal, experimental, refinement or atomic coordinate data resulting 
# from the CCDC's data processing and validation procedures.
#
#######################################################################

data_XEYZUX
_chemical_formula_moiety         'C7 H7 N2 1+,C7 H5 O6 S1 1-,3(H2 O1)'
_chemical_name_systematic        
'Benzimidazolium 3-carboxy-4-hydroxybenzenesulfonate trihydrate'
_symmetry_cell_setting           monoclinic
_symmetry_space_group_name_H-M   'P 21/c'
_symmetry_Int_Tables_number      14
_space_group_name_Hall           '-P 2ybc'
loop_
_symmetry_equiv_pos_site_id
_symmetry_equiv_pos_as_xyz
1 x,y,z
2 -x,1/2+y,1/2-z
3 -x,-y,-z
4 x,1/2-y,1/2+z
_cell_length_a                   13.8416(12)
_cell_length_b                   7.4582(6)
_cell_length_c                   16.9000(14)
_cell_angle_alpha                90
_cell_angle_beta                 104.4810(10)
_cell_angle_gamma                90
_cell_volume                     1689.22
_exptl_crystal_colour            colorless
_exptl_crystal_description       block
_cell_formula_units_Z            4
_exptl_crystal_recrystallization_method aqueous
loop_
_atom_site_label
_atom_site_type_symbol
_atom_site_fract_x
_atom_site_fract_y
_atom_site_fract_z
S1 S 0.67492(3) 0.71136(6) 0.22883(2)
O1 O 0.61554(10) 0.87910(19) -0.08164(7)
H3 H 0.6172(17) 0.888(3) -0.1300(7)
O2 O 0.45883(10) 0.81364(19) -0.14648(7)
O3 O 0.33700(10) 0.6996(2) -0.06283(9)
H4 H 0.352(2) 0.731(3) -0.1073(18)
O4 O 0.76666(9) 0.70079(19) 0.20260(8)
O5 O 0.66498(10) 0.87575(17) 0.27086(7)
O6 O 0.66119(9) 0.55558(16) 0.27752(6)
C8 C 0.51114(13) 0.7632(2) -0.00370(10)
C9 C 0.41716(13) 0.7014(2) 0.00188(11)
C10 C 0.40501(13) 0.6399(3) 0.07630(11)
H16 H 0.3431 0.5969 0.0797
C11 C 0.48277(13) 0.6416(2) 0.14483(10)
H17 H 0.4734 0.6013 0.1945
C12 C 0.57609(12) 0.7040(2) 0.13971(10)
C13 C 0.59021(13) 0.7631(2) 0.06609(10)
H18 H 0.6528 0.8030 0.0630
C14 C 0.52503(14) 0.8206(2) -0.08382(10)
N1 N 0.90573(12) 0.3668(2) 0.55418(10)
H1 H 0.9020(14) 0.411(3) 0.6004(8)
N2 N 0.86461(12) 0.2822(2) 0.42761(10)
H2 H 0.8308(15) 0.264(3) 0.3790(8)
C1 C 0.83305(15) 0.3577(3) 0.48670(12)
H11 H 0.7684 0.3990 0.4817
C2 C 0.99085(14) 0.2927(2) 0.53838(11)
C3 C 1.08643(15) 0.2672(3) 0.58706(12)
H12 H 1.1040 0.3024 0.6416
C4 C 1.15403(15) 0.1874(3) 0.55111(13)
H13 H 1.2189 0.1681 0.5819
C5 C 1.12745(15) 0.1345(3) 0.46895(12)
H14 H 1.1755 0.0820 0.4465
C6 C 1.03264(15) 0.1579(2) 0.42061(11)
H15 H 1.0150 0.1213 0.3663
C7 C 0.96471(14) 0.2388(2) 0.45681(11)
O7 O 0.09486(12) 0.5998(3) 0.77426(12)
H5 H 0.1401(14) 0.523(2) 0.7795(16)
H6 H 0.1186(18) 0.6994(17) 0.7668(19)
O8 O 0.90228(12) 0.5036(2) 0.70370(9)
H7 H 0.9597(8) 0.551(3) 0.7227(13)
H8 H 0.8624(11) 0.585(2) 0.7093(14)
O9 O 0.74307(10) 0.21700(19) 0.27721(9)
H9 H 0.7133(14) 0.1190(15) 0.2691(14)
H10 H 0.6979(13) 0.2970(19) 0.2700(16)
loop_
_geom_bond_atom_site_label_1
_geom_bond_atom_site_label_2
_geom_bond_site_symmetry_1
_geom_bond_site_symmetry_2
S1 O4 1_555 1_555
N1 H1 1_555 1_555
N2 H2 1_555 1_555
O1 H3 1_555 1_555
O2 C14 1_555 1_555
O3 H4 1_555 1_555
O5 S1 1_555 1_555
O6 S1 1_555 1_555
O7 H5 1_555 1_555
H6 O7 1_555 1_555
O8 H7 1_555 1_555
H8 O8 1_555 1_555
O9 H9 1_555 1_555
H10 O9 1_555 1_555
C1 N1 1_555 1_555
H11 C1 1_555 1_555
C2 N1 1_555 1_555
C3 C2 1_555 1_555
H12 C3 1_555 1_555
C4 C3 1_555 1_555
H13 C4 1_555 1_555
C5 C4 1_555 1_555
H14 C5 1_555 1_555
C6 C5 1_555 1_555
H15 C6 1_555 1_555
C7 N2 1_555 1_555
C8 C9 1_555 1_555
C9 O3 1_555 1_555
C10 C9 1_555 1_555
H16 C10 1_555 1_555
C11 C10 1_555 1_555
H17 C11 1_555 1_555
C12 S1 1_555 1_555
C13 C8 1_555 1_555
H18 C13 1_555 1_555
C14 O1 1_555 1_555
N2 C1 1_555 1_555
C2 C7 1_555 1_555
C6 C7 1_555 1_555
C8 C14 1_555 1_555
C11 C12 1_555 1_555
C12 C13 1_555 1_555

#END
