
#######################################################################
#
#                 Cambridge Crystallographic Data Centre
#                                CCDC 
#
#######################################################################
#
# If this CIF has been generated from an entry in the Cambridge 
# Structural Database, then it will include bibliographic, chemical, 
# crystal, experimental, refinement or atomic coordinate data resulting 
# from the CCDC's data processing and validation procedures.
#
#######################################################################

data_XEZKAR
_chemical_formula_moiety         'C16 H18 N2 O4 S2'
_chemical_name_systematic        
1,2-bis((4-methylphenyl)sulfonyl)-1,2-diazetidine
_symmetry_cell_setting           tetragonal
_symmetry_space_group_name_H-M   'P 41 21 2'
_symmetry_Int_Tables_number      92
_space_group_name_Hall           'P 4abw 2nw'
loop_
_symmetry_equiv_pos_site_id
_symmetry_equiv_pos_as_xyz
1 x,y,z
2 -x,-y,1/2+z
3 1/2-y,1/2+x,1/4+z
4 1/2+y,1/2-x,3/4+z
5 1/2-x,1/2+y,1/4-z
6 1/2+x,1/2-y,3/4-z
7 y,x,-z
8 -y,-x,1/2-z
_cell_length_a                   10.9173(6)
_cell_length_b                   10.9173(6)
_cell_length_c                   15.0401(10)
_cell_angle_alpha                90
_cell_angle_beta                 90
_cell_angle_gamma                90
_cell_volume                     1792.59
_exptl_crystal_colour            colorless
_exptl_crystal_description       prism
_cell_formula_units_Z            4
loop_
_atom_site_label
_atom_site_type_symbol
_atom_site_fract_x
_atom_site_fract_y
_atom_site_fract_z
S1 S 0.71352(7) 0.18778(7) 0.86789(5)
O1 O 0.8300(2) 0.13171(19) 0.85446(14)
O2 O 0.6115(2) 0.1165(2) 0.89674(15)
N1 N 0.6698(2) 0.2412(2) 0.76767(16)
C1 C 0.5705(3) 0.3361(3) 0.7661(2)
H1 H 0.5360 0.3548 0.8254
H2 H 0.5047 0.3188 0.7226
C2 C 0.7305(3) 0.3145(3) 0.93835(19)
C3 C 0.8384(3) 0.3814(3) 0.9372(2)
H3 H 0.9027 0.3595 0.8977
C4 C 0.8518(3) 0.4799(3) 0.9937(2)
H4 H 0.9260 0.5253 0.9934
C5 C 0.7578(4) 0.5136(4) 1.0513(3)
C6 C 0.6498(3) 0.4457(4) 1.0505(2)
H5 H 0.5850 0.4679 1.0895
C7 C 0.6349(3) 0.3474(3) 0.9945(2)
H6 H 0.5603 0.3026 0.9941
C8 C 0.7729(4) 0.6207(4) 1.1134(3)
H7 H 0.6939 0.6621 1.1209
H8 H 0.8325 0.6783 1.0885
H9 H 0.8020 0.5915 1.1713
S1G S 0.81222(7) 0.28648(7) 0.63211(5)
O1G O 0.86829(19) 0.1700(2) 0.64554(14)
O2G O 0.8835(2) 0.3885(2) 0.60326(15)
N1G N 0.7588(2) 0.3302(2) 0.73233(16)
C1G C 0.6639(3) 0.4295(3) 0.7339(2)
H1G H 0.6452 0.4640 0.6746
H2G H 0.6812 0.4953 0.7774
C2G C 0.6855(3) 0.2695(3) 0.56165(19)
C3G C 0.6186(3) 0.1616(3) 0.5628(2)
H3G H 0.6405 0.0973 0.6023
C4G C 0.5201(3) 0.1482(3) 0.5063(2)
H4G H 0.4747 0.0740 0.5066
C5G C 0.4864(4) 0.2422(4) 0.4487(3)
C6G C 0.5543(4) 0.3502(3) 0.4495(2)
H5G H 0.5321 0.4150 0.4105
C7G C 0.6526(3) 0.3651(3) 0.5055(2)
H6G H 0.6974 0.4397 0.5059
C8G C 0.3793(4) 0.2271(4) 0.3866(3)
H7G H 0.3379 0.3061 0.3791
H8G H 0.3217 0.1675 0.4115
H9G H 0.4085 0.1980 0.3287
loop_
_geom_bond_atom_site_label_1
_geom_bond_atom_site_label_2
_geom_bond_site_symmetry_1
_geom_bond_site_symmetry_2
S1 O1 1_555 1_555
O2 S1 1_555 1_555
N1 S1 1_555 1_555
C1 N1 1_555 1_555
H1 C1 1_555 1_555
H2 C1 1_555 1_555
C2 S1 1_555 1_555
C3 C2 1_555 1_555
H3 C3 1_555 1_555
C4 C3 1_555 1_555
H4 C4 1_555 1_555
C5 C4 1_555 1_555
C6 C5 1_555 1_555
H5 C6 1_555 1_555
C7 C2 1_555 1_555
H6 C7 1_555 1_555
C8 C5 1_555 1_555
H7 C8 1_555 1_555
H8 C8 1_555 1_555
H9 C8 1_555 1_555
S1G O1G 1_555 1_555
O2G S1G 1_555 1_555
N1G N1 1_555 1_555
C1G C1 1_555 1_555
H1G C1G 1_555 1_555
H2G C1G 1_555 1_555
C2G S1G 1_555 1_555
C3G C2G 1_555 1_555
H3G C3G 1_555 1_555
C4G C3G 1_555 1_555
H4G C4G 1_555 1_555
C5G C4G 1_555 1_555
C6G C5G 1_555 1_555
H5G C6G 1_555 1_555
C7G C2G 1_555 1_555
H6G C7G 1_555 1_555
C8G C5G 1_555 1_555
H7G C8G 1_555 1_555
H8G C8G 1_555 1_555
H9G C8G 1_555 1_555
C6 C7 1_555 1_555
S1G N1G 1_555 1_555
N1G C1G 1_555 1_555
C6G C7G 1_555 1_555

#END
