
#######################################################################
#
#                 Cambridge Crystallographic Data Centre
#                                CCDC 
#
#######################################################################
#
# If this CIF has been generated from an entry in the Cambridge 
# Structural Database, then it will include bibliographic, chemical, 
# crystal, experimental, refinement or atomic coordinate data resulting 
# from the CCDC's data processing and validation procedures.
#
#######################################################################

data_XEZZAG
_chemical_formula_moiety         'C32 H36 B10'
_chemical_name_systematic        
'1,2-bis(9,9-dimethyl-9H-fluoren-2-yl)-1,2-dicarba-closo-dodecaborane unknown solvate'
_symmetry_cell_setting           orthorhombic
_symmetry_space_group_name_H-M   'I m a 2'
_symmetry_Int_Tables_number      46
_space_group_name_Hall           'I 2 -2a'
loop_
_symmetry_equiv_pos_site_id
_symmetry_equiv_pos_as_xyz
1 x,y,z
2 -x,-y,z
3 1/2-x,y,z
4 1/2+x,-y,z
5 1/2+x,1/2+y,1/2+z
6 1/2-x,1/2-y,1/2+z
7 -x,1/2+y,1/2+z
8 x,1/2-y,1/2+z
_cell_length_a                   20.507(3)
_cell_length_b                   19.526(2)
_cell_length_c                   8.7548(10)
_cell_angle_alpha                90
_cell_angle_beta                 90
_cell_angle_gamma                90
_cell_volume                     3505.59
_exptl_crystal_colour            colorless
_exptl_crystal_description       plate
_cell_formula_units_Z            4
loop_
_atom_site_label
_atom_site_type_symbol
_atom_site_fract_x
_atom_site_fract_y
_atom_site_fract_z
C1 C -0.29211(10) 0.07698(10) 0.0927(3)
C2 C -0.32885(9) 0.03300(10) -0.0186(2)
C3 C -0.33742(12) 0.05332(13) -0.1701(3)
H1 H -0.3170 0.0929 -0.2051
C4 C -0.37580(12) 0.01555(13) -0.2692(3)
H2 H -0.3807 0.0292 -0.3703
C5 C -0.40695(11) -0.04315(11) -0.2155(3)
C6 C -0.45362(12) -0.08983(12) -0.2885(3)
C7 C -0.47822(14) -0.09132(15) -0.4373(3)
H3 H -0.4635 -0.0606 -0.5108
C8 C -0.52526(14) -0.14006(14) -0.4723(4)
H4 H -0.5425 -0.1419 -0.5704
C9 C -0.54661(15) -0.18556(15) -0.3633(4)
H5 H -0.5789 -0.2171 -0.3883
C10 C -0.52100(14) -0.18529(13) -0.2171(4)
H6 H -0.5352 -0.2168 -0.1448
C11 C -0.47384(12) -0.13724(13) -0.1802(3)
C12 C -0.43980(12) -0.12631(12) -0.0273(3)
C13 C -0.39864(11) -0.06321(11) -0.0639(3)
C14 C -0.35925(11) -0.02624(11) 0.0333(3)
H7 H -0.3530 -0.0409 0.1333
C15 C -0.39637(17) -0.18793(15) 0.0134(5)
H8 H -0.3662 -0.1964 -0.0684
H9 H -0.3726 -0.1782 0.1054
H10 H -0.4232 -0.2277 0.0286
C16 C -0.48817(17) -0.11139(19) 0.0995(4)
H11 H -0.4651 -0.1048 0.1938
H12 H -0.5123 -0.0707 0.0751
H13 H -0.5177 -0.1492 0.1097
B1 B -0.2500 0.14817(17) 0.0290(5)
H14 H -0.2500 0.1646 -0.0912
B2 B -0.32001(12) 0.15608(14) 0.1462(3)
H15 H -0.3656 0.1785 0.1030
B3 B -0.32016(12) 0.08656(14) 0.2770(3)
H16 H -0.3658 0.0637 0.3192
B4 B -0.2500 0.03636(19) 0.2379(4)
H17 H -0.2500 -0.0196 0.2523
B5 B -0.2500 0.2070(2) 0.1821(5)
H18 H -0.2500 0.2627 0.1631
B6 B -0.29360(14) 0.16834(15) 0.3372(3)
H19 H -0.3218 0.1991 0.4191
B7 B -0.2500 0.0932(2) 0.3953(5)
H20 H -0.2500 0.0748 0.5141
C1B C -0.20789(10) 0.07698(10) 0.0927(3)
C2B C -0.17115(9) 0.03300(10) -0.0186(2)
C3B C -0.16258(12) 0.05332(13) -0.1701(3)
H1B H -0.1830 0.0929 -0.2051
C4B C -0.12420(12) 0.01555(13) -0.2692(3)
H2B H -0.1193 0.0292 -0.3703
C5B C -0.09305(11) -0.04315(11) -0.2155(3)
C6B C -0.04638(12) -0.08983(12) -0.2885(3)
C7B C -0.02178(14) -0.09132(15) -0.4373(3)
H3B H -0.0365 -0.0606 -0.5108
C8B C 0.02526(14) -0.14006(14) -0.4723(4)
H4B H 0.0425 -0.1419 -0.5704
C9B C 0.04661(15) -0.18556(15) -0.3633(4)
H5B H 0.0789 -0.2171 -0.3883
C10B C 0.02100(14) -0.18529(13) -0.2171(4)
H6B H 0.0352 -0.2168 -0.1448
C11B C -0.02616(12) -0.13724(13) -0.1802(3)
C12B C -0.06020(12) -0.12631(12) -0.0273(3)
C13B C -0.10136(11) -0.06321(11) -0.0639(3)
C14B C -0.14075(11) -0.02624(11) 0.0333(3)
H7B H -0.1470 -0.0409 0.1333
C15B C -0.10363(17) -0.18793(15) 0.0134(5)
H8B H -0.1338 -0.1964 -0.0684
H9B H -0.1274 -0.1782 0.1054
H10B H -0.0768 -0.2277 0.0286
C16B C -0.01183(17) -0.11139(19) 0.0995(4)
H11B H -0.0349 -0.1048 0.1938
H12B H 0.0123 -0.0707 0.0751
H13B H 0.0177 -0.1492 0.1097
B2B B -0.17999(12) 0.15608(14) 0.1462(3)
H15B H -0.1344 0.1785 0.1030
B3B B -0.17984(12) 0.08656(14) 0.2770(3)
H16B H -0.1342 0.0637 0.3192
B6B B -0.20640(14) 0.16834(15) 0.3372(3)
H19B H -0.1782 0.1991 0.4191
loop_
_geom_bond_atom_site_label_1
_geom_bond_atom_site_label_2
_geom_bond_site_symmetry_1
_geom_bond_site_symmetry_2
C1 C2 1_555 1_555
C2 C3 1_555 1_555
C3 H1 1_555 1_555
C4 C3 1_555 1_555
H2 C4 1_555 1_555
C5 C4 1_555 1_555
C6 C5 1_555 1_555
C7 C6 1_555 1_555
H3 C7 1_555 1_555
C8 C7 1_555 1_555
H4 C8 1_555 1_555
C9 C8 1_555 1_555
H5 C9 1_555 1_555
C10 C9 1_555 1_555
H6 C10 1_555 1_555
C11 C6 1_555 1_555
C12 C11 1_555 1_555
C13 C5 1_555 1_555
C14 C2 1_555 1_555
H7 C14 1_555 1_555
C15 C12 1_555 1_555
H8 C15 1_555 1_555
H9 C15 1_555 1_555
H10 C15 1_555 1_555
C16 C12 1_555 1_555
H11 C16 1_555 1_555
H12 C16 1_555 1_555
H13 C16 1_555 1_555
B1 C1 1_555 1_555
H14 B1 1_555 1_555
B2 C1 1_555 1_555
H15 B2 1_555 1_555
B3 C1 1_555 1_555
H16 B3 1_555 1_555
B4 C1 1_555 1_555
H17 B4 1_555 1_555
B5 B1 1_555 1_555
H18 B5 1_555 1_555
B6 B2 1_555 1_555
H19 B6 1_555 1_555
B7 B3 1_555 1_555
H20 B7 1_555 1_555
C1B C1 1_555 1_555
C2B C1B 1_555 1_555
C3B C2B 1_555 1_555
H1B C3B 1_555 1_555
C4B C3B 1_555 1_555
H2B C4B 1_555 1_555
C5B C4B 1_555 1_555
C6B C5B 1_555 1_555
C7B C6B 1_555 1_555
H3B C7B 1_555 1_555
C8B C7B 1_555 1_555
H4B C8B 1_555 1_555
C9B C8B 1_555 1_555
H5B C9B 1_555 1_555
C10B C9B 1_555 1_555
H6B C10B 1_555 1_555
C11B C6B 1_555 1_555
C12B C11B 1_555 1_555
C13B C5B 1_555 1_555
C14B C2B 1_555 1_555
H7B C14B 1_555 1_555
C15B C12B 1_555 1_555
H8B C15B 1_555 1_555
H9B C15B 1_555 1_555
H10B C15B 1_555 1_555
C16B C12B 1_555 1_555
H11B C16B 1_555 1_555
H12B C16B 1_555 1_555
H13B C16B 1_555 1_555
B2B B1 1_555 1_555
H15B B2B 1_555 1_555
B3B B4 1_555 1_555
H16B B3B 1_555 1_555
B6B B5 1_555 1_555
H19B B6B 1_555 1_555
C10 C11 1_555 1_555
C12 C13 1_555 1_555
C13 C14 1_555 1_555
B1 B2 1_555 1_555
B1 C1B 1_555 1_555
B2 B3 1_555 1_555
B2 B5 1_555 1_555
B3 B4 1_555 1_555
B3 B6 1_555 1_555
B4 B7 1_555 1_555
B4 C1B 1_555 1_555
B5 B6 1_555 1_555
B5 B2B 1_555 1_555
B6 B7 1_555 1_555
B6 B6B 1_555 1_555
B7 B3B 1_555 1_555
B7 B6B 1_555 1_555
C1B B2B 1_555 1_555
C1B B3B 1_555 1_555
C10B C11B 1_555 1_555
C12B C13B 1_555 1_555
C13B C14B 1_555 1_555
B2B B3B 1_555 1_555
B2B B6B 1_555 1_555
B3B B6B 1_555 1_555

#END
