
#######################################################################
#
#                 Cambridge Crystallographic Data Centre
#                                CCDC 
#
#######################################################################
#
# If this CIF has been generated from an entry in the Cambridge 
# Structural Database, then it will include bibliographic, chemical, 
# crystal, experimental, refinement or atomic coordinate data resulting 
# from the CCDC's data processing and validation procedures.
#
#######################################################################

data_XIBJOI
_chemical_name_common            
'bis(Anthracene-9-carbaldehyde)thiocarbohydrazone tetrahydrofuran solvate'
_chemical_formula_moiety         'C31 H22 N4 S1,C4 H8 O1'
_chemical_name_systematic        
'1,5-bis(9-Anthracylidene)thiocarbonohydrazide tetrahydrofuran solvate'
_symmetry_cell_setting           triclinic
_symmetry_space_group_name_H-M   'P -1'
_symmetry_Int_Tables_number      2
_space_group_name_Hall           '-P 1'
loop_
_symmetry_equiv_pos_site_id
_symmetry_equiv_pos_as_xyz
1 x,y,z
2 -x,-y,-z
_cell_length_a                   9.026(2)
_cell_length_b                   10.722(3)
_cell_length_c                   15.894(4)
_cell_angle_alpha                78.664(3)
_cell_angle_beta                 74.134(4)
_cell_angle_gamma                80.434(4)
_cell_volume                     1440.36
_exptl_crystal_colour            'light yellow'
_exptl_crystal_description       prism
_chemical_melting_point          '212-214 deg.C'
_cell_formula_units_Z            2
_exptl_crystal_preparation       chemosensor
loop_
_atom_site_label
_atom_site_type_symbol
_atom_site_fract_x
_atom_site_fract_y
_atom_site_fract_z
S1 S 0.49876(6) 0.84574(5) 0.11654(3)
N1 N 0.2533(2) 0.82071(16) 0.28757(11)
N2 N 0.23238(19) 0.92608(15) 0.22449(10)
H1 H 0.1509 0.9806 0.2354
N3 N 0.17104(17) 1.13472(14) 0.11839(10)
N4 N 0.30370(17) 1.05273(14) 0.09163(10)
H2 H 0.3651 1.0702 0.0401
C1 C 0.0366(2) 1.45556(17) 0.10812(11)
C2 C 0.1838(2) 1.4928(2) 0.10131(13)
H3 H 0.2729 1.4368 0.0843
C3 C 0.1966(3) 1.6089(2) 0.11929(15)
H4 H 0.2941 1.6314 0.1143
C4 C 0.0637(3) 1.6952(2) 0.14540(17)
H5 H 0.0740 1.7738 0.1582
C5 C -0.0779(3) 1.6648(2) 0.15198(15)
H6 H -0.1645 1.7235 0.1685
C6 C -0.0979(2) 1.54492(18) 0.13416(12)
C7 C -0.2429(2) 1.51191(19) 0.14111(13)
H7 H -0.3298 1.5702 0.1579
C8 C -0.2632(2) 1.39506(19) 0.12390(13)
C9 C -0.4130(3) 1.3634(2) 0.13021(16)
H8 H -0.4997 1.4214 0.1477
C10 C -0.4313(3) 1.2515(3) 0.11137(18)
H9 H -0.5303 1.2327 0.1159
C11 C -0.3018(3) 1.1621(2) 0.08479(17)
H10 H -0.3161 1.0854 0.0709
C12 C -0.1568(3) 1.1865(2) 0.07924(14)
H11 H -0.0729 1.1257 0.0623
C13 C -0.1305(2) 1.30336(17) 0.09894(12)
C14 C 0.0178(2) 1.33478(16) 0.09260(11)
C15 C 0.1569(2) 1.24218(17) 0.06938(12)
H12 H 0.2346 1.2628 0.0185
C16 C 0.3367(2) 0.94452(17) 0.14700(12)
C17 C 0.1501(3) 0.8163(2) 0.35855(14)
H13 H 0.0704 0.8837 0.3624
C18 C 0.1420(3) 0.7159(2) 0.43628(14)
C19 C 0.0211(3) 0.7394(3) 0.51258(15)
C20 C -0.0839(3) 0.8532(3) 0.51807(17)
H14 H -0.0763 0.9168 0.4685
C21 C -0.1954(4) 0.8730(4) 0.5931(2)
H15 H -0.2609 0.9497 0.5943
C22 C -0.2120(5) 0.7782(6) 0.6684(2)
H16 H -0.2895 0.7913 0.7193
C23 C -0.1161(5) 0.6688(5) 0.6671(2)
H17 H -0.1279 0.6067 0.7175
C24 C 0.0034(4) 0.6448(4) 0.59053(17)
C25 C 0.1046(5) 0.5330(4) 0.5895(2)
H18 H 0.0916 0.4712 0.6401
C26 C 0.2240(5) 0.5086(3) 0.5169(2)
C27 C 0.3314(7) 0.3956(3) 0.5197(3)
H19 H 0.3198 0.3362 0.5716
C28 C 0.4477(7) 0.3722(3) 0.4507(3)
H20 H 0.5156 0.2970 0.4545
C29 C 0.4685(6) 0.4612(3) 0.3715(2)
H21 H 0.5505 0.4446 0.3234
C30 C 0.3701(4) 0.5707(3) 0.36507(19)
H22 H 0.3847 0.6273 0.3119
C31 C 0.2449(4) 0.6014(2) 0.43739(17)
C32 C 0.7832(4) 0.1197(3) 0.3301(2)
H23 H 0.7840 0.1930 0.2833
H24 H 0.8155 0.1432 0.3777
C33 C 0.6290(5) 0.0780(5) 0.3624(4)
H25 H 0.5999 0.0639 0.4266
H26 H 0.5536 0.1435 0.3415
C34 C 0.6309(5) -0.0371(4) 0.3309(4)
H27 H 0.5640 -0.0241 0.2907
H28 H 0.5958 -0.1040 0.3798
C35 C 0.7915(5) -0.0718(3) 0.2850(2)
H29 H 0.8269 -0.1588 0.3085
H30 H 0.8001 -0.0670 0.2223
O1 O 0.8829(2) 0.0139(2) 0.29748(14)
loop_
_geom_bond_atom_site_label_1
_geom_bond_atom_site_label_2
_geom_bond_site_symmetry_1
_geom_bond_site_symmetry_2
S1 C16 1_555 1_555
N1 N2 1_555 1_555
N2 H1 1_555 1_555
N3 N4 1_555 1_555
N4 H2 1_555 1_555
C1 C2 1_555 1_555
C2 H3 1_555 1_555
C3 C2 1_555 1_555
H4 C3 1_555 1_555
C4 C3 1_555 1_555
H5 C4 1_555 1_555
C5 C4 1_555 1_555
H6 C5 1_555 1_555
C6 C1 1_555 1_555
C7 C6 1_555 1_555
H7 C7 1_555 1_555
C8 C7 1_555 1_555
C9 C8 1_555 1_555
H8 C9 1_555 1_555
C10 C9 1_555 1_555
H9 C10 1_555 1_555
C11 C10 1_555 1_555
H10 C11 1_555 1_555
C12 C11 1_555 1_555
H11 C12 1_555 1_555
C13 C8 1_555 1_555
C14 C1 1_555 1_555
C15 N3 1_555 1_555
H12 C15 1_555 1_555
C16 N2 1_555 1_555
C17 N1 1_555 1_555
H13 C17 1_555 1_555
C18 C17 1_555 1_555
C19 C18 1_555 1_555
C20 C19 1_555 1_555
H14 C20 1_555 1_555
C21 C20 1_555 1_555
H15 C21 1_555 1_555
C22 C21 1_555 1_555
H16 C22 1_555 1_555
C23 C22 1_555 1_555
H17 C23 1_555 1_555
C24 C19 1_555 1_555
C25 C24 1_555 1_555
H18 C25 1_555 1_555
C26 C25 1_555 1_555
C27 C26 1_555 1_555
H19 C27 1_555 1_555
C28 C27 1_555 1_555
H20 C28 1_555 1_555
C29 C28 1_555 1_555
H21 C29 1_555 1_555
C30 C29 1_555 1_555
H22 C30 1_555 1_555
C31 C18 1_555 1_555
C32 H23 1_555 1_555
H24 C32 1_555 1_555
C33 C32 1_555 1_555
H25 C33 1_555 1_555
H26 C33 1_555 1_555
C34 C33 1_555 1_555
H27 C34 1_555 1_555
H28 C34 1_555 1_555
C35 C34 1_555 1_555
H29 C35 1_555 1_555
H30 C35 1_555 1_555
O1 C32 1_555 1_555
N4 C16 1_555 1_555
C5 C6 1_555 1_555
C12 C13 1_555 1_555
C13 C14 1_555 1_555
C14 C15 1_555 1_555
C23 C24 1_555 1_555
C26 C31 1_555 1_555
C30 C31 1_555 1_555
C35 O1 1_555 1_555

#END
