
#######################################################################
#
#                 Cambridge Crystallographic Data Centre
#                                CCDC 
#
#######################################################################
#
# If this CIF has been generated from an entry in the Cambridge 
# Structural Database, then it will include bibliographic, chemical, 
# crystal, experimental, refinement or atomic coordinate data resulting 
# from the CCDC's data processing and validation procedures.
#
#######################################################################

data_XIBVIQ
_chemical_formula_moiety         'C51 H77 As1 K1 O3'
_chemical_name_systematic        
'(\h^5^-9-((2,4,6-tri-t-butylphenyl)arsanyl)-2,7-di-t-butyl-9H-fluorenylidene radical)-tris(tetrahydrofuran)-potassium unknown solvate'
_symmetry_cell_setting           orthorhombic
_symmetry_space_group_name_H-M   'P b c n'
_symmetry_Int_Tables_number      60
_space_group_name_Hall           '-P 2n 2ab'
loop_
_symmetry_equiv_pos_site_id
_symmetry_equiv_pos_as_xyz
1 x,y,z
2 1/2-x,1/2-y,1/2+z
3 1/2+x,1/2-y,-z
4 -x,y,1/2-z
5 -x,-y,-z
6 1/2+x,1/2+y,1/2-z
7 1/2-x,1/2+y,z
8 x,-y,1/2+z
_cell_length_a                   31.4182(17)
_cell_length_b                   17.7500(10)
_cell_length_c                   19.1112(10)
_cell_angle_alpha                90
_cell_angle_beta                 90
_cell_angle_gamma                90
_cell_volume                     10657.8
_exptl_crystal_colour            green
_exptl_crystal_description       rod
_cell_formula_units_Z            8
loop_
_atom_site_label
_atom_site_type_symbol
_atom_site_fract_x
_atom_site_fract_y
_atom_site_fract_z
As1 As 0.32469(2) 0.33713(2) 0.35360(2)
C1 C 0.11766(19) 0.3825(4) 0.4080(4)
H1 H 0.109949 0.386936 0.457504
H2 H 0.091769 0.377634 0.379760
H3 H 0.133374 0.427527 0.393413
C2 C 0.14544(13) 0.3132(2) 0.3976(2)
C3 C 0.15612(16) 0.3094(3) 0.3196(3)
H4 H 0.172222 0.354399 0.306151
H5 H 0.129720 0.306956 0.292419
H6 H 0.173272 0.264372 0.310350
C4 C 0.12033(19) 0.2415(4) 0.4146(3)
H7 H 0.138145 0.197273 0.405403
H8 H 0.094774 0.239305 0.385295
H9 H 0.112028 0.242059 0.464041
C5 C 0.18475(12) 0.3186(2) 0.4445(2)
C6 C 0.17917(13) 0.3185(2) 0.5182(2)
H10 H 0.151243 0.315860 0.537125
C7 C 0.21378(13) 0.3222(2) 0.5632(2)
H11 H 0.209387 0.322325 0.612401
C8 C 0.25461(12) 0.3257(2) 0.53662(19)
C9 C 0.26149(12) 0.32708(19) 0.46203(18)
C10 C 0.22538(12) 0.3234(2) 0.4182(2)
H12 H 0.229296 0.324226 0.368908
C11 C 0.29656(12) 0.3256(2) 0.56918(19)
C12 C 0.32767(12) 0.32845(19) 0.51453(18)
C13 C 0.30620(12) 0.3296(2) 0.44750(18)
C14 C 0.30934(14) 0.3226(2) 0.63886(19)
H13 H 0.288719 0.320108 0.675147
C15 C 0.35219(13) 0.3232(2) 0.6549(2)
H14 H 0.360724 0.321592 0.702538
C16 C 0.38355(12) 0.3261(2) 0.60235(19)
C17 C 0.37087(12) 0.3285(2) 0.53258(19)
H15 H 0.391807 0.330310 0.496748
C18 C 0.43122(14) 0.3295(3) 0.6194(2)
C19 C 0.44014(17) 0.3189(4) 0.6979(2)
H16 H 0.426231 0.359238 0.724389
H17 H 0.470903 0.320612 0.706176
H18 H 0.428954 0.270024 0.713148
C20 C 0.44866(16) 0.4066(3) 0.5956(3)
H19 H 0.443429 0.413099 0.545358
H20 H 0.479330 0.408935 0.604636
H21 H 0.434281 0.446881 0.621526
C21 C 0.45520(14) 0.2674(3) 0.5801(2)
H22 H 0.444938 0.217993 0.595664
H23 H 0.485732 0.271614 0.589800
H24 H 0.450249 0.272774 0.529731
C22 C 0.38836(11) 0.3346(2) 0.35829(17)
C23 C 0.41276(12) 0.4025(2) 0.36663(17)
C24 C 0.45647(12) 0.3964(2) 0.37600(18)
H25 H 0.472214 0.441464 0.383294
C25 C 0.47848(12) 0.3290(2) 0.37539(18)
C26 C 0.45525(12) 0.2650(2) 0.36132(19)
H26 H 0.469878 0.218274 0.358224
C27 C 0.41102(12) 0.2655(2) 0.35133(18)
C28 C 0.39387(12) 0.4831(2) 0.36453(19)
C29 C 0.52726(13) 0.3287(2) 0.3844(2)
C30 C 0.38997(13) 0.1887(2) 0.3321(2)
C31 C 0.42881(14) 0.5444(2) 0.3663(2)
H27 H 0.415672 0.594188 0.361623
H28 H 0.448706 0.536231 0.327487
H29 H 0.444230 0.541510 0.410757
C32 C 0.36529(13) 0.4985(2) 0.4279(2)
H30 H 0.354374 0.550101 0.425464
H31 H 0.381823 0.492092 0.470994
H32 H 0.341404 0.462950 0.427819
C33 C 0.36996(13) 0.4963(2) 0.2955(2)
H33 H 0.344826 0.463698 0.293724
H34 H 0.388757 0.484601 0.256051
H35 H 0.361036 0.549162 0.292652
C34 C 0.53979(13) 0.3716(3) 0.4512(2)
H36 H 0.526771 0.347212 0.491924
H37 H 0.529754 0.423773 0.447972
H38 H 0.570829 0.371212 0.456299
C35 C 0.54743(14) 0.3683(3) 0.3212(2)
H39 H 0.578438 0.369213 0.326655
H40 H 0.536692 0.420060 0.318179
H41 H 0.540034 0.341014 0.278280
C36 C 0.54519(15) 0.2488(3) 0.3900(3)
H42 H 0.533320 0.224000 0.431457
H43 H 0.576256 0.251148 0.394122
H44 H 0.537494 0.220105 0.348079
C37 C 0.36514(15) 0.1948(3) 0.2626(2)
H45 H 0.352595 0.145733 0.251146
H46 H 0.384586 0.210024 0.225058
H47 H 0.342484 0.232352 0.267383
C38 C 0.42331(16) 0.1265(3) 0.3193(3)
H48 H 0.439687 0.118071 0.362268
H49 H 0.442581 0.142021 0.281679
H50 H 0.408855 0.079708 0.305936
C39 C 0.36139(15) 0.1613(3) 0.3917(3)
H51 H 0.349135 0.112799 0.379094
H52 H 0.378505 0.153649 0.433464
H53 H 0.339755 0.196449 0.400424
C40 C 0.3576(3) 0.1079(5) 0.6384(4)
H54 H 0.383321 0.140027 0.640413
H55 H 0.333604 0.135947 0.659567
C41 C 0.3646(4) 0.0409(6) 0.6749(5)
H56 H 0.342349 0.034318 0.711168
H57 H 0.392623 0.042650 0.698448
C42 C 0.3633(3) -0.0203(4) 0.6271(4)
H58 H 0.343495 -0.059808 0.643695
H59 H 0.391965 -0.042766 0.621488
C43 C 0.3485(3) 0.0117(4) 0.5610(4)
H60 H 0.367845 -0.003279 0.522521
H61 H 0.319606 -0.007072 0.550122
C44 C 0.2417(2) 0.1244(3) 0.3347(3)
H62 H 0.256015 0.173421 0.326954
H63 H 0.210566 0.132657 0.334092
C45 C 0.25395(19) 0.0705(3) 0.2795(3)
H64 H 0.275318 0.093251 0.247835
H65 H 0.228766 0.055743 0.251570
C46 C 0.2720(2) 0.0045(3) 0.3158(3)
H66 H 0.303313 0.002894 0.310008
H67 H 0.259764 -0.042739 0.296928
C47 C 0.26054(18) 0.0140(3) 0.3904(3)
H68 H 0.234047 -0.013854 0.401225
H69 H 0.283590 -0.005194 0.420864
C48 C 0.21949(18) 0.1323(3) 0.6560(3)
H70 H 0.227674 0.186081 0.654071
H71 H 0.227096 0.111996 0.702611
C49 C 0.17344(18) 0.1233(4) 0.6427(3)
H72 H 0.163083 0.160938 0.608480
H73 H 0.156798 0.127907 0.686460
C50 C 0.1709(2) 0.0450(5) 0.6135(3)
H74 H 0.165180 0.007955 0.651111
H75 H 0.148012 0.041311 0.577994
C51 C 0.2126(2) 0.0317(4) 0.5818(4)
H76 H 0.224132 -0.017259 0.597674
H77 H 0.210019 0.030565 0.530210
K1 K 0.28549(4) 0.16778(6) 0.50915(6)
O1 O 0.34802(15) 0.0894(2) 0.5678(2)
O2 O 0.24013(11) 0.0912(2) 0.6026(2)
O3 O 0.25458(12) 0.09299(19) 0.4010(2)
loop_
_geom_bond_atom_site_label_1
_geom_bond_atom_site_label_2
_geom_bond_site_symmetry_1
_geom_bond_site_symmetry_2
As1 C13 1_555 1_555
C1 H1 1_555 1_555
H2 C1 1_555 1_555
H3 C1 1_555 1_555
C2 C1 1_555 1_555
C3 C2 1_555 1_555
H4 C3 1_555 1_555
H5 C3 1_555 1_555
H6 C3 1_555 1_555
C4 C2 1_555 1_555
H7 C4 1_555 1_555
H8 C4 1_555 1_555
H9 C4 1_555 1_555
C5 C2 1_555 1_555
C6 C5 1_555 1_555
H10 C6 1_555 1_555
C7 C6 1_555 1_555
H11 C7 1_555 1_555
C8 C7 1_555 1_555
C9 C8 1_555 1_555
C10 C5 1_555 1_555
H12 C10 1_555 1_555
C11 C8 1_555 1_555
C12 C11 1_555 1_555
C13 C9 1_555 1_555
C14 C11 1_555 1_555
H13 C14 1_555 1_555
C15 C14 1_555 1_555
H14 C15 1_555 1_555
C16 C15 1_555 1_555
C17 C12 1_555 1_555
H15 C17 1_555 1_555
C18 C16 1_555 1_555
C19 C18 1_555 1_555
H16 C19 1_555 1_555
H17 C19 1_555 1_555
H18 C19 1_555 1_555
C20 C18 1_555 1_555
H19 C20 1_555 1_555
H20 C20 1_555 1_555
H21 C20 1_555 1_555
C21 C18 1_555 1_555
H22 C21 1_555 1_555
H23 C21 1_555 1_555
H24 C21 1_555 1_555
C22 As1 1_555 1_555
C23 C22 1_555 1_555
C24 C23 1_555 1_555
H25 C24 1_555 1_555
C25 C24 1_555 1_555
C26 C25 1_555 1_555
H26 C26 1_555 1_555
C27 C22 1_555 1_555
C28 C23 1_555 1_555
C29 C25 1_555 1_555
C30 C27 1_555 1_555
C31 C28 1_555 1_555
H27 C31 1_555 1_555
H28 C31 1_555 1_555
H29 C31 1_555 1_555
C32 C28 1_555 1_555
H30 C32 1_555 1_555
H31 C32 1_555 1_555
H32 C32 1_555 1_555
C33 C28 1_555 1_555
H33 C33 1_555 1_555
H34 C33 1_555 1_555
H35 C33 1_555 1_555
C34 C29 1_555 1_555
H36 C34 1_555 1_555
H37 C34 1_555 1_555
H38 C34 1_555 1_555
C35 C29 1_555 1_555
H39 C35 1_555 1_555
H40 C35 1_555 1_555
H41 C35 1_555 1_555
C36 C29 1_555 1_555
H42 C36 1_555 1_555
H43 C36 1_555 1_555
H44 C36 1_555 1_555
C37 C30 1_555 1_555
H45 C37 1_555 1_555
H46 C37 1_555 1_555
H47 C37 1_555 1_555
C38 C30 1_555 1_555
H48 C38 1_555 1_555
H49 C38 1_555 1_555
H50 C38 1_555 1_555
C39 C30 1_555 1_555
H51 C39 1_555 1_555
H52 C39 1_555 1_555
H53 C39 1_555 1_555
C40 H54 1_555 1_555
H55 C40 1_555 1_555
C41 C40 1_555 1_555
H56 C41 1_555 1_555
H57 C41 1_555 1_555
C42 C41 1_555 1_555
H58 C42 1_555 1_555
H59 C42 1_555 1_555
C43 C42 1_555 1_555
H60 C43 1_555 1_555
H61 C43 1_555 1_555
C44 H62 1_555 1_555
H63 C44 1_555 1_555
C45 C44 1_555 1_555
H64 C45 1_555 1_555
H65 C45 1_555 1_555
C46 C45 1_555 1_555
H66 C46 1_555 1_555
H67 C46 1_555 1_555
C47 C46 1_555 1_555
H68 C47 1_555 1_555
H69 C47 1_555 1_555
C48 H70 1_555 1_555
H71 C48 1_555 1_555
C49 C48 1_555 1_555
H72 C49 1_555 1_555
H73 C49 1_555 1_555
C50 C49 1_555 1_555
H74 C50 1_555 1_555
H75 C50 1_555 1_555
C51 C50 1_555 1_555
H76 C51 1_555 1_555
H77 C51 1_555 1_555
K1 C8 1_555 1_555
O1 C40 1_555 1_555
O2 C48 1_555 1_555
O3 C44 1_555 1_555
C9 C10 1_555 1_555
C9 K1 1_555 1_555
C11 K1 1_555 1_555
C12 C13 1_555 1_555
C12 K1 1_555 1_555
C13 K1 1_555 1_555
C16 C17 1_555 1_555
C26 C27 1_555 1_555
C43 O1 1_555 1_555
C47 O3 1_555 1_555
C51 O2 1_555 1_555
K1 O1 1_555 1_555
K1 O2 1_555 1_555
K1 O3 1_555 1_555

#END
