
#######################################################################
#
#                 Cambridge Crystallographic Data Centre
#                                CCDC 
#
#######################################################################
#
# If this CIF has been generated from an entry in the Cambridge 
# Structural Database, then it will include bibliographic, chemical, 
# crystal, experimental, refinement or atomic coordinate data resulting 
# from the CCDC's data processing and validation procedures.
#
#######################################################################

data_XIBWOV
_chemical_formula_moiety         'C21 H17 N1 O4'
_chemical_name_systematic        
'1-Benzamido-2-(2-furyl)-3-phenylcyclopropanecarboxylic acid'
_symmetry_cell_setting           monoclinic
_symmetry_space_group_name_H-M   'P 21/n'
_symmetry_Int_Tables_number      14
_space_group_name_Hall           '-P 2yn'
loop_
_symmetry_equiv_pos_site_id
_symmetry_equiv_pos_as_xyz
1 x,y,z
2 1/2-x,1/2+y,1/2-z
3 -x,-y,-z
4 1/2+x,1/2-y,1/2+z
_cell_length_a                   9.134(2)
_cell_length_b                   10.641(3)
_cell_length_c                   17.696(5)
_cell_angle_alpha                90
_cell_angle_beta                 98.04(2)
_cell_angle_gamma                90
_cell_volume                     1703.05
_exptl_crystal_colour            colorless
_exptl_crystal_description       block
_cell_formula_units_Z            4
_exptl_crystal_recrystallization_method 'dichloromethane-ethyl acetate'
loop_
_atom_site_label
_atom_site_type_symbol
_atom_site_fract_x
_atom_site_fract_y
_atom_site_fract_z
O1 O 0.12980(14) 0.18381(12) 0.74206(7)
O2 O 0.61743(15) 0.49091(12) 0.69260(7)
O3 O 0.65878(16) 0.15595(13) 0.81600(7)
O4 O 0.63647(16) 0.17160(14) 0.68908(8)
N1 N 0.42613(18) 0.35769(16) 0.68463(9)
C1 C 0.4666(2) 0.6395(2) 0.57247(12)
H1 H 0.5505 0.6738 0.6009
C2 C 0.3937(3) 0.7053(2) 0.51076(14)
H2 H 0.4280 0.7842 0.4990
C3 C 0.2731(3) 0.6563(3) 0.46736(13)
H3 H 0.2260 0.7007 0.4257
C4 C 0.2216(3) 0.5421(3) 0.48508(13)
H4 H 0.1387 0.5081 0.4557
C5 C 0.2928(3) 0.4763(2) 0.54695(12)
H5 H 0.2570 0.3979 0.5587
C6 C 0.4160(2) 0.52463(18) 0.59176(10)
C7 C 0.4962(2) 0.45752(18) 0.65923(10)
C8 C 0.4802(2) 0.29543(17) 0.75480(10)
C9 C 0.36108(19) 0.26244(18) 0.80545(10)
H6 H 0.3813 0.1870 0.8370
C10 C 0.4629(2) 0.36961(18) 0.82647(10)
H7 H 0.4144 0.4508 0.8146
C11 C 0.5997(2) 0.20313(18) 0.74898(12)
C12 C 0.2048(2) 0.28434(19) 0.77655(11)
C13 C 0.1147(2) 0.3833(2) 0.77355(13)
H8 H 0.1393 0.4633 0.7924
C14 C -0.0264(2) 0.3440(2) 0.73621(13)
H9 H -0.1116 0.3926 0.7264
C15 C -0.0115(2) 0.2245(2) 0.71838(12)
H10 H -0.0867 0.1748 0.6932
C16 C 0.5729(2) 0.37547(18) 0.89739(11)
C17 C 0.5379(2) 0.3344(2) 0.96626(12)
H11 H 0.4471 0.2962 0.9686
C18 C 0.6378(3) 0.3499(2) 1.03234(13)
H12 H 0.6131 0.3225 1.0789
C19 C 0.7717(3) 0.4049(3) 1.02947(14)
H13 H 0.8389 0.4142 1.0737
C20 C 0.8062(3) 0.4465(2) 0.96078(14)
H14 H 0.8970 0.4847 0.9585
C21 C 0.7076(2) 0.4320(2) 0.89531(12)
H15 H 0.7323 0.4607 0.8491
H16 H 0.741(3) 0.097(2) 0.8087(12)
H17 H 0.337(2) 0.3400(19) 0.6641(11)
loop_
_geom_bond_atom_site_label_1
_geom_bond_atom_site_label_2
_geom_bond_site_symmetry_1
_geom_bond_site_symmetry_2
O1 C12 1_555 1_555
O2 C7 1_555 1_555
O3 C11 1_555 1_555
O4 C11 1_555 1_555
N1 C7 1_555 1_555
C1 H1 1_555 1_555
C2 C1 1_555 1_555
H2 C2 1_555 1_555
C3 C2 1_555 1_555
H3 C3 1_555 1_555
C4 C3 1_555 1_555
H4 C4 1_555 1_555
C5 C4 1_555 1_555
H5 C5 1_555 1_555
C6 C1 1_555 1_555
C7 C6 1_555 1_555
C8 N1 1_555 1_555
C9 C8 1_555 1_555
H6 C9 1_555 1_555
C10 C8 1_555 1_555
H7 C10 1_555 1_555
C11 C8 1_555 1_555
C12 C9 1_555 1_555
C13 C12 1_555 1_555
H8 C13 1_555 1_555
C14 C13 1_555 1_555
H9 C14 1_555 1_555
C15 O1 1_555 1_555
H10 C15 1_555 1_555
C16 C10 1_555 1_555
C17 C16 1_555 1_555
H11 C17 1_555 1_555
C18 C17 1_555 1_555
H12 C18 1_555 1_555
C19 C18 1_555 1_555
H13 C19 1_555 1_555
C20 C19 1_555 1_555
H14 C20 1_555 1_555
C21 C16 1_555 1_555
H15 C21 1_555 1_555
H16 O3 1_555 1_555
H17 N1 1_555 1_555
C5 C6 1_555 1_555
C9 C10 1_555 1_555
C14 C15 1_555 1_555
C20 C21 1_555 1_555

#END
