
#######################################################################
#
#                 Cambridge Crystallographic Data Centre
#                                CCDC 
#
#######################################################################
#
# If this CIF has been generated from an entry in the Cambridge 
# Structural Database, then it will include bibliographic, chemical, 
# crystal, experimental, refinement or atomic coordinate data resulting 
# from the CCDC's data processing and validation procedures.
#
#######################################################################

data_XICSAG
_chemical_formula_moiety         'C13 H16 O3'
_chemical_name_systematic        
'[1-(4-methoxyphenyl)bicyclo[1.1.0]butane-2,4-diyl]dimethanol'
_symmetry_cell_setting           monoclinic
_symmetry_space_group_name_H-M   'P 21'
_symmetry_Int_Tables_number      4
_space_group_name_Hall           'P 2yb'
loop_
_symmetry_equiv_pos_site_id
_symmetry_equiv_pos_as_xyz
1 x,y,z
2 -x,1/2+y,-z
_cell_length_a                   5.3738(7)
_cell_length_b                   7.6719(8)
_cell_length_c                   13.7357(19)
_cell_angle_alpha                90
_cell_angle_beta                 98.413(9)
_cell_angle_gamma                90
_cell_volume                     560.192
_exptl_crystal_colour            colorless
_exptl_crystal_description       plate
_cell_formula_units_Z            2
loop_
_atom_site_label
_atom_site_type_symbol
_atom_site_fract_x
_atom_site_fract_y
_atom_site_fract_z
O1 O 0.7508(5) 0.5011(3) 0.36736(16)
O2 O 0.7387(5) 0.8642(3) 0.98004(17)
H1 H 0.659052 0.804310 1.016338
O3 O 0.4616(6) 0.1404(4) 0.8955(2)
H2 H 0.541350 0.056693 0.924591
C1 C 0.5089(6) 0.5402(4) 0.8348(2)
H3 H 0.323911 0.534519 0.811380
C2 C 0.7242(6) 0.5236(4) 0.7760(2)
C3 C 0.7270(5) 0.5031(4) 0.6693(2)
C4 C 0.5515(6) 0.5923(4) 0.6016(2)
H4 H 0.420611 0.656499 0.624600
C5 C 0.5655(6) 0.5886(4) 0.5023(2)
H5 H 0.445320 0.650374 0.457564
C6 C 0.7559(6) 0.4943(4) 0.4672(2)
C7 C 0.9305(6) 0.4044(4) 0.5325(2)
H6 H 1.060058 0.339577 0.508933
C8 C 0.9155(6) 0.4094(4) 0.6330(2)
H7 H 1.036183 0.347692 0.677481
C9 C 0.9497(7) 0.4199(5) 0.3271(3)
H8 H 0.923094 0.434732 0.255498
H9 H 0.953525 0.295404 0.343146
H10 H 1.109896 0.473580 0.354943
C10 C 0.6845(6) 0.6897(4) 0.8316(2)
H11 H 0.611471 0.786934 0.787956
C11 C 0.8634(7) 0.7511(5) 0.9199(2)
H12 H 0.931753 0.649079 0.959148
H13 H 1.005918 0.813725 0.897605
C12 C 0.6941(7) 0.3934(4) 0.8555(2)
H14 H 0.816608 0.402336 0.917512
C13 C 0.6038(8) 0.2131(5) 0.8250(3)
H15 H 0.497725 0.218321 0.759748
H16 H 0.750144 0.137373 0.819225
loop_
_geom_bond_atom_site_label_1
_geom_bond_atom_site_label_2
_geom_bond_site_symmetry_1
_geom_bond_site_symmetry_2
O1 C6 1_555 1_555
O2 H1 1_555 1_555
O3 H2 1_555 1_555
C1 H3 1_555 1_555
C2 C1 1_555 1_555
C3 C2 1_555 1_555
C4 C3 1_555 1_555
H4 C4 1_555 1_555
C5 C4 1_555 1_555
H5 C5 1_555 1_555
C6 C5 1_555 1_555
C7 C6 1_555 1_555
H6 C7 1_555 1_555
C8 C3 1_555 1_555
H7 C8 1_555 1_555
C9 O1 1_555 1_555
H8 C9 1_555 1_555
H9 C9 1_555 1_555
H10 C9 1_555 1_555
C10 C1 1_555 1_555
H11 C10 1_555 1_555
C11 O2 1_555 1_555
H12 C11 1_555 1_555
H13 C11 1_555 1_555
C12 C1 1_555 1_555
H14 C12 1_555 1_555
C13 O3 1_555 1_555
H15 C13 1_555 1_555
H16 C13 1_555 1_555
C2 C10 1_555 1_555
C2 C12 1_555 1_555
C7 C8 1_555 1_555
C10 C11 1_555 1_555
C12 C13 1_555 1_555

#END
