
#######################################################################
#
#                 Cambridge Crystallographic Data Centre
#                                CCDC 
#
#######################################################################
#
# If this CIF has been generated from an entry in the Cambridge 
# Structural Database, then it will include bibliographic, chemical, 
# crystal, experimental, refinement or atomic coordinate data resulting 
# from the CCDC's data processing and validation procedures.
#
#######################################################################

data_XICYIU
_chemical_formula_moiety         'C130 H140 Si2,5.6(C5 H12)'
_chemical_name_systematic        
'1,2-bis(pentacyclo[6.6.6.0^2,7^.0^9,14^.0^15,20^]icosa-2,4,6,9,11,13,15,17,19-nonaen-1-yl)-1,2-bis(5,5,8,8,16,16,19,19,26,26,29,29-dodecamethyloctacyclo[10.10.10.0^2,11^.0^4,9^.0^13,22^.0^15,20^.0^23,32^.0^25,30^]dotriaconta-2(11),3,9,13(22),14,20,23(32),24,30-nonaen-1-yl)disilene n-pentane unknown solvate'
_symmetry_cell_setting           cubic
_symmetry_space_group_name_H-M   'P a -3'
_symmetry_Int_Tables_number      205
_space_group_name_Hall           '-P 2ac 2ab 3'
loop_
_symmetry_equiv_pos_site_id
_symmetry_equiv_pos_as_xyz
1 x,y,z
2 -z,1/2+x,1/2-y
3 1/2+y,1/2-z,-x
4 1/2+x,1/2-y,-z
5 1/2-x,-y,1/2+z
6 1/2+z,1/2-x,-y
7 -y,1/2+z,1/2-x
8 1/2-z,-x,1/2+y
9 1/2-y,-z,1/2+x
10 -x,1/2+y,1/2-z
11 y,z,x
12 z,x,y
13 -x,-y,-z
14 z,1/2-x,1/2+y
15 1/2-y,1/2+z,x
16 1/2-x,1/2+y,z
17 1/2+x,y,1/2-z
18 1/2-z,1/2+x,y
19 y,1/2-z,1/2+x
20 1/2+z,x,1/2-y
21 1/2+y,z,1/2-x
22 x,1/2-y,1/2+z
23 -y,-z,-x
24 -z,-x,-y
_cell_length_a                   44.4170(19)
_cell_length_b                   44.4170(19)
_cell_length_c                   44.4170(19)
_cell_angle_alpha                90
_cell_angle_beta                 90
_cell_angle_gamma                90
_cell_volume                     87629
_exptl_crystal_colour            yellow
_exptl_crystal_description       block
_cell_formula_units_Z            24
_chemical_properties_physical    Moisture-sensitive,Oxygen-sensitive
_exptl_crystal_preparation       
'Unstable single crystals were obtained by on-site crystallization, and measured at Synchrotron SPring-8 BL02B1 in Japan.'
loop_
_atom_site_label
_atom_site_type_symbol
_atom_site_fract_x
_atom_site_fract_y
_atom_site_fract_z
Si1 Si 0.69977(2) 0.84094(2) 0.49693(2)
Si2 Si 0.71177(2) 0.82959(2) 0.54417(2)
C1 C 0.65973(6) 0.85096(6) 0.48317(6)
C2 C 0.73427(5) 0.86167(6) 0.48065(5)
H1 H 0.7291 0.8833 0.4817
H2 H 0.7506 0.8585 0.4955
C3 C 0.75191(5) 0.81298(6) 0.54309(5)
H3 H 0.7490 0.7909 0.5438
H4 H 0.7594 0.8174 0.5226
C4 C 0.68438(5) 0.81494(6) 0.57485(5)
C5 C 0.63432(6) 0.83019(6) 0.49570(6)
C6 C 0.60503(6) 0.83946(7) 0.48754(6)
C7 C 0.58026(6) 0.82464(8) 0.49854(7)
H5 H 0.5606 0.8314 0.4935
C8 C 0.58391(7) 0.79975(8) 0.51709(7)
H6 H 0.5668 0.7902 0.5257
C9 C 0.61251(7) 0.78883(7) 0.52309(6)
H7 H 0.6150 0.7710 0.5346
C10 C 0.63778(6) 0.80413(6) 0.51216(6)
H8 H 0.6574 0.7965 0.5161
C11 C 0.60504(6) 0.86540(7) 0.46552(6)
H9 H 0.5843 0.8709 0.4586
C12 C 0.65457(6) 0.84734(6) 0.44904(6)
C13 C 0.62517(6) 0.85522(6) 0.43989(6)
C14 C 0.61666(7) 0.85190(7) 0.41036(6)
H10 H 0.5969 0.8572 0.4042
C15 C 0.63720(7) 0.84079(7) 0.38955(6)
H11 H 0.6315 0.8388 0.3690
C16 C 0.66577(7) 0.83261(6) 0.39840(6)
H12 H 0.6796 0.8250 0.3840
C17 C 0.67435(6) 0.83553(6) 0.42841(6)
H13 H 0.6939 0.8294 0.4346
C18 C 0.65019(6) 0.88360(6) 0.49060(6)
C19 C 0.62084(6) 0.89119(7) 0.48130(6)
C20 C 0.60919(7) 0.91935(8) 0.48715(7)
H14 H 0.5894 0.9242 0.4807
C21 C 0.62603(8) 0.94037(8) 0.50225(8)
H15 H 0.6177 0.9596 0.5065
C22 C 0.65525(7) 0.93356(7) 0.51132(7)
H16 H 0.6670 0.9483 0.5215
C23 C 0.66717(6) 0.90513(6) 0.50550(6)
H17 H 0.6871 0.9005 0.5118
C24 C 0.74931(5) 0.85741(6) 0.44966(5)
C25 C 0.75155(5) 0.82449(6) 0.43840(6)
C26 C 0.76521(6) 0.82131(6) 0.41005(6)
C27 C 0.76864(6) 0.79331(6) 0.39754(6)
H18 H 0.7784 0.7915 0.3786
C28 C 0.75809(6) 0.76710(6) 0.41188(6)
C29 C 0.76242(8) 0.73664(7) 0.39630(7)
C30 C 0.75674(10) 0.71143(8) 0.41905(9)
H19 H 0.7557 0.6920 0.4082
H20 H 0.7740 0.7104 0.4332
C31 C 0.72847(9) 0.71564(7) 0.43665(9)
H21 H 0.7251 0.6977 0.4494
H22 H 0.7113 0.7172 0.4225
C32 C 0.72911(7) 0.74369(6) 0.45671(7)
C33 C 0.74398(6) 0.77008(6) 0.43984(6)
C34 C 0.74215(6) 0.79866(6) 0.45300(6)
H23 H 0.7341 0.8004 0.4728
C35 C 0.69589(7) 0.75172(7) 0.46384(8)
H24 H 0.6858 0.7341 0.4724
H25 H 0.6856 0.7578 0.4453
H26 H 0.6953 0.7684 0.4783
C36 C 0.74565(7) 0.73758(7) 0.48611(7)
H27 H 0.7659 0.7300 0.4817
H28 H 0.7346 0.7225 0.4978
H29 H 0.7471 0.7563 0.4977
C37 C 0.74200(11) 0.73483(8) 0.36864(9)
H30 H 0.7436 0.7148 0.3596
H31 H 0.7482 0.7501 0.3539
H32 H 0.7211 0.7385 0.3747
C38 C 0.79590(10) 0.73319(9) 0.38619(10)
H33 H 0.8092 0.7359 0.4036
H34 H 0.8006 0.7484 0.3709
H35 H 0.7990 0.7131 0.3777
C39 C 0.77579(6) 0.85079(6) 0.39697(6)
H36 H 0.7859 0.8484 0.3770
C40 C 0.78266(5) 0.86856(5) 0.44881(5)
C41 C 0.79630(6) 0.86465(6) 0.42073(5)
C42 C 0.82577(6) 0.87333(6) 0.41633(6)
H37 H 0.8348 0.8703 0.3972
C43 C 0.84284(6) 0.88649(6) 0.43949(6)
C44 C 0.87582(6) 0.89466(6) 0.43290(6)
C45 C 0.88760(7) 0.91619(8) 0.45735(7)
H38 H 0.9098 0.9176 0.4556
H39 H 0.8792 0.9365 0.4537
C46 C 0.87976(7) 0.90657(8) 0.48833(7)
H40 H 0.8890 0.9208 0.5028
H41 H 0.8886 0.8865 0.4920
C47 C 0.84573(6) 0.90497(6) 0.49439(6)
C48 C 0.82941(5) 0.89041(6) 0.46758(6)
C49 C 0.79911(6) 0.88140(6) 0.47173(5)
H42 H 0.7899 0.8843 0.4908
C50 C 0.83306(7) 0.93653(7) 0.49923(7)
H43 H 0.8369 0.9488 0.4813
H44 H 0.8429 0.9458 0.5167
H45 H 0.8113 0.9353 0.5028
C51 C 0.84148(7) 0.88657(7) 0.52331(6)
H46 H 0.8541 0.8950 0.5393
H47 H 0.8474 0.8656 0.5196
H48 H 0.8203 0.8873 0.5294
C52 C 0.89483(7) 0.86620(8) 0.43160(8)
H49 H 0.8934 0.8555 0.4509
H50 H 0.9159 0.8716 0.4277
H51 H 0.8874 0.8532 0.4154
C53 C 0.87907(7) 0.91141(8) 0.40284(7)
H52 H 0.8731 0.8981 0.3863
H53 H 0.9001 0.9176 0.4001
H54 H 0.8661 0.9293 0.4029
C54 C 0.74850(6) 0.87170(6) 0.39582(6)
C55 C 0.73821(6) 0.88681(6) 0.37093(6)
H55 H 0.7471 0.8830 0.3519
C56 C 0.71466(6) 0.90784(6) 0.37319(6)
C57 C 0.70314(6) 0.92210(6) 0.34380(6)
C58 C 0.67773(10) 0.94458(10) 0.35032(8)
H56 H 0.6769 0.9595 0.3338
H57 H 0.6583 0.9336 0.3504
C59 C 0.68093(11) 0.96100(10) 0.37936(10)
H58 H 0.6647 0.9761 0.3811
H59 H 0.7004 0.9718 0.3796
C60 C 0.67944(6) 0.93946(6) 0.40626(6)
C61 C 0.70262(6) 0.91417(6) 0.40146(6)
C62 C 0.71253(6) 0.89729(6) 0.42644(6)
H60 H 0.7035 0.9007 0.4455
C63 C 0.73488(5) 0.87601(6) 0.42400(5)
C64 C 0.68940(8) 0.95974(8) 0.43280(10)
H61 H 0.6772 0.9781 0.4330
H62 H 0.7107 0.9651 0.4304
H63 H 0.6867 0.9488 0.4518
C65 C 0.64923(7) 0.92675(8) 0.41456(10)
H64 H 0.6348 0.9432 0.4171
H65 H 0.6509 0.9155 0.4335
H66 H 0.6423 0.9132 0.3986
C66 C 0.68965(7) 0.89699(7) 0.32435(7)
H67 H 0.6803 0.9058 0.3064
H68 H 0.6744 0.8860 0.3360
H69 H 0.7056 0.8831 0.3182
C67 C 0.72870(7) 0.93696(8) 0.32654(7)
H70 H 0.7438 0.9218 0.3213
H71 H 0.7380 0.9525 0.3391
H72 H 0.7208 0.9462 0.3081
C68 C 0.77876(5) 0.81918(6) 0.56400(5)
C69 C 0.80967(5) 0.81075(5) 0.54954(6)
C70 C 0.83417(5) 0.81582(5) 0.56881(5)
C71 C 0.86294(5) 0.80925(5) 0.55961(6)
H73 H 0.8792 0.8126 0.5731
C72 C 0.86883(5) 0.79765(5) 0.53053(6)
C73 C 0.90169(6) 0.79108(6) 0.52203(6)
C74 C 0.90247(6) 0.77016(7) 0.49465(6)
H74 H 0.9233 0.7692 0.4868
H75 H 0.8966 0.7496 0.5010
C75 C 0.88153(6) 0.78065(7) 0.46961(6)
H76 H 0.8841 0.7673 0.4519
H77 H 0.8873 0.8013 0.4635
C76 C 0.84843(6) 0.78057(6) 0.47905(6)
C77 C 0.84462(5) 0.79317(5) 0.51094(6)
C78 C 0.81515(6) 0.79957(6) 0.52118(6)
H78 H 0.7986 0.7960 0.5081
C79 C 0.83090(6) 0.79988(7) 0.45614(6)
H79 H 0.8363 0.7937 0.4357
H80 H 0.8360 0.8211 0.4590
H81 H 0.8092 0.7971 0.4592
C80 C 0.83618(7) 0.74807(6) 0.47787(7)
H82 H 0.8485 0.7351 0.4907
H83 H 0.8369 0.7407 0.4571
H84 H 0.8153 0.7478 0.4850
C81 C 0.91776(6) 0.82110(7) 0.51461(7)
H85 H 0.9386 0.8170 0.5087
H86 H 0.9176 0.8341 0.5324
H87 H 0.9072 0.8312 0.4981
C82 C 0.91884(6) 0.77604(7) 0.54796(6)
H88 H 0.9078 0.7582 0.5547
H89 H 0.9208 0.7903 0.5647
H90 H 0.9389 0.7701 0.5410
C83 C 0.82556(5) 0.82858(6) 0.59930(5)
H91 H 0.8433 0.8321 0.6128
C84 C 0.80283(6) 0.80662(5) 0.61231(6)
C85 C 0.77881(5) 0.80018(6) 0.59336(5)
C86 C 0.75947(6) 0.77700(6) 0.60110(6)
H92 H 0.7436 0.7717 0.5878
C87 C 0.76290(6) 0.76097(6) 0.62841(6)
C88 C 0.74298(6) 0.73344(6) 0.63453(6)
C89 C 0.75812(7) 0.71413(6) 0.65890(7)
H93 H 0.7446 0.6973 0.6644
H94 H 0.7769 0.7054 0.6507
C90 C 0.76542(7) 0.73208(7) 0.68668(7)
H95 H 0.7734 0.7183 0.7023
H96 H 0.7467 0.7412 0.6946
C91 C 0.78859(6) 0.75709(6) 0.68073(6)
C92 C 0.78499(6) 0.77023(6) 0.64874(6)
C93 C 0.80521(6) 0.79277(6) 0.64002(6)
H97 H 0.8208 0.7986 0.6534
C94 C 0.78426(9) 0.78238(7) 0.70387(7)
H98 H 0.7846 0.7739 0.7242
H99 H 0.7649 0.7923 0.7004
H100 H 0.8005 0.7971 0.7018
C95 C 0.82031(7) 0.74429(7) 0.68440(7)
H101 H 0.8233 0.7379 0.7053
H102 H 0.8351 0.7598 0.6793
H103 H 0.8228 0.7270 0.6710
C96 C 0.73955(7) 0.71390(6) 0.60622(7)
H104 H 0.7281 0.7250 0.5910
H105 H 0.7289 0.6953 0.6114
H106 H 0.7595 0.7090 0.5982
C97 C 0.71160(6) 0.74290(7) 0.64506(7)
H107 H 0.7134 0.7565 0.6624
H108 H 0.7001 0.7250 0.6509
H109 H 0.7012 0.7533 0.6286
C98 C 0.78336(5) 0.85237(6) 0.57339(5)
C99 C 0.80801(5) 0.85703(6) 0.59260(5)
C100 C 0.81450(6) 0.88525(6) 0.60328(6)
H110 H 0.8314 0.8879 0.6161
C101 C 0.79689(6) 0.91038(6) 0.59589(6)
C102 C 0.80559(7) 0.94108(6) 0.60913(7)
C103 C 0.77849(9) 0.96301(8) 0.60695(9)
H111 H 0.7635 0.9577 0.6226
H112 H 0.7855 0.9838 0.6110
C104 C 0.76391(8) 0.96219(7) 0.57727(8)
H113 H 0.7789 0.9682 0.5619
H114 H 0.7476 0.9773 0.5770
C105 C 0.75065(6) 0.93157(6) 0.56836(6)
C106 C 0.77260(6) 0.90623(6) 0.57624(6)
C107 C 0.76681(5) 0.87734(6) 0.56496(5)
H115 H 0.7509 0.8748 0.5509
C108 C 0.72077(7) 0.92577(8) 0.58451(9)
H116 H 0.7123 0.9066 0.5776
H117 H 0.7067 0.9421 0.5800
H118 H 0.7242 0.9248 0.6063
C109 C 0.74424(7) 0.93266(7) 0.53440(7)
H119 H 0.7633 0.9342 0.5234
H120 H 0.7317 0.9502 0.5298
H121 H 0.7337 0.9143 0.5283
C110 C 0.81223(9) 0.93834(8) 0.64322(8)
H122 H 0.8310 0.9272 0.6462
H123 H 0.7957 0.9276 0.6531
H124 H 0.8142 0.9585 0.6520
C111 C 0.83378(8) 0.95248(8) 0.59408(8)
H125 H 0.8301 0.9549 0.5725
H126 H 0.8501 0.9380 0.5972
H127 H 0.8394 0.9719 0.6028
C112 C 0.69642(6) 0.82041(6) 0.60686(6)
C113 C 0.67747(6) 0.80935(6) 0.62958(6)
C114 C 0.68460(6) 0.81446(6) 0.65948(6)
H128 H 0.6717 0.8071 0.6749
C115 C 0.71056(6) 0.83028(6) 0.66695(6)
H129 H 0.7157 0.8332 0.6875
C116 C 0.72897(6) 0.84186(6) 0.64454(6)
H130 H 0.7465 0.8529 0.6497
C117 C 0.72153(6) 0.83715(6) 0.61466(6)
H131 H 0.7338 0.8455 0.5993
C118 C 0.64892(6) 0.79453(6) 0.61756(6)
H132 H 0.6355 0.7868 0.6339
C119 C 0.65323(6) 0.83054(6) 0.57631(6)
C120 C 0.63408(6) 0.81871(6) 0.59855(6)
C121 C 0.60508(6) 0.82937(7) 0.60195(6)
H133 H 0.5921 0.8209 0.6167
C122 C 0.59508(7) 0.85272(8) 0.58360(7)
H134 H 0.5750 0.8598 0.5854
C123 C 0.61413(6) 0.86549(7) 0.56291(6)
H135 H 0.6074 0.8819 0.5509
C124 C 0.64359(6) 0.85440(6) 0.55937(6)
H136 H 0.6568 0.8635 0.5452
C125 C 0.67747(6) 0.78068(6) 0.57284(6)
C126 C 0.65796(6) 0.77044(6) 0.59556(6)
C127 C 0.64822(7) 0.74079(7) 0.59563(7)
H137 H 0.6349 0.7340 0.6109
C128 C 0.65795(7) 0.72112(7) 0.57347(8)
H138 H 0.6512 0.7008 0.5735
C129 C 0.67745(7) 0.73099(7) 0.55126(7)
H139 H 0.6842 0.7174 0.5362
C130 C 0.68720(6) 0.76080(6) 0.55105(6)
H140 H 0.7006 0.7675 0.5358
H141? H 0.6860 0.9647 0.3452
H142? H 0.6619 0.9403 0.3352
C131? C 0.6644(4) 0.9478(4) 0.3746(3)
H143? H 0.6455 0.9361 0.3732
H144? H 0.6585 0.9693 0.3758
C132? C 0.4935(6) 0.6856(6) 0.1179(6)
C133? C 0.5050(7) 0.6630(7) 0.0931(7)
C134? C 0.5076(7) 0.6785(7) 0.0634(8)
C135? C 0.4944(5) 0.7517(6) 0.0174(5)
C136? C 0.5325(4) 0.7788(4) 0.0346(4)
C137? C 0.5768(4) 0.8125(5) 0.0485(4)
C138? C 0.4983(11) 0.0798(10) 0.0141(9)
C139? C 0.5268(11) 0.0756(10) 0.0030(9)
C140? C 0.5734(4) 0.4521(4) 0.0477(4)
C141? C 0.0375(11) 0.3026(11) 0.0929(10)
C142? C 0.0504(4) 0.2779(5) 0.0939(4)
C143? C 0.0725(7) 0.2698(8) 0.1197(7)
C144? C 0.1026(9) 0.2460(9) 0.1200(8)
C145? C 0.1285(8) 0.2728(8) 0.1347(8)
C146? C 0.1513(3) 0.3027(3) 0.1461(3)
C147? C 0.1171(3) 0.3015(3) 0.1440(3)
C148? C 0.5600(3) -0.2537(3) 0.1352(3)
C149? C 0.5295(10) -0.2690(10) 0.1380(10)
C150? C 0.4891(7) 0.7135(8) 0.1548(7)
C151? C 0.4651(5) 0.6881(6) 0.1611(5)
C152? C 0.4716(9) 0.6712(9) 0.1459(10)
C153? C 0.4909(9) 0.7070(11) 0.0346(10)
C154? C 0.4916(4) 0.7314(5) 0.0126(4)
C155? C 0.4997(3) 0.7752(4) 0.0143(3)
C156? C 0.5090(15) 0.8182(16) 0.0282(15)
C157? C 0.5461(4) 0.8104(4) 0.0337(4)
C158? C 0.5731(5) 0.7849(5) 0.0558(5)
C159? C 0.5091(10) 0.1313(11) -0.0242(10)
C160? C 0.5319(5) 0.1088(5) -0.0098(4)
C161? C 0.4885(7) 0.0983(7) 0.0012(7)
C162? C 0.4447(6) 0.0858(6) 0.0306(6)
C163? C 0.4204(7) 0.0886(6) 0.0183(6)
C164? C 0.4536(11) 0.1035(9) 0.0026(9)
C165? C 0.5532(9) 0.4728(9) 0.0377(9)
C166? C 0.5766(10) 0.4369(11) 0.0235(11)
C167? C 0.5890(9) 0.4735(9) 0.0043(9)
C168? C 0.6011(4) 0.4687(4) 0.0362(4)
C169? C 0.6161(10) 0.4719(10) -0.0764(10)
C170? C 0.6094(5) 0.4890(4) -0.0520(5)
C171? C 0.6340(14) 0.4801(13) -0.0219(14)
C172? C 0.1296(7) 0.1985(7) 0.1391(7)
C173? C 0.1209(9) 0.1934(8) 0.1011(9)
C174? C 0.0982(7) 0.1996(6) 0.0910(7)
C175? C 0.0987(4) 0.1939(4) 0.0570(4)
C176? C 0.0705(7) 0.1996(7) 0.0504(7)
C177? C 0.1157(12) 0.2869(12) 0.1324(12)
C178? C 0.0996(2) 0.2914(2) 0.1220(2)
C179? C 0.0686(4) 0.2975(4) 0.1195(4)
C180? C 0.1437(3) 0.3147(3) 0.1481(3)
C181? C 0.5073(7) -0.1515(7) 0.1190(8)
C182? C 0.5235(6) -0.1558(6) 0.1465(6)
C183? C 0.5519(11) -0.1513(9) 0.1315(10)
C184? C 0.5148(11) -0.1867(14) 0.1500(11)
C185? C 0.5656(7) -0.2500(7) 0.0873(7)
C186? C 0.5385(9) -0.2243(10) 0.1507(9)
C187? C 0.5359(5) -0.2496(5) 0.1627(5)
loop_
_geom_bond_atom_site_label_1
_geom_bond_atom_site_label_2
_geom_bond_site_symmetry_1
_geom_bond_site_symmetry_2
Si1 Si2 1_555 1_555
Si2 C3 1_555 1_555
C1 Si1 1_555 1_555
C2 Si1 1_555 1_555
H1 C2 1_555 1_555
H2 C2 1_555 1_555
C3 H3 1_555 1_555
H4 C3 1_555 1_555
C4 Si2 1_555 1_555
C5 C1 1_555 1_555
C6 C5 1_555 1_555
C7 C6 1_555 1_555
H5 C7 1_555 1_555
C8 C7 1_555 1_555
H6 C8 1_555 1_555
C9 C8 1_555 1_555
H7 C9 1_555 1_555
C10 C5 1_555 1_555
H8 C10 1_555 1_555
C11 C6 1_555 1_555
H9 C11 1_555 1_555
C12 C1 1_555 1_555
C13 C11 1_555 1_555
C14 C13 1_555 1_555
H10 C14 1_555 1_555
C15 C14 1_555 1_555
H11 C15 1_555 1_555
C16 C15 1_555 1_555
H12 C16 1_555 1_555
C17 C12 1_555 1_555
H13 C17 1_555 1_555
C18 C1 1_555 1_555
C19 C11 1_555 1_555
C20 C19 1_555 1_555
H14 C20 1_555 1_555
C21 C20 1_555 1_555
H15 C21 1_555 1_555
C22 C21 1_555 1_555
H16 C22 1_555 1_555
C23 C18 1_555 1_555
H17 C23 1_555 1_555
C24 C2 1_555 1_555
C25 C24 1_555 1_555
C26 C25 1_555 1_555
C27 C26 1_555 1_555
H18 C27 1_555 1_555
C28 C27 1_555 1_555
C29 C28 1_555 1_555
C30 C29 1_555 1_555
H19 C30 1_555 1_555
H20 C30 1_555 1_555
C31 C30 1_555 1_555
H21 C31 1_555 1_555
H22 C31 1_555 1_555
C32 C31 1_555 1_555
C33 C28 1_555 1_555
C34 C25 1_555 1_555
H23 C34 1_555 1_555
C35 C32 1_555 1_555
H24 C35 1_555 1_555
H25 C35 1_555 1_555
H26 C35 1_555 1_555
C36 C32 1_555 1_555
H27 C36 1_555 1_555
H28 C36 1_555 1_555
H29 C36 1_555 1_555
C37 C29 1_555 1_555
H30 C37 1_555 1_555
H31 C37 1_555 1_555
H32 C37 1_555 1_555
C38 C29 1_555 1_555
H33 C38 1_555 1_555
H34 C38 1_555 1_555
H35 C38 1_555 1_555
C39 C26 1_555 1_555
H36 C39 1_555 1_555
C40 C24 1_555 1_555
C41 C39 1_555 1_555
C42 C41 1_555 1_555
H37 C42 1_555 1_555
C43 C42 1_555 1_555
C44 C43 1_555 1_555
C45 C44 1_555 1_555
H38 C45 1_555 1_555
H39 C45 1_555 1_555
C46 C45 1_555 1_555
H40 C46 1_555 1_555
H41 C46 1_555 1_555
C47 C46 1_555 1_555
C48 C43 1_555 1_555
C49 C40 1_555 1_555
H42 C49 1_555 1_555
C50 C47 1_555 1_555
H43 C50 1_555 1_555
H44 C50 1_555 1_555
H45 C50 1_555 1_555
C51 C47 1_555 1_555
H46 C51 1_555 1_555
H47 C51 1_555 1_555
H48 C51 1_555 1_555
C52 C44 1_555 1_555
H49 C52 1_555 1_555
H50 C52 1_555 1_555
H51 C52 1_555 1_555
C53 C44 1_555 1_555
H52 C53 1_555 1_555
H53 C53 1_555 1_555
H54 C53 1_555 1_555
C54 C39 1_555 1_555
C55 C54 1_555 1_555
H55 C55 1_555 1_555
C56 C55 1_555 1_555
C57 C56 1_555 1_555
C58 C57 1_555 1_555
H56 C58 1_555 1_555
H57 C58 1_555 1_555
C59 C58 1_555 1_555
H58 C59 1_555 1_555
H59 C59 1_555 1_555
C60 C59 1_555 1_555
C61 C56 1_555 1_555
C62 C61 1_555 1_555
H60 C62 1_555 1_555
C63 C24 1_555 1_555
C64 C60 1_555 1_555
H61 C64 1_555 1_555
H62 C64 1_555 1_555
H63 C64 1_555 1_555
C65 C60 1_555 1_555
H64 C65 1_555 1_555
H65 C65 1_555 1_555
H66 C65 1_555 1_555
C66 C57 1_555 1_555
H67 C66 1_555 1_555
H68 C66 1_555 1_555
H69 C66 1_555 1_555
C67 C57 1_555 1_555
H70 C67 1_555 1_555
H71 C67 1_555 1_555
H72 C67 1_555 1_555
C68 C3 1_555 1_555
C69 C68 1_555 1_555
C70 C69 1_555 1_555
C71 C70 1_555 1_555
H73 C71 1_555 1_555
C72 C71 1_555 1_555
C73 C72 1_555 1_555
C74 C73 1_555 1_555
H74 C74 1_555 1_555
H75 C74 1_555 1_555
C75 C74 1_555 1_555
H76 C75 1_555 1_555
H77 C75 1_555 1_555
C76 C75 1_555 1_555
C77 C72 1_555 1_555
C78 C69 1_555 1_555
H78 C78 1_555 1_555
C79 C76 1_555 1_555
H79 C79 1_555 1_555
H80 C79 1_555 1_555
H81 C79 1_555 1_555
C80 C76 1_555 1_555
H82 C80 1_555 1_555
H83 C80 1_555 1_555
H84 C80 1_555 1_555
C81 C73 1_555 1_555
H85 C81 1_555 1_555
H86 C81 1_555 1_555
H87 C81 1_555 1_555
C82 C73 1_555 1_555
H88 C82 1_555 1_555
H89 C82 1_555 1_555
H90 C82 1_555 1_555
C83 C70 1_555 1_555
H91 C83 1_555 1_555
C84 C83 1_555 1_555
C85 C68 1_555 1_555
C86 C85 1_555 1_555
H92 C86 1_555 1_555
C87 C86 1_555 1_555
C88 C87 1_555 1_555
C89 C88 1_555 1_555
H93 C89 1_555 1_555
H94 C89 1_555 1_555
C90 C89 1_555 1_555
H95 C90 1_555 1_555
H96 C90 1_555 1_555
C91 C90 1_555 1_555
C92 C87 1_555 1_555
C93 C84 1_555 1_555
H97 C93 1_555 1_555
C94 C91 1_555 1_555
H98 C94 1_555 1_555
H99 C94 1_555 1_555
H100 C94 1_555 1_555
C95 C91 1_555 1_555
H101 C95 1_555 1_555
H102 C95 1_555 1_555
H103 C95 1_555 1_555
C96 C88 1_555 1_555
H104 C96 1_555 1_555
H105 C96 1_555 1_555
H106 C96 1_555 1_555
C97 C88 1_555 1_555
H107 C97 1_555 1_555
H108 C97 1_555 1_555
H109 C97 1_555 1_555
C98 C68 1_555 1_555
C99 C83 1_555 1_555
C100 C99 1_555 1_555
H110 C100 1_555 1_555
C101 C100 1_555 1_555
C102 C101 1_555 1_555
C103 C102 1_555 1_555
H111 C103 1_555 1_555
H112 C103 1_555 1_555
C104 C103 1_555 1_555
H113 C104 1_555 1_555
H114 C104 1_555 1_555
C105 C104 1_555 1_555
C106 C101 1_555 1_555
C107 C98 1_555 1_555
H115 C107 1_555 1_555
C108 C105 1_555 1_555
H116 C108 1_555 1_555
H117 C108 1_555 1_555
H118 C108 1_555 1_555
C109 C105 1_555 1_555
H119 C109 1_555 1_555
H120 C109 1_555 1_555
H121 C109 1_555 1_555
C110 C102 1_555 1_555
H122 C110 1_555 1_555
H123 C110 1_555 1_555
H124 C110 1_555 1_555
C111 C102 1_555 1_555
H125 C111 1_555 1_555
H126 C111 1_555 1_555
H127 C111 1_555 1_555
C112 C4 1_555 1_555
C113 C112 1_555 1_555
C114 C113 1_555 1_555
H128 C114 1_555 1_555
C115 C114 1_555 1_555
H129 C115 1_555 1_555
C116 C115 1_555 1_555
H130 C116 1_555 1_555
C117 C112 1_555 1_555
H131 C117 1_555 1_555
C118 C113 1_555 1_555
H132 C118 1_555 1_555
C119 C4 1_555 1_555
C120 C118 1_555 1_555
C121 C120 1_555 1_555
H133 C121 1_555 1_555
C122 C121 1_555 1_555
H134 C122 1_555 1_555
C123 C122 1_555 1_555
H135 C123 1_555 1_555
C124 C119 1_555 1_555
H136 C124 1_555 1_555
C125 C4 1_555 1_555
C126 C118 1_555 1_555
C127 C126 1_555 1_555
H137 C127 1_555 1_555
C128 C127 1_555 1_555
H138 C128 1_555 1_555
C129 C128 1_555 1_555
H139 C129 1_555 1_555
C130 C125 1_555 1_555
H140 C130 1_555 1_555
C9 C10 1_555 1_555
C12 C13 1_555 1_555
C16 C17 1_555 1_555
C18 C19 1_555 1_555
C22 C23 1_555 1_555
C32 C33 1_555 1_555
C33 C34 1_555 1_555
C40 C41 1_555 1_555
C47 C48 1_555 1_555
C48 C49 1_555 1_555
C54 C63 1_555 1_555
C60 C61 1_555 1_555
C62 C63 1_555 1_555
C76 C77 1_555 1_555
C77 C78 1_555 1_555
C84 C85 1_555 1_555
C91 C92 1_555 1_555
C92 C93 1_555 1_555
C98 C99 1_555 1_555
C105 C106 1_555 1_555
C106 C107 1_555 1_555
C116 C117 1_555 1_555
C119 C120 1_555 1_555
C123 C124 1_555 1_555
C125 C126 1_555 1_555
C129 C130 1_555 1_555

#END
