
#######################################################################
#
#                 Cambridge Crystallographic Data Centre
#                                CCDC 
#
#######################################################################
#
# If this CIF has been generated from an entry in the Cambridge 
# Structural Database, then it will include bibliographic, chemical, 
# crystal, experimental, refinement or atomic coordinate data resulting 
# from the CCDC's data processing and validation procedures.
#
#######################################################################

data_XIDBUH
_chemical_formula_moiety         'C24 H48 Cs2 I2 O12,4(H2 O1)'
_chemical_name_systematic        
'bis((\m~2~-Iodo)-(18-crown-6)-cesium) tetrahydrate'
_symmetry_cell_setting           monoclinic
_symmetry_space_group_name_H-M   'P 21/n'
_symmetry_Int_Tables_number      14
_space_group_name_Hall           '-P 2yn'
loop_
_symmetry_equiv_pos_site_id
_symmetry_equiv_pos_as_xyz
1 x,y,z
2 1/2-x,1/2+y,1/2-z
3 -x,-y,-z
4 1/2+x,1/2-y,1/2+z
_cell_length_a                   11.0196(6)
_cell_length_b                   8.6005(4)
_cell_length_c                   22.0993(12)
_cell_angle_alpha                90
_cell_angle_beta                 99.751(1)
_cell_angle_gamma                90
_cell_volume                     2064.18
_exptl_crystal_colour            colorless
_exptl_crystal_description       block
_cell_formula_units_Z            2
loop_
_atom_site_label
_atom_site_type_symbol
_atom_site_fract_x
_atom_site_fract_y
_atom_site_fract_z
Cs1 Cs 0.3443(1) 0.4628(1) 0.1075(1)
I1 I 0.6369(1) 0.6737(1) 0.0730(1)
O1 O 0.0817(2) 0.3391(3) 0.0713(1)
O2 O 0.2652(3) 0.1063(3) 0.1051(1)
O3 O 0.5027(3) 0.1990(3) 0.1680(1)
O4 O 0.5134(2) 0.4669(3) 0.2398(1)
O5 O 0.3329(2) 0.7026(3) 0.2099(1)
O6 O 0.0973(2) 0.6028(3) 0.1486(1)
C1 C 0.0094(4) 0.5865(6) 0.0936(2)
C2 C -0.0240(3) 0.4191(6) 0.0838(2)
C3 C 0.0616(4) 0.1780(5) 0.0612(2)
C4 C 0.1775(5) 0.1017(5) 0.0502(2)
C5 C 0.3777(5) 0.0320(5) 0.0983(2)
C6 C 0.4669(4) 0.0418(5) 0.1563(3)
C7 C 0.5897(3) 0.2163(5) 0.2231(2)
C8 C 0.6216(3) 0.3837(5) 0.2325(2)
C9 C 0.5368(3) 0.6266(4) 0.2531(2)
C10 C 0.4202(4) 0.7016(5) 0.2643(2)
C11 C 0.2195(3) 0.7716(5) 0.2188(2)
C12 C 0.1297(4) 0.7610(5) 0.1599(2)
Cs1B Cs 0.6557(1) 0.5372(1) -0.1075(1)
I1B I 0.3631(1) 0.3263(1) -0.0730(1)
O1B O 0.9183(2) 0.6609(3) -0.0713(1)
C2B C 1.0240(3) 0.5809(6) -0.0838(2)
C1B C 0.9906(4) 0.4135(6) -0.0936(2)
O6B O 0.9027(2) 0.3972(3) -0.1486(1)
O2B O 0.7348(3) 0.8937(3) -0.1051(1)
C4B C 0.8225(5) 0.8983(5) -0.0502(2)
C3B C 0.9384(4) 0.8220(5) -0.0612(2)
C5B C 0.6223(5) 0.9680(5) -0.0983(2)
C6B C 0.5331(4) 0.9582(5) -0.1563(3)
O3B O 0.4973(3) 0.8010(3) -0.1680(1)
O4B O 0.4866(2) 0.5331(3) -0.2398(1)
C8B C 0.3784(3) 0.6163(5) -0.2325(2)
C7B C 0.4103(3) 0.7837(5) -0.2231(2)
C9B C 0.4632(3) 0.3734(4) -0.2531(2)
C10B C 0.5798(4) 0.2984(5) -0.2643(2)
O5B O 0.6671(2) 0.2974(3) -0.2099(1)
C11B C 0.7805(3) 0.2284(5) -0.2188(2)
C12B C 0.8703(4) 0.2390(5) -0.1599(2)
O7 O 0.3321(4) 0.7136(5) -0.0177(2)
O8 O 0.2151(4) 0.9492(6) -0.1038(2)
loop_
_geom_bond_atom_site_label_1
_geom_bond_atom_site_label_2
_geom_bond_site_symmetry_1
_geom_bond_site_symmetry_2
Cs1 I1 1_555 1_555
I1 Cs1B 1_555 1_555
O1 Cs1 1_555 1_555
O2 Cs1 1_555 1_555
O3 Cs1 1_555 1_555
O4 Cs1 1_555 1_555
O5 Cs1 1_555 1_555
O6 Cs1 1_555 1_555
C1 O6 1_555 1_555
C2 O1 1_555 1_555
C3 O1 1_555 1_555
C4 O2 1_555 1_555
C5 O2 1_555 1_555
C6 O3 1_555 1_555
C7 O3 1_555 1_555
C8 O4 1_555 1_555
C9 O4 1_555 1_555
C10 O5 1_555 1_555
C11 O5 1_555 1_555
C12 O6 1_555 1_555
Cs1B I1B 1_555 1_555
I1B Cs1 1_555 1_555
O1B Cs1B 1_555 1_555
C2B O1B 1_555 1_555
C1B C2B 1_555 1_555
O6B Cs1B 1_555 1_555
O2B Cs1B 1_555 1_555
C4B O2B 1_555 1_555
C3B O1B 1_555 1_555
C5B O2B 1_555 1_555
C6B C5B 1_555 1_555
O3B Cs1B 1_555 1_555
O4B Cs1B 1_555 1_555
C8B O4B 1_555 1_555
C7B O3B 1_555 1_555
C9B O4B 1_555 1_555
C10B C9B 1_555 1_555
O5B Cs1B 1_555 1_555
C11B O5B 1_555 1_555
C12B O6B 1_555 1_555
C1 C2 1_555 1_555
C3 C4 1_555 1_555
C5 C6 1_555 1_555
C7 C8 1_555 1_555
C9 C10 1_555 1_555
C11 C12 1_555 1_555
C1B O6B 1_555 1_555
C4B C3B 1_555 1_555
C6B O3B 1_555 1_555
C8B C7B 1_555 1_555
C10B O5B 1_555 1_555
C11B C12B 1_555 1_555

#END
