
#######################################################################
#
#                 Cambridge Crystallographic Data Centre
#                                CCDC 
#
#######################################################################
#
# If this CIF has been generated from an entry in the Cambridge 
# Structural Database, then it will include bibliographic, chemical, 
# crystal, experimental, refinement or atomic coordinate data resulting 
# from the CCDC's data processing and validation procedures.
#
#######################################################################

data_XIDLOM
_chemical_formula_moiety         'C20 H30 O6'
_chemical_name_systematic        8,17-Epoxyandrographolide
_chemical_properties_biological  'no alpha-glucosidase inhibitory activity'
_symmetry_cell_setting           monoclinic
_symmetry_space_group_name_H-M   'P 21'
_symmetry_Int_Tables_number      4
_space_group_name_Hall           'P 2yb'
loop_
_symmetry_equiv_pos_site_id
_symmetry_equiv_pos_as_xyz
1 x,y,z
2 -x,1/2+y,-z
_cell_length_a                   6.6273(13)
_cell_length_b                   8.0802(16)
_cell_length_c                   17.882(4)
_cell_angle_alpha                90
_cell_angle_beta                 96.37(3)
_cell_angle_gamma                90
_cell_volume                     951.668
_exptl_crystal_colour            colorless
_exptl_crystal_description       prismatic
_cell_formula_units_Z            2
loop_
_atom_site_label
_atom_site_type_symbol
_atom_site_fract_x
_atom_site_fract_y
_atom_site_fract_z
O1 O 1.3776(4) 0.1358(3) 1.43243(15)
O2 O 0.2485(2) 0.6609(3) 1.02250(11)
O3 O 0.3893(2) 0.6229(3) 0.91662(9)
O4 O 0.8519(3) 0.7305(3) 0.95907(12)
O5 O 0.7095(3) 0.8178(3) 1.19256(13)
O6 O 1.6087(3) 0.4060(3) 1.45612(12)
C1 C 1.0747(4) 0.2817(3) 1.25418(15)
H1 H 0.9440 0.2418 1.2662
H2 H 1.0866 0.2535 1.2021
C2 C 1.2430(5) 0.1938(4) 1.30462(17)
H3 H 1.2314 0.0752 1.2969
H4 H 1.3742 0.2287 1.2910
C3 C 1.2294(4) 0.2330(4) 1.38616(15)
H5 H 1.0951 0.1965 1.3976
C4 C 1.2456(3) 0.4194(3) 1.40476(13)
C5 C 1.0868(3) 0.5143(3) 1.34819(12)
H6 H 0.9546 0.4773 1.3615
C6 C 1.0852(4) 0.7016(4) 1.36027(15)
H7 H 1.0872 0.7252 1.4135
H8 H 1.2059 0.7498 1.3431
C7 C 0.8972(4) 0.7789(4) 1.31755(16)
H9 H 0.7779 0.7438 1.3402
H10 H 0.9065 0.8985 1.3216
C8 C 0.8741(4) 0.7307(3) 1.23580(14)
C9 C 0.8819(3) 0.5470(3) 1.22139(12)
H11 H 0.7698 0.4984 1.2454
C10 C 1.0818(3) 0.4715(3) 1.26294(11)
C11 C 0.8451(3) 0.4982(3) 1.13766(11)
H12 H 0.9525 0.5455 1.1117
H13 H 0.8545 0.3788 1.1338
C12 C 0.6449(3) 0.5525(3) 1.09830(13)
H14 H 0.5386 0.5640 1.1277
C13 C 0.6042(3) 0.5860(3) 1.02549(13)
C14 C 0.7383(3) 0.5823(3) 0.96301(13)
H15 H 0.8275 0.4853 0.9673
C15 C 0.5827(4) 0.5696(5) 0.89451(15)
H16 H 0.6217 0.6396 0.8544
H17 H 0.5733 0.4564 0.8765
C16 C 0.3966(3) 0.6264(3) 0.99183(13)
C17 C 0.9132(5) 0.8515(4) 1.17859(18)
H18 H 0.9716 0.9569 1.1955
H19 H 0.9573 0.8103 1.1321
C18 C 1.1876(4) 0.4453(5) 1.48546(13)
H20 H 1.2830 0.3881 1.5207
H21 H 1.0537 0.4025 1.4886
H22 H 1.1902 0.5613 1.4971
C19 C 1.4622(3) 0.4833(4) 1.40201(13)
H23 H 1.5013 0.4645 1.3520
H24 H 1.4642 0.6018 1.4108
C20 C 1.2625(3) 0.5373(4) 1.22618(13)
H25 H 1.2490 0.5059 1.1741
H26 H 1.3857 0.4917 1.2512
H27 H 1.2666 0.6558 1.2301
H28 H 1.613(6) 0.463(6) 1.503(3)
H29 H 1.466(7) 0.205(6) 1.439(2)
H30 H 0.970(6) 0.708(5) 0.978(2)
loop_
_geom_bond_atom_site_label_1
_geom_bond_atom_site_label_2
_geom_bond_site_symmetry_1
_geom_bond_site_symmetry_2
O1 C3 1_555 1_555
O2 C16 1_555 1_555
O3 C15 1_555 1_555
O4 C14 1_555 1_555
O5 C8 1_555 1_555
O6 C19 1_555 1_555
C1 H1 1_555 1_555
H2 C1 1_555 1_555
C2 C1 1_555 1_555
H3 C2 1_555 1_555
H4 C2 1_555 1_555
C3 C2 1_555 1_555
H5 C3 1_555 1_555
C4 C3 1_555 1_555
C5 C4 1_555 1_555
H6 C5 1_555 1_555
C6 C5 1_555 1_555
H7 C6 1_555 1_555
H8 C6 1_555 1_555
C7 C6 1_555 1_555
H9 C7 1_555 1_555
H10 C7 1_555 1_555
C8 C7 1_555 1_555
C9 C8 1_555 1_555
H11 C9 1_555 1_555
C10 C1 1_555 1_555
C11 C9 1_555 1_555
H12 C11 1_555 1_555
H13 C11 1_555 1_555
C12 C11 1_555 1_555
H14 C12 1_555 1_555
C13 C12 1_555 1_555
C14 C13 1_555 1_555
H15 C14 1_555 1_555
C15 C14 1_555 1_555
H16 C15 1_555 1_555
H17 C15 1_555 1_555
C16 O3 1_555 1_555
C17 O5 1_555 1_555
H18 C17 1_555 1_555
H19 C17 1_555 1_555
C18 C4 1_555 1_555
H20 C18 1_555 1_555
H21 C18 1_555 1_555
H22 C18 1_555 1_555
C19 C4 1_555 1_555
H23 C19 1_555 1_555
H24 C19 1_555 1_555
C20 C10 1_555 1_555
H25 C20 1_555 1_555
H26 C20 1_555 1_555
H27 C20 1_555 1_555
H28 O6 1_555 1_555
H29 O1 1_555 1_555
H30 O4 1_555 1_555
C5 C10 1_555 1_555
C8 C17 1_555 1_555
C9 C10 1_555 1_555
C13 C16 1_555 1_555

#END
