
#######################################################################
#
#                 Cambridge Crystallographic Data Centre
#                                CCDC 
#
#######################################################################
#
# If this CIF has been generated from an entry in the Cambridge 
# Structural Database, then it will include bibliographic, chemical, 
# crystal, experimental, refinement or atomic coordinate data resulting 
# from the CCDC's data processing and validation procedures.
#
#######################################################################

data_XIDPEI
_chemical_formula_moiety         'C27 H21 B3 Cl6 F6 N4 O3'
_chemical_name_systematic        
tris(2-(6,8-dichloro-2,2-difluoro-2H-1,3,2-benzoxazaborinin-3-ium-2-id-3-yl)ethyl)amine
_symmetry_cell_setting           monoclinic
_symmetry_space_group_name_H-M   'P 21/n'
_symmetry_Int_Tables_number      14
_space_group_name_Hall           '-P 2yn'
loop_
_symmetry_equiv_pos_site_id
_symmetry_equiv_pos_as_xyz
1 x,y,z
2 1/2-x,1/2+y,1/2-z
3 -x,-y,-z
4 1/2+x,1/2-y,1/2+z
_cell_length_a                   14.8016(4)
_cell_length_b                   12.2438(4)
_cell_length_c                   18.4551(5)
_cell_angle_alpha                90
_cell_angle_beta                 99.793(3)
_cell_angle_gamma                90
_cell_volume                     3295.84
_cell_formula_units_Z            4
loop_
_atom_site_label
_atom_site_type_symbol
_atom_site_fract_x
_atom_site_fract_y
_atom_site_fract_z
Cl1 Cl 0.62914(11) 0.03949(12) 0.31864(6)
Cl2 Cl 0.61815(9) -0.13628(8) 0.58441(8)
Cl3 Cl 0.82896(9) 0.23074(14) 0.23892(7)
Cl4 Cl 0.50017(7) 0.39558(11) 0.25979(7)
Cl5 Cl 0.82741(6) -0.11836(8) 0.43472(6)
Cl6 Cl 1.03809(7) 0.21221(9) 0.37239(5)
F1 F 0.58666(18) 0.20463(19) 0.72474(12)
F2 F 0.73026(15) 0.18672(18) 0.70088(11)
F3 F 0.62757(17) 0.69058(18) 0.42054(13)
F4 F 0.57787(14) 0.5768(3) 0.49788(11)
F5 F 1.08202(13) 0.34030(19) 0.62272(11)
F6 F 0.98667(15) 0.47217(16) 0.57070(11)
O1 O 0.61241(18) 0.0907(2) 0.63099(13)
O2 O 0.59980(16) 0.5116(2) 0.38713(16)
O3 O 0.99177(16) 0.31131(18) 0.50772(11)
N1 N 0.76784(17) 0.4786(2) 0.64127(13)
N2 N 0.62204(17) 0.2921(2) 0.61675(13)
N3 N 0.73525(17) 0.5607(2) 0.47943(13)
N4 N 0.92130(17) 0.3143(2) 0.62078(13)
C1 C 0.7035(2) 0.4436(3) 0.68950(16)
H1 H 0.6915 0.5050 0.7198
H2 H 0.7321 0.3866 0.7220
C2 C 0.6130(2) 0.4015(3) 0.64782(17)
H3 H 0.5685 0.3987 0.6808
H4 H 0.5902 0.4518 0.6083
C3 C 0.6171(2) 0.2786(3) 0.54723(17)
H5 H 0.6103 0.3395 0.5166
C4 C 0.6217(2) 0.1719(3) 0.51536(18)
C5 C 0.6248(3) 0.1589(3) 0.44032(19)
H6 H 0.6274 0.2197 0.4106
C6 C 0.6238(3) 0.0566(4) 0.4114(2)
C7 C 0.6189(2) -0.0352(3) 0.4549(2)
H7 H 0.6163 -0.1046 0.4340
C8 C 0.6180(2) -0.0230(3) 0.5287(2)
C9 C 0.6182(2) 0.0811(3) 0.56039(19)
C10 C 0.7431(2) 0.5903(2) 0.61489(16)
H8 H 0.7667 0.6416 0.6535
H9 H 0.6768 0.5967 0.6057
C11 C 0.7790(2) 0.6221(3) 0.54548(16)
H10 H 0.7686 0.6996 0.5367
H11 H 0.8446 0.6096 0.5530
C12 C 0.7846(2) 0.4977(3) 0.44684(16)
H12 H 0.8466 0.4905 0.4659
C13 C 0.7467(2) 0.4377(3) 0.38124(16)
C14 C 0.8023(2) 0.3715(3) 0.34619(18)
H13 H 0.8649 0.3670 0.3636
C15 C 0.7632(3) 0.3130(3) 0.28552(19)
C16 C 0.6705(3) 0.3196(3) 0.25862(18)
H14 H 0.6447 0.2790 0.2177
C17 C 0.6169(2) 0.3867(3) 0.29295(19)
C18 C 0.6536(2) 0.4485(3) 0.35431(17)
C19 C 0.8626(2) 0.4776(3) 0.68177(17)
H15 H 0.8630 0.5085 0.7302
H16 H 0.8999 0.5242 0.6563
C20 C 0.9061(2) 0.3654(3) 0.69053(16)
H17 H 0.9645 0.3710 0.7233
H18 H 0.8671 0.3177 0.7138
C21 C 0.8807(2) 0.2245(3) 0.59951(16)
H19 H 0.8389 0.1960 0.6269
C22 C 0.8965(2) 0.1657(3) 0.53545(16)
C23 C 0.8563(2) 0.0635(3) 0.51819(17)
H20 H 0.8189 0.0323 0.5482
C24 C 0.8728(2) 0.0100(3) 0.45673(18)
C25 C 0.9279(2) 0.0571(3) 0.41128(17)
H21 H 0.9379 0.0207 0.3691
C26 C 0.9677(2) 0.1569(3) 0.42839(17)
C27 C 0.9538(2) 0.2136(3) 0.49171(15)
B1 B 0.6375(3) 0.1903(3) 0.6711(2)
B2 B 0.6311(3) 0.5867(3) 0.44520(19)
B3 B 0.9986(3) 0.3618(3) 0.57949(19)
loop_
_geom_bond_atom_site_label_1
_geom_bond_atom_site_label_2
_geom_bond_site_symmetry_1
_geom_bond_site_symmetry_2
Cl1 C6 1_555 1_555
Cl2 C8 1_555 1_555
Cl3 C15 1_555 1_555
Cl4 C17 1_555 1_555
Cl5 C24 1_555 1_555
Cl6 C26 1_555 1_555
F1 B1 1_555 1_555
F2 B1 1_555 1_555
F3 B2 1_555 1_555
F4 B2 1_555 1_555
F5 B3 1_555 1_555
F6 B3 1_555 1_555
O1 C9 1_555 1_555
O2 C18 1_555 1_555
O3 C27 1_555 1_555
N1 C1 1_555 1_555
N2 C2 1_555 1_555
N3 C11 1_555 1_555
N4 C20 1_555 1_555
C1 H1 1_555 1_555
H2 C1 1_555 1_555
C2 C1 1_555 1_555
H3 C2 1_555 1_555
H4 C2 1_555 1_555
C3 N2 1_555 1_555
H5 C3 1_555 1_555
C4 C3 1_555 1_555
C5 C4 1_555 1_555
H6 C5 1_555 1_555
C6 C5 1_555 1_555
C7 C6 1_555 1_555
H7 C7 1_555 1_555
C8 C7 1_555 1_555
C9 C4 1_555 1_555
C10 N1 1_555 1_555
H8 C10 1_555 1_555
H9 C10 1_555 1_555
C11 C10 1_555 1_555
H10 C11 1_555 1_555
H11 C11 1_555 1_555
C12 N3 1_555 1_555
H12 C12 1_555 1_555
C13 C12 1_555 1_555
C14 C13 1_555 1_555
H13 C14 1_555 1_555
C15 C14 1_555 1_555
C16 C15 1_555 1_555
H14 C16 1_555 1_555
C17 C16 1_555 1_555
C18 C13 1_555 1_555
C19 N1 1_555 1_555
H15 C19 1_555 1_555
H16 C19 1_555 1_555
C20 C19 1_555 1_555
H17 C20 1_555 1_555
H18 C20 1_555 1_555
C21 N4 1_555 1_555
H19 C21 1_555 1_555
C22 C21 1_555 1_555
C23 C22 1_555 1_555
H20 C23 1_555 1_555
C24 C23 1_555 1_555
C25 C24 1_555 1_555
H21 C25 1_555 1_555
C26 C25 1_555 1_555
C27 C22 1_555 1_555
B1 O1 1_555 1_555
B2 O2 1_555 1_555
B3 O3 1_555 1_555
N2 B1 1_555 1_555
N3 B2 1_555 1_555
N4 B3 1_555 1_555
C8 C9 1_555 1_555
C17 C18 1_555 1_555
C26 C27 1_555 1_555

#END
