
#######################################################################
#
#                 Cambridge Crystallographic Data Centre
#                                CCDC 
#
#######################################################################
#
# If this CIF has been generated from an entry in the Cambridge 
# Structural Database, then it will include bibliographic, chemical, 
# crystal, experimental, refinement or atomic coordinate data resulting 
# from the CCDC's data processing and validation procedures.
#
#######################################################################

data_XIFBUK
_chemical_formula_moiety         'C37 H21 B1 N6 O1'
_chemical_name_systematic        
Methoxy(5,10,15-tris(4-cyanophenyl)subporphyrinato)boron(iii)
_symmetry_cell_setting           monoclinic
_symmetry_space_group_name_H-M   'P 21/a'
_symmetry_Int_Tables_number      14
_space_group_name_Hall           '-P 2yab'
loop_
_symmetry_equiv_pos_site_id
_symmetry_equiv_pos_as_xyz
1 x,y,z
2 1/2-x,1/2+y,-z
3 -x,-y,-z
4 1/2+x,1/2-y,z
_cell_length_a                   8.017(7)
_cell_length_b                   21.24(2)
_cell_length_c                   16.75(2)
_cell_angle_alpha                90
_cell_angle_beta                 90.28(5)
_cell_angle_gamma                90
_cell_volume                     2852.17
_exptl_crystal_colour            orange
_exptl_crystal_description       prism
_cell_formula_units_Z            4
_exptl_crystal_recrystallization_method methanol/dichloromethane
_exptl_crystal_preparation       fluorescent
loop_
_atom_site_label
_atom_site_type_symbol
_atom_site_fract_x
_atom_site_fract_y
_atom_site_fract_z
O1 O 0.3431(3) 0.09303(9) 0.12080(13)
N1 N 0.0497(3) 0.05873(11) 0.13869(14)
N2 N 0.1167(3) 0.16773(10) 0.12946(14)
C1 C -0.1453(4) 0.00360(13) 0.07421(18)
H1 H -0.2249 -0.0092 0.0353
C2 C 0.2535(4) -0.07657(14) 0.34037(18)
H2 H 0.3499 -0.0511 0.3340
C3 C -0.0386(4) -0.09417(14) 0.31837(19)
H3 H -0.1424 -0.0811 0.2964
C4 C -0.0953(4) -0.03078(14) 0.13904(18)
H4 H -0.1343 -0.0716 0.1529
C5 C 0.0401(4) 0.26919(14) 0.12597(18)
H5 H 0.0333 0.3128 0.1380
C6 C -0.2545(5) 0.17405(15) -0.16143(19)
H6 H -0.2185 0.1941 -0.2090
C7 C 0.1285(4) 0.22260(13) 0.17175(18)
C8 C 0.0993(4) 0.00152(13) 0.25987(17)
C9 C -0.0571(4) 0.06207(14) 0.07510(17)
C10 C -0.0326(4) 0.23990(14) 0.06211(18)
H7 H -0.0990 0.2595 0.0221
C11 C 0.1893(4) 0.28287(13) 0.29491(18)
N3 N 0.1845(3) 0.10934(11) 0.24616(15)
C12 C 0.1654(4) 0.05728(14) 0.29337(19)
C13 C 0.0094(4) 0.17421(13) 0.06632(18)
C14 C -0.1424(4) 0.16083(14) -0.10133(18)
H8 H -0.0288 0.1725 -0.1075
C15 C 0.1303(4) -0.22736(15) 0.43531(19)
C16 C 0.2107(4) 0.14239(15) 0.37257(19)
H9 H 0.2281 0.1686 0.4178
C17 C 0.1893(4) 0.07876(14) 0.37381(19)
H10 H 0.1901 0.0530 0.4201
C18 C -0.0717(4) 0.12041(13) 0.03465(18)
C19 C 0.1228(4) -0.16882(13) 0.39238(18)
N4 N 0.1377(4) -0.27422(13) 0.46924(17)
C20 C 0.0262(4) 0.00531(13) 0.18258(18)
C21 C 0.2024(4) 0.16311(13) 0.29108(19)
C22 C -0.4727(4) 0.12834(15) -0.0825(2)
H11 H -0.5869 0.1177 -0.0759
C23 C -0.4208(4) 0.15774(14) -0.1519(2)
C24 C -0.3595(4) 0.11455(13) -0.02307(19)
H12 H -0.3956 0.0939 0.0241
C25 C 0.2598(4) 0.39326(14) 0.2932(2)
H13 H 0.3096 0.4283 0.2672
C26 C -0.0300(4) -0.14985(15) 0.36095(19)
H14 H -0.1270 -0.1748 0.3686
C27 C 0.2647(4) -0.13234(14) 0.38224(18)
H15 H 0.3686 -0.1456 0.4039
C28 C 0.1825(4) 0.22202(13) 0.25190(18)
C29 C 0.1016(4) -0.05717(13) 0.30723(17)
C30 C 0.2626(4) 0.33495(14) 0.2575(2)
H16 H 0.3146 0.3299 0.2071
C31 C -0.1922(4) 0.13068(13) -0.03175(18)
N5 N -0.6372(5) 0.18689(16) -0.2601(2)
C32 C 0.1123(4) 0.34985(14) 0.40499(19)
H17 H 0.0611 0.3550 0.4556
B1 B 0.1844(4) 0.10630(15) 0.1570(2)
C33 C 0.1765(5) 0.46269(17) 0.4035(2)
C34 C -0.5408(5) 0.17345(16) -0.2125(2)
C35 C 0.1842(4) 0.40117(14) 0.3672(2)
C36 C 0.1150(4) 0.29156(14) 0.36933(18)
H18 H 0.0656 0.2567 0.3957
N6 N 0.1710(5) 0.51235(16) 0.4302(2)
C37 C 0.4277(5) 0.03803(16) 0.1484(2)
H19 H 0.4453 0.0410 0.2062
H20 H 0.5358 0.0346 0.1217
H21 H 0.3602 0.0007 0.1363
loop_
_geom_bond_atom_site_label_1
_geom_bond_atom_site_label_2
_geom_bond_site_symmetry_1
_geom_bond_site_symmetry_2
O1 B1 1_555 1_555
N1 C9 1_555 1_555
N2 C7 1_555 1_555
C1 H1 1_555 1_555
C2 H2 1_555 1_555
C3 H3 1_555 1_555
C4 C1 1_555 1_555
H4 C4 1_555 1_555
C5 H5 1_555 1_555
C6 H6 1_555 1_555
C7 C5 1_555 1_555
C8 C12 1_555 1_555
C9 C1 1_555 1_555
C10 C5 1_555 1_555
H7 C10 1_555 1_555
C11 C28 1_555 1_555
N3 C12 1_555 1_555
C12 C17 1_555 1_555
C13 N2 1_555 1_555
C14 C6 1_555 1_555
H8 C14 1_555 1_555
C15 C19 1_555 1_555
C16 H9 1_555 1_555
C17 C16 1_555 1_555
H10 C17 1_555 1_555
C18 C9 1_555 1_555
C19 C26 1_555 1_555
N4 C15 1_555 1_555
C20 N1 1_555 1_555
C21 N3 1_555 1_555
C22 H11 1_555 1_555
C23 C6 1_555 1_555
C24 C22 1_555 1_555
H12 C24 1_555 1_555
C25 H13 1_555 1_555
C26 C3 1_555 1_555
H14 C26 1_555 1_555
C27 C2 1_555 1_555
H15 C27 1_555 1_555
C28 C7 1_555 1_555
C29 C2 1_555 1_555
C30 C11 1_555 1_555
H16 C30 1_555 1_555
C31 C14 1_555 1_555
N5 C34 1_555 1_555
C32 H17 1_555 1_555
B1 N1 1_555 1_555
C33 C35 1_555 1_555
C34 C23 1_555 1_555
C35 C25 1_555 1_555
C36 C11 1_555 1_555
H18 C36 1_555 1_555
N6 C33 1_555 1_555
C37 O1 1_555 1_555
H19 C37 1_555 1_555
H20 C37 1_555 1_555
H21 C37 1_555 1_555
N2 B1 1_555 1_555
C3 C29 1_555 1_555
C4 C20 1_555 1_555
C8 C20 1_555 1_555
C8 C29 1_555 1_555
C10 C13 1_555 1_555
N3 B1 1_555 1_555
C13 C18 1_555 1_555
C16 C21 1_555 1_555
C18 C31 1_555 1_555
C19 C27 1_555 1_555
C21 C28 1_555 1_555
C22 C23 1_555 1_555
C24 C31 1_555 1_555
C25 C30 1_555 1_555
C32 C35 1_555 1_555
C32 C36 1_555 1_555

#END
