
#######################################################################
#
#                 Cambridge Crystallographic Data Centre
#                                CCDC 
#
#######################################################################
#
# If this CIF has been generated from an entry in the Cambridge 
# Structural Database, then it will include bibliographic, chemical, 
# crystal, experimental, refinement or atomic coordinate data resulting 
# from the CCDC's data processing and validation procedures.
#
#######################################################################

data_XIFMIJ01
_chemical_formula_moiety         'C12 H12 N2 O2 S1'
_chemical_name_systematic        
N-(5-Methyl-pyridin-2(1H)-ylidene)benzenesulfonamide
_symmetry_cell_setting           monoclinic
_symmetry_space_group_name_H-M   'P 21/c'
_symmetry_Int_Tables_number      14
_space_group_name_Hall           '-P 2ybc'
loop_
_symmetry_equiv_pos_site_id
_symmetry_equiv_pos_as_xyz
1 x,y,z
2 -x,1/2+y,1/2-z
3 -x,-y,-z
4 x,1/2-y,1/2+z
_cell_length_a                   11.754(2)
_cell_length_b                   13.880(3)
_cell_length_c                   7.2050(10)
_cell_angle_alpha                90
_cell_angle_beta                 107.18(3)
_cell_angle_gamma                90
_cell_volume                     1123.02
_exptl_crystal_colour            colorless
_exptl_crystal_description       Triangular
_cell_formula_units_Z            4
loop_
_atom_site_label
_atom_site_type_symbol
_atom_site_fract_x
_atom_site_fract_y
_atom_site_fract_z
S1 S 0.23319(4) 0.02773(4) 0.00906(7)
O1 O 0.21904(12) -0.07562(10) -0.0036(2)
O2 O 0.21808(12) 0.07274(11) 0.17972(19)
N1 N 0.36209(14) 0.04621(12) -0.0160(2)
N2 N 0.52131(14) 0.13905(13) -0.0194(2)
C1 C -0.0504(2) 0.14997(17) -0.5049(3)
C2 C 0.0561(2) 0.11936(17) -0.5299(3)
C3 C 0.14408(19) 0.08236(16) -0.3740(3)
C4 C 0.12572(17) 0.07880(14) -0.1928(3)
C5 C 0.01948(17) 0.11034(16) -0.1664(3)
C6 C -0.06894(19) 0.14529(17) -0.3251(3)
C7 C 0.40682(16) 0.13647(15) -0.0140(3)
C8 C 0.35225(18) 0.22679(15) -0.0100(3)
C9 C 0.41315(18) 0.30988(16) -0.0164(3)
C10 C 0.53161(18) 0.30966(15) -0.0261(3)
C11 C 0.58225(18) 0.22150(15) -0.0253(3)
C12 C 0.5979(2) 0.40051(17) -0.0355(3)
H1 H -0.1118(19) 0.1764(16) -0.617(3)
H2 H 0.559(2) 0.079(2) -0.012(3)
H3 H 0.069(2) 0.1198(18) -0.656(4)
H4 H 0.214(2) 0.0596(16) -0.393(3)
H5 H 0.0078(17) 0.1070(16) -0.040(3)
H6 H -0.144(2) 0.1697(18) -0.306(3)
H7 H 0.2706(19) 0.2280(16) -0.004(3)
H8 H 0.3772(19) 0.3692(18) -0.012(3)
H9 H 0.659(2) 0.2128(16) -0.032(3)
H10 H 0.620(2) 0.4349(19) 0.089(4)
H11 H 0.668(2) 0.388(2) -0.077(4)
H12 H 0.550(2) 0.450(2) -0.128(4)
loop_
_geom_bond_atom_site_label_1
_geom_bond_atom_site_label_2
_geom_bond_site_symmetry_1
_geom_bond_site_symmetry_2
S1 O1 1_555 1_555
O2 S1 1_555 1_555
N1 S1 1_555 1_555
N2 C7 1_555 1_555
C1 C2 1_555 1_555
C2 C3 1_555 1_555
C3 C4 1_555 1_555
C4 S1 1_555 1_555
C5 C4 1_555 1_555
C6 C1 1_555 1_555
C7 N1 1_555 1_555
C8 C7 1_555 1_555
C9 C8 1_555 1_555
C10 C9 1_555 1_555
C11 N2 1_555 1_555
C12 C10 1_555 1_555
H1 C1 1_555 1_555
H2 N2 1_555 1_555
H3 C2 1_555 1_555
H4 C3 1_555 1_555
H5 C5 1_555 1_555
H6 C6 1_555 1_555
H7 C8 1_555 1_555
H8 C9 1_555 1_555
H9 C11 1_555 1_555
H10 C12 1_555 1_555
H11 C12 1_555 1_555
H12 C12 1_555 1_555
C5 C6 1_555 1_555
C10 C11 1_555 1_555

#END
