
#######################################################################
#
#                 Cambridge Crystallographic Data Centre
#                                CCDC 
#
#######################################################################
#
# If this CIF has been generated from an entry in the Cambridge 
# Structural Database, then it will include bibliographic, chemical, 
# crystal, experimental, refinement or atomic coordinate data resulting 
# from the CCDC's data processing and validation procedures.
#
#######################################################################

data_XIFRIP
_chemical_formula_moiety         'C104 F60'
_chemical_name_systematic        icosakis(Trifluoromethyl)-C84fullerene
_symmetry_cell_setting           monoclinic
_symmetry_space_group_name_H-M   'C 2/c'
_symmetry_Int_Tables_number      15
_space_group_name_Hall           '-C 2yn'
loop_
_symmetry_equiv_pos_site_id
_symmetry_equiv_pos_as_xyz
1 x,y,z
2 -x,y,1/2-z
3 1/2+x,1/2+y,z
4 1/2-x,1/2+y,1/2-z
5 -x,-y,-z
6 x,-y,1/2+z
7 1/2-x,1/2-y,-z
8 1/2+x,1/2-y,1/2+z
_cell_length_a                   23.073(2)
_cell_length_b                   14.5860(10)
_cell_length_c                   24.270(2)
_cell_angle_alpha                90
_cell_angle_beta                 108.240(10)
_cell_angle_gamma                90
_cell_volume                     7757.49
_exptl_crystal_colour            yellow
_exptl_crystal_description       plate
_cell_formula_units_Z            4
loop_
_atom_site_label
_atom_site_type_symbol
_atom_site_fract_x
_atom_site_fract_y
_atom_site_fract_z
F1 F 0.7009(3) 0.5955(5) 0.1188(3)
F2 F 0.6658(3) 0.7125(6) 0.0736(3)
F3 F 0.7331(3) 0.7213(6) 0.1534(3)
F4 F 0.3618(8) 0.2931(8) 0.1297(4)
F5 F 0.4273(7) 0.2545(8) 0.2075(9)
F6 F 0.3418(8) 0.3144(9) 0.2069(8)
F7 F 0.2166(3) 0.6497(6) 0.2458(4)
F8 F 0.2140(3) 0.7850(6) 0.2170(3)
F9 F 0.2005(3) 0.6747(6) 0.1586(3)
F10 F 0.4928(10) 1.1135(10) 0.1305(8)
F11 F 0.5735(7) 1.1031(7) 0.2045(4)
F12 F 0.5733(6) 1.0500(7) 0.1229(5)
F13 F 0.5709(6) 0.8129(6) 0.0104(3)
F14 F 0.5355(6) 0.9427(7) 0.0268(5)
F15 F 0.6260(8) 0.9011(12) 0.0778(6)
F16 F 0.4677(4) 0.2970(3) 0.0965(2)
F17 F 0.4455(4) 0.3945(4) 0.0278(2)
F18 F 0.5374(3) 0.3756(4) 0.0784(3)
F19 F 0.2252(6) 0.532(2) 0.1380(7)
F20 F 0.2394(9) 0.5367(13) 0.0575(7)
F21 F 0.2682(10) 0.4194(14) 0.1102(13)
F22 F 0.3870(8) 1.0852(11) 0.1182(7)
F23 F 0.3377(6) 0.9930(6) 0.0501(3)
F24 F 0.3087(8) 1.0022(11) 0.1243(5)
F25 F 0.3330(3) 0.4787(4) 0.0003(2)
F26 F 0.3719(3) 0.5846(4) -0.0328(2)
F27 F 0.2924(3) 0.6071(5) -0.0148(2)
F28 F 0.382(2) 0.893(2) -0.0138(13)
F29 F 0.4493(13) 0.809(2) -0.0324(10)
F30 F 0.3628(19) 0.754(2) -0.0346(6)
C1 C 0.6307(3) 0.7723(6) 0.1853(3)
C2 C 0.6343(3) 0.6811(5) 0.1549(3)
C3 C 0.6408(3) 0.6032(5) 0.1992(3)
C4 C 0.5966(3) 0.5357(5) 0.1746(3)
C5 C 0.5796(3) 0.4723(5) 0.2091(3)
C6 C 0.5185(4) 0.4346(5) 0.1843(3)
C7 C 0.4862(4) 0.4072(4) 0.2191(3)
C8 C 0.4185(4) 0.4126(5) 0.1919(3)
C9 C 0.3913(3) 0.4754(5) 0.2296(3)
C10 C 0.3489(3) 0.5414(5) 0.2053(3)
C11 C 0.3319(3) 0.6082(6) 0.2412(3)
C12 C 0.3012(3) 0.6989(6) 0.2184(3)
C13 C 0.3366(3) 0.7783(6) 0.2567(3)
C14 C 0.3512(4) 0.8443(6) 0.2219(3)
C15 C 0.3972(4) 0.9070(5) 0.2439(3)
C16 C 0.4241(4) 0.9480(5) 0.2023(3)
C17 C 0.4834(4) 0.9736(4) 0.2198(3)
C18 C 0.5145(4) 0.9678(5) 0.1735(3)
C19 C 0.5706(4) 0.9061(5) 0.1961(3)
C20 C 0.5839(4) 0.8380(5) 0.1607(3)
C21 C 0.5408(4) 0.8271(5) 0.0978(3)
C22 C 0.5296(4) 0.7236(5) 0.0867(3)
C23 C 0.5721(3) 0.6605(5) 0.1127(3)
C24 C 0.5533(3) 0.5705(5) 0.1217(3)
C25 C 0.4923(3) 0.5456(5) 0.1019(3)
C26 C 0.4764(3) 0.4553(4) 0.1234(3)
C27 C 0.4153(4) 0.4597(5) 0.1349(3)
C28 C 0.3741(3) 0.5250(5) 0.1121(3)
C29 C 0.3259(3) 0.5541(5) 0.1385(3)
C30 C 0.3240(3) 0.6559(5) 0.1255(3)
C31 C 0.3139(3) 0.7210(6) 0.1620(3)
C32 C 0.3365(4) 0.8078(5) 0.1630(3)
C33 C 0.3678(4) 0.8347(5) 0.1251(3)
C34 C 0.4018(4) 0.9258(5) 0.1370(3)
C35 C 0.4636(4) 0.9209(5) 0.1256(3)
C36 C 0.4759(4) 0.8553(5) 0.0917(3)
C37 C 0.4283(3) 0.7852(5) 0.0584(3)
C38 C 0.4677(3) 0.7006(5) 0.0677(3)
C39 C 0.4484(3) 0.6097(5) 0.0742(3)
C40 C 0.3825(3) 0.5944(5) 0.0670(3)
C41 C 0.3581(3) 0.6793(5) 0.0883(3)
C42 C 0.3798(3) 0.7698(5) 0.0872(3)
C43 C 0.6826(4) 0.6804(8) 0.1247(4)
C44 C 0.3877(5) 0.3153(6) 0.1856(4)
C45 C 0.2313(5) 0.7004(10) 0.2111(4)
C46 C 0.5348(8) 1.0625(6) 0.1574(4)
C47 C 0.5663(5) 0.8738(6) 0.0535(3)
C48 C 0.4819(5) 0.3787(5) 0.0803(3)
C49 C 0.2645(4) 0.5060(8) 0.1116(4)
C50 C 0.3584(5) 1.0023(6) 0.1064(4)
C51 C 0.3445(4) 0.5660(6) 0.0053(3)
C52 C 0.4011(4) 0.8127(6) -0.0066(3)
F1A F 0.2991(3) 0.5955(5) 0.3812(3)
F2A F 0.3342(3) 0.7125(6) 0.4264(3)
F3A F 0.2669(3) 0.7213(6) 0.3466(3)
F4A F 0.6382(8) 0.2931(8) 0.3703(4)
F5A F 0.5727(7) 0.2545(8) 0.2925(9)
F6A F 0.6582(8) 0.3144(9) 0.2931(8)
F7A F 0.7834(3) 0.6497(6) 0.2542(4)
F8A F 0.7860(3) 0.7850(6) 0.2830(3)
F9A F 0.7995(3) 0.6747(6) 0.3414(3)
F10A F 0.5072(10) 1.1135(10) 0.3695(8)
F11A F 0.4265(7) 1.1031(7) 0.2955(4)
F12A F 0.4267(6) 1.0500(7) 0.3771(5)
F13A F 0.4291(6) 0.8129(6) 0.4896(3)
F14A F 0.4645(6) 0.9427(7) 0.4732(5)
F15A F 0.3740(8) 0.9011(12) 0.4222(6)
F16A F 0.5323(4) 0.2970(3) 0.4035(2)
F17A F 0.5545(4) 0.3945(4) 0.4722(2)
F18A F 0.4626(3) 0.3756(4) 0.4216(3)
F19A F 0.7748(6) 0.532(2) 0.3620(7)
F20A F 0.7606(9) 0.5367(13) 0.4425(7)
F21A F 0.7318(10) 0.4194(14) 0.3898(13)
F22A F 0.6130(8) 1.0852(11) 0.3818(7)
F23A F 0.6623(6) 0.9930(6) 0.4499(3)
F24A F 0.6913(8) 1.0022(11) 0.3757(5)
F25A F 0.6670(3) 0.4787(4) 0.4997(2)
F26A F 0.6281(3) 0.5846(4) 0.5328(2)
F27A F 0.7076(3) 0.6071(5) 0.5148(2)
F28A F 0.618(2) 0.893(2) 0.5138(13)
F29A F 0.5507(13) 0.809(2) 0.5324(10)
F30A F 0.6372(19) 0.754(2) 0.5346(6)
C1A C 0.3693(3) 0.7723(6) 0.3147(3)
C2A C 0.3657(3) 0.6811(5) 0.3451(3)
C3A C 0.3592(3) 0.6032(5) 0.3008(3)
C4A C 0.4034(3) 0.5357(5) 0.3254(3)
C5A C 0.4204(3) 0.4723(5) 0.2909(3)
C6A C 0.4815(4) 0.4346(5) 0.3157(3)
C7A C 0.5138(4) 0.4072(4) 0.2809(3)
C8A C 0.5815(4) 0.4126(5) 0.3081(3)
C9A C 0.6087(3) 0.4754(5) 0.2704(3)
C10A C 0.6511(3) 0.5414(5) 0.2947(3)
C11A C 0.6681(3) 0.6082(6) 0.2588(3)
C12A C 0.6988(3) 0.6989(6) 0.2816(3)
C13A C 0.6634(3) 0.7783(6) 0.2433(3)
C14A C 0.6488(4) 0.8443(6) 0.2781(3)
C15A C 0.6028(4) 0.9070(5) 0.2561(3)
C16A C 0.5759(4) 0.9480(5) 0.2977(3)
C17A C 0.5166(4) 0.9736(4) 0.2802(3)
C18A C 0.4855(4) 0.9678(5) 0.3265(3)
C19A C 0.4294(4) 0.9061(5) 0.3039(3)
C20A C 0.4161(4) 0.8380(5) 0.3393(3)
C21A C 0.4592(4) 0.8271(5) 0.4022(3)
C22A C 0.4704(4) 0.7236(5) 0.4133(3)
C23A C 0.4279(3) 0.6605(5) 0.3873(3)
C24A C 0.4467(3) 0.5705(5) 0.3783(3)
C25A C 0.5077(3) 0.5456(5) 0.3981(3)
C26A C 0.5236(3) 0.4553(4) 0.3766(3)
C27A C 0.5847(4) 0.4597(5) 0.3651(3)
C28A C 0.6259(3) 0.5250(5) 0.3879(3)
C29A C 0.6741(3) 0.5541(5) 0.3615(3)
C30A C 0.6760(3) 0.6559(5) 0.3745(3)
C31A C 0.6861(3) 0.7210(6) 0.3380(3)
C32A C 0.6635(4) 0.8078(5) 0.3370(3)
C33A C 0.6322(4) 0.8347(5) 0.3749(3)
C34A C 0.5982(4) 0.9258(5) 0.3630(3)
C35A C 0.5364(4) 0.9209(5) 0.3744(3)
C36A C 0.5241(4) 0.8553(5) 0.4083(3)
C37A C 0.5717(3) 0.7852(5) 0.4416(3)
C38A C 0.5323(3) 0.7006(5) 0.4323(3)
C39A C 0.5516(3) 0.6097(5) 0.4258(3)
C40A C 0.6175(3) 0.5944(5) 0.4330(3)
C41A C 0.6419(3) 0.6793(5) 0.4117(3)
C42A C 0.6202(3) 0.7698(5) 0.4128(3)
C43A C 0.3174(4) 0.6804(8) 0.3753(4)
C44A C 0.6123(5) 0.3153(6) 0.3144(4)
C45A C 0.7687(5) 0.7004(10) 0.2889(4)
C46A C 0.4652(8) 1.0625(6) 0.3426(4)
C47A C 0.4337(5) 0.8738(6) 0.4465(3)
C48A C 0.5181(5) 0.3787(5) 0.4197(3)
C49A C 0.7355(4) 0.5060(8) 0.3884(4)
C50A C 0.6416(5) 1.0023(6) 0.3936(4)
C51A C 0.6555(4) 0.5660(6) 0.4947(3)
C52A C 0.5989(4) 0.8127(6) 0.5066(3)
F31? F 0.4019(8) 0.2787(10) 0.2401(8)
F32? F 0.3303(8) 0.3201(10) 0.1681(10)
F33? F 0.4094(14) 0.2621(12) 0.1553(14)
F34? F 0.5845(12) 1.0699(14) 0.1605(14)
F35? F 0.5187(14) 1.1266(8) 0.1942(8)
F36? F 0.4965(14) 1.093(2) 0.1066(10)
F37? F 0.5315(11) 0.8540(15) 0.0016(7)
F38? F 0.5571(14) 0.9651(14) 0.0603(14)
F39? F 0.6194(14) 0.861(2) 0.0629(14)
F40? F 0.494(2) 0.406(3) 0.0361(17)
F41? F 0.520(2) 0.310(3) 0.1076(18)
F42? F 0.431(3) 0.337(5) 0.061(3)
F43? F 0.2734(11) 0.428(2) 0.0820(12)
F44? F 0.2402(7) 0.4656(18) 0.1526(6)
F45? F 0.2219(10) 0.5532(15) 0.0789(13)
F46? F 0.3042(16) 0.986(3) 0.100(2)
F47? F 0.3638(18) 1.0795(18) 0.1285(14)
F48? F 0.372(3) 1.028(3) 0.0548(15)
F49? F 0.423(3) 0.777(3) -0.0391(9)
F50? F 0.3377(16) 0.792(3) -0.0258(11)
F51? F 0.3973(17) 0.904(2) -0.0123(15)
loop_
_geom_bond_atom_site_label_1
_geom_bond_atom_site_label_2
_geom_bond_site_symmetry_1
_geom_bond_site_symmetry_2
F1 C43 1_555 1_555
F2 C43 1_555 1_555
F3 C43 1_555 1_555
F4 C44 1_555 1_555
F5 C44 1_555 1_555
F6 C44 1_555 1_555
F7 C45 1_555 1_555
F8 C45 1_555 1_555
F9 C45 1_555 1_555
F10 C46 1_555 1_555
F11 C46 1_555 1_555
F12 C46 1_555 1_555
F13 C47 1_555 1_555
F14 C47 1_555 1_555
F15 C47 1_555 1_555
F16 C48 1_555 1_555
F17 C48 1_555 1_555
F18 C48 1_555 1_555
F19 C49 1_555 1_555
F20 C49 1_555 1_555
F21 C49 1_555 1_555
F22 C50 1_555 1_555
F23 C50 1_555 1_555
F24 C50 1_555 1_555
F25 C51 1_555 1_555
F26 C51 1_555 1_555
F27 C51 1_555 1_555
F28 C52 1_555 1_555
F29 C52 1_555 1_555
F30 C52 1_555 1_555
C1 C2 1_555 1_555
C2 C3 1_555 1_555
C3 C4 1_555 1_555
C4 C5 1_555 1_555
C5 C6 1_555 1_555
C6 C7 1_555 1_555
C7 C8 1_555 1_555
C8 C9 1_555 1_555
C9 C10 1_555 1_555
C10 C11 1_555 1_555
C11 C12 1_555 1_555
C12 C13 1_555 1_555
C13 C14 1_555 1_555
C14 C15 1_555 1_555
C15 C16 1_555 1_555
C16 C17 1_555 1_555
C17 C18 1_555 1_555
C18 C19 1_555 1_555
C19 C20 1_555 1_555
C20 C1 1_555 1_555
C21 C20 1_555 1_555
C22 C21 1_555 1_555
C23 C2 1_555 1_555
C24 C4 1_555 1_555
C25 C24 1_555 1_555
C26 C6 1_555 1_555
C27 C8 1_555 1_555
C28 C27 1_555 1_555
C29 C10 1_555 1_555
C30 C29 1_555 1_555
C31 C12 1_555 1_555
C32 C14 1_555 1_555
C33 C32 1_555 1_555
C34 C16 1_555 1_555
C35 C18 1_555 1_555
C36 C21 1_555 1_555
C37 C36 1_555 1_555
C38 C22 1_555 1_555
C39 C25 1_555 1_555
C40 C28 1_555 1_555
C41 C30 1_555 1_555
C42 C33 1_555 1_555
C43 C2 1_555 1_555
C44 C8 1_555 1_555
C45 C12 1_555 1_555
C46 C18 1_555 1_555
C47 C21 1_555 1_555
C48 C26 1_555 1_555
C49 C29 1_555 1_555
C50 C34 1_555 1_555
C51 C40 1_555 1_555
C52 C37 1_555 1_555
F1A C43A 1_555 1_555
F2A C43A 1_555 1_555
F3A C43A 1_555 1_555
F4A C44A 1_555 1_555
F5A C44A 1_555 1_555
F6A C44A 1_555 1_555
F7A C45A 1_555 1_555
F8A C45A 1_555 1_555
F9A C45A 1_555 1_555
F10A C46A 1_555 1_555
F11A C46A 1_555 1_555
F12A C46A 1_555 1_555
F13A C47A 1_555 1_555
F14A C47A 1_555 1_555
F15A C47A 1_555 1_555
F16A C48A 1_555 1_555
F17A C48A 1_555 1_555
F18A C48A 1_555 1_555
F19A C49A 1_555 1_555
F20A C49A 1_555 1_555
F21A C49A 1_555 1_555
F22A C50A 1_555 1_555
F23A C50A 1_555 1_555
F24A C50A 1_555 1_555
F25A C51A 1_555 1_555
F26A C51A 1_555 1_555
F27A C51A 1_555 1_555
F28A C52A 1_555 1_555
F29A C52A 1_555 1_555
F30A C52A 1_555 1_555
C1A C13 1_555 1_555
C2A C1A 1_555 1_555
C3A C11 1_555 1_555
C4A C3A 1_555 1_555
C5A C9 1_555 1_555
C6A C5A 1_555 1_555
C7A C7 1_555 1_555
C8A C7A 1_555 1_555
C9A C5 1_555 1_555
C10A C9A 1_555 1_555
C11A C3 1_555 1_555
C12A C11A 1_555 1_555
C13A C1 1_555 1_555
C14A C13A 1_555 1_555
C15A C19 1_555 1_555
C16A C15A 1_555 1_555
C17A C17 1_555 1_555
C18A C17A 1_555 1_555
C19A C15 1_555 1_555
C20A C1A 1_555 1_555
C21A C20A 1_555 1_555
C22A C21A 1_555 1_555
C23A C2A 1_555 1_555
C24A C4A 1_555 1_555
C25A C24A 1_555 1_555
C26A C6A 1_555 1_555
C27A C8A 1_555 1_555
C28A C27A 1_555 1_555
C29A C10A 1_555 1_555
C30A C29A 1_555 1_555
C31A C12A 1_555 1_555
C32A C14A 1_555 1_555
C33A C32A 1_555 1_555
C34A C16A 1_555 1_555
C35A C18A 1_555 1_555
C36A C21A 1_555 1_555
C37A C36A 1_555 1_555
C38A C22A 1_555 1_555
C39A C25A 1_555 1_555
C40A C28A 1_555 1_555
C41A C30A 1_555 1_555
C42A C33A 1_555 1_555
C43A C2A 1_555 1_555
C44A C8A 1_555 1_555
C45A C12A 1_555 1_555
C46A C18A 1_555 1_555
C47A C21A 1_555 1_555
C48A C26A 1_555 1_555
C49A C29A 1_555 1_555
C50A C34A 1_555 1_555
C51A C40A 1_555 1_555
C52A C37A 1_555 1_555
C22 C23 1_555 1_555
C23 C24 1_555 1_555
C25 C26 1_555 1_555
C26 C27 1_555 1_555
C28 C29 1_555 1_555
C30 C31 1_555 1_555
C31 C32 1_555 1_555
C33 C34 1_555 1_555
C34 C35 1_555 1_555
C35 C36 1_555 1_555
C37 C38 1_555 1_555
C37 C42 1_555 1_555
C38 C39 1_555 1_555
C39 C40 1_555 1_555
C40 C41 1_555 1_555
C41 C42 1_555 1_555
C2A C3A 1_555 1_555
C4A C5A 1_555 1_555
C6A C7A 1_555 1_555
C8A C9A 1_555 1_555
C10A C11A 1_555 1_555
C12A C13A 1_555 1_555
C14A C15A 1_555 1_555
C16A C17A 1_555 1_555
C18A C19A 1_555 1_555
C19A C20A 1_555 1_555
C22A C23A 1_555 1_555
C23A C24A 1_555 1_555
C25A C26A 1_555 1_555
C26A C27A 1_555 1_555
C28A C29A 1_555 1_555
C30A C31A 1_555 1_555
C31A C32A 1_555 1_555
C33A C34A 1_555 1_555
C34A C35A 1_555 1_555
C35A C36A 1_555 1_555
C37A C38A 1_555 1_555
C37A C42A 1_555 1_555
C38A C39A 1_555 1_555
C39A C40A 1_555 1_555
C40A C41A 1_555 1_555
C41A C42A 1_555 1_555

#END
