
#######################################################################
#
#                 Cambridge Crystallographic Data Centre
#                                CCDC 
#
#######################################################################
#
# If this CIF has been generated from an entry in the Cambridge 
# Structural Database, then it will include bibliographic, chemical, 
# crystal, experimental, refinement or atomic coordinate data resulting 
# from the CCDC's data processing and validation procedures.
#
#######################################################################

data_XIGMIM
_chemical_compound_source        
'the branches and leaves of Jatropha gosspiifolia'
_chemical_name_common            'Jatrogossone H'
_chemical_formula_moiety         'C20 H26 O3'
_chemical_name_systematic        
3,3,6,9,11a-pentamethyl-2,3,3a,9,10,11a-hexahydro-1H-dicyclopenta[a,d][9]annulene-1,5,11(4H,8H)-trione
_symmetry_cell_setting           orthorhombic
_symmetry_space_group_name_H-M   'P 21 21 21'
_symmetry_Int_Tables_number      19
_space_group_name_Hall           'P 2ac 2ab'
loop_
_symmetry_equiv_pos_site_id
_symmetry_equiv_pos_as_xyz
1 x,y,z
2 1/2-x,-y,1/2+z
3 -x,1/2+y,1/2-z
4 1/2+x,1/2-y,-z
_cell_length_a                   6.63280(10)
_cell_length_b                   11.7781(2)
_cell_length_c                   22.7943(5)
_cell_angle_alpha                90
_cell_angle_beta                 90
_cell_angle_gamma                90
_cell_volume                     1780.73
_exptl_crystal_colour            colorless
_exptl_crystal_description       block
_chemical_melting_point          '183-185 deg.C'
_cell_formula_units_Z            4
loop_
_atom_site_label
_atom_site_type_symbol
_atom_site_fract_x
_atom_site_fract_y
_atom_site_fract_z
O1 O 0.1309(3) 0.46039(17) 0.53863(9)
O2 O 0.5121(3) 0.3737(2) 0.72402(9)
O3 O 0.5006(4) 0.58557(18) 0.47855(8)
C1 C 0.3051(3) 0.31318(19) 0.58562(10)
C2 C 0.4111(4) 0.2231(2) 0.54975(12)
H1 H 0.546774 0.246669 0.539591
H2 H 0.337125 0.206605 0.514033
C3 C 0.4142(4) 0.1196(2) 0.59089(13)
H3 H 0.384380 0.050423 0.568606
C4 C 0.2462(5) 0.1421(2) 0.63523(15)
H4 H 0.123778 0.102326 0.624308
H5 H 0.286238 0.118210 0.674264
C5 C 0.2159(4) 0.2694(2) 0.63278(11)
C6 C 0.0967(4) 0.3325(2) 0.67608(12)
H6 H -0.038237 0.312781 0.680388
C7 C 0.1673(4) 0.4155(2) 0.70951(11)
C8 C 0.3896(4) 0.4445(2) 0.70947(10)
C9 C 0.4506(4) 0.5621(2) 0.69145(10)
H7 H 0.596562 0.566842 0.690827
H8 H 0.401690 0.615845 0.720378
C10 C 0.3687(3) 0.59520(19) 0.63109(9)
H9 H 0.222448 0.584082 0.633000
C11 C 0.4441(3) 0.52217(18) 0.57818(10)
C12 C 0.2819(3) 0.43275(19) 0.56498(9)
C13 C 0.4411(4) 0.6071(2) 0.52692(11)
C14 C 0.3579(5) 0.7181(2) 0.54770(12)
H10 H 0.213936 0.722191 0.540458
H11 H 0.423156 0.780835 0.527727
C15 C 0.4016(4) 0.7221(2) 0.61350(12)
C16 C 0.6186(5) 0.7624(3) 0.62421(17)
H12 H 0.644751 0.764326 0.665620
H13 H 0.635678 0.837075 0.608088
H14 H 0.710958 0.710997 0.605624
C17 C 0.2552(5) 0.7990(3) 0.64592(13)
H15 H 0.119512 0.775254 0.637977
H16 H 0.273169 0.875917 0.632940
H17 H 0.280542 0.794544 0.687323
C18 C 0.0358(5) 0.4842(3) 0.74999(14)
H18 H 0.084667 0.477304 0.789471
H19 H -0.100209 0.456669 0.747971
H20 H 0.039162 0.562536 0.738334
C19 C 0.6166(6) 0.1080(3) 0.62108(17)
H21 H 0.720917 0.101619 0.592081
H22 H 0.616303 0.041412 0.645331
H23 H 0.640748 0.173797 0.644948
C20 C 0.6543(4) 0.4705(2) 0.58457(14)
H24 H 0.650753 0.410924 0.613270
H25 H 0.747418 0.528196 0.596932
H26 H 0.696937 0.440078 0.547525
loop_
_geom_bond_atom_site_label_1
_geom_bond_atom_site_label_2
_geom_bond_site_symmetry_1
_geom_bond_site_symmetry_2
O1 C12 1_555 1_555
O2 C8 1_555 1_555
O3 C13 1_555 1_555
C1 C2 1_555 1_555
C2 H1 1_555 1_555
H2 C2 1_555 1_555
C3 C2 1_555 1_555
H3 C3 1_555 1_555
C4 C3 1_555 1_555
H4 C4 1_555 1_555
H5 C4 1_555 1_555
C5 C1 1_555 1_555
C6 C5 1_555 1_555
H6 C6 1_555 1_555
C7 C6 1_555 1_555
C8 C7 1_555 1_555
C9 C8 1_555 1_555
H7 C9 1_555 1_555
H8 C9 1_555 1_555
C10 C9 1_555 1_555
H9 C10 1_555 1_555
C11 C10 1_555 1_555
C12 C1 1_555 1_555
C13 C11 1_555 1_555
C14 C13 1_555 1_555
H10 C14 1_555 1_555
H11 C14 1_555 1_555
C15 C10 1_555 1_555
C16 C15 1_555 1_555
H12 C16 1_555 1_555
H13 C16 1_555 1_555
H14 C16 1_555 1_555
C17 C15 1_555 1_555
H15 C17 1_555 1_555
H16 C17 1_555 1_555
H17 C17 1_555 1_555
C18 C7 1_555 1_555
H18 C18 1_555 1_555
H19 C18 1_555 1_555
H20 C18 1_555 1_555
C19 C3 1_555 1_555
H21 C19 1_555 1_555
H22 C19 1_555 1_555
H23 C19 1_555 1_555
C20 C11 1_555 1_555
H24 C20 1_555 1_555
H25 C20 1_555 1_555
H26 C20 1_555 1_555
C4 C5 1_555 1_555
C11 C12 1_555 1_555
C14 C15 1_555 1_555

#END
