
#######################################################################
#
#                 Cambridge Crystallographic Data Centre
#                                CCDC 
#
#######################################################################
#
# If this CIF has been generated from an entry in the Cambridge 
# Structural Database, then it will include bibliographic, chemical, 
# crystal, experimental, refinement or atomic coordinate data resulting 
# from the CCDC's data processing and validation procedures.
#
#######################################################################

data_XIGNUX
_chemical_formula_moiety         'C20 H24 O6 Rb1 1+,I3 1-'
_chemical_name_systematic        '(Dibenzo-18-crown-6)-rubidium tri-iodide'
_symmetry_cell_setting           monoclinic
_symmetry_space_group_name_H-M   'P 21/n'
_symmetry_Int_Tables_number      14
_space_group_name_Hall           '-P 2yn'
loop_
_symmetry_equiv_pos_site_id
_symmetry_equiv_pos_as_xyz
1 x,y,z
2 1/2-x,1/2+y,1/2-z
3 -x,-y,-z
4 1/2+x,1/2-y,1/2+z
_cell_length_a                   9.9950(6)
_cell_length_b                   17.1133(10)
_cell_length_c                   15.1745(9)
_cell_angle_alpha                90
_cell_angle_beta                 99.021(5)
_cell_angle_gamma                90
_cell_volume                     2563.45
_exptl_crystal_colour            red
_cell_formula_units_Z            4
loop_
_atom_site_label
_atom_site_type_symbol
_atom_site_fract_x
_atom_site_fract_y
_atom_site_fract_z
I1 I -0.42043(3) 0.205234(19) 0.84423(3)
I2 I -0.29572(4) 0.18101(3) 0.68134(3)
I3 I -0.53643(5) 0.23580(3) 1.00358(3)
Rb1 Rb -0.02084(4) 0.05216(2) 0.82513(3)
O1 O -0.2088(3) -0.06231(19) 0.7507(2)
O2 O -0.2386(3) 0.01132(19) 0.9148(2)
O3 O -0.0981(3) 0.13428(19) 0.9691(2)
O4 O -0.0182(3) 0.00380(17) 0.6458(2)
O5 O 0.1170(3) 0.12901(17) 0.6998(2)
O6 O 0.0756(3) 0.20508(19) 0.8622(2)
C1 C 0.1679(5) -0.0451(3) 0.5737(3)
H1 H 0.1199 -0.0899 0.5535
C2 C -0.2376(5) 0.0313(3) 1.0024(3)
C3 C 0.1095(4) 0.0106(3) 0.6222(3)
C4 C -0.0898(5) -0.0679(3) 0.6254(3)
H2 H -0.0391 -0.1110 0.6559
H3 H -0.1014 -0.0777 0.5617
C5 C -0.2244(5) -0.0612(3) 0.6552(3)
H4 H -0.2677 -0.0128 0.6330
H5 H -0.2818 -0.1043 0.6311
C6 C 0.2978(6) -0.0336(4) 0.5557(4)
H6 H 0.3377 -0.0713 0.5242
C7 C -0.3349(5) -0.0528(3) 0.7814(4)
H7 H -0.3964 -0.0941 0.7572
H8 H -0.3749 -0.0032 0.7605
C8 C -0.1619(5) 0.0978(3) 1.0312(3)
C9 C -0.3163(5) -0.0552(3) 0.8808(4)
H9 H -0.4037 -0.0545 0.9009
H10 H -0.2695 -0.1028 0.9024
C10 C -0.3058(5) -0.0088(4) 1.0607(4)
H11 H -0.3554 -0.0533 1.0417
C11 C 0.3101(5) 0.0884(4) 0.6311(3)
H12 H 0.3579 0.1335 0.6503
C12 C 0.3690(5) 0.0334(4) 0.5840(4)
H13 H 0.4560 0.0411 0.5711
C13 C -0.0114(6) 0.2488(3) 0.9090(4)
H14 H -0.0982 0.2562 0.8712
H15 H 0.0278 0.2999 0.9238
C14 C 0.1810(4) 0.0779(3) 0.6507(3)
C15 C -0.1537(6) 0.1223(4) 1.1193(4)
H16 H -0.1012 0.1654 1.1397
C16 C -0.3001(7) 0.0178(5) 1.1479(4)
H17 H -0.3479 -0.0085 1.1867
C17 C 0.1899(5) 0.1970(3) 0.7355(4)
H18 H 0.2177 0.2274 0.6876
H19 H 0.2705 0.1815 0.7760
C18 C 0.1009(6) 0.2447(3) 0.7840(4)
H20 H 0.1439 0.2946 0.8003
H21 H 0.0158 0.2548 0.7453
C19 C -0.2255(8) 0.0813(5) 1.1769(4)
H22 H -0.2218 0.0980 1.2355
C20 C -0.0321(6) 0.2076(3) 0.9925(4)
H23 H 0.0545 0.1987 1.0299
H24 H -0.0875 0.2394 1.0256
loop_
_geom_bond_atom_site_label_1
_geom_bond_atom_site_label_2
_geom_bond_site_symmetry_1
_geom_bond_site_symmetry_2
I1 I2 1_555 1_555
I3 I1 1_555 1_555
Rb1 O1 1_555 1_555
O1 C5 1_555 1_555
O2 Rb1 1_555 1_555
O3 Rb1 1_555 1_555
O4 Rb1 1_555 1_555
O5 Rb1 1_555 1_555
O6 Rb1 1_555 1_555
C1 H1 1_555 1_555
C2 O2 1_555 1_555
C3 O4 1_555 1_555
C4 O4 1_555 1_555
H2 C4 1_555 1_555
H3 C4 1_555 1_555
C5 C4 1_555 1_555
H4 C5 1_555 1_555
H5 C5 1_555 1_555
C6 C1 1_555 1_555
H6 C6 1_555 1_555
C7 O1 1_555 1_555
H7 C7 1_555 1_555
H8 C7 1_555 1_555
C8 O3 1_555 1_555
C9 O2 1_555 1_555
H9 C9 1_555 1_555
H10 C9 1_555 1_555
C10 C2 1_555 1_555
H11 C10 1_555 1_555
C11 H12 1_555 1_555
C12 C6 1_555 1_555
H13 C12 1_555 1_555
C13 O6 1_555 1_555
H14 C13 1_555 1_555
H15 C13 1_555 1_555
C14 O5 1_555 1_555
C15 C8 1_555 1_555
H16 C15 1_555 1_555
C16 C10 1_555 1_555
H17 C16 1_555 1_555
C17 O5 1_555 1_555
H18 C17 1_555 1_555
H19 C17 1_555 1_555
C18 O6 1_555 1_555
H20 C18 1_555 1_555
H21 C18 1_555 1_555
C19 C15 1_555 1_555
H22 C19 1_555 1_555
C20 O3 1_555 1_555
H23 C20 1_555 1_555
H24 C20 1_555 1_555
C1 C3 1_555 1_555
C2 C8 1_555 1_555
C3 C14 1_555 1_555
C7 C9 1_555 1_555
C11 C12 1_555 1_555
C11 C14 1_555 1_555
C13 C20 1_555 1_555
C16 C19 1_555 1_555
C17 C18 1_555 1_555

#END
