
#######################################################################
#
#                 Cambridge Crystallographic Data Centre
#                                CCDC 
#
#######################################################################
#
# If this CIF has been generated from an entry in the Cambridge 
# Structural Database, then it will include bibliographic, chemical, 
# crystal, experimental, refinement or atomic coordinate data resulting 
# from the CCDC's data processing and validation procedures.
#
#######################################################################

data_XIGNUZ
_chemical_formula_moiety         'C17 H22 O2'
_chemical_name_systematic        
3a,8-dimethyl-1-(prop-1-en-2-yl)-1,2,3,3a,9,9a-hexahydrobenzo[b]cyclopenta[e]pyran-6-ol
_symmetry_cell_setting           monoclinic
_symmetry_space_group_name_H-M   'C 2'
_symmetry_Int_Tables_number      5
_space_group_name_Hall           'C 2y'
loop_
_symmetry_equiv_pos_site_id
_symmetry_equiv_pos_as_xyz
1 x,y,z
2 -x,y,-z
3 1/2+x,1/2+y,z
4 1/2-x,1/2+y,-z
_cell_length_a                   29.6580(19)
_cell_length_b                   6.8498(5)
_cell_length_c                   7.4333(5)
_cell_angle_alpha                90
_cell_angle_beta                 104.450(2)
_cell_angle_gamma                90
_cell_volume                     1462.31
_exptl_crystal_colour            colorless
_exptl_crystal_description       block
_cell_formula_units_Z            4
loop_
_atom_site_label
_atom_site_type_symbol
_atom_site_fract_x
_atom_site_fract_y
_atom_site_fract_z
O1 O 0.70545(5) 0.5080(3) 0.6601(2)
O2 O 0.69539(6) 1.0502(3) 0.2580(3)
H1 H 0.723779 1.042680 0.295791
C1 C 0.68337(7) 0.3891(4) 0.7767(3)
C2 C 0.63904(8) 0.2860(3) 0.6679(3)
H2 H 0.646899 0.169919 0.604800
C3 C 0.60665(8) 0.4215(4) 0.5286(3)
H3 H 0.589972 0.343657 0.424126
H4 H 0.583792 0.475677 0.587974
C4 C 0.63009(7) 0.5867(3) 0.4558(3)
C5 C 0.60544(7) 0.7126(3) 0.3174(3)
C6 C 0.62779(7) 0.8660(4) 0.2540(3)
H5 H 0.610938 0.948715 0.162340
C7 C 0.67517(8) 0.8971(3) 0.3261(3)
C8 C 0.70020(8) 0.7760(3) 0.4640(3)
H6 H 0.731813 0.796921 0.514465
C9 C 0.67756(7) 0.6235(3) 0.5258(3)
C10 C 0.66730(8) 0.5117(4) 0.9210(3)
H7 H 0.691560 0.518749 1.035704
H8 H 0.659565 0.643189 0.875177
C11 C 0.62433(9) 0.4084(4) 0.9529(4)
H9 H 0.597351 0.493298 0.919568
H10 H 0.629258 0.371462 1.082312
C12 C 0.61708(7) 0.2266(3) 0.8284(3)
H11 H 0.637038 0.124288 0.898730
C13 C 0.56866(8) 0.1421(4) 0.7701(3)
C14 C 0.53151(11) 0.2244(6) 0.8030(5)
H12 H 0.502787 0.162246 0.766854
H13 H 0.533927 0.344829 0.862479
C15 C 0.56545(12) -0.0490(5) 0.6759(6)
H14 H 0.576788 -0.037136 0.566187
H15 H 0.533574 -0.091064 0.642034
H16 H 0.583909 -0.142991 0.758226
C16 C 0.72150(9) 0.2456(5) 0.8661(4)
H17 H 0.727797 0.160638 0.772552
H18 H 0.711499 0.169403 0.957440
H19 H 0.749260 0.315992 0.924716
C17 C 0.55405(8) 0.6810(4) 0.2343(3)
H20 H 0.549193 0.553356 0.179554
H21 H 0.542688 0.777842 0.140617
H22 H 0.537610 0.691695 0.329962
loop_
_geom_bond_atom_site_label_1
_geom_bond_atom_site_label_2
_geom_bond_site_symmetry_1
_geom_bond_site_symmetry_2
O1 C1 1_555 1_555
O2 H1 1_555 1_555
C1 C2 1_555 1_555
C2 H2 1_555 1_555
C3 C2 1_555 1_555
H3 C3 1_555 1_555
H4 C3 1_555 1_555
C4 C3 1_555 1_555
C5 C4 1_555 1_555
C6 C5 1_555 1_555
H5 C6 1_555 1_555
C7 O2 1_555 1_555
C8 C7 1_555 1_555
H6 C8 1_555 1_555
C9 O1 1_555 1_555
C10 C1 1_555 1_555
H7 C10 1_555 1_555
H8 C10 1_555 1_555
C11 C10 1_555 1_555
H9 C11 1_555 1_555
H10 C11 1_555 1_555
C12 C2 1_555 1_555
H11 C12 1_555 1_555
C13 C12 1_555 1_555
C14 C13 1_555 1_555
H12 C14 1_555 1_555
H13 C14 1_555 1_555
C15 C13 1_555 1_555
H14 C15 1_555 1_555
H15 C15 1_555 1_555
H16 C15 1_555 1_555
C16 C1 1_555 1_555
H17 C16 1_555 1_555
H18 C16 1_555 1_555
H19 C16 1_555 1_555
C17 C5 1_555 1_555
H20 C17 1_555 1_555
H21 C17 1_555 1_555
H22 C17 1_555 1_555
C4 C9 1_555 1_555
C6 C7 1_555 1_555
C8 C9 1_555 1_555
C11 C12 1_555 1_555

#END
