
#######################################################################
#
#                 Cambridge Crystallographic Data Centre
#                                CCDC 
#
#######################################################################
#
# If this CIF has been generated from an entry in the Cambridge 
# Structural Database, then it will include bibliographic, chemical, 
# crystal, experimental, refinement or atomic coordinate data resulting 
# from the CCDC's data processing and validation procedures.
#
#######################################################################

data_XIGPEJ
_chemical_formula_moiety         '3(C60 H72 Cs2 O18 2+),6(I3 1-)'
_chemical_name_systematic        
'tris((\m~2~-18-crown-8)-bis(18-crown-8)-di-cesium) hexakis(tri-iodide)'
_symmetry_cell_setting           triclinic
_symmetry_space_group_name_H-M   'P -1'
_symmetry_Int_Tables_number      2
_space_group_name_Hall           '-P 1'
loop_
_symmetry_equiv_pos_site_id
_symmetry_equiv_pos_as_xyz
1 x,y,z
2 -x,-y,-z
_cell_length_a                   15.1925(6)
_cell_length_b                   17.0249(7)
_cell_length_c                   21.3641(9)
_cell_angle_alpha                102.641(3)
_cell_angle_beta                 101.989(3)
_cell_angle_gamma                91.911(3)
_cell_volume                     5256.28
_exptl_crystal_colour            red
_exptl_crystal_description       polyhedron
_cell_formula_units_Z            1
loop_
_atom_site_label
_atom_site_type_symbol
_atom_site_fract_x
_atom_site_fract_y
_atom_site_fract_z
Cs1 Cs 0.771184(17) 0.729518(15) 0.304382(12)
Cs2 Cs 0.573367(16) 0.610446(15) 0.377845(12)
O1 O 0.52790(18) 0.68321(16) 0.52842(13)
O2 O 0.76735(19) 0.68221(17) 0.15471(13)
O3 O 0.76865(17) 0.54295(16) 0.34476(12)
O5 O 0.58556(18) 0.42473(17) 0.38921(13)
O6 O 0.91802(19) 0.63983(17) 0.21349(13)
O7 O 0.9131(2) 0.86420(18) 0.39893(14)
O8 O 0.71128(19) 0.83978(17) 0.20276(13)
O9 O 0.45046(18) 0.43520(18) 0.29668(12)
O11 O 0.53940(17) 0.65882(16) 0.22373(13)
O12 O 0.55766(18) 0.78932(16) 0.33475(12)
O13 O 0.40844(18) 0.70258(16) 0.42886(12)
O14 O 0.79971(18) 0.67860(16) 0.45257(12)
O17 O 0.70370(18) 0.80180(16) 0.44422(12)
O18 O 0.36464(17) 0.58241(16) 0.30807(13)
O20 O 0.8049(2) 0.93467(18) 0.32322(14)
O21 O 0.64998(18) 0.54542(16) 0.22454(13)
O22 O 0.98797(18) 0.71951(17) 0.34464(14)
C2 C 0.8370(3) 0.7784(3) 0.6288(2)
H1 H 0.8660 0.7711 0.6697
O23 O 0.63339(17) 0.54852(16) 0.50848(12)
C3 C 0.7875(3) 0.5070(3) 0.28224(19)
H2 H 0.8240 0.4619 0.2865
H3 H 0.8219 0.5464 0.2683
C4 C 0.7478(2) 0.7981(2) 0.50721(18)
C5 C 0.4388(3) 0.7711(2) 0.47716(18)
C7 C 0.7027(3) 0.4778(2) 0.2313(2)
H6 H 0.7171 0.4533 0.1896
H7 H 0.6685 0.4374 0.2444
C11 C 0.7900(3) 0.8448(3) 0.6251(2)
H11 H 0.7883 0.8833 0.6630
C13 C 0.5015(3) 0.7603(2) 0.53230(18)
C14 C 0.6416(3) 0.8635(2) 0.44156(19)
H12 H 0.6724 0.9157 0.4651
H13 H 0.5927 0.8526 0.4621
C15 C 0.5807(3) 0.3711(2) 0.33038(19)
C16 C 0.8752(3) 0.9280(3) 0.4307(2)
C17 C 0.7288(4) 0.5483(3) 0.0804(2)
H14 H 0.6721 0.5615 0.0614
C18 C 0.8527(3) 0.5619(3) 0.39214(19)
H15 H 0.8925 0.5963 0.3776
H16 H 0.8815 0.5125 0.3956
C19 C 0.7445(3) 0.8546(2) 0.56351(19)
H17 H 0.7118 0.8994 0.5606
C20 C 0.6850(3) 0.7107(3) 0.1232(2)
H18 H 0.6352 0.6955 0.1413
H19 H 0.6713 0.6865 0.0764
C21 C 0.8421(3) 0.7215(3) 0.57223(19)
H20 H 0.8753 0.6770 0.5755
C24 C 0.6421(3) 0.3148(3) 0.3182(2)
H23 H 0.6913 0.3113 0.3513
C25 C 0.6047(3) 0.8643(2) 0.37114(19)
H24 H 0.5641 0.9069 0.3691
H25 H 0.6540 0.8762 0.3513
C26 C 0.5706(3) 0.5270(2) 0.17705(18)
C27 C 0.6028(3) 0.6731(3) 0.57829(18)
H26 H 0.5915 0.6955 0.6214
H27 H 0.6571 0.7015 0.5743
C28 C 0.8952(4) 0.5060(3) 0.1388(2)
H28 H 0.9507 0.4912 0.1586
C29 C 0.3834(3) 0.4509(3) 0.24390(18)
H29 H 0.3506 0.4007 0.2176
H30 H 0.4121 0.4758 0.2157
C30 C 0.7981(2) 0.7311(2) 0.51133(18)
C31 C 0.8688(3) 0.5822(3) 0.16161(19)
C32 C 1.0375(3) 0.7836(3) 0.3954(2)
H31 H 1.0632 0.8228 0.3760
H32 H 1.0867 0.7625 0.4219
C33 C 0.6974(3) 0.8007(3) 0.1347(2)
H33 H 0.7490 0.8152 0.1181
H34 H 0.6445 0.8198 0.1104
C34 C 0.5484(3) 0.4546(3) 0.1305(2)
H35 H 0.5891 0.4151 0.1290
C35 C 0.5103(3) 0.5880(2) 0.17744(18)
C37 C 0.8874(3) 0.9543(3) 0.4986(2)
H38 H 0.9233 0.9269 0.5261
C38 C 0.7566(4) 0.4721(3) 0.0584(2)
H39 H 0.7186 0.4350 0.0243
C39 C 0.5050(3) 0.9021(3) 0.5826(2)
H40 H 0.5257 0.9455 0.6182
C40 C 0.5074(3) 0.3765(2) 0.27985(19)
C41 C 0.8183(3) 0.9687(3) 0.3897(2)
C42 C 0.8389(3) 0.6035(2) 0.45766(19)
H41 H 0.7989 0.5695 0.4725
H42 H 0.8962 0.6141 0.4894
C43 C 0.3433(3) 0.7125(2) 0.37280(18)
H43 H 0.3724 0.7390 0.3458
H44 H 0.2974 0.7459 0.3870
C44 C 0.4124(3) 0.8480(3) 0.4748(2)
H45 H 0.3717 0.8558 0.4381
C46 C 0.5586(4) 0.2686(3) 0.2066(3)
H48 H 0.5517 0.2344 0.1652
C47 C 0.4043(3) 0.4996(3) 0.0882(2)
H49 H 0.3478 0.4896 0.0596
C48 C 0.5329(3) 0.8253(3) 0.5849(2)
H50 H 0.5728 0.8178 0.6221
C49 C 0.6301(4) 0.2634(3) 0.2561(3)
H51 H 0.6711 0.2251 0.2482
C50 C 0.4651(3) 0.4408(3) 0.0859(2)
H52 H 0.4504 0.3922 0.0547
C54 C 1.0453(3) 0.6861(3) 0.3019(2)
H54 H 1.0992 0.6699 0.3276
H55 H 1.0638 0.7268 0.2808
C55 C 0.6158(3) 0.5847(3) 0.57077(18)
H56 H 0.6658 0.5780 0.6051
H57 H 0.5620 0.5572 0.5763
C56 C 0.5200(3) 0.7961(2) 0.26887(18)
H58 H 0.5677 0.8130 0.2496
H59 H 0.4771 0.8370 0.2700
C57 C 0.6591(3) 0.4195(3) 0.4422(2)
H60 H 0.7147 0.4428 0.4357
H61 H 0.6663 0.3634 0.4432
C58 C 0.8389(4) 0.4513(3) 0.0864(2)
H62 H 0.8576 0.4008 0.0705
C60 C 0.4273(3) 0.5733(3) 0.1331(2)
H64 H 0.3870 0.6132 0.1335
C63 C 0.7858(3) 0.6050(2) 0.13084(18)
C65 C 0.4466(3) 0.9131(3) 0.5271(2)
H69 H 0.4300 0.9646 0.5247
C67 C 0.4738(3) 0.7179(2) 0.22755(18)
H72 H 0.4264 0.7003 0.2468
H73 H 0.4467 0.7242 0.1838
C70 C 0.7789(3) 1.0363(3) 0.4170(3)
H76 H 0.7428 1.0643 0.3901
C72 C 0.9979(3) 0.6148(3) 0.2508(2)
H78 H 1.0373 0.5933 0.2220
H79 H 0.9816 0.5727 0.2715
C73 C 0.6401(3) 0.4641(3) 0.5055(2)
H80 H 0.5839 0.4409 0.5112
H81 H 0.6879 0.4576 0.5415
C76 C 0.4966(3) 0.3250(3) 0.2184(2)
H86 H 0.4477 0.3283 0.1849
C78 C 0.9777(3) 0.8243(3) 0.4383(2)
H89 H 0.9467 0.7847 0.4544
H90 H 1.0134 0.8634 0.4758
C79 C 0.7415(3) 0.9693(3) 0.2794(2)
H91 H 0.7607 1.0256 0.2842
H92 H 0.6825 0.9665 0.2900
C82 C 0.3194(3) 0.5062(3) 0.27192(19)
H95 H 0.2718 0.5143 0.2365
H96 H 0.2918 0.4813 0.3007
C83 C 0.7361(3) 0.9237(3) 0.2108(2)
H97 H 0.6919 0.9458 0.1810
H98 H 0.7942 0.9300 0.1995
C84 C 0.3008(3) 0.6314(3) 0.33396(19)
H99 H 0.2740 0.6045 0.3619
H100 H 0.2530 0.6381 0.2981
C87 C 0.8463(3) 1.0212(3) 0.5256(3)
H103 H 0.8544 1.0381 0.5710
C90 C 0.7942(3) 1.0621(3) 0.4857(3)
H108 H 0.7684 1.1078 0.5042
Cs3 Cs 0.899964(17) 0.968624(16) 0.058246(12)
O4 O 0.89879(18) 0.79269(17) 0.08799(13)
O10 O 0.75954(19) 0.8043(2) -0.00241(13)
O15 O 0.89831(19) 1.07198(17) 0.21085(14)
O16 O 0.7584(2) 1.08035(19) 0.11969(16)
O19 O 0.97727(18) 0.92482(17) 0.19494(13)
C1 C 0.8023(3) 1.1527(3) 0.1553(2)
C6 C 0.6810(3) 1.0869(3) 0.0690(3)
H4 H 0.7009 1.1073 0.0348
H5 H 0.6414 1.1243 0.0876
O24 O 0.68552(19) 0.9531(2) 0.00629(15)
C8 C 0.6322(3) 0.8795(3) -0.0238(2)
H8 H 0.5832 0.8884 -0.0580
H9 H 0.6059 0.8613 0.0088
O25 O 0.9656(2) 0.8539(2) -0.0877(2)
C9 C 0.8782(3) 1.1482(2) 0.2040(2)
C10 C 0.7787(3) 0.6739(3) -0.0715(2)
H10 H 0.7287 0.6775 -0.1039
C12 C 0.8785(3) 0.7284(2) 0.03366(19)
O26 O 1.1302(3) 1.0282(2) 0.1067(2)
C22 C 0.7817(6) 0.7462(5) -0.2237(3)
H21 H 0.7634 0.6950 -0.2505
C23 C 0.7793(4) 1.2275(3) 0.1447(3)
H22 H 0.7299 1.2309 0.1116
C36 C 0.9852(3) 1.0651(3) 0.2501(2)
H36 H 0.9938 1.1019 0.2930
H37 H 1.0323 1.0789 0.2290
C45 C 1.0168(3) 0.7889(3) -0.0728(3)
H46 H 1.0467 0.7683 -0.1083
H47 H 0.9764 0.7455 -0.0694
C51 C 1.1628(3) 1.1013(3) 0.1470(2)
C52 C 0.8898(3) 0.8347(3) -0.1382(2)
C53 C 0.9017(4) 1.2934(3) 0.2314(3)
H53 H 0.9344 1.3406 0.2575
C59 C 1.2441(4) 1.1147(4) 0.1925(2)
H63 H 1.2800 1.0725 0.1977
C61 C 0.8632(5) 0.7589(3) -0.1775(3)
H65 H 0.8992 0.7164 -0.1733
C62 C 0.9265(3) 0.6615(3) 0.0250(2)
H66 H 0.9763 0.6572 0.0573
C64 C 0.9897(3) 0.9801(3) 0.25756(19)
H67 H 1.0480 0.9744 0.2845
H68 H 0.9434 0.9673 0.2797
C66 C 0.6857(3) 0.8159(3) -0.0527(2)
H70 H 0.6478 0.7658 -0.0714
H71 H 0.7086 0.8319 -0.0876
C68 C 1.2713(6) 1.1921(5) 0.2301(3)
H74 H 1.3266 1.2019 0.2601
C69 C 0.8291(4) 1.2972(3) 0.1830(3)
H75 H 0.8129 1.3471 0.1755
C71 C 0.8280(4) 0.6067(3) -0.0797(3)
H77 H 0.8113 0.5662 -0.1180
C74 C 0.9717(3) 0.7844(3) 0.1407(2)
H82 H 1.0291 0.7941 0.1294
H83 H 0.9678 0.7299 0.1473
C75 C 1.0845(5) 0.8156(4) -0.0109(5)
H84 H 1.0590 0.7977 0.0221
H85 H 1.1355 0.7839 -0.0162
C77 C 1.1619(4) 0.9547(4) 0.1238(3)
H87 H 1.2142 0.9678 0.1602
H88 H 1.1150 0.9269 0.1374
C80 C 0.8033(3) 0.7357(3) -0.01529(19)
O27 O 1.1165(5) 0.8843(3) 0.0142(2)
C81 C 1.1850(4) 0.9048(4) 0.0695(3)
H93 H 1.2353 0.9318 0.0590
H94 H 1.2052 0.8556 0.0816
C85 C 0.9009(4) 0.5996(3) -0.0322(3)
H101 H 0.9333 0.5541 -0.0377
C86 C 0.9267(3) 1.2190(3) 0.2416(2)
H102 H 0.9769 1.2166 0.2743
C88 C 0.9661(3) 0.8435(3) 0.2021(2)
H104 H 0.9079 0.8345 0.2125
H105 H 1.0126 0.8355 0.2383
C89 C 0.6326(3) 1.0072(3) 0.0412(3)
H106 H 0.6178 0.9852 0.0762
H107 H 0.5766 1.0124 0.0114
Cs3A Cs 1.100036(17) 1.031376(16) -0.058246(12)
O4A O 1.10121(18) 1.20731(17) -0.08799(13)
O10A O 1.24046(19) 1.1957(2) 0.00241(13)
O15A O 1.10169(19) 0.92802(17) -0.21085(14)
O16A O 1.2416(2) 0.91965(19) -0.11969(16)
O19A O 1.02273(18) 1.07518(17) -0.19494(13)
C1A C 1.1977(3) 0.8473(3) -0.1553(2)
C6A C 1.3190(3) 0.9131(3) -0.0690(3)
H4A H 1.2991 0.8927 -0.0348
H5A H 1.3586 0.8757 -0.0876
O24A O 1.31448(19) 1.0469(2) -0.00629(15)
C8A C 1.3678(3) 1.1205(3) 0.0238(2)
H8A H 1.4168 1.1116 0.0580
H9A H 1.3941 1.1387 -0.0088
O25A O 1.0344(2) 1.1461(2) 0.0877(2)
C9A C 1.1218(3) 0.8518(2) -0.2040(2)
C10A C 1.2213(3) 1.3261(3) 0.0715(2)
H10A H 1.2713 1.3225 0.1039
C12A C 1.1215(3) 1.2716(2) -0.03366(19)
O26A O 0.8698(3) 0.9718(2) -0.1067(2)
C22A C 1.2183(6) 1.2538(5) 0.2237(3)
H21A H 1.2366 1.3050 0.2505
C23A C 1.2207(4) 0.7725(3) -0.1447(3)
H22A H 1.2701 0.7691 -0.1116
C36A C 1.0148(3) 0.9349(3) -0.2501(2)
H36A H 1.0062 0.8981 -0.2930
H37A H 0.9677 0.9211 -0.2290
C45A C 0.9832(3) 1.2111(3) 0.0728(3)
H46A H 0.9533 1.2317 0.1083
H47A H 1.0236 1.2545 0.0694
C51A C 0.8372(3) 0.8987(3) -0.1470(2)
C52A C 1.1102(3) 1.1653(3) 0.1382(2)
C53A C 1.0983(4) 0.7066(3) -0.2314(3)
H53A H 1.0656 0.6594 -0.2575
C59A C 0.7559(4) 0.8853(4) -0.1925(2)
H63A H 0.7200 0.9275 -0.1977
C61A C 1.1368(5) 1.2411(3) 0.1775(3)
H65A H 1.1008 1.2836 0.1733
C62A C 1.0735(3) 1.3385(3) -0.0250(2)
H66A H 1.0237 1.3428 -0.0573
C64A C 1.0103(3) 1.0199(3) -0.25756(19)
H67A H 0.9520 1.0256 -0.2845
H68A H 1.0566 1.0327 -0.2797
C66A C 1.3143(3) 1.1841(3) 0.0527(2)
H70A H 1.3522 1.2342 0.0714
H71A H 1.2914 1.1681 0.0876
C68A C 0.7287(6) 0.8079(5) -0.2301(3)
H74A H 0.6734 0.7981 -0.2601
C69A C 1.1709(4) 0.7028(3) -0.1830(3)
H75A H 1.1871 0.6529 -0.1755
C71A C 1.1720(4) 1.3933(3) 0.0797(3)
H77A H 1.1887 1.4338 0.1180
C74A C 1.0283(3) 1.2156(3) -0.1407(2)
H82A H 0.9709 1.2059 -0.1294
H83A H 1.0322 1.2701 -0.1473
C75A C 0.9155(5) 1.1844(4) 0.0109(5)
H84A H 0.9410 1.2023 -0.0221
H85A H 0.8645 1.2161 0.0162
C77A C 0.8381(4) 1.0453(4) -0.1238(3)
H87A H 0.7858 1.0322 -0.1602
H88A H 0.8850 1.0731 -0.1374
C80A C 1.1967(3) 1.2643(3) 0.01529(19)
O27A O 0.8835(5) 1.1157(3) -0.0142(2)
C81A C 0.8150(4) 1.0952(4) -0.0695(3)
H93A H 0.7647 1.0682 -0.0590
H94A H 0.7948 1.1444 -0.0816
C85A C 1.0991(4) 1.4004(3) 0.0322(3)
H101A H 1.0667 1.4459 0.0377
C86A C 1.0733(3) 0.7810(3) -0.2416(2)
H102A H 1.0231 0.7834 -0.2743
C88A C 1.0339(3) 1.1565(3) -0.2021(2)
H104A H 1.0921 1.1655 -0.2125
H105A H 0.9874 1.1645 -0.2383
C89A C 1.3674(3) 0.9928(3) -0.0412(3)
H106A H 1.3822 1.0148 -0.0762
H107A H 1.4234 0.9876 -0.0114
I1 I 1.229894(17) 0.783211(17) 0.216110(13)
I5 I 1.28065(3) 0.93353(2) 0.316046(16)
I6 I 1.17567(2) 0.63150(2) 0.119569(18)
I2 I 1.453020(19) 0.893565(19) 0.118466(15)
I7 I 1.41893(3) 0.73978(2) 0.018496(19)
I8 I 1.49905(3) 1.04633(3) 0.21287(2)
I3 I 0.89568(2) 0.41297(3) 0.538660(19)
I4 I 0.89916(2) 0.54276(2) 0.65682(2)
I9 I 0.89132(3) 0.28589(4) 0.42408(2)
loop_
_geom_bond_atom_site_label_1
_geom_bond_atom_site_label_2
_geom_bond_site_symmetry_1
_geom_bond_site_symmetry_2
Cs1 O2 1_555 1_555
Cs2 O1 1_555 1_555
Cs3 O4 1_555 1_555
I1 I5 1_555 1_555
I2 I7 1_555 1_555
I3 I4 1_555 1_555
I6 I1 1_555 1_555
I8 I2 1_555 1_555
I9 I3 1_555 1_555
O1 C13 1_555 1_555
O2 C20 1_555 1_555
O3 Cs1 1_555 1_555
O4 C12 1_555 1_555
O5 Cs2 1_555 1_555
O6 Cs1 1_555 1_555
O7 Cs1 1_555 1_555
O8 Cs1 1_555 1_555
O9 Cs2 1_555 1_555
O10 Cs3 1_555 1_555
O11 Cs1 1_555 1_555
O12 Cs1 1_555 1_555
O13 Cs2 1_555 1_555
O14 Cs1 1_555 1_555
O15 Cs3 1_555 1_555
O16 Cs3 1_555 1_555
O17 Cs1 1_555 1_555
O18 Cs2 1_555 1_555
O19 Cs3 1_555 1_555
O20 Cs1 1_555 1_555
O21 Cs1 1_555 1_555
O22 Cs1 1_555 1_555
C1 O16 1_555 1_555
C2 H1 1_555 1_555
O23 Cs2 1_555 1_555
C3 O3 1_555 1_555
H2 C3 1_555 1_555
H3 C3 1_555 1_555
C4 O17 1_555 1_555
C5 O13 1_555 1_555
C6 O16 1_555 1_555
H4 C6 1_555 1_555
H5 C6 1_555 1_555
O24 Cs3 1_555 1_555
C7 O21 1_555 1_555
H6 C7 1_555 1_555
H7 C7 1_555 1_555
C8 O24 1_555 1_555
H8 C8 1_555 1_555
H9 C8 1_555 1_555
O25 Cs3 1_555 1_555
C9 O15 1_555 1_555
C10 H10 1_555 1_555
C11 C2 1_555 1_555
H11 C11 1_555 1_555
C12 C62 1_555 1_555
C13 C5 1_555 1_555
C14 O17 1_555 1_555
H12 C14 1_555 1_555
H13 C14 1_555 1_555
C15 O5 1_555 1_555
C16 O7 1_555 1_555
O26 Cs3 1_555 1_555
C17 H14 1_555 1_555
C18 O3 1_555 1_555
H15 C18 1_555 1_555
H16 C18 1_555 1_555
C19 C4 1_555 1_555
H17 C19 1_555 1_555
C20 H18 1_555 1_555
H19 C20 1_555 1_555
C21 C2 1_555 1_555
H20 C21 1_555 1_555
C22 H21 1_555 1_555
C23 C1 1_555 1_555
H22 C23 1_555 1_555
C24 C15 1_555 1_555
H23 C24 1_555 1_555
C25 O12 1_555 1_555
H24 C25 1_555 1_555
H25 C25 1_555 1_555
C26 O21 1_555 1_555
C27 O1 1_555 1_555
H26 C27 1_555 1_555
H27 C27 1_555 1_555
C28 H28 1_555 1_555
C29 O9 1_555 1_555
H29 C29 1_555 1_555
H30 C29 1_555 1_555
C30 O14 1_555 1_555
C31 O6 1_555 1_555
C32 O22 1_555 1_555
H31 C32 1_555 1_555
H32 C32 1_555 1_555
C33 O8 1_555 1_555
H33 C33 1_555 1_555
H34 C33 1_555 1_555
C34 C26 1_555 1_555
H35 C34 1_555 1_555
C35 O11 1_555 1_555
C36 O15 1_555 1_555
H36 C36 1_555 1_555
H37 C36 1_555 1_555
C37 C16 1_555 1_555
H38 C37 1_555 1_555
C38 C17 1_555 1_555
H39 C38 1_555 1_555
C39 H40 1_555 1_555
C40 O9 1_555 1_555
C41 O20 1_555 1_555
C42 O14 1_555 1_555
H41 C42 1_555 1_555
H42 C42 1_555 1_555
C43 O13 1_555 1_555
H43 C43 1_555 1_555
H44 C43 1_555 1_555
C44 C5 1_555 1_555
H45 C44 1_555 1_555
C45 O25 1_555 1_555
H46 C45 1_555 1_555
H47 C45 1_555 1_555
C46 H48 1_555 1_555
C47 H49 1_555 1_555
C48 C13 1_555 1_555
H50 C48 1_555 1_555
C49 C24 1_555 1_555
H51 C49 1_555 1_555
C50 C34 1_555 1_555
H52 C50 1_555 1_555
C51 O26 1_555 1_555
C52 O25 1_555 1_555
C53 H53 1_555 1_555
C54 O22 1_555 1_555
H54 C54 1_555 1_555
H55 C54 1_555 1_555
C55 O23 1_555 1_555
H56 C55 1_555 1_555
H57 C55 1_555 1_555
C56 O12 1_555 1_555
H58 C56 1_555 1_555
H59 C56 1_555 1_555
C57 O5 1_555 1_555
H60 C57 1_555 1_555
H61 C57 1_555 1_555
C58 C28 1_555 1_555
H62 C58 1_555 1_555
C59 C51 1_555 1_555
H63 C59 1_555 1_555
C60 C35 1_555 1_555
H64 C60 1_555 1_555
C61 C22 1_555 1_555
H65 C61 1_555 1_555
C62 H66 1_555 1_555
C63 O2 1_555 1_555
C64 O19 1_555 1_555
H67 C64 1_555 1_555
H68 C64 1_555 1_555
C65 C39 1_555 1_555
H69 C65 1_555 1_555
C66 O10 1_555 1_555
H70 C66 1_555 1_555
H71 C66 1_555 1_555
C67 O11 1_555 1_555
H72 C67 1_555 1_555
H73 C67 1_555 1_555
C68 C59 1_555 1_555
H74 C68 1_555 1_555
C69 C23 1_555 1_555
H75 C69 1_555 1_555
C70 C41 1_555 1_555
H76 C70 1_555 1_555
C71 C10 1_555 1_555
H77 C71 1_555 1_555
C72 O6 1_555 1_555
H78 C72 1_555 1_555
H79 C72 1_555 1_555
C73 O23 1_555 1_555
H80 C73 1_555 1_555
H81 C73 1_555 1_555
C74 O4 1_555 1_555
H82 C74 1_555 1_555
H83 C74 1_555 1_555
C75 C45 1_555 1_555
H84 C75 1_555 1_555
H85 C75 1_555 1_555
C76 C40 1_555 1_555
H86 C76 1_555 1_555
C77 O26 1_555 1_555
H87 C77 1_555 1_555
H88 C77 1_555 1_555
C78 O7 1_555 1_555
H89 C78 1_555 1_555
H90 C78 1_555 1_555
C79 O20 1_555 1_555
H91 C79 1_555 1_555
H92 C79 1_555 1_555
C80 O10 1_555 1_555
O27 Cs3 1_555 1_555
C81 C77 1_555 1_555
H93 C81 1_555 1_555
H94 C81 1_555 1_555
C82 O18 1_555 1_555
H95 C82 1_555 1_555
H96 C82 1_555 1_555
C83 O8 1_555 1_555
H97 C83 1_555 1_555
H98 C83 1_555 1_555
C84 O18 1_555 1_555
H99 C84 1_555 1_555
H100 C84 1_555 1_555
C85 C62 1_555 1_555
H101 C85 1_555 1_555
C86 C9 1_555 1_555
H102 C86 1_555 1_555
C87 C37 1_555 1_555
H103 C87 1_555 1_555
C88 O19 1_555 1_555
H104 C88 1_555 1_555
H105 C88 1_555 1_555
C89 C6 1_555 1_555
H106 C89 1_555 1_555
H107 C89 1_555 1_555
C90 C70 1_555 1_555
H108 C90 1_555 1_555
Cs3A O25 1_555 1_555
O4A Cs3A 1_555 1_555
O10A Cs3A 1_555 1_555
O15A Cs3A 1_555 1_555
O16A Cs3A 1_555 1_555
O19A Cs3A 1_555 1_555
C1A O16A 1_555 1_555
C6A O16A 1_555 1_555
H4A C6A 1_555 1_555
H5A C6A 1_555 1_555
O24A Cs3A 1_555 1_555
C8A O24A 1_555 1_555
H8A C8A 1_555 1_555
H9A C8A 1_555 1_555
O25A Cs3 1_555 1_555
C9A O15A 1_555 1_555
C10A H10A 1_555 1_555
C12A O4A 1_555 1_555
O26A Cs3 1_555 1_555
C22A C68 1_555 1_555
H21A C22A 1_555 1_555
C23A C1A 1_555 1_555
H22A C23A 1_555 1_555
C36A O15A 1_555 1_555
H36A C36A 1_555 1_555
H37A C36A 1_555 1_555
C45A O25A 1_555 1_555
H46A C45A 1_555 1_555
H47A C45A 1_555 1_555
C51A C52 1_555 1_555
C52A C51 1_555 1_555
C53A H53A 1_555 1_555
C59A C51A 1_555 1_555
H63A C59A 1_555 1_555
C61A C22A 1_555 1_555
H65A C61A 1_555 1_555
C62A C12A 1_555 1_555
H66A C62A 1_555 1_555
C64A O19A 1_555 1_555
H67A C64A 1_555 1_555
H68A C64A 1_555 1_555
C66A O10A 1_555 1_555
H70A C66A 1_555 1_555
H71A C66A 1_555 1_555
C68A C22 1_555 1_555
H74A C68A 1_555 1_555
C69A C23A 1_555 1_555
H75A C69A 1_555 1_555
C71A C10A 1_555 1_555
H77A C71A 1_555 1_555
C74A O4A 1_555 1_555
H82A C74A 1_555 1_555
H83A C74A 1_555 1_555
C75A C45A 1_555 1_555
H84A C75A 1_555 1_555
H85A C75A 1_555 1_555
C77A O26A 1_555 1_555
H87A C77A 1_555 1_555
H88A C77A 1_555 1_555
C80A O10A 1_555 1_555
O27A Cs3 1_555 1_555
C81A C77A 1_555 1_555
H93A C81A 1_555 1_555
H94A C81A 1_555 1_555
C85A C62A 1_555 1_555
H101A C85A 1_555 1_555
C86A C9A 1_555 1_555
H102A C86A 1_555 1_555
C88A O19A 1_555 1_555
H104A C88A 1_555 1_555
H105A C88A 1_555 1_555
C89A C6A 1_555 1_555
H106A C89A 1_555 1_555
H107A C89A 1_555 1_555
Cs2 O3 1_555 1_555
Cs2 O11 1_555 1_555
Cs2 O12 1_555 1_555
Cs2 O14 1_555 1_555
Cs2 O17 1_555 1_555
Cs2 O21 1_555 1_555
C1 C9 1_555 1_555
C3 C7 1_555 1_555
C4 C30 1_555 1_555
O24 C89 1_555 1_555
C8 C66 1_555 1_555
C10 C80 1_555 1_555
C11 C19 1_555 1_555
C12 C80 1_555 1_555
C14 C25 1_555 1_555
C15 C40 1_555 1_555
C16 C41 1_555 1_555
O26 Cs3A 1_555 1_555
C17 C63 1_555 1_555
C18 C42 1_555 1_555
C20 C33 1_555 1_555
C21 C30 1_555 1_555
C26 C35 1_555 1_555
C27 C55 1_555 1_555
C28 C31 1_555 1_555
C29 C82 1_555 1_555
C31 C63 1_555 1_555
C32 C78 1_555 1_555
C36 C64 1_555 1_555
C38 C58 1_555 1_555
C39 C48 1_555 1_555
C43 C84 1_555 1_555
C44 C65 1_555 1_555
C46 C49 1_555 1_555
C46 C76 1_555 1_555
C47 C50 1_555 1_555
C47 C60 1_555 1_555
C52 C61 1_555 1_555
C53 C69 1_555 1_555
C53 C86 1_555 1_555
C54 C72 1_555 1_555
C56 C67 1_555 1_555
C57 C73 1_555 1_555
C71 C85 1_555 1_555
C74 C88 1_555 1_555
C75 O27 1_555 1_555
C79 C83 1_555 1_555
O27 C81 1_555 1_555
O27 Cs3A 1_555 1_555
C87 C90 1_555 1_555
Cs3A O25A 1_555 1_555
Cs3A O26A 1_555 1_555
Cs3A O27A 1_555 1_555
C1A C9A 1_555 1_555
O24A C89A 1_555 1_555
C8A C66A 1_555 1_555
O25A C52A 1_555 1_555
C10A C80A 1_555 1_555
C12A C80A 1_555 1_555
O26A C51A 1_555 1_555
C36A C64A 1_555 1_555
C52A C61A 1_555 1_555
C53A C69A 1_555 1_555
C53A C86A 1_555 1_555
C59A C68A 1_555 1_555
C71A C85A 1_555 1_555
C74A C88A 1_555 1_555
C75A O27A 1_555 1_555
O27A C81A 1_555 1_555

#END
