
#######################################################################
#
#                 Cambridge Crystallographic Data Centre
#                                CCDC 
#
#######################################################################
#
# If this CIF has been generated from an entry in the Cambridge 
# Structural Database, then it will include bibliographic, chemical, 
# crystal, experimental, refinement or atomic coordinate data resulting 
# from the CCDC's data processing and validation procedures.
#
#######################################################################

data_XIGPUB
_chemical_compound_source        'Rhododendron nyingchiense'
_chemical_name_common            '(-)-Nyingchinoid D'
_chemical_formula_moiety         'C17 H22 O2'
_chemical_name_systematic        
1,1,3a,8-tetramethyl-1a,2,3,3a,8b,8c-hexahydro-1H-4-oxabenzo[f]cyclobuta[cd]inden-6-ol
_chemical_properties_biological  
'weak inhibitory activity against protein tyrosine phosphatase 1B'
_symmetry_cell_setting           orthorhombic
_symmetry_space_group_name_H-M   'P 21 21 21'
_symmetry_Int_Tables_number      19
_space_group_name_Hall           'P 2ac 2ab'
loop_
_symmetry_equiv_pos_site_id
_symmetry_equiv_pos_as_xyz
1 x,y,z
2 1/2-x,-y,1/2+z
3 -x,1/2+y,1/2-z
4 1/2+x,1/2-y,-z
_cell_length_a                   6.0879(4)
_cell_length_b                   8.0119(6)
_cell_length_c                   29.617(2)
_cell_angle_alpha                90
_cell_angle_beta                 90
_cell_angle_gamma                90
_cell_volume                     1444.59
_exptl_crystal_colour            colorless
_exptl_crystal_description       plate
_cell_formula_units_Z            4
loop_
_atom_site_label
_atom_site_type_symbol
_atom_site_fract_x
_atom_site_fract_y
_atom_site_fract_z
O1 O 0.8319(3) 0.5799(2) 0.45093(6)
O2 O 0.2413(4) 0.9632(2) 0.45440(6)
H1 H 0.255153 0.945702 0.481527
C1 C 0.9394(4) 0.4417(3) 0.42790(8)
C2 C 1.0324(3) 0.4924(3) 0.38230(8)
H2 H 1.186838 0.526640 0.383146
C3 C 0.8830(3) 0.6083(3) 0.35382(7)
H3 H 0.974004 0.692466 0.338790
C4 C 0.7030(3) 0.6941(3) 0.37960(7)
C5 C 0.5550(4) 0.8064(3) 0.35907(7)
C6 C 0.4021(4) 0.8918(3) 0.38458(8)
H4 H 0.303656 0.963501 0.370427
C7 C 0.3934(4) 0.8719(3) 0.43109(8)
C8 C 0.5368(4) 0.7644(3) 0.45189(8)
H5 H 0.532052 0.750099 0.483040
C9 C 0.6888(3) 0.6772(3) 0.42617(7)
C10 C 0.7753(4) 0.3025(3) 0.41811(9)
H6 H 0.759601 0.229223 0.443984
H7 H 0.632482 0.347973 0.410416
C11 C 0.8745(4) 0.2094(3) 0.37813(10)
H8 H 0.761292 0.152740 0.360934
H9 H 0.981329 0.127736 0.388276
C12 C 0.9845(3) 0.3445(3) 0.34978(9)
H10 H 1.115938 0.304678 0.333999
C13 C 0.8370(4) 0.4599(3) 0.31983(8)
C14 C 0.9418(5) 0.4918(4) 0.27383(10)
H11 H 0.860231 0.576358 0.258156
H12 H 0.940586 0.390563 0.256486
H13 H 1.090636 0.528433 0.277921
C15 C 0.6001(4) 0.4044(4) 0.31334(10)
H14 H 0.527961 0.399489 0.342131
H15 H 0.597633 0.295922 0.299566
H16 H 0.525233 0.482655 0.294221
C16 C 1.1194(5) 0.3857(4) 0.46016(11)
H17 H 1.221087 0.475577 0.464831
H18 H 1.195461 0.291736 0.447490
H19 H 1.055106 0.354278 0.488516
C17 C 0.5693(6) 0.8441(4) 0.30916(9)
H20 H 0.717292 0.874686 0.301598
H21 H 0.472194 0.934680 0.301950
H22 H 0.527566 0.746992 0.292238
loop_
_geom_bond_atom_site_label_1
_geom_bond_atom_site_label_2
_geom_bond_site_symmetry_1
_geom_bond_site_symmetry_2
O1 C1 1_555 1_555
O2 H1 1_555 1_555
C1 C2 1_555 1_555
C2 H2 1_555 1_555
C3 C2 1_555 1_555
H3 C3 1_555 1_555
C4 C3 1_555 1_555
C5 C4 1_555 1_555
C6 C5 1_555 1_555
H4 C6 1_555 1_555
C7 O2 1_555 1_555
C8 C7 1_555 1_555
H5 C8 1_555 1_555
C9 O1 1_555 1_555
C10 C1 1_555 1_555
H6 C10 1_555 1_555
H7 C10 1_555 1_555
C11 C10 1_555 1_555
H8 C11 1_555 1_555
H9 C11 1_555 1_555
C12 C2 1_555 1_555
H10 C12 1_555 1_555
C13 C3 1_555 1_555
C14 C13 1_555 1_555
H11 C14 1_555 1_555
H12 C14 1_555 1_555
H13 C14 1_555 1_555
C15 C13 1_555 1_555
H14 C15 1_555 1_555
H15 C15 1_555 1_555
H16 C15 1_555 1_555
C16 C1 1_555 1_555
H17 C16 1_555 1_555
H18 C16 1_555 1_555
H19 C16 1_555 1_555
C17 C5 1_555 1_555
H20 C17 1_555 1_555
H21 C17 1_555 1_555
H22 C17 1_555 1_555
C4 C9 1_555 1_555
C6 C7 1_555 1_555
C8 C9 1_555 1_555
C11 C12 1_555 1_555
C12 C13 1_555 1_555

#END
