
#######################################################################
#
#                 Cambridge Crystallographic Data Centre
#                                CCDC 
#
#######################################################################
#
# If this CIF has been generated from an entry in the Cambridge 
# Structural Database, then it will include bibliographic, chemical, 
# crystal, experimental, refinement or atomic coordinate data resulting 
# from the CCDC's data processing and validation procedures.
#
#######################################################################

data_XIGSIS
_chemical_name_common            'Palmarumycin B!6$'
_chemical_formula_moiety         'C20 H13 Cl1 O4'
_chemical_name_systematic        
6-chloro-5-hydroxy-2,3-dihydro-4H-spiro[naphthalene-1,2'-naphtho[1,8-de][1,3]dioxin]-4-one
_chemical_properties_biological  'larvicidal activity'
_symmetry_cell_setting           orthorhombic
_symmetry_space_group_name_H-M   'P b c n'
_symmetry_Int_Tables_number      60
_space_group_name_Hall           '-P 2n 2ab'
loop_
_symmetry_equiv_pos_site_id
_symmetry_equiv_pos_as_xyz
1 x,y,z
2 1/2-x,1/2-y,1/2+z
3 1/2+x,1/2-y,-z
4 -x,y,1/2-z
5 -x,-y,-z
6 1/2+x,1/2+y,1/2-z
7 1/2-x,1/2+y,z
8 x,-y,1/2+z
_cell_length_a                   13.8242(4)
_cell_length_b                   14.0059(3)
_cell_length_c                   15.6594(4)
_cell_angle_alpha                90
_cell_angle_beta                 90
_cell_angle_gamma                90
_cell_volume                     3031.98
_chemical_melting_point          '190-192 deg.C'
_cell_formula_units_Z            8
_exptl_crystal_recrystallization_method dichloromethane/n-hexane
loop_
_atom_site_label
_atom_site_type_symbol
_atom_site_fract_x
_atom_site_fract_y
_atom_site_fract_z
Cl1 Cl 0.49621(3) 0.19045(3) 0.62922(3)
O1 O 0.47132(8) 0.66508(7) 0.63517(6)
O2 O 0.32390(7) 0.61297(7) 0.57522(6)
O3 O 0.34274(9) 0.27141(8) 0.73376(8)
H1 H 0.3022 0.2970 0.7644
O4 O 0.23610(8) 0.40507(8) 0.78955(8)
C1 C 0.42102(11) 0.50345(10) 0.64903(9)
C2 C 0.29949(11) 0.70511(10) 0.55156(9)
C3 C 0.36292(11) 0.78008(10) 0.57427(9)
C4 C 0.47000(12) 0.31068(10) 0.63974(10)
C5 C 0.52518(12) 0.37798(11) 0.59845(9)
H2 H 0.5789 0.3590 0.5669
C6 C 0.39146(11) 0.33831(11) 0.69059(9)
C7 C 0.33682(11) 0.63345(10) 0.73002(9)
H3 H 0.3138 0.6987 0.7259
H4 H 0.3820 0.6299 0.7773
C8 C 0.25648(12) 0.89092(11) 0.50061(9)
H5 H 0.2402 0.9526 0.4841
C9 C 0.19827(12) 0.81594(11) 0.47727(10)
H6 H 0.1439 0.8276 0.4439
C10 C 0.25197(11) 0.56719(11) 0.74681(10)
H7 H 0.2236 0.5828 0.8017
H8 H 0.2030 0.5772 0.7033
C11 C 0.44947(11) 0.76017(10) 0.61805(9)
C12 C 0.34096(11) 0.87532(10) 0.54957(9)
C13 C 0.38787(11) 0.60607(10) 0.64796(9)
C14 C 0.36585(11) 0.43578(10) 0.69480(9)
C15 C 0.50116(11) 0.47451(11) 0.60354(9)
H9 H 0.5395 0.5196 0.5761
C16 C 0.40740(12) 0.94772(11) 0.57328(10)
H10 H 0.3945 1.0109 0.5591
C17 C 0.51317(12) 0.83046(11) 0.63962(10)
H11 H 0.5701 0.8162 0.6686
C18 C 0.49046(12) 0.92563(11) 0.61676(10)
H12 H 0.5329 0.9744 0.6316
C19 C 0.21934(12) 0.72143(11) 0.50286(9)
H13 H 0.1793 0.6712 0.4868
C20 C 0.28173(12) 0.46422(11) 0.74663(10)
loop_
_geom_bond_atom_site_label_1
_geom_bond_atom_site_label_2
_geom_bond_site_symmetry_1
_geom_bond_site_symmetry_2
Cl1 C4 1_555 1_555
O1 C11 1_555 1_555
O2 C2 1_555 1_555
O3 H1 1_555 1_555
O4 C20 1_555 1_555
C1 C13 1_555 1_555
C2 C3 1_555 1_555
C3 C11 1_555 1_555
C4 C5 1_555 1_555
C5 H2 1_555 1_555
C6 O3 1_555 1_555
C7 H3 1_555 1_555
H4 C7 1_555 1_555
C8 H5 1_555 1_555
C9 C8 1_555 1_555
H6 C9 1_555 1_555
C10 C7 1_555 1_555
H7 C10 1_555 1_555
H8 C10 1_555 1_555
C11 C17 1_555 1_555
C12 C3 1_555 1_555
C13 O1 1_555 1_555
C14 C1 1_555 1_555
C15 C1 1_555 1_555
H9 C15 1_555 1_555
C16 C12 1_555 1_555
H10 C16 1_555 1_555
C17 H11 1_555 1_555
C18 C16 1_555 1_555
H12 C18 1_555 1_555
C19 C2 1_555 1_555
H13 C19 1_555 1_555
C20 C10 1_555 1_555
O2 C13 1_555 1_555
C4 C6 1_555 1_555
C5 C15 1_555 1_555
C6 C14 1_555 1_555
C7 C13 1_555 1_555
C8 C12 1_555 1_555
C9 C19 1_555 1_555
C14 C20 1_555 1_555
C17 C18 1_555 1_555

#END
