
#######################################################################
#
#                 Cambridge Crystallographic Data Centre
#                                CCDC 
#
#######################################################################
#
# If this CIF has been generated from an entry in the Cambridge 
# Structural Database, then it will include bibliographic, chemical, 
# crystal, experimental, refinement or atomic coordinate data resulting 
# from the CCDC's data processing and validation procedures.
#
#######################################################################

data_XIHFIF
_chemical_formula_moiety         'C15 H25 N1 O4'
_chemical_name_systematic        
'Ethyl 10,10a-dihydroxyoctahydro-1H,5H-pyrido[3,2,1-ij]quinoline-7a(8H)-carboxylate'
_symmetry_cell_setting           triclinic
_symmetry_space_group_name_H-M   'P -1'
_symmetry_Int_Tables_number      2
_space_group_name_Hall           '-P 1'
loop_
_symmetry_equiv_pos_site_id
_symmetry_equiv_pos_as_xyz
1 x,y,z
2 -x,-y,-z
_cell_length_a                   8.410(5)
_cell_length_b                   8.707(6)
_cell_length_c                   10.620(7)
_cell_angle_alpha                101.173(6)
_cell_angle_beta                 103.851(6)
_cell_angle_gamma                90.396(6)
_cell_volume                     739.574
_exptl_crystal_colour            colorless
_exptl_crystal_description       block
_cell_formula_units_Z            2
loop_
_atom_site_label
_atom_site_type_symbol
_atom_site_fract_x
_atom_site_fract_y
_atom_site_fract_z
C1 C 0.3391(2) 0.4760(2) 0.18640(15)
C2 C 0.3280(2) 0.3070(2) 0.20324(18)
H1 H 0.2220 0.2584 0.1525
H2 H 0.4119 0.2495 0.1687
C3 C 0.3500(3) 0.2971(2) 0.34726(19)
H3 H 0.3315 0.1893 0.3541
H4 H 0.4612 0.3322 0.3964
C4 C 0.2310(2) 0.3976(2) 0.40439(19)
H5 H 0.1200 0.3590 0.3573
H6 H 0.2452 0.3909 0.4965
C5 C 0.1452(3) 0.6544(3) 0.4652(2)
H7 H 0.1702 0.6406 0.5562
H8 H 0.0325 0.6163 0.4239
C6 C 0.1628(3) 0.8258(3) 0.4634(2)
H9 H 0.2738 0.8662 0.5087
H10 H 0.0880 0.8835 0.5092
C7 C 0.1250(3) 0.8477(2) 0.3215(2)
H11 H 0.1433 0.9575 0.3207
H12 H 0.0102 0.8181 0.2800
C8 C 0.2322(2) 0.7484(2) 0.24032(17)
C9 C 0.2201(2) 0.5750(2) 0.25480(15)
H13 H 0.1080 0.5324 0.2113
C10 C 0.5148(2) 0.5475(2) 0.24030(17)
H14 H 0.5432 0.5513 0.3359
C11 C 0.5278(2) 0.7146(2) 0.22163(19)
H15 H 0.5026 0.7158 0.1278
H16 H 0.6393 0.7578 0.2608
C12 C 0.4104(2) 0.8148(2) 0.28576(18)
H17 H 0.4149 0.9187 0.2659
H18 H 0.4467 0.8257 0.3811
C13 C 0.1498(2) 0.7574(2) 0.09699(18)
C14 C 0.1606(3) 0.8604(3) -0.09111(19)
H19 H 0.0542 0.9047 -0.0970
H20 H 0.1457 0.7578 -0.1491
C15 C 0.2721(3) 0.9641(3) -0.1312(2)
H21 H 0.2816 1.0667 -0.0762
H22 H 0.2285 0.9709 -0.2220
H23 H 0.3784 0.9215 -0.1213
N1 N 0.25409(18) 0.56232(17) 0.39532(13)
O1 O 0.29489(15) 0.48122(15) 0.04766(10)
H24 H 0.2048 0.4357 0.0131
O2 O 0.62965(16) 0.45273(17) 0.18719(13)
H25 H 0.6297 0.4696 0.1139
O3 O 0.01488(16) 0.69881(16) 0.03971(13)
O4 O 0.23460(16) 0.84679(15) 0.04468(12)
loop_
_geom_bond_atom_site_label_1
_geom_bond_atom_site_label_2
_geom_bond_site_symmetry_1
_geom_bond_site_symmetry_2
C1 C2 1_555 1_555
C2 H1 1_555 1_555
H2 C2 1_555 1_555
C3 C2 1_555 1_555
H3 C3 1_555 1_555
H4 C3 1_555 1_555
C4 C3 1_555 1_555
H5 C4 1_555 1_555
H6 C4 1_555 1_555
C5 H7 1_555 1_555
H8 C5 1_555 1_555
C6 C5 1_555 1_555
H9 C6 1_555 1_555
H10 C6 1_555 1_555
C7 C6 1_555 1_555
H11 C7 1_555 1_555
H12 C7 1_555 1_555
C8 C7 1_555 1_555
C9 C1 1_555 1_555
H13 C9 1_555 1_555
C10 C1 1_555 1_555
H14 C10 1_555 1_555
C11 C10 1_555 1_555
H15 C11 1_555 1_555
H16 C11 1_555 1_555
C12 C8 1_555 1_555
H17 C12 1_555 1_555
H18 C12 1_555 1_555
C13 C8 1_555 1_555
C14 H19 1_555 1_555
H20 C14 1_555 1_555
C15 C14 1_555 1_555
H21 C15 1_555 1_555
H22 C15 1_555 1_555
H23 C15 1_555 1_555
N1 C4 1_555 1_555
O1 C1 1_555 1_555
H24 O1 1_555 1_555
O2 C10 1_555 1_555
H25 O2 1_555 1_555
O3 C13 1_555 1_555
O4 C13 1_555 1_555
C5 N1 1_555 1_555
C8 C9 1_555 1_555
C9 N1 1_555 1_555
C11 C12 1_555 1_555
C14 O4 1_555 1_555

#END
