
#######################################################################
#
#                 Cambridge Crystallographic Data Centre
#                                CCDC 
#
#######################################################################
#
# If this CIF has been generated from an entry in the Cambridge 
# Structural Database, then it will include bibliographic, chemical, 
# crystal, experimental, refinement or atomic coordinate data resulting 
# from the CCDC's data processing and validation procedures.
#
#######################################################################

data_XIHRUD
_chemical_formula_moiety         'C31 H29 N2 O5 1+,H2 O1,Cl1 O4 1-'
_chemical_name_systematic        
"N-(8-(2-Carboxyphenyl)-4-methyl-7-oxo-2,3,4,7-tetrahydro-1H,11H-chromeno[2',3':4,5]pyrano[3,2-g]quinolin-11-ylidene)-N-ethylethanaminium perchlorate monohydrate"
_symmetry_cell_setting           monoclinic
_symmetry_space_group_name_H-M   'P 21/n'
_symmetry_Int_Tables_number      14
_space_group_name_Hall           '-P 2yn'
loop_
_symmetry_equiv_pos_site_id
_symmetry_equiv_pos_as_xyz
1 x,y,z
2 1/2-x,1/2+y,1/2-z
3 -x,-y,-z
4 1/2+x,1/2-y,1/2+z
_cell_length_a                   11.919(2)
_cell_length_b                   14.984(3)
_cell_length_c                   16.757(3)
_cell_angle_alpha                90
_cell_angle_beta                 101.78(3)
_cell_angle_gamma                90
_cell_volume                     2929.67
_exptl_crystal_colour            black
_exptl_crystal_description       block
_cell_formula_units_Z            4
loop_
_atom_site_label
_atom_site_type_symbol
_atom_site_fract_x
_atom_site_fract_y
_atom_site_fract_z
Cl1 Cl 0.7153(2) 0.74232(14) 0.05537(12)
O1 O 0.6678(9) 0.7300(5) 0.1257(4)
O2 O 0.7018(7) 0.6621(4) 0.0091(4)
O3 O 0.6580(8) 0.8152(5) 0.0091(5)
O4 O 0.8315(7) 0.7670(6) 0.0764(5)
O5 O 0.3353(8) 0.4212(4) 0.4189(4)
H1 H 0.3322 0.4640 0.4508
O6 O 0.3837(7) 0.4962(4) 0.3208(4)
O7 O 0.5042(3) 0.5461(2) 0.0957(2)
O8 O 0.1583(3) 0.4114(3) 0.1349(3)
O9 O 0.1545(3) 0.5257(2) 0.0518(2)
N1 N 0.8823(4) 0.4632(4) 0.2194(4)
N2 N 0.1126(4) 0.7881(3) -0.1085(3)
C1 C 0.9979(7) 0.4309(7) 0.3588(5)
H2 H 1.0226 0.4934 0.3631
H3 H 1.0608 0.3928 0.3864
H4 H 0.9316 0.4234 0.3843
C2 C 0.9656(6) 0.4051(6) 0.2704(5)
H5 H 1.0360 0.4038 0.2478
H6 H 0.9341 0.3437 0.2669
C3 C 0.9333(8) 0.6084(8) 0.2136(6)
H7 H 0.9723 0.6558 0.1896
H8 H 0.9738 0.5974 0.2698
H9 H 0.8543 0.6266 0.2135
C4 C 0.9324(7) 0.5304(6) 0.1679(6)
H10 H 1.0108 0.5133 0.1626
H11 H 0.8834 0.5369 0.1130
C5 C 0.5753(4) 0.4915(3) 0.1494(3)
C6 C 0.6899(5) 0.5067(4) 0.1586(3)
H12 H 0.7165 0.5540 0.1296
C7 C 0.7681(5) 0.4529(4) 0.2107(3)
C8 C 0.7234(5) 0.3853(4) 0.2546(3)
H13 H 0.7749 0.3488 0.2914
C9 C 0.6094(5) 0.3714(4) 0.2453(3)
H14 H 0.5829 0.3253 0.2758
C10 C 0.5281(4) 0.4240(4) 0.1912(3)
C11 C 0.4092(4) 0.4130(4) 0.1793(3)
C12 C 0.3592(4) 0.3413(4) 0.2217(3)
C13 C 0.3326(5) 0.3452(4) 0.2973(4)
C14 C 0.3524(6) 0.4263(5) 0.3452(4)
C15 C 0.2812(6) 0.2703(5) 0.3284(4)
H15 H 0.2607 0.2736 0.3802
C16 C 0.2618(6) 0.1946(5) 0.2836(4)
H16 H 0.2258 0.1455 0.3041
C17 C 0.2929(5) 0.1870(4) 0.2097(4)
H17 H 0.2810 0.1324 0.1803
C18 C 0.3411(5) 0.2581(4) 0.1782(4)
H18 H 0.3629 0.2524 0.1270
C19 C 0.3395(4) 0.4721(3) 0.1235(3)
C20 C 0.2142(4) 0.4645(3) 0.1059(3)
C21 C 0.2058(4) 0.5933(3) 0.0172(3)
C22 C 0.3253(4) 0.6007(3) 0.0311(3)
C23 C 0.3895(4) 0.5375(3) 0.0839(3)
C24 C 0.3714(5) 0.6726(4) -0.0064(3)
H19 H 0.4522 0.6790 0.0022
C25 C 0.3035(5) 0.7330(4) -0.0545(3)
C26 C 0.3555(6) 0.8094(4) -0.0937(4)
H20 H 0.4299 0.8261 -0.0588
H21 H 0.3701 0.7899 -0.1471
C27 C 0.2790(6) 0.8878(5) -0.1054(5)
H22 H 0.3103 0.9335 -0.1375
H23 H 0.2758 0.9139 -0.0517
C28 C 0.1587(7) 0.8625(5) -0.1494(5)
H24 H 0.1077 0.9149 -0.1513
H25 H 0.1603 0.8452 -0.2062
C29 C -0.0116(6) 0.7829(5) -0.1202(6)
H26 H -0.0397 0.7328 -0.1564
H27 H -0.0456 0.8385 -0.1448
H28 H -0.0332 0.7739 -0.0674
C30 C 0.1823(5) 0.7258(4) -0.0661(3)
C31 C 0.1347(5) 0.6530(4) -0.0298(3)
H29 H 0.0540 0.6459 -0.0382
O10 O 0.3772(8) 0.5557(5) 0.5172(4)
H30 H 0.3634 0.6068 0.5334
H31 H 0.4253 0.5258 0.5503
loop_
_geom_bond_atom_site_label_1
_geom_bond_atom_site_label_2
_geom_bond_site_symmetry_1
_geom_bond_site_symmetry_2
Cl1 O1 1_555 1_555
O2 Cl1 1_555 1_555
O3 Cl1 1_555 1_555
O4 Cl1 1_555 1_555
O5 H1 1_555 1_555
O6 C14 1_555 1_555
O7 C5 1_555 1_555
O8 C20 1_555 1_555
O9 C20 1_555 1_555
N1 C2 1_555 1_555
N2 C28 1_555 1_555
C1 H2 1_555 1_555
H3 C1 1_555 1_555
H4 C1 1_555 1_555
C2 C1 1_555 1_555
H5 C2 1_555 1_555
H6 C2 1_555 1_555
C3 H7 1_555 1_555
H8 C3 1_555 1_555
H9 C3 1_555 1_555
C4 N1 1_555 1_555
H10 C4 1_555 1_555
H11 C4 1_555 1_555
C5 C6 1_555 1_555
C6 H12 1_555 1_555
C7 N1 1_555 1_555
C8 C7 1_555 1_555
H13 C8 1_555 1_555
C9 C8 1_555 1_555
H14 C9 1_555 1_555
C10 C5 1_555 1_555
C11 C10 1_555 1_555
C12 C11 1_555 1_555
C13 C12 1_555 1_555
C14 O5 1_555 1_555
C15 C13 1_555 1_555
H15 C15 1_555 1_555
C16 C15 1_555 1_555
H16 C16 1_555 1_555
C17 C16 1_555 1_555
H17 C17 1_555 1_555
C18 C12 1_555 1_555
H18 C18 1_555 1_555
C19 C11 1_555 1_555
C20 C19 1_555 1_555
C21 O9 1_555 1_555
C22 C21 1_555 1_555
C23 O7 1_555 1_555
C24 C22 1_555 1_555
H19 C24 1_555 1_555
C25 C24 1_555 1_555
C26 C25 1_555 1_555
H20 C26 1_555 1_555
H21 C26 1_555 1_555
C27 C26 1_555 1_555
H22 C27 1_555 1_555
H23 C27 1_555 1_555
C28 C27 1_555 1_555
H24 C28 1_555 1_555
H25 C28 1_555 1_555
C29 N2 1_555 1_555
H26 C29 1_555 1_555
H27 C29 1_555 1_555
H28 C29 1_555 1_555
C30 N2 1_555 1_555
C31 C21 1_555 1_555
H29 C31 1_555 1_555
O10 H30 1_555 1_555
H31 O10 1_555 1_555
C3 C4 1_555 1_555
C6 C7 1_555 1_555
C9 C10 1_555 1_555
C13 C14 1_555 1_555
C17 C18 1_555 1_555
C19 C23 1_555 1_555
C22 C23 1_555 1_555
C25 C30 1_555 1_555
C30 C31 1_555 1_555

#END
