
#######################################################################
#
#                 Cambridge Crystallographic Data Centre
#                                CCDC 
#
#######################################################################
#
# If this CIF has been generated from an entry in the Cambridge 
# Structural Database, then it will include bibliographic, chemical, 
# crystal, experimental, refinement or atomic coordinate data resulting 
# from the CCDC's data processing and validation procedures.
#
#######################################################################

data_XIHTAM01
_chemical_formula_moiety         'F1 O3 P1 2-,2(H4 N1 1+)'
_chemical_name_systematic        'bis(ammonium) phosphorofluoridate'
_symmetry_cell_setting           orthorhombic
_symmetry_space_group_name_H-M   'P n a 21'
_symmetry_Int_Tables_number      33
_space_group_name_Hall           'P 2c -2n'
loop_
_symmetry_equiv_pos_site_id
_symmetry_equiv_pos_as_xyz
1 x,y,z
2 -x,-y,1/2+z
3 1/2+x,1/2-y,z
4 1/2-x,1/2+y,1/2+z
_cell_length_a                   7.9407(7)
_cell_length_b                   11.3362(10)
_cell_length_c                   6.0308(4)
_cell_angle_alpha                90
_cell_angle_beta                 90
_cell_angle_gamma                90
_cell_volume                     542.877
_exptl_crystal_colour            colorless
_exptl_crystal_description       Prism
_cell_formula_units_Z            4
loop_
_atom_site_label
_atom_site_type_symbol
_atom_site_fract_x
_atom_site_fract_y
_atom_site_fract_z
P1 P 0.18998(11) 0.12616(8) 0.8162(2)
F1 F -0.0002(3) 0.0829(2) 0.8232(8)
O1 O 0.2864(4) 0.0176(3) 0.8872(6)
O2 O 0.1960(5) 0.2273(3) 0.9741(7)
O3 O 0.2186(4) 0.1559(3) 0.5752(6)
N1 N 0.6415(5) 0.0400(4) 0.8361(10)
H1 H 0.660(6) 0.017(5) 0.700(10)
H2 H 0.670(8) 0.122(6) 0.882(12)
H3 H 0.525(7) 0.031(5) 0.838(16)
H4 H 0.705(7) -0.009(6) 0.933(11)
N2 N 0.0884(5) -0.1914(4) 0.8283(13)
H5 H 0.147(7) -0.239(6) 0.930(11)
H6 H 0.148(8) -0.128(6) 0.806(15)
H7 H 0.084(9) -0.226(8) 0.704(18)
H8 H -0.019(10) -0.187(6) 0.899(13)
loop_
_geom_bond_atom_site_label_1
_geom_bond_atom_site_label_2
_geom_bond_site_symmetry_1
_geom_bond_site_symmetry_2
P1 F1 1_555 1_555
O1 P1 1_555 1_555
O2 P1 1_555 1_555
O3 P1 1_555 1_555
N1 H1 1_555 1_555
H2 N1 1_555 1_555
H3 N1 1_555 1_555
H4 N1 1_555 1_555
N2 H5 1_555 1_555
H6 N2 1_555 1_555
H7 N2 1_555 1_555
H8 N2 1_555 1_555

#END
