
#######################################################################
#
#                 Cambridge Crystallographic Data Centre
#                                CCDC 
#
#######################################################################
#
# If this CIF has been generated from an entry in the Cambridge 
# Structural Database, then it will include bibliographic, chemical, 
# crystal, experimental, refinement or atomic coordinate data resulting 
# from the CCDC's data processing and validation procedures.
#
#######################################################################

data_XIHYIX
_chemical_formula_moiety         'C21 H16 Cl1 N3 O1'
_chemical_name_systematic        
(R)-3-1H-Benzotriazolyl-1-(4-chlorophenyl)-3-phenylpropan-1-one
_symmetry_cell_setting           orthorhombic
_symmetry_space_group_name_H-M   'P 21 21 21'
_symmetry_Int_Tables_number      19
_space_group_name_Hall           'P 2ac 2ab'
loop_
_symmetry_equiv_pos_site_id
_symmetry_equiv_pos_as_xyz
1 x,y,z
2 1/2-x,-y,1/2+z
3 -x,1/2+y,1/2-z
4 1/2+x,1/2-y,-z
_cell_length_a                   6.9853(4)
_cell_length_b                   15.3566(9)
_cell_length_c                   16.6281(10)
_cell_angle_alpha                90
_cell_angle_beta                 90
_cell_angle_gamma                90
_cell_volume                     1783.7
_exptl_crystal_colour            colorless
_exptl_crystal_description       needle
_cell_formula_units_Z            4
loop_
_atom_site_label
_atom_site_type_symbol
_atom_site_fract_x
_atom_site_fract_y
_atom_site_fract_z
Cl1 Cl 0.84150(6) -0.03737(3) 0.89484(4)
O1 O 0.05037(18) 0.19370(8) 0.95444(6)
N1 N 0.2419(2) 0.41450(9) 0.83305(9)
N2 N 0.17841(18) 0.33637(8) 0.81905(8)
N3 N -0.01340(16) 0.33504(7) 0.83056(7)
C1 C 0.0888(2) 0.46597(9) 0.85408(8)
C2 C 0.0811(3) 0.55393(10) 0.87699(10)
H1 H 0.198(3) 0.5895(12) 0.8755(11)
C3 C -0.0943(3) 0.58569(10) 0.89705(11)
H2 H -0.108(3) 0.6466(13) 0.9159(12)
C4 C -0.2607(3) 0.53431(11) 0.89522(12)
H3 H -0.377(3) 0.5618(13) 0.9101(12)
C5 C -0.2570(2) 0.44816(10) 0.87273(10)
H4 H -0.366(3) 0.4147(11) 0.8685(9)
C6 C -0.0763(2) 0.41559(8) 0.85231(8)
C7 C -0.12851(19) 0.25691(8) 0.81538(9)
H5 H -0.216(3) 0.2536(10) 0.8593(11)
C8 C -0.2389(2) 0.26646(8) 0.73761(9)
C9 C -0.1487(2) 0.29544(10) 0.66811(10)
H6 H -0.011(3) 0.3105(12) 0.6702(10)
C10 C -0.2494(3) 0.30376(11) 0.59737(11)
H7 H -0.186(3) 0.3274(12) 0.5539(12)
C11 C -0.4415(3) 0.28315(12) 0.59495(12)
H8 H -0.522(3) 0.2896(13) 0.5474(12)
C12 C -0.5303(3) 0.25449(13) 0.66323(13)
H9 H -0.662(4) 0.2402(14) 0.6636(14)
C13 C -0.4310(2) 0.24649(11) 0.73456(11)
H10 H -0.498(3) 0.2278(12) 0.7835(12)
C14 C 0.0005(2) 0.17660(9) 0.81409(9)
H11 H -0.081(3) 0.1287(11) 0.8053(9)
H12 H 0.095(3) 0.1812(11) 0.7690(10)
C15 C 0.1086(2) 0.16338(8) 0.89164(8)
C16 C 0.29114(19) 0.11298(7) 0.88937(8)
C17 C 0.4303(2) 0.13222(9) 0.94612(9)
H13 H 0.410(3) 0.1771(11) 0.9863(10)
C18 C 0.6015(2) 0.08728(10) 0.94707(9)
H14 H 0.701(3) 0.1007(12) 0.9853(11)
C19 C 0.6284(2) 0.02171(9) 0.89139(10)
C20 C 0.4948(2) 0.00198(10) 0.83352(10)
H15 H 0.515(3) -0.0455(11) 0.7961(10)
C21 C 0.3256(2) 0.04876(9) 0.83243(9)
H16 H 0.229(3) 0.0358(11) 0.7913(11)
loop_
_geom_bond_atom_site_label_1
_geom_bond_atom_site_label_2
_geom_bond_site_symmetry_1
_geom_bond_site_symmetry_2
Cl1 C19 1_555 1_555
O1 C15 1_555 1_555
N1 N2 1_555 1_555
N2 N3 1_555 1_555
N3 C6 1_555 1_555
C1 N1 1_555 1_555
C2 C1 1_555 1_555
H1 C2 1_555 1_555
C3 C2 1_555 1_555
H2 C3 1_555 1_555
C4 C3 1_555 1_555
H3 C4 1_555 1_555
C5 C4 1_555 1_555
H4 C5 1_555 1_555
C6 C1 1_555 1_555
C7 N3 1_555 1_555
H5 C7 1_555 1_555
C8 C7 1_555 1_555
C9 C8 1_555 1_555
H6 C9 1_555 1_555
C10 C9 1_555 1_555
H7 C10 1_555 1_555
C11 C10 1_555 1_555
H8 C11 1_555 1_555
C12 C11 1_555 1_555
H9 C12 1_555 1_555
C13 C8 1_555 1_555
H10 C13 1_555 1_555
C14 C7 1_555 1_555
H11 C14 1_555 1_555
H12 C14 1_555 1_555
C15 C14 1_555 1_555
C16 C15 1_555 1_555
C17 C16 1_555 1_555
H13 C17 1_555 1_555
C18 C17 1_555 1_555
H14 C18 1_555 1_555
C19 C18 1_555 1_555
C20 C19 1_555 1_555
H15 C20 1_555 1_555
C21 C16 1_555 1_555
H16 C21 1_555 1_555
C5 C6 1_555 1_555
C12 C13 1_555 1_555
C20 C21 1_555 1_555

#END
