
#######################################################################
#
#                 Cambridge Crystallographic Data Centre
#                                CCDC 
#
#######################################################################
#
# If this CIF has been generated from an entry in the Cambridge 
# Structural Database, then it will include bibliographic, chemical, 
# crystal, experimental, refinement or atomic coordinate data resulting 
# from the CCDC's data processing and validation procedures.
#
#######################################################################

data_XIJBOI
_chemical_name_common            
'5-Azido-1-beta-D-ribofuranosyl-1H-1,2,4-triazole-3-carboxamide monohydrate'
_chemical_formula_moiety         '2(C8 H11 N7 O5),H2 O1'
_chemical_name_systematic        
'5-Azido-1-(3,4-dihydroxy-5-hydroxymethyl-tetrahydrofuran-2-yl)-1H-(1,2,4)triazole-3-carboxamide monohydrate'
_chemical_properties_biological  
'The structure is a photolabelled probe of the antiviral drug ribavirin'
_symmetry_cell_setting           monoclinic
_symmetry_space_group_name_H-M   'P 21'
_symmetry_Int_Tables_number      4
_space_group_name_Hall           'P 2yb'
loop_
_symmetry_equiv_pos_site_id
_symmetry_equiv_pos_as_xyz
1 x,y,z
2 -x,1/2+y,-z
_cell_length_a                   14.9540(3)
_cell_length_b                   7.5030(1)
_cell_length_c                   22.8780(6)
_cell_angle_alpha                90
_cell_angle_beta                 105.8511(7)
_cell_angle_gamma                90
_cell_volume                     2469.3
_exptl_crystal_colour            colorless
_exptl_crystal_description       prism
_cell_formula_units_Z            4
_chemical_properties_physical    light-sensitive
loop_
_atom_site_label
_atom_site_type_symbol
_atom_site_fract_x
_atom_site_fract_y
_atom_site_fract_z
O1 O 0.7318(2) 0.4661(4) 0.13652(13)
O2 O 0.6355(3) 0.7634(5) 0.07516(17)
H1 H 0.6831 0.8137 0.0569
O3 O 0.6490(2) 0.2062(4) -0.00051(13)
O4 O 0.8144(2) 0.1676(5) 0.08302(13)
H2 H 0.8728 0.1077 0.1110
O5 O 0.4432(2) 0.0447(6) 0.19628(15)
N1 N 0.7011(2) 0.2490(5) 0.20319(14)
N2 N 0.6124(2) 0.1828(5) 0.18593(16)
N3 N 0.6658(2) 0.1992(5) 0.28908(16)
N4 N 0.8178(3) 0.3197(7) 0.29225(16)
N5 N 0.8384(3) 0.3001(8) 0.34879(19)
N6 N 0.8647(4) 0.2898(13) 0.3990(2)
N7 N 0.5040(3) 0.0281(6) 0.29863(17)
H8 H 0.5565 0.0524 0.3327
H9 H 0.4493 -0.0264 0.3050
C1 C 0.6830(3) 0.4574(6) 0.07242(18)
H16 H 0.7214 0.4931 0.0470
C2 C 0.6560(3) 0.2634(6) 0.06007(18)
H17 H 0.5976 0.2437 0.0688
C3 C 0.7352(3) 0.1672(6) 0.10598(18)
H18 H 0.7210 0.0471 0.1149
C4 C 0.7538(3) 0.2939(6) 0.15996(18)
H19 H 0.8190 0.2893 0.1803
C5 C 0.6023(4) 0.5849(7) 0.0607(3)
H20 H 0.5672 0.5774 0.0188
H21 H 0.5634 0.5523 0.0861
C6 C 0.5956(3) 0.1547(6) 0.23861(19)
C7 C 0.7298(3) 0.2566(6) 0.26446(17)
C8 C 0.5074(3) 0.0707(6) 0.2432(2)
O6 O -0.0023(2) 0.5945(5) 0.35795(12)
O7 O -0.0822(3) 0.8202(7) 0.43611(16)
H3 H -0.1094 0.8084 0.3978
O8 O 0.1739(2) 0.4974(5) 0.49679(13)
O9 O 0.1018(2) 0.2423(5) 0.40486(15)
O10 O 0.3260(2) 0.8589(6) 0.29346(16)
N8 N 0.0909(2) 0.5759(5) 0.28997(15)
N9 N 0.1758(2) 0.6541(6) 0.30508(16)
N10 N 0.1049(2) 0.6892(5) 0.20412(16)
N11 N -0.0376(3) 0.5299(6) 0.20440(17)
N12 N -0.0640(3) 0.5618(8) 0.1487(2)
N13 N -0.0963(4) 0.5836(12) 0.0988(2)
N14 N 0.2723(3) 0.8460(7) 0.19192(18)
H10 H 0.2235 0.8082 0.1574
H11 H 0.3255 0.9074 0.1861
C9 C 0.0330(3) 0.6064(7) 0.42290(18)
H22 H 0.0022 0.5250 0.4434
C10 C 0.1344(3) 0.5533(6) 0.43595(17)
H23 H 0.1688 0.6533 0.4274
C11 C 0.1310(3) 0.4106(6) 0.38841(19)
H24 H 0.1902 0.3962 0.3803
C12 C 0.0544(3) 0.4801(6) 0.33462(18)
H25 H 0.0177 0.3806 0.3153
C13 C 0.0144(4) 0.7910(8) 0.4425(2)
H26 H 0.0467 0.8084 0.4845
H27 H 0.0352 0.8775 0.4182
C14 C 0.1816(3) 0.7200(6) 0.25228(19)
C15 C 0.0508(3) 0.5983(6) 0.23029(18)
C16 C 0.2660(3) 0.8138(7) 0.2471(2)
O11 O 0.5359(2) 0.7120(4) 0.40705(14)
O12 O 0.6444(2) 1.0263(4) 0.44159(15)
H4 H 0.7247 1.0226 0.4589
O13 O 0.7327(2) 0.5835(5) 0.53109(14)
H5 H 0.6829 0.5440 0.5609
O14 O 0.5952(3) 0.3587(4) 0.46007(16)
O15 O 0.8408(2) 0.8813(5) 0.31096(14)
N15 N 0.6056(2) 0.6269(5) 0.33012(16)
N16 N 0.6915(2) 0.7039(5) 0.33943(16)
N17 N 0.6206(2) 0.6748(5) 0.23841(16)
N18 N 0.4776(3) 0.5389(7) 0.24938(18)
N19 N 0.4487(3) 0.5363(7) 0.1931(2)
N20 N 0.4162(4) 0.5281(11) 0.1434(2)
N21 N 0.7781(3) 0.8104(6) 0.21233(16)
H12 H 0.7274 0.7561 0.1827
H13 H 0.8290 0.8618 0.2001
C17 C 0.5933(3) 0.7378(6) 0.4688(2)
H28 H 0.5646 0.6917 0.4984
C18 C 0.6809(3) 0.6315(6) 0.47162(19)
H29 H 0.7199 0.7008 0.4533
C19 C 0.6415(3) 0.4755(6) 0.4298(2)
H30 H 0.6866 0.4083 0.4161
C20 C 0.5694(3) 0.5669(6) 0.37978(19)
H31 H 0.5192 0.4850 0.3642
C21 C 0.6031(4) 0.9328(6) 0.4815(2)
H32 H 0.5424 0.9831 0.4766
H33 H 0.6404 0.9527 0.5223
C22 C 0.6964(3) 0.7291(6) 0.28320(18)
C23 C 0.5669(3) 0.6119(6) 0.27008(19)
C24 C 0.7784(3) 0.8130(6) 0.27023(19)
O16 O 0.1947(2) 0.5008(4) 0.11474(14)
O17 O 0.0751(3) 0.7883(5) 0.0659(2)
H6 H 0.0809 0.7359 0.1124
O18 O 0.2852(2) 0.3684(5) 0.01612(15)
O19 O 0.2024(3) 0.0684(5) 0.05050(18)
H7 H 0.2650 0.0462 0.0683
O20 O -0.0686(2) -0.0017(5) 0.18255(14)
N22 N 0.1717(2) 0.2491(5) 0.16788(15)
N23 N 0.0851(2) 0.1743(5) 0.15679(16)
N24 N 0.1560(2) 0.1816(5) 0.25818(15)
N25 N 0.2992(3) 0.3235(7) 0.25023(18)
N26 N 0.3296(3) 0.3122(7) 0.3063(2)
N27 N 0.3643(3) 0.3096(11) 0.3563(2)
N28 N 0.0059(3) 0.0168(6) 0.28283(16)
H14 H 0.0601 0.0559 0.3133
H15 H -0.0433 -0.0428 0.2945
C25 C 0.1760(3) 0.5526(6) 0.0512(2)
H34 H 0.2194 0.6413 0.0459
C26 C 0.1903(3) 0.3834(7) 0.0179(2)
H35 H 0.1508 0.3787 -0.0230
C27 C 0.1690(4) 0.2369(7) 0.0582(2)
H36 H 0.1027 0.2286 0.0506
C28 C 0.2113(3) 0.3177(6) 0.12089(19)
H37 H 0.2769 0.2948 0.1322
C29 C 0.0817(4) 0.6348(8) 0.0306(2)
H38 H 0.0699 0.6691 -0.0112
H39 H 0.0359 0.5494 0.0346
C30 C 0.0808(3) 0.1364(6) 0.21210(18)
C31 C 0.2111(3) 0.2529(6) 0.22841(19)
C32 C -0.0012(3) 0.0450(6) 0.22415(19)
O21 O 0.4683(3) 0.9175(7) 0.08281(19)
O22 O 0.3335(3) 0.8052(9) 0.41331(18)
loop_
_geom_bond_atom_site_label_1
_geom_bond_atom_site_label_2
_geom_bond_site_symmetry_1
_geom_bond_site_symmetry_2
O1 C1 1_555 1_555
O2 H1 1_555 1_555
O3 C2 1_555 1_555
O4 H2 1_555 1_555
O5 C8 1_555 1_555
O6 C9 1_555 1_555
O7 H3 1_555 1_555
O8 C10 1_555 1_555
O9 C11 1_555 1_555
O10 C16 1_555 1_555
O11 C17 1_555 1_555
O12 H4 1_555 1_555
O13 H5 1_555 1_555
O14 C19 1_555 1_555
O15 C24 1_555 1_555
O16 C25 1_555 1_555
O17 H6 1_555 1_555
O18 C26 1_555 1_555
O19 H7 1_555 1_555
O20 C32 1_555 1_555
N1 N2 1_555 1_555
N2 C6 1_555 1_555
N3 C6 1_555 1_555
N4 N5 1_555 1_555
N5 N6 1_555 1_555
N7 H8 1_555 1_555
H9 N7 1_555 1_555
N8 N9 1_555 1_555
N9 C14 1_555 1_555
N10 C14 1_555 1_555
N11 N12 1_555 1_555
N12 N13 1_555 1_555
N14 H10 1_555 1_555
H11 N14 1_555 1_555
N15 N16 1_555 1_555
N16 C22 1_555 1_555
N17 C22 1_555 1_555
N18 N19 1_555 1_555
N19 N20 1_555 1_555
N21 H12 1_555 1_555
H13 N21 1_555 1_555
N22 N23 1_555 1_555
N23 C30 1_555 1_555
N24 C30 1_555 1_555
N25 N26 1_555 1_555
N26 N27 1_555 1_555
N28 H14 1_555 1_555
H15 N28 1_555 1_555
C1 H16 1_555 1_555
C2 C1 1_555 1_555
H17 C2 1_555 1_555
C3 O4 1_555 1_555
H18 C3 1_555 1_555
C4 O1 1_555 1_555
H19 C4 1_555 1_555
C5 O2 1_555 1_555
H20 C5 1_555 1_555
H21 C5 1_555 1_555
C6 C8 1_555 1_555
C7 N1 1_555 1_555
C8 N7 1_555 1_555
C9 H22 1_555 1_555
C10 C9 1_555 1_555
H23 C10 1_555 1_555
C11 C10 1_555 1_555
H24 C11 1_555 1_555
C12 O6 1_555 1_555
H25 C12 1_555 1_555
C13 O7 1_555 1_555
H26 C13 1_555 1_555
H27 C13 1_555 1_555
C14 C16 1_555 1_555
C15 N8 1_555 1_555
C16 N14 1_555 1_555
C17 H28 1_555 1_555
C18 O13 1_555 1_555
H29 C18 1_555 1_555
C19 C18 1_555 1_555
H30 C19 1_555 1_555
C20 O11 1_555 1_555
H31 C20 1_555 1_555
C21 O12 1_555 1_555
H32 C21 1_555 1_555
H33 C21 1_555 1_555
C22 C24 1_555 1_555
C23 N15 1_555 1_555
C24 N21 1_555 1_555
C25 H34 1_555 1_555
C26 C25 1_555 1_555
H35 C26 1_555 1_555
C27 O19 1_555 1_555
H36 C27 1_555 1_555
C28 O16 1_555 1_555
H37 C28 1_555 1_555
C29 O17 1_555 1_555
H38 C29 1_555 1_555
H39 C29 1_555 1_555
C30 C32 1_555 1_555
C31 N22 1_555 1_555
C32 N28 1_555 1_555
N1 C4 1_555 1_555
N3 C7 1_555 1_555
N4 C7 1_555 1_555
N8 C12 1_555 1_555
N10 C15 1_555 1_555
N11 C15 1_555 1_555
N15 C20 1_555 1_555
N17 C23 1_555 1_555
N18 C23 1_555 1_555
N22 C28 1_555 1_555
N24 C31 1_555 1_555
N25 C31 1_555 1_555
C1 C5 1_555 1_555
C2 C3 1_555 1_555
C3 C4 1_555 1_555
C9 C13 1_555 1_555
C11 C12 1_555 1_555
C17 C18 1_555 1_555
C17 C21 1_555 1_555
C19 C20 1_555 1_555
C25 C29 1_555 1_555
C26 C27 1_555 1_555
C27 C28 1_555 1_555

#END
