
#######################################################################
#
#                 Cambridge Crystallographic Data Centre
#                                CCDC 
#
#######################################################################
#
# If this CIF has been generated from an entry in the Cambridge 
# Structural Database, then it will include bibliographic, chemical, 
# crystal, experimental, refinement or atomic coordinate data resulting 
# from the CCDC's data processing and validation procedures.
#
#######################################################################

data_XIJBUO
_chemical_name_common            
3-Azido-1-beta-D-ribofuranosyl-1H-1,2,4-triazole-5-carboxamide
_chemical_formula_moiety         'C8 H11 N7 O5'
_chemical_name_systematic        
3-Azido-1-(3,4-dihydroxy-5-hydroxymethyl-tetrahydro-furan-2-yl)-1H-(1,2,4)triazole-5-carboxamide
_chemical_properties_biological  
'The structure is a photolabelled probe based on the antiviral drug ribavirin'
_symmetry_cell_setting           orthorhombic
_symmetry_space_group_name_H-M   'P 21 21 21'
_symmetry_Int_Tables_number      19
_space_group_name_Hall           'P 2ac 2ab'
loop_
_symmetry_equiv_pos_site_id
_symmetry_equiv_pos_as_xyz
1 x,y,z
2 1/2-x,-y,1/2+z
3 1/2+x,1/2-y,-z
4 -x,1/2+y,1/2-z
_cell_length_a                   9.8790(1)
_cell_length_b                   10.6980(2)
_cell_length_c                   11.1820(2)
_cell_angle_alpha                90
_cell_angle_beta                 90
_cell_angle_gamma                90
_cell_volume                     1181.78
_exptl_crystal_colour            colorless
_exptl_crystal_description       prism
_cell_formula_units_Z            4
_chemical_properties_physical    light-sensitive
_exptl_crystal_recrystallization_method methanol
loop_
_atom_site_label
_atom_site_type_symbol
_atom_site_fract_x
_atom_site_fract_y
_atom_site_fract_z
O1 O -0.65883(18) -0.2903(2) -0.47311(16)
H1 H -0.7500 -0.3167 -0.4763
O2 O -0.43183(18) -0.15944(19) -0.49519(15)
H2 H -0.4855 -0.2065 -0.5437
O3 O -0.2967(2) -0.1891(3) -0.16770(18)
H3 H -0.3831 -0.1731 -0.1235
O4 O -0.52832(18) -0.34127(17) -0.23734(16)
O5 O -0.9429(2) -0.23889(19) -0.25687(17)
N1 N -1.0287(2) -0.0992(3) -0.1245(3)
H4 H -1.1151 -0.1135 -0.1473
H5 H -1.0175 -0.0339 -0.0712
N2 N -0.6770(2) -0.19208(18) -0.15738(17)
N3 N -0.5733(2) -0.1509(2) -0.08696(18)
N4 N -0.7715(2) -0.0637(2) -0.02782(19)
N5 N -0.5749(2) -0.0087(2) 0.0811(2)
N6 N -0.4501(3) -0.0241(2) 0.0868(2)
N7 N -0.3381(3) -0.0282(3) 0.1020(3)
C1 C -0.9299(3) -0.1639(2) -0.1749(2)
C2 C -0.7936(2) -0.1391(2) -0.1206(2)
C3 C -0.6379(3) -0.0756(2) -0.0113(2)
C4 C -0.6504(2) -0.2791(2) -0.2587(2)
H6 H -0.7213 -0.3387 -0.2602
C5 C -0.6350(3) -0.2083(2) -0.3758(2)
H7 H -0.6927 -0.1365 -0.3802
C6 C -0.4835(2) -0.1812(2) -0.3783(2)
H8 H -0.4587 -0.1073 -0.3251
C7 C -0.4253(2) -0.2990(2) -0.3205(2)
H9 H -0.4059 -0.3624 -0.3824
C8 C -0.2945(3) -0.2868(3) -0.2526(2)
H10 H -0.2103 -0.2652 -0.3082
H11 H -0.2775 -0.3611 -0.2054
loop_
_geom_bond_atom_site_label_1
_geom_bond_atom_site_label_2
_geom_bond_site_symmetry_1
_geom_bond_site_symmetry_2
O1 H1 1_555 1_555
O2 H2 1_555 1_555
O3 H3 1_555 1_555
O4 C4 1_555 1_555
O5 C1 1_555 1_555
N1 H4 1_555 1_555
H5 N1 1_555 1_555
N2 N3 1_555 1_555
N3 C3 1_555 1_555
N4 C2 1_555 1_555
N5 N6 1_555 1_555
N6 N7 1_555 1_555
C1 N1 1_555 1_555
C2 N2 1_555 1_555
C3 N4 1_555 1_555
C4 N2 1_555 1_555
H6 C4 1_555 1_555
C5 O1 1_555 1_555
H7 C5 1_555 1_555
C6 O2 1_555 1_555
H8 C6 1_555 1_555
C7 O4 1_555 1_555
H9 C7 1_555 1_555
C8 O3 1_555 1_555
H10 C8 1_555 1_555
H11 C8 1_555 1_555
N5 C3 1_555 1_555
C1 C2 1_555 1_555
C4 C5 1_555 1_555
C5 C6 1_555 1_555
C6 C7 1_555 1_555
C7 C8 1_555 1_555

#END
