
#######################################################################
#
#                 Cambridge Crystallographic Data Centre
#                                CCDC 
#
#######################################################################
#
# If this CIF has been generated from an entry in the Cambridge 
# Structural Database, then it will include bibliographic, chemical, 
# crystal, experimental, refinement or atomic coordinate data resulting 
# from the CCDC's data processing and validation procedures.
#
#######################################################################

data_XIJCAW
_chemical_formula_moiety         'C18 H25 N3 O4'
_chemical_name_systematic        
3a-(3-Azidopropyl)-7-methylhexahydrospiro[cyclopenta[c]indene-9,2'-[1,3]dioxolane]-3,4(3aH,5H)-dione
_symmetry_cell_setting           orthorhombic
_symmetry_space_group_name_H-M   'P 21 21 21'
_symmetry_Int_Tables_number      19
_space_group_name_Hall           'P 2ac 2ab'
loop_
_symmetry_equiv_pos_site_id
_symmetry_equiv_pos_as_xyz
1 x,y,z
2 1/2+x,1/2-y,-z
3 -x,1/2+y,1/2-z
4 1/2-x,-y,1/2+z
_cell_length_a                   9.3117(7)
_cell_length_b                   10.7840(7)
_cell_length_c                   17.7171(12)
_cell_angle_alpha                90
_cell_angle_beta                 90
_cell_angle_gamma                90
_cell_volume                     1779.1
_cell_formula_units_Z            4
loop_
_atom_site_label
_atom_site_type_symbol
_atom_site_fract_x
_atom_site_fract_y
_atom_site_fract_z
O1 O 0.1040(4) 0.8664(3) 0.44647(19)
O2 O 0.1741(4) 0.6380(3) 0.55671(16)
O3 O 0.1185(3) 0.4902(3) 0.27370(16)
O4 O 0.1440(3) 0.6977(3) 0.26237(15)
N1 N -0.2650(5) 0.3496(5) 0.4291(3)
N2 N -0.3208(5) 0.3380(4) 0.4897(3)
N3 N -0.3719(7) 0.3168(5) 0.5444(4)
C1 C 0.3955(5) 0.6927(3) 0.3713(2)
H1 H 0.4421(5) 0.6765(3) 0.4199(2)
C2 C 0.5110(4) 0.6815(4) 0.3108(2)
H2 H 0.5743(4) 0.7527(4) 0.3144(2)
H3 H 0.5679(4) 0.6080(4) 0.3209(2)
C3 C 0.4541(5) 0.6738(4) 0.2312(2)
H4 H 0.4045(5) 0.7516(4) 0.2193(2)
C4 C 0.3456(5) 0.5678(4) 0.2269(2)
H5 H 0.3088(5) 0.5618(4) 0.1758(2)
H6 H 0.3934(5) 0.4903(4) 0.2388(2)
C5 C 0.2210(4) 0.5871(4) 0.2812(2)
C6 C 0.2692(4) 0.5973(3) 0.3636(2)
C7 C 0.1587(4) 0.6504(3) 0.4194(2)
C8 C 0.1833(5) 0.7905(4) 0.4185(2)
C9 C 0.3215(5) 0.8179(3) 0.3779(2)
H7 H 0.3800(5) 0.8757(3) 0.4065(2)
H8 H 0.3029(5) 0.8528(3) 0.3284(2)
C10 C 0.2097(4) 0.5983(4) 0.4957(2)
C11 C 0.3068(5) 0.4889(4) 0.4834(2)
H9 H 0.4012(5) 0.5049(4) 0.5045(2)
H10 H 0.2674(5) 0.4154(4) 0.5073(2)
C12 C 0.3162(5) 0.4713(3) 0.3980(2)
H11 H 0.2527(5) 0.4053(3) 0.3817(2)
H12 H 0.4136(5) 0.4510(3) 0.3830(2)
C13 C 0.0415(6) 0.6646(6) 0.2053(3)
H13 H -0.0497(6) 0.7057(6) 0.2139(3)
H14 H 0.0764(6) 0.6867(6) 0.1555(3)
C14 C 0.0266(6) 0.5245(6) 0.2131(3)
H15 H 0.0554(6) 0.4833(6) 0.1669(3)
H16 H -0.0721(6) 0.5022(6) 0.2243(3)
C15 C 0.5758(5) 0.6554(4) 0.1742(3)
H17 H 0.627(2) 0.5803(18) 0.1857(12)
H18 H 0.5365(6) 0.650(3) 0.1242(4)
H19 H 0.641(2) 0.7245(17) 0.1768(14)
C16 C -0.0039(4) 0.6221(4) 0.4133(2)
H20 H -0.0543(4) 0.6772(4) 0.4475(2)
H21 H -0.0347(4) 0.6426(4) 0.3625(2)
C17 C -0.0517(4) 0.4895(4) 0.4303(2)
H22 H 0.0062(4) 0.4318(4) 0.4014(2)
H23 H -0.0375(4) 0.4719(4) 0.4835(2)
C18 C -0.2082(5) 0.4729(5) 0.4103(3)
H24 H -0.2202(5) 0.4869(5) 0.3566(3)
H25 H -0.2641(5) 0.5351(5) 0.4367(3)
loop_
_geom_bond_atom_site_label_1
_geom_bond_atom_site_label_2
_geom_bond_site_symmetry_1
_geom_bond_site_symmetry_2
O1 C8 1_555 1_555
O2 C10 1_555 1_555
O3 C5 1_555 1_555
O4 C5 1_555 1_555
N1 N2 1_555 1_555
N2 N3 1_555 1_555
C1 H1 1_555 1_555
C2 C1 1_555 1_555
H2 C2 1_555 1_555
H3 C2 1_555 1_555
C3 C2 1_555 1_555
H4 C3 1_555 1_555
C4 C3 1_555 1_555
H5 C4 1_555 1_555
H6 C4 1_555 1_555
C5 C4 1_555 1_555
C6 C1 1_555 1_555
C7 C6 1_555 1_555
C8 C7 1_555 1_555
C9 C1 1_555 1_555
H7 C9 1_555 1_555
H8 C9 1_555 1_555
C10 C7 1_555 1_555
C11 C10 1_555 1_555
H9 C11 1_555 1_555
H10 C11 1_555 1_555
C12 C6 1_555 1_555
H11 C12 1_555 1_555
H12 C12 1_555 1_555
C13 O4 1_555 1_555
H13 C13 1_555 1_555
H14 C13 1_555 1_555
C14 O3 1_555 1_555
H15 C14 1_555 1_555
H16 C14 1_555 1_555
C15 C3 1_555 1_555
H17 C15 1_555 1_555
H18 C15 1_555 1_555
H19 C15 1_555 1_555
C16 C7 1_555 1_555
H20 C16 1_555 1_555
H21 C16 1_555 1_555
C17 C16 1_555 1_555
H22 C17 1_555 1_555
H23 C17 1_555 1_555
C18 N1 1_555 1_555
H24 C18 1_555 1_555
H25 C18 1_555 1_555
C5 C6 1_555 1_555
C8 C9 1_555 1_555
C11 C12 1_555 1_555
C13 C14 1_555 1_555
C17 C18 1_555 1_555

#END
