
#######################################################################
#
#                 Cambridge Crystallographic Data Centre
#                                CCDC 
#
#######################################################################
#
# If this CIF has been generated from an entry in the Cambridge 
# Structural Database, then it will include bibliographic, chemical, 
# crystal, experimental, refinement or atomic coordinate data resulting 
# from the CCDC's data processing and validation procedures.
#
#######################################################################

data_XIJKOS
_chemical_formula_moiety         'C21 H32 O6'
_chemical_name_systematic        
'Dimethyl (6,6-dibutyl-9-oxo-1-oxaspiro[4.4]non-3-en-2-yl)malonate'
_symmetry_cell_setting           monoclinic
_symmetry_space_group_name_H-M   'P 21/c'
_symmetry_Int_Tables_number      14
_space_group_name_Hall           '-P 2ybc'
loop_
_symmetry_equiv_pos_site_id
_symmetry_equiv_pos_as_xyz
1 x,y,z
2 -x,1/2+y,1/2-z
3 -x,-y,-z
4 x,1/2-y,1/2+z
_cell_length_a                   10.9913(2)
_cell_length_b                   8.13796(18)
_cell_length_c                   23.4523(6)
_cell_angle_alpha                90
_cell_angle_beta                 95.780(2)
_cell_angle_gamma                90
_cell_volume                     2087.07
_exptl_crystal_colour            colorless
_exptl_crystal_description       block
_cell_formula_units_Z            4
loop_
_atom_site_label
_atom_site_type_symbol
_atom_site_fract_x
_atom_site_fract_y
_atom_site_fract_z
O1 O 0.96427(8) 0.60716(11) 0.21498(4)
O2 O 0.78074(7) 0.65786(10) 0.28834(3)
O3 O 0.57415(10) 0.39065(12) 0.14295(5)
O4 O 0.44641(8) 0.59080(10) 0.16517(4)
O5 O 0.58821(8) 0.89074(10) 0.22868(4)
O6 O 0.63639(8) 0.85710(10) 0.13842(4)
C1 C 0.87680(10) 0.54248(14) 0.30389(5)
C2 C 0.94772(11) 0.57156(14) 0.36407(5)
C3 C 1.06640(11) 0.47296(15) 0.35739(5)
H1 H 1.1320 0.5090 0.3854
H2 H 1.0529 0.3565 0.3629
C4 C 1.09900(11) 0.50649(16) 0.29625(5)
H3 H 1.1594 0.5933 0.2961
H4 H 1.1308 0.4083 0.2796
C5 C 0.97955(11) 0.55809(14) 0.26387(5)
C6 C 0.67434(10) 0.57368(14) 0.26150(5)
H5 H 0.6022 0.6030 0.2807
C7 C 0.70342(11) 0.39445(15) 0.27053(5)
H6 H 0.6496 0.3086 0.2606
C8 C 0.81672(11) 0.37674(14) 0.29470(5)
H7 H 0.8539 0.2766 0.3046
C9 C 0.88299(11) 0.50271(15) 0.41395(5)
H8 H 0.8689 0.3863 0.4074
H9 H 0.9378 0.5136 0.4488
C10 C 0.76111(12) 0.58303(15) 0.42370(5)
H10 H 0.7054 0.5717 0.3891
H11 H 0.7744 0.6995 0.4306
C11 C 0.70137(12) 0.50920(16) 0.47408(5)
H12 H 0.7589 0.5154 0.5082
H13 H 0.6307 0.5751 0.4808
C12 C 0.66084(13) 0.33098(17) 0.46498(6)
H14 H 0.6071 0.3225 0.4302
H15 H 0.6187 0.2956 0.4967
H16 H 0.7313 0.2627 0.4623
C13 C 0.97511(11) 0.75774(15) 0.36979(5)
H17 H 1.0086 0.7938 0.3352
H18 H 0.8982 0.8149 0.3716
C14 C 1.06289(12) 0.81170(16) 0.42126(5)
H19 H 1.0310 0.7766 0.4564
H20 H 1.1416 0.7590 0.4194
C15 C 1.07986(14) 0.99786(17) 0.42243(6)
H21 H 1.1004 1.0337 0.3851
H22 H 1.0028 1.0489 0.4291
C16 C 1.17841(16) 1.05788(19) 0.46782(7)
H23 H 1.2556 1.0105 0.4610
H24 H 1.1580 1.0256 0.5051
H25 H 1.1839 1.1755 0.4661
C17 C 0.65520(10) 0.62401(14) 0.19772(5)
H26 H 0.7320 0.6057 0.1808
C18 C 0.55589(12) 0.52020(15) 0.16501(5)
C19 C 0.34408(12) 0.49596(17) 0.13918(6)
H27 H 0.3580 0.4678 0.1006
H28 H 0.2706 0.5598 0.1388
H29 H 0.3358 0.3973 0.1609
C20 C 0.62266(10) 0.80531(14) 0.19174(5)
C21 C 0.60169(12) 1.02645(15) 0.12693(6)
H30 H 0.6127 1.0527 0.0879
H31 H 0.6519 1.0974 0.1521
H32 H 0.5174 1.0415 0.1332
loop_
_geom_bond_atom_site_label_1
_geom_bond_atom_site_label_2
_geom_bond_site_symmetry_1
_geom_bond_site_symmetry_2
O1 C5 1_555 1_555
O2 C1 1_555 1_555
O3 C18 1_555 1_555
O4 C18 1_555 1_555
O5 C20 1_555 1_555
O6 C20 1_555 1_555
C1 C2 1_555 1_555
C2 C3 1_555 1_555
C3 H1 1_555 1_555
H2 C3 1_555 1_555
C4 C3 1_555 1_555
H3 C4 1_555 1_555
H4 C4 1_555 1_555
C5 C1 1_555 1_555
C6 O2 1_555 1_555
H5 C6 1_555 1_555
C7 C6 1_555 1_555
H6 C7 1_555 1_555
C8 C1 1_555 1_555
H7 C8 1_555 1_555
C9 C2 1_555 1_555
H8 C9 1_555 1_555
H9 C9 1_555 1_555
C10 C9 1_555 1_555
H10 C10 1_555 1_555
H11 C10 1_555 1_555
C11 C10 1_555 1_555
H12 C11 1_555 1_555
H13 C11 1_555 1_555
C12 C11 1_555 1_555
H14 C12 1_555 1_555
H15 C12 1_555 1_555
H16 C12 1_555 1_555
C13 C2 1_555 1_555
H17 C13 1_555 1_555
H18 C13 1_555 1_555
C14 C13 1_555 1_555
H19 C14 1_555 1_555
H20 C14 1_555 1_555
C15 C14 1_555 1_555
H21 C15 1_555 1_555
H22 C15 1_555 1_555
C16 C15 1_555 1_555
H23 C16 1_555 1_555
H24 C16 1_555 1_555
H25 C16 1_555 1_555
C17 C6 1_555 1_555
H26 C17 1_555 1_555
C18 C17 1_555 1_555
C19 O4 1_555 1_555
H27 C19 1_555 1_555
H28 C19 1_555 1_555
H29 C19 1_555 1_555
C20 C17 1_555 1_555
C21 O6 1_555 1_555
H30 C21 1_555 1_555
H31 C21 1_555 1_555
H32 C21 1_555 1_555
C4 C5 1_555 1_555
C7 C8 1_555 1_555

#END
