
#######################################################################
#
#                 Cambridge Crystallographic Data Centre
#                                CCDC 
#
#######################################################################
#
# If this CIF has been generated from an entry in the Cambridge 
# Structural Database, then it will include bibliographic, chemical, 
# crystal, experimental, refinement or atomic coordinate data resulting 
# from the CCDC's data processing and validation procedures.
#
#######################################################################

data_XIJNEM
_chemical_formula_moiety         'C21 H27 B1 F2 O6'
_chemical_name_systematic        
'ethyl 4-[4-(acetyloxy)phenyl]-2,2-difluoro-3-methyl-4-(4,4,5,5-tetramethyl-1,3,2-dioxaborolan-2-yl)but-3-enoate'
_symmetry_cell_setting           triclinic
_symmetry_space_group_name_H-M   'P -1'
_symmetry_Int_Tables_number      2
_space_group_name_Hall           '-P 1'
loop_
_symmetry_equiv_pos_site_id
_symmetry_equiv_pos_as_xyz
1 x,y,z
2 -x,-y,-z
_cell_length_a                   7.0667(15)
_cell_length_b                   11.515(3)
_cell_length_c                   13.955(3)
_cell_angle_alpha                87.475(14)
_cell_angle_beta                 83.670(15)
_cell_angle_gamma                83.482(15)
_cell_volume                     1120.77
_exptl_crystal_colour            colorless
_exptl_crystal_description       block
_cell_formula_units_Z            2
loop_
_atom_site_label
_atom_site_type_symbol
_atom_site_fract_x
_atom_site_fract_y
_atom_site_fract_z
B1 B -0.0856(5) 0.7762(4) 0.4092(3)
C1 C 0.3400(5) 0.7083(3) 0.3078(2)
H1 H 0.351816 0.762691 0.353539
C2 C 0.1569(5) 0.6274(3) 0.2006(2)
H2 H 0.043265 0.626723 0.172885
C3 C 0.2236(5) 0.8992(3) 0.1249(3)
C4 C 0.7445(5) 0.4674(4) 0.1153(3)
C5 C 0.3098(6) 0.5463(3) 0.1733(3)
H3 H 0.299826 0.491820 0.127347
C6 C 0.4938(5) 0.6275(3) 0.2808(3)
H4 H 0.608580 0.627879 0.307532
C7 C 0.0058(5) 0.9000(3) 0.1403(2)
C8 C -0.2598(5) 0.9576(3) 0.2721(3)
H5 H -0.231456 1.037389 0.267170
H6 H -0.307113 0.938954 0.337490
H7 H -0.355242 0.947380 0.230230
C9 C 0.5111(5) 0.8306(4) 0.0328(3)
H8 H 0.572004 0.777033 0.078730
H9 H 0.551928 0.907322 0.038722
C10 C 0.8894(6) 0.3627(4) 0.1006(3)
H10 H 0.844699 0.309902 0.059013
H11 H 0.907777 0.323876 0.161748
H12 H 1.008725 0.387077 0.071691
C11 C 0.5653(6) 0.7895(4) -0.0663(3)
H13 H 0.495973 0.839341 -0.110532
H14 H 0.534671 0.710779 -0.069815
H15 H 0.700309 0.791712 -0.082992
C12 C 0.1685(4) 0.7101(3) 0.2684(2)
C13 C -0.0019(4) 0.7947(3) 0.3010(2)
C14 C -0.0805(4) 0.8779(3) 0.2431(2)
C15 C 0.4757(5) 0.5468(3) 0.2143(2)
F1 F -0.0562(3) 0.8255(2) 0.08035(14)
F2 F -0.0625(4) 1.0092(2) 0.10888(17)
O1 O 0.7313(5) 0.5514(3) 0.0632(2)
O2 O 0.3025(3) 0.8358(2) 0.05211(16)
O3 O 0.6269(4) 0.4560(2) 0.19500(19)
O4 O 0.3033(4) 0.9561(3) 0.1743(2)
C16 C -0.033(3) 0.6226(17) 0.6288(13)
H16 H 0.093113 0.623282 0.647522
H17 H -0.036454 0.556199 0.589967
H18 H -0.123068 0.617890 0.685394
C17 C -0.426(3) 0.842(2) 0.6053(14)
H19 H -0.549094 0.852865 0.581142
H20 H -0.373994 0.915876 0.603030
H21 H -0.439737 0.812423 0.670742
C18 C -0.377(3) 0.6327(17) 0.5432(15)
H22 H -0.393457 0.600357 0.607769
H23 H -0.289010 0.580237 0.503817
H24 H -0.498375 0.643238 0.517252
C19 C -0.031(3) 0.8474(18) 0.6160(12)
H25 H -0.092637 0.854773 0.680661
H26 H -0.073129 0.914627 0.577484
H27 H 0.104955 0.841885 0.616731
C20 C -0.2937(16) 0.7570(15) 0.5443(9)
C21 C -0.0868(16) 0.7332(14) 0.5715(7)
O5 O -0.2715(14) 0.7968(14) 0.4445(8)
O6 O 0.0230(15) 0.7254(13) 0.4760(6)
C22? C -0.253(5) 0.5886(17) 0.5406(17)
H28? H -0.287700 0.559997 0.605102
H29? H -0.120455 0.564262 0.521737
H30? H -0.330167 0.557578 0.497337
C23? C -0.019(4) 0.718(3) 0.6524(13)
H31? H 0.089679 0.757868 0.662417
H32? H 0.023520 0.638558 0.636980
H33? H -0.106652 0.720565 0.710014
C24? C -0.177(5) 0.9136(18) 0.5910(15)
H34? H -0.073906 0.946044 0.616095
H35? H -0.288754 0.921978 0.636948
H36? H -0.204501 0.954118 0.531711
C25? C -0.483(3) 0.776(3) 0.586(2)
H37? H -0.580463 0.732518 0.566489
H38? H -0.509990 0.856640 0.567905
H39? H -0.481618 0.767380 0.654602
C26? C -0.289(2) 0.7281(17) 0.5366(12)
C27? C -0.116(3) 0.778(2) 0.5714(11)
O7? O -0.2694(19) 0.7581(18) 0.4342(12)
O8? O 0.022(2) 0.7801(16) 0.4842(9)
C28? C -0.149(3) 0.8155(18) 0.5709(11)
C29? C -0.243(3) 0.7076(18) 0.5458(12)
C30? C -0.454(3) 0.711(4) 0.584(2)
H40? H -0.466594 0.712830 0.653245
H41? H -0.503582 0.642458 0.564749
H42? H -0.523686 0.779493 0.558514
C31? C -0.112(5) 0.598(2) 0.583(2)
H43? H 0.018653 0.614164 0.576668
H44? H -0.123353 0.531322 0.545428
H45? H -0.153087 0.580595 0.649597
C32? C -0.306(5) 0.926(2) 0.574(2)
H46? H -0.404635 0.913094 0.535217
H47? H -0.246852 0.994089 0.549818
H48? H -0.360430 0.937865 0.639589
C33? C -0.037(5) 0.809(3) 0.6570(15)
H49? H -0.112238 0.779424 0.712249
H50? H -0.006275 0.885599 0.669418
H51? H 0.079221 0.757637 0.644125
O9? O -0.220(3) 0.7095(18) 0.4405(11)
O10? O -0.021(3) 0.8306(17) 0.4820(9)
C34? C 0.026(5) 0.656(4) 0.614(2)
H52? H -0.020619 0.637694 0.679838
H53? H 0.095076 0.723259 0.612351
H54? H 0.109294 0.590648 0.588300
C35? C -0.181(7) 0.884(3) 0.638(2)
H55? H -0.269714 0.954096 0.644219
H56? H -0.053604 0.905533 0.622114
H57? H -0.187801 0.840043 0.697903
C36? C -0.458(3) 0.820(4) 0.556(2)
H58? H -0.520260 0.807731 0.619333
H59? H -0.485388 0.761377 0.514200
H60? H -0.503514 0.896101 0.530882
C37? C -0.302(6) 0.600(3) 0.576(3)
H61? H -0.241568 0.523355 0.591545
H62? H -0.371110 0.595185 0.520620
H63? H -0.388954 0.627678 0.629403
C38? C -0.150(4) 0.6831(16) 0.5520(12)
C39? C -0.232(4) 0.8126(17) 0.5600(12)
O11? O -0.063(4) 0.6727(12) 0.4533(11)
O12? O -0.171(4) 0.8639(13) 0.4649(10)
loop_
_geom_bond_atom_site_label_1
_geom_bond_atom_site_label_2
_geom_bond_site_symmetry_1
_geom_bond_site_symmetry_2
B1 C13 1_555 1_555
C1 H1 1_555 1_555
C2 H2 1_555 1_555
C3 C7 1_555 1_555
C4 C10 1_555 1_555
C5 C2 1_555 1_555
H3 C5 1_555 1_555
C6 C1 1_555 1_555
H4 C6 1_555 1_555
C7 C14 1_555 1_555
C8 H5 1_555 1_555
H6 C8 1_555 1_555
H7 C8 1_555 1_555
C9 H8 1_555 1_555
H9 C9 1_555 1_555
C10 H10 1_555 1_555
H11 C10 1_555 1_555
H12 C10 1_555 1_555
C11 C9 1_555 1_555
H13 C11 1_555 1_555
H14 C11 1_555 1_555
H15 C11 1_555 1_555
C12 C1 1_555 1_555
C13 C12 1_555 1_555
C14 C8 1_555 1_555
C15 C5 1_555 1_555
F1 C7 1_555 1_555
F2 C7 1_555 1_555
O1 C4 1_555 1_555
O2 C3 1_555 1_555
O3 C4 1_555 1_555
O4 C3 1_555 1_555
C16 H16 1_555 1_555
H17 C16 1_555 1_555
H18 C16 1_555 1_555
C17 H19 1_555 1_555
H20 C17 1_555 1_555
H21 C17 1_555 1_555
C18 H22 1_555 1_555
H23 C18 1_555 1_555
H24 C18 1_555 1_555
C19 H25 1_555 1_555
H26 C19 1_555 1_555
H27 C19 1_555 1_555
C20 C17 1_555 1_555
C21 C16 1_555 1_555
O5 B1 1_555 1_555
O6 B1 1_555 1_555
C2 C12 1_555 1_555
C6 C15 1_555 1_555
C9 O2 1_555 1_555
C13 C14 1_555 1_555
C15 O3 1_555 1_555
C18 C20 1_555 1_555
C19 C21 1_555 1_555
C20 C21 1_555 1_555
C20 O5 1_555 1_555
C21 O6 1_555 1_555

#END
