
#######################################################################
#
#                 Cambridge Crystallographic Data Centre
#                                CCDC 
#
#######################################################################
#
# If this CIF has been generated from an entry in the Cambridge 
# Structural Database, then it will include bibliographic, chemical, 
# crystal, experimental, refinement or atomic coordinate data resulting 
# from the CCDC's data processing and validation procedures.
#
#######################################################################

data_XIJPUB
_chemical_formula_moiety         'C35 H36 N2 O4 S1,C32 H28 N4 O4,2(H2 O1)'
_chemical_name_systematic        
'(2)-(1,7,14,20-tetraaza-2,6,15,19-tetraoxo-3,5:9,12:16,18:22,25-tetrabenzocyclohexacosane)-(diphenylacetylglycyl-L-methionine 2,2-diphenylethyl ester) rotaxane dihydrate'
_symmetry_cell_setting           triclinic
_symmetry_space_group_name_H-M   'P 1'
_symmetry_Int_Tables_number      1
_space_group_name_Hall           'P 1'
loop_
_symmetry_equiv_pos_site_id
_symmetry_equiv_pos_as_xyz
1 x,y,z
_cell_length_a                   10.83870(10)
_cell_length_b                   11.15140(10)
_cell_length_c                   14.6386(2)
_cell_angle_alpha                69.56
_cell_angle_beta                 83.67
_cell_angle_gamma                62.14
_cell_volume                     1462.76
_exptl_crystal_colour            colorless
_exptl_crystal_description       plate
_chemical_melting_point          261-262deg.C
_cell_formula_units_Z            1
loop_
_atom_site_label
_atom_site_type_symbol
_atom_site_fract_x
_atom_site_fract_y
_atom_site_fract_z
C1 C 0.6397(3) 0.5659(3) 0.8861(2)
H1 H 0.6917(3) 0.5679(3) 0.9366(2)
H2 H 0.6261(3) 0.6487(3) 0.8261(2)
N1 N 0.5045(3) 0.5785(3) 0.9200(2)
H3 H 0.4622(40) 0.5214(39) 0.9126(30)
O1 O 0.4569(2) 0.7587(2) 0.9777(2)
C2 C 0.4224(3) 0.6752(3) 0.9632(2)
C3 C 0.2865(3) 0.6747(3) 0.9928(2)
C4 C 0.2113(3) 0.6547(3) 0.9340(2)
H4 H 0.2456(3) 0.6441(3) 0.8732(2)
C5 C 0.0862(3) 0.6499(3) 0.9623(2)
C6 C 0.0329(3) 0.6714(3) 1.0501(2)
H5 H -0.0535(3) 0.6710(3) 1.0696(2)
C7 C 0.1077(4) 0.6934(4) 1.1081(2)
H6 H 0.0721(4) 0.7073(4) 1.1678(2)
C8 C 0.2336(4) 0.6954(3) 1.0804(2)
H7 H 0.2835(4) 0.7108(3) 1.1209(2)
O2 O -0.1202(2) 0.6740(3) 0.8983(2)
C9 C 0.0077(3) 0.6232(3) 0.9007(2)
N2 N 0.0868(2) 0.5389(3) 0.8480(2)
H8 H 0.1875(9) 0.4806(32) 0.8654(25)
C10 C 0.0223(3) 0.5115(3) 0.7807(2)
H9 H -0.0032(3) 0.5919(3) 0.7175(2)
H10 H -0.0649(3) 0.5092(3) 0.8072(2)
C11 C 0.1164(3) 0.3718(3) 0.7631(2)
C12 C 0.1469(3) 0.3711(3) 0.6686(2)
H11 H 0.1135(3) 0.4596(3) 0.6154(2)
C13 C 0.2266(3) 0.2408(3) 0.6513(2)
H12 H 0.2469(3) 0.2412(3) 0.5864(2)
C14 C 0.2762(3) 0.1108(3) 0.7285(2)
C15 C 0.2476(3) 0.1117(3) 0.8237(2)
H13 H 0.2827(3) 0.0236(3) 0.8771(2)
C16 C 0.1679(3) 0.2417(3) 0.8402(2)
H14 H 0.1483(3) 0.2414(3) 0.9051(2)
C17 C 0.3580(3) -0.0306(3) 0.7096(2)
H15 H 0.3693(3) -0.1115(3) 0.7703(2)
H16 H 0.3057(3) -0.0329(3) 0.6594(2)
N3 N 0.4952(2) -0.0478(3) 0.6762(2)
H17 H 0.5363(42) 0.0107(40) 0.6828(32)
O3 O 0.5351(2) -0.2183(2) 0.6108(2)
C18 C 0.5732(3) -0.1413(3) 0.6311(2)
C19 C 0.7129(3) -0.1477(3) 0.6044(2)
C20 C 0.7843(3) -0.1194(3) 0.6606(2)
H18 H 0.7458(3) -0.0991(3) 0.7182(2)
C21 C 0.9120(3) -0.1204(3) 0.6332(2)
C22 C 0.9696(3) -0.1549(3) 0.5503(2)
H19 H 1.0570(3) -0.1569(3) 0.5314(2)
C23 C 0.8999(4) -0.1863(4) 0.4957(2)
H20 H 0.9401(4) -0.2105(4) 0.4396(2)
C24 C 0.7723(3) -0.1828(4) 0.5221(2)
H21 H 0.7249(3) -0.2043(4) 0.4841(2)
C25 C 0.9893(3) -0.0879(3) 0.6916(2)
O4 O 1.1179(2) -0.1348(3) 0.6910(2)
N4 N 0.9116(2) -0.0023(3) 0.7435(2)
H22 H 0.8109(11) 0.0302(52) 0.7380(36)
C26 C 0.9778(3) 0.0297(4) 0.8071(3)
H23 H 1.0621(3) 0.0355(4) 0.7772(3)
H24 H 1.0082(3) -0.0504(4) 0.8705(3)
C27 C 0.8818(3) 0.1692(3) 0.8252(2)
C28 C 0.8276(4) 0.3006(3) 0.7498(2)
H25 H 0.8448(4) 0.3034(3) 0.6843(2)
C29 C 0.7479(3) 0.4289(3) 0.7693(2)
H26 H 0.7102(3) 0.5182(3) 0.7169(2)
C30 C 0.7234(3) 0.4267(3) 0.8647(2)
C31 C 0.7760(4) 0.2955(3) 0.9396(2)
H27 H 0.7582(4) 0.2926(3) 1.0051(2)
C32 C 0.8545(3) 0.1677(3) 0.9203(2)
H28 H 0.8898(3) 0.0784(3) 0.9728(2)
C33 C 0.4857(3) 0.1225(3) 1.0375(2)
H29 H 0.5353(3) 0.0303(3) 1.0232(2)
O5 O 0.4016(2) 0.3732(2) 0.93747(14)
C34 C 0.4627(3) 0.2453(3) 0.9410(2)
N5 N 0.5084(2) 0.2116(2) 0.86078(15)
H30 H 0.5498(41) 0.1111(15) 0.8636(29)
C35 C 0.4793(3) 0.3305(3) 0.7707(2)
H31 H 0.5270(3) 0.3856(3) 0.7752(2)
H32 H 0.3775(3) 0.3959(3) 0.7617(2)
O6 O 0.5923(2) 0.1534(2) 0.69065(14)
C36 C 0.5264(3) 0.2828(3) 0.6830(2)
N6 N 0.4903(3) 0.3893(2) 0.5982(2)
H33 H 0.4493(46) 0.4893(16) 0.5964(31)
C37 C 0.5085(3) 0.3606(3) 0.5069(2)
H34 H 0.4582(3) 0.3040(3) 0.5091(2)
O7 O 0.6913(3) 0.2000(3) 0.4380(2)
C38 C 0.6595(3) 0.2757(3) 0.4865(2)
O8 O 0.7480(2) 0.3030(2) 0.52274(14)
C39 C 0.8918(3) 0.2368(3) 0.4992(2)
H35 H 0.9039(3) 0.1744(3) 0.4612(2)
H36 H 0.9530(3) 0.1762(3) 0.5600(2)
C40 C 0.9321(4) 0.3533(3) 0.4399(2)
H37 H 0.9230(4) 0.4110(3) 0.4817(2)
C41 C 0.8321(3) 0.4560(3) 0.3492(2)
C42 C 0.8272(4) 0.4105(4) 0.2748(2)
H38 H 0.8867(4) 0.3133(4) 0.2792(2)
C43 C 0.7360(5) 0.5052(6) 0.1928(3)
H39 H 0.7344(5) 0.4724(6) 0.1414(3)
C44 C 0.6498(5) 0.6431(5) 0.1857(3)
H40 H 0.5877(5) 0.7063(5) 0.1294(3)
C45 C 0.6505(5) 0.6939(5) 0.2594(4)
H41 H 0.5890(5) 0.7911(5) 0.2542(4)
C46 C 0.7454(5) 0.5975(4) 0.3435(3)
H42 H 0.7488(5) 0.6301(4) 0.3947(3)
C47 C 1.0851(3) 0.2892(4) 0.4127(2)
C48 C 1.1793(4) 0.1432(4) 0.4511(2)
H43 H 1.1477(4) 0.0775(4) 0.4928(2)
C49 C 1.3188(4) 0.0926(4) 0.4293(3)
H44 H 1.3820(4) -0.0070(4) 0.4569(3)
C50 C 1.3663(4) 0.1865(5) 0.3674(3)
H45 H 1.4620(4) 0.1522(5) 0.3533(3)
C51 C 1.2738(4) 0.3291(5) 0.3269(3)
H46 H 1.3057(4) 0.3935(5) 0.2836(3)
C52 C 1.1342(4) 0.3815(4) 0.3477(3)
H47 H 1.0713(4) 0.4807(4) 0.3177(3)
C53 C 0.3434(3) 0.1368(3) 1.0732(2)
C54 C 0.2437(3) 0.2584(3) 1.0947(2)
H48 H 0.2667(3) 0.3319(3) 1.0921(2)
C55 C 0.1115(4) 0.2726(4) 1.1199(3)
H49 H 0.0449(4) 0.3555(4) 1.1345(3)
C56 C 0.0758(4) 0.1668(4) 1.1239(3)
H50 H -0.0150(4) 0.1770(4) 1.1408(3)
C57 C 0.1736(4) 0.0461(3) 1.1030(2)
H51 H 0.1499(4) -0.0270(3) 1.1057(2)
C58 C 0.3069(3) 0.0309(3) 1.0780(2)
H52 H 0.3734(3) -0.0527(3) 1.0641(2)
C59 C 0.5810(3) 0.1176(3) 1.1088(2)
C60 C 0.5484(4) 0.2320(4) 1.1420(2)
H53 H 0.4638(4) 0.3188(4) 1.1185(2)
C61 C 0.6385(4) 0.2196(5) 1.2090(2)
H54 H 0.6147(4) 0.2978(5) 1.2313(2)
C62 C 0.7618(4) 0.0957(5) 1.2436(3)
H55 H 0.8220(4) 0.0874(5) 1.2904(3)
C63 C 0.7976(4) -0.0174(5) 1.2095(3)
H56 H 0.8838(4) -0.1026(5) 1.2315(3)
C64 C 0.7071(4) -0.0053(4) 1.1433(2)
H57 H 0.7322(4) -0.0836(4) 1.1209(2)
C65 C 0.4410(3) 0.5039(3) 0.4212(2)
H58 H 0.4834(3) 0.5654(3) 0.4216(2)
H59 H 0.4612(3) 0.4839(3) 0.3590(2)
C66 C 0.2826(3) 0.5856(4) 0.4262(2)
H60 H 0.2625(3) 0.6071(4) 0.4880(2)
H61 H 0.2405(3) 0.5233(4) 0.4271(2)
S1 S 0.20251(9) 0.75202(9) 0.32483(6)
C67 C 0.2669(6) 0.8579(4) 0.3537(3)
H62 H 0.2307(6) 0.9537(4) 0.3034(3)
H63 H 0.3693(6) 0.8101(4) 0.3561(3)
H64 H 0.2356(6) 0.8675(4) 0.4174(3)
O9 O 0.3500(3) -0.3293(3) 0.6220(2)
H65 H 0.4153(38) -0.2942(49) 0.6279(34)
H66 H 0.2715(35) -0.2772(47) 0.6562(32)
O10 O 0.6259(3) 0.9000(2) 0.9069(2)
H67 H 0.7244(20) 0.8274(52) 0.9174(44)
H68 H 0.5589(50) 0.8612(63) 0.9273(45)
loop_
_geom_bond_atom_site_label_1
_geom_bond_atom_site_label_2
_geom_bond_site_symmetry_1
_geom_bond_site_symmetry_2
C1 H1 1_555 1_555
H2 C1 1_555 1_555
N1 C1 1_555 1_555
H3 N1 1_555 1_555
O1 C2 1_555 1_555
C2 N1 1_555 1_555
C3 C2 1_555 1_555
C4 C3 1_555 1_555
H4 C4 1_555 1_555
C5 C4 1_555 1_555
C6 C5 1_555 1_555
H5 C6 1_555 1_555
C7 C6 1_555 1_555
H6 C7 1_555 1_555
C8 C3 1_555 1_555
H7 C8 1_555 1_555
O2 C9 1_555 1_555
C9 C5 1_555 1_555
N2 C9 1_555 1_555
H8 N2 1_555 1_555
C10 N2 1_555 1_555
H9 C10 1_555 1_555
H10 C10 1_555 1_555
C11 C10 1_555 1_555
C12 C11 1_555 1_555
H11 C12 1_555 1_555
C13 C12 1_555 1_555
H12 C13 1_555 1_555
C14 C13 1_555 1_555
C15 C14 1_555 1_555
H13 C15 1_555 1_555
C16 C11 1_555 1_555
H14 C16 1_555 1_555
C17 C14 1_555 1_555
H15 C17 1_555 1_555
H16 C17 1_555 1_555
N3 C17 1_555 1_555
H17 N3 1_555 1_555
O3 C18 1_555 1_555
C18 N3 1_555 1_555
C19 C18 1_555 1_555
C20 C19 1_555 1_555
H18 C20 1_555 1_555
C21 C20 1_555 1_555
C22 C21 1_555 1_555
H19 C22 1_555 1_555
C23 C22 1_555 1_555
H20 C23 1_555 1_555
C24 C19 1_555 1_555
H21 C24 1_555 1_555
C25 C21 1_555 1_555
O4 C25 1_555 1_555
N4 C25 1_555 1_555
H22 N4 1_555 1_555
C26 N4 1_555 1_555
H23 C26 1_555 1_555
H24 C26 1_555 1_555
C27 C26 1_555 1_555
C28 C27 1_555 1_555
H25 C28 1_555 1_555
C29 C28 1_555 1_555
H26 C29 1_555 1_555
C30 C1 1_555 1_555
C31 C30 1_555 1_555
H27 C31 1_555 1_555
C32 C27 1_555 1_555
H28 C32 1_555 1_555
C33 H29 1_555 1_555
O5 C34 1_555 1_555
C34 C33 1_555 1_555
N5 C34 1_555 1_555
H30 N5 1_555 1_555
C35 N5 1_555 1_555
H31 C35 1_555 1_555
H32 C35 1_555 1_555
O6 C36 1_555 1_555
C36 C35 1_555 1_555
N6 C36 1_555 1_555
H33 N6 1_555 1_555
C37 N6 1_555 1_555
H34 C37 1_555 1_555
O7 C38 1_555 1_555
C38 C37 1_555 1_555
O8 C38 1_555 1_555
C39 O8 1_555 1_555
H35 C39 1_555 1_555
H36 C39 1_555 1_555
C40 C39 1_555 1_555
H37 C40 1_555 1_555
C41 C40 1_555 1_555
C42 C41 1_555 1_555
H38 C42 1_555 1_555
C43 C42 1_555 1_555
H39 C43 1_555 1_555
C44 C43 1_555 1_555
H40 C44 1_555 1_555
C45 C44 1_555 1_555
H41 C45 1_555 1_555
C46 C41 1_555 1_555
H42 C46 1_555 1_555
C47 C40 1_555 1_555
C48 C47 1_555 1_555
H43 C48 1_555 1_555
C49 C48 1_555 1_555
H44 C49 1_555 1_555
C50 C49 1_555 1_555
H45 C50 1_555 1_555
C51 C50 1_555 1_555
H46 C51 1_555 1_555
C52 C47 1_555 1_555
H47 C52 1_555 1_555
C53 C33 1_555 1_555
C54 C53 1_555 1_555
H48 C54 1_555 1_555
C55 C54 1_555 1_555
H49 C55 1_555 1_555
C56 C55 1_555 1_555
H50 C56 1_555 1_555
C57 C56 1_555 1_555
H51 C57 1_555 1_555
C58 C53 1_555 1_555
H52 C58 1_555 1_555
C59 C33 1_555 1_555
C60 C59 1_555 1_555
H53 C60 1_555 1_555
C61 C60 1_555 1_555
H54 C61 1_555 1_555
C62 C61 1_555 1_555
H55 C62 1_555 1_555
C63 C62 1_555 1_555
H56 C63 1_555 1_555
C64 C59 1_555 1_555
H57 C64 1_555 1_555
C65 C37 1_555 1_555
H58 C65 1_555 1_555
H59 C65 1_555 1_555
C66 C65 1_555 1_555
H60 C66 1_555 1_555
H61 C66 1_555 1_555
S1 C66 1_555 1_555
C67 S1 1_555 1_555
H62 C67 1_555 1_555
H63 C67 1_555 1_555
H64 C67 1_555 1_555
O9 H65 1_555 1_555
H66 O9 1_555 1_555
O10 H67 1_555 1_555
H68 O10 1_555 1_555
C7 C8 1_555 1_555
C15 C16 1_555 1_555
C23 C24 1_555 1_555
C29 C30 1_555 1_555
C31 C32 1_555 1_555
C45 C46 1_555 1_555
C51 C52 1_555 1_555
C57 C58 1_555 1_555
C63 C64 1_555 1_555

#END
