
#######################################################################
#
#                 Cambridge Crystallographic Data Centre
#                                CCDC 
#
#######################################################################
#
# If this CIF has been generated from an entry in the Cambridge 
# Structural Database, then it will include bibliographic, chemical, 
# crystal, experimental, refinement or atomic coordinate data resulting 
# from the CCDC's data processing and validation procedures.
#
#######################################################################

data_XIJWEV
_chemical_formula_moiety         'C30 H26 S2'
_chemical_name_systematic        
2-hexyl-8-phenylnaphtho[2',3':4,5]thieno[3,2-b][1]benzothiophene
_symmetry_cell_setting           monoclinic
_symmetry_space_group_name_H-M   'P 21/a'
_symmetry_Int_Tables_number      14
_space_group_name_Hall           '-P 2yab'
loop_
_symmetry_equiv_pos_site_id
_symmetry_equiv_pos_as_xyz
1 x,y,z
2 1/2-x,1/2+y,-z
3 -x,-y,-z
4 1/2+x,1/2-y,z
_cell_length_a                   6.065(2)
_cell_length_b                   7.801(2)
_cell_length_c                   48.772(19)
_cell_angle_alpha                90
_cell_angle_beta                 92.864(9)
_cell_angle_gamma                90
_cell_volume                     2304.67
_cell_formula_units_Z            4
loop_
_atom_site_label
_atom_site_type_symbol
_atom_site_fract_x
_atom_site_fract_y
_atom_site_fract_z
S1 S -0.05415(17) 0.38973(15) 0.26722(3)
S2 S 0.49893(17) 0.60734(15) 0.23322(3)
C1 C 0.3458(7) 0.5778(6) 0.17844(12)
C2 C 0.1866(10) 0.5262(7) 0.15958(11)
C3 C -0.0035(8) 0.4429(7) 0.16808(12)
C4 C -0.0338(8) 0.4178(6) 0.19535(12)
C5 C 0.1225(8) 0.4726(6) 0.21494(11)
C6 C 0.3169(7) 0.5518(6) 0.20594(10)
C7 C 0.3187(7) 0.5318(5) 0.25707(10)
C8 C 0.1299(7) 0.4660(5) 0.24388(11)
C9 C 0.1281(7) 0.4449(5) 0.29497(10)
C10 C 0.3273(7) 0.5222(5) 0.28600(11)
C11 C 0.4869(7) 0.5691(5) 0.30535(11)
C12 C 0.4535(7) 0.5442(5) 0.33344(11)
C13 C 0.2540(7) 0.4689(6) 0.34198(10)
C14 C 0.0947(7) 0.4178(5) 0.32179(10)
C15 C 0.2213(7) 0.4520(5) 0.37011(11)
C16 C 0.3703(8) 0.5056(5) 0.39007(10)
C17 C 0.5735(7) 0.5740(5) 0.38126(10)
C18 C 0.6114(6) 0.5915(5) 0.35427(11)
C19 C 0.3276(8) 0.5005(6) 0.41962(11)
C20 C 0.4341(7) 0.6054(6) 0.43854(12)
C21 C 0.3894(8) 0.6033(7) 0.46577(12)
C22 C 0.2310(9) 0.4959(8) 0.47507(11)
C23 C 0.1202(8) 0.3912(7) 0.45683(13)
C24 C 0.1678(7) 0.3921(6) 0.42965(11)
C25 C 0.3968(10) 0.4758(8) 0.11640(11)
C26 C 0.2088(8) 0.5633(7) 0.12910(12)
C27 C 0.4152(10) 0.5271(8) 0.08613(12)
C28 C 0.6187(13) 0.5218(11) 0.04285(14)
C29 C 0.7993(15) 0.4664(13) 0.02936(16)
C30 C 0.6070(11) 0.4642(9) 0.07275(14)
H1 H 0.74595 0.63613 0.34932
H2 H 0.6179 0.61751 0.29994
H3 H 0.09107 0.40162 0.3754
H4 H -0.0345 0.36508 0.3269
H5 H 0.47338 0.6304 0.17278
H6 H -0.10941 0.40455 0.15506
H7 H 0.68201 0.60725 0.39433
H8 H 0.09134 0.31836 0.41758
H9 H 0.19973 0.49456 0.49354
H10 H 0.54065 0.68084 0.43266
H11 H 0.46703 0.67515 0.47802
H12 H -0.16093 0.36332 0.20076
H13 H 0.37694 0.35268 0.11758
H14 H 0.53305 0.50505 0.12658
H15 H 0.01127 0.31833 0.46285
H16 H 0.07298 0.5294 0.11923
H17 H 0.22537 0.68603 0.12675
H18 H 0.28425 0.48646 0.07588
H19 H 0.41486 0.65123 0.08503
H20 H 0.48668 0.48205 0.03275
H21 H 0.61666 0.6461 0.04241
H22 H 0.78944 0.34474 0.02657
H23 H 0.93155 0.49266 0.04017
H24 H 0.80286 0.52302 0.01191
H25 H 0.60644 0.33991 0.07334
H26 H 0.73875 0.50329 0.08299
loop_
_geom_bond_atom_site_label_1
_geom_bond_atom_site_label_2
_geom_bond_site_symmetry_1
_geom_bond_site_symmetry_2
S1 C8 1_555 1_555
S2 C6 1_555 1_555
C1 C2 1_555 1_555
C2 C3 1_555 1_555
C3 C4 1_555 1_555
C4 C5 1_555 1_555
C5 C6 1_555 1_555
C6 C1 1_555 1_555
C7 S2 1_555 1_555
C8 C5 1_555 1_555
C9 S1 1_555 1_555
C10 C7 1_555 1_555
C11 C10 1_555 1_555
C12 C11 1_555 1_555
C13 C12 1_555 1_555
C14 C9 1_555 1_555
C15 C13 1_555 1_555
C16 C15 1_555 1_555
C17 C16 1_555 1_555
C18 C12 1_555 1_555
C19 C16 1_555 1_555
C20 C19 1_555 1_555
C21 C20 1_555 1_555
C22 C21 1_555 1_555
C23 C22 1_555 1_555
C24 C19 1_555 1_555
C25 C26 1_555 1_555
C26 C2 1_555 1_555
C27 C25 1_555 1_555
C28 C29 1_555 1_555
C29 H22 1_555 1_555
C30 C27 1_555 1_555
H1 C18 1_555 1_555
H2 C11 1_555 1_555
H3 C15 1_555 1_555
H4 C14 1_555 1_555
H5 C1 1_555 1_555
H6 C3 1_555 1_555
H7 C17 1_555 1_555
H8 C24 1_555 1_555
H9 C22 1_555 1_555
H10 C20 1_555 1_555
H11 C21 1_555 1_555
H12 C4 1_555 1_555
H13 C25 1_555 1_555
H14 C25 1_555 1_555
H15 C23 1_555 1_555
H16 C26 1_555 1_555
H17 C26 1_555 1_555
H18 C27 1_555 1_555
H19 C27 1_555 1_555
H20 C28 1_555 1_555
H21 C28 1_555 1_555
H23 C29 1_555 1_555
H24 C29 1_555 1_555
H25 C30 1_555 1_555
H26 C30 1_555 1_555
C7 C8 1_555 1_555
C9 C10 1_555 1_555
C13 C14 1_555 1_555
C17 C18 1_555 1_555
C23 C24 1_555 1_555
C28 C30 1_555 1_555

#END
