
#######################################################################
#
#                 Cambridge Crystallographic Data Centre
#                                CCDC 
#
#######################################################################
#
# If this CIF has been generated from an entry in the Cambridge 
# Structural Database, then it will include bibliographic, chemical, 
# crystal, experimental, refinement or atomic coordinate data resulting 
# from the CCDC's data processing and validation procedures.
#
#######################################################################

data_XIJWIZ
_chemical_formula_moiety         'C30 H32 S2'
_chemical_name_systematic        
3-decyl-8-phenyl[1]benzothieno[3,2-b][1]benzothiophene
_symmetry_cell_setting           monoclinic
_symmetry_space_group_name_H-M   'P 21/a'
_symmetry_Int_Tables_number      14
_space_group_name_Hall           '-P 2yab'
loop_
_symmetry_equiv_pos_site_id
_symmetry_equiv_pos_as_xyz
1 x,y,z
2 1/2-x,1/2+y,-z
3 -x,-y,-z
4 1/2+x,1/2-y,z
_cell_length_a                   7.029(3)
_cell_length_b                   7.391(2)
_cell_length_c                   48.221(17)
_cell_angle_alpha                90
_cell_angle_beta                 92.414(12)
_cell_angle_gamma                90
_cell_volume                     2502.92
_cell_formula_units_Z            4
loop_
_atom_site_label
_atom_site_type_symbol
_atom_site_fract_x
_atom_site_fract_y
_atom_site_fract_z
S1 S -0.00204(18) 0.59086(19) 0.31042(3)
S2 S 0.55771(18) 0.41124(19) 0.30347(3)
C1 C -0.1018(8) 0.5757(7) 0.25306(13)
C2 C -0.0477(8) 0.5372(7) 0.22679(13)
C3 C 0.1323(9) 0.4715(8) 0.22109(13)
C4 C 0.2617(8) 0.4473(7) 0.24323(13)
C5 C 0.2879(8) 0.5307(6) 0.37136(13)
C6 C 0.4148(8) 0.4929(7) 0.39351(13)
C7 C 0.6019(8) 0.4400(7) 0.38700(13)
C8 C 0.6544(8) 0.4170(7) 0.36037(12)
C9 C 0.5253(7) 0.4473(6) 0.33835(12)
C10 C 0.3389(8) 0.5092(7) 0.34406(13)
C11 C 0.2298(7) 0.5253(6) 0.31852(13)
C12 C 0.3244(7) 0.4756(7) 0.29562(12)
C13 C 0.2144(7) 0.4879(7) 0.27013(11)
C14 C 0.0283(7) 0.5521(6) 0.27532(11)
C15 C 0.3557(8) 0.5003(8) 0.42266(12)
C16 C 0.4336(7) 0.3840(7) 0.44226(13)
C17 C 0.3772(8) 0.3906(8) 0.46938(13)
C18 C 0.2374(9) 0.5100(9) 0.47721(14)
C19 C 0.1610(8) 0.6244(9) 0.45765(14)
C20 C 0.2163(8) 0.6194(8) 0.43082(13)
C21 C 0.1826(8) 0.4300(9) 0.19176(12)
C22 C 0.3632(8) 0.5156(8) 0.18191(12)
C23 C 0.4078(8) 0.4651(8) 0.15281(12)
C24 C 0.5962(8) 0.5331(8) 0.14341(12)
C25 C 0.6448(8) 0.4737(8) 0.11443(12)
C26 C 0.8371(9) 0.5346(9) 0.10553(13)
C27 C 0.8832(8) 0.4726(8) 0.07689(13)
C28 C 1.0737(9) 0.5297(9) 0.06659(13)
C29 C 1.1178(10) 0.4706(11) 0.03788(14)
C30 C 1.3047(10) 0.5352(12) 0.02722(16)
H1 H -0.22418 0.61718 0.25601
H2 H -0.13508 0.5558 0.21204
H3 H 0.38253 0.40298 0.23999
H4 H 0.16607 0.57135 0.37492
H5 H 0.69164 0.42043 0.40141
H6 H 0.77786 0.38072 0.35694
H7 H 0.52479 0.30027 0.43726
H8 H 0.43407 0.31365 0.48256
H9 H 0.19696 0.51193 0.49533
H10 H 0.06926 0.7077 0.46263
H11 H 0.15932 0.69735 0.41781
H12 H 0.07756 0.46855 0.17946
H13 H 0.19393 0.29984 0.18991
H14 H 0.3514 0.64611 0.18306
H15 H 0.46887 0.47949 0.19428
H16 H 0.30775 0.51192 0.14032
H17 H 0.40605 0.33427 0.15126
H18 H 0.69576 0.49142 0.15642
H19 H 0.59556 0.66429 0.14403
H20 H 0.6396 0.34263 0.11356
H21 H 0.54839 0.5202 0.10132
H22 H 0.84215 0.6657 0.10612
H23 H 0.93381 0.48905 0.11868
H24 H 0.78479 0.51738 0.06395
H25 H 0.87711 0.34156 0.07649
H26 H 1.08082 0.66066 0.06731
H27 H 1.1723 0.48299 0.07933
H28 H 1.01615 0.51236 0.02523
H29 H 1.1168 0.33936 0.03739
H30 H 1.32362 0.48264 0.00934
H31 H 1.40675 0.49947 0.03991
H32 H 1.30278 0.66467 0.02561
loop_
_geom_bond_atom_site_label_1
_geom_bond_atom_site_label_2
_geom_bond_site_symmetry_1
_geom_bond_site_symmetry_2
S1 C11 1_555 1_555
S2 C9 1_555 1_555
C1 C2 1_555 1_555
C2 C3 1_555 1_555
C3 C4 1_555 1_555
C4 C13 1_555 1_555
C5 C6 1_555 1_555
C6 C7 1_555 1_555
C7 C8 1_555 1_555
C8 C9 1_555 1_555
C9 C10 1_555 1_555
C10 C5 1_555 1_555
C11 C10 1_555 1_555
C12 S2 1_555 1_555
C13 C12 1_555 1_555
C14 S1 1_555 1_555
C15 C6 1_555 1_555
C16 C15 1_555 1_555
C17 C16 1_555 1_555
C18 C17 1_555 1_555
C19 C18 1_555 1_555
C20 C15 1_555 1_555
C21 C3 1_555 1_555
C22 C21 1_555 1_555
C23 C22 1_555 1_555
C24 C23 1_555 1_555
C25 C24 1_555 1_555
C26 C25 1_555 1_555
C27 C26 1_555 1_555
C28 C27 1_555 1_555
C29 C28 1_555 1_555
C30 C29 1_555 1_555
H1 C1 1_555 1_555
H2 C2 1_555 1_555
H3 C4 1_555 1_555
H4 C5 1_555 1_555
H5 C7 1_555 1_555
H6 C8 1_555 1_555
H7 C16 1_555 1_555
H8 C17 1_555 1_555
H9 C18 1_555 1_555
H10 C19 1_555 1_555
H11 C20 1_555 1_555
H12 C21 1_555 1_555
H13 C21 1_555 1_555
H14 C22 1_555 1_555
H15 C22 1_555 1_555
H16 C23 1_555 1_555
H17 C23 1_555 1_555
H18 C24 1_555 1_555
H19 C24 1_555 1_555
H20 C25 1_555 1_555
H21 C25 1_555 1_555
H22 C26 1_555 1_555
H23 C26 1_555 1_555
H24 C27 1_555 1_555
H25 C27 1_555 1_555
H26 C28 1_555 1_555
H27 C28 1_555 1_555
H28 C29 1_555 1_555
H29 C29 1_555 1_555
H30 C30 1_555 1_555
H31 C30 1_555 1_555
H32 C30 1_555 1_555
C1 C14 1_555 1_555
C11 C12 1_555 1_555
C13 C14 1_555 1_555
C19 C20 1_555 1_555

#END
