
#######################################################################
#
#                 Cambridge Crystallographic Data Centre
#                                CCDC 
#
#######################################################################
#
# If this CIF has been generated from an entry in the Cambridge 
# Structural Database, then it will include bibliographic, chemical, 
# crystal, experimental, refinement or atomic coordinate data resulting 
# from the CCDC's data processing and validation procedures.
#
#######################################################################

data_XIKHAD
_chemical_formula_moiety         'C21 H15 N3 O3'
_chemical_name_systematic        
1-benzyl-3-(3-nitrophenyl)quinoxalin-2(1H)-one
_symmetry_cell_setting           monoclinic
_symmetry_space_group_name_H-M   'P 21/c'
_symmetry_Int_Tables_number      14
_space_group_name_Hall           '-P 2ybc'
loop_
_symmetry_equiv_pos_site_id
_symmetry_equiv_pos_as_xyz
1 x,y,z
2 -x,1/2+y,1/2-z
3 -x,-y,-z
4 x,1/2-y,1/2+z
_cell_length_a                   10.2072(5)
_cell_length_b                   22.8173(11)
_cell_length_c                   7.0823(3)
_cell_angle_alpha                90
_cell_angle_beta                 90.0090(10)
_cell_angle_gamma                90
_cell_volume                     1649.47
_exptl_crystal_colour            yellow
_exptl_crystal_description       Tabular
_cell_formula_units_Z            4
loop_
_atom_site_label
_atom_site_type_symbol
_atom_site_fract_x
_atom_site_fract_y
_atom_site_fract_z
O1 O 0.12303(19) 0.74530(9) 0.1773(3)
O2 O 0.2995(2) 0.77369(9) 0.0362(3)
O3 O 0.27288(19) 0.44346(8) 0.1265(3)
N1 N 0.2283(2) 0.73495(10) 0.0994(3)
N2 N 0.0683(2) 0.42367(9) 0.2301(3)
N3 N 0.0138(2) 0.54308(9) 0.2258(3)
C1 C 0.2709(3) 0.67371(11) 0.0840(4)
C2 C 0.1852(2) 0.62974(11) 0.1342(3)
H1 H 0.0987 0.6389 0.1741
C3 C 0.2268(2) 0.57147(12) 0.1257(3)
C4 C 0.1295(2) 0.52499(11) 0.1781(3)
C5 C 0.1663(3) 0.46200(12) 0.1754(3)
C6 C 0.1045(3) 0.36034(11) 0.2234(4)
H2 H 0.1609 0.3532 0.1120
H3 H 0.0240 0.3366 0.2085
C7 C 0.1763(3) 0.34075(11) 0.3998(4)
C8 C 0.3121(3) 0.34248(12) 0.4096(4)
H4 H 0.3610 0.3563 0.3045
C9 C 0.3773(3) 0.32411(13) 0.5716(5)
H5 H 0.4702 0.3255 0.5770
C10 C 0.3063(3) 0.30380(13) 0.7253(4)
H6 H 0.3505 0.2916 0.8366
C11 C -0.0802(2) 0.50322(11) 0.2815(3)
C12 C -0.2042(3) 0.52464(12) 0.3333(4)
H7 H -0.2215 0.5655 0.3270
C13 C -0.3007(3) 0.48686(13) 0.3929(4)
H8 H -0.3841 0.5015 0.4292
C14 C -0.2746(3) 0.42634(13) 0.3997(4)
H9 H -0.3415 0.4002 0.4400
C15 C -0.1547(3) 0.40425(12) 0.3492(4)
H10 H -0.1390 0.3633 0.3558
C16 C -0.0548(3) 0.44216(11) 0.2877(3)
C17 C 0.1712(3) 0.30144(12) 0.7159(4)
H11 H 0.1227 0.2871 0.8205
C18 C 0.1062(3) 0.31986(11) 0.5552(4)
H12 H 0.0132 0.3183 0.5505
C19 C 0.3562(3) 0.56012(12) 0.0708(4)
H13 H 0.3873 0.5209 0.0683
C20 C 0.4400(3) 0.60570(13) 0.0198(4)
H14 H 0.5274 0.5971 -0.0174
C21 C 0.3977(3) 0.66311(12) 0.0225(4)
H15 H 0.4533 0.6942 -0.0162
loop_
_geom_bond_atom_site_label_1
_geom_bond_atom_site_label_2
_geom_bond_site_symmetry_1
_geom_bond_site_symmetry_2
O1 N1 1_555 1_555
O2 N1 1_555 1_555
O3 C5 1_555 1_555
N1 C1 1_555 1_555
N2 C5 1_555 1_555
N3 C4 1_555 1_555
C1 C2 1_555 1_555
C2 H1 1_555 1_555
C3 C2 1_555 1_555
C4 C3 1_555 1_555
C5 C4 1_555 1_555
C6 N2 1_555 1_555
H2 C6 1_555 1_555
H3 C6 1_555 1_555
C7 C6 1_555 1_555
C8 C7 1_555 1_555
H4 C8 1_555 1_555
C9 C8 1_555 1_555
H5 C9 1_555 1_555
C10 C9 1_555 1_555
H6 C10 1_555 1_555
C11 N3 1_555 1_555
C12 C11 1_555 1_555
H7 C12 1_555 1_555
C13 C12 1_555 1_555
H8 C13 1_555 1_555
C14 C13 1_555 1_555
H9 C14 1_555 1_555
C15 C14 1_555 1_555
H10 C15 1_555 1_555
C16 N2 1_555 1_555
C17 C10 1_555 1_555
H11 C17 1_555 1_555
C18 C7 1_555 1_555
H12 C18 1_555 1_555
C19 C3 1_555 1_555
H13 C19 1_555 1_555
C20 C19 1_555 1_555
H14 C20 1_555 1_555
C21 C1 1_555 1_555
H15 C21 1_555 1_555
C11 C16 1_555 1_555
C15 C16 1_555 1_555
C17 C18 1_555 1_555
C20 C21 1_555 1_555

#END
