
#######################################################################
#
#                 Cambridge Crystallographic Data Centre
#                                CCDC 
#
#######################################################################
#
# If this CIF has been generated from an entry in the Cambridge 
# Structural Database, then it will include bibliographic, chemical, 
# crystal, experimental, refinement or atomic coordinate data resulting 
# from the CCDC's data processing and validation procedures.
#
#######################################################################

data_XILNIS
_chemical_formula_moiety         'C35 H29 O5 P1'
_chemical_name_systematic        
'dimethyl 4-(diphenylphosphoryl)-9-phenyl-1,3-dihydro-2H-fluorene-2,2-dicarboxylate unknown solvate'
_symmetry_cell_setting           triclinic
_symmetry_space_group_name_H-M   'P -1'
_symmetry_Int_Tables_number      2
_space_group_name_Hall           '-P 1'
loop_
_symmetry_equiv_pos_site_id
_symmetry_equiv_pos_as_xyz
1 x,y,z
2 -x,-y,-z
_cell_length_a                   12.333(2)
_cell_length_b                   12.5702(13)
_cell_length_c                   12.5947(16)
_cell_angle_alpha                109.579(10)
_cell_angle_beta                 98.093(12)
_cell_angle_gamma                117.242(14)
_cell_volume                     1531.41
_exptl_crystal_colour            colorless
_exptl_crystal_description       block
_cell_formula_units_Z            2
loop_
_atom_site_label
_atom_site_type_symbol
_atom_site_fract_x
_atom_site_fract_y
_atom_site_fract_z
P1 P 0.53391(6) 0.20495(5) 0.46340(5)
O1 O 0.45429(16) 0.16975(15) 0.53844(14)
O2 O 0.7333(2) 0.18281(18) 0.23264(18)
O3 O 0.6988(3) -0.00591(19) 0.09926(18)
O4 O 0.8409(2) -0.0717(2) 0.3241(3)
O5 O 0.93023(17) 0.14375(17) 0.38945(19)
C1 C 0.5492(2) 0.0698(2) 0.37073(19)
C2 C 0.4456(2) -0.0484(2) 0.2825(2)
C3 C 0.3044(2) -0.1025(2) 0.2374(2)
C4 C 0.2261(2) -0.0617(2) 0.2828(2)
H1 H 0.2625 0.0179 0.3526
C5 C 0.0921(2) -0.1427(3) 0.2215(3)
H2 H 0.0388 -0.1163 0.2508
C6 C 0.0368(2) -0.2612(3) 0.1181(3)
H3 H -0.0529 -0.3131 0.0782
C7 C 0.1134(2) -0.3036(2) 0.0733(2)
H4 H 0.0759 -0.3839 0.0038
C8 C 0.2463(2) -0.2252(2) 0.1331(2)
C9 C 0.3470(2) -0.2526(2) 0.1118(2)
C10 C 0.4616(2) -0.1528(2) 0.20214(19)
C11 C 0.5903(2) -0.1395(2) 0.2274(2)
H5 H 0.5979 -0.1852 0.1525
H6 H 0.5961 -0.1817 0.2780
C12 C 0.7023(2) 0.0092(2) 0.2909(2)
C13 C 0.6811(2) 0.0875(2) 0.4006(2)
H7 H 0.6908 0.0578 0.4612
H8 H 0.7481 0.1822 0.4349
C14 C 0.3198(2) -0.3732(2) 0.0097(2)
C15 C 0.2506(3) -0.4096(2) -0.1076(2)
H9 H 0.2227 -0.3564 -0.1212
C16 C 0.2231(3) -0.5233(3) -0.2033(3)
H10 H 0.1773 -0.5458 -0.2808
C17 C 0.2629(3) -0.6036(3) -0.1852(3)
H11 H 0.2443 -0.6802 -0.2501
C18 C 0.3302(3) -0.5696(3) -0.0704(3)
H12 H 0.3566 -0.6242 -0.0577
C19 C 0.3593(2) -0.4555(2) 0.0262(2)
H13 H 0.4058 -0.4335 0.1033
C20 C 0.8307(2) 0.0196(2) 0.3342(2)
C21 C 1.0562(3) 0.1666(3) 0.4398(3)
H14 H 1.0774 0.1206 0.3767
H15 H 1.0538 0.1332 0.4982
H16 H 1.1211 0.2611 0.4777
C22 C 0.7128(2) 0.0737(2) 0.2064(2)
C23 C 0.7070(5) 0.0472(4) 0.0117(3)
H17 H 0.7011 -0.0153 -0.0619
H18 H 0.7886 0.1314 0.0432
H19 H 0.6367 0.0604 -0.0037
C24 C 0.6973(2) 0.3468(2) 0.5554(2)
C25 C 0.7841(3) 0.4235(2) 0.5127(3)
H20 H 0.7600 0.4004 0.4311
C26 C 0.9061(3) 0.5339(3) 0.5907(3)
H21 H 0.9645 0.5840 0.5616
C27 C 0.9405(3) 0.5690(3) 0.7122(3)
H22 H 1.0225 0.6429 0.7651
C28 C 0.8551(3) 0.4961(3) 0.7548(3)
H23 H 0.8783 0.5215 0.8369
C29 C 0.7341(3) 0.3847(3) 0.6774(3)
H24 H 0.6769 0.3348 0.7075
C30 C 0.4723(2) 0.2585(2) 0.3667(2)
C31 C 0.3980(3) 0.3095(3) 0.4029(3)
H25 H 0.3773 0.3097 0.4711
C32 C 0.3549(3) 0.3603(3) 0.3372(3)
H26 H 0.3051 0.3946 0.3616
C33 C 0.3850(3) 0.3602(3) 0.2364(3)
H27 H 0.3555 0.3946 0.1929
C34 C 0.4578(3) 0.3102(3) 0.1997(3)
H28 H 0.4779 0.3104 0.1313
C35 C 0.5023(3) 0.2587(3) 0.2649(2)
H29 H 0.5521 0.2245 0.2399
loop_
_geom_bond_atom_site_label_1
_geom_bond_atom_site_label_2
_geom_bond_site_symmetry_1
_geom_bond_site_symmetry_2
P1 O1 1_555 1_555
O2 C22 1_555 1_555
O3 C22 1_555 1_555
O4 C20 1_555 1_555
O5 C20 1_555 1_555
C1 P1 1_555 1_555
C2 C1 1_555 1_555
C3 C2 1_555 1_555
C4 C3 1_555 1_555
H1 C4 1_555 1_555
C5 C4 1_555 1_555
H2 C5 1_555 1_555
C6 C5 1_555 1_555
H3 C6 1_555 1_555
C7 C6 1_555 1_555
H4 C7 1_555 1_555
C8 C3 1_555 1_555
C9 C8 1_555 1_555
C10 C2 1_555 1_555
C11 C10 1_555 1_555
H5 C11 1_555 1_555
H6 C11 1_555 1_555
C12 C11 1_555 1_555
C13 C1 1_555 1_555
H7 C13 1_555 1_555
H8 C13 1_555 1_555
C14 C9 1_555 1_555
C15 C14 1_555 1_555
H9 C15 1_555 1_555
C16 C15 1_555 1_555
H10 C16 1_555 1_555
C17 C16 1_555 1_555
H11 C17 1_555 1_555
C18 C17 1_555 1_555
H12 C18 1_555 1_555
C19 C14 1_555 1_555
H13 C19 1_555 1_555
C20 C12 1_555 1_555
C21 O5 1_555 1_555
H14 C21 1_555 1_555
H15 C21 1_555 1_555
H16 C21 1_555 1_555
C22 C12 1_555 1_555
C23 O3 1_555 1_555
H17 C23 1_555 1_555
H18 C23 1_555 1_555
H19 C23 1_555 1_555
C24 P1 1_555 1_555
C25 C24 1_555 1_555
H20 C25 1_555 1_555
C26 C25 1_555 1_555
H21 C26 1_555 1_555
C27 C26 1_555 1_555
H22 C27 1_555 1_555
C28 C27 1_555 1_555
H23 C28 1_555 1_555
C29 C24 1_555 1_555
H24 C29 1_555 1_555
C30 P1 1_555 1_555
C31 C30 1_555 1_555
H25 C31 1_555 1_555
C32 C31 1_555 1_555
H26 C32 1_555 1_555
C33 C32 1_555 1_555
H27 C33 1_555 1_555
C34 C33 1_555 1_555
H28 C34 1_555 1_555
C35 C30 1_555 1_555
H29 C35 1_555 1_555
C7 C8 1_555 1_555
C9 C10 1_555 1_555
C12 C13 1_555 1_555
C18 C19 1_555 1_555
C28 C29 1_555 1_555
C34 C35 1_555 1_555

#END
