
#######################################################################
#
#                 Cambridge Crystallographic Data Centre
#                                CCDC 
#
#######################################################################
#
# If this CIF has been generated from an entry in the Cambridge 
# Structural Database, then it will include bibliographic, chemical, 
# crystal, experimental, refinement or atomic coordinate data resulting 
# from the CCDC's data processing and validation procedures.
#
#######################################################################

data_XILQOA
_chemical_formula_moiety         'C31 H28 N2 O1'
_chemical_name_systematic        
Cyclohex-1-en-1-yl(5-methyl-1,2-diphenyl-2,5-dihydro-1H-pyrido[4,3-b]indol-4-yl)methanone
_symmetry_cell_setting           orthorhombic
_symmetry_space_group_name_H-M   'P b c a'
_symmetry_Int_Tables_number      61
_space_group_name_Hall           '-P 2ac 2ab'
loop_
_symmetry_equiv_pos_site_id
_symmetry_equiv_pos_as_xyz
1 x,y,z
2 1/2-x,-y,1/2+z
3 -x,1/2+y,1/2-z
4 1/2+x,1/2-y,-z
5 -x,-y,-z
6 1/2+x,y,1/2-z
7 x,1/2-y,1/2+z
8 1/2-x,1/2+y,z
_cell_length_a                   17.7837(14)
_cell_length_b                   15.3832(13)
_cell_length_c                   17.8242(14)
_cell_angle_alpha                90
_cell_angle_beta                 90
_cell_angle_gamma                90
_cell_volume                     4876.17
_exptl_crystal_colour            green
_exptl_crystal_description       prismatic
_cell_formula_units_Z            8
loop_
_atom_site_label
_atom_site_type_symbol
_atom_site_fract_x
_atom_site_fract_y
_atom_site_fract_z
H1 H 0.8397(13) 0.2580(17) 0.0757(14)
N1 N 1.07816(7) 0.34078(10) 0.17607(7)
N2 N 0.91797(7) 0.18794(10) 0.27312(7)
O1 O 1.04299(8) 0.21342(13) 0.04393(8)
C1 C 1.11521(9) 0.37120(12) 0.23844(9)
C2 C 1.16819(10) 0.43762(13) 0.24454(11)
H2 H 1.1841 0.4687 0.2027
C3 C 1.19590(11) 0.45538(15) 0.31424(12)
H3 H 1.2312 0.4995 0.3199
C4 C 1.17268(12) 0.40913(15) 0.37690(12)
H4 H 1.1929 0.4230 0.4235
C5 C 1.12062(10) 0.34346(13) 0.37185(10)
H5 H 1.1060 0.3126 0.4143
C6 C 1.09018(8) 0.32412(11) 0.30147(9)
C7 C 1.03558(8) 0.26451(11) 0.27448(8)
C8 C 1.02974(8) 0.27541(11) 0.19856(9)
C9 C 0.97445(9) 0.22756(12) 0.15512(9)
C10 C 0.91997(9) 0.18870(12) 0.19692(9)
H6 H 0.8813 0.1606 0.1715
C11 C 0.98834(8) 0.19997(11) 0.31612(8)
H7 H 0.9752 0.2255 0.3648
C12 C 1.02910(9) 0.11464(11) 0.33081(9)
C13 C 1.06757(12) 0.10434(15) 0.39729(12)
H8 H 1.0667 0.1484 0.4330
C14 C 1.10730(14) 0.02942(17) 0.41139(16)
H9 H 1.1329 0.0233 0.4566
C15 C 1.10951(12) -0.03579(16) 0.35989(15)
H10 H 1.1369 -0.0861 0.3696
C16 C 1.07127(13) -0.02707(14) 0.29368(14)
H11 H 1.0724 -0.0716 0.2584
C17 C 1.03097(11) 0.04797(13) 0.27939(11)
H12 H 1.0048 0.0534 0.2345
C18 C 0.85039(9) 0.16740(11) 0.31120(10)
C19 C 0.85137(10) 0.13036(11) 0.38196(10)
H13 H 0.8969 0.1176 0.4051
C20 C 0.78462(11) 0.11240(13) 0.41798(12)
H14 H 0.7856 0.0878 0.4656
C21 C 0.71695(11) 0.13018(15) 0.38485(15)
H15 H 0.6722 0.1174 0.4096
C22 C 0.71576(10) 0.16693(15) 0.31500(14)
H16 H 0.6699 0.1787 0.2920
C23 C 0.78186(10) 0.18673(13) 0.27827(12)
H17 H 0.7804 0.2131 0.2313
C24 C 0.98182(10) 0.20672(14) 0.07546(10)
C25 C 0.91575(12) 0.17385(13) 0.03200(10)
C26 C 0.84772(13) 0.20765(16) 0.03959(14)
C27 C 1.08123(11) 0.38337(15) 0.10327(10)
H18 H 1.0975 0.4424 0.1096
H19 H 1.0322 0.3826 0.0808
H20 H 1.1161 0.3531 0.0714
C28 C 0.7731(5) 0.1811(6) 0.0048(5)
H21 H 0.7542 0.2269 -0.0274
H22 H 0.7362 0.1695 0.0436
C29 C 0.7889(3) 0.0988(4) -0.0408(3)
H23 H 0.7894 0.0494 -0.0070
H24 H 0.7481 0.0902 -0.0761
C30 C 0.8629(4) 0.1006(4) -0.0841(3)
H25 H 0.8684 0.0481 -0.1137
H26 H 0.8643 0.1503 -0.1176
C31 C 0.9252(4) 0.1069(6) -0.0271(5)
H27 H 0.9303 0.0507 -0.0028
H28 H 0.9718 0.1184 -0.0534
C32? C 0.7925(7) 0.1707(12) -0.0165(8)
H29? H 0.7527 0.1432 0.0122
H30? H 0.7699 0.2197 -0.0422
C33? C 0.8141(9) 0.1122(10) -0.0710(8)
H31? H 0.8182 0.1441 -0.1177
H32? H 0.7732 0.0711 -0.0771
C34? C 0.8836(6) 0.0611(7) -0.0625(6)
H33? H 0.9019 0.0474 -0.1124
H34? H 0.8704 0.0065 -0.0387
C35? C 0.9482(7) 0.1001(11) -0.0190(9)
H35? H 0.9854 0.1237 -0.0532
H36? H 0.9722 0.0559 0.0116
loop_
_geom_bond_atom_site_label_1
_geom_bond_atom_site_label_2
_geom_bond_site_symmetry_1
_geom_bond_site_symmetry_2
H1 C26 1_555 1_555
N1 C1 1_555 1_555
N2 C10 1_555 1_555
O1 C24 1_555 1_555
C1 C2 1_555 1_555
C2 H2 1_555 1_555
C3 C2 1_555 1_555
H3 C3 1_555 1_555
C4 C3 1_555 1_555
H4 C4 1_555 1_555
C5 C4 1_555 1_555
H5 C5 1_555 1_555
C6 C1 1_555 1_555
C7 C6 1_555 1_555
C8 N1 1_555 1_555
C9 C8 1_555 1_555
C10 C9 1_555 1_555
H6 C10 1_555 1_555
C11 N2 1_555 1_555
H7 C11 1_555 1_555
C12 C11 1_555 1_555
C13 C12 1_555 1_555
H8 C13 1_555 1_555
C14 C13 1_555 1_555
H9 C14 1_555 1_555
C15 C14 1_555 1_555
H10 C15 1_555 1_555
C16 C15 1_555 1_555
H11 C16 1_555 1_555
C17 C12 1_555 1_555
H12 C17 1_555 1_555
C18 N2 1_555 1_555
C19 C18 1_555 1_555
H13 C19 1_555 1_555
C20 C19 1_555 1_555
H14 C20 1_555 1_555
C21 C20 1_555 1_555
H15 C21 1_555 1_555
C22 C21 1_555 1_555
H16 C22 1_555 1_555
C23 C18 1_555 1_555
H17 C23 1_555 1_555
C24 C9 1_555 1_555
C25 C24 1_555 1_555
C26 C25 1_555 1_555
C27 N1 1_555 1_555
H18 C27 1_555 1_555
H19 C27 1_555 1_555
H20 C27 1_555 1_555
C28 C26 1_555 1_555
H21 C28 1_555 1_555
H22 C28 1_555 1_555
C29 C28 1_555 1_555
H23 C29 1_555 1_555
H24 C29 1_555 1_555
C30 C29 1_555 1_555
H25 C30 1_555 1_555
H26 C30 1_555 1_555
C31 C25 1_555 1_555
H27 C31 1_555 1_555
H28 C31 1_555 1_555
C5 C6 1_555 1_555
C7 C8 1_555 1_555
C7 C11 1_555 1_555
C16 C17 1_555 1_555
C22 C23 1_555 1_555
C30 C31 1_555 1_555

#END
