
#######################################################################
#
#                 Cambridge Crystallographic Data Centre
#                                CCDC 
#
#######################################################################
#
# If this CIF has been generated from an entry in the Cambridge 
# Structural Database, then it will include bibliographic, chemical, 
# crystal, experimental, refinement or atomic coordinate data resulting 
# from the CCDC's data processing and validation procedures.
#
#######################################################################

data_XILTES
_chemical_formula_moiety         'C33 H26 N2 O4'
_chemical_name_systematic        
N,N'-(Methylene-bis(3,5-dimethyl-o-phenylene))diphthalimide
_symmetry_cell_setting           orthorhombic
_symmetry_space_group_name_H-M   'P 21 21 2'
_symmetry_Int_Tables_number      18
_space_group_name_Hall           'P 2 2ab'
loop_
_symmetry_equiv_pos_site_id
_symmetry_equiv_pos_as_xyz
1 x,y,z
2 -x,-y,z
3 1/2-x,1/2+y,-z
4 1/2+x,1/2-y,-z
_cell_length_a                   16.221(3)
_cell_length_b                   8.4722(18)
_cell_length_c                   10.136(2)
_cell_angle_alpha                90
_cell_angle_beta                 90
_cell_angle_gamma                90
_cell_volume                     1392.97
_exptl_crystal_colour            colorless
_exptl_crystal_description       block
_cell_formula_units_Z            2
_exptl_crystal_recrystallization_method dmf
loop_
_atom_site_label
_atom_site_type_symbol
_atom_site_fract_x
_atom_site_fract_y
_atom_site_fract_z
O1 O 0.11270(12) 0.3874(3) 0.8973(2)
C1 C 0.36944(16) 0.5785(4) 0.9058(3)
H1 H 0.3816 0.6821 0.9291
C2 C 0.29729(15) 0.5483(3) 0.8366(3)
C3 C 0.28176(15) 0.3923(4) 0.8016(3)
C4 C 0.42398(14) 0.4605(4) 0.9415(3)
C5 C 0.12854(15) 0.3540(3) 0.7854(3)
N1 N 0.20752(12) 0.3573(3) 0.7307(2)
C6 C 0.5000 0.5000 1.0209(4)
H2 H 0.4874 0.5891 1.0776
H3 H 0.5126 0.4109 1.0776
C7 C 0.33479(17) 0.2697(4) 0.8357(3)
C8 C 0.40569(16) 0.3082(4) 0.9057(3)
H4 H 0.4420 0.2280 0.9290
C9 C 0.07252(16) 0.3054(4) 0.6778(3)
O2 O 0.26424(14) 0.3205(6) 0.5260(3)
C10 C -0.01132(17) 0.2809(4) 0.6786(3)
H5 H -0.0421 0.2949 0.7552
C11 C 0.20528(17) 0.3221(5) 0.5960(3)
C12 C 0.11783(17) 0.2860(5) 0.5650(3)
C13 C -0.0480(2) 0.2354(5) 0.5634(5)
H6 H -0.1046 0.2184 0.5612
C14 C 0.3160(2) 0.1013(5) 0.8045(5)
H7 H 0.3557 0.0344 0.8471
H8 H 0.3187 0.0856 0.7108
H9 H 0.2618 0.0758 0.8356
C15 C 0.23849(19) 0.6788(4) 0.8031(4)
H10 H 0.2287 0.6794 0.7097
H11 H 0.2618 0.7781 0.8293
H12 H 0.1874 0.6624 0.8488
C16 C 0.0814(2) 0.2415(7) 0.4501(4)
H13 H 0.1120 0.2298 0.3732
C17 C -0.0023(3) 0.2143(6) 0.4510(4)
H14 H -0.0283 0.1811 0.3741
O1A O 0.88730(12) 0.6126(3) 0.8973(2)
C1A C 0.63056(16) 0.4215(4) 0.9058(3)
H1A H 0.6184 0.3179 0.9291
C2A C 0.70271(15) 0.4517(3) 0.8366(3)
C3A C 0.71824(15) 0.6077(4) 0.8016(3)
C4A C 0.57602(14) 0.5395(4) 0.9415(3)
C5A C 0.87146(15) 0.6460(3) 0.7854(3)
N1A N 0.79248(12) 0.6427(3) 0.7307(2)
C7A C 0.66521(17) 0.7303(4) 0.8357(3)
C8A C 0.59431(16) 0.6918(4) 0.9057(3)
H4A H 0.5580 0.7720 0.9290
C9A C 0.92748(16) 0.6946(4) 0.6778(3)
O2A O 0.73576(14) 0.6795(6) 0.5260(3)
C10A C 1.01132(17) 0.7191(4) 0.6786(3)
H5A H 1.0421 0.7051 0.7552
C11A C 0.79472(17) 0.6779(5) 0.5960(3)
C12A C 0.88217(17) 0.7140(5) 0.5650(3)
C13A C 1.0480(2) 0.7646(5) 0.5634(5)
H6A H 1.1046 0.7816 0.5612
C14A C 0.6840(2) 0.8987(5) 0.8045(5)
H7A H 0.6443 0.9656 0.8471
H8A H 0.6813 0.9144 0.7108
H9A H 0.7382 0.9242 0.8356
C15A C 0.76151(19) 0.3212(4) 0.8031(4)
H10A H 0.7713 0.3206 0.7097
H11A H 0.7382 0.2219 0.8293
H12A H 0.8126 0.3376 0.8488
C16A C 0.9186(2) 0.7585(7) 0.4501(4)
H13A H 0.8880 0.7702 0.3732
C17A C 1.0023(3) 0.7857(6) 0.4510(4)
H14A H 1.0283 0.8189 0.3741
loop_
_geom_bond_atom_site_label_1
_geom_bond_atom_site_label_2
_geom_bond_site_symmetry_1
_geom_bond_site_symmetry_2
O1 C5 1_555 1_555
C1 H1 1_555 1_555
C2 C1 1_555 1_555
C3 C2 1_555 1_555
C4 C1 1_555 1_555
C5 N1 1_555 1_555
N1 C3 1_555 1_555
C6 C4 1_555 1_555
H2 C6 1_555 1_555
H3 C6 1_555 1_555
C7 C3 1_555 1_555
C8 C4 1_555 1_555
H4 C8 1_555 1_555
C9 C5 1_555 1_555
O2 C11 1_555 1_555
C10 C9 1_555 1_555
H5 C10 1_555 1_555
C11 N1 1_555 1_555
C12 C9 1_555 1_555
C13 C10 1_555 1_555
H6 C13 1_555 1_555
C14 C7 1_555 1_555
H7 C14 1_555 1_555
H8 C14 1_555 1_555
H9 C14 1_555 1_555
C15 C2 1_555 1_555
H10 C15 1_555 1_555
H11 C15 1_555 1_555
H12 C15 1_555 1_555
C16 C12 1_555 1_555
H13 C16 1_555 1_555
C17 C13 1_555 1_555
H14 C17 1_555 1_555
O1A C5A 1_555 1_555
C1A H1A 1_555 1_555
C2A C1A 1_555 1_555
C3A C2A 1_555 1_555
C4A C6 1_555 1_555
C5A N1A 1_555 1_555
N1A C3A 1_555 1_555
C7A C3A 1_555 1_555
C8A C4A 1_555 1_555
H4A C8A 1_555 1_555
C9A C5A 1_555 1_555
O2A C11A 1_555 1_555
C10A C9A 1_555 1_555
H5A C10A 1_555 1_555
C11A N1A 1_555 1_555
C12A C9A 1_555 1_555
C13A C10A 1_555 1_555
H6A C13A 1_555 1_555
C14A C7A 1_555 1_555
H7A C14A 1_555 1_555
H8A C14A 1_555 1_555
H9A C14A 1_555 1_555
C15A C2A 1_555 1_555
H10A C15A 1_555 1_555
H11A C15A 1_555 1_555
H12A C15A 1_555 1_555
C16A C12A 1_555 1_555
H13A C16A 1_555 1_555
C17A C13A 1_555 1_555
H14A C17A 1_555 1_555
C7 C8 1_555 1_555
C11 C12 1_555 1_555
C16 C17 1_555 1_555
C1A C4A 1_555 1_555
C7A C8A 1_555 1_555
C11A C12A 1_555 1_555
C16A C17A 1_555 1_555

#END
