
#######################################################################
#
#                 Cambridge Crystallographic Data Centre
#                                CCDC 
#
#######################################################################
#
# If this CIF has been generated from an entry in the Cambridge 
# Structural Database, then it will include bibliographic, chemical, 
# crystal, experimental, refinement or atomic coordinate data resulting 
# from the CCDC's data processing and validation procedures.
#
#######################################################################

data_XILTUI
_chemical_formula_moiety         'C12 H10 N4 O1 S2'
_chemical_name_systematic        
2-Methyl-5-((3-phenyl-1,2,4-oxadiazol-5-yl)methylsulfanyl)-1,3,4-thiadiazole
_symmetry_cell_setting           monoclinic
_symmetry_space_group_name_H-M   'P 21/c'
_symmetry_Int_Tables_number      14
_space_group_name_Hall           '-P 2ybc'
loop_
_symmetry_equiv_pos_site_id
_symmetry_equiv_pos_as_xyz
1 x,y,z
2 -x,1/2+y,1/2-z
3 -x,-y,-z
4 x,1/2-y,1/2+z
_cell_length_a                   9.926(2)
_cell_length_b                   5.9340(12)
_cell_length_c                   23.049(5)
_cell_angle_alpha                90
_cell_angle_beta                 100.39(3)
_cell_angle_gamma                90
_cell_volume                     1335.35
_exptl_crystal_colour            colorless
_exptl_crystal_description       block
_cell_formula_units_Z            4
_exptl_crystal_recrystallization_method 'ethyl acetate/petroleum ether'
loop_
_atom_site_label
_atom_site_type_symbol
_atom_site_fract_x
_atom_site_fract_y
_atom_site_fract_z
S1 S 0.29941(17) 0.5721(2) 0.27537(7)
S2 S 0.05050(19) 0.4212(3) 0.18937(8)
O1 O 0.4942(5) 0.0277(7) 0.33950(18)
N1 N 0.3586(5) 0.2231(8) 0.3857(2)
N2 N 0.4626(5) -0.1135(8) 0.3843(2)
N3 N 0.2582(5) 0.1682(9) 0.2216(2)
N4 N 0.1670(5) 0.0436(10) 0.1801(3)
C1 C 0.2304(8) -0.1991(13) 0.5618(3)
H1 H 0.1983 -0.2411 0.5957
C2 C 0.1964(7) 0.0078(15) 0.5358(3)
H2 H 0.1396 0.1044 0.5522
C3 C 0.2448(7) 0.0740(11) 0.4862(3)
H3 H 0.2206 0.2138 0.4693
C4 C 0.3295(6) -0.0677(10) 0.4615(2)
C5 C 0.3619(6) -0.2772(10) 0.4860(3)
H4 H 0.4164 -0.3752 0.4688
C6 C 0.3123(7) -0.3418(12) 0.5367(3)
H5 H 0.3350 -0.4825 0.5534
C7 C 0.3822(5) 0.0092(9) 0.4097(2)
C8 C 0.4290(6) 0.2220(10) 0.3438(3)
C9 C 0.4496(6) 0.4124(10) 0.3049(2)
H6 H 0.4884 0.3538 0.2722
H7 H 0.5165 0.5140 0.3269
C10 C 0.2114(6) 0.3699(9) 0.2295(3)
C11 C 0.0558(6) 0.1539(11) 0.1618(3)
C12 C -0.0546(7) 0.0550(13) 0.1150(3)
H8 H -0.0309 -0.0971 0.1069
H9 H -0.0628 0.1433 0.0797
H10 H -0.1402 0.0561 0.1288
loop_
_geom_bond_atom_site_label_1
_geom_bond_atom_site_label_2
_geom_bond_site_symmetry_1
_geom_bond_site_symmetry_2
S1 C9 1_555 1_555
S2 C10 1_555 1_555
O1 N2 1_555 1_555
N1 C7 1_555 1_555
N2 C7 1_555 1_555
N3 N4 1_555 1_555
N4 C11 1_555 1_555
C1 H1 1_555 1_555
C2 C1 1_555 1_555
H2 C2 1_555 1_555
C3 C2 1_555 1_555
H3 C3 1_555 1_555
C4 C3 1_555 1_555
C5 C4 1_555 1_555
H4 C5 1_555 1_555
C6 C1 1_555 1_555
H5 C6 1_555 1_555
C7 C4 1_555 1_555
C8 O1 1_555 1_555
C9 C8 1_555 1_555
H6 C9 1_555 1_555
H7 C9 1_555 1_555
C10 S1 1_555 1_555
C11 S2 1_555 1_555
C12 C11 1_555 1_555
H8 C12 1_555 1_555
H9 C12 1_555 1_555
H10 C12 1_555 1_555
N1 C8 1_555 1_555
N3 C10 1_555 1_555
C5 C6 1_555 1_555

#END
