
#######################################################################
#
#                 Cambridge Crystallographic Data Centre
#                                CCDC 
#
#######################################################################
#
# If this CIF has been generated from an entry in the Cambridge 
# Structural Database, then it will include bibliographic, chemical, 
# crystal, experimental, refinement or atomic coordinate data resulting 
# from the CCDC's data processing and validation procedures.
#
#######################################################################

data_XIMCUR
_chemical_formula_moiety         'C26 H22 N2 O4'
_chemical_name_systematic        
'Methyl (2S)-2-((1R,3R,3aR,6aS)-1,3-diethynyl-4,6-dioxo-5-phenylhexahydropyrrolo(3,4-c)pyrrol-2(1H)-yl)-3-phenylpropanoate'
_symmetry_cell_setting           monoclinic
_symmetry_space_group_name_H-M   'P 21'
_symmetry_Int_Tables_number      4
_space_group_name_Hall           'P 2yb'
loop_
_symmetry_equiv_pos_site_id
_symmetry_equiv_pos_as_xyz
1 x,y,z
2 -x,1/2+y,-z
_cell_length_a                   8.0283(4)
_cell_length_b                   6.2164(4)
_cell_length_c                   22.7977(16)
_cell_angle_alpha                90
_cell_angle_beta                 96.810(4)
_cell_angle_gamma                90
_cell_volume                     1129.74
_exptl_crystal_colour            colorless
_exptl_crystal_description       needle
_chemical_melting_point          129-131deg.C
_cell_formula_units_Z            2
_exptl_crystal_recrystallization_method methanol
loop_
_atom_site_label
_atom_site_type_symbol
_atom_site_fract_x
_atom_site_fract_y
_atom_site_fract_z
C1 C 0.2504(3) 1.3238(4) 0.21707(11)
H1 H 0.2511 1.4184 0.1816
C2 C 0.0806(3) 1.2335(5) 0.21917(12)
C3 C -0.0518(3) 1.1541(6) 0.22107(14)
H2 H -0.1586 1.0901 0.2226
N1 N 0.3817(2) 1.1560(4) 0.21721(9)
C4 C 0.3457(3) 0.9826(5) 0.17346(11)
H3 H 0.2709 0.8731 0.1891
C5 C 0.5118(3) 0.8768(5) 0.16289(11)
O1 O 0.6296(2) 0.9741(3) 0.14778(8)
O2 O 0.5083(2) 0.6639(3) 0.16998(8)
C6 C 0.6618(4) 0.5519(6) 0.16092(17)
H4 H 0.6878 0.5780 0.1206
H5 H 0.6471 0.3972 0.1668
H6 H 0.7540 0.6048 0.1892
C7 C 0.2648(3) 1.0636(5) 0.11302(12)
H7 H 0.1550 1.1300 0.1176
H8 H 0.3373 1.1756 0.0984
C8 C 0.2397(3) 0.8843(5) 0.06830(12)
C9 C 0.1329(3) 0.7126(5) 0.07622(13)
H9 H 0.0740 0.7094 0.1100
C10 C 0.1113(3) 0.5455(5) 0.03519(15)
H10 H 0.0389 0.4287 0.0413
C11 C 0.1954(4) 0.5495(6) -0.01464(15)
H11 H 0.1812 0.4357 -0.0426
C12 C 0.2995(3) 0.7200(5) -0.02325(14)
H12 H 0.3562 0.7241 -0.0575
C13 C 0.3220(3) 0.8854(5) 0.01767(13)
H13 H 0.3946 1.0015 0.0112
C14 C 0.4032(3) 1.0732(4) 0.27878(11)
H14 H 0.3050 0.9806 0.2850
C15 C 0.5583(3) 0.9482(5) 0.29272(11)
C16 C 0.6816(4) 0.8441(5) 0.30512(13)
H15 H 0.7801 0.7608 0.3150
C17 C 0.3977(3) 1.2797(5) 0.31584(11)
H16 H 0.5134 1.3258 0.3320
C18 C 0.2863(3) 1.2603(5) 0.36471(12)
O3 O 0.2986(3) 1.1319(4) 0.40439(10)
N2 N 0.1614(3) 1.4179(4) 0.35537(10)
C19 C 0.0264(3) 1.4415(5) 0.39160(12)
C20 C -0.0888(3) 1.2755(6) 0.39243(13)
H17 H -0.0785 1.1483 0.3700
C21 C -0.2201(4) 1.2993(7) 0.42676(14)
H18 H -0.3007 1.1878 0.4277
C22 C -0.2335(4) 1.4839(7) 0.45943(14)
H19 H -0.3230 1.4987 0.4829
C23 C -0.1173(4) 1.6477(7) 0.45819(14)
H20 H -0.1274 1.7749 0.4806
C24 C 0.0144(4) 1.6262(6) 0.42413(13)
H21 H 0.0952 1.7375 0.4233
C25 C 0.1710(3) 1.5384(4) 0.30489(12)
O4 O 0.0778(2) 1.6868(3) 0.28873(9)
C26 C 0.3127(3) 1.4510(5) 0.27389(12)
H22 H 0.3932 1.5671 0.2658
loop_
_geom_bond_atom_site_label_1
_geom_bond_atom_site_label_2
_geom_bond_site_symmetry_1
_geom_bond_site_symmetry_2
C1 H1 1_555 1_555
C2 C1 1_555 1_555
C3 C2 1_555 1_555
H2 C3 1_555 1_555
N1 C1 1_555 1_555
C4 N1 1_555 1_555
H3 C4 1_555 1_555
C5 C4 1_555 1_555
O1 C5 1_555 1_555
O2 C5 1_555 1_555
C6 O2 1_555 1_555
H4 C6 1_555 1_555
H5 C6 1_555 1_555
H6 C6 1_555 1_555
C7 C4 1_555 1_555
H7 C7 1_555 1_555
H8 C7 1_555 1_555
C8 C7 1_555 1_555
C9 C8 1_555 1_555
H9 C9 1_555 1_555
C10 C9 1_555 1_555
H10 C10 1_555 1_555
C11 C10 1_555 1_555
H11 C11 1_555 1_555
C12 C11 1_555 1_555
H12 C12 1_555 1_555
C13 C8 1_555 1_555
H13 C13 1_555 1_555
C14 N1 1_555 1_555
H14 C14 1_555 1_555
C15 C14 1_555 1_555
C16 C15 1_555 1_555
H15 C16 1_555 1_555
C17 C14 1_555 1_555
H16 C17 1_555 1_555
C18 C17 1_555 1_555
O3 C18 1_555 1_555
N2 C18 1_555 1_555
C19 N2 1_555 1_555
C20 C19 1_555 1_555
H17 C20 1_555 1_555
C21 C20 1_555 1_555
H18 C21 1_555 1_555
C22 C21 1_555 1_555
H19 C22 1_555 1_555
C23 C22 1_555 1_555
H20 C23 1_555 1_555
C24 C19 1_555 1_555
H21 C24 1_555 1_555
C25 N2 1_555 1_555
O4 C25 1_555 1_555
C26 C1 1_555 1_555
H22 C26 1_555 1_555
C12 C13 1_555 1_555
C17 C26 1_555 1_555
C23 C24 1_555 1_555
C25 C26 1_555 1_555

#END
