
#######################################################################
#
#                 Cambridge Crystallographic Data Centre
#                                CCDC 
#
#######################################################################
#
# If this CIF has been generated from an entry in the Cambridge 
# Structural Database, then it will include bibliographic, chemical, 
# crystal, experimental, refinement or atomic coordinate data resulting 
# from the CCDC's data processing and validation procedures.
#
#######################################################################

data_XIMMIP
_chemical_formula_moiety         'C24 H23 N5'
_chemical_name_systematic        bis(6-(Benzylamino)pyrid-2-yl)amine
_symmetry_cell_setting           monoclinic
_symmetry_space_group_name_H-M   'P 21/c'
_symmetry_Int_Tables_number      14
_space_group_name_Hall           '-P 2ybc'
loop_
_symmetry_equiv_pos_site_id
_symmetry_equiv_pos_as_xyz
1 x,y,z
2 x,1/2-y,1/2+z
3 -x,-y,-z
4 -x,1/2+y,1/2-z
_cell_length_a                   14.514(3)
_cell_length_b                   19.648(4)
_cell_length_c                   14.718(3)
_cell_angle_alpha                90
_cell_angle_beta                 99.31(2)
_cell_angle_gamma                90
_cell_volume                     4141.86
_exptl_crystal_colour            colorless
_exptl_crystal_description       plate
_chemical_melting_point          131deg.C
_cell_formula_units_Z            8
_exptl_crystal_recrystallization_method 'hexanes/ethyl acetate'
loop_
_atom_site_label
_atom_site_type_symbol
_atom_site_fract_x
_atom_site_fract_y
_atom_site_fract_z
N1 N -0.1212(2) 0.34032(13) 0.4728(2)
H1 H -0.1143(2) 0.33549(13) 0.4162(2)
N2 N -0.2548(2) 0.39686(12) 0.4136(2)
N3 N -0.3877(2) 0.44975(13) 0.3422(2)
H2 H -0.3884(2) 0.42171(13) 0.2973(2)
N4 N -0.5082(2) 0.50282(12) 0.2497(2)
N5 N -0.6249(2) 0.54920(15) 0.1454(2)
H3 H -0.6311(2) 0.50897(15) 0.1222(2)
C1 C -0.0521(2) 0.3096(2) 0.5417(2)
H4 H -0.0302(2) 0.2682(2) 0.5164(2)
H5 H -0.0820(2) 0.2967(2) 0.5935(2)
C2 C 0.0320(2) 0.3534(2) 0.5774(2)
C3 C 0.1165(3) 0.3231(2) 0.6059(3)
H6 H 0.1217(3) 0.2760(2) 0.6024(3)
C4 C 0.1941(3) 0.3612(3) 0.6398(3)
H7 H 0.2512(3) 0.3399(3) 0.6584(3)
C5 C 0.1870(3) 0.4306(3) 0.6462(3)
H8 H 0.2391(3) 0.4564(3) 0.6699(3)
C6 C 0.1044(3) 0.4613(2) 0.6179(3)
H9 H 0.0998(3) 0.5084(2) 0.6214(3)
C7 C 0.0269(2) 0.4234(2) 0.5839(2)
H10 H -0.0298(2) 0.4452(2) 0.5650(2)
C8 C -0.1971(2) 0.37651(14) 0.4898(2)
C9 C -0.2140(2) 0.3922(2) 0.5784(2)
H11 H -0.1724(2) 0.3793(2) 0.6304(2)
C10 C -0.2934(3) 0.4269(2) 0.5855(3)
H12 H -0.3070(3) 0.4369(2) 0.6436(3)
C11 C -0.3542(2) 0.4475(2) 0.5095(2)
H13 H -0.4087(2) 0.4709(2) 0.5150(2)
C12 C -0.3314(2) 0.4324(2) 0.4246(2)
C13 C -0.4430(2) 0.5075(2) 0.3247(2)
C14 C -0.4290(2) 0.5664(2) 0.3775(2)
H14 H -0.3841(2) 0.5685(2) 0.4302(2)
C15 C -0.4845(3) 0.6214(2) 0.3485(3)
H15 H -0.4763(3) 0.6616(2) 0.3822(3)
C16 C -0.5509(3) 0.6192(2) 0.2722(3)
H16 H -0.5882(3) 0.6567(2) 0.2536(3)
C17 C -0.5610(2) 0.5580(2) 0.2226(2)
C18 C -0.6835(3) 0.6028(2) 0.0991(3)
H17 H -0.6975(3) 0.5920(2) 0.0341(3)
H18 H -0.6482(3) 0.6450(2) 0.1051(3)
C19 C -0.7749(3) 0.6146(2) 0.1345(2)
C20 C -0.8316(3) 0.5607(2) 0.1505(3)
H19 H -0.8114(3) 0.5164(2) 0.1434(3)
C21 C -0.9171(3) 0.5714(2) 0.1767(3)
H20 H -0.9546(3) 0.5345(2) 0.1859(3)
C22 C -0.9471(3) 0.6361(2) 0.1891(3)
H21 H -1.0045(3) 0.6435(2) 0.2076(3)
C23 C -0.8917(3) 0.6898(2) 0.1740(3)
H22 H -0.9120(3) 0.7340(2) 0.1818(3)
C24 C -0.8061(3) 0.6791(2) 0.1473(3)
H23 H -0.7690(3) 0.7162(2) 0.1378(3)
N6 N 0.5306(2) 0.63734(14) 0.8517(2)
H24 H 0.5249(2) 0.60565(14) 0.8109(2)
N7 N 0.3719(2) 0.64236(11) 0.8190(2)
N8 N 0.2130(2) 0.64218(13) 0.7745(2)
H25 H 0.2234(2) 0.62851(13) 0.7215(2)
N9 N 0.0594(2) 0.62962(11) 0.7134(2)
N10 N -0.0885(2) 0.6107(2) 0.6383(2)
H26 H -0.0654(2) 0.6170(2) 0.5887(2)
C25 C 0.6244(2) 0.6557(2) 0.8929(2)
H27 H 0.6236(2) 0.7018(2) 0.9163(2)
H28 H 0.6635(2) 0.6557(2) 0.8452(2)
C26 C 0.6684(2) 0.6099(2) 0.9699(2)
C27 C 0.7642(3) 0.6043(2) 0.9884(3)
H29 H 0.8006(3) 0.6288(2) 0.9534(3)
C28 C 0.8066(3) 0.5627(3) 1.0583(3)
H30 H 0.8713(3) 0.5593(3) 1.0704(3)
C29 C 0.7535(5) 0.5267(3) 1.1095(3)
H31 H 0.7824(5) 0.4983(3) 1.1561(3)
C30 C 0.6578(4) 0.5317(2) 1.0932(3)
H32 H 0.6219(4) 0.5074(2) 1.1290(3)
C31 C 0.6157(3) 0.5732(2) 1.0233(3)
H33 H 0.5510(3) 0.5766(2) 1.0117(3)
C32 C 0.4504(2) 0.66539(15) 0.8713(2)
C33 C 0.4483(2) 0.7139(2) 0.9401(2)
H34 H 0.5029(2) 0.7278(2) 0.9775(2)
C34 C 0.3637(2) 0.7404(2) 0.9512(2)
H35 H 0.3609(2) 0.7742(2) 0.9948(2)
C35 C 0.2826(2) 0.7176(2) 0.8984(2)
H36 H 0.2249(2) 0.7351(2) 0.9062(2)
C36 C 0.2895(2) 0.66782(14) 0.8336(2)
C37 C 0.1214(2) 0.63601(13) 0.7908(2)
C38 C 0.0963(2) 0.6330(2) 0.8774(2)
H37 H 0.1407(2) 0.6366(2) 0.9303(2)
C39 C 0.0028(2) 0.6246(2) 0.8827(2)
H38 H -0.0162(2) 0.6231(2) 0.9401(2)
C40 C -0.0624(2) 0.6183(2) 0.8046(2)
H39 H -0.1255(2) 0.6132(2) 0.8078(2)
C41 C -0.0307(2) 0.6197(2) 0.7204(2)
C42 C -0.1856(2) 0.5912(2) 0.6289(3)
H40 H -0.1915(2) 0.5569(2) 0.6751(3)
H41 H -0.2032(2) 0.5699(2) 0.5691(3)
C43 C -0.2546(2) 0.6475(2) 0.6378(2)
C44 C -0.3468(3) 0.6313(2) 0.6384(2)
H42 H -0.3650(3) 0.5859(2) 0.6337(2)
C45 C -0.4126(3) 0.6804(3) 0.6458(3)
H43 H -0.4746(3) 0.6683(3) 0.6455(3)
C46 C -0.3861(4) 0.7475(3) 0.6537(3)
H44 H -0.4299(4) 0.7811(3) 0.6598(3)
C47 C -0.2960(4) 0.7646(2) 0.6527(3)
H45 H -0.2782(4) 0.8101(2) 0.6575(3)
C48 C -0.2295(3) 0.7150(2) 0.6444(3)
H46 H -0.1679(3) 0.7276(2) 0.6434(3)
loop_
_geom_bond_atom_site_label_1
_geom_bond_atom_site_label_2
_geom_bond_site_symmetry_1
_geom_bond_site_symmetry_2
N1 H1 1_555 1_555
N2 C8 1_555 1_555
N3 H2 1_555 1_555
N4 C13 1_555 1_555
N5 H3 1_555 1_555
C1 N1 1_555 1_555
H4 C1 1_555 1_555
H5 C1 1_555 1_555
C2 C1 1_555 1_555
C3 C2 1_555 1_555
H6 C3 1_555 1_555
C4 C3 1_555 1_555
H7 C4 1_555 1_555
C5 C4 1_555 1_555
H8 C5 1_555 1_555
C6 C5 1_555 1_555
H9 C6 1_555 1_555
C7 C2 1_555 1_555
H10 C7 1_555 1_555
C8 N1 1_555 1_555
C9 C8 1_555 1_555
H11 C9 1_555 1_555
C10 C9 1_555 1_555
H12 C10 1_555 1_555
C11 C10 1_555 1_555
H13 C11 1_555 1_555
C12 N2 1_555 1_555
C13 N3 1_555 1_555
C14 C13 1_555 1_555
H14 C14 1_555 1_555
C15 C14 1_555 1_555
H15 C15 1_555 1_555
C16 C15 1_555 1_555
H16 C16 1_555 1_555
C17 N4 1_555 1_555
C18 N5 1_555 1_555
H17 C18 1_555 1_555
H18 C18 1_555 1_555
C19 C18 1_555 1_555
C20 C19 1_555 1_555
H19 C20 1_555 1_555
C21 C20 1_555 1_555
H20 C21 1_555 1_555
C22 C21 1_555 1_555
H21 C22 1_555 1_555
C23 C22 1_555 1_555
H22 C23 1_555 1_555
C24 C19 1_555 1_555
H23 C24 1_555 1_555
N6 H24 1_555 1_555
N7 C32 1_555 1_555
N8 H25 1_555 1_555
N9 C37 1_555 1_555
N10 H26 1_555 1_555
C25 N6 1_555 1_555
H27 C25 1_555 1_555
H28 C25 1_555 1_555
C26 C25 1_555 1_555
C27 C26 1_555 1_555
H29 C27 1_555 1_555
C28 C27 1_555 1_555
H30 C28 1_555 1_555
C29 C28 1_555 1_555
H31 C29 1_555 1_555
C30 C29 1_555 1_555
H32 C30 1_555 1_555
C31 C26 1_555 1_555
H33 C31 1_555 1_555
C32 N6 1_555 1_555
C33 C32 1_555 1_555
H34 C33 1_555 1_555
C34 C33 1_555 1_555
H35 C34 1_555 1_555
C35 C34 1_555 1_555
H36 C35 1_555 1_555
C36 N7 1_555 1_555
C37 N8 1_555 1_555
C38 C37 1_555 1_555
H37 C38 1_555 1_555
C39 C38 1_555 1_555
H38 C39 1_555 1_555
C40 C39 1_555 1_555
H39 C40 1_555 1_555
C41 N9 1_555 1_555
C42 N10 1_555 1_555
H40 C42 1_555 1_555
H41 C42 1_555 1_555
C43 C42 1_555 1_555
C44 C43 1_555 1_555
H42 C44 1_555 1_555
C45 C44 1_555 1_555
H43 C45 1_555 1_555
C46 C45 1_555 1_555
H44 C46 1_555 1_555
C47 C46 1_555 1_555
H45 C47 1_555 1_555
C48 C43 1_555 1_555
H46 C48 1_555 1_555
N3 C12 1_555 1_555
N5 C17 1_555 1_555
C6 C7 1_555 1_555
C11 C12 1_555 1_555
C16 C17 1_555 1_555
C23 C24 1_555 1_555
N8 C36 1_555 1_555
N10 C41 1_555 1_555
C30 C31 1_555 1_555
C35 C36 1_555 1_555
C40 C41 1_555 1_555
C47 C48 1_555 1_555

#END
