
#######################################################################
#
#                 Cambridge Crystallographic Data Centre
#                                CCDC 
#
#######################################################################
#
# If this CIF has been generated from an entry in the Cambridge 
# Structural Database, then it will include bibliographic, chemical, 
# crystal, experimental, refinement or atomic coordinate data resulting 
# from the CCDC's data processing and validation procedures.
#
#######################################################################

data_XIMWIC
_chemical_formula_moiety         'C18 H18 O2'
_chemical_name_systematic        6-t-butyl-3-phenyl-1-benzofuran-2(3H)-one
_symmetry_cell_setting           monoclinic
_symmetry_space_group_name_H-M   'P 21/n'
_symmetry_Int_Tables_number      14
_space_group_name_Hall           '-P 2yn'
loop_
_symmetry_equiv_pos_site_id
_symmetry_equiv_pos_as_xyz
1 x,y,z
2 1/2-x,1/2+y,1/2-z
3 -x,-y,-z
4 1/2+x,1/2-y,1/2+z
_cell_length_a                   12.05950(10)
_cell_length_b                   6.72670(10)
_cell_length_c                   17.8357(2)
_cell_angle_alpha                90
_cell_angle_beta                 95.9940(10)
_cell_angle_gamma                90
_cell_volume                     1438.93
_exptl_crystal_description       block
_cell_formula_units_Z            4
loop_
_atom_site_label
_atom_site_type_symbol
_atom_site_fract_x
_atom_site_fract_y
_atom_site_fract_z
O1 O 0.07429(7) 0.17341(12) 0.84248(5)
C1 C -0.13581(9) 0.44135(16) 0.75127(6)
H1 H -0.1605 0.3145 0.7619
C2 C -0.16592(10) 0.5275(2) 0.68064(7)
H2 H -0.2107 0.4572 0.6442
C3 C -0.12970(10) 0.7159(2) 0.66473(6)
H3 H -0.1495 0.7714 0.6175
C4 C -0.06420(10) 0.82239(18) 0.71877(7)
H4 H -0.0407 0.9502 0.7083
C5 C -0.03349(9) 0.73725(16) 0.78914(6)
H5 H 0.0109 0.8086 0.8255
C6 C -0.06846(8) 0.54740(15) 0.80551(5)
C7 C -0.03273(8) 0.45943(15) 0.88253(5)
H6 H 0.0290 0.5398 0.9063
C8 C 0.00758(9) 0.24446(15) 0.87949(6)
C9 C -0.11938(8) 0.24925(14) 0.96332(5)
C10 C -0.11870(8) 0.44252(15) 0.93717(5)
C11 C -0.19000(9) 0.57866(15) 0.96591(6)
H7 H -0.1915 0.7104 0.9500
C12 C -0.25911(8) 0.51430(16) 1.01890(6)
H8 H -0.3072 0.6053 1.0378
C13 C -0.25905(8) 0.31703(15) 1.04495(5)
C14 C -0.18582(8) 0.18048(15) 1.01616(6)
H9 H -0.1824 0.0488 1.0322
C15 C -0.33526(9) 0.25730(17) 1.10450(6)
C16 C -0.33483(11) 0.0332(2) 1.11901(9)
H10 H -0.3837 0.0033 1.1567
H11 H -0.3600 -0.0352 1.0731
H12 H -0.2605 -0.0091 1.1363
C17 C -0.29672(12) 0.3665(3) 1.17820(7)
H13 H -0.3439 0.3303 1.2161
H14 H -0.2211 0.3301 1.1947
H15 H -0.3010 0.5074 1.1699
C18 C -0.45610(9) 0.3175(2) 1.07800(7)
H16 H -0.5038 0.2798 1.1155
H17 H -0.4599 0.4588 1.0706
H18 H -0.4800 0.2514 1.0314
O2 O -0.04422(6) 0.12866(11) 0.92955(4)
loop_
_geom_bond_atom_site_label_1
_geom_bond_atom_site_label_2
_geom_bond_site_symmetry_1
_geom_bond_site_symmetry_2
O1 C8 1_555 1_555
C1 H1 1_555 1_555
C2 C1 1_555 1_555
H2 C2 1_555 1_555
C3 C2 1_555 1_555
H3 C3 1_555 1_555
C4 C3 1_555 1_555
H4 C4 1_555 1_555
C5 C4 1_555 1_555
H5 C5 1_555 1_555
C6 C1 1_555 1_555
C7 C6 1_555 1_555
H6 C7 1_555 1_555
C8 C7 1_555 1_555
C9 C10 1_555 1_555
C10 C7 1_555 1_555
C11 C10 1_555 1_555
H7 C11 1_555 1_555
C12 C11 1_555 1_555
H8 C12 1_555 1_555
C13 C12 1_555 1_555
C14 C9 1_555 1_555
H9 C14 1_555 1_555
C15 C13 1_555 1_555
C16 C15 1_555 1_555
H10 C16 1_555 1_555
H11 C16 1_555 1_555
H12 C16 1_555 1_555
C17 C15 1_555 1_555
H13 C17 1_555 1_555
H14 C17 1_555 1_555
H15 C17 1_555 1_555
C18 C15 1_555 1_555
H16 C18 1_555 1_555
H17 C18 1_555 1_555
H18 C18 1_555 1_555
O2 C8 1_555 1_555
C5 C6 1_555 1_555
C9 O2 1_555 1_555
C13 C14 1_555 1_555

#END
