
#######################################################################
#
#                 Cambridge Crystallographic Data Centre
#                                CCDC 
#
#######################################################################
#
# If this CIF has been generated from an entry in the Cambridge 
# Structural Database, then it will include bibliographic, chemical, 
# crystal, experimental, refinement or atomic coordinate data resulting 
# from the CCDC's data processing and validation procedures.
#
#######################################################################

data_XIMXOG
_chemical_formula_moiety         'C63 H76 O6 2-,2(C6 H16 N1 1+),H2 O1'
_chemical_name_systematic        
'bis(Triethylammonim) 4,10,15,21,26,32-hexa-t-butyl-34,36,37,39-tetrahydroxyheptacyclo(28.3.1.1^2,6^.1^8,12^.1^13,17^.1^19,23^.1^24,28^)nonatriaconta-1(34),2(35),3,5,8(36),9,11,13(37),14,16,19(38),20,22,24(39),25,27,30,32-octadecaene-35,38-dioxide monohydrate'
_symmetry_cell_setting           monoclinic
_symmetry_space_group_name_H-M   'P 21/c'
_symmetry_Int_Tables_number      14
_space_group_name_Hall           '-P 2ybc'
loop_
_symmetry_equiv_pos_site_id
_symmetry_equiv_pos_as_xyz
1 x,y,z
2 x,1/2-y,1/2+z
3 -x,-y,-z
4 -x,1/2+y,1/2-z
_cell_length_a                   17.854(8)
_cell_length_b                   28.815(13)
_cell_length_c                   17.400(8)
_cell_angle_alpha                90
_cell_angle_beta                 118.05(3)
_cell_angle_gamma                90
_cell_volume                     7900.17
_exptl_crystal_colour            colorless
_exptl_crystal_description       prism
_cell_formula_units_Z            4
loop_
_atom_site_label
_atom_site_type_symbol
_atom_site_fract_x
_atom_site_fract_y
_atom_site_fract_z
O1 O -0.1355(2) 0.56750(15) 0.3166(2)
O2 O -0.1667(3) 0.64990(16) 0.3606(3)
H1 H -0.1470 0.6288 0.3441
O3 O -0.0687(3) 0.71725(16) 0.5265(3)
H2 H -0.0276 0.7092 0.5209
O4 O 0.0487(3) 0.67253(17) 0.5250(3)
O5 O 0.0974(3) 0.65962(15) 0.4170(2)
H3 H 0.0845 0.6670 0.4547
O6 O 0.0291(3) 0.56282(16) 0.3685(2)
H4 H -0.0224 0.5641 0.3496
C1 C -0.1866(4) 0.5727(2) 0.2309(4)
C2 C -0.1666(4) 0.5525(2) 0.1695(4)
C3 C -0.2216(4) 0.5566(3) 0.0816(4)
H5 H -0.2068 0.5427 0.0424
C4 C -0.2978(4) 0.5804(3) 0.0488(4)
C5 C -0.3173(4) 0.5998(3) 0.1104(4)
H6 H -0.3679 0.6162 0.0907
C6 C -0.2652(4) 0.5961(2) 0.2001(4)
C7 C -0.2984(4) 0.6146(2) 0.2585(4)
C8 C -0.2513(4) 0.6421(2) 0.3321(4)
C9 C -0.3835(4) 0.6061(3) 0.2358(4)
H7 H -0.4148 0.5873 0.1879
C10 C -0.4235(4) 0.6239(3) 0.2802(4)
C11 C -0.3754(4) 0.6541(3) 0.3495(4)
H8 H -0.4014 0.6682 0.3788
C12 C -0.2899(4) 0.6637(2) 0.3762(4)
C13 C -0.2417(4) 0.6974(2) 0.4505(4)
H9 H -0.2126 0.7197 0.4321
H10 H -0.2821 0.7143 0.4624
C14 C -0.0910(4) 0.6824(2) 0.5648(4)
C15 C -0.1775(4) 0.6746(2) 0.5333(4)
C16 C -0.2030(4) 0.6449(2) 0.5797(4)
H11 H -0.2607 0.6409 0.5605
C17 C -0.1459(4) 0.6212(2) 0.6531(4)
C18 C -0.0596(4) 0.6267(2) 0.6769(4)
H12 H -0.0202 0.6092 0.7231
C19 C -0.0298(4) 0.6567(2) 0.6352(4)
C20 C 0.0993(4) 0.6705(2) 0.6117(4)
C21 C 0.0635(4) 0.6618(2) 0.6675(4)
C22 C 0.1184(4) 0.6568(2) 0.7559(4)
H13 H 0.0952 0.6511 0.7929
C23 C 0.2062(4) 0.6598(3) 0.7920(4)
C24 C 0.2380(4) 0.6709(3) 0.7346(4)
H14 H 0.2963 0.6747 0.7571
C25 C 0.1867(4) 0.6766(2) 0.6460(4)
C26 C 0.2235(4) 0.6900(2) 0.5872(4)
H15 H 0.2775 0.7052 0.6223
H16 H 0.1860 0.7126 0.5457
C27 C 0.1734(4) 0.6380(2) 0.4542(4)
C28 C 0.2376(4) 0.6510(2) 0.5367(4)
C29 C 0.3157(4) 0.6285(3) 0.5714(4)
H17 H 0.3572 0.6367 0.6268
C30 C 0.3342(4) 0.5944(3) 0.5271(4)
C31 C 0.2691(4) 0.5821(2) 0.4454(4)
H18 H 0.2794 0.5590 0.4143
C32 C 0.1900(4) 0.6027(2) 0.4087(4)
C33 C 0.0479(4) 0.5682(2) 0.3019(4)
C34 C 0.1252(4) 0.5879(2) 0.3192(4)
C35 C 0.1462(4) 0.5916(2) 0.2520(4)
H19 H 0.1986 0.6043 0.2643
C36 C 0.0929(4) 0.5772(3) 0.1675(4)
C37 C 0.0168(4) 0.5568(2) 0.1527(4)
H20 H -0.0202 0.5466 0.0968
C38 C -0.0061(4) 0.5511(2) 0.2181(4)
C39 C -0.0857(4) 0.5241(2) 0.1994(4)
H21 H -0.0758 0.5074 0.2518
H22 H -0.0951 0.5012 0.1549
C40 C -0.3574(4) 0.5830(3) -0.0490(5)
C41 C -0.3141(9) 0.6082(5) -0.0926(11)
H23 H -0.2608 0.5935 -0.0779
H24 H -0.3044 0.6399 -0.0732
H25 H -0.3494 0.6074 -0.1546
C42 C -0.4402(7) 0.6069(5) -0.0734(11)
H26 H -0.4690 0.5914 -0.0459
H27 H -0.4749 0.6059 -0.1355
H28 H -0.4297 0.6386 -0.0544
C43 C -0.3765(11) 0.5346(4) -0.0851(14)
H29 H -0.3243 0.5186 -0.0703
H30 H -0.4100 0.5360 -0.1473
H31 H -0.4073 0.5184 -0.0608
C47 C -0.5157(4) 0.6137(2) 0.2542(4)
C48 C -0.5721(8) 0.6157(4) 0.1572(6)
H41 H -0.5495 0.5959 0.1287
H42 H -0.5747 0.6471 0.1373
H43 H -0.6281 0.6055 0.1437
C49 C -0.5544(8) 0.6453(4) 0.2949(7)
H44 H -0.5200 0.6451 0.3570
H45 H -0.6105 0.6347 0.2802
H46 H -0.5573 0.6763 0.2734
C50 C -0.5216(10) 0.5651(3) 0.2825(8)
H47 H -0.4863 0.5623 0.3443
H48 H -0.5029 0.5435 0.2532
H49 H -0.5794 0.5584 0.2682
C54 C -0.1727(3) 0.5900(2) 0.7070(4)
C55 C -0.1408(8) 0.5397(3) 0.7103(10)
H59 H -0.1584 0.5208 0.7444
H60 H -0.0800 0.5396 0.7364
H61 H -0.1642 0.5275 0.6523
C56 C -0.2706(5) 0.5887(5) 0.6680(9)
H62 H -0.2857 0.5690 0.7029
H63 H -0.2952 0.5769 0.6096
H64 H -0.2913 0.6195 0.6673
C57 C -0.1347(9) 0.6086(5) 0.8014(7)
H65 H -0.1519 0.5889 0.8348
H66 H -0.1549 0.6395 0.8007
H67 H -0.0739 0.6088 0.8272
C61 C 0.2626(4) 0.6511(2) 0.8912(5)
C62 C 0.2554(9) 0.6000(3) 0.9134(11)
H77 H 0.1972 0.5930 0.8969
H78 H 0.2895 0.5952 0.9749
H79 H 0.2749 0.5801 0.8823
C63 C 0.2322(8) 0.6829(4) 0.9423(9)
H80 H 0.2363 0.7148 0.9284
H81 H 0.2672 0.6781 1.0036
H82 H 0.1743 0.6758 0.9267
C64 C 0.3562(5) 0.6622(5) 0.9177(11)
H83 H 0.3610 0.6940 0.9040
H84 H 0.3755 0.6422 0.8865
H85 H 0.3903 0.6573 0.9792
C68 C 0.4234(4) 0.5730(2) 0.5620(3)
C69 C 0.4757(10) 0.6100(5) 0.5449(10)
H95 H 0.4743 0.6385 0.5728
H96 H 0.4521 0.6150 0.4833
H97 H 0.5334 0.5996 0.5678
C70 C 0.4266(11) 0.5278(4) 0.5169(9)
H98 H 0.4014 0.5328 0.4552
H99 H 0.3959 0.5040 0.5288
H100 H 0.4846 0.5183 0.5385
C71 C 0.4643(9) 0.5642(5) 0.6605(5)
H101 H 0.4629 0.5922 0.6896
H102 H 0.5222 0.5546 0.6815
H103 H 0.4335 0.5403 0.6720
C75 C 0.1175(4) 0.5822(2) 0.0946(4)
C76 C 0.2042(6) 0.6029(5) 0.1246(11)
H113 H 0.2078 0.6320 0.1531
H114 H 0.2135 0.6080 0.0752
H115 H 0.2465 0.5820 0.1645
C77 C 0.0541(8) 0.6144(5) 0.0275(10)
H116 H -0.0021 0.6021 0.0070
H117 H 0.0663 0.6174 -0.0204
H118 H 0.0575 0.6444 0.0532
C78 C 0.1147(10) 0.5371(5) 0.0496(12)
H119 H 0.0602 0.5229 0.0302
H120 H 0.1581 0.5168 0.0895
H121 H 0.1239 0.5430 0.0004
N1 N -0.0055(4) 0.7032(2) 0.2629(4)
H131 H 0.0296 0.6894 0.3145
C82 C -0.0771(6) 0.6723(3) 0.2159(6)
H132 H -0.1046 0.6669 0.2518
H133 H -0.0558 0.6428 0.2080
C83 C -0.1432(8) 0.6897(5) 0.1278(8)
H134 H -0.1877 0.6671 0.1017
H135 H -0.1173 0.6945 0.0910
H136 H -0.1664 0.7184 0.1348
C84 C -0.0151(9) 0.7519(4) 0.2810(9)
H137 H -0.0603 0.7660 0.2294
H138 H 0.0371 0.7686 0.2952
C85 C -0.0355(10) 0.7559(5) 0.3564(10)
H139 H -0.0417 0.7880 0.3670
H140 H 0.0097 0.7424 0.4077
H141 H -0.0874 0.7397 0.3421
C86 C 0.0406(8) 0.7027(5) 0.2051(8)
H142 H 0.0363 0.6717 0.1817
H143 H 0.0108 0.7236 0.1563
C87 C 0.1246(10) 0.7152(4) 0.2472(9)
H144 H 0.1474 0.7140 0.2072
H145 H 0.1553 0.6942 0.2946
H146 H 0.1297 0.7462 0.2694
N2 N 0.1924(4) 0.5107(2) 0.6341(4)
H157 H 0.1694 0.4870 0.6507
C92 C 0.2450(14) 0.5426(8) 0.7144(13)
H158 H 0.2638 0.5694 0.6944
H159 H 0.2075 0.5538 0.7364
C93 C 0.3151(8) 0.5229(4) 0.7828(8)
H160 H 0.3426 0.5456 0.8279
H161 H 0.3539 0.5124 0.7628
H162 H 0.2975 0.4971 0.8054
C94 C 0.2479(14) 0.4915(7) 0.6010(13)
H163 H 0.2970 0.4772 0.6485
H164 H 0.2677 0.5164 0.5776
C95 C 0.2001(8) 0.4549(4) 0.5291(7)
H165 H 0.2375 0.4429 0.5083
H166 H 0.1519 0.4692 0.4817
H167 H 0.1813 0.4300 0.5525
C96 C 0.1238(12) 0.5396(6) 0.5694(14)
H168 H 0.1022 0.5245 0.5131
H169 H 0.1480 0.5690 0.5653
C97 C 0.0511(6) 0.5492(3) 0.5859(6)
H170 H 0.0103 0.5681 0.5398
H171 H 0.0708 0.5652 0.6404
H172 H 0.0250 0.5204 0.5882
O7 O 0.5597(12) 0.7325(7) 0.6335(15)
O9 O 0.6797(12) 0.7378(7) 0.7141(15)
O10 O 0.5018(12) 0.7229(7) 0.7255(15)
C44? C -0.4332(10) 0.5531(6) -0.0695(15)
H32? H -0.4578 0.5619 -0.0331
H33? H -0.4160 0.5211 -0.0590
H34? H -0.4743 0.5570 -0.1295
C45? C -0.3204(13) 0.5681(7) -0.1067(12)
H35? H -0.2714 0.5867 -0.0944
H36? H -0.3619 0.5720 -0.1665
H37? H -0.3041 0.5361 -0.0959
C46? C -0.3876(14) 0.6321(4) -0.0720(16)
H38? H -0.4119 0.6424 -0.0360
H39? H -0.4297 0.6337 -0.1321
H40? H -0.3405 0.6517 -0.0625
C51? C -0.5308(15) 0.5980(7) 0.3283(11)
H50? H -0.4987 0.5703 0.3536
H51? H -0.5902 0.5918 0.3068
H52? H -0.5133 0.6220 0.3716
C52? C -0.5536(14) 0.5773(6) 0.1841(10)
H53? H -0.5456 0.5862 0.1353
H54? H -0.6132 0.5745 0.1658
H55? H -0.5263 0.5481 0.2065
C53? C -0.5668(15) 0.6573(6) 0.2181(13)
H56? H -0.5592 0.6683 0.1701
H57? H -0.5479 0.6806 0.2627
H58? H -0.6257 0.6508 0.1984
C58? C -0.1106(9) 0.5491(4) 0.7500(12)
H68? H -0.1300 0.5306 0.7829
H69? H -0.0551 0.5610 0.7881
H70? H -0.1081 0.5304 0.7056
C59? C -0.2634(6) 0.5699(6) 0.6545(11)
H71? H -0.2763 0.5508 0.6918
H72? H -0.2664 0.5516 0.6070
H73? H -0.3036 0.5949 0.6321
C60? C -0.1710(12) 0.6213(7) 0.7801(10)
H74? H -0.1875 0.6035 0.8163
H75? H -0.2098 0.6467 0.7547
H76? H -0.1147 0.6332 0.8148
C65? C 0.2306(9) 0.6087(4) 0.9213(10)
H86? H 0.2342 0.5814 0.8915
H87? H 0.1726 0.6136 0.9083
H88? H 0.2649 0.6046 0.9829
C66? C 0.2564(10) 0.6948(4) 0.9392(12)
H89? H 0.1982 0.6998 0.9254
H90? H 0.2770 0.7212 0.9212
H91? H 0.2900 0.6904 1.0009
C67? C 0.3561(5) 0.6433(5) 0.9134(9)
H92? H 0.3603 0.6162 0.8835
H93? H 0.3897 0.6389 0.9751
H94? H 0.3766 0.6698 0.8955
C72? C 0.4652(8) 0.5910(5) 0.5082(8)
H104? H 0.4302 0.5833 0.4480
H105? H 0.5200 0.5770 0.5287
H106? H 0.4713 0.6241 0.5142
C73? C 0.4176(10) 0.5199(3) 0.5543(9)
H107? H 0.3822 0.5113 0.4946
H108? H 0.3935 0.5080 0.5894
H109? H 0.4733 0.5071 0.5741
C74? C 0.4804(8) 0.5858(5) 0.6579(5)
H110? H 0.4551 0.5747 0.6924
H111? H 0.4864 0.6189 0.6634
H112? H 0.5352 0.5719 0.6778
C79? C 0.0469(9) 0.5739(5) 0.0040(8)
H122? H 0.0015 0.5953 -0.0082
H123? H 0.0263 0.5427 -0.0004
H124? H 0.0678 0.5783 -0.0372
C80? C 0.1862(9) 0.5473(5) 0.1112(12)
H125? H 0.2326 0.5519 0.1685
H126? H 0.2059 0.5513 0.0689
H127? H 0.1640 0.5165 0.1066
C81? C 0.1534(10) 0.6296(4) 0.0957(11)
H128? H 0.1981 0.6362 0.1532
H129? H 0.1094 0.6524 0.0796
H130? H 0.1756 0.6304 0.0551
C88? C -0.060(2) 0.7267(13) 0.293(3)
H147? H -0.1026 0.7428 0.2423
H148? H -0.0891 0.7022 0.3062
C89? C -0.0355(10) 0.7559(5) 0.3564(10)
H149? H -0.0839 0.7663 0.3618
H150? H -0.0086 0.7820 0.3452
H151? H 0.0040 0.7410 0.4095
C90? C 0.042(2) 0.7432(11) 0.242(3)
H152? H 0.0588 0.7679 0.2848
H153? H 0.0070 0.7561 0.1844
C91? C 0.1246(10) 0.7152(4) 0.2472(9)
H154? H 0.1591 0.7363 0.2347
H155? H 0.1055 0.6905 0.2054
H156? H 0.1572 0.7026 0.3046
C98? C 0.2834(13) 0.5129(8) 0.6893(15)
H173? H 0.3057 0.5364 0.6657
H174? H 0.3072 0.4834 0.6847
C99? C 0.3151(8) 0.5229(4) 0.7828(8)
H175? H 0.3760 0.5233 0.8119
H176? H 0.2955 0.4994 0.8082
H177? H 0.2943 0.5527 0.7892
C100? C 0.1732(15) 0.5011(6) 0.5393(11)
H178? H 0.1127 0.5042 0.5013
H179? H 0.2021 0.5240 0.5219
C101? C 0.2001(8) 0.4549(4) 0.5291(7)
H180? H 0.1872 0.4504 0.4694
H181? H 0.1707 0.4321 0.5450
H182? H 0.2601 0.4518 0.5659
C102? C 0.1427(11) 0.5537(5) 0.6354(16)
H183? H 0.1576 0.5608 0.6954
H184? H 0.1603 0.5798 0.6124
C103? C 0.0511(6) 0.5492(3) 0.5859(6)
H185? H 0.0248 0.5774 0.5900
H186? H 0.0326 0.5240 0.6090
H187? H 0.0353 0.5431 0.5260
O8? O 0.5019(12) 0.7373(7) 0.6747(15)
O11? O 0.6995(12) 0.7225(7) 0.7656(15)
loop_
_geom_bond_atom_site_label_1
_geom_bond_atom_site_label_2
_geom_bond_site_symmetry_1
_geom_bond_site_symmetry_2
O1 C1 1_555 1_555
O2 H1 1_555 1_555
O3 H2 1_555 1_555
O4 C20 1_555 1_555
O5 H3 1_555 1_555
O6 H4 1_555 1_555
C1 C2 1_555 1_555
C2 C3 1_555 1_555
C3 H5 1_555 1_555
C4 C3 1_555 1_555
C5 C4 1_555 1_555
H6 C5 1_555 1_555
C6 C1 1_555 1_555
C7 C6 1_555 1_555
C8 O2 1_555 1_555
C9 C7 1_555 1_555
H7 C9 1_555 1_555
C10 C9 1_555 1_555
C11 C10 1_555 1_555
H8 C11 1_555 1_555
C12 C8 1_555 1_555
C13 C12 1_555 1_555
H9 C13 1_555 1_555
H10 C13 1_555 1_555
C14 O3 1_555 1_555
C15 C13 1_555 1_555
C16 C15 1_555 1_555
H11 C16 1_555 1_555
C17 C16 1_555 1_555
C18 C17 1_555 1_555
H12 C18 1_555 1_555
C19 C14 1_555 1_555
C20 C21 1_555 1_555
C21 C19 1_555 1_555
C22 C21 1_555 1_555
H13 C22 1_555 1_555
C23 C22 1_555 1_555
C24 C23 1_555 1_555
H14 C24 1_555 1_555
C25 C20 1_555 1_555
C26 C25 1_555 1_555
H15 C26 1_555 1_555
H16 C26 1_555 1_555
C27 O5 1_555 1_555
C28 C26 1_555 1_555
C29 C28 1_555 1_555
H17 C29 1_555 1_555
C30 C29 1_555 1_555
C31 C30 1_555 1_555
H18 C31 1_555 1_555
C32 C27 1_555 1_555
C33 O6 1_555 1_555
C34 C32 1_555 1_555
C35 C34 1_555 1_555
H19 C35 1_555 1_555
C36 C35 1_555 1_555
C37 C36 1_555 1_555
H20 C37 1_555 1_555
C38 C33 1_555 1_555
C39 C2 1_555 1_555
H21 C39 1_555 1_555
H22 C39 1_555 1_555
C40 C4 1_555 1_555
C41 C40 1_555 1_555
H23 C41 1_555 1_555
H24 C41 1_555 1_555
H25 C41 1_555 1_555
C42 C40 1_555 1_555
H26 C42 1_555 1_555
H27 C42 1_555 1_555
H28 C42 1_555 1_555
C43 C40 1_555 1_555
H29 C43 1_555 1_555
H30 C43 1_555 1_555
H31 C43 1_555 1_555
C47 C10 1_555 1_555
C48 C47 1_555 1_555
H41 C48 1_555 1_555
H42 C48 1_555 1_555
H43 C48 1_555 1_555
C49 C47 1_555 1_555
H44 C49 1_555 1_555
H45 C49 1_555 1_555
H46 C49 1_555 1_555
C50 C47 1_555 1_555
H47 C50 1_555 1_555
H48 C50 1_555 1_555
H49 C50 1_555 1_555
C54 C17 1_555 1_555
C55 C54 1_555 1_555
H59 C55 1_555 1_555
H60 C55 1_555 1_555
H61 C55 1_555 1_555
C56 C54 1_555 1_555
H62 C56 1_555 1_555
H63 C56 1_555 1_555
H64 C56 1_555 1_555
C57 C54 1_555 1_555
H65 C57 1_555 1_555
H66 C57 1_555 1_555
H67 C57 1_555 1_555
C61 C23 1_555 1_555
C62 C61 1_555 1_555
H77 C62 1_555 1_555
H78 C62 1_555 1_555
H79 C62 1_555 1_555
C63 C61 1_555 1_555
H80 C63 1_555 1_555
H81 C63 1_555 1_555
H82 C63 1_555 1_555
C64 C61 1_555 1_555
H83 C64 1_555 1_555
H84 C64 1_555 1_555
H85 C64 1_555 1_555
C68 C30 1_555 1_555
C69 C68 1_555 1_555
H95 C69 1_555 1_555
H96 C69 1_555 1_555
H97 C69 1_555 1_555
C70 C68 1_555 1_555
H98 C70 1_555 1_555
H99 C70 1_555 1_555
H100 C70 1_555 1_555
C71 C68 1_555 1_555
H101 C71 1_555 1_555
H102 C71 1_555 1_555
H103 C71 1_555 1_555
C75 C36 1_555 1_555
C76 C75 1_555 1_555
H113 C76 1_555 1_555
H114 C76 1_555 1_555
H115 C76 1_555 1_555
C77 C75 1_555 1_555
H116 C77 1_555 1_555
H117 C77 1_555 1_555
H118 C77 1_555 1_555
C78 C75 1_555 1_555
H119 C78 1_555 1_555
H120 C78 1_555 1_555
H121 C78 1_555 1_555
N1 H131 1_555 1_555
C82 N1 1_555 1_555
H132 C82 1_555 1_555
H133 C82 1_555 1_555
C83 C82 1_555 1_555
H134 C83 1_555 1_555
H135 C83 1_555 1_555
H136 C83 1_555 1_555
C84 N1 1_555 1_555
H137 C84 1_555 1_555
H138 C84 1_555 1_555
C85 C84 1_555 1_555
H139 C85 1_555 1_555
H140 C85 1_555 1_555
H141 C85 1_555 1_555
C86 N1 1_555 1_555
H142 C86 1_555 1_555
H143 C86 1_555 1_555
C87 C86 1_555 1_555
H144 C87 1_555 1_555
H145 C87 1_555 1_555
H146 C87 1_555 1_555
N2 H157 1_555 1_555
C92 N2 1_555 1_555
H158 C92 1_555 1_555
H159 C92 1_555 1_555
C93 C92 1_555 1_555
H160 C93 1_555 1_555
H161 C93 1_555 1_555
H162 C93 1_555 1_555
C94 N2 1_555 1_555
H163 C94 1_555 1_555
H164 C94 1_555 1_555
C95 C94 1_555 1_555
H165 C95 1_555 1_555
H166 C95 1_555 1_555
H167 C95 1_555 1_555
C96 N2 1_555 1_555
H168 C96 1_555 1_555
H169 C96 1_555 1_555
C97 C96 1_555 1_555
H170 C97 1_555 1_555
H171 C97 1_555 1_555
H172 C97 1_555 1_555
C5 C6 1_555 1_555
C7 C8 1_555 1_555
C11 C12 1_555 1_555
C14 C15 1_555 1_555
C18 C19 1_555 1_555
C24 C25 1_555 1_555
C27 C28 1_555 1_555
C31 C32 1_555 1_555
C33 C34 1_555 1_555
C37 C38 1_555 1_555
C38 C39 1_555 1_555

#END
