
#######################################################################
#
#                 Cambridge Crystallographic Data Centre
#                                CCDC 
#
#######################################################################
#
# If this CIF has been generated from an entry in the Cambridge 
# Structural Database, then it will include bibliographic, chemical, 
# crystal, experimental, refinement or atomic coordinate data resulting 
# from the CCDC's data processing and validation procedures.
#
#######################################################################

data_XINQIX
_chemical_formula_moiety         'C19 H15 N1 O1 S1'
_chemical_name_systematic        
2-phenyl-2-[(thiophen-2-yl)methyl]-1,2-dihydro-3H-indol-3-one
_symmetry_cell_setting           monoclinic
_symmetry_space_group_name_H-M   'P 21'
_symmetry_Int_Tables_number      4
_space_group_name_Hall           'P 2yb'
loop_
_symmetry_equiv_pos_site_id
_symmetry_equiv_pos_as_xyz
1 x,y,z
2 -x,1/2+y,-z
_cell_length_a                   6.3026(3)
_cell_length_b                   12.4541(5)
_cell_length_c                   10.3341(5)
_cell_angle_alpha                90
_cell_angle_beta                 106.918(5)
_cell_angle_gamma                90
_cell_volume                     776.052
_exptl_crystal_colour            yellow
_exptl_crystal_description       plate
_cell_formula_units_Z            2
loop_
_atom_site_label
_atom_site_type_symbol
_atom_site_fract_x
_atom_site_fract_y
_atom_site_fract_z
C1 C 0.2198(16) 0.3005(8) 0.8621(9)
H1 H 0.1796 0.3011 0.9418
C2 C 0.1112(13) 0.2470(6) 0.7506(9)
H2 H -0.0150 0.2064 0.7448
C3 C 0.2031(12) 0.2571(5) 0.6428(7)
H3 H 0.1458 0.2245 0.5588
C4 C 0.3902(10) 0.3218(5) 0.6772(7)
C5 C 0.5274(9) 0.3577(5) 0.5884(6)
H4 H 0.5363 0.3000 0.5272
H5 H 0.6767 0.3738 0.6440
C6 C 0.4271(8) 0.4581(5) 0.5059(6)
C7 C 0.5556(9) 0.4886(5) 0.4023(6)
C8 C 0.3904(9) 0.5067(5) 0.2748(6)
C9 C 0.1868(9) 0.4708(4) 0.2874(6)
C10 C 0.0010(9) 0.4701(5) 0.1776(6)
H6 H -0.1329 0.4430 0.1843
C11 C 0.0189(12) 0.5108(6) 0.0567(7)
H7 H -0.1059 0.5122 -0.0183
C12 C 0.2204(12) 0.5501(7) 0.0448(7)
H8 H 0.2276 0.5787 -0.0369
C13 C 0.4037(11) 0.5466(5) 0.1515(7)
H9 H 0.5386 0.5707 0.1430
C14 C 0.4378(9) 0.5565(5) 0.5974(6)
C15 C 0.6404(10) 0.5935(6) 0.6792(7)
H10 H 0.7703 0.5595 0.6761
C16 C 0.6525(12) 0.6794(6) 0.7646(7)
H11 H 0.7897 0.7026 0.8191
C17 C 0.4615(13) 0.7313(5) 0.7696(7)
H12 H 0.4687 0.7891 0.8277
C18 C 0.2605(11) 0.6963(5) 0.6874(7)
H13 H 0.1311 0.7314 0.6890
C19 C 0.2486(10) 0.6100(5) 0.6030(7)
H14 H 0.1109 0.5872 0.5487
N1 N 0.2078(7) 0.4355(4) 0.4166(5)
H15 H 0.104(8) 0.446(6) 0.447(7)
O1 O 0.7560(6) 0.4924(4) 0.4314(5)
S1 S 0.4396(5) 0.3670(2) 0.8394(2)
loop_
_geom_bond_atom_site_label_1
_geom_bond_atom_site_label_2
_geom_bond_site_symmetry_1
_geom_bond_site_symmetry_2
C1 H1 1_555 1_555
C2 C1 1_555 1_555
H2 C2 1_555 1_555
C3 C2 1_555 1_555
H3 C3 1_555 1_555
C4 C3 1_555 1_555
C5 C4 1_555 1_555
H4 C5 1_555 1_555
H5 C5 1_555 1_555
C6 C5 1_555 1_555
C7 C6 1_555 1_555
C8 C7 1_555 1_555
C9 C8 1_555 1_555
C10 C9 1_555 1_555
H6 C10 1_555 1_555
C11 C10 1_555 1_555
H7 C11 1_555 1_555
C12 C11 1_555 1_555
H8 C12 1_555 1_555
C13 C8 1_555 1_555
H9 C13 1_555 1_555
C14 C6 1_555 1_555
C15 C14 1_555 1_555
H10 C15 1_555 1_555
C16 C15 1_555 1_555
H11 C16 1_555 1_555
C17 C16 1_555 1_555
H12 C17 1_555 1_555
C18 C17 1_555 1_555
H13 C18 1_555 1_555
C19 C14 1_555 1_555
H14 C19 1_555 1_555
N1 C6 1_555 1_555
H15 N1 1_555 1_555
O1 C7 1_555 1_555
S1 C1 1_555 1_555
C4 S1 1_555 1_555
C9 N1 1_555 1_555
C12 C13 1_555 1_555
C18 C19 1_555 1_555

#END
