
#######################################################################
#
#                 Cambridge Crystallographic Data Centre
#                                CCDC 
#
#######################################################################
#
# If this CIF has been generated from an entry in the Cambridge 
# Structural Database, then it will include bibliographic, chemical, 
# crystal, experimental, refinement or atomic coordinate data resulting 
# from the CCDC's data processing and validation procedures.
#
#######################################################################

data_XIPQET
_chemical_formula_moiety         'C21 H16 F1 N3 O3,C3 H7 N1 O1'
_chemical_name_systematic        
'N-((1,2,3,4-Tetrahydro-4-(4-fluorophenyl)-2-oxo-benzo(f)quinolin-3-yl)carbonyl)urea N,N-dimethylformamide solvate'
_symmetry_cell_setting           monoclinic
_symmetry_space_group_name_H-M   'P 21/n'
_symmetry_Int_Tables_number      14
_space_group_name_Hall           '-P 2yn'
loop_
_symmetry_equiv_pos_site_id
_symmetry_equiv_pos_as_xyz
1 x,y,z
2 1/2-x,1/2+y,1/2-z
3 -x,-y,-z
4 1/2+x,1/2-y,1/2+z
_cell_length_a                   11.491(5)
_cell_length_b                   9.417(4)
_cell_length_c                   20.617(9)
_cell_angle_alpha                90
_cell_angle_beta                 91.187(8)
_cell_angle_gamma                90
_cell_volume                     2230.5
_exptl_crystal_colour            colorless
_exptl_crystal_description       block
_chemical_melting_point          '501-503 K'
_cell_formula_units_Z            4
_exptl_crystal_recrystallization_method dimethylformamide/water
loop_
_atom_site_label
_atom_site_type_symbol
_atom_site_fract_x
_atom_site_fract_y
_atom_site_fract_z
F1 F 0.5936(3) 0.7113(3) 0.49226(10)
N1 N 0.62063(17) 0.7439(2) 0.15686(11)
H1 H 0.645(2) 0.655(3) 0.1456(13)
N2 N 0.63474(19) 1.2125(2) 0.17459(12)
H2 H 0.648(3) 1.230(3) 0.2192(17)
N3 N 0.6217(2) 1.3181(2) 0.07253(13)
H3 H 0.6187 1.3911 0.0475
H4 H 0.6186 1.2341 0.0563
O1 O 0.80190(15) 0.7979(2) 0.19074(10)
O2 O 0.6351(2) 1.0377(2) 0.09872(10)
O3 O 0.63590(19) 1.44921(19) 0.16353(11)
C1 C 0.6984(2) 0.8296(2) 0.18549(12)
C2 C 0.6514(2) 0.9686(2) 0.21060(12)
H5 H 0.7064 1.0065 0.2432
C3 C 0.5315(2) 0.9458(2) 0.24304(12)
H6 H 0.4963 1.0396 0.2488
C4 C 0.45189(19) 0.8621(2) 0.19782(11)
C5 C 0.5002(2) 0.7683(2) 0.15540(12)
C6 C 0.4313(2) 0.6898(3) 0.11068(13)
H7 H 0.4663 0.6292 0.0813
C7 C 0.3143(2) 0.7033(3) 0.11088(13)
H8 H 0.2692 0.6531 0.0807
C8 C 0.2595(2) 0.7917(3) 0.15573(13)
C9 C 0.3289(2) 0.8737(2) 0.19974(12)
C10 C 0.2712(2) 0.9595(3) 0.24528(14)
H9 H 0.3147 1.0145 0.2743
C11 C 0.1531(2) 0.9626(3) 0.24712(15)
H10 H 0.1171 1.0190 0.2778
C12 C 0.0849(2) 0.8830(3) 0.20395(16)
H11 H 0.0041 0.8859 0.2060
C13 C 0.1369(2) 0.8013(3) 0.15903(15)
H12 H 0.0910 0.7502 0.1296
C14 C 0.6403(2) 1.0742(2) 0.15513(13)
C15 C 0.6309(2) 1.3350(3) 0.13579(15)
C16 C 0.5470(2) 0.8800(3) 0.31007(12)
C17 C 0.5682(2) 0.9669(3) 0.36320(14)
H13 H 0.5721 1.0647 0.3574
C18 C 0.5837(3) 0.9108(4) 0.42448(15)
H14 H 0.5980 0.9696 0.4600
C19 C 0.5777(3) 0.7668(5) 0.43181(16)
C20 C 0.5595(3) 0.6775(4) 0.38099(17)
H15 H 0.5577 0.5797 0.3872
C21 C 0.5437(3) 0.7354(3) 0.31958(15)
H16 H 0.5306 0.6756 0.2843
C22 C 0.3093(8) 0.3020(6) -0.0015(3)
H17 H 0.3126 0.2578 -0.0418
C23 C 0.2612(15) 0.0695(7) 0.0442(5)
H18 H 0.2518 0.0463 -0.0009
H19 H 0.1924 0.0426 0.0668
H20 H 0.3270 0.0191 0.0621
C24 C 0.2924(8) 0.2773(10) 0.1148(3)
H21 H 0.3003 0.3787 0.1134
H22 H 0.3602 0.2367 0.1354
H23 H 0.2247 0.2528 0.1390
N4 N 0.2804(8) 0.2241(6) 0.0513(3)
O4 O 0.3306(14) 0.4261(9) 0.0026(5)
C25? C 0.3272(13) 0.3564(16) 0.0376(8)
H24? H 0.3445 0.4005 0.0770
C26? C 0.2918(19) 0.143(3) 0.1014(12)
H25? H 0.3575 0.1741 0.1273
H26? H 0.2940 0.0420 0.0967
H27? H 0.2212 0.1705 0.1221
C27? C 0.1973(17) 0.170(3) -0.0061(11)
H28? H 0.2076 0.2110 -0.0483
H29? H 0.1263 0.2051 0.0118
H30? H 0.1937 0.0688 -0.0097
N5? N 0.296(2) 0.2106(18) 0.0367(9)
O5? O 0.331(3) 0.422(2) -0.0108(10)
loop_
_geom_bond_atom_site_label_1
_geom_bond_atom_site_label_2
_geom_bond_site_symmetry_1
_geom_bond_site_symmetry_2
F1 C19 1_555 1_555
N1 H1 1_555 1_555
N2 H2 1_555 1_555
N3 H3 1_555 1_555
H4 N3 1_555 1_555
O1 C1 1_555 1_555
O2 C14 1_555 1_555
O3 C15 1_555 1_555
C1 N1 1_555 1_555
C2 C1 1_555 1_555
H5 C2 1_555 1_555
C3 C2 1_555 1_555
H6 C3 1_555 1_555
C4 C3 1_555 1_555
C5 N1 1_555 1_555
C6 C5 1_555 1_555
H7 C6 1_555 1_555
C7 C6 1_555 1_555
H8 C7 1_555 1_555
C8 C7 1_555 1_555
C9 C4 1_555 1_555
C10 C9 1_555 1_555
H9 C10 1_555 1_555
C11 C10 1_555 1_555
H10 C11 1_555 1_555
C12 C11 1_555 1_555
H11 C12 1_555 1_555
C13 C8 1_555 1_555
H12 C13 1_555 1_555
C14 N2 1_555 1_555
C15 N2 1_555 1_555
C16 C3 1_555 1_555
C17 C16 1_555 1_555
H13 C17 1_555 1_555
C18 C17 1_555 1_555
H14 C18 1_555 1_555
C19 C18 1_555 1_555
C20 C19 1_555 1_555
H15 C20 1_555 1_555
C21 C16 1_555 1_555
H16 C21 1_555 1_555
C22 H17 1_555 1_555
C23 H18 1_555 1_555
H19 C23 1_555 1_555
H20 C23 1_555 1_555
C24 H21 1_555 1_555
H22 C24 1_555 1_555
H23 C24 1_555 1_555
N4 C22 1_555 1_555
O4 C22 1_555 1_555
N3 C15 1_555 1_555
C2 C14 1_555 1_555
C4 C5 1_555 1_555
C8 C9 1_555 1_555
C12 C13 1_555 1_555
C20 C21 1_555 1_555
C23 N4 1_555 1_555
C24 N4 1_555 1_555

#END
