
#######################################################################
#
#                 Cambridge Crystallographic Data Centre
#                                CCDC 
#
#######################################################################
#
# If this CIF has been generated from an entry in the Cambridge 
# Structural Database, then it will include bibliographic, chemical, 
# crystal, experimental, refinement or atomic coordinate data resulting 
# from the CCDC's data processing and validation procedures.
#
#######################################################################

data_XIPWEB
_chemical_formula_moiety         'C25 H25 N5'
_chemical_name_systematic        
2,2'-(pyridine-2,6-diyl)bis(5-ethyl-1-methyl-1H-benzimidazole)
_symmetry_cell_setting           monoclinic
_symmetry_space_group_name_H-M   'I 2/a'
_symmetry_Int_Tables_number      15
_space_group_name_Hall           '-I 2ya'
loop_
_symmetry_equiv_pos_site_id
_symmetry_equiv_pos_as_xyz
1 x,y,z
2 1/2-x,y,-z
3 1/2+x,1/2+y,1/2+z
4 -x,1/2+y,1/2-z
5 -x,-y,-z
6 1/2+x,-y,z
7 1/2-x,1/2-y,1/2-z
8 x,1/2-y,1/2+z
_cell_length_a                   8.4966(3)
_cell_length_b                   12.8837(5)
_cell_length_c                   19.7197(7)
_cell_angle_alpha                90
_cell_angle_beta                 101.540(4)
_cell_angle_gamma                90
_cell_volume                     2115.03
_exptl_crystal_colour            yellow
_exptl_crystal_description       prism
_cell_formula_units_Z            4
loop_
_atom_site_label
_atom_site_type_symbol
_atom_site_fract_x
_atom_site_fract_y
_atom_site_fract_z
N1 N 0.44795(17) 0.54746(11) 0.85640(7)
N2 N 0.36110(16) 0.39083(10) 0.88226(7)
N3 N 0.2500 0.49523(14) 1.0000
C1 C 0.2500 0.7108(2) 1.0000
H1 H 0.2500 0.7838 1.0000
C2 C 0.3075(2) 0.65729(14) 0.95006(10)
H2 H 0.3471 0.6928 0.9153
C3 C 0.30630(18) 0.54889(12) 0.95184(8)
C4 C 0.37185(17) 0.49518(12) 0.89742(8)
C5 C 0.48881(18) 0.47506(12) 0.81142(8)
C6 C 0.5698(2) 0.48674(14) 0.75700(9)
H3 H 0.6067 0.5525 0.7466
C7 C 0.5953(2) 0.40123(14) 0.71857(9)
C8 C 0.6783(3) 0.41298(19) 0.65801(11)
H4 H 0.7605 0.4671 0.6689
H5 H 0.7329 0.3477 0.6516
C9 C 0.5674(4) 0.4402(3) 0.59203(15)
H6 H 0.4884 0.3854 0.5797
H7 H 0.6282 0.4478 0.5556
H8 H 0.5132 0.5049 0.5977
C10 C 0.5407(2) 0.30308(15) 0.73524(10)
H9 H 0.5591 0.2452 0.7088
C11 C 0.4610(2) 0.28908(14) 0.78911(10)
H10 H 0.4256 0.2231 0.7999
C12 C 0.43517(19) 0.37697(13) 0.82678(8)
C13 C 0.2836(2) 0.30773(13) 0.91348(10)
H11 H 0.3567 0.2820 0.9542
H12 H 0.2555 0.2517 0.8804
H13 H 0.1871 0.3341 0.9266
N1A N 0.05205(17) 0.54746(11) 1.14360(7)
N2A N 0.13890(16) 0.39083(10) 1.11774(7)
C2A C 0.1925(2) 0.65729(14) 1.04994(10)
H2A H 0.1529 0.6928 1.0847
C3A C 0.19370(18) 0.54889(12) 1.04816(8)
C4A C 0.12815(17) 0.49518(12) 1.10258(8)
C5A C 0.01119(18) 0.47506(12) 1.18858(8)
C6A C -0.0698(2) 0.48674(14) 1.24300(9)
H3A H -0.1067 0.5525 1.2534
C7A C -0.0953(2) 0.40123(14) 1.28143(9)
C8A C -0.1783(3) 0.41298(19) 1.34199(11)
H4A H -0.2605 0.4671 1.3311
H5A H -0.2329 0.3477 1.3484
C9A C -0.0674(4) 0.4402(3) 1.40797(15)
H6A H 0.0116 0.3854 1.4203
H7A H -0.1282 0.4478 1.4444
H8A H -0.0132 0.5049 1.4023
C10A C -0.0407(2) 0.30308(15) 1.26476(10)
H9A H -0.0591 0.2452 1.2912
C11A C 0.0390(2) 0.28908(14) 1.21089(10)
H10A H 0.0744 0.2231 1.2001
C12A C 0.06483(19) 0.37697(13) 1.17322(8)
C13A C 0.2164(2) 0.30773(13) 1.08652(10)
H11A H 0.1433 0.2820 1.0458
H12A H 0.2445 0.2517 1.1196
H13A H 0.3129 0.3341 1.0734
H14? H 0.7939 0.4039 0.6752
H15? H 0.6425 0.3562 0.6255
C14? C 0.654(2) 0.5114(17) 0.6189(8)
H16? H 0.5447 0.5350 0.6158
H17? H 0.6746 0.5004 0.5728
H18? H 0.7280 0.5634 0.6426
loop_
_geom_bond_atom_site_label_1
_geom_bond_atom_site_label_2
_geom_bond_site_symmetry_1
_geom_bond_site_symmetry_2
N1 C4 1_555 1_555
N2 C4 1_555 1_555
N3 C3 1_555 1_555
C1 H1 1_555 1_555
C2 C1 1_555 1_555
H2 C2 1_555 1_555
C3 C2 1_555 1_555
C4 C3 1_555 1_555
C5 N1 1_555 1_555
C6 C5 1_555 1_555
H3 C6 1_555 1_555
C7 C6 1_555 1_555
C8 C7 1_555 1_555
H4 C8 1_555 1_555
H5 C8 1_555 1_555
C9 C8 1_555 1_555
H6 C9 1_555 1_555
H7 C9 1_555 1_555
H8 C9 1_555 1_555
C10 C7 1_555 1_555
H9 C10 1_555 1_555
C11 C10 1_555 1_555
H10 C11 1_555 1_555
C12 N2 1_555 1_555
C13 N2 1_555 1_555
H11 C13 1_555 1_555
H12 C13 1_555 1_555
H13 C13 1_555 1_555
N1A C4A 1_555 1_555
N2A C4A 1_555 1_555
C2A C1 1_555 1_555
H2A C2A 1_555 1_555
C3A N3 1_555 1_555
C4A C3A 1_555 1_555
C5A N1A 1_555 1_555
C6A C5A 1_555 1_555
H3A C6A 1_555 1_555
C7A C6A 1_555 1_555
C8A C7A 1_555 1_555
H4A C8A 1_555 1_555
H5A C8A 1_555 1_555
C9A C8A 1_555 1_555
H6A C9A 1_555 1_555
H7A C9A 1_555 1_555
H8A C9A 1_555 1_555
C10A C7A 1_555 1_555
H9A C10A 1_555 1_555
C11A C10A 1_555 1_555
H10A C11A 1_555 1_555
C12A N2A 1_555 1_555
C13A N2A 1_555 1_555
H11A C13A 1_555 1_555
H12A C13A 1_555 1_555
H13A C13A 1_555 1_555
C5 C12 1_555 1_555
C11 C12 1_555 1_555
C2A C3A 1_555 1_555
C5A C12A 1_555 1_555
C11A C12A 1_555 1_555

#END
