
#######################################################################
#
#                 Cambridge Crystallographic Data Centre
#                                CCDC 
#
#######################################################################
#
# If this CIF has been generated from an entry in the Cambridge 
# Structural Database, then it will include bibliographic, chemical, 
# crystal, experimental, refinement or atomic coordinate data resulting 
# from the CCDC's data processing and validation procedures.
#
#######################################################################

data_XIQJEP
_chemical_formula_moiety         'C21 H22 N2 O5'
_chemical_name_systematic        
3-phenyl-7,8,11,12-tetrahydro-4H,6H,10H-5,9,13,1,2-benzotrioxadiazacyclohexadecine-4,14(1H)-dione
_symmetry_cell_setting           monoclinic
_symmetry_space_group_name_H-M   'P 21/n'
_symmetry_Int_Tables_number      14
_space_group_name_Hall           '-P 2yn'
loop_
_symmetry_equiv_pos_site_id
_symmetry_equiv_pos_as_xyz
1 x,y,z
2 1/2-x,1/2+y,1/2-z
3 -x,-y,-z
4 1/2+x,1/2-y,1/2+z
_cell_length_a                   11.12200(10)
_cell_length_b                   11.03000(10)
_cell_length_c                   16.3913(2)
_cell_angle_alpha                90
_cell_angle_beta                 102.8935(5)
_cell_angle_gamma                90
_cell_volume                     1960.11
_exptl_crystal_colour            colorless
_exptl_crystal_description       Block
_cell_formula_units_Z            4
_chemical_properties_physical    
Heat-sensitive,Light-sensitive,Photo-sensitive
_exptl_crystal_preparation       'Needles cut.'
loop_
_atom_site_label
_atom_site_type_symbol
_atom_site_fract_x
_atom_site_fract_y
_atom_site_fract_z
O1 O 0.45058(9) 0.30614(9) 0.18667(7)
O2 O 0.64619(9) 0.35943(9) 0.24272(6)
O3 O 0.34755(11) 0.28165(11) -0.02254(7)
O4 O 0.61803(10) 0.16458(12) 0.00459(7)
O5 O 0.80152(9) 0.22917(10) -0.01277(6)
N1 N 0.74763(10) 0.09986(10) 0.24477(7)
H1 H 0.8110(17) 0.0467(17) 0.2558(11)
N2 N 0.70951(10) 0.13934(9) 0.16521(6)
C1 C 0.65816(11) 0.09030(11) 0.29286(7)
C2 C 0.56450(11) 0.17688(12) 0.28705(8)
C3 C 0.47590(12) 0.16235(13) 0.33487(9)
H2 H 0.411027 0.219741 0.330181
C4 C 0.48190(13) 0.06523(14) 0.38886(9)
H3 H 0.422159 0.056639 0.421821
C5 C 0.57532(14) -0.01956(14) 0.39477(8)
H4 H 0.579315 -0.086585 0.431678
C6 C 0.66275(13) -0.00709(12) 0.34722(8)
H5 H 0.726556 -0.065628 0.351747
C7 C 0.56128(12) 0.28935(12) 0.23646(8)
C8 C 0.43824(16) 0.41154(15) 0.13246(11)
H6 H 0.495305 0.405552 0.094126
H7 H 0.457506 0.486470 0.166090
C9 C 0.30601(18) 0.41347(19) 0.08339(13)
H8 H 0.250990 0.425170 0.122611
H9 H 0.294390 0.483376 0.044532
C10 C 0.26912(16) 0.29886(19) 0.03384(12)
H10 H 0.275966 0.228709 0.072283
H11 H 0.182358 0.305051 0.002346
C11 C 0.35579(15) 0.15837(16) -0.04490(11)
H12 H 0.272523 0.127031 -0.070540
H13 H 0.389618 0.109805 0.005825
C12 C 0.43755(17) 0.1463(2) -0.10555(11)
H14 H 0.394126 0.179836 -0.160225
H15 H 0.452574 0.059126 -0.113710
C13 C 0.55973(16) 0.2096(2) -0.07818(10)
H16 H 0.612565 0.192470 -0.118080
H17 H 0.547267 0.298297 -0.076299
C14 C 0.73846(12) 0.18512(12) 0.03035(8)
C15 C 0.78838(12) 0.14280(11) 0.11784(8)
C16 C 0.92294(12) 0.11519(12) 0.14268(8)
C17 C 1.00039(14) 0.18798(15) 0.20071(10)
H18 H 0.966961 0.253961 0.225632
C18 C 1.12645(15) 0.16524(19) 0.22272(11)
H19 H 1.178789 0.216399 0.261880
C19 C 1.17580(14) 0.06849(18) 0.18781(10)
H20 H 1.261729 0.052126 0.203575
C20 C 1.09987(15) -0.00399(15) 0.13013(10)
H21 H 1.133604 -0.070423 0.105859
C21 C 0.97380(14) 0.01942(14) 0.10706(9)
H22 H 0.922243 -0.030577 0.066633
loop_
_geom_bond_atom_site_label_1
_geom_bond_atom_site_label_2
_geom_bond_site_symmetry_1
_geom_bond_site_symmetry_2
O1 C7 1_555 1_555
O2 C7 1_555 1_555
O3 C10 1_555 1_555
O4 C13 1_555 1_555
O5 C14 1_555 1_555
N1 H1 1_555 1_555
N2 N1 1_555 1_555
C1 N1 1_555 1_555
C2 C1 1_555 1_555
C3 C2 1_555 1_555
H2 C3 1_555 1_555
C4 C3 1_555 1_555
H3 C4 1_555 1_555
C5 C4 1_555 1_555
H4 C5 1_555 1_555
C6 C1 1_555 1_555
H5 C6 1_555 1_555
C7 C2 1_555 1_555
C8 O1 1_555 1_555
H6 C8 1_555 1_555
H7 C8 1_555 1_555
C9 C8 1_555 1_555
H8 C9 1_555 1_555
H9 C9 1_555 1_555
C10 C9 1_555 1_555
H10 C10 1_555 1_555
H11 C10 1_555 1_555
C11 O3 1_555 1_555
H12 C11 1_555 1_555
H13 C11 1_555 1_555
C12 C11 1_555 1_555
H14 C12 1_555 1_555
H15 C12 1_555 1_555
C13 C12 1_555 1_555
H16 C13 1_555 1_555
H17 C13 1_555 1_555
C14 O4 1_555 1_555
C15 N2 1_555 1_555
C16 C15 1_555 1_555
C17 C16 1_555 1_555
H18 C17 1_555 1_555
C18 C17 1_555 1_555
H19 C18 1_555 1_555
C19 C18 1_555 1_555
H20 C19 1_555 1_555
C20 C19 1_555 1_555
H21 C20 1_555 1_555
C21 C16 1_555 1_555
H22 C21 1_555 1_555
C5 C6 1_555 1_555
C14 C15 1_555 1_555
C20 C21 1_555 1_555

#END
