
#######################################################################
#
#                 Cambridge Crystallographic Data Centre
#                                CCDC 
#
#######################################################################
#
# If this CIF has been generated from an entry in the Cambridge 
# Structural Database, then it will include bibliographic, chemical, 
# crystal, experimental, refinement or atomic coordinate data resulting 
# from the CCDC's data processing and validation procedures.
#
#######################################################################

data_XIQKUG
_chemical_formula_moiety         'C32 H30 N4 O8'
_chemical_name_systematic        5,10,15,20-tetrakis(ethoxycarbonyl)porphyrin
_symmetry_cell_setting           monoclinic
_symmetry_space_group_name_H-M   'P 21/c'
_symmetry_Int_Tables_number      14
_space_group_name_Hall           '-P 2ybc'
loop_
_symmetry_equiv_pos_site_id
_symmetry_equiv_pos_as_xyz
1 x,y,z
2 -x,1/2+y,1/2-z
3 -x,-y,-z
4 x,1/2-y,1/2+z
_cell_length_a                   14.39100(10)
_cell_length_b                   15.45040(10)
_cell_length_c                   24.6018(2)
_cell_angle_alpha                90
_cell_angle_beta                 91.4850(10)
_cell_angle_gamma                90
_cell_volume                     5468.29
_exptl_crystal_colour            red
_exptl_crystal_description       block
_cell_formula_units_Z            8
_exptl_crystal_recrystallization_method 'dichloromethane / hexane'
loop_
_atom_site_label
_atom_site_type_symbol
_atom_site_fract_x
_atom_site_fract_y
_atom_site_fract_z
N1 N 0.39028(11) 0.26109(10) 0.23541(6)
N2 N 0.29638(11) 0.30921(10) 0.13351(6)
H1 H 0.2818 0.3086 0.1680
N3 N 0.13109(11) 0.35394(10) 0.19516(6)
N4 N 0.22552(11) 0.30718(10) 0.29692(6)
H2 H 0.2401 0.3079 0.2624
O1 O 0.39509(9) 0.19258(9) 0.42462(5)
O2 O 0.50691(9) 0.27723(9) 0.39125(5)
O3 O 0.54618(9) 0.19563(9) 0.07159(5)
O4 O 0.61656(9) 0.27976(9) 0.13456(5)
O5 O 0.13126(9) 0.43418(9) 0.00869(5)
O6 O 0.01596(9) 0.34915(9) 0.03802(5)
O7 O -0.01516(10) 0.43222(10) 0.35861(5)
O8 O -0.09697(9) 0.35277(9) 0.29757(5)
C1 C 0.37515(13) 0.25264(12) 0.33474(7)
C2 C 0.42376(13) 0.24120(12) 0.28654(7)
C3 C 0.51662(13) 0.20533(13) 0.28367(7)
H3 H 0.5543 0.1852 0.3133
C4 C 0.53926(13) 0.20596(13) 0.23107(7)
H4 H 0.5961 0.1866 0.2165
C5 C 0.46070(13) 0.24171(12) 0.20081(7)
C6 C 0.45710(13) 0.25491(12) 0.14415(7)
C7 C 0.38000(13) 0.28435(12) 0.11354(7)
C8 C 0.37493(13) 0.29612(12) 0.05548(7)
H5 H 0.4234 0.2847 0.0310
C9 C 0.28954(14) 0.32609(13) 0.04198(7)
H6 H 0.2668 0.3389 0.0063
C10 C 0.23878(13) 0.33533(12) 0.09131(7)
C11 C 0.14764(13) 0.36466(12) 0.09581(7)
C12 C 0.09864(13) 0.37527(12) 0.14411(7)
C13 C 0.00665(13) 0.41286(13) 0.14688(7)
H7 H -0.0303 0.4341 0.1172
C14 C -0.01634(13) 0.41195(13) 0.19954(8)
H8 H -0.0728 0.4321 0.2141
C15 C 0.06115(13) 0.37454(12) 0.22960(7)
C16 C 0.06571(13) 0.36262(12) 0.28639(7)
C17 C 0.14194(13) 0.33217(12) 0.31699(7)
C18 C 0.14679(14) 0.32012(13) 0.37471(7)
H9 H 0.0983 0.3315 0.3992
C19 C 0.23198(13) 0.28994(13) 0.38829(7)
H10 H 0.2545 0.2770 0.4240
C20 C 0.28288(13) 0.28084(12) 0.33904(7)
C21 C 0.42535(13) 0.23597(13) 0.38803(7)
C22 C 0.55357(14) 0.27529(14) 0.44439(7)
H11 H 0.5579 0.2150 0.4579
H12 H 0.5182 0.3098 0.4707
C23 C 0.64901(15) 0.31258(15) 0.43847(8)
H13 H 0.6819 0.3120 0.4738
H14 H 0.6439 0.3723 0.4253
H15 H 0.6835 0.2778 0.4125
C24 C 0.54280(13) 0.23868(13) 0.11277(7)
C25 C 0.70132(13) 0.27371(14) 0.10356(8)
H16 H 0.6948 0.3075 0.0695
H17 H 0.7141 0.2126 0.0941
C26 C 0.77913(14) 0.30961(15) 0.13892(8)
H18 H 0.8375 0.3066 0.1194
H19 H 0.7848 0.2756 0.1725
H20 H 0.7657 0.3700 0.1479
C27 C 0.09929(13) 0.38730(13) 0.04299(7)
C28 C -0.03385(14) 0.36245(14) -0.01362(7)
H21 H -0.0068 0.3258 -0.0422
H22 H -0.0294 0.4238 -0.0249
C29 C -0.13380(14) 0.33812(15) -0.00550(8)
H23 H -0.1693 0.3464 -0.0396
H24 H -0.1598 0.3748 0.0228
H25 H -0.1374 0.2773 0.0056
C30 C -0.01825(14) 0.38719(13) 0.31837(7)
C31 C -0.18048(14) 0.37427(15) 0.32646(8)
H26 H -0.1834 0.4374 0.3330
H27 H -0.1806 0.3442 0.3620
C32 C -0.26263(14) 0.34571(16) 0.29167(8)
H28 H -0.3203 0.3594 0.3102
H29 H -0.2591 0.2831 0.2855
H30 H -0.2619 0.3760 0.2567
N5 N 0.70089(11) 0.57546(10) 0.36602(6)
N6 N 0.86685(11) 0.61999(11) 0.30572(6)
H31 H 0.8117 0.5989 0.2968
N7 N 0.76958(11) 0.57350(10) 0.20449(6)
N8 N 0.60348(11) 0.52854(10) 0.26467(6)
H32 H 0.6570 0.5532 0.2731
O9 O 0.45574(10) 0.45792(9) 0.42988(5)
O10 O 0.37785(9) 0.53391(9) 0.36550(5)
O11 O 0.86975(9) 0.68816(9) 0.49508(5)
O12 O 0.98234(9) 0.60463(9) 0.46126(5)
O13 O 1.02019(10) 0.68618(9) 0.14111(5)
O14 O 1.09078(9) 0.60224(9) 0.20425(5)
O15 O 0.60406(9) 0.45646(9) 0.07549(5)
O16 O 0.48711(9) 0.53352(9) 0.11029(5)
C33 C 0.54026(13) 0.52047(13) 0.35671(7)
C34 C 0.61701(14) 0.55114(12) 0.38692(7)
C35 C 0.62200(14) 0.56141(13) 0.44561(7)
H33 H 0.5736 0.5496 0.4701
C36 C 0.70693(14) 0.59054(13) 0.45887(7)
H34 H 0.7302 0.6026 0.4946
C37 C 0.75719(13) 0.60040(12) 0.40895(7)
C38 C 0.84963(13) 0.62836(12) 0.40504(7)
C39 C 0.89893(13) 0.63952(13) 0.35730(7)
C40 C 0.99140(13) 0.67497(13) 0.35386(7)
H35 H 1.0296 0.6945 0.3834
C41 C 1.01365(14) 0.67519(13) 0.30082(8)
H36 H 1.0702 0.6953 0.2862
C42 C 0.93606(13) 0.63933(12) 0.27056(7)
C43 C 0.93026(13) 0.62733(13) 0.21389(7)
C44 C 0.85301(13) 0.59845(12) 0.18347(7)
C45 C 0.84878(13) 0.58664(13) 0.12514(7)
H37 H 0.8974 0.5980 0.1008
C46 C 0.76367(13) 0.55665(13) 0.11172(7)
H38 H 0.7407 0.5439 0.0761
C47 C 0.71351(13) 0.54730(12) 0.16154(7)
C48 C 0.62199(13) 0.51726(12) 0.16536(7)
C49 C 0.57292(13) 0.50498(12) 0.21345(7)
C50 C 0.48384(13) 0.46362(13) 0.21756(7)
H39 H 0.4476 0.4399 0.1884
C51 C 0.46107(14) 0.46462(13) 0.27030(7)
H40 H 0.4059 0.4418 0.2851
C52 C 0.53583(13) 0.50678(12) 0.30017(7)
C53 C 0.45565(14) 0.49944(13) 0.38838(7)
C54 C 0.29338(13) 0.51831(14) 0.39498(8)
H41 H 0.2941 0.5525 0.4290
H42 H 0.2885 0.4562 0.4044
C55 C 0.21250(14) 0.54482(15) 0.35903(8)
H43 H 0.1545 0.5349 0.3781
H44 H 0.2123 0.5105 0.3255
H45 H 0.2179 0.6064 0.3500
C56 C 0.89972(13) 0.64540(13) 0.45851(7)
C57 C 1.03317(13) 0.61072(14) 0.51299(7)
H46 H 1.0039 0.5735 0.5405
H47 H 1.0333 0.6712 0.5263
C58 C 1.13076(14) 0.58101(15) 0.50332(8)
H48 H 1.1674 0.5842 0.5374
H49 H 1.1589 0.6183 0.4761
H50 H 1.1296 0.5211 0.4902
C59 C 1.01654(14) 0.64370(13) 0.18263(7)
C60 C 1.17499(13) 0.60738(15) 0.17352(8)
H51 H 1.1894 0.6684 0.1649
H52 H 1.1675 0.5749 0.1390
C61 C 1.25177(14) 0.56842(16) 0.20832(8)
H53 H 1.3102 0.5707 0.1888
H54 H 1.2366 0.5080 0.2165
H55 H 1.2584 0.6011 0.2423
C62 C 0.57184(13) 0.49760(13) 0.11230(7)
C63 C 0.43650(14) 0.52343(14) 0.05860(7)
H56 H 0.4398 0.4626 0.0462
H57 H 0.4641 0.5609 0.0306
C64 C 0.33776(14) 0.54867(15) 0.06706(8)
H58 H 0.3021 0.5424 0.0328
H59 H 0.3353 0.6090 0.0792
H60 H 0.3111 0.5111 0.0947
loop_
_geom_bond_atom_site_label_1
_geom_bond_atom_site_label_2
_geom_bond_site_symmetry_1
_geom_bond_site_symmetry_2
N1 C2 1_555 1_555
N2 H1 1_555 1_555
N3 C12 1_555 1_555
N4 H2 1_555 1_555
O1 C21 1_555 1_555
O2 C21 1_555 1_555
O3 C24 1_555 1_555
O4 C24 1_555 1_555
O5 C27 1_555 1_555
O6 C27 1_555 1_555
O7 C30 1_555 1_555
O8 C30 1_555 1_555
C1 C2 1_555 1_555
C2 C3 1_555 1_555
C3 H3 1_555 1_555
C4 C3 1_555 1_555
H4 C4 1_555 1_555
C5 N1 1_555 1_555
C6 C5 1_555 1_555
C7 N2 1_555 1_555
C8 C7 1_555 1_555
H5 C8 1_555 1_555
C9 C8 1_555 1_555
H6 C9 1_555 1_555
C10 N2 1_555 1_555
C11 C10 1_555 1_555
C12 C11 1_555 1_555
C13 C12 1_555 1_555
H7 C13 1_555 1_555
C14 C13 1_555 1_555
H8 C14 1_555 1_555
C15 N3 1_555 1_555
C16 C15 1_555 1_555
C17 N4 1_555 1_555
C18 C17 1_555 1_555
H9 C18 1_555 1_555
C19 C18 1_555 1_555
H10 C19 1_555 1_555
C20 N4 1_555 1_555
C21 C1 1_555 1_555
C22 O2 1_555 1_555
H11 C22 1_555 1_555
H12 C22 1_555 1_555
C23 C22 1_555 1_555
H13 C23 1_555 1_555
H14 C23 1_555 1_555
H15 C23 1_555 1_555
C24 C6 1_555 1_555
C25 O4 1_555 1_555
H16 C25 1_555 1_555
H17 C25 1_555 1_555
C26 C25 1_555 1_555
H18 C26 1_555 1_555
H19 C26 1_555 1_555
H20 C26 1_555 1_555
C27 C11 1_555 1_555
C28 O6 1_555 1_555
H21 C28 1_555 1_555
H22 C28 1_555 1_555
C29 C28 1_555 1_555
H23 C29 1_555 1_555
H24 C29 1_555 1_555
H25 C29 1_555 1_555
C30 C16 1_555 1_555
C31 O8 1_555 1_555
H26 C31 1_555 1_555
H27 C31 1_555 1_555
C32 C31 1_555 1_555
H28 C32 1_555 1_555
H29 C32 1_555 1_555
H30 C32 1_555 1_555
N5 C34 1_555 1_555
N6 H31 1_555 1_555
N7 C44 1_555 1_555
N8 H32 1_555 1_555
O9 C53 1_555 1_555
O10 C53 1_555 1_555
O11 C56 1_555 1_555
O12 C56 1_555 1_555
O13 C59 1_555 1_555
O14 C59 1_555 1_555
O15 C62 1_555 1_555
O16 C62 1_555 1_555
C33 C34 1_555 1_555
C34 C35 1_555 1_555
C35 H33 1_555 1_555
C36 C35 1_555 1_555
H34 C36 1_555 1_555
C37 N5 1_555 1_555
C38 C37 1_555 1_555
C39 N6 1_555 1_555
C40 C39 1_555 1_555
H35 C40 1_555 1_555
C41 C40 1_555 1_555
H36 C41 1_555 1_555
C42 N6 1_555 1_555
C43 C42 1_555 1_555
C44 C43 1_555 1_555
C45 C44 1_555 1_555
H37 C45 1_555 1_555
C46 C45 1_555 1_555
H38 C46 1_555 1_555
C47 N7 1_555 1_555
C48 C47 1_555 1_555
C49 N8 1_555 1_555
C50 C49 1_555 1_555
H39 C50 1_555 1_555
C51 C50 1_555 1_555
H40 C51 1_555 1_555
C52 N8 1_555 1_555
C53 C33 1_555 1_555
C54 O10 1_555 1_555
H41 C54 1_555 1_555
H42 C54 1_555 1_555
C55 C54 1_555 1_555
H43 C55 1_555 1_555
H44 C55 1_555 1_555
H45 C55 1_555 1_555
C56 C38 1_555 1_555
C57 O12 1_555 1_555
H46 C57 1_555 1_555
H47 C57 1_555 1_555
C58 C57 1_555 1_555
H48 C58 1_555 1_555
H49 C58 1_555 1_555
H50 C58 1_555 1_555
C59 C43 1_555 1_555
C60 O14 1_555 1_555
H51 C60 1_555 1_555
H52 C60 1_555 1_555
C61 C60 1_555 1_555
H53 C61 1_555 1_555
H54 C61 1_555 1_555
H55 C61 1_555 1_555
C62 C48 1_555 1_555
C63 O16 1_555 1_555
H56 C63 1_555 1_555
H57 C63 1_555 1_555
C64 C63 1_555 1_555
H58 C64 1_555 1_555
H59 C64 1_555 1_555
H60 C64 1_555 1_555
C1 C20 1_555 1_555
C4 C5 1_555 1_555
C6 C7 1_555 1_555
C9 C10 1_555 1_555
C14 C15 1_555 1_555
C16 C17 1_555 1_555
C19 C20 1_555 1_555
C33 C52 1_555 1_555
C36 C37 1_555 1_555
C38 C39 1_555 1_555
C41 C42 1_555 1_555
C46 C47 1_555 1_555
C48 C49 1_555 1_555
C51 C52 1_555 1_555

#END
