
#######################################################################
#
#                 Cambridge Crystallographic Data Centre
#                                CCDC 
#
#######################################################################
#
# If this CIF has been generated from an entry in the Cambridge 
# Structural Database, then it will include bibliographic, chemical, 
# crystal, experimental, refinement or atomic coordinate data resulting 
# from the CCDC's data processing and validation procedures.
#
#######################################################################

data_XIQYOM
_chemical_formula_moiety         'C36 H46'
_chemical_name_systematic        
6,6,12,12-Tetrabutyl-6,12-dihydroindeno(1,2-b)fluorene
_symmetry_cell_setting           triclinic
_symmetry_space_group_name_H-M   'P -1'
_symmetry_Int_Tables_number      2
_space_group_name_Hall           '-P 1'
loop_
_symmetry_equiv_pos_site_id
_symmetry_equiv_pos_as_xyz
1 x,y,z
2 -x,-y,-z
_cell_length_a                   9.3461(10)
_cell_length_b                   13.8709(16)
_cell_length_c                   19.126(2)
_cell_angle_alpha                109.770(2)
_cell_angle_beta                 91.533(2)
_cell_angle_gamma                98.890(2)
_cell_volume                     2296.95
_exptl_crystal_colour            colorless
_exptl_crystal_description       block
_cell_formula_units_Z            3
_exptl_crystal_recrystallization_method hexane
loop_
_atom_site_label
_atom_site_type_symbol
_atom_site_fract_x
_atom_site_fract_y
_atom_site_fract_z
C1 C 0.86688(19) 0.33616(14) 0.06055(11)
C2 C 0.8357(2) 0.39917(15) 0.12990(11)
H1 H 0.8114 0.4641 0.1366
C3 C 0.84166(19) 0.36323(14) 0.18870(10)
C4 C 0.87744(19) 0.26511(14) 0.17840(10)
C5 C 0.9109(2) 0.20243(15) 0.10918(11)
H2 H 0.9361 0.1378 0.1026
C6 C 0.90548(19) 0.23873(14) 0.05051(10)
C7 C 0.8674(2) 0.35190(15) -0.01159(11)
C8 C 0.9103(2) 0.26664(16) -0.06418(11)
C9 C 0.9396(2) 0.18668(16) -0.02955(11)
C10 C 0.8348(2) 0.43364(18) -0.03174(13)
H3 H 0.8052 0.4904 0.0032
C11 C 0.8468(3) 0.4295(2) -0.10420(14)
H4 H 0.8250 0.4838 -0.1184
C12 C 0.8910(3) 0.3454(2) -0.15603(14)
H5 H 0.8995 0.3436 -0.2048
C13 C 0.9228(3) 0.2639(2) -0.13616(13)
H6 H 0.9525 0.2073 -0.1713
C14 C 0.8721(2) 0.24748(15) 0.24988(11)
C15 C 0.8319(2) 0.33416(16) 0.30290(11)
C16 C 0.8195(3) 0.33727(19) 0.37515(13)
H7 H 0.7927 0.3948 0.4107
C17 C 0.8471(3) 0.2541(2) 0.39439(14)
H8 H 0.8386 0.2556 0.4431
C18 C 0.8871(3) 0.1689(2) 0.34215(14)
H9 H 0.9059 0.1136 0.3560
C19 C 0.8999(3) 0.16453(18) 0.26960(13)
H10 H 0.9267 0.1067 0.2344
C20 C 0.8075(2) 0.41519(16) 0.26874(11)
C21 C 0.9087(3) 0.52070(17) 0.30862(13)
H11 H 0.8944 0.5669 0.2817
H12 H 0.8771 0.5505 0.3581
C22 C 1.0685(3) 0.52027(19) 0.31688(15)
H13 H 1.1057 0.5019 0.2681
H14 H 1.0843 0.4678 0.3379
C23 C 1.1519(4) 0.6253(2) 0.3667(2)
H15 H 1.1449 0.6750 0.3418
H16 H 1.1034 0.6476 0.4122
C24 C 1.3047(4) 0.6309(3) 0.3872(3)
H17 H 1.3460 0.7009 0.4177
H18 H 1.3552 0.6103 0.3429
H19 H 1.3138 0.5851 0.4145
C25 C 0.6489(2) 0.43351(19) 0.27190(13)
H20 H 0.6313 0.4650 0.3238
H21 H 0.6381 0.4834 0.2476
C26 C 0.5333(2) 0.3389(2) 0.23680(15)
H22 H 0.5399 0.2895 0.2621
H23 H 0.5504 0.3058 0.1850
C27 C 0.3819(3) 0.3656(3) 0.24077(18)
H24 H 0.3677 0.4024 0.2924
H25 H 0.3746 0.4123 0.2134
C28 C 0.2641(3) 0.2739(3) 0.2104(2)
H26 H 0.1716 0.2964 0.2150
H27 H 0.2692 0.2277 0.2378
H28 H 0.2753 0.2382 0.1588
C29 C 1.1007(3) 0.17308(18) -0.03278(13)
H29 H 1.1179 0.1279 -0.0054
H30 H 1.1179 0.1384 -0.0843
C30 C 1.2094(3) 0.2730(2) -0.00170(16)
H31 H 1.1938 0.3170 -0.0302
H32 H 1.1896 0.3087 0.0493
C31 C 1.3664(3) 0.2615(3) -0.00196(19)
H33 H 1.3842 0.2208 0.0288
H34 H 1.3862 0.2233 -0.0524
C32 C 1.4691(3) 0.3631(3) 0.0260(3)
H35 H 1.5673 0.3505 0.0249
H36 H 1.4513 0.4010 0.0763
H37 H 1.4545 0.4030 -0.0051
C33 C 0.8398(3) 0.08067(16) -0.06763(12)
H38 H 0.8666 0.0512 -0.1181
H39 H 0.8586 0.0344 -0.0414
C34 C 0.6789(3) 0.08225(17) -0.07107(13)
H40 H 0.6590 0.1279 -0.0976
H41 H 0.6510 0.1111 -0.0207
C35 C 0.5864(3) -0.0238(2) -0.10898(15)
H42 H 0.6178 -0.0539 -0.1584
H43 H 0.6035 -0.0684 -0.0811
C36 C 0.4255(4) -0.0236(3) -0.11615(18)
H44 H 0.3749 -0.0933 -0.1411
H45 H 0.4068 0.0193 -0.1445
H46 H 0.3921 0.0035 -0.0674
C37 C 0.6210(3) 0.98828(18) 0.63719(12)
C38 C 0.5453(3) 0.99045(17) 0.56621(11)
C39 C 0.4013(3) 0.95641(18) 0.54012(12)
H47 H 0.3360 0.9277 0.5666
C40 C 0.6441(3) 1.03419(16) 0.52658(11)
C41 C 0.7880(3) 1.06312(18) 0.56795(12)
C42 C 0.9215(3) 1.1072(2) 0.55217(16)
H48 H 0.9296 1.1241 0.5092
C43 C 1.0414(4) 1.1254(2) 0.60106(19)
H49 H 1.1312 1.1550 0.5911
C44 C 1.0293(4) 1.1002(3) 0.66486(19)
H50 H 1.1113 1.1136 0.6976
C45 C 0.8975(4) 1.0554(2) 0.68080(15)
H51 H 0.8906 1.0377 0.7235
C46 C 0.7754(3) 1.03730(18) 0.63216(13)
C47 C 0.5534(3) 1.0514(2) 0.70709(12)
H52 H 0.4577 1.0134 0.7082
H53 H 0.6122 1.0549 0.7507
C48 C 0.5380(3) 1.1608(2) 0.71386(14)
H54 H 0.4793 1.1583 0.6705
H55 H 0.6335 1.2000 0.7139
C49 C 0.4697(4) 1.2174(2) 0.78313(17)
H56 H 0.3799 1.1739 0.7861
H57 H 0.5344 1.2269 0.8263
C50 C 0.4372(5) 1.3211(3) 0.7870(2)
H58 H 0.3948 1.3519 0.8327
H59 H 0.3703 1.3126 0.7455
H60 H 0.5256 1.3656 0.7853
C51 C 0.6121(4) 0.8759(2) 0.63600(13)
H61 H 0.6642 0.8779 0.6812
H62 H 0.5110 0.8473 0.6371
C52 C 0.6722(4) 0.8023(2) 0.56967(15)
H63 H 0.6101 0.7916 0.5253
H64 H 0.7676 0.8361 0.5637
C53 C 0.686(2) 0.6976(11) 0.5734(9)
H65 H 0.7536 0.7074 0.6155
H66 H 0.5919 0.6649 0.5824
C54 C 0.735(2) 0.6267(11) 0.5054(10)
H67 H 0.7428 0.5620 0.5120
H68 H 0.8287 0.6579 0.4963
H69 H 0.6668 0.6141 0.4637
C37A C 0.3790(3) 1.01172(18) 0.36281(12)
C38A C 0.4547(3) 1.00955(17) 0.43379(11)
C39A C 0.5987(3) 1.04359(18) 0.45988(12)
H47A H 0.6640 1.0723 0.4334
C40A C 0.3559(3) 0.96581(16) 0.47342(11)
C41A C 0.2120(3) 0.93688(18) 0.43205(12)
C42A C 0.0785(3) 0.8928(2) 0.44783(16)
H48A H 0.0704 0.8759 0.4908
C43A C -0.0414(4) 0.8746(2) 0.39894(19)
H49A H -0.1312 0.8450 0.4089
C44A C -0.0293(4) 0.8998(3) 0.33514(19)
H50A H -0.1113 0.8864 0.3024
C45A C 0.1025(4) 0.9446(2) 0.31920(15)
H51A H 0.1094 0.9623 0.2765
C46A C 0.2246(3) 0.96270(18) 0.36784(13)
C47A C 0.4466(3) 0.9486(2) 0.29291(12)
H52A H 0.5423 0.9866 0.2918
H53A H 0.3878 0.9451 0.2493
C48A C 0.4620(3) 0.8392(2) 0.28614(14)
H54A H 0.5207 0.8417 0.3295
H55A H 0.3665 0.8000 0.2861
C49A C 0.5303(4) 0.7826(2) 0.21687(17)
H56A H 0.6201 0.8261 0.2139
H57A H 0.4656 0.7731 0.1737
C50A C 0.5628(5) 0.6789(3) 0.2130(2)
H58A H 0.6052 0.6481 0.1673
H59A H 0.6297 0.6874 0.2545
H60A H 0.4744 0.6344 0.2147
C51A C 0.3879(4) 1.1241(2) 0.36400(13)
H61A H 0.3358 1.1221 0.3188
H62A H 0.4890 1.1527 0.3629
C52A C 0.3278(4) 1.1977(2) 0.43033(15)
H63A H 0.3899 1.2084 0.4747
H64A H 0.2324 1.1639 0.4363
C53A C 0.314(2) 1.3024(11) 0.4266(9)
H65A H 0.2464 1.2926 0.3845
H66A H 0.4081 1.3351 0.4176
C54A C 0.265(2) 1.3733(11) 0.4946(10)
H67A H 0.2572 1.4380 0.4880
H68A H 0.1713 1.3421 0.5037
H69A H 0.3332 1.3859 0.5363
C55? C 0.6722(4) 0.8023(2) 0.56967(15)
H70? H 0.7776 0.8174 0.5755
H71? H 0.6401 0.8121 0.5243
C56? C 0.619(2) 0.6880(17) 0.5639(12)
H72? H 0.6455 0.6808 0.6110
H73? H 0.5136 0.6734 0.5561
C57? C 0.676(3) 0.612(2) 0.5053(14)
H74? H 0.6404 0.5439 0.5066
H75? H 0.7800 0.6259 0.5122
H76? H 0.6449 0.6154 0.4581
loop_
_geom_bond_atom_site_label_1
_geom_bond_atom_site_label_2
_geom_bond_site_symmetry_1
_geom_bond_site_symmetry_2
C1 C2 1_555 1_555
C2 H1 1_555 1_555
C3 C2 1_555 1_555
C4 C3 1_555 1_555
C5 C4 1_555 1_555
H2 C5 1_555 1_555
C6 C1 1_555 1_555
C7 C1 1_555 1_555
C8 C7 1_555 1_555
C9 C6 1_555 1_555
C10 C7 1_555 1_555
H3 C10 1_555 1_555
C11 C10 1_555 1_555
H4 C11 1_555 1_555
C12 C11 1_555 1_555
H5 C12 1_555 1_555
C13 C8 1_555 1_555
H6 C13 1_555 1_555
C14 C4 1_555 1_555
C15 C14 1_555 1_555
C16 C15 1_555 1_555
H7 C16 1_555 1_555
C17 C16 1_555 1_555
H8 C17 1_555 1_555
C18 C17 1_555 1_555
H9 C18 1_555 1_555
C19 C14 1_555 1_555
H10 C19 1_555 1_555
C20 C3 1_555 1_555
C21 C20 1_555 1_555
H11 C21 1_555 1_555
H12 C21 1_555 1_555
C22 C21 1_555 1_555
H13 C22 1_555 1_555
H14 C22 1_555 1_555
C23 C22 1_555 1_555
H15 C23 1_555 1_555
H16 C23 1_555 1_555
C24 C23 1_555 1_555
H17 C24 1_555 1_555
H18 C24 1_555 1_555
H19 C24 1_555 1_555
C25 C20 1_555 1_555
H20 C25 1_555 1_555
H21 C25 1_555 1_555
C26 C25 1_555 1_555
H22 C26 1_555 1_555
H23 C26 1_555 1_555
C27 C26 1_555 1_555
H24 C27 1_555 1_555
H25 C27 1_555 1_555
C28 C27 1_555 1_555
H26 C28 1_555 1_555
H27 C28 1_555 1_555
H28 C28 1_555 1_555
C29 C9 1_555 1_555
H29 C29 1_555 1_555
H30 C29 1_555 1_555
C30 C29 1_555 1_555
H31 C30 1_555 1_555
H32 C30 1_555 1_555
C31 C30 1_555 1_555
H33 C31 1_555 1_555
H34 C31 1_555 1_555
C32 C31 1_555 1_555
H35 C32 1_555 1_555
H36 C32 1_555 1_555
H37 C32 1_555 1_555
C33 C9 1_555 1_555
H38 C33 1_555 1_555
H39 C33 1_555 1_555
C34 C33 1_555 1_555
H40 C34 1_555 1_555
H41 C34 1_555 1_555
C35 C34 1_555 1_555
H42 C35 1_555 1_555
H43 C35 1_555 1_555
C36 C35 1_555 1_555
H44 C36 1_555 1_555
H45 C36 1_555 1_555
H46 C36 1_555 1_555
C37 C38 1_555 1_555
C38 C39 1_555 1_555
C39 H47 1_555 1_555
C40 C38 1_555 1_555
C41 C40 1_555 1_555
C42 C41 1_555 1_555
H48 C42 1_555 1_555
C43 C42 1_555 1_555
H49 C43 1_555 1_555
C44 C43 1_555 1_555
H50 C44 1_555 1_555
C45 C44 1_555 1_555
H51 C45 1_555 1_555
C46 C37 1_555 1_555
C47 C37 1_555 1_555
H52 C47 1_555 1_555
H53 C47 1_555 1_555
C48 C47 1_555 1_555
H54 C48 1_555 1_555
H55 C48 1_555 1_555
C49 C48 1_555 1_555
H56 C49 1_555 1_555
H57 C49 1_555 1_555
C50 C49 1_555 1_555
H58 C50 1_555 1_555
H59 C50 1_555 1_555
H60 C50 1_555 1_555
C51 C37 1_555 1_555
H61 C51 1_555 1_555
H62 C51 1_555 1_555
C52 C51 1_555 1_555
H63 C52 1_555 1_555
H64 C52 1_555 1_555
C53 C52 1_555 1_555
H65 C53 1_555 1_555
H66 C53 1_555 1_555
C54 C53 1_555 1_555
H67 C54 1_555 1_555
H68 C54 1_555 1_555
H69 C54 1_555 1_555
C37A C38A 1_555 1_555
C38A C39A 1_555 1_555
C39A C40 1_555 1_555
H47A C39A 1_555 1_555
C40A C39 1_555 1_555
C41A C40A 1_555 1_555
C42A C41A 1_555 1_555
H48A C42A 1_555 1_555
C43A C42A 1_555 1_555
H49A C43A 1_555 1_555
C44A C43A 1_555 1_555
H50A C44A 1_555 1_555
C45A C44A 1_555 1_555
H51A C45A 1_555 1_555
C46A C37A 1_555 1_555
C47A C37A 1_555 1_555
H52A C47A 1_555 1_555
H53A C47A 1_555 1_555
C48A C47A 1_555 1_555
H54A C48A 1_555 1_555
H55A C48A 1_555 1_555
C49A C48A 1_555 1_555
H56A C49A 1_555 1_555
H57A C49A 1_555 1_555
C50A C49A 1_555 1_555
H58A C50A 1_555 1_555
H59A C50A 1_555 1_555
H60A C50A 1_555 1_555
C51A C37A 1_555 1_555
H61A C51A 1_555 1_555
H62A C51A 1_555 1_555
C52A C51A 1_555 1_555
H63A C52A 1_555 1_555
H64A C52A 1_555 1_555
C53A C52A 1_555 1_555
H65A C53A 1_555 1_555
H66A C53A 1_555 1_555
C54A C53A 1_555 1_555
H67A C54A 1_555 1_555
H68A C54A 1_555 1_555
H69A C54A 1_555 1_555
C5 C6 1_555 1_555
C8 C9 1_555 1_555
C12 C13 1_555 1_555
C15 C20 1_555 1_555
C18 C19 1_555 1_555
C41 C46 1_555 1_555
C45 C46 1_555 1_555
C38A C40A 1_555 1_555
C41A C46A 1_555 1_555
C45A C46A 1_555 1_555

#END
