
#######################################################################
#
#                 Cambridge Crystallographic Data Centre
#                                CCDC 
#
#######################################################################
#
# If this CIF has been generated from an entry in the Cambridge 
# Structural Database, then it will include bibliographic, chemical, 
# crystal, experimental, refinement or atomic coordinate data resulting 
# from the CCDC's data processing and validation procedures.
#
#######################################################################

data_XIRCOS
_chemical_formula_moiety         'C31 H56 B2 P2'
_chemical_name_systematic        
1,3-bis(2,4,6-triisopropylphenyl)-1,3-diphospha-1,3-diboranepropane
_symmetry_cell_setting           monoclinic
_symmetry_space_group_name_H-M   'P 21/n'
_symmetry_Int_Tables_number      14
_space_group_name_Hall           '-P 2yn'
loop_
_symmetry_equiv_pos_site_id
_symmetry_equiv_pos_as_xyz
1 x,y,z
2 1/2-x,1/2+y,1/2-z
3 -x,-y,-z
4 1/2+x,1/2-y,1/2+z
_cell_length_a                   9.2548(7)
_cell_length_b                   24.9766(18)
_cell_length_c                   14.0908(10)
_cell_angle_alpha                90
_cell_angle_beta                 91.1830(10)
_cell_angle_gamma                90
_cell_volume                     3256.44
_exptl_crystal_colour            colorless
_exptl_crystal_description       block
_cell_formula_units_Z            4
loop_
_atom_site_label
_atom_site_type_symbol
_atom_site_fract_x
_atom_site_fract_y
_atom_site_fract_z
P1 P 1.03007(6) 0.15764(2) 0.65032(4)
P2 P 0.86253(6) 0.08745(2) 0.78832(4)
B1 B 0.9027(3) 0.21222(12) 0.5998(2)
H1 H 0.9559 0.2448 0.5917
H2 H 0.8256 0.2182 0.6431
H3 H 0.8633 0.2008 0.5397
B2 B 0.7303(3) 0.02881(12) 0.8058(2)
H4 H 0.6949 0.0296 0.8693
H5 H 0.7795 -0.0044 0.7954
H6 H 0.6507 0.0321 0.7614
C1 C 0.9430(2) 0.09258(9) 0.67049(16)
H7 H 0.8681 0.0871 0.6223
H8 H 1.0141 0.0644 0.6638
C2 C 1.2060(2) 0.14379(9) 0.59994(16)
C3 C 1.2093(2) 0.12291(9) 0.50673(16)
C4 C 1.3428(3) 0.11103(10) 0.46726(17)
H9 H 1.3454 0.0970 0.4062
C5 C 1.4719(2) 0.11965(10) 0.51700(17)
C6 C 1.4662(2) 0.14035(10) 0.60862(17)
H10 H 1.5525 0.1462 0.6421
C7 C 1.3362(2) 0.15266(9) 0.65227(16)
C8 C 1.0737(2) 0.11533(10) 0.44531(17)
H11 H 0.9900 0.1190 0.4863
C9 C 1.0664(3) 0.05987(11) 0.39932(19)
H12 H 1.0714 0.0329 0.4478
H13 H 1.1460 0.0556 0.3574
H14 H 0.9771 0.0563 0.3639
C10 C 1.0643(3) 0.15967(12) 0.37020(19)
H15 H 1.0682 0.1940 0.4008
H16 H 0.9751 0.1564 0.3347
H17 H 1.1439 0.1564 0.3280
C11 C 1.6177(3) 0.10675(10) 0.47465(18)
H18 H 1.6909 0.1276 0.5097
C12 C 1.6276(3) 0.12201(12) 0.37009(19)
H19 H 1.6040 0.1592 0.3623
H20 H 1.5610 0.1007 0.3332
H21 H 1.7241 0.1158 0.3490
C13 C 1.6550(3) 0.04757(11) 0.48790(19)
H22 H 1.6490 0.0383 0.5538
H23 H 1.7513 0.0411 0.4667
H24 H 1.5880 0.0261 0.4515
C14 C 1.3390(2) 0.17653(10) 0.75246(17)
H25 H 1.2616 0.1593 0.7878
C15 C 1.4801(3) 0.16714(12) 0.80779(18)
H26 H 1.5004 0.1295 0.8102
H27 H 1.4714 0.1807 0.8712
H28 H 1.5574 0.1854 0.7769
C16 C 1.3063(3) 0.23685(11) 0.7490(2)
H29 H 1.2172 0.2428 0.7145
H30 H 1.3833 0.2551 0.7179
H31 H 1.2980 0.2503 0.8125
C17 C 1.0079(2) 0.10004(9) 0.87433(16)
C18 C 1.1182(2) 0.06158(9) 0.88434(16)
C19 C 1.2330(3) 0.07105(10) 0.94835(17)
H32 H 1.3044 0.0451 0.9559
C20 C 1.2434(3) 0.11784(10) 1.00075(17)
C21 C 1.1333(3) 0.15551(10) 0.98931(17)
H33 H 1.1396 0.1872 1.0237
C22 C 1.0153(3) 0.14790(10) 0.92918(17)
C23 C 1.1221(3) 0.00974(9) 0.82737(17)
H34 H 1.0372 0.0095 0.7847
C24 C 1.2566(3) 0.00808(10) 0.76545(18)
H35 H 1.2587 0.0394 0.7260
H36 H 1.2534 -0.0233 0.7262
H37 H 1.3419 0.0071 0.8054
C25 C 1.1125(3) -0.03944(10) 0.89127(18)
H38 H 1.0270 -0.0372 0.9285
H39 H 1.1961 -0.0409 0.9327
H40 H 1.1084 -0.0712 0.8528
C26 C 1.3692(3) 0.12994(11) 1.06891(18)
H41 H 1.4135 0.1634 1.0476
C27 C 1.4870(3) 0.08754(12) 1.0711(2)
H42 H 1.5618 0.0979 1.1156
H43 H 1.5269 0.0841 1.0090
H44 H 1.4466 0.0539 1.0900
C28 C 1.3140(3) 0.13977(12) 1.16926(19)
H45 H 1.3943 0.1473 1.2114
H46 H 1.2643 0.1085 1.1909
H47 H 1.2489 0.1697 1.1683
C29 C 0.8970(3) 0.19053(11) 0.9264(2)
H48 H 0.8595 0.1930 0.8610
C30 C 0.7769(3) 0.17487(15) 0.9870(3)
H49 H 0.7409 0.1405 0.9673
H50 H 0.7010 0.2009 0.9814
H51 H 0.8104 0.1730 1.0518
C31 C 0.9546(4) 0.24675(13) 0.9557(3)
H52 H 0.8769 0.2722 0.9527
H53 H 1.0289 0.2575 0.9132
H54 H 0.9936 0.2453 1.0193
H55 H 1.064(3) 0.1710(10) 0.7367(17)
H56 H 0.785(3) 0.1323(10) 0.7883(19)
loop_
_geom_bond_atom_site_label_1
_geom_bond_atom_site_label_2
_geom_bond_site_symmetry_1
_geom_bond_site_symmetry_2
P1 B1 1_555 1_555
P2 B2 1_555 1_555
B1 H1 1_555 1_555
H2 B1 1_555 1_555
H3 B1 1_555 1_555
B2 H4 1_555 1_555
H5 B2 1_555 1_555
H6 B2 1_555 1_555
C1 P1 1_555 1_555
H7 C1 1_555 1_555
H8 C1 1_555 1_555
C2 P1 1_555 1_555
C3 C2 1_555 1_555
C4 C3 1_555 1_555
H9 C4 1_555 1_555
C5 C4 1_555 1_555
C6 C5 1_555 1_555
H10 C6 1_555 1_555
C7 C2 1_555 1_555
C8 C3 1_555 1_555
H11 C8 1_555 1_555
C9 C8 1_555 1_555
H12 C9 1_555 1_555
H13 C9 1_555 1_555
H14 C9 1_555 1_555
C10 C8 1_555 1_555
H15 C10 1_555 1_555
H16 C10 1_555 1_555
H17 C10 1_555 1_555
C11 C5 1_555 1_555
H18 C11 1_555 1_555
C12 C11 1_555 1_555
H19 C12 1_555 1_555
H20 C12 1_555 1_555
H21 C12 1_555 1_555
C13 C11 1_555 1_555
H22 C13 1_555 1_555
H23 C13 1_555 1_555
H24 C13 1_555 1_555
C14 C7 1_555 1_555
H25 C14 1_555 1_555
C15 C14 1_555 1_555
H26 C15 1_555 1_555
H27 C15 1_555 1_555
H28 C15 1_555 1_555
C16 C14 1_555 1_555
H29 C16 1_555 1_555
H30 C16 1_555 1_555
H31 C16 1_555 1_555
C17 P2 1_555 1_555
C18 C17 1_555 1_555
C19 C18 1_555 1_555
H32 C19 1_555 1_555
C20 C19 1_555 1_555
C21 C20 1_555 1_555
H33 C21 1_555 1_555
C22 C17 1_555 1_555
C23 C18 1_555 1_555
H34 C23 1_555 1_555
C24 C23 1_555 1_555
H35 C24 1_555 1_555
H36 C24 1_555 1_555
H37 C24 1_555 1_555
C25 C23 1_555 1_555
H38 C25 1_555 1_555
H39 C25 1_555 1_555
H40 C25 1_555 1_555
C26 C20 1_555 1_555
H41 C26 1_555 1_555
C27 C26 1_555 1_555
H42 C27 1_555 1_555
H43 C27 1_555 1_555
H44 C27 1_555 1_555
C28 C26 1_555 1_555
H45 C28 1_555 1_555
H46 C28 1_555 1_555
H47 C28 1_555 1_555
C29 C22 1_555 1_555
H48 C29 1_555 1_555
C30 C29 1_555 1_555
H49 C30 1_555 1_555
H50 C30 1_555 1_555
H51 C30 1_555 1_555
C31 C29 1_555 1_555
H52 C31 1_555 1_555
H53 C31 1_555 1_555
H54 C31 1_555 1_555
H55 P1 1_555 1_555
H56 P2 1_555 1_555
P2 C1 1_555 1_555
C6 C7 1_555 1_555
C21 C22 1_555 1_555

#END
