
#######################################################################
#
#                 Cambridge Crystallographic Data Centre
#                                CCDC 
#
#######################################################################
#
# If this CIF has been generated from an entry in the Cambridge 
# Structural Database, then it will include bibliographic, chemical, 
# crystal, experimental, refinement or atomic coordinate data resulting 
# from the CCDC's data processing and validation procedures.
#
#######################################################################

data_XIRJAL
_chemical_formula_moiety         'C27 H20 N2'
_chemical_name_systematic        
3-(4-(diphenylamino)phenyl)-2-phenylacrylonitrile
_symmetry_cell_setting           monoclinic
_symmetry_space_group_name_H-M   'P 21/n'
_symmetry_Int_Tables_number      14
_space_group_name_Hall           '-P 2yn'
loop_
_symmetry_equiv_pos_site_id
_symmetry_equiv_pos_as_xyz
1 x,y,z
2 1/2-x,1/2+y,1/2-z
3 -x,-y,-z
4 1/2+x,1/2-y,1/2+z
_cell_length_a                   17.164(3)
_cell_length_b                   6.6995(13)
_cell_length_c                   19.809(4)
_cell_angle_alpha                90
_cell_angle_beta                 111.08(3)
_cell_angle_gamma                90
_cell_volume                     2125.41
_exptl_crystal_colour            yellow
_exptl_crystal_description       block
_cell_formula_units_Z            4
loop_
_atom_site_label
_atom_site_type_symbol
_atom_site_fract_x
_atom_site_fract_y
_atom_site_fract_z
C1 C 0.12451(10) 0.2971(2) 1.11003(9)
C2 C 0.10419(10) 0.2015(2) 0.98319(9)
H1 H 0.1065 0.0703 0.9992
C3 C 0.03779(11) 0.3953(3) 0.79244(9)
H2 H 0.0099 0.5045 0.7655
C4 C 0.05007(10) 0.3850(2) 0.86457(9)
H3 H 0.0310 0.4886 0.8858
C5 C 0.11418(9) 0.3404(2) 1.03439(9)
C6 C 0.11740(12) 0.0719(3) 0.87231(10)
H4 H 0.1434 -0.0398 0.8987
N1 N 0.05246(10) 0.2565(2) 0.68487(8)
C7 C 0.09034(10) 0.2232(2) 0.90687(9)
C8 C 0.06621(11) 0.2455(3) 0.75891(10)
C9 C 0.10665(12) 0.0835(3) 0.80033(10)
H5 H 0.1267 -0.0184 0.7791
C10 C -0.02074(11) 0.3497(3) 0.63669(9)
C11 C 0.16443(12) 0.4286(3) 1.16521(11)
H6 H 0.1856 0.5474 1.1545
C12 C 0.12121(13) 0.5460(3) 1.01817(10)
C13 C 0.09356(13) 0.1232(3) 1.12843(11)
H7 H 0.0662 0.0313 1.0925
C14 C 0.07646(14) 0.0262(3) 0.60048(12)
H8 H 0.0196 -0.0015 0.5818
C15 C 0.10255(15) 0.0838(4) 1.19893(12)
H9 H 0.0815 -0.0343 1.2102
C16 C 0.10715(11) 0.1589(3) 0.65603(10)
C17 C 0.14217(14) 0.2167(4) 1.25255(12)
H10 H 0.1476 0.1905 1.3001
C18 C 0.17365(14) 0.3883(4) 1.23559(12)
H11 H 0.2015 0.4785 1.2719
C19 C 0.21259(18) -0.0270(4) 0.59893(15)
H12 H 0.2482 -0.0900 0.5796
C20 C 0.24373(15) 0.1059(4) 0.65434(16)
H13 H 0.3006 0.1334 0.6727
C21 C -0.01473(14) 0.4939(3) 0.59017(12)
H14 H 0.0374 0.5302 0.5898
C22 C -0.09845(13) 0.3000(4) 0.63578(11)
H15 H -0.1042 0.2012 0.6666
C23 C 0.12921(18) -0.0670(3) 0.57197(13)
H16 H 0.1078 -0.1575 0.5342
C24 C 0.19130(13) 0.1996(3) 0.68326(13)
H17 H 0.2128 0.2900 0.7211
N2 N 0.12939(17) 0.7101(3) 1.00870(11)
C25 C -0.16181(17) 0.5369(4) 0.54364(13)
H18 H -0.2093 0.6002 0.5123
C26 C -0.16842(14) 0.3960(5) 0.58926(13)
H19 H -0.2208 0.3624 0.5896
C27 C -0.08553(18) 0.5859(4) 0.54368(14)
H20 H -0.0807 0.6832 0.5119
loop_
_geom_bond_atom_site_label_1
_geom_bond_atom_site_label_2
_geom_bond_site_symmetry_1
_geom_bond_site_symmetry_2
C1 C5 1_555 1_555
C2 H1 1_555 1_555
C3 H2 1_555 1_555
C4 C3 1_555 1_555
H3 C4 1_555 1_555
C5 C2 1_555 1_555
C6 H4 1_555 1_555
N1 C8 1_555 1_555
C7 C2 1_555 1_555
C8 C3 1_555 1_555
C9 C6 1_555 1_555
H5 C9 1_555 1_555
C10 N1 1_555 1_555
C11 C1 1_555 1_555
H6 C11 1_555 1_555
C12 C5 1_555 1_555
C13 C1 1_555 1_555
H7 C13 1_555 1_555
C14 H8 1_555 1_555
C15 C13 1_555 1_555
H9 C15 1_555 1_555
C16 N1 1_555 1_555
C17 C15 1_555 1_555
H10 C17 1_555 1_555
C18 C11 1_555 1_555
H11 C18 1_555 1_555
C19 H12 1_555 1_555
C20 C19 1_555 1_555
H13 C20 1_555 1_555
C21 C10 1_555 1_555
H14 C21 1_555 1_555
C22 C10 1_555 1_555
H15 C22 1_555 1_555
C23 C14 1_555 1_555
H16 C23 1_555 1_555
C24 C16 1_555 1_555
H17 C24 1_555 1_555
N2 C12 1_555 1_555
C25 H18 1_555 1_555
C26 C22 1_555 1_555
H19 C26 1_555 1_555
C27 C21 1_555 1_555
H20 C27 1_555 1_555
C4 C7 1_555 1_555
C6 C7 1_555 1_555
C8 C9 1_555 1_555
C14 C16 1_555 1_555
C17 C18 1_555 1_555
C19 C23 1_555 1_555
C20 C24 1_555 1_555
C25 C26 1_555 1_555
C25 C27 1_555 1_555

#END
