
#######################################################################
#
#                 Cambridge Crystallographic Data Centre
#                                CCDC 
#
#######################################################################
#
# If this CIF has been generated from an entry in the Cambridge 
# Structural Database, then it will include bibliographic, chemical, 
# crystal, experimental, refinement or atomic coordinate data resulting 
# from the CCDC's data processing and validation procedures.
#
#######################################################################

data_XIRKIU
_chemical_name_common            
'caffeine anthranilic acid chlorobenzene solvate'
_chemical_formula_moiety         'C8 H10 N4 O2,C7 H7 N1 O2,0.5(C6 H5 Cl1)'
_chemical_name_systematic        
'1,3,7-trimethyl-3,7-dihydro-1H-purine-2,6-dione 2-aminobenzoic acid chlorobenzene solvate'
_symmetry_cell_setting           triclinic
_symmetry_space_group_name_H-M   'P -1'
_symmetry_Int_Tables_number      2
_space_group_name_Hall           '-P 1'
loop_
_symmetry_equiv_pos_site_id
_symmetry_equiv_pos_as_xyz
1 x,y,z
2 -x,-y,-z
_cell_length_a                   12.4390(2)
_cell_length_b                   13.1409(2)
_cell_length_c                   13.2251(3)
_cell_angle_alpha                69.4390(10)
_cell_angle_beta                 80.418(1)
_cell_angle_gamma                63.557(1)
_cell_volume                     1812.17
_exptl_crystal_colour            colorless
_exptl_crystal_description       block
_cell_formula_units_Z            4
loop_
_atom_site_label
_atom_site_type_symbol
_atom_site_fract_x
_atom_site_fract_y
_atom_site_fract_z
C1 C 0.05856(13) 0.26720(14) 0.47104(12)
N1 N 0.03862(12) 0.31111(13) 0.67600(11)
H1 H 0.0311 0.3251 0.7378
H2 H 0.0672 0.3511 0.6187
O1 O 0.09519(11) 0.34170(11) 0.46407(9)
C2 C 0.01479(13) 0.20238(13) 0.57175(11)
O2 O 0.05422(9) 0.23839(10) 0.38596(8)
H3 H 0.0768 0.2805 0.3306
C3 C 0.00631(13) 0.22802(14) 0.66916(12)
C4 C -0.03931(14) 0.16447(14) 0.76147(12)
H4 H -0.0453 0.1796 0.8278
C5 C -0.07513(14) 0.08137(15) 0.75768(12)
H5 H -0.1063 0.0407 0.8212
C6 C -0.06677(14) 0.05530(14) 0.66250(12)
H6 H -0.0918 -0.0025 0.6603
C7 C -0.02140(13) 0.11530(13) 0.57195(12)
H7 H -0.0142 0.0972 0.5070
N2 N 0.90546(10) 0.67323(10) -0.05176(9)
N3 N 0.83064(10) 0.58144(11) 0.11398(9)
N4 N 0.79021(11) 0.50395(11) -0.11642(10)
O3 O 0.73102(9) 0.46567(9) 0.12726(8)
N5 N 0.87828(10) 0.62644(11) -0.20549(9)
O4 O 0.93270(9) 0.69263(9) 0.10470(8)
C8 C 0.78551(13) 0.52418(13) 0.07088(12)
C9 C 0.89221(13) 0.65236(13) 0.05771(12)
C10 C 0.86640(12) 0.61811(13) -0.09937(11)
C11 C 0.81257(12) 0.54405(13) -0.04138(12)
C12 C 0.83084(13) 0.55550(13) -0.21122(12)
H8 H 0.8264 0.5428 -0.2765
C13 C 0.96061(14) 0.75379(14) -0.11715(12)
H9 H 0.9888 0.7796 -0.0698
H10 H 0.9012 0.8239 -0.1671
H11 H 1.0287 0.7117 -0.1583
C14 C 0.73675(15) 0.41922(14) -0.09563(13)
H12 H 0.7441 0.3969 -0.1606
H13 H 0.6517 0.4565 -0.0764
H14 H 0.7787 0.3474 -0.0360
C15 C 0.81061(14) 0.56799(15) 0.23019(12)
H15 H 0.7706 0.6473 0.2399
H16 H 0.8880 0.5232 0.2671
H17 H 0.7600 0.5245 0.2608
N6 N 0.67731(11) -0.06460(11) 0.31045(9)
O5 O 0.82743(9) 0.16438(10) 0.12662(8)
N7 N 0.75884(11) 0.02257(11) 0.14650(9)
O6 O 0.68043(9) -0.10998(9) 0.15906(8)
N8 N 0.75448(11) 0.13598(11) 0.36638(9)
N9 N 0.68058(11) 0.00206(11) 0.45944(9)
C16 C 0.78169(13) 0.09781(14) 0.18454(12)
C17 C 0.70333(13) -0.05440(13) 0.20303(12)
C18 C 0.70006(12) 0.00371(13) 0.35485(11)
C19 C 0.74627(13) 0.08365(13) 0.29520(11)
C20 C 0.71532(13) 0.08391(13) 0.46198(12)
H18 H 0.7124 0.1032 0.5255
C21 C 0.62802(14) -0.15003(14) 0.37628(13)
H19 H 0.5887 -0.1666 0.3294
H20 H 0.5693 -0.1161 0.4281
H21 H 0.6931 -0.2246 0.4154
C22 C 0.79840(14) 0.22855(14) 0.34087(13)
H22 H 0.7786 0.2619 0.4006
H23 H 0.7604 0.2923 0.2748
H24 H 0.8857 0.1935 0.3301
C23 C 0.79694(15) 0.02269(16) 0.03485(12)
H25 H 0.8292 -0.0591 0.0316
H26 H 0.8592 0.0530 0.0118
H27 H 0.7279 0.0743 -0.0131
N10 N 0.36368(12) 0.08127(12) 0.06600(11)
H28 H 0.3613 0.0728 0.0034
H29 H 0.3343 0.0434 0.1243
O7 O 0.32649(10) 0.04094(10) 0.28059(9)
O8 O 0.38481(9) 0.13365(9) 0.35784(8)
H30 H 0.3592 0.0950 0.4136
C24 C 0.37163(13) 0.10893(14) 0.27311(12)
C25 C 0.41799(12) 0.16998(13) 0.17074(12)
C26 C 0.41228(13) 0.15231(14) 0.07260(12)
C27 C 0.45885(13) 0.21234(14) -0.02146(13)
H31 H 0.4556 0.2022 -0.0884
C28 C 0.50910(14) 0.28569(15) -0.01769(14)
H32 H 0.5404 0.3250 -0.0820
C29 C 0.51459(14) 0.30287(15) 0.07916(13)
H33 H 0.5494 0.3534 0.0813
C30 C 0.46910(13) 0.24588(13) 0.17087(13)
H34 H 0.4722 0.2580 0.2368
Cl1 Cl 0.41515(5) 0.74908(5) 0.31917(5)
C31 C 0.40109(15) 0.61564(16) 0.35184(14)
C32 C 0.29997(16) 0.60650(17) 0.40470(14)
H35 H 0.2388 0.6723 0.4246
C33 C 0.28707(19) 0.5008(2) 0.42921(15)
H36 H 0.2178 0.4931 0.4673
C34 C 0.3756(2) 0.40686(18) 0.39783(16)
H37 H 0.3668 0.3347 0.4128
C35 C 0.47619(18) 0.41811(18) 0.34500(17)
H38 H 0.5375 0.3526 0.3248
C36 C 0.49009(16) 0.52213(18) 0.32062(16)
H39 H 0.5596 0.5295 0.2830
loop_
_geom_bond_atom_site_label_1
_geom_bond_atom_site_label_2
_geom_bond_site_symmetry_1
_geom_bond_site_symmetry_2
C1 O1 1_555 1_555
N1 H1 1_555 1_555
H2 N1 1_555 1_555
C2 C1 1_555 1_555
O2 C1 1_555 1_555
H3 O2 1_555 1_555
C3 N1 1_555 1_555
C4 C3 1_555 1_555
H4 C4 1_555 1_555
C5 C4 1_555 1_555
H5 C5 1_555 1_555
C6 C5 1_555 1_555
H6 C6 1_555 1_555
C7 C2 1_555 1_555
H7 C7 1_555 1_555
N2 C9 1_555 1_555
N3 C8 1_555 1_555
N4 C11 1_555 1_555
O3 C8 1_555 1_555
N5 C10 1_555 1_555
O4 C9 1_555 1_555
C8 C11 1_555 1_555
C9 N3 1_555 1_555
C10 N2 1_555 1_555
C11 C10 1_555 1_555
C12 N4 1_555 1_555
H8 C12 1_555 1_555
C13 N2 1_555 1_555
H9 C13 1_555 1_555
H10 C13 1_555 1_555
H11 C13 1_555 1_555
C14 N4 1_555 1_555
H12 C14 1_555 1_555
H13 C14 1_555 1_555
H14 C14 1_555 1_555
C15 N3 1_555 1_555
H15 C15 1_555 1_555
H16 C15 1_555 1_555
H17 C15 1_555 1_555
N6 C17 1_555 1_555
O5 C16 1_555 1_555
N7 C16 1_555 1_555
O6 C17 1_555 1_555
N8 C19 1_555 1_555
N9 C18 1_555 1_555
C16 C19 1_555 1_555
C17 N7 1_555 1_555
C18 N6 1_555 1_555
C19 C18 1_555 1_555
C20 N8 1_555 1_555
H18 C20 1_555 1_555
C21 N6 1_555 1_555
H19 C21 1_555 1_555
H20 C21 1_555 1_555
H21 C21 1_555 1_555
C22 N8 1_555 1_555
H22 C22 1_555 1_555
H23 C22 1_555 1_555
H24 C22 1_555 1_555
C23 N7 1_555 1_555
H25 C23 1_555 1_555
H26 C23 1_555 1_555
H27 C23 1_555 1_555
N10 H28 1_555 1_555
H29 N10 1_555 1_555
O7 C24 1_555 1_555
O8 H30 1_555 1_555
C24 O8 1_555 1_555
C25 C24 1_555 1_555
C26 N10 1_555 1_555
C27 C26 1_555 1_555
H31 C27 1_555 1_555
C28 C27 1_555 1_555
H32 C28 1_555 1_555
C29 C28 1_555 1_555
H33 C29 1_555 1_555
C30 C25 1_555 1_555
H34 C30 1_555 1_555
Cl1 C31 1_555 1_555
C31 C32 1_555 1_555
C32 H35 1_555 1_555
C33 C32 1_555 1_555
H36 C33 1_555 1_555
C34 C33 1_555 1_555
H37 C34 1_555 1_555
C35 C34 1_555 1_555
H38 C35 1_555 1_555
C36 C31 1_555 1_555
H39 C36 1_555 1_555
C2 C3 1_555 1_555
C6 C7 1_555 1_555
N5 C12 1_555 1_555
N9 C20 1_555 1_555
C25 C26 1_555 1_555
C29 C30 1_555 1_555
C35 C36 1_555 1_555

#END
