
#######################################################################
#
#                 Cambridge Crystallographic Data Centre
#                                CCDC 
#
#######################################################################
#
# If this CIF has been generated from an entry in the Cambridge 
# Structural Database, then it will include bibliographic, chemical, 
# crystal, experimental, refinement or atomic coordinate data resulting 
# from the CCDC's data processing and validation procedures.
#
#######################################################################

data_XIRWAZ
_chemical_formula_moiety         'C10 H12 O5'
_chemical_name_systematic        
'2-(furan-2-yl)-5-methyl-1,3-dioxane-5-carboxylic acid'
_symmetry_cell_setting           monoclinic
_symmetry_space_group_name_H-M   'P 21/c'
_symmetry_Int_Tables_number      14
_space_group_name_Hall           '-P 2ybc'
loop_
_symmetry_equiv_pos_site_id
_symmetry_equiv_pos_as_xyz
1 x,y,z
2 -x,1/2+y,1/2-z
3 -x,-y,-z
4 x,1/2-y,1/2+z
_cell_length_a                   5.6706(16)
_cell_length_b                   32.091(9)
_cell_length_c                   6.5636(14)
_cell_angle_alpha                90
_cell_angle_beta                 123.733(17)
_cell_angle_gamma                90
_cell_volume                     993.315
_exptl_crystal_description       block
_cell_formula_units_Z            4
loop_
_atom_site_label
_atom_site_type_symbol
_atom_site_fract_x
_atom_site_fract_y
_atom_site_fract_z
O1 O 0.1742(2) -0.13452(3) -0.80129(18)
O2 O -0.3163(2) -0.12762(3) -1.00896(18)
O3 O -0.3698(2) -0.19894(4) -1.2770(2)
O4 O -0.2418(2) -0.02936(4) -0.9773(2)
O5 O 0.2246(2) -0.03427(4) -0.7735(3)
C1 C 0.0189(4) -0.06184(6) -0.4358(3)
H1 H 0.0184 -0.0834 -0.3347
H2 H -0.1353 -0.0430 -0.4846
H3 H 0.1950 -0.0469 -0.3452
C2 C -0.3411(4) -0.22090(5) -1.4410(3)
H4 H -0.4830 -0.2371 -1.5674
C3 C -0.0156(3) -0.08141(4) -0.6648(3)
C4 C -0.0865(3) -0.15549(4) -0.9183(3)
H5 H -0.0863 -0.1748 -0.8027
C5 C -0.1149(3) -0.17941(4) -1.1250(3)
C6 C 0.2236(3) -0.11237(5) -0.5907(3)
H6 H 0.4026 -0.0976 -0.5134
H7 H 0.2358 -0.1320 -0.4730
C7 C -0.2948(3) -0.10533(5) -0.8096(3)
H8 H -0.3056 -0.1248 -0.7021
H9 H -0.4521 -0.0860 -0.8731
C8 C -0.0100(3) -0.04637(4) -0.8186(3)
C9 C 0.0656(4) -0.18872(5) -1.1893(3)
H10 H 0.2511 -0.1793 -1.1143
C10 C -0.0824(4) -0.21589(5) -1.3951(3)
H11 H -0.0124 -0.2278 -1.4805
H12 H -0.229(8) 0.0006(13) -1.094(7)
loop_
_geom_bond_atom_site_label_1
_geom_bond_atom_site_label_2
_geom_bond_site_symmetry_1
_geom_bond_site_symmetry_2
O1 C4 1_555 1_555
O2 C4 1_555 1_555
O3 C2 1_555 1_555
O4 C8 1_555 1_555
O5 C8 1_555 1_555
C1 H1 1_555 1_555
H2 C1 1_555 1_555
H3 C1 1_555 1_555
C2 H4 1_555 1_555
C3 C1 1_555 1_555
C4 H5 1_555 1_555
C5 O3 1_555 1_555
C6 O1 1_555 1_555
H6 C6 1_555 1_555
H7 C6 1_555 1_555
C7 O2 1_555 1_555
H8 C7 1_555 1_555
H9 C7 1_555 1_555
C8 C3 1_555 1_555
C9 C5 1_555 1_555
H10 C9 1_555 1_555
C10 C2 1_555 1_555
H11 C10 1_555 1_555
H12 O4 1_555 1_555
C3 C6 1_555 1_555
C3 C7 1_555 1_555
C4 C5 1_555 1_555
C9 C10 1_555 1_555

#END
