
#######################################################################
#
#                 Cambridge Crystallographic Data Centre
#                                CCDC 
#
#######################################################################
#
# If this CIF has been generated from an entry in the Cambridge 
# Structural Database, then it will include bibliographic, chemical, 
# crystal, experimental, refinement or atomic coordinate data resulting 
# from the CCDC's data processing and validation procedures.
#
#######################################################################

data_XISLAO
_chemical_formula_moiety         'C33 H28 N2,2(C2 H6 O1)'
_chemical_name_systematic        
'2-(4-((4-t-butylphenyl)ethynyl)phenyl)-4,5-diphenyl-1H-imidazole ethanol solvate'
_symmetry_cell_setting           monoclinic
_symmetry_space_group_name_H-M   'P 21/c'
_symmetry_Int_Tables_number      14
_space_group_name_Hall           '-P 2ybc'
loop_
_symmetry_equiv_pos_site_id
_symmetry_equiv_pos_as_xyz
1 x,y,z
2 -x,1/2+y,1/2-z
3 -x,-y,-z
4 x,1/2-y,1/2+z
_cell_length_a                   11.0885(12)
_cell_length_b                   29.010(3)
_cell_length_c                   9.9651(10)
_cell_angle_alpha                90
_cell_angle_beta                 102.424(3)
_cell_angle_gamma                90
_cell_volume                     3130.48
_exptl_crystal_colour            'light yellow'
_exptl_crystal_description       block
_cell_formula_units_Z            4
loop_
_atom_site_label
_atom_site_type_symbol
_atom_site_fract_x
_atom_site_fract_y
_atom_site_fract_z
N1 N 0.48739(14) 0.41572(5) 0.57002(16)
H1 H 0.436(2) 0.4241(7) 0.618(2)
N2 N 0.58007(14) 0.40997(5) 0.39536(15)
C1 C 0.49046(16) 0.43092(6) 0.44188(19)
C2 C 0.63612(16) 0.38022(6) 0.49812(19)
C3 C 0.57825(16) 0.38300(6) 0.60770(19)
C4 C 0.40476(16) 0.46475(6) 0.36482(19)
C5 C 0.31623(18) 0.48679(6) 0.4228(2)
H2 H 0.3120 0.4802 0.5151
C6 C 0.23488(18) 0.51796(7) 0.3477(2)
H3 H 0.1755 0.5327 0.3890
C7 C 0.23864(17) 0.52808(6) 0.2119(2)
C8 C 0.32681(17) 0.50599(6) 0.1527(2)
H4 H 0.3304 0.5124 0.0602
C9 C 0.40842(17) 0.47492(6) 0.22816(19)
H5 H 0.4679 0.4602 0.1870
C10 C 0.15245(18) 0.56045(7) 0.1344(2)
C11 C 0.08022(18) 0.58717(7) 0.0693(2)
C12 C -0.00846(17) 0.61674(7) -0.01517(19)
C13 C 0.00539(18) 0.66439(7) -0.0147(2)
H6 H 0.0752 0.6781 0.0436
C14 C -0.08161(17) 0.69200(6) -0.0982(2)
H7 H -0.0699 0.7245 -0.0965
C15 C -0.18562(16) 0.67338(6) -0.18449(19)
C16 C -0.19805(18) 0.62560(7) -0.1837(2)
H8 H -0.2683 0.6118 -0.2412
C17 C -0.11180(18) 0.59768(7) -0.1022(2)
H9 H -0.1228 0.5652 -0.1053
C18 C -0.28704(17) 0.70264(7) -0.2737(2)
C19 C -0.2531(2) 0.75367(7) -0.2743(2)
H10 H -0.2384 0.7658 -0.1803
H11 H -0.3210 0.7707 -0.3325
H12 H -0.1782 0.7573 -0.3105
C20 C -0.4040(2) 0.69780(9) -0.2153(3)
H13 H -0.4282 0.6653 -0.2167
H14 H -0.4711 0.7158 -0.2715
H15 H -0.3873 0.7092 -0.1206
C21 C -0.3143(2) 0.68526(8) -0.4226(2)
H16 H -0.2389 0.6868 -0.4587
H17 H -0.3782 0.7046 -0.4789
H18 H -0.3433 0.6533 -0.4254
C22 C 0.74352(17) 0.35301(6) 0.47977(19)
C23 C 0.84228(18) 0.34324(7) 0.5886(2)
H19 H 0.8406 0.3535 0.6787
C24 C 0.94330(19) 0.31851(8) 0.5652(2)
H20 H 1.0098 0.3115 0.6399
C25 C 0.9478(2) 0.30405(7) 0.4345(2)
H21 H 1.0171 0.2871 0.4196
C26 C 0.85166(19) 0.31413(7) 0.3254(2)
H22 H 0.8552 0.3046 0.2352
C27 C 0.74962(18) 0.33824(6) 0.3481(2)
H23 H 0.6831 0.3448 0.2729
C28 C 0.59428(16) 0.35778(6) 0.73849(19)
C29 C 0.56998(18) 0.37928(7) 0.8551(2)
H24 H 0.5437 0.4105 0.8502
C30 C 0.5838(2) 0.35547(7) 0.9778(2)
H25 H 0.5665 0.3705 1.0564
C31 C 0.62247(19) 0.31000(7) 0.9870(2)
H26 H 0.6324 0.2939 1.0716
C32 C 0.64667(18) 0.28822(7) 0.8719(2)
H27 H 0.6738 0.2571 0.8777
C33 C 0.63134(18) 0.31172(6) 0.7485(2)
H28 H 0.6462 0.2963 0.6696
C34 C 0.7709(3) 0.62185(10) 0.2301(4)
H29 H 0.8088 0.6391 0.1652
H30 H 0.8294 0.6197 0.3189
H31 H 0.6960 0.6378 0.2419
C35 C 0.7393(3) 0.57599(8) 0.1771(3)
H32 H 0.6918 0.5783 0.0811
H33 H 0.8162 0.5588 0.1761
O1 O 0.66913(14) 0.55113(5) 0.25513(16)
H34 H 0.6796 0.5227 0.2457
C36 C 0.9204(3) 0.45031(11) 0.3579(3)
H35 H 1.0034 0.4417 0.3475
H36 H 0.8949 0.4298 0.4250
H37 H 0.9212 0.4823 0.3901
C37 C 0.8327(2) 0.44599(8) 0.2240(3)
H38 H 0.8631 0.4648 0.1553
H39 H 0.8310 0.4134 0.1938
O2 O 0.70994(14) 0.46006(5) 0.22651(17)
H40 H 0.6793 0.4416 0.2749
loop_
_geom_bond_atom_site_label_1
_geom_bond_atom_site_label_2
_geom_bond_site_symmetry_1
_geom_bond_site_symmetry_2
N1 H1 1_555 1_555
N2 C1 1_555 1_555
C1 N1 1_555 1_555
C2 N2 1_555 1_555
C3 N1 1_555 1_555
C4 C1 1_555 1_555
C5 C4 1_555 1_555
H2 C5 1_555 1_555
C6 C5 1_555 1_555
H3 C6 1_555 1_555
C7 C6 1_555 1_555
C8 C7 1_555 1_555
H4 C8 1_555 1_555
C9 C4 1_555 1_555
H5 C9 1_555 1_555
C10 C7 1_555 1_555
C11 C10 1_555 1_555
C12 C11 1_555 1_555
C13 C12 1_555 1_555
H6 C13 1_555 1_555
C14 C13 1_555 1_555
H7 C14 1_555 1_555
C15 C14 1_555 1_555
C16 C15 1_555 1_555
H8 C16 1_555 1_555
C17 C12 1_555 1_555
H9 C17 1_555 1_555
C18 C15 1_555 1_555
C19 C18 1_555 1_555
H10 C19 1_555 1_555
H11 C19 1_555 1_555
H12 C19 1_555 1_555
C20 C18 1_555 1_555
H13 C20 1_555 1_555
H14 C20 1_555 1_555
H15 C20 1_555 1_555
C21 C18 1_555 1_555
H16 C21 1_555 1_555
H17 C21 1_555 1_555
H18 C21 1_555 1_555
C22 C2 1_555 1_555
C23 C22 1_555 1_555
H19 C23 1_555 1_555
C24 C23 1_555 1_555
H20 C24 1_555 1_555
C25 C24 1_555 1_555
H21 C25 1_555 1_555
C26 C25 1_555 1_555
H22 C26 1_555 1_555
C27 C22 1_555 1_555
H23 C27 1_555 1_555
C28 C3 1_555 1_555
C29 C28 1_555 1_555
H24 C29 1_555 1_555
C30 C29 1_555 1_555
H25 C30 1_555 1_555
C31 C30 1_555 1_555
H26 C31 1_555 1_555
C32 C31 1_555 1_555
H27 C32 1_555 1_555
C33 C28 1_555 1_555
H28 C33 1_555 1_555
C34 H29 1_555 1_555
H30 C34 1_555 1_555
H31 C34 1_555 1_555
C35 C34 1_555 1_555
H32 C35 1_555 1_555
H33 C35 1_555 1_555
O1 C35 1_555 1_555
H34 O1 1_555 1_555
C36 H35 1_555 1_555
H36 C36 1_555 1_555
H37 C36 1_555 1_555
C37 C36 1_555 1_555
H38 C37 1_555 1_555
H39 C37 1_555 1_555
O2 C37 1_555 1_555
H40 O2 1_555 1_555
C2 C3 1_555 1_555
C8 C9 1_555 1_555
C16 C17 1_555 1_555
C26 C27 1_555 1_555
C32 C33 1_555 1_555

#END
