
#######################################################################
#
#                 Cambridge Crystallographic Data Centre
#                                CCDC 
#
#######################################################################
#
# If this CIF has been generated from an entry in the Cambridge 
# Structural Database, then it will include bibliographic, chemical, 
# crystal, experimental, refinement or atomic coordinate data resulting 
# from the CCDC's data processing and validation procedures.
#
#######################################################################

data_XISLIV01
_chemical_formula_moiety         'C11 H10 N3 O4 S1 1+,C2 Cl3 O2 1-'
_chemical_name_systematic        
'4-(4-Nitrobenzenesulfonamido)pyridinium trichloroacetate'
_symmetry_cell_setting           monoclinic
_symmetry_space_group_name_H-M   'P 21/c'
_symmetry_Int_Tables_number      14
_space_group_name_Hall           '-P 2ybc'
loop_
_symmetry_equiv_pos_site_id
_symmetry_equiv_pos_as_xyz
1 x,y,z
2 -x,1/2+y,1/2-z
3 -x,-y,-z
4 x,1/2-y,1/2+z
_cell_length_a                   22.017(4)
_cell_length_b                   6.2187(12)
_cell_length_c                   12.719(3)
_cell_angle_alpha                90
_cell_angle_beta                 97.48(3)
_cell_angle_gamma                90
_cell_volume                     1726.63
_exptl_crystal_colour            colorless
_exptl_crystal_description       lamellar
_cell_formula_units_Z            4
loop_
_atom_site_label
_atom_site_type_symbol
_atom_site_fract_x
_atom_site_fract_y
_atom_site_fract_z
S1 S 0.18257(4) 1.36555(14) 0.07245(7)
O1 O 0.18542(11) 1.5313(4) 0.1516(2)
O2 O 0.16464(11) 1.4166(4) -0.03720(19)
O3 O 0.04962(13) 0.5416(5) 0.2777(2)
O4 O -0.00146(13) 0.5394(5) 0.1197(2)
N1 N 0.30157(14) 0.6878(5) -0.0407(3)
N2 N 0.25080(13) 1.2586(5) 0.0880(2)
N3 N 0.03717(14) 0.6156(5) 0.1877(3)
C1 C 0.26602(16) 1.0661(5) 0.0425(3)
C2 C 0.31203(16) 0.9400(6) 0.0978(3)
H1 H 0.3310 0.9837 0.1639
C3 C 0.32893(16) 0.7525(6) 0.0544(3)
H2 H 0.3597 0.6688 0.0910
C4 C 0.25743(16) 0.8040(6) -0.0958(3)
H3 H 0.2395 0.7554 -0.1618
C5 C 0.23811(16) 0.9937(6) -0.0568(3)
H4 H 0.2071 1.0732 -0.0954
C6 C 0.13549(15) 1.1534(5) 0.1065(3)
C7 C 0.09757(15) 1.0470(6) 0.0274(3)
H5 H 0.0944 1.0934 -0.0426
C8 C 0.06426(16) 0.8695(6) 0.0547(3)
H6 H 0.0387 0.7945 0.0034
C9 C 0.07022(15) 0.8085(6) 0.1592(3)
C10 C 0.10690(16) 0.9146(6) 0.2399(3)
H7 H 0.1088 0.8706 0.3101
C11 C 0.14059(16) 1.0888(6) 0.2117(3)
H8 H 0.1665 1.1622 0.2632
H9 H 0.3107(17) 0.568(4) -0.075(3)
H10 H 0.2756(17) 1.324(6) 0.140(3)
Cl1 Cl 0.43685(4) 0.58693(15) 0.39003(8)
Cl2 Cl 0.46462(5) 0.17077(17) 0.30622(9)
Cl3 Cl 0.41727(4) 0.20184(16) 0.50681(7)
O5 O 0.31493(11) 0.1505(4) 0.33912(19)
O6 O 0.33887(11) 0.4175(4) 0.2360(2)
C12 C 0.41404(16) 0.3150(6) 0.3785(3)
C13 C 0.34910(16) 0.2939(5) 0.3118(3)
loop_
_geom_bond_atom_site_label_1
_geom_bond_atom_site_label_2
_geom_bond_site_symmetry_1
_geom_bond_site_symmetry_2
S1 O1 1_555 1_555
O2 S1 1_555 1_555
O3 N3 1_555 1_555
O4 N3 1_555 1_555
N1 C3 1_555 1_555
N2 S1 1_555 1_555
N3 C9 1_555 1_555
C1 N2 1_555 1_555
C2 C1 1_555 1_555
H1 C2 1_555 1_555
C3 C2 1_555 1_555
H2 C3 1_555 1_555
C4 N1 1_555 1_555
H3 C4 1_555 1_555
C5 C1 1_555 1_555
H4 C5 1_555 1_555
C6 S1 1_555 1_555
C7 C6 1_555 1_555
H5 C7 1_555 1_555
C8 C7 1_555 1_555
H6 C8 1_555 1_555
C9 C8 1_555 1_555
C10 C9 1_555 1_555
H7 C10 1_555 1_555
C11 C6 1_555 1_555
H8 C11 1_555 1_555
Cl1 C12 1_555 1_555
Cl2 C12 1_555 1_555
Cl3 C12 1_555 1_555
O5 C13 1_555 1_555
O6 C13 1_555 1_555
C12 C13 1_555 1_555
H9 N1 1_555 1_555
H10 N2 1_555 1_555
C4 C5 1_555 1_555
C10 C11 1_555 1_555

#END
