
#######################################################################
#
#                 Cambridge Crystallographic Data Centre
#                                CCDC 
#
#######################################################################
#
# If this CIF has been generated from an entry in the Cambridge 
# Structural Database, then it will include bibliographic, chemical, 
# crystal, experimental, refinement or atomic coordinate data resulting 
# from the CCDC's data processing and validation procedures.
#
#######################################################################

data_XISNIX
_chemical_formula_moiety         'C22 H24 N2 O1 S1'
_chemical_name_systematic        
5-(4-t-Butylbenzylsulfanyl)-3-methyl-1-phenyl-1H-pyrazole-4-carbaldehyde
_symmetry_cell_setting           orthorhombic
_symmetry_space_group_name_H-M   'P b c a'
_symmetry_Int_Tables_number      61
_space_group_name_Hall           '-P 2ac 2ab'
loop_
_symmetry_equiv_pos_site_id
_symmetry_equiv_pos_as_xyz
1 x,y,z
2 1/2-x,-y,1/2+z
3 -x,1/2+y,1/2-z
4 1/2+x,1/2-y,-z
5 -x,-y,-z
6 1/2+x,y,1/2-z
7 x,1/2-y,1/2+z
8 1/2-x,1/2+y,z
_cell_length_a                   11.129(3)
_cell_length_b                   16.181(4)
_cell_length_c                   22.429(6)
_cell_angle_alpha                90
_cell_angle_beta                 90
_cell_angle_gamma                90
_cell_volume                     4038.98
_exptl_crystal_colour            colorless
_exptl_crystal_description       Orthorhombic
_cell_formula_units_Z            8
_exptl_crystal_recrystallization_method 'petroleum ether/ethyl acetate'
loop_
_atom_site_label
_atom_site_type_symbol
_atom_site_fract_x
_atom_site_fract_y
_atom_site_fract_z
S1 S 0.56005(9) 0.18185(6) 0.52594(4)
O1 O 0.7233(2) -0.07664(16) 0.52505(12)
N1 N 0.4568(2) 0.09456(16) 0.61696(12)
N2 N 0.4616(3) 0.02084(17) 0.64732(13)
C1 C 0.5704(4) -0.1109(2) 0.63859(17)
H1 H 0.5296 -0.1218 0.6755
H2 H 0.6556 -0.1146 0.6447
H3 H 0.5461 -0.1507 0.6093
C2 C 0.5388(3) -0.0253(2) 0.61720(16)
C3 C 0.5853(3) 0.0175(2) 0.56780(14)
C4 C 0.5313(3) 0.09467(19) 0.56915(13)
C5 C 0.6746(3) -0.0098(2) 0.52514(16)
H4 H 0.6964 0.0273 0.4953
C6 C 0.3817(3) 0.1594(2) 0.63937(14)
C7 C 0.3931(3) 0.1839(2) 0.69794(15)
H5 H 0.4507 0.1598 0.7224
C8 C 0.3183(4) 0.2443(3) 0.71983(18)
H6 H 0.3249 0.2607 0.7594
C9 C 0.2340(4) 0.2806(3) 0.6837(2)
H7 H 0.1839 0.3216 0.6987
C10 C 0.2239(4) 0.2559(3) 0.6255(2)
H8 H 0.1668 0.2806 0.6010
C11 C 0.2967(3) 0.1955(2) 0.60299(16)
H9 H 0.2890 0.1789 0.5635
C12 C 0.6681(3) 0.2339(2) 0.57569(17)
H10 H 0.7027 0.2808 0.5550
H11 H 0.6257 0.2546 0.6104
C13 C 0.7670(3) 0.17787(19) 0.59573(16)
C14 C 0.7591(3) 0.1360(2) 0.64906(15)
H12 H 0.6952 0.1469 0.6746
C15 C 0.8436(3) 0.0784(2) 0.66528(15)
H13 H 0.8356 0.0516 0.7018
C16 C 0.9402(3) 0.0589(2) 0.62918(15)
C17 C 0.9495(3) 0.1031(2) 0.57631(17)
H14 H 1.0145 0.0932 0.5512
C18 C 0.8651(4) 0.1614(2) 0.55988(17)
H15 H 0.8745 0.1900 0.5242
C19 C 1.0287(3) -0.0081(2) 0.64643(16)
C20 C 0.9655(8) -0.0873(4) 0.6579(6)
H16 H 1.0227 -0.1284 0.6699
H17 H 0.9256 -0.1051 0.6222
H18 H 0.9073 -0.0796 0.6890
C21 C 1.1021(7) 0.0212(5) 0.7014(3)
H19 H 1.0489 0.0298 0.7345
H20 H 1.1424 0.0720 0.6921
H21 H 1.1605 -0.0201 0.7117
C22 C 1.1279(8) -0.0210(6) 0.5970(3)
H22 H 1.1839 -0.0624 0.6100
H23 H 1.1697 0.0300 0.5904
H24 H 1.0905 -0.0386 0.5606
C23? C 0.9620(13) -0.0696(9) 0.6921(7)
H25? H 0.8867 -0.0868 0.6753
H26? H 0.9480 -0.0415 0.7291
H27? H 1.0116 -0.1172 0.6990
C24? C 1.1392(14) 0.0222(13) 0.6765(9)
H28? H 1.1231 0.0745 0.6952
H29? H 1.2022 0.0288 0.6477
H30? H 1.1638 -0.0170 0.7063
C25? C 1.0496(18) -0.0659(9) 0.5928(5)
H31? H 1.1070 -0.1076 0.6035
H32? H 1.0797 -0.0344 0.5598
H33? H 0.9751 -0.0916 0.5818
loop_
_geom_bond_atom_site_label_1
_geom_bond_atom_site_label_2
_geom_bond_site_symmetry_1
_geom_bond_site_symmetry_2
S1 C4 1_555 1_555
O1 C5 1_555 1_555
N1 N2 1_555 1_555
N2 C2 1_555 1_555
C1 H1 1_555 1_555
H2 C1 1_555 1_555
H3 C1 1_555 1_555
C2 C1 1_555 1_555
C3 C2 1_555 1_555
C4 N1 1_555 1_555
C5 C3 1_555 1_555
H4 C5 1_555 1_555
C6 N1 1_555 1_555
C7 C6 1_555 1_555
H5 C7 1_555 1_555
C8 C7 1_555 1_555
H6 C8 1_555 1_555
C9 C8 1_555 1_555
H7 C9 1_555 1_555
C10 C9 1_555 1_555
H8 C10 1_555 1_555
C11 C6 1_555 1_555
H9 C11 1_555 1_555
C12 S1 1_555 1_555
H10 C12 1_555 1_555
H11 C12 1_555 1_555
C13 C12 1_555 1_555
C14 C13 1_555 1_555
H12 C14 1_555 1_555
C15 C14 1_555 1_555
H13 C15 1_555 1_555
C16 C15 1_555 1_555
C17 C16 1_555 1_555
H14 C17 1_555 1_555
C18 C13 1_555 1_555
H15 C18 1_555 1_555
C19 C16 1_555 1_555
C20 C19 1_555 1_555
H16 C20 1_555 1_555
H17 C20 1_555 1_555
H18 C20 1_555 1_555
C21 C19 1_555 1_555
H19 C21 1_555 1_555
H20 C21 1_555 1_555
H21 C21 1_555 1_555
C22 C19 1_555 1_555
H22 C22 1_555 1_555
H23 C22 1_555 1_555
H24 C22 1_555 1_555
C3 C4 1_555 1_555
C10 C11 1_555 1_555
C17 C18 1_555 1_555

#END
