
#######################################################################
#
#                 Cambridge Crystallographic Data Centre
#                                CCDC 
#
#######################################################################
#
# If this CIF has been generated from an entry in the Cambridge 
# Structural Database, then it will include bibliographic, chemical, 
# crystal, experimental, refinement or atomic coordinate data resulting 
# from the CCDC's data processing and validation procedures.
#
#######################################################################

data_XISWUR
_chemical_formula_moiety         'C38 H31 N7 O1 Si2'
_chemical_name_systematic        
(tetrabenztriazacorrolato)-(triethylsiloxy)-silicon
_symmetry_cell_setting           monoclinic
_symmetry_space_group_name_H-M   'P 21/n'
_symmetry_Int_Tables_number      14
_space_group_name_Hall           '-P 2yn'
loop_
_symmetry_equiv_pos_site_id
_symmetry_equiv_pos_as_xyz
1 x,y,z
2 1/2+x,1/2-y,1/2+z
3 -x,-y,-z
4 1/2-x,1/2+y,1/2-z
_cell_length_a                   8.9139(5)
_cell_length_b                   24.062(3)
_cell_length_c                   14.934(2)
_cell_angle_alpha                90
_cell_angle_beta                 102.499(1)
_cell_angle_gamma                90
_cell_volume                     3127.22
_exptl_crystal_colour            blue
_exptl_crystal_description       Prism
_cell_formula_units_Z            4
_exptl_crystal_recrystallization_method benzene
loop_
_atom_site_label
_atom_site_type_symbol
_atom_site_fract_x
_atom_site_fract_y
_atom_site_fract_z
Si1 Si 0.6093(2) 0.06678(6) 0.81389(9)
Si2 Si 0.4810(2) 0.10031(6) 0.60789(9)
O1 O 0.5071(4) 0.0916(1) 0.7193(2)
N1 N 0.7065(5) 0.0060(2) 0.7803(3)
N2 N 0.9427(5) 0.0436(2) 0.7534(3)
N3 N 0.7911(4) 0.1050(2) 0.8289(3)
N4 N 0.7256(5) 0.1885(2) 0.9062(3)
N5 N 0.5538(4) 0.1107(2) 0.9003(3)
N6 N 0.346(2) 0.0544(5) 0.9414(8)
N8 N 0.4847(5) 0.0159(2) 0.8498(3)
C1 C 0.6347(6) -0.0457(2) 0.7673(3)
C2 C 0.7262(6) -0.0830(2) 0.7258(3)
C3 C 0.7097(7) -0.1386(2) 0.7016(3)
C4 C 0.8226(7) -0.1632(2) 0.6653(4)
C5 C 0.9499(7) -0.1323(2) 0.6519(4)
C6 C 0.9697(6) -0.0780(2) 0.6762(4)
C7 C 0.8552(6) -0.0528(2) 0.7146(3)
C8 C 0.8438(6) 0.0028(2) 0.7490(3)
C9 C 0.9173(5) 0.0912(2) 0.7912(3)
C10 C 1.0186(6) 0.1382(2) 0.7994(3)
C11 C 1.1590(6) 0.1463(2) 0.7733(3)
C12 C 1.2303(6) 0.1968(2) 0.7909(4)
C13 C 1.1660(6) 0.2386(2) 0.8354(4)
C14 C 1.0286(6) 0.2317(2) 0.8623(4)
C15 C 0.9547(6) 0.1805(2) 0.8427(3)
C16 C 0.8144(6) 0.1598(2) 0.8615(3)
C17 C 0.6052(6) 0.1642(2) 0.9268(3)
C18 C 0.5100(6) 0.1864(2) 0.9857(3)
C19 C 0.5186(7) 0.2368(2) 1.0322(4)
C20 C 0.4165(7) 0.2455(3) 1.0875(4)
C21 C 0.3096(7) 0.2034(3) 1.0977(4)
C22 C 0.3012(6) 0.1537(3) 1.0524(4)
C23 C 0.4041(6) 0.1451(2) 0.9951(3)
C24 C 0.4299(6) 0.0986(2) 0.9409(3)
C25 C 0.375(1) 0.0123(5) 0.8890(8)
C26 C 0.3045(6) -0.0448(2) 0.8781(3)
C27 C 0.185(1) -0.0655(5) 0.9110(8)
C28 C 0.146(1) -0.1197(6) 0.8899(9)
C29 C 0.221(1) -0.1497(5) 0.8350(8)
C30 C 0.345(1) -0.1297(4) 0.8019(7)
C31 C 0.385(1) -0.0744(4) 0.8240(7)
C32 C 0.505(2) -0.0409(5) 0.803(1)
C33 C 0.6720(6) 0.1002(3) 0.5738(4)
C34 C 0.6665(7) 0.1183(3) 0.4755(4)
C35 C 0.3566(7) 0.0438(2) 0.5504(4)
C36 C 0.2039(8) 0.0368(3) 0.5750(5)
C37 C 0.3832(7) 0.1680(2) 0.5812(4)
C38 C 0.4795(9) 0.2188(3) 0.6155(6)
H1 H 0.6221 -0.1599 0.7101
H2 H 0.8139 -0.2020 0.6477
H3 H 1.0243 -0.1509 0.6236
H4 H 1.0584 -0.0573 0.6672
H5 H 1.2050 0.1169 0.7435
H6 H 1.3261 0.2038 0.7725
H7 H 1.2206 0.2740 0.8496
H8 H 0.9856 0.2610 0.8942
H9 H 0.5942 0.2652 1.0249
H10 H 0.4129 0.2803 1.1198
H11 H 0.2391 0.2103 1.1391
H12 H 0.2244 0.1259 1.0589
H13 H 0.1316 -0.0430 0.9477
H14 H 0.0627 -0.1371 0.9131
H15 H 0.1857 -0.1859 0.8188
H16 H 0.3981 -0.1527 0.7658
H17 H 0.7126 0.0629 0.6037
H18 H 0.7623 0.1286 0.6169
H19 H 0.7674 0.1204 0.4635
H20 H 0.6097 0.0909 0.4335
H21 H 0.6129 0.1559 0.4593
H22 H 0.4137 0.0087 0.5637
H23 H 0.3413 0.0488 0.4848
H24 H 0.2378 0.0331 0.6490
H25 H 0.1477 0.0047 0.5492
H26 H 0.1391 0.0688 0.5586
H27 H 0.2713 0.1652 0.6092
H28 H 0.3466 0.1647 0.5066
H29 H 0.5318 0.2116 0.6894
H30 H 0.5944 0.2179 0.5875
H31 H 0.4381 0.2624 0.6239
N7? N 0.504(1) -0.0686(4) 0.7904(9)
C39? C 0.433(1) -0.0346(4) 0.8378(7)
C40? C 0.218(1) -0.0959(6) 0.8771(8)
C41? C 0.100(1) -0.0949(6) 0.9254(9)
C42? C 0.070(1) -0.0474(5) 0.9726(7)
C43? C 0.156(1) 0.0007(5) 0.9746(7)
C44? C 0.274(1) 0.0008(5) 0.9264(7)
C45? C 0.380(2) 0.0436(7) 0.9121(10)
H32? H 0.2403 -0.1283 0.8453
H33? H 0.0386 -0.1283 0.9270
H34? H -0.0102 -0.0482 1.0038
H35? H 0.1333 0.0329 1.0076
loop_
_geom_bond_atom_site_label_1
_geom_bond_atom_site_label_2
_geom_bond_site_symmetry_1
_geom_bond_site_symmetry_2
Si1 O1 1_555 1_555
Si2 O1 1_555 1_555
N1 Si1 1_555 1_555
N2 C8 1_555 1_555
N3 Si1 1_555 1_555
N4 C16 1_555 1_555
N5 Si1 1_555 1_555
N6 C24 1_555 1_555
N8 Si1 1_555 1_555
C1 N1 1_555 1_555
C2 C1 1_555 1_555
C3 C2 1_555 1_555
C4 C3 1_555 1_555
C5 C4 1_555 1_555
C6 C5 1_555 1_555
C7 C2 1_555 1_555
C8 N1 1_555 1_555
C9 N2 1_555 1_555
C10 C9 1_555 1_555
C11 C10 1_555 1_555
C12 C11 1_555 1_555
C13 C12 1_555 1_555
C14 C13 1_555 1_555
C15 C10 1_555 1_555
C16 N3 1_555 1_555
C17 N4 1_555 1_555
C18 C17 1_555 1_555
C19 C18 1_555 1_555
C20 C19 1_555 1_555
C21 C20 1_555 1_555
C22 C21 1_555 1_555
C23 C18 1_555 1_555
C24 N5 1_555 1_555
C25 N6 1_555 1_555
C26 C25 1_555 1_555
C27 C26 1_555 1_555
C28 C27 1_555 1_555
C29 C28 1_555 1_555
C30 C29 1_555 1_555
C31 C26 1_555 1_555
C32 N8 1_555 1_555
C33 Si2 1_555 1_555
C34 C33 1_555 1_555
C35 Si2 1_555 1_555
C36 C35 1_555 1_555
C37 Si2 1_555 1_555
C38 C37 1_555 1_555
H1 C3 1_555 1_555
H2 C4 1_555 1_555
H3 C5 1_555 1_555
H4 C6 1_555 1_555
H5 C11 1_555 1_555
H6 C12 1_555 1_555
H7 C13 1_555 1_555
H8 C14 1_555 1_555
H9 C19 1_555 1_555
H10 C20 1_555 1_555
H11 C21 1_555 1_555
H12 C22 1_555 1_555
H13 C27 1_555 1_555
H14 C28 1_555 1_555
H15 C29 1_555 1_555
H16 C30 1_555 1_555
H17 C33 1_555 1_555
H18 C33 1_555 1_555
H19 C34 1_555 1_555
H20 C34 1_555 1_555
H21 C34 1_555 1_555
H22 C35 1_555 1_555
H23 C35 1_555 1_555
H24 C36 1_555 1_555
H25 C36 1_555 1_555
H26 C36 1_555 1_555
H27 C37 1_555 1_555
H28 C37 1_555 1_555
H29 C38 1_555 1_555
H30 C38 1_555 1_555
H31 C38 1_555 1_555
N3 C9 1_555 1_555
N5 C17 1_555 1_555
N8 C25 1_555 1_555
C1 C32 1_555 1_555
C6 C7 1_555 1_555
C7 C8 1_555 1_555
C14 C15 1_555 1_555
C15 C16 1_555 1_555
C22 C23 1_555 1_555
C23 C24 1_555 1_555
C30 C31 1_555 1_555
C31 C32 1_555 1_555

#END
