
#######################################################################
#
#                 Cambridge Crystallographic Data Centre
#                                CCDC 
#
#######################################################################
#
# If this CIF has been generated from an entry in the Cambridge 
# Structural Database, then it will include bibliographic, chemical, 
# crystal, experimental, refinement or atomic coordinate data resulting 
# from the CCDC's data processing and validation procedures.
#
#######################################################################

data_XISXAB
_chemical_formula_moiety         'C16 H12 F3 N3 O1'
_chemical_name_systematic        
3-amino-1-([1,1'-biphenyl]-4-yl)-2-diazo-4,4,4-trifluorobutan-1-one
_symmetry_cell_setting           monoclinic
_symmetry_space_group_name_H-M   'P 21'
_symmetry_Int_Tables_number      4
_space_group_name_Hall           'P 2yb'
loop_
_symmetry_equiv_pos_site_id
_symmetry_equiv_pos_as_xyz
1 x,y,z
2 -x,1/2+y,-z
_cell_length_a                   10.1325(4)
_cell_length_b                   10.3058(3)
_cell_length_c                   14.6238(5)
_cell_angle_alpha                90
_cell_angle_beta                 94.764(3)
_cell_angle_gamma                90
_cell_volume                     1521.79
_exptl_crystal_colour            'light colorless'
_exptl_crystal_description       block
_cell_formula_units_Z            4
loop_
_atom_site_label
_atom_site_type_symbol
_atom_site_fract_x
_atom_site_fract_y
_atom_site_fract_z
F1 F 0.2335(5) 0.5729(6) 0.4234(4)
F2 F 0.0991(6) 0.4116(5) 0.4210(4)
F3 F 0.0799(6) 0.5541(8) 0.3143(3)
O1 O 0.1796(6) 0.7935(6) 0.5661(4)
N1 N -0.0027(7) 0.5147(6) 0.6061(4)
N2 N -0.0537(9) 0.4357(9) 0.6397(6)
N3 N -0.1177(6) 0.5824(8) 0.4274(4)
H1 H -0.128178 0.500565 0.435673
H2 H -0.172387 0.624837 0.458048
C1 C 0.2495(11) 0.6025(10) 1.0596(6)
H3 H 0.232139 0.522193 1.032163
C2 C 0.2749(12) 0.6103(12) 1.1538(7)
H4 H 0.269639 0.535716 1.189121
C3 C 0.3070(12) 0.7236(13) 1.1954(6)
H5 H 0.327959 0.726832 1.258539
C4 C 0.3084(13) 0.8324(12) 1.1446(7)
H6 H 0.326197 0.911784 1.173321
C5 C 0.2837(12) 0.8277(11) 1.0504(6)
H7 H 0.290401 0.903517 1.016586
C6 C 0.2496(7) 0.7143(9) 1.0052(5)
C7 C 0.2208(8) 0.7093(9) 0.9040(5)
C8 C 0.2226(8) 0.5919(8) 0.8559(5)
H8 H 0.243720 0.515498 0.887652
C9 C 0.1937(8) 0.5882(7) 0.7628(5)
H9 H 0.194703 0.509024 0.732365
C10 C 0.1627(8) 0.7014(9) 0.7125(5)
C11 C 0.1646(8) 0.8167(8) 0.7598(5)
H10 H 0.149469 0.893749 0.727538
C12 C 0.1880(9) 0.8210(8) 0.8529(5)
H11 H 0.181972 0.900009 0.883101
C13 C 0.1371(7) 0.7026(8) 0.6099(5)
C14 C 0.0557(8) 0.6069(7) 0.5623(5)
C15 C 0.0141(8) 0.6186(8) 0.4585(5)
H12 H 0.024687 0.709938 0.441905
C16 C 0.1080(8) 0.5412(10) 0.4046(5)
F4 F 0.7125(5) 0.8659(6) 0.4155(4)
F5 F 0.5864(5) 1.0313(5) 0.4138(4)
F6 F 0.5619(7) 0.8872(9) 0.3088(3)
O2 O 0.6796(6) 0.6656(6) 0.5556(4)
N4 N 0.4902(7) 0.9339(7) 0.6016(4)
N5 N 0.4446(9) 1.0180(9) 0.6387(5)
N6 N 0.3616(7) 0.8710(8) 0.4238(5)
H13 H 0.304482 0.834094 0.456379
H14 H 0.355378 0.954467 0.430164
C17 C 0.6496(11) 0.6854(12) 1.0563(6)
H15 H 0.563286 0.668747 1.032513
C18 C 0.6797(13) 0.6770(14) 1.1492(7)
H16 H 0.613764 0.656981 1.187517
C19 C 0.8055(15) 0.6978(14) 1.1854(7)
H17 H 0.825880 0.690302 1.248403
C20 C 0.9014(12) 0.7293(14) 1.1305(7)
H18 H 0.987718 0.742592 1.155587
C21 C 0.8707(12) 0.7419(13) 1.0356(7)
H19 H 0.936178 0.766617 0.998143
C22 C 0.7425(9) 0.7177(10) 0.9971(5)
C23 C 0.7111(8) 0.7289(8) 0.8956(5)
C24 C 0.8072(8) 0.7126(10) 0.8342(5)
H20 H 0.894112 0.695867 0.856735
C25 C 0.7772(8) 0.7206(8) 0.7414(5)
H21 H 0.843978 0.708420 0.702312
C26 C 0.6516(7) 0.7461(7) 0.7050(5)
C27 C 0.5509(7) 0.7625(8) 0.7649(5)
H22 H 0.464126 0.778829 0.742006
C28 C 0.5839(9) 0.7539(10) 0.8584(5)
H23 H 0.517463 0.765395 0.897905
C29 C 0.6233(8) 0.7453(8) 0.6024(5)
C30 C 0.5369(8) 0.8378(7) 0.5557(5)
C31 C 0.4930(8) 0.8325(8) 0.4532(5)
H24 H 0.499345 0.741056 0.435681
C32 C 0.5893(8) 0.9036(9) 0.3983(5)
loop_
_geom_bond_atom_site_label_1
_geom_bond_atom_site_label_2
_geom_bond_site_symmetry_1
_geom_bond_site_symmetry_2
F1 C16 1_555 1_555
F2 C16 1_555 1_555
F3 C16 1_555 1_555
O1 C13 1_555 1_555
N1 N2 1_555 1_555
N3 H1 1_555 1_555
H2 N3 1_555 1_555
C1 H3 1_555 1_555
C2 C1 1_555 1_555
H4 C2 1_555 1_555
C3 C2 1_555 1_555
H5 C3 1_555 1_555
C4 C3 1_555 1_555
H6 C4 1_555 1_555
C5 C4 1_555 1_555
H7 C5 1_555 1_555
C6 C1 1_555 1_555
C7 C6 1_555 1_555
C8 C7 1_555 1_555
H8 C8 1_555 1_555
C9 C8 1_555 1_555
H9 C9 1_555 1_555
C10 C9 1_555 1_555
C11 C10 1_555 1_555
H10 C11 1_555 1_555
C12 C7 1_555 1_555
H11 C12 1_555 1_555
C13 C10 1_555 1_555
C14 N1 1_555 1_555
C15 N3 1_555 1_555
H12 C15 1_555 1_555
C16 C15 1_555 1_555
F4 C32 1_555 1_555
F5 C32 1_555 1_555
F6 C32 1_555 1_555
O2 C29 1_555 1_555
N4 N5 1_555 1_555
N6 H13 1_555 1_555
H14 N6 1_555 1_555
C17 H15 1_555 1_555
C18 C17 1_555 1_555
H16 C18 1_555 1_555
C19 C18 1_555 1_555
H17 C19 1_555 1_555
C20 C19 1_555 1_555
H18 C20 1_555 1_555
C21 C20 1_555 1_555
H19 C21 1_555 1_555
C22 C17 1_555 1_555
C23 C22 1_555 1_555
C24 C23 1_555 1_555
H20 C24 1_555 1_555
C25 C24 1_555 1_555
H21 C25 1_555 1_555
C26 C25 1_555 1_555
C27 C26 1_555 1_555
H22 C27 1_555 1_555
C28 C23 1_555 1_555
H23 C28 1_555 1_555
C29 C26 1_555 1_555
C30 N4 1_555 1_555
C31 N6 1_555 1_555
H24 C31 1_555 1_555
C32 C31 1_555 1_555
C5 C6 1_555 1_555
C11 C12 1_555 1_555
C13 C14 1_555 1_555
C14 C15 1_555 1_555
C21 C22 1_555 1_555
C27 C28 1_555 1_555
C29 C30 1_555 1_555
C30 C31 1_555 1_555

#END
