
#######################################################################
#
#                 Cambridge Crystallographic Data Centre
#                                CCDC 
#
#######################################################################
#
# If this CIF has been generated from an entry in the Cambridge 
# Structural Database, then it will include bibliographic, chemical, 
# crystal, experimental, refinement or atomic coordinate data resulting 
# from the CCDC's data processing and validation procedures.
#
#######################################################################

data_XISXEF
_chemical_formula_moiety         'C11 H9 Br1 F3 N3 O1'
_chemical_name_systematic        
3-azido-1-(4-bromophenyl)-4,4,4-trifluoro-3-methylbutan-1-one
_symmetry_cell_setting           monoclinic
_symmetry_space_group_name_H-M   'P 21/c'
_symmetry_Int_Tables_number      14
_space_group_name_Hall           '-P 2ybc'
loop_
_symmetry_equiv_pos_site_id
_symmetry_equiv_pos_as_xyz
1 x,y,z
2 -x,1/2+y,1/2-z
3 -x,-y,-z
4 x,1/2-y,1/2+z
_cell_length_a                   18.30661(18)
_cell_length_b                   5.16991(5)
_cell_length_c                   13.47889(12)
_cell_angle_alpha                90
_cell_angle_beta                 98.2661(9)
_cell_angle_gamma                90
_cell_volume                     1262.44
_exptl_crystal_colour            'light colorless'
_exptl_crystal_description       block
_cell_formula_units_Z            4
loop_
_atom_site_label
_atom_site_type_symbol
_atom_site_fract_x
_atom_site_fract_y
_atom_site_fract_z
Br1 Br 0.03534(2) -0.42682(5) 0.67649(2)
F1 F 0.38674(10) 0.8904(3) 0.69590(12)
F2 F 0.46842(9) 0.8896(3) 0.59564(12)
F3 F 0.45127(10) 0.5478(3) 0.68055(13)
O1 O 0.22931(11) 0.4349(4) 0.42942(14)
N1 N 0.32491(13) 0.8941(4) 0.50164(15)
N2 N 0.30642(14) 0.8982(4) 0.41029(17)
C1 C 0.09643(14) -0.1731(5) 0.62794(19)
C2 C 0.35841(13) 0.6482(5) 0.54414(17)
C3 C 0.18792(13) 0.1922(5) 0.55918(18)
C4 C 0.14774(15) -0.0448(5) 0.6964(2)
H1 H 0.151364 -0.079767 0.764572
C5 C 0.23811(14) 0.3770(5) 0.51812(18)
C6 C 0.08965(15) -0.1215(6) 0.5260(2)
H2 H 0.055100 -0.209564 0.481018
C7 C 0.30076(14) 0.4928(5) 0.59122(18)
H3 H 0.325880 0.353276 0.630416
H4 H 0.279490 0.604956 0.637170
C8 C 0.19343(14) 0.1361(5) 0.66115(18)
H5 H 0.228430 0.221770 0.706291
C9 C 0.41659(15) 0.7447(5) 0.62954(19)
N3 N 0.2866(2) 0.9305(5) 0.3280(2)
C10 C 0.39689(15) 0.4956(6) 0.46992(19)
H6 H 0.361061 0.438972 0.415147
H7 H 0.421104 0.347829 0.502978
H8 H 0.432755 0.603749 0.444867
C11 C 0.13475(15) 0.0618(5) 0.4924(2)
H9 H 0.129849 0.099716 0.424304
loop_
_geom_bond_atom_site_label_1
_geom_bond_atom_site_label_2
_geom_bond_site_symmetry_1
_geom_bond_site_symmetry_2
Br1 C1 1_555 1_555
F1 C9 1_555 1_555
F2 C9 1_555 1_555
F3 C9 1_555 1_555
O1 C5 1_555 1_555
N1 N2 1_555 1_555
N2 N3 1_555 1_555
C1 C4 1_555 1_555
C2 N1 1_555 1_555
C3 C5 1_555 1_555
C4 H1 1_555 1_555
C5 C7 1_555 1_555
C6 C1 1_555 1_555
H2 C6 1_555 1_555
C7 C2 1_555 1_555
H3 C7 1_555 1_555
H4 C7 1_555 1_555
C8 C3 1_555 1_555
H5 C8 1_555 1_555
C9 C2 1_555 1_555
C10 C2 1_555 1_555
H6 C10 1_555 1_555
H7 C10 1_555 1_555
H8 C10 1_555 1_555
C11 C3 1_555 1_555
H9 C11 1_555 1_555
C4 C8 1_555 1_555
C6 C11 1_555 1_555

#END
