
#######################################################################
#
#                 Cambridge Crystallographic Data Centre
#                                CCDC 
#
#######################################################################
#
# If this CIF has been generated from an entry in the Cambridge 
# Structural Database, then it will include bibliographic, chemical, 
# crystal, experimental, refinement or atomic coordinate data resulting 
# from the CCDC's data processing and validation procedures.
#
#######################################################################

data_XITSOK
_chemical_formula_moiety         'C18 H12 N2 O1'
_chemical_name_systematic        
2-Benzoyl-3-phenylcyclopropane-1,1-dicarbonitrile
_symmetry_cell_setting           monoclinic
_symmetry_space_group_name_H-M   'P 21/c'
_symmetry_Int_Tables_number      14
_space_group_name_Hall           '-P 2ybc'
loop_
_symmetry_equiv_pos_site_id
_symmetry_equiv_pos_as_xyz
1 x,y,z
2 -x,1/2+y,1/2-z
3 -x,-y,-z
4 x,1/2-y,1/2+z
_cell_length_a                   11.3178(6)
_cell_length_b                   15.0624(7)
_cell_length_c                   8.1854(4)
_cell_angle_alpha                90
_cell_angle_beta                 97.093(5)
_cell_angle_gamma                90
_cell_volume                     1384.71
_cell_formula_units_Z            4
loop_
_atom_site_label
_atom_site_type_symbol
_atom_site_fract_x
_atom_site_fract_y
_atom_site_fract_z
O1 O 0.93322(10) 0.38522(8) 1.04270(16)
C1 C 0.83450(13) 0.37104(10) 0.97034(19)
C2 C 0.85853(15) 0.20859(11) 0.9993(2)
H1 H 0.9294 0.2192 1.0668
C3 C 0.80786(13) 0.52960(10) 0.85228(18)
H2 H 0.8948 0.5260 0.8587
C4 C 0.76476(13) 0.53356(10) 1.02309(19)
C5 C 0.75466(13) 0.44824(10) 0.91810(19)
H3 H 0.6743 0.4330 0.8672
C6 C 0.68721(15) 0.26252(11) 0.8283(2)
H4 H 0.6414 0.3093 0.7811
C7 C 0.85497(15) 0.54536(11) 1.1631(2)
C8 C 0.75427(14) 0.58420(10) 0.71059(18)
C9 C 0.79101(13) 0.27982(10) 0.93078(18)
C10 C 0.63773(16) 0.57633(12) 0.6388(2)
H5 H 0.5874 0.5354 0.6797
C11 C 0.82672(16) 0.64616(12) 0.6479(2)
H6 H 0.9053 0.6523 0.6953
C12 C 0.71745(17) 0.10683(12) 0.8674(2)
H7 H 0.6918 0.0487 0.8478
C13 C 0.82125(17) 0.12302(11) 0.9681(2)
H8 H 0.8664 0.0759 1.0152
C14 C 0.6687(2) 0.69047(14) 0.4448(2)
H9 H 0.6398 0.7259 0.3556
C15 C 0.65133(16) 0.57367(11) 1.04268(19)
C16 C 0.65106(16) 0.17599(13) 0.7953(2)
H10 H 0.5820 0.1646 0.7245
C17 C 0.59579(19) 0.62932(14) 0.5060(2)
H11 H 0.5174 0.6234 0.4577
C18 C 0.7839(2) 0.69908(14) 0.5156(2)
H12 H 0.8336 0.7406 0.4749
N1 N 0.55995(14) 0.60167(11) 1.0593(2)
N2 N 0.92471(14) 0.56023(11) 1.27207(19)
loop_
_geom_bond_atom_site_label_1
_geom_bond_atom_site_label_2
_geom_bond_site_symmetry_1
_geom_bond_site_symmetry_2
O1 C1 1_555 1_555
C1 C5 1_555 1_555
C2 H1 1_555 1_555
C3 H2 1_555 1_555
C4 C3 1_555 1_555
C5 C3 1_555 1_555
H3 C5 1_555 1_555
C6 H4 1_555 1_555
C7 C4 1_555 1_555
C8 C3 1_555 1_555
C9 C1 1_555 1_555
C10 C8 1_555 1_555
H5 C10 1_555 1_555
C11 C8 1_555 1_555
H6 C11 1_555 1_555
C12 H7 1_555 1_555
C13 C2 1_555 1_555
H8 C13 1_555 1_555
C14 H9 1_555 1_555
C15 C4 1_555 1_555
C16 C6 1_555 1_555
H10 C16 1_555 1_555
C17 C10 1_555 1_555
H11 C17 1_555 1_555
C18 C11 1_555 1_555
H12 C18 1_555 1_555
N1 C15 1_555 1_555
N2 C7 1_555 1_555
C2 C9 1_555 1_555
C4 C5 1_555 1_555
C6 C9 1_555 1_555
C12 C13 1_555 1_555
C12 C16 1_555 1_555
C14 C17 1_555 1_555
C14 C18 1_555 1_555

#END
