
#######################################################################
#
#                 Cambridge Crystallographic Data Centre
#                                CCDC 
#
#######################################################################
#
# If this CIF has been generated from an entry in the Cambridge 
# Structural Database, then it will include bibliographic, chemical, 
# crystal, experimental, refinement or atomic coordinate data resulting 
# from the CCDC's data processing and validation procedures.
#
#######################################################################

data_XITWON
_chemical_formula_moiety         'C43 H21 Cl1 O2'
_chemical_name_systematic        
10-Chloro-5-phenyltriindeno(2,1-a:2',1'-c:1'',2''-f)fluoranthene-15,20-dione
_symmetry_cell_setting           monoclinic
_symmetry_space_group_name_H-M   'P 21/c'
_symmetry_Int_Tables_number      14
_space_group_name_Hall           '-P 2ybc'
loop_
_symmetry_equiv_pos_site_id
_symmetry_equiv_pos_as_xyz
1 x,y,z
2 -x,1/2+y,1/2-z
3 -x,-y,-z
4 x,1/2-y,1/2+z
_cell_length_a                   16.2097(18)
_cell_length_b                   8.0929(8)
_cell_length_c                   21.989(2)
_cell_angle_alpha                90
_cell_angle_beta                 94.950(2)
_cell_angle_gamma                90
_cell_volume                     2873.84
_exptl_crystal_colour            black
_cell_formula_units_Z            4
_exptl_crystal_recrystallization_method dichloromethane/2-propanol
loop_
_atom_site_label
_atom_site_type_symbol
_atom_site_fract_x
_atom_site_fract_y
_atom_site_fract_z
Cl1 Cl 0.37240(5) 0.06809(10) 1.21976(3)
O1 O 0.18336(11) 0.1523(2) 0.81368(7)
O2 O -0.03283(12) -0.2979(2) 0.99519(10)
C1 C 0.23762(13) 0.0669(2) 0.97371(8)
C2 C 0.31197(13) 0.0069(2) 0.93970(9)
C3 C 0.38625(14) -0.0600(3) 0.96275(10)
H1 H 0.3964 -0.0815 1.0043
C4 C 0.44511(16) -0.0942(3) 0.92299(12)
H2 H 0.4950 -0.1422 0.9378
C5 C 0.43119(17) -0.0582(3) 0.86109(12)
H3 H 0.4722 -0.0808 0.8352
C6 C 0.35805(16) 0.0098(3) 0.83785(11)
H4 H 0.3488 0.0344 0.7965
C7 C 0.29780(14) 0.0412(2) 0.87758(9)
C8 C 0.21210(14) 0.1011(2) 0.86313(9)
C9 C 0.17049(13) 0.0684(2) 0.91992(9)
C10 C 0.09934(13) -0.0180(2) 0.92252(9)
C11 C 0.02893(14) -0.0454(3) 0.87594(11)
C12 C 0.01140(16) 0.0189(4) 0.81791(11)
H5 H 0.0466 0.0949 0.8018
C13 C -0.0612(2) -0.0342(4) 0.78430(14)
H6 H -0.0730 0.0042 0.7446
C14 C -0.11556(18) -0.1420(4) 0.80849(16)
H7 H -0.1634 -0.1743 0.7852
C15 C -0.09963(17) -0.2019(4) 0.86662(15)
H8 H -0.1367 -0.2728 0.8835
C16 C -0.02696(14) -0.1541(3) 0.89963(11)
C17 C 0.00250(15) -0.2042(3) 0.96229(12)
C18 C 0.08403(14) -0.1212(2) 0.97592(10)
C19 C 0.14220(14) -0.1381(2) 1.02378(9)
C20 C 0.14456(16) -0.2217(2) 1.08358(10)
C21 C 0.09348(19) -0.3395(3) 1.10593(12)
H9 H 0.0475 -0.3791 1.0822
C22 C 0.1129(2) -0.3972(3) 1.16518(14)
H10 H 0.0790 -0.4757 1.1813
C23 C 0.1806(2) -0.3409(3) 1.19986(13)
H11 H 0.1928 -0.3841 1.2388
C24 C 0.23179(19) -0.2206(3) 1.17849(11)
H12 H 0.2778 -0.1829 1.2028
C25 C 0.21325(15) -0.1577(2) 1.12049(10)
C26 C 0.25345(14) -0.0296(2) 1.08384(9)
C27 C 0.30566(13) 0.1115(2) 1.09971(8)
C28 C 0.35078(13) 0.1665(3) 1.15111(9)
C29 C 0.38060(13) 0.3337(3) 1.14374(9)
C30 C 0.43027(15) 0.4343(3) 1.18289(10)
H13 H 0.4507 0.3963 1.2212
C31 C 0.44881(17) 0.5913(3) 1.16398(12)
H14 H 0.4826 0.6594 1.1895
C32 C 0.41744(17) 0.6480(3) 1.10727(12)
H15 H 0.4294 0.7552 1.0957
C33 C 0.36849(16) 0.5487(3) 1.06723(11)
H16 H 0.3482 0.5883 1.0291
C34 C 0.35039(13) 0.3894(2) 1.08520(9)
C35 C 0.30424(13) 0.2499(2) 1.05443(9)
C36 C 0.26802(12) 0.2390(2) 0.99712(8)
C37 C 0.21567(13) -0.0359(2) 1.02577(9)
C38 C 0.26508(13) 0.3746(2) 0.95137(8)
C39 C 0.33466(16) 0.4163(3) 0.92153(10)
H17 H 0.3850 0.3646 0.9325
C40 C 0.3292(2) 0.5341(3) 0.87573(12)
H18 H 0.3758 0.5618 0.8561
C41 C 0.2546(2) 0.6101(3) 0.85935(12)
H19 H 0.2507 0.6878 0.8281
C42 C 0.1861(2) 0.5718(3) 0.88896(12)
H20 H 0.1362 0.6251 0.8781
C43 C 0.19058(16) 0.4546(3) 0.93495(10)
H21 H 0.1438 0.4294 0.9548
loop_
_geom_bond_atom_site_label_1
_geom_bond_atom_site_label_2
_geom_bond_site_symmetry_1
_geom_bond_site_symmetry_2
Cl1 C28 1_555 1_555
O1 C8 1_555 1_555
O2 C17 1_555 1_555
C1 C2 1_555 1_555
C2 C3 1_555 1_555
C3 H1 1_555 1_555
C4 C3 1_555 1_555
H2 C4 1_555 1_555
C5 C4 1_555 1_555
H3 C5 1_555 1_555
C6 C5 1_555 1_555
H4 C6 1_555 1_555
C7 C2 1_555 1_555
C8 C7 1_555 1_555
C9 C1 1_555 1_555
C10 C9 1_555 1_555
C11 C10 1_555 1_555
C12 C11 1_555 1_555
H5 C12 1_555 1_555
C13 C12 1_555 1_555
H6 C13 1_555 1_555
C14 C13 1_555 1_555
H7 C14 1_555 1_555
C15 C14 1_555 1_555
H8 C15 1_555 1_555
C16 C11 1_555 1_555
C17 C16 1_555 1_555
C18 C10 1_555 1_555
C19 C18 1_555 1_555
C20 C19 1_555 1_555
C21 C20 1_555 1_555
H9 C21 1_555 1_555
C22 C21 1_555 1_555
H10 C22 1_555 1_555
C23 C22 1_555 1_555
H11 C23 1_555 1_555
C24 C23 1_555 1_555
H12 C24 1_555 1_555
C25 C20 1_555 1_555
C26 C25 1_555 1_555
C27 C26 1_555 1_555
C28 C27 1_555 1_555
C29 C28 1_555 1_555
C30 C29 1_555 1_555
H13 C30 1_555 1_555
C31 C30 1_555 1_555
H14 C31 1_555 1_555
C32 C31 1_555 1_555
H15 C32 1_555 1_555
C33 C32 1_555 1_555
H16 C33 1_555 1_555
C34 C29 1_555 1_555
C35 C27 1_555 1_555
C36 C1 1_555 1_555
C37 C1 1_555 1_555
C38 C36 1_555 1_555
C39 C38 1_555 1_555
H17 C39 1_555 1_555
C40 C39 1_555 1_555
H18 C40 1_555 1_555
C41 C40 1_555 1_555
H19 C41 1_555 1_555
C42 C41 1_555 1_555
H20 C42 1_555 1_555
C43 C38 1_555 1_555
H21 C43 1_555 1_555
C6 C7 1_555 1_555
C8 C9 1_555 1_555
C15 C16 1_555 1_555
C17 C18 1_555 1_555
C19 C37 1_555 1_555
C24 C25 1_555 1_555
C26 C37 1_555 1_555
C33 C34 1_555 1_555
C34 C35 1_555 1_555
C35 C36 1_555 1_555
C42 C43 1_555 1_555

#END
