
#######################################################################
#
#                 Cambridge Crystallographic Data Centre
#                                CCDC 
#
#######################################################################
#
# If this CIF has been generated from an entry in the Cambridge 
# Structural Database, then it will include bibliographic, chemical, 
# crystal, experimental, refinement or atomic coordinate data resulting 
# from the CCDC's data processing and validation procedures.
#
#######################################################################

data_XITXAA
_chemical_formula_moiety         'C59 H30 Cl2 O1,0.5(C1 H2 Cl2),0.5(C6 H14)'
_chemical_name_systematic        
"15,25-Dichloro-5,20-diphenyl-10H-benzo(e)tetraindeno(1,2-b:2',1'-h:1'',2''-k:1''',2''',3'''-mn)acephenanthrylen-10-one dichloromethane hexane solvate"
_symmetry_cell_setting           triclinic
_symmetry_space_group_name_H-M   'P -1'
_symmetry_Int_Tables_number      2
_space_group_name_Hall           '-P 1'
loop_
_symmetry_equiv_pos_site_id
_symmetry_equiv_pos_as_xyz
1 x,y,z
2 -x,-y,-z
_cell_length_a                   15.8932(11)
_cell_length_b                   16.4553(11)
_cell_length_c                   17.6576(11)
_cell_angle_alpha                89.152(1)
_cell_angle_beta                 84.070(1)
_cell_angle_gamma                78.997(1)
_cell_volume                     4508.74
_cell_formula_units_Z            4
loop_
_atom_site_label
_atom_site_type_symbol
_atom_site_fract_x
_atom_site_fract_y
_atom_site_fract_z
Cl3 Cl 0.62468(6) 0.32202(6) 0.28980(5)
Cl4 Cl 0.15973(7) 0.06518(6) 0.69156(5)
O2 O 0.11310(14) 0.52095(14) 0.56794(12)
C60 C 0.30252(18) 0.41291(18) 0.45384(15)
C61 C 0.35263(19) 0.48533(18) 0.44161(15)
C62 C 0.43412(19) 0.47184(19) 0.40895(15)
C63 C 0.4879(2) 0.5313(2) 0.37762(17)
C64 C 0.4815(2) 0.6155(2) 0.38427(19)
H31 H 0.4379 0.6465 0.4170
C65 C 0.5414(3) 0.6535(3) 0.3412(2)
H32 H 0.5376 0.7104 0.3450
C66 C 0.6064(3) 0.6077(3) 0.2929(2)
H33 H 0.6449 0.6344 0.2636
C67 C 0.6154(2) 0.5226(3) 0.28733(19)
H34 H 0.6595 0.4918 0.2550
C68 C 0.5571(2) 0.4849(2) 0.33105(17)
C69 C 0.5520(2) 0.3978(2) 0.33993(17)
C70 C 0.48242(18) 0.3889(2) 0.38804(16)
C71 C 0.44667(19) 0.32015(19) 0.42164(16)
C72 C 0.49268(19) 0.23991(19) 0.44889(16)
C73 C 0.5784(2) 0.2036(2) 0.44283(19)
H35 H 0.6190 0.2282 0.4140
C74 C 0.6038(2) 0.1293(2) 0.4804(2)
H36 H 0.6619 0.1049 0.4771
C75 C 0.5440(2) 0.0913(2) 0.5227(2)
H37 H 0.5618 0.0413 0.5469
C76 C 0.4575(2) 0.1281(2) 0.52860(19)
H38 H 0.4167 0.1030 0.5565
C77 C 0.43260(19) 0.20235(19) 0.49269(17)
C78 C 0.34201(19) 0.25379(18) 0.48967(16)
C79 C 0.36229(19) 0.33044(18) 0.44758(15)
C80 C 0.23124(19) 0.43290(18) 0.39982(16)
C81 C 0.2370(2) 0.4194(2) 0.32232(17)
H39 H 0.2880 0.3922 0.2959
C82 C 0.1642(2) 0.4476(2) 0.28512(19)
H40 H 0.1664 0.4389 0.2330
C83 C 0.0888(2) 0.4884(2) 0.3244(2)
H41 H 0.0407 0.5061 0.2983
C84 C 0.0835(2) 0.5031(2) 0.40074(19)
H42 H 0.0329 0.5315 0.4268
C85 C 0.15542(19) 0.47467(19) 0.43815(17)
C86 C 0.1651(2) 0.48197(19) 0.52001(17)
C87 C 0.24731(19) 0.42373(19) 0.53055(16)
C88 C 0.25392(18) 0.36440(19) 0.58473(15)
C89 C 0.19915(19) 0.36236(19) 0.65748(15)
C90 C 0.1574(2) 0.4260(2) 0.70674(16)
H43 H 0.1599 0.4809 0.6955
C91 C 0.1118(2) 0.4051(2) 0.77293(16)
H44 H 0.0830 0.4464 0.8067
C92 C 0.1088(2) 0.3245(2) 0.78892(17)
H45 H 0.0776 0.3121 0.8336
C93 C 0.1507(2) 0.2603(2) 0.74081(16)
H46 H 0.1478 0.2056 0.7530
C94 C 0.19723(19) 0.2793(2) 0.67414(15)
C95 C 0.2491(2) 0.22845(19) 0.61034(16)
C96 C 0.29192(18) 0.27916(18) 0.56536(16)
C97 C 0.29497(19) 0.19568(18) 0.44916(16)
C98 C 0.25155(19) 0.14601(19) 0.49181(16)
C99 C 0.2127(2) 0.07622(19) 0.46972(18)
C100 C 0.2062(3) 0.0404(2) 0.4006(2)
H47 H 0.2317 0.0592 0.3557
C101 C 0.1613(3) -0.0235(2) 0.3991(2)
H48 H 0.1580 -0.0482 0.3528
C102 C 0.1210(3) -0.0517(2) 0.4651(3)
H49 H 0.0888 -0.0930 0.4623
C103 C 0.1287(2) -0.0188(2) 0.5348(2)
H50 H 0.1032 -0.0383 0.5794
C104 C 0.1754(2) 0.04462(19) 0.53690(18)
C105 C 0.1921(2) 0.0917(2) 0.59971(17)
C106 C 0.23434(19) 0.15382(19) 0.57630(16)
C107 C 0.30442(19) 0.5710(2) 0.45946(19)
C108 C 0.2914(2) 0.6003(2) 0.5340(2)
H51 H 0.3111 0.5653 0.5729
C109 C 0.2502(3) 0.6797(3) 0.5514(3)
H52 H 0.2410 0.6979 0.6017
C110 C 0.2227(3) 0.7314(3) 0.4949(4)
H53 H 0.1967 0.7859 0.5067
C111 C 0.2327(3) 0.7047(3) 0.4206(3)
H54 H 0.2125 0.7406 0.3825
C112 C 0.2734(2) 0.6236(2) 0.4026(2)
H55 H 0.2796 0.6048 0.3525
C113 C 0.3067(2) 0.1908(2) 0.36426(17)
C114 C 0.3846(3) 0.1569(2) 0.32374(19)
H56 H 0.4332 0.1385 0.3490
C115 C 0.3893(4) 0.1509(3) 0.2447(2)
H57 H 0.4414 0.1278 0.2174
C116 C 0.3194(4) 0.1779(3) 0.2070(2)
H58 H 0.3237 0.1737 0.1542
C117 C 0.2434(3) 0.2109(3) 0.2463(2)
H59 H 0.1951 0.2286 0.2204
C118 C 0.2367(3) 0.2187(2) 0.32460(19)
H60 H 0.1844 0.2431 0.3508
Cl5 Cl 1.0653(3) 0.2934(3) 0.5076(3)
Cl6 Cl 0.9981(4) 0.2071(3) 0.3980(5)
C119 C 0.9910(9) 0.2999(7) 0.4441(9)
H61 H 0.9998 0.3422 0.4069
H62 H 0.9338 0.3161 0.4705
Cl1 Cl 0.43913(6) 0.34856(6) 0.19343(4)
Cl2 Cl 0.89248(8) -0.04742(6) -0.19727(5)
O1 O 0.91972(16) 0.42638(16) -0.10532(13)
C1 C 0.73725(19) 0.20571(19) 0.00156(15)
C2 C 0.6533(2) 0.17390(19) 0.00292(16)
C3 C 0.6382(2) 0.1023(2) -0.02866(18)
H1 H 0.6831 0.0654 -0.0547
C4 C 0.5551(3) 0.0862(2) -0.0209(2)
H2 H 0.5440 0.0385 -0.0423
C5 C 0.4885(3) 0.1412(3) 0.0186(2)
H3 H 0.4330 0.1299 0.0232
C6 C 0.5033(2) 0.2127(2) 0.05143(18)
H4 H 0.4582 0.2494 0.0776
C7 C 0.5866(2) 0.2288(2) 0.04461(16)
C8 C 0.62172(19) 0.30045(19) 0.06523(15)
C9 C 0.57531(19) 0.37979(19) 0.09357(15)
C10 C 0.50139(19) 0.4076(2) 0.13941(16)
C11 C 0.4811(2) 0.4966(2) 0.14219(16)
C12 C 0.4129(2) 0.5503(2) 0.18056(18)
H5 H 0.3709 0.5305 0.2123
C13 C 0.4091(2) 0.6342(3) 0.1702(2)
H6 H 0.3638 0.6712 0.1956
C14 C 0.4705(2) 0.6644(2) 0.12357(19)
H7 H 0.4653 0.7213 0.1168
C15 C 0.5403(2) 0.6108(2) 0.08625(18)
H8 H 0.5824 0.6312 0.0552
C16 C 0.5460(2) 0.5269(2) 0.09616(16)
C17 C 0.61134(19) 0.45310(19) 0.06821(15)
C18 C 0.69182(19) 0.44660(18) 0.03464(15)
C19 C 0.75313(19) 0.36150(18) 0.02452(15)
C20 C 0.70570(19) 0.29068(18) 0.03841(15)
C21 C 0.8279(2) 0.36606(18) 0.07176(17)
C22 C 0.8307(2) 0.3549(2) 0.14950(19)
H9 H 0.7847 0.3403 0.1800
C23 C 0.9045(3) 0.3662(2) 0.1803(2)
H10 H 0.9084 0.3581 0.2322
C24 C 0.9722(3) 0.3894(3) 0.1352(3)
H11 H 1.0210 0.3963 0.1573
C25 C 0.9689(2) 0.4023(2) 0.0586(3)
H12 H 1.0142 0.4190 0.0287
C26 C 0.8960(2) 0.38980(19) 0.02705(19)
C27 C 0.8774(2) 0.3981(2) -0.05387(19)
C28 C 0.80268(19) 0.35520(19) -0.05608(16)
C29 C 0.80306(19) 0.29322(19) -0.10474(16)
C30 C 0.8548(2) 0.2729(2) -0.17865(15)
C31 C 0.8852(2) 0.3228(2) -0.23409(17)
H13 H 0.8734 0.3801 -0.2283
C32 C 0.9340(2) 0.2857(2) -0.29908(18)
H14 H 0.9551 0.3187 -0.3369
C33 C 0.9511(2) 0.2017(2) -0.30775(17)
H15 H 0.9843 0.1784 -0.3513
C34 C 0.9200(2) 0.1500(2) -0.25281(15)
H16 H 0.9326 0.0928 -0.2589
C35 C 0.8698(2) 0.1863(2) -0.18885(15)
C36 C 0.82714(19) 0.15154(19) -0.12074(15)
C37 C 0.77981(19) 0.21551(19) -0.07778(15)
C38 C 0.8489(2) 0.0714(2) -0.08410(15)
C39 C 0.8803(2) -0.0072(2) -0.10642(17)
C40 C 0.9013(2) -0.0606(2) -0.04178(18)
C41 C 0.9339(2) -0.1438(2) -0.0388(2)
H17 H 0.9444 -0.1761 -0.0828
C42 C 0.9510(2) -0.1788(2) 0.0311(2)
H18 H 0.9727 -0.2352 0.0345
C43 C 0.9359(2) -0.1296(2) 0.0960(2)
H19 H 0.9495 -0.1532 0.1425
C44 C 0.9009(2) -0.0462(2) 0.09304(18)
H20 H 0.8893 -0.0144 0.1373
C45 C 0.8835(2) -0.01074(19) 0.02377(16)
C46 C 0.8433(2) 0.07281(19) 0.00088(16)
C47 C 0.79620(19) 0.13734(19) 0.04279(16)
C48 C 0.72626(19) 0.52284(18) 0.01227(16)
C49 C 0.7623(2) 0.5652(2) 0.06291(19)
H21 H 0.7688 0.5440 0.1115
C50 C 0.7887(3) 0.6380(2) 0.0433(2)
H22 H 0.8134 0.6655 0.0782
C51 C 0.7784(2) 0.6702(2) -0.0285(2)
H23 H 0.7949 0.7203 -0.0417
C52 C 0.7441(2) 0.6287(2) -0.0798(2)
H24 H 0.7382 0.6498 -0.1285
C53 C 0.7180(2) 0.5554(2) -0.05999(17)
H25 H 0.6946 0.5275 -0.0955
C54 C 0.7887(2) 0.13830(19) 0.12782(17)
C55 C 0.7159(3) 0.1253(2) 0.17132(19)
H26 H 0.6690 0.1158 0.1477
C56 C 0.7116(3) 0.1261(3) 0.2500(2)
H27 H 0.6625 0.1157 0.2789
C57 C 0.7786(5) 0.1421(3) 0.2850(2)
H28 H 0.7746 0.1448 0.3379
C58 C 0.8511(4) 0.1540(3) 0.2431(2)
H29 H 0.8978 0.1632 0.2671
C59 C 0.8560(3) 0.1524(2) 0.1638(2)
H30 H 0.9059 0.1612 0.1352
Cl7? Cl 0.9966(8) 0.2384(12) 0.3633(9)
Cl8? Cl 1.0500(8) 0.2767(10) 0.5107(5)
C120? C 0.9948(15) 0.3082(12) 0.4357(9)
H63? H 1.0163 0.3554 0.4135
H64? H 0.9351 0.3277 0.4550
loop_
_geom_bond_atom_site_label_1
_geom_bond_atom_site_label_2
_geom_bond_site_symmetry_1
_geom_bond_site_symmetry_2
Cl1 C10 1_555 1_555
Cl2 C39 1_555 1_555
Cl3 C69 1_555 1_555
Cl4 C105 1_555 1_555
O1 C27 1_555 1_555
O2 C86 1_555 1_555
C1 C2 1_555 1_555
C2 C3 1_555 1_555
C3 H1 1_555 1_555
C4 C3 1_555 1_555
H2 C4 1_555 1_555
C5 C4 1_555 1_555
H3 C5 1_555 1_555
C6 C5 1_555 1_555
H4 C6 1_555 1_555
C7 C2 1_555 1_555
C8 C7 1_555 1_555
C9 C8 1_555 1_555
C10 C9 1_555 1_555
C11 C10 1_555 1_555
C12 C11 1_555 1_555
H5 C12 1_555 1_555
C13 C12 1_555 1_555
H6 C13 1_555 1_555
C14 C13 1_555 1_555
H7 C14 1_555 1_555
C15 C14 1_555 1_555
H8 C15 1_555 1_555
C16 C11 1_555 1_555
C17 C9 1_555 1_555
C18 C17 1_555 1_555
C19 C18 1_555 1_555
C20 C1 1_555 1_555
C21 C19 1_555 1_555
C22 C21 1_555 1_555
H9 C22 1_555 1_555
C23 C22 1_555 1_555
H10 C23 1_555 1_555
C24 C23 1_555 1_555
H11 C24 1_555 1_555
C25 C24 1_555 1_555
H12 C25 1_555 1_555
C26 C21 1_555 1_555
C27 C26 1_555 1_555
C28 C19 1_555 1_555
C29 C28 1_555 1_555
C30 C29 1_555 1_555
C31 C30 1_555 1_555
H13 C31 1_555 1_555
C32 C31 1_555 1_555
H14 C32 1_555 1_555
C33 C32 1_555 1_555
H15 C33 1_555 1_555
C34 C33 1_555 1_555
H16 C34 1_555 1_555
C35 C30 1_555 1_555
C36 C35 1_555 1_555
C37 C1 1_555 1_555
C38 C36 1_555 1_555
C39 C38 1_555 1_555
C40 C39 1_555 1_555
C41 C40 1_555 1_555
H17 C41 1_555 1_555
C42 C41 1_555 1_555
H18 C42 1_555 1_555
C43 C42 1_555 1_555
H19 C43 1_555 1_555
C44 C43 1_555 1_555
H20 C44 1_555 1_555
C45 C40 1_555 1_555
C46 C38 1_555 1_555
C47 C1 1_555 1_555
C48 C18 1_555 1_555
C49 C48 1_555 1_555
H21 C49 1_555 1_555
C50 C49 1_555 1_555
H22 C50 1_555 1_555
C51 C50 1_555 1_555
H23 C51 1_555 1_555
C52 C51 1_555 1_555
H24 C52 1_555 1_555
C53 C48 1_555 1_555
H25 C53 1_555 1_555
C54 C47 1_555 1_555
C55 C54 1_555 1_555
H26 C55 1_555 1_555
C56 C55 1_555 1_555
H27 C56 1_555 1_555
C57 C56 1_555 1_555
H28 C57 1_555 1_555
C58 C57 1_555 1_555
H29 C58 1_555 1_555
C59 C54 1_555 1_555
H30 C59 1_555 1_555
C60 C61 1_555 1_555
C61 C62 1_555 1_555
C62 C63 1_555 1_555
C63 C64 1_555 1_555
C64 H31 1_555 1_555
C65 C64 1_555 1_555
H32 C65 1_555 1_555
C66 C65 1_555 1_555
H33 C66 1_555 1_555
C67 C66 1_555 1_555
H34 C67 1_555 1_555
C68 C63 1_555 1_555
C69 C68 1_555 1_555
C70 C62 1_555 1_555
C71 C70 1_555 1_555
C72 C71 1_555 1_555
C73 C72 1_555 1_555
H35 C73 1_555 1_555
C74 C73 1_555 1_555
H36 C74 1_555 1_555
C75 C74 1_555 1_555
H37 C75 1_555 1_555
C76 C75 1_555 1_555
H38 C76 1_555 1_555
C77 C72 1_555 1_555
C78 C77 1_555 1_555
C79 C60 1_555 1_555
C80 C60 1_555 1_555
C81 C80 1_555 1_555
H39 C81 1_555 1_555
C82 C81 1_555 1_555
H40 C82 1_555 1_555
C83 C82 1_555 1_555
H41 C83 1_555 1_555
C84 C83 1_555 1_555
H42 C84 1_555 1_555
C85 C80 1_555 1_555
C86 C85 1_555 1_555
C87 C60 1_555 1_555
C88 C87 1_555 1_555
C89 C88 1_555 1_555
C90 C89 1_555 1_555
H43 C90 1_555 1_555
C91 C90 1_555 1_555
H44 C91 1_555 1_555
C92 C91 1_555 1_555
H45 C92 1_555 1_555
C93 C92 1_555 1_555
H46 C93 1_555 1_555
C94 C89 1_555 1_555
C95 C94 1_555 1_555
C96 C78 1_555 1_555
C97 C78 1_555 1_555
C98 C97 1_555 1_555
C99 C98 1_555 1_555
C100 C99 1_555 1_555
H47 C100 1_555 1_555
C101 C100 1_555 1_555
H48 C101 1_555 1_555
C102 C101 1_555 1_555
H49 C102 1_555 1_555
C103 C102 1_555 1_555
H50 C103 1_555 1_555
C104 C99 1_555 1_555
C105 C104 1_555 1_555
C106 C95 1_555 1_555
C107 C61 1_555 1_555
C108 C107 1_555 1_555
H51 C108 1_555 1_555
C109 C108 1_555 1_555
H52 C109 1_555 1_555
C110 C109 1_555 1_555
H53 C110 1_555 1_555
C111 C110 1_555 1_555
H54 C111 1_555 1_555
C112 C107 1_555 1_555
H55 C112 1_555 1_555
C113 C97 1_555 1_555
C114 C113 1_555 1_555
H56 C114 1_555 1_555
C115 C114 1_555 1_555
H57 C115 1_555 1_555
C116 C115 1_555 1_555
H58 C116 1_555 1_555
C117 C116 1_555 1_555
H59 C117 1_555 1_555
C118 C113 1_555 1_555
H60 C118 1_555 1_555
Cl5 C119 1_555 1_555
Cl6 C119 1_555 1_555
C119 H61 1_555 1_555
H62 C119 1_555 1_555
C6 C7 1_555 1_555
C8 C20 1_555 1_555
C15 C16 1_555 1_555
C16 C17 1_555 1_555
C19 C20 1_555 1_555
C25 C26 1_555 1_555
C27 C28 1_555 1_555
C29 C37 1_555 1_555
C34 C35 1_555 1_555
C36 C37 1_555 1_555
C44 C45 1_555 1_555
C45 C46 1_555 1_555
C46 C47 1_555 1_555
C52 C53 1_555 1_555
C58 C59 1_555 1_555
C67 C68 1_555 1_555
C69 C70 1_555 1_555
C71 C79 1_555 1_555
C76 C77 1_555 1_555
C78 C79 1_555 1_555
C84 C85 1_555 1_555
C86 C87 1_555 1_555
C88 C96 1_555 1_555
C93 C94 1_555 1_555
C95 C96 1_555 1_555
C98 C106 1_555 1_555
C103 C104 1_555 1_555
C105 C106 1_555 1_555
C111 C112 1_555 1_555
C117 C118 1_555 1_555

#END
