
#######################################################################
#
#                 Cambridge Crystallographic Data Centre
#                                CCDC 
#
#######################################################################
#
# If this CIF has been generated from an entry in the Cambridge 
# Structural Database, then it will include bibliographic, chemical, 
# crystal, experimental, refinement or atomic coordinate data resulting 
# from the CCDC's data processing and validation procedures.
#
#######################################################################

data_XITYUU
_chemical_formula_moiety         'C15 H20 S2'
_chemical_name_systematic        
10,11,14-Trimethyl-2,7-dithia(8)metacyclophan-4-ene
_symmetry_cell_setting           triclinic
_symmetry_space_group_name_H-M   'P -1'
_symmetry_Int_Tables_number      2
_space_group_name_Hall           '-P 1'
loop_
_symmetry_equiv_pos_site_id
_symmetry_equiv_pos_as_xyz
1 x,y,z
2 -x,-y,-z
_cell_length_a                   9.899(2)
_cell_length_b                   12.920(2)
_cell_length_c                   13.062(1)
_cell_angle_alpha                117.90(1)
_cell_angle_beta                 95.91(1)
_cell_angle_gamma                99.46(1)
_cell_volume                     1424.97
_exptl_crystal_colour            colorless
_exptl_crystal_description       prisms
_cell_formula_units_Z            4
loop_
_atom_site_label
_atom_site_type_symbol
_atom_site_fract_x
_atom_site_fract_y
_atom_site_fract_z
C1 C 0.26171(19) 0.33585(18) 0.70617(18)
H1 H 0.2648 0.4176 0.7197
H2 H 0.2736 0.2872 0.6250
S1 S 0.40979(5) 0.34356(5) 0.80788(5)
C2 C 0.3393(2) 0.3574(2) 0.93591(19)
H3 H 0.4139 0.4038 1.0071
H4 H 0.2661 0.4020 0.9459
C3 C 0.2793(2) 0.2367(2) 0.92347(18)
H5 H 0.3375 0.1826 0.9067
C4 C 0.1517(2) 0.2000(2) 0.93407(18)
H6 H 0.0943 0.2549 0.9557
C5 C 0.0932(3) 0.0756(2) 0.9134(2)
H7 H 0.1035 0.0786 0.9903
H8 H 0.1499 0.0225 0.8671
S2 S -0.08900(6) 0.00828(5) 0.83790(6)
C6 C -0.0942(2) 0.00017(18) 0.6943(2)
H9 H -0.0290 -0.0468 0.6541
H10 H -0.1885 -0.0422 0.6456
C7 C -0.0559(2) 0.12364(17) 0.70477(16)
C8 C -0.1446(2) 0.20257(19) 0.74768(18)
C9 C -0.0974(2) 0.32387(19) 0.77923(19)
C10 C 0.0353(2) 0.36264(17) 0.76572(18)
H11 H 0.0693 0.4449 0.7910
C11 C 0.11957(18) 0.28390(17) 0.71601(16)
C12 C 0.07238(18) 0.16152(16) 0.68151(15)
C13 C 0.1637(2) 0.07541(18) 0.62704(18)
H12 H 0.1080 0.0029 0.5572
H13 H 0.2026 0.0544 0.6840
H14 H 0.2391 0.1137 0.6050
C14 C -0.2892(2) 0.1593(2) 0.7613(2)
H15 H -0.2869 0.1798 0.8431
H16 H -0.3204 0.0724 0.7108
H17 H -0.3535 0.1978 0.7388
C15 C -0.1866(3) 0.4129(2) 0.8300(3)
H18 H -0.2231 0.4050 0.8928
H19 H -0.2638 0.3965 0.7681
H20 H -0.1303 0.4943 0.8616
C16 C 0.3591(2) 0.8666(2) 0.5473(2)
H21 H 0.3935 0.9545 0.5944
H22 H 0.2978 0.8485 0.4742
S3 S 0.50921(6) 0.80103(6) 0.50803(6)
C17 C 0.4703(3) 0.6582(2) 0.5088(2)
H23 H 0.3695 0.6219 0.4805
H24 H 0.5186 0.6028 0.4538
C18 C 0.5134(2) 0.67275(19) 0.6285(2)
H25 H 0.6064 0.7135 0.6689
C19 C 0.4304(2) 0.63255(18) 0.68192(19)
H26 H 0.3388 0.5880 0.6403
C20 C 0.4736(3) 0.6536(2) 0.8047(2)
H27 H 0.5554 0.7223 0.8460
H28 H 0.5027 0.5825 0.7991
S4 S 0.34086(7) 0.68308(6) 0.89371(5)
C21 C 0.2993(3) 0.8199(2) 0.9040(2)
H29 H 0.2328 0.8441 0.9564
H30 H 0.3849 0.8851 0.9400
C22 C 0.2377(2) 0.80523(17) 0.78593(17)
C23 C 0.1016(2) 0.73369(18) 0.72749(19)
C24 C 0.0523(2) 0.70701(19) 0.6112(2)
C25 C 0.1398(2) 0.7504(2) 0.55684(19)
H31 H 0.1084 0.7287 0.4774
C26 C 0.2724(2) 0.82482(17) 0.61542(18)
C27 C 0.3207(2) 0.85652(16) 0.73267(17)
C28 C 0.4613(3) 0.9434(2) 0.7996(2)
H32 H 0.5264 0.9005 0.8132
H33 H 0.4512 1.0066 0.8751
H34 H 0.4964 0.9790 0.7537
C29 C 0.0069(3) 0.6852(3) 0.7863(3)
H35 H 0.0540 0.7137 0.8669
H36 H -0.0158 0.5977 0.7427
H37 H -0.0785 0.7129 0.7871
C30 C -0.0934(3) 0.6313(3) 0.5441(3)
H38 H -0.1615 0.6751 0.5805
H39 H -0.1081 0.5563 0.5463
H40 H -0.1041 0.6138 0.4626
loop_
_geom_bond_atom_site_label_1
_geom_bond_atom_site_label_2
_geom_bond_site_symmetry_1
_geom_bond_site_symmetry_2
C1 H1 1_555 1_555
H2 C1 1_555 1_555
S1 C1 1_555 1_555
C2 S1 1_555 1_555
H3 C2 1_555 1_555
H4 C2 1_555 1_555
C3 C2 1_555 1_555
H5 C3 1_555 1_555
C4 C3 1_555 1_555
H6 C4 1_555 1_555
C5 C4 1_555 1_555
H7 C5 1_555 1_555
H8 C5 1_555 1_555
S2 C5 1_555 1_555
C6 S2 1_555 1_555
H9 C6 1_555 1_555
H10 C6 1_555 1_555
C7 C6 1_555 1_555
C8 C7 1_555 1_555
C9 C8 1_555 1_555
C10 C9 1_555 1_555
H11 C10 1_555 1_555
C11 C1 1_555 1_555
C12 C7 1_555 1_555
C13 C12 1_555 1_555
H12 C13 1_555 1_555
H13 C13 1_555 1_555
H14 C13 1_555 1_555
C14 C8 1_555 1_555
H15 C14 1_555 1_555
H16 C14 1_555 1_555
H17 C14 1_555 1_555
C15 C9 1_555 1_555
H18 C15 1_555 1_555
H19 C15 1_555 1_555
H20 C15 1_555 1_555
C16 H21 1_555 1_555
H22 C16 1_555 1_555
S3 C16 1_555 1_555
C17 S3 1_555 1_555
H23 C17 1_555 1_555
H24 C17 1_555 1_555
C18 C17 1_555 1_555
H25 C18 1_555 1_555
C19 C18 1_555 1_555
H26 C19 1_555 1_555
C20 C19 1_555 1_555
H27 C20 1_555 1_555
H28 C20 1_555 1_555
S4 C20 1_555 1_555
C21 S4 1_555 1_555
H29 C21 1_555 1_555
H30 C21 1_555 1_555
C22 C21 1_555 1_555
C23 C22 1_555 1_555
C24 C23 1_555 1_555
C25 C24 1_555 1_555
H31 C25 1_555 1_555
C26 C16 1_555 1_555
C27 C22 1_555 1_555
C28 C27 1_555 1_555
H32 C28 1_555 1_555
H33 C28 1_555 1_555
H34 C28 1_555 1_555
C29 C23 1_555 1_555
H35 C29 1_555 1_555
H36 C29 1_555 1_555
H37 C29 1_555 1_555
C30 C24 1_555 1_555
H38 C30 1_555 1_555
H39 C30 1_555 1_555
H40 C30 1_555 1_555
C10 C11 1_555 1_555
C11 C12 1_555 1_555
C25 C26 1_555 1_555
C26 C27 1_555 1_555

#END
