
#######################################################################
#
#                 Cambridge Crystallographic Data Centre
#                                CCDC 
#
#######################################################################
#
# If this CIF has been generated from an entry in the Cambridge 
# Structural Database, then it will include bibliographic, chemical, 
# crystal, experimental, refinement or atomic coordinate data resulting 
# from the CCDC's data processing and validation procedures.
#
#######################################################################

data_XIVDEM
_chemical_formula_moiety         'C19 H24 N2'
_chemical_name_systematic        N'-(2,6-Di-isopropylphenyl)benzamidine
_symmetry_cell_setting           monoclinic
_symmetry_space_group_name_H-M   'P 21/c'
_symmetry_Int_Tables_number      14
_space_group_name_Hall           '-P 2ybc'
loop_
_symmetry_equiv_pos_site_id
_symmetry_equiv_pos_as_xyz
1 x,y,z
2 -x,1/2+y,1/2-z
3 -x,-y,-z
4 x,1/2-y,1/2+z
_cell_length_a                   11.3234(16)
_cell_length_b                   14.786(2)
_cell_length_c                   10.2105(15)
_cell_angle_alpha                90
_cell_angle_beta                 93.313(4)
_cell_angle_gamma                90
_cell_volume                     1706.66
_exptl_crystal_colour            colorless
_exptl_crystal_description       block
_chemical_melting_point          '162-163 deg.C'
_cell_formula_units_Z            4
_exptl_crystal_recrystallization_method hexane/toluene
loop_
_atom_site_label
_atom_site_type_symbol
_atom_site_fract_x
_atom_site_fract_y
_atom_site_fract_z
N1 N 0.35246(19) 0.20529(15) 0.67479(19)
H1 H 0.278(3) 0.1794(19) 0.664(3)
H2 H 0.372(3) 0.228(2) 0.762(3)
N2 N 0.34869(15) 0.23654(12) 0.44951(16)
C1 C 0.39726(18) 0.24127(14) 0.5668(2)
C2 C 0.51449(19) 0.28630(16) 0.5871(2)
C3 C 0.5425(3) 0.3594(2) 0.5098(3)
H3 H 0.4868 0.3811 0.4455
C4 C 0.6517(3) 0.4005(3) 0.5267(3)
H4 H 0.6695 0.4508 0.4752
C5 C 0.7346(3) 0.3681(3) 0.6187(4)
H5 H 0.8102 0.3944 0.6274
C6 C 0.7066(3) 0.2972(3) 0.6979(4)
H6 H 0.7624 0.2760 0.7624
C7 C 0.5962(2) 0.25681(19) 0.6829(3)
H7 H 0.5770 0.2090 0.7385
C8 C 0.23534(18) 0.19415(15) 0.43299(19)
C9 C 0.22568(19) 0.09958(16) 0.4286(2)
C10 C 0.1134(2) 0.06177(17) 0.4066(2)
H8 H 0.1053 -0.0015 0.4032
C11 C 0.0143(2) 0.11543(18) 0.3898(2)
H9 H -0.0608 0.0888 0.3760
C12 C 0.0251(2) 0.20764(18) 0.3930(2)
H10 H -0.0432 0.2436 0.3818
C13 C 0.13466(19) 0.24947(16) 0.4126(2)
C14 C 0.3342(2) 0.03886(16) 0.4423(2)
H11 H 0.3997 0.0751 0.4836
C15 C 0.3169(3) -0.0429(2) 0.5289(3)
H12 H 0.2915 -0.0232 0.6134
H13 H 0.3909 -0.0757 0.5412
H14 H 0.2571 -0.0822 0.4874
C16 C 0.3705(3) 0.0102(2) 0.3070(3)
H15 H 0.3076 -0.0251 0.2636
H16 H 0.4420 -0.0260 0.3161
H17 H 0.3853 0.0636 0.2551
C17 C 0.1448(2) 0.35175(16) 0.4153(2)
H18 H 0.2276 0.3675 0.3990
C18 C 0.1188(3) 0.3885(2) 0.5497(3)
H19 H 0.0380 0.3740 0.5684
H20 H 0.1293 0.4536 0.5506
H21 H 0.1726 0.3612 0.6157
C19 C 0.0652(3) 0.3969(2) 0.3081(3)
H22 H 0.0787 0.3694 0.2240
H23 H 0.0835 0.4610 0.3047
H24 H -0.0170 0.3891 0.3276
loop_
_geom_bond_atom_site_label_1
_geom_bond_atom_site_label_2
_geom_bond_site_symmetry_1
_geom_bond_site_symmetry_2
N1 H1 1_555 1_555
H2 N1 1_555 1_555
N2 C1 1_555 1_555
C1 N1 1_555 1_555
C2 C1 1_555 1_555
C3 C2 1_555 1_555
H3 C3 1_555 1_555
C4 C3 1_555 1_555
H4 C4 1_555 1_555
C5 C4 1_555 1_555
H5 C5 1_555 1_555
C6 C5 1_555 1_555
H6 C6 1_555 1_555
C7 C2 1_555 1_555
H7 C7 1_555 1_555
C8 N2 1_555 1_555
C9 C8 1_555 1_555
C10 C9 1_555 1_555
H8 C10 1_555 1_555
C11 C10 1_555 1_555
H9 C11 1_555 1_555
C12 C11 1_555 1_555
H10 C12 1_555 1_555
C13 C8 1_555 1_555
C14 C9 1_555 1_555
H11 C14 1_555 1_555
C15 C14 1_555 1_555
H12 C15 1_555 1_555
H13 C15 1_555 1_555
H14 C15 1_555 1_555
C16 C14 1_555 1_555
H15 C16 1_555 1_555
H16 C16 1_555 1_555
H17 C16 1_555 1_555
C17 C13 1_555 1_555
H18 C17 1_555 1_555
C18 C17 1_555 1_555
H19 C18 1_555 1_555
H20 C18 1_555 1_555
H21 C18 1_555 1_555
C19 C17 1_555 1_555
H22 C19 1_555 1_555
H23 C19 1_555 1_555
H24 C19 1_555 1_555
C6 C7 1_555 1_555
C12 C13 1_555 1_555

#END
