
#######################################################################
#
#                 Cambridge Crystallographic Data Centre
#                                CCDC 
#
#######################################################################
#
# If this CIF has been generated from an entry in the Cambridge 
# Structural Database, then it will include bibliographic, chemical, 
# crystal, experimental, refinement or atomic coordinate data resulting 
# from the CCDC's data processing and validation procedures.
#
#######################################################################

data_XIVNOH
_chemical_formula_moiety         'C12 H9 N3 S1'
_chemical_name_systematic        3-(pyridin-4-yl)-4H-1,2,4-benzothiadiazine
_symmetry_cell_setting           monoclinic
_symmetry_space_group_name_H-M   'P 21/c'
_symmetry_Int_Tables_number      14
_space_group_name_Hall           '-P 2ybc'
loop_
_symmetry_equiv_pos_site_id
_symmetry_equiv_pos_as_xyz
1 x,y,z
2 -x,1/2+y,1/2-z
3 -x,-y,-z
4 x,1/2-y,1/2+z
_cell_length_a                   15.6603(3)
_cell_length_b                   7.40200(10)
_cell_length_c                   18.6797(3)
_cell_angle_alpha                90
_cell_angle_beta                 106.7799(9)
_cell_angle_gamma                90
_cell_volume                     2073.11
_exptl_crystal_colour            pink
_exptl_crystal_description       block
_cell_formula_units_Z            8
loop_
_atom_site_label
_atom_site_type_symbol
_atom_site_fract_x
_atom_site_fract_y
_atom_site_fract_z
S1 S 0.16258(2) 0.37435(6) 0.31084(2)
N1 N -0.02049(8) 0.47612(19) 0.21938(7)
H1 H -0.0720(13) 0.520(3) 0.1942(11)
N2 N 0.07662(8) 0.44185(18) 0.34286(7)
N3 N -0.21130(9) 0.5442(2) 0.39728(8)
C1 C 0.04613(10) 0.5042(2) 0.18267(8)
C2 C 0.13519(10) 0.4645(2) 0.21958(8)
C3 C 0.20081(11) 0.4912(2) 0.18422(10)
H2 H 0.2628(13) 0.463(3) 0.2102(10)
C4 C 0.17781(12) 0.5523(2) 0.11081(10)
H3 H 0.2252(12) 0.566(3) 0.0827(11)
C5 C 0.08951(12) 0.5920(2) 0.07428(9)
H4 H 0.0742(12) 0.638(3) 0.0244(11)
C6 C 0.02354(11) 0.5704(2) 0.11034(9)
H5 H -0.0338(13) 0.602(2) 0.0867(10)
C7 C -0.00018(9) 0.4760(2) 0.29626(8)
C8 C -0.07475(9) 0.5081(2) 0.32908(8)
C9 C -0.05768(10) 0.5738(2) 0.40169(9)
H6 H 0.0031(14) 0.607(3) 0.4289(11)
C10 C -0.12717(11) 0.5905(2) 0.43293(9)
H7 H -0.1181(13) 0.637(3) 0.4808(12)
C11 C -0.22693(11) 0.4819(3) 0.32755(9)
H8 H -0.2874(14) 0.448(3) 0.3035(11)
C12 C -0.16230(10) 0.4635(2) 0.29099(9)
H9 H -0.1794(13) 0.415(3) 0.2421(11)
S2 S 0.58698(3) -0.09279(6) 0.11744(3)
N4 N 0.39383(9) -0.0230(2) 0.09286(8)
H10 H 0.3376(15) -0.005(3) 0.0851(12)
N5 N 0.50033(8) -0.19926(19) 0.05543(7)
N6 N 0.20767(9) -0.4692(2) -0.09205(8)
C13 C 0.44868(10) 0.1241(2) 0.12501(8)
C14 C 0.54081(10) 0.1122(2) 0.13745(9)
C15 C 0.59420(11) 0.2605(3) 0.16554(9)
H11 H 0.6566(13) 0.249(3) 0.1718(11)
C16 C 0.55657(13) 0.4170(3) 0.18450(10)
H12 H 0.5924(15) 0.521(3) 0.2017(13)
C17 C 0.46597(13) 0.4262(3) 0.17476(10)
H13 H 0.4391(13) 0.532(3) 0.1849(11)
C18 C 0.41164(11) 0.2804(2) 0.14402(9)
H14 H 0.3490(13) 0.288(3) 0.1340(11)
C19 C 0.41993(10) -0.1562(2) 0.05243(8)
C20 C 0.34656(9) -0.2635(2) 0.00154(8)
C21 C 0.35905(11) -0.4439(2) -0.01286(9)
H15 H 0.4138(14) -0.501(3) 0.0077(11)
C22 C 0.28850(11) -0.5404(2) -0.05885(10)
H16 H 0.2944(12) -0.667(3) -0.0682(10)
C23 C 0.19739(10) -0.2948(2) -0.07881(9)
H17 H 0.1397(13) -0.240(3) -0.1054(11)
C24 C 0.26317(10) -0.1878(2) -0.03295(8)
H18 H 0.2525(12) -0.070(3) -0.0268(10)
loop_
_geom_bond_atom_site_label_1
_geom_bond_atom_site_label_2
_geom_bond_site_symmetry_1
_geom_bond_site_symmetry_2
S1 N2 1_555 1_555
N1 H1 1_555 1_555
N2 C7 1_555 1_555
N3 C10 1_555 1_555
C1 N1 1_555 1_555
C2 S1 1_555 1_555
C3 C2 1_555 1_555
H2 C3 1_555 1_555
C4 C3 1_555 1_555
H3 C4 1_555 1_555
C5 C4 1_555 1_555
H4 C5 1_555 1_555
C6 C1 1_555 1_555
H5 C6 1_555 1_555
C7 N1 1_555 1_555
C8 C7 1_555 1_555
C9 C8 1_555 1_555
H6 C9 1_555 1_555
C10 C9 1_555 1_555
H7 C10 1_555 1_555
C11 N3 1_555 1_555
H8 C11 1_555 1_555
C12 C8 1_555 1_555
H9 C12 1_555 1_555
S2 N5 1_555 1_555
N4 H10 1_555 1_555
N5 C19 1_555 1_555
N6 C22 1_555 1_555
C13 N4 1_555 1_555
C14 S2 1_555 1_555
C15 C14 1_555 1_555
H11 C15 1_555 1_555
C16 C15 1_555 1_555
H12 C16 1_555 1_555
C17 C16 1_555 1_555
H13 C17 1_555 1_555
C18 C13 1_555 1_555
H14 C18 1_555 1_555
C19 N4 1_555 1_555
C20 C19 1_555 1_555
C21 C20 1_555 1_555
H15 C21 1_555 1_555
C22 C21 1_555 1_555
H16 C22 1_555 1_555
C23 N6 1_555 1_555
H17 C23 1_555 1_555
C24 C20 1_555 1_555
H18 C24 1_555 1_555
C1 C2 1_555 1_555
C5 C6 1_555 1_555
C11 C12 1_555 1_555
C13 C14 1_555 1_555
C17 C18 1_555 1_555
C23 C24 1_555 1_555

#END
