
#######################################################################
#
#                 Cambridge Crystallographic Data Centre
#                                CCDC 
#
#######################################################################
#
# If this CIF has been generated from an entry in the Cambridge 
# Structural Database, then it will include bibliographic, chemical, 
# crystal, experimental, refinement or atomic coordinate data resulting 
# from the CCDC's data processing and validation procedures.
#
#######################################################################

data_XIVYIN
_chemical_name_common            'Et-H-[4+4]-C,C-Cage tetragonal modification'
_chemical_formula_moiety         'C96 H120'
_chemical_name_systematic        
'2,14,16,28,30,42,44,56,59,63,67,71-dodecaethyltridecacyclo[34.20.2.2^8,29^.2^15,50^.2^22,43^.1^3,55^.1^6,10^.1^13,17^.1^20,24^.1^27,31^.1^34,38^.1^41,45^.1^48,52^]doheptaconta-1,3(59),6(72),7,9,13(71),14,16,20(70),21,23,27(67),28,30,34(66),35,37,41(63),42,44,48(60),49,51,55-tetracosaene unknown solvate'
_symmetry_cell_setting           tetragonal
_symmetry_space_group_name_H-M   'I -4'
_symmetry_Int_Tables_number      82
_space_group_name_Hall           'I -4'
loop_
_symmetry_equiv_pos_site_id
_symmetry_equiv_pos_as_xyz
1 x,y,z
2 -x,-y,z
3 y,-x,-z
4 -y,x,-z
5 1/2+x,1/2+y,1/2+z
6 1/2-x,1/2-y,1/2+z
7 1/2+y,1/2-x,1/2-z
8 1/2-y,1/2+x,1/2-z
_cell_length_a                   16.8191(18)
_cell_length_b                   16.8191(18)
_cell_length_c                   19.299(4)
_cell_angle_alpha                90
_cell_angle_beta                 90
_cell_angle_gamma                90
_cell_volume                     5459.34
_exptl_crystal_colour            colorless
_exptl_crystal_description       brick
_cell_formula_units_Z            2
loop_
_atom_site_label
_atom_site_type_symbol
_atom_site_fract_x
_atom_site_fract_y
_atom_site_fract_z
C1 C 0.4876(4) 0.8159(3) 0.4265(3)
C2 C 0.4277(4) 0.7598(4) 0.4160(3)
C3 C 0.4460(4) 0.6894(3) 0.3786(3)
C4 C 0.5226(4) 0.6794(3) 0.3498(3)
C5 C 0.5792(3) 0.7395(3) 0.3573(3)
C6 C 0.5621(4) 0.8071(3) 0.3963(3)
C7 C 0.3421(3) 0.7720(3) 0.4389(3)
H1 H 0.340772 0.815994 0.472942
H2 H 0.323974 0.723281 0.462915
C8 C 0.5400(4) 0.6059(3) 0.3064(4)
H3 H 0.517741 0.558794 0.330271
H4 H 0.598355 0.598643 0.303546
C9 C 0.6222(3) 0.8748(3) 0.3990(3)
H5 H 0.676745 0.852729 0.399728
H6 H 0.614270 0.905924 0.441982
C10 C 0.5687(3) 0.8341(3) 0.1452(3)
H7 H 0.584550 0.885615 0.130305
C11 C 0.4914(3) 0.8231(3) 0.1692(3)
C12 C 0.4704(3) 0.7492(4) 0.1945(3)
H8 H 0.418163 0.741002 0.211885
C13 C 0.5249(4) 0.6862(3) 0.1950(3)
C14 C 0.5993(4) 0.6985(3) 0.1663(3)
H9 H 0.635065 0.654949 0.162903
C15 C 0.6233(3) 0.7725(3) 0.1422(3)
C16 C 0.4301(3) 0.8877(3) 0.1650(3)
H10 H 0.457116 0.939920 0.162309
H11 H 0.397429 0.887142 0.207680
C17 C 0.5058(4) 0.6092(3) 0.2318(4)
H12 H 0.527742 0.564264 0.204649
H13 H 0.447406 0.602571 0.233896
C18 C 0.7089(3) 0.7829(3) 0.1196(3)
H14 H 0.728990 0.730093 0.105066
H15 H 0.740019 0.798969 0.160825
C19 C 0.4733(4) 0.8850(4) 0.4760(3)
H16 H 0.415675 0.896612 0.478518
H17 H 0.500641 0.933112 0.458401
C20 C 0.5048(4) 0.8646(4) 0.5488(3)
H18 H 0.503953 0.912443 0.577854
H19 H 0.559433 0.844797 0.545251
H20 H 0.471029 0.823654 0.569765
C21 C 0.3855(4) 0.6224(3) 0.3758(3)
H21 H 0.394826 0.590056 0.333676
H22 H 0.331345 0.645178 0.372635
C22 C 0.3909(4) 0.5684(3) 0.4404(4)
H23 H 0.355698 0.522427 0.434484
H24 H 0.374546 0.598487 0.481522
H25 H 0.445748 0.550014 0.446292
C23 C 0.6622(3) 0.7266(4) 0.3275(3)
H26 H 0.684538 0.778360 0.312820
H27 H 0.658473 0.692078 0.286078
C24 C 0.7181(4) 0.6880(5) 0.3807(4)
H28 H 0.771144 0.682171 0.360367
H29 H 0.697437 0.635562 0.393534
H30 H 0.721246 0.721701 0.421998
C1F C 0.3159(3) 1.0124(4) 0.0735(3)
C2F C 0.2598(4) 1.0723(4) 0.0840(3)
C3F C 0.1894(3) 1.0540(4) 0.1214(3)
C4F C 0.1794(3) 0.9774(4) 0.1502(3)
C5F C 0.2395(3) 0.9208(3) 0.1427(3)
C6F C 0.3071(3) 0.9379(4) 0.1037(3)
C7F C 0.2720(3) 1.1579(3) 0.0611(3)
H1F H 0.315994 1.159228 0.027058
H2F H 0.223281 1.176026 0.037085
C8F C 0.1059(3) 0.9600(4) 0.1936(4)
H3F H 0.058794 0.982259 0.169729
H4F H 0.098643 0.901645 0.196454
C9F C 0.3748(3) 0.8778(3) 0.1010(3)
H5F H 0.352729 0.823255 0.100272
H6F H 0.405924 0.885730 0.058018
C10F C 0.3341(3) 0.9313(3) 0.3548(3)
H7F H 0.385615 0.915450 0.369695
C11F C 0.3231(3) 1.0086(3) 0.3308(3)
C12F C 0.2492(4) 1.0296(3) 0.3055(3)
H8F H 0.241002 1.081837 0.288115
C13F C 0.1862(3) 0.9751(4) 0.3050(3)
C14F C 0.1985(3) 0.9007(4) 0.3337(3)
H9F H 0.154949 0.864935 0.337097
C15F C 0.2725(3) 0.8767(3) 0.3578(3)
C16F C 0.3877(3) 1.0699(3) 0.3350(3)
H10F H 0.439920 1.042884 0.337691
H11F H 0.387142 1.102571 0.292320
C17F C 0.1092(3) 0.9942(4) 0.2682(4)
H12F H 0.064264 0.972258 0.295351
H13F H 0.102571 1.052594 0.266104
C18F C 0.2829(3) 0.7911(3) 0.3804(3)
H14F H 0.230093 0.771010 0.394934
H15F H 0.298969 0.759981 0.339175
C19F C 0.3850(4) 1.0267(4) 0.0240(3)
H16F H 0.396612 1.084325 0.021482
H17F H 0.433112 0.999359 0.041599
C20F C 0.3646(4) 0.9952(4) -0.0488(3)
H18F H 0.412443 0.996047 -0.077854
H19F H 0.344797 0.940567 -0.045251
H20F H 0.323654 1.028971 -0.069765
C21F C 0.1224(3) 1.1145(4) 0.1242(3)
H21F H 0.090056 1.105174 0.166324
H22F H 0.145178 1.168655 0.127365
C22F C 0.0684(3) 1.1091(4) 0.0596(4)
H23F H 0.022427 1.144302 0.065516
H24F H 0.098487 1.125454 0.018478
H25F H 0.050014 1.054252 0.053708
C23F C 0.2266(4) 0.8378(3) 0.1725(3)
H26F H 0.278360 0.815462 0.187180
H27F H 0.192078 0.841527 0.213922
C24F C 0.1880(5) 0.7819(4) 0.1193(4)
H28F H 0.182171 0.728856 0.139633
H29F H 0.135562 0.802563 0.106466
H30F H 0.221701 0.778754 0.078002
C1G C 0.6841(3) 0.9876(4) 0.0735(3)
C2G C 0.7402(4) 0.9277(4) 0.0840(3)
C3G C 0.8106(3) 0.9460(4) 0.1214(3)
C4G C 0.8206(3) 1.0226(4) 0.1502(3)
C5G C 0.7605(3) 1.0792(3) 0.1427(3)
C6G C 0.6929(3) 1.0621(4) 0.1037(3)
C7G C 0.7280(3) 0.8421(3) 0.0611(3)
H1G H 0.684006 0.840772 0.027058
H2G H 0.776719 0.823974 0.037085
C8G C 0.8941(3) 1.0400(4) 0.1936(4)
H3G H 0.941206 1.017741 0.169729
H4G H 0.901357 1.098355 0.196454
C9G C 0.6252(3) 1.1222(3) 0.1010(3)
H5G H 0.647271 1.176745 0.100272
H6G H 0.594076 1.114270 0.058018
C10G C 0.6659(3) 1.0687(3) 0.3548(3)
H7G H 0.614385 1.084550 0.369695
C11G C 0.6769(3) 0.9914(3) 0.3308(3)
C12G C 0.7508(4) 0.9704(3) 0.3055(3)
H8G H 0.758998 0.918163 0.288115
C13G C 0.8138(3) 1.0249(4) 0.3050(3)
C14G C 0.8015(3) 1.0993(4) 0.3337(3)
H9G H 0.845051 1.135065 0.337097
C15G C 0.7275(3) 1.1233(3) 0.3578(3)
C16G C 0.6123(3) 0.9301(3) 0.3350(3)
H10G H 0.560080 0.957116 0.337691
H11G H 0.612858 0.897429 0.292320
C17G C 0.8908(3) 1.0058(4) 0.2682(4)
H12G H 0.935736 1.027742 0.295351
H13G H 0.897429 0.947406 0.266104
C18G C 0.7171(3) 1.2089(3) 0.3804(3)
H14G H 0.769907 1.228990 0.394934
H15G H 0.701031 1.240019 0.339175
C19G C 0.6150(4) 0.9733(4) 0.0240(3)
H16G H 0.603388 0.915675 0.021482
H17G H 0.566888 1.000641 0.041599
C20G C 0.6354(4) 1.0048(4) -0.0488(3)
H18G H 0.587557 1.003953 -0.077854
H19G H 0.655203 1.059433 -0.045251
H20G H 0.676346 0.971029 -0.069765
C21G C 0.8776(3) 0.8855(4) 0.1242(3)
H21G H 0.909944 0.894826 0.166324
H22G H 0.854822 0.831345 0.127365
C22G C 0.9316(3) 0.8909(4) 0.0596(4)
H23G H 0.977573 0.855698 0.065516
H24G H 0.901513 0.874546 0.018478
H25G H 0.949986 0.945748 0.053708
C23G C 0.7734(4) 1.1622(3) 0.1725(3)
H26G H 0.721640 1.184538 0.187180
H27G H 0.807922 1.158473 0.213922
C24G C 0.8120(5) 1.2181(4) 0.1193(4)
H28G H 0.817829 1.271144 0.139633
H29G H 0.864438 1.197437 0.106466
H30G H 0.778299 1.221246 0.078002
C1A C 0.5124(4) 1.1841(3) 0.4265(3)
C2A C 0.5723(4) 1.2402(4) 0.4160(3)
C3A C 0.5540(4) 1.3106(3) 0.3786(3)
C4A C 0.4774(4) 1.3206(3) 0.3498(3)
C5A C 0.4208(3) 1.2605(3) 0.3573(3)
C6A C 0.4379(4) 1.1929(3) 0.3963(3)
C7A C 0.6579(3) 1.2280(3) 0.4389(3)
H1A H 0.659228 1.184006 0.472942
H2A H 0.676026 1.276719 0.462915
C8A C 0.4600(4) 1.3941(3) 0.3064(4)
H3A H 0.482259 1.441206 0.330271
H4A H 0.401645 1.401357 0.303546
C9A C 0.3778(3) 1.1252(3) 0.3990(3)
H5A H 0.323255 1.147271 0.399728
H6A H 0.385730 1.094076 0.441982
C10A C 0.4313(3) 1.1659(3) 0.1452(3)
H7A H 0.415450 1.114385 0.130305
C11A C 0.5086(3) 1.1769(3) 0.1692(3)
C12A C 0.5296(3) 1.2508(4) 0.1945(3)
H8A H 0.581837 1.258998 0.211885
C13A C 0.4751(4) 1.3138(3) 0.1950(3)
C14A C 0.4007(4) 1.3015(3) 0.1663(3)
H9A H 0.364935 1.345051 0.162903
C15A C 0.3767(3) 1.2275(3) 0.1422(3)
C16A C 0.5699(3) 1.1123(3) 0.1650(3)
H10A H 0.542884 1.060080 0.162309
H11A H 0.602571 1.112858 0.207680
C17A C 0.4942(4) 1.3908(3) 0.2318(4)
H12A H 0.472258 1.435736 0.204649
H13A H 0.552594 1.397429 0.233896
C18A C 0.2911(3) 1.2171(3) 0.1196(3)
H14A H 0.271010 1.269907 0.105066
H15A H 0.259981 1.201031 0.160825
C19A C 0.5267(4) 1.1150(4) 0.4760(3)
H16A H 0.584325 1.103388 0.478518
H17A H 0.499359 1.066888 0.458401
C20A C 0.4952(4) 1.1354(4) 0.5488(3)
H18A H 0.496047 1.087557 0.577854
H19A H 0.440567 1.155203 0.545251
H20A H 0.528971 1.176346 0.569765
C21A C 0.6145(4) 1.3776(3) 0.3758(3)
H21A H 0.605174 1.409944 0.333676
H22A H 0.668655 1.354822 0.372635
C22A C 0.6091(4) 1.4316(3) 0.4404(4)
H23A H 0.644302 1.477573 0.434484
H24A H 0.625454 1.401513 0.481522
H25A H 0.554252 1.449986 0.446292
C23A C 0.3378(3) 1.2734(4) 0.3275(3)
H26A H 0.315462 1.221640 0.312820
H27A H 0.341527 1.307922 0.286078
C24A C 0.2819(4) 1.3120(5) 0.3807(4)
H28A H 0.228856 1.317829 0.360367
H29A H 0.302563 1.364438 0.393534
H30A H 0.278754 1.278299 0.421998
loop_
_geom_bond_atom_site_label_1
_geom_bond_atom_site_label_2
_geom_bond_site_symmetry_1
_geom_bond_site_symmetry_2
C1 C2 1_555 1_555
C2 C3 1_555 1_555
C3 C4 1_555 1_555
C4 C5 1_555 1_555
C5 C6 1_555 1_555
C6 C1 1_555 1_555
C7 C2 1_555 1_555
H1 C7 1_555 1_555
H2 C7 1_555 1_555
C8 C4 1_555 1_555
H3 C8 1_555 1_555
H4 C8 1_555 1_555
C9 C6 1_555 1_555
H5 C9 1_555 1_555
H6 C9 1_555 1_555
C10 H7 1_555 1_555
C11 C10 1_555 1_555
C12 C11 1_555 1_555
H8 C12 1_555 1_555
C13 C12 1_555 1_555
C14 C13 1_555 1_555
H9 C14 1_555 1_555
C15 C10 1_555 1_555
C16 C11 1_555 1_555
H10 C16 1_555 1_555
H11 C16 1_555 1_555
C17 C8 1_555 1_555
H12 C17 1_555 1_555
H13 C17 1_555 1_555
C18 C15 1_555 1_555
H14 C18 1_555 1_555
H15 C18 1_555 1_555
C19 C1 1_555 1_555
H16 C19 1_555 1_555
H17 C19 1_555 1_555
C20 C19 1_555 1_555
H18 C20 1_555 1_555
H19 C20 1_555 1_555
H20 C20 1_555 1_555
C21 C3 1_555 1_555
H21 C21 1_555 1_555
H22 C21 1_555 1_555
C22 C21 1_555 1_555
H23 C22 1_555 1_555
H24 C22 1_555 1_555
H25 C22 1_555 1_555
C23 C5 1_555 1_555
H26 C23 1_555 1_555
H27 C23 1_555 1_555
C24 C23 1_555 1_555
H28 C24 1_555 1_555
H29 C24 1_555 1_555
H30 C24 1_555 1_555
C1F C2F 1_555 1_555
C2F C3F 1_555 1_555
C3F C4F 1_555 1_555
C4F C5F 1_555 1_555
C5F C6F 1_555 1_555
C6F C1F 1_555 1_555
C7F C2F 1_555 1_555
H1F C7F 1_555 1_555
H2F C7F 1_555 1_555
C8F C4F 1_555 1_555
H3F C8F 1_555 1_555
H4F C8F 1_555 1_555
C9F C16 1_555 1_555
H5F C9F 1_555 1_555
H6F C9F 1_555 1_555
C10F H7F 1_555 1_555
C11F C10F 1_555 1_555
C12F C11F 1_555 1_555
H8F C12F 1_555 1_555
C13F C12F 1_555 1_555
C14F C13F 1_555 1_555
H9F C14F 1_555 1_555
C15F C10F 1_555 1_555
C16F C11F 1_555 1_555
H10F C16F 1_555 1_555
H11F C16F 1_555 1_555
C17F C8F 1_555 1_555
H12F C17F 1_555 1_555
H13F C17F 1_555 1_555
C18F C7 1_555 1_555
H14F C18F 1_555 1_555
H15F C18F 1_555 1_555
C19F C1F 1_555 1_555
H16F C19F 1_555 1_555
H17F C19F 1_555 1_555
C20F C19F 1_555 1_555
H18F C20F 1_555 1_555
H19F C20F 1_555 1_555
H20F C20F 1_555 1_555
C21F C3F 1_555 1_555
H21F C21F 1_555 1_555
H22F C21F 1_555 1_555
C22F C21F 1_555 1_555
H23F C22F 1_555 1_555
H24F C22F 1_555 1_555
H25F C22F 1_555 1_555
C23F C5F 1_555 1_555
H26F C23F 1_555 1_555
H27F C23F 1_555 1_555
C24F C23F 1_555 1_555
H28F C24F 1_555 1_555
H29F C24F 1_555 1_555
H30F C24F 1_555 1_555
C1G C2G 1_555 1_555
C2G C3G 1_555 1_555
C3G C4G 1_555 1_555
C4G C5G 1_555 1_555
C5G C6G 1_555 1_555
C6G C1G 1_555 1_555
C7G C18 1_555 1_555
H1G C7G 1_555 1_555
H2G C7G 1_555 1_555
C8G C4G 1_555 1_555
H3G C8G 1_555 1_555
H4G C8G 1_555 1_555
C9G C6G 1_555 1_555
H5G C9G 1_555 1_555
H6G C9G 1_555 1_555
C10G H7G 1_555 1_555
C11G C10G 1_555 1_555
C12G C11G 1_555 1_555
H8G C12G 1_555 1_555
C13G C12G 1_555 1_555
C14G C13G 1_555 1_555
H9G C14G 1_555 1_555
C15G C10G 1_555 1_555
C16G C9 1_555 1_555
H10G C16G 1_555 1_555
H11G C16G 1_555 1_555
C17G C8G 1_555 1_555
H12G C17G 1_555 1_555
H13G C17G 1_555 1_555
C18G C15G 1_555 1_555
H14G C18G 1_555 1_555
H15G C18G 1_555 1_555
C19G C1G 1_555 1_555
H16G C19G 1_555 1_555
H17G C19G 1_555 1_555
C20G C19G 1_555 1_555
H18G C20G 1_555 1_555
H19G C20G 1_555 1_555
H20G C20G 1_555 1_555
C21G C3G 1_555 1_555
H21G C21G 1_555 1_555
H22G C21G 1_555 1_555
C22G C21G 1_555 1_555
H23G C22G 1_555 1_555
H24G C22G 1_555 1_555
H25G C22G 1_555 1_555
C23G C5G 1_555 1_555
H26G C23G 1_555 1_555
H27G C23G 1_555 1_555
C24G C23G 1_555 1_555
H28G C24G 1_555 1_555
H29G C24G 1_555 1_555
H30G C24G 1_555 1_555
C1A C2A 1_555 1_555
C2A C3A 1_555 1_555
C3A C4A 1_555 1_555
C4A C5A 1_555 1_555
C5A C6A 1_555 1_555
C6A C1A 1_555 1_555
C7A C18G 1_555 1_555
H1A C7A 1_555 1_555
H2A C7A 1_555 1_555
C8A C4A 1_555 1_555
H3A C8A 1_555 1_555
H4A C8A 1_555 1_555
C9A C16F 1_555 1_555
H5A C9A 1_555 1_555
H6A C9A 1_555 1_555
C10A H7A 1_555 1_555
C11A C10A 1_555 1_555
C12A C11A 1_555 1_555
H8A C12A 1_555 1_555
C13A C12A 1_555 1_555
C14A C13A 1_555 1_555
H9A C14A 1_555 1_555
C15A C10A 1_555 1_555
C16A C9G 1_555 1_555
H10A C16A 1_555 1_555
H11A C16A 1_555 1_555
C17A C8A 1_555 1_555
H12A C17A 1_555 1_555
H13A C17A 1_555 1_555
C18A C7F 1_555 1_555
H14A C18A 1_555 1_555
H15A C18A 1_555 1_555
C19A C1A 1_555 1_555
H16A C19A 1_555 1_555
H17A C19A 1_555 1_555
C20A C19A 1_555 1_555
H18A C20A 1_555 1_555
H19A C20A 1_555 1_555
H20A C20A 1_555 1_555
C21A C3A 1_555 1_555
H21A C21A 1_555 1_555
H22A C21A 1_555 1_555
C22A C21A 1_555 1_555
H23A C22A 1_555 1_555
H24A C22A 1_555 1_555
H25A C22A 1_555 1_555
C23A C5A 1_555 1_555
H26A C23A 1_555 1_555
H27A C23A 1_555 1_555
C24A C23A 1_555 1_555
H28A C24A 1_555 1_555
H29A C24A 1_555 1_555
H30A C24A 1_555 1_555
C13 C17 1_555 1_555
C14 C15 1_555 1_555
C6F C9F 1_555 1_555
C13F C17F 1_555 1_555
C14F C15F 1_555 1_555
C15F C18F 1_555 1_555
C2G C7G 1_555 1_555
C11G C16G 1_555 1_555
C13G C17G 1_555 1_555
C14G C15G 1_555 1_555
C2A C7A 1_555 1_555
C6A C9A 1_555 1_555
C11A C16A 1_555 1_555
C13A C17A 1_555 1_555
C14A C15A 1_555 1_555
C15A C18A 1_555 1_555

#END
