
#######################################################################
#
#                 Cambridge Crystallographic Data Centre
#                                CCDC 
#
#######################################################################
#
# If this CIF has been generated from an entry in the Cambridge 
# Structural Database, then it will include bibliographic, chemical, 
# crystal, experimental, refinement or atomic coordinate data resulting 
# from the CCDC's data processing and validation procedures.
#
#######################################################################

data_XIVZUA
_chemical_formula_moiety         'C51 H63 N3,C1 H1 Cl3'
_chemical_name_systematic        
'2,14,16,28,39,41-hexaethyl-38,40,42-triazaheptacyclo[13.13.9.1^3,27^.1^6,10^.1^13,17^.1^20,24^.1^31,35^]dotetraconta-1,3(39),6(42),7,9,13(41),14,16,20(40),21,23,27,31(38),32,34-pentadecaene chloroform solvate'
_symmetry_cell_setting           orthorhombic
_symmetry_space_group_name_H-M   'P 21 21 21'
_symmetry_Int_Tables_number      19
_space_group_name_Hall           'P 2ac 2ab'
loop_
_symmetry_equiv_pos_site_id
_symmetry_equiv_pos_as_xyz
1 x,y,z
2 1/2-x,-y,1/2+z
3 -x,1/2+y,1/2-z
4 1/2+x,1/2-y,-z
_cell_length_a                   8.4676(10)
_cell_length_b                   21.994(3)
_cell_length_c                   24.053(4)
_cell_angle_alpha                90
_cell_angle_beta                 90
_cell_angle_gamma                90
_cell_volume                     4479.54
_exptl_crystal_colour            colorless
_exptl_crystal_description       plank
_cell_formula_units_Z            4
loop_
_atom_site_label
_atom_site_type_symbol
_atom_site_fract_x
_atom_site_fract_y
_atom_site_fract_z
C1 C 1.0386(3) 0.55370(12) 0.50086(10)
C2 C 1.0374(3) 0.61723(12) 0.50247(10)
C3 C 0.9408(3) 0.65005(12) 0.46591(10)
C4 C 0.8461(3) 0.61899(12) 0.42712(10)
C5 C 0.8365(3) 0.55549(12) 0.42937(10)
C6 C 0.9337(3) 0.52233(12) 0.46593(10)
C7 C 1.1656(3) 0.51914(13) 0.53198(11)
H1 H 1.130881 0.476542 0.537230
H2 H 1.179543 0.537518 0.569233
C8 C 0.9455(3) 0.71918(12) 0.46472(11)
H3 H 0.953656 0.734771 0.503223
H4 H 0.845944 0.734742 0.448502
C9 C 0.7315(3) 0.52225(12) 0.38837(11)
H5 H 0.644897 0.549489 0.376391
H6 H 0.683804 0.486433 0.406788
C10 C 1.1457(3) 0.66681(12) 0.23732(10)
C11 C 1.1339(3) 0.73024(12) 0.24396(10)
C12 C 1.0080(3) 0.76181(12) 0.21916(10)
C13 C 0.8932(3) 0.73016(12) 0.18858(10)
C14 C 0.9061(3) 0.66706(12) 0.18113(10)
C15 C 1.0327(3) 0.63542(12) 0.20533(10)
C16 C 1.2690(3) 0.63023(12) 0.26893(10)
H7 H 1.365119 0.655112 0.274426
H8 H 1.298299 0.593671 0.247245
C17 C 0.9909(3) 0.83063(12) 0.22526(11)
H9 H 0.950573 0.847393 0.189796
H10 H 1.096835 0.848323 0.231730
C18 C 0.7817(3) 0.63368(13) 0.14754(11)
H11 H 0.829724 0.596350 0.131931
H12 H 0.749797 0.659758 0.115932
C19 C 1.3273(3) 0.51957(14) 0.50083(11)
H13 H 1.379907 0.559048 0.507737
H14 H 1.395162 0.487314 0.516716
C20 C 1.3153(3) 0.50995(12) 0.43904(11)
N1 N 1.2807(2) 0.55954(10) 0.40908(9)
C21 C 1.2648(3) 0.55465(12) 0.35405(11)
C22 C 1.2923(3) 0.50004(13) 0.32646(11)
H15 H 1.286156 0.497979 0.287065
C23 C 1.3285(3) 0.44890(13) 0.35723(12)
H16 H 1.345997 0.411019 0.339284
C24 C 1.3390(3) 0.45345(13) 0.41455(12)
H17 H 1.362031 0.418743 0.436625
C25 C 1.2015(3) 0.61110(13) 0.32563(11)
H18 H 1.216498 0.645639 0.351494
H19 H 1.086180 0.605595 0.320980
C26 C 1.0863(3) 0.74294(13) 0.43037(12)
H20 H 1.180199 0.745161 0.454799
H21 H 1.109675 0.713255 0.400537
C27 C 1.0604(3) 0.80425(12) 0.40439(10)
N2 N 0.9745(2) 0.80369(10) 0.35741(9)
C28 C 0.9626(3) 0.85531(12) 0.32819(10)
C29 C 1.0324(3) 0.90906(13) 0.34543(12)
H22 H 1.024798 0.944654 0.323214
C30 C 1.1130(4) 0.91029(14) 0.39529(12)
H23 H 1.157296 0.947134 0.408775
C31 C 1.1282(3) 0.85707(13) 0.42524(11)
H24 H 1.183983 0.856572 0.459497
C32 C 0.8796(3) 0.85126(14) 0.27300(11)
H25 H 0.834716 0.891554 0.263665
H26 H 0.790921 0.822106 0.276094
C33 C 0.8259(3) 0.50131(14) 0.33708(11)
H27 H 0.917004 0.528950 0.331839
H28 H 0.868100 0.460057 0.344200
C34 C 0.7306(3) 0.50005(12) 0.28446(10)
N3 N 0.7161(3) 0.55322(10) 0.25827(9)
C35 C 0.6388(3) 0.55489(13) 0.20933(11)
C36 C 0.5719(3) 0.50330(13) 0.18627(11)
H29 H 0.520403 0.505284 0.151221
C37 C 0.5808(3) 0.44863(13) 0.21495(11)
H30 H 0.532179 0.413003 0.200615
C38 C 0.6620(3) 0.44712(13) 0.26482(11)
H31 H 0.670598 0.410321 0.285278
C39 C 0.6312(3) 0.61556(13) 0.18067(12)
H32 H 0.610676 0.647233 0.209002
H33 H 0.540323 0.615290 0.154786
C40 C 1.1401(3) 0.65108(13) 0.54404(11)
H34 H 1.163705 0.692145 0.529380
H35 H 1.241414 0.629171 0.548465
C41 C 1.0606(4) 0.65709(14) 0.60071(11)
H36 H 1.130850 0.678941 0.626188
H37 H 1.038431 0.616525 0.615661
H38 H 0.961456 0.679657 0.596690
C42 C 0.7577(3) 0.65432(13) 0.38258(11)
H39 H 0.750776 0.629092 0.348579
H40 H 0.818510 0.691390 0.373246
C43 C 0.5905(3) 0.67279(14) 0.40047(13)
H41 H 0.539131 0.695047 0.370158
H42 H 0.596598 0.698856 0.433445
H43 H 0.529040 0.636276 0.409223
C44 C 0.9218(3) 0.45351(12) 0.46807(11)
H44 H 1.028635 0.435997 0.472962
H45 H 0.878695 0.438329 0.432423
C45 C 0.8159(4) 0.43263(14) 0.51564(12)
H46 H 0.811969 0.388108 0.516319
H47 H 0.709124 0.448785 0.510190
H48 H 0.858424 0.447593 0.550970
C46 C 1.2611(3) 0.76368(12) 0.27622(11)
H49 H 1.291577 0.739213 0.309058
H50 H 1.218299 0.802886 0.289688
C47 C 1.4071(4) 0.77567(14) 0.24075(14)
H51 H 1.485703 0.797728 0.262808
H52 H 1.377494 0.800102 0.208303
H53 H 1.451801 0.736885 0.228325
C48 C 0.7542(3) 0.76410(13) 0.16296(11)
H54 H 0.727558 0.799030 0.187174
H55 H 0.661601 0.736628 0.162389
C49 C 0.7825(4) 0.78765(14) 0.10406(11)
H56 H 0.687353 0.808383 0.090684
H57 H 0.807041 0.753430 0.079440
H58 H 0.871238 0.816252 0.104261
C50 C 1.0518(3) 0.56789(12) 0.19571(11)
H59 H 0.947354 0.549696 0.187654
H60 H 1.093609 0.548623 0.229877
C51 C 1.1637(3) 0.55513(14) 0.14741(12)
H61 H 1.181723 0.511233 0.144451
H62 H 1.264513 0.575812 0.153953
H63 H 1.116762 0.570140 0.112791
C52 C 0.2164(4) 0.71519(18) 0.08189(15)
H64 H 0.186541 0.704129 0.120822
Cl1 Cl 0.40329(11) 0.68393(5) 0.06726(5)
Cl2 Cl 0.22461(14) 0.79465(5) 0.07669(6)
Cl3 Cl 0.07546(11) 0.68461(5) 0.03636(3)
loop_
_geom_bond_atom_site_label_1
_geom_bond_atom_site_label_2
_geom_bond_site_symmetry_1
_geom_bond_site_symmetry_2
C1 C2 1_555 1_555
C2 C3 1_555 1_555
C3 C4 1_555 1_555
C4 C5 1_555 1_555
C5 C6 1_555 1_555
C6 C1 1_555 1_555
C7 C1 1_555 1_555
H1 C7 1_555 1_555
H2 C7 1_555 1_555
C8 C3 1_555 1_555
H3 C8 1_555 1_555
H4 C8 1_555 1_555
C9 C5 1_555 1_555
H5 C9 1_555 1_555
H6 C9 1_555 1_555
C10 C11 1_555 1_555
C11 C12 1_555 1_555
C12 C13 1_555 1_555
C13 C14 1_555 1_555
C14 C15 1_555 1_555
C15 C10 1_555 1_555
C16 C10 1_555 1_555
H7 C16 1_555 1_555
H8 C16 1_555 1_555
C17 C12 1_555 1_555
H9 C17 1_555 1_555
H10 C17 1_555 1_555
C18 C14 1_555 1_555
H11 C18 1_555 1_555
H12 C18 1_555 1_555
C19 C7 1_555 1_555
H13 C19 1_555 1_555
H14 C19 1_555 1_555
C20 C19 1_555 1_555
N1 C20 1_555 1_555
C21 N1 1_555 1_555
C22 C21 1_555 1_555
H15 C22 1_555 1_555
C23 C22 1_555 1_555
H16 C23 1_555 1_555
C24 C20 1_555 1_555
H17 C24 1_555 1_555
C25 C16 1_555 1_555
H18 C25 1_555 1_555
H19 C25 1_555 1_555
C26 C8 1_555 1_555
H20 C26 1_555 1_555
H21 C26 1_555 1_555
C27 C26 1_555 1_555
N2 C27 1_555 1_555
C28 N2 1_555 1_555
C29 C28 1_555 1_555
H22 C29 1_555 1_555
C30 C29 1_555 1_555
H23 C30 1_555 1_555
C31 C27 1_555 1_555
H24 C31 1_555 1_555
C32 C17 1_555 1_555
H25 C32 1_555 1_555
H26 C32 1_555 1_555
C33 C9 1_555 1_555
H27 C33 1_555 1_555
H28 C33 1_555 1_555
C34 C33 1_555 1_555
N3 C34 1_555 1_555
C35 N3 1_555 1_555
C36 C35 1_555 1_555
H29 C36 1_555 1_555
C37 C36 1_555 1_555
H30 C37 1_555 1_555
C38 C34 1_555 1_555
H31 C38 1_555 1_555
C39 C18 1_555 1_555
H32 C39 1_555 1_555
H33 C39 1_555 1_555
C40 C2 1_555 1_555
H34 C40 1_555 1_555
H35 C40 1_555 1_555
C41 C40 1_555 1_555
H36 C41 1_555 1_555
H37 C41 1_555 1_555
H38 C41 1_555 1_555
C42 C4 1_555 1_555
H39 C42 1_555 1_555
H40 C42 1_555 1_555
C43 C42 1_555 1_555
H41 C43 1_555 1_555
H42 C43 1_555 1_555
H43 C43 1_555 1_555
C44 C6 1_555 1_555
H44 C44 1_555 1_555
H45 C44 1_555 1_555
C45 C44 1_555 1_555
H46 C45 1_555 1_555
H47 C45 1_555 1_555
H48 C45 1_555 1_555
C46 C11 1_555 1_555
H49 C46 1_555 1_555
H50 C46 1_555 1_555
C47 C46 1_555 1_555
H51 C47 1_555 1_555
H52 C47 1_555 1_555
H53 C47 1_555 1_555
C48 C13 1_555 1_555
H54 C48 1_555 1_555
H55 C48 1_555 1_555
C49 C48 1_555 1_555
H56 C49 1_555 1_555
H57 C49 1_555 1_555
H58 C49 1_555 1_555
C50 C15 1_555 1_555
H59 C50 1_555 1_555
H60 C50 1_555 1_555
C51 C50 1_555 1_555
H61 C51 1_555 1_555
H62 C51 1_555 1_555
H63 C51 1_555 1_555
C52 H64 1_555 1_555
Cl1 C52 1_555 1_555
Cl2 C52 1_555 1_555
Cl3 C52 1_555 1_555
C21 C25 1_555 1_555
C23 C24 1_555 1_555
C28 C32 1_555 1_555
C30 C31 1_555 1_555
C35 C39 1_555 1_555
C37 C38 1_555 1_555

#END
