
#######################################################################
#
#                 Cambridge Crystallographic Data Centre
#                                CCDC 
#
#######################################################################
#
# If this CIF has been generated from an entry in the Cambridge 
# Structural Database, then it will include bibliographic, chemical, 
# crystal, experimental, refinement or atomic coordinate data resulting 
# from the CCDC's data processing and validation procedures.
#
#######################################################################

data_XIWDIS
_chemical_formula_moiety         'C18 H23 O2 P1'
_chemical_name_systematic        
(t-Butyl(phenyl)phosphoryl)(4-methylphenyl)methanol
_symmetry_cell_setting           monoclinic
_symmetry_space_group_name_H-M   'P 21'
_symmetry_Int_Tables_number      4
_space_group_name_Hall           'P 2yb'
loop_
_symmetry_equiv_pos_site_id
_symmetry_equiv_pos_as_xyz
1 x,y,z
2 -x,1/2+y,-z
_cell_length_a                   8.8020(7)
_cell_length_b                   10.1477(8)
_cell_length_c                   10.3699(8)
_cell_angle_alpha                90
_cell_angle_beta                 114.980(2)
_cell_angle_gamma                90
_cell_volume                     839.595
_exptl_crystal_colour            colorless
_exptl_crystal_description       needle
_cell_formula_units_Z            2
loop_
_atom_site_label
_atom_site_type_symbol
_atom_site_fract_x
_atom_site_fract_y
_atom_site_fract_z
P1 P 0.51913(5) 0.33353(4) 0.17776(5)
O1 O 0.48306(17) 0.19367(12) 0.12593(15)
O2 O 0.47513(17) 0.57926(12) 0.08156(15)
H1 H 0.479(3) 0.624(2) 0.014(3)
C1 C 0.4236(2) 0.45025(16) 0.0284(2)
H2 H 0.4695 0.4306 -0.0428
C2 C 0.2357(2) 0.43315(18) -0.0440(2)
C3 C 0.1282(2) 0.52249(18) -0.0243(2)
H3 H 0.1731 0.5965 0.0359
C4 C -0.0442(2) 0.5052(2) -0.0915(2)
H4 H -0.1155 0.5690 -0.0786
C5 C -0.1145(2) 0.39633(19) -0.1772(2)
C6 C -0.0060(3) 0.30635(19) -0.1960(2)
H5 H -0.0510 0.2311 -0.2542
C7 C 0.1653(2) 0.3241(2) -0.13179(19)
H6 H 0.2363 0.2617 -0.1473
C8 C -0.3024(3) 0.3756(2) -0.2468(2)
H7 H -0.3412 0.3716 -0.3503
H8 H -0.3577 0.4489 -0.2223
H9 H -0.3298 0.2927 -0.2129
C9 C 0.4278(2) 0.36702(16) 0.30094(18)
C10 C 0.4114(2) 0.49417(18) 0.3454(2)
H10 H 0.4504 0.5679 0.3116
C11 C 0.3382(2) 0.5123(2) 0.4388(2)
H11 H 0.3264 0.5988 0.4683
C12 C 0.2824(2) 0.4064(2) 0.4893(2)
H12 H 0.2338 0.4197 0.5545
C13 C 0.2971(2) 0.2802(2) 0.4451(2)
H13 H 0.2580 0.2070 0.4797
C14 C 0.3686(2) 0.26046(18) 0.3505(2)
H14 H 0.3771 0.1738 0.3194
C15 C 0.7475(2) 0.36461(17) 0.2656(2)
C16 C 0.8268(3) 0.2420(2) 0.3557(3)
H15 H 0.7949 0.1636 0.2949
H16 H 0.7871 0.2332 0.4304
H17 H 0.9491 0.2510 0.3992
C17 C 0.8106(3) 0.3795(2) 0.1487(2)
H18 H 0.9334 0.3801 0.1922
H19 H 0.7688 0.4625 0.0975
H20 H 0.7697 0.3056 0.0821
C18 C 0.7953(2) 0.4877(2) 0.3611(2)
H21 H 0.7688 0.4731 0.4427
H22 H 0.7320 0.5638 0.3065
H23 H 0.9156 0.5047 0.3948
loop_
_geom_bond_atom_site_label_1
_geom_bond_atom_site_label_2
_geom_bond_site_symmetry_1
_geom_bond_site_symmetry_2
P1 O1 1_555 1_555
O2 H1 1_555 1_555
C1 P1 1_555 1_555
H2 C1 1_555 1_555
C2 C1 1_555 1_555
C3 C2 1_555 1_555
H3 C3 1_555 1_555
C4 C3 1_555 1_555
H4 C4 1_555 1_555
C5 C4 1_555 1_555
C6 C5 1_555 1_555
H5 C6 1_555 1_555
C7 C2 1_555 1_555
H6 C7 1_555 1_555
C8 C5 1_555 1_555
H7 C8 1_555 1_555
H8 C8 1_555 1_555
H9 C8 1_555 1_555
C9 P1 1_555 1_555
C10 C9 1_555 1_555
H10 C10 1_555 1_555
C11 C10 1_555 1_555
H11 C11 1_555 1_555
C12 C11 1_555 1_555
H12 C12 1_555 1_555
C13 C12 1_555 1_555
H13 C13 1_555 1_555
C14 C9 1_555 1_555
H14 C14 1_555 1_555
C15 P1 1_555 1_555
C16 C15 1_555 1_555
H15 C16 1_555 1_555
H16 C16 1_555 1_555
H17 C16 1_555 1_555
C17 C15 1_555 1_555
H18 C17 1_555 1_555
H19 C17 1_555 1_555
H20 C17 1_555 1_555
C18 C15 1_555 1_555
H21 C18 1_555 1_555
H22 C18 1_555 1_555
H23 C18 1_555 1_555
O2 C1 1_555 1_555
C6 C7 1_555 1_555
C13 C14 1_555 1_555

#END
