
#######################################################################
#
#                 Cambridge Crystallographic Data Centre
#                                CCDC 
#
#######################################################################
#
# If this CIF has been generated from an entry in the Cambridge 
# Structural Database, then it will include bibliographic, chemical, 
# crystal, experimental, refinement or atomic coordinate data resulting 
# from the CCDC's data processing and validation procedures.
#
#######################################################################

data_XIWFOB
_chemical_formula_moiety         'C8 H12 N5 1+,I1 1-'
_chemical_name_systematic        
'4-(1,5-dimethyl-1H-pyrazol-3-yl)-1-methyl-4H-1,2,4-triazol-1-ium iodide'
_symmetry_cell_setting           monoclinic
_symmetry_space_group_name_H-M   'P 21/c'
_symmetry_Int_Tables_number      14
_space_group_name_Hall           '-P 2ybc'
loop_
_symmetry_equiv_pos_site_id
_symmetry_equiv_pos_as_xyz
1 x,y,z
2 -x,1/2+y,1/2-z
3 -x,-y,-z
4 x,1/2-y,1/2+z
_cell_length_a                   7.86560(10)
_cell_length_b                   16.9587(3)
_cell_length_c                   17.1237(3)
_cell_angle_alpha                90
_cell_angle_beta                 93.4970(10)
_cell_angle_gamma                90
_cell_volume                     2279.88
_exptl_crystal_colour            colorless
_exptl_crystal_description       Needle
_cell_formula_units_Z            8
loop_
_atom_site_label
_atom_site_type_symbol
_atom_site_fract_x
_atom_site_fract_y
_atom_site_fract_z
N1 N 0.29108(16) 0.18316(7) 0.10877(7)
N2 N 0.18765(15) 0.25376(7) 0.19714(7)
N3 N 0.31819(17) 0.14134(7) 0.17659(8)
N4 N 0.04827(16) 0.37669(7) 0.19454(7)
N5 N -0.01948(15) 0.42335(7) 0.24890(7)
C1 C 0.21156(17) 0.24985(8) 0.12041(8)
H1 H 0.177571 0.287947 0.081886
C2 C 0.25386(19) 0.18593(8) 0.22952(9)
H2 H 0.253201 0.172921 0.283465
C3 C 0.3340(2) 0.14874(9) 0.03433(9)
H3 H 0.254997 0.105589 0.020442
H4 H 0.450733 0.128299 0.039146
H5 H 0.325163 0.189225 -0.006549
C4 C 0.10444(17) 0.31493(8) 0.23622(8)
C5 C 0.07484(18) 0.31966(8) 0.31546(8)
H6 H 0.103546 0.282488 0.355620
C6 C -0.00676(18) 0.39184(8) 0.32160(8)
C7 C -0.0691(2) 0.43399(9) 0.39045(9)
H7 H -0.052645 0.400601 0.437005
H8 H -0.190555 0.445930 0.380978
H9 H -0.005323 0.483222 0.398730
C8 C -0.0913(2) 0.49932(9) 0.22593(10)
H10 H -0.211558 0.500951 0.237870
H11 H -0.081893 0.507026 0.169643
H12 H -0.029059 0.541264 0.254776
I1 I 0.29818(2) 0.13356(2) 0.44286(2)
N6 N 0.77311(16) 0.14662(7) 0.43292(8)
N7 N 0.67685(15) 0.22908(7) 0.34712(7)
N8 N 0.78390(18) 0.10939(8) 0.36269(8)
N9 N 0.53131(16) 0.35035(7) 0.35380(7)
N10 N 0.47792(16) 0.40567(7) 0.30047(8)
C9 C 0.70784(18) 0.21773(8) 0.42418(8)
H13 H 0.686710 0.254070 0.464690
C10 C 0.7241(2) 0.16090(9) 0.31142(9)
H14 H 0.714627 0.152230 0.256522
C11 C 0.8232(2) 0.10547(10) 0.50568(10)
H15 H 0.812232 0.141249 0.550034
H16 H 0.941715 0.087961 0.504420
H17 H 0.749175 0.059603 0.511386
C12 C 0.60431(17) 0.29673(8) 0.30996(8)
C13 C 0.59880(18) 0.31526(8) 0.23063(8)
H18 H 0.642402 0.285674 0.189189
C14 C 0.51460(18) 0.38711(8) 0.22642(9)
C15 C 0.4650(2) 0.43810(10) 0.15809(10)
H19 H 0.341521 0.446581 0.155449
H20 H 0.497250 0.412330 0.109955
H21 H 0.523488 0.488975 0.163867
C16 C 0.3953(2) 0.47648(9) 0.32683(10)
H22 H 0.475222 0.520784 0.326585
H23 H 0.359281 0.468369 0.380028
H24 H 0.295419 0.488130 0.291671
I2 I 0.82468(2) 0.15548(2) 0.09774(2)
loop_
_geom_bond_atom_site_label_1
_geom_bond_atom_site_label_2
_geom_bond_site_symmetry_1
_geom_bond_site_symmetry_2
N1 N3 1_555 1_555
N2 C1 1_555 1_555
N3 C2 1_555 1_555
N4 N5 1_555 1_555
N5 C6 1_555 1_555
C1 N1 1_555 1_555
H1 C1 1_555 1_555
C2 N2 1_555 1_555
H2 C2 1_555 1_555
C3 N1 1_555 1_555
H3 C3 1_555 1_555
H4 C3 1_555 1_555
H5 C3 1_555 1_555
C4 N2 1_555 1_555
C5 C4 1_555 1_555
H6 C5 1_555 1_555
C6 C5 1_555 1_555
C7 C6 1_555 1_555
H7 C7 1_555 1_555
H8 C7 1_555 1_555
H9 C7 1_555 1_555
C8 N5 1_555 1_555
H10 C8 1_555 1_555
H11 C8 1_555 1_555
H12 C8 1_555 1_555
N6 N8 1_555 1_555
N7 C9 1_555 1_555
N8 C10 1_555 1_555
N9 N10 1_555 1_555
N10 C14 1_555 1_555
C9 N6 1_555 1_555
H13 C9 1_555 1_555
C10 N7 1_555 1_555
H14 C10 1_555 1_555
C11 N6 1_555 1_555
H15 C11 1_555 1_555
H16 C11 1_555 1_555
H17 C11 1_555 1_555
C12 N7 1_555 1_555
C13 C12 1_555 1_555
H18 C13 1_555 1_555
C14 C13 1_555 1_555
C15 C14 1_555 1_555
H19 C15 1_555 1_555
H20 C15 1_555 1_555
H21 C15 1_555 1_555
C16 N10 1_555 1_555
H22 C16 1_555 1_555
H23 C16 1_555 1_555
H24 C16 1_555 1_555
N4 C4 1_555 1_555
N9 C12 1_555 1_555

#END
