
#######################################################################
#
#                 Cambridge Crystallographic Data Centre
#                                CCDC 
#
#######################################################################
#
# If this CIF has been generated from an entry in the Cambridge 
# Structural Database, then it will include bibliographic, chemical, 
# crystal, experimental, refinement or atomic coordinate data resulting 
# from the CCDC's data processing and validation procedures.
#
#######################################################################

data_XIWFIV
_chemical_formula_moiety         'C7 H9 N5'
_chemical_name_systematic        
4-(1,5-dimethyl-1H-pyrazol-3-yl)-4H-1,2,4-triazole
_symmetry_cell_setting           orthorhombic
_symmetry_space_group_name_H-M   'P n m a'
_symmetry_Int_Tables_number      62
_space_group_name_Hall           '-P 2ac 2n'
loop_
_symmetry_equiv_pos_site_id
_symmetry_equiv_pos_as_xyz
1 x,y,z
2 1/2-x,-y,1/2+z
3 -x,1/2+y,-z
4 1/2+x,1/2-y,1/2-z
5 -x,-y,-z
6 1/2+x,y,1/2-z
7 x,1/2-y,z
8 1/2-x,1/2+y,1/2+z
_cell_length_a                   9.3224(3)
_cell_length_b                   6.3994(2)
_cell_length_c                   12.9707(5)
_cell_angle_alpha                90
_cell_angle_beta                 90
_cell_angle_gamma                90
_cell_volume                     773.803
_exptl_crystal_colour            colorless
_exptl_crystal_description       Needle
_cell_formula_units_Z            4
loop_
_atom_site_label
_atom_site_type_symbol
_atom_site_fract_x
_atom_site_fract_y
_atom_site_fract_z
N1 N 0.50272(10) 0.750000 0.57333(7)
N2 N 0.63723(11) 0.750000 0.71242(8)
N3 N 0.72724(11) 0.750000 0.62640(8)
N4 N 0.39550(10) 0.750000 0.40731(7)
N5 N 0.25734(10) 0.750000 0.37315(7)
C1 C 0.50479(12) 0.750000 0.67846(8)
H1 H 0.421914 0.750000 0.721086
C2 C 0.64372(12) 0.750000 0.54519(9)
H2 H 0.676904 0.750000 0.475941
C3 C 0.38034(11) 0.750000 0.50927(8)
C4 C 0.23729(12) 0.750000 0.54209(8)
H3 H 0.201422 0.750000 0.610648
C5 C 0.16066(12) 0.750000 0.45074(8)
C6 C 0.00278(12) 0.750000 0.43335(10)
C7 C 0.22945(13) 0.750000 0.26331(8)
H4? H 0.126951 0.726614 0.251147
H5? H 0.257595 0.885080 0.234017
H6? H -0.046726 0.730238 0.499287
H7? H -0.026204 0.883742 0.403010
H8? H -0.022646 0.636020 0.386316
H9? H 0.284949 0.638307 0.230430
loop_
_geom_bond_atom_site_label_1
_geom_bond_atom_site_label_2
_geom_bond_site_symmetry_1
_geom_bond_site_symmetry_2
N1 C1 1_555 1_555
N2 N3 1_555 1_555
N3 C2 1_555 1_555
N4 N5 1_555 1_555
N5 C5 1_555 1_555
C1 N2 1_555 1_555
H1 C1 1_555 1_555
C2 N1 1_555 1_555
H2 C2 1_555 1_555
C3 N1 1_555 1_555
C4 C3 1_555 1_555
H3 C4 1_555 1_555
C5 C4 1_555 1_555
C6 C5 1_555 1_555
C7 N5 1_555 1_555
N4 C3 1_555 1_555

#END
