
#######################################################################
#
#                 Cambridge Crystallographic Data Centre
#                                CCDC 
#
#######################################################################
#
# If this CIF has been generated from an entry in the Cambridge 
# Structural Database, then it will include bibliographic, chemical, 
# crystal, experimental, refinement or atomic coordinate data resulting 
# from the CCDC's data processing and validation procedures.
#
#######################################################################

data_XIZDOZ
_chemical_formula_moiety         'C30 H30 N4 O2,C7 H8'
_chemical_name_systematic        
'1,3-bis(2-(4-t-Butylphenyl)-1,3,4-oxadiazol-5-yl)benzene toluene solvate'
_symmetry_cell_setting           monoclinic
_symmetry_space_group_name_H-M   'C 2/c'
_symmetry_Int_Tables_number      15
_space_group_name_Hall           '-C 2yn'
loop_
_symmetry_equiv_pos_site_id
_symmetry_equiv_pos_as_xyz
1 x,y,z
2 1/2+x,1/2+y,z
3 x,-y,1/2+z
4 1/2+x,1/2-y,1/2+z
5 -x,-y,-z
6 1/2-x,1/2-y,-z
7 -x,y,1/2-z
8 1/2-x,1/2+y,1/2-z
_cell_length_a                   36.596(4)
_cell_length_b                   6.445(1)
_cell_length_c                   29.798(3)
_cell_angle_alpha                90
_cell_angle_beta                 118.10(1)
_cell_angle_gamma                90
_cell_volume                     6199.76
_exptl_crystal_colour            colorless
_exptl_crystal_description       plate
_chemical_melting_point          '511.4-512.7 K'
_cell_formula_units_Z            8
_exptl_crystal_recrystallization_method chloroform/toluene
loop_
_atom_site_label
_atom_site_type_symbol
_atom_site_fract_x
_atom_site_fract_y
_atom_site_fract_z
O1 O 0.19600(8) 0.0341(4) 0.45704(10)
O2 O 0.29663(8) 0.0651(4) 0.29648(11)
N1 N 0.21389(11) 0.3417(5) 0.44060(13)
N2 N 0.19498(11) 0.3695(5) 0.47153(13)
N3 N 0.26962(11) 0.3587(5) 0.30644(13)
N4 N 0.28942(11) 0.3997(5) 0.27674(14)
C1 C 0.23127(13) 0.0311(6) 0.40521(15)
C2 C 0.24130(12) 0.1407(6) 0.37211(15)
H1 H 0.2343 0.2834 0.3657
C3 C 0.26121(12) 0.0408(6) 0.34814(16)
C4 C 0.27034(13) -0.1726(6) 0.35635(16)
H2 H 0.2838 -0.2417 0.3400
C5 C 0.25953(13) -0.2796(6) 0.38834(17)
H3 H 0.2655 -0.4237 0.3936
C6 C 0.24050(13) -0.1829(6) 0.41320(16)
H4 H 0.2335 -0.2598 0.4352
C7 C 0.21394(12) 0.1422(6) 0.43284(15)
C8 C 0.18484(12) 0.1862(6) 0.48025(15)
C9 C 0.27451(13) 0.1607(6) 0.31697(16)
C10 C 0.30463(13) 0.2231(6) 0.27181(15)
C11 C 0.16412(12) 0.1313(6) 0.50947(16)
C12 C 0.15057(13) -0.0734(6) 0.51008(16)
H5 H 0.1557 -0.1800 0.4917
C13 C 0.12971(14) -0.1177(7) 0.53704(17)
H6 H 0.1211 -0.2566 0.5372
C14 C 0.12051(13) 0.0318(7) 0.56443(16)
C15 C 0.13540(13) 0.2324(7) 0.56451(17)
H7 H 0.1307 0.3381 0.5835
C16 C 0.15644(13) 0.2818(6) 0.53766(16)
H8 H 0.1658 0.4199 0.5385
C17 C 0.09576(14) -0.0264(7) 0.59175(17)
C18 C 0.08711(16) 0.1645(8) 0.6170(2)
H9 H 0.1133 0.2278 0.6415
H10 H 0.0717 0.1189 0.6347
H11 H 0.0706 0.2664 0.5909
C19 C 0.11887(15) -0.1875(7) 0.63320(18)
H12 H 0.1247 -0.3098 0.6181
H13 H 0.1017 -0.2281 0.6489
H14 H 0.1450 -0.1283 0.6592
C20 C 0.05335(15) -0.1133(9) 0.5521(2)
H15 H 0.0392 -0.0112 0.5250
H16 H 0.0364 -0.1424 0.5688
H17 H 0.0575 -0.2417 0.5375
C21 C 0.32846(12) 0.1810(6) 0.24525(15)
C22 C 0.33465(13) -0.0224(6) 0.23364(16)
H18 H 0.3234 -0.1356 0.2436
C23 C 0.35729(13) -0.0586(7) 0.20818(17)
H19 H 0.3605 -0.1975 0.2000
C24 C 0.37525(12) 0.1019(6) 0.19382(16)
C25 C 0.36863(13) 0.3039(6) 0.20574(17)
H20 H 0.3801 0.4172 0.1961
C26 C 0.34603(14) 0.3436(7) 0.23099(17)
H21 H 0.3423 0.4826 0.2387
C27 C 0.40127(13) 0.0661(6) 0.16670(16)
C28 C 0.38368(14) 0.1935(7) 0.11725(17)
H22 H 0.3548 0.1539 0.0952
H23 H 0.4000 0.1662 0.0996
H24 H 0.3851 0.3415 0.1254
C29 C 0.40201(15) -0.1644(7) 0.15281(19)
H25 H 0.4165 -0.2463 0.1840
H26 H 0.4165 -0.1776 0.1324
H27 H 0.3736 -0.2154 0.1332
C30 C 0.44628(14) 0.1366(8) 0.20208(18)
H28 H 0.4467 0.2868 0.2074
H29 H 0.4637 0.1027 0.1862
H30 H 0.4570 0.0652 0.2349
C31 C -0.01040(15) 0.2125(7) 0.34833(14)
C32 C -0.01802(16) 0.4140(7) 0.35837(18)
H31 H -0.0406 0.4901 0.3332
C33 C 0.00736(17) 0.5040(6) 0.4053(2)
H32 H 0.0022 0.6417 0.4122
C34 C 0.04036(15) 0.3926(8) 0.44220(15)
H33 H 0.0577 0.4542 0.4743
C35 C 0.04798(14) 0.1912(7) 0.43217(16)
H34 H 0.0705 0.1150 0.4574
C36 C 0.02260(15) 0.1011(6) 0.38523(18)
H35 H 0.0278 -0.0366 0.3784
C37 C -0.0382(3) 0.1207(16) 0.2972(4)
H36 H -0.0640 0.1998 0.2806
H37 H -0.0443 -0.0237 0.3014
H38 H -0.0241 0.1254 0.2761
C38? C 0.0177(3) 0.3567(12) 0.4054(3)
C39? C -0.0174(3) 0.4042(12) 0.3601(4)
H39? H -0.0305 0.5352 0.3560
C40? C -0.0332(3) 0.2600(15) 0.3208(3)
H40? H -0.0572 0.2924 0.2898
C41? C -0.0141(3) 0.0683(13) 0.3268(3)
H41? H -0.0249 -0.0303 0.3000
C42? C 0.0210(3) 0.0208(12) 0.3722(4)
H42? H 0.0341 -0.1102 0.3763
C43? C 0.0369(3) 0.1650(14) 0.4115(3)
H43? H 0.0608 0.1326 0.4424
C44? C 0.0325(6) 0.510(3) 0.4481(7)
H44? H 0.0143 0.6313 0.4370
H45? H 0.0609 0.5522 0.4571
H46? H 0.0321 0.4481 0.4779
loop_
_geom_bond_atom_site_label_1
_geom_bond_atom_site_label_2
_geom_bond_site_symmetry_1
_geom_bond_site_symmetry_2
O1 C7 1_555 1_555
O2 C9 1_555 1_555
N1 N2 1_555 1_555
N2 C8 1_555 1_555
N3 N4 1_555 1_555
N4 C10 1_555 1_555
C1 C2 1_555 1_555
C2 H1 1_555 1_555
C3 C2 1_555 1_555
C4 C3 1_555 1_555
H2 C4 1_555 1_555
C5 C4 1_555 1_555
H3 C5 1_555 1_555
C6 C1 1_555 1_555
H4 C6 1_555 1_555
C7 N1 1_555 1_555
C8 O1 1_555 1_555
C9 N3 1_555 1_555
C10 O2 1_555 1_555
C11 C8 1_555 1_555
C12 C11 1_555 1_555
H5 C12 1_555 1_555
C13 C12 1_555 1_555
H6 C13 1_555 1_555
C14 C13 1_555 1_555
C15 C14 1_555 1_555
H7 C15 1_555 1_555
C16 C11 1_555 1_555
H8 C16 1_555 1_555
C17 C14 1_555 1_555
C18 C17 1_555 1_555
H9 C18 1_555 1_555
H10 C18 1_555 1_555
H11 C18 1_555 1_555
C19 C17 1_555 1_555
H12 C19 1_555 1_555
H13 C19 1_555 1_555
H14 C19 1_555 1_555
C20 C17 1_555 1_555
H15 C20 1_555 1_555
H16 C20 1_555 1_555
H17 C20 1_555 1_555
C21 C10 1_555 1_555
C22 C21 1_555 1_555
H18 C22 1_555 1_555
C23 C22 1_555 1_555
H19 C23 1_555 1_555
C24 C23 1_555 1_555
C25 C24 1_555 1_555
H20 C25 1_555 1_555
C26 C21 1_555 1_555
H21 C26 1_555 1_555
C27 C24 1_555 1_555
C28 C27 1_555 1_555
H22 C28 1_555 1_555
H23 C28 1_555 1_555
H24 C28 1_555 1_555
C29 C27 1_555 1_555
H25 C29 1_555 1_555
H26 C29 1_555 1_555
H27 C29 1_555 1_555
C30 C27 1_555 1_555
H28 C30 1_555 1_555
H29 C30 1_555 1_555
H30 C30 1_555 1_555
C31 C32 1_555 1_555
C32 H31 1_555 1_555
C33 C32 1_555 1_555
H32 C33 1_555 1_555
C34 C33 1_555 1_555
H33 C34 1_555 1_555
C35 C34 1_555 1_555
H34 C35 1_555 1_555
C36 C31 1_555 1_555
H35 C36 1_555 1_555
C37 C31 1_555 1_555
H36 C37 1_555 1_555
H37 C37 1_555 1_555
H38 C37 1_555 1_555
C1 C7 1_555 1_555
C3 C9 1_555 1_555
C5 C6 1_555 1_555
C15 C16 1_555 1_555
C25 C26 1_555 1_555
C35 C36 1_555 1_555

#END
