
#######################################################################
#
#                 Cambridge Crystallographic Data Centre
#                                CCDC 
#
#######################################################################
#
# If this CIF has been generated from an entry in the Cambridge 
# Structural Database, then it will include bibliographic, chemical, 
# crystal, experimental, refinement or atomic coordinate data resulting 
# from the CCDC's data processing and validation procedures.
#
#######################################################################

data_XIZFER03
_chemical_formula_moiety         'C33 H24 N12'
_chemical_name_systematic        
2,4,6-tris(bis(2-Pyridyl)amino)-1,3,5-triazine
_symmetry_cell_setting           monoclinic
_symmetry_space_group_name_H-M   'P 21/c'
_symmetry_Int_Tables_number      14
_space_group_name_Hall           '-P 2ybc'
loop_
_symmetry_equiv_pos_site_id
_symmetry_equiv_pos_as_xyz
1 x,y,z
2 -x,1/2+y,1/2-z
3 -x,-y,-z
4 x,1/2-y,1/2+z
_cell_length_a                   12.8813(17)
_cell_length_b                   19.440(3)
_cell_length_c                   12.6771(17)
_cell_angle_alpha                90
_cell_angle_beta                 116.288(2)
_cell_angle_gamma                90
_cell_volume                     2846.19
_cell_formula_units_Z            4
loop_
_atom_site_label
_atom_site_type_symbol
_atom_site_fract_x
_atom_site_fract_y
_atom_site_fract_z
C1 C 0.18456(15) 0.63091(10) 0.54050(16)
C2 C 0.00051(15) 0.62007(10) 0.49721(16)
C3 C 0.13267(15) 0.60477(10) 0.68172(16)
C4 C 0.39073(16) 0.65069(12) 0.59421(18)
C5 C 0.45143(17) 0.59751(14) 0.6595(2)
H1 H 0.4169 0.5547 0.6529
C6 C 0.5643(2) 0.60734(15) 0.7352(2)
H2 H 0.6073 0.5705 0.7802
C7 C 0.6146(2) 0.66744(15) 0.7467(2)
H3 H 0.6921 0.6740 0.7985
C8 C 0.5499(2) 0.71804(15) 0.6814(2)
H4 H 0.5846 0.7609 0.6894
C9 C 0.24898(16) 0.66296(11) 0.39086(16)
C10 C 0.16266(17) 0.70772(12) 0.32208(17)
H5 H 0.1176 0.7303 0.3518
C11 C 0.14502(19) 0.71816(13) 0.20765(19)
H6 H 0.0856 0.7466 0.1576
C12 C 0.21501(19) 0.68659(13) 0.1696(2)
H7 H 0.2050 0.6936 0.0931
C13 C 0.29957(19) 0.64484(13) 0.24267(19)
H8 H 0.3488 0.6243 0.2160
C14 C -0.14052(16) 0.65882(11) 0.30140(16)
C15 C -0.11552(16) 0.72304(11) 0.29803(18)
H9 H -0.0811 0.7491 0.3664
C16 C -0.21981(18) 0.64623(12) 0.09952(18)
H10 H -0.2557 0.6202 0.0312
C17 C -0.19557(18) 0.71326(12) 0.09072(19)
H11 H -0.2155 0.7332 0.0176
C18 C -0.14119(17) 0.75083(12) 0.19175(19)
H12 H -0.1215 0.7964 0.1871
C19 C -0.21069(16) 0.60990(11) 0.43585(18)
C20 C -0.20969(17) 0.55350(12) 0.50245(19)
H13 H -0.1456 0.5247 0.5354
C21 C -0.30600(18) 0.54173(13) 0.5180(2)
H14 H -0.3099 0.5040 0.5613
C22 C -0.39796(18) 0.58674(13) 0.4683(2)
H15 H -0.4649 0.5795 0.4774
C23 C -0.39024(18) 0.64057(13) 0.4073(2)
H16 H -0.4526 0.6707 0.3756
C24 C 0.06735(16) 0.57242(11) 0.82555(16)
C25 C 0.00606(18) 0.51412(12) 0.78408(18)
H17 H 0.0214 0.4848 0.7348
C26 C -0.08029(19) 0.49938(13) 0.8170(2)
H18 H -0.1225 0.4588 0.7928
C27 C -0.1023(2) 0.54450(13) 0.8846(2)
H19 H -0.1629 0.5369 0.9042
C28 C -0.03555(19) 0.60088(13) 0.9237(2)
H20 H -0.0482 0.6299 0.9752
C29 C 0.27500(16) 0.59177(11) 0.88996(16)
C30 C 0.35285(17) 0.64159(12) 0.89602(18)
H21 H 0.3328 0.6761 0.8396
C31 C 0.46087(19) 0.63852(14) 0.98793(19)
H22 H 0.5165 0.6711 0.9952
C32 C 0.4861(2) 0.58798(14) 1.0679(2)
H23 H 0.5595 0.5848 1.1306
C33 C 0.4045(2) 0.54277(14) 1.0559(2)
H24 H 0.4221 0.5088 1.1129
N1 N 0.07801(12) 0.62993(8) 0.45526(13)
N2 N 0.02067(12) 0.60977(8) 0.60897(12)
N3 N 0.22058(12) 0.61639(8) 0.65423(13)
N4 N 0.27190(12) 0.64670(9) 0.50860(13)
N5 N -0.11354(12) 0.62665(8) 0.41403(13)
N6 N 0.15959(13) 0.59142(9) 0.79603(13)
N7 N 0.43693(15) 0.71253(11) 0.60371(17)
N8 N 0.31534(14) 0.63178(10) 0.35312(14)
N9 N -0.19281(14) 0.61525(9) 0.20714(15)
N10 N -0.29720(13) 0.65355(9) 0.38927(15)
N11 N 0.04836(15) 0.61779(10) 0.89268(15)
N12 N 0.29731(15) 0.54336(10) 0.96543(15)
loop_
_geom_bond_atom_site_label_1
_geom_bond_atom_site_label_2
_geom_bond_site_symmetry_1
_geom_bond_site_symmetry_2
C1 N1 1_555 1_555
C2 N1 1_555 1_555
C3 N2 1_555 1_555
C4 C5 1_555 1_555
C5 H1 1_555 1_555
C6 C5 1_555 1_555
H2 C6 1_555 1_555
C7 C6 1_555 1_555
H3 C7 1_555 1_555
C8 C7 1_555 1_555
H4 C8 1_555 1_555
C9 C10 1_555 1_555
C10 H5 1_555 1_555
C11 C10 1_555 1_555
H6 C11 1_555 1_555
C12 C11 1_555 1_555
H7 C12 1_555 1_555
C13 C12 1_555 1_555
H8 C13 1_555 1_555
C14 C15 1_555 1_555
C15 H9 1_555 1_555
C16 H10 1_555 1_555
C17 C16 1_555 1_555
H11 C17 1_555 1_555
C18 C15 1_555 1_555
H12 C18 1_555 1_555
C19 C20 1_555 1_555
C20 H13 1_555 1_555
C21 C20 1_555 1_555
H14 C21 1_555 1_555
C22 C21 1_555 1_555
H15 C22 1_555 1_555
C23 C22 1_555 1_555
H16 C23 1_555 1_555
C24 C25 1_555 1_555
C25 H17 1_555 1_555
C26 C25 1_555 1_555
H18 C26 1_555 1_555
C27 C26 1_555 1_555
H19 C27 1_555 1_555
C28 C27 1_555 1_555
H20 C28 1_555 1_555
C29 C30 1_555 1_555
C30 H21 1_555 1_555
C31 C30 1_555 1_555
H22 C31 1_555 1_555
C32 C31 1_555 1_555
H23 C32 1_555 1_555
C33 C32 1_555 1_555
H24 C33 1_555 1_555
N2 C2 1_555 1_555
N3 C1 1_555 1_555
N4 C1 1_555 1_555
N5 C2 1_555 1_555
N6 C3 1_555 1_555
N7 C4 1_555 1_555
N8 C9 1_555 1_555
N9 C14 1_555 1_555
N10 C19 1_555 1_555
N11 C24 1_555 1_555
N12 C29 1_555 1_555
C3 N3 1_555 1_555
C4 N4 1_555 1_555
C8 N7 1_555 1_555
C9 N4 1_555 1_555
C13 N8 1_555 1_555
C14 N5 1_555 1_555
C16 N9 1_555 1_555
C17 C18 1_555 1_555
C19 N5 1_555 1_555
C23 N10 1_555 1_555
C24 N6 1_555 1_555
C28 N11 1_555 1_555
C29 N6 1_555 1_555
C33 N12 1_555 1_555

#END
