
#######################################################################
#
#                 Cambridge Crystallographic Data Centre
#                                CCDC 
#
#######################################################################
#
# If this CIF has been generated from an entry in the Cambridge 
# Structural Database, then it will include bibliographic, chemical, 
# crystal, experimental, refinement or atomic coordinate data resulting 
# from the CCDC's data processing and validation procedures.
#
#######################################################################

data_XOBCOH01
_chemical_name_common            'sulfamethazinium saccharinate'
_chemical_formula_moiety         'C12 H15 N4 O2 S1 1+,C7 H4 N1 O3 S1 1-'
_chemical_name_systematic        
'N-((4-aminophenyl)sulfonyl)-4,6-dimethylpyrimidin-2(1H)-iminium 3-oxo-3H-1,2-benzothiazol-2-ide 1,1-dioxide'
_chemical_properties_biological  'Sulfamethazine is an antibacterial drug.'
_symmetry_cell_setting           orthorhombic
_symmetry_space_group_name_H-M   'P b c a'
_symmetry_Int_Tables_number      61
_space_group_name_Hall           '-P 2ac 2ab'
loop_
_symmetry_equiv_pos_site_id
_symmetry_equiv_pos_as_xyz
1 x,y,z
2 1/2-x,-y,1/2+z
3 1/2+x,1/2-y,-z
4 -x,1/2+y,1/2-z
5 -x,-y,-z
6 1/2+x,y,1/2-z
7 1/2-x,1/2+y,z
8 x,1/2-y,1/2+z
_cell_length_a                   10.5425(3)
_cell_length_b                   16.0431(4)
_cell_length_c                   25.3246(6)
_cell_angle_alpha                90
_cell_angle_beta                 90
_cell_angle_gamma                90
_cell_volume                     4283.26
_exptl_crystal_colour            colorless
_exptl_crystal_description       block
_cell_formula_units_Z            8
loop_
_atom_site_label
_atom_site_type_symbol
_atom_site_fract_x
_atom_site_fract_y
_atom_site_fract_z
S1 S 0.42405(6) 0.19692(3) 0.335195(19)
O1 O 0.49244(19) 0.15659(10) 0.29376(6)
O2 O 0.29945(17) 0.16738(11) 0.34866(7)
N1 N 0.50115(18) 0.18410(11) 0.39162(7)
H1 H 0.461(2) 0.1657(15) 0.4176(9)
N2 N 0.67422(16) 0.17529(10) 0.44682(6)
H2 H 0.625(2) 0.1522(13) 0.4708(8)
N3 N 0.3856(3) 0.55573(13) 0.29058(9)
H3 H 0.430(3) 0.5769(18) 0.2668(9)
H4 H 0.333(3) 0.5811(17) 0.3078(11)
N4 N 0.69819(18) 0.23058(10) 0.36143(6)
C1 C 0.4161(2) 0.30316(12) 0.32205(7)
C2 C 0.3951(2) 0.47250(13) 0.30036(8)
C3 C 0.9012(3) 0.27532(18) 0.32774(9)
H5 H 0.9156 0.2325 0.3019
H6 H 0.9811 0.2941 0.3415
H7 H 0.8578 0.3213 0.3115
C4 C 0.5033(2) 0.34142(13) 0.28857(7)
H8 H 0.5694 0.3107 0.2740
C5 C 0.6275(2) 0.19762(11) 0.39924(7)
C6 C 0.8393(2) 0.16474(13) 0.51282(7)
H9 H 0.8030 0.2029 0.5378
H10 H 0.9301 0.1675 0.5148
H11 H 0.8118 0.1091 0.5208
C7 C 0.4913(2) 0.42485(13) 0.27718(7)
H12 H 0.5477 0.4499 0.2538
C8 C 0.79734(19) 0.18748(11) 0.45877(8)
C9 C 0.3185(2) 0.34982(14) 0.34482(8)
H13 H 0.2601 0.3242 0.3670
C10 C 0.3089(2) 0.43347(15) 0.33440(8)
H14 H 0.2446 0.4645 0.3501
C11 C 0.8747(2) 0.22112(12) 0.42051(7)
H15 H 0.9604 0.2303 0.4270
C12 C 0.8217(2) 0.24095(12) 0.37194(8)
S2 S 0.21573(5) 0.09696(3) 0.482111(19)
O3 O 0.17321(16) 0.03650(9) 0.44449(6)
O4 O 0.54900(14) 0.10228(9) 0.52362(5)
O5 O 0.14610(15) 0.17379(9) 0.48392(6)
N5 N 0.36653(17) 0.11625(10) 0.47575(6)
C13 C 0.35279(19) 0.05360(11) 0.56049(7)
C14 C 0.3912(2) 0.02153(13) 0.60851(8)
H16 H 0.4760 0.0223 0.6185
C15 C 0.2261(2) 0.05201(12) 0.54589(8)
C16 C 0.2981(3) -0.01201(14) 0.64145(9)
H17 H 0.3210 -0.0333 0.6743
C17 C 0.4326(2) 0.09243(12) 0.51847(7)
C18 C 0.1327(2) 0.01845(13) 0.57774(8)
H18 H 0.0480 0.0176 0.5675
C19 C 0.1721(3) -0.01398(13) 0.62593(9)
H19 H 0.1123 -0.0377 0.6484
loop_
_geom_bond_atom_site_label_1
_geom_bond_atom_site_label_2
_geom_bond_site_symmetry_1
_geom_bond_site_symmetry_2
S1 O1 1_555 1_555
O2 S1 1_555 1_555
N1 S1 1_555 1_555
H1 N1 1_555 1_555
N2 H2 1_555 1_555
N3 H3 1_555 1_555
H4 N3 1_555 1_555
N4 C5 1_555 1_555
C1 S1 1_555 1_555
C2 N3 1_555 1_555
C3 H5 1_555 1_555
H6 C3 1_555 1_555
H7 C3 1_555 1_555
C4 C1 1_555 1_555
H8 C4 1_555 1_555
C5 N1 1_555 1_555
C6 H9 1_555 1_555
H10 C6 1_555 1_555
H11 C6 1_555 1_555
C7 C2 1_555 1_555
H12 C7 1_555 1_555
C8 N2 1_555 1_555
C9 C1 1_555 1_555
H13 C9 1_555 1_555
C10 C2 1_555 1_555
H14 C10 1_555 1_555
C11 C8 1_555 1_555
H15 C11 1_555 1_555
C12 N4 1_555 1_555
S2 O3 1_555 1_555
O4 C17 1_555 1_555
O5 S2 1_555 1_555
N5 S2 1_555 1_555
C13 C14 1_555 1_555
C14 H16 1_555 1_555
C15 S2 1_555 1_555
C16 C14 1_555 1_555
H17 C16 1_555 1_555
C17 N5 1_555 1_555
C18 C15 1_555 1_555
H18 C18 1_555 1_555
C19 C16 1_555 1_555
H19 C19 1_555 1_555
N2 C5 1_555 1_555
C3 C12 1_555 1_555
C4 C7 1_555 1_555
C6 C8 1_555 1_555
C9 C10 1_555 1_555
C11 C12 1_555 1_555
C13 C15 1_555 1_555
C13 C17 1_555 1_555
C18 C19 1_555 1_555

#END
