
#######################################################################
#
#                 Cambridge Crystallographic Data Centre
#                                CCDC 
#
#######################################################################
#
# If this CIF has been generated from an entry in the Cambridge 
# Structural Database, then it will include bibliographic, chemical, 
# crystal, experimental, refinement or atomic coordinate data resulting 
# from the CCDC's data processing and validation procedures.
#
#######################################################################

data_XOBCOH02
_chemical_formula_moiety         'C12 H15 N4 O2 S1 1+,C7 H4 N1 O3 S1 1-'
_chemical_name_systematic        'sulfamethazinium saccharinate'
_symmetry_cell_setting           orthorhombic
_symmetry_space_group_name_H-M   'P b c a'
_symmetry_Int_Tables_number      61
_space_group_name_Hall           '-P 2ac 2ab'
loop_
_symmetry_equiv_pos_site_id
_symmetry_equiv_pos_as_xyz
1 x,y,z
2 1/2+x,1/2-y,-z
3 -x,1/2+y,1/2-z
4 1/2-x,-y,1/2+z
5 -x,-y,-z
6 1/2-x,1/2+y,z
7 x,1/2-y,1/2+z
8 1/2+x,y,1/2-z
_cell_length_a                   10.4993(5)
_cell_length_b                   16.0117(8)
_cell_length_c                   25.1481(12)
_cell_angle_alpha                90
_cell_angle_beta                 90
_cell_angle_gamma                90
_cell_volume                     4227.69
_exptl_crystal_colour            colorless
_exptl_crystal_description       block
_chemical_melting_point          '177 deg.C'
_cell_formula_units_Z            8
loop_
_atom_site_label
_atom_site_type_symbol
_atom_site_fract_x
_atom_site_fract_y
_atom_site_fract_z
S1 S 0.28379(3) 0.09557(2) 0.517179(13)
O1 O -0.05075(10) 0.10212(6) 0.47494(4)
C1 C 0.06639(14) 0.09185(8) 0.48046(5)
O2 O 0.32593(10) 0.03533(6) 0.55562(4)
O3 O 0.35522(10) 0.17215(6) 0.51491(4)
N1 N 0.13250(11) 0.11583(7) 0.52348(5)
C2 C 0.27306(13) 0.04956(8) 0.45318(6)
C3 C 0.14614(13) 0.05187(8) 0.43835(5)
C4 C 0.36688(14) 0.01506(9) 0.42139(6)
C5 C 0.32760(16) -0.01802(9) 0.37285(6)
C6 C 0.10745(15) 0.01937(9) 0.38989(6)
C7 C 0.20028(16) -0.01569(9) 0.35705(6)
H1 H 0.0192(19) 0.0195(12) 0.3798(7)
H2 H 0.3921(19) -0.0464(12) 0.3505(8)
H3 H 0.1786(19) -0.0399(12) 0.3226(8)
H4 H 0.4535(19) 0.0151(12) 0.4340(7)
S2 S 0.07836(3) 0.19905(2) 0.664461(14)
O4 O 0.20341(11) 0.17015(7) 0.65060(5)
N2 N 0.00028(12) 0.18537(8) 0.60779(5)
N3 N -0.17379(11) 0.17606(7) 0.55249(5)
C8 C -0.12675(14) 0.19895(8) 0.60036(5)
O5 O 0.01063(12) 0.15833(7) 0.70642(4)
C9 C -0.29758(13) 0.18884(8) 0.54042(6)
N4 N -0.19704(12) 0.23270(7) 0.63829(5)
C10 C -0.37532(14) 0.22297(9) 0.57895(6)
C11 C 0.08507(14) 0.30541(9) 0.67754(6)
C12 C 0.19261(15) 0.43652(10) 0.66545(6)
N5 N 0.11251(17) 0.55903(9) 0.70886(6)
C13 C 0.10479(15) 0.47559(9) 0.69947(6)
C14 C -0.33932(14) 0.16636(9) 0.48582(6)
C15 C 0.18344(15) 0.35227(10) 0.65482(6)
C16 C -0.00345(14) 0.34313(9) 0.71117(5)
C17 C -0.39982(18) 0.27797(12) 0.67230(7)
C18 C 0.00732(15) 0.42720(9) 0.72262(6)
C19 C -0.32137(15) 0.24349(9) 0.62780(6)
H5 H -0.0725(17) 0.3096(11) 0.7256(7)
H6 H 0.245(2) 0.3281(13) 0.6313(8)
H7 H 0.259(2) 0.4706(13) 0.6498(8)
H8 H -0.465(2) 0.2313(12) 0.5721(7)
H9 H -0.0551(18) 0.4535(11) 0.7477(8)
H10 H -0.427(2) 0.1722(14) 0.4832(8)
H11 H -0.299(2) 0.2045(13) 0.4611(9)
H12 H -0.123(2) 0.1506(13) 0.5267(8)
H13 H -0.312(2) 0.1098(14) 0.4750(8)
H14 H 0.065(2) 0.5814(13) 0.7316(8)
H15 H 0.168(2) 0.5883(14) 0.6913(9)
H16 H -0.410(3) 0.2381(17) 0.6995(11)
H17 H -0.481(3) 0.2972(16) 0.6602(10)
H18 H -0.360(3) 0.3263(17) 0.6889(10)
H19 H 0.044(2) 0.1645(14) 0.5805(9)
loop_
_geom_bond_atom_site_label_1
_geom_bond_atom_site_label_2
_geom_bond_site_symmetry_1
_geom_bond_site_symmetry_2
S1 O2 1_555 1_555
O1 C1 1_555 1_555
C1 N1 1_555 1_555
O3 S1 1_555 1_555
N1 S1 1_555 1_555
C2 S1 1_555 1_555
C3 C1 1_555 1_555
C4 C2 1_555 1_555
C5 C4 1_555 1_555
C6 C3 1_555 1_555
C7 C5 1_555 1_555
H1 C6 1_555 1_555
H2 C5 1_555 1_555
H3 C7 1_555 1_555
H4 C4 1_555 1_555
S2 O4 1_555 1_555
N2 S2 1_555 1_555
N3 C8 1_555 1_555
C8 N2 1_555 1_555
O5 S2 1_555 1_555
C9 N3 1_555 1_555
N4 C8 1_555 1_555
C10 C9 1_555 1_555
C11 S2 1_555 1_555
C12 C13 1_555 1_555
N5 C13 1_555 1_555
C13 C18 1_555 1_555
C14 C9 1_555 1_555
C15 C11 1_555 1_555
C16 C11 1_555 1_555
C17 C19 1_555 1_555
C18 C16 1_555 1_555
C19 N4 1_555 1_555
H5 C16 1_555 1_555
H6 C15 1_555 1_555
H7 C12 1_555 1_555
H8 C10 1_555 1_555
H9 C18 1_555 1_555
H10 C14 1_555 1_555
H11 C14 1_555 1_555
H12 N3 1_555 1_555
H13 C14 1_555 1_555
H14 N5 1_555 1_555
H15 N5 1_555 1_555
H16 C17 1_555 1_555
H17 C17 1_555 1_555
H18 C17 1_555 1_555
H19 N2 1_555 1_555
C2 C3 1_555 1_555
C6 C7 1_555 1_555
C10 C19 1_555 1_555
C12 C15 1_555 1_555

#END
