
#######################################################################
#
#                 Cambridge Crystallographic Data Centre
#                                CCDC 
#
#######################################################################
#
# If this CIF has been generated from an entry in the Cambridge 
# Structural Database, then it will include bibliographic, chemical, 
# crystal, experimental, refinement or atomic coordinate data resulting 
# from the CCDC's data processing and validation procedures.
#
#######################################################################

data_XOBDOJ
_chemical_formula_moiety         'C40 H38 B1 F2 N3 O2'
_chemical_name_systematic        
5,5-Difluoro-1,9-dimesityl-3,7-bis(4-methoxyphenyl)-5H-6\l^5^,5\l^5^-dipyrrolo[1,2-c:2',1'-f][1,3,5,2]triazaborinine
_symmetry_cell_setting           monoclinic
_symmetry_space_group_name_H-M   'C 2/c'
_symmetry_Int_Tables_number      15
_space_group_name_Hall           '-C 2yn'
loop_
_symmetry_equiv_pos_site_id
_symmetry_equiv_pos_as_xyz
1 x,y,z
2 -x,y,1/2-z
3 1/2+x,1/2+y,z
4 1/2-x,1/2+y,1/2-z
5 -x,-y,-z
6 x,-y,1/2+z
7 1/2-x,1/2-y,-z
8 1/2+x,1/2-y,1/2+z
_cell_length_a                   9.2896(9)
_cell_length_b                   25.685(2)
_cell_length_c                   14.2931(13)
_cell_angle_alpha                90
_cell_angle_beta                 97.5010(10)
_cell_angle_gamma                90
_cell_volume                     3381.2
_exptl_crystal_colour            colorless
_exptl_crystal_description       block
_cell_formula_units_Z            4
loop_
_atom_site_label
_atom_site_type_symbol
_atom_site_fract_x
_atom_site_fract_y
_atom_site_fract_z
B1 B 0.0000 0.11353(9) 0.7500
C1 C 0.23048(18) 0.08902(6) 0.66660(12)
C2 C 0.2966(2) 0.04178(6) 0.64398(14)
H1 H 0.3806 0.0391 0.6153
C3 C 0.21816(18) 0.00076(6) 0.67079(12)
C4 C 0.10060(17) 0.02319(6) 0.71188(11)
C5 C 0.24755(17) -0.05537(6) 0.65941(12)
C6 C 0.29583(18) -0.08621(6) 0.73798(12)
C7 C 0.32822(19) -0.13820(6) 0.72398(13)
H2 H 0.3595 -0.1587 0.7763
C8 C 0.31597(19) -0.16061(6) 0.63603(13)
C9 C 0.2679(2) -0.12951(7) 0.55918(13)
H3 H 0.2582 -0.1441 0.4991
C10 C 0.2337(2) -0.07740(6) 0.56879(13)
C11 C 0.3192(3) -0.06403(8) 0.83635(14)
H4 H 0.2270 -0.0584 0.8581
H5 H 0.3702 -0.0315 0.8359
H6 H 0.3754 -0.0880 0.8778
C12 C 0.3544(2) -0.21713(7) 0.62377(16)
H7 H 0.3846 -0.2324 0.6845
H8 H 0.4320 -0.2195 0.5857
H9 H 0.2710 -0.2354 0.5933
C13 C 0.1796(3) -0.04644(8) 0.48216(16)
H10 H 0.1795 -0.0680 0.4273
H11 H 0.2421 -0.0170 0.4775
H12 H 0.0827 -0.0345 0.4863
C14 C 0.28919(19) 0.14045(6) 0.64959(13)
C15 C 0.4339(2) 0.14392(7) 0.63344(18)
H13 H 0.4883 0.1136 0.6325
C16 C 0.4980(3) 0.19060(8) 0.6190(2)
H14 H 0.5956 0.1916 0.6106
C17 C 0.4194(2) 0.23612(7) 0.61679(16)
C18 C 0.2766(2) 0.23395(7) 0.63097(16)
H15 H 0.2225 0.2645 0.6297
C19 C 0.2123(2) 0.18694(7) 0.64706(16)
H16 H 0.1151 0.1864 0.6564
C20 C 0.4196(3) 0.32865(8) 0.6064(2)
H17 H 0.3325 0.3290 0.5621
H18 H 0.4824 0.3564 0.5919
H19 H 0.3952 0.3333 0.6691
F1 F 0.07701(10) 0.14428(3) 0.81877(7)
N1 N 0.10973(14) 0.07736(5) 0.70739(9)
N2 N 0.0000 -0.00273(7) 0.7500
O1 O 0.49145(17) 0.28036(5) 0.60073(14)
C1A C -0.23048(18) 0.08902(6) 0.83340(12)
C2A C -0.2966(2) 0.04178(6) 0.85602(14)
H1A H -0.3806 0.0391 0.8847
C3A C -0.21816(18) 0.00076(6) 0.82921(12)
C4A C -0.10060(17) 0.02319(6) 0.78812(11)
C5A C -0.24755(17) -0.05537(6) 0.84059(12)
C6A C -0.29583(18) -0.08621(6) 0.76202(12)
C7A C -0.32822(19) -0.13820(6) 0.77602(13)
H2A H -0.3595 -0.1587 0.7237
C8A C -0.31597(19) -0.16061(6) 0.86397(13)
C9A C -0.2679(2) -0.12951(7) 0.94082(13)
H3A H -0.2582 -0.1441 1.0009
C10A C -0.2337(2) -0.07740(6) 0.93121(13)
C11A C -0.3192(3) -0.06403(8) 0.66365(14)
H4A H -0.2270 -0.0584 0.6419
H5A H -0.3702 -0.0315 0.6641
H6A H -0.3754 -0.0880 0.6222
C12A C -0.3544(2) -0.21713(7) 0.87623(16)
H7A H -0.3846 -0.2324 0.8155
H8A H -0.4320 -0.2195 0.9143
H9A H -0.2710 -0.2354 0.9067
C13A C -0.1796(3) -0.04644(8) 1.01784(16)
H10A H -0.1795 -0.0680 1.0727
H11A H -0.2421 -0.0170 1.0225
H12A H -0.0827 -0.0345 1.0137
C14A C -0.28919(19) 0.14045(6) 0.85041(13)
C15A C -0.4339(2) 0.14392(7) 0.86656(18)
H13A H -0.4883 0.1136 0.8675
C16A C -0.4980(3) 0.19060(8) 0.8810(2)
H14A H -0.5956 0.1916 0.8894
C17A C -0.4194(2) 0.23612(7) 0.88321(16)
C18A C -0.2766(2) 0.23395(7) 0.86903(16)
H15A H -0.2225 0.2645 0.8703
C19A C -0.2123(2) 0.18694(7) 0.85294(16)
H16A H -0.1151 0.1864 0.8436
C20A C -0.4196(3) 0.32865(8) 0.8936(2)
H17A H -0.3325 0.3290 0.9379
H18A H -0.4824 0.3564 0.9081
H19A H -0.3952 0.3333 0.8309
F1A F -0.07701(10) 0.14428(3) 0.68123(7)
N1A N -0.10973(14) 0.07736(5) 0.79261(9)
O1A O -0.49145(17) 0.28036(5) 0.89927(14)
loop_
_geom_bond_atom_site_label_1
_geom_bond_atom_site_label_2
_geom_bond_site_symmetry_1
_geom_bond_site_symmetry_2
B1 F1 1_555 1_555
C1 C2 1_555 1_555
C2 H1 1_555 1_555
C3 C2 1_555 1_555
C4 C3 1_555 1_555
C5 C3 1_555 1_555
C6 C5 1_555 1_555
C7 C6 1_555 1_555
H2 C7 1_555 1_555
C8 C7 1_555 1_555
C9 C8 1_555 1_555
H3 C9 1_555 1_555
C10 C5 1_555 1_555
C11 C6 1_555 1_555
H4 C11 1_555 1_555
H5 C11 1_555 1_555
H6 C11 1_555 1_555
C12 C8 1_555 1_555
H7 C12 1_555 1_555
H8 C12 1_555 1_555
H9 C12 1_555 1_555
C13 C10 1_555 1_555
H10 C13 1_555 1_555
H11 C13 1_555 1_555
H12 C13 1_555 1_555
C14 C1 1_555 1_555
C15 C14 1_555 1_555
H13 C15 1_555 1_555
C16 C15 1_555 1_555
H14 C16 1_555 1_555
C17 C16 1_555 1_555
C18 C17 1_555 1_555
H15 C18 1_555 1_555
C19 C14 1_555 1_555
H16 C19 1_555 1_555
C20 H17 1_555 1_555
H18 C20 1_555 1_555
H19 C20 1_555 1_555
N1 B1 1_555 1_555
N2 C4 1_555 1_555
O1 C17 1_555 1_555
C1A C2A 1_555 1_555
C2A H1A 1_555 1_555
C3A C2A 1_555 1_555
C4A N2 1_555 1_555
C5A C3A 1_555 1_555
C6A C5A 1_555 1_555
C7A C6A 1_555 1_555
H2A C7A 1_555 1_555
C8A C7A 1_555 1_555
C9A C8A 1_555 1_555
H3A C9A 1_555 1_555
C10A C5A 1_555 1_555
C11A C6A 1_555 1_555
H4A C11A 1_555 1_555
H5A C11A 1_555 1_555
H6A C11A 1_555 1_555
C12A C8A 1_555 1_555
H7A C12A 1_555 1_555
H8A C12A 1_555 1_555
H9A C12A 1_555 1_555
C13A C10A 1_555 1_555
H10A C13A 1_555 1_555
H11A C13A 1_555 1_555
H12A C13A 1_555 1_555
C14A C1A 1_555 1_555
C15A C14A 1_555 1_555
H13A C15A 1_555 1_555
C16A C15A 1_555 1_555
H14A C16A 1_555 1_555
C17A C16A 1_555 1_555
C18A C17A 1_555 1_555
H15A C18A 1_555 1_555
C19A C14A 1_555 1_555
H16A C19A 1_555 1_555
C20A H17A 1_555 1_555
H18A C20A 1_555 1_555
H19A C20A 1_555 1_555
F1A B1 1_555 1_555
N1A B1 1_555 1_555
O1A C17A 1_555 1_555
C1 N1 1_555 1_555
C4 N1 1_555 1_555
C9 C10 1_555 1_555
C18 C19 1_555 1_555
C20 O1 1_555 1_555
C1A N1A 1_555 1_555
C3A C4A 1_555 1_555
C4A N1A 1_555 1_555
C9A C10A 1_555 1_555
C18A C19A 1_555 1_555
C20A O1A 1_555 1_555

#END
