
#######################################################################
#
#                 Cambridge Crystallographic Data Centre
#                                CCDC 
#
#######################################################################
#
# If this CIF has been generated from an entry in the Cambridge 
# Structural Database, then it will include bibliographic, chemical, 
# crystal, experimental, refinement or atomic coordinate data resulting 
# from the CCDC's data processing and validation procedures.
#
#######################################################################

data_XOBHEC
_chemical_formula_moiety         'C26 H22 O2,C13 H15 N1 O2'
_chemical_name_systematic        
'1,1,2,2-Tetraphenyl-1,2-ethanediol bis(7-hydroxy-7-phenyl-1-azabicyclo(4.2.0)octan-8-one) clathrate'
_symmetry_cell_setting           monoclinic
_symmetry_space_group_name_H-M   'P 21/c'
_symmetry_Int_Tables_number      14
_space_group_name_Hall           '-P 2ybc'
loop_
_symmetry_equiv_pos_site_id
_symmetry_equiv_pos_as_xyz
1 x,y,z
2 -x,1/2+y,1/2-z
3 -x,-y,-z
4 x,1/2-y,1/2+z
_cell_length_a                   9.784(2)
_cell_length_b                   20.538(4)
_cell_length_c                   15.533(3)
_cell_angle_alpha                90
_cell_angle_beta                 100.602(8)
_cell_angle_gamma                90
_cell_volume                     3067.98
_exptl_crystal_colour            yellow
_exptl_crystal_description       Block
_cell_formula_units_Z            4
loop_
_atom_site_label
_atom_site_type_symbol
_atom_site_fract_x
_atom_site_fract_y
_atom_site_fract_z
O1 O 0.4012(5) 0.1059(2) 0.2151(3)
H1 H 0.3763 0.1430 0.2242
O2 O 0.5583(5) -0.0229(2) 0.3570(3)
H2 H 0.5859 -0.0599 0.3501
C1 C 0.4386(7) 0.0721(3) 0.2968(4)
C2 C 0.3097(7) 0.0657(4) 0.3377(4)
C3 C 0.2864(8) 0.0141(4) 0.3935(5)
H3 H 0.3500 -0.0199 0.4041
C4 C 0.1692(10) 0.0136(5) 0.4327(5)
H4 H 0.1555 -0.0208 0.4692
C5 C 0.0732(9) 0.0635(5) 0.4180(6)
H5 H -0.0042 0.0633 0.4449
C6 C 0.0937(9) 0.1134(5) 0.3632(6)
H6 H 0.0289 0.1468 0.3520
C7 C 0.2122(8) 0.1143(4) 0.3238(5)
H7 H 0.2246 0.1489 0.2873
C8 C 0.5501(7) 0.1106(3) 0.3585(4)
C9 C 0.5571(7) 0.1114(4) 0.4487(4)
H8 H 0.4944 0.0869 0.4735
C10 C 0.6564(8) 0.1483(4) 0.5015(5)
H9 H 0.6586 0.1492 0.5616
C11 C 0.7510(8) 0.1834(4) 0.4673(5)
H10 H 0.8184 0.2073 0.5042
C12 C 0.7477(7) 0.1837(3) 0.3794(5)
H11 H 0.8116 0.2085 0.3561
C13 C 0.6490(7) 0.1470(3) 0.3247(5)
H12 H 0.6486 0.1466 0.2648
C14 C 0.5002(8) 0.0049(3) 0.2727(4)
C15 C 0.3924(8) -0.0423(4) 0.2215(5)
C16 C 0.2674(8) -0.0235(4) 0.1718(5)
H13 H 0.2411 0.0201 0.1707
C17 C 0.1814(9) -0.0683(5) 0.1237(5)
H14 H 0.0951 -0.0554 0.0926
C18 C 0.2225(10) -0.1325(4) 0.1211(6)
H15 H 0.1662 -0.1622 0.0859
C19 C 0.3445(10) -0.1520(4) 0.1699(7)
H16 H 0.3711 -0.1955 0.1704
C20 C 0.4281(9) -0.1070(4) 0.2183(6)
H17 H 0.5130 -0.1206 0.2505
C21 C 0.6179(7) 0.0141(3) 0.2203(5)
C22 C 0.5852(8) 0.0286(3) 0.1304(5)
H18 H 0.4926 0.0319 0.1031
C23 C 0.6896(9) 0.0380(4) 0.0817(5)
H19 H 0.6663 0.0474 0.0223
C24 C 0.8298(9) 0.0334(4) 0.1222(6)
H20 H 0.9002 0.0411 0.0906
C25 C 0.8609(9) 0.0171(4) 0.2097(6)
H21 H 0.9532 0.0112 0.2365
C26 C 0.7562(8) 0.0093(4) 0.2583(5)
H22 H 0.7801 0.0006 0.3179
N1 N 0.3783(8) 0.2308(4) 0.0539(4)
O3 O 0.2922(8) 0.3643(3) 0.0891(5)
H23 H 0.2361 0.3869 0.0564
O4 O 0.4171(7) 0.2427(3) 0.2002(5)
C27 C 0.1132(10) 0.2928(6) 0.1268(7)
C28 C 0.0342(13) 0.3446(6) 0.1511(7)
H24 H 0.0626 0.3872 0.1443
C29 C -0.0836(12) 0.3335(5) 0.1844(6)
H25 H -0.1318 0.3685 0.2024
C30 C -0.1311(12) 0.2719(5) 0.1915(5)
H26 H -0.2130 0.2642 0.2122
C31 C -0.0534(13) 0.2204(5) 0.1669(6)
H27 H -0.0853 0.1781 0.1712
C32 C 0.0642(11) 0.2295(6) 0.1374(6)
H28 H 0.1145 0.1938 0.1237
C33 C 0.2481(10) 0.2976(4) 0.0816(5)
C34 C 0.3619(13) 0.2511(5) 0.1276(6)
C35 C 0.2718(10) 0.2663(4) -0.0046(6)
H29 H 0.3107 0.2970 -0.0419
C36 C 0.1695(7) 0.2191(4) -0.0571(7)
H30 H 0.1028 0.2429 -0.0996
H31 H 0.1190 0.1961 -0.0183
C37 C 0.2476(11) 0.1705(4) -0.1042(5)
H32 H 0.1825 0.1396 -0.1364
H33 H 0.2932 0.1933 -0.1457
C38 C 0.3554(10) 0.1344(4) -0.0384(7)
H34 H 0.3085 0.1079 -0.0011
H35 H 0.4081 0.1055 -0.0695
C39 C 0.4536(8) 0.1807(4) 0.0175(6)
H36 H 0.5109 0.1567 0.0646
H37 H 0.5145 0.2005 -0.0178
loop_
_geom_bond_atom_site_label_1
_geom_bond_atom_site_label_2
_geom_bond_site_symmetry_1
_geom_bond_site_symmetry_2
O1 H1 1_555 1_555
O2 H2 1_555 1_555
C1 O1 1_555 1_555
C2 C1 1_555 1_555
C3 C2 1_555 1_555
H3 C3 1_555 1_555
C4 C3 1_555 1_555
H4 C4 1_555 1_555
C5 C4 1_555 1_555
H5 C5 1_555 1_555
C6 C5 1_555 1_555
H6 C6 1_555 1_555
C7 C2 1_555 1_555
H7 C7 1_555 1_555
C8 C1 1_555 1_555
C9 C8 1_555 1_555
H8 C9 1_555 1_555
C10 C9 1_555 1_555
H9 C10 1_555 1_555
C11 C10 1_555 1_555
H10 C11 1_555 1_555
C12 C11 1_555 1_555
H11 C12 1_555 1_555
C13 C8 1_555 1_555
H12 C13 1_555 1_555
C14 O2 1_555 1_555
C15 C14 1_555 1_555
C16 C15 1_555 1_555
H13 C16 1_555 1_555
C17 C16 1_555 1_555
H14 C17 1_555 1_555
C18 C17 1_555 1_555
H15 C18 1_555 1_555
C19 C18 1_555 1_555
H16 C19 1_555 1_555
C20 C15 1_555 1_555
H17 C20 1_555 1_555
C21 C14 1_555 1_555
C22 C21 1_555 1_555
H18 C22 1_555 1_555
C23 C22 1_555 1_555
H19 C23 1_555 1_555
C24 C23 1_555 1_555
H20 C24 1_555 1_555
C25 C24 1_555 1_555
H21 C25 1_555 1_555
C26 C21 1_555 1_555
H22 C26 1_555 1_555
N1 C34 1_555 1_555
O3 H23 1_555 1_555
O4 C34 1_555 1_555
C27 C28 1_555 1_555
C28 H24 1_555 1_555
C29 C28 1_555 1_555
H25 C29 1_555 1_555
C30 C29 1_555 1_555
H26 C30 1_555 1_555
C31 C30 1_555 1_555
H27 C31 1_555 1_555
C32 C27 1_555 1_555
H28 C32 1_555 1_555
C33 O3 1_555 1_555
C34 C33 1_555 1_555
C35 N1 1_555 1_555
H29 C35 1_555 1_555
C36 C35 1_555 1_555
H30 C36 1_555 1_555
H31 C36 1_555 1_555
C37 C36 1_555 1_555
H32 C37 1_555 1_555
H33 C37 1_555 1_555
C38 C37 1_555 1_555
H34 C38 1_555 1_555
H35 C38 1_555 1_555
C39 N1 1_555 1_555
H36 C39 1_555 1_555
H37 C39 1_555 1_555
C1 C14 1_555 1_555
C6 C7 1_555 1_555
C12 C13 1_555 1_555
C19 C20 1_555 1_555
C25 C26 1_555 1_555
C27 C33 1_555 1_555
C31 C32 1_555 1_555
C33 C35 1_555 1_555
C38 C39 1_555 1_555

#END
