
#######################################################################
#
#                 Cambridge Crystallographic Data Centre
#                                CCDC 
#
#######################################################################
#
# If this CIF has been generated from an entry in the Cambridge 
# Structural Database, then it will include bibliographic, chemical, 
# crystal, experimental, refinement or atomic coordinate data resulting 
# from the CCDC's data processing and validation procedures.
#
#######################################################################

data_XOBXAO
_chemical_formula_moiety         'C16 H22 N6 O1'
_chemical_name_systematic        
'bis(3,5-dimethyl-1-pyrazolyl)carbene (4-oxopent-2-en-2-yl) hydrazine'
_chemical_properties_biological  'binds to DNA'
_symmetry_cell_setting           triclinic
_symmetry_space_group_name_H-M   'P -1'
_symmetry_Int_Tables_number      2
_space_group_name_Hall           '-P 1'
loop_
_symmetry_equiv_pos_site_id
_symmetry_equiv_pos_as_xyz
1 x,y,z
2 -x,-y,-z
_cell_length_a                   6.9734(16)
_cell_length_b                   10.773(3)
_cell_length_c                   12.001(3)
_cell_angle_alpha                75.311(4)
_cell_angle_beta                 82.695(4)
_cell_angle_gamma                77.143(4)
_cell_volume                     847.843
_exptl_crystal_colour            colorless
_cell_formula_units_Z            2
_exptl_crystal_recrystallization_method water
loop_
_atom_site_label
_atom_site_type_symbol
_atom_site_fract_x
_atom_site_fract_y
_atom_site_fract_z
O1 O 0.10382(17) 0.17796(11) 0.61993(11)
N1 N 0.24820(16) 0.09885(11) 0.31362(10)
N2 N 0.22276(18) 0.08836(12) 0.42933(11)
N3 N 0.14008(17) 0.33144(11) 0.28144(10)
N4 N -0.04105(18) 0.34958(12) 0.34179(11)
N5 N 0.25740(18) 0.22486(12) 0.12782(11)
N6 N 0.44155(19) 0.17339(13) 0.08589(12)
C1 C 0.2144(2) 0.21209(14) 0.24780(13)
C2 C 0.26681(19) -0.03034(13) 0.50284(13)
C3 C 0.2346(2) -0.04215(15) 0.61908(14)
C4 C 0.1515(2) 0.06321(15) 0.67409(14)
C5 C 0.1199(3) 0.02914(19) 0.80348(15)
H1 H 0.0789 0.1081 0.8308
H2 H 0.2408 -0.0197 0.8359
H3 H 0.0198 -0.0227 0.8265
C6 C 0.3504(2) -0.14598(14) 0.45236(15)
H4 H 0.2499 -0.1649 0.4151
H5 H 0.3970 -0.2204 0.5127
H6 H 0.4580 -0.1270 0.3968
C7 C 0.2194(2) 0.44149(14) 0.25428(13)
C8 C 0.0856(2) 0.53180(15) 0.29899(14)
H7 H 0.0964 0.6173 0.2954
C9 C -0.0722(2) 0.47150(14) 0.35177(13)
C10 C 0.4189(2) 0.44429(18) 0.19263(18)
H8 H 0.4446 0.5312 0.1774
H9 H 0.4234 0.4191 0.1210
H10 H 0.5169 0.3844 0.2399
C11 C -0.2580(3) 0.53033(19) 0.41202(16)
H11 H -0.3413 0.5907 0.3560
H12 H -0.2266 0.5759 0.4643
H13 H -0.3254 0.4623 0.4545
C12 C 0.1344(2) 0.28635(15) 0.04201(14)
C13 C 0.2455(3) 0.27352(16) -0.05792(14)
H14 H 0.2046 0.3057 -0.1324
C14 C 0.4320(3) 0.20306(16) -0.02724(15)
C15 C -0.0773(2) 0.34541(18) 0.06498(17)
H15 H -0.1416 0.3716 -0.0058
H16 H -0.0860 0.4205 0.0960
H17 H -0.1404 0.2821 0.1196
C16 C 0.6065(3) 0.1610(2) -0.10388(17)
H18 H 0.7219 0.1330 -0.0610
H19 H 0.6244 0.2330 -0.1677
H20 H 0.5858 0.0898 -0.1324
H21 H 0.159(2) 0.1562(14) 0.4560(14)
H22 H 0.270(2) -0.1308(17) 0.6711(15)
loop_
_geom_bond_atom_site_label_1
_geom_bond_atom_site_label_2
_geom_bond_site_symmetry_1
_geom_bond_site_symmetry_2
O1 C4 1_555 1_555
N1 N2 1_555 1_555
N2 C2 1_555 1_555
N3 N4 1_555 1_555
N4 C9 1_555 1_555
N5 N6 1_555 1_555
N6 C14 1_555 1_555
C1 N1 1_555 1_555
C2 C3 1_555 1_555
C3 C4 1_555 1_555
C4 C5 1_555 1_555
C5 H1 1_555 1_555
H2 C5 1_555 1_555
H3 C5 1_555 1_555
C6 C2 1_555 1_555
H4 C6 1_555 1_555
H5 C6 1_555 1_555
H6 C6 1_555 1_555
C7 N3 1_555 1_555
C8 C7 1_555 1_555
H7 C8 1_555 1_555
C9 C8 1_555 1_555
C10 C7 1_555 1_555
H8 C10 1_555 1_555
H9 C10 1_555 1_555
H10 C10 1_555 1_555
C11 C9 1_555 1_555
H11 C11 1_555 1_555
H12 C11 1_555 1_555
H13 C11 1_555 1_555
C12 N5 1_555 1_555
C13 C12 1_555 1_555
H14 C13 1_555 1_555
C14 C13 1_555 1_555
C15 C12 1_555 1_555
H15 C15 1_555 1_555
H16 C15 1_555 1_555
H17 C15 1_555 1_555
C16 C14 1_555 1_555
H18 C16 1_555 1_555
H19 C16 1_555 1_555
H20 C16 1_555 1_555
H21 N2 1_555 1_555
H22 C3 1_555 1_555
N3 C1 1_555 1_555
N5 C1 1_555 1_555

#END
