
#######################################################################
#
#                 Cambridge Crystallographic Data Centre
#                                CCDC 
#
#######################################################################
#
# If this CIF has been generated from an entry in the Cambridge 
# Structural Database, then it will include bibliographic, chemical, 
# crystal, experimental, refinement or atomic coordinate data resulting 
# from the CCDC's data processing and validation procedures.
#
#######################################################################

data_XOBYUJ
_chemical_formula_moiety         'C27 H32 N2 O4 S1'
_chemical_name_systematic        
4-methyl-N-((3-methylphenyl)(8,9,9-trimethyl-2-oxo-3,5,6,7,8,8a-hexahydro-2H-5,8-methano-1,4-benzoxazin-3-yl)methyl)benzenesulfonamide
_symmetry_cell_setting           monoclinic
_symmetry_space_group_name_H-M   'P 21'
_symmetry_Int_Tables_number      4
_space_group_name_Hall           'P 2yb'
loop_
_symmetry_equiv_pos_site_id
_symmetry_equiv_pos_as_xyz
1 x,y,z
2 -x,1/2+y,-z
_cell_length_a                   6.851(6)
_cell_length_b                   13.858(11)
_cell_length_c                   13.766(12)
_cell_angle_alpha                90
_cell_angle_beta                 101.510(13)
_cell_angle_gamma                90
_cell_volume                     1280.68
_exptl_crystal_colour            colorless
_exptl_crystal_description       block
_cell_formula_units_Z            2
loop_
_atom_site_label
_atom_site_type_symbol
_atom_site_fract_x
_atom_site_fract_y
_atom_site_fract_z
S1 S 0.83314(9) 0.29200(5) 0.26926(4)
O1 O 1.1547(2) 0.05312(14) 0.11935(11)
O2 O 1.3966(3) 0.09979(17) 0.23980(14)
O3 O 1.0272(3) 0.33386(15) 0.28433(13)
O4 O 0.6886(3) 0.31450(16) 0.18201(13)
N1 N 0.9537(3) -0.03187(17) 0.26106(15)
N2 N 0.8652(3) 0.17541(17) 0.26664(14)
H1 H 0.746(4) 0.145(2) 0.2570(19)
C1 C 0.8806(4) -0.0325(2) 0.16880(18)
C2 C 0.7519(4) -0.1090(2) 0.1116(2)
H2 H 0.7206 -0.1637 0.1509
C3 C 0.8834(4) -0.1336(2) 0.03455(19)
C4 C 0.8831(4) -0.0281(2) -0.00382(17)
C5 C 0.9433(3) 0.0318(2) 0.09264(16)
H3 H 0.8667 0.0920 0.0868
C6 C 0.5703(4) -0.0595(3) 0.0462(3)
H4 H 0.4711 -0.1067 0.0171
H5 H 0.5096 -0.0137 0.0845
C7 C 0.6573(4) -0.0082(3) -0.0336(2)
H6 H 0.6301 0.0605 -0.0340
H7 H 0.6030 -0.0344 -0.0987
C8 C 0.7873(5) -0.2090(3) -0.0436(2)
H8 H 0.8700 -0.2173 -0.0917
H9 H 0.6580 -0.1868 -0.0762
H10 H 0.7745 -0.2694 -0.0115
C9 C 1.0883(4) -0.1735(2) 0.0818(2)
H11 H 1.1584 -0.1271 0.1276
H12 H 1.1627 -0.1863 0.0310
H13 H 1.0725 -0.2323 0.1164
C10 C 1.0001(5) -0.0045(3) -0.08332(19)
H14 H 0.9537 -0.0440 -0.1405
H15 H 1.1390 -0.0169 -0.0584
H16 H 0.9818 0.0623 -0.1013
C11 C 1.2299(4) 0.06954(19) 0.21602(17)
C12 C 1.1070(4) 0.0414(2) 0.29245(16)
H17 H 1.2021 0.0113 0.3466
C13 C 1.0274(4) 0.1304(2) 0.33937(16)
H18 H 1.1365 0.1774 0.3526
C14 C 0.9758(4) 0.10545(19) 0.43942(17)
C15 C 0.7874(4) 0.0815(2) 0.45005(19)
H19 H 0.6837 0.0804 0.3950
C16 C 0.7513(5) 0.0590(3) 0.5430(2)
H20 H 0.6234 0.0426 0.5502
C17 C 0.9045(5) 0.0610(3) 0.6248(2)
H21 H 0.8782 0.0465 0.6868
C18 C 1.0953(5) 0.0840(2) 0.61642(19)
C19 C 1.1313(4) 0.1063(2) 0.52276(17)
H22 H 1.2597 0.1218 0.5155
C20 C 1.2684(6) 0.0843(3) 0.7059(2)
H23 H 1.2657 0.0258 0.7430
H24 H 1.2560 0.1387 0.7473
H25 H 1.3921 0.0884 0.6834
C21 C 0.7297(3) 0.31766(19) 0.37428(17)
C22 C 0.5259(4) 0.3144(2) 0.36645(19)
H26 H 0.4420 0.3061 0.3050
C23 C 0.4489(4) 0.3236(2) 0.4507(2)
H27 H 0.3115 0.3232 0.4453
C24 C 0.5708(4) 0.3337(2) 0.5439(2)
C25 C 0.7748(4) 0.3368(2) 0.54984(19)
H28 H 0.8594 0.3436 0.6113
C26 C 0.8539(4) 0.3301(2) 0.46560(19)
H29 H 0.9910 0.3339 0.4702
C27 C 0.4845(5) 0.3404(3) 0.6363(2)
H30 H 0.3911 0.2888 0.6366
H31 H 0.5898 0.3353 0.6936
H32 H 0.4177 0.4011 0.6374
loop_
_geom_bond_atom_site_label_1
_geom_bond_atom_site_label_2
_geom_bond_site_symmetry_1
_geom_bond_site_symmetry_2
S1 O3 1_555 1_555
O1 C5 1_555 1_555
O2 C11 1_555 1_555
O4 S1 1_555 1_555
N1 C1 1_555 1_555
N2 S1 1_555 1_555
H1 N2 1_555 1_555
C1 C2 1_555 1_555
C2 H2 1_555 1_555
C3 C2 1_555 1_555
C4 C3 1_555 1_555
C5 C1 1_555 1_555
H3 C5 1_555 1_555
C6 C2 1_555 1_555
H4 C6 1_555 1_555
H5 C6 1_555 1_555
C7 C4 1_555 1_555
H6 C7 1_555 1_555
H7 C7 1_555 1_555
C8 C3 1_555 1_555
H8 C8 1_555 1_555
H9 C8 1_555 1_555
H10 C8 1_555 1_555
C9 C3 1_555 1_555
H11 C9 1_555 1_555
H12 C9 1_555 1_555
H13 C9 1_555 1_555
C10 C4 1_555 1_555
H14 C10 1_555 1_555
H15 C10 1_555 1_555
H16 C10 1_555 1_555
C11 O1 1_555 1_555
C12 N1 1_555 1_555
H17 C12 1_555 1_555
C13 N2 1_555 1_555
H18 C13 1_555 1_555
C14 C13 1_555 1_555
C15 C14 1_555 1_555
H19 C15 1_555 1_555
C16 C15 1_555 1_555
H20 C16 1_555 1_555
C17 C16 1_555 1_555
H21 C17 1_555 1_555
C18 C17 1_555 1_555
C19 C14 1_555 1_555
H22 C19 1_555 1_555
C20 C18 1_555 1_555
H23 C20 1_555 1_555
H24 C20 1_555 1_555
H25 C20 1_555 1_555
C21 S1 1_555 1_555
C22 C21 1_555 1_555
H26 C22 1_555 1_555
C23 C22 1_555 1_555
H27 C23 1_555 1_555
C24 C23 1_555 1_555
C25 C24 1_555 1_555
H28 C25 1_555 1_555
C26 C21 1_555 1_555
H29 C26 1_555 1_555
C27 C24 1_555 1_555
H30 C27 1_555 1_555
H31 C27 1_555 1_555
H32 C27 1_555 1_555
C4 C5 1_555 1_555
C6 C7 1_555 1_555
C11 C12 1_555 1_555
C12 C13 1_555 1_555
C18 C19 1_555 1_555
C25 C26 1_555 1_555

#END
