
#######################################################################
#
#                 Cambridge Crystallographic Data Centre
#                                CCDC 
#
#######################################################################
#
# If this CIF has been generated from an entry in the Cambridge 
# Structural Database, then it will include bibliographic, chemical, 
# crystal, experimental, refinement or atomic coordinate data resulting 
# from the CCDC's data processing and validation procedures.
#
#######################################################################

data_XOBZUK01
_chemical_formula_moiety         'C7 H7 N1 O3 S1'
_chemical_name_systematic        (E)-2-Nitro-3-(2-thienyl)prop-2-en-1-ol
_chemical_properties_biological  'Inhibits cell proliferation'
_symmetry_cell_setting           monoclinic
_symmetry_space_group_name_H-M   'P 21/n'
_symmetry_Int_Tables_number      14
_space_group_name_Hall           '-P 2yn'
loop_
_symmetry_equiv_pos_site_id
_symmetry_equiv_pos_as_xyz
1 x,y,z
2 1/2-x,1/2+y,1/2-z
3 -x,-y,-z
4 1/2+x,1/2-y,1/2+z
_cell_length_a                   11.5610(14)
_cell_length_b                   5.1190(9)
_cell_length_c                   13.8900(15)
_cell_angle_alpha                90
_cell_angle_beta                 106.146(9)
_cell_angle_gamma                90
_cell_volume                     789.597
_exptl_crystal_colour            yellow
_exptl_crystal_description       block
_chemical_melting_point          '104-105 deg.C'
_cell_formula_units_Z            4
loop_
_atom_site_label
_atom_site_type_symbol
_atom_site_fract_x
_atom_site_fract_y
_atom_site_fract_z
S1 S 0.16895(12) 0.0403(3) 0.06978(11)
N1 N 0.2794(4) -0.5868(9) -0.1440(3)
O1 O 0.3879(4) -0.6227(9) -0.1290(3)
O2 O 0.2043(4) -0.6988(9) -0.2101(3)
O3 O 0.0515(4) -0.1951(13) -0.1686(4)
H1 H 0.0689 -0.2142 -0.2215
C1 C 0.2390(5) 0.2626(11) 0.1573(4)
H2 H 0.1986 0.3730 0.1901
C2 C 0.3584(5) 0.2618(12) 0.1737(4)
H3 H 0.4095 0.3728 0.2194
C3 C 0.4001(5) 0.0776(10) 0.1158(3)
H4 H 0.4807 0.0522 0.1188
C4 C 0.3041(4) -0.0629(10) 0.0527(4)
C5 C 0.3188(4) -0.2651(10) -0.0141(3)
H5 H 0.3982 -0.3098 -0.0093
C6 C 0.2360(4) -0.3989(10) -0.0822(4)
C7 C 0.0996(6) -0.3931(15) -0.1053(5)
H6 H 0.0669 -0.5580 -0.1353
H7 H 0.0773 -0.3724 -0.0434
loop_
_geom_bond_atom_site_label_1
_geom_bond_atom_site_label_2
_geom_bond_site_symmetry_1
_geom_bond_site_symmetry_2
S1 C1 1_555 1_555
N1 O1 1_555 1_555
O2 N1 1_555 1_555
O3 H1 1_555 1_555
C1 H2 1_555 1_555
C2 C1 1_555 1_555
H3 C2 1_555 1_555
C3 C2 1_555 1_555
H4 C3 1_555 1_555
C4 S1 1_555 1_555
C5 C4 1_555 1_555
H5 C5 1_555 1_555
C6 N1 1_555 1_555
C7 O3 1_555 1_555
H6 C7 1_555 1_555
H7 C7 1_555 1_555
C3 C4 1_555 1_555
C5 C6 1_555 1_555
C6 C7 1_555 1_555

#END
