
#######################################################################
#
#                 Cambridge Crystallographic Data Centre
#                                CCDC 
#
#######################################################################
#
# If this CIF has been generated from an entry in the Cambridge 
# Structural Database, then it will include bibliographic, chemical, 
# crystal, experimental, refinement or atomic coordinate data resulting 
# from the CCDC's data processing and validation procedures.
#
#######################################################################

data_XOCCOK
_chemical_formula_moiety         'C31 H34 B1 F1 S1'
_chemical_name_systematic        
fluoro{2-[methyl(phenyl)sulfaniumyl]phenyl}bis(2,4,6-trimethylphenyl)borate
_symmetry_cell_setting           monoclinic
_symmetry_space_group_name_H-M   'P 21/c'
_symmetry_Int_Tables_number      14
_space_group_name_Hall           '-P 2ybc'
loop_
_symmetry_equiv_pos_site_id
_symmetry_equiv_pos_as_xyz
1 x,y,z
2 -x,1/2+y,1/2-z
3 -x,-y,-z
4 x,1/2-y,1/2+z
_cell_length_a                   8.455(4)
_cell_length_b                   12.819(6)
_cell_length_c                   22.865(10)
_cell_angle_alpha                90
_cell_angle_beta                 90.421(6)
_cell_angle_gamma                90
_cell_volume                     2478.15
_exptl_crystal_colour            colorless
_exptl_crystal_description       block
_cell_formula_units_Z            4
loop_
_atom_site_label
_atom_site_type_symbol
_atom_site_fract_x
_atom_site_fract_y
_atom_site_fract_z
S1 S 0.64959(6) 0.42175(4) 0.44949(2)
F1 F 0.63273(14) 0.62662(9) 0.44183(5)
C1 C 0.8273(2) 0.44762(17) 0.40908(9)
C2 C 0.5650(2) 0.62960(16) 0.33627(9)
C3 C 0.8637(3) 0.79894(17) 0.43284(9)
C4 C 0.8439(2) 0.54589(16) 0.38331(9)
C5 C 0.4469(3) 0.70781(17) 0.33858(9)
C6 C 0.3237(3) 0.71103(17) 0.29823(10)
H1 H 0.246430 0.764431 0.301610
C7 C 0.4209(3) 0.56156(17) 0.25136(9)
H2 H 0.412037 0.509954 0.221694
C8 C 1.1030(3) 0.48264(18) 0.35179(9)
H3 H 1.199418 0.496173 0.332123
C9 C 0.8489(3) 0.79737(17) 0.32840(9)
C10 C 0.9902(3) 0.55959(18) 0.35573(9)
H4 H 1.012504 0.625641 0.338852
C11 C 0.8060(2) 0.75021(16) 0.38175(9)
C12 C 0.5462(2) 0.55542(16) 0.29114(9)
C13 C 0.9600(3) 0.88620(17) 0.42970(10)
H5 H 0.996654 0.916985 0.465086
C14 C 0.9377(3) 0.36855(18) 0.40554(10)
H6 H 0.917918 0.302740 0.423140
C15 C 0.9465(3) 0.88437(17) 0.32710(10)
H7 H 0.973913 0.913334 0.290300
C16 C 0.3093(3) 0.63983(18) 0.25350(10)
C17 C 1.0050(3) 0.93026(18) 0.37729(10)
C18 C 1.0767(3) 0.38620(18) 0.37620(9)
H8 H 1.153533 0.332469 0.372869
C19 C 0.6175(3) 0.28683(17) 0.44041(10)
C20 C 0.6606(3) 0.46736(17) 0.27964(10)
H9 H 0.767301 0.495786 0.274706
H10 H 0.628608 0.430318 0.243975
H11 H 0.660215 0.418864 0.312769
C21 C 0.7936(3) 0.75685(18) 0.26920(9)
H12 H 0.808936 0.681140 0.267519
H13 H 0.854928 0.790269 0.238210
H14 H 0.681136 0.773025 0.263728
C22 C 0.4536(3) 0.79694(18) 0.38150(10)
H15 H 0.494403 0.771707 0.419155
H16 H 0.347221 0.825581 0.386747
H17 H 0.523696 0.851494 0.366505
C23 C 0.7184(3) 0.43446(18) 0.52319(9)
H18 H 0.815806 0.393977 0.528370
H19 H 0.637472 0.408302 0.549925
H20 H 0.739631 0.508088 0.531707
C24 C 0.1770(3) 0.6471(2) 0.20972(11)
H21 H 0.079087 0.621410 0.227326
H22 H 0.202403 0.604639 0.175402
H23 H 0.162928 0.719951 0.197796
C25 C 0.6851(3) 0.21025(18) 0.47501(11)
H24 H 0.754984 0.228098 0.506158
C26 C 0.8274(3) 0.76075(19) 0.49372(10)
H25 H 0.714030 0.768787 0.501212
H26 H 0.887870 0.801670 0.522344
H27 H 0.856526 0.687001 0.497128
C27 C 0.5153(3) 0.2619(2) 0.39495(11)
H28 H 0.468839 0.315397 0.371755
C28 C 1.1135(3) 1.02288(19) 0.37553(11)
H29 H 1.052191 1.086794 0.381615
H30 H 1.165360 1.025952 0.337380
H31 H 1.193781 1.016342 0.406444
B1 B 0.7099(3) 0.6385(2) 0.38422(11)
C29 C 0.6490(3) 0.1072(2) 0.46336(13)
H32 H 0.693565 0.053259 0.486705
C30 C 0.4820(3) 0.1592(2) 0.38382(13)
H33 H 0.412899 0.141041 0.352492
C31 C 0.5481(4) 0.0829(2) 0.41779(14)
H34 H 0.524149 0.011890 0.409848
loop_
_geom_bond_atom_site_label_1
_geom_bond_atom_site_label_2
_geom_bond_site_symmetry_1
_geom_bond_site_symmetry_2
S1 C1 1_555 1_555
F1 B1 1_555 1_555
C1 C4 1_555 1_555
C2 C5 1_555 1_555
C3 C11 1_555 1_555
C4 C10 1_555 1_555
C5 C6 1_555 1_555
C6 H1 1_555 1_555
C7 H2 1_555 1_555
C8 H3 1_555 1_555
C9 C11 1_555 1_555
C10 C8 1_555 1_555
H4 C10 1_555 1_555
C11 B1 1_555 1_555
C12 C2 1_555 1_555
C13 C3 1_555 1_555
H5 C13 1_555 1_555
C14 C1 1_555 1_555
H6 C14 1_555 1_555
C15 C9 1_555 1_555
H7 C15 1_555 1_555
C16 C6 1_555 1_555
C17 C13 1_555 1_555
C18 C8 1_555 1_555
H8 C18 1_555 1_555
C19 S1 1_555 1_555
C20 C12 1_555 1_555
H9 C20 1_555 1_555
H10 C20 1_555 1_555
H11 C20 1_555 1_555
C21 C9 1_555 1_555
H12 C21 1_555 1_555
H13 C21 1_555 1_555
H14 C21 1_555 1_555
C22 C5 1_555 1_555
H15 C22 1_555 1_555
H16 C22 1_555 1_555
H17 C22 1_555 1_555
C23 S1 1_555 1_555
H18 C23 1_555 1_555
H19 C23 1_555 1_555
H20 C23 1_555 1_555
C24 C16 1_555 1_555
H21 C24 1_555 1_555
H22 C24 1_555 1_555
H23 C24 1_555 1_555
C25 C19 1_555 1_555
H24 C25 1_555 1_555
C26 C3 1_555 1_555
H25 C26 1_555 1_555
H26 C26 1_555 1_555
H27 C26 1_555 1_555
C27 C19 1_555 1_555
H28 C27 1_555 1_555
C28 C17 1_555 1_555
H29 C28 1_555 1_555
H30 C28 1_555 1_555
H31 C28 1_555 1_555
B1 C2 1_555 1_555
C29 C25 1_555 1_555
H32 C29 1_555 1_555
C30 C27 1_555 1_555
H33 C30 1_555 1_555
C31 C29 1_555 1_555
H34 C31 1_555 1_555
C4 B1 1_555 1_555
C7 C12 1_555 1_555
C7 C16 1_555 1_555
C14 C18 1_555 1_555
C15 C17 1_555 1_555
C30 C31 1_555 1_555

#END
