
#######################################################################
#
#                 Cambridge Crystallographic Data Centre
#                                CCDC 
#
#######################################################################
#
# If this CIF has been generated from an entry in the Cambridge 
# Structural Database, then it will include bibliographic, chemical, 
# crystal, experimental, refinement or atomic coordinate data resulting 
# from the CCDC's data processing and validation procedures.
#
#######################################################################

data_XOCVIV
_chemical_formula_moiety         'C23 H19 N1 O3'
_chemical_name_systematic        
3-Phenoxy-4-phenoxymethylene-1-(4-tolyl)azetidin-2-one
_symmetry_cell_setting           triclinic
_symmetry_space_group_name_H-M   'P -1'
_symmetry_Int_Tables_number      2
_space_group_name_Hall           '-P 1'
loop_
_symmetry_equiv_pos_site_id
_symmetry_equiv_pos_as_xyz
1 x,y,z
2 -x,-y,-z
_cell_length_a                   6.7674(8)
_cell_length_b                   11.3499(13)
_cell_length_c                   13.1617(15)
_cell_angle_alpha                104.469(2)
_cell_angle_beta                 91.025(2)
_cell_angle_gamma                105.824(2)
_cell_volume                     937.758
_exptl_crystal_colour            colorless
_exptl_crystal_description       prismatic
_cell_formula_units_Z            2
loop_
_atom_site_label
_atom_site_type_symbol
_atom_site_fract_x
_atom_site_fract_y
_atom_site_fract_z
O1 O 1.2585(2) 1.10960(16) 0.04876(12)
O2 O 1.0400(2) 1.27106(13) 0.21721(12)
O3 O 0.8527(2) 0.94010(16) 0.35017(12)
N1 N 1.0800(2) 0.99434(16) 0.16120(12)
C1 C 1.1321(3) 1.0882(2) 0.10923(15)
C2 C 0.9629(3) 1.14480(19) 0.15730(16)
H1 H 0.8479 1.1320 0.1056
C3 C 0.9263(3) 1.04331(19) 0.21558(15)
C4 C 0.8204(3) 1.0217(2) 0.29528(16)
H2 H 0.7205 1.0632 0.3148
C5 C 0.6933(3) 0.88313(19) 0.40232(15)
C6 C 0.7534(4) 0.8454(2) 0.48637(18)
H3 H 0.8927 0.8613 0.5065
C7 C 0.6051(4) 0.7838(2) 0.54042(19)
H4 H 0.6442 0.7588 0.5980
C8 C 0.4006(4) 0.7591(2) 0.5099(2)
H5 H 0.3006 0.7154 0.5453
C9 C 0.3442(4) 0.7987(3) 0.4274(2)
H6 H 0.2049 0.7840 0.4081
C10 C 0.4905(3) 0.8605(2) 0.37184(17)
H7 H 0.4510 0.8861 0.3147
C11 C 0.9023(3) 1.33856(18) 0.25370(15)
C12 C 0.6994(3) 1.3054(2) 0.21359(18)
H8 H 0.6443 1.2314 0.1601
C13 C 0.5791(3) 1.3832(2) 0.2538(2)
H9 H 0.4427 1.3618 0.2261
C14 C 0.6567(4) 1.4914(2) 0.3335(2)
H10 H 0.5742 1.5435 0.3597
C15 C 0.8572(4) 1.5222(2) 0.3744(2)
H11 H 0.9105 1.5949 0.4294
C16 C 0.9806(3) 1.4459(2) 0.33449(18)
H12 H 1.1169 1.4674 0.3624
C17 C 1.1302(3) 0.87810(19) 0.14486(14)
C18 C 1.3153(3) 0.8694(2) 0.10417(16)
H13 H 1.4059 0.9391 0.0886
C19 C 1.3626(4) 0.7559(3) 0.08722(17)
H14 H 1.4859 0.7497 0.0595
C20 C 1.2319(4) 0.6510(3) 0.11030(18)
C21 C 1.0482(4) 0.6622(2) 0.14932(19)
H15 H 0.9583 0.5926 0.1653
C22 C 0.9940(3) 0.7735(2) 0.16526(18)
H16 H 0.8673 0.7780 0.1895
C23 C 1.2889(6) 0.5286(3) 0.0957(3)
H17 H 1.1807 0.4675 0.1168
H18 H 1.4149 0.5441 0.1381
H19 H 1.3074 0.4964 0.0229
loop_
_geom_bond_atom_site_label_1
_geom_bond_atom_site_label_2
_geom_bond_site_symmetry_1
_geom_bond_site_symmetry_2
O1 C1 1_555 1_555
O2 C2 1_555 1_555
O3 C4 1_555 1_555
N1 C1 1_555 1_555
C1 C2 1_555 1_555
C2 H1 1_555 1_555
C3 N1 1_555 1_555
C4 C3 1_555 1_555
H2 C4 1_555 1_555
C5 O3 1_555 1_555
C6 C5 1_555 1_555
H3 C6 1_555 1_555
C7 C6 1_555 1_555
H4 C7 1_555 1_555
C8 C7 1_555 1_555
H5 C8 1_555 1_555
C9 C8 1_555 1_555
H6 C9 1_555 1_555
C10 C5 1_555 1_555
H7 C10 1_555 1_555
C11 O2 1_555 1_555
C12 C11 1_555 1_555
H8 C12 1_555 1_555
C13 C12 1_555 1_555
H9 C13 1_555 1_555
C14 C13 1_555 1_555
H10 C14 1_555 1_555
C15 C14 1_555 1_555
H11 C15 1_555 1_555
C16 C11 1_555 1_555
H12 C16 1_555 1_555
C17 N1 1_555 1_555
C18 C17 1_555 1_555
H13 C18 1_555 1_555
C19 C18 1_555 1_555
H14 C19 1_555 1_555
C20 C19 1_555 1_555
C21 C20 1_555 1_555
H15 C21 1_555 1_555
C22 C17 1_555 1_555
H16 C22 1_555 1_555
C23 C20 1_555 1_555
H17 C23 1_555 1_555
H18 C23 1_555 1_555
H19 C23 1_555 1_555
C2 C3 1_555 1_555
C9 C10 1_555 1_555
C15 C16 1_555 1_555
C21 C22 1_555 1_555

#END
