
#######################################################################
#
#                 Cambridge Crystallographic Data Centre
#                                CCDC 
#
#######################################################################
#
# If this CIF has been generated from an entry in the Cambridge 
# Structural Database, then it will include bibliographic, chemical, 
# crystal, experimental, refinement or atomic coordinate data resulting 
# from the CCDC's data processing and validation procedures.
#
#######################################################################

data_XODCUQ
_chemical_formula_moiety         'C29 H22 N2 O2 S1'
_chemical_name_systematic        
6-((4-Methylphenyl)sulfonyl)-1-phenyl-1a,6-dihydro-1H-cyclopropa[c]indolo[2,3-b]quinoline
_symmetry_cell_setting           orthorhombic
_symmetry_space_group_name_H-M   'P b c a'
_symmetry_Int_Tables_number      61
_space_group_name_Hall           '-P 2ac 2ab'
loop_
_symmetry_equiv_pos_site_id
_symmetry_equiv_pos_as_xyz
1 x,y,z
2 1/2-x,-y,1/2+z
3 1/2+x,1/2-y,-z
4 -x,1/2+y,1/2-z
5 -x,-y,-z
6 1/2+x,y,1/2-z
7 1/2-x,1/2+y,z
8 x,1/2-y,1/2+z
_cell_length_a                   19.6725(12)
_cell_length_b                   18.2791(11)
_cell_length_c                   12.5149(7)
_cell_angle_alpha                90
_cell_angle_beta                 90
_cell_angle_gamma                90
_cell_volume                     4500.3
_exptl_crystal_colour            colorless
_exptl_crystal_description       block
_cell_formula_units_Z            8
loop_
_atom_site_label
_atom_site_type_symbol
_atom_site_fract_x
_atom_site_fract_y
_atom_site_fract_z
S1 S 0.12175(2) 0.07781(2) 0.40953(2)
O1 O 0.13728(5) 0.13385(5) 0.33409(7)
O2 O 0.06999(5) 0.02530(5) 0.38634(7)
N1 N 0.27323(6) 0.13000(6) 0.41641(8)
N2 N 0.19425(5) 0.03069(6) 0.42730(8)
C1 C 0.25668(6) 0.06310(7) 0.39885(9)
C2 C 0.14575(7) 0.17150(7) 0.57720(10)
C3 C 0.19642(6) -0.04249(6) 0.47131(9)
C4 C 0.10286(6) 0.11824(6) 0.53428(9)
C5 C 0.30933(7) -0.06380(7) 0.37823(10)
C6 C 0.04454(7) 0.09609(7) 0.58789(10)
C7 C 0.31013(6) 0.01759(7) 0.34948(9)
C8 C 0.02976(7) 0.12657(7) 0.68665(10)
C9 C 0.38296(7) 0.19743(8) 0.38764(11)
C10 C 0.14553(7) -0.06779(7) 0.53957(10)
C11 C 0.47705(7) 0.12342(8) 0.32161(10)
C12 C 0.22565(7) -0.05070(7) 0.21608(9)
C13 C 0.15098(8) -0.13656(7) 0.58714(10)
C14 C 0.29408(7) -0.04087(7) 0.26569(10)
C15 C 0.25311(7) -0.08699(7) 0.44988(9)
C16 C 0.34220(7) 0.13580(7) 0.38174(10)
C17 C 0.12962(7) 0.20182(7) 0.67607(10)
C18 C 0.07200(7) 0.17919(7) 0.73267(10)
C19 C 0.13409(7) -0.13061(8) 0.16179(11)
C20 C 0.13013(7) -0.00314(9) 0.11659(10)
C21 C 0.20696(8) -0.18033(7) 0.56734(10)
C22 C 0.05512(8) 0.21121(8) 0.84041(11)
C23 C 0.25748(7) -0.15543(7) 0.49894(10)
C24 C 0.19226(7) 0.00782(8) 0.16782(9)
C25 C 0.43549(7) 0.06187(8) 0.31434(10)
C26 C 0.45105(7) 0.18999(8) 0.35797(11)
C27 C 0.19577(7) -0.12005(7) 0.21329(10)
C28 C 0.10151(8) -0.07247(9) 0.11280(11)
C29 C 0.36809(6) 0.06860(7) 0.34515(10)
H1 H 0.5252(9) 0.1187(8) 0.2992(12)
H2 H 0.4539(8) 0.0153(9) 0.2895(12)
H3 H 0.4829(9) 0.2324(9) 0.3652(13)
H4 H 0.3653(8) 0.2451(10) 0.4122(12)
H5 H 0.3513(9) -0.0874(9) 0.3899(13)
H6 H 0.3313(9) -0.0483(9) 0.2171(13)
H7 H 0.1890(8) 0.1843(9) 0.5403(12)
H8 H 0.1588(8) 0.2391(8) 0.7070(11)
H9 H -0.0115(9) 0.1110(9) 0.7254(13)
H10 H 0.0145(9) 0.0619(9) 0.5594(13)
H11 H 0.0238(11) 0.2505(10) 0.8333(14)
H12 H 0.0928(12) 0.2311(11) 0.8756(17)
H13 H 0.0377(11) 0.1760(11) 0.8867(16)
H14 H 0.1070(9) -0.0373(9) 0.5556(13)
H15 H 0.1161(8) -0.1501(8) 0.6326(12)
H16 H 0.2126(8) -0.2276(9) 0.5976(12)
H17 H 0.2994(8) -0.1869(8) 0.4820(12)
H18 H 0.2176(8) -0.1601(8) 0.2478(12)
H19 H 0.2117(9) 0.0553(9) 0.1738(12)
H20 H 0.1071(9) 0.0388(10) 0.0846(13)
H21 H 0.1143(10) -0.1805(11) 0.1540(15)
H22 H 0.0614(10) -0.0776(9) 0.0760(14)
loop_
_geom_bond_atom_site_label_1
_geom_bond_atom_site_label_2
_geom_bond_site_symmetry_1
_geom_bond_site_symmetry_2
S1 O1 1_555 1_555
O2 S1 1_555 1_555
N1 C1 1_555 1_555
N2 S1 1_555 1_555
C1 N2 1_555 1_555
C2 C4 1_555 1_555
C3 N2 1_555 1_555
C4 S1 1_555 1_555
C5 C7 1_555 1_555
C6 C4 1_555 1_555
C7 C1 1_555 1_555
C8 C6 1_555 1_555
C9 C16 1_555 1_555
C10 C3 1_555 1_555
C11 C25 1_555 1_555
C12 C14 1_555 1_555
C13 C10 1_555 1_555
C14 C5 1_555 1_555
C15 C3 1_555 1_555
C16 N1 1_555 1_555
C17 C2 1_555 1_555
C18 C8 1_555 1_555
C19 C27 1_555 1_555
C20 C24 1_555 1_555
C21 C13 1_555 1_555
C22 C18 1_555 1_555
C23 C15 1_555 1_555
C24 C12 1_555 1_555
C25 C29 1_555 1_555
C26 C9 1_555 1_555
C27 C12 1_555 1_555
C28 C19 1_555 1_555
C29 C7 1_555 1_555
H1 C11 1_555 1_555
H2 C25 1_555 1_555
H3 C26 1_555 1_555
H4 C9 1_555 1_555
H5 C5 1_555 1_555
H6 C14 1_555 1_555
H7 C2 1_555 1_555
H8 C17 1_555 1_555
H9 C8 1_555 1_555
H10 C6 1_555 1_555
H11 C22 1_555 1_555
H12 C22 1_555 1_555
H13 C22 1_555 1_555
H14 C10 1_555 1_555
H15 C13 1_555 1_555
H16 C21 1_555 1_555
H17 C23 1_555 1_555
H18 C27 1_555 1_555
H19 C24 1_555 1_555
H20 C20 1_555 1_555
H21 C19 1_555 1_555
H22 C28 1_555 1_555
C5 C15 1_555 1_555
C7 C14 1_555 1_555
C11 C26 1_555 1_555
C16 C29 1_555 1_555
C17 C18 1_555 1_555
C20 C28 1_555 1_555
C21 C23 1_555 1_555

#END
