
#######################################################################
#
#                 Cambridge Crystallographic Data Centre
#                                CCDC 
#
#######################################################################
#
# If this CIF has been generated from an entry in the Cambridge 
# Structural Database, then it will include bibliographic, chemical, 
# crystal, experimental, refinement or atomic coordinate data resulting 
# from the CCDC's data processing and validation procedures.
#
#######################################################################

data_XODTIV
_chemical_formula_moiety         'C20 H28 O4'
_chemical_name_systematic        
11-hydroxy-8,14:12,16-diepoxyabiet-13(15)-en-16-one
_symmetry_cell_setting           orthorhombic
_symmetry_space_group_name_H-M   'P 21 21 21'
_symmetry_Int_Tables_number      19
_space_group_name_Hall           'P 2ac 2ab'
loop_
_symmetry_equiv_pos_site_id
_symmetry_equiv_pos_as_xyz
1 x,y,z
2 1/2-x,-y,1/2+z
3 -x,1/2+y,1/2-z
4 1/2+x,1/2-y,-z
_cell_length_a                   6.6555(11)
_cell_length_b                   12.668(2)
_cell_length_c                   21.444(4)
_cell_angle_alpha                90
_cell_angle_beta                 90
_cell_angle_gamma                90
_cell_volume                     1807.98
_exptl_crystal_colour            colorless
_exptl_crystal_description       prismatic
_cell_formula_units_Z            4
loop_
_atom_site_label
_atom_site_type_symbol
_atom_site_fract_x
_atom_site_fract_y
_atom_site_fract_z
O1 O 0.4860(5) 0.1191(2) -0.03891(12)
O2 O 0.1134(5) 0.0109(3) -0.04062(14)
H1 H 0.2008 0.0443 -0.0589
O3 O 0.3957(7) -0.2950(3) -0.09748(16)
O4 O 0.2780(6) -0.1955(2) -0.01901(15)
C1 C 0.0465(8) 0.0590(4) 0.1478(2)
H2 H -0.0428 0.1018 0.1225
H3 H 0.0137 -0.0145 0.1402
C2 C 0.0090(9) 0.0836(4) 0.2160(2)
H4 H 0.0918 0.0382 0.2418
H5 H -0.1306 0.0696 0.2261
C3 C 0.0573(8) 0.1985(4) 0.2303(2)
H6 H 0.0317 0.2117 0.2741
H7 H -0.0327 0.2432 0.2064
C4 C 0.2739(8) 0.2299(4) 0.2155(2)
C5 C 0.3242(7) 0.1938(3) 0.14814(19)
H8 H 0.2446 0.2404 0.1213
C6 C 0.5444(7) 0.2153(4) 0.1291(2)
H9 H 0.5846 0.2846 0.1437
H10 H 0.6317 0.1633 0.1483
C7 C 0.5667(7) 0.2099(3) 0.0585(2)
H11 H 0.5044 0.2719 0.0404
H12 H 0.7085 0.2119 0.0482
C8 C 0.4749(7) 0.1130(3) 0.02936(18)
C9 C 0.2716(6) 0.0798(3) 0.05374(18)
H13 H 0.1820 0.1378 0.0418
C10 C 0.2640(7) 0.0792(3) 0.12720(19)
C11 C 0.1841(6) -0.0181(3) 0.01949(19)
H14 H 0.0710 -0.0456 0.0438
C12 C 0.3447(7) -0.1041(3) 0.0145(2)
H15 H 0.3853 -0.1254 0.0566
C13 C 0.5225(7) -0.0675(3) -0.01966(18)
C14 C 0.6030(6) 0.0394(3) -0.00621(18)
H16 H 0.7491 0.0483 -0.0039
C15 C 0.5720(7) -0.1349(3) -0.06581(19)
C16 C 0.4145(8) -0.2181(3) -0.0644(2)
C17 C 0.7350(9) -0.1353(5) -0.1119(2)
H17 H 0.6948 -0.0953 -0.1478
H18 H 0.7635 -0.2067 -0.1241
H19 H 0.8531 -0.1043 -0.0940
C18 C 0.4039(8) -0.0061(4) 0.1545(2)
H20 H 0.4259 0.0077 0.1980
H21 H 0.5301 -0.0049 0.1328
H22 H 0.3427 -0.0742 0.1496
C19 C 0.4162(8) 0.1877(5) 0.2664(2)
H23 H 0.3938 0.2257 0.3045
H24 H 0.5530 0.1971 0.2534
H25 H 0.3906 0.1140 0.2731
C20 C 0.2856(10) 0.3506(4) 0.2184(3)
H26 H 0.1987 0.3803 0.1873
H27 H 0.4213 0.3728 0.2108
H28 H 0.2441 0.3742 0.2590
loop_
_geom_bond_atom_site_label_1
_geom_bond_atom_site_label_2
_geom_bond_site_symmetry_1
_geom_bond_site_symmetry_2
O1 C8 1_555 1_555
O2 H1 1_555 1_555
O3 C16 1_555 1_555
O4 C12 1_555 1_555
C1 H2 1_555 1_555
H3 C1 1_555 1_555
C2 C1 1_555 1_555
H4 C2 1_555 1_555
H5 C2 1_555 1_555
C3 C2 1_555 1_555
H6 C3 1_555 1_555
H7 C3 1_555 1_555
C4 C3 1_555 1_555
C5 C4 1_555 1_555
H8 C5 1_555 1_555
C6 C5 1_555 1_555
H9 C6 1_555 1_555
H10 C6 1_555 1_555
C7 C6 1_555 1_555
H11 C7 1_555 1_555
H12 C7 1_555 1_555
C8 C7 1_555 1_555
C9 C8 1_555 1_555
H13 C9 1_555 1_555
C10 C1 1_555 1_555
C11 O2 1_555 1_555
H14 C11 1_555 1_555
C12 C11 1_555 1_555
H15 C12 1_555 1_555
C13 C12 1_555 1_555
C14 O1 1_555 1_555
H16 C14 1_555 1_555
C15 C13 1_555 1_555
C16 O4 1_555 1_555
C17 C15 1_555 1_555
H17 C17 1_555 1_555
H18 C17 1_555 1_555
H19 C17 1_555 1_555
C18 C10 1_555 1_555
H20 C18 1_555 1_555
H21 C18 1_555 1_555
H22 C18 1_555 1_555
C19 C4 1_555 1_555
H23 C19 1_555 1_555
H24 C19 1_555 1_555
H25 C19 1_555 1_555
C20 C4 1_555 1_555
H26 C20 1_555 1_555
H27 C20 1_555 1_555
H28 C20 1_555 1_555
C5 C10 1_555 1_555
C8 C14 1_555 1_555
C9 C10 1_555 1_555
C9 C11 1_555 1_555
C13 C14 1_555 1_555
C15 C16 1_555 1_555

#END
