
#######################################################################
#
#                 Cambridge Crystallographic Data Centre
#                                CCDC 
#
#######################################################################
#
# If this CIF has been generated from an entry in the Cambridge 
# Structural Database, then it will include bibliographic, chemical, 
# crystal, experimental, refinement or atomic coordinate data resulting 
# from the CCDC's data processing and validation procedures.
#
#######################################################################

data_XOGWOH
_chemical_formula_moiety         'C25 H23 N1 O3 S1'
_chemical_name_systematic        
4-methyl-N-(2-(2-oxo-2-phenylethyl)-1,2-dihydronaphthalen-1-yl)benzenesulfonamide
_symmetry_cell_setting           triclinic
_symmetry_space_group_name_H-M   'P 1'
_symmetry_Int_Tables_number      1
_space_group_name_Hall           'P 1'
loop_
_symmetry_equiv_pos_site_id
_symmetry_equiv_pos_as_xyz
1 x,y,z
_cell_length_a                   9.812(3)
_cell_length_b                   10.110(3)
_cell_length_c                   11.039(3)
_cell_angle_alpha                90.700(13)
_cell_angle_beta                 109.487(7)
_cell_angle_gamma                91.427(8)
_cell_volume                     1031.77
_exptl_crystal_colour            colorless
_exptl_crystal_description       needle
_cell_formula_units_Z            2
loop_
_atom_site_label
_atom_site_type_symbol
_atom_site_fract_x
_atom_site_fract_y
_atom_site_fract_z
S1 S 0.89610(9) 0.68109(7) 0.17500(7)
O1 O 0.6433(3) 0.4249(3) -0.1545(3)
O2 O 1.0180(3) 0.7574(3) 0.2606(3)
O3 O 0.7674(3) 0.6640(3) 0.2029(3)
N1 N 0.9603(4) 0.5368(3) 0.1641(3)
C1 C 0.8684(5) 0.4171(4) 0.1166(4)
H1 H 0.7651 0.4430 0.0799
C2 C 0.8840(4) 0.3213(4) 0.2272(4)
C3 C 0.9208(4) 0.3646(4) 0.3529(4)
H2 H 0.9329 0.4568 0.3722
C4 C 0.9406(4) 0.2760(4) 0.4523(4)
H3 H 0.9671 0.3072 0.5389
C5 C 0.9210(5) 0.1411(5) 0.4231(5)
H4 H 0.9355 0.0794 0.4901
C6 C 0.8806(5) 0.0970(4) 0.2975(5)
H5 H 0.8657 0.0047 0.2786
C7 C 0.8614(4) 0.1841(4) 0.1980(4)
C8 C 0.8191(4) 0.1382(4) 0.0640(4)
H6 H 0.7770 0.0519 0.0408
C9 C 0.8388(5) 0.2152(4) -0.0255(4)
H7 H 0.8053 0.1855 -0.1128
C10 C 0.9136(4) 0.3498(4) 0.0094(4)
H8 H 1.0192 0.3330 0.0485
C11 C 0.8976(4) 0.4329(4) -0.1089(4)
H9 H 0.9517 0.5180 -0.0803
H10 H 0.9433 0.3862 -0.1640
C12 C 0.7456(4) 0.4619(4) -0.1886(4)
C13 C 0.7199(4) 0.5376(4) -0.3096(4)
C14 C 0.8298(5) 0.5702(4) -0.3580(4)
H11 H 0.9267 0.5483 -0.3117
C15 C 0.7983(5) 0.6348(4) -0.4743(4)
H12 H 0.8734 0.6556 -0.5080
C16 C 0.6584(5) 0.6687(4) -0.5406(4)
H13 H 0.6372 0.7119 -0.6204
C17 C 0.5490(5) 0.6401(4) -0.4919(4)
H14 H 0.4531 0.6658 -0.5367
C18 C 0.5797(5) 0.5734(4) -0.3765(4)
H15 H 0.5041 0.5523 -0.3435
C19 C 0.8511(4) 0.7565(3) 0.0233(4)
C20 C 0.9632(5) 0.7882(4) -0.0227(4)
H16 H 1.0598 0.7660 0.0240
C21 C 0.9305(5) 0.8533(4) -0.1390(4)
H17 H 1.0061 0.8753 -0.1717
C22 C 0.7912(5) 0.8864(4) -0.2076(4)
C23 C 0.6817(5) 0.8532(4) -0.1606(4)
H18 H 0.5852 0.8751 -0.2080
C24 C 0.7104(4) 0.7875(4) -0.0442(4)
H19 H 0.6343 0.7649 -0.0123
C25 C 0.7623(7) 0.9605(5) -0.3316(5)
H20 H 0.8093 0.9163 -0.3859
H21 H 0.8012 1.0515 -0.3121
H22 H 0.6579 0.9618 -0.3770
H23 H 1.057(5) 0.538(4) 0.174(4)
S2 S 0.26972(9) 0.21601(7) -0.16410(7)
O4 O 0.2474(3) 0.4870(3) 0.1554(3)
O5 O 0.1216(3) 0.2431(3) -0.2141(2)
O6 O 0.3359(4) 0.1347(3) -0.2363(3)
N2 N 0.3648(4) 0.3536(3) -0.1362(3)
C26 C 0.3127(4) 0.4788(4) -0.1017(4)
H24 H 0.2262 0.4591 -0.0755
C27 C 0.2691(4) 0.5741(4) -0.2144(4)
C28 C 0.2269(4) 0.5284(4) -0.3420(4)
H25 H 0.2234 0.4361 -0.3605
C29 C 0.1899(4) 0.6177(4) -0.4423(4)
H26 H 0.1626 0.5858 -0.5287
C30 C 0.1924(5) 0.7510(4) -0.4176(4)
H27 H 0.1661 0.8110 -0.4865
C31 C 0.2338(4) 0.7986(4) -0.2907(4)
H28 H 0.2355 0.8910 -0.2732
C32 C 0.2731(4) 0.7093(4) -0.1888(4)
C33 C 0.3199(4) 0.7577(3) -0.0543(4)
H29 H 0.2971 0.8446 -0.0352
C34 C 0.3933(4) 0.6813(4) 0.0402(4)
H30 H 0.4212 0.7140 0.1264
C35 C 0.4335(4) 0.5441(3) 0.0147(3)
H31 H 0.5209 0.5544 -0.0122
C36 C 0.4795(4) 0.4608(4) 0.1375(4)
H32 H 0.5107 0.3739 0.1157
H33 H 0.5646 0.5056 0.2013
C37 C 0.3687(4) 0.4371(4) 0.1987(4)
C38 C 0.4070(4) 0.3587(4) 0.3176(4)
C39 C 0.2990(4) 0.3236(4) 0.3698(4)
H34 H 0.2019 0.3477 0.3276
C40 C 0.3341(5) 0.2544(4) 0.4823(4)
H35 H 0.2604 0.2300 0.5165
C41 C 0.4747(5) 0.2201(4) 0.5458(4)
H36 H 0.4981 0.1742 0.6244
C42 C 0.5823(5) 0.2534(4) 0.4939(4)
H37 H 0.6793 0.2295 0.5369
C43 C 0.5483(4) 0.3203(4) 0.3810(4)
H38 H 0.6219 0.3409 0.3454
C44 C 0.3002(4) 0.1389(3) -0.0143(4)
C45 C 0.1847(4) 0.1075(4) 0.0257(4)
H39 H 0.0898 0.1315 -0.0242
C46 C 0.2079(5) 0.0406(4) 0.1392(4)
H40 H 0.1283 0.0197 0.1671
C47 C 0.3457(5) 0.0038(4) 0.2131(4)
C48 C 0.4606(5) 0.0377(4) 0.1707(4)
H41 H 0.5557 0.0139 0.2205
C49 C 0.4394(5) 0.1048(4) 0.0585(4)
H42 H 0.5189 0.1274 0.0311
C50 C 0.3679(6) -0.0733(5) 0.3340(4)
H43 H 0.4701 -0.0946 0.3717
H44 H 0.3088 -0.1554 0.3132
H45 H 0.3392 -0.0200 0.3957
H46 H 0.464(6) 0.341(5) -0.156(5)
loop_
_geom_bond_atom_site_label_1
_geom_bond_atom_site_label_2
_geom_bond_site_symmetry_1
_geom_bond_site_symmetry_2
S1 O2 1_555 1_555
O1 C12 1_555 1_555
O3 S1 1_555 1_555
N1 S1 1_555 1_555
C1 N1 1_555 1_555
H1 C1 1_555 1_555
C2 C1 1_555 1_555
C3 C2 1_555 1_555
H2 C3 1_555 1_555
C4 C3 1_555 1_555
H3 C4 1_555 1_555
C5 C4 1_555 1_555
H4 C5 1_555 1_555
C6 C5 1_555 1_555
H5 C6 1_555 1_555
C7 C2 1_555 1_555
C8 C7 1_555 1_555
H6 C8 1_555 1_555
C9 C8 1_555 1_555
H7 C9 1_555 1_555
C10 C1 1_555 1_555
H8 C10 1_555 1_555
C11 C10 1_555 1_555
H9 C11 1_555 1_555
H10 C11 1_555 1_555
C12 C11 1_555 1_555
C13 C12 1_555 1_555
C14 C13 1_555 1_555
H11 C14 1_555 1_555
C15 C14 1_555 1_555
H12 C15 1_555 1_555
C16 C15 1_555 1_555
H13 C16 1_555 1_555
C17 C16 1_555 1_555
H14 C17 1_555 1_555
C18 C13 1_555 1_555
H15 C18 1_555 1_555
C19 S1 1_555 1_555
C20 C19 1_555 1_555
H16 C20 1_555 1_555
C21 C20 1_555 1_555
H17 C21 1_555 1_555
C22 C21 1_555 1_555
C23 C22 1_555 1_555
H18 C23 1_555 1_555
C24 C19 1_555 1_555
H19 C24 1_555 1_555
C25 C22 1_555 1_555
H20 C25 1_555 1_555
H21 C25 1_555 1_555
H22 C25 1_555 1_555
H23 N1 1_555 1_555
S2 O5 1_555 1_555
O4 C37 1_555 1_555
O6 S2 1_555 1_555
N2 S2 1_555 1_555
C26 N2 1_555 1_555
H24 C26 1_555 1_555
C27 C26 1_555 1_555
C28 C27 1_555 1_555
H25 C28 1_555 1_555
C29 C28 1_555 1_555
H26 C29 1_555 1_555
C30 C29 1_555 1_555
H27 C30 1_555 1_555
C31 C30 1_555 1_555
H28 C31 1_555 1_555
C32 C27 1_555 1_555
C33 C32 1_555 1_555
H29 C33 1_555 1_555
C34 C33 1_555 1_555
H30 C34 1_555 1_555
C35 C26 1_555 1_555
H31 C35 1_555 1_555
C36 C35 1_555 1_555
H32 C36 1_555 1_555
H33 C36 1_555 1_555
C37 C36 1_555 1_555
C38 C37 1_555 1_555
C39 C38 1_555 1_555
H34 C39 1_555 1_555
C40 C39 1_555 1_555
H35 C40 1_555 1_555
C41 C40 1_555 1_555
H36 C41 1_555 1_555
C42 C41 1_555 1_555
H37 C42 1_555 1_555
C43 C38 1_555 1_555
H38 C43 1_555 1_555
C44 S2 1_555 1_555
C45 C44 1_555 1_555
H39 C45 1_555 1_555
C46 C45 1_555 1_555
H40 C46 1_555 1_555
C47 C46 1_555 1_555
C48 C47 1_555 1_555
H41 C48 1_555 1_555
C49 C44 1_555 1_555
H42 C49 1_555 1_555
C50 C47 1_555 1_555
H43 C50 1_555 1_555
H44 C50 1_555 1_555
H45 C50 1_555 1_555
H46 N2 1_555 1_555
C6 C7 1_555 1_555
C9 C10 1_555 1_555
C17 C18 1_555 1_555
C23 C24 1_555 1_555
C31 C32 1_555 1_555
C34 C35 1_555 1_555
C42 C43 1_555 1_555
C48 C49 1_555 1_555

#END
