
#######################################################################
#
#                 Cambridge Crystallographic Data Centre
#                                CCDC 
#
#######################################################################
#
# If this CIF has been generated from an entry in the Cambridge 
# Structural Database, then it will include bibliographic, chemical, 
# crystal, experimental, refinement or atomic coordinate data resulting 
# from the CCDC's data processing and validation procedures.
#
#######################################################################

data_XOHHIL
_chemical_formula_moiety         'H4 N1 1+,C18 H14 O3 P1 S1 1-,0.5(H2 O1)'
_chemical_name_systematic        
'Ammonium diphenyl(3-sulfonatophenyl)phosphine hemihydrate'
_symmetry_cell_setting           triclinic
_symmetry_space_group_name_H-M   'P -1'
_symmetry_Int_Tables_number      2
_space_group_name_Hall           '-P 1'
loop_
_symmetry_equiv_pos_site_id
_symmetry_equiv_pos_as_xyz
1 x,y,z
2 -x,-y,-z
_cell_length_a                   10.3921(14)
_cell_length_b                   15.015(2)
_cell_length_c                   23.905(3)
_cell_angle_alpha                77.543(3)
_cell_angle_beta                 85.539(2)
_cell_angle_gamma                89.997(3)
_cell_volume                     3630.69
_exptl_crystal_colour            colorless
_exptl_crystal_description       prism
_cell_formula_units_Z            8
_chemical_properties_physical    air-sensitive
loop_
_atom_site_label
_atom_site_type_symbol
_atom_site_fract_x
_atom_site_fract_y
_atom_site_fract_z
P1 P -0.0148(2) 0.0457(2) 0.2900(1)
S4 S 0.2138(2) 0.0126(2) 0.0761(1)
O10 O 0.3511(5) -0.0102(4) 0.0789(2)
O11 O 0.1939(5) 0.1105(4) 0.0682(2)
O12 O 0.1546(5) -0.0272(4) 0.0342(2)
C55 C 0.1167(7) 0.0224(6) 0.3367(3)
C56 C 0.1024(7) 0.0188(6) 0.1828(3)
C57 C 0.0326(7) -0.0190(6) 0.2354(3)
C58 C 0.2400(7) -0.0051(5) 0.3197(3)
C59 C 0.1345(6) -0.0369(6) 0.1439(3)
C60 C 0.0936(8) 0.0347(6) 0.3929(3)
C61 C -0.0031(7) -0.1098(6) 0.2464(3)
C62 C 0.3356(8) -0.0202(6) 0.3574(3)
C63 C 0.0214(7) 0.1623(6) 0.2507(3)
C64 C 0.1021(7) -0.1283(6) 0.1569(3)
C65 C 0.0319(7) -0.1664(6) 0.2080(3)
C66 C -0.0399(9) 0.2882(7) 0.1768(4)
C67 C 0.1169(8) 0.2190(6) 0.2629(3)
C68 C 0.1921(8) 0.0209(6) 0.4307(3)
C69 C 0.3114(8) -0.0056(6) 0.4136(3)
C70 C -0.0601(8) 0.2005(7) 0.2077(3)
C71 C 0.0563(9) 0.3426(7) 0.1886(4)
C72 C 0.1342(9) 0.3082(7) 0.2311(4)
H43 H 0.1270 0.0801 0.1739
H44 H 0.2574 -0.0134 0.2825
H45 H 0.0123 0.0521 0.4054
H46 H -0.0521 -0.1346 0.2805
H47 H 0.4161 -0.0399 0.3458
H48 H 0.1275 -0.1647 0.1311
H49 H 0.0085 -0.2279 0.2168
H50 H -0.0922 0.3112 0.1474
H51 H 0.1693 0.1972 0.2925
H52 H 0.1758 0.0301 0.4678
H53 H 0.3764 -0.0141 0.4388
H54 H -0.1283 0.1658 0.2002
H55 H 0.0681 0.4023 0.1678
H56 H 0.1998 0.3447 0.2389
P2 P 0.2236(2) 0.5469(2) 0.3268(1)
S1 S 0.1219(2) 0.6301(2) 0.0994(1)
O1 O 0.1877(5) 0.5508(4) 0.0864(2)
O2 O 0.0084(5) 0.6530(4) 0.0654(2)
O3 O 0.2072(5) 0.7062(4) 0.0941(2)
C1 C 0.1042(6) 0.5563(5) 0.2731(3)
C2 C 0.0620(7) 0.5970(6) 0.1729(3)
C3 C 0.0765(7) 0.6963(5) 0.3548(3)
C4 C 0.1477(7) 0.5897(5) 0.2153(3)
C5 C 0.0965(7) 0.4455(6) 0.4329(3)
C6 C 0.1819(7) 0.6394(5) 0.3651(3)
C7 C 0.2463(7) 0.7230(6) 0.4338(3)
C8 C 0.2147(7) 0.3608(6) 0.3728(3)
C9 C 0.1701(6) 0.4455(6) 0.3808(3)
C10 C 0.2647(7) 0.6538(6) 0.4050(3)
C11 C 0.1907(7) 0.2819(6) 0.4129(3)
C12 C -0.0682(7) 0.5750(6) 0.1863(3)
C13 C 0.1426(7) 0.7801(6) 0.4229(3)
C14 C 0.0586(7) 0.7654(6) 0.3844(3)
C15 C -0.1117(7) 0.5411(6) 0.2439(3)
C16 C 0.0711(7) 0.3678(6) 0.4735(3)
C17 C 0.1200(7) 0.2844(6) 0.4646(3)
C18 C -0.0267(7) 0.5313(6) 0.2866(3)
H1 H 0.0190 0.6879 0.3284
H2 H 0.2339 0.6070 0.2055
H3 H 0.0644 0.5004 0.4397
H4 H 0.3032 0.7315 0.4604
H5 H 0.2626 0.3583 0.3386
H6 H 0.3346 0.6155 0.4125
H7 H 0.2214 0.2268 0.4059
H8 H -0.1253 0.5827 0.1576
H9 H 0.1301 0.8280 0.4417
H10 H -0.0123 0.8029 0.3780
H11 H -0.1983 0.5251 0.2536
H12 H 0.0212 0.3698 0.5072
H13 H 0.1054 0.2313 0.4928
H14 H -0.0566 0.5080 0.3247
S2 S 0.6219(2) 0.8018(2) 0.0986(1)
P3 P 0.7261(2) 0.7201(2) 0.3258(1)
O4 O 0.6881(5) 0.8885(4) 0.0870(2)
O6 O 0.7085(6) 0.7277(4) 0.0928(2)
O8 O 0.5090(5) 0.8028(4) 0.0648(2)
C19 C 0.6061(6) 0.7495(6) 0.2731(3)
C21 C 0.6495(7) 0.7591(5) 0.2151(3)
C24 C 0.4325(7) 0.7965(5) 0.1865(3)
C27 C 0.5639(7) 0.7829(6) 0.1730(3)
C28 C 0.5739(7) 0.5548(6) 0.3581(3)
C29 C 0.6717(6) 0.7850(6) 0.3803(3)
C34 C 0.6116(7) 0.7465(6) 0.4343(3)
C39 C 0.3904(7) 0.7883(6) 0.2446(3)
C40 C 0.7025(8) 0.8775(7) 0.3682(4)
C43 C 0.4751(7) 0.7671(5) 0.2861(3)
C44 C 0.7633(7) 0.5634(6) 0.4061(3)
C45 C 0.5488(8) 0.4687(6) 0.3908(3)
C46 C 0.7381(7) 0.4771(6) 0.4397(3)
C47 C 0.6289(7) 0.4303(6) 0.4318(3)
C49 C 0.6800(7) 0.6049(6) 0.3651(3)
C52 C 0.5858(7) 0.8016(7) 0.4741(3)
C53 C 0.6186(7) 0.8909(7) 0.4614(4)
C54 C 0.6782(8) 0.9315(7) 0.4085(4)
H16 H 0.7357 0.7495 0.2049
H18 H 0.3754 0.8105 0.1579
H21 H 0.5180 0.5798 0.3305
H23 H 0.5890 0.6848 0.4438
H28 H 0.3041 0.7974 0.2548
H29 H 0.7407 0.9044 0.3320
H32 H 0.4456 0.7642 0.3242
H33 H 0.8375 0.5947 0.4108
H34 H 0.4767 0.4362 0.3850
H35 H 0.7936 0.4510 0.4671
H36 H 0.6098 0.3726 0.4544
H40 H 0.5452 0.7761 0.5100
H41 H 0.6007 0.9257 0.4888
H42 H 0.7015 0.9930 0.3999
P4 P 0.5062(2) 0.7464(2) 0.7091(1)
S3 S 0.2857(2) 0.5653(2) 0.9238(1)
O5 O 0.3080(5) 0.6561(4) 0.9323(2)
O7 O 0.1492(5) 0.5432(4) 0.9223(2)
O9 O 0.3464(5) 0.4959(4) 0.9657(2)
C20 C 0.2525(7) 0.7138(6) 0.6787(3)
C22 C 0.3935(7) 0.8131(6) 0.6088(3)
C23 C 0.4752(7) 0.8348(6) 0.7499(3)
C25 C 0.4948(7) 0.5601(6) 0.7515(3)
C26 C 0.2983(8) 0.8266(6) 0.5703(3)
C30 C 0.3732(7) 0.7574(5) 0.6627(3)
C31 C 0.4590(7) 0.6452(6) 0.7635(3)
C32 C 0.4630(7) 0.4794(6) 0.7899(3)
C33 C 0.3630(7) 0.5637(6) 0.8555(3)
C35 C 0.1566(8) 0.7251(6) 0.6403(4)
C36 C 0.3959(7) 0.4788(6) 0.8429(3)
C37 C 0.3937(7) 0.6455(6) 0.8166(3)
C38 C 0.4467(9) 0.9722(6) 0.8130(4)
C41 C 0.5593(8) 0.8421(6) 0.7908(3)
C42 C 0.3768(8) 0.8977(6) 0.7399(3)
C48 C 0.5449(8) 0.9096(7) 0.8227(4)
C50 C 0.1794(8) 0.7818(6) 0.5865(3)
C51 C 0.3617(9) 0.9664(6) 0.7725(3)
H15 H 0.2363 0.6770 0.7152
H17 H 0.4731 0.8425 0.5979
H19 H 0.5409 0.5586 0.7168
H20 H 0.3137 0.8649 0.5342
H22 H 0.4866 0.4244 0.7804
H24 H 0.0775 0.6947 0.6507
H25 H 0.3738 0.4244 0.8689
H26 H 0.3705 0.7005 0.8261
H27 H 0.4383 1.0179 0.8338
H30 H 0.6266 0.8013 0.7972
H31 H 0.3208 0.8948 0.7118
H37 H 0.6014 0.9127 0.8506
H38 H 0.1149 0.7902 0.5611
H39 H 0.2944 1.0074 0.7664
O13 O 0.2878(5) 0.2831(5) 0.0285(3)
N1 N 0.5534(6) 0.3702(5) 0.9655(3)
O14 O 0.2142(5) 0.8019(4) 0.9734(3)
N2 N 0.9488(6) 0.8470(5) 0.0341(3)
N3 N 0.1032(6) 0.4146(5) 0.0322(3)
N4 N 0.6034(6) 0.0654(6) 0.0317(3)
loop_
_geom_bond_atom_site_label_1
_geom_bond_atom_site_label_2
_geom_bond_site_symmetry_1
_geom_bond_site_symmetry_2
P1 C55 1_555 1_555
P2 C1 1_555 1_555
S1 O1 1_555 1_555
O2 S1 1_555 1_555
O3 S1 1_555 1_555
C1 C4 1_555 1_555
C2 S1 1_555 1_555
C3 C6 1_555 1_555
C4 C2 1_555 1_555
C5 C9 1_555 1_555
C6 P2 1_555 1_555
C7 C10 1_555 1_555
C8 C9 1_555 1_555
C9 P2 1_555 1_555
C10 C6 1_555 1_555
C11 C8 1_555 1_555
C12 C2 1_555 1_555
C13 C7 1_555 1_555
C14 C3 1_555 1_555
C15 C12 1_555 1_555
C16 C5 1_555 1_555
C17 C11 1_555 1_555
C18 C1 1_555 1_555
S2 O4 1_555 1_555
P3 C19 1_555 1_555
P4 C23 1_555 1_555
S3 O5 1_555 1_555
O6 S2 1_555 1_555
O7 S3 1_555 1_555
O8 S2 1_555 1_555
O9 S3 1_555 1_555
C19 C21 1_555 1_555
C20 C30 1_555 1_555
C21 C27 1_555 1_555
C22 C26 1_555 1_555
C23 C41 1_555 1_555
C24 C27 1_555 1_555
C25 C31 1_555 1_555
C26 C50 1_555 1_555
C27 S2 1_555 1_555
C28 C45 1_555 1_555
C29 P3 1_555 1_555
C30 P4 1_555 1_555
C31 P4 1_555 1_555
C32 C25 1_555 1_555
C33 S3 1_555 1_555
C34 C29 1_555 1_555
C35 C20 1_555 1_555
C36 C32 1_555 1_555
C37 C31 1_555 1_555
C38 C48 1_555 1_555
C39 C24 1_555 1_555
C40 C29 1_555 1_555
C41 C48 1_555 1_555
C42 C23 1_555 1_555
C43 C19 1_555 1_555
C44 C46 1_555 1_555
C45 C47 1_555 1_555
C46 C47 1_555 1_555
C47 H36 1_555 1_555
C48 H37 1_555 1_555
C49 P3 1_555 1_555
C50 C35 1_555 1_555
C51 C38 1_555 1_555
C52 C34 1_555 1_555
C53 C52 1_555 1_555
C54 C40 1_555 1_555
S4 O10 1_555 1_555
O11 S4 1_555 1_555
O12 S4 1_555 1_555
C55 C58 1_555 1_555
C56 C57 1_555 1_555
C57 P1 1_555 1_555
C58 C62 1_555 1_555
C59 S4 1_555 1_555
C60 C55 1_555 1_555
C61 C57 1_555 1_555
C62 C69 1_555 1_555
C63 P1 1_555 1_555
C64 C59 1_555 1_555
C65 C61 1_555 1_555
C66 C70 1_555 1_555
C67 C63 1_555 1_555
C68 C60 1_555 1_555
C69 C68 1_555 1_555
C70 C63 1_555 1_555
C71 C66 1_555 1_555
C72 C67 1_555 1_555
H1 C3 1_555 1_555
H2 C4 1_555 1_555
H3 C5 1_555 1_555
H4 C7 1_555 1_555
H5 C8 1_555 1_555
H6 C10 1_555 1_555
H7 C11 1_555 1_555
H8 C12 1_555 1_555
H9 C13 1_555 1_555
H10 C14 1_555 1_555
H11 C15 1_555 1_555
H12 C16 1_555 1_555
H13 C17 1_555 1_555
H14 C18 1_555 1_555
H15 C20 1_555 1_555
H16 C21 1_555 1_555
H17 C22 1_555 1_555
H18 C24 1_555 1_555
H19 C25 1_555 1_555
H20 C26 1_555 1_555
H21 C28 1_555 1_555
H22 C32 1_555 1_555
H23 C34 1_555 1_555
H24 C35 1_555 1_555
H25 C36 1_555 1_555
H26 C37 1_555 1_555
H27 C38 1_555 1_555
H28 C39 1_555 1_555
H29 C40 1_555 1_555
H30 C41 1_555 1_555
H31 C42 1_555 1_555
H32 C43 1_555 1_555
H33 C44 1_555 1_555
H34 C45 1_555 1_555
H35 C46 1_555 1_555
H38 C50 1_555 1_555
H39 C51 1_555 1_555
H40 C52 1_555 1_555
H41 C53 1_555 1_555
H42 C54 1_555 1_555
H43 C56 1_555 1_555
H44 C58 1_555 1_555
H45 C60 1_555 1_555
H46 C61 1_555 1_555
H47 C62 1_555 1_555
H48 C64 1_555 1_555
H49 C65 1_555 1_555
H50 C66 1_555 1_555
H51 C67 1_555 1_555
H52 C68 1_555 1_555
H53 C69 1_555 1_555
H54 C70 1_555 1_555
H55 C71 1_555 1_555
H56 C72 1_555 1_555
C13 C14 1_555 1_555
C15 C18 1_555 1_555
C16 C17 1_555 1_555
C22 C30 1_555 1_555
C28 C49 1_555 1_555
C33 C36 1_555 1_555
C33 C37 1_555 1_555
C39 C43 1_555 1_555
C42 C51 1_555 1_555
C44 C49 1_555 1_555
C53 C54 1_555 1_555
C56 C59 1_555 1_555
C64 C65 1_555 1_555
C71 C72 1_555 1_555

#END
