
#######################################################################
#
#                 Cambridge Crystallographic Data Centre
#                                CCDC 
#
#######################################################################
#
# If this CIF has been generated from an entry in the Cambridge 
# Structural Database, then it will include bibliographic, chemical, 
# crystal, experimental, refinement or atomic coordinate data resulting 
# from the CCDC's data processing and validation procedures.
#
#######################################################################

data_XOKCAB
_chemical_formula_moiety         'C30 H21 Cl1'
_chemical_name_systematic        
3-Chloro-trans-1,2,8-triphenyl-1,2-dihydrocyclobuta(b)naphthalene
_symmetry_cell_setting           monoclinic
_symmetry_space_group_name_H-M   'C 2/c'
_symmetry_Int_Tables_number      15
_space_group_name_Hall           '-C 2yn'
loop_
_symmetry_equiv_pos_site_id
_symmetry_equiv_pos_as_xyz
1 x,y,z
2 -x,y,1/2-z
3 1/2+x,1/2+y,z
4 1/2-x,1/2+y,1/2-z
5 -x,-y,-z
6 x,-y,1/2+z
7 1/2-x,1/2-y,-z
8 1/2+x,1/2-y,1/2+z
_cell_length_a                   22.610(4)
_cell_length_b                   13.148(3)
_cell_length_c                   16.698(3)
_cell_angle_alpha                90
_cell_angle_beta                 116.06(2)
_cell_angle_gamma                90
_cell_volume                     4459.26
_exptl_crystal_colour            white
_chemical_melting_point          '132-133 deg.C'
_cell_formula_units_Z            8
loop_
_atom_site_label
_atom_site_type_symbol
_atom_site_fract_x
_atom_site_fract_y
_atom_site_fract_z
Cl1 Cl 0.10766(3) 0.83338(7) 0.19087(5)
C1 C 0.1709(1) 0.7706(2) 0.27751(15)
C2 C 0.16172(10) 0.6697(2) 0.3014(2)
C3 C 0.10004(12) 0.6189(3) 0.2588(2)
H1 H 0.06441(12) 0.6523(3) 0.2146(2)
C4 C 0.09239(14) 0.5227(3) 0.2817(3)
H2 H 0.05217(4) 0.48990(3) 0.2514(3)
C5 C 0.14414(14) 0.4726(2) 0.3501(2)
H3 H 0.13781(4) 0.4075(2) 0.3668(2)
C6 C 0.20389(12) 0.5181(2) 0.3925(2)
H4 H 0.23799(12) 0.4834(2) 0.4380(2)
C7 C 0.2155(12) 0.6169(2) 0.36907(15)
C8 C 0.27930(9) 0.6636(2) 0.41276(13)
C9 C 0.28243(9) 0.7622(2) 0.38995(13)
C10 C 0.33103(10) 0.8485(2) 0.40808(15)
H5 H 0.3400(1) 0.8813(2) 0.46494(15)
C11 C 0.27269(10) 0.9061(2) 0.32770(15)
H6 H 0.28133(10) 0.9087(2) 0.27514(15)
C12 C 0.23047(10) 0.8147(2) 0.32324(15)
C13 C 0.33945(10) 0.6111(2) 0.47661(14)
C14 C 0.35996(11) 0.5195(2) 0.4559(2)
H7 H 0.33389(11) 0.4869(2) 0.4025(2)
C15 C 0.41871(12) 0.4765(2) 0.5142(2)
H8 H 0.43224(12) 0.4153(2) 0.4996(2)
C16 C 0.45704(13) 0.5226(3) 0.5928(2)
H9 H 0.49641(13) 0.4927(3) 0.6322(2)
C17 C 0.43758(12) 0.6126(2) 0.6137(2)
H10 H 0.46398(12) 0.6444(2) 0.6673(2)
C18 C 0.37965(11) 0.6567(2) 0.55644(15)
H11 H 0.36715(11) 0.7185(2) 0.57159(15)
C19 C 0.39389(10) 0.8282(2) 0.4020(2)
C20 C 0.39540(12) 0.7649(2) 0.3377(2)
H12 H 0.35668(12) 0.7339(2) 0.2977(2)
C21 C 0.4532(2) 0.7460(2) 0.3311(2)
H13 H 0.4530(2) 0.7013(2) 0.2868(2)
C22 C 0.5100(2) 0.7898(3) 0.3890(3)
H14 H 0.5487(2) 0.7781(3) 0.3840(3)
C23 C 0.51013(15) 0.8511(3) 0.4546(3)
H15 H 0.54935(15) 0.8800(3) 0.4954(3)
C24 C 0.45216(12) 0.8706(2) 0.4609(2)
H16 H 0.45278(12) 0.9131(2) 0.5058(2)
C25 C 0.25587(12) 1.0104(2) 0.3493(2)
C26 C 0.30065(14) 1.0874(2) 0.3674(2)
H17 H 0.33985(14) 1.0749(2) 0.3636(2)
C27 C 0.2890(2) 1.1825(2) 0.3908(2)
H18 H 0.3203(2) 1.2335(2) 0.4037(2)
C28 C 0.2311(2) 1.2018(2) 0.3950(2)
H19 H 0.2226(2) 1.2665(2) 0.4098(2)
C29 C 0.1860(2) 1.1268(3) 0.3778(2)
H20 H 0.1469(2) 1.1399(3) 0.3816(2)
C30 C 0.19807(13) 1.0309(2) 0.3546(2)
H21 H 0.16685(13) 0.9798(2) 0.3425(2)
loop_
_geom_bond_atom_site_label_1
_geom_bond_atom_site_label_2
_geom_bond_site_symmetry_1
_geom_bond_site_symmetry_2
Cl1 C1 1_555 1_555
C1 C2 1_555 1_555
C2 C3 1_555 1_555
C3 H1 1_555 1_555
C4 C3 1_555 1_555
H2 C4 1_555 1_555
C5 C4 1_555 1_555
H3 C5 1_555 1_555
C6 C5 1_555 1_555
H4 C6 1_555 1_555
C7 C2 1_555 1_555
C8 C7 1_555 1_555
C9 C8 1_555 1_555
C10 C9 1_555 1_555
H5 C10 1_555 1_555
C11 C10 1_555 1_555
H6 C11 1_555 1_555
C12 C1 1_555 1_555
C13 C8 1_555 1_555
C14 C13 1_555 1_555
H7 C14 1_555 1_555
C15 C14 1_555 1_555
H8 C15 1_555 1_555
C16 C15 1_555 1_555
H9 C16 1_555 1_555
C17 C16 1_555 1_555
H10 C17 1_555 1_555
C18 C13 1_555 1_555
H11 C18 1_555 1_555
C19 C10 1_555 1_555
C20 C19 1_555 1_555
H12 C20 1_555 1_555
C21 C20 1_555 1_555
H13 C21 1_555 1_555
C22 C21 1_555 1_555
H14 C22 1_555 1_555
C23 C22 1_555 1_555
H15 C23 1_555 1_555
C24 C19 1_555 1_555
H16 C24 1_555 1_555
C25 C11 1_555 1_555
C26 C25 1_555 1_555
H17 C26 1_555 1_555
C27 C26 1_555 1_555
H18 C27 1_555 1_555
C28 C27 1_555 1_555
H19 C28 1_555 1_555
C29 C28 1_555 1_555
H20 C29 1_555 1_555
C30 C25 1_555 1_555
H21 C30 1_555 1_555
C6 C7 1_555 1_555
C9 C12 1_555 1_555
C11 C12 1_555 1_555
C17 C18 1_555 1_555
C23 C24 1_555 1_555
C29 C30 1_555 1_555

#END
