
#######################################################################
#
#                 Cambridge Crystallographic Data Centre
#                                CCDC 
#
#######################################################################
#
# If this CIF has been generated from an entry in the Cambridge 
# Structural Database, then it will include bibliographic, chemical, 
# crystal, experimental, refinement or atomic coordinate data resulting 
# from the CCDC's data processing and validation procedures.
#
#######################################################################

data_XOKDUY
_chemical_formula_moiety         'C48 H38 O4,C5 H12'
_chemical_name_systematic        
"3,4,7,8,11,12-hexamethyl-2,5,10,13-tetrahydrobenzo[5',6']chromeno[4',3':5,6]isochromeno[4,3-f]naphtho[2',1':3,4]isochromeno[6,5-c]chromene pentane solvate"
_symmetry_cell_setting           trigonal
_symmetry_space_group_name_H-M   'P 32 2 1'
_symmetry_Int_Tables_number      154
_space_group_name_Hall           'P 32 2"'
loop_
_symmetry_equiv_pos_site_id
_symmetry_equiv_pos_as_xyz
1 x,y,z
2 -y,x-y,2/3+z
3 -x+y,-x,1/3+z
4 y,x,-z
5 x-y,-y,1/3-z
6 -x,-x+y,2/3-z
_cell_length_a                   12.2806(2)
_cell_length_b                   12.2806(2)
_cell_length_c                   22.9369(4)
_cell_angle_alpha                90
_cell_angle_beta                 90
_cell_angle_gamma                120
_cell_volume                     2995.74
_exptl_crystal_colour            yellow
_exptl_crystal_description       block
_cell_formula_units_Z            3
_exptl_crystal_preparation       Luminescent
loop_
_atom_site_label
_atom_site_type_symbol
_atom_site_fract_x
_atom_site_fract_y
_atom_site_fract_z
O1 O 1.05961(17) 1.02440(19) 0.56608(9)
O2 O 0.43210(19) 0.6885(2) 0.51114(9)
C1 C 0.6907(4) 0.5093(3) 0.69280(14)
H1 H 0.6510 0.4339 0.7150
C2 C 0.8170(3) 0.5701(3) 0.68490(13)
H2 H 0.8654 0.5380 0.7023
C3 C 0.8779(3) 0.6815(3) 0.65083(11)
C4 C 1.0101(3) 0.7508(3) 0.64635(12)
H3 H 1.0591 0.7189 0.6633
C5 C 1.0676(3) 0.8624(3) 0.61811(12)
H4 H 1.1568 0.9103 0.6168
C6 C 0.9957(3) 0.9080(3) 0.59069(11)
C7 C 0.9960(3) 1.0939(3) 0.57504(14)
H5 H 1.0435 1.1766 0.5555
H6 H 0.9934 1.1089 0.6173
C8 C 0.8642(3) 1.0252(3) 0.55151(12)
C9 C 0.8076(3) 1.0885(3) 0.52723(13)
C10 C 0.6846(3) 1.0207(3) 0.50612(14)
C11 C 0.6261(3) 0.8890(3) 0.50365(12)
C12 C 0.4959(3) 0.8072(3) 0.48061(15)
H7 H 0.4473 0.8511 0.4849
H8 H 0.5002 0.7915 0.4386
C13 C 0.4265(3) 0.4928(3) 0.50042(13)
C14 C 0.4960(3) 0.6236(3) 0.50576(12)
C15 C 0.6271(2) 0.6916(3) 0.50719(11)
C16 C 0.6883(2) 0.8257(2) 0.52245(11)
C17 C 0.8023(2) 0.8929(2) 0.55402(11)
C18 C 0.8656(2) 0.8391(2) 0.58837(11)
C19 C 0.8041(2) 0.7266(3) 0.62285(11)
C20 C 0.6723(3) 0.6623(3) 0.63423(12)
H9 H 0.6213 0.6927 0.6181
C21 C 0.6191(3) 0.5563(3) 0.66859(13)
H10 H 0.5312 0.5144 0.6759
C22 C 0.8773(4) 1.2301(3) 0.5252(2)
H11 H 0.9206 1.2637 0.5623
H12 H 0.8176 1.2596 0.5183
H13 H 0.9391 1.2592 0.4935
C23 C 0.6183(4) 1.0867(4) 0.48222(18)
H14 H 0.5274 1.0282 0.4816
H15 H 0.6479 1.1159 0.4425
H16 H 0.6367 1.1589 0.5070
C24 C 0.2852(3) 0.4245(4) 0.49674(16)
H17 H 0.2590 0.4002 0.4562
H18 H 0.2543 0.4798 0.5104
H19 H 0.2501 0.3491 0.5212
O1C O 1.02440(19) 1.05961(17) 0.43392(9)
O2C O 0.6885(2) 0.43210(19) 0.48886(9)
C1C C 0.5093(3) 0.6907(4) 0.30720(14)
H1C H 0.4339 0.6510 0.2850
C2C C 0.5701(3) 0.8170(3) 0.31510(13)
H2C H 0.5380 0.8654 0.2977
C3C C 0.6815(3) 0.8779(3) 0.34917(11)
C4C C 0.7508(3) 1.0101(3) 0.35365(12)
H3C H 0.7189 1.0591 0.3367
C5C C 0.8624(3) 1.0676(3) 0.38189(12)
H4C H 0.9103 1.1568 0.3832
C6C C 0.9080(3) 0.9957(3) 0.40931(11)
C7C C 1.0939(3) 0.9960(3) 0.42496(14)
H5C H 1.1766 1.0435 0.4445
H6C H 1.1089 0.9934 0.3827
C8C C 1.0252(3) 0.8642(3) 0.44849(12)
C9C C 1.0885(3) 0.8076(3) 0.47277(13)
C10C C 1.0207(3) 0.6846(3) 0.49388(14)
C11C C 0.8890(3) 0.6261(3) 0.49635(12)
C12C C 0.8072(3) 0.4959(3) 0.51939(15)
H7C H 0.8511 0.4473 0.5151
H8C H 0.7915 0.5002 0.5614
C13C C 0.4928(3) 0.4265(3) 0.49958(13)
C14C C 0.6236(3) 0.4960(3) 0.49424(12)
C15C C 0.6916(3) 0.6271(2) 0.49281(11)
C16C C 0.8257(2) 0.6883(2) 0.47755(11)
C17C C 0.8929(2) 0.8023(2) 0.44598(11)
C18C C 0.8391(2) 0.8656(2) 0.41163(11)
C19C C 0.7266(3) 0.8041(2) 0.37715(11)
C20C C 0.6623(3) 0.6723(3) 0.36577(12)
H9C H 0.6927 0.6213 0.3819
C21C C 0.5563(3) 0.6191(3) 0.33141(13)
H10C H 0.5144 0.5312 0.3241
C22C C 1.2301(3) 0.8773(4) 0.4748(2)
H11C H 1.2637 0.9206 0.4377
H12C H 1.2596 0.8176 0.4817
H13C H 1.2592 0.9391 0.5065
C23C C 1.0867(4) 0.6183(4) 0.51778(18)
H14C H 1.0282 0.5274 0.5184
H15C H 1.1159 0.6479 0.5575
H16C H 1.1589 0.6367 0.4930
C24C C 0.4245(4) 0.2852(3) 0.50326(16)
H17C H 0.4002 0.2590 0.5438
H18C H 0.4798 0.2543 0.4896
H19C H 0.3491 0.2501 0.4788
C25 C 0.4385(14) 1.0000 0.6667
H20 H 0.4071 1.0323 0.6352
C26 C 0.4524(13) 0.8936(7) 0.6432(5)
H21 H 0.3859 0.8483 0.6137
H22 H 0.5344 0.9296 0.6229
C27 C 0.4455(15) 0.8019(11) 0.6862(5)
H23 H 0.4225 0.7223 0.6665
H24 H 0.3820 0.7878 0.7156
H25 H 0.5276 0.8342 0.7051
H20D H 0.3748 0.9677 0.6981
C26D C 0.5588(15) 1.1064(7) 0.6901(5)
H21D H 0.5376 1.1517 0.7196
H22D H 0.6048 1.0704 0.7104
C27D C 0.6436(19) 1.1981(11) 0.6471(5)
H23D H 0.7002 1.2777 0.6668
H24D H 0.5942 1.2122 0.6177
H25D H 0.6934 1.1658 0.6282
H26? H 0.4071 1.0323 0.6352
loop_
_geom_bond_atom_site_label_1
_geom_bond_atom_site_label_2
_geom_bond_site_symmetry_1
_geom_bond_site_symmetry_2
O1 C6 1_555 1_555
O2 C12 1_555 1_555
C1 H1 1_555 1_555
C2 C1 1_555 1_555
H2 C2 1_555 1_555
C3 C2 1_555 1_555
C4 C3 1_555 1_555
H3 C4 1_555 1_555
C5 C4 1_555 1_555
H4 C5 1_555 1_555
C6 C5 1_555 1_555
C7 O1 1_555 1_555
H5 C7 1_555 1_555
H6 C7 1_555 1_555
C8 C7 1_555 1_555
C9 C8 1_555 1_555
C10 C9 1_555 1_555
C11 C10 1_555 1_555
C12 C11 1_555 1_555
H7 C12 1_555 1_555
H8 C12 1_555 1_555
C13 C14 1_555 1_555
C14 O2 1_555 1_555
C15 C14 1_555 1_555
C16 C11 1_555 1_555
C17 C8 1_555 1_555
C18 C6 1_555 1_555
C19 C3 1_555 1_555
C20 C19 1_555 1_555
H9 C20 1_555 1_555
C21 C1 1_555 1_555
H10 C21 1_555 1_555
C22 C9 1_555 1_555
H11 C22 1_555 1_555
H12 C22 1_555 1_555
H13 C22 1_555 1_555
C23 C10 1_555 1_555
H14 C23 1_555 1_555
H15 C23 1_555 1_555
H16 C23 1_555 1_555
C24 C13 1_555 1_555
H17 C24 1_555 1_555
H18 C24 1_555 1_555
H19 C24 1_555 1_555
C25 H20 1_555 1_555
C26 C25 1_555 1_555
H21 C26 1_555 1_555
H22 C26 1_555 1_555
C27 C26 1_555 1_555
H23 C27 1_555 1_555
H24 C27 1_555 1_555
H25 C27 1_555 1_555
O1C C6C 1_555 1_555
O2C C12C 1_555 1_555
C1C H1C 1_555 1_555
C2C C1C 1_555 1_555
H2C C2C 1_555 1_555
C3C C2C 1_555 1_555
C4C C3C 1_555 1_555
H3C C4C 1_555 1_555
C5C C4C 1_555 1_555
H4C C5C 1_555 1_555
C6C C5C 1_555 1_555
C7C O1C 1_555 1_555
H5C C7C 1_555 1_555
H6C C7C 1_555 1_555
C8C C7C 1_555 1_555
C9C C8C 1_555 1_555
C10C C9C 1_555 1_555
C11C C10C 1_555 1_555
C12C C11C 1_555 1_555
H7C C12C 1_555 1_555
H8C C12C 1_555 1_555
C13C C13 1_555 1_555
C14C O2C 1_555 1_555
C15C C15 1_555 1_555
C16C C11C 1_555 1_555
C17C C8C 1_555 1_555
C18C C6C 1_555 1_555
C19C C3C 1_555 1_555
C20C C19C 1_555 1_555
H9C C20C 1_555 1_555
C21C C1C 1_555 1_555
H10C C21C 1_555 1_555
C22C C9C 1_555 1_555
H11C C22C 1_555 1_555
H12C C22C 1_555 1_555
H13C C22C 1_555 1_555
C23C C10C 1_555 1_555
H14C C23C 1_555 1_555
H15C C23C 1_555 1_555
H16C C23C 1_555 1_555
C24C C13C 1_555 1_555
H17C C24C 1_555 1_555
H18C C24C 1_555 1_555
H19C C24C 1_555 1_555
H20D C25 1_555 1_555
C26D C25 1_555 1_555
H21D C26D 1_555 1_555
H22D C26D 1_555 1_555
C27D C26D 1_555 1_555
H23D C27D 1_555 1_555
H24D C27D 1_555 1_555
H25D C27D 1_555 1_555
C15 C16 1_555 1_555
C16 C17 1_555 1_555
C17 C18 1_555 1_555
C18 C19 1_555 1_555
C20 C21 1_555 1_555
C13C C14C 1_555 1_555
C14C C15C 1_555 1_555
C15C C16C 1_555 1_555
C16C C17C 1_555 1_555
C17C C18C 1_555 1_555
C18C C19C 1_555 1_555
C20C C21C 1_555 1_555

#END
