
#######################################################################
#
#                 Cambridge Crystallographic Data Centre
#                                CCDC 
#
#######################################################################
#
# If this CIF has been generated from an entry in the Cambridge 
# Structural Database, then it will include bibliographic, chemical, 
# crystal, experimental, refinement or atomic coordinate data resulting 
# from the CCDC's data processing and validation procedures.
#
#######################################################################

data_XOLQUM
_chemical_formula_moiety         'C16 H14 B1 F2 N3'
_chemical_name_systematic        
N-Benzyl-5,5-difluoro-5H-4\l^5^,5\l^5^-dipyrrolo[1,2-c:2',1'-f][1,3,2]diazaborinin-10-amine
_symmetry_cell_setting           triclinic
_symmetry_space_group_name_H-M   'P -1'
_symmetry_Int_Tables_number      2
_space_group_name_Hall           '-P 1'
loop_
_symmetry_equiv_pos_site_id
_symmetry_equiv_pos_as_xyz
1 x,y,z
2 -x,-y,-z
_cell_length_a                   11.5992(16)
_cell_length_b                   11.690(2)
_cell_length_c                   11.7664(16)
_cell_angle_alpha                86.369(13)
_cell_angle_beta                 77.675(12)
_cell_angle_gamma                63.181(16)
_cell_volume                     1390.04
_exptl_crystal_colour            yellow
_exptl_crystal_description       block
_cell_formula_units_Z            4
loop_
_atom_site_label
_atom_site_type_symbol
_atom_site_fract_x
_atom_site_fract_y
_atom_site_fract_z
F1 F 0.01220(10) 0.76077(10) 0.73073(9)
F2 F -0.06371(10) 0.77538(9) 0.92549(9)
N1 N -0.03403(13) 0.95409(13) 0.83328(12)
N2 N 0.15783(14) 0.75056(13) 0.85504(12)
N3 N 0.22648(14) 1.02251(14) 0.88740(13)
C1 C 0.03432(16) 1.02006(15) 0.85185(13)
C2 C 0.16588(16) 0.95279(15) 0.87309(13)
C3 C 0.22700(16) 0.81591(15) 0.87599(13)
C4 C -0.04448(17) 1.15074(16) 0.84226(14)
C5 C -0.16199(18) 1.16382(17) 0.81668(16)
C6 C -0.15236(17) 1.04192(17) 0.81182(15)
C7 C 0.34827(17) 0.72425(16) 0.89933(15)
C8 C 0.35242(18) 0.60435(16) 0.89152(15)
C9 C 0.23448(18) 0.62378(16) 0.86469(15)
C10 C 0.36153(17) 0.97671(16) 0.90565(16)
C11 C 0.40662(16) 1.07984(15) 0.87647(15)
C12 C 0.36781(16) 1.18164(16) 0.95497(14)
C13 C 0.40800(16) 1.27734(16) 0.92440(15)
C14 C 0.48689(17) 1.27151(17) 0.81552(16)
C15 C 0.52757(19) 1.16940(18) 0.73818(16)
C16 C 0.48786(18) 1.07409(17) 0.76885(15)
B1 B 0.01531(19) 0.80873(18) 0.83644(16)
H1 H -0.0192(19) 1.2169(19) 0.8513(17)
H2 H 0.3637(19) 0.9502(18) 0.9879(18)
H3 H 0.3131(19) 1.1847(18) 1.0327(18)
H4 H 0.4220(19) 0.8997(18) 0.8544(16)
H5 H 0.203(2) 0.5619(19) 0.8543(17)
H6 H 0.417(2) 0.7392(18) 0.9204(17)
H7 H 0.3802(19) 1.3481(18) 0.9817(17)
H8 H -0.235(2) 1.242(2) 0.8076(18)
H9 H -0.215(2) 1.0125(18) 0.7935(17)
H10 H 0.519(2) 1.001(2) 0.7154(19)
H11 H 0.179(2) 1.103(2) 0.8904(19)
H12 H 0.425(2) 0.523(2) 0.9053(18)
H13 H 0.516(2) 1.338(2) 0.7945(18)
H14 H 0.584(2) 1.164(2) 0.6618(19)
F3 F -0.32290(10) 0.49450(10) 0.85039(9)
F4 F -0.30546(10) 0.67550(9) 0.79246(9)
N4 N -0.10620(14) 0.47376(13) 0.75971(12)
N5 N -0.27638(13) 0.52579(13) 0.64444(12)
N6 N 0.04265(14) 0.31535(13) 0.46923(12)
C17 C -0.00761(16) 0.39449(15) 0.66986(14)
C18 C -0.04262(16) 0.38389(15) 0.56257(14)
C19 C -0.17861(16) 0.45401(15) 0.55186(14)
C20 C 0.11239(17) 0.34226(16) 0.70796(15)
C21 C 0.08520(19) 0.39107(17) 0.82053(16)
C22 C -0.04895(19) 0.47085(17) 0.84935(15)
C23 C -0.23647(17) 0.46569(16) 0.45629(15)
C24 C -0.37136(18) 0.54581(17) 0.49265(16)
C25 C -0.39282(17) 0.58035(17) 0.60863(16)
C26 C 0.18522(17) 0.23210(17) 0.45311(15)
C27 C 0.21969(16) 0.09925(16) 0.50052(14)
C28 C 0.1510(2) 0.0321(2) 0.4838(2)
C29 C 0.1870(2) -0.0918(2) 0.5225(3)
C30 C 0.29255(19) -0.15052(18) 0.57737(16)
C31 C 0.3636(2) -0.08678(19) 0.58982(19)
C32 C 0.3271(2) 0.03748(18) 0.55153(18)
B2 B -0.2569(2) 0.54491(18) 0.76545(17)
H15 H 0.219(2) 0.2254(19) 0.3685(18)
H16 H 0.227(2) 0.2757(19) 0.4880(17)
H17 H 0.198(2) 0.2826(19) 0.6646(17)
H18 H -0.190(2) 0.4239(19) 0.3791(18)
H19 H -0.475(2) 0.634(2) 0.6642(18)
H20 H 0.009(2) 0.314(2) 0.4081(19)
H21 H -0.102(2) 0.520(2) 0.9194(18)
H22 H 0.148(2) 0.3711(19) 0.8699(18)
H23 H 0.315(2) -0.239(2) 0.6041(18)
H24 H -0.440(2) 0.572(2) 0.4472(19)
H25 H 0.375(3) 0.083(3) 0.563(2)
H26 H 0.442(3) -0.130(2) 0.627(2)
H27 H 0.076(3) 0.074(2) 0.442(2)
H28 H 0.139(3) -0.142(3) 0.507(3)
loop_
_geom_bond_atom_site_label_1
_geom_bond_atom_site_label_2
_geom_bond_site_symmetry_1
_geom_bond_site_symmetry_2
F1 B1 1_555 1_555
F2 B1 1_555 1_555
N1 C1 1_555 1_555
N2 C3 1_555 1_555
N3 C2 1_555 1_555
C1 C2 1_555 1_555
C2 C3 1_555 1_555
C3 C7 1_555 1_555
C4 C1 1_555 1_555
C5 C4 1_555 1_555
C6 N1 1_555 1_555
C7 C8 1_555 1_555
C8 C9 1_555 1_555
C9 N2 1_555 1_555
C10 N3 1_555 1_555
C11 C10 1_555 1_555
C12 C11 1_555 1_555
C13 C12 1_555 1_555
C14 C13 1_555 1_555
C15 C14 1_555 1_555
C16 C11 1_555 1_555
B1 N1 1_555 1_555
H1 C4 1_555 1_555
H2 C10 1_555 1_555
H3 C12 1_555 1_555
H4 C10 1_555 1_555
H5 C9 1_555 1_555
H6 C7 1_555 1_555
H7 C13 1_555 1_555
H8 C5 1_555 1_555
H9 C6 1_555 1_555
H10 C16 1_555 1_555
H11 N3 1_555 1_555
H12 C8 1_555 1_555
H13 C14 1_555 1_555
H14 C15 1_555 1_555
F3 B2 1_555 1_555
F4 B2 1_555 1_555
N4 C17 1_555 1_555
N5 C19 1_555 1_555
N6 C18 1_555 1_555
C17 C18 1_555 1_555
C18 C19 1_555 1_555
C19 C23 1_555 1_555
C20 C17 1_555 1_555
C21 C20 1_555 1_555
C22 N4 1_555 1_555
C23 C24 1_555 1_555
C24 C25 1_555 1_555
C25 N5 1_555 1_555
C26 N6 1_555 1_555
C27 C26 1_555 1_555
C28 C27 1_555 1_555
C29 C28 1_555 1_555
C30 C29 1_555 1_555
C31 C30 1_555 1_555
C32 C27 1_555 1_555
B2 N4 1_555 1_555
H15 C26 1_555 1_555
H16 C26 1_555 1_555
H17 C20 1_555 1_555
H18 C23 1_555 1_555
H19 C25 1_555 1_555
H20 N6 1_555 1_555
H21 C22 1_555 1_555
H22 C21 1_555 1_555
H23 C30 1_555 1_555
H24 C24 1_555 1_555
H25 C32 1_555 1_555
H26 C31 1_555 1_555
H27 C28 1_555 1_555
H28 C29 1_555 1_555
N2 B1 1_555 1_555
C5 C6 1_555 1_555
C15 C16 1_555 1_555
N5 B2 1_555 1_555
C21 C22 1_555 1_555
C31 C32 1_555 1_555

#END
