
#######################################################################
#
#                 Cambridge Crystallographic Data Centre
#                                CCDC 
#
#######################################################################
#
# If this CIF has been generated from an entry in the Cambridge 
# Structural Database, then it will include bibliographic, chemical, 
# crystal, experimental, refinement or atomic coordinate data resulting 
# from the CCDC's data processing and validation procedures.
#
#######################################################################

data_XOMJIU
_chemical_formula_moiety         'C38 H58 B2 N2 O1'
_chemical_name_systematic        
2,2'-oxybis(3,5-di-t-butyl-1-(2,6-dimethylphenyl)-2,3-dihydro-1H-1,2-azaborole)
_symmetry_cell_setting           monoclinic
_symmetry_space_group_name_H-M   'P 21/c'
_symmetry_Int_Tables_number      14
_space_group_name_Hall           '-P 2ybc'
loop_
_symmetry_equiv_pos_site_id
_symmetry_equiv_pos_as_xyz
1 x,y,z
2 -x,1/2+y,1/2-z
3 -x,-y,-z
4 x,1/2-y,1/2+z
_cell_length_a                   11.998(4)
_cell_length_b                   15.287(5)
_cell_length_c                   19.633(7)
_cell_angle_alpha                90
_cell_angle_beta                 93.916(4)
_cell_angle_gamma                90
_cell_volume                     3592.55
_exptl_crystal_colour            colorless
_exptl_crystal_description       prism
_cell_formula_units_Z            4
loop_
_atom_site_label
_atom_site_type_symbol
_atom_site_fract_x
_atom_site_fract_y
_atom_site_fract_z
B1 B 0.64075(17) 0.70901(12) 0.09910(11)
B2 B 0.69882(17) 0.87016(13) 0.07559(11)
O1 O 0.69934(10) 0.78584(7) 0.09813(6)
N1 N 0.69952(12) 0.62849(9) 0.10306(8)
N2 N 0.76598(12) 0.93368(9) 0.11196(8)
C1 C 0.62012(15) 0.55737(11) 0.10477(10)
C2 C 0.51664(15) 0.58955(11) 0.10080(10)
H1 H 0.4520 0.5536 0.1001
C3 C 0.51110(14) 0.68840(11) 0.09759(10)
H2 H 0.4762 0.7056 0.0518
C4 C 0.65302(16) 0.46188(11) 0.11396(11)
C5 C 0.7174(2) 0.44878(13) 0.18347(13)
H3 H 0.6733 0.4718 0.2197
H4 H 0.7889 0.4800 0.1840
H5 H 0.7313 0.3863 0.1911
C6 C 0.72283(19) 0.42731(13) 0.05758(13)
H6 H 0.7348 0.3643 0.0638
H7 H 0.7951 0.4574 0.0598
H8 H 0.6833 0.4381 0.0130
C7 C 0.54796(19) 0.40569(13) 0.11265(14)
H9 H 0.5029 0.4230 0.1502
H10 H 0.5690 0.3440 0.1179
H11 H 0.5044 0.4139 0.0690
C8 C 0.44237(15) 0.73040(11) 0.15334(10)
C9 C 0.43588(17) 0.82894(12) 0.14203(12)
H12 H 0.4002 0.8410 0.0966
H13 H 0.5114 0.8537 0.1454
H14 H 0.3918 0.8555 0.1768
C10 C 0.49763(18) 0.71129(13) 0.22419(11)
H15 H 0.5726 0.7370 0.2281
H16 H 0.5032 0.6479 0.2309
H17 H 0.4526 0.7367 0.2590
C11 C 0.32316(16) 0.69512(13) 0.14874(12)
H18 H 0.2794 0.7259 0.1816
H19 H 0.3243 0.6324 0.1592
H20 H 0.2891 0.7044 0.1025
C12 C 0.81841(15) 0.62173(11) 0.10130(11)
C13 C 0.88540(19) 0.63366(12) 0.16186(13)
C14 C 1.0001(2) 0.62796(15) 0.1581(2)
H21 H 1.0472 0.6349 0.1987
C15 C 1.0477(2) 0.61270(18) 0.0978(3)
H22 H 1.1265 0.6073 0.0970
C16 C 0.9813(3) 0.60524(15) 0.0389(2)
H23 H 1.0146 0.5965 -0.0031
C17 C 0.86584(19) 0.61016(12) 0.03935(13)
C18 C 0.8354(2) 0.65499(16) 0.22739(13)
H24 H 0.8905 0.6442 0.2656
H25 H 0.7696 0.6181 0.2323
H26 H 0.8132 0.7167 0.2273
C19 C 0.7948(2) 0.60299(15) -0.02671(12)
H27 H 0.7163 0.5964 -0.0169
H28 H 0.8183 0.5519 -0.0523
H29 H 0.8037 0.6560 -0.0539
C20 C 0.75385(15) 1.01695(11) 0.07656(10)
C21 C 0.68332(16) 1.00806(11) 0.02175(10)
H30 H 0.6633 1.0552 -0.0081
C22 C 0.63771(15) 0.91666(11) 0.01104(10)
H31 H 0.5559 0.9182 0.0177
C23 C 0.81311(16) 1.10070(11) 0.10048(11)
C24 C 0.78574(18) 1.17284(12) 0.04790(13)
H32 H 0.8070 1.1536 0.0030
H33 H 0.8273 1.2260 0.0614
H34 H 0.7054 1.1851 0.0457
C25 C 0.94026(16) 1.08974(13) 0.10598(12)
H35 H 0.9615 1.0466 0.1414
H36 H 0.9756 1.1460 0.1179
H37 H 0.9651 1.0696 0.0621
C26 C 0.7746(2) 1.13108(13) 0.16958(13)
H38 H 0.6932 1.1386 0.1662
H39 H 0.8104 1.1869 0.1822
H40 H 0.7954 1.0872 0.2045
C27 C 0.65343(16) 0.87777(11) -0.06062(10)
C28 C 0.77720(17) 0.86239(13) -0.06948(11)
H41 H 0.8070 0.8207 -0.0349
H42 H 0.8177 0.9179 -0.0641
H43 H 0.7864 0.8386 -0.1151
C29 C 0.60660(19) 0.94027(13) -0.11637(12)
H44 H 0.6512 0.9940 -0.1152
H45 H 0.5289 0.9545 -0.1085
H46 H 0.6098 0.9123 -0.1611
C30 C 0.59004(17) 0.79117(11) -0.06901(11)
H47 H 0.6013 0.7664 -0.1141
H48 H 0.5102 0.8015 -0.0649
H49 H 0.6180 0.7502 -0.0335
C31 C 0.83776(18) 0.91406(12) 0.17143(10)
C32 C 0.7971(2) 0.92205(15) 0.23588(12)
C33 C 0.8714(4) 0.9007(2) 0.29267(14)
H50 H 0.8466 0.9059 0.3374
C34 C 0.9784(4) 0.8725(2) 0.28449(19)
H51 H 1.0277 0.8609 0.3234
C35 C 1.0132(3) 0.86141(15) 0.22130(16)
H52 H 1.0864 0.8399 0.2162
C36 C 0.94490(19) 0.88058(13) 0.16357(12)
C37 C 0.6786(3) 0.94865(18) 0.24540(15)
H53 H 0.6491 0.9817 0.2054
H54 H 0.6766 0.9853 0.2863
H55 H 0.6329 0.8963 0.2508
C38 C 0.98541(19) 0.86369(15) 0.09476(13)
H56 H 1.0672 0.8613 0.0981
H57 H 0.9602 0.9108 0.0636
H58 H 0.9554 0.8078 0.0773
loop_
_geom_bond_atom_site_label_1
_geom_bond_atom_site_label_2
_geom_bond_site_symmetry_1
_geom_bond_site_symmetry_2
B1 O1 1_555 1_555
B2 O1 1_555 1_555
N1 B1 1_555 1_555
N2 B2 1_555 1_555
C1 N1 1_555 1_555
C2 C1 1_555 1_555
H1 C2 1_555 1_555
C3 B1 1_555 1_555
H2 C3 1_555 1_555
C4 C1 1_555 1_555
C5 C4 1_555 1_555
H3 C5 1_555 1_555
H4 C5 1_555 1_555
H5 C5 1_555 1_555
C6 C4 1_555 1_555
H6 C6 1_555 1_555
H7 C6 1_555 1_555
H8 C6 1_555 1_555
C7 C4 1_555 1_555
H9 C7 1_555 1_555
H10 C7 1_555 1_555
H11 C7 1_555 1_555
C8 C3 1_555 1_555
C9 C8 1_555 1_555
H12 C9 1_555 1_555
H13 C9 1_555 1_555
H14 C9 1_555 1_555
C10 C8 1_555 1_555
H15 C10 1_555 1_555
H16 C10 1_555 1_555
H17 C10 1_555 1_555
C11 C8 1_555 1_555
H18 C11 1_555 1_555
H19 C11 1_555 1_555
H20 C11 1_555 1_555
C12 N1 1_555 1_555
C13 C12 1_555 1_555
C14 C13 1_555 1_555
H21 C14 1_555 1_555
C15 C14 1_555 1_555
H22 C15 1_555 1_555
C16 C15 1_555 1_555
H23 C16 1_555 1_555
C17 C12 1_555 1_555
C18 C13 1_555 1_555
H24 C18 1_555 1_555
H25 C18 1_555 1_555
H26 C18 1_555 1_555
C19 C17 1_555 1_555
H27 C19 1_555 1_555
H28 C19 1_555 1_555
H29 C19 1_555 1_555
C20 N2 1_555 1_555
C21 C20 1_555 1_555
H30 C21 1_555 1_555
C22 B2 1_555 1_555
H31 C22 1_555 1_555
C23 C20 1_555 1_555
C24 C23 1_555 1_555
H32 C24 1_555 1_555
H33 C24 1_555 1_555
H34 C24 1_555 1_555
C25 C23 1_555 1_555
H35 C25 1_555 1_555
H36 C25 1_555 1_555
H37 C25 1_555 1_555
C26 C23 1_555 1_555
H38 C26 1_555 1_555
H39 C26 1_555 1_555
H40 C26 1_555 1_555
C27 C22 1_555 1_555
C28 C27 1_555 1_555
H41 C28 1_555 1_555
H42 C28 1_555 1_555
H43 C28 1_555 1_555
C29 C27 1_555 1_555
H44 C29 1_555 1_555
H45 C29 1_555 1_555
H46 C29 1_555 1_555
C30 C27 1_555 1_555
H47 C30 1_555 1_555
H48 C30 1_555 1_555
H49 C30 1_555 1_555
C31 N2 1_555 1_555
C32 C31 1_555 1_555
C33 C32 1_555 1_555
H50 C33 1_555 1_555
C34 C33 1_555 1_555
H51 C34 1_555 1_555
C35 C34 1_555 1_555
H52 C35 1_555 1_555
C36 C31 1_555 1_555
C37 C32 1_555 1_555
H53 C37 1_555 1_555
H54 C37 1_555 1_555
H55 C37 1_555 1_555
C38 C36 1_555 1_555
H56 C38 1_555 1_555
H57 C38 1_555 1_555
H58 C38 1_555 1_555
C2 C3 1_555 1_555
C16 C17 1_555 1_555
C21 C22 1_555 1_555
C35 C36 1_555 1_555

#END
