
#######################################################################
#
#                 Cambridge Crystallographic Data Centre
#                                CCDC 
#
#######################################################################
#
# If this CIF has been generated from an entry in the Cambridge 
# Structural Database, then it will include bibliographic, chemical, 
# crystal, experimental, refinement or atomic coordinate data resulting 
# from the CCDC's data processing and validation procedures.
#
#######################################################################

data_XOMLOA
_chemical_name_common            
'bis(1,1,6,6-Tetraphenylhexa-2,4-diyne-1,6-diol) trans-anethole clathrate'
_chemical_formula_moiety         'C10 H12 O1,2(C30 H22 O2)'
_chemical_name_systematic        
'bis(1,1,6,6-Tetraphenylhexa-2,4-diyne-1,6-diol) trans-p-propenylanisole clathrate'
_symmetry_cell_setting           triclinic
_symmetry_space_group_name_H-M   'P -1'
_symmetry_Int_Tables_number      2
_space_group_name_Hall           '-P 1'
loop_
_symmetry_equiv_pos_site_id
_symmetry_equiv_pos_as_xyz
1 x,y,z
2 -x,-y,-z
_cell_length_a                   12.9719(15)
_cell_length_b                   15.119(2)
_cell_length_c                   16.799(3)
_cell_angle_alpha                100.572(11)
_cell_angle_beta                 104.897(11)
_cell_angle_gamma                113.581(10)
_cell_volume                     2761.37
_exptl_crystal_colour            colorless
_chemical_melting_point          98-99deg.C
_cell_formula_units_Z            2
loop_
_atom_site_label
_atom_site_type_symbol
_atom_site_fract_x
_atom_site_fract_y
_atom_site_fract_z
C1 C 0.7421(5) -0.0092(3) -0.2252(3)
H1 H 0.7664 -0.0493 -0.1976
C2 C 0.6830(4) -0.0447(3) -0.3130(3)
H2 H 0.6672 -0.1086 -0.3455
C3 C 0.6480(4) 0.0140(3) -0.3520(3)
H3 H 0.6077 -0.0095 -0.4120
C4 C 0.6714(4) 0.1086(3) -0.3039(2)
H4 H 0.6455 0.1477 -0.3321
O1 O 1.1903(2) 0.52627(15) 0.28108(12)
H5 H 1.1899 0.5584 0.2467
O2 O 0.7981(2) 0.32317(15) -0.20890(13)
H6 H 0.8447 0.3115 -0.2286
C5 C 1.1716(4) 0.4267(2) 0.23742(17)
C6 C 1.0774(3) 0.3880(2) 0.1492(2)
C7 C 1.0025(3) 0.3574(3) 0.0782(2)
C8 C 0.9164(3) 0.3211(2) -0.0041(2)
C9 C 0.8425(3) 0.2895(2) -0.0757(2)
C10 C 0.7530(4) 0.2517(2) -0.16510(17)
C11 C 1.1189(4) 0.3588(2) 0.2898(2)
C12 C 1.1382(4) 0.2761(3) 0.2929(3)
H7 H 1.1844 0.2611 0.2640
C13 C 1.0881(5) 0.2151(4) 0.3397(4)
H8 H 1.1008 0.1590 0.3414
C14 C 1.0218(6) 0.2360(4) 0.3825(4)
H9 H 0.9899 0.1948 0.4139
C15 C 1.0014(5) 0.3165(4) 0.3801(3)
H10 H 0.9554 0.3308 0.4097
C16 C 1.0497(4) 0.3778(3) 0.3331(3)
H11 H 1.0347 0.4327 0.3310
C17 C 1.2897(4) 0.4322(2) 0.2341(2)
C18 C 1.2970(6) 0.3772(4) 0.1628(3)
H12 H 1.2277 0.3362 0.1133
C19 C 1.4047(7) 0.3823(5) 0.1641(3)
H13 H 1.4077 0.3440 0.1156
C20 C 1.5086(5) 0.4429(4) 0.2357(4)
H14 H 1.5820 0.4465 0.2362
C21 C 1.5012(6) 0.4976(3) 0.3059(3)
H15 H 1.5709 0.5389 0.3552
C22 C 1.3937(5) 0.4932(3) 0.3059(2)
H16 H 1.3911 0.5317 0.3547
C23 C 0.6345(4) 0.2463(2) -0.16346(18)
C24 C 0.5805(5) 0.1953(3) -0.1143(3)
H17 H 0.6192 0.1676 -0.0801
C25 C 0.4702(6) 0.1841(4) -0.1146(3)
H18 H 0.4347 0.1481 -0.0813
C26 C 0.4110(4) 0.2254(3) -0.1634(3)
H19 H 0.3367 0.2187 -0.1629
C27 C 0.4652(6) 0.2764(3) -0.2125(3)
H20 H 0.4268 0.3044 -0.2464
C28 C 0.5752(5) 0.2871(3) -0.2125(2)
H21 H 0.6104 0.3226 -0.2462
C29 C 0.7317(3) 0.1466(2) -0.21555(19)
C30 C 0.7664(4) 0.0868(3) -0.1762(2)
H22 H 0.8066 0.1101 -0.1162
C31 C 0.0750(4) 0.3504(2) 0.71528(19)
C32 C 0.1206(3) 0.4215(2) 0.66755(19)
C33 C 0.1541(3) 0.4804(2) 0.6300(2)
C34 C 0.1968(3) 0.5499(2) 0.5889(2)
C35 C 0.2355(3) 0.6113(2) 0.55449(19)
C36 C 0.2862(4) 0.6879(2) 0.51216(17)
C37 C 0.1569(4) 0.4009(2) 0.8115(2)
C38 C 0.2596(5) 0.3930(4) 0.8408(3)
H23 H 0.2797 0.3565 0.8021
C39 C 0.3344(5) 0.4383(5) 0.9272(3)
H24 H 0.4035 0.4309 0.9462
C40 C 0.3091(5) 0.4934(4) 0.9850(3)
H25 H 0.3610 0.5252 1.0430
C41 C 0.2081(5) 0.5010(4) 0.9569(3)
H26 H 0.1885 0.5373 0.9962
C42 C 0.1315(4) 0.4558(3) 0.8702(2)
H27 H 0.0622 0.4631 0.8519
C43 C 0.0683(3) 0.2479(2) 0.67731(19)
C44 C 0.1305(4) 0.2340(3) 0.6272(2)
H28 H 0.1759 0.2882 0.6113
C45 C 0.1286(4) 0.1407(3) 0.5988(3)
H29 H 0.1741 0.1335 0.5659
C46 C 0.0600(5) 0.0608(3) 0.6194(3)
H30 H 0.0584 -0.0018 0.6011
C47 C -0.0063(5) 0.0725(3) 0.6669(4)
H31 H -0.0549 0.0171 0.6800
C48 C -0.0029(4) 0.1653(3) 0.6960(3)
H32 H -0.0491 0.1720 0.7286
C49 C 0.2958(3) 0.7895(2) 0.56056(19)
C50 C 0.3514(4) 0.8298(3) 0.6492(2)
H33 H 0.3807 0.7944 0.6803
C51 C 0.3644(5) 0.9233(3) 0.6932(3)
H34 H 0.4016 0.9496 0.7535
C52 C 0.3235(5) 0.9766(3) 0.6491(3)
H35 H 0.3332 1.0394 0.6788
C53 C 0.2686(5) 0.9375(3) 0.5618(3)
H36 H 0.2396 0.9735 0.5314
C54 C 0.2546(4) 0.8442(3) 0.5167(2)
H37 H 0.2172 0.8187 0.4563
C55 C 0.4074(4) 0.7006(2) 0.50970(18)
C56 C 0.4673(5) 0.6552(3) 0.5503(2)
H38 H 0.4342 0.6153 0.5822
C57 C 0.5762(5) 0.6679(3) 0.5447(3)
H39 H 0.6158 0.6366 0.5729
C58 C 0.6266(4) 0.7259(3) 0.4982(3)
H40 H 0.6996 0.7339 0.4939
C59 C 0.5670(5) 0.7722(3) 0.4581(2)
H41 H 0.6002 0.8123 0.4263
C60 C 0.4591(5) 0.7600(3) 0.4641(2)
H42 H 0.4203 0.7924 0.4368
O3 O -0.0429(3) 0.33589(16) 0.71024(13)
H43 H -0.0766 0.3420 0.6646
O4 O 0.2013(2) 0.65423(15) 0.42518(12)
H44 H 0.2149 0.6166 0.3924
C61 C 0.2647(12) 0.9326(7) 0.9265(8)
C62 C 0.1775(9) 0.9349(10) 0.8679(7)
H45 H 0.1419 0.8885 0.8119
C63 C 0.1372(9) 1.0066(11) 0.8888(7)
H46 H 0.0732 1.0062 0.8478
C64 C 0.1924(9) 1.0752(8) 0.9685(6)
C65 C 0.2842(10) 1.0749(6) 1.0263(5)
H47 H 0.3213 1.1228 1.0816
C66 C 0.3257(8) 1.0071(8) 1.0071(6)
H48 H 0.3931 1.0108 1.0472
C67 C 0.3258(9) 0.8601(10) 0.9124(6)
H49 H 0.4033 0.8788 0.9496
C68 C 0.2755(9) 0.7896(8) 0.8593(5)
H50 H 0.1977 0.7708 0.8227
C69 C 0.3387(9) 0.7136(6) 0.8428(5)
H51 H 0.2817 0.6527 0.7947
H52 H 0.3610 0.6957 0.8942
H53 H 0.4094 0.7488 0.8301
C70 C 0.0665(10) 1.1503(11) 0.9457(10)
H54 H 0.0556 1.2051 0.9744
H55 H -0.0041 1.0866 0.9318
H56 H 0.0786 1.1594 0.8932
O5 O 0.1638(7) 1.1499(6) 0.9988(5)
loop_
_geom_bond_atom_site_label_1
_geom_bond_atom_site_label_2
_geom_bond_site_symmetry_1
_geom_bond_site_symmetry_2
C1 H1 1_555 1_555
C2 C1 1_555 1_555
H2 C2 1_555 1_555
C3 C2 1_555 1_555
H3 C3 1_555 1_555
C4 C3 1_555 1_555
H4 C4 1_555 1_555
O1 H5 1_555 1_555
O2 H6 1_555 1_555
C5 O1 1_555 1_555
C6 C5 1_555 1_555
C7 C6 1_555 1_555
C8 C7 1_555 1_555
C9 C8 1_555 1_555
C10 O2 1_555 1_555
C11 C5 1_555 1_555
C12 C11 1_555 1_555
H7 C12 1_555 1_555
C13 C12 1_555 1_555
H8 C13 1_555 1_555
C14 C13 1_555 1_555
H9 C14 1_555 1_555
C15 C14 1_555 1_555
H10 C15 1_555 1_555
C16 C11 1_555 1_555
H11 C16 1_555 1_555
C17 C5 1_555 1_555
C18 C17 1_555 1_555
H12 C18 1_555 1_555
C19 C18 1_555 1_555
H13 C19 1_555 1_555
C20 C19 1_555 1_555
H14 C20 1_555 1_555
C21 C20 1_555 1_555
H15 C21 1_555 1_555
C22 C17 1_555 1_555
H16 C22 1_555 1_555
C23 C10 1_555 1_555
C24 C23 1_555 1_555
H17 C24 1_555 1_555
C25 C24 1_555 1_555
H18 C25 1_555 1_555
C26 C25 1_555 1_555
H19 C26 1_555 1_555
C27 C26 1_555 1_555
H20 C27 1_555 1_555
C28 C23 1_555 1_555
H21 C28 1_555 1_555
C29 C4 1_555 1_555
C30 C1 1_555 1_555
H22 C30 1_555 1_555
C31 C32 1_555 1_555
C32 C33 1_555 1_555
C33 C34 1_555 1_555
C34 C35 1_555 1_555
C35 C36 1_555 1_555
C36 C49 1_555 1_555
C37 C31 1_555 1_555
C38 C37 1_555 1_555
H23 C38 1_555 1_555
C39 C38 1_555 1_555
H24 C39 1_555 1_555
C40 C39 1_555 1_555
H25 C40 1_555 1_555
C41 C40 1_555 1_555
H26 C41 1_555 1_555
C42 C37 1_555 1_555
H27 C42 1_555 1_555
C43 C31 1_555 1_555
C44 C43 1_555 1_555
H28 C44 1_555 1_555
C45 C44 1_555 1_555
H29 C45 1_555 1_555
C46 C45 1_555 1_555
H30 C46 1_555 1_555
C47 C46 1_555 1_555
H31 C47 1_555 1_555
C48 C43 1_555 1_555
H32 C48 1_555 1_555
C49 C50 1_555 1_555
C50 H33 1_555 1_555
C51 C50 1_555 1_555
H34 C51 1_555 1_555
C52 C51 1_555 1_555
H35 C52 1_555 1_555
C53 C52 1_555 1_555
H36 C53 1_555 1_555
C54 C49 1_555 1_555
H37 C54 1_555 1_555
C55 C36 1_555 1_555
C56 C55 1_555 1_555
H38 C56 1_555 1_555
C57 C56 1_555 1_555
H39 C57 1_555 1_555
C58 C57 1_555 1_555
H40 C58 1_555 1_555
C59 C58 1_555 1_555
H41 C59 1_555 1_555
C60 C55 1_555 1_555
H42 C60 1_555 1_555
O3 C31 1_555 1_555
H43 O3 1_555 1_555
O4 C36 1_555 1_555
H44 O4 1_555 1_555
C61 C62 1_555 1_555
C62 H45 1_555 1_555
C63 C62 1_555 1_555
H46 C63 1_555 1_555
C64 C63 1_555 1_555
C65 C64 1_555 1_555
H47 C65 1_555 1_555
C66 C61 1_555 1_555
H48 C66 1_555 1_555
C67 C61 1_555 1_555
H49 C67 1_555 1_555
C68 C67 1_555 1_555
H50 C68 1_555 1_555
C69 C68 1_555 1_555
H51 C69 1_555 1_555
H52 C69 1_555 1_555
H53 C69 1_555 1_555
C70 H54 1_555 1_555
H55 C70 1_555 1_555
H56 C70 1_555 1_555
O5 C64 1_555 1_555
C9 C10 1_555 1_555
C10 C29 1_555 1_555
C15 C16 1_555 1_555
C21 C22 1_555 1_555
C27 C28 1_555 1_555
C29 C30 1_555 1_555
C41 C42 1_555 1_555
C47 C48 1_555 1_555
C53 C54 1_555 1_555
C59 C60 1_555 1_555
C65 C66 1_555 1_555
C70 O5 1_555 1_555

#END
