
#######################################################################
#
#                 Cambridge Crystallographic Data Centre
#                                CCDC 
#
#######################################################################
#
# If this CIF has been generated from an entry in the Cambridge 
# Structural Database, then it will include bibliographic, chemical, 
# crystal, experimental, refinement or atomic coordinate data resulting 
# from the CCDC's data processing and validation procedures.
#
#######################################################################

data_XONJUH
_chemical_formula_moiety         'C34 H34 F2 N2'
_chemical_name_systematic        
N,N'-bis(4-fluoro-2-methyl-6-(1-phenylethyl)phenyl)butane-2,3-diimine
_symmetry_cell_setting           monoclinic
_symmetry_space_group_name_H-M   'P 21/n'
_symmetry_Int_Tables_number      14
_space_group_name_Hall           '-P 2yn'
loop_
_symmetry_equiv_pos_site_id
_symmetry_equiv_pos_as_xyz
1 x,y,z
2 1/2-x,1/2+y,1/2-z
3 -x,-y,-z
4 1/2+x,1/2-y,1/2+z
_cell_length_a                   11.166(15)
_cell_length_b                   9.586(12)
_cell_length_c                   13.469(18)
_cell_angle_alpha                90
_cell_angle_beta                 94.160(13)
_cell_angle_gamma                90
_cell_volume                     1437.89
_exptl_crystal_colour            yellow
_exptl_crystal_description       block
_cell_formula_units_Z            2
_exptl_crystal_recrystallization_method dichloromethane/n-hexane
loop_
_atom_site_label
_atom_site_type_symbol
_atom_site_fract_x
_atom_site_fract_y
_atom_site_fract_z
C1 C 0.73151(17) 0.1766(2) 0.19542(15)
C2 C 0.82984(18) 0.2595(2) 0.22410(17)
H1 H 0.8342 0.3057 0.2850
C3 C 0.91997(18) 0.2721(2) 0.16169(19)
C4 C 0.9190(2) 0.2069(3) 0.07232(19)
H2 H 0.9829 0.2182 0.0325
C5 C 0.82252(19) 0.1234(2) 0.04064(16)
C6 C 0.72828(17) 0.1100(2) 0.10275(14)
C7 C 0.62787(18) 0.1577(2) 0.26081(15)
H3 H 0.6004 0.0611 0.2518
C8 C 0.52249(18) 0.2500(2) 0.22781(15)
C9 C 0.5365(2) 0.3907(3) 0.21231(19)
H4 H 0.6124 0.4305 0.2220
C10 C 0.4393(3) 0.4735(3) 0.1826(2)
H5 H 0.4501 0.5685 0.1728
C11 C 0.3270(3) 0.4161(4) 0.1676(2)
H6 H 0.2619 0.4715 0.1459
C12 C 0.3112(2) 0.2777(3) 0.1846(2)
H7 H 0.2349 0.2386 0.1763
C13 C 0.4086(2) 0.1955(3) 0.2142(2)
H8 H 0.3970 0.1009 0.2253
C14 C 0.8208(3) 0.0488(3) -0.05751(19)
H9 H 0.7988 -0.0470 -0.0487
H10 H 0.8991 0.0532 -0.0825
H11 H 0.7634 0.0924 -0.1041
C15 C 0.54745(18) 0.0535(2) 0.01311(14)
C16 C 0.5335(2) 0.1933(2) -0.03533(18)
H12 H 0.5958 0.2545 -0.0084
H13 H 0.4566 0.2316 -0.0229
H14 H 0.5393 0.1837 -0.1058
C17 C 0.6639(2) 0.1761(3) 0.37222(17)
H15 H 0.7336 0.1205 0.3903
H16 H 0.5989 0.1469 0.4103
H17 H 0.6817 0.2725 0.3858
N1 N 0.63251(14) 0.01706(18) 0.07559(12)
F1 F 1.01718(11) 0.35208(16) 0.19151(13)
C1B C 0.26849(17) -0.1766(2) -0.19542(15)
C2B C 0.17016(18) -0.2595(2) -0.22410(17)
H1B H 0.1658 -0.3057 -0.2850
C3B C 0.08003(18) -0.2721(2) -0.16169(19)
C4B C 0.0810(2) -0.2069(3) -0.07232(19)
H2B H 0.0171 -0.2182 -0.0325
C5B C 0.17748(19) -0.1234(2) -0.04064(16)
C6B C 0.27172(17) -0.1100(2) -0.10275(14)
C7B C 0.37213(18) -0.1577(2) -0.26081(15)
H3B H 0.3996 -0.0611 -0.2518
C8B C 0.47751(18) -0.2500(2) -0.22781(15)
C9B C 0.4635(2) -0.3907(3) -0.21231(19)
H4B H 0.3876 -0.4305 -0.2220
C10B C 0.5607(3) -0.4735(3) -0.1826(2)
H5B H 0.5499 -0.5685 -0.1728
C11B C 0.6730(3) -0.4161(4) -0.1676(2)
H6B H 0.7381 -0.4715 -0.1459
C12B C 0.6888(2) -0.2777(3) -0.1846(2)
H7B H 0.7651 -0.2386 -0.1763
C13B C 0.5914(2) -0.1955(3) -0.2142(2)
H8B H 0.6030 -0.1009 -0.2253
C14B C 0.1792(3) -0.0488(3) 0.05751(19)
H9B H 0.2012 0.0470 0.0487
H10B H 0.1009 -0.0532 0.0825
H11B H 0.2366 -0.0924 0.1041
C15B C 0.45255(18) -0.0535(2) -0.01311(14)
C16B C 0.4665(2) -0.1933(2) 0.03533(18)
H12B H 0.4042 -0.2545 0.0084
H13B H 0.5434 -0.2316 0.0229
H14B H 0.4607 -0.1837 0.1058
C17B C 0.3361(2) -0.1761(3) -0.37222(17)
H15B H 0.2664 -0.1205 -0.3903
H16B H 0.4011 -0.1469 -0.4103
H17B H 0.3183 -0.2725 -0.3858
N1B N 0.36749(14) -0.01706(18) -0.07559(12)
F1B F -0.01718(11) -0.35208(16) -0.19151(13)
loop_
_geom_bond_atom_site_label_1
_geom_bond_atom_site_label_2
_geom_bond_site_symmetry_1
_geom_bond_site_symmetry_2
C1 C2 1_555 1_555
C2 H1 1_555 1_555
C3 C2 1_555 1_555
C4 C3 1_555 1_555
H2 C4 1_555 1_555
C5 C4 1_555 1_555
C6 C1 1_555 1_555
C7 C1 1_555 1_555
H3 C7 1_555 1_555
C8 C7 1_555 1_555
C9 C8 1_555 1_555
H4 C9 1_555 1_555
C10 C9 1_555 1_555
H5 C10 1_555 1_555
C11 C10 1_555 1_555
H6 C11 1_555 1_555
C12 C11 1_555 1_555
H7 C12 1_555 1_555
C13 C8 1_555 1_555
H8 C13 1_555 1_555
C14 C5 1_555 1_555
H9 C14 1_555 1_555
H10 C14 1_555 1_555
H11 C14 1_555 1_555
C15 C16 1_555 1_555
C16 H12 1_555 1_555
H13 C16 1_555 1_555
H14 C16 1_555 1_555
C17 C7 1_555 1_555
H15 C17 1_555 1_555
H16 C17 1_555 1_555
H17 C17 1_555 1_555
N1 C6 1_555 1_555
F1 C3 1_555 1_555
C1B C2B 1_555 1_555
C2B H1B 1_555 1_555
C3B C2B 1_555 1_555
C4B C3B 1_555 1_555
H2B C4B 1_555 1_555
C5B C4B 1_555 1_555
C6B C1B 1_555 1_555
C7B C1B 1_555 1_555
H3B C7B 1_555 1_555
C8B C7B 1_555 1_555
C9B C8B 1_555 1_555
H4B C9B 1_555 1_555
C10B C9B 1_555 1_555
H5B C10B 1_555 1_555
C11B C10B 1_555 1_555
H6B C11B 1_555 1_555
C12B C11B 1_555 1_555
H7B C12B 1_555 1_555
C13B C8B 1_555 1_555
H8B C13B 1_555 1_555
C14B C5B 1_555 1_555
H9B C14B 1_555 1_555
H10B C14B 1_555 1_555
H11B C14B 1_555 1_555
C15B C15 1_555 1_555
C16B C15B 1_555 1_555
H12B C16B 1_555 1_555
H13B C16B 1_555 1_555
H14B C16B 1_555 1_555
C17B C7B 1_555 1_555
H15B C17B 1_555 1_555
H16B C17B 1_555 1_555
H17B C17B 1_555 1_555
N1B C6B 1_555 1_555
F1B C3B 1_555 1_555
C5 C6 1_555 1_555
C12 C13 1_555 1_555
C15 N1 1_555 1_555
C5B C6B 1_555 1_555
C12B C13B 1_555 1_555
C15B N1B 1_555 1_555

#END
