
#######################################################################
#
#                 Cambridge Crystallographic Data Centre
#                                CCDC 
#
#######################################################################
#
# If this CIF has been generated from an entry in the Cambridge 
# Structural Database, then it will include bibliographic, chemical, 
# crystal, experimental, refinement or atomic coordinate data resulting 
# from the CCDC's data processing and validation procedures.
#
#######################################################################

data_XOPDEM
_chemical_formula_moiety         'C54 H54'
_chemical_name_systematic        
(8\b,8a\a)-5,7-Dimethyl-1,2,3,8,8a-pentakis(3,5-dimethylphenyl)-8,8a-dihydrocyclopenta(a)indene
_symmetry_cell_setting           monoclinic
_symmetry_space_group_name_H-M   'C 2/c'
_symmetry_Int_Tables_number      15
_space_group_name_Hall           '-C 2yn'
loop_
_symmetry_equiv_pos_site_id
_symmetry_equiv_pos_as_xyz
1 x,y,z
2 1/2+x,1/2+y,z
3 -x,y,1/2-z
4 1/2-x,1/2+y,1/2-z
5 -x,-y,-z
6 1/2-x,1/2-y,-z
7 x,-y,1/2+z
8 1/2+x,1/2-y,1/2+z
_cell_length_a                   22.8764(15)
_cell_length_b                   17.7788(11)
_cell_length_c                   22.9868(14)
_cell_angle_alpha                90
_cell_angle_beta                 112.624(4)
_cell_angle_gamma                90
_cell_volume                     8629.66
_exptl_crystal_colour            colorless
_exptl_crystal_description       Columnar
_cell_formula_units_Z            8
loop_
_atom_site_label
_atom_site_type_symbol
_atom_site_fract_x
_atom_site_fract_y
_atom_site_fract_z
C1 C 0.06833(10) 0.71378(11) 0.08105(10)
C2 C 0.12467(10) 0.73895(11) 0.13894(11)
C3 C 0.15943(10) 0.78866(11) 0.12040(11)
C4 C 0.13015(11) 0.80050(11) 0.05166(11)
C5 C 0.07770(11) 0.75714(11) 0.02853(11)
C6 C 0.01770(12) 0.75805(11) -0.02618(12)
C7 C 0.00300(14) 0.76898(13) -0.08988(13)
H1 H 0.0349 0.7793 -0.1043
C8 C -0.05937(17) 0.76448(14) -0.13206(14)
C9 C -0.10576(16) 0.74965(14) -0.10873(17)
H2 H -0.1475 0.7457 -0.1373
C10 C -0.09344(13) 0.74033(12) -0.04510(15)
C11 C -0.03017(12) 0.74403(11) -0.00348(13)
C12 C -0.00236(11) 0.73813(11) 0.06829(12)
H3 H -0.0235 0.6973 0.0812
C13 C 0.07186(10) 0.62816(11) 0.07253(11)
C14 C 0.10695(11) 0.59895(12) 0.04047(11)
H4 H 0.1282 0.6318 0.0238
C15 C 0.11149(12) 0.52197(13) 0.03238(12)
C16 C 0.08015(12) 0.47359(12) 0.05805(12)
H5 H 0.0824 0.4220 0.0524
C17 C 0.04596(10) 0.49966(12) 0.09161(12)
C18 C 0.04228(10) 0.57726(11) 0.09863(11)
H6 H 0.0194 0.5956 0.1214
C19 C 0.14947(16) 0.49187(16) -0.00331(16)
H7 H 0.1802 0.4565 0.0226
H8 H 0.1708 0.5326 -0.0143
H9 H 0.1217 0.4672 -0.0410
C20 C 0.01354(13) 0.44635(13) 0.12025(14)
H10 H -0.0309 0.4446 0.0944
H11 H 0.0193 0.4634 0.1617
H12 H 0.0315 0.3970 0.1229
C21 C 0.14602(10) 0.69756(11) 0.19960(11)
C22 C 0.20705(11) 0.66760(12) 0.22460(12)
H13 H 0.2350 0.6790 0.2053
C23 C 0.22757(12) 0.62149(12) 0.27717(12)
C24 C 0.18575(12) 0.60555(14) 0.30575(12)
H14 H 0.1989 0.5746 0.3411
C25 C 0.12459(13) 0.63454(13) 0.28325(12)
C26 C 0.10551(11) 0.68062(12) 0.23006(12)
H15 H 0.0648 0.7005 0.2146
C27 C 0.29288(13) 0.58692(16) 0.30152(15)
H16 H 0.3198 0.6137 0.3384
H17 H 0.3102 0.5900 0.2696
H18 H 0.2902 0.5352 0.3121
C28 C 0.08019(15) 0.61348(18) 0.31505(16)
H19 H 0.0666 0.5623 0.3050
H20 H 0.0440 0.6461 0.3005
H21 H 0.1017 0.6186 0.3599
C29 C 0.21752(10) 0.82832(11) 0.16163(11)
C30 C 0.26963(12) 0.83600(13) 0.14473(13)
H22 H 0.2684 0.8147 0.1073
C31 C 0.32302(12) 0.87485(16) 0.18281(17)
C32 C 0.32342(14) 0.90672(16) 0.23801(16)
H23 H 0.3590 0.9335 0.2634
C33 C 0.27314(13) 0.90031(15) 0.25684(14)
C34 C 0.22045(12) 0.86084(13) 0.21783(12)
H24 H 0.1860 0.8559 0.2295
C35 C 0.37951(15) 0.8824(2) 0.16435(19)
H25 H 0.4039 0.9257 0.1847
H26 H 0.3651 0.8882 0.1195
H27 H 0.4054 0.8382 0.1771
C36 C 0.27457(18) 0.9359(2) 0.31697(16)
H28 H 0.2843 0.8982 0.3493
H29 H 0.2339 0.9575 0.3098
H30 H 0.3064 0.9744 0.3301
C37 C 0.14856(11) 0.85814(12) 0.01490(11)
C38 C 0.15914(13) 0.83807(13) -0.03824(12)
H31 H 0.1567 0.7877 -0.0498
C39 C 0.17345(15) 0.89187(15) -0.07506(14)
C40 C 0.17648(13) 0.96591(14) -0.05711(14)
H32 H 0.1854 1.0022 -0.0817
C41 C 0.16682(12) 0.98877(12) -0.00383(12)
C42 C 0.15364(12) 0.93334(12) 0.03213(12)
H33 H 0.1481 0.9471 0.0687
C43 C 0.16924(16) 1.07065(14) 0.01284(15)
H34 H 0.2095 1.0820 0.0456
H35 H 0.1360 1.0819 0.0273
H36 H 0.1638 1.1005 -0.0237
C44 C 0.1850(2) 0.8690(2) -0.13336(18)
H37 H 0.1551 0.8941 -0.1696
H38 H 0.1799 0.8156 -0.1391
H39 H 0.2272 0.8828 -0.1283
C45 C -0.07568(18) 0.77444(19) -0.20208(15)
H40 H -0.1202 0.7659 -0.2247
H41 H -0.0520 0.7391 -0.2158
H42 H -0.0653 0.8247 -0.2100
C46 C -0.14567(13) 0.72681(15) -0.02160(17)
H43 H -0.1367 0.6820 0.0036
H44 H -0.1852 0.7210 -0.0569
H45 H -0.1484 0.7689 0.0034
C47 C -0.01060(11) 0.81175(12) 0.09925(12)
C48 C 0.01148(12) 0.88041(12) 0.08656(14)
H46 H 0.0338 0.8817 0.0602
C49 C 0.00064(13) 0.94760(13) 0.11287(15)
C50 C -0.03404(14) 0.94439(15) 0.15069(14)
H47 H -0.0417 0.9886 0.1682
C51 C -0.05765(14) 0.87731(16) 0.16322(14)
C52 C -0.04495(13) 0.81188(14) 0.13710(13)
H48 H -0.0602 0.7664 0.1455
C53 C 0.02436(18) 1.02174(15) 0.0988(2)
H49 H -0.0066 1.0601 0.0943
H50 H 0.0315 1.0177 0.0605
H51 H 0.0633 1.0347 0.1328
C54 C -0.09710(17) 0.8758(2) 0.20269(17)
H52 H -0.1053 0.9264 0.2121
H53 H -0.0746 0.8494 0.2413
H54 H -0.1365 0.8508 0.1799
loop_
_geom_bond_atom_site_label_1
_geom_bond_atom_site_label_2
_geom_bond_site_symmetry_1
_geom_bond_site_symmetry_2
C1 C2 1_555 1_555
C2 C3 1_555 1_555
C3 C4 1_555 1_555
C4 C5 1_555 1_555
C5 C1 1_555 1_555
C6 C5 1_555 1_555
C7 C6 1_555 1_555
H1 C7 1_555 1_555
C8 C7 1_555 1_555
C9 C8 1_555 1_555
H2 C9 1_555 1_555
C10 C9 1_555 1_555
C11 C6 1_555 1_555
C12 C1 1_555 1_555
H3 C12 1_555 1_555
C13 C1 1_555 1_555
C14 C13 1_555 1_555
H4 C14 1_555 1_555
C15 C14 1_555 1_555
C16 C15 1_555 1_555
H5 C16 1_555 1_555
C17 C16 1_555 1_555
C18 C13 1_555 1_555
H6 C18 1_555 1_555
C19 C15 1_555 1_555
H7 C19 1_555 1_555
H8 C19 1_555 1_555
H9 C19 1_555 1_555
C20 C17 1_555 1_555
H10 C20 1_555 1_555
H11 C20 1_555 1_555
H12 C20 1_555 1_555
C21 C2 1_555 1_555
C22 C21 1_555 1_555
H13 C22 1_555 1_555
C23 C22 1_555 1_555
C24 C23 1_555 1_555
H14 C24 1_555 1_555
C25 C24 1_555 1_555
C26 C21 1_555 1_555
H15 C26 1_555 1_555
C27 C23 1_555 1_555
H16 C27 1_555 1_555
H17 C27 1_555 1_555
H18 C27 1_555 1_555
C28 C25 1_555 1_555
H19 C28 1_555 1_555
H20 C28 1_555 1_555
H21 C28 1_555 1_555
C29 C3 1_555 1_555
C30 C29 1_555 1_555
H22 C30 1_555 1_555
C31 C30 1_555 1_555
C32 C31 1_555 1_555
H23 C32 1_555 1_555
C33 C32 1_555 1_555
C34 C29 1_555 1_555
H24 C34 1_555 1_555
C35 C31 1_555 1_555
H25 C35 1_555 1_555
H26 C35 1_555 1_555
H27 C35 1_555 1_555
C36 C33 1_555 1_555
H28 C36 1_555 1_555
H29 C36 1_555 1_555
H30 C36 1_555 1_555
C37 C4 1_555 1_555
C38 C37 1_555 1_555
H31 C38 1_555 1_555
C39 C38 1_555 1_555
C40 C39 1_555 1_555
H32 C40 1_555 1_555
C41 C40 1_555 1_555
C42 C37 1_555 1_555
H33 C42 1_555 1_555
C43 C41 1_555 1_555
H34 C43 1_555 1_555
H35 C43 1_555 1_555
H36 C43 1_555 1_555
C44 C39 1_555 1_555
H37 C44 1_555 1_555
H38 C44 1_555 1_555
H39 C44 1_555 1_555
C45 C8 1_555 1_555
H40 C45 1_555 1_555
H41 C45 1_555 1_555
H42 C45 1_555 1_555
C46 C10 1_555 1_555
H43 C46 1_555 1_555
H44 C46 1_555 1_555
H45 C46 1_555 1_555
C47 C12 1_555 1_555
C48 C47 1_555 1_555
H46 C48 1_555 1_555
C49 C48 1_555 1_555
C50 C49 1_555 1_555
H47 C50 1_555 1_555
C51 C50 1_555 1_555
C52 C47 1_555 1_555
H48 C52 1_555 1_555
C53 C49 1_555 1_555
H49 C53 1_555 1_555
H50 C53 1_555 1_555
H51 C53 1_555 1_555
C54 C51 1_555 1_555
H52 C54 1_555 1_555
H53 C54 1_555 1_555
H54 C54 1_555 1_555
C10 C11 1_555 1_555
C11 C12 1_555 1_555
C17 C18 1_555 1_555
C25 C26 1_555 1_555
C33 C34 1_555 1_555
C41 C42 1_555 1_555
C51 C52 1_555 1_555

#END
