
#######################################################################
#
#                 Cambridge Crystallographic Data Centre
#                                CCDC 
#
#######################################################################
#
# If this CIF has been generated from an entry in the Cambridge 
# Structural Database, then it will include bibliographic, chemical, 
# crystal, experimental, refinement or atomic coordinate data resulting 
# from the CCDC's data processing and validation procedures.
#
#######################################################################

data_XOPPOI
_chemical_formula_moiety         'C26 H25 N1 O3 S1,0.25(C2 H6 O1)'
_chemical_name_systematic        
'3-Ethyl-1-((4-methylphenyl)sulfonyl)-4,6-diphenyl-3,4-dihydro-2(1H)-pyridinone unknown solvate'
_symmetry_cell_setting           monoclinic
_symmetry_space_group_name_H-M   'P 21'
_symmetry_Int_Tables_number      4
_space_group_name_Hall           'P 2yb'
loop_
_symmetry_equiv_pos_site_id
_symmetry_equiv_pos_as_xyz
1 x,y,z
2 -x,1/2+y,-z
_cell_length_a                   9.827(2)
_cell_length_b                   7.9082(16)
_cell_length_c                   16.378(3)
_cell_angle_alpha                90
_cell_angle_beta                 105.19(3)
_cell_angle_gamma                90
_cell_volume                     1228.33
_cell_formula_units_Z            2
loop_
_atom_site_label
_atom_site_type_symbol
_atom_site_fract_x
_atom_site_fract_y
_atom_site_fract_z
O4 O -0.0505(12) 0.9867(19) 0.4606(7)
C28 C 0.013(2) 1.158(2) 0.4954(17)
H30 H 0.0959 1.1424 0.4756
H31 H 0.0285 1.1107 0.5510
S1 S 0.18912(9) -0.07797(11) 0.26472(5)
O1 O 0.2042(3) -0.0180(3) 0.34911(15)
O2 O 0.0713(3) -0.1824(3) 0.22556(16)
O3 O 0.1298(3) -0.0442(3) 0.08152(15)
N1 N 0.1786(3) 0.1027(4) 0.20589(16)
C1 C 0.3458(4) -0.1787(4) 0.2597(2)
C2 C 0.4655(4) -0.1592(5) 0.3266(2)
H1 H 0.4623 -0.0927 0.3744
C3 C 0.5884(4) -0.2376(5) 0.3226(2)
H2 H 0.6698 -0.2258 0.3687
C4 C 0.5968(4) -0.3332(5) 0.2533(3)
C5 C 0.4747(5) -0.3545(5) 0.1874(3)
H3 H 0.4782 -0.4218 0.1400
C6 C 0.3489(4) -0.2794(5) 0.1900(2)
H4 H 0.2662 -0.2958 0.1453
C7 C 0.7340(5) -0.4125(8) 0.2495(3)
H5 H 0.8045 -0.3239 0.2518
H6 H 0.7202 -0.4762 0.1966
H7 H 0.7667 -0.4893 0.2977
C8 C 0.1232(3) 0.0883(5) 0.1171(2)
C9 C 0.0606(3) 0.2481(4) 0.0722(2)
H8 H -0.0101 0.2141 0.0188
C10 C -0.0187(4) 0.3473(4) 0.1268(2)
H9 H -0.0463 0.4592 0.0989
C11 C 0.0880(4) 0.3803(4) 0.2108(2)
H10 H 0.0853 0.4852 0.2386
C12 C 0.1847(4) 0.2670(5) 0.2465(2)
C13 C 0.1772(4) 0.3510(5) 0.0470(2)
H11 H 0.1445 0.4689 0.0345
H12 H 0.2623 0.3536 0.0954
C14 C 0.2157(4) 0.2772(5) -0.0297(2)
H13 H 0.2493 0.1609 -0.0174
H14 H 0.2903 0.3457 -0.0430
H15 H 0.1324 0.2775 -0.0782
C15 C -0.1522(4) 0.2583(5) 0.1320(2)
C16 C -0.2698(4) 0.2676(5) 0.0629(2)
H16 H -0.2639 0.3277 0.0137
C17 C -0.3971(4) 0.1893(6) 0.0649(3)
H17 H -0.4770 0.1975 0.0176
C18 C -0.4060(5) 0.0996(6) 0.1365(3)
H18 H -0.4916 0.0457 0.1383
C19 C -0.2893(5) 0.0898(6) 0.2045(3)
H19 H -0.2950 0.0284 0.2534
C20 C -0.1635(4) 0.1680(5) 0.2031(3)
H20 H -0.0844 0.1599 0.2509
C21 C 0.3080(4) 0.3063(5) 0.3175(2)
C22 C 0.2919(5) 0.4076(6) 0.3848(2)
H21 H 0.2004 0.4413 0.3875
C23 C 0.4087(5) 0.4583(6) 0.4471(2)
H22 H 0.3970 0.5277 0.4921
C24 C 0.5435(5) 0.4087(6) 0.4447(2)
H23 H 0.6237 0.4436 0.4877
C25 C 0.5589(4) 0.3080(6) 0.3787(2)
H24 H 0.6504 0.2730 0.3767
C26 C 0.4436(4) 0.2579(5) 0.3162(2)
H25 H 0.4565 0.1891 0.2712
H26? H 0.0015 1.0733 0.4750
C27? C 0.0176(16) 0.847(2) 0.5013(12)
H27? H 0.0403 0.8796 0.5598
H28? H 0.1058 0.8487 0.4864
H29? H 0.0656 0.6030 0.5424
loop_
_geom_bond_atom_site_label_1
_geom_bond_atom_site_label_2
_geom_bond_site_symmetry_1
_geom_bond_site_symmetry_2
S1 O1 1_555 1_555
O2 S1 1_555 1_555
O3 C8 1_555 1_555
N1 S1 1_555 1_555
C1 S1 1_555 1_555
C2 C1 1_555 1_555
H1 C2 1_555 1_555
C3 C2 1_555 1_555
H2 C3 1_555 1_555
C4 C3 1_555 1_555
C5 C4 1_555 1_555
H3 C5 1_555 1_555
C6 C1 1_555 1_555
H4 C6 1_555 1_555
C7 C4 1_555 1_555
H5 C7 1_555 1_555
H6 C7 1_555 1_555
H7 C7 1_555 1_555
C8 N1 1_555 1_555
C9 C8 1_555 1_555
H8 C9 1_555 1_555
C10 C9 1_555 1_555
H9 C10 1_555 1_555
C11 C10 1_555 1_555
H10 C11 1_555 1_555
C12 N1 1_555 1_555
C13 C9 1_555 1_555
H11 C13 1_555 1_555
H12 C13 1_555 1_555
C14 C13 1_555 1_555
H13 C14 1_555 1_555
H14 C14 1_555 1_555
H15 C14 1_555 1_555
C15 C10 1_555 1_555
C16 C15 1_555 1_555
H16 C16 1_555 1_555
C17 C16 1_555 1_555
H17 C17 1_555 1_555
C18 C17 1_555 1_555
H18 C18 1_555 1_555
C19 C18 1_555 1_555
H19 C19 1_555 1_555
C20 C15 1_555 1_555
H20 C20 1_555 1_555
C21 C12 1_555 1_555
C22 C21 1_555 1_555
H21 C22 1_555 1_555
C23 C22 1_555 1_555
H22 C23 1_555 1_555
C24 C23 1_555 1_555
H23 C24 1_555 1_555
C25 C24 1_555 1_555
H24 C25 1_555 1_555
C26 C21 1_555 1_555
H25 C26 1_555 1_555
O4 C28 1_555 1_555
C28 H30 1_555 1_555
H31 C28 1_555 1_555
C5 C6 1_555 1_555
C11 C12 1_555 1_555
C19 C20 1_555 1_555
C25 C26 1_555 1_555

#END
