
#######################################################################
#
#                 Cambridge Crystallographic Data Centre
#                                CCDC 
#
#######################################################################
#
# If this CIF has been generated from an entry in the Cambridge 
# Structural Database, then it will include bibliographic, chemical, 
# crystal, experimental, refinement or atomic coordinate data resulting 
# from the CCDC's data processing and validation procedures.
#
#######################################################################

data_XOQKUK
_chemical_formula_moiety         'C17 H23 N1 O2'
_chemical_name_systematic        
(+/-)-2-((1S,3S)-3-Acetyl-2,2-dimethylcyclobutyl)-N-(p-tolyl)acetamide
_symmetry_cell_setting           triclinic
_symmetry_space_group_name_H-M   'P -1'
_symmetry_Int_Tables_number      2
_space_group_name_Hall           '-P 1'
loop_
_symmetry_equiv_pos_site_id
_symmetry_equiv_pos_as_xyz
1 x,y,z
2 -x,-y,-z
_cell_length_a                   8.8700(18)
_cell_length_b                   10.331(2)
_cell_length_c                   10.363(2)
_cell_angle_alpha                71.11(3)
_cell_angle_beta                 65.06(3)
_cell_angle_gamma                72.18(3)
_cell_volume                     798.634
_exptl_crystal_colour            colorless
_exptl_crystal_description       plate
_chemical_melting_point          '394 K'
_cell_formula_units_Z            2
_exptl_crystal_recrystallization_method ethanol
loop_
_atom_site_label
_atom_site_type_symbol
_atom_site_fract_x
_atom_site_fract_y
_atom_site_fract_z
N1 N 0.3234(5) 0.6395(4) 0.0637(4)
H1 H 0.3752 0.6578 0.1077
O1 O 0.5418(6) 1.2857(4) -0.2456(5)
C1 C 0.3229(9) 1.4145(6) -0.3357(8)
H2 H 0.3326 1.4893 -0.3057
H3 H 0.2094 1.3976 -0.2861
H4 H 0.3483 1.4395 -0.4393
O2 O 0.2766(6) 0.7079(4) -0.1481(5)
C2 C 0.4414(7) 1.2890(5) -0.2996(5)
C3 C 0.4445(6) 1.1576(5) -0.3355(5)
H5 H 0.4377 1.1798 -0.4325
C4 C 0.5792(7) 1.0297(5) -0.3200(6)
H6 H 0.6325 1.0282 -0.2547
H7 H 0.6640 1.0124 -0.4127
C5 C 0.4482(6) 0.9356(4) -0.2508(5)
H8 H 0.4424 0.9035 -0.3275
C6 C 0.3087(6) 1.0668(5) -0.2215(4)
C7 C 0.1510(8) 1.0865(6) -0.2596(8)
H9 H 0.0774 1.0262 -0.1854
H10 H 0.1861 1.0639 -0.3522
H11 H 0.0915 1.1818 -0.2647
C8 C 0.2509(8) 1.0889(6) -0.0676(5)
H12 H 0.3483 1.0747 -0.0425
H13 H 0.1805 1.0237 0.0008
H14 H 0.1876 1.1824 -0.0642
C9 C 0.4706(7) 0.8117(5) -0.1293(6)
H15 H 0.4617 0.8454 -0.0487
H16 H 0.5841 0.7568 -0.1640
C10 C 0.3432(6) 0.7168(5) -0.0723(6)
C11 C 0.2293(5) 0.5323(4) 0.1448(4)
C12 C 0.2011(7) 0.4879(5) 0.2908(5)
H17 H 0.2425 0.5295 0.3330
C13 C 0.1117(7) 0.3817(5) 0.3776(5)
H18 H 0.0969 0.3519 0.4762
C14 C 0.0448(5) 0.3200(4) 0.3194(5)
C15 C 0.0731(6) 0.3670(4) 0.1715(5)
H19 H 0.0300 0.3269 0.1293
C16 C 0.1633(6) 0.4717(4) 0.0844(5)
H20 H 0.1795 0.5013 -0.0145
C17 C -0.0549(7) 0.2065(5) 0.4120(6)
H21 H -0.0627 0.1885 0.5113
H22 H 0.0012 0.1230 0.3758
H23 H -0.1668 0.2357 0.4080
loop_
_geom_bond_atom_site_label_1
_geom_bond_atom_site_label_2
_geom_bond_site_symmetry_1
_geom_bond_site_symmetry_2
N1 H1 1_555 1_555
O1 C2 1_555 1_555
C1 H2 1_555 1_555
H3 C1 1_555 1_555
H4 C1 1_555 1_555
O2 C10 1_555 1_555
C2 C1 1_555 1_555
C3 C2 1_555 1_555
H5 C3 1_555 1_555
C4 C3 1_555 1_555
H6 C4 1_555 1_555
H7 C4 1_555 1_555
C5 C4 1_555 1_555
H8 C5 1_555 1_555
C6 C3 1_555 1_555
C7 C6 1_555 1_555
H9 C7 1_555 1_555
H10 C7 1_555 1_555
H11 C7 1_555 1_555
C8 C6 1_555 1_555
H12 C8 1_555 1_555
H13 C8 1_555 1_555
H14 C8 1_555 1_555
C9 C5 1_555 1_555
H15 C9 1_555 1_555
H16 C9 1_555 1_555
C10 N1 1_555 1_555
C11 N1 1_555 1_555
C12 C11 1_555 1_555
H17 C12 1_555 1_555
C13 C12 1_555 1_555
H18 C13 1_555 1_555
C14 C13 1_555 1_555
C15 C14 1_555 1_555
H19 C15 1_555 1_555
C16 C11 1_555 1_555
H20 C16 1_555 1_555
C17 C14 1_555 1_555
H21 C17 1_555 1_555
H22 C17 1_555 1_555
H23 C17 1_555 1_555
C5 C6 1_555 1_555
C9 C10 1_555 1_555
C15 C16 1_555 1_555

#END
