
#######################################################################
#
#                 Cambridge Crystallographic Data Centre
#                                CCDC 
#
#######################################################################
#
# If this CIF has been generated from an entry in the Cambridge 
# Structural Database, then it will include bibliographic, chemical, 
# crystal, experimental, refinement or atomic coordinate data resulting 
# from the CCDC's data processing and validation procedures.
#
#######################################################################

data_XOQQEA
_chemical_formula_moiety         'C60 H96 N4 Na4 O4'
_chemical_name_systematic        
"bis(\m~3~-\h^5^,\h^2^-N,N'-Dimesitylbut-2-ene-2,3-diamine-N,N,N',N')-tetrakis(diethyl ether)-tetra-sodium"
_symmetry_cell_setting           monoclinic
_symmetry_space_group_name_H-M   'P 21/n'
_symmetry_Int_Tables_number      14
_space_group_name_Hall           '-P 2yn'
loop_
_symmetry_equiv_pos_site_id
_symmetry_equiv_pos_as_xyz
1 x,y,z
2 1/2-x,1/2+y,1/2-z
3 -x,-y,-z
4 1/2+x,1/2-y,1/2+z
_cell_length_a                   13.7512(13)
_cell_length_b                   11.1570(10)
_cell_length_c                   21.709(2)
_cell_angle_alpha                90
_cell_angle_beta                 106.525(2)
_cell_angle_gamma                90
_cell_volume                     3193.07
_exptl_crystal_colour            red
_exptl_crystal_description       block
_chemical_melting_point          'decomposes at 80 deg.C'
_cell_formula_units_Z            2
loop_
_atom_site_label
_atom_site_type_symbol
_atom_site_fract_x
_atom_site_fract_y
_atom_site_fract_z
Na1 Na 0.00599(9) -0.46812(14) 0.09775(6)
Na2 Na -0.20394(10) -0.31764(13) 0.10141(6)
N1 N -0.16563(19) -0.4716(2) 0.03328(12)
N2 N -0.09498(19) -0.4638(2) 0.16787(12)
O1 O -0.1655(3) -0.1068(3) 0.10988(16)
O2 O -0.3760(2) -0.3116(3) 0.10491(15)
C1 C -0.2072(2) -0.5488(3) 0.07139(16)
C2 C -0.1722(2) -0.5458(3) 0.13642(15)
C3 C -0.3068(2) -0.6102(4) 0.03810(16)
H1 H -0.3550 -0.5950 0.0616
H2 H -0.2959 -0.6950 0.0364
H3 H -0.3325 -0.5796 -0.0048
C4 C -0.2243(3) -0.6135(4) 0.17917(16)
H4 H -0.2962 -0.6007 0.1639
H5 H -0.1994 -0.5849 0.2225
H6 H -0.2101 -0.6976 0.1780
C5 C -0.1720(2) -0.5084(3) -0.02817(15)
C6 C 0.1920(2) -0.5792(4) 0.07928(17)
C7 C 0.2107(3) -0.5427(5) 0.14240(18)
H7 H 0.2259 -0.6011 0.1743
C8 C 0.2080(3) -0.4247(5) 0.16100(18)
C9 C 0.1794(3) -0.3419(4) 0.11203(17)
H8 H 0.1746 -0.2619 0.1228
C10 C 0.1572(2) -0.3724(4) 0.04668(16)
C11 C -0.0311(2) -0.4908(3) 0.22823(14)
C12 C -0.0083(3) -0.3982(3) 0.27494(15)
C13 C 0.0597(3) -0.4188(4) 0.33531(16)
H9 H 0.0732 -0.3566 0.3650
C14 C 0.1076(3) -0.5272(4) 0.35288(16)
C15 C 0.0861(2) -0.6177(3) 0.30677(16)
H10 H 0.1176 -0.6917 0.3171
C16 C 0.0193(2) -0.6016(3) 0.24578(15)
C17 C 0.1983(3) -0.7098(4) 0.0633(2)
H11 H 0.2119 -0.7565 0.1020
H12 H 0.1350 -0.7348 0.0342
H13 H 0.2519 -0.7213 0.0436
C18 C 0.2340(3) -0.3894(5) 0.23138(17)
H14 H 0.2279 -0.3041 0.2348
H15 H 0.1882 -0.4284 0.2511
H16 H 0.3023 -0.4133 0.2528
C19 C 0.1120(3) -0.2778(4) -0.00294(18)
H17 H 0.1077 -0.2033 0.0182
H18 H 0.1543 -0.2678 -0.0310
H19 H 0.0454 -0.3022 -0.0276
C20 C -0.0581(3) -0.2778(4) 0.25948(19)
H20 H -0.0348 -0.2257 0.2959
H21 H -0.1304 -0.2868 0.2494
H22 H -0.0410 -0.2439 0.2233
C21 C 0.1809(3) -0.5474(4) 0.41872(17)
H23 H 0.1862 -0.4755 0.4438
H24 H 0.2465 -0.5678 0.4143
H25 H 0.1567 -0.6116 0.4398
C22 C 0.0094(3) -0.7026(3) 0.19797(17)
H26 H 0.0487 -0.7699 0.2187
H27 H 0.0337 -0.6763 0.1629
H28 H -0.0606 -0.7256 0.1819
C23 C -0.0007(8) -0.0417(12) 0.1155(6)
H29 H 0.0320 -0.0057 0.0864
H30 H 0.0312 -0.1170 0.1304
H31 H 0.0052 0.0106 0.1515
C24 C -0.0877(9) -0.0578(11) 0.0884(6)
H32 H -0.0873 -0.1054 0.0511
H33 H -0.1129 0.0205 0.0719
C25 C -0.2129(9) -0.0354(9) 0.1453(6)
H34 H -0.2224 -0.0889 0.1783
H35 H -0.1602 0.0201 0.1675
C26 C -0.2870(8) 0.0235(11) 0.1319(6)
H36 H -0.2953 0.0604 0.1701
H37 H -0.3446 -0.0263 0.1129
H38 H -0.2815 0.0845 0.1019
C27 C -0.4762(5) -0.4322(5) 0.1588(3)
H39 H -0.4872 -0.4468 0.1999
H40 H -0.4544 -0.5049 0.1431
H41 H -0.5382 -0.4053 0.1290
C28 C -0.3964(4) -0.3381(5) 0.1655(2)
H42 H -0.4182 -0.2654 0.1822
H43 H -0.3343 -0.3650 0.1963
C29 C -0.4584(4) -0.2509(7) 0.0630(3)
H44 H -0.4696 -0.1754 0.0822
H45 H -0.5194 -0.2989 0.0559
C30 C -0.4373(4) -0.2284(7) 0.0020(3)
H46 H -0.4936 -0.1870 -0.0264
H47 H -0.4270 -0.3033 -0.0170
H48 H -0.3773 -0.1802 0.0092
Na1B Na -0.00599(9) -0.53188(14) -0.09775(6)
Na2B Na 0.20394(10) -0.68236(13) -0.10141(6)
N1B N 0.16563(19) -0.5284(2) -0.03328(12)
N2B N 0.09498(19) -0.5362(2) -0.16787(12)
O1B O 0.1655(3) -0.8932(3) -0.10988(16)
O2B O 0.3760(2) -0.6884(3) -0.10491(15)
C1B C 0.2072(2) -0.4512(3) -0.07139(16)
C2B C 0.1722(2) -0.4542(3) -0.13642(15)
C3B C 0.3068(2) -0.3898(4) -0.03810(16)
H1B H 0.3550 -0.4050 -0.0616
H2B H 0.2959 -0.3050 -0.0364
H3B H 0.3325 -0.4204 0.0048
C4B C 0.2243(3) -0.3865(4) -0.17917(16)
H4B H 0.2962 -0.3993 -0.1639
H5B H 0.1994 -0.4151 -0.2225
H6B H 0.2101 -0.3024 -0.1780
C5B C 0.1720(2) -0.4916(3) 0.02817(15)
C6B C -0.1920(2) -0.4208(4) -0.07928(17)
C7B C -0.2107(3) -0.4573(5) -0.14240(18)
H7B H -0.2259 -0.3989 -0.1743
C8B C -0.2080(3) -0.5753(5) -0.16100(18)
C9B C -0.1794(3) -0.6581(4) -0.11203(17)
H8B H -0.1746 -0.7381 -0.1228
C10B C -0.1572(2) -0.6276(4) -0.04668(16)
C11B C 0.0311(2) -0.5092(3) -0.22823(14)
C12B C 0.0083(3) -0.6018(3) -0.27494(15)
C13B C -0.0597(3) -0.5812(4) -0.33531(16)
H9B H -0.0732 -0.6434 -0.3650
C14B C -0.1076(3) -0.4728(4) -0.35288(16)
C15B C -0.0861(2) -0.3823(3) -0.30677(16)
H10B H -0.1176 -0.3083 -0.3171
C16B C -0.0193(2) -0.3984(3) -0.24578(15)
C17B C -0.1983(3) -0.2902(4) -0.0633(2)
H11B H -0.2119 -0.2435 -0.1020
H12B H -0.1350 -0.2652 -0.0342
H13B H -0.2519 -0.2787 -0.0436
C18B C -0.2340(3) -0.6106(5) -0.23138(17)
H14B H -0.2279 -0.6959 -0.2348
H15B H -0.1882 -0.5716 -0.2511
H16B H -0.3023 -0.5867 -0.2528
C19B C -0.1120(3) -0.7222(4) 0.00294(18)
H17B H -0.1077 -0.7967 -0.0182
H18B H -0.1543 -0.7322 0.0310
H19B H -0.0454 -0.6978 0.0276
C20B C 0.0581(3) -0.7222(4) -0.25948(19)
H20B H 0.0348 -0.7743 -0.2959
H21B H 0.1304 -0.7132 -0.2494
H22B H 0.0410 -0.7561 -0.2233
C21B C -0.1809(3) -0.4526(4) -0.41872(17)
H23B H -0.1862 -0.5245 -0.4438
H24B H -0.2465 -0.4322 -0.4143
H25B H -0.1567 -0.3884 -0.4398
C22B C -0.0094(3) -0.2974(3) -0.19797(17)
H26B H -0.0487 -0.2301 -0.2187
H27B H -0.0337 -0.3237 -0.1629
H28B H 0.0606 -0.2744 -0.1819
C23B C 0.0007(8) -0.9583(12) -0.1155(6)
H29B H -0.0320 -0.9943 -0.0864
H30B H -0.0312 -0.8830 -0.1304
H31B H -0.0052 -1.0106 -0.1515
C24B C 0.0877(9) -0.9422(11) -0.0884(6)
H32B H 0.0873 -0.8946 -0.0511
H33B H 0.1129 -1.0205 -0.0719
C25B C 0.2129(9) -0.9646(9) -0.1453(6)
H34B H 0.2224 -0.9111 -0.1783
H35B H 0.1602 -1.0201 -0.1675
C26B C 0.2870(8) -1.0235(11) -0.1319(6)
H36B H 0.2953 -1.0604 -0.1701
H37B H 0.3446 -0.9737 -0.1129
H38B H 0.2815 -1.0845 -0.1019
C27B C 0.4762(5) -0.5678(5) -0.1588(3)
H39B H 0.4872 -0.5532 -0.1999
H40B H 0.4544 -0.4951 -0.1431
H41B H 0.5382 -0.5947 -0.1290
C28B C 0.3964(4) -0.6619(5) -0.1655(2)
H42B H 0.4182 -0.7346 -0.1822
H43B H 0.3343 -0.6350 -0.1963
C29B C 0.4584(4) -0.7491(7) -0.0630(3)
H44B H 0.4696 -0.8246 -0.0822
H45B H 0.5194 -0.7011 -0.0559
C30B C 0.4373(4) -0.7716(7) -0.0020(3)
H46B H 0.4936 -0.8130 0.0264
H47B H 0.4270 -0.6967 0.0170
H48B H 0.3773 -0.8198 -0.0092
loop_
_geom_bond_atom_site_label_1
_geom_bond_atom_site_label_2
_geom_bond_site_symmetry_1
_geom_bond_site_symmetry_2
Na1 N1 1_555 1_555
Na2 N1 1_555 1_555
N1 C1 1_555 1_555
N2 Na1 1_555 1_555
O1 Na2 1_555 1_555
O2 Na2 1_555 1_555
C1 Na2 1_555 1_555
C2 Na2 1_555 1_555
C3 C1 1_555 1_555
H1 C3 1_555 1_555
H2 C3 1_555 1_555
H3 C3 1_555 1_555
C4 C2 1_555 1_555
H4 C4 1_555 1_555
H5 C4 1_555 1_555
H6 C4 1_555 1_555
C5 N1 1_555 1_555
C6 Na1 1_555 1_555
C7 Na1 1_555 1_555
H7 C7 1_555 1_555
C8 Na1 1_555 1_555
C9 Na1 1_555 1_555
H8 C9 1_555 1_555
C10 Na1 1_555 1_555
C11 N2 1_555 1_555
C12 C11 1_555 1_555
C13 C12 1_555 1_555
H9 C13 1_555 1_555
C14 C13 1_555 1_555
C15 C14 1_555 1_555
H10 C15 1_555 1_555
C16 C11 1_555 1_555
C17 C6 1_555 1_555
H11 C17 1_555 1_555
H12 C17 1_555 1_555
H13 C17 1_555 1_555
C18 C8 1_555 1_555
H14 C18 1_555 1_555
H15 C18 1_555 1_555
H16 C18 1_555 1_555
C19 C10 1_555 1_555
H17 C19 1_555 1_555
H18 C19 1_555 1_555
H19 C19 1_555 1_555
C20 C12 1_555 1_555
H20 C20 1_555 1_555
H21 C20 1_555 1_555
H22 C20 1_555 1_555
C21 C14 1_555 1_555
H23 C21 1_555 1_555
H24 C21 1_555 1_555
H25 C21 1_555 1_555
C22 C16 1_555 1_555
H26 C22 1_555 1_555
H27 C22 1_555 1_555
H28 C22 1_555 1_555
C23 H29 1_555 1_555
H30 C23 1_555 1_555
H31 C23 1_555 1_555
C24 O1 1_555 1_555
H32 C24 1_555 1_555
H33 C24 1_555 1_555
C25 O1 1_555 1_555
H34 C25 1_555 1_555
H35 C25 1_555 1_555
C26 C25 1_555 1_555
H36 C26 1_555 1_555
H37 C26 1_555 1_555
H38 C26 1_555 1_555
C27 H39 1_555 1_555
H40 C27 1_555 1_555
H41 C27 1_555 1_555
C28 O2 1_555 1_555
H42 C28 1_555 1_555
H43 C28 1_555 1_555
C29 O2 1_555 1_555
H44 C29 1_555 1_555
H45 C29 1_555 1_555
C30 C29 1_555 1_555
H46 C30 1_555 1_555
H47 C30 1_555 1_555
H48 C30 1_555 1_555
Na1B N1B 1_555 1_555
Na2B N1B 1_555 1_555
N1B C1B 1_555 1_555
N2B Na1B 1_555 1_555
O1B Na2B 1_555 1_555
O2B Na2B 1_555 1_555
C1B Na2B 1_555 1_555
C2B Na2B 1_555 1_555
C3B C1B 1_555 1_555
H1B C3B 1_555 1_555
H2B C3B 1_555 1_555
H3B C3B 1_555 1_555
C4B C2B 1_555 1_555
H4B C4B 1_555 1_555
H5B C4B 1_555 1_555
H6B C4B 1_555 1_555
C5B C6 1_555 1_555
C6B C5 1_555 1_555
C7B Na1B 1_555 1_555
H7B C7B 1_555 1_555
C8B Na1B 1_555 1_555
C9B Na1B 1_555 1_555
H8B C9B 1_555 1_555
C10B C5 1_555 1_555
C11B N2B 1_555 1_555
C12B C11B 1_555 1_555
C13B C12B 1_555 1_555
H9B C13B 1_555 1_555
C14B C13B 1_555 1_555
C15B C14B 1_555 1_555
H10B C15B 1_555 1_555
C16B C11B 1_555 1_555
C17B C6B 1_555 1_555
H11B C17B 1_555 1_555
H12B C17B 1_555 1_555
H13B C17B 1_555 1_555
C18B C8B 1_555 1_555
H14B C18B 1_555 1_555
H15B C18B 1_555 1_555
H16B C18B 1_555 1_555
C19B C10B 1_555 1_555
H17B C19B 1_555 1_555
H18B C19B 1_555 1_555
H19B C19B 1_555 1_555
C20B C12B 1_555 1_555
H20B C20B 1_555 1_555
H21B C20B 1_555 1_555
H22B C20B 1_555 1_555
C21B C14B 1_555 1_555
H23B C21B 1_555 1_555
H24B C21B 1_555 1_555
H25B C21B 1_555 1_555
C22B C16B 1_555 1_555
H26B C22B 1_555 1_555
H27B C22B 1_555 1_555
H28B C22B 1_555 1_555
C23B H29B 1_555 1_555
H30B C23B 1_555 1_555
H31B C23B 1_555 1_555
C24B O1B 1_555 1_555
H32B C24B 1_555 1_555
H33B C24B 1_555 1_555
C25B O1B 1_555 1_555
H34B C25B 1_555 1_555
H35B C25B 1_555 1_555
C26B C25B 1_555 1_555
H36B C26B 1_555 1_555
H37B C26B 1_555 1_555
H38B C26B 1_555 1_555
C27B H39B 1_555 1_555
H40B C27B 1_555 1_555
H41B C27B 1_555 1_555
C28B O2B 1_555 1_555
H42B C28B 1_555 1_555
H43B C28B 1_555 1_555
C29B O2B 1_555 1_555
H44B C29B 1_555 1_555
H45B C29B 1_555 1_555
C30B C29B 1_555 1_555
H46B C30B 1_555 1_555
H47B C30B 1_555 1_555
H48B C30B 1_555 1_555
Na2 N2 1_555 1_555
N2 C2 1_555 1_555
C1 C2 1_555 1_555
C6 C7 1_555 1_555
C7 C8 1_555 1_555
C8 C9 1_555 1_555
C9 C10 1_555 1_555
C10 C5B 1_555 1_555
C15 C16 1_555 1_555
C23 C24 1_555 1_555
C27 C28 1_555 1_555
Na1B C6B 1_555 1_555
Na1B C10B 1_555 1_555
Na2B N2B 1_555 1_555
N1B C5B 1_555 1_555
N2B C2B 1_555 1_555
C1B C2B 1_555 1_555
C6B C7B 1_555 1_555
C7B C8B 1_555 1_555
C8B C9B 1_555 1_555
C9B C10B 1_555 1_555
C15B C16B 1_555 1_555
C23B C24B 1_555 1_555
C27B C28B 1_555 1_555

#END
