
#######################################################################
#
#                 Cambridge Crystallographic Data Centre
#                                CCDC 
#
#######################################################################
#
# If this CIF has been generated from an entry in the Cambridge 
# Structural Database, then it will include bibliographic, chemical, 
# crystal, experimental, refinement or atomic coordinate data resulting 
# from the CCDC's data processing and validation procedures.
#
#######################################################################

data_XOSGOD
_chemical_formula_moiety         'C22 H18 N4 O1'
_chemical_name_systematic        
5-(2,2-Diphenylvinyl)-1-(4-methoxyphenyl)-1H-tetrazole
_symmetry_cell_setting           orthorhombic
_symmetry_space_group_name_H-M   'P b c a'
_symmetry_Int_Tables_number      61
_space_group_name_Hall           '-P 2ac 2ab'
loop_
_symmetry_equiv_pos_site_id
_symmetry_equiv_pos_as_xyz
1 x,y,z
2 1/2-x,-y,1/2+z
3 -x,1/2+y,1/2-z
4 1/2+x,1/2-y,-z
5 -x,-y,-z
6 1/2+x,y,1/2-z
7 x,1/2-y,1/2+z
8 1/2-x,1/2+y,z
_cell_length_a                   10.3728(5)
_cell_length_b                   15.4496(8)
_cell_length_c                   22.4127(12)
_cell_angle_alpha                90
_cell_angle_beta                 90
_cell_angle_gamma                90
_cell_volume                     3591.76
_exptl_crystal_colour            colorless
_exptl_crystal_description       block
_cell_formula_units_Z            8
loop_
_atom_site_label
_atom_site_type_symbol
_atom_site_fract_x
_atom_site_fract_y
_atom_site_fract_z
O1 O 0.69579(15) 0.30165(11) 0.79840(7)
N1 N 0.54472(17) 0.20048(12) 0.57045(8)
N2 N 0.42708(18) 0.21677(13) 0.54673(9)
N3 N 0.42775(18) 0.18119(14) 0.49372(9)
N4 N 0.54328(18) 0.14267(13) 0.48216(8)
C1 C 0.6506(2) 0.27795(14) 0.74347(10)
C2 C 0.7276(2) 0.30057(14) 0.69504(10)
H1 H 0.8028 0.3321 0.7012
C3 C 0.6930(2) 0.27638(14) 0.63786(10)
H2 H 0.7447 0.2910 0.6055
C4 C 0.5797(2) 0.22997(14) 0.62947(9)
C5 C 0.5001(2) 0.21042(14) 0.67667(10)
H3 H 0.4231 0.1812 0.6702
C6 C 0.5354(2) 0.23460(15) 0.73426(10)
H4 H 0.4819 0.2217 0.7664
C7 C 0.6147(2) 0.15439(14) 0.53085(9)
C8 C 0.7461(2) 0.12283(14) 0.53689(9)
H5 H 0.8028 0.1365 0.5061
C9 C 0.7940(2) 0.07619(14) 0.58206(9)
C10 C 0.7117(2) 0.04478(14) 0.63251(9)
C11 C 0.5955(2) 0.00257(14) 0.62155(10)
H6 H 0.5690 -0.0069 0.5825
C12 C 0.5188(2) -0.02554(15) 0.66854(11)
H7 H 0.4410 -0.0532 0.6607
C13 C 0.5574(2) -0.01258(15) 0.72684(11)
H8 H 0.5056 -0.0311 0.7582
C14 C 0.6736(2) 0.02809(15) 0.73849(10)
H9 H 0.7004 0.0362 0.7777
C15 C 0.7500(2) 0.05671(14) 0.69177(9)
H10 H 0.8278 0.0842 0.6999
C16 C 0.9326(2) 0.05167(14) 0.58240(9)
C17 C 0.9752(2) -0.02320(15) 0.61107(10)
H11 H 0.9161 -0.0575 0.6314
C18 C 1.1035(2) -0.04755(17) 0.60981(10)
H12 H 1.1298 -0.0977 0.6292
C19 C 1.1929(2) 0.00269(18) 0.57973(11)
H13 H 1.2793 -0.0132 0.5792
C20 C 1.1526(2) 0.07654(19) 0.55060(11)
H14 H 1.2120 0.1099 0.5297
C21 C 1.0246(2) 0.10121(16) 0.55236(11)
H15 H 0.9992 0.1518 0.5332
C22 C 0.6382(3) 0.26077(18) 0.84926(10)
H16 H 0.6357 0.1993 0.8431
H17 H 0.5520 0.2822 0.8545
H18 H 0.6882 0.2735 0.8842
loop_
_geom_bond_atom_site_label_1
_geom_bond_atom_site_label_2
_geom_bond_site_symmetry_1
_geom_bond_site_symmetry_2
O1 C1 1_555 1_555
N1 N2 1_555 1_555
N2 N3 1_555 1_555
N3 N4 1_555 1_555
N4 C7 1_555 1_555
C1 C2 1_555 1_555
C2 H1 1_555 1_555
C3 C2 1_555 1_555
H2 C3 1_555 1_555
C4 N1 1_555 1_555
C5 C4 1_555 1_555
H3 C5 1_555 1_555
C6 C1 1_555 1_555
H4 C6 1_555 1_555
C7 N1 1_555 1_555
C8 C7 1_555 1_555
H5 C8 1_555 1_555
C9 C8 1_555 1_555
C10 C9 1_555 1_555
C11 C10 1_555 1_555
H6 C11 1_555 1_555
C12 C11 1_555 1_555
H7 C12 1_555 1_555
C13 C12 1_555 1_555
H8 C13 1_555 1_555
C14 C13 1_555 1_555
H9 C14 1_555 1_555
C15 C10 1_555 1_555
H10 C15 1_555 1_555
C16 C9 1_555 1_555
C17 C16 1_555 1_555
H11 C17 1_555 1_555
C18 C17 1_555 1_555
H12 C18 1_555 1_555
C19 C18 1_555 1_555
H13 C19 1_555 1_555
C20 C19 1_555 1_555
H14 C20 1_555 1_555
C21 C16 1_555 1_555
H15 C21 1_555 1_555
C22 O1 1_555 1_555
H16 C22 1_555 1_555
H17 C22 1_555 1_555
H18 C22 1_555 1_555
C3 C4 1_555 1_555
C5 C6 1_555 1_555
C14 C15 1_555 1_555
C20 C21 1_555 1_555

#END
