
#######################################################################
#
#                 Cambridge Crystallographic Data Centre
#                                CCDC 
#
#######################################################################
#
# If this CIF has been generated from an entry in the Cambridge 
# Structural Database, then it will include bibliographic, chemical, 
# crystal, experimental, refinement or atomic coordinate data resulting 
# from the CCDC's data processing and validation procedures.
#
#######################################################################

data_XOSJEU
_chemical_formula_moiety         'C20 H18 O4'
_chemical_name_systematic        
(+-)-3-Acetyl-4-(2-oxo-2-phenylethyl)-5-phenyltetrahydro-2-furanone
_symmetry_cell_setting           orthorhombic
_symmetry_space_group_name_H-M   'P 21 21 21'
_symmetry_Int_Tables_number      19
_space_group_name_Hall           'P 2ac 2ab'
loop_
_symmetry_equiv_pos_site_id
_symmetry_equiv_pos_as_xyz
1 x,y,z
2 1/2-x,-y,1/2+z
3 1/2+x,1/2-y,-z
4 -x,1/2+y,1/2-z
_cell_length_a                   6.4817(1)
_cell_length_b                   11.8702(3)
_cell_length_c                   21.4304(6)
_cell_angle_alpha                90
_cell_angle_beta                 90
_cell_angle_gamma                90
_cell_volume                     1648.84
_exptl_crystal_colour            colorless
_exptl_crystal_description       acicular
_chemical_melting_point          113-114deg.C
_cell_formula_units_Z            4
_exptl_crystal_recrystallization_method dichloromethane
loop_
_atom_site_label
_atom_site_type_symbol
_atom_site_fract_x
_atom_site_fract_y
_atom_site_fract_z
O1 O 0.1877(3) 0.1782(1) 0.74450(8)
O2 O -0.0971(3) 0.1528(2) 0.80058(9)
O3 O 0.7089(2) -0.0328(1) 0.68684(8)
O4 O 0.2320(3) -0.1331(2) 0.84786(9)
C1 C 0.0504(4) 0.1126(2) 0.7747(1)
C2 C 0.1100(4) -0.0109(2) 0.7683(1)
C3 C 0.3279(3) -0.0077(2) 0.7410(1)
C4 C 0.3716(4) -0.1071(2) 0.6980(1)
C5 C 0.3416(4) 0.1107(2) 0.7107(1)
C6 C 0.5880(4) -0.1072(2) 0.6722(1)
C7 C 0.6525(3) -0.1978(2) 0.6279(1)
C8 C 0.0864(4) -0.0808(2) 0.8276(1)
C9 C 0.5377(4) -0.2954(2) 0.6192(1)
C10 C -0.1227(4) -0.0837(2) 0.8575(1)
C11 C 0.6102(4) -0.3794(2) 0.5810(1)
C12 C 0.2997(4) 0.1191(2) 0.6423(1)
C13 C 0.7952(4) -0.3663(2) 0.5493(1)
C14 C 0.4619(3) 0.1405(2) 0.6008(1)
C15 C 0.9102(4) -0.2694(2) 0.5570(1)
C16 C 0.4257(4) 0.1461(2) 0.5372(1)
C17 C 0.8395(4) -0.1861(2) 0.5961(1)
C18 C 0.2281(4) 0.1330(2) 0.5137(1)
C19 C 0.0657(4) 0.1125(2) 0.5544(1)
C20 C 0.1003(4) 0.1053(2) 0.6177(1)
H1 H 0.0223 -0.0431 0.7376
H2 H 0.4234 -0.0104 0.7746
H3 H 0.4746 0.1410 0.7188
H4 H 0.3512 -0.1748 0.7208
H5 H 0.2775 -0.1043 0.6640
H6 H 0.4088 -0.3041 0.6397
H7 H 0.5331 -0.4469 0.5762
H8 H 0.8429 -0.4240 0.5222
H9 H 1.0372 -0.2604 0.5354
H10 H 0.9190 -0.1196 0.6016
H11 H -0.1125 -0.0577 0.8994
H12 H -0.2143 -0.0364 0.8349
H13 H -0.1738 -0.1587 0.8573
H14 H 0.5977 0.1512 0.6163
H15 H 0.5375 0.1590 0.5095
H16 H 0.2039 0.1380 0.4701
H17 H -0.0701 0.1034 0.5385
H18 H -0.0120 0.0908 0.6450
loop_
_geom_bond_atom_site_label_1
_geom_bond_atom_site_label_2
_geom_bond_site_symmetry_1
_geom_bond_site_symmetry_2
O1 C1 1_555 1_555
O2 C1 1_555 1_555
O3 C6 1_555 1_555
O4 C8 1_555 1_555
C1 C2 1_555 1_555
C2 C3 1_555 1_555
C3 C4 1_555 1_555
C4 C6 1_555 1_555
C5 O1 1_555 1_555
C6 C7 1_555 1_555
C7 C9 1_555 1_555
C8 C2 1_555 1_555
C9 C11 1_555 1_555
C10 C8 1_555 1_555
C11 C13 1_555 1_555
C12 C5 1_555 1_555
C13 C15 1_555 1_555
C14 C12 1_555 1_555
C15 C17 1_555 1_555
C16 C14 1_555 1_555
C17 C7 1_555 1_555
C18 C16 1_555 1_555
C19 C18 1_555 1_555
C20 C12 1_555 1_555
H1 C2 1_555 1_555
H2 C3 1_555 1_555
H3 C5 1_555 1_555
H4 C4 1_555 1_555
H5 C4 1_555 1_555
H6 C9 1_555 1_555
H7 C11 1_555 1_555
H8 C13 1_555 1_555
H9 C15 1_555 1_555
H10 C17 1_555 1_555
H11 C10 1_555 1_555
H12 C10 1_555 1_555
H13 C10 1_555 1_555
H14 C14 1_555 1_555
H15 C16 1_555 1_555
H16 C18 1_555 1_555
H17 C19 1_555 1_555
H18 C20 1_555 1_555
C3 C5 1_555 1_555
C19 C20 1_555 1_555

#END
