
#######################################################################
#
#                 Cambridge Crystallographic Data Centre
#                                CCDC 
#
#######################################################################
#
# If this CIF has been generated from an entry in the Cambridge 
# Structural Database, then it will include bibliographic, chemical, 
# crystal, experimental, refinement or atomic coordinate data resulting 
# from the CCDC's data processing and validation procedures.
#
#######################################################################

data_XOSJUL
_chemical_formula_moiety         'C19 H23 N1 O3'
_chemical_name_systematic        
(1R,2S,5R,8S,1'S)-5-(1'-Hydroxy-1'-phenylmethyl)-1,11,11-trimethyl-3-oxa-6-azatricyclo(6.2.1.0^2,7^)undec-6-en-4-one
_symmetry_cell_setting           orthorhombic
_symmetry_space_group_name_H-M   'P 21 21 21'
_symmetry_Int_Tables_number      19
_space_group_name_Hall           'P 2ac 2ab'
loop_
_symmetry_equiv_pos_site_id
_symmetry_equiv_pos_as_xyz
1 x,y,z
2 1/2-x,-y,1/2+z
3 1/2+x,1/2-y,-z
4 -x,1/2+y,1/2-z
_cell_length_a                   10.107(2)
_cell_length_b                   12.684(2)
_cell_length_c                   13.025(2)
_cell_angle_alpha                90
_cell_angle_beta                 90
_cell_angle_gamma                90
_cell_volume                     1669.77
_exptl_crystal_colour            colorless
_exptl_crystal_description       block
_chemical_melting_point          '152-153 deg.C'
_cell_formula_units_Z            4
loop_
_atom_site_label
_atom_site_type_symbol
_atom_site_fract_x
_atom_site_fract_y
_atom_site_fract_z
O1 O -0.6772(1) -0.07318(8) -0.20525(7)
O2 O -0.6145(1) -0.22232(9) -0.27834(8)
O3 O -0.60859(10) -0.21821(7) -0.00064(8)
N1 N -0.8743(1) -0.18519(9) -0.09189(8)
C1 C -0.7280(1) -0.0306(1) -0.10907(10)
C2 C -0.6776(2) -0.1794(1) -0.2121(1)
C3 C -0.7630(1) -0.2430(1) -0.1378(1)
C4 C -0.8536(1) -0.0873(1) -0.08016(9)
C5 C -0.9514(1) -0.0039(1) -0.0521(1)
C6 C -0.8980(2) 0.0527(1) 0.0432(1)
C7 C -0.7792(2) 0.1158(1) 0.0015(1)
C8 C -0.7732(1) 0.0855(1) -0.1133(1)
C9 C -0.9234(1) 0.0769(1) -0.1399(1)
C10 C -0.9537(2) 0.0335(1) -0.2469(1)
C11 C -1.0015(2) 0.1798(1) -0.1271(1)
C12 C -0.6905(2) 0.1589(1) -0.1786(1)
C13 C -0.6734(1) -0.2971(1) -0.0584(1)
C14 C -0.7511(1) -0.3737(1) 0.0082(1)
C15 C -0.7880(2) -0.4715(1) -0.0292(1)
C16 C -0.8510(2) -0.5441(1) 0.0376(2)
C17 C -0.8759(2) -0.5159(2) 0.1380(2)
C18 C -0.8440(2) -0.4193(2) 0.1727(1)
C19 C -0.7818(2) -0.3479(1) 0.1090(1)
H1 H -0.6626 -0.0395 -0.0553
H2 H -0.8021 -0.2993 -0.1781
H3 H -1.0424 -0.0276 -0.0471
H4 H -0.9642 0.0993 0.0722
H5 H -0.8699 0.0024 0.0949
H6 H -0.7935 0.1909 0.0095
H7 H -0.6982 0.0958 0.0364
H8 H -1.0479 0.0201 -0.2529
H9 H -0.9271 0.0846 -0.2983
H10 H -0.9053 -0.0317 -0.2573
H11 H -0.9830 0.2099 -0.0602
H12 H -0.9753 0.2292 -0.1802
H13 H -1.0954 0.1653 -0.1330
H14 H -0.6001 0.1591 -0.1537
H15 H -0.6921 0.1351 -0.2494
H16 H -0.7265 0.2297 -0.1746
H17 H -0.6066 -0.3369 -0.0953
H18 H -0.7709 -0.4901 -0.1003
H19 H -0.8764 -0.6133 0.0128
H20 H -0.9170 -0.5663 0.1841
H21 H -0.8647 -0.3997 0.2428
H22 H -0.7591 -0.2786 0.1350
loop_
_geom_bond_atom_site_label_1
_geom_bond_atom_site_label_2
_geom_bond_site_symmetry_1
_geom_bond_site_symmetry_2
O1 C1 1_555 1_555
O2 C2 1_555 1_555
O3 C13 1_555 1_555
N1 C3 1_555 1_555
C1 C4 1_555 1_555
C2 O1 1_555 1_555
C3 C2 1_555 1_555
C4 N1 1_555 1_555
C5 C4 1_555 1_555
C6 C5 1_555 1_555
C7 C6 1_555 1_555
C8 C1 1_555 1_555
C9 C5 1_555 1_555
C10 C9 1_555 1_555
C11 C9 1_555 1_555
C12 C8 1_555 1_555
C13 C3 1_555 1_555
C14 C13 1_555 1_555
C15 C14 1_555 1_555
C16 C15 1_555 1_555
C17 C16 1_555 1_555
C18 C17 1_555 1_555
C19 C14 1_555 1_555
H1 C1 1_555 1_555
H2 C3 1_555 1_555
H3 C5 1_555 1_555
H4 C6 1_555 1_555
H5 C6 1_555 1_555
H6 C7 1_555 1_555
H7 C7 1_555 1_555
H8 C10 1_555 1_555
H9 C10 1_555 1_555
H10 C10 1_555 1_555
H11 C11 1_555 1_555
H12 C11 1_555 1_555
H13 C11 1_555 1_555
H14 C12 1_555 1_555
H15 C12 1_555 1_555
H16 C12 1_555 1_555
H17 C13 1_555 1_555
H18 C15 1_555 1_555
H19 C16 1_555 1_555
H20 C17 1_555 1_555
H21 C18 1_555 1_555
H22 C19 1_555 1_555
C7 C8 1_555 1_555
C8 C9 1_555 1_555
C18 C19 1_555 1_555

#END
