
#######################################################################
#
#                 Cambridge Crystallographic Data Centre
#                                CCDC 
#
#######################################################################
#
# If this CIF has been generated from an entry in the Cambridge 
# Structural Database, then it will include bibliographic, chemical, 
# crystal, experimental, refinement or atomic coordinate data resulting 
# from the CCDC's data processing and validation procedures.
#
#######################################################################

data_XOSPOL
_chemical_formula_moiety         'C14 H10 N2 O6 S2 2-,H12 Mg1 O6 2+,2(H2 O1)'
_chemical_name_systematic        
"Hexa-aqua-magnesium 2,2'-(1,2-hydrazinediylidenedimethylylidene)-dibenzenesulfonate dihydrate"
_symmetry_cell_setting           triclinic
_symmetry_space_group_name_H-M   'P -1'
_symmetry_Int_Tables_number      2
_space_group_name_Hall           '-P 1'
loop_
_symmetry_equiv_pos_site_id
_symmetry_equiv_pos_as_xyz
1 x,y,z
2 -x,-y,-z
_cell_length_a                   7.8109(12)
_cell_length_b                   7.8127(13)
_cell_length_c                   9.9568(19)
_cell_angle_alpha                102.054(2)
_cell_angle_beta                 92.3310(10)
_cell_angle_gamma                105.500(2)
_cell_volume                     569.589
_exptl_crystal_colour            colorless
_exptl_crystal_description       block
_cell_formula_units_Z            1
loop_
_atom_site_label
_atom_site_type_symbol
_atom_site_fract_x
_atom_site_fract_y
_atom_site_fract_z
Mg1 Mg 0.5000 0.5000 1.0000
O4 O 0.34329(19) 0.23559(19) 0.97015(15)
H1 H 0.3475 0.1653 1.0241
H2 H 0.2370 0.2072 0.9322
O5 O 0.32416(19) 0.6024(2) 1.11683(15)
H3 H 0.2204 0.5377 1.1250
H4 H 0.3234 0.7127 1.1250
O6 O 0.36565(19) 0.5272(2) 0.82329(15)
H5 H 0.3832 0.4952 0.7392
H6 H 0.2636 0.5463 0.8264
O4A O 0.65671(19) 0.76441(19) 1.02985(15)
H1A H 0.6525 0.8347 0.9759
H2A H 0.7630 0.7928 1.0678
O5A O 0.67584(19) 0.3976(2) 0.88317(15)
H3A H 0.7796 0.4623 0.8750
H4A H 0.6766 0.2873 0.8750
O6A O 0.63435(19) 0.4728(2) 1.17671(15)
H5A H 0.6168 0.5048 1.2608
H6A H 0.7364 0.4537 1.1736
N1 N 0.4536(2) 0.4278(2) 0.52956(18)
O1 O 0.3096(2) -0.0312(2) 0.14232(15)
O2 O 0.0003(2) -0.1883(2) 0.14681(15)
O3 O 0.1053(2) 0.1425(2) 0.21656(17)
S1 S 0.14717(7) -0.02789(7) 0.20885(5)
C1 C 0.3995(3) 0.2768(3) 0.4398(2)
H9 H 0.4175 0.2753 0.3479
C2 C 0.3097(3) 0.1059(3) 0.4777(2)
C3 C 0.1948(3) -0.0432(3) 0.3818(2)
C4 C 0.1191(3) -0.2060(3) 0.4190(2)
H10 H 0.0419 -0.3029 0.3552
C5 C 0.1583(3) -0.2246(3) 0.5509(2)
H11 H 0.1087 -0.3347 0.5753
C6 C 0.2713(3) -0.0796(3) 0.6469(2)
H12 H 0.2967 -0.0922 0.7357
C7 C 0.3457(3) 0.0829(3) 0.6110(2)
H13 H 0.4214 0.1793 0.6762
N1A N 0.5464(2) 0.5722(2) 0.47044(18)
O1A O 0.6904(2) 1.0312(2) 0.85768(15)
O2A O 0.9997(2) 1.1883(2) 0.85319(15)
O3A O 0.8947(2) 0.8575(2) 0.78344(17)
S1A S 0.85283(7) 1.02789(7) 0.79115(5)
C1A C 0.6005(3) 0.7232(3) 0.5602(2)
H9A H 0.5825 0.7247 0.6521
C2A C 0.6903(3) 0.8941(3) 0.5223(2)
C3A C 0.8052(3) 1.0432(3) 0.6182(2)
C4A C 0.8809(3) 1.2060(3) 0.5810(2)
H10A H 0.9581 1.3029 0.6448
C5A C 0.8417(3) 1.2246(3) 0.4491(2)
H11A H 0.8913 1.3347 0.4247
C6A C 0.7287(3) 1.0796(3) 0.3531(2)
H12A H 0.7033 1.0922 0.2643
C7A C 0.6543(3) 0.9171(3) 0.3890(2)
H13A H 0.5786 0.8207 0.3238
O7 O 0.9676(2) 0.3877(2) 0.13031(17)
H7 H 0.9870 0.3100 0.1729
H8 H 0.9397 0.3354 0.0454
loop_
_geom_bond_atom_site_label_1
_geom_bond_atom_site_label_2
_geom_bond_site_symmetry_1
_geom_bond_site_symmetry_2
Mg1 O4 1_555 1_555
N1 C1 1_555 1_555
O1 S1 1_555 1_555
O2 S1 1_555 1_555
O3 S1 1_555 1_555
O4 H1 1_555 1_555
H2 O4 1_555 1_555
O5 Mg1 1_555 1_555
H3 O5 1_555 1_555
H4 O5 1_555 1_555
O6 Mg1 1_555 1_555
H5 O6 1_555 1_555
H6 O6 1_555 1_555
O7 H7 1_555 1_555
H8 O7 1_555 1_555
S1 C3 1_555 1_555
C1 H9 1_555 1_555
C2 C1 1_555 1_555
C3 C2 1_555 1_555
C4 C3 1_555 1_555
H10 C4 1_555 1_555
C5 C4 1_555 1_555
H11 C5 1_555 1_555
C6 C5 1_555 1_555
H12 C6 1_555 1_555
C7 C2 1_555 1_555
H13 C7 1_555 1_555
N1A N1 1_555 1_555
O1A S1A 1_555 1_555
O2A S1A 1_555 1_555
O3A S1A 1_555 1_555
O4A Mg1 1_555 1_555
H1A O4A 1_555 1_555
H2A O4A 1_555 1_555
O5A Mg1 1_555 1_555
H3A O5A 1_555 1_555
H4A O5A 1_555 1_555
O6A Mg1 1_555 1_555
H5A O6A 1_555 1_555
H6A O6A 1_555 1_555
S1A C3A 1_555 1_555
C1A N1A 1_555 1_555
H9A C1A 1_555 1_555
C2A C1A 1_555 1_555
C3A C2A 1_555 1_555
C4A C3A 1_555 1_555
H10A C4A 1_555 1_555
C5A C4A 1_555 1_555
H11A C5A 1_555 1_555
C6A C5A 1_555 1_555
H12A C6A 1_555 1_555
C7A C2A 1_555 1_555
H13A C7A 1_555 1_555
C6 C7 1_555 1_555
C6A C7A 1_555 1_555

#END
