
#######################################################################
#
#                 Cambridge Crystallographic Data Centre
#                                CCDC 
#
#######################################################################
#
# If this CIF has been generated from an entry in the Cambridge 
# Structural Database, then it will include bibliographic, chemical, 
# crystal, experimental, refinement or atomic coordinate data resulting 
# from the CCDC's data processing and validation procedures.
#
#######################################################################

data_XOTDOB
_chemical_formula_moiety         'C21 H17 B1 F2 N2 O1'
_chemical_name_systematic        
(N-(2-(1,3-benzoxazol-2-yl)phenyl)-2,6-dimethylanilinato)(difluoro)borate
_symmetry_cell_setting           triclinic
_symmetry_space_group_name_H-M   'P -1'
_symmetry_Int_Tables_number      2
_space_group_name_Hall           '-P 1'
loop_
_symmetry_equiv_pos_site_id
_symmetry_equiv_pos_as_xyz
1 x,y,z
2 -x,-y,-z
_cell_length_a                   7.9845(12)
_cell_length_b                   14.683(2)
_cell_length_c                   15.599(2)
_cell_angle_alpha                102.511(4)
_cell_angle_beta                 92.422(7)
_cell_angle_gamma                92.278(5)
_cell_volume                     1781.51
_exptl_crystal_colour            yellow
_exptl_crystal_description       prism
_cell_formula_units_Z            4
loop_
_atom_site_label
_atom_site_type_symbol
_atom_site_fract_x
_atom_site_fract_y
_atom_site_fract_z
C1 C 0.4311(6) 0.7787(2) 0.5887(2)
C2 C 0.5905(6) 0.7576(3) 0.6173(3)
C3 C 0.7049(6) 0.6982(3) 0.5568(3)
H1 H 0.8096 0.6914 0.5894
H2 H 0.7299 0.7281 0.5080
H3 H 0.6498 0.6364 0.5334
C4 C 0.6396(7) 0.7946(3) 0.7063(3)
H4 H 0.7473 0.7821 0.7280
C5 C 0.5365(8) 0.8481(3) 0.7625(3)
H5 H 0.5718 0.8710 0.8225
C6 C 0.3822(8) 0.8685(3) 0.7319(3)
H6 H 0.3121 0.9063 0.7711
C7 C 0.3253(6) 0.8348(2) 0.6440(2)
C8 C 0.1564(6) 0.8598(3) 0.6132(3)
H7 H 0.1036 0.8999 0.6622
H8 H 0.0856 0.8027 0.5915
H9 H 0.1695 0.8932 0.5656
C9 C 0.4342(5) 0.7867(2) 0.4350(2)
C10 C 0.5329(5) 0.8714(2) 0.4581(2)
H10 H 0.5617 0.8984 0.5182
C11 C 0.5877(6) 0.9151(3) 0.3933(3)
H11 H 0.6525 0.9723 0.4104
C12 C 0.5512(6) 0.8783(3) 0.3038(3)
H12 H 0.5899 0.9098 0.2608
C13 C 0.4587(6) 0.7958(3) 0.2799(3)
H13 H 0.4358 0.7688 0.2192
C14 C 0.3963(5) 0.7497(2) 0.3435(2)
C15 C 0.2953(5) 0.6659(3) 0.3201(2)
C16 C 0.1515(6) 0.5443(3) 0.2398(3)
C17 C 0.0794(7) 0.4768(3) 0.1701(3)
H14 H 0.0886 0.4804 0.1104
C18 C -0.0067(7) 0.4040(3) 0.1949(3)
H15 H -0.0574 0.3550 0.1501
C19 C -0.0229(6) 0.3988(3) 0.2823(3)
H16 H -0.0855 0.3474 0.2952
C20 C 0.0507(6) 0.4673(3) 0.3516(3)
H17 H 0.0409 0.4643 0.4114
C21 C 0.1394(5) 0.5403(2) 0.3268(2)
N1 N 0.3753(4) 0.74088(19) 0.49720(18)
N2 N 0.2339(4) 0.61988(19) 0.37626(19)
O1 O 0.2510(4) 0.62426(18) 0.23514(15)
F1 F 0.1158(3) 0.65703(16) 0.51798(15)
F2 F 0.3525(4) 0.57766(15) 0.50520(14)
B1 B 0.2697(6) 0.6490(3) 0.4783(3)
C22 C 0.9509(6) 0.8128(3) 0.0396(2)
C23 C 0.8396(6) 0.8714(3) 0.0101(2)
C24 C 0.6800(6) 0.8996(3) 0.0564(3)
H18 H 0.6702 0.8689 0.1059
H19 H 0.5828 0.8806 0.0150
H20 H 0.6842 0.9675 0.0781
C25 C 0.8801(6) 0.9070(3) -0.0627(3)
H21 H 0.8059 0.9473 -0.0835
C26 C 1.0251(7) 0.8849(3) -0.1048(3)
H22 H 1.0485 0.9081 -0.1556
C27 C 1.1371(6) 0.8288(3) -0.0737(3)
H23 H 1.2391 0.8156 -0.1021
C28 C 1.1019(6) 0.7915(3) -0.0011(2)
C29 C 1.2259(6) 0.7304(3) 0.0321(3)
H24 H 1.1821 0.7103 0.0832
H25 H 1.3331 0.7659 0.0493
H26 H 1.2428 0.6755 -0.0145
C30 C 0.9681(5) 0.8175(3) 0.1962(2)
C31 C 1.0671(6) 0.9026(3) 0.2118(2)
H27 H 1.0954 0.9291 0.1635
C32 C 1.1229(6) 0.9473(3) 0.2958(3)
H28 H 1.1890 1.0041 0.3042
C33 C 1.0843(6) 0.9111(3) 0.3690(3)
H29 H 1.1227 0.9432 0.4265
C34 C 0.9903(5) 0.8287(3) 0.3566(2)
H30 H 0.9643 0.8031 0.4057
C35 C 0.9319(5) 0.7815(3) 0.2712(2)
C36 C 0.8309(5) 0.6967(3) 0.2566(2)
C37 C 0.6849(6) 0.5760(3) 0.2812(3)
C38 C 0.6088(6) 0.5109(3) 0.3207(3)
H31 H 0.6147 0.5160 0.3825
C39 C 0.5225(6) 0.4370(3) 0.2623(3)
H32 H 0.4667 0.3898 0.2853
C40 C 0.5148(6) 0.4295(3) 0.1715(3)
H33 H 0.4558 0.3770 0.1346
C41 C 0.5905(6) 0.4963(3) 0.1339(3)
H34 H 0.5839 0.4918 0.0722
C42 C 0.6775(6) 0.5709(3) 0.1915(3)
N3 N 0.9087(4) 0.7718(2) 0.11284(19)
N4 N 0.7716(4) 0.6494(2) 0.17794(19)
O2 O 0.7826(4) 0.65654(17) 0.32236(16)
F3 F 0.8928(4) 0.60821(16) 0.03805(15)
F4 F 0.6526(4) 0.68445(17) 0.04644(16)
B2 B 0.8084(7) 0.6784(3) 0.0896(3)
loop_
_geom_bond_atom_site_label_1
_geom_bond_atom_site_label_2
_geom_bond_site_symmetry_1
_geom_bond_site_symmetry_2
C1 C2 1_555 1_555
C2 C3 1_555 1_555
C3 H1 1_555 1_555
H2 C3 1_555 1_555
H3 C3 1_555 1_555
C4 C2 1_555 1_555
H4 C4 1_555 1_555
C5 C4 1_555 1_555
H5 C5 1_555 1_555
C6 C5 1_555 1_555
H6 C6 1_555 1_555
C7 C1 1_555 1_555
C8 C7 1_555 1_555
H7 C8 1_555 1_555
H8 C8 1_555 1_555
H9 C8 1_555 1_555
C9 C10 1_555 1_555
C10 H10 1_555 1_555
C11 C10 1_555 1_555
H11 C11 1_555 1_555
C12 C11 1_555 1_555
H12 C12 1_555 1_555
C13 C12 1_555 1_555
H13 C13 1_555 1_555
C14 C9 1_555 1_555
C15 C14 1_555 1_555
C16 C17 1_555 1_555
C17 H14 1_555 1_555
C18 C17 1_555 1_555
H15 C18 1_555 1_555
C19 C18 1_555 1_555
H16 C19 1_555 1_555
C20 C19 1_555 1_555
H17 C20 1_555 1_555
C21 C16 1_555 1_555
N1 C1 1_555 1_555
N2 C15 1_555 1_555
O1 C15 1_555 1_555
F1 B1 1_555 1_555
F2 B1 1_555 1_555
B1 N1 1_555 1_555
C22 C23 1_555 1_555
C23 C24 1_555 1_555
C24 H18 1_555 1_555
H19 C24 1_555 1_555
H20 C24 1_555 1_555
C25 C23 1_555 1_555
H21 C25 1_555 1_555
C26 C25 1_555 1_555
H22 C26 1_555 1_555
C27 C26 1_555 1_555
H23 C27 1_555 1_555
C28 C22 1_555 1_555
C29 C28 1_555 1_555
H24 C29 1_555 1_555
H25 C29 1_555 1_555
H26 C29 1_555 1_555
C30 C31 1_555 1_555
C31 H27 1_555 1_555
C32 C31 1_555 1_555
H28 C32 1_555 1_555
C33 C32 1_555 1_555
H29 C33 1_555 1_555
C34 C33 1_555 1_555
H30 C34 1_555 1_555
C35 C30 1_555 1_555
C36 C35 1_555 1_555
C37 C38 1_555 1_555
C38 H31 1_555 1_555
C39 C38 1_555 1_555
H32 C39 1_555 1_555
C40 C39 1_555 1_555
H33 C40 1_555 1_555
C41 C40 1_555 1_555
H34 C41 1_555 1_555
C42 C37 1_555 1_555
N3 C22 1_555 1_555
N4 C36 1_555 1_555
O2 C36 1_555 1_555
F3 B2 1_555 1_555
F4 B2 1_555 1_555
B2 N3 1_555 1_555
C6 C7 1_555 1_555
C9 N1 1_555 1_555
C13 C14 1_555 1_555
C16 O1 1_555 1_555
C20 C21 1_555 1_555
C21 N2 1_555 1_555
N2 B1 1_555 1_555
C27 C28 1_555 1_555
C30 N3 1_555 1_555
C34 C35 1_555 1_555
C37 O2 1_555 1_555
C41 C42 1_555 1_555
C42 N4 1_555 1_555
N4 B2 1_555 1_555

#END
