
#######################################################################
#
#                 Cambridge Crystallographic Data Centre
#                                CCDC 
#
#######################################################################
#
# If this CIF has been generated from an entry in the Cambridge 
# Structural Database, then it will include bibliographic, chemical, 
# crystal, experimental, refinement or atomic coordinate data resulting 
# from the CCDC's data processing and validation procedures.
#
#######################################################################

data_XOTFET
_chemical_formula_moiety         'C19 H11 B1 Cl2 F2 N2 O1'
_chemical_name_systematic        
(N-(2-(1,3-benzoxazol-2-yl)phenyl)-2,6-dichloroanilinato)(difluoro)borate
_symmetry_cell_setting           monoclinic
_symmetry_space_group_name_H-M   'P 21/c'
_symmetry_Int_Tables_number      14
_space_group_name_Hall           '-P 2ybc'
loop_
_symmetry_equiv_pos_site_id
_symmetry_equiv_pos_as_xyz
1 x,y,z
2 -x,1/2+y,1/2-z
3 -x,-y,-z
4 x,1/2-y,1/2+z
_cell_length_a                   11.8174(18)
_cell_length_b                   10.0040(15)
_cell_length_c                   15.2107(19)
_cell_angle_alpha                90
_cell_angle_beta                 98.682(7)
_cell_angle_gamma                90
_cell_volume                     1777.62
_exptl_crystal_colour            yellow
_exptl_crystal_description       prism
_cell_formula_units_Z            4
loop_
_atom_site_label
_atom_site_type_symbol
_atom_site_fract_x
_atom_site_fract_y
_atom_site_fract_z
B1 B 0.7101(3) 0.4237(4) 0.43347(19)
C1 C 0.7556(3) 0.5737(3) 0.58123(17)
C2 C 0.6646(3) 0.6597(3) 0.5784(2)
H1 H 0.6037 0.6604 0.5300
C3 C 0.6667(3) 0.7457(4) 0.6505(2)
H2 H 0.6057 0.8073 0.6513
C4 C 0.7575(3) 0.7436(4) 0.7225(2)
H3 H 0.7549 0.8024 0.7713
C5 C 0.8497(3) 0.6589(4) 0.7241(2)
H4 H 0.9116 0.6580 0.7718
C6 C 0.8458(3) 0.5755(3) 0.65151(18)
C7 C 0.8833(3) 0.4239(3) 0.55630(16)
C8 C 0.9421(2) 0.3223(3) 0.51655(17)
C9 C 1.0538(3) 0.2815(3) 0.55251(18)
H5 H 1.0924 0.3246 0.6042
C10 C 1.1075(3) 0.1805(4) 0.5139(2)
H6 H 1.1828 0.1532 0.5380
C11 C 1.0484(3) 0.1185(3) 0.4379(2)
H7 H 1.0845 0.0474 0.4114
C12 C 0.9406(3) 0.1566(3) 0.40043(18)
H8 H 0.9041 0.1123 0.3485
C13 C 0.8826(3) 0.2608(3) 0.43763(16)
C14 C 0.7133(3) 0.2332(3) 0.32846(18)
C15 C 0.6413(3) 0.1271(4) 0.3395(2)
C16 C 0.5731(3) 0.0659(4) 0.2663(3)
H9 H 0.5242 -0.0069 0.2749
C17 C 0.5788(3) 0.1143(5) 0.1815(2)
H10 H 0.5313 0.0758 0.1320
C18 C 0.6506(3) 0.2153(4) 0.1678(2)
H11 H 0.6543 0.2462 0.1093
C19 C 0.7190(3) 0.2731(4) 0.24047(19)
Cl1 Cl 0.63512(10) 0.06677(10) 0.44566(7)
Cl2 Cl 0.81567(10) 0.39583(11) 0.22082(6)
F1 F 0.69904(16) 0.52950(19) 0.37308(10)
F2 F 0.60222(15) 0.38969(18) 0.45115(10)
N1 N 0.7835(2) 0.4745(2) 0.52237(13)
N2 N 0.7745(2) 0.3042(3) 0.40219(14)
O1 O 0.92679(17) 0.4805(2) 0.63524(11)
loop_
_geom_bond_atom_site_label_1
_geom_bond_atom_site_label_2
_geom_bond_site_symmetry_1
_geom_bond_site_symmetry_2
B1 F1 1_555 1_555
C1 C2 1_555 1_555
C2 H1 1_555 1_555
C3 C2 1_555 1_555
H2 C3 1_555 1_555
C4 C3 1_555 1_555
H3 C4 1_555 1_555
C5 C4 1_555 1_555
H4 C5 1_555 1_555
C6 C1 1_555 1_555
C7 C8 1_555 1_555
C8 C9 1_555 1_555
C9 H5 1_555 1_555
C10 C9 1_555 1_555
H6 C10 1_555 1_555
C11 C10 1_555 1_555
H7 C11 1_555 1_555
C12 C11 1_555 1_555
H8 C12 1_555 1_555
C13 C8 1_555 1_555
C14 C15 1_555 1_555
C15 C16 1_555 1_555
C16 H9 1_555 1_555
C17 C16 1_555 1_555
H10 C17 1_555 1_555
C18 C17 1_555 1_555
H11 C18 1_555 1_555
C19 C14 1_555 1_555
Cl1 C15 1_555 1_555
Cl2 C19 1_555 1_555
F2 B1 1_555 1_555
N1 B1 1_555 1_555
N2 B1 1_555 1_555
O1 C6 1_555 1_555
C1 N1 1_555 1_555
C5 C6 1_555 1_555
C7 N1 1_555 1_555
C7 O1 1_555 1_555
C12 C13 1_555 1_555
C13 N2 1_555 1_555
C14 N2 1_555 1_555
C18 C19 1_555 1_555

#END
