
#######################################################################
#
#                 Cambridge Crystallographic Data Centre
#                                CCDC 
#
#######################################################################
#
# If this CIF has been generated from an entry in the Cambridge 
# Structural Database, then it will include bibliographic, chemical, 
# crystal, experimental, refinement or atomic coordinate data resulting 
# from the CCDC's data processing and validation procedures.
#
#######################################################################

data_XOTREF
_chemical_formula_moiety         'C17 H15 N1 O4,0.5(C1 H2 Cl2)'
_chemical_name_systematic        
'methyl 8-(dimethylamino)-2-oxo-2H-benzo[g]chromene-3-carboxylate dichloromethane solvate'
_symmetry_cell_setting           orthorhombic
_symmetry_space_group_name_H-M   'P b c n'
_symmetry_Int_Tables_number      60
_space_group_name_Hall           '-P 2n 2ab'
loop_
_symmetry_equiv_pos_site_id
_symmetry_equiv_pos_as_xyz
1 x,y,z
2 1/2-x,1/2-y,1/2+z
3 -x,y,1/2-z
4 1/2+x,1/2-y,-z
5 -x,-y,-z
6 1/2+x,1/2+y,1/2-z
7 x,-y,1/2+z
8 1/2-x,1/2+y,z
_cell_length_a                   33.9859(6)
_cell_length_b                   7.20910(10)
_cell_length_c                   12.3233(2)
_cell_angle_alpha                90
_cell_angle_beta                 90
_cell_angle_gamma                90
_cell_volume                     3019.3
_exptl_crystal_colour            red
_exptl_crystal_description       block
_chemical_melting_point          '523 K'
_cell_formula_units_Z            8
_exptl_crystal_recrystallization_method 'dichloromethane and hexane'
loop_
_atom_site_label
_atom_site_type_symbol
_atom_site_fract_x
_atom_site_fract_y
_atom_site_fract_z
Cl1 Cl 0.011834(8) 0.46508(4) 0.63615(2)
C1 C 0.0000 0.3276(2) 0.7500
H1 H -0.0229(4) 0.258(2) 0.7311(12)
Cl1B Cl -0.011834(8) 0.46508(4) 0.86385(2)
H1B H 0.0229(4) 0.258(2) 0.7689(12)
O1 O 0.329298(17) 0.31634(9) 0.27683(5)
O2 O 0.392171(19) 0.28148(11) 0.23785(5)
O3 O 0.445354(19) 0.44752(10) 0.38930(5)
O4 O 0.422556(18) 0.40104(10) 0.55849(5)
N1 N 0.11991(2) 0.35363(12) 0.38368(6)
C2 C 0.11054(3) 0.31635(14) 0.27098(7)
H2 H 0.1208(4) 0.412(2) 0.2228(11)
H3 H 0.0826(4) 0.317(2) 0.2622(11)
H4 H 0.1210(4) 0.194(2) 0.2491(11)
C3 C 0.08782(3) 0.38240(14) 0.45990(8)
H5 H 0.0902(4) 0.302(2) 0.5262(11)
H6 H 0.0634(4) 0.354(2) 0.4230(11)
H7 H 0.0871(4) 0.509(2) 0.4900(11)
C4 C 0.15812(2) 0.36769(11) 0.41661(6)
C5 C 0.18972(2) 0.34097(12) 0.34586(6)
H8 H 0.1854(3) 0.3008(17) 0.2696(10)
C6 C 0.22895(2) 0.35806(11) 0.38163(6)
C7 C 0.26120(2) 0.32970(12) 0.31055(6)
H9 H 0.2568(3) 0.2886(17) 0.2358(9)
C8 C 0.29884(2) 0.34668(11) 0.34874(6)
C9 C 0.36855(2) 0.32347(12) 0.30671(6)
C10 C 0.16651(2) 0.40933(12) 0.52825(6)
H10 H 0.1455(4) 0.4257(17) 0.5775(10)
C11 C 0.20431(2) 0.42829(12) 0.56344(6)
H11 H 0.2081(4) 0.4564(17) 0.6405(10)
C12 C 0.23681(2) 0.40478(11) 0.49249(6)
C13 C 0.27577(2) 0.42361(12) 0.52801(6)
H12 H 0.2816(4) 0.4606(17) 0.6007(10)
C14 C 0.30716(2) 0.39461(11) 0.45787(6)
C15 C 0.34718(2) 0.41233(12) 0.48941(6)
H13 H 0.3538(4) 0.4569(17) 0.5607(10)
C16 C 0.37703(2) 0.38051(11) 0.41833(6)
C17 C 0.41857(2) 0.41166(12) 0.45050(6)
C18 C 0.46101(3) 0.44953(15) 0.60028(8)
H14 H 0.4576(4) 0.4436(19) 0.6765(12)
H15 H 0.4681(4) 0.574(2) 0.5753(11)
H16 H 0.4800(4) 0.361(2) 0.5802(12)
loop_
_geom_bond_atom_site_label_1
_geom_bond_atom_site_label_2
_geom_bond_site_symmetry_1
_geom_bond_site_symmetry_2
Cl1 C1 1_555 1_555
C1 H1 1_555 1_555
O1 C8 1_555 1_555
O2 C9 1_555 1_555
O3 C17 1_555 1_555
O4 C17 1_555 1_555
N1 C2 1_555 1_555
C2 H2 1_555 1_555
H3 C2 1_555 1_555
H4 C2 1_555 1_555
C3 N1 1_555 1_555
H5 C3 1_555 1_555
H6 C3 1_555 1_555
H7 C3 1_555 1_555
C4 N1 1_555 1_555
C5 C4 1_555 1_555
H8 C5 1_555 1_555
C6 C5 1_555 1_555
C7 C6 1_555 1_555
H9 C7 1_555 1_555
C8 C7 1_555 1_555
C9 O1 1_555 1_555
C10 C4 1_555 1_555
H10 C10 1_555 1_555
C11 C10 1_555 1_555
H11 C11 1_555 1_555
C12 C6 1_555 1_555
C13 C12 1_555 1_555
H12 C13 1_555 1_555
C14 C8 1_555 1_555
C15 C14 1_555 1_555
H13 C15 1_555 1_555
C16 C9 1_555 1_555
C17 C16 1_555 1_555
C18 O4 1_555 1_555
H14 C18 1_555 1_555
H15 C18 1_555 1_555
H16 C18 1_555 1_555
Cl1B C1 1_555 1_555
H1B C1 1_555 1_555
C11 C12 1_555 1_555
C13 C14 1_555 1_555
C15 C16 1_555 1_555

#END
