
#######################################################################
#
#                 Cambridge Crystallographic Data Centre
#                                CCDC 
#
#######################################################################
#
# If this CIF has been generated from an entry in the Cambridge 
# Structural Database, then it will include bibliographic, chemical, 
# crystal, experimental, refinement or atomic coordinate data resulting 
# from the CCDC's data processing and validation procedures.
#
#######################################################################

data_XOTZEM
_chemical_formula_moiety         'C15 H15 N1 O1 S1'
_chemical_name_systematic        2-(4-(1-Pyrrolidinyl)benzoyl)thiophene
_symmetry_cell_setting           monoclinic
_symmetry_space_group_name_H-M   'P 21'
_symmetry_Int_Tables_number      4
_space_group_name_Hall           'P 2yb'
loop_
_symmetry_equiv_pos_site_id
_symmetry_equiv_pos_as_xyz
1 x,y,z
2 -x,1/2+y,-z
_cell_length_a                   6.2875(8)
_cell_length_b                   7.4712(10)
_cell_length_c                   13.9391(18)
_cell_angle_alpha                90
_cell_angle_beta                 99.031(3)
_cell_angle_gamma                90
_cell_volume                     646.675
_exptl_crystal_colour            colorless
_exptl_crystal_description       plate
_chemical_melting_point          '174 deg.C'
_cell_formula_units_Z            2
_exptl_crystal_recrystallization_method 'chloroform/ethyl acetate'
loop_
_atom_site_label
_atom_site_type_symbol
_atom_site_fract_x
_atom_site_fract_y
_atom_site_fract_z
S1 S 0.55082(9) 0.36579(10) 0.93841(4)
C1 C 0.3349(4) 0.3550(5) 0.99670(17)
H1 H 0.343(4) 0.295(4) 1.056(2)
C2 C 0.1633(4) 0.4402(4) 0.94818(17)
H2 H 0.035(4) 0.454(4) 0.9714(19)
C3 C 0.2034(3) 0.5124(3) 0.85988(16)
H3 H 0.104(4) 0.569(3) 0.8208(17)
C4 C 0.4085(3) 0.4837(3) 0.84378(14)
C5 C 0.5216(3) 0.5434(3) 0.76409(14)
O1 O 0.7120(2) 0.5859(3) 0.78419(13)
C6 C 0.4077(3) 0.5493(3) 0.66401(14)
C7 C 0.2125(3) 0.4625(3) 0.63389(15)
H4 H 0.143(3) 0.402(3) 0.6782(14)
C8 C 0.1148(3) 0.4637(3) 0.53854(15)
H5 H -0.013(4) 0.404(3) 0.5201(14)
C9 C 0.2093(3) 0.5521(3) 0.46748(13)
C10 C 0.4059(3) 0.6407(3) 0.49838(16)
H6 H 0.467(4) 0.712(3) 0.4513(14)
C11 C 0.5006(3) 0.6379(3) 0.59253(16)
H7 H 0.631(4) 0.692(3) 0.6139(17)
N1 N 0.1152(3) 0.5502(2) 0.37303(11)
C12 C -0.0895(5) 0.4629(4) 0.33869(17)
H8 H -0.197(4) 0.502(4) 0.3793(19)
H9 H -0.076(4) 0.348(5) 0.3482(19)
C13 C -0.1381(5) 0.5107(4) 0.23254(19)
H10 H -0.210(5) 0.628(5) 0.222(2)
H11 H -0.220(5) 0.420(4) 0.195(2)
C14 C 0.0785(6) 0.5366(5) 0.20403(19)
H12 H 0.071(5) 0.607(5) 0.151(2)
H13 H 0.157(5) 0.419(6) 0.193(2)
C15 C 0.2148(5) 0.6190(4) 0.29271(18)
H14 H 0.208(4) 0.754(4) 0.2929(17)
H15 H 0.346(4) 0.576(4) 0.2989(17)
loop_
_geom_bond_atom_site_label_1
_geom_bond_atom_site_label_2
_geom_bond_site_symmetry_1
_geom_bond_site_symmetry_2
S1 C1 1_555 1_555
C1 H1 1_555 1_555
C2 C1 1_555 1_555
H2 C2 1_555 1_555
C3 C2 1_555 1_555
H3 C3 1_555 1_555
C4 S1 1_555 1_555
C5 C4 1_555 1_555
O1 C5 1_555 1_555
C6 C5 1_555 1_555
C7 C6 1_555 1_555
H4 C7 1_555 1_555
C8 C7 1_555 1_555
H5 C8 1_555 1_555
C9 C8 1_555 1_555
C10 C9 1_555 1_555
H6 C10 1_555 1_555
C11 C6 1_555 1_555
H7 C11 1_555 1_555
N1 C9 1_555 1_555
C12 N1 1_555 1_555
H8 C12 1_555 1_555
H9 C12 1_555 1_555
C13 C12 1_555 1_555
H10 C13 1_555 1_555
H11 C13 1_555 1_555
C14 C13 1_555 1_555
H12 C14 1_555 1_555
H13 C14 1_555 1_555
C15 N1 1_555 1_555
H14 C15 1_555 1_555
H15 C15 1_555 1_555
C3 C4 1_555 1_555
C10 C11 1_555 1_555
C14 C15 1_555 1_555

#END
