
#######################################################################
#
#                 Cambridge Crystallographic Data Centre
#                                CCDC 
#
#######################################################################
#
# If this CIF has been generated from an entry in the Cambridge 
# Structural Database, then it will include bibliographic, chemical, 
# crystal, experimental, refinement or atomic coordinate data resulting 
# from the CCDC's data processing and validation procedures.
#
#######################################################################

data_XOVKEY
_chemical_formula_moiety         'C29 H46 N4 O7'
_chemical_name_systematic        
't-Butoxycarbonyl-leucyl-\a-aminoisobutyryl-phenylalanyl-\a-aminoisobutyric acid methyl ester'
_symmetry_cell_setting           orthorhombic
_symmetry_space_group_name_H-M   'P 21 21 21'
_symmetry_Int_Tables_number      19
_space_group_name_Hall           'P 2ac 2ab'
loop_
_symmetry_equiv_pos_site_id
_symmetry_equiv_pos_as_xyz
1 x,y,z
2 -x,1/2+y,1/2-z
3 1/2+x,1/2-y,-z
4 1/2-x,-y,1/2+z
_cell_length_a                   13.253(17)
_cell_length_b                   15.694(19)
_cell_length_c                   15.768(19)
_cell_angle_alpha                90
_cell_angle_beta                 90
_cell_angle_gamma                90
_cell_volume                     3279.63
_chemical_melting_point          '141-142 deg.C'
_cell_formula_units_Z            4
_exptl_crystal_recrystallization_method 'ethyl acetate'
loop_
_atom_site_label
_atom_site_type_symbol
_atom_site_fract_x
_atom_site_fract_y
_atom_site_fract_z
C1 C 0.2258(4) 0.2033(3) -0.3590(4)
C2 C 0.2845(5) 0.1977(5) -0.4430(4)
H1 H 0.2388 0.1844 -0.4883
H2 H 0.3348 0.1538 -0.4389
H3 H 0.3167 0.2513 -0.4543
C3 C 0.1437(5) 0.2716(4) -0.3624(5)
H4 H 0.0950 0.2567 -0.4050
H5 H 0.1736 0.3255 -0.3763
H6 H 0.1110 0.2754 -0.3082
C4 C 0.1736(4) 0.1187(4) -0.3355(5)
O1 O 0.1686(3) 0.0651(3) -0.4019(3)
C5 C 0.1203(6) -0.0162(4) -0.3847(5)
H7 H 0.1082 -0.0455 -0.4371
H8 H 0.0572 -0.0066 -0.3562
H9 H 0.1634 -0.0501 -0.3493
O2 O 0.1353(4) 0.1051(3) -0.2684(3)
N1 N 0.2972(3) 0.2248(3) -0.2899(3)
H10 H 0.2950 0.2747 -0.2673
C6 C 0.3654(4) 0.1680(3) -0.2619(3)
O3 O 0.3647(3) 0.0920(2) -0.2839(3)
C7 C 0.4444(4) 0.1991(3) -0.1979(4)
H11 H 0.5041 0.1628 -0.2049
C8 C 0.4072(4) 0.1870(4) -0.1054(4)
H12 H 0.3612 0.2331 -0.0920
H13 H 0.3690 0.1343 -0.1026
C9 C 0.4896(4) 0.1842(4) -0.0368(4)
C10 C 0.4757(6) 0.2239(4) 0.0396(4)
H14 H 0.4176 0.2558 0.0486
C11 C 0.5453(7) 0.2177(6) 0.1025(5)
H15 H 0.5319 0.2434 0.1545
C12 C 0.6340(7) 0.1751(6) 0.0922(5)
H16 H 0.6823 0.1742 0.1350
C13 C 0.6497(5) 0.1336(6) 0.0165(5)
H17 H 0.7082 0.1019 0.0084
C14 C 0.5792(5) 0.1388(5) -0.0472(5)
H18 H 0.5915 0.1114 -0.0984
N2 N 0.4766(3) 0.2869(2) -0.2145(3)
H19 H 0.4715 0.3256 -0.1761
C15 C 0.5143(4) 0.3049(3) -0.2919(4)
O4 O 0.5328(3) 0.2484(2) -0.3439(3)
C16 C 0.5389(4) 0.3982(3) -0.3138(4)
C17 C 0.6521(4) 0.4079(4) -0.2949(6)
H20 H 0.6892 0.3656 -0.3259
H21 H 0.6635 0.4004 -0.2352
H22 H 0.6741 0.4636 -0.3117
C18 C 0.5147(7) 0.4139(4) -0.4093(4)
H23 H 0.5489 0.3721 -0.4432
H24 H 0.5371 0.4698 -0.4252
H25 H 0.4433 0.4094 -0.4183
N3 N 0.4832(3) 0.4582(3) -0.2590(3)
H26 H 0.5176 0.4939 -0.2295
C19 C 0.3811(4) 0.4607(3) -0.2523(3)
O5 O 0.3255(3) 0.4108(3) -0.2919(3)
C20 C 0.3353(4) 0.5235(3) -0.1897(3)
H27 H 0.2834 0.4924 -0.1581
C21 C 0.2813(4) 0.5968(3) -0.2356(4)
H28 H 0.3318 0.6308 -0.2645
H29 H 0.2378 0.5723 -0.2788
C22 C 0.1418(7) 0.6108(6) -0.1268(6)
H30 H 0.1007 0.5747 -0.1617
H31 H 0.0998 0.6521 -0.0989
H32 H 0.1759 0.5770 -0.0850
C23 C 0.2181(4) 0.6558(4) -0.1809(5)
H33 H 0.2639 0.6867 -0.1432
C24 C 0.1669(6) 0.7207(5) -0.2385(6)
H34 H 0.2161 0.7455 -0.2758
H35 H 0.1368 0.7647 -0.2045
H36 H 0.1156 0.6930 -0.2714
N4 N 0.4067(3) 0.5560(3) -0.1271(3)
H37 H 0.4269 0.6081 -0.1286
C25 C 0.4403(4) 0.5015(4) -0.0667(4)
O6 O 0.4236(3) 0.4252(2) -0.0667(3)
O7 O 0.4955(3) 0.5450(2) -0.0074(2)
C26 C 0.5399(4) 0.4994(4) 0.0660(4)
C27 C 0.6189(5) 0.4380(5) 0.0361(5)
H38 H 0.6506 0.4117 0.0843
H39 H 0.6687 0.4680 0.0036
H40 H 0.5881 0.3949 0.0015
C28 C 0.5867(5) 0.5720(5) 0.1184(5)
H41 H 0.6179 0.5488 0.1682
H42 H 0.5349 0.6115 0.1347
H43 H 0.6365 0.6010 0.0849
C29 C 0.4572(5) 0.4587(5) 0.1182(4)
H44 H 0.4858 0.4346 0.1688
H45 H 0.4253 0.4145 0.0857
H46 H 0.4081 0.5010 0.1333
loop_
_geom_bond_atom_site_label_1
_geom_bond_atom_site_label_2
_geom_bond_site_symmetry_1
_geom_bond_site_symmetry_2
C1 C2 1_555 1_555
C2 H1 1_555 1_555
H2 C2 1_555 1_555
H3 C2 1_555 1_555
C3 C1 1_555 1_555
H4 C3 1_555 1_555
H5 C3 1_555 1_555
H6 C3 1_555 1_555
C4 C1 1_555 1_555
O1 C4 1_555 1_555
C5 O1 1_555 1_555
H7 C5 1_555 1_555
H8 C5 1_555 1_555
H9 C5 1_555 1_555
O2 C4 1_555 1_555
N1 C1 1_555 1_555
H10 N1 1_555 1_555
C6 N1 1_555 1_555
O3 C6 1_555 1_555
C7 C6 1_555 1_555
H11 C7 1_555 1_555
C8 C7 1_555 1_555
H12 C8 1_555 1_555
H13 C8 1_555 1_555
C9 C8 1_555 1_555
C10 C9 1_555 1_555
H14 C10 1_555 1_555
C11 C10 1_555 1_555
H15 C11 1_555 1_555
C12 C11 1_555 1_555
H16 C12 1_555 1_555
C13 C12 1_555 1_555
H17 C13 1_555 1_555
C14 C9 1_555 1_555
H18 C14 1_555 1_555
N2 C7 1_555 1_555
H19 N2 1_555 1_555
C15 N2 1_555 1_555
O4 C15 1_555 1_555
C16 C15 1_555 1_555
C17 C16 1_555 1_555
H20 C17 1_555 1_555
H21 C17 1_555 1_555
H22 C17 1_555 1_555
C18 C16 1_555 1_555
H23 C18 1_555 1_555
H24 C18 1_555 1_555
H25 C18 1_555 1_555
N3 C16 1_555 1_555
H26 N3 1_555 1_555
C19 N3 1_555 1_555
O5 C19 1_555 1_555
C20 C19 1_555 1_555
H27 C20 1_555 1_555
C21 C20 1_555 1_555
H28 C21 1_555 1_555
H29 C21 1_555 1_555
C22 H30 1_555 1_555
H31 C22 1_555 1_555
H32 C22 1_555 1_555
C23 C21 1_555 1_555
H33 C23 1_555 1_555
C24 C23 1_555 1_555
H34 C24 1_555 1_555
H35 C24 1_555 1_555
H36 C24 1_555 1_555
N4 C20 1_555 1_555
H37 N4 1_555 1_555
C25 N4 1_555 1_555
O6 C25 1_555 1_555
O7 C25 1_555 1_555
C26 O7 1_555 1_555
C27 C26 1_555 1_555
H38 C27 1_555 1_555
H39 C27 1_555 1_555
H40 C27 1_555 1_555
C28 C26 1_555 1_555
H41 C28 1_555 1_555
H42 C28 1_555 1_555
H43 C28 1_555 1_555
C29 C26 1_555 1_555
H44 C29 1_555 1_555
H45 C29 1_555 1_555
H46 C29 1_555 1_555
C13 C14 1_555 1_555
C22 C23 1_555 1_555

#END
