
#######################################################################
#
#                 Cambridge Crystallographic Data Centre
#                                CCDC 
#
#######################################################################
#
# If this CIF has been generated from an entry in the Cambridge 
# Structural Database, then it will include bibliographic, chemical, 
# crystal, experimental, refinement or atomic coordinate data resulting 
# from the CCDC's data processing and validation procedures.
#
#######################################################################

data_XOWBAN
_chemical_formula_moiety         'C14 H19 Br1 O4'
_chemical_name_systematic        
2-Bromo-6,11,11-trimethyl-10,12,14-trioxatetracyclo[6.5.1.0^1,6^.0^9,13^]tetradecan-5-one
_symmetry_cell_setting           monoclinic
_symmetry_space_group_name_H-M   'P 21'
_symmetry_Int_Tables_number      4
_space_group_name_Hall           'P 2yb'
loop_
_symmetry_equiv_pos_site_id
_symmetry_equiv_pos_as_xyz
1 x,y,z
2 -x,1/2+y,-z
_cell_length_a                   7.2459(4)
_cell_length_b                   8.6833(4)
_cell_length_c                   11.2308(5)
_cell_angle_alpha                90
_cell_angle_beta                 104.730(3)
_cell_angle_gamma                90
_cell_volume                     683.4
_exptl_crystal_colour            colorless
_exptl_crystal_description       prisms
_cell_formula_units_Z            2
_exptl_crystal_recrystallization_method 'diethyl ether'
loop_
_atom_site_label
_atom_site_type_symbol
_atom_site_fract_x
_atom_site_fract_y
_atom_site_fract_z
Br1 Br 0.23610(2) -0.24244(3) 0.228642(17)
O1 O 0.15225(17) 0.22973(14) 0.21925(13)
O2 O 0.2676(2) 0.29611(16) 0.48281(15)
O3 O 0.2184(2) 0.03845(17) 0.44122(15)
O4 O 0.3758(3) 0.1938(2) -0.04731(16)
C1 C 0.1149(3) -0.0400(2) 0.18551(19)
C2 C 0.0322(3) -0.0299(3) 0.0472(2)
C3 C 0.1897(3) -0.0236(3) -0.0216(2)
C4 C 0.3262(3) 0.1079(3) 0.0230(2)
C5 C 0.4118(3) 0.1236(2) 0.1628(2)
C6 C 0.4548(3) 0.2946(2) 0.1993(2)
C7 C 0.3116(3) 0.3284(2) 0.27521(19)
C8 C 0.3840(2) 0.2592(3) 0.40286(16)
C9 C 0.1662(3) 0.1644(2) 0.50828(19)
C10 C 0.3501(3) 0.0848(2) 0.37442(19)
C11 C 0.2582(2) 0.0860(2) 0.2340(2)
C12 C 0.5920(3) 0.0226(3) 0.1913(2)
C13 C -0.0450(3) 0.1920(3) 0.4653(3)
C14 C 0.2290(4) 0.1276(3) 0.6441(2)
H1 H 0.020(3) -0.039(3) 0.229(2)
H2 H -0.049(3) -0.119(3) 0.020(2)
H3 H -0.041(4) 0.063(4) 0.032(3)
H4 H 0.270(4) -0.119(3) -0.010(3)
H5 H 0.141(3) -0.005(3) -0.106(2)
H6 H 0.431(3) 0.353(3) 0.130(2)
H7 H 0.585(3) 0.312(3) 0.247(2)
H8 H 0.273(3) 0.432(4) 0.2752(18)
H9 H 0.514(3) 0.285(3) 0.441(2)
H10 H 0.466(3) 0.017(3) 0.396(2)
H11 H 0.672(3) 0.065(3) 0.148(3)
H12 H 0.564(3) -0.075(3) 0.166(2)
H13 H 0.655(3) 0.025(3) 0.282(3)
H14 H -0.075(3) 0.221(4) 0.372(3)
H15 H -0.077(4) 0.278(5) 0.508(3)
H16 H -0.109(4) 0.099(3) 0.486(3)
H17 H 0.349(5) 0.118(4) 0.665(3)
H18 H 0.157(4) 0.032(3) 0.668(3)
H19 H 0.198(3) 0.213(4) 0.689(3)
loop_
_geom_bond_atom_site_label_1
_geom_bond_atom_site_label_2
_geom_bond_site_symmetry_1
_geom_bond_site_symmetry_2
Br1 C1 1_555 1_555
O1 C7 1_555 1_555
O2 C8 1_555 1_555
O3 C9 1_555 1_555
O4 C4 1_555 1_555
C1 C2 1_555 1_555
C2 C3 1_555 1_555
C3 C4 1_555 1_555
C4 C5 1_555 1_555
C5 C6 1_555 1_555
C6 C7 1_555 1_555
C7 C8 1_555 1_555
C8 C10 1_555 1_555
C9 O2 1_555 1_555
C10 O3 1_555 1_555
C11 O1 1_555 1_555
C12 C5 1_555 1_555
C13 C9 1_555 1_555
C14 C9 1_555 1_555
H1 C1 1_555 1_555
H2 C2 1_555 1_555
H3 C2 1_555 1_555
H4 C3 1_555 1_555
H5 C3 1_555 1_555
H6 C6 1_555 1_555
H7 C6 1_555 1_555
H8 C7 1_555 1_555
H9 C8 1_555 1_555
H10 C10 1_555 1_555
H11 C12 1_555 1_555
H12 C12 1_555 1_555
H13 C12 1_555 1_555
H14 C13 1_555 1_555
H15 C13 1_555 1_555
H16 C13 1_555 1_555
H17 C14 1_555 1_555
H18 C14 1_555 1_555
H19 C14 1_555 1_555
C1 C11 1_555 1_555
C5 C11 1_555 1_555
C10 C11 1_555 1_555

#END
