
#######################################################################
#
#                 Cambridge Crystallographic Data Centre
#                                CCDC 
#
#######################################################################
#
# If this CIF has been generated from an entry in the Cambridge 
# Structural Database, then it will include bibliographic, chemical, 
# crystal, experimental, refinement or atomic coordinate data resulting 
# from the CCDC's data processing and validation procedures.
#
#######################################################################

data_XOWVOV
_chemical_formula_moiety         'C23 H29 Br1 O4,C23 H30 O4'
_chemical_name_systematic        
'trans-1-(1-Methyl-2-phenylcyclopropyl)propyl 4,7,7-trimethyl-3-oxo-2-oxabicyclo[2.2.1]heptane-1-carboxylate 1-(3-bromo-1-methyl-2-phenylcyclopropyl)propyl 4,7,7-trimethyl-3-oxo-2-oxabicyclo[2.2.1]heptane-1-carboxylate'
_symmetry_cell_setting           triclinic
_symmetry_space_group_name_H-M   'P 1'
_symmetry_Int_Tables_number      1
_space_group_name_Hall           'P 1'
loop_
_symmetry_equiv_pos_site_id
_symmetry_equiv_pos_as_xyz
1 x,y,z
_cell_length_a                   7.2994(18)
_cell_length_b                   12.819(3)
_cell_length_c                   13.121(3)
_cell_angle_alpha                77.774(15)
_cell_angle_beta                 89.559(16)
_cell_angle_gamma                77.542(18)
_cell_volume                     1170.72
_cell_formula_units_Z            1
_exptl_crystal_recrystallization_method n-pentane
loop_
_atom_site_label
_atom_site_type_symbol
_atom_site_fract_x
_atom_site_fract_y
_atom_site_fract_z
C1 C 0.5289(9) 0.0760(4) 0.6671(5)
C2 C 0.3095(9) 0.1093(5) 0.6788(5)
H1 H 0.2473 0.0538 0.6648
H2 H 0.2550 0.1789 0.6328
C3 C 0.2974(9) 0.1175(5) 0.7997(5)
H3 H 0.2360 0.1907 0.8062
H4 H 0.2288 0.0658 0.8381
C4 C 0.5103(9) 0.0883(5) 0.8411(5)
C5 C 0.5750(9) -0.0346(5) 0.8372(5)
C6 C 0.6098(9) 0.1423(5) 0.7410(5)
C7 C 0.5441(11) 0.1162(6) 0.9482(5)
H5 H 0.6764 0.0991 0.9651
H6 H 0.4823 0.0739 1.0012
H7 H 0.4944 0.1927 0.9444
C8 C 0.8303(10) 0.1139(6) 0.7506(6)
H8 H 0.8713 0.1507 0.7998
H9 H 0.8798 0.1373 0.6837
H10 H 0.8745 0.0363 0.7741
C9 C 0.5469(10) 0.2709(5) 0.7071(5)
H11 H 0.6176 0.2969 0.6489
H12 H 0.5692 0.3029 0.7644
H13 H 0.4155 0.2911 0.6875
C10 C 0.5980(9) 0.0741(5) 0.5574(5)
C11 C 0.6324(10) 0.2014(5) 0.3888(5)
H14 H 0.7343 0.1413 0.3784
C12 C 0.4542(10) 0.2024(5) 0.3230(5)
H15 H 0.3544 0.2622 0.3336
H16 H 0.4132 0.1348 0.3490
C13 C 0.4838(11) 0.2147(6) 0.2029(5)
H17 H 0.5778 0.1539 0.1911
H18 H 0.5238 0.2815 0.1760
H19 H 0.3678 0.2163 0.1680
C14 C 0.7042(10) 0.3093(5) 0.3679(5)
C15 C 0.8463(9) 0.3239(5) 0.2781(4)
H20 H 0.8712 0.2628 0.2423
C16 C 0.9182(9) 0.2905(5) 0.3923(5)
H21 H 0.9613 0.3446 0.4219
H22 H 0.9873 0.2158 0.4175
C17 C 0.5684(10) 0.4113(5) 0.3934(5)
H23 H 0.6303 0.4714 0.3833
H24 H 0.5329 0.3947 0.4646
H25 H 0.4582 0.4308 0.3480
C18 C 0.8525(11) 0.4355(5) 0.2045(5)
C19 C 1.0288(12) 0.4625(6) 0.1747(6)
H26 H 1.1389 0.4132 0.2022
C20 C 1.0423(13) 0.5611(7) 0.1051(6)
H27 H 1.1590 0.5772 0.0899
C21 C 0.8730(14) 0.6365(6) 0.0578(6)
H28 H 0.8788 0.7006 0.0102
C22 C 0.6976(11) 0.6101(6) 0.0857(5)
H29 H 0.5876 0.6591 0.0574
C23 C 0.6850(10) 0.5121(5) 0.1551(5)
H30 H 0.5679 0.4961 0.1694
O1 O 0.5849(6) -0.0417(3) 0.7316(3)
O2 O 0.6134(7) -0.1167(4) 0.9081(4)
O3 O 0.6617(7) -0.0077(4) 0.5209(4)
O4 O 0.5819(6) 0.1815(3) 0.5021(3)
Br1 Br 0.7661(2) 0.61582(13) 0.53450(14)
C24 C 0.0895(9) 0.9241(5) 0.3311(5)
C25 C -0.1037(9) 0.8896(5) 0.3190(5)
H31 H -0.2097 0.9451 0.3315
H32 H -0.1068 0.8202 0.3654
C26 C -0.0998(9) 0.8801(6) 0.1983(5)
H33 H -0.1078 0.8072 0.1919
H34 H -0.2030 0.9327 0.1578
C27 C 0.0994(9) 0.9060(5) 0.1599(5)
C28 C 0.0694(9) 1.0298(5) 0.1622(5)
C29 C 0.2314(10) 0.8535(5) 0.2633(5)
C30 C 0.1608(10) 0.8757(6) 0.0540(5)
H35 H 0.2777 0.8963 0.0358
H36 H 0.0665 0.9139 0.0006
H37 H 0.1762 0.7983 0.0604
C31 C 0.4265(9) 0.8845(6) 0.2533(6)
H38 H 0.4097 0.9617 0.2259
H39 H 0.5007 0.8452 0.2071
H40 H 0.4894 0.8657 0.3208
C32 C 0.2604(10) 0.7243(5) 0.2982(5)
H41 H 0.3431 0.6982 0.3591
H42 H 0.3143 0.6911 0.2427
H43 H 0.1413 0.7056 0.3140
C33 C 0.1509(8) 0.9249(5) 0.4422(5)
C34 C 0.2580(9) 0.8027(5) 0.6133(5)
H44 H 0.3127 0.8634 0.6233
C35 C 0.0776(10) 0.8019(5) 0.6791(5)
H45 H -0.0139 0.8695 0.6529
H46 H 0.0234 0.7420 0.6686
C36 C 0.1132(12) 0.7899(6) 0.7982(5)
H47 H 0.1756 0.8455 0.8093
H48 H 0.1906 0.7191 0.8268
H49 H -0.0045 0.7977 0.8320
C37 C 0.4165(10) 0.6941(5) 0.6342(5)
C38 C 0.5742(10) 0.6805(5) 0.7190(5)
H50 H 0.5572 0.7423 0.7537
C39 C 0.6107(10) 0.7120(5) 0.6029(5)
H51 H 0.6163 0.7889 0.5781
C40 C 0.3559(11) 0.5878(5) 0.6196(5)
H52 H 0.4646 0.5288 0.6268
H53 H 0.2975 0.6005 0.5515
H54 H 0.2685 0.5690 0.6717
C41 C 0.6548(13) 0.5688(6) 0.7934(6)
C42 C 0.8512(17) 0.5252(8) 0.8006(9)
H55 H 0.9302 0.5620 0.7584
C43 C 0.931(2) 0.4218(9) 0.8746(11)
H56 H 1.0593 0.3932 0.8785
C44 C 0.814(3) 0.3671(8) 0.9385(11)
H57 H 0.8633 0.3004 0.9833
C45 C 0.620(2) 0.4131(7) 0.9353(8)
H58 H 0.5434 0.3777 0.9812
C46 C 0.5367(16) 0.5116(6) 0.8643(5)
H59 H 0.4079 0.5395 0.8631
O5 O 0.0655(6) 1.0389(3) 0.2676(3)
O6 O 0.0505(8) 1.1112(4) 0.0884(4)
O7 O 0.1554(8) 1.0088(4) 0.4770(4)
O8 O 0.2031(6) 0.8196(3) 0.5010(3)
Br2? Br 1.0156(2) 0.38666(12) 0.45526(12)
H60? H 0.9823 0.2135 0.4147
H61? H 0.6909 0.6572 0.5719
H62? H 0.6227 0.7865 0.5750
loop_
_geom_bond_atom_site_label_1
_geom_bond_atom_site_label_2
_geom_bond_site_symmetry_1
_geom_bond_site_symmetry_2
C1 C2 1_555 1_555
C2 H1 1_555 1_555
H2 C2 1_555 1_555
C3 C2 1_555 1_555
H3 C3 1_555 1_555
H4 C3 1_555 1_555
C4 C3 1_555 1_555
C5 C4 1_555 1_555
C6 C1 1_555 1_555
C7 C4 1_555 1_555
H5 C7 1_555 1_555
H6 C7 1_555 1_555
H7 C7 1_555 1_555
C8 C6 1_555 1_555
H8 C8 1_555 1_555
H9 C8 1_555 1_555
H10 C8 1_555 1_555
C9 C6 1_555 1_555
H11 C9 1_555 1_555
H12 C9 1_555 1_555
H13 C9 1_555 1_555
C10 C1 1_555 1_555
C11 H14 1_555 1_555
C12 C11 1_555 1_555
H15 C12 1_555 1_555
H16 C12 1_555 1_555
C13 C12 1_555 1_555
H17 C13 1_555 1_555
H18 C13 1_555 1_555
H19 C13 1_555 1_555
C14 C11 1_555 1_555
C15 C14 1_555 1_555
H20 C15 1_555 1_555
C16 C14 1_555 1_555
H21 C16 1_555 1_555
H22 C16 1_555 1_555
C17 C14 1_555 1_555
H23 C17 1_555 1_555
H24 C17 1_555 1_555
H25 C17 1_555 1_555
C18 C15 1_555 1_555
C19 C18 1_555 1_555
H26 C19 1_555 1_555
C20 C19 1_555 1_555
H27 C20 1_555 1_555
C21 C20 1_555 1_555
H28 C21 1_555 1_555
C22 C21 1_555 1_555
H29 C22 1_555 1_555
C23 C18 1_555 1_555
H30 C23 1_555 1_555
O1 C1 1_555 1_555
O2 C5 1_555 1_555
O3 C10 1_555 1_555
O4 C10 1_555 1_555
Br1 C39 1_555 1_555
C24 C25 1_555 1_555
C25 H31 1_555 1_555
H32 C25 1_555 1_555
C26 C25 1_555 1_555
H33 C26 1_555 1_555
H34 C26 1_555 1_555
C27 C26 1_555 1_555
C28 C27 1_555 1_555
C29 C24 1_555 1_555
C30 C27 1_555 1_555
H35 C30 1_555 1_555
H36 C30 1_555 1_555
H37 C30 1_555 1_555
C31 C29 1_555 1_555
H38 C31 1_555 1_555
H39 C31 1_555 1_555
H40 C31 1_555 1_555
C32 C29 1_555 1_555
H41 C32 1_555 1_555
H42 C32 1_555 1_555
H43 C32 1_555 1_555
C33 C24 1_555 1_555
C34 H44 1_555 1_555
C35 C34 1_555 1_555
H45 C35 1_555 1_555
H46 C35 1_555 1_555
C36 C35 1_555 1_555
H47 C36 1_555 1_555
H48 C36 1_555 1_555
H49 C36 1_555 1_555
C37 C34 1_555 1_555
C38 C37 1_555 1_555
H50 C38 1_555 1_555
C39 C37 1_555 1_555
H51 C39 1_555 1_555
C40 C37 1_555 1_555
H52 C40 1_555 1_555
H53 C40 1_555 1_555
H54 C40 1_555 1_555
C41 C38 1_555 1_555
C42 C41 1_555 1_555
H55 C42 1_555 1_555
C43 C42 1_555 1_555
H56 C43 1_555 1_555
C44 C43 1_555 1_555
H57 C44 1_555 1_555
C45 C44 1_555 1_555
H58 C45 1_555 1_555
C46 C41 1_555 1_555
H59 C46 1_555 1_555
O5 C24 1_555 1_555
O6 C28 1_555 1_555
O7 C33 1_555 1_555
O8 C33 1_555 1_555
C4 C6 1_555 1_555
C5 O1 1_555 1_555
C11 O4 1_555 1_555
C15 C16 1_555 1_555
C22 C23 1_555 1_555
C27 C29 1_555 1_555
C28 O5 1_555 1_555
C34 O8 1_555 1_555
C38 C39 1_555 1_555
C45 C46 1_555 1_555

#END
