
#######################################################################
#
#                 Cambridge Crystallographic Data Centre
#                                CCDC 
#
#######################################################################
#
# If this CIF has been generated from an entry in the Cambridge 
# Structural Database, then it will include bibliographic, chemical, 
# crystal, experimental, refinement or atomic coordinate data resulting 
# from the CCDC's data processing and validation procedures.
#
#######################################################################

data_XOXLAX
_chemical_formula_moiety         'C36 H29 N3 O1'
_chemical_name_systematic        
N-(4-(2-(4-(5-Phenyl-1,3,4-oxadiazol-2-yl)phenyl)vinyl)phenyl)-N,N-bis(p-tolyl)amine
_symmetry_cell_setting           triclinic
_symmetry_space_group_name_H-M   'P -1'
_symmetry_Int_Tables_number      2
_space_group_name_Hall           '-P 1'
loop_
_symmetry_equiv_pos_site_id
_symmetry_equiv_pos_as_xyz
1 x,y,z
2 -x,-y,-z
_cell_length_a                   12.544(4)
_cell_length_b                   14.112(4)
_cell_length_c                   17.770(5)
_cell_angle_alpha                96.150(6)
_cell_angle_beta                 106.112(5)
_cell_angle_gamma                107.156(5)
_cell_volume                     2825.77
_exptl_crystal_colour            green-yellow
_chemical_melting_point          '220-222 deg.C'
_cell_formula_units_Z            4
_exptl_crystal_recrystallization_method ether/dimethylformamide
loop_
_atom_site_label
_atom_site_type_symbol
_atom_site_fract_x
_atom_site_fract_y
_atom_site_fract_z
O1 O 0.6176(2) 0.1552(2) 0.4692(2)
N1 N 0.7271(4) 0.0638(3) 0.4523(2)
N2 N 0.8019(3) 0.1605(3) 0.4969(2)
N3 N 0.9412(3) 1.0657(2) 0.8800(2)
C1 C 0.5172(5) -0.1128(4) 0.3687(3)
C2 C 0.4167(7) -0.1933(4) 0.3298(4)
C3 C 0.3095(7) -0.1815(4) 0.3171(3)
C4 C 0.3029(5) -0.0875(4) 0.3420(3)
C5 C 0.4053(5) -0.0066(4) 0.3816(3)
C6 C 0.5129(4) -0.0186(3) 0.3954(3)
C7 C 0.6218(4) 0.0635(3) 0.4383(2)
C8 C 0.7340(4) 0.2116(3) 0.5057(2)
C9 C 0.7677(4) 0.3136(3) 0.5494(2)
C10 C 0.6841(3) 0.3599(3) 0.5522(2)
C11 C 0.7180(3) 0.4561(3) 0.5968(2)
C12 C 0.8365(4) 0.5107(3) 0.6404(2)
C13 C 0.9186(4) 0.4628(3) 0.6372(3)
C14 C 0.8849(4) 0.3670(3) 0.5921(3)
C15 C 0.8755(4) 0.6129(3) 0.6871(3)
C16 C 0.8110(4) 0.6713(3) 0.6913(2)
C17 C 0.8503(4) 0.7731(3) 0.7389(2)
C18 C 0.7698(4) 0.8253(3) 0.7327(2)
C19 C 0.8015(3) 0.9212(3) 0.7772(2)
C20 C 0.9145(3) 0.9697(3) 0.8322(2)
C21 C 0.9951(3) 0.9186(3) 0.8383(2)
C22 C 0.9632(4) 0.8232(3) 0.7925(2)
C23 C 0.8462(3) 1.0885(3) 0.8989(2)
C24 C 0.7795(4) 1.0281(3) 0.9359(3)
C25 C 0.6880(4) 1.0514(4) 0.9537(3)
C26 C 0.6598(4) 1.1343(4) 0.9325(3)
C27 C 0.5584(5) 1.1581(5) 0.9505(5)
C28 C 0.7275(4) 1.1941(4) 0.8956(3)
C29 C 0.8205(4) 1.1730(3) 0.8782(3)
C30 C 1.0588(3) 1.1275(3) 0.9280(2)
C31 C 1.0810(3) 1.1760(3) 1.0060(2)
C32 C 1.1954(4) 1.2314(3) 1.0537(3)
C33 C 1.2889(3) 1.2405(3) 1.0267(3)
C34 C 1.4149(4) 1.2955(3) 1.0826(3)
C35 C 1.2654(3) 1.1956(3) 0.9481(3)
C36 C 1.1518(3) 1.1402(3) 0.8993(2)
O2 O -0.2893(2) 0.4514(2) 0.3891(2)
N4 N -0.4775(3) 0.3606(3) 0.3555(2)
N5 N -0.4590(3) 0.4583(3) 0.3963(2)
N6 N 0.2873(3) 1.3571(2) 0.8000(2)
C37 C -0.2303(5) 0.2840(4) 0.3326(3)
C38 C -0.2033(6) 0.2068(5) 0.2971(4)
C39 C -0.2921(8) 0.1231(5) 0.2449(4)
C40 C -0.4073(8) 0.1167(5) 0.2287(4)
C41 C -0.4357(5) 0.1943(4) 0.2645(3)
C42 C -0.3459(5) 0.2785(4) 0.3160(3)
C43 C -0.3763(4) 0.3599(3) 0.3518(3)
C44 C -0.3485(4) 0.5082(3) 0.4147(2)
C45 C -0.2836(3) 0.6132(3) 0.4549(2)
C46 C -0.3402(4) 0.6754(4) 0.4763(3)
C47 C -0.2798(4) 0.7732(4) 0.5124(3)
C48 C -0.1589(4) 0.8167(4) 0.5282(3)
C49 C -0.1021(4) 0.7545(4) 0.5063(3)
C50 C -0.1630(4) 0.6536(3) 0.4707(3)
C51 C -0.0988(5) 0.9187(4) 0.5718(3)
C52 C 0.0199(5) 0.9667(4) 0.6007(3)
C53 C 0.0867(4) 1.0701(3) 0.6472(3)
C54 C 0.0363(4) 1.1447(3) 0.6572(3)
C55 C 0.1012(4) 1.2382(3) 0.7071(3)
C56 C 0.2195(3) 1.2628(3) 0.7487(2)
C57 C 0.2713(3) 1.1895(3) 0.7380(2)
C58 C 0.2063(3) 1.0964(3) 0.6876(2)
C59 C 0.2354(3) 1.4268(3) 0.8260(2)
C60 C 0.1482(3) 1.3965(3) 0.8608(3)
C61 C 0.1013(4) 1.4664(3) 0.8869(3)
C62 C 0.1416(4) 1.5665(3) 0.8822(3)
C63 C 0.0918(4) 1.6427(3) 0.9136(3)
C64 C 0.2294(4) 1.5954(3) 0.8482(3)
C65 C 0.2753(4) 1.5265(3) 0.8206(3)
C66 C 0.4125(3) 1.3926(3) 0.8199(3)
C67 C 0.4833(4) 1.4149(3) 0.8991(3)
C68 C 0.6038(4) 1.4480(3) 0.9194(3)
C69 C 0.6580(4) 1.46080(3) 0.8621(3)
C70 C 0.7910(4) 1.4973(4) 0.8837(4)
C71 C 0.5866(4) 1.4384(3) 0.7827(3)
C72 C 0.4657(4) 1.4052(3) 0.7624(3)
loop_
_geom_bond_atom_site_label_1
_geom_bond_atom_site_label_2
_geom_bond_site_symmetry_1
_geom_bond_site_symmetry_2
O1 C7 1_555 1_555
N1 N2 1_555 1_555
N2 C8 1_555 1_555
N3 C20 1_555 1_555
C1 C2 1_555 1_555
C2 C3 1_555 1_555
C3 C4 1_555 1_555
C4 C5 1_555 1_555
C5 C6 1_555 1_555
C6 C1 1_555 1_555
C7 N1 1_555 1_555
C8 O1 1_555 1_555
C9 C8 1_555 1_555
C10 C9 1_555 1_555
C11 C10 1_555 1_555
C12 C11 1_555 1_555
C13 C12 1_555 1_555
C14 C9 1_555 1_555
C15 C12 1_555 1_555
C16 C15 1_555 1_555
C17 C16 1_555 1_555
C18 C17 1_555 1_555
C19 C18 1_555 1_555
C20 C19 1_555 1_555
C21 C20 1_555 1_555
C22 C17 1_555 1_555
C23 N3 1_555 1_555
C24 C23 1_555 1_555
C25 C24 1_555 1_555
C26 C25 1_555 1_555
C27 C26 1_555 1_555
C28 C26 1_555 1_555
C29 C23 1_555 1_555
C30 N3 1_555 1_555
C31 C30 1_555 1_555
C32 C31 1_555 1_555
C33 C32 1_555 1_555
C34 C33 1_555 1_555
C35 C33 1_555 1_555
C36 C30 1_555 1_555
O2 C43 1_555 1_555
N4 N5 1_555 1_555
N5 C44 1_555 1_555
N6 C56 1_555 1_555
C37 C38 1_555 1_555
C38 C39 1_555 1_555
C39 C40 1_555 1_555
C40 C41 1_555 1_555
C41 C42 1_555 1_555
C42 C37 1_555 1_555
C43 N4 1_555 1_555
C44 O2 1_555 1_555
C45 C44 1_555 1_555
C46 C45 1_555 1_555
C47 C46 1_555 1_555
C48 C47 1_555 1_555
C49 C48 1_555 1_555
C50 C45 1_555 1_555
C51 C48 1_555 1_555
C52 C51 1_555 1_555
C53 C52 1_555 1_555
C54 C53 1_555 1_555
C55 C54 1_555 1_555
C56 C55 1_555 1_555
C57 C56 1_555 1_555
C58 C53 1_555 1_555
C59 N6 1_555 1_555
C60 C59 1_555 1_555
C61 C60 1_555 1_555
C62 C61 1_555 1_555
C63 C62 1_555 1_555
C64 C62 1_555 1_555
C65 C59 1_555 1_555
C66 N6 1_555 1_555
C67 C66 1_555 1_555
C68 C67 1_555 1_555
C69 C68 1_555 1_555
C70 C69 1_555 1_555
C71 C69 1_555 1_555
C72 C66 1_555 1_555
C6 C7 1_555 1_555
C13 C14 1_555 1_555
C21 C22 1_555 1_555
C28 C29 1_555 1_555
C35 C36 1_555 1_555
C42 C43 1_555 1_555
C49 C50 1_555 1_555
C57 C58 1_555 1_555
C64 C65 1_555 1_555
C71 C72 1_555 1_555

#END
