
#######################################################################
#
#                 Cambridge Crystallographic Data Centre
#                                CCDC 
#
#######################################################################
#
# If this CIF has been generated from an entry in the Cambridge 
# Structural Database, then it will include bibliographic, chemical, 
# crystal, experimental, refinement or atomic coordinate data resulting 
# from the CCDC's data processing and validation procedures.
#
#######################################################################

data_XOYJEB
_chemical_formula_moiety         'C40 H44 Ba1 N4 O6 P2'
_chemical_name_systematic        
trans-bis(\h^2^-3,5-Diphenyl-1,2,4-diazaphospholide)-(18-crown-6)-barium
_symmetry_cell_setting           monoclinic
_symmetry_space_group_name_H-M   'P 21/n'
_symmetry_Int_Tables_number      14
_space_group_name_Hall           '-P 2yn'
loop_
_symmetry_equiv_pos_site_id
_symmetry_equiv_pos_as_xyz
1 x,y,z
2 1/2-x,1/2+y,1/2-z
3 -x,-y,-z
4 1/2+x,1/2-y,1/2+z
_cell_length_a                   10.809(4)
_cell_length_b                   10.871(4)
_cell_length_c                   34.470(12)
_cell_angle_alpha                90
_cell_angle_beta                 95.712(5)
_cell_angle_gamma                90
_cell_volume                     4030.27
_exptl_crystal_colour            yellow
_exptl_crystal_description       block
_chemical_melting_point          'decomposes above 350 deg.C'
_cell_formula_units_Z            4
_chemical_properties_physical    'highly moisture- and oxygen-sensitive'
loop_
_atom_site_label
_atom_site_type_symbol
_atom_site_fract_x
_atom_site_fract_y
_atom_site_fract_z
Ba1 Ba 0.85702(3) 0.38642(3) 0.621845(9)
N1 N 0.6824(5) 0.2074(5) 0.64669(13)
N2 N 0.6910(5) 0.2922(5) 0.67546(14)
N3 N 1.0257(5) 0.5662(5) 0.59857(15)
N4 N 0.9371(5) 0.5645(5) 0.56769(15)
O1 O 0.6499(5) 0.3878(4) 0.56717(13)
O2 O 0.8474(5) 0.2307(4) 0.55768(12)
O3 O 1.0239(4) 0.1880(4) 0.62196(12)
O4 O 1.0593(4) 0.3726(4) 0.67874(12)
O5 O 0.8782(4) 0.5478(4) 0.68417(12)
O6 O 0.6906(5) 0.5786(4) 0.62318(14)
P1 P 0.48374(16) 0.17383(17) 0.68151(5)
P2 P 1.0572(2) 0.76925(18) 0.56108(5)
C1 C 0.5815(6) 0.1392(5) 0.64580(16)
C2 C 0.5943(6) 0.2860(5) 0.69686(15)
C3 C 0.5654(6) 0.0360(5) 0.61748(15)
C4 C 0.6613(6) -0.0375(6) 0.61005(18)
H1 H 0.7394 -0.0228 0.6231
C5 C 0.6474(10) -0.1329(7) 0.5840(2)
H2 H 0.7149 -0.1822 0.5796
C6 C 0.5334(11) -0.1546(8) 0.5646(2)
H3 H 0.5238 -0.2167 0.5460
C7 C 0.4341(10) -0.0862(8) 0.5724(2)
H4 H 0.3559 -0.1027 0.5596
C8 C 0.4492(7) 0.0083(7) 0.59927(19)
H5 H 0.3805 0.0536 0.6052
C9 C 0.5902(6) 0.3642(5) 0.73195(16)
C10 C 0.4881(7) 0.3698(6) 0.75191(18)
H6 H 0.4170 0.3268 0.7425
C11 C 0.4872(8) 0.4382(7) 0.7860(2)
H7 H 0.4163 0.4402 0.7992
C12 C 0.5907(8) 0.5023(7) 0.7999(2)
H8 H 0.5914 0.5479 0.8227
C13 C 0.6923(8) 0.4985(7) 0.7800(2)
H9 H 0.7626 0.5432 0.7892
C14 C 0.6936(7) 0.4293(7) 0.74631(19)
H10 H 0.7649 0.4269 0.7333
C15 C 1.0942(6) 0.6668(6) 0.59980(17)
C16 C 0.9431(6) 0.6644(6) 0.54530(17)
C17 C 1.1972(6) 0.6817(6) 0.63132(17)
C18 C 1.2548(7) 0.5805(7) 0.6495(2)
H11 H 1.2305 0.5020 0.6412
C19 C 1.3468(8) 0.5935(9) 0.6794(2)
H12 H 1.3847 0.5242 0.6911
C20 C 1.3833(9) 0.7080(11) 0.6923(2)
H13 H 1.4446 0.7166 0.7130
C21 C 1.3300(9) 0.8089(10) 0.6747(3)
H14 H 1.3559 0.8867 0.6833
C22 C 1.2378(8) 0.7979(7) 0.6442(2)
H15 H 1.2027 0.8680 0.6322
C23 C 0.8525(6) 0.6746(6) 0.50978(17)
C24 C 0.8321(6) 0.5772(7) 0.4843(2)
H16 H 0.8777 0.5050 0.4886
C25 C 0.7438(8) 0.5864(8) 0.4523(2)
H17 H 0.7295 0.5203 0.4354
C26 C 0.6787(7) 0.6916(9) 0.4459(2)
H18 H 0.6199 0.6976 0.4244
C27 C 0.6980(8) 0.7892(8) 0.4707(2)
H19 H 0.6518 0.8608 0.4661
C28 C 0.7858(7) 0.7820(7) 0.50231(19)
H20 H 0.8004 0.8494 0.5187
C29 C 0.6658(8) 0.3335(8) 0.53085(19)
H21 H 0.7168 0.3863 0.5163
H22 H 0.5856 0.3236 0.5159
C30 C 0.7266(7) 0.2117(7) 0.5373(2)
H23 H 0.6771 0.1596 0.5526
H24 H 0.7342 0.1716 0.5125
C31 C 0.9189(8) 0.1215(7) 0.5619(2)
H25 H 0.9298 0.0875 0.5364
H26 H 0.8764 0.0609 0.5764
C32 C 1.0422(7) 0.1511(7) 0.5830(2)
H27 H 1.0959 0.0795 0.5836
H28 H 1.0815 0.2170 0.5697
C33 C 1.1404(7) 0.2084(7) 0.6447(2)
H29 H 1.1897 0.2665 0.6314
H30 H 1.1862 0.1317 0.6477
C34 C 1.1197(7) 0.2568(6) 0.6834(2)
H31 H 1.0687 0.2000 0.6965
H32 H 1.1987 0.2661 0.6991
C35 C 1.0474(7) 0.4349(8) 0.71423(18)
H33 H 1.1280 0.4413 0.7292
H34 H 0.9926 0.3891 0.7296
C36 C 0.9958(7) 0.5598(7) 0.70575(19)
H35 H 0.9875 0.6033 0.7299
H36 H 1.0513 0.6064 0.6909
C37 C 0.8141(7) 0.6620(7) 0.6769(2)
H37 H 0.8566 0.7116 0.6590
H38 H 0.8125 0.7074 0.7011
C38 C 0.6859(7) 0.6353(7) 0.6600(2)
H39 H 0.6455 0.5811 0.6772
H40 H 0.6385 0.7111 0.6570
C39 C 0.5695(6) 0.5486(8) 0.6043(2)
H41 H 0.5161 0.6205 0.6029
H42 H 0.5309 0.4847 0.6186
C40 C 0.5890(6) 0.5049(7) 0.5644(2)
H43 H 0.5096 0.4975 0.5487
H44 H 0.6396 0.5636 0.5518
loop_
_geom_bond_atom_site_label_1
_geom_bond_atom_site_label_2
_geom_bond_site_symmetry_1
_geom_bond_site_symmetry_2
Ba1 N1 1_555 1_555
N1 N2 1_555 1_555
N2 Ba1 1_555 1_555
N3 Ba1 1_555 1_555
N4 Ba1 1_555 1_555
O1 Ba1 1_555 1_555
O2 Ba1 1_555 1_555
O3 Ba1 1_555 1_555
O4 Ba1 1_555 1_555
O5 Ba1 1_555 1_555
O6 Ba1 1_555 1_555
P1 C1 1_555 1_555
P2 C15 1_555 1_555
C1 N1 1_555 1_555
C2 N2 1_555 1_555
C3 C1 1_555 1_555
C4 C3 1_555 1_555
H1 C4 1_555 1_555
C5 C4 1_555 1_555
H2 C5 1_555 1_555
C6 C5 1_555 1_555
H3 C6 1_555 1_555
C7 C6 1_555 1_555
H4 C7 1_555 1_555
C8 C3 1_555 1_555
H5 C8 1_555 1_555
C9 C2 1_555 1_555
C10 C9 1_555 1_555
H6 C10 1_555 1_555
C11 C10 1_555 1_555
H7 C11 1_555 1_555
C12 C11 1_555 1_555
H8 C12 1_555 1_555
C13 C12 1_555 1_555
H9 C13 1_555 1_555
C14 C9 1_555 1_555
H10 C14 1_555 1_555
C15 N3 1_555 1_555
C16 N4 1_555 1_555
C17 C15 1_555 1_555
C18 C17 1_555 1_555
H11 C18 1_555 1_555
C19 C18 1_555 1_555
H12 C19 1_555 1_555
C20 C19 1_555 1_555
H13 C20 1_555 1_555
C21 C20 1_555 1_555
H14 C21 1_555 1_555
C22 C17 1_555 1_555
H15 C22 1_555 1_555
C23 C16 1_555 1_555
C24 C23 1_555 1_555
H16 C24 1_555 1_555
C25 C24 1_555 1_555
H17 C25 1_555 1_555
C26 C25 1_555 1_555
H18 C26 1_555 1_555
C27 C26 1_555 1_555
H19 C27 1_555 1_555
C28 C23 1_555 1_555
H20 C28 1_555 1_555
C29 O1 1_555 1_555
H21 C29 1_555 1_555
H22 C29 1_555 1_555
C30 O2 1_555 1_555
H23 C30 1_555 1_555
H24 C30 1_555 1_555
C31 O2 1_555 1_555
H25 C31 1_555 1_555
H26 C31 1_555 1_555
C32 O3 1_555 1_555
H27 C32 1_555 1_555
H28 C32 1_555 1_555
C33 O3 1_555 1_555
H29 C33 1_555 1_555
H30 C33 1_555 1_555
C34 O4 1_555 1_555
H31 C34 1_555 1_555
H32 C34 1_555 1_555
C35 O4 1_555 1_555
H33 C35 1_555 1_555
H34 C35 1_555 1_555
C36 O5 1_555 1_555
H35 C36 1_555 1_555
H36 C36 1_555 1_555
C37 O5 1_555 1_555
H37 C37 1_555 1_555
H38 C37 1_555 1_555
C38 O6 1_555 1_555
H39 C38 1_555 1_555
H40 C38 1_555 1_555
C39 O6 1_555 1_555
H41 C39 1_555 1_555
H42 C39 1_555 1_555
C40 O1 1_555 1_555
H43 C40 1_555 1_555
H44 C40 1_555 1_555
N3 N4 1_555 1_555
P1 C2 1_555 1_555
P2 C16 1_555 1_555
C7 C8 1_555 1_555
C13 C14 1_555 1_555
C21 C22 1_555 1_555
C27 C28 1_555 1_555
C29 C30 1_555 1_555
C31 C32 1_555 1_555
C33 C34 1_555 1_555
C35 C36 1_555 1_555
C37 C38 1_555 1_555
C39 C40 1_555 1_555

#END
