
#######################################################################
#
#                 Cambridge Crystallographic Data Centre
#                                CCDC 
#
#######################################################################
#
# If this CIF has been generated from an entry in the Cambridge 
# Structural Database, then it will include bibliographic, chemical, 
# crystal, experimental, refinement or atomic coordinate data resulting 
# from the CCDC's data processing and validation procedures.
#
#######################################################################

data_XOYVOY
_chemical_formula_moiety         'C16 H12 O3'
_chemical_name_systematic        6-methoxy-2-phenyl-4H-chromen-4-one
_symmetry_cell_setting           orthorhombic
_symmetry_space_group_name_H-M   'P b c a'
_symmetry_Int_Tables_number      61
_space_group_name_Hall           '-P 2ac 2ab'
loop_
_symmetry_equiv_pos_site_id
_symmetry_equiv_pos_as_xyz
1 x,y,z
2 1/2-x,-y,1/2+z
3 1/2+x,1/2-y,-z
4 -x,1/2+y,1/2-z
5 -x,-y,-z
6 1/2+x,y,1/2-z
7 1/2-x,1/2+y,z
8 x,1/2-y,1/2+z
_cell_length_a                   13.5324(8)
_cell_length_b                   7.0687(4)
_cell_length_c                   25.6858(17)
_cell_angle_alpha                90
_cell_angle_beta                 90
_cell_angle_gamma                90
_cell_volume                     2457.01
_exptl_crystal_colour            white
_exptl_crystal_description       block
_cell_formula_units_Z            8
_chemical_properties_physical    'Other: please specify below'
_exptl_crystal_preparation       'Other: please specify below'
loop_
_atom_site_label
_atom_site_type_symbol
_atom_site_fract_x
_atom_site_fract_y
_atom_site_fract_z
O1 O 0.64665(7) 0.24637(15) 0.11449(4)
O2 O 0.76189(8) 0.08700(19) -0.08604(4)
O3 O 0.94407(7) 0.2227(2) 0.08778(4)
C1 C 0.81095(10) 0.1562(2) 0.00292(6)
H1 H 0.8778 0.1480 -0.0052
C2 C 0.61076(11) 0.1782(2) 0.02672(6)
H2 H 0.5438 0.1847 0.0348
C3 C 0.85420(10) 0.2304(2) 0.09538(6)
C4 C 0.64064(11) 0.1398(2) -0.02299(6)
H3 H 0.5938 0.1213 -0.0490
C5 C 0.74159(11) 0.1282(2) -0.03505(6)
C6 C 0.66396(11) 0.3135(2) 0.20362(6)
C7 C 0.68152(10) 0.2073(2) 0.06517(5)
C8 C 0.71283(11) 0.2766(2) 0.15343(5)
C9 C 0.71083(12) 0.2659(2) 0.25009(6)
H4 H 0.7725 0.2080 0.2494
C10 C 0.57122(11) 0.3998(2) 0.20544(6)
H5 H 0.5388 0.4309 0.1747
C11 C 0.81105(10) 0.2725(2) 0.14531(6)
H6 H 0.8529 0.2981 0.1732
C12 C 0.66578(14) 0.3045(3) 0.29724(7)
H7 H 0.6971 0.2718 0.3282
C13 C 0.78142(10) 0.1971(2) 0.05391(6)
C14 C 0.86215(13) 0.0999(3) -0.10222(7)
H8 H 0.8666 0.0738 -0.1388
H9 H 0.9011 0.0096 -0.0833
H10 H 0.8865 0.2251 -0.0955
C15 C 0.52740(13) 0.4390(3) 0.25283(7)
H11 H 0.4659 0.4977 0.2539
C16 C 0.57440(14) 0.3914(3) 0.29849(7)
H12 H 0.5446 0.4179 0.3303
loop_
_geom_bond_atom_site_label_1
_geom_bond_atom_site_label_2
_geom_bond_site_symmetry_1
_geom_bond_site_symmetry_2
O1 C7 1_555 1_555
O2 C5 1_555 1_555
O3 C3 1_555 1_555
C1 H1 1_555 1_555
C2 H2 1_555 1_555
C3 C11 1_555 1_555
C4 C2 1_555 1_555
H3 C4 1_555 1_555
C5 C1 1_555 1_555
C6 C8 1_555 1_555
C7 C2 1_555 1_555
C8 O1 1_555 1_555
C9 C6 1_555 1_555
H4 C9 1_555 1_555
C10 C6 1_555 1_555
H5 C10 1_555 1_555
C11 C8 1_555 1_555
H6 C11 1_555 1_555
C12 C9 1_555 1_555
H7 C12 1_555 1_555
C13 C1 1_555 1_555
C14 O2 1_555 1_555
H8 C14 1_555 1_555
H9 C14 1_555 1_555
H10 C14 1_555 1_555
C15 C10 1_555 1_555
H11 C15 1_555 1_555
C16 C12 1_555 1_555
H12 C16 1_555 1_555
C3 C13 1_555 1_555
C4 C5 1_555 1_555
C7 C13 1_555 1_555
C15 C16 1_555 1_555

#END
