
#######################################################################
#
#                 Cambridge Crystallographic Data Centre
#                                CCDC 
#
#######################################################################
#
# If this CIF has been generated from an entry in the Cambridge 
# Structural Database, then it will include bibliographic, chemical, 
# crystal, experimental, refinement or atomic coordinate data resulting 
# from the CCDC's data processing and validation procedures.
#
#######################################################################

data_XOYXUG
_chemical_formula_moiety         'C19 H18 F3 I1 N2 O2 S1'
_chemical_name_systematic        
3-iodo-N^2^-(2-methyl-1-(methylsulfanyl)propan-2-yl)-N^1^-(3,4,5-trifluorophenyl)phthalamide
_symmetry_cell_setting           monoclinic
_symmetry_space_group_name_H-M   'P 21/n'
_symmetry_Int_Tables_number      14
_space_group_name_Hall           '-P 2yn'
loop_
_symmetry_equiv_pos_site_id
_symmetry_equiv_pos_as_xyz
1 x,y,z
2 1/2-x,1/2+y,1/2-z
3 -x,-y,-z
4 1/2+x,1/2-y,1/2+z
_cell_length_a                   12.763(3)
_cell_length_b                   23.278(5)
_cell_length_c                   13.926(3)
_cell_angle_alpha                90
_cell_angle_beta                 93.63(3)
_cell_angle_gamma                90
_cell_volume                     4129.07
_cell_formula_units_Z            8
loop_
_atom_site_label
_atom_site_type_symbol
_atom_site_fract_x
_atom_site_fract_y
_atom_site_fract_z
I1 I 0.695149(15) 0.332070(9) 0.914679(14)
S1 S 0.69277(6) 0.13947(4) 1.05294(7)
F1 F 0.11068(14) 0.05844(7) 0.59315(12)
F2 F 0.06086(14) -0.00746(7) 0.74181(14)
F3 F 0.10096(18) 0.02987(8) 0.92379(14)
O1 O 0.62292(14) 0.21849(8) 0.77802(14)
O2 O 0.36339(14) 0.20457(8) 0.69141(14)
N1 N 0.51513(16) 0.18018(9) 0.88591(16)
H1 H 0.4645(16) 0.1894(12) 0.9247(17)
N2 N 0.25197(16) 0.20268(8) 0.81297(15)
H2 H 0.235(2) 0.2182(11) 0.8683(12)
C1 C 0.6868(3) 0.07094(17) 1.1134(3)
H3 H 0.6136 0.0584 1.1136
H4 H 0.7162 0.0748 1.1798
H5 H 0.7275 0.0425 1.0795
C2 C 0.6693(2) 0.11860(13) 0.9290(2)
H6 H 0.7113 0.1441 0.8894
H7 H 0.6964 0.0791 0.9219
C3 C 0.5549(2) 0.11994(10) 0.88705(19)
C4 C 0.5510(3) 0.09589(13) 0.7848(2)
H8 H 0.4792 0.0987 0.7558
H9 H 0.5730 0.0555 0.7867
H10 H 0.5984 0.1180 0.7462
C5 C 0.4819(2) 0.08578(12) 0.9473(2)
H11 H 0.4811 0.1029 1.0115
H12 H 0.5066 0.0460 0.9529
H13 H 0.4108 0.0864 0.9163
C6 C 0.54963(19) 0.22278(10) 0.83059(18)
C7 C 0.48798(19) 0.27775(10) 0.83680(17)
C8 C 0.5348(2) 0.32875(10) 0.87081(19)
C9 C 0.4753(2) 0.37877(11) 0.8781(2)
H14 H 0.5082 0.4133 0.9007
C10 C 0.3696(2) 0.37829(10) 0.8529(2)
H15 H 0.3293 0.4122 0.8592
C11 C 0.3215(2) 0.32832(10) 0.8182(2)
H16 H 0.2484 0.3281 0.8004
C12 C 0.38046(19) 0.27847(10) 0.80941(18)
C13 C 0.33144(19) 0.22522(10) 0.76526(18)
C14 C 0.20357(19) 0.14903(10) 0.79162(19)
C15 C 0.18220(19) 0.13059(11) 0.69758(19)
H17 H 0.1996 0.1538 0.6447
C16 C 0.1350(2) 0.07766(11) 0.6829(2)
C17 C 0.1078(2) 0.04369(11) 0.7587(2)
C18 C 0.1282(2) 0.06343(11) 0.8508(2)
C19 C 0.1766(2) 0.11552(11) 0.86872(19)
H18 H 0.1913 0.1283 0.9329
I2 I 0.307999(15) 0.075062(8) 0.177150(15)
S2 S 0.28470(6) 0.37336(3) 0.09510(6)
F4 F -0.18259(13) 0.47413(7) 0.03916(14)
F5 F -0.09058(13) 0.51154(7) -0.11877(13)
F6 F 0.05845(17) 0.44684(9) -0.19508(14)
O3 O 0.33725(13) 0.19581(8) 0.02608(13)
O4 O 0.14861(14) 0.26937(8) -0.04259(14)
N3 N 0.30265(16) 0.24295(9) 0.16514(16)
H19 H 0.2491(16) 0.2494(11) 0.2027(17)
N4 N 0.01478(16) 0.30069(9) 0.04493(16)
H20 H -0.0247(19) 0.2930(12) 0.0944(14)
C20 C 0.3407(3) 0.43567(15) 0.1548(4)
H21 H 0.3639 0.4257 0.2212
H22 H 0.2878 0.4662 0.1552
H23 H 0.4009 0.4491 0.1207
C21 C 0.3958(2) 0.32431(12) 0.0993(2)
H24 H 0.3964 0.3045 0.0365
H25 H 0.4611 0.3473 0.1074
C22 C 0.39828(19) 0.27850(11) 0.1791(2)
C23 C 0.4969(2) 0.24131(13) 0.1727(2)
H26 H 0.4937 0.2087 0.2169
H27 H 0.5594 0.2644 0.1904
H28 H 0.5007 0.2271 0.1068
C24 C 0.3969(2) 0.30468(14) 0.2786(2)
H29 H 0.3341 0.3286 0.2822
H30 H 0.4597 0.3284 0.2912
H31 H 0.3959 0.2740 0.3267
C25 C 0.28055(19) 0.20682(10) 0.09277(18)
C26 C 0.17597(19) 0.17651(10) 0.09883(17)
C27 C 0.1711(2) 0.12056(11) 0.13400(19)
C28 C 0.0755(2) 0.09266(12) 0.1402(2)
H32 H 0.0736 0.0543 0.1634
C29 C -0.0173(2) 0.12123(12) 0.1123(2)
H33 H -0.0829 0.1025 0.1171
C30 C -0.0142(2) 0.17684(11) 0.0775(2)
H34 H -0.0778 0.1962 0.0589
C31 C 0.08165(19) 0.20457(10) 0.06979(18)
C32 C 0.08582(19) 0.26158(10) 0.01963(18)
C33 C -0.00717(19) 0.35471(10) 0.00151(18)
C34 C -0.08295(19) 0.38838(10) 0.04182(19)
H35 H -0.1161 0.3756 0.0971
C35 C -0.1093(2) 0.44051(11) 0.0005(2)
C36 C -0.0633(2) 0.46045(11) -0.0793(2)
C37 C 0.0124(2) 0.42701(12) -0.1166(2)
C38 C 0.0422(2) 0.37439(12) -0.0786(2)
H36 H 0.0949 0.3522 -0.1063
loop_
_geom_bond_atom_site_label_1
_geom_bond_atom_site_label_2
_geom_bond_site_symmetry_1
_geom_bond_site_symmetry_2
I1 C8 1_555 1_555
S1 C1 1_555 1_555
F1 C16 1_555 1_555
F2 C17 1_555 1_555
F3 C18 1_555 1_555
O1 C6 1_555 1_555
O2 C13 1_555 1_555
N1 H1 1_555 1_555
N2 H2 1_555 1_555
C1 H3 1_555 1_555
H4 C1 1_555 1_555
H5 C1 1_555 1_555
C2 S1 1_555 1_555
H6 C2 1_555 1_555
H7 C2 1_555 1_555
C3 N1 1_555 1_555
C4 C3 1_555 1_555
H8 C4 1_555 1_555
H9 C4 1_555 1_555
H10 C4 1_555 1_555
C5 C3 1_555 1_555
H11 C5 1_555 1_555
H12 C5 1_555 1_555
H13 C5 1_555 1_555
C6 N1 1_555 1_555
C7 C6 1_555 1_555
C8 C7 1_555 1_555
C9 C8 1_555 1_555
H14 C9 1_555 1_555
C10 C9 1_555 1_555
H15 C10 1_555 1_555
C11 C10 1_555 1_555
H16 C11 1_555 1_555
C12 C7 1_555 1_555
C13 N2 1_555 1_555
C14 N2 1_555 1_555
C15 C14 1_555 1_555
H17 C15 1_555 1_555
C16 C15 1_555 1_555
C17 C16 1_555 1_555
C18 C17 1_555 1_555
C19 C14 1_555 1_555
H18 C19 1_555 1_555
I2 C27 1_555 1_555
S2 C20 1_555 1_555
F4 C35 1_555 1_555
F5 C36 1_555 1_555
F6 C37 1_555 1_555
O3 C25 1_555 1_555
O4 C32 1_555 1_555
N3 H19 1_555 1_555
N4 H20 1_555 1_555
C20 H21 1_555 1_555
H22 C20 1_555 1_555
H23 C20 1_555 1_555
C21 S2 1_555 1_555
H24 C21 1_555 1_555
H25 C21 1_555 1_555
C22 N3 1_555 1_555
C23 C22 1_555 1_555
H26 C23 1_555 1_555
H27 C23 1_555 1_555
H28 C23 1_555 1_555
C24 C22 1_555 1_555
H29 C24 1_555 1_555
H30 C24 1_555 1_555
H31 C24 1_555 1_555
C25 N3 1_555 1_555
C26 C25 1_555 1_555
C27 C26 1_555 1_555
C28 C27 1_555 1_555
H32 C28 1_555 1_555
C29 C28 1_555 1_555
H33 C29 1_555 1_555
C30 C29 1_555 1_555
H34 C30 1_555 1_555
C31 C26 1_555 1_555
C32 N4 1_555 1_555
C33 N4 1_555 1_555
C34 C33 1_555 1_555
H35 C34 1_555 1_555
C35 C34 1_555 1_555
C36 C35 1_555 1_555
C37 C36 1_555 1_555
C38 C33 1_555 1_555
H36 C38 1_555 1_555
C2 C3 1_555 1_555
C11 C12 1_555 1_555
C12 C13 1_555 1_555
C18 C19 1_555 1_555
C21 C22 1_555 1_555
C30 C31 1_555 1_555
C31 C32 1_555 1_555
C37 C38 1_555 1_555

#END
