
#######################################################################
#
#                 Cambridge Crystallographic Data Centre
#                                CCDC 
#
#######################################################################
#
# If this CIF has been generated from an entry in the Cambridge 
# Structural Database, then it will include bibliographic, chemical, 
# crystal, experimental, refinement or atomic coordinate data resulting 
# from the CCDC's data processing and validation procedures.
#
#######################################################################

data_XOZHIE
_chemical_formula_moiety         'C16 H20 O3'
_chemical_name_systematic        
(2R,4R)-2-Hydroxy-4-(2-methoxyphenyl)bicyclo[3.3.1]nonan-9-one
_symmetry_cell_setting           orthorhombic
_symmetry_space_group_name_H-M   'P 21 21 21'
_symmetry_Int_Tables_number      19
_space_group_name_Hall           'P 2ac 2ab'
loop_
_symmetry_equiv_pos_site_id
_symmetry_equiv_pos_as_xyz
1 x,y,z
2 1/2+x,1/2-y,-z
3 -x,1/2+y,1/2-z
4 1/2-x,-y,1/2+z
_cell_length_a                   6.9378(5)
_cell_length_b                   12.5291(11)
_cell_length_c                   16.0726(14)
_cell_angle_alpha                90
_cell_angle_beta                 90
_cell_angle_gamma                90
_cell_volume                     1397.1
_exptl_crystal_colour            colorless
_exptl_crystal_description       chunk
_cell_formula_units_Z            4
_exptl_crystal_recrystallization_method ethanol
loop_
_atom_site_label
_atom_site_type_symbol
_atom_site_fract_x
_atom_site_fract_y
_atom_site_fract_z
O1 O 0.3084(2) -0.19303(10) 0.07830(9)
O2 O -0.1217(2) -0.10943(12) 0.00114(9)
O3 O -0.10291(19) 0.08144(11) 0.23327(8)
C1 C 0.1869(2) 0.03037(14) 0.12399(11)
C2 C 0.3817(2) -0.00912(14) 0.09036(12)
C3 C 0.3617(2) -0.10201(16) 0.02981(12)
C4 C 0.2100(2) -0.08335(16) -0.03793(12)
C5 C 0.2559(3) 0.00623(18) -0.10098(12)
C6 C 0.2481(3) 0.11937(17) -0.06523(13)
C7 C 0.0787(3) 0.13738(16) -0.00841(12)
C8 C 0.0362(2) 0.04651(14) 0.05297(12)
C9 C 0.0240(2) -0.05569(16) 0.00463(12)
C10 C 0.1996(2) 0.12898(14) 0.17882(11)
C11 C 0.3544(2) 0.19787(16) 0.17853(12)
C12 C 0.3625(3) 0.28667(17) 0.23012(12)
C13 C 0.2124(3) 0.30819(18) 0.28234(13)
C14 C 0.0528(3) 0.24199(16) 0.28470(12)
C15 C 0.0475(2) 0.15310(14) 0.23345(12)
C16 C -0.2463(2) 0.0914(2) 0.29575(13)
H1 H 0.1366 -0.0270 0.1593
H2 H 0.4868 -0.1155 0.0035
H3 H 0.1918 -0.1502 -0.0687
H4 H -0.0897 0.0599 0.0785
H5 H 0.4567 0.1845 0.1426
H6 H 0.4697 0.3312 0.2291
H7 H 0.2174 0.3679 0.3167
H8 H -0.0495 0.2570 0.3202
H9 H 0.4604 -0.0320 0.1369
H10 H 0.4448 0.0495 0.0619
H11 H 0.3847 -0.0058 -0.1226
H12 H 0.1634 0.0017 -0.1461
H13 H 0.3655 0.1322 -0.0341
H14 H 0.2399 0.1696 -0.1110
H15 H -0.0348 0.1477 -0.0427
H16 H 0.1032 0.2016 0.0236
H17 H 0.3263 -0.2488 0.0498
H18 H -0.3243 0.0282 0.2967
H19 H -0.1856 0.1007 0.3489
H20 H -0.3260 0.1522 0.2839
loop_
_geom_bond_atom_site_label_1
_geom_bond_atom_site_label_2
_geom_bond_site_symmetry_1
_geom_bond_site_symmetry_2
O1 C3 1_555 1_555
O2 C9 1_555 1_555
O3 C15 1_555 1_555
C1 C2 1_555 1_555
C2 C3 1_555 1_555
C3 C4 1_555 1_555
C4 C5 1_555 1_555
C5 C6 1_555 1_555
C6 C7 1_555 1_555
C7 C8 1_555 1_555
C8 C1 1_555 1_555
C9 C4 1_555 1_555
C10 C1 1_555 1_555
C11 C10 1_555 1_555
C12 C11 1_555 1_555
C13 C12 1_555 1_555
C14 C13 1_555 1_555
C15 C10 1_555 1_555
C16 O3 1_555 1_555
H1 C1 1_555 1_555
H2 C3 1_555 1_555
H3 C4 1_555 1_555
H4 C8 1_555 1_555
H5 C11 1_555 1_555
H6 C12 1_555 1_555
H7 C13 1_555 1_555
H8 C14 1_555 1_555
H9 C2 1_555 1_555
H10 C2 1_555 1_555
H11 C5 1_555 1_555
H12 C5 1_555 1_555
H13 C6 1_555 1_555
H14 C6 1_555 1_555
H15 C7 1_555 1_555
H16 C7 1_555 1_555
H17 O1 1_555 1_555
H18 C16 1_555 1_555
H19 C16 1_555 1_555
H20 C16 1_555 1_555
C8 C9 1_555 1_555
C14 C15 1_555 1_555

#END
