
#######################################################################
#
#                 Cambridge Crystallographic Data Centre
#                                CCDC 
#
#######################################################################
#
# If this CIF has been generated from an entry in the Cambridge 
# Structural Database, then it will include bibliographic, chemical, 
# crystal, experimental, refinement or atomic coordinate data resulting 
# from the CCDC's data processing and validation procedures.
#
#######################################################################

data_XOZHEZ
_chemical_formula_moiety         'C6 H8 N6 O1,H2 O1'
_chemical_name_systematic        
'6-Amino-3-ethyl-1,2,4-triazolo(3,4-f)(1,2,4)triazin-8(7H)-one monohydrate'
_symmetry_cell_setting           orthorhombic
_symmetry_space_group_name_H-M   'P n a 21'
_symmetry_Int_Tables_number      33
_space_group_name_Hall           'P 2c -2n'
loop_
_symmetry_equiv_pos_site_id
_symmetry_equiv_pos_as_xyz
1 x,y,z
2 -x,-y,1/2+z
3 1/2+x,1/2-y,z
4 1/2-x,1/2+y,1/2+z
_cell_length_a                   8.7061(2)
_cell_length_b                   19.0851(4)
_cell_length_c                   5.48770(10)
_cell_angle_alpha                90
_cell_angle_beta                 90
_cell_angle_gamma                90
_cell_volume                     911.819
_exptl_crystal_colour            colorless
_exptl_crystal_description       chunk
_cell_formula_units_Z            4
loop_
_atom_site_label
_atom_site_type_symbol
_atom_site_fract_x
_atom_site_fract_y
_atom_site_fract_z
N1 N 1.0613(2) 0.70366(8) 0.5428(3)
N2 N 0.9992(2) 0.76416(8) 0.4437(3)
N3 N 0.7473(2) 0.74217(7) -0.0764(3)
N4 N 0.8379(2) 0.63188(7) 0.0707(3)
N5 N 0.9156(2) 0.67275(7) 0.2395(3)
N6 N 0.6764(2) 0.63733(9) -0.2561(4)
C1 C 0.9121(2) 0.74365(8) 0.2621(3)
C2 C 0.8216(2) 0.78434(8) 0.0900(4)
C3 C 0.7560(2) 0.66946(8) -0.0792(3)
C4 C 1.0102(2) 0.64897(9) 0.4173(4)
C5 C 1.0500(3) 0.57388(10) 0.4497(5)
C6 C 1.1789(3) 0.56283(12) 0.6307(5)
O1 O 0.8102(2) 0.84770(6) 0.0885(3)
H3 H 0.6927(25) 0.7638(11) -0.1887(45)
H4 H 0.6718(23) 0.5953(14) -0.2491(46)
H5 H 0.6218(27) 0.6609(13) -0.3528(50)
H6 H 1.0810(34) 0.5546(16) 0.2821(75)
H7 H 0.9653(32) 0.5527(14) 0.4968(51)
H8 H 1.1509(35) 0.5798(16) 0.8055(79)
H9 H 1.2070(27) 0.5139(13) 0.6331(51)
H10 H 1.2703(33) 0.5920(15) 0.5921(64)
O2 O 0.9298(3) 0.98890(10) 0.1512(4)
H1 H 0.8989(36) 0.9481(18) 0.1418(68)
H2 H 0.9836(64) 0.9923(34) 0.011(10)
loop_
_geom_bond_atom_site_label_1
_geom_bond_atom_site_label_2
_geom_bond_site_symmetry_1
_geom_bond_site_symmetry_2
N1 N2 1_555 1_555
N2 C1 1_555 1_555
N3 C2 1_555 1_555
N4 N5 1_555 1_555
N5 C1 1_555 1_555
N6 C3 1_555 1_555
C1 C2 1_555 1_555
C2 O1 1_555 1_555
C3 N3 1_555 1_555
C4 N1 1_555 1_555
C5 C4 1_555 1_555
C6 C5 1_555 1_555
O2 H1 1_555 1_555
H2 O2 1_555 1_555
H3 N3 1_555 1_555
H4 N6 1_555 1_555
H5 N6 1_555 1_555
H6 C5 1_555 1_555
H7 C5 1_555 1_555
H8 C6 1_555 1_555
H9 C6 1_555 1_555
H10 C6 1_555 1_555
N4 C3 1_555 1_555
N5 C4 1_555 1_555

#END
