
#######################################################################
#
#                 Cambridge Crystallographic Data Centre
#                                CCDC 
#
#######################################################################
#
# If this CIF has been generated from an entry in the Cambridge 
# Structural Database, then it will include bibliographic, chemical, 
# crystal, experimental, refinement or atomic coordinate data resulting 
# from the CCDC's data processing and validation procedures.
#
#######################################################################

data_XUCSUL
_chemical_formula_moiety         'C74 H96 N8 O2 Si4,C7 H8,H2 O1'
_chemical_name_systematic        
"6,10,17,21-tetrakis((triisopropylsilyl)ethynyl)-5,9,18,22-tetrahydroquinoxalino[2,3-b]quinoxalino[2',3':6,7]quinoxalino[2,3-i]phenazine-8,19-dione toluene solvate monohydrate"
_symmetry_cell_setting           triclinic
_symmetry_space_group_name_H-M   'P -1'
_symmetry_Int_Tables_number      2
_space_group_name_Hall           '-P 1'
loop_
_symmetry_equiv_pos_site_id
_symmetry_equiv_pos_as_xyz
1 x,y,z
2 -x,-y,-z
_cell_length_a                   7.2848(12)
_cell_length_b                   15.403(3)
_cell_length_c                   17.265(3)
_cell_angle_alpha                94.231(3)
_cell_angle_beta                 92.824(3)
_cell_angle_gamma                97.780(3)
_cell_volume                     1910.76
_exptl_crystal_colour            green
_exptl_crystal_description       prism
_cell_formula_units_Z            1
loop_
_atom_site_label
_atom_site_type_symbol
_atom_site_fract_x
_atom_site_fract_y
_atom_site_fract_z
C38 C -0.0654(17) 0.4826(11) 0.3639(9)
H47 H 0.0353 0.5162 0.3385
H48 H -0.1814 0.5064 0.3533
H49 H -0.0796 0.4208 0.3436
C39 C -0.0201(10) 0.4895(6) 0.4505(3)
C40 C 0.0365(8) 0.4181(4) 0.4851(5)
H50 H 0.0427 0.3648 0.4545
C41 C 0.0839(8) 0.4246(4) 0.5645(6)
H51 H 0.1225 0.3758 0.5882
C42 C 0.0747(9) 0.5025(5) 0.6093(4)
H52 H 0.1071 0.5070 0.6635
C43 C 0.0182(8) 0.5739(4) 0.5746(4)
H53 H 0.0119 0.6272 0.6052
C44 C -0.0292(9) 0.5674(4) 0.4952(4)
H54 H -0.0679 0.6162 0.4716
C38A C 0.0654(17) 0.5174(11) 0.6361(9)
H47A H -0.0353 0.4838 0.6615
H48A H 0.1814 0.4936 0.6467
H49A H 0.0796 0.5792 0.6564
C39A C 0.0201(10) 0.5105(6) 0.5495(3)
C40A C -0.0365(8) 0.5819(4) 0.5149(5)
H50A H -0.0427 0.6352 0.5455
C41A C -0.0839(8) 0.5754(4) 0.4355(6)
H51A H -0.1225 0.6242 0.4118
C42A C -0.0747(9) 0.4975(5) 0.3907(4)
H52A H -0.1071 0.4930 0.3365
C43A C -0.0182(8) 0.4261(4) 0.4254(4)
H53A H -0.0119 0.3728 0.3948
C44A C 0.0292(9) 0.4326(4) 0.5048(4)
H54A H 0.0679 0.3838 0.5284
O2 O 0.4125(7) 0.9594(3) 0.2815(3)
O1 O 0.3979(3) 0.47299(14) 0.34712(10)
C1 C 0.4424(3) 0.48483(19) 0.41651(14)
C2 C 0.5095(3) 0.41541(19) 0.46025(14)
N1 N 0.5152(3) 0.33748(16) 0.42133(12)
C3 C 0.5832(3) 0.27172(19) 0.45788(14)
C4 C 0.5891(3) 0.19074(19) 0.41766(14)
C5 C 0.6573(3) 0.12229(19) 0.45656(14)
N2 N 0.6568(3) 0.04294(16) 0.41888(12)
C6 C 0.7229(3) -0.0216(2) 0.45700(15)
C7 C 0.7252(4) -0.1055(2) 0.41875(16)
H1 H 0.6800 -0.1172 0.3659
C8 C 0.7923(4) -0.1700(2) 0.45747(17)
H2 H 0.7945 -0.2262 0.4311
C9 C 0.8583(4) -0.1539(2) 0.53628(17)
H3 H 0.9033 -0.1994 0.5628
C10 C 0.8574(4) -0.0730(2) 0.57445(16)
H4 H 0.9038 -0.0624 0.6272
C11 C 0.7888(3) -0.0054(2) 0.53645(15)
N3 N 0.7866(3) 0.07448(16) 0.57518(12)
C12 C 0.7241(3) 0.13891(19) 0.53710(15)
C13 C 0.7226(3) 0.22279(19) 0.57685(14)
C14 C 0.6471(3) 0.28769(19) 0.53873(14)
N4 N 0.6323(3) 0.36702(16) 0.57750(12)
C15 C 0.5673(3) 0.43022(19) 0.53903(14)
C16 C 0.5203(3) 0.17916(18) 0.33777(15)
C17 C 0.4560(4) 0.18025(18) 0.27259(15)
Si1 Si 0.35463(11) 0.19508(6) 0.17538(4)
C18 C 0.1149(5) 0.2237(3) 0.1888(2)
H5 H 0.0629 0.2390 0.1377
C19 C -0.0162(6) 0.1487(4) 0.2167(3)
H6 H 0.0246 0.1377 0.2695
H7 H -0.0156 0.0956 0.1818
H8 H -0.1421 0.1645 0.2166
C20 C 0.1146(7) 0.2992(4) 0.2464(3)
H9 H -0.0129 0.3116 0.2514
H10 H 0.1908 0.3509 0.2292
H11 H 0.1656 0.2854 0.2968
C21 C 0.5184(6) 0.2835(2) 0.13431(19)
H12 H 0.6240 0.2548 0.1145
C22 C 0.6023(5) 0.3588(2) 0.1936(2)
H13 H 0.6962 0.3979 0.1693
H14 H 0.6602 0.3347 0.2382
H15 H 0.5043 0.3919 0.2112
C23 C 0.4250(9) 0.3201(3) 0.0637(3)
H16 H 0.3254 0.3523 0.0812
H17 H 0.3730 0.2714 0.0258
H18 H 0.5174 0.3599 0.0393
C24 C 0.3342(5) 0.0866(3) 0.11665(18)
H19 H 0.2613 0.0430 0.1475
C25 C 0.5216(6) 0.0554(3) 0.1079(2)
H20 H 0.5041 -0.0034 0.0805
H21 H 0.5823 0.0532 0.1596
H22 H 0.5993 0.0962 0.0782
C26 C 0.2264(7) 0.0823(3) 0.0372(2)
H23 H 0.3007 0.1176 0.0019
H24 H 0.1089 0.1056 0.0440
H25 H 0.2010 0.0212 0.0151
C27 C 0.7964(4) 0.24185(19) 0.65562(15)
C28 C 0.8622(4) 0.2623(2) 0.72077(16)
Si2 Si 0.97562(12) 0.29262(7) 0.81874(4)
C29 C 1.0046(11) 0.2018(5) 0.8700(4)
H26 H 1.0855 0.2227 0.9181
C30 C 0.8199(12) 0.1575(6) 0.8945(4)
H27 H 0.7360 0.1394 0.8483
H28 H 0.7648 0.1987 0.9292
H29 H 0.8397 0.1056 0.9218
C31 C 1.0982(16) 0.1369(10) 0.8229(7)
H30 H 1.1185 0.0880 0.8540
H31 H 1.2178 0.1658 0.8078
H32 H 1.0194 0.1144 0.7761
C32 C 1.1937(9) 0.3746(4) 0.8034(3)
H33 H 1.1514 0.4315 0.7911
C33 C 1.3240(10) 0.3928(6) 0.8774(4)
H34 H 1.3648 0.3377 0.8917
H35 H 1.2579 0.4175 0.9200
H36 H 1.4324 0.4347 0.8676
C34 C 1.3014(11) 0.3438(5) 0.7354(4)
H37 H 1.4096 0.3877 0.7297
H38 H 1.2211 0.3366 0.6875
H39 H 1.3428 0.2875 0.7454
C35 C 0.8051(11) 0.3680(5) 0.8712(4)
H40 H 0.6834 0.3292 0.8715
C36 C 0.8664(15) 0.3926(9) 0.9575(6)
H41 H 0.9900 0.4274 0.9615
H42 H 0.8704 0.3389 0.9842
H43 H 0.7778 0.4272 0.9816
C37 C 0.7644(17) 0.4436(8) 0.8297(9)
H44 H 0.6485 0.4622 0.8469
H45 H 0.7514 0.4269 0.7736
H46 H 0.8660 0.4922 0.8408
O1A O 0.6021(3) 0.52701(14) 0.65288(10)
C1A C 0.5576(3) 0.51517(19) 0.58349(14)
C2A C 0.4905(3) 0.58459(19) 0.53975(14)
N1A N 0.4848(3) 0.66252(16) 0.57867(12)
C3A C 0.4168(3) 0.72828(19) 0.54212(14)
C4A C 0.4109(3) 0.80926(19) 0.58234(14)
C5A C 0.3427(3) 0.87771(19) 0.54344(14)
N2A N 0.3432(3) 0.95706(16) 0.58112(12)
C6A C 0.2771(3) 1.0216(2) 0.54300(15)
C7A C 0.2748(4) 1.1055(2) 0.58125(16)
H1A H 0.3200 1.1172 0.6341
C8A C 0.2077(4) 1.1700(2) 0.54253(17)
H2A H 0.2055 1.2262 0.5689
C9A C 0.1417(4) 1.1539(2) 0.46372(17)
H3A H 0.0967 1.1994 0.4372
C10A C 0.1426(4) 1.0730(2) 0.42555(16)
H4A H 0.0962 1.0624 0.3728
C11A C 0.2112(3) 1.0054(2) 0.46355(15)
N3A N 0.2134(3) 0.92552(16) 0.42482(12)
C12A C 0.2759(3) 0.86109(19) 0.46290(15)
C13A C 0.2774(3) 0.77721(19) 0.42315(14)
C14A C 0.3529(3) 0.71231(19) 0.46127(14)
N4A N 0.3677(3) 0.63298(16) 0.42250(12)
C15A C 0.4327(3) 0.56978(19) 0.46097(14)
C16A C 0.4797(3) 0.82084(18) 0.66223(15)
C17A C 0.5440(4) 0.81975(18) 0.72741(15)
Si1A Si 0.64537(11) 0.80492(6) 0.82462(4)
C18A C 0.8851(5) 0.7763(3) 0.8112(2)
H5A H 0.9371 0.7610 0.8623
C19A C 1.0162(6) 0.8513(4) 0.7833(3)
H6A H 0.9754 0.8623 0.7305
H7A H 1.0156 0.9044 0.8182
H8A H 1.1421 0.8355 0.7834
C20A C 0.8854(7) 0.7008(4) 0.7536(3)
H9A H 1.0129 0.6884 0.7486
H10A H 0.8092 0.6491 0.7708
H11A H 0.8344 0.7146 0.7032
C21A C 0.4816(6) 0.7165(2) 0.86569(19)
H12A H 0.3760 0.7452 0.8855
C22A C 0.3977(5) 0.6412(2) 0.8064(2)
H13A H 0.3038 0.6021 0.8307
H14A H 0.3398 0.6653 0.7618
H15A H 0.4957 0.6081 0.7888
C23A C 0.5750(9) 0.6799(3) 0.9363(3)
H16A H 0.6746 0.6477 0.9188
H17A H 0.6270 0.7286 0.9742
H18A H 0.4826 0.6401 0.9607
C24A C 0.6658(5) 0.9134(3) 0.88335(18)
H19A H 0.7387 0.9570 0.8525
C25A C 0.4784(6) 0.9446(3) 0.8921(2)
H20A H 0.4959 1.0034 0.9195
H21A H 0.4177 0.9468 0.8404
H22A H 0.4007 0.9038 0.9218
C26A C 0.7736(7) 0.9177(3) 0.9628(2)
H23A H 0.6993 0.8824 0.9981
H24A H 0.8911 0.8944 0.9560
H25A H 0.7990 0.9788 0.9849
C27A C 0.2036(4) 0.75815(19) 0.34438(15)
C28A C 0.1378(4) 0.7377(2) 0.27923(16)
Si2A Si 0.02438(12) 0.70738(7) 0.18126(4)
C29A C -0.0046(11) 0.7982(5) 0.1300(4)
H26A H -0.0855 0.7773 0.0819
C30A C 0.1801(12) 0.8425(6) 0.1055(4)
H27A H 0.2640 0.8606 0.1517
H28A H 0.2352 0.8013 0.0708
H29A H 0.1603 0.8944 0.0782
C31A C -0.0982(16) 0.8631(10) 0.1771(7)
H30A H -0.1185 0.9120 0.1460
H31A H -0.2178 0.8342 0.1922
H32A H -0.0194 0.8856 0.2239
C32A C -0.1937(9) 0.6254(4) 0.1966(3)
H33A H -0.1514 0.5685 0.2089
C33A C -0.3240(10) 0.6072(6) 0.1226(4)
H34A H -0.3648 0.6623 0.1083
H35A H -0.2579 0.5825 0.0800
H36A H -0.4324 0.5653 0.1324
C34A C -0.3014(11) 0.6562(5) 0.2646(4)
H37A H -0.4096 0.6123 0.2703
H38A H -0.2211 0.6634 0.3125
H39A H -0.3428 0.7125 0.2546
C35A C 0.1949(11) 0.6320(5) 0.1288(4)
H40A H 0.3166 0.6708 0.1285
C36A C 0.1336(15) 0.6074(9) 0.0425(6)
H41A H 0.0100 0.5726 0.0385
H42A H 0.1296 0.6611 0.0158
H43A H 0.2222 0.5728 0.0184
C37A C 0.2356(17) 0.5564(8) 0.1703(9)
H44A H 0.3515 0.5378 0.1531
H45A H 0.2486 0.5731 0.2264
H46A H 0.1340 0.5078 0.1592
C45? C 0.8043(11) 0.2455(8) 0.8899(4)
H55? H 0.7456 0.2990 0.9042
C46? C 0.8913(10) 0.2315(6) 0.9692(4)
H56? H 0.7937 0.2095 1.0028
H57? H 0.9579 0.2874 0.9929
H58? H 0.9783 0.1885 0.9630
C47? C 0.6450(12) 0.1870(8) 0.8634(6)
H59? H 0.6793 0.1284 0.8509
H60? H 0.5887 0.2077 0.8167
H61? H 0.5557 0.1840 0.9041
C48? C 1.1942(9) 0.2291(5) 0.8184(3)
H62? H 1.2579 0.2384 0.8716
C49? C 1.148(2) 0.1298(12) 0.7969(9)
H63? H 1.0838 0.1194 0.7452
H64? H 1.0685 0.1031 0.8353
H65? H 1.2635 0.1035 0.7965
C50? C 1.3275(10) 0.2691(6) 0.7613(4)
H66? H 1.4346 0.2370 0.7591
H67? H 1.3697 0.3309 0.7786
H68? H 1.2640 0.2652 0.7096
C51? C 1.0430(11) 0.4074(5) 0.8357(4)
H69? H 1.1276 0.4249 0.7940
C52? C 1.1559(14) 0.4342(5) 0.9137(4)
H70? H 1.1867 0.4983 0.9204
H71? H 1.2706 0.4074 0.9137
H72? H 1.0823 0.4137 0.9565
C53? C 0.8813(16) 0.4621(8) 0.8290(8)
H73? H 0.7845 0.4407 0.8632
H74? H 0.8297 0.4562 0.7751
H75? H 0.9269 0.5240 0.8445
H76? H 0.4750 0.3285 0.3721
H77? H 0.6141 0.0328 0.3700
H78? H 0.8255 0.0840 0.6245
H79? H 0.6652 0.3765 0.6275
loop_
_geom_bond_atom_site_label_1
_geom_bond_atom_site_label_2
_geom_bond_site_symmetry_1
_geom_bond_site_symmetry_2
O1 C1 1_555 1_555
C1 C2 1_555 1_555
C2 N1 1_555 1_555
N1 C3 1_555 1_555
C3 C4 1_555 1_555
C4 C5 1_555 1_555
C5 N2 1_555 1_555
N2 C6 1_555 1_555
C6 C7 1_555 1_555
C7 H1 1_555 1_555
C8 C7 1_555 1_555
H2 C8 1_555 1_555
C9 C8 1_555 1_555
H3 C9 1_555 1_555
C10 C9 1_555 1_555
H4 C10 1_555 1_555
C11 C6 1_555 1_555
N3 C11 1_555 1_555
C12 C5 1_555 1_555
C13 C12 1_555 1_555
C14 C3 1_555 1_555
N4 C14 1_555 1_555
C15 C2 1_555 1_555
C16 C4 1_555 1_555
C17 C16 1_555 1_555
Si1 C17 1_555 1_555
C18 Si1 1_555 1_555
H5 C18 1_555 1_555
C19 C18 1_555 1_555
H6 C19 1_555 1_555
H7 C19 1_555 1_555
H8 C19 1_555 1_555
C20 C18 1_555 1_555
H9 C20 1_555 1_555
H10 C20 1_555 1_555
H11 C20 1_555 1_555
C21 Si1 1_555 1_555
H12 C21 1_555 1_555
C22 C21 1_555 1_555
H13 C22 1_555 1_555
H14 C22 1_555 1_555
H15 C22 1_555 1_555
C23 C21 1_555 1_555
H16 C23 1_555 1_555
H17 C23 1_555 1_555
H18 C23 1_555 1_555
C24 Si1 1_555 1_555
H19 C24 1_555 1_555
C25 C24 1_555 1_555
H20 C25 1_555 1_555
H21 C25 1_555 1_555
H22 C25 1_555 1_555
C26 C24 1_555 1_555
H23 C26 1_555 1_555
H24 C26 1_555 1_555
H25 C26 1_555 1_555
C27 C13 1_555 1_555
C28 C27 1_555 1_555
Si2 C28 1_555 1_555
C29 Si2 1_555 1_555
H26 C29 1_555 1_555
C30 C29 1_555 1_555
H27 C30 1_555 1_555
H28 C30 1_555 1_555
H29 C30 1_555 1_555
C31 C29 1_555 1_555
H30 C31 1_555 1_555
H31 C31 1_555 1_555
H32 C31 1_555 1_555
C32 Si2 1_555 1_555
H33 C32 1_555 1_555
C33 C32 1_555 1_555
H34 C33 1_555 1_555
H35 C33 1_555 1_555
H36 C33 1_555 1_555
C34 C32 1_555 1_555
H37 C34 1_555 1_555
H38 C34 1_555 1_555
H39 C34 1_555 1_555
C35 Si2 1_555 1_555
H40 C35 1_555 1_555
C36 C35 1_555 1_555
H41 C36 1_555 1_555
H42 C36 1_555 1_555
H43 C36 1_555 1_555
C37 C35 1_555 1_555
H44 C37 1_555 1_555
H45 C37 1_555 1_555
H46 C37 1_555 1_555
C38 H47 1_555 1_555
H47 C42A 1_555 1_555
H48 C38 1_555 1_555
H49 C38 1_555 1_555
C39 C38 1_555 1_555
C40 C39 1_555 1_555
H50 C40 1_555 1_555
C41 C40 1_555 1_555
H51 C41 1_555 1_555
C42 C41 1_555 1_555
H52 C42 1_555 1_555
C43 C42 1_555 1_555
H53 C43 1_555 1_555
C44 C39 1_555 1_555
H54 C44 1_555 1_555
O1A C1A 1_555 1_555
C1A C15 1_555 1_555
C2A C1A 1_555 1_555
N1A C2A 1_555 1_555
C3A N1A 1_555 1_555
C4A C3A 1_555 1_555
C5A C4A 1_555 1_555
N2A C5A 1_555 1_555
C6A N2A 1_555 1_555
C7A C6A 1_555 1_555
H1A C7A 1_555 1_555
C8A C7A 1_555 1_555
H2A C8A 1_555 1_555
C9A C8A 1_555 1_555
H3A C9A 1_555 1_555
C10A C9A 1_555 1_555
H4A C10A 1_555 1_555
C11A C6A 1_555 1_555
N3A C11A 1_555 1_555
C12A C5A 1_555 1_555
C13A C12A 1_555 1_555
C14A C3A 1_555 1_555
N4A C14A 1_555 1_555
C15A C1 1_555 1_555
C16A C4A 1_555 1_555
C17A C16A 1_555 1_555
Si1A C17A 1_555 1_555
C18A Si1A 1_555 1_555
H5A C18A 1_555 1_555
C19A C18A 1_555 1_555
H6A C19A 1_555 1_555
H7A C19A 1_555 1_555
H8A C19A 1_555 1_555
C20A C18A 1_555 1_555
H9A C20A 1_555 1_555
H10A C20A 1_555 1_555
H11A C20A 1_555 1_555
C21A Si1A 1_555 1_555
H12A C21A 1_555 1_555
C22A C21A 1_555 1_555
H13A C22A 1_555 1_555
H14A C22A 1_555 1_555
H15A C22A 1_555 1_555
C23A C21A 1_555 1_555
H16A C23A 1_555 1_555
H17A C23A 1_555 1_555
H18A C23A 1_555 1_555
C24A Si1A 1_555 1_555
H19A C24A 1_555 1_555
C25A C24A 1_555 1_555
H20A C25A 1_555 1_555
H21A C25A 1_555 1_555
H22A C25A 1_555 1_555
C26A C24A 1_555 1_555
H23A C26A 1_555 1_555
H24A C26A 1_555 1_555
H25A C26A 1_555 1_555
C27A C13A 1_555 1_555
C28A C27A 1_555 1_555
Si2A C28A 1_555 1_555
C29A Si2A 1_555 1_555
H26A C29A 1_555 1_555
C30A C29A 1_555 1_555
H27A C30A 1_555 1_555
H28A C30A 1_555 1_555
H29A C30A 1_555 1_555
C31A C29A 1_555 1_555
H30A C31A 1_555 1_555
H31A C31A 1_555 1_555
H32A C31A 1_555 1_555
C32A Si2A 1_555 1_555
H33A C32A 1_555 1_555
C33A C32A 1_555 1_555
H34A C33A 1_555 1_555
H35A C33A 1_555 1_555
H36A C33A 1_555 1_555
C34A C32A 1_555 1_555
H37A C34A 1_555 1_555
H38A C34A 1_555 1_555
H39A C34A 1_555 1_555
C35A Si2A 1_555 1_555
H40A C35A 1_555 1_555
C36A C35A 1_555 1_555
H41A C36A 1_555 1_555
H42A C36A 1_555 1_555
H43A C36A 1_555 1_555
C37A C35A 1_555 1_555
H44A C37A 1_555 1_555
H45A C37A 1_555 1_555
H46A C37A 1_555 1_555
C38A H52 1_555 1_555
H47A C42 1_555 1_555
H48A C42 1_555 1_555
H49A C38A 1_555 1_555
C39A C40 1_555 1_555
C40A C39 1_555 1_555
H50A C43 1_555 1_555
C41A C44 1_555 1_555
H51A C41A 1_555 1_555
C42A H48 1_555 1_555
H52A C38 1_555 1_555
C43A C38 1_555 1_555
H53A C43A 1_555 1_555
C44A C39 1_555 1_555
H54A C40 1_555 1_555
C10 C11 1_555 1_555
N3 C12 1_555 1_555
C13 C14 1_555 1_555
N4 C15 1_555 1_555
C39 C42A 1_555 1_555
C40 C43A 1_555 1_555
H50 C43A 1_555 1_555
H50 C44A 1_555 1_555
C41 C44A 1_555 1_555
C41 H54A 1_555 1_555
C42 C39A 1_555 1_555
C43 C44 1_555 1_555
C43 C38A 1_555 1_555
C43 C40A 1_555 1_555
C44 C39A 1_555 1_555
C44 H50A 1_555 1_555
H54 C40A 1_555 1_555
H54 C41A 1_555 1_555
C2A C15A 1_555 1_555
C10A C11A 1_555 1_555
N3A C12A 1_555 1_555
C13A C14A 1_555 1_555
N4A C15A 1_555 1_555
C38A H47A 1_555 1_555
C38A H48A 1_555 1_555
C38A C39A 1_555 1_555
C39A C40A 1_555 1_555
C39A C44A 1_555 1_555
C40A H50A 1_555 1_555
C40A C41A 1_555 1_555
C41A C42A 1_555 1_555
C42A H52A 1_555 1_555
C42A C43A 1_555 1_555
C43A C44A 1_555 1_555
C44A H54A 1_555 1_555

#END
