
#######################################################################
#
#                 Cambridge Crystallographic Data Centre
#                                CCDC 
#
#######################################################################
#
# If this CIF has been generated from an entry in the Cambridge 
# Structural Database, then it will include bibliographic, chemical, 
# crystal, experimental, refinement or atomic coordinate data resulting 
# from the CCDC's data processing and validation procedures.
#
#######################################################################

data_XUDGIN
_chemical_formula_moiety         'C56 H46 N2 O6,C2 H3 N1'
_chemical_name_systematic        
'25,27-bis-((4-Amino-4-(1-naphthyl)-2-oxo-3-butenyl)oxy)-26,28-dihydroxycalix(4)arene acetonitrile solvate'
_symmetry_cell_setting           triclinic
_symmetry_space_group_name_H-M   'P -1'
_symmetry_Int_Tables_number      2
_space_group_name_Hall           '-P 1'
loop_
_symmetry_equiv_pos_site_id
_symmetry_equiv_pos_as_xyz
1 x,y,z
2 -x,-y,-z
_cell_length_a                   11.0578(5)
_cell_length_b                   14.6102(5)
_cell_length_c                   16.1385(7)
_cell_angle_alpha                114.299(2)
_cell_angle_beta                 91.656(2)
_cell_angle_gamma                94.592(3)
_cell_volume                     2363.18
_exptl_crystal_colour            yellow
_chemical_melting_point          '212-214 deg.C'
_cell_formula_units_Z            2
_exptl_crystal_preparation       fluorescent
loop_
_atom_site_label
_atom_site_type_symbol
_atom_site_fract_x
_atom_site_fract_y
_atom_site_fract_z
O1 O 0.8971(6) 0.4102(5) 0.1504(5)
O2 O 0.6970(6) 0.2972(5) 0.1892(5)
H1 H 0.6299 0.3023 0.1696
O3 O 0.4774(5) 0.3137(4) 0.0980(4)
O4 O 0.6597(6) 0.4631(5) 0.0959(5)
H2 H 0.6034 0.4251 0.0995
O5 O 1.1106(6) 0.2945(6) -0.0099(5)
O6 O 0.4560(6) 0.1070(5) 0.0214(4)
N1 N 0.9912(8) 0.1612(6) -0.1575(6)
H3 H 1.0615 0.1896 -0.1315
H4 H 0.9855 0.1125 -0.2110
N2 N 0.3179(8) -0.0679(6) -0.0865(6)
H5 H 0.3831 -0.0453 -0.0510
H6 H 0.2943 -0.1314 -0.1101
C1 C 0.9051(8) 0.4879(8) 0.2388(7)
C2 C 0.8961(8) 0.5855(8) 0.2494(7)
C3 C 0.9109(9) 0.6614(8) 0.3365(8)
H7 H 0.9071 0.7279 0.3445
C4 C 0.9308(11) 0.6417(10) 0.4111(8)
H8 H 0.9420 0.6940 0.4691
C5 C 0.9340(11) 0.5419(10) 0.3988(8)
H9 H 0.9461 0.5277 0.4494
C6 C 0.9199(10) 0.4647(8) 0.3144(9)
C7 C 0.9135(13) 0.3551(9) 0.3027(9)
H10 H 0.9214 0.3115 0.2392
H11 H 0.9811 0.3474 0.3382
C8 C 0.7959(12) 0.3224(8) 0.3325(8)
C9 C 0.7874(15) 0.3187(10) 0.4173(9)
H12 H 0.8571 0.3327 0.4558
C10 C 0.6776(18) 0.2946(11) 0.4443(9)
H13 H 0.6718 0.2954 0.5020
C11 C 0.5784(14) 0.2698(9) 0.3866(9)
H14 H 0.5056 0.2499 0.4047
C12 C 0.5779(13) 0.2720(8) 0.3028(8)
C13 C 0.6889(13) 0.2994(7) 0.2759(7)
C14 C 0.4606(12) 0.2487(9) 0.2410(8)
H15 H 0.4783 0.2075 0.1788
H16 H 0.4012 0.2091 0.2591
C15 C 0.4047(10) 0.3401(8) 0.2427(8)
C16 C 0.3422(13) 0.3939(11) 0.3162(9)
H17 H 0.3346 0.3735 0.3635
C17 C 0.2900(11) 0.4789(12) 0.3203(10)
H18 H 0.2427 0.5129 0.3682
C18 C 0.3091(10) 0.5133(10) 0.2518(10)
H19 H 0.2783 0.5725 0.2566
C19 C 0.3732(9) 0.4600(7) 0.1771(8)
C20 C 0.4156(9) 0.3710(8) 0.1724(7)
C21 C 0.4056(10) 0.5038(8) 0.1098(8)
H20 H 0.3354 0.5322 0.0962
H21 H 0.4251 0.4499 0.0536
C22 C 0.5122(9) 0.5850(8) 0.1437(7)
C23 C 0.4929(12) 0.6864(9) 0.1865(8)
H22 H 0.4137 0.7045 0.1922
C24 C 0.5887(12) 0.7603(8) 0.2205(9)
H23 H 0.5744 0.8278 0.2489
C25 C 0.7058(11) 0.7339(9) 0.2122(8)
H24 H 0.7699 0.7848 0.2352
C26 C 0.7316(9) 0.6356(8) 0.1715(7)
C27 C 0.6316(10) 0.5606(7) 0.1365(7)
C28 C 0.8628(10) 0.6086(9) 0.1681(8)
H25 H 0.8715 0.5502 0.1120
H26 H 0.9174 0.6645 0.1693
C29 C 1.0150(9) 0.3956(8) 0.1142(7)
H27 H 1.0671 0.3769 0.1528
H28 H 1.0513 0.4587 0.1150
C30 C 1.0086(10) 0.3162(7) 0.0195(7)
C31 C 0.8980(8) 0.2685(7) -0.0317(7)
H29 H 0.8259 0.2912 -0.0060
C32 C 0.8907(9) 0.1927(8) -0.1150(7)
C33 C 0.7758(9) 0.1370(7) -0.1693(7)
C34 C 0.7003(9) 0.0871(8) -0.1310(7)
H30 H 0.7177 0.0965 -0.0711
C35 C 0.5980(10) 0.0225(8) -0.1807(8)
H31 H 0.5481 -0.0105 -0.1540
C36 C 0.5726(10) 0.0084(8) -0.2676(8)
H32 H 0.5077 -0.0376 -0.3018
C37 C 0.6440(10) 0.0633(8) -0.3079(7)
C38 C 0.6157(12) 0.0553(10) -0.3943(8)
H33 H 0.5514 0.0095 -0.4296
C39 C 0.6805(12) 0.1133(11) -0.4295(9)
H34 H 0.6583 0.1078 -0.4875
C40 C 0.7769(11) 0.1789(10) -0.3803(8)
H35 H 0.8190 0.2189 -0.4044
C41 C 0.8123(9) 0.1866(8) -0.2965(7)
H36 H 0.8800 0.2304 -0.2646
C42 C 0.7469(9) 0.1281(8) -0.2563(7)
C43 C 0.4042(9) 0.2580(7) 0.0155(6)
H37 H 0.4427 0.2681 -0.0337
H38 H 0.3259 0.2849 0.0212
C44 C 0.3835(9) 0.1476(7) -0.0094(6)
C45 C 0.2840(10) 0.0955(8) -0.0709(8)
H39 H 0.2353 0.1335 -0.0895
C46 C 0.2526(10) -0.0036(9) -0.1052(8)
C47 C 0.1241(13) -0.0589(10) -0.1526(11)
C48 C 0.0350(12) -0.0982(9) -0.1116(10)
H40 H 0.0567 -0.0977 -0.0553
C49 C -0.0842(13) -0.1381(10) -0.1494(11)
H41 H -0.1396 -0.1609 -0.1181
C50 C -0.1167(14) -0.1422(11) -0.2356(11)
H42 H -0.1934 -0.1684 -0.2649
C51 C -0.0224(13) -0.1028(10) -0.2757(11)
C52 C -0.0437(16) -0.0978(12) -0.3579(12)
H43 H -0.1193 -0.1241 -0.3892
C53 C 0.0385(17) -0.0569(13) -0.3956(12)
H44 H 0.0158 -0.0514 -0.4492
C54 C 0.1500(15) -0.0243(12) -0.3593(11)
H45 H 0.2053 -0.0027 -0.3915
C55 C 0.1887(13) -0.0206(10) -0.2771(10)
H46 H 0.2672 0.0042 -0.2512
C56 C 0.0960(13) -0.0591(10) -0.2327(10)
N3 N 0.6819(18) 0.7737(19) 0.5015(14)
C57 C 0.6457(18) 0.704(2) 0.4462(13)
C58 C 0.6060(14) 0.6080(17) 0.3854(11)
H47 H 0.5191 0.6015 0.3758
H48 H 0.6290 0.5611 0.4093
H49 H 0.6421 0.5938 0.3286
loop_
_geom_bond_atom_site_label_1
_geom_bond_atom_site_label_2
_geom_bond_site_symmetry_1
_geom_bond_site_symmetry_2
O1 C1 1_555 1_555
O2 H1 1_555 1_555
O3 C20 1_555 1_555
O4 H2 1_555 1_555
O5 C30 1_555 1_555
O6 C44 1_555 1_555
N1 H3 1_555 1_555
H4 N1 1_555 1_555
N2 H5 1_555 1_555
H6 N2 1_555 1_555
C1 C2 1_555 1_555
C2 C3 1_555 1_555
C3 H7 1_555 1_555
C4 C3 1_555 1_555
H8 C4 1_555 1_555
C5 C4 1_555 1_555
H9 C5 1_555 1_555
C6 C1 1_555 1_555
C7 C6 1_555 1_555
H10 C7 1_555 1_555
H11 C7 1_555 1_555
C8 C7 1_555 1_555
C9 C8 1_555 1_555
H12 C9 1_555 1_555
C10 C9 1_555 1_555
H13 C10 1_555 1_555
C11 C10 1_555 1_555
H14 C11 1_555 1_555
C12 C11 1_555 1_555
C13 O2 1_555 1_555
C14 C12 1_555 1_555
H15 C14 1_555 1_555
H16 C14 1_555 1_555
C15 C14 1_555 1_555
C16 C15 1_555 1_555
H17 C16 1_555 1_555
C17 C16 1_555 1_555
H18 C17 1_555 1_555
C18 C17 1_555 1_555
H19 C18 1_555 1_555
C19 C18 1_555 1_555
C20 C15 1_555 1_555
C21 C19 1_555 1_555
H20 C21 1_555 1_555
H21 C21 1_555 1_555
C22 C21 1_555 1_555
C23 C22 1_555 1_555
H22 C23 1_555 1_555
C24 C23 1_555 1_555
H23 C24 1_555 1_555
C25 C24 1_555 1_555
H24 C25 1_555 1_555
C26 C25 1_555 1_555
C27 O4 1_555 1_555
C28 C2 1_555 1_555
H25 C28 1_555 1_555
H26 C28 1_555 1_555
C29 O1 1_555 1_555
H27 C29 1_555 1_555
H28 C29 1_555 1_555
C30 C29 1_555 1_555
C31 C30 1_555 1_555
H29 C31 1_555 1_555
C32 N1 1_555 1_555
C33 C32 1_555 1_555
C34 C33 1_555 1_555
H30 C34 1_555 1_555
C35 C34 1_555 1_555
H31 C35 1_555 1_555
C36 C35 1_555 1_555
H32 C36 1_555 1_555
C37 C36 1_555 1_555
C38 C37 1_555 1_555
H33 C38 1_555 1_555
C39 C38 1_555 1_555
H34 C39 1_555 1_555
C40 C39 1_555 1_555
H35 C40 1_555 1_555
C41 C40 1_555 1_555
H36 C41 1_555 1_555
C42 C33 1_555 1_555
C43 O3 1_555 1_555
H37 C43 1_555 1_555
H38 C43 1_555 1_555
C44 C43 1_555 1_555
C45 C44 1_555 1_555
H39 C45 1_555 1_555
C46 N2 1_555 1_555
C47 C46 1_555 1_555
C48 C47 1_555 1_555
H40 C48 1_555 1_555
C49 C48 1_555 1_555
H41 C49 1_555 1_555
C50 C49 1_555 1_555
H42 C50 1_555 1_555
C51 C50 1_555 1_555
C52 C51 1_555 1_555
H43 C52 1_555 1_555
C53 C52 1_555 1_555
H44 C53 1_555 1_555
C54 C53 1_555 1_555
H45 C54 1_555 1_555
C55 C54 1_555 1_555
H46 C55 1_555 1_555
C56 C47 1_555 1_555
N3 C57 1_555 1_555
C57 C58 1_555 1_555
C58 H47 1_555 1_555
H48 C58 1_555 1_555
H49 C58 1_555 1_555
C5 C6 1_555 1_555
C8 C13 1_555 1_555
C12 C13 1_555 1_555
C19 C20 1_555 1_555
C22 C27 1_555 1_555
C26 C27 1_555 1_555
C26 C28 1_555 1_555
C31 C32 1_555 1_555
C37 C42 1_555 1_555
C41 C42 1_555 1_555
C45 C46 1_555 1_555
C51 C56 1_555 1_555
C55 C56 1_555 1_555

#END
