
#######################################################################
#
#                 Cambridge Crystallographic Data Centre
#                                CCDC 
#
#######################################################################
#
# If this CIF has been generated from an entry in the Cambridge 
# Structural Database, then it will include bibliographic, chemical, 
# crystal, experimental, refinement or atomic coordinate data resulting 
# from the CCDC's data processing and validation procedures.
#
#######################################################################

data_XUFMUH
_chemical_formula_moiety         'C28 H27 N5 O1 2+,2(Cl1 O4 1-),H2 O1'
_chemical_name_systematic        
'1-(9-(Ethyliminio)-10-methyl-9H-benzo(a)phenoxazin-5-yl)-2-(phenylamino)-4,5-dihydro-1H-imidazol-3-ium diperchlorate monohydrate'
_symmetry_cell_setting           triclinic
_symmetry_space_group_name_H-M   'P -1'
_symmetry_Int_Tables_number      2
_space_group_name_Hall           '-P 1'
loop_
_symmetry_equiv_pos_site_id
_symmetry_equiv_pos_as_xyz
1 x,y,z
2 -x,-y,-z
_cell_length_a                   8.4746(8)
_cell_length_b                   11.9094(11)
_cell_length_c                   16.0377(14)
_cell_angle_alpha                77.485(3)
_cell_angle_beta                 78.778(3)
_cell_angle_gamma                77.063(3)
_cell_volume                     1521.81
_exptl_crystal_colour            purple
_exptl_crystal_description       block
_cell_formula_units_Z            2
loop_
_atom_site_label
_atom_site_type_symbol
_atom_site_fract_x
_atom_site_fract_y
_atom_site_fract_z
Cl1 Cl 0.64059(12) 0.66529(8) 0.00906(6)
O2 O 0.7599(5) 0.5627(3) 0.0215(2)
O3 O 0.6422(4) 0.7378(3) 0.0677(2)
O4 O 0.4839(4) 0.6358(3) 0.0228(2)
O5 O 0.6797(3) 0.7237(2) -0.07768(16)
Cl2 Cl 0.66793(18) 1.21784(14) 0.48764(8)
O6 O 0.6105(8) 1.1082(4) 0.4888(4)
O7 O 0.6629(11) 1.2155(6) 0.5645(4)
O8 O 0.7447(11) 1.2206(8) 0.4145(5)
O9 O 0.5317(11) 1.3038(6) 0.4584(6)
O1 O 0.9600(3) 0.80585(18) 0.10094(13)
N1 N 0.9600(4) 0.6110(3) -0.1971(2)
N2 N 1.2388(5) 0.5431(3) -0.2417(2)
N3 N 1.1738(3) 0.6849(2) -0.16786(17)
N4 N 0.7441(3) 0.9982(2) 0.02349(17)
N5 N 0.7270(4) 0.9040(3) 0.37275(19)
C1 C 0.9010(4) 0.5353(3) -0.2375(2)
C2 C 0.9334(6) 0.5438(4) -0.3255(3)
H1 H 0.9926 0.5986 -0.3598
C3 C 0.8753(7) 0.4682(5) -0.3624(3)
H2 H 0.8965 0.4727 -0.4221
C4 C 0.7896(6) 0.3893(4) -0.3136(4)
H3 H 0.7512 0.3400 -0.3394
C5 C 0.7585(5) 0.3811(3) -0.2262(3)
H4 H 0.6998 0.3255 -0.1927
C6 C 0.8132(5) 0.4542(3) -0.1866(3)
H5 H 0.7912 0.4488 -0.1269
C7 C 1.1154(5) 0.6123(3) -0.2031(2)
C8 C 1.3964(5) 0.5648(4) -0.2338(3)
H6 H 1.4516 0.5987 -0.2893
H7 H 1.4663 0.4932 -0.2104
C9 C 1.3519(5) 0.6504(3) -0.1720(3)
H8 H 1.3814 0.6133 -0.1156
H9 H 1.4051 0.7174 -0.1941
C10 C 1.0707(4) 0.7691(3) -0.1198(2)
C11 C 0.9761(4) 0.8699(3) -0.1653(2)
C12 C 0.9872(5) 0.8929(3) -0.2564(2)
H10 H 1.0616 0.8438 -0.2897
C13 C 0.8867(5) 0.9888(3) -0.2946(2)
H11 H 0.8932 1.0041 -0.3544
C14 C 0.7750(5) 1.0641(3) -0.2464(2)
H12 H 0.7066 1.1278 -0.2741
C15 C 0.7651(4) 1.0449(3) -0.1582(2)
H13 H 0.6912 1.0961 -0.1264
C16 C 0.8655(4) 0.9487(3) -0.1164(2)
C17 C 0.8590(4) 0.9264(3) -0.02481(19)
C18 C 0.9608(4) 0.8300(3) 0.0135(2)
C19 C 1.0701(4) 0.7502(3) -0.0332(2)
H14 H 1.1395 0.6868 -0.0059
C20 C 0.8446(4) 0.8738(3) 0.1505(2)
C21 C 0.7378(4) 0.9702(3) 0.1085(2)
C22 C 0.6178(4) 1.0398(3) 0.1624(2)
H15 H 0.5436 1.1019 0.1373
C23 C 0.6112(4) 1.0164(3) 0.2486(2)
C24 C 0.7270(4) 0.9218(3) 0.2878(2)
C25 C 0.8425(4) 0.8482(3) 0.2366(2)
H16 H 0.9144 0.7844 0.2617
C26 C 0.4818(4) 1.0893(3) 0.3053(2)
H17 H 0.4151 1.1490 0.2696
H18 H 0.5343 1.1253 0.3376
H19 H 0.4142 1.0397 0.3444
C27 C 0.8390(5) 0.8134(4) 0.4222(2)
H20 H 0.8177 0.7369 0.4216
H21 H 0.9511 0.8160 0.3948
C28 C 0.8196(7) 0.8297(5) 0.5109(3)
H22 H 0.8941 0.7692 0.5414
H23 H 0.7092 0.8260 0.5384
H24 H 0.8426 0.9048 0.5116
H25 H 0.908(4) 0.639(3) -0.158(2)
H26 H 1.199(6) 0.509(4) -0.265(3)
H27 H 0.640(6) 0.956(4) 0.404(3)
O10 O 1.3357(8) 0.4385(6) -0.3949(4)
loop_
_geom_bond_atom_site_label_1
_geom_bond_atom_site_label_2
_geom_bond_site_symmetry_1
_geom_bond_site_symmetry_2
Cl1 O2 1_555 1_555
Cl2 O6 1_555 1_555
O1 C18 1_555 1_555
O3 Cl1 1_555 1_555
O4 Cl1 1_555 1_555
O5 Cl1 1_555 1_555
O7 Cl2 1_555 1_555
O8 Cl2 1_555 1_555
O9 Cl2 1_555 1_555
N1 C1 1_555 1_555
N2 C7 1_555 1_555
N3 C7 1_555 1_555
N4 C17 1_555 1_555
N5 C24 1_555 1_555
C1 C2 1_555 1_555
C2 H1 1_555 1_555
C3 C2 1_555 1_555
H2 C3 1_555 1_555
C4 C3 1_555 1_555
H3 C4 1_555 1_555
C5 C4 1_555 1_555
H4 C5 1_555 1_555
C6 C1 1_555 1_555
H5 C6 1_555 1_555
C7 N1 1_555 1_555
C8 N2 1_555 1_555
H6 C8 1_555 1_555
H7 C8 1_555 1_555
C9 N3 1_555 1_555
H8 C9 1_555 1_555
H9 C9 1_555 1_555
C10 N3 1_555 1_555
C11 C10 1_555 1_555
C12 C11 1_555 1_555
H10 C12 1_555 1_555
C13 C12 1_555 1_555
H11 C13 1_555 1_555
C14 C13 1_555 1_555
H12 C14 1_555 1_555
C15 C14 1_555 1_555
H13 C15 1_555 1_555
C16 C11 1_555 1_555
C17 C16 1_555 1_555
C18 C17 1_555 1_555
C19 C10 1_555 1_555
H14 C19 1_555 1_555
C20 O1 1_555 1_555
C21 N4 1_555 1_555
C22 C21 1_555 1_555
H15 C22 1_555 1_555
C23 C22 1_555 1_555
C24 C23 1_555 1_555
C25 C20 1_555 1_555
H16 C25 1_555 1_555
C26 C23 1_555 1_555
H17 C26 1_555 1_555
H18 C26 1_555 1_555
H19 C26 1_555 1_555
C27 N5 1_555 1_555
H20 C27 1_555 1_555
H21 C27 1_555 1_555
C28 C27 1_555 1_555
H22 C28 1_555 1_555
H23 C28 1_555 1_555
H24 C28 1_555 1_555
H25 N1 1_555 1_555
H26 N2 1_555 1_555
H27 N5 1_555 1_555
C5 C6 1_555 1_555
C8 C9 1_555 1_555
C15 C16 1_555 1_555
C18 C19 1_555 1_555
C20 C21 1_555 1_555
C24 C25 1_555 1_555

#END
