
#######################################################################
#
#                 Cambridge Crystallographic Data Centre
#                                CCDC 
#
#######################################################################
#
# If this CIF has been generated from an entry in the Cambridge 
# Structural Database, then it will include bibliographic, chemical, 
# crystal, experimental, refinement or atomic coordinate data resulting 
# from the CCDC's data processing and validation procedures.
#
#######################################################################

data_XUFQAR
_chemical_formula_moiety         'C20 H23 Br1 O5'
_chemical_name_systematic        
'Ethyl 4-(4-bromophenyl)-2-hydroxy-7,7-dimethyl-5-oxo-3,4,5,6,7,8-hexahydro-2H-chromene-2-carboxylate'
_symmetry_cell_setting           orthorhombic
_symmetry_space_group_name_H-M   'P 21 21 21'
_symmetry_Int_Tables_number      19
_space_group_name_Hall           'P 2ac 2ab'
loop_
_symmetry_equiv_pos_site_id
_symmetry_equiv_pos_as_xyz
1 x,y,z
2 1/2-x,-y,1/2+z
3 -x,1/2+y,1/2-z
4 1/2+x,1/2-y,-z
_cell_length_a                   10.795(2)
_cell_length_b                   12.833(3)
_cell_length_c                   13.549(3)
_cell_angle_alpha                90
_cell_angle_beta                 90
_cell_angle_gamma                90
_cell_volume                     1876.97
_exptl_crystal_colour            colorless
_exptl_crystal_description       block
_cell_formula_units_Z            4
loop_
_atom_site_label
_atom_site_type_symbol
_atom_site_fract_x
_atom_site_fract_y
_atom_site_fract_z
Br1 Br 0.41433(3) 0.53205(2) 0.94220(2)
O1 O -0.12114(19) 0.77522(15) 0.76830(15)
O2 O 0.14963(18) 1.03451(15) 0.64898(13)
O3 O 0.2932(2) 1.12240(15) 0.73811(16)
H1 H 0.242(5) 1.167(3) 0.737(3)
O4 O 0.3254(2) 0.89387(15) 0.63456(16)
O5 O 0.4075(2) 0.93219(13) 0.78232(14)
C1 C 0.1545(3) 1.00717(19) 0.8256(2)
H2 H 0.0955 1.0652 0.8361
H3 H 0.2103 1.0042 0.8835
C2 C 0.0821(3) 0.90416(19) 0.8180(2)
H4 H 0.0122 0.9093 0.8662
C3 C 0.0243(3) 0.8982(2) 0.7170(2)
C4 C -0.0790(3) 0.8285(2) 0.6995(2)
C5 C -0.1375(3) 0.8233(2) 0.5994(2)
H5 H -0.2132 0.8669 0.6000
H6 H -0.1635 0.7505 0.5870
C6 C -0.0551(3) 0.8589(2) 0.5137(2)
C7 C -0.0006(3) 0.9648(2) 0.5427(2)
H7 H 0.0616 0.9858 0.4929
H8 H -0.0675 1.0176 0.5426
C8 C 0.0590(3) 0.9630(2) 0.64203(19)
C9 C 0.2301(3) 1.0285(2) 0.7339(2)
C10 C 0.1589(3) 0.8094(2) 0.8489(2)
C11 C 0.2170(3) 0.8087(2) 0.9404(2)
H9 H 0.2053 0.8660 0.9837
C12 C 0.2913(3) 0.7268(2) 0.9703(2)
H10 H 0.3318 0.7282 1.0326
C13 C 0.3053(3) 0.6427(2) 0.9072(2)
C14 C 0.2452(3) 0.6385(2) 0.8174(2)
H11 H 0.2533 0.5791 0.7761
C15 C 0.1730(3) 0.7221(2) 0.7885(2)
H12 H 0.1322 0.7201 0.7264
C16 C 0.0492(3) 0.7808(2) 0.4940(2)
H13 H 0.0134 0.7133 0.4758
H14 H 0.0996 0.7728 0.5536
H15 H 0.1012 0.8063 0.4399
C17 C -0.1320(3) 0.8704(2) 0.4198(2)
H16 H -0.1667 0.8025 0.4015
H17 H -0.0792 0.8960 0.3663
H18 H -0.1995 0.9199 0.4315
C18 C 0.3262(3) 0.94368(19) 0.7093(2)
C19 C 0.4938(3) 0.8458(2) 0.7696(2)
H19 H 0.5453 0.8573 0.7102
H20 H 0.4475 0.7798 0.7610
C20 C 0.5745(4) 0.8393(2) 0.8594(2)
H21 H 0.6334 0.7818 0.8517
H22 H 0.5229 0.8271 0.9177
H23 H 0.6199 0.9049 0.8674
loop_
_geom_bond_atom_site_label_1
_geom_bond_atom_site_label_2
_geom_bond_site_symmetry_1
_geom_bond_site_symmetry_2
Br1 C13 1_555 1_555
O1 C4 1_555 1_555
O2 C8 1_555 1_555
O3 H1 1_555 1_555
O4 C18 1_555 1_555
O5 C18 1_555 1_555
C1 H2 1_555 1_555
H3 C1 1_555 1_555
C2 C1 1_555 1_555
H4 C2 1_555 1_555
C3 C2 1_555 1_555
C4 C3 1_555 1_555
C5 C4 1_555 1_555
H5 C5 1_555 1_555
H6 C5 1_555 1_555
C6 C5 1_555 1_555
C7 C6 1_555 1_555
H7 C7 1_555 1_555
H8 C7 1_555 1_555
C8 C3 1_555 1_555
C9 O2 1_555 1_555
C10 C2 1_555 1_555
C11 C10 1_555 1_555
H9 C11 1_555 1_555
C12 C11 1_555 1_555
H10 C12 1_555 1_555
C13 C12 1_555 1_555
C14 C13 1_555 1_555
H11 C14 1_555 1_555
C15 C10 1_555 1_555
H12 C15 1_555 1_555
C16 C6 1_555 1_555
H13 C16 1_555 1_555
H14 C16 1_555 1_555
H15 C16 1_555 1_555
C17 C6 1_555 1_555
H16 C17 1_555 1_555
H17 C17 1_555 1_555
H18 C17 1_555 1_555
C18 C9 1_555 1_555
C19 O5 1_555 1_555
H19 C19 1_555 1_555
H20 C19 1_555 1_555
C20 C19 1_555 1_555
H21 C20 1_555 1_555
H22 C20 1_555 1_555
H23 C20 1_555 1_555
O3 C9 1_555 1_555
C1 C9 1_555 1_555
C7 C8 1_555 1_555
C14 C15 1_555 1_555

#END
