
#######################################################################
#
#                 Cambridge Crystallographic Data Centre
#                                CCDC 
#
#######################################################################
#
# If this CIF has been generated from an entry in the Cambridge 
# Structural Database, then it will include bibliographic, chemical, 
# crystal, experimental, refinement or atomic coordinate data resulting 
# from the CCDC's data processing and validation procedures.
#
#######################################################################

data_XUGHOY
_chemical_formula_moiety         'C33 H35 Br1 N2 S1'
_chemical_name_systematic        
10-(5-Bromo-2-thienyl)-9-dodecyl-9H-pyreno[4,5-d]imidazole
_symmetry_cell_setting           monoclinic
_symmetry_space_group_name_H-M   'C 2/c'
_symmetry_Int_Tables_number      15
_space_group_name_Hall           '-C 2yn'
loop_
_symmetry_equiv_pos_site_id
_symmetry_equiv_pos_as_xyz
1 x,y,z
2 -x,y,1/2-z
3 1/2+x,1/2+y,z
4 1/2-x,1/2+y,1/2-z
5 -x,-y,-z
6 x,-y,1/2+z
7 1/2-x,1/2-y,-z
8 1/2+x,1/2-y,1/2+z
_cell_length_a                   61.876(6)
_cell_length_b                   4.9723(5)
_cell_length_c                   18.6046(19)
_cell_angle_alpha                90
_cell_angle_beta                 100.189(3)
_cell_angle_gamma                90
_cell_volume                     5633.73
_exptl_crystal_colour            colorless
_exptl_crystal_description       needle
_cell_formula_units_Z            8
loop_
_atom_site_label
_atom_site_type_symbol
_atom_site_fract_x
_atom_site_fract_y
_atom_site_fract_z
Br1 Br 0.095123(12) 1.63007(16) 0.39757(4)
C1 C 0.17427(7) 0.6108(9) 0.2659(2)
C2 C 0.18316(7) 0.5655(9) 0.3382(2)
C3 C 0.19991(7) 0.3698(9) 0.3601(3)
C4 C 0.20964(8) 0.3241(11) 0.4326(3)
H1 H 0.2053 0.4243 0.4699
C5 C 0.22573(8) 0.1292(12) 0.4489(3)
H2 H 0.2322 0.1002 0.4973
C6 C 0.23225(8) -0.0215(12) 0.3950(4)
H3 H 0.2429 -0.1538 0.4075
C7 C 0.22322(7) 0.0201(10) 0.3218(3)
C8 C 0.22973(9) -0.1374(11) 0.2646(4)
H4 H 0.2403 -0.2704 0.2763
C9 C 0.22088(9) -0.0961(11) 0.1954(4)
H5 H 0.2254 -0.2024 0.1597
C10 C 0.20454(8) 0.1061(10) 0.1731(3)
C11 C 0.19571(10) 0.1519(12) 0.1002(3)
H6 H 0.2005 0.0491 0.0643
C12 C 0.18015(10) 0.3451(12) 0.0804(3)
H7 H 0.1746 0.3736 0.0311
C13 C 0.17248(8) 0.5006(11) 0.1329(3)
H8 H 0.1617 0.6298 0.1184
C14 C 0.18074(7) 0.4646(9) 0.2071(2)
C15 C 0.19731(7) 0.2629(10) 0.2284(3)
C16 C 0.20662(7) 0.2182(9) 0.3030(3)
C17 C 0.15904(7) 0.8734(9) 0.3396(2)
C18 C 0.14570(8) 1.0709(10) 0.3696(3)
C19 C 0.11869(10) 1.3907(12) 0.4015(3)
C20 C 0.13365(10) 1.3317(12) 0.4583(3)
H9 H 0.1339 1.4009 0.5049
C21 C 0.14898(8) 1.1536(11) 0.4403(3)
H10 H 0.1608 1.0940 0.4745
C22 C 0.14501(7) 0.9421(10) 0.2052(2)
H11 H 0.1532 0.9544 0.1655
H12 H 0.1415 1.1234 0.2185
C23 C 0.12370(8) 0.7871(11) 0.1792(3)
H13 H 0.1272 0.6132 0.1606
H14 H 0.1164 0.7563 0.2204
C24 C 0.10833(8) 0.9352(12) 0.1203(3)
H15 H 0.1160 0.9750 0.0804
H16 H 0.1042 1.1048 0.1399
C25 C 0.08762(8) 0.7765(13) 0.0910(3)
H17 H 0.0918 0.6111 0.0694
H18 H 0.0805 0.7281 0.1315
C26 C 0.07125(9) 0.9248(14) 0.0345(4)
H19 H 0.0670 1.0891 0.0564
H20 H 0.0785 0.9757 -0.0056
C27 C 0.05090(9) 0.7701(15) 0.0042(4)
H21 H 0.0441 0.7095 0.0444
H22 H 0.0550 0.6119 -0.0207
C28 C 0.03423(10) 0.9310(16) -0.0486(4)
H23 H 0.0297 1.0849 -0.0229
H24 H 0.0413 0.9988 -0.0874
C29 C 0.01413(10) 0.7762(17) -0.0822(4)
H25 H 0.0075 0.6991 -0.0434
H26 H 0.0186 0.6289 -0.1105
C30 C -0.00306(11) 0.943(2) -0.1314(5)
H27 H -0.0079 1.0871 -0.1027
H28 H 0.0037 1.0251 -0.1693
C31 C -0.02265(12) 0.787(2) -0.1664(5)
H29 H -0.0293 0.7022 -0.1287
H30 H -0.0179 0.6453 -0.1961
C32 C -0.04004(11) 0.960(2) -0.2147(5)
H31 H -0.0444 1.1050 -0.1854
H32 H -0.0335 1.0402 -0.2533
C33 C -0.05983(12) 0.808(2) -0.2479(5)
H33 H -0.0561 0.6848 -0.2836
H34 H -0.0709 0.9309 -0.2711
H35 H -0.0654 0.7096 -0.2106
N1 N 0.15860(6) 0.8148(7) 0.26736(19)
N2 N 0.17383(6) 0.7266(8) 0.3837(2)
S1 S 0.12275(2) 1.2293(3) 0.32408(8)
loop_
_geom_bond_atom_site_label_1
_geom_bond_atom_site_label_2
_geom_bond_site_symmetry_1
_geom_bond_site_symmetry_2
Br1 C19 1_555 1_555
C1 C2 1_555 1_555
C2 C3 1_555 1_555
C3 C4 1_555 1_555
C4 H1 1_555 1_555
C5 C4 1_555 1_555
H2 C5 1_555 1_555
C6 C5 1_555 1_555
H3 C6 1_555 1_555
C7 C6 1_555 1_555
C8 C7 1_555 1_555
H4 C8 1_555 1_555
C9 C8 1_555 1_555
H5 C9 1_555 1_555
C10 C9 1_555 1_555
C11 C10 1_555 1_555
H6 C11 1_555 1_555
C12 C11 1_555 1_555
H7 C12 1_555 1_555
C13 C12 1_555 1_555
H8 C13 1_555 1_555
C14 C1 1_555 1_555
C15 C10 1_555 1_555
C16 C3 1_555 1_555
C17 C18 1_555 1_555
C18 C21 1_555 1_555
C19 C20 1_555 1_555
C20 H9 1_555 1_555
C21 C20 1_555 1_555
H10 C21 1_555 1_555
C22 H11 1_555 1_555
H12 C22 1_555 1_555
C23 C22 1_555 1_555
H13 C23 1_555 1_555
H14 C23 1_555 1_555
C24 C23 1_555 1_555
H15 C24 1_555 1_555
H16 C24 1_555 1_555
C25 C24 1_555 1_555
H17 C25 1_555 1_555
H18 C25 1_555 1_555
C26 C25 1_555 1_555
H19 C26 1_555 1_555
H20 C26 1_555 1_555
C27 C26 1_555 1_555
H21 C27 1_555 1_555
H22 C27 1_555 1_555
C28 C27 1_555 1_555
H23 C28 1_555 1_555
H24 C28 1_555 1_555
C29 C28 1_555 1_555
H25 C29 1_555 1_555
H26 C29 1_555 1_555
C30 C29 1_555 1_555
H27 C30 1_555 1_555
H28 C30 1_555 1_555
C31 C30 1_555 1_555
H29 C31 1_555 1_555
H30 C31 1_555 1_555
C32 C31 1_555 1_555
H31 C32 1_555 1_555
H32 C32 1_555 1_555
C33 C32 1_555 1_555
H33 C33 1_555 1_555
H34 C33 1_555 1_555
H35 C33 1_555 1_555
N1 C1 1_555 1_555
N2 C2 1_555 1_555
S1 C18 1_555 1_555
C7 C16 1_555 1_555
C13 C14 1_555 1_555
C14 C15 1_555 1_555
C15 C16 1_555 1_555
C17 N1 1_555 1_555
C17 N2 1_555 1_555
C19 S1 1_555 1_555
C22 N1 1_555 1_555

#END
