
#######################################################################
#
#                 Cambridge Crystallographic Data Centre
#                                CCDC 
#
#######################################################################
#
# If this CIF has been generated from an entry in the Cambridge 
# Structural Database, then it will include bibliographic, chemical, 
# crystal, experimental, refinement or atomic coordinate data resulting 
# from the CCDC's data processing and validation procedures.
#
#######################################################################

data_XUHKOC
_chemical_formula_moiety         'C36 H36 N24 O12,C18 H20 N2 O4'
_chemical_name_systematic        
'(2)-((1,6-bis(4-Carboxylatopyridinio)hexane)-(cucurbit(6)uril)) pseudorotaxane unknown solvate'
_symmetry_cell_setting           triclinic
_symmetry_space_group_name_H-M   'P -1'
_symmetry_Int_Tables_number      2
_space_group_name_Hall           '-P 1'
loop_
_symmetry_equiv_pos_site_id
_symmetry_equiv_pos_as_xyz
1 x,y,z
2 -x,-y,-z
_cell_length_a                   12.0755(7)
_cell_length_b                   12.3189(6)
_cell_length_c                   12.3197(6)
_cell_angle_alpha                106.538(4)
_cell_angle_beta                 97.085(5)
_cell_angle_gamma                107.693(5)
_cell_volume                     1628.94
_exptl_crystal_colour            colorless
_exptl_crystal_description       block
_cell_formula_units_Z            1
loop_
_atom_site_label
_atom_site_type_symbol
_atom_site_fract_x
_atom_site_fract_y
_atom_site_fract_z
O1 O 0.41547(15) 0.14049(15) 0.10027(14)
O2 O -0.28908(15) 0.11998(15) -0.15055(14)
O3 O 0.07101(15) 0.36158(16) 0.33908(15)
O4 O 0.06841(16) -0.07437(16) -0.38506(15)
O5 O -0.04754(15) 0.38686(15) 0.06676(15)
O6 O 0.30714(16) 0.17116(16) -0.15693(15)
N1 N 0.21827(18) 0.27890(18) 0.35722(17)
N2 N -0.27165(18) -0.02164(18) -0.30981(17)
N3 N 0.16059(18) 0.25067(18) -0.18861(17)
N4 N -0.13649(18) 0.16475(18) -0.24574(17)
N5 N 0.00289(18) 0.08804(18) -0.34206(17)
N6 N 0.37089(18) 0.20928(18) 0.27928(17)
N7 N -0.13146(18) -0.09883(17) -0.40564(17)
N8 N 0.22988(18) 0.39764(18) 0.25041(17)
N9 N 0.02192(18) 0.33528(18) -0.10012(17)
N10 N 0.37035(18) 0.31467(18) 0.15995(17)
N11 N 0.15243(18) 0.41896(18) 0.06983(17)
N12 N 0.29388(18) 0.33663(19) -0.01943(17)
C1 C 0.0327(2) 0.3802(2) 0.0173(2)
C2 C 0.1632(2) 0.3479(2) 0.3177(2)
C3 C -0.2369(2) 0.0914(2) -0.2271(2)
C4 C 0.3879(2) 0.2136(2) 0.1719(2)
C5 C -0.0122(2) -0.0333(2) -0.37706(19)
C6 C 0.1358(2) 0.3583(2) -0.1323(2)
H1 H 0.1461 0.4127 -0.1779
C7 C 0.3409(2) 0.3105(2) 0.3443(2)
H2 H 0.3978 0.3567 0.4196
C8 C -0.2037(2) -0.0234(2) -0.3988(2)
H3 H -0.2545 -0.0417 -0.4750
C9 C -0.1095(2) 0.1075(2) -0.3544(2)
H4 H -0.1169 0.1497 -0.4099
C10 C 0.3468(2) 0.3870(2) 0.2643(2)
H5 H 0.4105 0.4666 0.3000
C11 C 0.2583(2) 0.2449(2) -0.1252(2)
C12 C 0.2277(2) 0.4177(2) -0.0135(2)
H6 H 0.2800 0.4998 -0.0038
C13 C 0.3981(2) 0.3573(2) 0.0654(2)
H7 H 0.4443 0.4435 0.0969
H8 H 0.4474 0.3168 0.0271
C14 C 0.1974(2) 0.4763(2) 0.1942(2)
H9 H 0.1370 0.5016 0.2279
H10 H 0.2670 0.5484 0.2099
C15 C -0.1803(2) -0.2303(2) -0.4457(2)
H11 H -0.2481 -0.2588 -0.5110
H12 H -0.1203 -0.2612 -0.4734
C16 C 0.1171(2) 0.1838(2) -0.3119(2)
H13 H 0.1111 0.2398 -0.3521
H14 H 0.1750 0.1493 -0.3394
C17 C -0.3836(2) -0.1159(2) -0.3226(2)
H15 H -0.4341 -0.0795 -0.2817
H16 H -0.4237 -0.1527 -0.4044
C18 C -0.0886(2) 0.2949(2) -0.1845(2)
H17 H -0.0760 0.3359 -0.2408
H18 H -0.1471 0.3179 -0.1453
O1A O -0.41547(15) -0.14049(15) -0.10027(14)
O2A O 0.28908(15) -0.11998(15) 0.15055(14)
O3A O -0.07101(15) -0.36158(16) -0.33908(15)
O4A O -0.06841(16) 0.07437(16) 0.38506(15)
O5A O 0.04754(15) -0.38686(15) -0.06676(15)
O6A O -0.30714(16) -0.17116(16) 0.15693(15)
N1A N -0.21827(18) -0.27890(18) -0.35722(17)
N2A N 0.27165(18) 0.02164(18) 0.30981(17)
N3A N -0.16059(18) -0.25067(18) 0.18861(17)
N4A N 0.13649(18) -0.16475(18) 0.24574(17)
N5A N -0.00289(18) -0.08804(18) 0.34206(17)
N6A N -0.37089(18) -0.20928(18) -0.27928(17)
N7A N 0.13146(18) 0.09883(17) 0.40564(17)
N8A N -0.22988(18) -0.39764(18) -0.25041(17)
N9A N -0.02192(18) -0.33528(18) 0.10012(17)
N10A N -0.37035(18) -0.31467(18) -0.15995(17)
N11A N -0.15243(18) -0.41896(18) -0.06983(17)
N12A N -0.29388(18) -0.33663(19) 0.01943(17)
C1A C -0.0327(2) -0.3802(2) -0.0173(2)
C2A C -0.1632(2) -0.3479(2) -0.3177(2)
C3A C 0.2369(2) -0.0914(2) 0.2271(2)
C4A C -0.3879(2) -0.2136(2) -0.1719(2)
C5A C 0.0122(2) 0.0333(2) 0.37706(19)
C6A C -0.1358(2) -0.3583(2) 0.1323(2)
H1A H -0.1461 -0.4127 0.1779
C7A C -0.3409(2) -0.3105(2) -0.3443(2)
H2A H -0.3978 -0.3567 -0.4196
C8A C 0.2037(2) 0.0234(2) 0.3988(2)
H3A H 0.2545 0.0417 0.4750
C9A C 0.1095(2) -0.1075(2) 0.3544(2)
H4A H 0.1169 -0.1497 0.4099
C10A C -0.3468(2) -0.3870(2) -0.2643(2)
H5A H -0.4105 -0.4666 -0.3000
C11A C -0.2583(2) -0.2449(2) 0.1252(2)
C12A C -0.2277(2) -0.4177(2) 0.0135(2)
H6A H -0.2800 -0.4998 0.0038
C13A C -0.3981(2) -0.3573(2) -0.0654(2)
H7A H -0.4443 -0.4435 -0.0969
H8A H -0.4474 -0.3168 -0.0271
C14A C -0.1974(2) -0.4763(2) -0.1942(2)
H9A H -0.1370 -0.5016 -0.2279
H10A H -0.2670 -0.5484 -0.2099
C15A C 0.1803(2) 0.2303(2) 0.4457(2)
H11A H 0.2481 0.2588 0.5110
H12A H 0.1203 0.2612 0.4734
C16A C -0.1171(2) -0.1838(2) 0.3119(2)
H13A H -0.1111 -0.2398 0.3521
H14A H -0.1750 -0.1493 0.3394
C17A C 0.3836(2) 0.1159(2) 0.3226(2)
H15A H 0.4341 0.0795 0.2817
H16A H 0.4237 0.1527 0.4044
C18A C 0.0886(2) -0.2949(2) 0.1845(2)
H17A H 0.0760 -0.3359 0.2408
H18A H 0.1471 -0.3179 0.1453
O7 O 0.66455(17) 0.54730(16) 0.26399(16)
O8 O 0.64088(19) 0.49338(17) 0.42074(16)
N13 N 0.78277(18) 0.18707(18) 0.18217(17)
C19 C 0.7133(2) 0.3792(2) 0.2763(2)
C20 C 0.7343(2) 0.2340(2) 0.1122(2)
H19 H 0.7241 0.2009 0.0322
C21 C 0.6697(2) 0.4825(2) 0.3253(2)
C22 C 0.6993(2) 0.3307(2) 0.1574(2)
H20 H 0.6663 0.3633 0.1081
C23 C 0.8013(2) 0.2350(2) 0.2987(2)
H21 H 0.8380 0.2034 0.3465
C24 C 0.7663(2) 0.3303(2) 0.3469(2)
H22 H 0.7781 0.3624 0.4273
C25 C 0.8130(2) 0.0782(2) 0.1291(2)
H23 H 0.7470 0.0207 0.0652
H24 H 0.8222 0.0399 0.1867
C26 C 0.9247(2) 0.1058(2) 0.0847(2)
H25 H 0.9923 0.1584 0.1491
H26 H 0.9181 0.1479 0.0301
C27 C 0.9454(2) -0.0102(2) 0.0251(2)
H27 H 0.9534 -0.0508 0.0809
H28 H 0.8760 -0.0635 -0.0370
O7A O 1.33545(17) -0.54730(16) -0.26399(16)
O8A O 1.35912(19) -0.49338(17) -0.42074(16)
N13A N 1.21723(18) -0.18707(18) -0.18217(17)
C19A C 1.2867(2) -0.3792(2) -0.2763(2)
C20A C 1.2657(2) -0.2340(2) -0.1122(2)
H19A H 1.2759 -0.2009 -0.0322
C21A C 1.3303(2) -0.4825(2) -0.3253(2)
C22A C 1.3007(2) -0.3307(2) -0.1574(2)
H20A H 1.3337 -0.3633 -0.1081
C23A C 1.1987(2) -0.2350(2) -0.2987(2)
H21A H 1.1620 -0.2034 -0.3465
C24A C 1.2337(2) -0.3303(2) -0.3469(2)
H22A H 1.2219 -0.3624 -0.4273
C25A C 1.1870(2) -0.0782(2) -0.1291(2)
H23A H 1.2530 -0.0207 -0.0652
H24A H 1.1778 -0.0399 -0.1867
C26A C 1.0753(2) -0.1058(2) -0.0847(2)
H25A H 1.0077 -0.1584 -0.1491
H26A H 1.0819 -0.1479 -0.0301
C27A C 1.0546(2) 0.0102(2) -0.0251(2)
H27A H 1.0466 0.0508 -0.0809
H28A H 1.1240 0.0635 0.0370
loop_
_geom_bond_atom_site_label_1
_geom_bond_atom_site_label_2
_geom_bond_site_symmetry_1
_geom_bond_site_symmetry_2
O1 C4 1_555 1_555
O2 C3 1_555 1_555
O3 C2 1_555 1_555
O4 C5 1_555 1_555
O5 C1 1_555 1_555
O6 C11 1_555 1_555
N1 C2 1_555 1_555
N2 C3 1_555 1_555
N3 C6 1_555 1_555
N4 C3 1_555 1_555
N5 C5 1_555 1_555
N6 C4 1_555 1_555
N7 C5 1_555 1_555
N8 C2 1_555 1_555
N9 C1 1_555 1_555
N10 C4 1_555 1_555
N11 C1 1_555 1_555
N12 C11 1_555 1_555
C6 N9 1_555 1_555
H1 C6 1_555 1_555
C7 N1 1_555 1_555
H2 C7 1_555 1_555
C8 N2 1_555 1_555
H3 C8 1_555 1_555
C9 N4 1_555 1_555
H4 C9 1_555 1_555
C10 N8 1_555 1_555
H5 C10 1_555 1_555
C11 N3 1_555 1_555
C12 N11 1_555 1_555
H6 C12 1_555 1_555
C13 N10 1_555 1_555
H7 C13 1_555 1_555
H8 C13 1_555 1_555
C14 N8 1_555 1_555
H9 C14 1_555 1_555
H10 C14 1_555 1_555
C15 N7 1_555 1_555
H11 C15 1_555 1_555
H12 C15 1_555 1_555
C16 N3 1_555 1_555
H13 C16 1_555 1_555
H14 C16 1_555 1_555
C17 N2 1_555 1_555
H15 C17 1_555 1_555
H16 C17 1_555 1_555
C18 N4 1_555 1_555
H17 C18 1_555 1_555
H18 C18 1_555 1_555
O7 C21 1_555 1_555
O8 C21 1_555 1_555
N13 C20 1_555 1_555
C19 C21 1_555 1_555
C20 H19 1_555 1_555
C22 C19 1_555 1_555
H20 C22 1_555 1_555
C23 N13 1_555 1_555
H21 C23 1_555 1_555
C24 C19 1_555 1_555
H22 C24 1_555 1_555
C25 N13 1_555 1_555
H23 C25 1_555 1_555
H24 C25 1_555 1_555
C26 C25 1_555 1_555
H25 C26 1_555 1_555
H26 C26 1_555 1_555
C27 C26 1_555 1_555
H27 C27 1_555 1_555
H28 C27 1_555 1_555
O1A C4A 1_555 1_555
O2A C3A 1_555 1_555
O3A C2A 1_555 1_555
O4A C5A 1_555 1_555
O5A C1A 1_555 1_555
O6A C11A 1_555 1_555
N1A C15 1_555 1_555
N2A C3A 1_555 1_555
N3A C6A 1_555 1_555
N4A C3A 1_555 1_555
N5A C5A 1_555 1_555
N6A C17 1_555 1_555
N7A C5A 1_555 1_555
N8A C2A 1_555 1_555
N9A C1A 1_555 1_555
N10A C4A 1_555 1_555
N11A C1A 1_555 1_555
N12A C11A 1_555 1_555
C2A N1A 1_555 1_555
C4A N6A 1_555 1_555
C6A N9A 1_555 1_555
H1A C6A 1_555 1_555
C7A N1A 1_555 1_555
H2A C7A 1_555 1_555
C8A N2A 1_555 1_555
H3A C8A 1_555 1_555
C9A N4A 1_555 1_555
H4A C9A 1_555 1_555
C10A N8A 1_555 1_555
H5A C10A 1_555 1_555
C11A N3A 1_555 1_555
C12A N11A 1_555 1_555
H6A C12A 1_555 1_555
C13A N10A 1_555 1_555
H7A C13A 1_555 1_555
H8A C13A 1_555 1_555
C14A N8A 1_555 1_555
H9A C14A 1_555 1_555
H10A C14A 1_555 1_555
C15A N1 1_555 1_555
H11A C15A 1_555 1_555
H12A C15A 1_555 1_555
C16A N3A 1_555 1_555
H13A C16A 1_555 1_555
H14A C16A 1_555 1_555
C17A N6 1_555 1_555
H15A C17A 1_555 1_555
H16A C17A 1_555 1_555
C18A N4A 1_555 1_555
H17A C18A 1_555 1_555
H18A C18A 1_555 1_555
O7A C21A 1_555 1_555
O8A C21A 1_555 1_555
N13A C20A 1_555 1_555
C19A C21A 1_555 1_555
C20A H19A 1_555 1_555
C22A C19A 1_555 1_555
H20A C22A 1_555 1_555
C23A N13A 1_555 1_555
H21A C23A 1_555 1_555
C24A C19A 1_555 1_555
H22A C24A 1_555 1_555
C25A N13A 1_555 1_555
H23A C25A 1_555 1_555
H24A C25A 1_555 1_555
C26A C25A 1_555 1_555
H25A C26A 1_555 1_555
H26A C26A 1_555 1_555
C27A C27 1_555 1_555
H27A C27A 1_555 1_555
H28A C27A 1_555 1_555
N5 C9 1_555 1_555
N5 C16 1_555 1_555
N6 C7 1_555 1_555
N7 C8 1_555 1_555
N9 C18 1_555 1_555
N10 C10 1_555 1_555
N11 C14 1_555 1_555
N12 C12 1_555 1_555
N12 C13 1_555 1_555
C6 C12 1_555 1_555
C7 C10 1_555 1_555
C8 C9 1_555 1_555
C20 C22 1_555 1_555
C23 C24 1_555 1_555
N2A C17A 1_555 1_555
N5A C9A 1_555 1_555
N5A C16A 1_555 1_555
N6A C7A 1_555 1_555
N7A C8A 1_555 1_555
N7A C15A 1_555 1_555
N9A C18A 1_555 1_555
N10A C10A 1_555 1_555
N11A C14A 1_555 1_555
N12A C12A 1_555 1_555
N12A C13A 1_555 1_555
C6A C12A 1_555 1_555
C7A C10A 1_555 1_555
C8A C9A 1_555 1_555
C20A C22A 1_555 1_555
C23A C24A 1_555 1_555
C26A C27A 1_555 1_555

#END
