
#######################################################################
#
#                 Cambridge Crystallographic Data Centre
#                                CCDC 
#
#######################################################################
#
# If this CIF has been generated from an entry in the Cambridge 
# Structural Database, then it will include bibliographic, chemical, 
# crystal, experimental, refinement or atomic coordinate data resulting 
# from the CCDC's data processing and validation procedures.
#
#######################################################################

data_XUKFIT
_chemical_formula_moiety         'C14 H15 N1 O4 S1'
_chemical_name_systematic        
(Z)-N-(2-Methoxyphenyl)-2-(1,3-oxathiolan-2-ylidene)-3-oxobutanamide
_symmetry_cell_setting           monoclinic
_symmetry_space_group_name_H-M   'C 2/c'
_symmetry_Int_Tables_number      15
_space_group_name_Hall           '-C 2yn'
loop_
_symmetry_equiv_pos_site_id
_symmetry_equiv_pos_as_xyz
1 x,y,z
2 -x,y,1/2-z
3 1/2+x,1/2+y,z
4 1/2-x,1/2+y,1/2-z
5 -x,-y,-z
6 x,-y,1/2+z
7 1/2-x,1/2-y,-z
8 1/2+x,1/2-y,1/2+z
_cell_length_a                   15.640(5)
_cell_length_b                   8.249(5)
_cell_length_c                   23.035(5)
_cell_angle_alpha                90
_cell_angle_beta                 106.460(5)
_cell_angle_gamma                90
_cell_volume                     2850.05
_chemical_melting_point          '124-126 deg.C'
_cell_formula_units_Z            8
loop_
_atom_site_label
_atom_site_type_symbol
_atom_site_fract_x
_atom_site_fract_y
_atom_site_fract_z
C1 C 0.39541(13) -0.1065(4) 0.17738(10)
H1 H 0.4257 -0.0923 0.1469
H2 H 0.3951 -0.2194 0.1875
H3 H 0.4257 -0.0460 0.2128
C2 C 0.25270(10) -0.06068(19) 0.19241(7)
C3 C 0.27748(12) -0.1268(2) 0.25000(7)
H4 H 0.3349 -0.1670 0.2663
C4 C 0.21642(14) -0.1328(3) 0.28312(8)
H5 H 0.2329 -0.1759 0.3220
C5 C 0.13154(13) -0.0754(3) 0.25877(8)
H6 H 0.0906 -0.0815 0.2811
C6 C 0.10600(12) -0.0084(2) 0.20131(7)
H7 H 0.0484 0.0312 0.1855
C7 C 0.16625(10) -0.00048(17) 0.16744(6)
C8 C 0.07558(10) 0.14929(18) 0.07782(7)
C9 C 0.06601(9) 0.18595(17) 0.01315(6)
C10 C -0.01274(9) 0.26022(18) -0.01767(6)
C11 C -0.16890(13) 0.3709(3) -0.06182(10)
H8 H -0.2109 0.2839 -0.0775
H9 H -0.2020 0.4694 -0.0603
C12 C -0.10851(13) 0.3939(2) -0.10048(9)
H10 H -0.1388 0.3651 -0.1420
H11 H -0.0900 0.5063 -0.0995
C13 C 0.13580(10) 0.1426(2) -0.01602(7)
C14 C 0.12749(12) 0.1849(3) -0.08062(8)
H12 H 0.1793 0.1474 -0.0911
H13 H 0.1226 0.3004 -0.0857
H14 H 0.0753 0.1341 -0.1065
N1 N 0.14657(8) 0.05958(16) 0.10780(6)
O1 O 0.02107(9) 0.19995(18) 0.10262(6)
O2 O 0.30693(7) -0.05047(17) 0.15529(5)
O3 O 0.20415(7) 0.07240(17) 0.01235(5)
O4 O -0.03138(7) 0.28974(15) -0.07687(5)
S1 S -0.09768(3) 0.32020(6) 0.01256(2)
H15 H 0.1857(12) 0.037(2) 0.0883(9)
loop_
_geom_bond_atom_site_label_1
_geom_bond_atom_site_label_2
_geom_bond_site_symmetry_1
_geom_bond_site_symmetry_2
C1 H1 1_555 1_555
H2 C1 1_555 1_555
H3 C1 1_555 1_555
C2 C3 1_555 1_555
C3 H4 1_555 1_555
C4 C3 1_555 1_555
H5 C4 1_555 1_555
C5 C4 1_555 1_555
H6 C5 1_555 1_555
C6 C5 1_555 1_555
H7 C6 1_555 1_555
C7 C2 1_555 1_555
C8 C9 1_555 1_555
C9 C10 1_555 1_555
C10 O4 1_555 1_555
C11 H8 1_555 1_555
H9 C11 1_555 1_555
C12 C11 1_555 1_555
H10 C12 1_555 1_555
H11 C12 1_555 1_555
C13 C9 1_555 1_555
C14 C13 1_555 1_555
H12 C14 1_555 1_555
H13 C14 1_555 1_555
H14 C14 1_555 1_555
N1 C7 1_555 1_555
O1 C8 1_555 1_555
O2 C1 1_555 1_555
O3 C13 1_555 1_555
O4 C12 1_555 1_555
S1 C10 1_555 1_555
H15 N1 1_555 1_555
C2 O2 1_555 1_555
C6 C7 1_555 1_555
C8 N1 1_555 1_555
C11 S1 1_555 1_555

#END
