
#######################################################################
#
#                 Cambridge Crystallographic Data Centre
#                                CCDC 
#
#######################################################################
#
# If this CIF has been generated from an entry in the Cambridge 
# Structural Database, then it will include bibliographic, chemical, 
# crystal, experimental, refinement or atomic coordinate data resulting 
# from the CCDC's data processing and validation procedures.
#
#######################################################################

data_XUKXIM
_chemical_formula_moiety         'C10 H7 I2 N1 O1'
_chemical_name_systematic        
5-(diiodomethylene)-2-phenyl-4,5-dihydro-1,3-oxazole
_symmetry_cell_setting           monoclinic
_symmetry_space_group_name_H-M   'P 21/c'
_symmetry_Int_Tables_number      14
_space_group_name_Hall           '-P 2ybc'
loop_
_symmetry_equiv_pos_site_id
_symmetry_equiv_pos_as_xyz
1 x,y,z
2 -x,1/2+y,1/2-z
3 -x,-y,-z
4 x,1/2-y,1/2+z
_cell_length_a                   5.5881(2)
_cell_length_b                   18.9850(6)
_cell_length_c                   10.6706(4)
_cell_angle_alpha                90
_cell_angle_beta                 94.113(3)
_cell_angle_gamma                90
_cell_volume                     1129.13
_cell_formula_units_Z            4
loop_
_atom_site_label
_atom_site_type_symbol
_atom_site_fract_x
_atom_site_fract_y
_atom_site_fract_z
I1 I 0.4419(2) 0.59907(5) 0.47933(11)
O1 O 0.737(2) 0.7925(5) 0.6252(11)
N1 N 0.996(2) 0.7908(8) 0.4732(13)
C1 C 1.002(3) 0.8907(8) 0.6196(17)
C2 C 0.879(3) 0.9265(8) 0.7107(18)
H1 H 0.7435 0.9057 0.7409
C3 C 1.284(4) 0.9882(10) 0.622(3)
H2 H 1.4197 1.0091 0.5932
C4 C 1.208(3) 0.9227(10) 0.577(2)
H3 H 1.2941 0.8997 0.5180
C5 C 0.919(2) 0.8235(8) 0.5653(15)
C6 C 0.952(4) 0.9912(10) 0.756(2)
H4 H 0.8653 1.0136 0.8163
C7 C 0.855(3) 0.7269(8) 0.4600(16)
H5 H 0.9576 0.6858 0.4713
H6 H 0.7700 0.7246 0.3777
C8 C 0.684(3) 0.7309(7) 0.5606(16)
C9 C 0.516(3) 0.6862(7) 0.5941(14)
C10 C 1.153(4) 1.0233(9) 0.7140(19)
H7 H 1.2024 1.0672 0.7447
I2 I 0.31628(16) 0.69768(4) 0.75003(9)
loop_
_geom_bond_atom_site_label_1
_geom_bond_atom_site_label_2
_geom_bond_site_symmetry_1
_geom_bond_site_symmetry_2
I1 C9 1_555 1_555
O1 C5 1_555 1_555
N1 C5 1_555 1_555
C1 C2 1_555 1_555
C2 H1 1_555 1_555
C3 H2 1_555 1_555
C4 C1 1_555 1_555
H3 C4 1_555 1_555
C5 C1 1_555 1_555
C6 C2 1_555 1_555
H4 C6 1_555 1_555
C7 N1 1_555 1_555
H5 C7 1_555 1_555
H6 C7 1_555 1_555
C8 O1 1_555 1_555
C9 C8 1_555 1_555
C10 C3 1_555 1_555
H7 C10 1_555 1_555
I2 C9 1_555 1_555
C3 C4 1_555 1_555
C6 C10 1_555 1_555
C7 C8 1_555 1_555

#END
