
#######################################################################
#
#                 Cambridge Crystallographic Data Centre
#                                CCDC 
#
#######################################################################
#
# If this CIF has been generated from an entry in the Cambridge 
# Structural Database, then it will include bibliographic, chemical, 
# crystal, experimental, refinement or atomic coordinate data resulting 
# from the CCDC's data processing and validation procedures.
#
#######################################################################

data_XULYEK
_chemical_formula_moiety         'C24 H46 N8 6+,6(Cl1 1-),6(H2 O1)'
_chemical_name_systematic        
'6,20-Dimethyl-29,30-diaza-3,6,9,17,20,23-hexaazoniatricyclo[23.3.1.1^11,15^]triaconta-1(29),11(30),12,14,25,27-hexaene hexachloride hexahydrate'
_symmetry_cell_setting           triclinic
_symmetry_space_group_name_H-M   'P -1'
_symmetry_Int_Tables_number      2
_space_group_name_Hall           '-P 1'
loop_
_symmetry_equiv_pos_site_id
_symmetry_equiv_pos_as_xyz
1 x,y,z
2 -x,-y,-z
_cell_length_a                   6.8767(5)
_cell_length_b                   12.3829(8)
_cell_length_c                   12.4219(9)
_cell_angle_alpha                63.161(7)
_cell_angle_beta                 89.271(6)
_cell_angle_gamma                80.031(5)
_cell_volume                     926.993
_cell_formula_units_Z            1
loop_
_atom_site_label
_atom_site_type_symbol
_atom_site_fract_x
_atom_site_fract_y
_atom_site_fract_z
N1 N 0.7886(3) 0.35416(19) 0.36541(18)
H1 H 0.9337 0.3466 0.3604
H2 H 0.7493 0.2847 0.3574
N2 N 0.7788(3) 0.35777(19) 0.15105(18)
N3 N 0.8254(3) 0.12773(19) 0.18097(18)
H3 H 0.8766 0.1444 0.2450
H4 H 0.6800 0.1358 0.1842
N4 N 1.0428(3) 0.21749(19) 0.62676(18)
H5 H 1.1043 0.2691 0.5519
C1 C 0.7870(3) 0.4525(2) -0.0650(2)
H6 H 0.8076 0.4436 -0.1366
C2 C 0.8341(3) 0.2209(2) 0.5882(2)
H7 H 0.7531 0.2008 0.6588
H8 H 0.8353 0.1567 0.5613
C3 C 0.7270(3) 0.4703(2) 0.1444(2)
C4 C 0.8085(3) 0.3493(2) 0.0480(2)
C5 C 1.1652(4) 0.0897(2) 0.6784(2)
H9 H 1.3036 0.0930 0.6959
H10 H 1.1655 0.0587 0.6176
C6 C 0.7380(4) 0.3449(2) 0.4866(2)
H11 H 0.5925 0.3561 0.4907
H12 H 0.7836 0.4115 0.4969
C7 C 0.8715(4) 0.2211(2) 0.0608(2)
H13 H 0.8017 0.2138 -0.0042
H14 H 1.0155 0.2054 0.0521
C8 C 0.6886(4) 0.4726(2) 0.2631(2)
H15 H 0.7394 0.5421 0.2646
H16 H 0.5443 0.4851 0.2720
C9 C 0.7041(3) 0.5777(2) 0.0357(2)
H17 H 0.6681 0.6560 0.0341
C10 C 0.7349(4) 0.5682(2) -0.0707(2)
H18 H 0.7204 0.6401 -0.1464
C11 C 1.0868(4) 0.0006(2) 0.7944(2)
H19 H 1.1234 0.0153 0.8628
H20 H 0.9406 0.0137 0.7848
C12 C 1.0470(4) 0.2751(2) 0.7094(2)
H21 H 0.9780 0.2312 0.7815
H22 H 0.9811 0.3617 0.6674
H23 H 1.1847 0.2700 0.7336
N1A N 1.2114(3) -0.35416(19) 0.63459(18)
H1A H 1.0663 -0.3466 0.6396
H2A H 1.2507 -0.2847 0.6426
N2A N 1.2212(3) -0.35777(19) 0.84895(18)
N3A N 1.1746(3) -0.12773(19) 0.81903(18)
H3A H 1.1234 -0.1444 0.7550
H4A H 1.3200 -0.1358 0.8158
N4A N 0.9572(3) -0.21749(19) 0.37324(18)
H5A H 0.8957 -0.2691 0.4481
C1A C 1.2130(3) -0.4525(2) 1.0650(2)
H6A H 1.1924 -0.4436 1.1366
C2A C 1.1659(3) -0.2209(2) 0.4118(2)
H7A H 1.2469 -0.2008 0.3412
H8A H 1.1647 -0.1567 0.4387
C3A C 1.2730(3) -0.4703(2) 0.8556(2)
C4A C 1.1915(3) -0.3493(2) 0.9520(2)
C5A C 0.8348(4) -0.0897(2) 0.3216(2)
H9A H 0.6964 -0.0930 0.3041
H10A H 0.8345 -0.0587 0.3824
C6A C 1.2620(4) -0.3449(2) 0.5134(2)
H11A H 1.4075 -0.3561 0.5093
H12A H 1.2164 -0.4115 0.5031
C7A C 1.1285(4) -0.2211(2) 0.9392(2)
H13A H 1.1983 -0.2138 1.0042
H14A H 0.9845 -0.2054 0.9479
C8A C 1.3114(4) -0.4726(2) 0.7369(2)
H15A H 1.2606 -0.5421 0.7354
H16A H 1.4557 -0.4851 0.7280
C9A C 1.2959(3) -0.5777(2) 0.9643(2)
H17A H 1.3319 -0.6560 0.9659
C10A C 1.2651(4) -0.5682(2) 1.0707(2)
H18A H 1.2796 -0.6401 1.1464
C11A C 0.9132(4) -0.0006(2) 0.2056(2)
H19A H 0.8766 -0.0153 0.1372
H20A H 1.0594 -0.0137 0.2152
C12A C 0.9530(4) -0.2751(2) 0.2906(2)
H21A H 1.0220 -0.2312 0.2185
H22A H 1.0189 -0.3617 0.3326
H23A H 0.8153 -0.2700 0.2664
Cl1 Cl 1.15559(9) 0.10748(6) 0.37823(6)
Cl2 Cl 1.21025(9) 0.40317(6) 0.40403(6)
Cl3 Cl 0.4442(4) 0.78801(16) 0.1648(2)
O1 O 1.3838(3) -0.14637(18) 0.59801(17)
H24 H 1.334(4) -0.081(2) 0.540(2)
H25 H 1.504(2) -0.151(3) 0.596(2)
O2 O 0.4350(3) 0.1231(2) 0.1744(2)
H26 H 0.365(4) 0.114(3) 0.231(2)
H27 H 0.387(4) 0.100(3) 0.130(2)
O3 O 0.2605(3) 1.0666(2) 0.01225(19)
H28 H 0.3087(5) 0.9910(6) 0.0474(3)
H29 H 0.3424(7) 1.0963(3) -0.0378(4)
Cl4? Cl 0.4240(17) 0.8319(7) 0.1607(10)
loop_
_geom_bond_atom_site_label_1
_geom_bond_atom_site_label_2
_geom_bond_site_symmetry_1
_geom_bond_site_symmetry_2
N1 H1 1_555 1_555
H2 N1 1_555 1_555
N2 C3 1_555 1_555
N3 H3 1_555 1_555
H4 N3 1_555 1_555
N4 H5 1_555 1_555
C1 H6 1_555 1_555
C2 N4 1_555 1_555
H7 C2 1_555 1_555
H8 C2 1_555 1_555
C3 C8 1_555 1_555
C4 N2 1_555 1_555
C5 N4 1_555 1_555
H9 C5 1_555 1_555
H10 C5 1_555 1_555
C6 N1 1_555 1_555
H11 C6 1_555 1_555
H12 C6 1_555 1_555
C7 N3 1_555 1_555
H13 C7 1_555 1_555
H14 C7 1_555 1_555
C8 N1 1_555 1_555
H15 C8 1_555 1_555
H16 C8 1_555 1_555
C9 C3 1_555 1_555
H17 C9 1_555 1_555
C10 C1 1_555 1_555
H18 C10 1_555 1_555
C11 C5 1_555 1_555
H19 C11 1_555 1_555
H20 C11 1_555 1_555
C12 N4 1_555 1_555
H21 C12 1_555 1_555
H22 C12 1_555 1_555
H23 C12 1_555 1_555
O1 H24 1_555 1_555
H25 O1 1_555 1_555
O2 H26 1_555 1_555
H27 O2 1_555 1_555
O3 H28 1_555 1_555
H29 O3 1_555 1_555
N1A H1A 1_555 1_555
H2A N1A 1_555 1_555
N2A C3A 1_555 1_555
N3A C11 1_555 1_555
H3A N3A 1_555 1_555
H4A N3A 1_555 1_555
N4A H5A 1_555 1_555
C1A H6A 1_555 1_555
C2A N4A 1_555 1_555
H7A C2A 1_555 1_555
H8A C2A 1_555 1_555
C3A C8A 1_555 1_555
C4A N2A 1_555 1_555
C5A N4A 1_555 1_555
H9A C5A 1_555 1_555
H10A C5A 1_555 1_555
C6A N1A 1_555 1_555
H11A C6A 1_555 1_555
H12A C6A 1_555 1_555
C7A N3A 1_555 1_555
H13A C7A 1_555 1_555
H14A C7A 1_555 1_555
C8A N1A 1_555 1_555
H15A C8A 1_555 1_555
H16A C8A 1_555 1_555
C9A C3A 1_555 1_555
H17A C9A 1_555 1_555
C10A C1A 1_555 1_555
H18A C10A 1_555 1_555
C11A N3 1_555 1_555
H19A C11A 1_555 1_555
H20A C11A 1_555 1_555
C12A N4A 1_555 1_555
H21A C12A 1_555 1_555
H22A C12A 1_555 1_555
H23A C12A 1_555 1_555
C1 C4 1_555 1_555
C2 C6 1_555 1_555
C4 C7 1_555 1_555
C9 C10 1_555 1_555
C1A C4A 1_555 1_555
C2A C6A 1_555 1_555
C4A C7A 1_555 1_555
C5A C11A 1_555 1_555
C9A C10A 1_555 1_555

#END
