
#######################################################################
#
#                 Cambridge Crystallographic Data Centre
#                                CCDC 
#
#######################################################################
#
# If this CIF has been generated from an entry in the Cambridge 
# Structural Database, then it will include bibliographic, chemical, 
# crystal, experimental, refinement or atomic coordinate data resulting 
# from the CCDC's data processing and validation procedures.
#
#######################################################################

data_XUMGOD
_chemical_formula_moiety         'C26 H64 Mg4 N8'
_chemical_name_systematic        
tetrakis(\m~2~-Hydrido)-bis(\m~2~-1,4,7-trimethyl-1,4,7,10-tetra-azacyclododecane)-diethyl-tetra-magnesium
_symmetry_cell_setting           monoclinic
_symmetry_space_group_name_H-M   'C 2/c'
_symmetry_Int_Tables_number      15
_space_group_name_Hall           '-C 2yn'
loop_
_symmetry_equiv_pos_site_id
_symmetry_equiv_pos_as_xyz
1 x,y,z
2 -x,y,1/2-z
3 1/2+x,1/2+y,z
4 1/2-x,1/2+y,1/2-z
5 -x,-y,-z
6 x,-y,1/2+z
7 1/2-x,1/2-y,-z
8 1/2+x,1/2-y,1/2+z
_cell_length_a                   21.998(2)
_cell_length_b                   8.9108(9)
_cell_length_c                   19.3588(18)
_cell_angle_alpha                90
_cell_angle_beta                 117.7855(13)
_cell_angle_gamma                90
_cell_volume                     3357.17
_exptl_crystal_colour            colorless
_exptl_crystal_description       block
_cell_formula_units_Z            4
_chemical_properties_physical    
'Air-sensitive, Moisture-sensitive, Hygroscopic, Oxygen-sensitive'
_exptl_crystal_recrystallization_method tetrahydrofuran
loop_
_atom_site_label
_atom_site_type_symbol
_atom_site_fract_x
_atom_site_fract_y
_atom_site_fract_z
Mg1 Mg 0.93178(2) 0.56607(5) 0.24946(2)
Mg2 Mg 0.93634(2) 0.86096(5) 0.16557(2)
H1 H 1.0000 0.440(3) 0.2500
H2 H 1.0000 0.976(3) 0.2500
N1 N 0.86927(5) 0.76098(11) 0.20313(6)
N2 N 0.85154(5) 0.48585(12) 0.12134(6)
N3 N 0.88463(5) 0.34939(12) 0.27333(6)
N4 N 0.89620(5) 0.62696(12) 0.35503(6)
C1 C 0.80244(6) 0.72453(15) 0.13780(7)
H3 H 0.7775(8) 0.8171(18) 0.1078(9)
H4 H 0.7716(7) 0.6757(17) 0.1550(8)
C2 C 0.81212(7) 0.62157(15) 0.08109(7)
H5 H 0.7690(8) 0.5927(18) 0.0378(9)
H6 H 0.8385(8) 0.6738(18) 0.0588(9)
C3 C 0.80660(7) 0.37425(15) 0.13136(7)
H7 H 0.7807(8) 0.3167(18) 0.0831(9)
H8 H 0.7712(8) 0.4268(18) 0.1397(9)
C4 C 0.84837(7) 0.26823(14) 0.19823(8)
H9 H 0.8173(8) 0.1921(19) 0.2012(9)
H10 H 0.8824(8) 0.2215(18) 0.1894(9)
C5 C 0.83616(7) 0.38708(15) 0.30368(8)
H11 H 0.8230(8) 0.296(2) 0.3192(9)
H12 H 0.7975(8) 0.4345(17) 0.2621(9)
C6 C 0.86806(7) 0.49162(15) 0.37339(7)
H13 H 0.8322(8) 0.5183(19) 0.3901(9)
H14 H 0.9054(8) 0.4390(19) 0.4164(9)
C7 C 0.84146(6) 0.73831(14) 0.31353(7)
H15 H 0.8349(8) 0.7912(19) 0.3522(9)
H16 H 0.8004(7) 0.6843(16) 0.2812(8)
C8 C 0.86029(6) 0.84207(14) 0.26349(7)
H17 H 0.8235(9) 0.9196(19) 0.2406(9)
H18 H 0.9027(8) 0.8940(18) 0.2984(9)
C9 C 0.88232(8) 0.41942(17) 0.07541(8)
H19 H 0.8476(9) 0.3976(19) 0.0238(10)
H20 H 0.9073(9) 0.329(2) 0.0986(10)
H21 H 0.9145(9) 0.491(2) 0.0736(9)
C10 C 0.94000(7) 0.25262(15) 0.33011(8)
H22 H 0.9242(9) 0.167(2) 0.3433(10)
H23 H 0.9668(8) 0.3082(19) 0.3791(9)
H24 H 0.9692(8) 0.2208(18) 0.3066(9)
C11 C 0.94963(7) 0.69375(17) 0.42724(8)
H25 H 0.9664(8) 0.7839(19) 0.4153(9)
H26 H 0.9846(8) 0.6272(18) 0.4494(9)
H27 H 0.9328(8) 0.7211(19) 0.4639(9)
C12 C 0.89424(8) 0.98360(16) 0.05628(8)
H28 H 0.8503(11) 1.027(2) 0.0484(11)
H29 H 0.9252(11) 1.064(2) 0.0660(11)
C13 C 0.88277(8) 0.90811(17) -0.01999(8)
H30 H 0.9275(11) 0.877(2) -0.0174(12)
H31 H 0.8599(9) 0.969(2) -0.0685(10)
H32 H 0.8549(10) 0.815(3) -0.0314(12)
H33 H 0.9853(8) 0.6841(18) 0.1754(9)
Mg1A Mg 1.06822(2) 0.56607(5) 0.25054(2)
Mg2A Mg 1.06366(2) 0.86096(5) 0.33443(2)
N1A N 1.13073(5) 0.76098(11) 0.29687(6)
N2A N 1.14846(5) 0.48585(12) 0.37866(6)
N3A N 1.11537(5) 0.34939(12) 0.22667(6)
N4A N 1.10380(5) 0.62696(12) 0.14497(6)
C1A C 1.19756(6) 0.72453(15) 0.36220(7)
H3A H 1.2225(8) 0.8171(18) 0.3922(9)
H4A H 1.2284(7) 0.6757(17) 0.3450(8)
C2A C 1.18788(7) 0.62157(15) 0.41891(7)
H5A H 1.2310(8) 0.5927(18) 0.4622(9)
H6A H 1.1615(8) 0.6738(18) 0.4412(9)
C3A C 1.19340(7) 0.37425(15) 0.36864(7)
H7A H 1.2193(8) 0.3167(18) 0.4169(9)
H8A H 1.2288(8) 0.4268(18) 0.3603(9)
C4A C 1.15163(7) 0.26823(14) 0.30177(8)
H9A H 1.1827(8) 0.1921(19) 0.2988(9)
H10A H 1.1176(8) 0.2215(18) 0.3106(9)
C5A C 1.16384(7) 0.38708(15) 0.19632(8)
H11A H 1.1770(8) 0.296(2) 0.1808(9)
H12A H 1.2025(8) 0.4345(17) 0.2379(9)
C6A C 1.13194(7) 0.49162(15) 0.12661(7)
H13A H 1.1678(8) 0.5183(19) 0.1099(9)
H14A H 1.0946(8) 0.4390(19) 0.0836(9)
C7A C 1.15854(6) 0.73831(14) 0.18647(7)
H15A H 1.1651(8) 0.7912(19) 0.1478(9)
H16A H 1.1996(7) 0.6843(16) 0.2188(8)
C8A C 1.13971(6) 0.84207(14) 0.23651(7)
H17A H 1.1765(9) 0.9196(19) 0.2594(9)
H18A H 1.0973(8) 0.8940(18) 0.2016(9)
C9A C 1.11768(8) 0.41942(17) 0.42459(8)
H19A H 1.1524(9) 0.3976(19) 0.4762(10)
H20A H 1.0927(9) 0.329(2) 0.4014(10)
H21A H 1.0855(9) 0.491(2) 0.4264(9)
C10A C 1.06000(7) 0.25262(15) 0.16989(8)
H22A H 1.0758(9) 0.167(2) 0.1567(10)
H23A H 1.0332(8) 0.3082(19) 0.1209(9)
H24A H 1.0308(8) 0.2208(18) 0.1934(9)
C11A C 1.05037(7) 0.69375(17) 0.07276(8)
H25A H 1.0336(8) 0.7839(19) 0.0847(9)
H26A H 1.0154(8) 0.6272(18) 0.0506(9)
H27A H 1.0672(8) 0.7211(19) 0.0361(9)
C12A C 1.10576(8) 0.98360(16) 0.44372(8)
H28A H 1.1497(11) 1.027(2) 0.4516(11)
H29A H 1.0748(11) 1.064(2) 0.4340(11)
C13A C 1.11723(8) 0.90811(17) 0.51999(8)
H30A H 1.0725(11) 0.877(2) 0.5174(12)
H31A H 1.1401(9) 0.969(2) 0.5685(10)
H32A H 1.1451(10) 0.815(3) 0.5314(12)
H33A H 1.0147(8) 0.6841(18) 0.3246(9)
loop_
_geom_bond_atom_site_label_1
_geom_bond_atom_site_label_2
_geom_bond_site_symmetry_1
_geom_bond_site_symmetry_2
Mg1 H1 1_555 1_555
Mg2 H2 1_555 1_555
H1 Mg1A 1_555 1_555
H2 Mg2A 1_555 1_555
N1 Mg1 1_555 1_555
N2 Mg1 1_555 1_555
N3 Mg1 1_555 1_555
N4 C6 1_555 1_555
C1 N1 1_555 1_555
H3 C1 1_555 1_555
H4 C1 1_555 1_555
C2 N2 1_555 1_555
H5 C2 1_555 1_555
H6 C2 1_555 1_555
C3 N2 1_555 1_555
H7 C3 1_555 1_555
H8 C3 1_555 1_555
C4 N3 1_555 1_555
H9 C4 1_555 1_555
H10 C4 1_555 1_555
C5 N3 1_555 1_555
H11 C5 1_555 1_555
H12 C5 1_555 1_555
C6 C5 1_555 1_555
H13 C6 1_555 1_555
H14 C6 1_555 1_555
C7 N4 1_555 1_555
H15 C7 1_555 1_555
H16 C7 1_555 1_555
C8 N1 1_555 1_555
H17 C8 1_555 1_555
H18 C8 1_555 1_555
C9 N2 1_555 1_555
H19 C9 1_555 1_555
H20 C9 1_555 1_555
H21 C9 1_555 1_555
C10 N3 1_555 1_555
H22 C10 1_555 1_555
H23 C10 1_555 1_555
H24 C10 1_555 1_555
C11 N4 1_555 1_555
H25 C11 1_555 1_555
H26 C11 1_555 1_555
H27 C11 1_555 1_555
C12 Mg2 1_555 1_555
H28 C12 1_555 1_555
H29 C12 1_555 1_555
C13 C12 1_555 1_555
H30 C13 1_555 1_555
H31 C13 1_555 1_555
H32 C13 1_555 1_555
H33 Mg2 1_555 1_555
Mg1A H33 1_555 1_555
Mg2A N1A 1_555 1_555
N1A Mg1A 1_555 1_555
N2A Mg1A 1_555 1_555
N3A Mg1A 1_555 1_555
N4A C6A 1_555 1_555
C1A N1A 1_555 1_555
H3A C1A 1_555 1_555
H4A C1A 1_555 1_555
C2A N2A 1_555 1_555
H5A C2A 1_555 1_555
H6A C2A 1_555 1_555
C3A N2A 1_555 1_555
H7A C3A 1_555 1_555
H8A C3A 1_555 1_555
C4A N3A 1_555 1_555
H9A C4A 1_555 1_555
H10A C4A 1_555 1_555
C5A N3A 1_555 1_555
H11A C5A 1_555 1_555
H12A C5A 1_555 1_555
C6A C5A 1_555 1_555
H13A C6A 1_555 1_555
H14A C6A 1_555 1_555
C7A N4A 1_555 1_555
H15A C7A 1_555 1_555
H16A C7A 1_555 1_555
C8A N1A 1_555 1_555
H17A C8A 1_555 1_555
H18A C8A 1_555 1_555
C9A N2A 1_555 1_555
H19A C9A 1_555 1_555
H20A C9A 1_555 1_555
H21A C9A 1_555 1_555
C10A N3A 1_555 1_555
H22A C10A 1_555 1_555
H23A C10A 1_555 1_555
H24A C10A 1_555 1_555
C11A N4A 1_555 1_555
H25A C11A 1_555 1_555
H26A C11A 1_555 1_555
H27A C11A 1_555 1_555
C12A Mg2A 1_555 1_555
H28A C12A 1_555 1_555
H29A C12A 1_555 1_555
C13A C12A 1_555 1_555
H30A C13A 1_555 1_555
H31A C13A 1_555 1_555
H32A C13A 1_555 1_555
H33A Mg1 1_555 1_555
Mg2 N1 1_555 1_555
C1 C2 1_555 1_555
C3 C4 1_555 1_555
C7 C8 1_555 1_555
Mg2A H33A 1_555 1_555
C1A C2A 1_555 1_555
C3A C4A 1_555 1_555
C7A C8A 1_555 1_555

#END
