
#######################################################################
#
#                 Cambridge Crystallographic Data Centre
#                                CCDC 
#
#######################################################################
#
# If this CIF has been generated from an entry in the Cambridge 
# Structural Database, then it will include bibliographic, chemical, 
# crystal, experimental, refinement or atomic coordinate data resulting 
# from the CCDC's data processing and validation procedures.
#
#######################################################################

data_XUMLUO
_chemical_name_common            'Isorubialatin A'
_chemical_formula_moiety         'C27 H20 O8'
_chemical_name_systematic        
"Methyl 2'-hydroxy-5,5-dimethyl-9',12',19'-trioxo-5H,10'H-spiro[furan-2,21'-[20]oxahexacyclo[9.8.1.1^2,10^.0^1,11^.0^3,8^.0^13,18^]henicosa[3,5,7,13,15,17]hexaene]-10'-carboxylate"
_symmetry_cell_setting           monoclinic
_symmetry_space_group_name_H-M   'I 2/a'
_symmetry_Int_Tables_number      15
_space_group_name_Hall           '-I 2ya'
loop_
_symmetry_equiv_pos_site_id
_symmetry_equiv_pos_as_xyz
1 x,y,z
2 1/2-x,y,-z
3 1/2+x,1/2+y,1/2+z
4 -x,1/2+y,1/2-z
5 -x,-y,-z
6 1/2+x,-y,z
7 1/2-x,1/2-y,1/2-z
8 x,1/2-y,1/2+z
_cell_length_a                   26.0622(9)
_cell_length_b                   7.3945(2)
_cell_length_c                   22.8031(9)
_cell_angle_alpha                90
_cell_angle_beta                 96.326(4)
_cell_angle_gamma                90
_cell_volume                     4367.79
_cell_formula_units_Z            8
loop_
_atom_site_label
_atom_site_type_symbol
_atom_site_fract_x
_atom_site_fract_y
_atom_site_fract_z
C1 C 0.90606(6) 0.6777(2) 0.62417(7)
C2 C 0.88777(6) 0.7739(2) 0.67726(7)
C3 C 0.85317(6) 0.9316(2) 0.65297(7)
C4 C 0.80412(6) 0.8777(2) 0.61679(7)
C5 C 0.77226(7) 1.0119(2) 0.58935(8)
H1 H 0.7834 1.1344 0.5907
C6 C 0.72459(7) 0.9669(2) 0.56026(8)
H2 H 0.7027 1.0584 0.5421
C7 C 0.70888(7) 0.7879(2) 0.55766(8)
H3 H 0.6760 0.7577 0.5378
C8 C 0.74036(6) 0.6521(2) 0.58361(8)
H4 H 0.7293 0.5296 0.5810
C9 C 0.78790(6) 0.6954(2) 0.61335(7)
C10 C 0.82360(6) 0.5514(2) 0.64268(7)
C11 C 0.86802(6) 0.5364(2) 0.60401(7)
C12 C 0.86206(7) 0.4754(2) 0.54073(8)
C13 C 0.90306(7) 0.5357(2) 0.50441(8)
C14 C 0.90505(8) 0.4577(3) 0.44902(8)
H5 H 0.8816 0.3639 0.4360
C15 C 0.94103(8) 0.5162(3) 0.41289(9)
H6 H 0.9423 0.4620 0.3753
C16 C 0.97514(8) 0.6535(3) 0.43138(9)
H7 H 0.9999 0.6927 0.4065
C17 C 0.97345(7) 0.7338(3) 0.48585(8)
H8 H 0.9968 0.8287 0.4981
C18 C 0.93751(7) 0.6758(2) 0.52291(8)
C19 C 0.93534(6) 0.7713(2) 0.58017(8)
C20 C 0.85016(6) 0.6315(2) 0.70189(7)
C21 C 0.81388(6) 0.7091(2) 0.74212(8)
H9 H 0.7915 0.8088 0.7328
C22 C 0.81767(7) 0.6191(2) 0.79189(8)
H10 H 0.7979 0.6446 0.8235
C23 C 0.85695(7) 0.4714(2) 0.79297(8)
C24 C 0.83332(8) 0.2835(3) 0.79530(9)
H11 H 0.8046 0.2720 0.7639
H12 H 0.8206 0.2656 0.8337
H13 H 0.8596 0.1922 0.7897
C25 C 0.90129(8) 0.4968(3) 0.84141(8)
H14 H 0.9276 0.4043 0.8376
H15 H 0.8884 0.4854 0.8800
H16 H 0.9164 0.6171 0.8379
C26 C 0.92892(6) 0.8276(2) 0.72613(8)
C27 C 1.01504(7) 0.7817(3) 0.76671(9)
H17 H 1.0183 0.9106 0.7764
H18 H 1.0479 0.7367 0.7554
H19 H 1.0061 0.7147 0.8012
O1 O 0.91784(4) 0.48922(15) 0.63349(5)
O2 O 0.95420(6) 0.91941(18) 0.59052(6)
O3 O 0.82608(5) 0.38071(18) 0.52140(6)
O4 O 0.86462(5) 1.08830(16) 0.66376(6)
O5 O 0.79661(4) 0.39256(15) 0.65079(5)
H20 H 0.8176 0.3099 0.6619
O6 O 0.87747(4) 0.49516(15) 0.73595(5)
O7 O 0.92001(5) 0.91341(17) 0.76839(6)
O8 O 0.97465(4) 0.75645(16) 0.71786(5)
loop_
_geom_bond_atom_site_label_1
_geom_bond_atom_site_label_2
_geom_bond_site_symmetry_1
_geom_bond_site_symmetry_2
C1 C2 1_555 1_555
C2 C3 1_555 1_555
C3 C4 1_555 1_555
C4 C5 1_555 1_555
C5 H1 1_555 1_555
C6 C5 1_555 1_555
H2 C6 1_555 1_555
C7 C6 1_555 1_555
H3 C7 1_555 1_555
C8 C7 1_555 1_555
H4 C8 1_555 1_555
C9 C4 1_555 1_555
C10 C9 1_555 1_555
C11 C1 1_555 1_555
C12 C11 1_555 1_555
C13 C12 1_555 1_555
C14 C13 1_555 1_555
H5 C14 1_555 1_555
C15 C14 1_555 1_555
H6 C15 1_555 1_555
C16 C15 1_555 1_555
H7 C16 1_555 1_555
C17 C16 1_555 1_555
H8 C17 1_555 1_555
C18 C13 1_555 1_555
C19 C1 1_555 1_555
C20 C2 1_555 1_555
C21 C20 1_555 1_555
H9 C21 1_555 1_555
C22 C21 1_555 1_555
H10 C22 1_555 1_555
C23 C22 1_555 1_555
C24 C23 1_555 1_555
H11 C24 1_555 1_555
H12 C24 1_555 1_555
H13 C24 1_555 1_555
C25 C23 1_555 1_555
H14 C25 1_555 1_555
H15 C25 1_555 1_555
H16 C25 1_555 1_555
C26 C2 1_555 1_555
C27 H17 1_555 1_555
H18 C27 1_555 1_555
H19 C27 1_555 1_555
O1 C1 1_555 1_555
O2 C19 1_555 1_555
O3 C12 1_555 1_555
O4 C3 1_555 1_555
O5 C10 1_555 1_555
H20 O5 1_555 1_555
O6 C20 1_555 1_555
O7 C26 1_555 1_555
O8 C26 1_555 1_555
C8 C9 1_555 1_555
C10 C11 1_555 1_555
C10 C20 1_555 1_555
C11 O1 1_555 1_555
C17 C18 1_555 1_555
C18 C19 1_555 1_555
C23 O6 1_555 1_555
C27 O8 1_555 1_555

#END
