
#######################################################################
#
#                 Cambridge Crystallographic Data Centre
#                                CCDC 
#
#######################################################################
#
# If this CIF has been generated from an entry in the Cambridge 
# Structural Database, then it will include bibliographic, chemical, 
# crystal, experimental, refinement or atomic coordinate data resulting 
# from the CCDC's data processing and validation procedures.
#
#######################################################################

data_XUMPEA
_chemical_formula_moiety         'C21 H18 F6 O4 S2'
_chemical_name_systematic        
1,2-bis(2-Methyl-5-(2-(1,3-dioxolane))thiophen-3-yl)perfluorocyclopentene
_symmetry_cell_setting           monoclinic
_symmetry_space_group_name_H-M   'P 21/c'
_symmetry_Int_Tables_number      14
_space_group_name_Hall           '-P 2ybc'
loop_
_symmetry_equiv_pos_site_id
_symmetry_equiv_pos_as_xyz
1 x,y,z
2 -x,1/2+y,1/2-z
3 -x,-y,-z
4 x,1/2-y,1/2+z
_cell_length_a                   8.7409(13)
_cell_length_b                   8.8215(10)
_cell_length_c                   28.547(4)
_cell_angle_alpha                90
_cell_angle_beta                 94.967(13)
_cell_angle_gamma                90
_cell_volume                     2192.93
_exptl_crystal_colour            colorless
_exptl_crystal_description       prism
_chemical_melting_point          343K
_cell_formula_units_Z            4
_chemical_properties_physical    light-sensitive
_exptl_crystal_recrystallization_method chloroform
_exptl_crystal_preparation       photochromic
loop_
_atom_site_label
_atom_site_type_symbol
_atom_site_fract_x
_atom_site_fract_y
_atom_site_fract_z
S1 S 1.33644(13) 0.65418(12) 0.12043(4)
S2 S 0.73497(14) 0.59635(12) 0.20001(4)
F1 F 1.0400(3) 0.2021(3) 0.02705(8)
F2 F 1.2250(3) 0.1221(3) 0.07505(10)
F3 F 0.8726(4) -0.0034(4) 0.05384(9)
F4 F 1.0567(4) -0.0802(3) 0.10312(11)
F5 F 0.9241(3) 0.0286(3) 0.16911(8)
F6 F 0.7379(3) 0.1003(3) 0.12006(9)
O1 O 0.7108(4) 0.5839(3) 0.30362(11)
O2 O 0.5653(3) 0.3790(3) 0.27993(10)
O3 O 1.3264(4) 0.6680(4) -0.01699(11)
O4 O 1.4648(4) 0.8005(4) 0.04064(12)
C1 C 0.9470(4) 0.2706(4) 0.13397(12)
C2 C 1.0543(4) 0.3005(4) 0.10453(12)
C3 C 1.0774(5) 0.1685(5) 0.07309(13)
C4 C 0.9741(5) 0.0415(5) 0.08875(15)
C5 C 0.8935(5) 0.1110(4) 0.12905(14)
C6 C 0.8175(5) 0.5132(4) 0.15398(13)
C7 C 0.8753(4) 0.3731(4) 0.16651(12)
C8 C 0.8501(5) 0.3343(4) 0.21390(13)
H1 H 0.8817 0.2431 0.2280
C9 C 0.7758(5) 0.4437(4) 0.23604(13)
C10 C 0.7175(5) 0.4374(5) 0.28381(13)
H2 H 0.7842 0.3722 0.3045
C11 C 0.5616(6) 0.6106(6) 0.3176(2)
H3 H 0.5107 0.6903 0.2987
H4 H 0.5665 0.6402 0.3504
C12 C 0.4778(5) 0.4639(5) 0.31013(16)
H5 H 0.4713 0.4114 0.3397
H6 H 0.3747 0.4808 0.2957
C13 C 0.8144(6) 0.5950(5) 0.10764(14)
H7 H 0.8635 0.5338 0.0855
H8 H 0.8679 0.6897 0.1119
H9 H 0.7099 0.6138 0.0959
C14 C 1.2295(4) 0.5046(4) 0.13846(13)
C15 C 1.1506(4) 0.4358(4) 0.10101(12)
C16 C 1.1762(4) 0.5085(4) 0.05733(13)
H10 H 1.1314 0.4761 0.0283
C17 C 1.2725(4) 0.6292(4) 0.06269(13)
C18 C 1.3189(5) 0.7400(5) 0.02683(14)
H11 H 1.2436 0.8224 0.0235
C19 C 1.4665(5) 0.7098(8) -0.03453(18)
H12 H 1.4486 0.7826 -0.0599
H13 H 1.5170 0.6216 -0.0464
C20 C 1.5628(7) 0.7784(9) 0.00570(19)
H14 H 1.6460 0.7107 0.0165
H15 H 1.6061 0.8740 -0.0035
C21 C 1.2374(6) 0.4670(5) 0.19001(14)
H16 H 1.1728 0.3813 0.1947
H17 H 1.2030 0.5525 0.2071
H18 H 1.3414 0.4433 0.2011
loop_
_geom_bond_atom_site_label_1
_geom_bond_atom_site_label_2
_geom_bond_site_symmetry_1
_geom_bond_site_symmetry_2
S1 C14 1_555 1_555
S2 C6 1_555 1_555
F1 C3 1_555 1_555
F2 C3 1_555 1_555
F3 C4 1_555 1_555
F4 C4 1_555 1_555
F5 C5 1_555 1_555
F6 C5 1_555 1_555
O1 C10 1_555 1_555
O2 C10 1_555 1_555
O3 C18 1_555 1_555
O4 C18 1_555 1_555
C1 C2 1_555 1_555
C2 C3 1_555 1_555
C3 C4 1_555 1_555
C4 C5 1_555 1_555
C5 C1 1_555 1_555
C6 C7 1_555 1_555
C7 C1 1_555 1_555
C8 C7 1_555 1_555
H1 C8 1_555 1_555
C9 S2 1_555 1_555
C10 C9 1_555 1_555
H2 C10 1_555 1_555
C11 O1 1_555 1_555
H3 C11 1_555 1_555
H4 C11 1_555 1_555
C12 O2 1_555 1_555
H5 C12 1_555 1_555
H6 C12 1_555 1_555
C13 C6 1_555 1_555
H7 C13 1_555 1_555
H8 C13 1_555 1_555
H9 C13 1_555 1_555
C14 C15 1_555 1_555
C15 C2 1_555 1_555
C16 C15 1_555 1_555
H10 C16 1_555 1_555
C17 S1 1_555 1_555
C18 C17 1_555 1_555
H11 C18 1_555 1_555
C19 O3 1_555 1_555
H12 C19 1_555 1_555
H13 C19 1_555 1_555
C20 O4 1_555 1_555
H14 C20 1_555 1_555
H15 C20 1_555 1_555
C21 C14 1_555 1_555
H16 C21 1_555 1_555
H17 C21 1_555 1_555
H18 C21 1_555 1_555
C8 C9 1_555 1_555
C11 C12 1_555 1_555
C16 C17 1_555 1_555
C19 C20 1_555 1_555

#END
