
#######################################################################
#
#                 Cambridge Crystallographic Data Centre
#                                CCDC 
#
#######################################################################
#
# If this CIF has been generated from an entry in the Cambridge 
# Structural Database, then it will include bibliographic, chemical, 
# crystal, experimental, refinement or atomic coordinate data resulting 
# from the CCDC's data processing and validation procedures.
#
#######################################################################

data_XUNLEX
_chemical_formula_moiety         'C88 H112 O8,4(C5 H5 N1)'
_chemical_name_systematic        
'p-t-Butylcalix(8)arene tetrakis(pyridine) clathrate'
_symmetry_cell_setting           monoclinic
_symmetry_space_group_name_H-M   'P 21/c'
_symmetry_Int_Tables_number      14
_space_group_name_Hall           '-P 2ybc'
loop_
_symmetry_equiv_pos_site_id
_symmetry_equiv_pos_as_xyz
1 x,y,z
2 x,1/2-y,1/2+z
3 -x,-y,-z
4 -x,1/2+y,1/2-z
_cell_length_a                   19.617(4)
_cell_length_b                   9.912(2)
_cell_length_c                   25.178(5)
_cell_angle_alpha                90
_cell_angle_beta                 101.03(3)
_cell_angle_gamma                90
_cell_volume                     4805.27
_exptl_crystal_colour            'light brown'
_exptl_crystal_description       prism
_cell_formula_units_Z            2
loop_
_atom_site_label
_atom_site_type_symbol
_atom_site_fract_x
_atom_site_fract_y
_atom_site_fract_z
O1 O 0.12134(18) 0.5074(3) 0.40838(15)
H1 H 0.0850 0.4696 0.4111
O2 O -0.00271(18) 0.3911(4) 0.41922(15)
H2 H 0.0343 0.4248 0.4156
O3 O -0.13947(17) 0.2392(4) 0.45609(16)
H3 H -0.1482 0.2365 0.4866
O4 O -0.16147(18) 0.2311(4) 0.56493(15)
H4 H -0.1453 0.3065 0.5726
C1 C 0.1637(3) 0.4178(6) 0.3874(2)
C2 C 0.2090(3) 0.4727(5) 0.3574(2)
C3 C 0.2518(3) 0.3854(6) 0.3357(2)
H5 H 0.2825 0.4215 0.3156
C4 C 0.2508(3) 0.2470(6) 0.3427(2)
C5 C 0.2063(3) 0.1976(6) 0.3746(2)
H6 H 0.2060 0.1054 0.3814
C6 C 0.1617(3) 0.2805(5) 0.3969(2)
C7 C 0.1116(3) 0.2186(6) 0.4284(2)
H7 H 0.1317 0.1366 0.4457
H8 H 0.1044 0.2808 0.4565
C8 C 0.0430(2) 0.1862(5) 0.3930(2)
C9 C 0.0355(3) 0.0715(5) 0.3613(2)
H9 H 0.0730 0.0127 0.3641
C10 C -0.0251(3) 0.0400(5) 0.3256(2)
C11 C -0.0807(3) 0.1269(6) 0.3243(2)
H10 H -0.1225 0.1068 0.3014
C12 C -0.0766(2) 0.2442(5) 0.3561(2)
C13 C -0.0141(2) 0.2734(5) 0.3889(2)
C14 C -0.1404(3) 0.3321(5) 0.3518(2)
H11 H -0.1533 0.3656 0.3151
H12 H -0.1293 0.4093 0.3756
C15 C -0.2017(2) 0.2586(5) 0.3665(2)
C16 C -0.2623(3) 0.2378(6) 0.3294(2)
H13 H -0.2656 0.2726 0.2947
C17 C -0.3187(3) 0.1676(6) 0.3414(2)
C18 C -0.3111(3) 0.1139(5) 0.3928(2)
H14 H -0.3472 0.0626 0.4014
C19 C -0.2520(3) 0.1333(5) 0.4321(2)
C20 C -0.1985(3) 0.2105(5) 0.4189(2)
C21 C -0.2467(3) 0.0680(5) 0.4870(2)
H15 H -0.1983 0.0483 0.5016
H16 H -0.2717 -0.0171 0.4826
C22 C -0.2758(3) 0.1552(5) 0.5276(2)
C23 C -0.3461(3) 0.1615(6) 0.5256(2)
H17 H -0.3752 0.1105 0.4997
C24 C -0.3757(3) 0.2416(6) 0.5610(2)
C25 C -0.3300(3) 0.3073(5) 0.6006(2)
H18 H -0.3480 0.3575 0.6259
C26 C -0.2582(3) 0.3031(5) 0.6051(2)
C27 C -0.2315(3) 0.2316(5) 0.5663(2)
C28 C 0.2121(3) 0.6228(5) 0.3491(2)
H19 H 0.2288 0.6399 0.3159
H20 H 0.1654 0.6592 0.3447
C29 C 0.2965(4) 0.1541(7) 0.3172(3)
C30 C 0.2852(7) 0.0118(9) 0.3258(6)
H21 H 0.2384 -0.0118 0.3095
H22 H 0.2928 -0.0064 0.3639
H23 H 0.3170 -0.0405 0.3096
C31 C 0.2889(9) 0.1793(13) 0.2590(5)
H24 H 0.2418 0.1615 0.2415
H25 H 0.3197 0.1211 0.2443
H26 H 0.3001 0.2717 0.2532
C32 C 0.3712(5) 0.1814(17) 0.3432(8)
H27 H 0.3770 0.1698 0.3816
H28 H 0.3831 0.2722 0.3353
H29 H 0.4009 0.1196 0.3291
C33 C -0.0295(3) -0.0839(6) 0.2880(2)
C34 C 0.0229(7) -0.1848(11) 0.3084(5)
H30 H 0.0192 -0.2092 0.3447
H31 H 0.0683 -0.1485 0.3084
H32 H 0.0157 -0.2633 0.2857
C35 C -0.0212(8) -0.0441(10) 0.2338(4)
H33 H -0.0565 0.0201 0.2193
H34 H -0.0253 -0.1221 0.2108
H35 H 0.0237 -0.0039 0.2355
C36 C -0.0995(6) -0.1526(12) 0.2802(5)
H36 H -0.1356 -0.0869 0.2700
H37 H -0.1049 -0.1952 0.3134
H38 H -0.1025 -0.2195 0.2523
C37 C -0.3858(3) 0.1522(8) 0.3003(3)
C38 C -0.4336(7) 0.059(2) 0.3160(6)
H39 H -0.4440 0.0854 0.3503
H40 H -0.4135 -0.0298 0.3191
H41 H -0.4756 0.0578 0.2892
C39 C -0.3739(7) 0.113(3) 0.2486(5)
H42 H -0.3437 0.1775 0.2364
H43 H -0.4173 0.1102 0.2235
H44 H -0.3526 0.0257 0.2511
C40 C -0.4197(9) 0.2757(14) 0.2893(11)
H45 H -0.4293 0.3132 0.3223
H46 H -0.4626 0.2622 0.2642
H47 H -0.3907 0.3365 0.2740
C41 C -0.4539(3) 0.2522(7) 0.5553(3)
C42 C -0.4748(4) 0.3733(10) 0.5848(4)
H48 H -0.4591 0.4540 0.5699
H49 H -0.4543 0.3670 0.6225
H50 H -0.5245 0.3757 0.5807
C43 C -0.4808(4) 0.1259(10) 0.5774(5)
H51 H -0.5304 0.1314 0.5734
H52 H -0.4603 0.1168 0.6150
H53 H -0.4689 0.0490 0.5579
C44 C -0.4868(4) 0.2722(11) 0.4959(4)
H54 H -0.4703 0.3551 0.4832
H55 H -0.5364 0.2760 0.4922
H56 H -0.4744 0.1983 0.4751
C28B C -0.2121(3) 0.3772(5) 0.6509(2)
C2B C -0.2090(3) 0.5273(5) 0.6426(2)
C1B C -0.1637(3) 0.5822(6) 0.6126(2)
O1B O -0.12134(18) 0.4926(3) 0.59162(15)
H1B H -0.0850 0.5304 0.5889
C6B C -0.1617(3) 0.7195(5) 0.6031(2)
C5B C -0.2063(3) 0.8024(6) 0.6254(2)
C4B C -0.2508(3) 0.7530(6) 0.6573(2)
C3B C -0.2518(3) 0.6146(6) 0.6643(2)
H5B H -0.2825 0.5785 0.6844
C29B C -0.2965(4) 0.8459(7) 0.6828(3)
C30B C -0.2852(7) 0.9882(9) 0.6742(6)
H21B H -0.2384 1.0118 0.6905
H22B H -0.2928 1.0064 0.6361
H23B H -0.3170 1.0405 0.6904
C31B C -0.2889(9) 0.8207(13) 0.7410(5)
H24B H -0.2418 0.8385 0.7585
H25B H -0.3197 0.8789 0.7557
H26B H -0.3001 0.7283 0.7468
C32B C -0.3712(5) 0.8186(17) 0.6568(8)
H27B H -0.3770 0.8302 0.6184
H28B H -0.3831 0.7278 0.6647
H29B H -0.4009 0.8804 0.6709
H6B H -0.2060 0.8946 0.6186
C7B C -0.1116(3) 0.7814(6) 0.5716(2)
H7B H -0.1317 0.8634 0.5543
H8B H -0.1044 0.7192 0.5435
C8B C -0.0430(2) 0.8138(5) 0.6070(2)
C9B C -0.0355(3) 0.9285(5) 0.6387(2)
H9B H -0.0730 0.9873 0.6359
C10B C 0.0251(3) 0.9600(5) 0.6744(2)
C11B C 0.0807(3) 0.8731(6) 0.6757(2)
H10B H 0.1225 0.8932 0.6986
C12B C 0.0766(2) 0.7558(5) 0.6439(2)
C13B C 0.0141(2) 0.7266(5) 0.6111(2)
O2B O 0.00271(18) 0.6089(4) 0.58078(15)
H2B H -0.0343 0.5752 0.5844
C14B C 0.1404(3) 0.6679(5) 0.6482(2)
H11B H 0.1533 0.6344 0.6849
H12B H 0.1293 0.5907 0.6244
C15B C 0.2017(2) 0.7414(5) 0.6335(2)
C16B C 0.2623(3) 0.7622(6) 0.6706(2)
H13B H 0.2656 0.7274 0.7053
C17B C 0.3187(3) 0.8324(6) 0.6586(2)
C18B C 0.3111(3) 0.8861(5) 0.6072(2)
H14B H 0.3472 0.9374 0.5986
C19B C 0.2520(3) 0.8667(5) 0.5679(2)
C20B C 0.1985(3) 0.7895(5) 0.5811(2)
O3B O 0.13947(17) 0.7608(4) 0.54391(16)
H3B H 0.1482 0.7635 0.5134
C21B C 0.2467(3) 0.9320(5) 0.5130(2)
H15B H 0.1983 0.9517 0.4984
H16B H 0.2717 1.0171 0.5174
C22B C 0.2758(3) 0.8448(5) 0.4724(2)
C23B C 0.3461(3) 0.8385(6) 0.4744(2)
H17B H 0.3752 0.8895 0.5003
C24B C 0.3757(3) 0.7584(6) 0.4390(2)
C25B C 0.3300(3) 0.6927(5) 0.3994(2)
H18B H 0.3480 0.6425 0.3741
C26B C 0.2582(3) 0.6969(5) 0.3949(2)
C27B C 0.2315(3) 0.7684(5) 0.4337(2)
O4B O 0.16147(18) 0.7689(4) 0.43507(15)
H4B H 0.1453 0.6935 0.4274
C41B C 0.4539(3) 0.7478(7) 0.4447(3)
C42B C 0.4748(4) 0.6267(10) 0.4152(4)
H48B H 0.4591 0.5460 0.4301
H49B H 0.4543 0.6330 0.3775
H50B H 0.5245 0.6243 0.4193
C43B C 0.4808(4) 0.8741(10) 0.4226(5)
H51B H 0.5304 0.8686 0.4266
H52B H 0.4603 0.8832 0.3850
H53B H 0.4689 0.9510 0.4421
C44B C 0.4868(4) 0.7278(11) 0.5041(4)
H54B H 0.4703 0.6449 0.5168
H55B H 0.5364 0.7240 0.5078
H56B H 0.4744 0.8017 0.5249
C37B C 0.3858(3) 0.8478(8) 0.6997(3)
C38B C 0.4336(7) 0.941(2) 0.6840(6)
H39B H 0.4440 0.9146 0.6497
H40B H 0.4135 1.0298 0.6809
H41B H 0.4756 0.9422 0.7108
C39B C 0.3739(7) 0.887(3) 0.7514(5)
H42B H 0.3437 0.8225 0.7636
H43B H 0.4173 0.8898 0.7765
H44B H 0.3526 0.9743 0.7489
C40B C 0.4197(9) 0.7243(14) 0.7107(11)
H45B H 0.4293 0.6868 0.6777
H46B H 0.4626 0.7378 0.7358
H47B H 0.3907 0.6635 0.7260
C33B C 0.0295(3) 1.0839(6) 0.7120(2)
C34B C -0.0229(7) 1.1848(11) 0.6916(5)
H30B H -0.0192 1.2092 0.6553
H31B H -0.0683 1.1485 0.6916
H32B H -0.0157 1.2633 0.7143
C35B C 0.0212(8) 1.0441(10) 0.7662(4)
H33B H 0.0565 0.9799 0.7807
H34B H 0.0253 1.1221 0.7892
H35B H -0.0237 1.0039 0.7645
C36B C 0.0995(6) 1.1526(12) 0.7198(5)
H36B H 0.1356 1.0869 0.7300
H37B H 0.1049 1.1952 0.6866
H38B H 0.1025 1.2195 0.7477
H19B H -0.2288 0.3601 0.6841
H20B H -0.1654 0.3408 0.6553
C45 C 0.1347(3) 0.3182(7) 0.5806(3)
H57 H 0.1737 0.3703 0.5936
C46 C 0.1423(4) 0.1801(8) 0.5785(3)
H58 H 0.1856 0.1404 0.5895
C47 C 0.0857(4) 0.1034(7) 0.5601(3)
H59 H 0.0892 0.0098 0.5595
C48 C 0.0233(4) 0.1654(6) 0.5426(3)
H60 H -0.0162 0.1149 0.5292
C49 C 0.0197(3) 0.3034(7) 0.5450(3)
H61 H -0.0228 0.3450 0.5321
N1 N 0.0739(3) 0.3805(5) 0.5648(2)
C50 C -0.3280(5) -0.4379(15) 0.3938(6)
H62 H -0.3334 -0.4772 0.3597
C51 C -0.3174(6) -0.5106(11) 0.4351(8)
H63 H -0.3157 -0.6038 0.4312
C52 C -0.3085(5) -0.458(2) 0.4841(6)
H64 H -0.2988 -0.5102 0.5153
C53 C -0.3149(5) -0.3120(18) 0.4854(6)
H65 H -0.3112 -0.2695 0.5188
C54 C -0.3253(4) -0.2420(8) 0.4439(5)
H66 H -0.3283 -0.1485 0.4460
N2 N -0.3317(4) -0.3002(13) 0.3985(5)
loop_
_geom_bond_atom_site_label_1
_geom_bond_atom_site_label_2
_geom_bond_site_symmetry_1
_geom_bond_site_symmetry_2
O1 H1 1_555 1_555
O2 H2 1_555 1_555
O3 H3 1_555 1_555
O4 H4 1_555 1_555
C1 O1 1_555 1_555
C2 C1 1_555 1_555
C3 C2 1_555 1_555
H5 C3 1_555 1_555
C4 C3 1_555 1_555
C5 C4 1_555 1_555
H6 C5 1_555 1_555
C6 C1 1_555 1_555
C7 C6 1_555 1_555
H7 C7 1_555 1_555
H8 C7 1_555 1_555
C8 C7 1_555 1_555
C9 C8 1_555 1_555
H9 C9 1_555 1_555
C10 C9 1_555 1_555
C11 C10 1_555 1_555
H10 C11 1_555 1_555
C12 C11 1_555 1_555
C13 O2 1_555 1_555
C14 C12 1_555 1_555
H11 C14 1_555 1_555
H12 C14 1_555 1_555
C15 C14 1_555 1_555
C16 C15 1_555 1_555
H13 C16 1_555 1_555
C17 C16 1_555 1_555
C18 C17 1_555 1_555
H14 C18 1_555 1_555
C19 C18 1_555 1_555
C20 O3 1_555 1_555
C21 C19 1_555 1_555
H15 C21 1_555 1_555
H16 C21 1_555 1_555
C22 C21 1_555 1_555
C23 C22 1_555 1_555
H17 C23 1_555 1_555
C24 C23 1_555 1_555
C25 C24 1_555 1_555
H18 C25 1_555 1_555
C26 C25 1_555 1_555
C27 O4 1_555 1_555
C28 C2 1_555 1_555
H19 C28 1_555 1_555
H20 C28 1_555 1_555
C29 C4 1_555 1_555
C30 C29 1_555 1_555
H21 C30 1_555 1_555
H22 C30 1_555 1_555
H23 C30 1_555 1_555
C31 C29 1_555 1_555
H24 C31 1_555 1_555
H25 C31 1_555 1_555
H26 C31 1_555 1_555
C32 C29 1_555 1_555
H27 C32 1_555 1_555
H28 C32 1_555 1_555
H29 C32 1_555 1_555
C33 C10 1_555 1_555
C34 C33 1_555 1_555
H30 C34 1_555 1_555
H31 C34 1_555 1_555
H32 C34 1_555 1_555
C35 C33 1_555 1_555
H33 C35 1_555 1_555
H34 C35 1_555 1_555
H35 C35 1_555 1_555
C36 C33 1_555 1_555
H36 C36 1_555 1_555
H37 C36 1_555 1_555
H38 C36 1_555 1_555
C37 C17 1_555 1_555
C38 C37 1_555 1_555
H39 C38 1_555 1_555
H40 C38 1_555 1_555
H41 C38 1_555 1_555
C39 C37 1_555 1_555
H42 C39 1_555 1_555
H43 C39 1_555 1_555
H44 C39 1_555 1_555
C40 C37 1_555 1_555
H45 C40 1_555 1_555
H46 C40 1_555 1_555
H47 C40 1_555 1_555
C41 C24 1_555 1_555
C42 C41 1_555 1_555
H48 C42 1_555 1_555
H49 C42 1_555 1_555
H50 C42 1_555 1_555
C43 C41 1_555 1_555
H51 C43 1_555 1_555
H52 C43 1_555 1_555
H53 C43 1_555 1_555
C44 C41 1_555 1_555
H54 C44 1_555 1_555
H55 C44 1_555 1_555
H56 C44 1_555 1_555
C45 H57 1_555 1_555
C46 C45 1_555 1_555
H58 C46 1_555 1_555
C47 C46 1_555 1_555
H59 C47 1_555 1_555
C48 C47 1_555 1_555
H60 C48 1_555 1_555
C49 C48 1_555 1_555
H61 C49 1_555 1_555
C50 H62 1_555 1_555
C51 C50 1_555 1_555
H63 C51 1_555 1_555
C52 C51 1_555 1_555
H64 C52 1_555 1_555
C53 C52 1_555 1_555
H65 C53 1_555 1_555
C54 C53 1_555 1_555
H66 C54 1_555 1_555
N1 C45 1_555 1_555
N2 C50 1_555 1_555
C28B C26 1_555 1_555
C2B C28B 1_555 1_555
C1B C2B 1_555 1_555
O1B C1B 1_555 1_555
H1B O1B 1_555 1_555
C6B C1B 1_555 1_555
C5B C6B 1_555 1_555
C4B C5B 1_555 1_555
C3B C2B 1_555 1_555
H5B C3B 1_555 1_555
C29B C4B 1_555 1_555
C30B C29B 1_555 1_555
H21B C30B 1_555 1_555
H22B C30B 1_555 1_555
H23B C30B 1_555 1_555
C31B C29B 1_555 1_555
H24B C31B 1_555 1_555
H25B C31B 1_555 1_555
H26B C31B 1_555 1_555
C32B C29B 1_555 1_555
H27B C32B 1_555 1_555
H28B C32B 1_555 1_555
H29B C32B 1_555 1_555
H6B C5B 1_555 1_555
C7B C6B 1_555 1_555
H7B C7B 1_555 1_555
H8B C7B 1_555 1_555
C8B C7B 1_555 1_555
C9B C8B 1_555 1_555
H9B C9B 1_555 1_555
C10B C9B 1_555 1_555
C11B C10B 1_555 1_555
H10B C11B 1_555 1_555
C12B C11B 1_555 1_555
C13B C8B 1_555 1_555
O2B C13B 1_555 1_555
H2B O2B 1_555 1_555
C14B C12B 1_555 1_555
H11B C14B 1_555 1_555
H12B C14B 1_555 1_555
C15B C14B 1_555 1_555
C16B C15B 1_555 1_555
H13B C16B 1_555 1_555
C17B C16B 1_555 1_555
C18B C17B 1_555 1_555
H14B C18B 1_555 1_555
C19B C18B 1_555 1_555
C20B C15B 1_555 1_555
O3B C20B 1_555 1_555
H3B O3B 1_555 1_555
C21B C19B 1_555 1_555
H15B C21B 1_555 1_555
H16B C21B 1_555 1_555
C22B C21B 1_555 1_555
C23B C22B 1_555 1_555
H17B C23B 1_555 1_555
C24B C23B 1_555 1_555
C25B C24B 1_555 1_555
H18B C25B 1_555 1_555
C26B C28 1_555 1_555
C27B C22B 1_555 1_555
O4B C27B 1_555 1_555
H4B O4B 1_555 1_555
C41B C24B 1_555 1_555
C42B C41B 1_555 1_555
H48B C42B 1_555 1_555
H49B C42B 1_555 1_555
H50B C42B 1_555 1_555
C43B C41B 1_555 1_555
H51B C43B 1_555 1_555
H52B C43B 1_555 1_555
H53B C43B 1_555 1_555
C44B C41B 1_555 1_555
H54B C44B 1_555 1_555
H55B C44B 1_555 1_555
H56B C44B 1_555 1_555
C37B C17B 1_555 1_555
C38B C37B 1_555 1_555
H39B C38B 1_555 1_555
H40B C38B 1_555 1_555
H41B C38B 1_555 1_555
C39B C37B 1_555 1_555
H42B C39B 1_555 1_555
H43B C39B 1_555 1_555
H44B C39B 1_555 1_555
C40B C37B 1_555 1_555
H45B C40B 1_555 1_555
H46B C40B 1_555 1_555
H47B C40B 1_555 1_555
C33B C10B 1_555 1_555
C34B C33B 1_555 1_555
H30B C34B 1_555 1_555
H31B C34B 1_555 1_555
H32B C34B 1_555 1_555
C35B C33B 1_555 1_555
H33B C35B 1_555 1_555
H34B C35B 1_555 1_555
H35B C35B 1_555 1_555
C36B C33B 1_555 1_555
H36B C36B 1_555 1_555
H37B C36B 1_555 1_555
H38B C36B 1_555 1_555
H19B C28B 1_555 1_555
H20B C28B 1_555 1_555
C5 C6 1_555 1_555
C8 C13 1_555 1_555
C12 C13 1_555 1_555
C15 C20 1_555 1_555
C19 C20 1_555 1_555
C22 C27 1_555 1_555
C26 C27 1_555 1_555
C49 N1 1_555 1_555
C54 N2 1_555 1_555
C4B C3B 1_555 1_555
C12B C13B 1_555 1_555
C19B C20B 1_555 1_555
C25B C26B 1_555 1_555
C26B C27B 1_555 1_555

#END
