
#######################################################################
#
#                 Cambridge Crystallographic Data Centre
#                                CCDC 
#
#######################################################################
#
# If this CIF has been generated from an entry in the Cambridge 
# Structural Database, then it will include bibliographic, chemical, 
# crystal, experimental, refinement or atomic coordinate data resulting 
# from the CCDC's data processing and validation procedures.
#
#######################################################################

data_XUNZEM
_chemical_formula_moiety         'C5 H14 N2 2+,2(C2 Cl3 O2 1-)'
_chemical_name_systematic        '2-Methylpiperazinediium bis(trichloroacetate)'
_symmetry_cell_setting           monoclinic
_symmetry_space_group_name_H-M   'P 21'
_symmetry_Int_Tables_number      4
_space_group_name_Hall           'P 2yb'
loop_
_symmetry_equiv_pos_site_id
_symmetry_equiv_pos_as_xyz
1 x,y,z
2 -x,1/2+y,-z
_cell_length_a                   6.337(4)
_cell_length_b                   19.790(5)
_cell_length_c                   6.947(5)
_cell_angle_alpha                90
_cell_angle_beta                 95.21(3)
_cell_angle_gamma                90
_cell_volume                     867.619
_cell_formula_units_Z            2
loop_
_atom_site_label
_atom_site_type_symbol
_atom_site_fract_x
_atom_site_fract_y
_atom_site_fract_z
Cl1 Cl 0.48148(18) 0.67437(8) 0.25321(18)
Cl2 Cl 0.8500(3) 0.64205(9) 0.0619(2)
Cl3 Cl 0.8256(3) 0.60174(9) 0.4576(3)
O1 O 1.0493(5) 0.7439(2) 0.3215(5)
O2 O 0.7676(5) 0.7663(2) 0.4807(5)
C1 C 0.8699(7) 0.7334(3) 0.3700(7)
C2 C 0.7620(7) 0.6664(2) 0.2852(7)
Cl4 Cl 0.6401(3) 0.99711(9) 0.3815(3)
Cl5 Cl 1.0125(2) 0.96113(9) 0.2061(3)
Cl6 Cl 0.6596(4) 1.01614(10) -0.0279(3)
O3 O 0.4570(5) 0.8815(2) 0.1689(5)
C3 C 0.6364(7) 0.8918(3) 0.1157(7)
O4 O 0.7412(5) 0.8560(2) 0.0146(5)
C4 C 0.7350(8) 0.9632(3) 0.1704(8)
N1 N 0.1359(6) 0.8444(2) 0.8958(6)
H1 H 0.2437 0.8569 0.9817
H2 H 0.0139 0.8541 0.9466
C5 C 0.1475(8) 0.7704(3) 0.8615(7)
H3 H 0.0267 0.7564 0.7749
H4 H 0.1414 0.7466 0.9830
N2 N 0.3605(6) 0.7917(2) 0.5897(5)
H5 H 0.4825 0.7822 0.5385
H6 H 0.2529 0.7789 0.5040
C6 C 0.3473(8) 0.8655(3) 0.6209(7)
H7 H 0.3480 0.8887 0.4980
H8 H 0.4700 0.8804 0.7037
C7 C 0.3512(7) 0.7516(3) 0.7738(6)
H9 H 0.4730 0.7634 0.8647
C8 C 0.1469(8) 0.8833(3) 0.7136(8)
H10 H 0.1455 0.9314 0.7415
H11 H 0.0240 0.8731 0.6248
C9 C 0.3564(8) 0.6771(3) 0.7312(8)
H12 H 0.3439 0.6521 0.8481
H13 H 0.4879 0.6659 0.6803
H14 H 0.2406 0.6657 0.6380
loop_
_geom_bond_atom_site_label_1
_geom_bond_atom_site_label_2
_geom_bond_site_symmetry_1
_geom_bond_site_symmetry_2
Cl1 C2 1_555 1_555
Cl2 C2 1_555 1_555
Cl3 C2 1_555 1_555
O1 C1 1_555 1_555
O2 C1 1_555 1_555
C1 C2 1_555 1_555
Cl4 C4 1_555 1_555
Cl5 C4 1_555 1_555
Cl6 C4 1_555 1_555
O3 C3 1_555 1_555
C3 O4 1_555 1_555
C4 C3 1_555 1_555
N1 H1 1_555 1_555
H2 N1 1_555 1_555
C5 N1 1_555 1_555
H3 C5 1_555 1_555
H4 C5 1_555 1_555
N2 H5 1_555 1_555
H6 N2 1_555 1_555
C6 N2 1_555 1_555
H7 C6 1_555 1_555
H8 C6 1_555 1_555
C7 C5 1_555 1_555
H9 C7 1_555 1_555
C8 N1 1_555 1_555
H10 C8 1_555 1_555
H11 C8 1_555 1_555
C9 C7 1_555 1_555
H12 C9 1_555 1_555
H13 C9 1_555 1_555
H14 C9 1_555 1_555
N2 C7 1_555 1_555
C6 C8 1_555 1_555

#END
