
#######################################################################
#
#                 Cambridge Crystallographic Data Centre
#                                CCDC 
#
#######################################################################
#
# If this CIF has been generated from an entry in the Cambridge 
# Structural Database, then it will include bibliographic, chemical, 
# crystal, experimental, refinement or atomic coordinate data resulting 
# from the CCDC's data processing and validation procedures.
#
#######################################################################

data_XUPKID
_chemical_formula_moiety         'C17 H12 Cl1 N1 O4'
_chemical_name_systematic        
(R)-6-Chloro-4-(nitromethyl)-2-phenyl-4H-chromene-3-carbaldehyde
_symmetry_cell_setting           orthorhombic
_symmetry_space_group_name_H-M   'P 21 21 21'
_symmetry_Int_Tables_number      19
_space_group_name_Hall           'P 2ac 2ab'
loop_
_symmetry_equiv_pos_site_id
_symmetry_equiv_pos_as_xyz
1 x,y,z
2 1/2-x,-y,1/2+z
3 -x,1/2+y,1/2-z
4 1/2+x,1/2-y,-z
_cell_length_a                   7.6122(2)
_cell_length_b                   13.6405(4)
_cell_length_c                   14.2489(4)
_cell_angle_alpha                90
_cell_angle_beta                 90
_cell_angle_gamma                90
_cell_volume                     1479.52
_exptl_crystal_colour            colorless
_exptl_crystal_description       needle
_cell_formula_units_Z            4
loop_
_atom_site_label
_atom_site_type_symbol
_atom_site_fract_x
_atom_site_fract_y
_atom_site_fract_z
Cl1 Cl -0.03443(5) 0.99760(3) 0.92917(3)
N1 N 0.37269(17) 0.65583(9) 0.78416(9)
O1 O 0.53597(13) 0.87940(7) 0.67792(6)
O2 O 0.4654(2) 0.63826(15) 0.71748(9)
O3 O 0.21518(19) 0.64805(13) 0.78355(14)
O4 O 0.86601(15) 0.72633(9) 0.91715(7)
C1 C 0.40034(16) 0.90194(9) 0.73935(8)
C2 C 0.27085(17) 0.96366(10) 0.70452(9)
H1 H 0.2754 0.9857 0.6413
C3 C 0.13562(17) 0.99266(10) 0.76260(10)
H2 H 0.0455 1.0347 0.7400
C4 C 0.13329(17) 0.95939(9) 0.85493(9)
C5 C 0.25925(17) 0.89590(9) 0.88881(9)
H3 H 0.2530 0.8728 0.9516
C6 C 0.39626(16) 0.86567(9) 0.83018(8)
C7 C 0.53400(16) 0.79385(9) 0.86243(8)
H4 H 0.5722 0.8150 0.9264
C8 C 0.69304(16) 0.79904(9) 0.79993(8)
C9 C 0.68474(16) 0.83721(9) 0.71228(8)
C10 C 0.45826(19) 0.68950(10) 0.87230(9)
H5 H 0.5541 0.6436 0.8889
H6 H 0.3712 0.6886 0.9239
C11 C 0.85889(17) 0.76599(10) 0.84024(9)
H7 H 0.9644 0.7755 0.8058
C12 C 0.82525(16) 0.84150(9) 0.64082(8)
C13 C 0.94069(18) 0.76387(10) 0.62578(9)
H8 H 0.9311 0.7060 0.6625
C14 C 1.0700(2) 0.77095(11) 0.55718(11)
H9 H 1.1508 0.7187 0.5483
C15 C 1.0812(2) 0.85433(12) 0.50158(11)
H10 H 1.1687 0.8587 0.4542
C16 C 0.9655(2) 0.93072(11) 0.51521(10)
H11 H 0.9729 0.9875 0.4768
C17 C 0.83835(18) 0.92521(10) 0.58462(9)
H12 H 0.7599 0.9785 0.5940
loop_
_geom_bond_atom_site_label_1
_geom_bond_atom_site_label_2
_geom_bond_site_symmetry_1
_geom_bond_site_symmetry_2
Cl1 C4 1_555 1_555
N1 O2 1_555 1_555
O1 C1 1_555 1_555
O3 N1 1_555 1_555
O4 C11 1_555 1_555
C1 C2 1_555 1_555
C2 H1 1_555 1_555
C3 C2 1_555 1_555
H2 C3 1_555 1_555
C4 C3 1_555 1_555
C5 C4 1_555 1_555
H3 C5 1_555 1_555
C6 C1 1_555 1_555
C7 C6 1_555 1_555
H4 C7 1_555 1_555
C8 C7 1_555 1_555
C9 O1 1_555 1_555
C10 N1 1_555 1_555
H5 C10 1_555 1_555
H6 C10 1_555 1_555
C11 C8 1_555 1_555
H7 C11 1_555 1_555
C12 C9 1_555 1_555
C13 C12 1_555 1_555
H8 C13 1_555 1_555
C14 C13 1_555 1_555
H9 C14 1_555 1_555
C15 C14 1_555 1_555
H10 C15 1_555 1_555
C16 C15 1_555 1_555
H11 C16 1_555 1_555
C17 C12 1_555 1_555
H12 C17 1_555 1_555
C5 C6 1_555 1_555
C7 C10 1_555 1_555
C8 C9 1_555 1_555
C16 C17 1_555 1_555

#END
