
#######################################################################
#
#                 Cambridge Crystallographic Data Centre
#                                CCDC 
#
#######################################################################
#
# If this CIF has been generated from an entry in the Cambridge 
# Structural Database, then it will include bibliographic, chemical, 
# crystal, experimental, refinement or atomic coordinate data resulting 
# from the CCDC's data processing and validation procedures.
#
#######################################################################

data_XUPNUT
_chemical_formula_moiety         'C18 H20 N1 O2 P1'
_chemical_name_systematic        
't-Butyl(1-phenyl-1H-indol-2-yl)phosphinic acid'
_symmetry_cell_setting           triclinic
_symmetry_space_group_name_H-M   'P -1'
_symmetry_Int_Tables_number      2
_space_group_name_Hall           '-P 1'
loop_
_symmetry_equiv_pos_site_id
_symmetry_equiv_pos_as_xyz
1 x,y,z
2 -x,-y,-z
_cell_length_a                   9.4916(8)
_cell_length_b                   9.9475(8)
_cell_length_c                   10.6719(8)
_cell_angle_alpha                67.278(7)
_cell_angle_beta                 87.525(6)
_cell_angle_gamma                62.600(8)
_cell_volume                     813.931
_exptl_crystal_colour            yellow
_exptl_crystal_description       parallelepiped
_cell_formula_units_Z            2
loop_
_atom_site_label
_atom_site_type_symbol
_atom_site_fract_x
_atom_site_fract_y
_atom_site_fract_z
P1 P 0.02419(7) 0.15567(6) 0.31711(5)
O1 O -0.1306(2) 0.2268(2) 0.37989(18)
H1 H -0.1148 0.1637 0.4635
O2 O 0.12694(19) -0.02896(18) 0.38641(16)
N1 N 0.2808(2) 0.2367(2) 0.29774(17)
C1 C 0.1257(3) 0.2670(2) 0.3248(2)
C2 C 0.0531(3) 0.4116(3) 0.3447(2)
H2 H -0.0529 0.4610 0.3641
C3 C 0.1624(3) 0.4740(2) 0.3313(2)
C4 C 0.1576(3) 0.6133(3) 0.3420(2)
H3 H 0.0626 0.6918 0.3590
C5 C 0.2914(3) 0.6334(3) 0.3277(3)
H4 H 0.2887 0.7268 0.3348
C6 C 0.4333(3) 0.5182(3) 0.3024(3)
H5 H 0.5248 0.5347 0.2939
C7 C 0.4417(3) 0.3818(3) 0.2899(2)
H6 H 0.5374 0.3040 0.2731
C8 C 0.3053(3) 0.3623(2) 0.3027(2)
C9 C 0.4036(2) 0.0988(2) 0.2748(2)
C10 C 0.4688(3) 0.1291(3) 0.1554(2)
H7 H 0.4321 0.2400 0.0894
C11 C 0.5879(3) -0.0026(3) 0.1319(2)
H8 H 0.6336 0.0182 0.0502
C12 C 0.6402(3) -0.1640(3) 0.2274(3)
H9 H 0.7211 -0.2542 0.2109
C13 C 0.5752(3) -0.1943(3) 0.3466(2)
H10 H 0.6112 -0.3055 0.4118
C14 C 0.4566(3) -0.0627(3) 0.3724(2)
H11 H 0.4130 -0.0833 0.4553
C15 C -0.0500(3) 0.2211(3) 0.1384(2)
C16 C -0.1682(3) 0.4088(3) 0.0734(2)
H12 H -0.2079 0.4432 -0.0230
H13 H -0.1131 0.4697 0.0779
H14 H -0.2590 0.4330 0.1239
C17 C 0.0898(3) 0.1804(3) 0.0584(2)
H15 H 0.0481 0.2165 -0.0379
H16 H 0.1627 0.0602 0.0990
H17 H 0.1483 0.2384 0.0626
C18 C -0.1358(3) 0.1241(3) 0.1355(3)
H18 H -0.1775 0.1573 0.0399
H19 H -0.2252 0.1483 0.1875
H20 H -0.0597 0.0047 0.1771
loop_
_geom_bond_atom_site_label_1
_geom_bond_atom_site_label_2
_geom_bond_site_symmetry_1
_geom_bond_site_symmetry_2
P1 O1 1_555 1_555
O1 H1 1_555 1_555
O2 P1 1_555 1_555
N1 C1 1_555 1_555
C1 P1 1_555 1_555
C2 C1 1_555 1_555
H2 C2 1_555 1_555
C3 C2 1_555 1_555
C4 C3 1_555 1_555
H3 C4 1_555 1_555
C5 C4 1_555 1_555
H4 C5 1_555 1_555
C6 C5 1_555 1_555
H5 C6 1_555 1_555
C7 C6 1_555 1_555
H6 C7 1_555 1_555
C8 N1 1_555 1_555
C9 N1 1_555 1_555
C10 C9 1_555 1_555
H7 C10 1_555 1_555
C11 C10 1_555 1_555
H8 C11 1_555 1_555
C12 C11 1_555 1_555
H9 C12 1_555 1_555
C13 C12 1_555 1_555
H10 C13 1_555 1_555
C14 C9 1_555 1_555
H11 C14 1_555 1_555
C15 P1 1_555 1_555
C16 C15 1_555 1_555
H12 C16 1_555 1_555
H13 C16 1_555 1_555
H14 C16 1_555 1_555
C17 C15 1_555 1_555
H15 C17 1_555 1_555
H16 C17 1_555 1_555
H17 C17 1_555 1_555
C18 C15 1_555 1_555
H18 C18 1_555 1_555
H19 C18 1_555 1_555
H20 C18 1_555 1_555
C3 C8 1_555 1_555
C7 C8 1_555 1_555
C13 C14 1_555 1_555

#END
