
#######################################################################
#
#                 Cambridge Crystallographic Data Centre
#                                CCDC 
#
#######################################################################
#
# If this CIF has been generated from an entry in the Cambridge 
# Structural Database, then it will include bibliographic, chemical, 
# crystal, experimental, refinement or atomic coordinate data resulting 
# from the CCDC's data processing and validation procedures.
#
#######################################################################

data_XUQROR
_chemical_formula_moiety         'C11 H13 Br1 N2 O1'
_chemical_name_systematic        1-(4-Bromobenzyl)azetidine-2-carboxamide
_symmetry_cell_setting           monoclinic
_symmetry_space_group_name_H-M   'P 21'
_symmetry_Int_Tables_number      4
_space_group_name_Hall           'P 2yb'
loop_
_symmetry_equiv_pos_site_id
_symmetry_equiv_pos_as_xyz
1 x,y,z
2 -x,1/2+y,-z
_cell_length_a                   7.3048(6)
_cell_length_b                   8.2600(6)
_cell_length_c                   9.2431(8)
_cell_angle_alpha                90
_cell_angle_beta                 92.177(4)
_cell_angle_gamma                90
_cell_volume                     557.304
_exptl_crystal_colour            colorless
_exptl_crystal_description       prism
_cell_formula_units_Z            2
loop_
_atom_site_label
_atom_site_type_symbol
_atom_site_fract_x
_atom_site_fract_y
_atom_site_fract_z
Br1 Br -0.13513(3) 0.21452(6) 0.33338(3)
O1 O 1.0478(2) 0.3587(2) 0.9882(2)
N1 N 0.8360(3) 0.1730(3) 0.9140(3)
H1 H 0.9033 0.0907 0.9449
H2 H 0.7276 0.1558 0.8721
N2 N 0.6006(3) 0.3958(3) 0.7949(2)
C1 C 0.8976(4) 0.3225(4) 0.9307(3)
C2 C 0.7691(3) 0.4528(3) 0.8747(3)
H3 H 0.8355 0.5350 0.8171
C3 C 0.6469(3) 0.5351(4) 0.9859(3)
H4 H 0.6279 0.4701 1.0740
H5 H 0.6824 0.6478 1.0102
C4 C 0.4922(4) 0.5204(3) 0.8693(3)
H6 H 0.3757 0.4792 0.9064
H7 H 0.4717 0.6204 0.8119
C5 C 0.6013(4) 0.4041(4) 0.6370(3)
H8 H 0.6982 0.3317 0.6023
H9 H 0.6317 0.5159 0.6078
C6 C 0.4207(3) 0.3566(3) 0.5650(3)
C7 C 0.2901(3) 0.2701(3) 0.6382(3)
H10 H 0.3146 0.2408 0.7364
C8 C 0.1236(3) 0.2254(6) 0.5707(2)
H11 H 0.0354 0.1646 0.6207
C9 C 0.0915(3) 0.2728(3) 0.4284(3)
C10 C 0.2186(3) 0.3558(3) 0.3514(3)
H12 H 0.1946 0.3838 0.2528
C11 C 0.3830(4) 0.3978(4) 0.4219(3)
H13 H 0.4719 0.4563 0.3706
loop_
_geom_bond_atom_site_label_1
_geom_bond_atom_site_label_2
_geom_bond_site_symmetry_1
_geom_bond_site_symmetry_2
Br1 C9 1_555 1_555
O1 C1 1_555 1_555
N1 H1 1_555 1_555
H2 N1 1_555 1_555
N2 C2 1_555 1_555
C1 N1 1_555 1_555
C2 C1 1_555 1_555
H3 C2 1_555 1_555
C3 C2 1_555 1_555
H4 C3 1_555 1_555
H5 C3 1_555 1_555
C4 N2 1_555 1_555
H6 C4 1_555 1_555
H7 C4 1_555 1_555
C5 N2 1_555 1_555
H8 C5 1_555 1_555
H9 C5 1_555 1_555
C6 C5 1_555 1_555
C7 C6 1_555 1_555
H10 C7 1_555 1_555
C8 C7 1_555 1_555
H11 C8 1_555 1_555
C9 C8 1_555 1_555
C10 C9 1_555 1_555
H12 C10 1_555 1_555
C11 C6 1_555 1_555
H13 C11 1_555 1_555
C3 C4 1_555 1_555
C10 C11 1_555 1_555

#END
