
#######################################################################
#
#                 Cambridge Crystallographic Data Centre
#                                CCDC 
#
#######################################################################
#
# If this CIF has been generated from an entry in the Cambridge 
# Structural Database, then it will include bibliographic, chemical, 
# crystal, experimental, refinement or atomic coordinate data resulting 
# from the CCDC's data processing and validation procedures.
#
#######################################################################

data_XUQSUY
_chemical_formula_moiety         'C25 H21 N1 O4'
_chemical_name_systematic        
22-Hydroxy-11,23-dimethyl-24-oxa-20-azahexacyclo[19.3.1.0^2,19^.0^5,18^.0^7,16^.0^8,13^]pentacosa-2,4,7,9,11,13,15,18-octaene-6,17-dione
_symmetry_cell_setting           monoclinic
_symmetry_space_group_name_H-M   'P 21'
_symmetry_Int_Tables_number      4
_space_group_name_Hall           'P 2yb'
loop_
_symmetry_equiv_pos_site_id
_symmetry_equiv_pos_as_xyz
1 x,y,z
2 -x,1/2+y,-z
_cell_length_a                   11.9709(17)
_cell_length_b                   5.9426(8)
_cell_length_c                   13.4008(19)
_cell_angle_alpha                90
_cell_angle_beta                 104.757(3)
_cell_angle_gamma                90
_cell_volume                     921.865
_exptl_crystal_colour            red
_exptl_crystal_description       prismatic
_cell_formula_units_Z            2
loop_
_atom_site_label
_atom_site_type_symbol
_atom_site_fract_x
_atom_site_fract_y
_atom_site_fract_z
N1 N 0.21578(18) 0.2793(4) 0.84696(17)
O1 O 0.29973(14) 0.5368(3) 0.71860(15)
O2 O 0.69077(14) 0.0597(4) 0.80463(14)
O3 O 0.14039(14) -0.2120(3) 0.85930(13)
O4 O -0.07221(14) 0.2088(4) 0.87649(15)
H1 H -0.1338 0.1588 0.8418
C1 C 0.7442(2) 0.2347(6) 0.6234(2)
H2 H 0.7554 0.0998 0.6598
C2 C 0.8104(2) 0.2847(6) 0.5569(2)
H3 H 0.8646 0.1799 0.5477
C3 C 0.7996(2) 0.4885(6) 0.5020(2)
C4 C 0.7182(2) 0.6381(5) 0.5151(2)
H4 H 0.7105 0.7745 0.4799
C5 C 0.5531(2) 0.7375(5) 0.58319(19)
H5 H 0.5473 0.8754 0.5494
C6 C 0.4728(2) 0.6808(5) 0.63395(19)
H6 H 0.4102 0.7755 0.6312
C7 C 0.3875(2) 0.4209(4) 0.73931(19)
C8 C 0.3116(2) 0.1541(5) 0.85273(19)
C9 C 0.3255(2) -0.0519(5) 0.90752(19)
C10 C 0.4243(2) -0.1762(5) 0.91983(19)
H7 H 0.4322 -0.3099 0.9570
C11 C 0.5134(2) -0.1050(5) 0.87734(19)
H8 H 0.5812 -0.1882 0.8881
C12 C 0.59702(19) 0.1536(5) 0.77448(19)
C13 C 0.8722(3) 0.5308(8) 0.4265(3)
H9 H 0.8673 0.6868 0.4073
H10 H 0.8442 0.4397 0.3661
H11 H 0.9512 0.4926 0.4583
C14 C 0.2263(2) -0.1277(5) 0.9481(2)
H12 H 0.2505 -0.2460 1.0001
C15 C 0.1814(2) 0.0777(5) 0.9944(2)
H13 H 0.1230 0.0336 1.0292
H14 H 0.2440 0.1518 1.0438
C16 C 0.1305(2) 0.2324(5) 0.9052(2)
H15 H 0.1092 0.3744 0.9326
C17 C 0.0203(2) 0.1215(5) 0.8386(2)
H16 H 0.0096 0.1629 0.7660
C18 C 0.0251(2) -0.1349(5) 0.8504(2)
H17 H 0.0021 -0.1760 0.9131
C19 C -0.0511(2) -0.2558(5) 0.7602(2)
H18 H -0.0273 -0.2204 0.6988
H19 H -0.1297 -0.2093 0.7519
H20 H -0.0450 -0.4151 0.7722
C20 C 0.6452(2) 0.5925(5) 0.58036(19)
C21 C 0.4835(2) 0.4793(5) 0.69087(19)
C22 C 0.39954(19) 0.2219(5) 0.80402(19)
C23 C 0.5002(2) 0.0890(5) 0.81949(18)
C24 C 0.57869(19) 0.3403(5) 0.69865(18)
C25 C 0.6583(2) 0.3878(5) 0.63711(19)
H21 H 0.207(2) 0.408(5) 0.813(2)
loop_
_geom_bond_atom_site_label_1
_geom_bond_atom_site_label_2
_geom_bond_site_symmetry_1
_geom_bond_site_symmetry_2
N1 C8 1_555 1_555
O1 C7 1_555 1_555
O2 C12 1_555 1_555
O3 C14 1_555 1_555
O4 H1 1_555 1_555
C1 H2 1_555 1_555
C2 C1 1_555 1_555
H3 C2 1_555 1_555
C3 C2 1_555 1_555
C4 C3 1_555 1_555
H4 C4 1_555 1_555
C5 H5 1_555 1_555
C6 C5 1_555 1_555
H6 C6 1_555 1_555
C7 C21 1_555 1_555
C8 C9 1_555 1_555
C9 C10 1_555 1_555
C10 H7 1_555 1_555
C11 C10 1_555 1_555
H8 C11 1_555 1_555
C12 C23 1_555 1_555
C13 C3 1_555 1_555
H9 C13 1_555 1_555
H10 C13 1_555 1_555
H11 C13 1_555 1_555
C14 C9 1_555 1_555
H12 C14 1_555 1_555
C15 C14 1_555 1_555
H13 C15 1_555 1_555
H14 C15 1_555 1_555
C16 N1 1_555 1_555
H15 C16 1_555 1_555
C17 O4 1_555 1_555
H16 C17 1_555 1_555
C18 O3 1_555 1_555
H17 C18 1_555 1_555
C19 C18 1_555 1_555
H18 C19 1_555 1_555
H19 C19 1_555 1_555
H20 C19 1_555 1_555
C20 C4 1_555 1_555
C21 C6 1_555 1_555
C22 C7 1_555 1_555
C23 C11 1_555 1_555
C24 C12 1_555 1_555
C25 C1 1_555 1_555
H21 N1 1_555 1_555
C5 C20 1_555 1_555
C8 C22 1_555 1_555
C15 C16 1_555 1_555
C16 C17 1_555 1_555
C17 C18 1_555 1_555
C20 C25 1_555 1_555
C21 C24 1_555 1_555
C22 C23 1_555 1_555
C24 C25 1_555 1_555

#END
