
#######################################################################
#
#                 Cambridge Crystallographic Data Centre
#                                CCDC 
#
#######################################################################
#
# If this CIF has been generated from an entry in the Cambridge 
# Structural Database, then it will include bibliographic, chemical, 
# crystal, experimental, refinement or atomic coordinate data resulting 
# from the CCDC's data processing and validation procedures.
#
#######################################################################

data_XUQXIR
_chemical_formula_moiety         'C38 H32'
_chemical_name_systematic        
2,10-Di-t-butyltetrabenzo[de,hi,mn,qr]tetracene
_symmetry_cell_setting           orthorhombic
_symmetry_space_group_name_H-M   'P 21 21 21'
_symmetry_Int_Tables_number      19
_space_group_name_Hall           'P 2ac 2ab'
loop_
_symmetry_equiv_pos_site_id
_symmetry_equiv_pos_as_xyz
1 x,y,z
2 1/2-x,-y,1/2+z
3 -x,1/2+y,1/2-z
4 1/2+x,1/2-y,-z
_cell_length_a                   14.1510(3)
_cell_length_b                   18.3170(4)
_cell_length_c                   21.0453(5)
_cell_angle_alpha                90
_cell_angle_beta                 90
_cell_angle_gamma                90
_cell_volume                     5455.02
_exptl_crystal_colour            colorless
_exptl_crystal_description       columnar
_cell_formula_units_Z            8
loop_
_atom_site_label
_atom_site_type_symbol
_atom_site_fract_x
_atom_site_fract_y
_atom_site_fract_z
C1 C 0.4082(4) 0.8632(4) 0.2043(3)
C2 C 0.3410(4) 0.9195(4) 0.2037(3)
H1 H 0.3133 0.9342 0.2428
C3 C 0.3142(5) 0.9539(3) 0.1494(4)
C4 C 0.2437(5) 1.0113(4) 0.1495(4)
H2 H 0.2154 1.0261 0.1884
C5 C 0.2182(5) 1.0439(4) 0.0945(4)
H3 H 0.1726 1.0820 0.0959
C6 C 0.2569(4) 1.0236(3) 0.0342(4)
C7 C 0.2296(4) 1.0575(3) -0.0215(4)
H4 H 0.1851 1.0963 -0.0203
C8 C 0.2680(5) 1.0345(3) -0.0800(4)
H5 H 0.2516 1.0594 -0.1180
C9 C 0.3299(4) 0.9754(3) -0.0819(3)
H6 H 0.3543 0.9597 -0.1217
C10 C 0.3570(4) 0.9385(3) -0.0265(3)
C11 C 0.4256(4) 0.8797(3) -0.0261(3)
C12 C 0.4747(4) 0.8636(3) 0.0294(3)
C13 C 0.4310(4) 0.8834(3) 0.0902(3)
C14 C 0.4526(4) 0.8480(3) 0.1465(3)
H7 H 0.5001 0.8114 0.1458
C15 C 0.3549(4) 0.9341(3) 0.0904(3)
C16 C 0.3239(4) 0.9646(3) 0.0326(3)
C17 C 0.4469(4) 0.8349(3) -0.0840(3)
C18 C 0.3822(4) 0.8277(3) -0.1338(3)
H8 H 0.3240 0.8533 -0.1313
C19 C 0.3998(4) 0.7847(3) -0.1865(3)
C20 C 0.4851(5) 0.7475(4) -0.1893(3)
H9 H 0.4992 0.7189 -0.2257
C21 C 0.5503(5) 0.7511(4) -0.1402(3)
C22 C 0.6412(6) 0.7174(6) -0.1428(4)
H10 H 0.6570 0.6888 -0.1789
C23 C 0.7060(6) 0.7246(6) -0.0957(4)
H11 H 0.7678 0.7054 -0.1015
C24 C 0.6829(5) 0.7601(4) -0.0381(3)
C25 C 0.7460(4) 0.7633(4) 0.0130(3)
H12 H 0.8056 0.7396 0.0099
C26 C 0.7231(4) 0.7998(3) 0.0671(3)
H13 H 0.7682 0.8038 0.1004
C27 C 0.6336(4) 0.8318(3) 0.0744(3)
H14 H 0.6183 0.8562 0.1128
C28 C 0.5663(4) 0.8280(3) 0.0252(3)
C29 C 0.5928(4) 0.7938(3) -0.0326(3)
C30 C 0.5285(4) 0.7929(3) -0.0846(3)
C31 C 0.4359(5) 0.8194(5) 0.2639(3)
C32 C 0.3844(6) 0.8467(6) 0.3239(4)
H15 H 0.4007 0.8153 0.3600
H16 H 0.3160 0.8451 0.3168
H17 H 0.4037 0.8970 0.3330
C33 C 0.4097(12) 0.7417(5) 0.2520(5)
H18 H 0.4487 0.7221 0.2175
H19 H 0.3429 0.7389 0.2400
H20 H 0.4203 0.7131 0.2907
C34 C 0.5420(7) 0.8226(9) 0.2743(5)
H21 H 0.5742 0.7969 0.2397
H22 H 0.5577 0.7994 0.3149
H23 H 0.5626 0.8737 0.2751
C35 C 0.3316(4) 0.7782(3) -0.2431(3)
C36 C 0.2396(5) 0.8183(4) -0.2302(4)
H24 H 0.1981 0.8140 -0.2673
H25 H 0.2529 0.8699 -0.2219
H26 H 0.2085 0.7967 -0.1931
C37 C 0.3066(5) 0.6965(4) -0.2538(3)
H27 H 0.3643 0.6692 -0.2636
H28 H 0.2622 0.6923 -0.2893
H29 H 0.2776 0.6766 -0.2152
C38 C 0.3768(5) 0.8080(4) -0.3032(3)
H30 H 0.3897 0.8602 -0.2978
H31 H 0.3338 0.8010 -0.3391
H32 H 0.4362 0.7821 -0.3114
C39 C 0.3922(10) 0.5513(8) 0.0183(8)
C40 C 0.3939(9) 0.5578(6) -0.0460(8)
H33 H 0.4469 0.5796 -0.0662
C41 C 0.3181(10) 0.5328(6) -0.0826(6)
C42 C 0.3178(12) 0.5394(8) -0.1502(7)
H34 H 0.3711 0.5602 -0.1709
C43 C 0.2424(11) 0.5164(7) -0.1860(6)
H35 H 0.2451 0.5216 -0.2309
C44 C 0.1605(11) 0.4851(8) -0.1582(7)
C45 C 0.0830(12) 0.4590(8) -0.1940(8)
H36 H 0.0852 0.4621 -0.2391
C46 C 0.0044(12) 0.4293(8) -0.1651(7)
H37 H -0.0479 0.4135 -0.1899
C47 C 0.0024(9) 0.4226(7) -0.0967(7)
H38 H -0.0525 0.4043 -0.0762
C48 C 0.0782(11) 0.4422(8) -0.0619(8)
C49 C 0.0784(8) 0.4350(7) 0.0077(7)
C50 C 0.1366(10) 0.4803(8) 0.0420(7)
C51 C 0.2307(13) 0.5067(10) 0.0163(9)
C52 C 0.3100(11) 0.5265(8) 0.0496(8)
H39 H 0.3096 0.5234 0.0947
C53 C 0.2353(11) 0.5045(8) -0.0489(8)
C54 C 0.1588(14) 0.4770(10) -0.0848(9)
C55 C 0.0115(8) 0.3881(6) 0.0409(6)
C56 C -0.0286(8) 0.3267(7) 0.0147(6)
H40 H -0.0117 0.3146 -0.0277
C57 C -0.0924(9) 0.2806(7) 0.0459(6)
C58 C -0.1121(10) 0.2969(7) 0.1081(6)
H41 H -0.1544 0.2660 0.1305
C59 C -0.0722(9) 0.3579(8) 0.1409(6)
C60 C -0.1006(9) 0.3774(7) 0.2010(6)
H42 H -0.1479 0.3499 0.2223
C61 C -0.0578(12) 0.4406(11) 0.2318(8)
H43 H -0.0782 0.4557 0.2728
C62 C 0.0134(9) 0.4784(8) 0.2001(6)
C63 C 0.0553(9) 0.5390(9) 0.2306(7)
H44 H 0.0364 0.5515 0.2726
C64 C 0.1249(10) 0.5815(8) 0.1998(6)
H45 H 0.1519 0.6230 0.2198
C65 C 0.1530(9) 0.5601(8) 0.1380(6)
H46 H 0.1997 0.5884 0.1169
C66 C 0.1155(9) 0.4993(8) 0.1062(6)
C67 C 0.0405(9) 0.4597(8) 0.1389(6)
C68 C -0.0038(8) 0.4017(7) 0.1068(6)
C69 C 0.4766(9) 0.5748(8) 0.0582(7)
C70 C 0.5619(10) 0.5968(8) 0.0163(8)
H47 H 0.5444 0.6384 -0.0105
H48 H 0.5801 0.5555 -0.0107
H49 H 0.6153 0.6104 0.0435
C71 C 0.4435(12) 0.6379(9) 0.1017(8)
H50 H 0.4639 0.6284 0.1454
H51 H 0.3744 0.6413 0.1003
H52 H 0.4711 0.6839 0.0868
C72 C 0.5041(14) 0.5117(11) 0.1039(10)
H53 H 0.5164 0.4674 0.0793
H54 H 0.4521 0.5028 0.1337
H55 H 0.5610 0.5252 0.1277
C73 C -0.1333(11) 0.2138(9) 0.0111(7)
C74 C -0.160(3) 0.229(3) -0.0527(19)
H56 H -0.1956 0.1871 -0.0698
H57 H -0.1039 0.2372 -0.0785
H58 H -0.2005 0.2724 -0.0537
C75 C -0.2298(19) 0.1965(17) 0.0376(14)
H59 H -0.2235 0.1617 0.0727
H60 H -0.2691 0.1750 0.0041
H61 H -0.2594 0.2414 0.0531
C76 C -0.078(5) 0.153(4) 0.015(3)
H62 H -0.0176 0.1656 0.0356
H63 H -0.0651 0.1342 -0.0278
H64 H -0.1100 0.1154 0.0401
C77? C 0.3881(10) 0.5570(8) -0.0035(9)
C78? C 0.3776(10) 0.5552(7) -0.0697(7)
C79? C 0.2932(11) 0.5269(7) -0.0986(7)
C80? C 0.2852(13) 0.5272(8) -0.1641(7)
C81? C 0.2008(15) 0.5016(10) -0.1912(9)
C82? C 0.1288(14) 0.4717(10) -0.1514(8)
C83? C 0.0452(16) 0.4430(10) -0.1781(9)
C84? C -0.0226(12) 0.4144(9) -0.1391(9)
C85? C -0.0155(12) 0.4103(9) -0.0735(8)
C86? C 0.0705(11) 0.4403(9) -0.0433(9)
C87? C 0.0838(11) 0.4447(9) 0.0266(9)
C88? C 0.1500(13) 0.4893(9) 0.0519(9)
C89? C 0.2218(15) 0.5100(11) 0.0061(10)
C90? C 0.3091(12) 0.5365(9) 0.0328(9)
C91? C 0.2203(12) 0.5036(8) -0.0614(8)
C92? C 0.1396(15) 0.4714(11) -0.0919(9)
C93? C 0.0210(9) 0.4002(7) 0.0673(7)
C94? C -0.0200(9) 0.3326(7) 0.0510(6)
C95? C -0.0773(12) 0.2915(8) 0.0917(7)
C96? C -0.0951(10) 0.3216(9) 0.1509(7)
C97? C -0.0526(9) 0.3887(7) 0.1738(6)
C98? C -0.0677(11) 0.4184(9) 0.2333(7)
C99? C -0.0241(10) 0.4820(8) 0.2542(7)
C100? C 0.0411(10) 0.5163(9) 0.2155(7)
C101? C 0.0896(10) 0.5772(8) 0.2358(7)
C102? C 0.1551(11) 0.6145(9) 0.1943(7)
C103? C 0.1771(12) 0.5846(9) 0.1367(7)
C104? C 0.1320(11) 0.5202(10) 0.1163(7)
C105? C 0.0626(9) 0.4879(8) 0.1521(6)
C106? C 0.0117(9) 0.4261(8) 0.1309(6)
C107? C 0.4794(11) 0.5856(9) 0.0317(9)
C108? C 0.5612(13) 0.6004(10) -0.0159(9)
C109? C 0.4581(11) 0.6575(9) 0.0683(8)
C110? C 0.5161(14) 0.5252(11) 0.0777(10)
C111? C -0.1202(12) 0.2198(9) 0.0743(8)
C112? C -0.1981(18) 0.2396(14) 0.0204(12)
C113? C -0.1641(14) 0.1784(11) 0.1274(9)
C114? C -0.0476(15) 0.1678(12) 0.0484(10)
H65? H 0.4272 0.5731 -0.0959
H66? H 0.3355 0.5443 -0.1900
H67? H 0.1917 0.5043 -0.2359
H68? H 0.0361 0.4436 -0.2228
H69? H -0.0785 0.3961 -0.1584
H70? H -0.0643 0.3889 -0.0487
H71? H 0.3135 0.5402 0.0778
H72? H -0.0079 0.3138 0.0097
H73? H -0.1379 0.2968 0.1782
H74? H -0.1100 0.3941 0.2613
H75? H -0.0390 0.5017 0.2947
H76? H 0.0799 0.5949 0.2777
H77? H 0.1826 0.6595 0.2070
H78? H 0.2230 0.6073 0.1104
H79? H 0.5461 0.6436 -0.0415
H80? H 0.5690 0.5581 -0.0439
H81? H 0.6199 0.6089 0.0076
H82? H 0.4492 0.6974 0.0379
H83? H 0.5112 0.6690 0.0965
H84? H 0.4006 0.6513 0.0937
H85? H 0.5761 0.5408 0.0965
H86? H 0.5257 0.4798 0.0540
H87? H 0.4695 0.5172 0.1114
H88? H -0.2543 0.2091 0.0264
H89? H -0.1713 0.2305 -0.0218
H90? H -0.2157 0.2911 0.0241
H91? H -0.2303 0.1932 0.1321
H92? H -0.1299 0.1887 0.1669
H93? H -0.1610 0.1260 0.1182
H94? H -0.0662 0.1175 0.0584
H95? H 0.0140 0.1782 0.0677
H96? H -0.0433 0.1737 0.0022
loop_
_geom_bond_atom_site_label_1
_geom_bond_atom_site_label_2
_geom_bond_site_symmetry_1
_geom_bond_site_symmetry_2
C1 C2 1_555 1_555
C2 H1 1_555 1_555
C3 C2 1_555 1_555
C4 C3 1_555 1_555
H2 C4 1_555 1_555
C5 C4 1_555 1_555
H3 C5 1_555 1_555
C6 C5 1_555 1_555
C7 C6 1_555 1_555
H4 C7 1_555 1_555
C8 C7 1_555 1_555
H5 C8 1_555 1_555
C9 C8 1_555 1_555
H6 C9 1_555 1_555
C10 C9 1_555 1_555
C11 C10 1_555 1_555
C12 C11 1_555 1_555
C13 C12 1_555 1_555
C14 C1 1_555 1_555
H7 C14 1_555 1_555
C15 C3 1_555 1_555
C16 C6 1_555 1_555
C17 C11 1_555 1_555
C18 C17 1_555 1_555
H8 C18 1_555 1_555
C19 C18 1_555 1_555
C20 C19 1_555 1_555
H9 C20 1_555 1_555
C21 C20 1_555 1_555
C22 C21 1_555 1_555
H10 C22 1_555 1_555
C23 C22 1_555 1_555
H11 C23 1_555 1_555
C24 C23 1_555 1_555
C25 C24 1_555 1_555
H12 C25 1_555 1_555
C26 C25 1_555 1_555
H13 C26 1_555 1_555
C27 C26 1_555 1_555
H14 C27 1_555 1_555
C28 C12 1_555 1_555
C29 C24 1_555 1_555
C30 C17 1_555 1_555
C31 C1 1_555 1_555
C32 C31 1_555 1_555
H15 C32 1_555 1_555
H16 C32 1_555 1_555
H17 C32 1_555 1_555
C33 C31 1_555 1_555
H18 C33 1_555 1_555
H19 C33 1_555 1_555
H20 C33 1_555 1_555
C34 C31 1_555 1_555
H21 C34 1_555 1_555
H22 C34 1_555 1_555
H23 C34 1_555 1_555
C35 C19 1_555 1_555
C36 C35 1_555 1_555
H24 C36 1_555 1_555
H25 C36 1_555 1_555
H26 C36 1_555 1_555
C37 C35 1_555 1_555
H27 C37 1_555 1_555
H28 C37 1_555 1_555
H29 C37 1_555 1_555
C38 C35 1_555 1_555
H30 C38 1_555 1_555
H31 C38 1_555 1_555
H32 C38 1_555 1_555
C39 C40 1_555 1_555
C40 H33 1_555 1_555
C41 C40 1_555 1_555
C42 C41 1_555 1_555
H34 C42 1_555 1_555
C43 C42 1_555 1_555
H35 C43 1_555 1_555
C44 C43 1_555 1_555
C45 C44 1_555 1_555
H36 C45 1_555 1_555
C46 C45 1_555 1_555
H37 C46 1_555 1_555
C47 C46 1_555 1_555
H38 C47 1_555 1_555
C48 C47 1_555 1_555
C49 C48 1_555 1_555
C50 C49 1_555 1_555
C51 C50 1_555 1_555
C52 C39 1_555 1_555
H39 C52 1_555 1_555
C53 C41 1_555 1_555
C54 C44 1_555 1_555
C55 C49 1_555 1_555
C56 C55 1_555 1_555
H40 C56 1_555 1_555
C57 C56 1_555 1_555
C58 C57 1_555 1_555
H41 C58 1_555 1_555
C59 C58 1_555 1_555
C60 C59 1_555 1_555
H42 C60 1_555 1_555
C61 C60 1_555 1_555
H43 C61 1_555 1_555
C62 C61 1_555 1_555
C63 C62 1_555 1_555
H44 C63 1_555 1_555
C64 C63 1_555 1_555
H45 C64 1_555 1_555
C65 C64 1_555 1_555
H46 C65 1_555 1_555
C66 C50 1_555 1_555
C67 C62 1_555 1_555
C68 C55 1_555 1_555
C69 C39 1_555 1_555
C70 C69 1_555 1_555
H47 C70 1_555 1_555
H48 C70 1_555 1_555
H49 C70 1_555 1_555
C71 C69 1_555 1_555
H50 C71 1_555 1_555
H51 C71 1_555 1_555
H52 C71 1_555 1_555
C72 C69 1_555 1_555
H53 C72 1_555 1_555
H54 C72 1_555 1_555
H55 C72 1_555 1_555
C73 C57 1_555 1_555
C74 C73 1_555 1_555
H56 C74 1_555 1_555
H57 C74 1_555 1_555
H58 C74 1_555 1_555
C75 C73 1_555 1_555
H59 C75 1_555 1_555
H60 C75 1_555 1_555
H61 C75 1_555 1_555
C76 C73 1_555 1_555
H62 C76 1_555 1_555
H63 C76 1_555 1_555
H64 C76 1_555 1_555
C10 C16 1_555 1_555
C13 C14 1_555 1_555
C13 C15 1_555 1_555
C15 C16 1_555 1_555
C21 C30 1_555 1_555
C27 C28 1_555 1_555
C28 C29 1_555 1_555
C29 C30 1_555 1_555
C48 C54 1_555 1_555
C51 C52 1_555 1_555
C51 C53 1_555 1_555
C53 C54 1_555 1_555
C59 C68 1_555 1_555
C65 C66 1_555 1_555
C66 C67 1_555 1_555
C67 C68 1_555 1_555

#END
