
#######################################################################
#
#                 Cambridge Crystallographic Data Centre
#                                CCDC 
#
#######################################################################
#
# If this CIF has been generated from an entry in the Cambridge 
# Structural Database, then it will include bibliographic, chemical, 
# crystal, experimental, refinement or atomic coordinate data resulting 
# from the CCDC's data processing and validation procedures.
#
#######################################################################

data_XURDAR
_chemical_formula_moiety         'C25 H24 O3 S1'
_chemical_name_systematic        
1-(biphenyl-4-yl)-3-methyl-6-(phenylsulfonyl)cyclohex-3-en-1-ol
_symmetry_cell_setting           monoclinic
_symmetry_space_group_name_H-M   'P 21'
_symmetry_Int_Tables_number      4
_space_group_name_Hall           'P 2yb'
loop_
_symmetry_equiv_pos_site_id
_symmetry_equiv_pos_as_xyz
1 x,y,z
2 -x,1/2+y,-z
_cell_length_a                   8.8436(5)
_cell_length_b                   12.7602(8)
_cell_length_c                   9.6190(6)
_cell_angle_alpha                90
_cell_angle_beta                 111.761(2)
_cell_angle_gamma                90
_cell_volume                     1008.11
_exptl_crystal_colour            colorless
_cell_formula_units_Z            2
loop_
_atom_site_label
_atom_site_type_symbol
_atom_site_fract_x
_atom_site_fract_y
_atom_site_fract_z
C1 C 0.2569(2) 0.38009(16) 0.1440(2)
H1 H 0.2545 0.3826 0.2471
C2 C 0.1683(2) 0.28031(16) 0.0655(2)
H2 H 0.0642 0.2737 0.0812
H3 H 0.1426 0.2865 -0.0435
C3 C 0.2684(3) 0.18338(16) 0.1230(2)
H4 H 0.2146 0.1176 0.0993
C4 C 0.4266(3) 0.18325(16) 0.2047(2)
C5 C 0.5210(2) 0.28382(16) 0.2498(2)
H5 H 0.6283 0.2745 0.2412
H6 H 0.5406 0.2980 0.3563
C6 C 0.4370(2) 0.37923(16) 0.1570(2)
C7 C 0.5247(3) 0.08455(17) 0.2592(3)
H7 H 0.4520 0.0237 0.2319
H8 H 0.5798 0.0875 0.3682
H9 H 0.6060 0.0784 0.2127
C8 C 0.5304(2) 0.47797(16) 0.2317(2)
C9 C 0.5455(2) 0.50541(16) 0.3767(2)
H10 H 0.4916 0.4646 0.4269
C10 C 0.6376(3) 0.59084(16) 0.4487(2)
H11 H 0.6475 0.6074 0.5480
C11 C 0.7164(2) 0.65324(16) 0.3759(2)
C12 C 0.6985(2) 0.62663(16) 0.2305(2)
H12 H 0.7491 0.6686 0.1786
C13 C 0.6080(2) 0.53987(16) 0.1597(2)
H13 H 0.5990 0.5226 0.0609
C14 C 0.8213(3) 0.74272(16) 0.4534(2)
C15 C 0.9257(3) 0.73516(17) 0.6030(2)
H14 H 0.9249 0.6740 0.6590
C16 C 1.0312(3) 0.81734(17) 0.6704(2)
H15 H 1.1020 0.8119 0.7723
C17 C 1.0336(3) 0.90677(17) 0.5900(3)
H16 H 1.1073 0.9619 0.6360
C18 C 0.9281(3) 0.91582(18) 0.4419(3)
H17 H 0.9284 0.9775 0.3868
C19 C 0.8221(3) 0.83423(17) 0.3747(3)
H18 H 0.7492 0.8410 0.2737
C20 C 0.1940(3) 0.60556(16) 0.1435(2)
C21 C 0.1424(3) 0.62029(18) 0.2617(3)
H19 H 0.0859 0.5662 0.2904
C22 C 0.1744(3) 0.71529(18) 0.3377(3)
H20 H 0.1416 0.7260 0.4202
C23 C 0.2540(3) 0.79430(18) 0.2936(3)
H21 H 0.2737 0.8596 0.3448
C24 C 0.3051(3) 0.77890(17) 0.1750(3)
H22 H 0.3597 0.8336 0.1454
C25 C 0.2768(3) 0.68386(17) 0.0997(2)
H23 H 0.3133 0.6724 0.0197
O1 O 0.44437(17) 0.36351(12) 0.01294(16)
H24 H 0.3783 0.4040 -0.0490
O2 O -0.02819(18) 0.46790(12) 0.0143(2)
O3 O 0.1828(2) 0.50234(13) -0.09301(16)
S1 S 0.13916(6) 0.48904(4) 0.03732(5)
loop_
_geom_bond_atom_site_label_1
_geom_bond_atom_site_label_2
_geom_bond_site_symmetry_1
_geom_bond_site_symmetry_2
C1 H1 1_555 1_555
C2 C1 1_555 1_555
H2 C2 1_555 1_555
H3 C2 1_555 1_555
C3 C2 1_555 1_555
H4 C3 1_555 1_555
C4 C3 1_555 1_555
C5 C4 1_555 1_555
H5 C5 1_555 1_555
H6 C5 1_555 1_555
C6 C1 1_555 1_555
C7 C4 1_555 1_555
H7 C7 1_555 1_555
H8 C7 1_555 1_555
H9 C7 1_555 1_555
C8 C6 1_555 1_555
C9 C8 1_555 1_555
H10 C9 1_555 1_555
C10 C9 1_555 1_555
H11 C10 1_555 1_555
C11 C10 1_555 1_555
C12 C11 1_555 1_555
H12 C12 1_555 1_555
C13 C8 1_555 1_555
H13 C13 1_555 1_555
C14 C11 1_555 1_555
C15 C14 1_555 1_555
H14 C15 1_555 1_555
C16 C15 1_555 1_555
H15 C16 1_555 1_555
C17 C16 1_555 1_555
H16 C17 1_555 1_555
C18 C17 1_555 1_555
H17 C18 1_555 1_555
C19 C14 1_555 1_555
H18 C19 1_555 1_555
C20 C21 1_555 1_555
C21 H19 1_555 1_555
C22 C21 1_555 1_555
H20 C22 1_555 1_555
C23 C22 1_555 1_555
H21 C23 1_555 1_555
C24 C23 1_555 1_555
H22 C24 1_555 1_555
C25 C20 1_555 1_555
H23 C25 1_555 1_555
O1 C6 1_555 1_555
H24 O1 1_555 1_555
O2 S1 1_555 1_555
O3 S1 1_555 1_555
S1 C1 1_555 1_555
C5 C6 1_555 1_555
C12 C13 1_555 1_555
C18 C19 1_555 1_555
C20 S1 1_555 1_555
C24 C25 1_555 1_555

#END
