
#######################################################################
#
#                 Cambridge Crystallographic Data Centre
#                                CCDC 
#
#######################################################################
#
# If this CIF has been generated from an entry in the Cambridge 
# Structural Database, then it will include bibliographic, chemical, 
# crystal, experimental, refinement or atomic coordinate data resulting 
# from the CCDC's data processing and validation procedures.
#
#######################################################################

data_XURHOI
_chemical_formula_moiety         'C20 H18 O3'
_chemical_name_systematic        
7-Methoxy-4-phenyl-3,4-dihydro-2H-benzo[h]chromen-2-ol
_symmetry_cell_setting           monoclinic
_symmetry_space_group_name_H-M   'P 21'
_symmetry_Int_Tables_number      4
_space_group_name_Hall           'P 2yb'
loop_
_symmetry_equiv_pos_site_id
_symmetry_equiv_pos_as_xyz
1 x,y,z
2 -x,1/2+y,-z
_cell_length_a                   10.368(10)
_cell_length_b                   5.135(5)
_cell_length_c                   14.763(14)
_cell_angle_alpha                90
_cell_angle_beta                 99.164(17)
_cell_angle_gamma                90
_cell_volume                     775.946
_exptl_crystal_colour            colorless
_exptl_crystal_description       stick
_cell_formula_units_Z            2
loop_
_atom_site_label
_atom_site_type_symbol
_atom_site_fract_x
_atom_site_fract_y
_atom_site_fract_z
C1 C 0.2084(3) 0.2476(8) 0.4649(2)
C2 C 0.0984(4) 0.1021(9) 0.4458(3)
H1 H 0.0800 -0.0233 0.4874
C3 C 0.0133(4) 0.1398(9) 0.3646(3)
H2 H -0.0621 0.0392 0.3527
C4 C 0.0371(3) 0.3206(8) 0.3016(2)
H3 H -0.0222 0.3451 0.2480
C5 C 0.1520(3) 0.4692(7) 0.3184(2)
C6 C 0.1846(3) 0.6555(7) 0.25418(19)
C7 C 0.1443(4) 0.8022(9) 0.1003(2)
H4 H 0.2007 0.6753 0.0762
C8 C 0.2187(4) 1.0352(10) 0.1226(3)
H5 H 0.1608 1.1706 0.1383
H6 H 0.2536 1.0924 0.0688
C9 C 0.3306(3) 1.0029(8) 0.2014(2)
H7 H 0.3381 1.1687 0.2347
C10 C 0.2978(3) 0.7977(7) 0.2691(2)
C11 C 0.3825(3) 0.7550(8) 0.3521(2)
H8 H 0.4598 0.8498 0.3635
C12 C 0.3569(3) 0.5831(8) 0.4160(2)
H9 H 0.4156 0.5622 0.4702
C13 C 0.2404(3) 0.4347(8) 0.4004(2)
C14 C 0.2724(4) 0.0459(13) 0.6103(3)
H10 H 0.1900 0.0841 0.6291
H11 H 0.3405 0.0544 0.6626
H12 H 0.2698 -0.1257 0.5843
C15 C 0.4639(3) 0.9527(8) 0.1735(2)
C16 C 0.4890(5) 0.7511(13) 0.1196(4)
H13 H 0.4230 0.6338 0.0977
C17 C 0.6131(7) 0.7193(17) 0.0971(5)
H14 H 0.6284 0.5807 0.0597
C18 C 0.7097(5) 0.8796(16) 0.1271(4)
H15 H 0.7913 0.8588 0.1095
C19 C 0.6878(5) 1.0701(18) 0.1826(5)
H16 H 0.7562 1.1788 0.2072
C20 C 0.5635(4) 1.1110(14) 0.2049(4)
H17 H 0.5497 1.2507 0.2423
O1 O 0.0343(3) 0.8436(6) 0.03312(18)
H18 H 0.0036 0.7029 0.0143
O2 O 0.0940(2) 0.6827(5) 0.17520(14)
O3 O 0.2977(3) 0.2315(7) 0.54341(17)
loop_
_geom_bond_atom_site_label_1
_geom_bond_atom_site_label_2
_geom_bond_site_symmetry_1
_geom_bond_site_symmetry_2
C1 C2 1_555 1_555
C2 H1 1_555 1_555
C3 C2 1_555 1_555
H2 C3 1_555 1_555
C4 C3 1_555 1_555
H3 C4 1_555 1_555
C5 C4 1_555 1_555
C6 C5 1_555 1_555
C7 H4 1_555 1_555
C8 C7 1_555 1_555
H5 C8 1_555 1_555
H6 C8 1_555 1_555
C9 C8 1_555 1_555
H7 C9 1_555 1_555
C10 C6 1_555 1_555
C11 C10 1_555 1_555
H8 C11 1_555 1_555
C12 C11 1_555 1_555
H9 C12 1_555 1_555
C13 C1 1_555 1_555
C14 H10 1_555 1_555
H11 C14 1_555 1_555
H12 C14 1_555 1_555
C15 C9 1_555 1_555
C16 C15 1_555 1_555
H13 C16 1_555 1_555
C17 C16 1_555 1_555
H14 C17 1_555 1_555
C18 C17 1_555 1_555
H15 C18 1_555 1_555
C19 C18 1_555 1_555
H16 C19 1_555 1_555
C20 C15 1_555 1_555
H17 C20 1_555 1_555
O1 C7 1_555 1_555
H18 O1 1_555 1_555
O2 C6 1_555 1_555
O3 C1 1_555 1_555
C5 C13 1_555 1_555
C7 O2 1_555 1_555
C9 C10 1_555 1_555
C12 C13 1_555 1_555
C14 O3 1_555 1_555
C19 C20 1_555 1_555

#END
