
#######################################################################
#
#                 Cambridge Crystallographic Data Centre
#                                CCDC 
#
#######################################################################
#
# If this CIF has been generated from an entry in the Cambridge 
# Structural Database, then it will include bibliographic, chemical, 
# crystal, experimental, refinement or atomic coordinate data resulting 
# from the CCDC's data processing and validation procedures.
#
#######################################################################

data_XURMII
_chemical_formula_moiety         'C44 H44 F10 S2 Si2'
_chemical_name_systematic        
((2,6-bis(Pentafluorophenyl)thieno[2,3-f][1]benzothiene-4,8-diyl)diethyne-2,1-diyl)bis(tri-isopropylsilane)
_symmetry_cell_setting           triclinic
_symmetry_space_group_name_H-M   'P -1'
_symmetry_Int_Tables_number      2
_space_group_name_Hall           '-P 1'
loop_
_symmetry_equiv_pos_site_id
_symmetry_equiv_pos_as_xyz
1 x,y,z
2 -x,-y,-z
_cell_length_a                   8.0496(4)
_cell_length_b                   8.7262(5)
_cell_length_c                   15.3591(8)
_cell_angle_alpha                90.647(2)
_cell_angle_beta                 98.346(2)
_cell_angle_gamma                101.226(2)
_cell_volume                     1046.14
_exptl_crystal_colour            yellow
_exptl_crystal_description       rod
_cell_formula_units_Z            1
loop_
_atom_site_label
_atom_site_type_symbol
_atom_site_fract_x
_atom_site_fract_y
_atom_site_fract_z
Si1 Si 0.62950(9) 0.83615(9) 0.84434(4)
F1 F 0.00881(17) 0.83992(16) 0.57904(9)
F2 F -0.27591(19) 0.94764(17) 0.54476(10)
F3 F -0.48247(18) 0.88067(18) 0.38831(11)
F4 F -0.39283(19) 0.70050(19) 0.26459(10)
F5 F -0.10891(17) 0.59109(17) 0.29522(9)
C1 C 0.5408(3) 0.5768(3) 0.58574(14)
C2 C 0.4008(16) 0.592(2) 0.5333(7)
S1 S 0.25720(15) 0.69824(15) 0.56022(9)
C3 C 0.1216(16) 0.644(2) 0.4581(15)
C4 C 0.1946(7) 0.5602(7) 0.4079(4)
H1 H 0.1459 0.5280 0.3489
C5 C 0.3499(18) 0.5222(17) 0.4483(9)
C6 C -0.0316(3) 0.7111(2) 0.43847(14)
C7 C -0.0853(3) 0.8025(3) 0.49946(15)
C8 C -0.2338(3) 0.8603(3) 0.48353(16)
C9 C -0.3386(3) 0.8266(3) 0.40394(17)
C10 C -0.2914(3) 0.7365(3) 0.34219(16)
C11 C -0.1428(3) 0.6805(3) 0.35936(15)
C12 C 0.5783(3) 0.6532(3) 0.67045(16)
C13 C 0.6045(3) 0.7217(3) 0.74026(16)
C14 C 0.7889(5) 0.7749(4) 0.9254(2)
H2 H 0.9028 0.8403 0.9189
C15 C 0.8001(8) 0.6047(8) 0.9109(4)
H3 H 0.8870 0.5771 0.9562
H4 H 0.8318 0.5898 0.8526
H5 H 0.6888 0.5376 0.9145
C16 C 0.7572(7) 0.8028(6) 1.0203(3)
H6 H 0.6439 0.7438 1.0280
H7 H 0.7622 0.9146 1.0314
H8 H 0.8452 0.7678 1.0619
C17 C 0.7054(5) 1.0517(4) 0.8135(2)
H9 H 0.6141 1.0777 0.7680
C18 C 0.8696(16) 1.0714(12) 0.7722(5)
H10 H 0.9009 1.1795 0.7544
H11 H 0.8508 1.0001 0.7203
H12 H 0.9624 1.0473 0.8152
C19 C 0.7261(9) 1.1657(6) 0.8917(4)
H13 H 0.8100 1.1395 0.9392
H14 H 0.6156 1.1588 0.9126
H15 H 0.7660 1.2724 0.8737
C20 C 0.4090(8) 0.8159(9) 0.8756(6)
H16 H 0.4194 0.8764 0.9325
C21 C 0.2842(6) 0.8791(6) 0.8073(3)
H17 H 0.2762 0.8248 0.7502
H18 H 0.3256 0.9914 0.8019
H19 H 0.1709 0.8618 0.8260
C22 C 0.3379(7) 0.6438(6) 0.8906(3)
H20 H 0.2276 0.6346 0.9121
H21 H 0.4187 0.6041 0.9344
H22 H 0.3218 0.5828 0.8351
Si1A Si 0.37050(9) 0.16385(9) 0.15566(4)
F1A F 0.99119(17) 0.16008(16) 0.42096(9)
F2A F 1.27591(19) 0.05236(17) 0.45524(10)
F3A F 1.48247(18) 0.11933(18) 0.61169(11)
F4A F 1.39283(19) 0.29950(19) 0.73541(10)
F5A F 1.10891(17) 0.40891(17) 0.70478(9)
C1A C 0.4592(3) 0.4232(3) 0.41426(14)
C2A C 0.5992(16) 0.408(2) 0.4667(7)
S1A S 0.74280(15) 0.30176(15) 0.43978(9)
C3A C 0.8784(16) 0.356(2) 0.5419(15)
C4A C 0.8054(7) 0.4398(7) 0.5921(4)
H1A H 0.8541 0.4720 0.6511
C5A C 0.6501(18) 0.4778(17) 0.5517(9)
C6A C 1.0316(3) 0.2889(2) 0.56153(14)
C7A C 1.0853(3) 0.1975(3) 0.50054(15)
C8A C 1.2338(3) 0.1397(3) 0.51647(16)
C9A C 1.3386(3) 0.1734(3) 0.59606(17)
C10A C 1.2914(3) 0.2635(3) 0.65781(16)
C11A C 1.1428(3) 0.3195(3) 0.64064(15)
C12A C 0.4217(3) 0.3468(3) 0.32955(16)
C13A C 0.3955(3) 0.2783(3) 0.25974(16)
C14A C 0.2111(5) 0.2251(4) 0.0746(2)
H2A H 0.0972 0.1597 0.0811
C15A C 0.1999(8) 0.3953(8) 0.0891(4)
H3A H 0.1130 0.4229 0.0438
H4A H 0.1682 0.4102 0.1474
H5A H 0.3112 0.4624 0.0855
C16A C 0.2428(7) 0.1972(6) -0.0203(3)
H6A H 0.3561 0.2562 -0.0280
H7A H 0.2378 0.0854 -0.0314
H8A H 0.1548 0.2322 -0.0619
C17A C 0.2946(5) -0.0517(4) 0.1865(2)
H9A H 0.3859 -0.0777 0.2320
C18A C 0.1304(16) -0.0714(12) 0.2278(5)
H10A H 0.0991 -0.1795 0.2456
H11A H 0.1492 -0.0001 0.2797
H12A H 0.0376 -0.0473 0.1848
C19A C 0.2739(9) -0.1657(6) 0.1083(4)
H13A H 0.1900 -0.1395 0.0608
H14A H 0.3844 -0.1588 0.0874
H15A H 0.2340 -0.2724 0.1263
C20A C 0.5910(8) 0.1841(9) 0.1244(6)
H16A H 0.5806 0.1236 0.0675
C21A C 0.7158(6) 0.1209(6) 0.1927(3)
H17A H 0.7238 0.1752 0.2498
H18A H 0.6744 0.0086 0.1981
H19A H 0.8291 0.1382 0.1740
C22A C 0.6621(7) 0.3562(6) 0.1094(3)
H20A H 0.7724 0.3654 0.0879
H21A H 0.5813 0.3959 0.0656
H22A H 0.6782 0.4172 0.1649
C23? C 0.383(3) 0.588(3) 0.5187(13)
C24? C 0.2490(10) 0.6699(9) 0.5258(6)
H23? H 0.2420 0.7263 0.5780
C25? C 0.135(3) 0.661(3) 0.454(2)
S2? S 0.1748(2) 0.5294(2) 0.37340(15)
C26? C 0.360(3) 0.505(3) 0.4373(14)
C27? C 0.6985(12) 0.6738(12) 0.9406(6)
H24? H 0.6027 0.5803 0.9333
C28? C 0.712(2) 0.7411(17) 1.0338(8)
H25? H 0.6074 0.7791 1.0400
H26? H 0.8109 0.8279 1.0454
H27? H 0.7265 0.6596 1.0760
C29? C 0.8623(18) 0.615(3) 0.9290(12)
H28? H 0.8511 0.5706 0.8690
H29? H 0.8793 0.5340 0.9713
H30? H 0.9609 0.7021 0.9392
C30? C 0.8084(13) 0.9917(11) 0.8587(6)
H31? H 0.9106 0.9531 0.8884
C31? C 0.776(2) 1.1249(17) 0.9156(11)
H32? H 0.7203 1.0813 0.9650
H33? H 0.7016 1.1844 0.8800
H34? H 0.8853 1.1942 0.9383
C32? C 0.842(5) 1.049(3) 0.7686(12)
H35? H 0.8586 0.9621 0.7321
H36? H 0.9459 1.1315 0.7754
H37? H 0.7446 1.0913 0.7402
C33? C 0.423(3) 0.848(2) 0.8633(16)
H38? H 0.4386 0.9136 0.9189
C34? C 0.3519(18) 0.9460(15) 0.7898(8)
H39? H 0.4389 1.0388 0.7828
H40? H 0.2495 0.9784 0.8051
H41? H 0.3219 0.8831 0.7344
C35? C 0.2893(17) 0.7026(16) 0.8747(9)
H42? H 0.3375 0.6394 0.9204
H43? H 0.2567 0.6411 0.8190
H44? H 0.1879 0.7339 0.8921
loop_
_geom_bond_atom_site_label_1
_geom_bond_atom_site_label_2
_geom_bond_site_symmetry_1
_geom_bond_site_symmetry_2
Si1 C13 1_555 1_555
F1 C7 1_555 1_555
F2 C8 1_555 1_555
F3 C9 1_555 1_555
F4 C10 1_555 1_555
F5 C11 1_555 1_555
C1 C2 1_555 1_555
C2 S1 1_555 1_555
S1 C3 1_555 1_555
C3 C4 1_555 1_555
C4 H1 1_555 1_555
C5 C2 1_555 1_555
C6 C3 1_555 1_555
C7 C6 1_555 1_555
C8 C7 1_555 1_555
C9 C8 1_555 1_555
C10 C9 1_555 1_555
C11 C6 1_555 1_555
C12 C1 1_555 1_555
C13 C12 1_555 1_555
C14 Si1 1_555 1_555
H2 C14 1_555 1_555
C15 C14 1_555 1_555
H3 C15 1_555 1_555
H4 C15 1_555 1_555
H5 C15 1_555 1_555
C16 C14 1_555 1_555
H6 C16 1_555 1_555
H7 C16 1_555 1_555
H8 C16 1_555 1_555
C17 Si1 1_555 1_555
H9 C17 1_555 1_555
C18 C17 1_555 1_555
H10 C18 1_555 1_555
H11 C18 1_555 1_555
H12 C18 1_555 1_555
C19 C17 1_555 1_555
H13 C19 1_555 1_555
H14 C19 1_555 1_555
H15 C19 1_555 1_555
C20 Si1 1_555 1_555
H16 C20 1_555 1_555
C21 C20 1_555 1_555
H17 C21 1_555 1_555
H18 C21 1_555 1_555
H19 C21 1_555 1_555
C22 C20 1_555 1_555
H20 C22 1_555 1_555
H21 C22 1_555 1_555
H22 C22 1_555 1_555
Si1A C13A 1_555 1_555
F1A C7A 1_555 1_555
F2A C8A 1_555 1_555
F3A C9A 1_555 1_555
F4A C10A 1_555 1_555
F5A C11A 1_555 1_555
C1A C5 1_555 1_555
C2A C1A 1_555 1_555
S1A C2A 1_555 1_555
C3A S1A 1_555 1_555
C4A C3A 1_555 1_555
H1A C4A 1_555 1_555
C5A C1 1_555 1_555
C6A C3A 1_555 1_555
C7A C6A 1_555 1_555
C8A C7A 1_555 1_555
C9A C8A 1_555 1_555
C10A C9A 1_555 1_555
C11A C6A 1_555 1_555
C12A C1A 1_555 1_555
C13A C12A 1_555 1_555
C14A Si1A 1_555 1_555
H2A C14A 1_555 1_555
C15A C14A 1_555 1_555
H3A C15A 1_555 1_555
H4A C15A 1_555 1_555
H5A C15A 1_555 1_555
C16A C14A 1_555 1_555
H6A C16A 1_555 1_555
H7A C16A 1_555 1_555
H8A C16A 1_555 1_555
C17A Si1A 1_555 1_555
H9A C17A 1_555 1_555
C18A C17A 1_555 1_555
H10A C18A 1_555 1_555
H11A C18A 1_555 1_555
H12A C18A 1_555 1_555
C19A C17A 1_555 1_555
H13A C19A 1_555 1_555
H14A C19A 1_555 1_555
H15A C19A 1_555 1_555
C20A Si1A 1_555 1_555
H16A C20A 1_555 1_555
C21A C20A 1_555 1_555
H17A C21A 1_555 1_555
H18A C21A 1_555 1_555
H19A C21A 1_555 1_555
C22A C20A 1_555 1_555
H20A C22A 1_555 1_555
H21A C22A 1_555 1_555
H22A C22A 1_555 1_555
C4 C5 1_555 1_555
C10 C11 1_555 1_555
C2A C5A 1_555 1_555
C4A C5A 1_555 1_555
C10A C11A 1_555 1_555

#END
