
#######################################################################
#
#                 Cambridge Crystallographic Data Centre
#                                CCDC 
#
#######################################################################
#
# If this CIF has been generated from an entry in the Cambridge 
# Structural Database, then it will include bibliographic, chemical, 
# crystal, experimental, refinement or atomic coordinate data resulting 
# from the CCDC's data processing and validation procedures.
#
#######################################################################

data_XURVEN
_chemical_formula_moiety         'C27 H22 N1 O1 P1'
_chemical_name_systematic        
6-(Diphenylphosphoryl)-2,8-dimethylphenanthridine
_symmetry_cell_setting           triclinic
_symmetry_space_group_name_H-M   'P -1'
_symmetry_Int_Tables_number      2
_space_group_name_Hall           '-P 1'
loop_
_symmetry_equiv_pos_site_id
_symmetry_equiv_pos_as_xyz
1 x,y,z
2 -x,-y,-z
_cell_length_a                   9.1458(2)
_cell_length_b                   12.1107(2)
_cell_length_c                   19.6005(3)
_cell_angle_alpha                100.663(1)
_cell_angle_beta                 99.955(1)
_cell_angle_gamma                92.248(1)
_cell_volume                     2095.69
_exptl_crystal_colour            colorless
_exptl_crystal_description       prism
_cell_formula_units_Z            4
loop_
_atom_site_label
_atom_site_type_symbol
_atom_site_fract_x
_atom_site_fract_y
_atom_site_fract_z
P1 P 0.52747(6) 0.78248(4) 0.20163(3)
O1 O 0.50241(18) 0.65797(12) 0.18436(8)
N1 N 0.35867(19) 0.94321(14) 0.16333(9)
C1 C 0.4246(2) 0.85587(17) 0.13683(11)
C2 C 0.4291(2) 0.82186(17) 0.06251(10)
C3 C 0.5015(2) 0.72708(18) 0.03570(11)
H1 H 0.5461 0.6824 0.0668
C4 C 0.5084(3) 0.69854(19) -0.03504(12)
C5 C 0.4414(3) 0.7668(2) -0.08015(12)
H2 H 0.4468 0.7491 -0.1284
C6 C 0.3685(3) 0.8581(2) -0.05618(12)
H3 H 0.3240 0.9015 -0.0881
C7 C 0.3592(2) 0.88833(18) 0.01603(11)
C8 C 0.2832(2) 0.98350(17) 0.04447(11)
C9 C 0.2068(3) 1.05403(19) 0.00337(12)
H4 H 0.2050 1.0397 -0.0456
C10 C 0.1346(3) 1.14328(19) 0.03239(13)
C11 C 0.1375(3) 1.16479(19) 0.10556(13)
H5 H 0.0882 1.2254 0.1260
C12 C 0.2115(3) 1.09824(18) 0.14729(12)
H6 H 0.2127 1.1139 0.1962
C13 C 0.2855(2) 1.00690(17) 0.11800(11)
C14 C 0.5853(3) 0.5978(2) -0.06392(14)
H7 H 0.6258 0.5605 -0.0258
H8 H 0.6654 0.6218 -0.0857
H9 H 0.5144 0.5458 -0.0989
C15 C 0.0532(3) 1.2173(2) -0.01327(16)
H10 H 0.0669 1.1933 -0.0616
H11 H 0.0924 1.2950 0.0039
H12 H -0.0521 1.2112 -0.0114
C16 C 0.4758(3) 0.83957(19) 0.28522(11)
C17 C 0.3673(3) 0.7796(3) 0.30716(14)
H13 H 0.3240 0.7106 0.2794
C18 C 0.3218(4) 0.8221(4) 0.37099(17)
H14 H 0.2471 0.7820 0.3859
C19 C 0.3861(4) 0.9219(4) 0.41162(16)
H15 H 0.3540 0.9508 0.4540
C20 C 0.4964(5) 0.9798(3) 0.39131(15)
H16 H 0.5420 1.0472 0.4203
C21 C 0.5411(4) 0.9398(2) 0.32832(13)
H17 H 0.6165 0.9806 0.3143
C22 C 0.7180(2) 0.83216(17) 0.20812(10)
C23 C 0.8283(3) 0.76011(19) 0.22295(12)
H18 H 0.8020 0.6862 0.2271
C24 C 0.9760(3) 0.7964(2) 0.23158(14)
H19 H 1.0500 0.7472 0.2419
C25 C 1.0164(3) 0.9043(2) 0.22519(13)
H20 H 1.1175 0.9285 0.2313
C26 C 0.9078(3) 0.9771(2) 0.20978(13)
H21 H 0.9350 1.0507 0.2053
C27 C 0.7593(3) 0.94112(18) 0.20107(12)
H22 H 0.6856 0.9904 0.1903
P2 P 0.95108(6) 0.37828(4) 0.27826(3)
O2 O 1.02309(18) 0.27010(12) 0.27397(8)
N2 N 0.9473(2) 0.57568(15) 0.35778(9)
C28 C 1.0198(2) 0.48549(17) 0.35900(10)
C29 C 1.1343(2) 0.47067(17) 0.41643(10)
C30 C 1.2171(2) 0.37485(18) 0.41467(11)
H23 H 1.1979 0.3170 0.3743
C31 C 1.3250(3) 0.3641(2) 0.47056(12)
C32 C 1.3507(3) 0.4508(2) 0.53084(12)
H24 H 1.4234 0.4438 0.5697
C33 C 1.2729(3) 0.5450(2) 0.53430(11)
H25 H 1.2931 0.6016 0.5753
C34 C 1.1626(2) 0.55854(17) 0.47716(10)
C35 C 1.0776(2) 0.65636(17) 0.47776(10)
C36 C 1.0892(3) 0.74495(18) 0.53644(11)
H26 H 1.1591 0.7427 0.5773
C37 C 1.0018(3) 0.83472(18) 0.53598(12)
C38 C 0.9018(3) 0.83985(19) 0.47376(13)
H27 H 0.8436 0.9019 0.4722
C39 C 0.8881(3) 0.75563(19) 0.41536(12)
H28 H 0.8211 0.7606 0.3741
C40 C 0.9734(2) 0.66199(17) 0.41665(11)
C41 C 1.4136(3) 0.2619(2) 0.46780(15)
H29 H 1.3670 0.2040 0.4280
H30 H 1.4169 0.2337 0.5112
H31 H 1.5140 0.2821 0.4624
C42 C 1.0059(4) 0.9222(2) 0.60229(14)
H32 H 0.9664 0.8880 0.6369
H33 H 0.9462 0.9832 0.5912
H34 H 1.1079 0.9517 0.6214
C43 C 0.9774(2) 0.44943(17) 0.20777(10)
C44 C 0.8687(3) 0.4471(2) 0.14869(12)
H35 H 0.7729 0.4135 0.1460
C45 C 0.9016(3) 0.4948(3) 0.09353(14)
H36 H 0.8277 0.4935 0.0535
C46 C 1.0409(3) 0.5436(2) 0.09679(13)
H37 H 1.0617 0.5761 0.0592
C47 C 1.1505(3) 0.5453(2) 0.15464(13)
H38 H 1.2465 0.5777 0.1565
C48 C 1.1181(2) 0.49898(19) 0.20994(12)
H39 H 1.1926 0.5010 0.2498
C49 C 0.7532(2) 0.35871(17) 0.27516(10)
C50 C 0.6945(3) 0.25130(18) 0.27635(11)
H40 H 0.7575 0.1921 0.2785
C51 C 0.5435(3) 0.2314(2) 0.27435(13)
H41 H 0.5046 0.1589 0.2754
C52 C 0.4501(3) 0.3175(2) 0.27081(13)
H42 H 0.3478 0.3040 0.2698
C53 C 0.5076(3) 0.4239(2) 0.26867(13)
H43 H 0.4437 0.4825 0.2658
C54 C 0.6576(3) 0.44472(19) 0.27075(12)
H44 H 0.6956 0.5173 0.2692
loop_
_geom_bond_atom_site_label_1
_geom_bond_atom_site_label_2
_geom_bond_site_symmetry_1
_geom_bond_site_symmetry_2
P1 O1 1_555 1_555
N1 C1 1_555 1_555
C1 P1 1_555 1_555
C2 C1 1_555 1_555
C3 C2 1_555 1_555
H1 C3 1_555 1_555
C4 C3 1_555 1_555
C5 C4 1_555 1_555
H2 C5 1_555 1_555
C6 C5 1_555 1_555
H3 C6 1_555 1_555
C7 C2 1_555 1_555
C8 C7 1_555 1_555
C9 C8 1_555 1_555
H4 C9 1_555 1_555
C10 C9 1_555 1_555
C11 C10 1_555 1_555
H5 C11 1_555 1_555
C12 C11 1_555 1_555
H6 C12 1_555 1_555
C13 N1 1_555 1_555
C14 C4 1_555 1_555
H7 C14 1_555 1_555
H8 C14 1_555 1_555
H9 C14 1_555 1_555
C15 C10 1_555 1_555
H10 C15 1_555 1_555
H11 C15 1_555 1_555
H12 C15 1_555 1_555
C16 P1 1_555 1_555
C17 C16 1_555 1_555
H13 C17 1_555 1_555
C18 C17 1_555 1_555
H14 C18 1_555 1_555
C19 C18 1_555 1_555
H15 C19 1_555 1_555
C20 C19 1_555 1_555
H16 C20 1_555 1_555
C21 C16 1_555 1_555
H17 C21 1_555 1_555
C22 P1 1_555 1_555
C23 C22 1_555 1_555
H18 C23 1_555 1_555
C24 C23 1_555 1_555
H19 C24 1_555 1_555
C25 C24 1_555 1_555
H20 C25 1_555 1_555
C26 C25 1_555 1_555
H21 C26 1_555 1_555
C27 C22 1_555 1_555
H22 C27 1_555 1_555
P2 O2 1_555 1_555
N2 C28 1_555 1_555
C28 P2 1_555 1_555
C29 C28 1_555 1_555
C30 C29 1_555 1_555
H23 C30 1_555 1_555
C31 C30 1_555 1_555
C32 C31 1_555 1_555
H24 C32 1_555 1_555
C33 C32 1_555 1_555
H25 C33 1_555 1_555
C34 C29 1_555 1_555
C35 C34 1_555 1_555
C36 C35 1_555 1_555
H26 C36 1_555 1_555
C37 C36 1_555 1_555
C38 C37 1_555 1_555
H27 C38 1_555 1_555
C39 C38 1_555 1_555
H28 C39 1_555 1_555
C40 N2 1_555 1_555
C41 C31 1_555 1_555
H29 C41 1_555 1_555
H30 C41 1_555 1_555
H31 C41 1_555 1_555
C42 C37 1_555 1_555
H32 C42 1_555 1_555
H33 C42 1_555 1_555
H34 C42 1_555 1_555
C43 P2 1_555 1_555
C44 C43 1_555 1_555
H35 C44 1_555 1_555
C45 C44 1_555 1_555
H36 C45 1_555 1_555
C46 C45 1_555 1_555
H37 C46 1_555 1_555
C47 C46 1_555 1_555
H38 C47 1_555 1_555
C48 C43 1_555 1_555
H39 C48 1_555 1_555
C49 P2 1_555 1_555
C50 C49 1_555 1_555
H40 C50 1_555 1_555
C51 C50 1_555 1_555
H41 C51 1_555 1_555
C52 C51 1_555 1_555
H42 C52 1_555 1_555
C53 C52 1_555 1_555
H43 C53 1_555 1_555
C54 C49 1_555 1_555
H44 C54 1_555 1_555
C6 C7 1_555 1_555
C8 C13 1_555 1_555
C12 C13 1_555 1_555
C20 C21 1_555 1_555
C26 C27 1_555 1_555
C33 C34 1_555 1_555
C35 C40 1_555 1_555
C39 C40 1_555 1_555
C47 C48 1_555 1_555
C53 C54 1_555 1_555

#END
