
#######################################################################
#
#                 Cambridge Crystallographic Data Centre
#                                CCDC 
#
#######################################################################
#
# If this CIF has been generated from an entry in the Cambridge 
# Structural Database, then it will include bibliographic, chemical, 
# crystal, experimental, refinement or atomic coordinate data resulting 
# from the CCDC's data processing and validation procedures.
#
#######################################################################

data_XUTBUJ
_chemical_name_common            
'bis(C-n-Propylcalix[4]resorcinarene) diethyl(dimethyl)ammonium clathrate bromide methanol solvate'
_chemical_formula_moiety         
'C6 H16 N1 1+,Br1 1-,2(C40 H48 O8),4(C1 H4 O1),0.5(H2 O1)'
_chemical_name_systematic        
'bis(2,8,14,20-Tetra-n-propyl-4,6,10,12,16,18,22,24-octahydroxycalix(4)arene) diethyl(dimethyl)ammonium clathrate bromide methanol solvate hemihydrate'
_symmetry_cell_setting           triclinic
_symmetry_space_group_name_H-M   'P -1'
_symmetry_Int_Tables_number      2
_space_group_name_Hall           '-P 1'
loop_
_symmetry_equiv_pos_site_id
_symmetry_equiv_pos_as_xyz
1 x,y,z
2 -x,-y,-z
_cell_length_a                   13.2301(2)
_cell_length_b                   13.5456(3)
_cell_length_c                   14.7790(4)
_cell_angle_alpha                105.8011(6)
_cell_angle_beta                 90.7846(7)
_cell_angle_gamma                118.409(1)
_cell_volume                     2209.22
_cell_formula_units_Z            1
loop_
_atom_site_label
_atom_site_type_symbol
_atom_site_fract_x
_atom_site_fract_y
_atom_site_fract_z
O1 O 0.4024(3) 0.2496(3) 0.2456(2)
H1 H 0.3654 0.1889 0.2622
O2 O -0.3293(3) -0.2815(3) 0.1855(2)
H2 H -0.3766 -0.3362 0.1374
O3 O 0.3051(3) 0.4966(3) 0.1308(3)
H3 H 0.3634 0.5051 0.1046
O4 O -0.1150(3) -0.2567(3) 0.2504(3)
H4 H -0.1810 -0.2646 0.2376
O5 O -0.4264(3) -0.0601(3) 0.0339(2)
H5 H -0.3899 0.0069 0.0267
O6 O 0.2788(3) 0.0372(3) 0.2761(3)
H6 H 0.2837 -0.0245 0.2577
O7 O -0.2994(3) 0.1506(3) -0.0064(2)
H7 H -0.2966 0.1680 -0.0571
O8 O 0.0935(3) 0.4562(3) 0.0435(3)
H8 H 0.1581 0.4777 0.0744
C1 C 0.2076(3) 0.4193(4) 0.2500(3)
C2 C 0.2587(3) 0.2957(4) 0.3135(3)
C3 C -0.2991(4) 0.0401(4) 0.1857(3)
C4 C -0.0783(4) 0.3124(4) 0.2079(3)
H9 H -0.0701 0.3144 0.2724
C5 C 0.1947(3) 0.3519(4) 0.3097(3)
H10 H 0.1384 0.3437 0.3506
C6 C -0.0592(4) -0.0503(4) 0.3282(3)
C7 C 0.2453(4) 0.2263(4) 0.3821(3)
H11 H 0.3188 0.2229 0.3888
C8 C -0.2483(3) -0.0752(4) 0.2606(3)
C9 C 0.1467(4) 0.0987(4) 0.3435(3)
C10 C 0.0186(4) 0.3894(4) 0.1774(3)
C11 C -0.2401(3) 0.0303(4) 0.2587(3)
H12 H -0.1913 0.1000 0.3102
C12 C -0.0325(4) -0.1383(4) 0.2813(3)
C13 C 0.0318(4) 0.0653(4) 0.3575(3)
H13 H 0.0153 0.1259 0.3890
C14 C 0.0053(4) 0.3843(4) 0.0822(3)
C15 C -0.2917(4) 0.1571(4) 0.1897(3)
H14 H -0.3622 0.1367 0.1463
C16 C -0.3191(4) -0.1759(4) 0.1844(3)
C17 C 0.3378(4) 0.3060(4) 0.2494(3)
C18 C -0.1863(4) 0.2329(4) 0.1504(3)
C19 C 0.0795(4) -0.1084(4) 0.2651(3)
H15 H 0.0963 -0.1687 0.2333
C20 C -0.3669(4) -0.0626(4) 0.1094(3)
C21 C -0.1881(4) -0.0051(4) 0.4408(3)
H16 H -0.1401 -0.0064 0.4919
H17 H -0.1537 0.0778 0.4410
C22 C -0.1948(4) 0.2292(4) 0.0558(3)
C23 C -0.3766(4) -0.1705(4) 0.1082(3)
H18 H -0.4223 -0.2397 0.0554
C24 C -0.2976(4) 0.2255(4) 0.2891(3)
H19 H -0.2305 0.2444 0.3346
H20 H -0.2895 0.3014 0.2870
C25 C 0.2362(4) 0.2895(4) 0.4835(3)
H21 H 0.1704 0.3046 0.4790
H22 H 0.2185 0.2362 0.5226
C26 C 0.1333(4) 0.4771(4) 0.2461(3)
H23 H 0.1772 0.5423 0.2184
C27 C -0.1833(4) -0.0810(4) 0.3439(3)
H24 H -0.2248 -0.1650 0.3437
C28 C 0.3543(4) 0.3729(4) 0.1894(3)
H25 H 0.4097 0.3800 0.1477
C29 C -0.1005(4) 0.3042(4) 0.0213(3)
H26 H -0.1085 0.3007 -0.0437
C30 C 0.2901(4) 0.4297(4) 0.1900(3)
C31 C 0.1671(4) 0.0081(4) 0.2949(3)
C32 C 0.3466(4) 0.4061(4) 0.5338(4)
H27 H 0.4137 0.3923 0.5341
H28 H 0.3609 0.4620 0.4976
C33 C -0.3107(4) -0.0472(4) 0.4623(4)
H29 H -0.3344 -0.1162 0.4852
H30 H -0.3645 -0.0738 0.4027
C34 C -0.4091(4) 0.1603(4) 0.3266(3)
H31 H -0.4123 0.0899 0.3374
H32 H -0.4770 0.1324 0.2778
C35 C 0.1156(4) 0.5347(4) 0.3449(3)
H33 H 0.0676 0.4718 0.3726
H34 H 0.1925 0.5863 0.3870
C36 C -0.4178(4) 0.2374(5) 0.4192(4)
H35 H -0.3513 0.2645 0.4680
H36 H -0.4905 0.1913 0.4406
H37 H -0.4171 0.3059 0.4084
C37 C 0.0580(5) 0.6067(5) 0.3437(4)
H38 H -0.0154 0.5573 0.2969
H39 H 0.1097 0.6745 0.3221
C38 C -0.3224(5) 0.0474(5) 0.5367(4)
H40 H -0.2646 0.0792 0.5941
H41 H -0.4009 0.0129 0.5529
H42 H -0.3093 0.1114 0.5111
C39 C 0.3391(5) 0.4607(5) 0.6341(4)
H43 H 0.2683 0.4670 0.6348
H44 H 0.4075 0.5398 0.6607
H45 H 0.3364 0.4112 0.6725
C40 C 0.0307(6) 0.6534(6) 0.4411(5)
H46 H -0.0247 0.5867 0.4609
H47 H -0.0033 0.7026 0.4367
H48 H 0.1028 0.7009 0.4881
N1 N 0.0000 0.0000 0.0000
C41 C 0.1188(6) 0.1996(6) -0.0304(5)
C42 C 0.050(2) 0.134(2) 0.0376(18)
C44 C -0.1151(12) 0.000(2) -0.017(2)
C42A C -0.050(2) -0.134(2) -0.0376(18)
C41A C -0.1188(6) -0.1996(6) 0.0304(5)
C44A C 0.1151(12) 0.000(2) 0.017(2)
Br1 Br -0.5000 -0.5000 0.0000
O9 O -0.3081(4) 0.1482(4) -0.1905(3)
H49 H -0.3522 0.0955 -0.1675
C47 C -0.3716(5) 0.1932(5) -0.2257(4)
H50 H -0.3562 0.2676 -0.1785
H51 H -0.4551 0.1357 -0.2375
H52 H -0.3475 0.2076 -0.2854
O10 O 0.5437(3) 0.2651(4) 0.1120(3)
H53 H 0.5243 0.2732 0.1663
C48 C 0.6469(6) 0.3730(6) 0.1132(5)
H54 H 0.6326 0.4397 0.1352
H55 H 0.6658 0.3660 0.0486
H56 H 0.7123 0.3866 0.1564
O11 O 0.0692(17) 0.4191(15) -0.1397(13)
C43? C -0.066(2) -0.064(2) 0.0678(18)
C45? C -0.101(3) -0.040(3) -0.081(2)
C46? C 0.010(2) -0.063(2) -0.1017(19)
loop_
_geom_bond_atom_site_label_1
_geom_bond_atom_site_label_2
_geom_bond_site_symmetry_1
_geom_bond_site_symmetry_2
O1 H1 1_555 1_555
O2 H2 1_555 1_555
O3 H3 1_555 1_555
O4 H4 1_555 1_555
O5 H5 1_555 1_555
O6 H6 1_555 1_555
O7 H7 1_555 1_555
O8 H8 1_555 1_555
C1 C5 1_555 1_555
C2 C5 1_555 1_555
C3 C11 1_555 1_555
C4 H9 1_555 1_555
C5 H10 1_555 1_555
C6 C12 1_555 1_555
C7 C2 1_555 1_555
H11 C7 1_555 1_555
C8 C11 1_555 1_555
C9 C7 1_555 1_555
C10 C4 1_555 1_555
C11 H12 1_555 1_555
C12 O4 1_555 1_555
C13 C6 1_555 1_555
H13 C13 1_555 1_555
C14 O8 1_555 1_555
C15 C3 1_555 1_555
H14 C15 1_555 1_555
C16 O2 1_555 1_555
C17 O1 1_555 1_555
C18 C4 1_555 1_555
C19 C12 1_555 1_555
H15 C19 1_555 1_555
C20 O5 1_555 1_555
C21 H16 1_555 1_555
H17 C21 1_555 1_555
C22 O7 1_555 1_555
C23 C16 1_555 1_555
H18 C23 1_555 1_555
C24 C15 1_555 1_555
H19 C24 1_555 1_555
H20 C24 1_555 1_555
C25 C7 1_555 1_555
H21 C25 1_555 1_555
H22 C25 1_555 1_555
C26 C1 1_555 1_555
H23 C26 1_555 1_555
C27 C6 1_555 1_555
H24 C27 1_555 1_555
C28 C17 1_555 1_555
H25 C28 1_555 1_555
C29 C14 1_555 1_555
H26 C29 1_555 1_555
C30 O3 1_555 1_555
C31 O6 1_555 1_555
C32 C25 1_555 1_555
H27 C32 1_555 1_555
H28 C32 1_555 1_555
C33 C21 1_555 1_555
H29 C33 1_555 1_555
H30 C33 1_555 1_555
C34 C24 1_555 1_555
H31 C34 1_555 1_555
H32 C34 1_555 1_555
C35 C26 1_555 1_555
H33 C35 1_555 1_555
H34 C35 1_555 1_555
C36 C34 1_555 1_555
H35 C36 1_555 1_555
H36 C36 1_555 1_555
H37 C36 1_555 1_555
C37 C35 1_555 1_555
H38 C37 1_555 1_555
H39 C37 1_555 1_555
C38 C33 1_555 1_555
H40 C38 1_555 1_555
H41 C38 1_555 1_555
H42 C38 1_555 1_555
C39 C32 1_555 1_555
H43 C39 1_555 1_555
H44 C39 1_555 1_555
H45 C39 1_555 1_555
C40 C37 1_555 1_555
H46 C40 1_555 1_555
H47 C40 1_555 1_555
H48 C40 1_555 1_555
N1 C42 1_555 1_555
C41 C42 1_555 1_555
C44 N1 1_555 1_555
O9 H49 1_555 1_555
C47 O9 1_555 1_555
H50 C47 1_555 1_555
H51 C47 1_555 1_555
H52 C47 1_555 1_555
O10 H53 1_555 1_555
C48 O10 1_555 1_555
H54 C48 1_555 1_555
H55 C48 1_555 1_555
H56 C48 1_555 1_555
C42A N1 1_555 1_555
C41A C42A 1_555 1_555
C44A N1 1_555 1_555
C1 C30 1_555 1_555
C2 C17 1_555 1_555
C3 C20 1_555 1_555
C8 C16 1_555 1_555
C8 C27 1_555 1_555
C9 C31 1_555 1_555
C9 C13 1_555 1_555
C10 C26 1_555 1_555
C10 C14 1_555 1_555
C15 C18 1_555 1_555
C18 C22 1_555 1_555
C19 C31 1_555 1_555
C20 C23 1_555 1_555
C21 C27 1_555 1_555
C22 C29 1_555 1_555
C28 C30 1_555 1_555

#END
