
#######################################################################
#
#                 Cambridge Crystallographic Data Centre
#                                CCDC 
#
#######################################################################
#
# If this CIF has been generated from an entry in the Cambridge 
# Structural Database, then it will include bibliographic, chemical, 
# crystal, experimental, refinement or atomic coordinate data resulting 
# from the CCDC's data processing and validation procedures.
#
#######################################################################

data_XUTDEW
_chemical_formula_moiety         '2(C36 H30 N1 P2 1+),C6 N6 O6 Si1 2-'
_chemical_name_systematic        
'bis(bis(Triphenylphosphino)iminium) hexakis(cyanato)silicate'
_symmetry_cell_setting           triclinic
_symmetry_space_group_name_H-M   'P -1'
_symmetry_Int_Tables_number      2
_space_group_name_Hall           '-P 1'
loop_
_symmetry_equiv_pos_site_id
_symmetry_equiv_pos_as_xyz
1 x,y,z
2 -x,-y,-z
_cell_length_a                   11.6037(5)
_cell_length_b                   12.9974(5)
_cell_length_c                   13.4729(6)
_cell_angle_alpha                63.885(2)
_cell_angle_beta                 70.577(2)
_cell_angle_gamma                75.503(2)
_cell_volume                     1707.67
_exptl_crystal_colour            colorless
_exptl_crystal_description       block
_cell_formula_units_Z            1
loop_
_atom_site_label
_atom_site_type_symbol
_atom_site_fract_x
_atom_site_fract_y
_atom_site_fract_z
Si1 Si 0.0000 1.0000 0.0000
N1 N 0.04729(15) 0.84553(14) 0.07263(15)
N2 N -0.02516(15) 1.02014(14) 0.13406(10)
N3 N 0.16025(14) 1.02722(15) -0.04307(16)
O1 O 0.04718(15) 0.64924(12) 0.19769(14)
O2 O -0.0564(2) 0.96685(19) 0.33178(10)
O3 O 0.33921(13) 1.06520(13) -0.02469(15)
C1 C 0.04622(16) 0.74906(16) 0.13546(17)
C2 C -0.0428(2) 0.99279(17) 0.23222(10)
C3 C 0.24770(16) 1.04556(15) -0.03170(16)
N1A N -0.04729(15) 1.15447(14) -0.07263(15)
N2A N 0.02516(15) 0.97986(14) -0.13406(10)
N3A N -0.16025(14) 0.97278(15) 0.04307(16)
O1A O -0.04718(15) 1.35076(12) -0.19769(14)
O2A O 0.0564(2) 1.03315(19) -0.33178(10)
O3A O -0.33921(13) 0.93480(13) 0.02469(15)
C1A C -0.04622(16) 1.25094(16) -0.13546(17)
C2A C 0.0428(2) 1.00721(17) -0.23222(10)
C3A C -0.24770(16) 0.95444(15) 0.03170(16)
P1 P 0.19131(4) 0.30352(3) 0.26845(4)
P2 P 0.36555(4) 0.40965(3) 0.30098(3)
N4 N 0.24460(12) 0.39925(12) 0.27821(12)
C4 C 0.17353(15) 0.35139(14) 0.12660(14)
C5 C 0.19124(15) 0.46389(15) 0.04856(14)
H1 H 0.2166 0.5145 0.0688
C6 C 0.17154(16) 0.50194(17) -0.05949(15)
H2 H 0.1833 0.5787 -0.1129
C7 C 0.13483(17) 0.42783(18) -0.08911(17)
H3 H 0.1223 0.4538 -0.1630
C8 C 0.11635(18) 0.31594(18) -0.01121(18)
H4 H 0.0909 0.2657 -0.0319
C9 C 0.13492(17) 0.27725(16) 0.09653(17)
H5 H 0.1216 0.2008 0.1500
C10 C 0.03900(15) 0.28493(14) 0.36265(14)
C11 C -0.01050(17) 0.18216(16) 0.40452(18)
H6 H 0.0383 0.1181 0.3885
C12 C -0.13183(18) 0.17362(19) 0.4700(2)
H7 H -0.1656 0.1034 0.4994
C13 C -0.20308(17) 0.26736(19) 0.49228(18)
H8 H -0.2858 0.2612 0.5371
C14 C -0.15474(17) 0.37023(18) 0.44972(17)
H9 H -0.2047 0.4345 0.4648
C15 C -0.03356(16) 0.37989(16) 0.38510(15)
H10 H -0.0002 0.4503 0.3564
C16 C 0.28510(14) 0.16518(13) 0.30269(14)
C17 C 0.36531(17) 0.12816(16) 0.21757(16)
H11 H 0.3617 0.1699 0.1402
C18 C 0.45023(18) 0.03011(17) 0.24656(19)
H12 H 0.5038 0.0044 0.1891
C19 C 0.45672(18) -0.02997(16) 0.35905(19)
H13 H 0.5161 -0.0958 0.3782
C20 C 0.37686(18) 0.00552(16) 0.44393(18)
H14 H 0.3814 -0.0364 0.5210
C21 C 0.29037(16) 0.10209(14) 0.41650(15)
H15 H 0.2348 0.1253 0.4750
C22 C 0.35121(15) 0.36343(13) 0.45169(13)
C23 C 0.24970(16) 0.30930(15) 0.53244(15)
H16 H 0.1875 0.2985 0.5078
C24 C 0.23941(18) 0.27119(17) 0.64867(15)
H17 H 0.1709 0.2333 0.7032
C25 C 0.32889(18) 0.28836(16) 0.68517(15)
H18 H 0.3217 0.2619 0.7646
C26 C 0.42918(17) 0.34424(15) 0.60584(15)
H19 H 0.4898 0.3567 0.6312
C27 C 0.44061(15) 0.38184(14) 0.48945(14)
H20 H 0.5090 0.4201 0.4353
C28 C 0.39065(15) 0.55890(13) 0.23677(13)
C29 C 0.29125(15) 0.64149(15) 0.25535(15)
H21 H 0.2125 0.6183 0.3006
C30 C 0.30849(17) 0.75740(15) 0.20721(16)
H22 H 0.2412 0.8134 0.2196
C31 C 0.42378(17) 0.79198(15) 0.14097(15)
H23 H 0.4349 0.8713 0.1079
C32 C 0.52237(16) 0.71020(15) 0.12336(14)
H24 H 0.6011 0.7337 0.0785
C33 C 0.50633(15) 0.59379(14) 0.17120(14)
H25 H 0.5741 0.5381 0.1592
C34 C 0.50304(14) 0.33274(13) 0.24089(14)
C35 C 0.52368(15) 0.35012(15) 0.12614(14)
H26 H 0.4661 0.4003 0.0840
C36 C 0.62811(16) 0.29419(15) 0.07406(15)
H27 H 0.6418 0.3062 -0.0036
C37 C 0.71231(17) 0.22086(16) 0.13533(16)
H28 H 0.7834 0.1824 0.0997
C38 C 0.69292(18) 0.20358(16) 0.24856(16)
H29 H 0.7512 0.1537 0.2901
C39 C 0.58810(16) 0.25918(15) 0.30190(15)
H30 H 0.5749 0.2468 0.3796
loop_
_geom_bond_atom_site_label_1
_geom_bond_atom_site_label_2
_geom_bond_site_symmetry_1
_geom_bond_site_symmetry_2
Si1 N1 1_555 1_555
N1 C1 1_555 1_555
N2 Si1 1_555 1_555
N3 Si1 1_555 1_555
O1 C1 1_555 1_555
O2 C2 1_555 1_555
O3 C3 1_555 1_555
C2 N2 1_555 1_555
C3 N3 1_555 1_555
P1 N4 1_555 1_555
P2 N4 1_555 1_555
C4 P1 1_555 1_555
C5 C4 1_555 1_555
H1 C5 1_555 1_555
C6 C5 1_555 1_555
H2 C6 1_555 1_555
C7 C6 1_555 1_555
H3 C7 1_555 1_555
C8 C7 1_555 1_555
H4 C8 1_555 1_555
C9 C4 1_555 1_555
H5 C9 1_555 1_555
C10 P1 1_555 1_555
C11 C10 1_555 1_555
H6 C11 1_555 1_555
C12 C11 1_555 1_555
H7 C12 1_555 1_555
C13 C12 1_555 1_555
H8 C13 1_555 1_555
C14 C13 1_555 1_555
H9 C14 1_555 1_555
C15 C10 1_555 1_555
H10 C15 1_555 1_555
C16 P1 1_555 1_555
C17 C16 1_555 1_555
H11 C17 1_555 1_555
C18 C17 1_555 1_555
H12 C18 1_555 1_555
C19 C18 1_555 1_555
H13 C19 1_555 1_555
C20 C19 1_555 1_555
H14 C20 1_555 1_555
C21 C16 1_555 1_555
H15 C21 1_555 1_555
C22 P2 1_555 1_555
C23 C22 1_555 1_555
H16 C23 1_555 1_555
C24 C23 1_555 1_555
H17 C24 1_555 1_555
C25 C24 1_555 1_555
H18 C25 1_555 1_555
C26 C25 1_555 1_555
H19 C26 1_555 1_555
C27 C22 1_555 1_555
H20 C27 1_555 1_555
C28 P2 1_555 1_555
C29 C28 1_555 1_555
H21 C29 1_555 1_555
C30 C29 1_555 1_555
H22 C30 1_555 1_555
C31 C30 1_555 1_555
H23 C31 1_555 1_555
C32 C31 1_555 1_555
H24 C32 1_555 1_555
C33 C28 1_555 1_555
H25 C33 1_555 1_555
C34 P2 1_555 1_555
C35 C34 1_555 1_555
H26 C35 1_555 1_555
C36 C35 1_555 1_555
H27 C36 1_555 1_555
C37 C36 1_555 1_555
H28 C37 1_555 1_555
C38 C37 1_555 1_555
H29 C38 1_555 1_555
C39 C34 1_555 1_555
H30 C39 1_555 1_555
N1A Si1 1_555 1_555
N2A Si1 1_555 1_555
N3A Si1 1_555 1_555
O1A C1A 1_555 1_555
O2A C2A 1_555 1_555
O3A C3A 1_555 1_555
C1A N1A 1_555 1_555
C2A N2A 1_555 1_555
C3A N3A 1_555 1_555
C8 C9 1_555 1_555
C14 C15 1_555 1_555
C20 C21 1_555 1_555
C26 C27 1_555 1_555
C32 C33 1_555 1_555
C38 C39 1_555 1_555

#END
