
#######################################################################
#
#                 Cambridge Crystallographic Data Centre
#                                CCDC 
#
#######################################################################
#
# If this CIF has been generated from an entry in the Cambridge 
# Structural Database, then it will include bibliographic, chemical, 
# crystal, experimental, refinement or atomic coordinate data resulting 
# from the CCDC's data processing and validation procedures.
#
#######################################################################

data_XUTJIH
_chemical_formula_moiety         'C15 H24 O3'
_chemical_name_systematic        1-phenylnonane-2,4,5-triol
_symmetry_cell_setting           orthorhombic
_symmetry_space_group_name_H-M   'P 21 21 21'
_symmetry_Int_Tables_number      19
_space_group_name_Hall           'P 2ac 2ab'
loop_
_symmetry_equiv_pos_site_id
_symmetry_equiv_pos_as_xyz
1 x,y,z
2 1/2-x,-y,1/2+z
3 -x,1/2+y,1/2-z
4 1/2+x,1/2-y,-z
_cell_length_a                   4.7880(2)
_cell_length_b                   10.1270(5)
_cell_length_c                   28.6590(12)
_cell_angle_alpha                90
_cell_angle_beta                 90
_cell_angle_gamma                90
_cell_volume                     1389.62
_cell_formula_units_Z            4
loop_
_atom_site_label
_atom_site_type_symbol
_atom_site_fract_x
_atom_site_fract_y
_atom_site_fract_z
O1 O 0.2749(4) -0.18744(16) 0.00708(5)
H1 H 0.427(5) -0.222(3) 0.0049(9)
O2 O 0.3847(4) 0.16245(16) -0.02052(5)
H2 H 0.536(5) 0.168(3) -0.0347(8)
O3 O 0.3813(4) 0.29946(15) 0.06676(5)
H3 H 0.517(5) 0.309(3) 0.0498(8)
C1 C 0.2714(6) -0.3572(3) -0.16417(8)
H4 H 0.0810 -0.3324 -0.1732
H5 H 0.2647 -0.4328 -0.1429
H6 H 0.3783 -0.3810 -0.1921
C2 C 0.4118(5) -0.2409(2) -0.13988(7)
H7 H 0.6088 -0.2635 -0.1331
H8 H 0.4105 -0.1634 -0.1609
C3 C 0.2642(5) -0.2057(2) -0.09471(7)
H9 H 0.2636 -0.2843 -0.0742
H10 H 0.0674 -0.1835 -0.1018
C4 C 0.3949(5) -0.0909(2) -0.06836(7)
H11 H 0.3732 -0.0094 -0.0871
H12 H 0.5973 -0.1077 -0.0646
C5 C 0.2655(5) -0.0689(2) -0.02041(7)
H13 H 0.0644 -0.0460 -0.0252
C6 C 0.3991(5) 0.0440(2) 0.00684(7)
H14 H 0.5996 0.0221 0.0127
C7 C 0.2540(5) 0.0676(2) 0.05356(6)
H15 H 0.0606 0.0974 0.0473
H16 H 0.2421 -0.0177 0.0703
C8 C 0.3934(5) 0.1681(2) 0.08565(6)
H17 H 0.5935 0.1428 0.0901
C9 C 0.2503(5) 0.1741(2) 0.13347(7)
H18 H 0.0562 0.2056 0.1293
H19 H 0.2420 0.0839 0.1467
C10 C 0.3986(5) 0.2638(2) 0.16759(7)
C11 C 0.3433(5) 0.3985(3) 0.16861(8)
H20 H 0.2089 0.4344 0.1478
C12 C 0.4806(6) 0.4811(3) 0.19942(7)
H21 H 0.4382 0.5727 0.1999
C13 C 0.6805(5) 0.4304(3) 0.22962(8)
H22 H 0.7775 0.4872 0.2504
C14 C 0.7371(6) 0.2962(3) 0.22909(7)
H23 H 0.8727 0.2605 0.2498
C15 C 0.5964(5) 0.2140(2) 0.19847(7)
H24 H 0.6356 0.1221 0.1985
loop_
_geom_bond_atom_site_label_1
_geom_bond_atom_site_label_2
_geom_bond_site_symmetry_1
_geom_bond_site_symmetry_2
O1 H1 1_555 1_555
O2 H2 1_555 1_555
O3 H3 1_555 1_555
C1 H4 1_555 1_555
H5 C1 1_555 1_555
H6 C1 1_555 1_555
C2 C1 1_555 1_555
H7 C2 1_555 1_555
H8 C2 1_555 1_555
C3 C2 1_555 1_555
H9 C3 1_555 1_555
H10 C3 1_555 1_555
C4 C3 1_555 1_555
H11 C4 1_555 1_555
H12 C4 1_555 1_555
C5 O1 1_555 1_555
H13 C5 1_555 1_555
C6 O2 1_555 1_555
H14 C6 1_555 1_555
C7 C6 1_555 1_555
H15 C7 1_555 1_555
H16 C7 1_555 1_555
C8 O3 1_555 1_555
H17 C8 1_555 1_555
C9 C8 1_555 1_555
H18 C9 1_555 1_555
H19 C9 1_555 1_555
C10 C9 1_555 1_555
C11 C10 1_555 1_555
H20 C11 1_555 1_555
C12 C11 1_555 1_555
H21 C12 1_555 1_555
C13 C12 1_555 1_555
H22 C13 1_555 1_555
C14 C13 1_555 1_555
H23 C14 1_555 1_555
C15 C10 1_555 1_555
H24 C15 1_555 1_555
C4 C5 1_555 1_555
C5 C6 1_555 1_555
C7 C8 1_555 1_555
C14 C15 1_555 1_555

#END
