
#######################################################################
#
#                 Cambridge Crystallographic Data Centre
#                                CCDC 
#
#######################################################################
#
# If this CIF has been generated from an entry in the Cambridge 
# Structural Database, then it will include bibliographic, chemical, 
# crystal, experimental, refinement or atomic coordinate data resulting 
# from the CCDC's data processing and validation procedures.
#
#######################################################################

data_XUVFAW
_chemical_name_common            
1-(tris(trimethylsilyl)hydrazino)-2-(2,4,6-trimethylphenyl)diphosphene
_chemical_formula_moiety         'C18 H38 N2 P2 Si3'
_chemical_name_systematic        
2-((Mesityldiphosphenyl)(trimethylsilyl)amino)-1,1,1,3,3,3-hexamethyldisilazane
_symmetry_cell_setting           monoclinic
_symmetry_space_group_name_H-M   'P 21/n'
_symmetry_Int_Tables_number      14
_space_group_name_Hall           '-P 2yn'
loop_
_symmetry_equiv_pos_site_id
_symmetry_equiv_pos_as_xyz
1 x,y,z
2 1/2-x,1/2+y,1/2-z
3 -x,-y,-z
4 1/2+x,1/2-y,1/2+z
_cell_length_a                   9.436(1)
_cell_length_b                   27.814(4)
_cell_length_c                   9.856(2)
_cell_angle_alpha                90
_cell_angle_beta                 97.92(1)
_cell_angle_gamma                90
_cell_volume                     2562.06
_exptl_crystal_colour            yellow
_exptl_crystal_description       plates
_cell_formula_units_Z            4
loop_
_atom_site_label
_atom_site_type_symbol
_atom_site_fract_x
_atom_site_fract_y
_atom_site_fract_z
P1 P 0.31559(7) 0.56121(2) 0.36818(6)
P2 P 0.17760(7) 0.57476(2) 0.19588(7)
Si1 Si 0.52083(7) 0.61077(2) 0.57528(7)
Si2 Si 0.46482(7) 0.67767(2) 0.23877(7)
Si3 Si 0.20415(7) 0.68948(2) 0.40348(7)
N1 N 0.3900(2) 0.61335(6) 0.42671(19)
N2 N 0.35188(19) 0.65853(6) 0.35509(19)
C1 C 0.5397(3) 0.67078(10) 0.6581(3)
H1 H 0.5718 0.6941 0.5943
H2 H 0.6102 0.6690 0.7408
H3 H 0.4472 0.6809 0.6828
C2 C 0.6944(3) 0.59015(12) 0.5278(3)
H4 H 0.7275 0.6130 0.4634
H5 H 0.6823 0.5584 0.4847
H6 H 0.7652 0.5881 0.6103
C3 C 0.4600(3) 0.56709(11) 0.6968(3)
H7 H 0.3681 0.5776 0.7222
H8 H 0.5310 0.5652 0.7791
H9 H 0.4486 0.5354 0.6534
C4 C 0.3577(3) 0.71468(11) 0.1048(3)
H10 H 0.3160 0.7420 0.1479
H11 H 0.2810 0.6950 0.0558
H12 H 0.4197 0.7265 0.0400
C5 C 0.5434(3) 0.62592(10) 0.1562(3)
H13 H 0.4664 0.6054 0.1116
H14 H 0.6043 0.6073 0.2258
H15 H 0.6008 0.6378 0.0876
C6 C 0.6141(3) 0.71614(11) 0.3216(3)
H16 H 0.5747 0.7437 0.3659
H17 H 0.6707 0.7277 0.2519
H18 H 0.6753 0.6973 0.3903
C7 C 0.0487(3) 0.69433(10) 0.2658(3)
H19 H 0.0783 0.7107 0.1862
H20 H -0.0278 0.7128 0.2995
H21 H 0.0135 0.6621 0.2390
C8 C 0.2604(3) 0.75211(9) 0.4523(3)
H22 H 0.2944 0.7681 0.3742
H23 H 0.3377 0.7513 0.5297
H24 H 0.1788 0.7699 0.4787
C9 C 0.1395(3) 0.65824(10) 0.5495(3)
H25 H 0.2183 0.6551 0.6248
H26 H 0.1040 0.6262 0.5203
H27 H 0.0619 0.6769 0.5805
C10 C 0.1261(2) 0.51078(8) 0.1742(2)
C11 C 0.0107(2) 0.49246(8) 0.2349(2)
C12 C -0.0263(2) 0.44465(8) 0.2150(2)
H28 H -0.1027 0.4321 0.2577
C13 C 0.0441(2) 0.41428(8) 0.1350(2)
C14 C 0.1538(2) 0.43339(8) 0.0725(2)
H29 H 0.2024 0.4132 0.0163
C15 C 0.1951(2) 0.48110(9) 0.0894(2)
C16 C -0.0742(3) 0.52344(10) 0.3191(3)
H30 H -0.1575 0.5055 0.3409
H31 H -0.1064 0.5524 0.2671
H32 H -0.0141 0.5327 0.4042
C17 C 0.0038(3) 0.36208(9) 0.1177(3)
H33 H 0.0485 0.3439 0.1975
H34 H 0.0370 0.3495 0.0347
H35 H -0.1005 0.3588 0.1098
C18 C 0.3155(3) 0.49965(10) 0.0173(3)
H36 H 0.3980 0.5075 0.0853
H37 H 0.2838 0.5286 -0.0352
H38 H 0.3427 0.4749 -0.0450
loop_
_geom_bond_atom_site_label_1
_geom_bond_atom_site_label_2
_geom_bond_site_symmetry_1
_geom_bond_site_symmetry_2
P1 P2 1_555 1_555
P2 C10 1_555 1_555
Si1 N1 1_555 1_555
Si2 N2 1_555 1_555
Si3 N2 1_555 1_555
N1 P1 1_555 1_555
N2 N1 1_555 1_555
C1 Si1 1_555 1_555
H1 C1 1_555 1_555
H2 C1 1_555 1_555
H3 C1 1_555 1_555
C2 Si1 1_555 1_555
H4 C2 1_555 1_555
H5 C2 1_555 1_555
H6 C2 1_555 1_555
C3 Si1 1_555 1_555
H7 C3 1_555 1_555
H8 C3 1_555 1_555
H9 C3 1_555 1_555
C4 Si2 1_555 1_555
H10 C4 1_555 1_555
H11 C4 1_555 1_555
H12 C4 1_555 1_555
C5 Si2 1_555 1_555
H13 C5 1_555 1_555
H14 C5 1_555 1_555
H15 C5 1_555 1_555
C6 Si2 1_555 1_555
H16 C6 1_555 1_555
H17 C6 1_555 1_555
H18 C6 1_555 1_555
C7 Si3 1_555 1_555
H19 C7 1_555 1_555
H20 C7 1_555 1_555
H21 C7 1_555 1_555
C8 Si3 1_555 1_555
H22 C8 1_555 1_555
H23 C8 1_555 1_555
H24 C8 1_555 1_555
C9 Si3 1_555 1_555
H25 C9 1_555 1_555
H26 C9 1_555 1_555
H27 C9 1_555 1_555
C10 C11 1_555 1_555
C11 C12 1_555 1_555
C12 H28 1_555 1_555
C13 C12 1_555 1_555
C14 C13 1_555 1_555
H29 C14 1_555 1_555
C15 C10 1_555 1_555
C16 C11 1_555 1_555
H30 C16 1_555 1_555
H31 C16 1_555 1_555
H32 C16 1_555 1_555
C17 C13 1_555 1_555
H33 C17 1_555 1_555
H34 C17 1_555 1_555
H35 C17 1_555 1_555
C18 C15 1_555 1_555
H36 C18 1_555 1_555
H37 C18 1_555 1_555
H38 C18 1_555 1_555
C14 C15 1_555 1_555

#END
