
#######################################################################
#
#                 Cambridge Crystallographic Data Centre
#                                CCDC 
#
#######################################################################
#
# If this CIF has been generated from an entry in the Cambridge 
# Structural Database, then it will include bibliographic, chemical, 
# crystal, experimental, refinement or atomic coordinate data resulting 
# from the CCDC's data processing and validation procedures.
#
#######################################################################

data_XUVLIJ01
_chemical_formula_moiety         'C23 H10 F6 N4 S2'
_chemical_name_systematic        
\a-1,2-bis(2-Methyl-5-(2,2'-dicyanovinyl)-thien-3-yl)perfluorocyclopentene
_symmetry_cell_setting           hexagonal
_symmetry_space_group_name_H-M   'P 61 2 2'
_symmetry_Int_Tables_number      178
_space_group_name_Hall           "P 61 2' (0,0,5)"
loop_
_symmetry_equiv_pos_site_id
_symmetry_equiv_pos_as_xyz
1 x,y,z
2 -y,x-y,1/3+z
3 -x+y,-x,2/3+z
4 -x,-y,1/2+z
5 y,-x+y,5/6+z
6 x-y,x,1/6+z
7 y,x,1/3-z
8 x-y,-y,-z
9 -x,-x+y,2/3-z
10 -y,-x,5/6-z
11 -x+y,y,1/2-z
12 x,x-y,1/6-z
_cell_length_a                   8.405(3)
_cell_length_b                   8.405(3)
_cell_length_c                   57.853(16)
_cell_angle_alpha                90
_cell_angle_beta                 90
_cell_angle_gamma                120
_cell_volume                     3539.42
_exptl_crystal_colour            yellow
_exptl_crystal_description       prism
_chemical_melting_point          209deg.C
_cell_formula_units_Z            6
_chemical_properties_physical    light-sensitive
_exptl_crystal_preparation       photochromic
loop_
_atom_site_label
_atom_site_type_symbol
_atom_site_fract_x
_atom_site_fract_y
_atom_site_fract_z
S1 S 0.32441(4) 1.08073(4) 0.049647(5)
F1 F -0.24634(10) 1.11071(12) 0.036162(15)
F2 F -0.38431(10) 0.82999(12) 0.031444(14)
F3 F -0.52497(19) 0.7758(2) -0.00420(2)
F4 F -0.48425(13) 1.04937(18) 0.00019(4)
N1 N 0.13678(17) 0.59482(15) 0.130734(16)
N2 N 0.57661(14) 1.01725(17) 0.090071(17)
C1 C -0.10503(12) 0.99597(14) 0.011594(14)
C2 C -0.27665(13) 0.98586(15) 0.020627(15)
C3 C -0.39969(19) 0.9510(2) -0.00051(4)
C4 C 0.21374(12) 1.11863(13) 0.027193(15)
C5 C 0.02946(12) 0.99952(14) 0.027997(15)
C6 C -0.02325(13) 0.88265(13) 0.047544(15)
H1 H -0.1448 0.7971 0.0510
C7 C 0.12264(13) 0.90780(13) 0.060969(15)
C8 C 0.32090(15) 1.27322(15) 0.010907(16)
H2 H 0.2398 1.2768 -0.0005
H3 H 0.4129 1.2556 0.0034
H4 H 0.3791 1.3870 0.0193
C9 C 0.10060(14) 0.80264(13) 0.081243(15)
H5 H -0.0201 0.7189 0.0853
C10 C 0.23062(16) 0.80776(14) 0.095388(16)
C11 C 0.42455(15) 0.92457(16) 0.092222(18)
C12 C 0.17808(16) 0.68809(16) 0.115215(19)
C1G C -0.10100(18) 1.00403(14) -0.011594(14)
C2G C -0.26251(20) 1.01414(15) -0.020627(15)
F1G F -0.35705(16) 0.88929(12) -0.036162(15)
F2G F -0.21430(16) 1.17001(12) -0.031444(14)
C3G C -0.35069(28) 1.0490(2) 0.00051(4)
F3G F -0.30077(28) 1.2242(2) 0.00420(2)
F4G F -0.53362(22) 0.95063(18) -0.00019(4)
C5G C 0.02994(18) 1.00048(14) -0.027997(15)
C4G C 0.09511(18) 0.88137(13) -0.027193(15)
S1G S 0.24368(6) 0.91927(4) -0.049647(5)
C7G C 0.21484(18) 1.09220(13) -0.060969(15)
C6G C 0.09410(18) 1.11735(13) -0.047544(15)
H1G H 0.0581 1.2029 -0.0510
C9G C 0.29796(19) 1.19736(13) -0.081243(15)
H5G H 0.2610 1.2811 -0.0853
C10G C 0.42286(21) 1.19224(14) -0.095388(16)
C11G C 0.49998(22) 1.07543(16) -0.092222(18)
N2G N 0.55936(22) 0.98275(17) -0.090071(17)
C12G C 0.48999(23) 1.31191(16) -0.115215(19)
N1G N 0.54196(23) 1.40518(15) -0.130734(16)
C8G C 0.04768(21) 0.72678(15) -0.010907(16)
H2G H -0.0370 0.7232 0.0005
H3G H 0.1573 0.7444 -0.0034
H4G H -0.0079 0.6130 -0.0193
loop_
_geom_bond_atom_site_label_1
_geom_bond_atom_site_label_2
_geom_bond_site_symmetry_1
_geom_bond_site_symmetry_2
S1 C4 1_555 1_555
F1 C2 1_555 1_555
F2 C2 1_555 1_555
F3 C3 1_555 1_555
F4 C3 1_555 1_555
N1 C12 1_555 1_555
N2 C11 1_555 1_555
C1 C2 1_555 1_555
C2 C3 1_555 1_555
C3 C2G 1_555 1_555
C4 C5 1_555 1_555
C5 C1 1_555 1_555
C6 C5 1_555 1_555
H1 C6 1_555 1_555
C7 S1 1_555 1_555
C8 C4 1_555 1_555
H2 C8 1_555 1_555
H3 C8 1_555 1_555
H4 C8 1_555 1_555
C9 C7 1_555 1_555
H5 C9 1_555 1_555
C10 C9 1_555 1_555
C11 C10 1_555 1_555
C12 C10 1_555 1_555
C1G C1 1_555 1_555
C2G C1G 1_555 1_555
F1G C2G 1_555 1_555
F2G C2G 1_555 1_555
C3G F4 1_555 1_555
F3G F4 1_555 1_555
F4G F3 1_555 1_555
C5G C1G 1_555 1_555
C4G C5G 1_555 1_555
S1G C4G 1_555 1_555
C7G S1G 1_555 1_555
C6G C5G 1_555 1_555
H1G C6G 1_555 1_555
C9G C7G 1_555 1_555
H5G C9G 1_555 1_555
C10G C9G 1_555 1_555
C11G C10G 1_555 1_555
N2G C11G 1_555 1_555
C12G C10G 1_555 1_555
N1G C12G 1_555 1_555
C8G C4G 1_555 1_555
H2G C8G 1_555 1_555
H3G C8G 1_555 1_555
H4G C8G 1_555 1_555
F4 F4G 1_555 1_555
C2 C3G 1_555 1_555
C3 F4G 1_555 1_555
C3 C3G 1_555 1_555
C6 C7 1_555 1_555
C2G C3G 1_555 1_555
C3G F3G 1_555 1_555
C3G F4G 1_555 1_555
C7G C6G 1_555 1_555

#END
