
#######################################################################
#
#                 Cambridge Crystallographic Data Centre
#                                CCDC 
#
#######################################################################
#
# If this CIF has been generated from an entry in the Cambridge 
# Structural Database, then it will include bibliographic, chemical, 
# crystal, experimental, refinement or atomic coordinate data resulting 
# from the CCDC's data processing and validation procedures.
#
#######################################################################

data_XUWDUQ
_chemical_name_common            'Icariin ethanol solvate'
_chemical_formula_moiety         'C33 H40 O15,C2 H6 O1'
_chemical_name_systematic        
'5-hydroxy-2-(4-methoxyphenyl)-8-(3-methylbut-2-en-1-yl)-7-((3,4,5-trihydroxy-6-(hydroxymethyl)tetrahydro-2H-pyran-2-yl)oxy)-3-((3,4,5-trihydroxy-6-methyltetrahydro-2H-pyran-2-yl)oxy)-4H-chromen-4-one ethanol solvate'
_symmetry_cell_setting           orthorhombic
_symmetry_space_group_name_H-M   'P 21 21 21'
_symmetry_Int_Tables_number      19
_space_group_name_Hall           'P 2ac 2ab'
loop_
_symmetry_equiv_pos_site_id
_symmetry_equiv_pos_as_xyz
1 x,y,z
2 1/2-x,-y,1/2+z
3 1/2+x,1/2-y,-z
4 -x,1/2+y,1/2-z
_cell_length_a                   9.8220(8)
_cell_length_b                   22.9864(17)
_cell_length_c                   31.274(3)
_cell_angle_alpha                90
_cell_angle_beta                 90
_cell_angle_gamma                90
_cell_volume                     7060.81
_exptl_crystal_colour            yellow
_exptl_crystal_description       prism
_cell_formula_units_Z            8
loop_
_atom_site_label
_atom_site_type_symbol
_atom_site_fract_x
_atom_site_fract_y
_atom_site_fract_z
O1 O 0.0559(3) 0.94735(12) 0.92598(9)
O2 O -0.0955(3) 0.94612(11) 0.86761(9)
O3 O 0.2010(3) 0.77898(11) 0.67628(8)
O4 O 0.2704(3) 0.83191(11) 0.61818(8)
O5 O 0.2234(3) 0.88178(13) 0.53661(10)
H1 H 0.2001 0.9100 0.5223
O6 O -0.2092(4) 0.97271(16) 1.00735(10)
H2 H -0.1738 0.9560 1.0277
O7 O 0.0724(4) 0.98875(12) 0.80227(9)
O8 O 0.2259(4) 0.96968(12) 0.73659(10)
H3 H 0.1950 0.9881 0.7569
O9 O 0.4729(4) 0.68966(11) 0.56985(9)
H4 H 0.4891 0.6977 0.5448
O10 O 0.3762(3) 0.68833(11) 0.65493(8)
H5 H 0.4526 0.6761 0.6493
O11 O -0.0400(3) 0.81846(11) 0.80144(8)
O12 O -0.4061(4) 0.72440(15) 0.94782(12)
O13 O 0.0331(3) 1.07222(11) 0.92246(9)
H6 H 0.0884 1.0791 0.9035
O14 O -0.2358(3) 1.07283(13) 0.95549(9)
H7 H -0.2036 1.1007 0.9427
C1 C 0.0534(6) 0.9072(2) 0.99568(16)
H8 H 0.1228 0.9342 1.0042
H9 H 0.0952 0.8725 0.9848
H10 H -0.0022 0.8976 1.0199
C2 C -0.0347(5) 0.93452(18) 0.96101(14)
H11 H -0.1030 0.9062 0.9516
C3 C 0.0045(5) 0.97943(17) 0.89205(13)
H12 H 0.0796 0.9906 0.8731
C4 C -0.0445(4) 0.91112(17) 0.83543(12)
C5 C 0.0398(5) 0.93550(17) 0.80321(13)
C6 C 0.0883(5) 0.89613(17) 0.77079(13)
C7 C 0.1784(5) 0.91398(18) 0.73795(14)
C8 C 0.2178(5) 0.87533(18) 0.70625(14)
H13 H 0.2758 0.8872 0.6844
C9 C 0.1698(5) 0.81915(17) 0.70766(13)
C10 C 0.3104(5) 0.78913(17) 0.64797(12)
H14 H 0.3909 0.8021 0.6638
C11 C 0.3799(5) 0.84612(17) 0.58966(12)
H15 H 0.4589 0.8580 0.6067
C12 C 0.3345(5) 0.89726(17) 0.56283(13)
H16 H 0.3083 0.9292 0.5814
H17 H 0.4096 0.9103 0.5451
C13 C -0.1072(5) 0.98934(19) 0.97774(13)
H18 H -0.0412 1.0152 0.9916
C14 C 0.4181(4) 0.79228(16) 0.56375(12)
H19 H 0.3391 0.7810 0.5465
C15 C 0.4529(4) 0.74193(16) 0.59358(12)
H20 H 0.5368 0.7512 0.6091
C16 C 0.3399(5) 0.73271(16) 0.62509(12)
H21 H 0.2581 0.7205 0.6096
C17 C 0.0833(4) 0.79783(16) 0.73917(13)
C18 C 0.0427(5) 0.73454(16) 0.74083(14)
H22 H -0.0390 0.7304 0.7580
H23 H 0.0224 0.7210 0.7122
C19 C 0.1534(5) 0.69842(18) 0.75946(15)
H24 H 0.1991 0.7147 0.7826
C20 C 0.1963(5) 0.64546(19) 0.74737(15)
C21 C 0.3095(7) 0.6156(2) 0.7706(2)
H25 H 0.2741 0.5825 0.7857
H26 H 0.3502 0.6421 0.7905
H27 H 0.3769 0.6029 0.7504
C22 C 0.1344(6) 0.6107(2) 0.71239(17)
H28 H 0.0734 0.6348 0.6962
H29 H 0.0849 0.5786 0.7244
H30 H 0.2049 0.5962 0.6940
C23 C 0.0453(4) 0.83791(17) 0.77014(12)
C24 C -0.0822(5) 0.85454(18) 0.83443(12)
C25 C -0.1695(5) 0.82191(17) 0.86447(13)
C26 C -0.2668(5) 0.84900(19) 0.88953(13)
H31 H -0.2782 0.8891 0.8874
C27 C -0.3475(5) 0.81795(19) 0.91765(14)
H32 H -0.4124 0.8373 0.9340
C28 C -0.3325(5) 0.7588(2) 0.92164(15)
C29 C -0.5048(7) 0.7523(2) 0.97496(18)
H33 H -0.5716 0.7716 0.9576
H34 H -0.4600 0.7802 0.9929
H35 H -0.5488 0.7236 0.9925
C30 C -0.2368(5) 0.7314(2) 0.89647(16)
H36 H -0.2266 0.6913 0.8985
C31 C -0.1571(5) 0.7616(2) 0.86877(15)
H37 H -0.0932 0.7418 0.8524
C32 C -0.0697(4) 1.03360(17) 0.90649(13)
H38 H -0.1151 1.0516 0.8819
C33 C -0.1732(4) 1.02021(17) 0.94046(13)
H39 H -0.2436 0.9949 0.9283
O15 O 0.5276(3) 0.80419(12) 0.53573(9)
H40 H 0.5465 0.7748 0.5222
O16 O 0.1191(5) 0.71886(16) 0.92909(13)
O17 O 0.4943(3) 0.81574(11) 0.78787(8)
O18 O 0.7447(3) 0.77104(11) 0.66638(8)
O19 O 0.7953(3) 0.82772(11) 0.60855(8)
O20 O 0.7706(4) 0.96379(12) 0.72480(10)
H41 H 0.7366 0.9828 0.7442
O21 O 0.4242(3) 0.94670(11) 0.84897(8)
O22 O 0.5263(3) 0.96010(11) 0.91538(8)
O23 O 0.2647(3) 1.04915(13) 0.96760(9)
H42 H 0.2053 1.0651 0.9634
O24 O 0.3302(3) 1.11927(11) 0.89235(9)
H43 H 0.3279 1.1336 0.9164
O25 O 0.6011(3) 1.07646(11) 0.88272(9)
H44 H 0.5802 1.0973 0.9030
O26 O 0.6033(4) 0.98606(12) 0.78635(10)
O27 O 0.9182(3) 0.68288(12) 0.63606(8)
H45 H 0.8629 0.6762 0.6551
O28 O 0.9889(4) 0.69028(11) 0.54988(9)
H46 H 0.9417 0.6640 0.5595
O29 O 1.0200(4) 0.80773(13) 0.51631(8)
H47 H 1.0814 0.8268 0.5272
C34 C 0.1342(9) 0.6574(3) 0.9310(2)
H48 H 0.1350 0.6418 0.9025
H49 H 0.0596 0.6409 0.9466
H50 H 0.2182 0.6479 0.9450
C35 C 0.2012(6) 0.7492(2) 0.90187(15)
C36 C 0.1809(5) 0.8078(2) 0.90051(14)
H51 H 0.1139 0.8245 0.9175
C37 C 0.2582(5) 0.84238(19) 0.87432(13)
H52 H 0.2417 0.8822 0.8735
C38 C 0.3612(5) 0.81880(17) 0.84888(12)
C39 C 0.4464(4) 0.85257(17) 0.81935(12)
C40 C 0.5832(4) 0.83482(17) 0.75737(12)
C41 C 0.6232(4) 0.79291(16) 0.72815(12)
C42 C 0.7134(5) 0.81239(17) 0.69672(13)
C43 C 0.8453(5) 0.78308(16) 0.63597(12)
H53 H 0.9297 0.7955 0.6500
C44 C 0.8949(5) 0.84467(16) 0.57759(12)
H54 H 0.9793 0.8553 0.5924
C45 C 0.9228(5) 0.79268(17) 0.54806(12)
H55 H 0.8376 0.7821 0.5338
C46 C 0.8372(5) 0.89821(19) 0.55547(14)
H56 H 0.8233 0.9287 0.5765
H57 H 0.9026 0.9123 0.5347
C47 C 0.7655(5) 0.86914(17) 0.69527(13)
H58 H 0.8282 0.8801 0.6745
C48 C 0.7204(5) 0.90833(18) 0.72585(13)
C49 C 0.6257(5) 0.89252(17) 0.75715(13)
C50 C 0.4795(5) 0.90888(17) 0.81886(13)
C51 C 0.5227(4) 0.98004(16) 0.87352(12)
H59 H 0.6129 0.9744 0.8608
C52 C 0.4076(5) 0.97270(17) 0.94075(12)
H60 H 0.3288 0.9522 0.9288
C53 C 0.3794(4) 1.03797(17) 0.94125(12)
H61 H 0.4586 1.0579 0.9535
C54 C 0.3603(4) 1.05874(17) 0.89554(13)
H62 H 0.2828 1.0374 0.8835
C55 C 0.4837(4) 1.04390(16) 0.86899(13)
H63 H 0.4649 1.0525 0.8389
C56 C 0.4396(5) 0.9486(2) 0.98516(14)
H64 H 0.5232 0.9652 0.9953
H65 H 0.4486 0.9070 0.9836
H66 H 0.3671 0.9583 1.0044
C57 C 0.5695(5) 0.93325(18) 0.78719(13)
C58 C 0.3052(5) 0.7242(2) 0.87802(15)
H67 H 0.3227 0.6845 0.8800
C59 C 0.3819(5) 0.75860(19) 0.85151(14)
H68 H 0.4494 0.7415 0.8348
C60 C 0.5795(5) 0.73032(16) 0.73229(13)
H69 H 0.4840 0.7289 0.7401
H70 H 0.5898 0.7111 0.7049
C61 C 0.6612(5) 0.69873(17) 0.76511(13)
H71 H 0.6729 0.7174 0.7912
C62 C 0.7190(5) 0.64683(19) 0.76095(14)
C63 C 0.7085(7) 0.6101(2) 0.72159(17)
H72 H 0.6695 0.6326 0.6988
H73 H 0.6517 0.5770 0.7273
H74 H 0.7976 0.5971 0.7134
C64 C 0.8014(7) 0.6199(2) 0.79662(18)
H75 H 0.7915 0.6428 0.8221
H76 H 0.8957 0.6187 0.7885
H77 H 0.7696 0.5811 0.8019
C65 C 0.8691(4) 0.72842(16) 0.60989(12)
H78 H 0.7827 0.7163 0.5970
C66 C 0.9692(5) 0.74157(16) 0.57467(12)
H79 H 1.0564 0.7518 0.5879
O30 O 0.7138(3) 0.88668(14) 0.53480(10)
H80 H 0.6576 0.8755 0.5524
O31 O 1.1369(7) 0.5060(3) 0.85496(18)
H81 H 1.1639 0.4938 0.8318
C67 C 0.9939(13) 0.5017(5) 0.8567(4)
H82 H 0.9568 0.5230 0.8326
H83 H 0.9696 0.4611 0.8528
C68 C 0.9292(12) 0.5217(5) 0.8938(3)
H84 H 0.8997 0.5611 0.8896
H85 H 0.9917 0.5201 0.9174
H86 H 0.8518 0.4976 0.8999
O32 O 0.3550(8) 0.5342(4) 0.90587(19)
H87 H 0.2926 0.5438 0.8899
C69 C 0.4702(14) 0.5387(7) 0.8857(4)
H88 H 0.5403 0.5332 0.9071
H89 H 0.4765 0.5789 0.8766
C70 C 0.5123(13) 0.5043(6) 0.8492(3)
H90 H 0.4642 0.4679 0.8492
H91 H 0.6084 0.4971 0.8508
H92 H 0.4921 0.5251 0.8233
loop_
_geom_bond_atom_site_label_1
_geom_bond_atom_site_label_2
_geom_bond_site_symmetry_1
_geom_bond_site_symmetry_2
O1 C2 1_555 1_555
O2 C3 1_555 1_555
O3 C9 1_555 1_555
O4 C10 1_555 1_555
O5 H1 1_555 1_555
O6 H2 1_555 1_555
O7 C5 1_555 1_555
O8 H3 1_555 1_555
O9 H4 1_555 1_555
O10 H5 1_555 1_555
O11 C23 1_555 1_555
O12 C28 1_555 1_555
O13 H6 1_555 1_555
O14 H7 1_555 1_555
C1 H8 1_555 1_555
H9 C1 1_555 1_555
H10 C1 1_555 1_555
C2 C1 1_555 1_555
H11 C2 1_555 1_555
C3 O1 1_555 1_555
H12 C3 1_555 1_555
C4 O2 1_555 1_555
C5 C4 1_555 1_555
C6 C5 1_555 1_555
C7 O8 1_555 1_555
C8 C7 1_555 1_555
H13 C8 1_555 1_555
C9 C8 1_555 1_555
C10 O3 1_555 1_555
H14 C10 1_555 1_555
C11 O4 1_555 1_555
H15 C11 1_555 1_555
C12 O5 1_555 1_555
H16 C12 1_555 1_555
H17 C12 1_555 1_555
C13 O6 1_555 1_555
H18 C13 1_555 1_555
C14 C11 1_555 1_555
H19 C14 1_555 1_555
C15 O9 1_555 1_555
H20 C15 1_555 1_555
C16 O10 1_555 1_555
H21 C16 1_555 1_555
C17 C9 1_555 1_555
C18 C17 1_555 1_555
H22 C18 1_555 1_555
H23 C18 1_555 1_555
C19 C18 1_555 1_555
H24 C19 1_555 1_555
C20 C19 1_555 1_555
C21 C20 1_555 1_555
H25 C21 1_555 1_555
H26 C21 1_555 1_555
H27 C21 1_555 1_555
C22 C20 1_555 1_555
H28 C22 1_555 1_555
H29 C22 1_555 1_555
H30 C22 1_555 1_555
C23 C6 1_555 1_555
C24 O11 1_555 1_555
C25 C24 1_555 1_555
C26 C25 1_555 1_555
H31 C26 1_555 1_555
C27 C26 1_555 1_555
H32 C27 1_555 1_555
C28 C27 1_555 1_555
C29 O12 1_555 1_555
H33 C29 1_555 1_555
H34 C29 1_555 1_555
H35 C29 1_555 1_555
C30 C28 1_555 1_555
H36 C30 1_555 1_555
C31 C25 1_555 1_555
H37 C31 1_555 1_555
C32 O13 1_555 1_555
H38 C32 1_555 1_555
C33 O14 1_555 1_555
H39 C33 1_555 1_555
O15 C14 1_555 1_555
H40 O15 1_555 1_555
O16 C34 1_555 1_555
O17 C39 1_555 1_555
O18 C42 1_555 1_555
O19 C43 1_555 1_555
O20 H41 1_555 1_555
O21 C50 1_555 1_555
O22 C51 1_555 1_555
O23 H42 1_555 1_555
O24 H43 1_555 1_555
O25 H44 1_555 1_555
O26 C57 1_555 1_555
O27 H45 1_555 1_555
O28 H46 1_555 1_555
O29 H47 1_555 1_555
C34 H48 1_555 1_555
H49 C34 1_555 1_555
H50 C34 1_555 1_555
C35 O16 1_555 1_555
C36 C35 1_555 1_555
H51 C36 1_555 1_555
C37 C36 1_555 1_555
H52 C37 1_555 1_555
C38 C37 1_555 1_555
C39 C38 1_555 1_555
C40 O17 1_555 1_555
C41 C40 1_555 1_555
C42 C41 1_555 1_555
C43 O18 1_555 1_555
H53 C43 1_555 1_555
C44 O19 1_555 1_555
H54 C44 1_555 1_555
C45 O29 1_555 1_555
H55 C45 1_555 1_555
C46 C44 1_555 1_555
H56 C46 1_555 1_555
H57 C46 1_555 1_555
C47 C42 1_555 1_555
H58 C47 1_555 1_555
C48 O20 1_555 1_555
C49 C40 1_555 1_555
C50 C39 1_555 1_555
C51 O21 1_555 1_555
H59 C51 1_555 1_555
C52 O22 1_555 1_555
H60 C52 1_555 1_555
C53 O23 1_555 1_555
H61 C53 1_555 1_555
C54 O24 1_555 1_555
H62 C54 1_555 1_555
C55 O25 1_555 1_555
H63 C55 1_555 1_555
C56 C52 1_555 1_555
H64 C56 1_555 1_555
H65 C56 1_555 1_555
H66 C56 1_555 1_555
C57 C49 1_555 1_555
C58 C35 1_555 1_555
H67 C58 1_555 1_555
C59 C38 1_555 1_555
H68 C59 1_555 1_555
C60 C41 1_555 1_555
H69 C60 1_555 1_555
H70 C60 1_555 1_555
C61 C60 1_555 1_555
H71 C61 1_555 1_555
C62 C61 1_555 1_555
C63 C62 1_555 1_555
H72 C63 1_555 1_555
H73 C63 1_555 1_555
H74 C63 1_555 1_555
C64 C62 1_555 1_555
H75 C64 1_555 1_555
H76 C64 1_555 1_555
H77 C64 1_555 1_555
C65 O27 1_555 1_555
H78 C65 1_555 1_555
C66 O28 1_555 1_555
H79 C66 1_555 1_555
O30 C46 1_555 1_555
H80 O30 1_555 1_555
O31 H81 1_555 1_555
C67 O31 1_555 1_555
H82 C67 1_555 1_555
H83 C67 1_555 1_555
C68 C67 1_555 1_555
H84 C68 1_555 1_555
H85 C68 1_555 1_555
H86 C68 1_555 1_555
O32 H87 1_555 1_555
C69 O32 1_555 1_555
H88 C69 1_555 1_555
H89 C69 1_555 1_555
C70 C69 1_555 1_555
H90 C70 1_555 1_555
H91 C70 1_555 1_555
H92 C70 1_555 1_555
C2 C13 1_555 1_555
C3 C32 1_555 1_555
C4 C24 1_555 1_555
C6 C7 1_555 1_555
C10 C16 1_555 1_555
C11 C12 1_555 1_555
C13 C33 1_555 1_555
C14 C15 1_555 1_555
C15 C16 1_555 1_555
C17 C23 1_555 1_555
C30 C31 1_555 1_555
C32 C33 1_555 1_555
C43 C65 1_555 1_555
C44 C45 1_555 1_555
C45 C66 1_555 1_555
C47 C48 1_555 1_555
C48 C49 1_555 1_555
C50 C57 1_555 1_555
C51 C55 1_555 1_555
C52 C53 1_555 1_555
C53 C54 1_555 1_555
C54 C55 1_555 1_555
C58 C59 1_555 1_555
C65 C66 1_555 1_555

#END
