
#######################################################################
#
#                 Cambridge Crystallographic Data Centre
#                                CCDC 
#
#######################################################################
#
# If this CIF has been generated from an entry in the Cambridge 
# Structural Database, then it will include bibliographic, chemical, 
# crystal, experimental, refinement or atomic coordinate data resulting 
# from the CCDC's data processing and validation procedures.
#
#######################################################################

data_XUWGAZ
_chemical_formula_moiety         'C33 H40 O15,C3 H8 O1'
_chemical_name_systematic        
'5-hydroxy-2-(4-methoxyphenyl)-8-(3-methylbut-2-en-1-yl)-7-((3,4,5-trihydroxy-6-(hydroxymethyl)tetrahydro-2H-pyran-2-yl)oxy)-3-((3,4,5-trihydroxy-6-methyltetrahydro-2H-pyran-2-yl)oxy)-4H-chromen-4-one propan-1-ol'
_symmetry_cell_setting           orthorhombic
_symmetry_space_group_name_H-M   'P 21 21 21'
_symmetry_Int_Tables_number      19
_space_group_name_Hall           'P 2ac 2ab'
loop_
_symmetry_equiv_pos_site_id
_symmetry_equiv_pos_as_xyz
1 x,y,z
2 1/2+x,1/2-y,-z
3 -x,1/2+y,1/2-z
4 1/2-x,-y,1/2+z
_cell_length_a                   9.7400(3)
_cell_length_b                   22.9011(7)
_cell_length_c                   31.3079(9)
_cell_angle_alpha                90
_cell_angle_beta                 90
_cell_angle_gamma                90
_cell_volume                     6983.44
_exptl_crystal_colour            colorless
_exptl_crystal_description       needle
_cell_formula_units_Z            8
loop_
_atom_site_label
_atom_site_type_symbol
_atom_site_fract_x
_atom_site_fract_y
_atom_site_fract_z
O1 O 0.5696(3) 0.01230(8) 0.19805(6)
O2 O 0.7252(3) 0.03277(8) 0.26338(7)
H1 H 0.6762 0.0112 0.2480
O3 O 0.0692(3) 0.27715(10) 0.05644(7)
O4 O 0.3950(2) 0.05345(8) 0.13368(6)
O5 O 0.5463(3) 0.05435(8) 0.07440(6)
O6 O 0.2748(3) 0.02715(11) -0.00578(7)
H2 H 0.3063 0.0298 -0.0307
O7 O 0.2625(3) -0.07583(9) 0.04445(6)
H3 H 0.2100 -0.0900 0.0631
O8 O 0.5314(2) -0.07117(8) 0.07834(7)
H4 H 0.5003 -0.1048 0.0737
O9 O 0.6943(2) 0.22355(8) 0.32483(6)
O10 O 0.7668(2) 0.17036(8) 0.38267(6)
O11 O 0.7245(3) 0.11968(9) 0.46439(7)
H5 H 0.7294 0.1007 0.4873
O12 O 1.0268(3) 0.20123(9) 0.46493(6)
H6 H 1.0674 0.1703 0.4580
O13 O 0.9666(3) 0.31472(8) 0.43094(6)
H7 H 0.9862 0.3066 0.4564
O14 O 0.8718(2) 0.31572(8) 0.34632(6)
H8 H 0.8157 0.3169 0.3260
C1 C 0.4455(3) 0.08939(12) 0.16556(8)
C2 C 0.5348(4) 0.06453(11) 0.19806(8)
C3 C 0.6752(4) 0.08747(12) 0.26262(9)
C4 C 0.7145(4) 0.12610(12) 0.29414(9)
H9 H 0.7756 0.1141 0.3161
C5 C 0.6635(3) 0.18310(12) 0.29342(8)
C6 C 0.5738(3) 0.20376(11) 0.26225(8)
C7 C 0.5359(3) 0.16263(11) 0.23111(8)
C8 C 0.5820(3) 0.10520(12) 0.23045(8)
C9 C 0.3154(4) 0.17863(12) 0.13771(8)
C10 C 0.3230(4) 0.23956(13) 0.13557(10)
H10 H 0.3861 0.2597 0.1534
C11 C 0.2408(4) 0.27075(13) 0.10821(10)
H11 H 0.2482 0.3121 0.1071
C12 C 0.1475(4) 0.24250(13) 0.08232(9)
C13 C 0.1370(4) 0.18231(13) 0.08364(9)
H12 H 0.0734 0.1625 0.0658
C14 C 0.2216(4) 0.15090(12) 0.11166(9)
H13 H 0.2142 0.1096 0.1127
C15 C 0.5313(4) 0.26706(11) 0.26041(9)
H14 H 0.4483 0.2711 0.2424
H15 H 0.5087 0.2810 0.2895
C16 C 0.6447(4) 0.30335(12) 0.24224(8)
H16 H 0.6903 0.2869 0.2183
C17 C 0.6914(4) 0.35556(12) 0.25478(9)
C18 C 0.6289(4) 0.39085(13) 0.29096(11)
H17 H 0.5753 0.4232 0.2791
H18 H 0.7023 0.4064 0.3091
H19 H 0.5689 0.3657 0.3080
C19 C 0.8082(5) 0.38483(14) 0.23179(12)
H20 H 0.8459 0.3581 0.2103
H21 H 0.8800 0.3952 0.2524
H22 H 0.7747 0.4203 0.2177
C20 C -0.0288(5) 0.24929(15) 0.02930(11)
H23 H 0.0194 0.2256 0.0080
H24 H -0.0843 0.2790 0.0148
H25 H -0.0886 0.2241 0.0465
C21 C 0.4946(4) 0.02147(12) 0.10866(8)
H26 H 0.5730 0.0108 0.1277
C22 C 0.4242(3) -0.03461(12) 0.09425(9)
H27 H 0.3786 -0.0538 0.1192
C23 C 0.3179(4) -0.02172(12) 0.05956(8)
H28 H 0.2423 0.0024 0.0720
C24 C 0.3833(4) 0.01136(13) 0.02304(9)
H29 H 0.4523 -0.0138 0.0082
C25 C 0.4519(4) 0.06678(12) 0.04006(9)
H30 H 0.3799 0.0945 0.0503
C26 C 0.5370(5) 0.09594(15) 0.00579(10)
H31 H 0.5869 0.1290 0.0181
H32 H 0.4765 0.1099 -0.0170
H33 H 0.6026 0.0678 -0.0060
C27 C 0.8059(3) 0.21365(11) 0.35241(8)
H34 H 0.8891 0.2011 0.3361
C28 C 0.8318(3) 0.27077(11) 0.37569(8)
H35 H 0.7467 0.2830 0.3912
C29 C 0.9475(4) 0.26197(11) 0.40729(8)
H36 H 1.0337 0.2530 0.3912
C30 C 0.9142(4) 0.21074(11) 0.43692(8)
H37 H 0.8322 0.2214 0.4545
C31 C 0.8791(3) 0.15653(12) 0.41081(8)
H38 H 0.9607 0.1455 0.3932
C32 C 0.8372(4) 0.10458(12) 0.43761(9)
H39 H 0.8108 0.0718 0.4187
H40 H 0.9157 0.0918 0.4554
O15 O 0.4478(2) 0.18221(8) 0.19992(6)
C33 C 0.4048(3) 0.14628(12) 0.16742(8)
O16 O 0.9779(2) 0.18630(8) 0.21193(6)
O17 O 1.0884(3) 0.01523(8) 0.21381(7)
O18 O 1.2562(3) 0.03757(8) 0.27444(6)
H41 H 1.2211 0.0186 0.2542
O19 O 0.5810(3) 0.27644(11) 0.07142(8)
O20 O 0.9096(2) 0.05431(8) 0.15118(6)
O21 O 1.0171(2) 0.04346(8) 0.08510(6)
O22 O 0.7569(3) -0.04673(9) 0.03091(6)
H42 H 0.6905 -0.0574 0.0462
O23 O 0.8259(2) -0.11822(8) 0.10441(7)
H43 H 0.8895 -0.1366 0.0923
O24 O 1.0963(2) -0.07350(8) 0.11615(6)
H44 H 1.0988 -0.1063 0.1281
O25 O 1.2343(2) 0.23060(8) 0.33335(6)
O26 O 1.2840(2) 0.17247(8) 0.39056(6)
O27 O 1.2014(3) 0.11281(9) 0.46383(7)
H45 H 1.2027 0.0981 0.4884
O28 O 1.5127(3) 0.18942(9) 0.48325(6)
H46 H 1.5750 0.1693 0.4720
O29 O 1.4836(3) 0.30914(8) 0.44960(6)
H47 H 1.4946 0.3003 0.4754
O30 O 1.4105(3) 0.31790(8) 0.36430(6)
H48 H 1.3650 0.3483 0.3692
C34 C 0.9294(4) 0.14965(12) 0.18078(8)
C35 C 0.9645(4) 0.09201(12) 0.18087(8)
C36 C 1.0565(4) 0.06833(12) 0.21255(9)
C37 C 1.2086(4) 0.09318(12) 0.27372(9)
C38 C 1.2530(4) 0.13266(12) 0.30389(9)
H49 H 1.3176 0.1213 0.3251
C39 C 1.2018(4) 0.18956(12) 0.30291(8)
C40 C 1.1103(3) 0.20937(11) 0.27182(8)
C41 C 1.0680(4) 0.16738(12) 0.24206(8)
C42 C 1.1113(4) 0.10986(12) 0.24272(8)
C43 C 0.8408(4) 0.18230(12) 0.15137(8)
C44 C 0.8547(4) 0.24320(12) 0.14813(9)
H50 H 0.9243 0.2623 0.1642
C45 C 0.7700(4) 0.27600(13) 0.12226(10)
H51 H 0.7807 0.3172 0.1208
C46 C 0.6695(4) 0.24856(14) 0.09849(10)
C47 C 0.6546(4) 0.18828(14) 0.10029(9)
H52 H 0.5864 0.1696 0.0835
C48 C 0.7386(4) 0.15544(13) 0.12643(9)
H53 H 0.7273 0.1143 0.1276
C49 C 1.0639(4) 0.27210(11) 0.26786(8)
H54 H 0.9661 0.2731 0.2593
H55 H 1.0722 0.2916 0.2960
C50 C 1.1481(4) 0.30446(12) 0.23558(9)
H56 H 1.1564 0.2870 0.2082
C51 C 1.2124(4) 0.35516(12) 0.24130(9)
C52 C 1.2100(5) 0.39053(13) 0.28155(10)
H57 H 1.1583 0.4266 0.2767
H58 H 1.3043 0.4002 0.2900
H59 H 1.1659 0.3679 0.3043
C53 C 1.2988(5) 0.38178(14) 0.20637(10)
H60 H 1.3959 0.3799 0.2145
H61 H 1.2719 0.4226 0.2022
H62 H 1.2846 0.3601 0.1798
C54 C 0.5810(7) 0.33896(18) 0.07212(16)
H63 H 0.5033 0.3536 0.0554
H64 H 0.6670 0.3535 0.0598
H65 H 0.5729 0.3526 0.1017
C55 C 1.0127(4) 0.02250(11) 0.12699(8)
H66 H 1.1044 0.0291 0.1405
C56 C 0.9779(3) -0.04240(11) 0.13012(8)
H67 H 0.9582 -0.0526 0.1606
C57 C 0.8539(3) -0.05760(11) 0.10274(9)
H68 H 0.7729 -0.0370 0.1153
C58 C 0.8726(3) -0.03473(12) 0.05743(9)
H69 H 0.9556 -0.0535 0.0446
C59 C 0.8956(4) 0.03159(12) 0.05937(9)
H70 H 0.8138 0.0509 0.0725
C60 C 0.9239(4) 0.05813(15) 0.01616(10)
H71 H 0.9275 0.1007 0.0188
H72 H 0.8505 0.0472 -0.0037
H73 H 1.0120 0.0437 0.0054
C61 C 1.3375(3) 0.21732(11) 0.36360(8)
H74 H 1.4242 0.2045 0.3493
C62 C 1.3608(3) 0.27191(11) 0.39024(8)
H75 H 1.2721 0.2840 0.4037
C63 C 1.4639(4) 0.25727(11) 0.42512(8)
H76 H 1.5530 0.2466 0.4113
C64 C 1.4149(4) 0.20569(11) 0.45149(8)
H77 H 1.3274 0.2169 0.4661
C65 C 1.3850(4) 0.15433(11) 0.42118(8)
H78 H 1.4713 0.1436 0.4058
C66 C 1.3272(4) 0.10036(12) 0.44269(9)
H79 H 1.3118 0.0696 0.4210
H80 H 1.3946 0.0854 0.4637
O31 O 0.6695(4) 0.49205(15) 0.14798(9)
H81 H 0.7135 0.5067 0.1684
C67 C 0.5340(6) 0.4785(2) 0.16154(16)
H82 H 0.5211 0.4906 0.1916
H83 H 0.5182 0.4359 0.1596
C68 C 0.4337(6) 0.5103(2) 0.13338(15)
H84 H 0.3410 0.5081 0.1462
H85 H 0.4600 0.5520 0.1317
C69 C 0.4291(6) 0.4853(2) 0.08928(14)
H86 H 0.3867 0.5136 0.0698
H87 H 0.3749 0.4493 0.0895
H88 H 0.5227 0.4767 0.0797
O32 O -0.1669(4) 0.43799(16) 0.08999(10)
H89 H -0.1661 0.4747 0.0904
C70 C -0.0469(6) 0.41590(19) 0.11229(13)
H90 H -0.0076 0.3828 0.0960
H91 H -0.0748 0.4012 0.1407
C71 C 0.0587(6) 0.4616(2) 0.11760(15)
H92 H 0.0813 0.4782 0.0893
H93 H 0.1432 0.4437 0.1293
C72 C 0.0128(6) 0.5104(2) 0.14705(17)
H94 H -0.0706 0.5285 0.1356
H95 H 0.0855 0.5398 0.1491
H96 H -0.0063 0.4945 0.1755
loop_
_geom_bond_atom_site_label_1
_geom_bond_atom_site_label_2
_geom_bond_site_symmetry_1
_geom_bond_site_symmetry_2
O1 C2 1_555 1_555
O2 H1 1_555 1_555
O3 C12 1_555 1_555
O4 C1 1_555 1_555
O5 C21 1_555 1_555
O6 H2 1_555 1_555
O7 H3 1_555 1_555
O8 H4 1_555 1_555
O9 C5 1_555 1_555
O10 C27 1_555 1_555
O11 H5 1_555 1_555
O12 H6 1_555 1_555
O13 H7 1_555 1_555
O14 H8 1_555 1_555
C1 C2 1_555 1_555
C2 C8 1_555 1_555
C3 O2 1_555 1_555
C4 C3 1_555 1_555
H9 C4 1_555 1_555
C5 C4 1_555 1_555
C6 C5 1_555 1_555
C7 C6 1_555 1_555
C8 C3 1_555 1_555
C9 C10 1_555 1_555
C10 H10 1_555 1_555
C11 C10 1_555 1_555
H11 C11 1_555 1_555
C12 C11 1_555 1_555
C13 C12 1_555 1_555
H12 C13 1_555 1_555
C14 C9 1_555 1_555
H13 C14 1_555 1_555
C15 C6 1_555 1_555
H14 C15 1_555 1_555
H15 C15 1_555 1_555
C16 C15 1_555 1_555
H16 C16 1_555 1_555
C17 C16 1_555 1_555
C18 C17 1_555 1_555
H17 C18 1_555 1_555
H18 C18 1_555 1_555
H19 C18 1_555 1_555
C19 C17 1_555 1_555
H20 C19 1_555 1_555
H21 C19 1_555 1_555
H22 C19 1_555 1_555
C20 O3 1_555 1_555
H23 C20 1_555 1_555
H24 C20 1_555 1_555
H25 C20 1_555 1_555
C21 O4 1_555 1_555
H26 C21 1_555 1_555
C22 O8 1_555 1_555
H27 C22 1_555 1_555
C23 O7 1_555 1_555
H28 C23 1_555 1_555
C24 O6 1_555 1_555
H29 C24 1_555 1_555
C25 O5 1_555 1_555
H30 C25 1_555 1_555
C26 C25 1_555 1_555
H31 C26 1_555 1_555
H32 C26 1_555 1_555
H33 C26 1_555 1_555
C27 O9 1_555 1_555
H34 C27 1_555 1_555
C28 O14 1_555 1_555
H35 C28 1_555 1_555
C29 O13 1_555 1_555
H36 C29 1_555 1_555
C30 O12 1_555 1_555
H37 C30 1_555 1_555
C31 O10 1_555 1_555
H38 C31 1_555 1_555
C32 O11 1_555 1_555
H39 C32 1_555 1_555
H40 C32 1_555 1_555
O15 C7 1_555 1_555
C33 C1 1_555 1_555
O16 C34 1_555 1_555
O17 C36 1_555 1_555
O18 H41 1_555 1_555
O19 C46 1_555 1_555
O20 C35 1_555 1_555
O21 C55 1_555 1_555
O22 H42 1_555 1_555
O23 H43 1_555 1_555
O24 H44 1_555 1_555
O25 C39 1_555 1_555
O26 C61 1_555 1_555
O27 H45 1_555 1_555
O28 H46 1_555 1_555
O29 H47 1_555 1_555
O30 H48 1_555 1_555
C34 C35 1_555 1_555
C35 C36 1_555 1_555
C36 C42 1_555 1_555
C37 O18 1_555 1_555
C38 C37 1_555 1_555
H49 C38 1_555 1_555
C39 C38 1_555 1_555
C40 C39 1_555 1_555
C41 O16 1_555 1_555
C42 C37 1_555 1_555
C43 C34 1_555 1_555
C44 C43 1_555 1_555
H50 C44 1_555 1_555
C45 C44 1_555 1_555
H51 C45 1_555 1_555
C46 C45 1_555 1_555
C47 C46 1_555 1_555
H52 C47 1_555 1_555
C48 C43 1_555 1_555
H53 C48 1_555 1_555
C49 C40 1_555 1_555
H54 C49 1_555 1_555
H55 C49 1_555 1_555
C50 C49 1_555 1_555
H56 C50 1_555 1_555
C51 C50 1_555 1_555
C52 C51 1_555 1_555
H57 C52 1_555 1_555
H58 C52 1_555 1_555
H59 C52 1_555 1_555
C53 C51 1_555 1_555
H60 C53 1_555 1_555
H61 C53 1_555 1_555
H62 C53 1_555 1_555
C54 O19 1_555 1_555
H63 C54 1_555 1_555
H64 C54 1_555 1_555
H65 C54 1_555 1_555
C55 O20 1_555 1_555
H66 C55 1_555 1_555
C56 O24 1_555 1_555
H67 C56 1_555 1_555
C57 O23 1_555 1_555
H68 C57 1_555 1_555
C58 O22 1_555 1_555
H69 C58 1_555 1_555
C59 O21 1_555 1_555
H70 C59 1_555 1_555
C60 C59 1_555 1_555
H71 C60 1_555 1_555
H72 C60 1_555 1_555
H73 C60 1_555 1_555
C61 O25 1_555 1_555
H74 C61 1_555 1_555
C62 O30 1_555 1_555
H75 C62 1_555 1_555
C63 O29 1_555 1_555
H76 C63 1_555 1_555
C64 O28 1_555 1_555
H77 C64 1_555 1_555
C65 O26 1_555 1_555
H78 C65 1_555 1_555
C66 O27 1_555 1_555
H79 C66 1_555 1_555
H80 C66 1_555 1_555
O31 H81 1_555 1_555
C67 O31 1_555 1_555
H82 C67 1_555 1_555
H83 C67 1_555 1_555
C68 C67 1_555 1_555
H84 C68 1_555 1_555
H85 C68 1_555 1_555
C69 C68 1_555 1_555
H86 C69 1_555 1_555
H87 C69 1_555 1_555
H88 C69 1_555 1_555
O32 H89 1_555 1_555
C70 O32 1_555 1_555
H90 C70 1_555 1_555
H91 C70 1_555 1_555
C71 C70 1_555 1_555
H92 C71 1_555 1_555
H93 C71 1_555 1_555
C72 C71 1_555 1_555
H94 C72 1_555 1_555
H95 C72 1_555 1_555
H96 C72 1_555 1_555
C7 C8 1_555 1_555
C9 C33 1_555 1_555
C13 C14 1_555 1_555
C21 C22 1_555 1_555
C22 C23 1_555 1_555
C23 C24 1_555 1_555
C24 C25 1_555 1_555
C27 C28 1_555 1_555
C28 C29 1_555 1_555
C29 C30 1_555 1_555
C30 C31 1_555 1_555
C31 C32 1_555 1_555
O15 C33 1_555 1_555
C40 C41 1_555 1_555
C41 C42 1_555 1_555
C47 C48 1_555 1_555
C55 C56 1_555 1_555
C56 C57 1_555 1_555
C57 C58 1_555 1_555
C58 C59 1_555 1_555
C61 C62 1_555 1_555
C62 C63 1_555 1_555
C63 C64 1_555 1_555
C64 C65 1_555 1_555
C65 C66 1_555 1_555

#END
