
#######################################################################
#
#                 Cambridge Crystallographic Data Centre
#                                CCDC 
#
#######################################################################
#
# If this CIF has been generated from an entry in the Cambridge 
# Structural Database, then it will include bibliographic, chemical, 
# crystal, experimental, refinement or atomic coordinate data resulting 
# from the CCDC's data processing and validation procedures.
#
#######################################################################

data_XUWNEI
_chemical_formula_moiety         'C17 H15 N3'
_chemical_name_systematic        
12-n-Propylpyrido(1',2':1,2)pyrimido(4,5-b)indole
_chemical_properties_biological  
'activity against MCF7, a human breast cancer cell line'
_symmetry_cell_setting           monoclinic
_symmetry_space_group_name_H-M   'I 2/a'
_symmetry_Int_Tables_number      15
_space_group_name_Hall           '-I 2ya'
loop_
_symmetry_equiv_pos_site_id
_symmetry_equiv_pos_as_xyz
1 x,y,z
2 1/2-x,y,-z
3 1/2+x,1/2+y,1/2+z
4 -x,1/2+y,1/2-z
5 -x,-y,-z
6 1/2+x,-y,z
7 1/2-x,1/2-y,1/2-z
8 x,1/2-y,1/2+z
_cell_length_a                   14.547(2)
_cell_length_b                   11.548(1)
_cell_length_c                   16.953(2)
_cell_angle_alpha                90
_cell_angle_beta                 108.24(1)
_cell_angle_gamma                90
_cell_volume                     2704.82
_cell_formula_units_Z            8
loop_
_atom_site_label
_atom_site_type_symbol
_atom_site_fract_x
_atom_site_fract_y
_atom_site_fract_z
N1 N 0.9278(2) -0.1440(3) 0.2629(2)
N2 N 0.8404(2) 0.0139(3) 0.1860(2)
N3 N 0.6922(2) 0.0606(3) 0.2136(2)
C1 C 0.9127(3) -0.2143(4) 0.3250(3)
C2 C 0.9728(3) -0.3031(4) 0.3659(3)
C3 C 0.9471(4) -0.3642(4) 0.4255(3)
C4 C 0.8639(4) -0.3399(4) 0.4451(3)
C5 C 0.8030(3) -0.2514(4) 0.4043(3)
C6 C 0.8270(3) -0.1884(3) 0.3434(2)
C7 C 0.7853(3) -0.0917(3) 0.2891(2)
C8 C 0.7034(3) -0.0290(4) 0.2721(2)
C9 C 0.6118(3) 0.1338(4) 0.1959(3)
C10 C 0.5984(3) 0.2179(4) 0.1395(3)
C11 C 0.6654(3) 0.2352(5) 0.0957(3)
C12 C 0.7438(3) 0.1663(4) 0.1131(3)
C13 C 0.7617(3) 0.0769(4) 0.1729(3)
C14 C 0.8541(3) -0.0713(4) 0.2429(2)
C15 C 0.6277(3) -0.0503(3) 0.3141(2)
C16 C 0.6448(3) 0.0222(4) 0.3928(3)
C17 C 0.5755(3) -0.0136(4) 0.4397(2)
H1 H 1.0290(3) -0.3210(4) 0.3534(3)
H2 H 0.9871(4) -0.4238(4) 0.4535(3)
H3 H 0.8488(4) -0.3829(4) 0.4858(3)
H4 H 0.7470(3) -0.2343(4) 0.4174(3)
H5 H 0.5667(3) 0.1236(4) 0.2239(3)
H6 H 0.5444(3) 0.2657(4) 0.1289(3)
H7 H 0.6555(3) 0.2929(5) 0.0557(3)
H8 H 0.7882(3) 0.1781(4) 0.0846(3)
H9 H 0.6280(3) -0.1317(3) 0.3283(2)
H10 H 0.5644(3) -0.0320(3) 0.2757(2)
H11 H 0.7111(3) 0.0120(4) 0.4283(3)
H12 H 0.6354(3) 0.1035(4) 0.3780(3)
H13 H 0.5843(12) 0.0362(14) 0.4869(9)
H14 H 0.5884(12) -0.0922(8) 0.4582(13)
H15 H 0.5100(3) -0.0073(20) 0.4037(5)
loop_
_geom_bond_atom_site_label_1
_geom_bond_atom_site_label_2
_geom_bond_site_symmetry_1
_geom_bond_site_symmetry_2
N1 C1 1_555 1_555
N2 C13 1_555 1_555
N3 C8 1_555 1_555
C1 C2 1_555 1_555
C2 C3 1_555 1_555
C3 C4 1_555 1_555
C4 C5 1_555 1_555
C5 C6 1_555 1_555
C6 C1 1_555 1_555
C7 C6 1_555 1_555
C8 C7 1_555 1_555
C9 N3 1_555 1_555
C10 C9 1_555 1_555
C11 C10 1_555 1_555
C12 C11 1_555 1_555
C13 N3 1_555 1_555
C14 N1 1_555 1_555
C15 C8 1_555 1_555
C16 C15 1_555 1_555
C17 C16 1_555 1_555
H1 C2 1_555 1_555
H2 C3 1_555 1_555
H3 C4 1_555 1_555
H4 C5 1_555 1_555
H5 C9 1_555 1_555
H6 C10 1_555 1_555
H7 C11 1_555 1_555
H8 C12 1_555 1_555
H9 C15 1_555 1_555
H10 C15 1_555 1_555
H11 C16 1_555 1_555
H12 C16 1_555 1_555
H13 C17 1_555 1_555
H14 C17 1_555 1_555
H15 C17 1_555 1_555
N2 C14 1_555 1_555
C7 C14 1_555 1_555
C12 C13 1_555 1_555

#END
