
#######################################################################
#
#                 Cambridge Crystallographic Data Centre
#                                CCDC 
#
#######################################################################
#
# If this CIF has been generated from an entry in the Cambridge 
# Structural Database, then it will include bibliographic, chemical, 
# crystal, experimental, refinement or atomic coordinate data resulting 
# from the CCDC's data processing and validation procedures.
#
#######################################################################

data_XUWVAM
_chemical_formula_moiety         'C24 H16 N4 S1'
_chemical_name_systematic        
5-methyl-3-(2-phenylquinolin-4-yl)-1,2,4-triazolo[3,4-b]benzothiazole
_symmetry_cell_setting           triclinic
_symmetry_space_group_name_H-M   'P -1'
_symmetry_Int_Tables_number      2
_space_group_name_Hall           '-P 1'
loop_
_symmetry_equiv_pos_site_id
_symmetry_equiv_pos_as_xyz
1 x,y,z
2 -x,-y,-z
_cell_length_a                   9.713(3)
_cell_length_b                   14.645(4)
_cell_length_c                   15.641(8)
_cell_angle_alpha                113.17(2)
_cell_angle_beta                 90.11(2)
_cell_angle_gamma                109.29(2)
_cell_volume                     1908.16
_exptl_crystal_colour            colorless
_exptl_crystal_description       'rhombic pillared'
_cell_formula_units_Z            4
_exptl_crystal_recrystallization_method 'ethyl acetate/petroleum ether/ethanol'
loop_
_atom_site_label
_atom_site_type_symbol
_atom_site_fract_x
_atom_site_fract_y
_atom_site_fract_z
S1 S 0.31523(10) 0.60184(7) 0.95148(7)
N1 N 0.5804(3) 0.5688(2) 0.9294(2)
N2 N 0.3749(3) 0.4377(2) 0.8413(2)
N3 N 0.6140(3) 0.4810(2) 0.8721(2)
N4 N 0.5497(3) 0.1107(2) 0.6564(2)
C1 C 0.1623(4) 0.2240(3) 0.6770(3)
C2 C 0.1218(4) 0.3130(3) 0.7449(3)
C3 C -0.0241(4) 0.3061(4) 0.7380(3)
C4 C -0.0689(5) 0.3864(4) 0.7954(4)
C5 C 0.0269(4) 0.4779(4) 0.8634(3)
C6 C 0.1737(4) 0.4871(3) 0.8719(3)
C7 C 0.2203(3) 0.4060(3) 0.8157(2)
C8 C 0.4389(3) 0.5398(2) 0.9094(2)
C9 C 0.4931(3) 0.4034(2) 0.8212(2)
C10 C 0.4974(3) 0.2982(2) 0.7604(2)
C11 C 0.4486(3) 0.2124(2) 0.7881(2)
C12 C 0.3757(4) 0.2149(3) 0.8660(3)
C13 C 0.3333(5) 0.1294(3) 0.8880(3)
C14 C 0.3634(5) 0.0381(3) 0.8331(3)
C15 C 0.4341(4) 0.0332(3) 0.7581(3)
C16 C 0.4785(3) 0.1197(3) 0.7324(2)
C17 C 0.5662(3) 0.2869(3) 0.6829(2)
C18 C 0.5912(3) 0.1911(2) 0.6315(2)
C19 C 0.6750(3) 0.1808(3) 0.5511(2)
C20 C 0.7266(4) 0.0974(3) 0.5146(3)
C21 C 0.8168(5) 0.0927(4) 0.4463(3)
C22 C 0.8540(5) 0.1685(4) 0.4115(3)
C23 C 0.7991(5) 0.2492(4) 0.4444(3)
C24 C 0.7105(4) 0.2552(3) 0.5133(3)
loop_
_geom_bond_atom_site_label_1
_geom_bond_atom_site_label_2
_geom_bond_site_symmetry_1
_geom_bond_site_symmetry_2
S1 C6 1_555 1_555
N1 N3 1_555 1_555
N2 C7 1_555 1_555
N3 C9 1_555 1_555
N4 C16 1_555 1_555
C1 C2 1_555 1_555
C2 C3 1_555 1_555
C3 C4 1_555 1_555
C4 C5 1_555 1_555
C5 C6 1_555 1_555
C6 C7 1_555 1_555
C7 C2 1_555 1_555
C8 S1 1_555 1_555
C9 N2 1_555 1_555
C10 C9 1_555 1_555
C11 C10 1_555 1_555
C12 C11 1_555 1_555
C13 C12 1_555 1_555
C14 C13 1_555 1_555
C15 C14 1_555 1_555
C16 C11 1_555 1_555
C17 C10 1_555 1_555
C18 N4 1_555 1_555
C19 C18 1_555 1_555
C20 C19 1_555 1_555
C21 C20 1_555 1_555
C22 C21 1_555 1_555
C23 C22 1_555 1_555
C24 C19 1_555 1_555
N1 C8 1_555 1_555
N2 C8 1_555 1_555
C15 C16 1_555 1_555
C17 C18 1_555 1_555
C23 C24 1_555 1_555

#END
