
#######################################################################
#
#                 Cambridge Crystallographic Data Centre
#                                CCDC 
#
#######################################################################
#
# If this CIF has been generated from an entry in the Cambridge 
# Structural Database, then it will include bibliographic, chemical, 
# crystal, experimental, refinement or atomic coordinate data resulting 
# from the CCDC's data processing and validation procedures.
#
#######################################################################

data_XUXFOL
_chemical_formula_moiety         'C19 H27 B1 F2 N2'
_chemical_name_systematic        
(3-ethyl-5-[1-(4-ethyl-3,5-dimethyl-2H-pyrrol-2-ylidene)propyl]-2,4-dimethyl-1H-pyrrolyl)-difluoro-boron
_symmetry_cell_setting           triclinic
_symmetry_space_group_name_H-M   'P -1'
_symmetry_Int_Tables_number      2
_space_group_name_Hall           '-P 1'
loop_
_symmetry_equiv_pos_site_id
_symmetry_equiv_pos_as_xyz
1 x,y,z
2 -x,-y,-z
_cell_length_a                   12.257(2)
_cell_length_b                   17.830(8)
_cell_length_c                   8.877(2)
_cell_angle_alpha                100.26(2)
_cell_angle_beta                 107.57(1)
_cell_angle_gamma                76.96(2)
_cell_volume                     1789.12
_chemical_melting_point          '151-152 deg.C'
_cell_formula_units_Z            4
loop_
_atom_site_label
_atom_site_type_symbol
_atom_site_fract_x
_atom_site_fract_y
_atom_site_fract_z
F1 F 0.1491(2) 0.9331(2) -0.3601(3)
F2 F 0.1850(2) 0.8035(2) -0.4262(3)
N1 N 0.0475(3) 0.8562(2) -0.2735(5)
N2 N 0.2575(4) 0.8538(2) -0.1536(5)
C1 C -0.0575(5) 0.8556(3) -0.3791(6)
C2 C -0.1415(4) 0.8537(3) -0.3009(6)
C3 C -0.0846(5) 0.8533(3) -0.1409(6)
C4 C 0.0348(5) 0.8545(3) -0.1214(6)
C5 C 0.1326(4) 0.8522(3) 0.0105(6)
C6 C 0.2437(5) 0.8505(3) -0.0050(6)
C7 C 0.3558(5) 0.8463(3) 0.1071(6)
C8 C 0.4343(5) 0.8477(3) 0.0242(6)
C9 C 0.3714(5) 0.8529(3) -0.1347(6)
C10 C -0.0795(5) 0.8627(3) -0.5514(6)
C11 C -0.2680(5) 0.8540(3) -0.3808(7)
C12 C -0.3419(5) 0.9349(4) -0.3828(7)
C13 C -0.1453(5) 0.8545(3) -0.0167(7)
C14 C 0.1156(5) 0.8591(3) 0.1729(6)
C15 C 0.0895(5) 0.9449(3) 0.2397(6)
C16 C 0.3907(5) 0.8394(3) 0.2822(7)
C17 C 0.5634(5) 0.8449(3) 0.0883(7)
C18 C 0.5957(5) 0.9241(4) 0.1497(7)
C19 C 0.4161(5) 0.8580(3) -0.2717(7)
B1 B 0.1603(5) 0.8626(4) -0.3087(7)
F3 F 0.8222(2) 0.5706(2) 0.1904(3)
F4 F 0.7801(2) 0.7003(2) 0.2529(3)
N3 N 0.7069(3) 0.6471(2) -0.0186(5)
N4 N 0.9175(4) 0.6496(2) 0.0980(5)
C20 C 0.5944(5) 0.6453(3) -0.0341(6)
C21 C 0.5299(5) 0.6499(3) -0.1923(60)
C22 C 0.6058(4) 0.6534(3) -0.2787(6)
C23 C 0.7182(5) 0.6514(3) -0.1690(6)
C24 C 0.8293(5) 0.6494(3) -0.1868(6)
C25 C 0.9274(5) 0.6482(3) -0.0556(6)
C26 C 1.0473(5) 0.6479(3) -0.0399(7)
C27 C 1.1054(5) 0.6496(3) 0.1195(7)
C28 C 1.0233(5) 0.6506(3) 0.2027(6)
C29 C 0.5524(5) 0.6378(3) 0.1025(7)
C30 C 0.4017(4) 0.6480(3) -0.2570(7)
C31 C 0.3761(50) 0.5678(4) -0.3144(8)
C32 C 0.5701(5) 0.6580(3) -0.4549(6)
C33 C 0.8427(5) 0.6439(3) -0.3518(6)
C34 C 0.8687(5) 0.5587(4) -0.4183(7)
C35 C 1.1059(5) 0.6451(3) -0.1685(7)
C36 C 1.2325(5) 0.6469(3) 0.1955(7)
C37 C 1.3017(5) 0.5647(4) 0.1941(8)
C38 C 1.0434(5) 0.6516(3) 0.3765(7)
B2 B 0.8069(6) 0.6423(4) 0.1369(8)
loop_
_geom_bond_atom_site_label_1
_geom_bond_atom_site_label_2
_geom_bond_site_symmetry_1
_geom_bond_site_symmetry_2
F1 B1 1_555 1_555
F2 B1 1_555 1_555
F3 B2 1_555 1_555
F4 B2 1_555 1_555
N1 C1 1_555 1_555
N2 C6 1_555 1_555
N3 C20 1_555 1_555
N4 C25 1_555 1_555
C1 C2 1_555 1_555
C2 C3 1_555 1_555
C3 C4 1_555 1_555
C4 N1 1_555 1_555
C5 C4 1_555 1_555
C6 C5 1_555 1_555
C7 C6 1_555 1_555
C8 C7 1_555 1_555
C9 N2 1_555 1_555
C10 C1 1_555 1_555
C11 C2 1_555 1_555
C12 C11 1_555 1_555
C13 C3 1_555 1_555
C14 C5 1_555 1_555
C15 C14 1_555 1_555
C16 C7 1_555 1_555
C17 C8 1_555 1_555
C18 C17 1_555 1_555
C19 C9 1_555 1_555
C20 C21 1_555 1_555
C21 C22 1_555 1_555
C22 C23 1_555 1_555
C23 N3 1_555 1_555
C24 C23 1_555 1_555
C25 C24 1_555 1_555
C26 C25 1_555 1_555
C27 C26 1_555 1_555
C28 N4 1_555 1_555
C29 C20 1_555 1_555
C30 C21 1_555 1_555
C31 C30 1_555 1_555
C32 C22 1_555 1_555
C33 C24 1_555 1_555
C34 C33 1_555 1_555
C35 C26 1_555 1_555
C36 C27 1_555 1_555
C37 C36 1_555 1_555
C38 C28 1_555 1_555
B1 N1 1_555 1_555
B2 N3 1_555 1_555
N2 B1 1_555 1_555
N4 B2 1_555 1_555
C8 C9 1_555 1_555
C27 C28 1_555 1_555

#END
