
#######################################################################
#
#                 Cambridge Crystallographic Data Centre
#                                CCDC 
#
#######################################################################
#
# If this CIF has been generated from an entry in the Cambridge 
# Structural Database, then it will include bibliographic, chemical, 
# crystal, experimental, refinement or atomic coordinate data resulting 
# from the CCDC's data processing and validation procedures.
#
#######################################################################

data_XUYROA
_chemical_formula_moiety         'C25 H17 Cl1 N2 O5'
_chemical_name_systematic        
'2-(5-chloro-3-(2-methoxy-2-oxo-1-(pyridinium-1-yl)ethyl)-2-oxo-2,3-dihydro-1H-indol-3-yl)-1,3-dioxo-2,3-dihydro-1H-inden-2-ide unknown solvate'
_symmetry_cell_setting           monoclinic
_symmetry_space_group_name_H-M   'P 21/n'
_symmetry_Int_Tables_number      14
_space_group_name_Hall           '-P 2yn'
loop_
_symmetry_equiv_pos_site_id
_symmetry_equiv_pos_as_xyz
1 x,y,z
2 1/2-x,1/2+y,1/2-z
3 -x,-y,-z
4 1/2+x,1/2-y,1/2+z
_cell_length_a                   11.7830(18)
_cell_length_b                   13.245(2)
_cell_length_c                   15.8627(18)
_cell_angle_alpha                90
_cell_angle_beta                 94.265(4)
_cell_angle_gamma                90
_cell_volume                     2468.77
_cell_formula_units_Z            4
loop_
_atom_site_label
_atom_site_type_symbol
_atom_site_fract_x
_atom_site_fract_y
_atom_site_fract_z
C1 C 0.8988(2) 0.27743(18) 0.71114(16)
H1 H 0.9548 0.2955 0.6756
C2 C 0.8997(2) 0.31860(19) 0.79075(16)
H2 H 0.9564 0.3640 0.8093
C3 C 0.8157(2) 0.29210(19) 0.84317(16)
H3 H 0.8148 0.3201 0.8969
C4 C 0.7334(2) 0.22365(19) 0.81469(16)
H4 H 0.6767 0.2047 0.8493
C5 C 0.7355(2) 0.18343(18) 0.73469(15)
H5 H 0.6803 0.1371 0.7154
C6 C 0.82049(19) 0.16878(17) 0.59734(14)
H6 H 0.8687 0.2145 0.5670
C7 C 0.88008(19) 0.06658(18) 0.59968(15)
C8 C 1.0086(3) -0.0434(2) 0.67322(18)
H7 H 0.9574 -0.0996 0.6659
H8 H 1.0519 -0.0491 0.7267
H9 H 1.0593 -0.0432 0.6286
C9 C 0.70219(18) 0.16575(17) 0.54466(14)
C10 C 0.64212(19) 0.06221(17) 0.55616(15)
C11 C 0.66616(18) 0.07635(17) 0.41546(15)
C12 C 0.6590(2) 0.05777(18) 0.32975(15)
H10 H 0.6243 -0.0005 0.3076
C13 C 0.7052(2) 0.12847(19) 0.27751(15)
H11 H 0.6999 0.1190 0.2193
C14 C 0.7595(2) 0.21356(18) 0.31259(15)
C15 C 0.7669(2) 0.23287(18) 0.39870(15)
H12 H 0.8026 0.2906 0.4210
C16 C 0.71901(18) 0.16270(17) 0.45030(14)
C17 C 0.62744(19) 0.25339(17) 0.56525(14)
C18 C 0.50691(19) 0.25313(17) 0.56404(13)
C19 C 0.47048(19) 0.35921(17) 0.58402(14)
C20 C 0.3649(2) 0.39920(18) 0.59203(15)
H13 H 0.3001 0.3589 0.5861
C21 C 0.3569(2) 0.50342(19) 0.60953(15)
H14 H 0.2860 0.5323 0.6155
C22 C 0.4533(2) 0.56298(18) 0.61789(15)
H15 H 0.4466 0.6314 0.6298
C23 C 0.5612(2) 0.52145(17) 0.60867(15)
H16 H 0.6262 0.5615 0.6137
C24 C 0.5681(2) 0.41984(17) 0.59204(14)
C25 C 0.66879(19) 0.35402(17) 0.57616(14)
Cl1 Cl 0.81660(7) 0.30034(5) 0.24448(4)
N1 N 0.62207(16) 0.01871(14) 0.47937(12)
H17 H 0.5909 -0.0449 0.4734
N2 N 0.81722(16) 0.21101(14) 0.68447(12)
O1 O 0.94352(15) 0.05045(13) 0.67082(11)
O2 O 0.87215(15) 0.00948(13) 0.54046(11)
O3 O 0.43788(13) 0.18255(12) 0.54801(10)
O4 O 0.76883(13) 0.38570(12) 0.57272(10)
O5 O 0.61848(14) 0.02538(12) 0.62361(10)
loop_
_geom_bond_atom_site_label_1
_geom_bond_atom_site_label_2
_geom_bond_site_symmetry_1
_geom_bond_site_symmetry_2
C1 H1 1_555 1_555
C2 C1 1_555 1_555
H2 C2 1_555 1_555
C3 C2 1_555 1_555
H3 C3 1_555 1_555
C4 C3 1_555 1_555
H4 C4 1_555 1_555
C5 C4 1_555 1_555
H5 C5 1_555 1_555
C6 H6 1_555 1_555
C7 C6 1_555 1_555
C8 H7 1_555 1_555
H8 C8 1_555 1_555
H9 C8 1_555 1_555
C9 C6 1_555 1_555
C10 C9 1_555 1_555
C11 C12 1_555 1_555
C12 H10 1_555 1_555
C13 C12 1_555 1_555
H11 C13 1_555 1_555
C14 C13 1_555 1_555
C15 C14 1_555 1_555
H12 C15 1_555 1_555
C16 C9 1_555 1_555
C17 C9 1_555 1_555
C18 C17 1_555 1_555
C19 C18 1_555 1_555
C20 C19 1_555 1_555
H13 C20 1_555 1_555
C21 C20 1_555 1_555
H14 C21 1_555 1_555
C22 C21 1_555 1_555
H15 C22 1_555 1_555
C23 C22 1_555 1_555
H16 C23 1_555 1_555
C24 C19 1_555 1_555
C25 C17 1_555 1_555
Cl1 C14 1_555 1_555
N1 C10 1_555 1_555
H17 N1 1_555 1_555
N2 C1 1_555 1_555
O1 C7 1_555 1_555
O2 C7 1_555 1_555
O3 C18 1_555 1_555
O4 C25 1_555 1_555
O5 C10 1_555 1_555
C5 N2 1_555 1_555
C6 N2 1_555 1_555
C8 O1 1_555 1_555
C11 C16 1_555 1_555
C11 N1 1_555 1_555
C15 C16 1_555 1_555
C23 C24 1_555 1_555
C24 C25 1_555 1_555

#END
