
#######################################################################
#
#                 Cambridge Crystallographic Data Centre
#                                CCDC 
#
#######################################################################
#
# If this CIF has been generated from an entry in the Cambridge 
# Structural Database, then it will include bibliographic, chemical, 
# crystal, experimental, refinement or atomic coordinate data resulting 
# from the CCDC's data processing and validation procedures.
#
#######################################################################

data_XUYTIW
_chemical_formula_moiety         'C15 H20 N2 O1'
_chemical_name_systematic        1-(3-ethynylphenyl)-3-hexylurea
_symmetry_cell_setting           monoclinic
_symmetry_space_group_name_H-M   'C c'
_symmetry_Int_Tables_number      9
_space_group_name_Hall           'C -2yc'
loop_
_symmetry_equiv_pos_site_id
_symmetry_equiv_pos_as_xyz
1 x,y,z
2 x,-y,1/2+z
3 1/2+x,1/2+y,z
4 1/2+x,1/2-y,1/2+z
_cell_length_a                   23.590(2)
_cell_length_b                   39.676(5)
_cell_length_c                   9.7913(13)
_cell_angle_alpha                90
_cell_angle_beta                 108.671(9)
_cell_angle_gamma                90
_cell_volume                     8681.94
_exptl_crystal_colour            colorless
_cell_formula_units_Z            24
_exptl_crystal_recrystallization_method Methanol
loop_
_atom_site_label
_atom_site_type_symbol
_atom_site_fract_x
_atom_site_fract_y
_atom_site_fract_z
O1 O 0.07278(5) 0.13788(3) 0.13458(13)
N1 N 0.02055(7) 0.14821(4) -0.09970(17)
H1 H -0.0096(9) 0.1408(5) -0.171(2)
N2 N -0.00632(7) 0.10414(4) 0.01715(16)
H2 H -0.0326(9) 0.1008(5) -0.0637(18)
C1 C 0.02436(11) 0.33716(5) -0.2045(4)
H3 H -0.0147 0.3346 -0.2790
H4 H 0.0467 0.3554 -0.2316
H5 H 0.0186 0.3426 -0.1122
C2 C 0.05921(9) 0.30442(5) -0.1904(3)
H6 H 0.0977 0.3068 -0.1114
H7 H 0.0684 0.3004 -0.2808
C3 C 0.02561(8) 0.27396(5) -0.1596(2)
H8 H 0.0178 0.2777 -0.0672
H9 H -0.0136 0.2722 -0.2365
C4 C 0.05902(8) 0.24070(4) -0.1510(2)
H10 H 0.0970 0.2417 -0.0698
H11 H 0.0691 0.2375 -0.2409
C5 C 0.02227(8) 0.21034(4) -0.12944(19)
H12 H 0.0110 0.2139 -0.0415
H13 H -0.0150 0.2088 -0.2124
C6 C 0.05647(8) 0.17725(4) -0.1154(2)
H14 H 0.0689 0.1740 -0.2019
H15 H 0.0931 0.1785 -0.0305
C7 C 0.03148(7) 0.13076(4) 0.02299(19)
C8 C -0.00319(7) 0.08266(4) 0.13453(19)
C9 C -0.01492(7) 0.04849(4) 0.10920(19)
H16 H -0.0244 0.0398 0.0141
C10 C -0.01280(7) 0.02680(4) 0.2234(2)
C11 C -0.02410(8) -0.00879(5) 0.20129(19)
C12 C -0.03317(9) -0.03822(5) 0.1905(2)
H17 H -0.0404 -0.0618 0.1819
C13 C 0.00170(8) 0.03952(5) 0.3629(2)
H18 H 0.0042 0.0248 0.4413
C14 C 0.01238(9) 0.07362(5) 0.3870(2)
H19 H 0.0219 0.0823 0.4821
C15 C 0.00938(8) 0.09532(5) 0.2743(2)
H20 H 0.0158 0.1188 0.2919
O2 O 0.26581(6) 0.10470(3) 0.37928(15)
N3 N 0.16608(7) 0.09831(4) 0.33997(18)
H21 H 0.1312(8) 0.1062(5) 0.290(2)
N4 N 0.19904(7) 0.13922(4) 0.21964(18)
H22 H 0.1615(7) 0.1432(5) 0.183(2)
C16 C 0.14057(18) -0.09070(6) 0.3630(3)
H23 H 0.1010 -0.0896 0.2896
H24 H 0.1423 -0.1101 0.4260
H25 H 0.1713 -0.0931 0.3159
C17 C 0.15160(12) -0.05871(5) 0.4518(2)
H26 H 0.1911 -0.0603 0.5277
H27 H 0.1207 -0.0566 0.4999
C18 C 0.15026(10) -0.02727(5) 0.3611(2)
H28 H 0.1806 -0.0298 0.3117
H29 H 0.1106 -0.0258 0.2860
C19 C 0.16202(9) 0.00553(5) 0.4461(2)
H30 H 0.1331 0.0077 0.4998
H31 H 0.2027 0.0049 0.5174
C20 C 0.15672(8) 0.03618(5) 0.3497(2)
H32 H 0.1154 0.0374 0.2816
H33 H 0.1842 0.0335 0.2923
C21 C 0.17144(9) 0.06909(5) 0.4346(2)
H34 H 0.1440 0.0719 0.4919
H35 H 0.2128 0.0679 0.5026
C22 C 0.21300(8) 0.11327(4) 0.3173(2)
C23 C 0.24154(8) 0.15946(4) 0.18356(19)
C24 C 0.22886(8) 0.19326(5) 0.15488(18)
H36 H 0.1924 0.2023 0.1603
C25 C 0.26946(8) 0.21429(5) 0.11783(19)
C26 C 0.25622(8) 0.24933(5) 0.0878(2)
C27 C 0.24534(9) 0.27843(5) 0.0636(2)
H37 H 0.2367 0.3017 0.0444
C28 C 0.32373(9) 0.20085(5) 0.1120(2)
H38 H 0.3521 0.2149 0.0891
C29 C 0.33548(9) 0.16692(5) 0.1398(2)
H39 H 0.3721 0.1578 0.1359
C30 C 0.29486(9) 0.14615(5) 0.1733(2)
H40 H 0.3032 0.1228 0.1894
O3 O 0.41962(6) 0.14563(3) 0.77556(14)
N5 N 0.36531(7) 0.15379(4) 0.54071(18)
H41 H 0.3381(9) 0.1457(5) 0.468(2)
N6 N 0.34422(7) 0.10879(4) 0.66165(18)
H42 H 0.3184(9) 0.1058(5) 0.5792(19)
C31 C 0.36731(10) 0.34428(5) 0.5621(3)
H43 H 0.3264 0.3462 0.4957
H44 H 0.3903 0.3642 0.5529
H45 H 0.3664 0.3427 0.6613
C32 C 0.39658(9) 0.31282(5) 0.5258(3)
H46 H 0.4380 0.3112 0.5927
H47 H 0.3987 0.3150 0.4268
C33 C 0.36302(8) 0.28050(5) 0.5355(2)
H48 H 0.3228 0.2813 0.4622
H49 H 0.3576 0.2794 0.6316
C34 C 0.39493(8) 0.24855(4) 0.5127(2)
H50 H 0.4355 0.2479 0.5847
H51 H 0.3995 0.2493 0.4157
C35 C 0.36093(8) 0.21641(4) 0.5263(2)
H52 H 0.3518 0.2171 0.6181
H53 H 0.3225 0.2157 0.4465
C36 C 0.39638(8) 0.18443(4) 0.5223(2)
H54 H 0.4042 0.1833 0.4289
H55 H 0.4355 0.1856 0.5996
C37 C 0.37860(8) 0.13689(4) 0.6654(2)
C38 C 0.34683(8) 0.08770(4) 0.7794(2)
C39 C 0.33067(8) 0.05401(4) 0.7512(2)
H56 H 0.3195 0.0457 0.6552
C40 C 0.33093(8) 0.03233(5) 0.8647(2)
C41 C 0.31601(8) -0.00273(5) 0.8393(2)
C42 C 0.30501(9) -0.03202(5) 0.8266(2)
H57 H 0.2962 -0.0554 0.8165
C43 C 0.34804(10) 0.04455(5) 1.0058(2)
H58 H 0.3487 0.0300 1.0833
C44 C 0.36407(11) 0.07807(6) 1.0319(2)
H59 H 0.3760 0.0863 1.1280
C45 C 0.36295(11) 0.09979(5) 0.9203(2)
H60 H 0.3731 0.1229 0.9397
O4 O 0.61500(6) 0.10740(3) 0.99966(14)
N7 N 0.51516(8) 0.09987(4) 0.95567(18)
H61 H 0.4799(8) 0.1084(6) 0.910(3)
N8 N 0.54793(8) 0.14391(4) 0.85104(18)
H62 H 0.5109(8) 0.1491(6) 0.825(3)
C46 C 0.46535(12) -0.08824(5) 0.9761(3)
H63 H 0.4262 -0.0869 0.9010
H64 H 0.4653 -0.1069 1.0414
H65 H 0.4965 -0.0921 0.9314
C47 C 0.47789(9) -0.05538(5) 1.0608(2)
H66 H 0.5158 -0.0577 1.1415
H67 H 0.4455 -0.0513 1.1027
C48 C 0.48259(8) -0.02499(4) 0.9696(2)
H68 H 0.5131 -0.0297 0.9225
H69 H 0.4438 -0.0218 0.8926
C49 C 0.49905(8) 0.00761(5) 1.0550(2)
H70 H 0.5395 0.0052 1.1265
H71 H 0.4704 0.0115 1.1085
C50 C 0.49848(8) 0.03805(5) 0.9596(2)
H72 H 0.5244 0.0334 0.8999
H73 H 0.4572 0.0416 0.8938
C51 C 0.52005(10) 0.06996(5) 1.0464(2)
H74 H 0.4963 0.0736 1.1120
H75 H 0.5624 0.0670 1.1064
C52 C 0.56237(9) 0.11624(4) 0.93959(19)
C53 C 0.58925(9) 0.16785(4) 0.83253(18)
C54 C 0.57101(8) 0.20131(4) 0.81077(19)
H76 H 0.5319 0.2075 0.8095
C55 C 0.61008(9) 0.22581(4) 0.79083(18)
C56 C 0.59267(8) 0.26078(5) 0.77041(19)
C57 C 0.58080(9) 0.28973(5) 0.7541(2)
H77 H 0.5713 0.3130 0.7410
C58 C 0.66792(9) 0.21685(5) 0.7939(2)
H78 H 0.6949 0.2335 0.7825
C59 C 0.68526(10) 0.18352(5) 0.8137(2)
H79 H 0.7242 0.1773 0.8138
C60 C 0.64685(10) 0.15890(5) 0.8334(2)
H80 H 0.6595 0.1361 0.8474
O5 O 0.72755(5) 0.14869(3) 1.45022(13)
N9 N 0.69964(7) 0.15475(4) 1.20627(17)
H81 H 0.6784(9) 0.1455(5) 1.1260(19)
N10 N 0.66568(7) 0.10979(4) 1.30378(16)
H82 H 0.6512(9) 0.1038(5) 1.2126(17)
C61 C 0.69749(15) 0.34520(6) 1.1692(5)
H83 H 0.6576 0.3440 1.0973
H84 H 0.7193 0.3644 1.1476
H85 H 0.6937 0.3480 1.2653
C62 C 0.73115(11) 0.31328(5) 1.1653(3)
H86 H 0.7698 0.3138 1.2445
H87 H 0.7400 0.3123 1.0731
C63 C 0.69683(9) 0.28151(5) 1.1800(2)
H88 H 0.6863 0.2830 1.2699
H89 H 0.6590 0.2805 1.0983
C64 C 0.73145(8) 0.24925(5) 1.1827(2)
H90 H 0.7683 0.2497 1.2673
H91 H 0.7437 0.2482 1.0950
C65 C 0.69572(8) 0.21743(4) 1.19011(19)
H92 H 0.6804 0.2193 1.2729
H93 H 0.6609 0.2158 1.1012
C66 C 0.73316(8) 0.18561(4) 1.2064(2)
H94 H 0.7503 0.1846 1.1265
H95 H 0.7669 0.1869 1.2978
C67 C 0.69930(7) 0.13880(4) 1.32721(19)
C68 C 0.65859(8) 0.08869(4) 1.41283(19)
C69 C 0.65947(7) 0.05398(4) 1.39453(18)
H96 H 0.6656 0.0449 1.3105
C70 C 0.65132(8) 0.03225(4) 1.49944(19)
C71 C 0.65372(8) -0.00381(5) 1.4855(2)
C72 C 0.65520(10) -0.03354(5) 1.4815(2)
H97 H 0.6564 -0.0575 1.4783
C73 C 0.64202(9) 0.04571(5) 1.6212(2)
H98 H 0.6369 0.0312 1.6935
C74 C 0.64013(10) 0.08023(5) 1.6378(2)
H99 H 0.6332 0.0892 1.7211
C75 C 0.64812(9) 0.10197(5) 1.5349(2)
H100 H 0.6465 0.1257 1.5471
O6 O 0.91363(6) 0.10953(3) 1.73248(13)
N11 N 0.81252(7) 0.10818(4) 1.68245(17)
H101 H 0.7794(8) 0.1148(5) 1.624(2)
N12 N 0.85454(7) 0.14601(4) 1.56639(16)
H102 H 0.8183(8) 0.1526(5) 1.527(2)
C76 C 0.82633(12) -0.08172(6) 1.7400(3)
H103 H 0.7903 -0.0843 1.6562
H104 H 0.8296 -0.1009 1.8054
H105 H 0.8616 -0.0810 1.7079
C77 C 0.82242(10) -0.04909(5) 1.8186(2)
H106 H 0.8577 -0.0474 1.9066
H107 H 0.7862 -0.0498 1.8489
C78 C 0.81984(9) -0.01788(5) 1.7261(2)
H108 H 0.7845 -0.0197 1.6383
H109 H 0.8559 -0.0175 1.6952
C79 C 0.81623(9) 0.01535(5) 1.8011(2)
H110 H 0.8516 0.0175 1.8885
H111 H 0.7801 0.0152 1.8318
C80 C 0.81363(8) 0.04570(5) 1.7034(2)
H112 H 0.8485 0.0449 1.6681
H113 H 0.7771 0.0440 1.6185
C81 C 0.81338(9) 0.07956(5) 1.7773(2)
H114 H 0.7778 0.0807 1.8099
H115 H 0.8494 0.0811 1.8636
C82 C 0.86296(8) 0.12029(4) 1.66461(18)
C83 C 0.90053(8) 0.16406(4) 1.53510(18)
C84 C 0.89263(8) 0.19830(4) 1.50468(18)
H116 H 0.8570 0.2091 1.5069
C85 C 0.93677(8) 0.21704(4) 1.47079(18)
C86 C 0.92885(8) 0.25252(5) 1.4381(2)
C87 C 0.92406(9) 0.28171(5) 1.4108(2)
H117 H 0.9202 0.3051 1.3890
C88 C 0.98963(8) 0.20108(5) 1.4713(2)
H118 H 1.0204 0.2136 1.4513
C89 C 0.99706(9) 0.16693(5) 1.5009(2)
H119 H 1.0331 0.1562 1.5011
C90 C 0.95273(8) 0.14821(5) 1.5300(2)
H120 H 0.9578 0.1246 1.5466
loop_
_geom_bond_atom_site_label_1
_geom_bond_atom_site_label_2
_geom_bond_site_symmetry_1
_geom_bond_site_symmetry_2
O1 C7 1_555 1_555
N1 H1 1_555 1_555
N2 H2 1_555 1_555
C1 H3 1_555 1_555
H4 C1 1_555 1_555
H5 C1 1_555 1_555
C2 C1 1_555 1_555
H6 C2 1_555 1_555
H7 C2 1_555 1_555
C3 C2 1_555 1_555
H8 C3 1_555 1_555
H9 C3 1_555 1_555
C4 C3 1_555 1_555
H10 C4 1_555 1_555
H11 C4 1_555 1_555
C5 C4 1_555 1_555
H12 C5 1_555 1_555
H13 C5 1_555 1_555
C6 N1 1_555 1_555
H14 C6 1_555 1_555
H15 C6 1_555 1_555
C7 N1 1_555 1_555
C8 N2 1_555 1_555
C9 C8 1_555 1_555
H16 C9 1_555 1_555
C10 C9 1_555 1_555
C11 C10 1_555 1_555
C12 C11 1_555 1_555
H17 C12 1_555 1_555
C13 C10 1_555 1_555
H18 C13 1_555 1_555
C14 C13 1_555 1_555
H19 C14 1_555 1_555
C15 C8 1_555 1_555
H20 C15 1_555 1_555
O2 C22 1_555 1_555
N3 H21 1_555 1_555
N4 H22 1_555 1_555
C16 H23 1_555 1_555
H24 C16 1_555 1_555
H25 C16 1_555 1_555
C17 C16 1_555 1_555
H26 C17 1_555 1_555
H27 C17 1_555 1_555
C18 C17 1_555 1_555
H28 C18 1_555 1_555
H29 C18 1_555 1_555
C19 C18 1_555 1_555
H30 C19 1_555 1_555
H31 C19 1_555 1_555
C20 C19 1_555 1_555
H32 C20 1_555 1_555
H33 C20 1_555 1_555
C21 N3 1_555 1_555
H34 C21 1_555 1_555
H35 C21 1_555 1_555
C22 N3 1_555 1_555
C23 N4 1_555 1_555
C24 C23 1_555 1_555
H36 C24 1_555 1_555
C25 C24 1_555 1_555
C26 C25 1_555 1_555
C27 C26 1_555 1_555
H37 C27 1_555 1_555
C28 C25 1_555 1_555
H38 C28 1_555 1_555
C29 C28 1_555 1_555
H39 C29 1_555 1_555
C30 C23 1_555 1_555
H40 C30 1_555 1_555
O3 C37 1_555 1_555
N5 H41 1_555 1_555
N6 H42 1_555 1_555
C31 H43 1_555 1_555
H44 C31 1_555 1_555
H45 C31 1_555 1_555
C32 C31 1_555 1_555
H46 C32 1_555 1_555
H47 C32 1_555 1_555
C33 C32 1_555 1_555
H48 C33 1_555 1_555
H49 C33 1_555 1_555
C34 C33 1_555 1_555
H50 C34 1_555 1_555
H51 C34 1_555 1_555
C35 C34 1_555 1_555
H52 C35 1_555 1_555
H53 C35 1_555 1_555
C36 N5 1_555 1_555
H54 C36 1_555 1_555
H55 C36 1_555 1_555
C37 N5 1_555 1_555
C38 N6 1_555 1_555
C39 C38 1_555 1_555
H56 C39 1_555 1_555
C40 C39 1_555 1_555
C41 C40 1_555 1_555
C42 C41 1_555 1_555
H57 C42 1_555 1_555
C43 C40 1_555 1_555
H58 C43 1_555 1_555
C44 C43 1_555 1_555
H59 C44 1_555 1_555
C45 C38 1_555 1_555
H60 C45 1_555 1_555
O4 C52 1_555 1_555
N7 H61 1_555 1_555
N8 H62 1_555 1_555
C46 H63 1_555 1_555
H64 C46 1_555 1_555
H65 C46 1_555 1_555
C47 C46 1_555 1_555
H66 C47 1_555 1_555
H67 C47 1_555 1_555
C48 C47 1_555 1_555
H68 C48 1_555 1_555
H69 C48 1_555 1_555
C49 C48 1_555 1_555
H70 C49 1_555 1_555
H71 C49 1_555 1_555
C50 C49 1_555 1_555
H72 C50 1_555 1_555
H73 C50 1_555 1_555
C51 N7 1_555 1_555
H74 C51 1_555 1_555
H75 C51 1_555 1_555
C52 N7 1_555 1_555
C53 N8 1_555 1_555
C54 C53 1_555 1_555
H76 C54 1_555 1_555
C55 C54 1_555 1_555
C56 C55 1_555 1_555
C57 C56 1_555 1_555
H77 C57 1_555 1_555
C58 C55 1_555 1_555
H78 C58 1_555 1_555
C59 C58 1_555 1_555
H79 C59 1_555 1_555
C60 C53 1_555 1_555
H80 C60 1_555 1_555
O5 C67 1_555 1_555
N9 H81 1_555 1_555
N10 H82 1_555 1_555
C61 H83 1_555 1_555
H84 C61 1_555 1_555
H85 C61 1_555 1_555
C62 C61 1_555 1_555
H86 C62 1_555 1_555
H87 C62 1_555 1_555
C63 C62 1_555 1_555
H88 C63 1_555 1_555
H89 C63 1_555 1_555
C64 C63 1_555 1_555
H90 C64 1_555 1_555
H91 C64 1_555 1_555
C65 C64 1_555 1_555
H92 C65 1_555 1_555
H93 C65 1_555 1_555
C66 N9 1_555 1_555
H94 C66 1_555 1_555
H95 C66 1_555 1_555
C67 N9 1_555 1_555
C68 N10 1_555 1_555
C69 C68 1_555 1_555
H96 C69 1_555 1_555
C70 C69 1_555 1_555
C71 C70 1_555 1_555
C72 C71 1_555 1_555
H97 C72 1_555 1_555
C73 C70 1_555 1_555
H98 C73 1_555 1_555
C74 C73 1_555 1_555
H99 C74 1_555 1_555
C75 C68 1_555 1_555
H100 C75 1_555 1_555
O6 C82 1_555 1_555
N11 H101 1_555 1_555
N12 H102 1_555 1_555
C76 H103 1_555 1_555
H104 C76 1_555 1_555
H105 C76 1_555 1_555
C77 C76 1_555 1_555
H106 C77 1_555 1_555
H107 C77 1_555 1_555
C78 C77 1_555 1_555
H108 C78 1_555 1_555
H109 C78 1_555 1_555
C79 C78 1_555 1_555
H110 C79 1_555 1_555
H111 C79 1_555 1_555
C80 C79 1_555 1_555
H112 C80 1_555 1_555
H113 C80 1_555 1_555
C81 N11 1_555 1_555
H114 C81 1_555 1_555
H115 C81 1_555 1_555
C82 N11 1_555 1_555
C83 N12 1_555 1_555
C84 C83 1_555 1_555
H116 C84 1_555 1_555
C85 C84 1_555 1_555
C86 C85 1_555 1_555
C87 C86 1_555 1_555
H117 C87 1_555 1_555
C88 C85 1_555 1_555
H118 C88 1_555 1_555
C89 C88 1_555 1_555
H119 C89 1_555 1_555
C90 C83 1_555 1_555
H120 C90 1_555 1_555
N2 C7 1_555 1_555
C5 C6 1_555 1_555
C14 C15 1_555 1_555
N4 C22 1_555 1_555
C20 C21 1_555 1_555
C29 C30 1_555 1_555
N6 C37 1_555 1_555
C35 C36 1_555 1_555
C44 C45 1_555 1_555
N8 C52 1_555 1_555
C50 C51 1_555 1_555
C59 C60 1_555 1_555
N10 C67 1_555 1_555
C65 C66 1_555 1_555
C74 C75 1_555 1_555
N12 C82 1_555 1_555
C80 C81 1_555 1_555
C89 C90 1_555 1_555

#END
