
#######################################################################
#
#                 Cambridge Crystallographic Data Centre
#                                CCDC 
#
#######################################################################
#
# If this CIF has been generated from an entry in the Cambridge 
# Structural Database, then it will include bibliographic, chemical, 
# crystal, experimental, refinement or atomic coordinate data resulting 
# from the CCDC's data processing and validation procedures.
#
#######################################################################

data_XUYTEQ
_chemical_formula_moiety         'C17 H14 O3'
_chemical_name_systematic        3-Benzoyl-2-hydroxy-2-methylchromene
_symmetry_cell_setting           orthorhombic
_symmetry_space_group_name_H-M   'P 21 21 21'
_symmetry_Int_Tables_number      19
_space_group_name_Hall           'P 2ac 2ab'
loop_
_symmetry_equiv_pos_site_id
_symmetry_equiv_pos_as_xyz
1 x,y,z
2 1/2-x,-y,1/2+z
3 1/2+x,1/2-y,-z
4 -x,1/2+y,1/2-z
_cell_length_a                   5.691(4)
_cell_length_b                   6.902(3)
_cell_length_c                   34.044(2)
_cell_angle_alpha                90
_cell_angle_beta                 90
_cell_angle_gamma                90
_cell_volume                     1337.22
_exptl_crystal_colour            'pale yellow'
_exptl_crystal_description       prism
_cell_formula_units_Z            4
_exptl_crystal_recrystallization_method 'chloroform/petroleum ether'
loop_
_atom_site_label
_atom_site_type_symbol
_atom_site_fract_x
_atom_site_fract_y
_atom_site_fract_z
O1 O 0.0360(5) -0.2317(3) 0.06510(7)
C1 C 0.1377(6) -0.2490(5) 0.10378(9)
C2 C 0.1996(6) -0.0488(4) 0.12031(9)
C3 C 0.0678(6) 0.1039(4) 0.10900(9)
H1 H 0.0896 0.2226 0.1214
C4 C -0.2556(7) 0.2408(5) 0.06775(9)
H2 H -0.2500 0.3573 0.0815
C5 C -0.4121(8) 0.2184(6) 0.03701(11)
H3 H -0.5134 0.3191 0.0304
C6 C -0.4185(7) 0.0460(6) 0.01603(10)
H4 H -0.5245 0.0313 -0.0045
C7 C -0.2677(8) -0.1039(5) 0.02561(10)
H5 H -0.2692 -0.2180 0.0111
C8 C -0.1146(6) -0.0837(5) 0.05693(9)
C9 C -0.1055(6) 0.0888(4) 0.07828(8)
O2 O -0.0249(5) -0.3412(3) 0.12859(8)
H6 H -0.1231 -0.2623 0.1360
C10 C 0.3389(7) -0.3872(5) 0.09769(12)
H7 H 0.3960 -0.4306 0.1227
H8 H 0.4630 -0.3226 0.0838
H9 H 0.2861 -0.4966 0.0827
C11 C 0.3934(6) -0.0174(5) 0.14832(9)
O3 O 0.5707(5) -0.1154(4) 0.14903(9)
C12 C 0.3751(6) 0.1497(5) 0.17612(9)
C13 C 0.5582(7) 0.2787(6) 0.17914(11)
H10 H 0.6905 0.2627 0.1634
C14 C 0.5483(10) 0.4318(7) 0.20523(14)
H11 H 0.6703 0.5213 0.2064
C15 C 0.3570(10) 0.4508(8) 0.22942(14)
H12 H 0.3514 0.5513 0.2476
C16 C 0.1716(9) 0.3206(8) 0.22692(13)
H13 H 0.0428 0.3338 0.2435
C17 C 0.1781(7) 0.1728(7) 0.20007(10)
H14 H 0.0516 0.0882 0.1978
loop_
_geom_bond_atom_site_label_1
_geom_bond_atom_site_label_2
_geom_bond_site_symmetry_1
_geom_bond_site_symmetry_2
O1 C1 1_555 1_555
C1 C2 1_555 1_555
C2 C3 1_555 1_555
C3 H1 1_555 1_555
C4 H2 1_555 1_555
C5 C4 1_555 1_555
H3 C5 1_555 1_555
C6 C5 1_555 1_555
H4 C6 1_555 1_555
C7 C6 1_555 1_555
H5 C7 1_555 1_555
C8 O1 1_555 1_555
C9 C3 1_555 1_555
O2 C1 1_555 1_555
H6 O2 1_555 1_555
C10 C1 1_555 1_555
H7 C10 1_555 1_555
H8 C10 1_555 1_555
H9 C10 1_555 1_555
C11 C2 1_555 1_555
O3 C11 1_555 1_555
C12 C11 1_555 1_555
C13 C12 1_555 1_555
H10 C13 1_555 1_555
C14 C13 1_555 1_555
H11 C14 1_555 1_555
C15 C14 1_555 1_555
H12 C15 1_555 1_555
C16 C15 1_555 1_555
H13 C16 1_555 1_555
C17 C12 1_555 1_555
H14 C17 1_555 1_555
C4 C9 1_555 1_555
C7 C8 1_555 1_555
C8 C9 1_555 1_555
C16 C17 1_555 1_555

#END
