
#######################################################################
#
#                 Cambridge Crystallographic Data Centre
#                                CCDC 
#
#######################################################################
#
# If this CIF has been generated from an entry in the Cambridge 
# Structural Database, then it will include bibliographic, chemical, 
# crystal, experimental, refinement or atomic coordinate data resulting 
# from the CCDC's data processing and validation procedures.
#
#######################################################################

data_XUYYEX
_chemical_compound_source        'endophytic fungi Talaromyces wortmannii LGT-4'
_chemical_name_common            'wortmannolone hemihydrate'
_chemical_formula_moiety         'C20 H20 O5,0.5(H2 O1)'
_chemical_name_systematic        
'7-hydroxy-8b,10a-dimethyl-2,3,3a,7,7a,8a,8b,9,10,10a-decahydrocyclopenta[7,8]oxireno[3,4]phenanthro[10,1-bc]furan-1,4-dione hemihydrate'
_symmetry_cell_setting           monoclinic
_symmetry_space_group_name_H-M   'I 2'
_symmetry_Int_Tables_number      5
_space_group_name_Hall           'I 2y'
loop_
_symmetry_equiv_pos_site_id
_symmetry_equiv_pos_as_xyz
1 x,y,z
2 -x,y,-z
3 1/2+x,1/2+y,1/2+z
4 1/2-x,1/2+y,1/2-z
_cell_length_a                   10.1625(14)
_cell_length_b                   7.7978(8)
_cell_length_c                   20.807(2)
_cell_angle_alpha                90
_cell_angle_beta                 95.524(13)
_cell_angle_gamma                90
_cell_volume                     1641.2
_exptl_crystal_colour            colorless
_exptl_crystal_description       block
_cell_formula_units_Z            4
_exptl_crystal_recrystallization_method methanol
loop_
_atom_site_label
_atom_site_type_symbol
_atom_site_fract_x
_atom_site_fract_y
_atom_site_fract_z
O1 O 0.8497(3) 0.8728(3) 0.05531(14)
H1 H 0.8933 0.7903 0.0452
O2 O 0.5049(3) 0.9839(3) 0.07092(12)
O3 O 0.4172(3) 0.4027(3) 0.21144(13)
O4 O 0.5686(3) 0.4380(3) 0.10037(12)
O5 O 0.3199(3) 0.8781(4) 0.44394(14)
C1 C 0.6158(4) 0.7032(4) 0.13502(18)
C2 C 0.6625(4) 0.6876(4) 0.07348(18)
C3 C 0.7115(4) 0.8376(5) 0.03968(18)
H2 H 0.6922 0.8240 -0.0071
C4 C 0.6433(4) 0.9981(5) 0.06243(18)
H3 H 0.6705 1.1065 0.0439
C5 C 0.5966(4) 1.0106(4) 0.12723(17)
H4 H 0.5973 1.1255 0.1464
C6 C 0.6184(3) 0.8618(4) 0.17424(16)
C7 C 0.5209(3) 0.8460(4) 0.22506(16)
C8 C 0.4661(4) 0.6943(4) 0.24036(17)
C9 C 0.4765(4) 0.5347(4) 0.20135(18)
C10 C 0.5583(4) 0.5561(4) 0.14911(18)
C11 C 0.6324(4) 0.5232(5) 0.05445(18)
H5 H 0.6523 0.4753 0.0156
C12 C 0.5027(4) 1.0092(4) 0.26221(18)
H6 H 0.4619 1.0934 0.2323
H7 H 0.5896 1.0523 0.2776
C13 C 0.4203(4) 0.9984(4) 0.32003(18)
H8 H 0.4519 1.0821 0.3524
H9 H 0.3285 1.0236 0.3062
C14 C 0.4321(4) 0.8194(4) 0.34853(17)
C15 C 0.3825(4) 0.6899(4) 0.29698(17)
H10 H 0.2941 0.7285 0.2801
C16 C 0.3622(4) 0.5248(5) 0.33581(19)
H11 H 0.3013 0.4469 0.3119
H12 H 0.4454 0.4661 0.3472
C17 C 0.3041(5) 0.5946(5) 0.3959(2)
H13 H 0.2084 0.5862 0.3909
H14 H 0.3374 0.5303 0.4339
C18 C 0.3464(4) 0.7794(6) 0.40220(19)
C19 C 0.5747(4) 0.7818(5) 0.37784(18)
H15 H 0.6332 0.7831 0.3442
H16 H 0.5778 0.6712 0.3981
H17 H 0.6019 0.8679 0.4093
C20 C 0.7577(3) 0.8878(5) 0.20893(17)
H18 H 0.8220 0.8804 0.1781
H19 H 0.7751 0.8005 0.2412
H20 H 0.7630 0.9986 0.2291
O6 O 0.5000 1.1223(5) 0.5000
H21 H 0.5639 1.0779 0.5237
H21A H 0.4361 1.0779 0.4763
H22? H 0.4616 1.0452 0.4761
loop_
_geom_bond_atom_site_label_1
_geom_bond_atom_site_label_2
_geom_bond_site_symmetry_1
_geom_bond_site_symmetry_2
O1 H1 1_555 1_555
O2 C4 1_555 1_555
O3 C9 1_555 1_555
O4 C10 1_555 1_555
O5 C18 1_555 1_555
C1 C2 1_555 1_555
C2 C3 1_555 1_555
C3 O1 1_555 1_555
H2 C3 1_555 1_555
C4 C3 1_555 1_555
H3 C4 1_555 1_555
C5 O2 1_555 1_555
H4 C5 1_555 1_555
C6 C1 1_555 1_555
C7 C6 1_555 1_555
C8 C7 1_555 1_555
C9 C8 1_555 1_555
C10 C1 1_555 1_555
C11 O4 1_555 1_555
H5 C11 1_555 1_555
C12 C7 1_555 1_555
H6 C12 1_555 1_555
H7 C12 1_555 1_555
C13 C12 1_555 1_555
H8 C13 1_555 1_555
H9 C13 1_555 1_555
C14 C13 1_555 1_555
C15 C8 1_555 1_555
H10 C15 1_555 1_555
C16 C15 1_555 1_555
H11 C16 1_555 1_555
H12 C16 1_555 1_555
C17 C16 1_555 1_555
H13 C17 1_555 1_555
H14 C17 1_555 1_555
C18 C14 1_555 1_555
C19 C14 1_555 1_555
H15 C19 1_555 1_555
H16 C19 1_555 1_555
H17 C19 1_555 1_555
C20 C6 1_555 1_555
H18 C20 1_555 1_555
H19 C20 1_555 1_555
H20 C20 1_555 1_555
O6 H21 1_555 1_555
H21A O6 1_555 1_555
C2 C11 1_555 1_555
C4 C5 1_555 1_555
C5 C6 1_555 1_555
C9 C10 1_555 1_555
C14 C15 1_555 1_555
C17 C18 1_555 1_555

#END
