
#######################################################################
#
#                 Cambridge Crystallographic Data Centre
#                                CCDC 
#
#######################################################################
#
# If this CIF has been generated from an entry in the Cambridge 
# Structural Database, then it will include bibliographic, chemical, 
# crystal, experimental, refinement or atomic coordinate data resulting 
# from the CCDC's data processing and validation procedures.
#
#######################################################################

data_XUYZEY
_chemical_formula_moiety         'C28 H28 O2'
_chemical_name_systematic        
3-(4-methylphenyl)-2-(2-methylprop-1-en-1-yl)-1,5-diphenylpentane-1,5-dione
_symmetry_cell_setting           monoclinic
_symmetry_space_group_name_H-M   'C 2/c'
_symmetry_Int_Tables_number      15
_space_group_name_Hall           '-C 2yn'
loop_
_symmetry_equiv_pos_site_id
_symmetry_equiv_pos_as_xyz
1 x,y,z
2 -x,y,1/2-z
3 1/2+x,1/2+y,z
4 1/2-x,1/2+y,1/2-z
5 -x,-y,-z
6 x,-y,1/2+z
7 1/2-x,1/2-y,-z
8 1/2+x,1/2-y,1/2+z
_cell_length_a                   21.8891(19)
_cell_length_b                   6.2313(5)
_cell_length_c                   33.009(3)
_cell_angle_alpha                90
_cell_angle_beta                 100.7310(10)
_cell_angle_gamma                90
_cell_volume                     4423.61
_exptl_crystal_colour            colorless
_exptl_crystal_description       block
_cell_formula_units_Z            8
loop_
_atom_site_label
_atom_site_type_symbol
_atom_site_fract_x
_atom_site_fract_y
_atom_site_fract_z
C1 C 0.12929(7) 0.7967(3) 0.18840(5)
C2 C 0.17298(8) 0.8680(3) 0.22135(6)
H1 H 0.1892 1.0057 0.2209
C3 C 0.19291(9) 0.7367(4) 0.25504(6)
H2 H 0.2217 0.7870 0.2774
C4 C 0.16984(9) 0.5309(4) 0.25533(6)
H3 H 0.1828 0.4425 0.2780
C5 C 0.12822(9) 0.4571(3) 0.22253(6)
H4 H 0.1135 0.3171 0.2226
C6 C 0.10762(9) 0.5882(3) 0.18919(6)
H5 H 0.0789 0.5362 0.1670
C7 C 0.10635(7) 0.9497(3) 0.15412(5)
C8 C 0.03870(7) 0.9302(2) 0.13275(5)
H6 H 0.0274 0.7779 0.1312
C9 C 0.02688(7) 1.0231(2) 0.08870(5)
H7 H 0.0414 1.1722 0.0900
C10 C 0.06377(7) 0.8952(3) 0.06255(5)
C11 C 0.04677(8) 0.6876(3) 0.05015(5)
H8 H 0.0106 0.6292 0.0566
C12 C 0.08251(9) 0.5657(3) 0.02842(5)
H9 H 0.0696 0.4276 0.0202
C13 C 0.13673(8) 0.6441(3) 0.01871(5)
C14 C 0.15323(8) 0.8509(3) 0.03054(6)
H10 H 0.1892 0.9086 0.0238
C15 C 0.11788(8) 0.9763(3) 0.05224(5)
H11 H 0.1305 1.1153 0.0599
C16 C 0.17685(11) 0.5061(4) -0.00331(7)
H12 H 0.1544 0.3786 -0.0134
H13 H 0.2141 0.4671 0.0155
H14 H 0.1875 0.5846 -0.0260
C17 C -0.04309(8) 1.0200(3) 0.07040(5)
H15 H -0.0484 1.0401 0.0408
H16 H -0.0594 0.8794 0.0752
C18 C -0.08124(8) 1.1876(3) 0.08757(5)
C19 C -0.14256(8) 1.1299(3) 0.09837(5)
C20 C -0.17517(8) 1.2863(3) 0.11536(6)
H17 H -0.1587 1.4239 0.1194
C21 C -0.23135(9) 1.2420(4) 0.12636(7)
H18 H -0.2524 1.3492 0.1378
C22 C -0.25659(10) 1.0405(4) 0.12054(8)
H19 H -0.2946 1.0105 0.1280
C23 C -0.22560(10) 0.8846(4) 0.10372(8)
H20 H -0.2427 0.7478 0.0996
C24 C -0.16878(9) 0.9282(3) 0.09265(7)
H21 H -0.1481 0.8201 0.0812
C25 C 0.00231(7) 1.0401(3) 0.16127(5)
H22 H 0.0085 1.1873 0.1644
C26 C -0.03719(8) 0.9541(3) 0.18232(5)
C27 C -0.06976(10) 1.0896(3) 0.20931(6)
H23 H -0.0552 1.2348 0.2092
H24 H -0.0612 1.0346 0.2370
H25 H -0.1138 1.0860 0.1990
C28 C -0.05433(10) 0.7210(3) 0.18158(7)
H26 H -0.0389 0.6506 0.1596
H27 H -0.0988 0.7071 0.1772
H28 H -0.0363 0.6561 0.2074
O1 O 0.13894(6) 1.0957(2) 0.14661(4)
O2 O -0.06281(6) 1.3720(2) 0.09136(4)
loop_
_geom_bond_atom_site_label_1
_geom_bond_atom_site_label_2
_geom_bond_site_symmetry_1
_geom_bond_site_symmetry_2
C1 C2 1_555 1_555
C2 H1 1_555 1_555
C3 C2 1_555 1_555
H2 C3 1_555 1_555
C4 C3 1_555 1_555
H3 C4 1_555 1_555
C5 C4 1_555 1_555
H4 C5 1_555 1_555
C6 C1 1_555 1_555
H5 C6 1_555 1_555
C7 C1 1_555 1_555
C8 C7 1_555 1_555
H6 C8 1_555 1_555
C9 C8 1_555 1_555
H7 C9 1_555 1_555
C10 C9 1_555 1_555
C11 C10 1_555 1_555
H8 C11 1_555 1_555
C12 C11 1_555 1_555
H9 C12 1_555 1_555
C13 C12 1_555 1_555
C14 C13 1_555 1_555
H10 C14 1_555 1_555
C15 C10 1_555 1_555
H11 C15 1_555 1_555
C16 C13 1_555 1_555
H12 C16 1_555 1_555
H13 C16 1_555 1_555
H14 C16 1_555 1_555
C17 C9 1_555 1_555
H15 C17 1_555 1_555
H16 C17 1_555 1_555
C18 C17 1_555 1_555
C19 C18 1_555 1_555
C20 C19 1_555 1_555
H17 C20 1_555 1_555
C21 C20 1_555 1_555
H18 C21 1_555 1_555
C22 C21 1_555 1_555
H19 C22 1_555 1_555
C23 C22 1_555 1_555
H20 C23 1_555 1_555
C24 C19 1_555 1_555
H21 C24 1_555 1_555
C25 C8 1_555 1_555
H22 C25 1_555 1_555
C26 C25 1_555 1_555
C27 C26 1_555 1_555
H23 C27 1_555 1_555
H24 C27 1_555 1_555
H25 C27 1_555 1_555
C28 C26 1_555 1_555
H26 C28 1_555 1_555
H27 C28 1_555 1_555
H28 C28 1_555 1_555
O1 C7 1_555 1_555
O2 C18 1_555 1_555
C5 C6 1_555 1_555
C14 C15 1_555 1_555
C23 C24 1_555 1_555

#END
