
#######################################################################
#
#                 Cambridge Crystallographic Data Centre
#                                CCDC 
#
#######################################################################
#
# If this CIF has been generated from an entry in the Cambridge 
# Structural Database, then it will include bibliographic, chemical, 
# crystal, experimental, refinement or atomic coordinate data resulting 
# from the CCDC's data processing and validation procedures.
#
#######################################################################

data_XUZGAB
_chemical_formula_moiety         'C26 H16 N4 O4,C1 H4 O1'
_chemical_name_systematic        
'2,7-bis(Pyridin-4-ylmethyl)benzo[lmn][3,8]phenanthroline-1,3,6,8(2H,7H)-tetrone methanol solvate'
_symmetry_cell_setting           monoclinic
_symmetry_space_group_name_H-M   'C 2/c'
_symmetry_Int_Tables_number      15
_space_group_name_Hall           '-C 2yn'
loop_
_symmetry_equiv_pos_site_id
_symmetry_equiv_pos_as_xyz
1 x,y,z
2 -x,y,1/2-z
3 1/2+x,1/2+y,z
4 1/2-x,1/2+y,1/2-z
5 -x,-y,-z
6 x,-y,1/2+z
7 1/2-x,1/2-y,-z
8 1/2+x,1/2-y,1/2+z
_cell_length_a                   21.2761(4)
_cell_length_b                   4.8975(2)
_cell_length_c                   21.3259(5)
_cell_angle_alpha                90
_cell_angle_beta                 97.045(2)
_cell_angle_gamma                90
_cell_volume                     2205.38
_exptl_crystal_colour            yellow
_exptl_crystal_description       block
_cell_formula_units_Z            4
loop_
_atom_site_label
_atom_site_type_symbol
_atom_site_fract_x
_atom_site_fract_y
_atom_site_fract_z
C14 C 0.7509(6) 0.3269(14) 0.0013(6)
O3 O 0.81178(14) 0.2631(9) 0.01424(14)
C14F C 0.7491(6) 0.1731(14) -0.0013(6)
O3F O 0.68822(14) 0.2369(9) -0.01424(14)
N1 N 1.14330(8) -0.0612(5) 0.86267(7)
N2 N 1.10295(7) 0.2341(4) 0.63051(7)
O1 O 1.02966(7) 0.5455(4) 0.65249(7)
O2 O 1.17414(6) -0.0909(3) 0.61310(6)
C1 C 1.18703(10) 0.1218(6) 0.85223(10)
H1 H 1.2185 0.1659 0.8863
C2 C 1.18981(10) 0.2511(5) 0.79562(10)
H2 H 1.2226 0.3784 0.7910
C3 C 1.14441(8) 0.1944(4) 0.74532(8)
C4 C 1.09844(9) 0.0106(5) 0.75538(9)
H3 H 1.0658 -0.0321 0.7223
C5 C 1.09940(10) -0.1125(6) 0.81333(9)
H4 H 1.0672 -0.2414 0.8188
C6 C 1.14765(10) 0.3401(5) 0.68329(9)
H5 H 1.1912 0.3243 0.6719
H6 H 1.1388 0.5365 0.6890
C7 C 1.12346(8) 0.0173(5) 0.59654(8)
C8 C 1.08064(8) -0.0748(4) 0.54010(8)
C9 C 1.02044(8) 0.0463(4) 0.52688(8)
C10 C 1.04369(9) 0.3596(5) 0.61927(9)
C11 C 1.00000(8) 0.2543(4) 0.56483(8)
C12 C 0.94071(9) 0.3665(5) 0.55121(9)
H7 H 0.9269 0.5057 0.5774
C13 C 1.09972(8) -0.2732(5) 0.50215(9)
H8 H 1.1408 -0.3503 0.5115
N1D N 0.85670(8) 0.0612(5) 0.13733(7)
N2D N 0.89705(7) -0.2341(4) 0.36949(7)
O1D O 0.97034(7) -0.5455(4) 0.34751(7)
O2D O 0.82586(6) 0.0909(3) 0.38690(6)
C1D C 0.81297(10) -0.1218(6) 0.14777(10)
H1D H 0.7815 -0.1659 0.1137
C2D C 0.81019(10) -0.2511(5) 0.20438(10)
H2D H 0.7774 -0.3784 0.2090
C3D C 0.85559(8) -0.1944(4) 0.25468(8)
C4D C 0.90156(9) -0.0106(5) 0.24462(9)
H3D H 0.9342 0.0321 0.2777
C5D C 0.90060(10) 0.1125(6) 0.18667(9)
H4D H 0.9328 0.2414 0.1812
C6D C 0.85235(10) -0.3401(5) 0.31671(9)
H5D H 0.8088 -0.3243 0.3281
H6D H 0.8612 -0.5365 0.3110
C7D C 0.87654(8) -0.0173(5) 0.40346(8)
C8D C 0.91936(8) 0.0748(4) 0.45990(8)
C9D C 0.97956(8) -0.0463(4) 0.47312(8)
C10D C 0.95631(9) -0.3596(5) 0.38073(9)
C11D C 1.00000(8) -0.2543(4) 0.43517(8)
C12D C 1.05929(9) -0.3665(5) 0.44879(9)
H7D H 1.0731 -0.5057 0.4226
C13D C 0.90028(8) 0.2732(5) 0.49785(9)
H8D H 0.8592 0.3503 0.4885
H9? H 0.7267 0.2347 0.0313
H10? H 0.7355 0.2683 -0.0418
H11? H 0.7458 0.5250 0.0048
H12? H 0.8212 0.2491 0.0535
loop_
_geom_bond_atom_site_label_1
_geom_bond_atom_site_label_2
_geom_bond_site_symmetry_1
_geom_bond_site_symmetry_2
N1 C1 1_555 1_555
N2 C6 1_555 1_555
O1 C10 1_555 1_555
O2 C7 1_555 1_555
C1 H1 1_555 1_555
C2 C1 1_555 1_555
H2 C2 1_555 1_555
C3 C2 1_555 1_555
C4 C3 1_555 1_555
H3 C4 1_555 1_555
C5 N1 1_555 1_555
H4 C5 1_555 1_555
C6 C3 1_555 1_555
H5 C6 1_555 1_555
H6 C6 1_555 1_555
C7 N2 1_555 1_555
C8 C7 1_555 1_555
C9 C8 1_555 1_555
C10 N2 1_555 1_555
C11 C9 1_555 1_555
C12 C11 1_555 1_555
H7 C12 1_555 1_555
C13 C8 1_555 1_555
H8 C13 1_555 1_555
C14 O3 1_555 1_555
O3 C14F 1_555 1_555
N1D C1D 1_555 1_555
N2D C6D 1_555 1_555
O1D C10D 1_555 1_555
O2D C7D 1_555 1_555
C1D H1D 1_555 1_555
C2D C1D 1_555 1_555
H2D C2D 1_555 1_555
C3D C2D 1_555 1_555
C4D C3D 1_555 1_555
H3D C4D 1_555 1_555
C5D N1D 1_555 1_555
H4D C5D 1_555 1_555
C6D C3D 1_555 1_555
H5D C6D 1_555 1_555
H6D C6D 1_555 1_555
C7D N2D 1_555 1_555
C8D C7D 1_555 1_555
C9D C9 1_555 1_555
C10D N2D 1_555 1_555
C11D C9D 1_555 1_555
C12D C13 1_555 1_555
H7D C12D 1_555 1_555
C13D C12 1_555 1_555
H8D C13D 1_555 1_555
C14F C14 1_555 1_555
O3F C14 1_555 1_555
C4 C5 1_555 1_555
C10 C11 1_555 1_555
C4D C5D 1_555 1_555
C8D C9D 1_555 1_555
C8D C13D 1_555 1_555
C10D C11D 1_555 1_555
C11D C12D 1_555 1_555
C14F O3F 1_555 1_555

#END
