
#######################################################################
#
#                 Cambridge Crystallographic Data Centre
#                                CCDC 
#
#######################################################################
#
# If this CIF has been generated from an entry in the Cambridge 
# Structural Database, then it will include bibliographic, chemical, 
# crystal, experimental, refinement or atomic coordinate data resulting 
# from the CCDC's data processing and validation procedures.
#
#######################################################################

data_XUZXUL
_chemical_formula_moiety         'C15 H17 N1 O3 S1'
_chemical_name_systematic        
(4-(bis(2-Hydroxyethyl)amino)phenyl)(2-thienyl)methanone
_symmetry_cell_setting           monoclinic
_symmetry_space_group_name_H-M   'P 21/c'
_symmetry_Int_Tables_number      14
_space_group_name_Hall           '-P 2ybc'
loop_
_symmetry_equiv_pos_site_id
_symmetry_equiv_pos_as_xyz
1 x,y,z
2 x,1/2-y,1/2+z
3 -x,-y,-z
4 -x,1/2+y,1/2-z
_cell_length_a                   7.9280(12)
_cell_length_b                   12.7014(19)
_cell_length_c                   14.151(2)
_cell_angle_alpha                90
_cell_angle_beta                 103.083(3)
_cell_angle_gamma                90
_cell_volume                     1387.97
_exptl_crystal_colour            yellow
_exptl_crystal_description       block
_cell_formula_units_Z            4
_exptl_crystal_recrystallization_method 'ethyl acetate'
loop_
_atom_site_label
_atom_site_type_symbol
_atom_site_fract_x
_atom_site_fract_y
_atom_site_fract_z
S1 S 0.12134(4) 0.27198(2) 0.14156(2)
O1 O 0.29039(12) 0.06630(7) 0.17436(6)
O2 O 0.15891(12) -0.44318(8) -0.19714(7)
H1 H 0.186(3) -0.4785(17) -0.2321(15)
O3 O 0.50554(14) -0.17478(8) -0.33745(7)
H2 H 0.575(3) -0.1518(15) -0.2865(15)
N1 N 0.30232(13) -0.22499(8) -0.19151(7)
C1 C 0.24566(14) 0.08655(8) 0.08595(8)
C2 C 0.19057(14) 0.19512(9) 0.05749(8)
C3 C 0.20218(15) 0.25279(9) -0.02335(9)
H3 H 0.245(2) 0.2276(12) -0.0701(11)
C4 C 0.15490(15) 0.35987(10) -0.01608(10)
H4 H 0.156(2) 0.4104(15) -0.0656(14)
C5 C 0.10595(16) 0.37993(10) 0.06893(10)
H5 H 0.063(2) 0.4405(15) 0.0907(13)
C6 C 0.25067(13) 0.00691(8) 0.01270(8)
C7 C 0.34851(14) -0.08518(8) 0.04058(8)
H6 H 0.408(2) -0.0938(12) 0.1056(11)
C8 C 0.36240(14) -0.16262(9) -0.02516(8)
H7 H 0.4277(19) -0.2234(12) -0.0033(10)
C9 C 0.28262(13) -0.15107(9) -0.12473(8)
C10 C 0.17958(14) -0.06003(9) -0.15223(8)
H8 H 0.116(2) -0.0495(12) -0.2175(11)
C11 C 0.16415(14) 0.01565(9) -0.08482(8)
H9 H 0.086(2) 0.0762(12) -0.1092(11)
C12 C 0.40450(14) -0.32029(9) -0.16396(8)
H10 H 0.445(2) -0.3433(13) -0.2193(12)
H11 H 0.5091(18) -0.3048(11) -0.1141(10)
C13 C 0.30612(16) -0.40780(9) -0.12715(9)
H12 H 0.389(2) -0.4630(13) -0.1019(11)
H13 H 0.259(2) -0.3825(12) -0.0734(11)
C14 C 0.22954(17) -0.20844(10) -0.29462(8)
H14 H 0.224(2) -0.2774(13) -0.3250(11)
H15 H 0.105(2) -0.1834(12) -0.3055(11)
C15 C 0.33750(19) -0.13399(12) -0.34032(9)
H16 H 0.350(2) -0.0645(15) -0.3077(13)
H17 H 0.276(2) -0.1244(14) -0.4092(13)
loop_
_geom_bond_atom_site_label_1
_geom_bond_atom_site_label_2
_geom_bond_site_symmetry_1
_geom_bond_site_symmetry_2
S1 C2 1_555 1_555
O1 C1 1_555 1_555
O2 H1 1_555 1_555
O3 H2 1_555 1_555
N1 C9 1_555 1_555
C1 C2 1_555 1_555
C2 C3 1_555 1_555
C3 H3 1_555 1_555
C4 C3 1_555 1_555
H4 C4 1_555 1_555
C5 S1 1_555 1_555
H5 C5 1_555 1_555
C6 C1 1_555 1_555
C7 C6 1_555 1_555
H6 C7 1_555 1_555
C8 C7 1_555 1_555
H7 C8 1_555 1_555
C9 C8 1_555 1_555
C10 C9 1_555 1_555
H8 C10 1_555 1_555
C11 C6 1_555 1_555
H9 C11 1_555 1_555
C12 N1 1_555 1_555
H10 C12 1_555 1_555
H11 C12 1_555 1_555
C13 O2 1_555 1_555
H12 C13 1_555 1_555
H13 C13 1_555 1_555
C14 N1 1_555 1_555
H14 C14 1_555 1_555
H15 C14 1_555 1_555
C15 O3 1_555 1_555
H16 C15 1_555 1_555
H17 C15 1_555 1_555
C4 C5 1_555 1_555
C10 C11 1_555 1_555
C12 C13 1_555 1_555
C14 C15 1_555 1_555

#END
