
#######################################################################
#
#                 Cambridge Crystallographic Data Centre
#                                CCDC 
#
#######################################################################
#
# If this CIF has been generated from an entry in the Cambridge 
# Structural Database, then it will include bibliographic, chemical, 
# crystal, experimental, refinement or atomic coordinate data resulting 
# from the CCDC's data processing and validation procedures.
#
#######################################################################

data_YABCOT
_chemical_formula_moiety         'C14 H22 O1'
_chemical_name_systematic        
6,6,8-Trimethyltricyclo(5.3.1.0^1,5^)undecan-2-one
_symmetry_cell_setting           triclinic
_symmetry_space_group_name_H-M   'P -1'
_symmetry_Int_Tables_number      2
_space_group_name_Hall           '-P 1'
loop_
_symmetry_equiv_pos_site_id
_symmetry_equiv_pos_as_xyz
1 x,y,z
2 -x,-y,-z
_cell_length_a                   6.750(2)
_cell_length_b                   7.783(2)
_cell_length_c                   11.763(3)
_cell_angle_alpha                91.77
_cell_angle_beta                 93.93
_cell_angle_gamma                99.35
_cell_volume                     607.774
_exptl_crystal_colour            colorless
_cell_formula_units_Z            2
loop_
_atom_site_label
_atom_site_type_symbol
_atom_site_fract_x
_atom_site_fract_y
_atom_site_fract_z
O1 O 0.2627(2) 1.0866(1) 0.0248(1)
C1 C 0.2386(2) 0.9346(2) 0.0489(1)
C2 C 0.2078(3) 0.7808(2) -0.0343(1)
C3 C 0.2774(3) 0.6363(2) 0.0345(1)
C4 C 0.2154(2) 0.6698(2) 0.1562(1)
C5 C 0.2358(2) 0.8696(2) 0.1694(1)
C6 C 0.4383(2) 0.9191(2) 0.2406(1)
C7 C 0.4091(2) 0.7855(2) 0.3337(1)
C8 C 0.3438(2) 0.6123(2) 0.2605(1)
C9 C 0.0693(2) 0.9313(2) 0.2343(1)
C10 C 0.0532(2) 0.8468(2) 0.3500(1)
C11 C 0.2580(2) 0.8439(2) 0.4135(1)
C12 C 0.2395(4) 0.7488(3) 0.5248(2)
C13 C 0.5367(3) 0.5479(3) 0.2259(2)
C14 C 0.2224(4) 0.4609(2) 0.3193(2)
loop_
_geom_bond_atom_site_label_1
_geom_bond_atom_site_label_2
_geom_bond_site_symmetry_1
_geom_bond_site_symmetry_2
O1 C1 1_555 1_555
C1 C2 1_555 1_555
C2 C3 1_555 1_555
C3 C4 1_555 1_555
C4 C5 1_555 1_555
C5 C1 1_555 1_555
C6 C5 1_555 1_555
C7 C6 1_555 1_555
C8 C4 1_555 1_555
C9 C5 1_555 1_555
C10 C9 1_555 1_555
C11 C7 1_555 1_555
C12 C11 1_555 1_555
C13 C8 1_555 1_555
C14 C8 1_555 1_555
C7 C8 1_555 1_555
C10 C11 1_555 1_555

#END
