
#######################################################################
#
#                 Cambridge Crystallographic Data Centre
#                                CCDC 
#
#######################################################################
#
# If this CIF has been generated from an entry in the Cambridge 
# Structural Database, then it will include bibliographic, chemical, 
# crystal, experimental, refinement or atomic coordinate data resulting 
# from the CCDC's data processing and validation procedures.
#
#######################################################################

data_YABFEO01
_chemical_formula_moiety         'C7 H5 O2 1-,H4 N1 1+'
_chemical_name_systematic        'Ammonium benzoate'
_symmetry_cell_setting           orthorhombic
_symmetry_space_group_name_H-M   'P b c a'
_symmetry_Int_Tables_number      61
_space_group_name_Hall           '-P 2ac 2ab'
loop_
_symmetry_equiv_pos_site_id
_symmetry_equiv_pos_as_xyz
1 x,y,z
2 1/2-x,-y,1/2+z
3 -x,1/2+y,1/2-z
4 1/2+x,1/2-y,-z
5 -x,-y,-z
6 1/2+x,y,1/2-z
7 x,1/2-y,1/2+z
8 1/2-x,1/2+y,z
_cell_length_a                   6.8750(11)
_cell_length_b                   6.9872(11)
_cell_length_c                   30.188(5)
_cell_angle_alpha                90
_cell_angle_beta                 90
_cell_angle_gamma                90
_cell_volume                     1450.14
_exptl_crystal_colour            colorless
_exptl_crystal_description       Plates
_cell_formula_units_Z            8
loop_
_atom_site_label
_atom_site_type_symbol
_atom_site_fract_x
_atom_site_fract_y
_atom_site_fract_z
O1 O 0.14401(16) 0.89156(17) 0.43214(4)
O2 O -0.08863(17) 0.68343(19) 0.44960(4)
C1 C 0.1318(3) 0.7153(2) 0.29963(6)
C2 C 0.1403(2) 0.7749(2) 0.34336(6)
C3 C -0.1210(2) 0.5616(2) 0.36136(6)
C4 C 0.0141(2) 0.6986(2) 0.37466(5)
C5 C -0.0030(3) 0.5796(2) 0.28662(6)
C6 C -0.1296(3) 0.5029(3) 0.31752(6)
C7 C 0.0246(2) 0.7630(2) 0.42206(6)
H1 H 0.234(3) 0.870(3) 0.3539(6)
H2 H -0.009(3) 0.540(2) 0.2551(6)
H3 H -0.208(3) 0.512(3) 0.3839(6)
H4 H -0.222(3) 0.409(3) 0.3080(6)
H5 H 0.222(3) 0.769(3) 0.2780(6)
N1 N -0.0065(2) 1.2378(3) 0.46275(5)
H6 H 0.046(3) 1.123(4) 0.4540(7)
H7 H -0.142(4) 1.236(3) 0.4573(7)
H8 H 0.053(4) 1.333(4) 0.4464(8)
H9 H 0.017(3) 1.261(3) 0.4977(8)
loop_
_geom_bond_atom_site_label_1
_geom_bond_atom_site_label_2
_geom_bond_site_symmetry_1
_geom_bond_site_symmetry_2
O1 C7 1_555 1_555
O2 C7 1_555 1_555
C1 C2 1_555 1_555
C2 C4 1_555 1_555
C3 C4 1_555 1_555
C4 C7 1_555 1_555
C5 C1 1_555 1_555
C6 C3 1_555 1_555
H1 C2 1_555 1_555
H2 C5 1_555 1_555
H3 C3 1_555 1_555
H4 C6 1_555 1_555
H5 C1 1_555 1_555
N1 H6 1_555 1_555
H7 N1 1_555 1_555
H8 N1 1_555 1_555
H9 N1 1_555 1_555
C5 C6 1_555 1_555

#END
