
#######################################################################
#
#                 Cambridge Crystallographic Data Centre
#                                CCDC 
#
#######################################################################
#
# If this CIF has been generated from an entry in the Cambridge 
# Structural Database, then it will include bibliographic, chemical, 
# crystal, experimental, refinement or atomic coordinate data resulting 
# from the CCDC's data processing and validation procedures.
#
#######################################################################

data_YABHEO
_chemical_formula_moiety         'C20 H13 N3 O2,0.5(C1 H4 O1),0.5(H2 O1)'
_chemical_name_systematic        
'3,4-bis(3-Indolyl)-1H-pyrrole-2,5-dione methanol solvate hemihydrate'
_chemical_properties_biological  'PKC inhibitory activity'
_symmetry_cell_setting           orthorhombic
_symmetry_space_group_name_H-M   'F d d 2'
_symmetry_Int_Tables_number      43
_space_group_name_Hall           'F 2 -2d'
loop_
_symmetry_equiv_pos_site_id
_symmetry_equiv_pos_as_xyz
1 x,y,z
2 x,1/2+y,1/2+z
3 1/2+x,y,1/2+z
4 1/2+x,1/2+y,z
5 1/4-x,1/4+y,1/4+z
6 1/4-x,3/4+y,3/4+z
7 3/4-x,1/4+y,3/4+z
8 3/4-x,3/4+y,1/4+z
9 1/4+x,1/4-y,1/4+z
10 1/4+x,3/4-y,3/4+z
11 3/4+x,1/4-y,3/4+z
12 3/4+x,3/4-y,1/4+z
13 1/2-x,-y,1/2+z
14 1/2-x,1/2-y,z
15 -x,-y,z
16 -x,1/2-y,1/2+z
_cell_length_a                   37.606(4)
_cell_length_b                   16.2585(16)
_cell_length_c                   11.5221(12)
_cell_angle_alpha                90
_cell_angle_beta                 90
_cell_angle_gamma                90
_cell_volume                     7044.81
_exptl_crystal_colour            red
_chemical_melting_point          252-253deg.C
_cell_formula_units_Z            16
loop_
_atom_site_label
_atom_site_type_symbol
_atom_site_fract_x
_atom_site_fract_y
_atom_site_fract_z
N1 N 0.1938(2) 0.3046(4) 0.5476
C1 C 0.1589(2) 0.3102(5) 0.5808(9)
C2 C 0.1374(2) 0.3330(4) 0.4771(8)
C3 C 0.1606(2) 0.3434(4) 0.3866(8)
C4 C 0.1972(2) 0.3256(5) 0.4303(8)
O1 O 0.1479(1) 0.2959(4) 0.6786(7)
O2 O 0.2252(1) 0.3313(3) 0.3791(7)
C5 C 0.0992(2) 0.3381(4) 0.4829(9)
C6 C 0.0801(2) 0.3622(5) 0.5792(8)
N2 N 0.0444(1) 0.3569(4) 0.5573(8)
C7 C 0.0396(2) 0.3282(4) 0.4458(8)
C8 C 0.0734(2) 0.3157(4) 0.3947(8)
C9 C 0.0756(2) 0.2854(4) 0.2837(9)
C10 C 0.0441(2) 0.2698(5) 0.2227(9)
C11 C 0.0110(2) 0.2819(5) 0.2753(10)
C12 C 0.0081(2) 0.3109(5) 0.3877(10)
C13 C 0.1546(2) 0.3749(4) 0.2698(8)
C14 C 0.1321(2) 0.4378(4) 0.2419(9)
N3 N 0.1332(1) 0.4522(3) 0.1251(7)
C15 C 0.1561(2) 0.3971(4) 0.0736(8)
C16 C 0.1707(2) 0.3477(4) 0.1644(8)
C17 C 0.1944(2) 0.2854(4) 0.1337(8)
C18 C 0.2031(2) 0.2741(5) 0.0172(9)
C19 C 0.1888(2) 0.3249(5) -0.0687(8)
C20 C 0.1655(2) 0.3867(5) -0.0428(8)
H1 H 0.2131 0.2887 0.5973
H2 H 0.0903 0.3801 0.6512
H3 H 0.0258 0.3709 0.6108
H4 H 0.0983 0.2751 0.2484
H5 H 0.0452 0.2506 0.1440
H6 H -0.0102 0.2697 0.2323
H7 H -0.0146 0.3188 0.4240
H8 H 0.1177 0.4675 0.2963
H9 H 0.1201 0.4941 0.0851
H10 H 0.2047 0.2506 0.1922
H11 H 0.2192 0.2308 -0.0043
H12 H 0.1955 0.3161 -0.1482
H13 H 0.1560 0.4217 -0.1023
O3? O 0.2261(3) 0.6511(7) 0.2655(13)
O4? O 0.2462(3) 0.2253(5) 0.6900(10)
C21? C 0.1965(6) 0.6151(15) 0.2010(23)
loop_
_geom_bond_atom_site_label_1
_geom_bond_atom_site_label_2
_geom_bond_site_symmetry_1
_geom_bond_site_symmetry_2
N1 C1 1_555 1_555
C1 C2 1_555 1_555
C2 C3 1_555 1_555
C3 C4 1_555 1_555
C4 N1 1_555 1_555
O1 C1 1_555 1_555
O2 C4 1_555 1_555
C5 C2 1_555 1_555
C6 C5 1_555 1_555
N2 C6 1_555 1_555
C7 N2 1_555 1_555
C8 C5 1_555 1_555
C9 C8 1_555 1_555
C10 C9 1_555 1_555
C11 C10 1_555 1_555
C12 C7 1_555 1_555
C13 C3 1_555 1_555
C14 C13 1_555 1_555
N3 C14 1_555 1_555
C15 N3 1_555 1_555
C16 C13 1_555 1_555
C17 C16 1_555 1_555
C18 C17 1_555 1_555
C19 C18 1_555 1_555
C20 C15 1_555 1_555
H1 N1 1_555 1_555
H2 C6 1_555 1_555
H3 N2 1_555 1_555
H4 C9 1_555 1_555
H5 C10 1_555 1_555
H6 C11 1_555 1_555
H7 C12 1_555 1_555
H8 C14 1_555 1_555
H9 N3 1_555 1_555
H10 C17 1_555 1_555
H11 C18 1_555 1_555
H12 C19 1_555 1_555
H13 C20 1_555 1_555
C7 C8 1_555 1_555
C11 C12 1_555 1_555
C15 C16 1_555 1_555
C19 C20 1_555 1_555

#END
