
#######################################################################
#
#                 Cambridge Crystallographic Data Centre
#                                CCDC 
#
#######################################################################
#
# If this CIF has been generated from an entry in the Cambridge 
# Structural Database, then it will include bibliographic, chemical, 
# crystal, experimental, refinement or atomic coordinate data resulting 
# from the CCDC's data processing and validation procedures.
#
#######################################################################

data_YABLAR
_chemical_formula_moiety         'C22 H16 N2'
_chemical_name_systematic        
2-(4-methylphenyl)-1-(phenylethynyl)-1H-benzimidazole
_symmetry_cell_setting           orthorhombic
_symmetry_space_group_name_H-M   'P b c a'
_symmetry_Int_Tables_number      61
_space_group_name_Hall           '-P 2ac 2ab'
loop_
_symmetry_equiv_pos_site_id
_symmetry_equiv_pos_as_xyz
1 x,y,z
2 1/2-x,-y,1/2+z
3 -x,1/2+y,1/2-z
4 1/2+x,1/2-y,-z
5 -x,-y,-z
6 1/2+x,y,1/2-z
7 x,1/2-y,1/2+z
8 1/2-x,1/2+y,z
_cell_length_a                   11.0636(10)
_cell_length_b                   12.3874(11)
_cell_length_c                   23.595(2)
_cell_angle_alpha                90
_cell_angle_beta                 90
_cell_angle_gamma                90
_cell_volume                     3233.68
_exptl_crystal_colour            white
_exptl_crystal_description       Solid
_chemical_melting_point          '353-354 K'
_cell_formula_units_Z            8
_exptl_crystal_recrystallization_method methanol
loop_
_atom_site_label
_atom_site_type_symbol
_atom_site_fract_x
_atom_site_fract_y
_atom_site_fract_z
N1 N 0.14366(11) 0.08575(10) 0.10116(5)
N2 N 0.33981(11) 0.07867(10) 0.12532(5)
C1 C 0.28352(14) -0.00702(12) 0.15331(6)
C2 C 0.32961(15) -0.08465(13) 0.18940(7)
H1 H 0.4129 -0.0870 0.1992
C3 C 0.24734(16) -0.15880(13) 0.21045(7)
H2 H 0.2743 -0.2135 0.2357
C4 C 0.12554(16) -0.15452(13) 0.19530(7)
H3 H 0.0715 -0.2067 0.2104
C5 C 0.08147(15) -0.07653(13) 0.15894(7)
H4 H -0.0016 -0.0746 0.1488
C6 C 0.16244(14) -0.00093(12) 0.13774(6)
C7 C 0.24900(14) 0.13184(12) 0.09450(6)
C8 C 0.26943(13) 0.22781(12) 0.05954(6)
C9 C 0.17239(14) 0.29759(12) 0.05094(7)
H5 H 0.0968 0.2829 0.0684
C10 C 0.18526(15) 0.38798(12) 0.01720(7)
H6 H 0.1182 0.4348 0.0118
C11 C 0.29461(15) 0.41176(13) -0.00908(6)
C12 C 0.39066(15) 0.34169(13) -0.00072(7)
H7 H 0.4659 0.3562 -0.0185
C13 C 0.37895(14) 0.25086(13) 0.03314(6)
H8 H 0.4461 0.2041 0.0384
C14 C 0.30843(17) 0.51010(13) -0.04563(7)
H9 H 0.3414 0.5695 -0.0229
H10 H 0.2294 0.5310 -0.0608
H11 H 0.3636 0.4941 -0.0770
C15 C 0.45714(14) 0.10626(12) 0.13350(7)
C16 C 0.55971(14) 0.12491(13) 0.14446(7)
C17 C 0.68291(14) 0.15334(12) 0.15640(7)
C18 C 0.73481(15) 0.24232(13) 0.13003(7)
H12 H 0.6881 0.2854 0.1049
C19 C 0.85438(15) 0.26818(14) 0.14025(7)
H13 H 0.8894 0.3295 0.1224
C20 C 0.92296(15) 0.20547(14) 0.17613(7)
H14 H 1.0058 0.2222 0.1821
C21 C 0.87116(15) 0.11815(13) 0.20342(7)
H15 H 0.9181 0.0760 0.2289
C22 C 0.75171(14) 0.09189(13) 0.19390(7)
H16 H 0.7164 0.0320 0.2129
loop_
_geom_bond_atom_site_label_1
_geom_bond_atom_site_label_2
_geom_bond_site_symmetry_1
_geom_bond_site_symmetry_2
N1 C6 1_555 1_555
N2 C1 1_555 1_555
C1 C2 1_555 1_555
C2 H1 1_555 1_555
C3 C2 1_555 1_555
H2 C3 1_555 1_555
C4 C3 1_555 1_555
H3 C4 1_555 1_555
C5 C4 1_555 1_555
H4 C5 1_555 1_555
C6 C1 1_555 1_555
C7 N1 1_555 1_555
C8 C7 1_555 1_555
C9 C8 1_555 1_555
H5 C9 1_555 1_555
C10 C9 1_555 1_555
H6 C10 1_555 1_555
C11 C10 1_555 1_555
C12 C11 1_555 1_555
H7 C12 1_555 1_555
C13 C8 1_555 1_555
H8 C13 1_555 1_555
C14 C11 1_555 1_555
H9 C14 1_555 1_555
H10 C14 1_555 1_555
H11 C14 1_555 1_555
C15 N2 1_555 1_555
C16 C15 1_555 1_555
C17 C16 1_555 1_555
C18 C17 1_555 1_555
H12 C18 1_555 1_555
C19 C18 1_555 1_555
H13 C19 1_555 1_555
C20 C19 1_555 1_555
H14 C20 1_555 1_555
C21 C20 1_555 1_555
H15 C21 1_555 1_555
C22 C17 1_555 1_555
H16 C22 1_555 1_555
N2 C7 1_555 1_555
C5 C6 1_555 1_555
C12 C13 1_555 1_555
C21 C22 1_555 1_555

#END
