
#######################################################################
#
#                 Cambridge Crystallographic Data Centre
#                                CCDC 
#
#######################################################################
#
# If this CIF has been generated from an entry in the Cambridge 
# Structural Database, then it will include bibliographic, chemical, 
# crystal, experimental, refinement or atomic coordinate data resulting 
# from the CCDC's data processing and validation procedures.
#
#######################################################################

data_YABMIX
_chemical_formula_moiety         'C22 H20 N3 O5 S1 1+,C1 H4 O1,Cl1 1-'
_chemical_name_systematic        
"4'-(2,3-Methylenedioxyacridin-9-ylamino)-methanesulfonyl-m-anisidine hydrochloride methanol solvate"
_chemical_properties_biological  'antitumour activity'
_symmetry_cell_setting           triclinic
_symmetry_space_group_name_H-M   'P -1'
_symmetry_Int_Tables_number      2
_space_group_name_Hall           '-P 1'
loop_
_symmetry_equiv_pos_site_id
_symmetry_equiv_pos_as_xyz
1 x,y,z
2 -x,-y,-z
_cell_length_a                   11.889(2)
_cell_length_b                   11.701(2)
_cell_length_c                   9.793(1)
_cell_angle_alpha                116.20(1)
_cell_angle_beta                 76.27(1)
_cell_angle_gamma                107.89(1)
_cell_volume                     1154.98
_exptl_crystal_colour            yellow
_chemical_melting_point          'above 300deg.C(dec.)'
_cell_formula_units_Z            2
loop_
_atom_site_label
_atom_site_type_symbol
_atom_site_fract_x
_atom_site_fract_y
_atom_site_fract_z
C1 C 0.8818(2) 1.3133(2) 0.3050(2)
C2 C 0.8047(2) 1.3012(2) 0.2162(2)
C3 C 0.8430(2) 1.3234(2) 0.0795(2)
C4 C 0.9584(2) 1.3591(2) 0.0304(2)
C5 C 1.0419(2) 1.3789(2) 0.1251(2)
N1 N 1.1583(3) 1.4284(3) 0.0869(3)
C6 C 1.2436(2) 1.4676(2) 0.1799(2)
C7 C 1.3595(3) 1.5318(3) 0.1412(3)
C8 C 1.4466(2) 1.5710(2) 0.2335(2)
C9 C 1.4200(2) 1.5474(2) 0.3684(2)
C10 C 1.3077(2) 1.4847(2) 0.4068(2)
C11 C 1.2152(2) 1.4434(2) 0.3160(2)
C12 C 1.0962(2) 1.3742(2) 0.3480(2)
C13 C 1.0063(2) 1.3536(2) 0.2615(2)
O1 O 0.6835(2) 1.2671(2) 0.2366(2)
C14 C 0.6408(2) 1.2782(2) 0.1195(2)
O2 O 0.7472(2) 1.3052(2) 0.0151(2)
N2 N 1.0732(2) 1.3365(2) 0.4667(2)
C15 C 0.9815(2) 1.2288(2) 0.4831(2)
C16 C 0.9739(2) 1.1025(2) 0.3698(2)
C17 C 0.8942(2) 0.9970(2) 0.3953(2)
C18 C 0.8228(2) 1.0188(2) 0.5369(2)
C19 C 0.8263(2) 1.1439(2) 0.6474(2)
C20 C 0.9075(2) 1.2486(2) 0.6201(2)
O3 O 1.0474(2) 1.0910(2) 0.2371(2)
C21 C 1.0494(2) 0.9611(2) 0.1262(2)
N3 N 0.7514(3) 0.9036(3) 0.5579(3)
S1 S 0.6328(3) 0.8956(3) 0.6789(3)
O4 O 0.6562(2) 0.9953(2) 0.8262(2)
O5 O 0.5234(3) 0.9297(3) 0.6150(3)
C22 C 0.5955(2) 0.7623(2) 0.6603(2)
H1 H 0.851(4) 1.298(4) 0.409(4)
H2 H 0.987(4) 1.372(4) -0.074(4)
H3 H 1.182(4) 1.433(4) -0.018(4)
H4 H 1.379(4) 1.550(4) 0.041(5)
H5 H 1.536(4) 1.621(5) 0.207(5)
H6 H 1.487(5) 1.580(5) 0.437(5)
H7 H 1.290(4) 1.468(4) 0.507(4)
H8 H 0.590(4) 1.192(4) 0.066(4)
H9 H 0.575(4) 1.328(4) 0.167(4)
H10 H 1.140(5) 1.368(5) 0.540(5)
H11 H 0.887(4) 0.900(4) 0.307(4)
H12 H 0.771(4) 1.160(4) 0.748(4)
H13 H 0.915(4) 1.346(4) 0.704(4)
H14 H 1.112(4) 0.969(4) 0.056(4)
H15 H 0.752(5) 0.810(5) 0.468(5)
H16 H 0.620(4) 0.773(4) 0.767(4)
H17 H 0.624(4) 0.721(4) 0.602(4)
H18 H 0.535(4) 0.737(4) 0.655(4)
O6 O 0.3254(2) 1.1721(2) 0.9378(2)
C23 C 0.3365(2) 1.0618(2) 0.9106(2)
H19 H 0.378(4) 1.068(4) 1.003(4)
H20 H 0.262(4) 0.977(4) 0.898(4)
H21 H 0.395(4) 1.026(4) 0.805(4)
Cl1 Cl 1.2232(2) 1.3695(3) 1.7307(2)
loop_
_geom_bond_atom_site_label_1
_geom_bond_atom_site_label_2
_geom_bond_site_symmetry_1
_geom_bond_site_symmetry_2
C1 C2 1_555 1_555
C2 C3 1_555 1_555
C3 C4 1_555 1_555
C4 C5 1_555 1_555
C5 N1 1_555 1_555
N1 C6 1_555 1_555
C6 C7 1_555 1_555
C7 C8 1_555 1_555
C8 C9 1_555 1_555
C9 C10 1_555 1_555
C10 C11 1_555 1_555
C11 C6 1_555 1_555
C12 C11 1_555 1_555
C13 C1 1_555 1_555
O1 C2 1_555 1_555
C14 O1 1_555 1_555
O2 C3 1_555 1_555
N2 C12 1_555 1_555
C15 N2 1_555 1_555
C16 C15 1_555 1_555
C17 C16 1_555 1_555
C18 C17 1_555 1_555
C19 C18 1_555 1_555
C20 C15 1_555 1_555
O3 C16 1_555 1_555
C21 O3 1_555 1_555
N3 C18 1_555 1_555
S1 N3 1_555 1_555
O4 S1 1_555 1_555
O5 S1 1_555 1_555
C22 S1 1_555 1_555
H1 C1 1_555 1_555
H2 C4 1_555 1_555
H3 N1 1_555 1_555
H4 C7 1_555 1_555
H5 C8 1_555 1_555
H6 C9 1_555 1_555
H7 C10 1_555 1_555
H8 C14 1_555 1_555
H9 C14 1_555 1_555
H10 N2 1_555 1_555
H11 C17 1_555 1_555
H12 C19 1_555 1_555
H13 C20 1_555 1_555
H14 C21 1_555 1_555
H15 N3 1_555 1_555
H16 C22 1_555 1_555
H17 C22 1_555 1_555
H18 C22 1_555 1_555
O6 C23 1_555 1_555
C23 H19 1_555 1_555
H20 C23 1_555 1_555
H21 C23 1_555 1_555
C5 C13 1_555 1_555
C12 C13 1_555 1_555
C14 O2 1_555 1_555
C19 C20 1_555 1_555

#END
