
#######################################################################
#
#                 Cambridge Crystallographic Data Centre
#                                CCDC 
#
#######################################################################
#
# If this CIF has been generated from an entry in the Cambridge 
# Structural Database, then it will include bibliographic, chemical, 
# crystal, experimental, refinement or atomic coordinate data resulting 
# from the CCDC's data processing and validation procedures.
#
#######################################################################

data_YABTON
_chemical_formula_moiety         'C16 H10 Br1 Cl2 N1 O1'
_chemical_name_systematic        
1-(1-(2-bromophenyl)-2-chloro-1H-indol-3-yl)-2-chloroethanone
_symmetry_cell_setting           monoclinic
_symmetry_space_group_name_H-M   'P 21/n'
_symmetry_Int_Tables_number      14
_space_group_name_Hall           '-P 2yn'
loop_
_symmetry_equiv_pos_site_id
_symmetry_equiv_pos_as_xyz
1 x,y,z
2 1/2-x,1/2+y,1/2-z
3 -x,-y,-z
4 1/2+x,1/2-y,1/2+z
_cell_length_a                   10.2155(10)
_cell_length_b                   11.3645(11)
_cell_length_c                   13.5252(13)
_cell_angle_alpha                90
_cell_angle_beta                 101.141(2)
_cell_angle_gamma                90
_cell_volume                     1540.6
_exptl_crystal_colour            colorless
_exptl_crystal_description       parallelepiped
_cell_formula_units_Z            4
loop_
_atom_site_label
_atom_site_type_symbol
_atom_site_fract_x
_atom_site_fract_y
_atom_site_fract_z
Br1 Br 0.9017(3) 0.45726(16) 0.23888(15)
Cl1 Cl 0.84021(4) 0.52798(5) 0.50311(4)
Cl2 Cl 0.58942(6) 0.87898(4) 0.54210(5)
O1 O 0.42385(12) 0.70363(11) 0.42434(10)
N1 N 0.68599(12) 0.39373(11) 0.37045(10)
C1 C 0.69364(14) 0.49615(15) 0.42401(13)
C2 C 0.57445(15) 0.55577(13) 0.40546(13)
C3 C 0.48447(14) 0.48228(14) 0.33524(12)
C4 C 0.35010(16) 0.49101(17) 0.28691(14)
C5 C 0.29617(18) 0.40323(18) 0.22190(14)
C6 C 0.37137(19) 0.30638(18) 0.20265(15)
C7 C 0.50340(19) 0.29551(17) 0.24809(14)
C8 C 0.55681(15) 0.38361(13) 0.31437(12)
C9 C 0.7934(11) 0.3110(9) 0.3708(9)
C10 C 0.7877(9) 0.2168(11) 0.4317(7)
H1 H 0.7200 0.2113 0.4686
C11 C 0.8827(10) 0.1295(8) 0.4386(7)
H2 H 0.8793 0.0648 0.4802
C12 C 0.9831(7) 0.1383(7) 0.3834(8)
H3 H 1.0474 0.0794 0.3891
C13 C 0.9900(11) 0.2300(12) 0.3216(9)
H4 H 1.0569 0.2342 0.2839
C14 C 0.8935(12) 0.3191(8) 0.3156(10)
C15 C 0.53832(16) 0.66877(14) 0.44448(12)
C16 C 0.64660(19) 0.73974(16) 0.50983(16)
H5 H 0.2000(19) 0.4086(16) 0.1867(14)
H6 H 0.305(2) 0.5574(17) 0.3006(15)
H7 H 0.3308(18) 0.2474(17) 0.1547(14)
H8 H 0.555(2) 0.240(2) 0.2376(15)
H9 H 0.6823(19) 0.6949(18) 0.5708(16)
H10 H 0.728(2) 0.7566(19) 0.4713(15)
Br2? Br 0.8772(11) 0.4504(4) 0.2351(4)
C17? C 0.7814(16) 0.3002(12) 0.3785(15)
C18? C 0.7798(10) 0.1928(12) 0.4275(10)
H11? H 0.7110 0.1754 0.4611
C19? C 0.8812(10) 0.1116(7) 0.4262(9)
H12? H 0.8801 0.0397 0.4589
C20? C 0.9841(11) 0.1377(11) 0.3759(12)
H13? H 1.0519 0.0833 0.3751
C21? C 0.9857(15) 0.2451(15) 0.3270(14)
H14? H 1.0546 0.2625 0.2933
C22? C 0.8844(19) 0.3263(12) 0.3282(16)
loop_
_geom_bond_atom_site_label_1
_geom_bond_atom_site_label_2
_geom_bond_site_symmetry_1
_geom_bond_site_symmetry_2
Br1 C14 1_555 1_555
Cl1 C1 1_555 1_555
Cl2 C16 1_555 1_555
O1 C15 1_555 1_555
N1 C1 1_555 1_555
C1 C2 1_555 1_555
C2 C3 1_555 1_555
C3 C4 1_555 1_555
C4 C5 1_555 1_555
C5 C6 1_555 1_555
C6 C7 1_555 1_555
C7 C8 1_555 1_555
C8 N1 1_555 1_555
C9 N1 1_555 1_555
C10 C9 1_555 1_555
H1 C10 1_555 1_555
C11 C10 1_555 1_555
H2 C11 1_555 1_555
C12 C11 1_555 1_555
H3 C12 1_555 1_555
C13 C12 1_555 1_555
H4 C13 1_555 1_555
C14 C9 1_555 1_555
C15 C2 1_555 1_555
C16 C15 1_555 1_555
H5 C5 1_555 1_555
H6 C4 1_555 1_555
H7 C6 1_555 1_555
H8 C7 1_555 1_555
H9 C16 1_555 1_555
H10 C16 1_555 1_555
C3 C8 1_555 1_555
C13 C14 1_555 1_555

#END
