
#######################################################################
#
#                 Cambridge Crystallographic Data Centre
#                                CCDC 
#
#######################################################################
#
# If this CIF has been generated from an entry in the Cambridge 
# Structural Database, then it will include bibliographic, chemical, 
# crystal, experimental, refinement or atomic coordinate data resulting 
# from the CCDC's data processing and validation procedures.
#
#######################################################################

data_YACWUX
_chemical_formula_moiety         'C40 H36 N2 O2 S1'
_chemical_name_systematic        
N-((3,9-diphenyl-1H-pyrrolo[1,2-a]indol-2(3H)-ylidene)methyl)-N-mesityl-4-methylbenzenesulfonamide
_symmetry_cell_setting           triclinic
_symmetry_space_group_name_H-M   'P -1'
_symmetry_Int_Tables_number      2
_space_group_name_Hall           '-P 1'
loop_
_symmetry_equiv_pos_site_id
_symmetry_equiv_pos_as_xyz
1 x,y,z
2 -x,-y,-z
_cell_length_a                   12.3872(6)
_cell_length_b                   14.0558(6)
_cell_length_c                   20.5038(10)
_cell_angle_alpha                87.217(4)
_cell_angle_beta                 82.180(4)
_cell_angle_gamma                66.748(4)
_cell_volume                     3249.44
_exptl_crystal_colour            brown
_exptl_crystal_description       block
_cell_formula_units_Z            4
loop_
_atom_site_label
_atom_site_type_symbol
_atom_site_fract_x
_atom_site_fract_y
_atom_site_fract_z
S1 S 0.68333(7) 0.01554(5) 0.08759(4)
N1 N 0.6280(2) 0.14276(15) 0.09802(10)
N2 N 0.2750(2) 0.44494(17) 0.10079(11)
O1 O 0.5839(2) -0.01373(15) 0.09771(11)
C1 C 0.5128(3) 0.1982(2) 0.08060(13)
H1 H 0.4829(3) 0.1620(2) 0.05645(13)
C2 C 0.7084(2) 0.19341(19) 0.10164(13)
O2 O 0.7778(2) -0.02743(15) 0.12660(10)
C3 C 0.1757(3) 0.6035(2) 0.14361(13)
C4 C 0.3240(2) 0.3447(2) 0.06829(13)
H2 H 0.2751(2) 0.3057(2) 0.08389(13)
C5 C 0.4437(3) 0.2950(2) 0.09480(13)
C6 C 0.3358(2) 0.3502(2) -0.00608(13)
C7 C 0.7445(3) 0.2394(2) 0.04552(14)
C8 C 0.2901(3) 0.5603(2) 0.16732(13)
C9 C 0.3460(3) 0.4637(2) 0.14010(14)
C10 C 0.7452(3) 0.1984(2) 0.16206(14)
C11 C 0.7436(3) -0.0067(2) 0.00462(15)
C12 C 0.3348(3) 0.6072(2) 0.21410(14)
C13 C 0.1687(3) 0.5287(2) 0.10225(13)
C14 C 0.8232(3) 0.2852(2) 0.05093(17)
H3 H 0.8495(3) 0.3143(2) 0.01367(17)
C15 C 0.4598(3) 0.3708(2) 0.13858(16)
H4 H 0.4723(3) 0.3428(2) 0.18240(16)
H5 H 0.5265(3) 0.3876(2) 0.12020(16)
C16 C 0.3373(3) 0.2690(2) -0.04189(15)
H6 H 0.3243(3) 0.2144(2) -0.01981(15)
C17 C 0.4010(3) 0.5474(2) 0.26185(14)
H7 H 0.4177(3) 0.4768(2) 0.26366(14)
C18 C 0.7006(3) 0.2441(2) -0.02014(14)
H8 H 0.6614(17) 0.1972(13) -0.0202(4)
H9 H 0.6459(15) 0.3133(5) -0.0276(5)
H10 H 0.7665(4) 0.2247(16) -0.05444(17)
C19 C 0.8229(3) 0.2469(2) 0.16453(17)
H11 H 0.8482(3) 0.2510(2) 0.20458(17)
C20 C 0.6708(3) 0.0062(2) -0.04306(16)
H12 H 0.5909(3) 0.0198(2) -0.03127(16)
C21 C 0.3538(3) 0.4313(2) -0.03993(16)
H13 H 0.3532(3) 0.4870(2) -0.01695(16)
C22 C 0.7175(3) -0.0012(2) -0.10825(17)
H14 H 0.6683(3) 0.0068(2) -0.14037(17)
C23 C 0.8632(3) -0.0293(3) -0.01282(17)
H15 H 0.9128(3) -0.0396(3) 0.01936(17)
C24 C 0.0696(3) 0.5425(2) 0.07323(16)
H16 H 0.0677(3) 0.4918(2) 0.04645(16)
C25 C -0.0268(3) 0.6350(3) 0.08571(18)
H17 H -0.0957(3) 0.6471(3) 0.06734(18)
C26 C 0.0758(3) 0.6967(2) 0.15478(15)
H18 H 0.0763(3) 0.7480(2) 0.18155(15)
C27 C 0.3122(3) 0.7118(2) 0.21334(16)
H19 H 0.2689(3) 0.7538(2) 0.18165(16)
C28 C 0.7034(3) 0.1554(3) 0.22431(14)
H20 H 0.6202(5) 0.1715(14) 0.2264(5)
H21 H 0.7458(14) 0.0816(3) 0.2248(5)
H22 H 0.7177(17) 0.1855(12) 0.26159(14)
C29 C 0.3576(3) 0.2671(3) -0.10949(16)
H23 H 0.3593(3) 0.2112(3) -0.13271(16)
C30 C 0.8353(4) -0.0204(3) -0.12729(18)
C31 C -0.0222(3) 0.7107(3) 0.12557(18)
H24 H -0.0880(3) 0.7727(3) 0.13251(18)
C32 C 0.4422(3) 0.5904(3) 0.30644(16)
H25 H 0.4866(3) 0.5488(3) 0.33784(16)
C33 C 0.8639(3) 0.2892(3) 0.10917(19)
C34 C 0.9074(3) -0.0363(3) -0.07845(19)
H26 H 0.9878(3) -0.0522(3) -0.09032(19)
C35 C 0.3524(4) 0.7551(3) 0.25850(18)
H27 H 0.3350(4) 0.8258(3) 0.25762(18)
C36 C 0.3755(4) 0.3479(3) -0.14259(17)
H28 H 0.3894(4) 0.3471(3) -0.18833(17)
C37 C 0.4185(4) 0.6938(3) 0.30498(17)
H29 H 0.4468(4) 0.7226(3) 0.33513(17)
C38 C 0.3726(4) 0.4295(3) -0.10792(18)
H30 H 0.3835(4) 0.4848(3) -0.13041(18)
C39 C 0.8861(4) -0.0281(3) -0.19891(18)
H31 H 0.931(2) -0.0995(4) -0.2107(4)
H32 H 0.8228(4) 0.001(2) -0.2255(2)
H33 H 0.937(2) 0.0092(19) -0.2061(3)
C40 C 0.9526(4) 0.3378(4) 0.1127(2)
H34 H 1.0264(10) 0.2971(15) 0.0872(14)
H35 H 0.9228(14) 0.4068(10) 0.0954(16)
H36 H 0.965(2) 0.340(2) 0.1577(3)
S2 S 0.88578(8) 0.92027(6) 0.33357(4)
N3 N 1.1598(2) 0.45469(18) 0.31162(11)
N4 N 0.9578(2) 0.80867(17) 0.36945(11)
C41 C 1.3198(3) 0.3098(2) 0.31887(13)
O3 O 0.8970(2) 0.99933(15) 0.36923(12)
O4 O 0.9270(2) 0.90505(16) 0.26505(10)
C42 C 0.9614(3) 0.8077(2) 0.43983(14)
C43 C 1.0496(3) 0.5382(2) 0.29960(14)
H37 H 1.0558(3) 0.5596(2) 0.25351(14)
C44 C 1.2128(3) 0.4683(2) 0.36260(14)
C45 C 1.2219(3) 0.3584(2) 0.28439(14)
C46 C 0.8821(3) 0.7779(2) 0.48249(15)
C47 C 1.3140(3) 0.3819(2) 0.36906(14)
C48 C 0.9774(3) 0.7184(2) 0.33417(14)
H38 H 0.9331(3) 0.7281(2) 0.29943(14)
C49 C 0.9462(3) 0.5066(2) 0.31412(14)
C50 C 1.0434(3) 0.8381(2) 0.46308(14)
C51 C 1.3957(3) 0.2084(2) 0.29984(16)
H39 H 1.4606(3) 0.1722(2) 0.32199(16)
C52 C 1.1991(3) 0.3129(2) 0.23234(14)
H40 H 1.1337(3) 0.3478(2) 0.21032(14)
C53 C 1.4005(3) 0.3668(2) 0.41463(15)
C54 C 1.0398(3) 0.8445(2) 0.53073(15)
H41 H 1.0925(3) 0.8666(2) 0.54701(15)
C55 C 1.0498(3) 0.6223(2) 0.34369(13)
C56 C 1.1418(3) 0.5757(2) 0.39032(15)
H42 H 1.1049(3) 0.5731(2) 0.43487(15)
H43 H 1.1911(3) 0.6148(2) 0.39027(15)
C57 C 0.7357(3) 0.9392(2) 0.34492(15)
C58 C 1.2772(3) 0.2140(2) 0.21460(15)
H44 H 1.2653(3) 0.1809(2) 0.17971(15)
C59 C 0.8853(3) 0.7841(2) 0.54973(16)
H45 H 0.8342(3) 0.7637(2) 0.57898(16)
C60 C 0.9605(3) 0.8190(2) 0.57476(15)
C61 C 1.3738(3) 0.1634(2) 0.24851(16)
H46 H 1.4252(3) 0.0964(2) 0.23582(16)
C62 C 0.9291(3) 0.4573(2) 0.37262(16)
H47 H 0.9807(3) 0.4458(2) 0.40388(16)
C63 C 0.7971(3) 0.7388(3) 0.45953(18)
H48 H 0.7679(16) 0.7758(13) 0.4208(7)
H49 H 0.8370(6) 0.6663(5) 0.4495(11)
H50 H 0.7321(10) 0.7495(16) 0.4936(5)
C64 C 0.6919(3) 0.8969(2) 0.30153(17)
H51 H 0.7401(3) 0.8625(2) 0.26401(17)
C65 C 1.1343(3) 0.8634(3) 0.41824(16)
H52 H 1.1472(13) 0.8307(13) 0.3762(4)
H53 H 1.1068(8) 0.9371(3) 0.4126(8)
H54 H 1.2073(6) 0.8388(14) 0.4371(5)
C66 C 0.8682(3) 0.5214(3) 0.26918(19)
H55 H 0.8775(3) 0.5540(3) 0.22949(19)
C67 C 1.3689(3) 0.4122(3) 0.47630(17)
H56 H 1.2901(3) 0.4546(3) 0.48940(17)
C68 C 0.8362(4) 0.4251(3) 0.3849(2)
H57 H 0.8252(4) 0.3930(3) 0.4245(2)
C69 C 0.6633(4) 0.9931(2) 0.39940(17)
H58 H 0.6922(4) 1.0229(2) 0.42868(17)
C70 C 0.5019(4) 0.9568(3) 0.3689(2)
C71 C 0.5470(4) 1.0022(3) 0.40981(19)
H59 H 0.4975(4) 1.0404(3) 0.44584(19)
C72 C 0.5758(4) 0.9054(3) 0.3136(2)
H60 H 0.5468(4) 0.8760(3) 0.2841(2)
C73 C 1.6024(4) 0.2879(3) 0.4407(2)
H61 H 1.6813(4) 0.2451(3) 0.4283(2)
C74 C 1.5198(3) 0.3050(3) 0.39764(18)
H62 H 1.5448(3) 0.2743(3) 0.35613(18)
C75 C 0.9562(4) 0.8299(3) 0.64766(16)
H63 H 1.0326(8) 0.823(2) 0.6575(2)
H64 H 0.8985(18) 0.8968(9) 0.6620(3)
H65 H 0.935(2) 0.7771(14) 0.67010(18)
C76 C 0.7616(4) 0.4401(3) 0.3397(2)
H66 H 0.7001(4) 0.4172(3) 0.3478(2)
C77 C 1.5684(4) 0.3337(4) 0.5013(2)
H67 H 1.6236(4) 0.3229(4) 0.5303(2)
C78 C 1.4514(4) 0.3960(3) 0.5189(2)
H68 H 1.4275(4) 0.4277(3) 0.5601(2)
C79 C 0.7765(4) 0.4886(4) 0.2823(2)
H69 H 0.7240(4) 0.4998(4) 0.2516(2)
C80 C 0.3759(4) 0.9658(4) 0.3823(3)
H70 H 0.3733(5) 0.9062(14) 0.4063(16)
H71 H 0.3291(8) 1.0272(16) 0.4079(15)
H72 H 0.3449(11) 0.970(3) 0.3414(3)
loop_
_geom_bond_atom_site_label_1
_geom_bond_atom_site_label_2
_geom_bond_site_symmetry_1
_geom_bond_site_symmetry_2
S1 N1 1_555 1_555
N1 C1 1_555 1_555
N2 C4 1_555 1_555
O1 S1 1_555 1_555
C1 H1 1_555 1_555
C2 N1 1_555 1_555
O2 S1 1_555 1_555
C3 C8 1_555 1_555
C4 H2 1_555 1_555
C5 C1 1_555 1_555
C6 C4 1_555 1_555
C7 C2 1_555 1_555
C8 C9 1_555 1_555
C9 N2 1_555 1_555
C10 C2 1_555 1_555
C11 S1 1_555 1_555
C12 C8 1_555 1_555
C13 N2 1_555 1_555
C14 C7 1_555 1_555
H3 C14 1_555 1_555
C15 C5 1_555 1_555
H4 C15 1_555 1_555
H5 C15 1_555 1_555
C16 C6 1_555 1_555
H6 C16 1_555 1_555
C17 C12 1_555 1_555
H7 C17 1_555 1_555
C18 C7 1_555 1_555
H8 C18 1_555 1_555
H9 C18 1_555 1_555
H10 C18 1_555 1_555
C19 C10 1_555 1_555
H11 C19 1_555 1_555
C20 C11 1_555 1_555
H12 C20 1_555 1_555
C21 C6 1_555 1_555
H13 C21 1_555 1_555
C22 C20 1_555 1_555
H14 C22 1_555 1_555
C23 C11 1_555 1_555
H15 C23 1_555 1_555
C24 C13 1_555 1_555
H16 C24 1_555 1_555
C25 C24 1_555 1_555
H17 C25 1_555 1_555
C26 C3 1_555 1_555
H18 C26 1_555 1_555
C27 C12 1_555 1_555
H19 C27 1_555 1_555
C28 C10 1_555 1_555
H20 C28 1_555 1_555
H21 C28 1_555 1_555
H22 C28 1_555 1_555
C29 C16 1_555 1_555
H23 C29 1_555 1_555
C30 C22 1_555 1_555
C31 C25 1_555 1_555
H24 C31 1_555 1_555
C32 C17 1_555 1_555
H25 C32 1_555 1_555
C33 C14 1_555 1_555
C34 C23 1_555 1_555
H26 C34 1_555 1_555
C35 C27 1_555 1_555
H27 C35 1_555 1_555
C36 C29 1_555 1_555
H28 C36 1_555 1_555
C37 C32 1_555 1_555
H29 C37 1_555 1_555
C38 C21 1_555 1_555
H30 C38 1_555 1_555
C39 C30 1_555 1_555
H31 C39 1_555 1_555
H32 C39 1_555 1_555
H33 C39 1_555 1_555
C40 C33 1_555 1_555
H34 C40 1_555 1_555
H35 C40 1_555 1_555
H36 C40 1_555 1_555
S2 N4 1_555 1_555
N3 C43 1_555 1_555
N4 C42 1_555 1_555
C41 C45 1_555 1_555
O3 S2 1_555 1_555
O4 S2 1_555 1_555
C42 C46 1_555 1_555
C43 H37 1_555 1_555
C44 N3 1_555 1_555
C45 N3 1_555 1_555
C46 C59 1_555 1_555
C47 C41 1_555 1_555
C48 N4 1_555 1_555
H38 C48 1_555 1_555
C49 C43 1_555 1_555
C50 C42 1_555 1_555
C51 C41 1_555 1_555
H39 C51 1_555 1_555
C52 C45 1_555 1_555
H40 C52 1_555 1_555
C53 C47 1_555 1_555
C54 C50 1_555 1_555
H41 C54 1_555 1_555
C55 C43 1_555 1_555
C56 C44 1_555 1_555
H42 C56 1_555 1_555
H43 C56 1_555 1_555
C57 S2 1_555 1_555
C58 C52 1_555 1_555
H44 C58 1_555 1_555
C59 H45 1_555 1_555
C60 C54 1_555 1_555
C61 C51 1_555 1_555
H46 C61 1_555 1_555
C62 C49 1_555 1_555
H47 C62 1_555 1_555
C63 C46 1_555 1_555
H48 C63 1_555 1_555
H49 C63 1_555 1_555
H50 C63 1_555 1_555
C64 C57 1_555 1_555
H51 C64 1_555 1_555
C65 C50 1_555 1_555
H52 C65 1_555 1_555
H53 C65 1_555 1_555
H54 C65 1_555 1_555
C66 C49 1_555 1_555
H55 C66 1_555 1_555
C67 C53 1_555 1_555
H56 C67 1_555 1_555
C68 C62 1_555 1_555
H57 C68 1_555 1_555
C69 C57 1_555 1_555
H58 C69 1_555 1_555
C70 C71 1_555 1_555
C71 C69 1_555 1_555
H59 C71 1_555 1_555
C72 C64 1_555 1_555
H60 C72 1_555 1_555
C73 H61 1_555 1_555
C74 C53 1_555 1_555
H62 C74 1_555 1_555
C75 C60 1_555 1_555
H63 C75 1_555 1_555
H64 C75 1_555 1_555
H65 C75 1_555 1_555
C76 C68 1_555 1_555
H66 C76 1_555 1_555
C77 C73 1_555 1_555
H67 C77 1_555 1_555
C78 C67 1_555 1_555
H68 C78 1_555 1_555
C79 C66 1_555 1_555
H69 C79 1_555 1_555
C80 C70 1_555 1_555
H70 C80 1_555 1_555
H71 C80 1_555 1_555
H72 C80 1_555 1_555
C3 C13 1_555 1_555
C4 C5 1_555 1_555
C9 C15 1_555 1_555
C19 C33 1_555 1_555
C26 C31 1_555 1_555
C30 C34 1_555 1_555
C35 C37 1_555 1_555
C36 C38 1_555 1_555
C44 C47 1_555 1_555
C48 C55 1_555 1_555
C55 C56 1_555 1_555
C58 C61 1_555 1_555
C59 C60 1_555 1_555
C70 C72 1_555 1_555
C73 C74 1_555 1_555
C76 C79 1_555 1_555
C77 C78 1_555 1_555

#END
