
#######################################################################
#
#                 Cambridge Crystallographic Data Centre
#                                CCDC 
#
#######################################################################
#
# If this CIF has been generated from an entry in the Cambridge 
# Structural Database, then it will include bibliographic, chemical, 
# crystal, experimental, refinement or atomic coordinate data resulting 
# from the CCDC's data processing and validation procedures.
#
#######################################################################

data_YACWOR
_chemical_formula_moiety         'C38 H32 N2 O2 S1'
_chemical_name_systematic        
4-methyl-N-((9-(4-methylphenyl)-3-phenyl-1H-pyrrolo[1,2-a]indol-2(3H)-ylidene)methyl)-N-phenylbenzenesulfonamide
_symmetry_cell_setting           orthorhombic
_symmetry_space_group_name_H-M   'P 21 21 21'
_symmetry_Int_Tables_number      19
_space_group_name_Hall           'P 2ac 2ab'
loop_
_symmetry_equiv_pos_site_id
_symmetry_equiv_pos_as_xyz
1 x,y,z
2 1/2+x,1/2-y,-z
3 -x,1/2+y,1/2-z
4 1/2-x,-y,1/2+z
_cell_length_a                   5.8561(3)
_cell_length_b                   23.2600(9)
_cell_length_c                   44.864(2)
_cell_angle_alpha                90
_cell_angle_beta                 90
_cell_angle_gamma                90
_cell_volume                     6111.05
_exptl_crystal_colour            colorless
_exptl_crystal_description       needle
_cell_formula_units_Z            8
loop_
_atom_site_label
_atom_site_type_symbol
_atom_site_fract_x
_atom_site_fract_y
_atom_site_fract_z
S1 S -0.4492(2) 0.63553(5) 0.47481(3)
N1 N -0.3203(6) 0.58479(14) 0.49473(8)
O1 O -0.5126(6) 0.67940(12) 0.49551(7)
N2 N 0.0887(5) 0.41042(12) 0.47815(7)
C1 C 0.3588(7) 0.39970(16) 0.51374(9)
C2 C 0.3723(6) 0.35160(14) 0.49301(8)
C3 C 0.1992(6) 0.35970(15) 0.47142(8)
C4 C -0.0038(8) 0.62997(19) 0.52160(11)
H1 H 0.0637(8) 0.63978(19) 0.50354(11)
C5 C 0.5022(7) 0.41021(16) 0.53985(8)
C6 C -0.2050(7) 0.60114(16) 0.52177(10)
C7 C -0.1244(9) 0.71178(19) 0.45824(11)
H2 H -0.1577(9) 0.73060(19) 0.47601(11)
C8 C 0.1634(8) 0.32195(17) 0.44781(9)
H3 H 0.0485(8) 0.32841(17) 0.43390(9)
C9 C 0.1840(7) 0.43360(16) 0.50335(8)
C10 C -0.2733(7) 0.53260(16) 0.48026(10)
H4 H -0.3643(7) 0.52513(16) 0.46371(10)
O2 O -0.6204(6) 0.60601(14) 0.45767(8)
C11 C 0.5073(7) 0.30241(15) 0.49048(9)
H5 H 0.6194(7) 0.29466(15) 0.50460(9)
C12 C 0.4733(8) 0.26539(16) 0.46691(9)
H6 H 0.5661(8) 0.23315(16) 0.46502(9)
C13 C -0.1208(6) 0.49237(16) 0.48631(9)
C14 C -0.2424(8) 0.66330(19) 0.45017(10)
C15 C 0.7150(8) 0.38457(19) 0.54336(10)
H7 H 0.7682(8) 0.35995(19) 0.52858(10)
C16 C 0.3024(8) 0.27528(18) 0.44581(10)
H8 H 0.2834(8) 0.24954(18) 0.43014(10)
C17 C -0.1101(8) 0.44897(17) 0.43389(10)
C18 C 0.9317(9) 0.4432(3) 0.61725(10)
H9 H 0.944(6) 0.4095(6) 0.6295(5)
H10 H 1.081(2) 0.4542(17) 0.61045(10)
H11 H 0.866(4) 0.4740(12) 0.6286(5)
C19 C 0.4353(8) 0.4460(2) 0.56293(10)
H12 H 0.2939(8) 0.4640(2) 0.56179(10)
C20 C -0.0262(13) 0.6570(3) 0.40557(12)
H13 H 0.0070(13) 0.6382(3) 0.38778(12)
C21 C -0.1158(7) 0.43839(15) 0.46719(9)
H14 H -0.2487(7) 0.41454(15) 0.47201(9)
C22 C 0.8496(8) 0.3945(2) 0.56802(10)
H15 H 0.9908(8) 0.3764(2) 0.56941(10)
C23 C 0.0437(11) 0.7321(2) 0.43970(11)
H16 H 0.1249(11) 0.7648(2) 0.44522(11)
C24 C 0.0637(7) 0.48916(16) 0.51025(9)
H17 H -0.0030(7) 0.48835(16) 0.53004(9)
H18 H 0.1675(7) 0.52154(16) 0.50885(9)
C25 C 0.1015(12) 0.6448(2) 0.54790(16)
H19 H 0.2384(12) 0.6651(2) 0.54754(16)
C26 C 0.0954(11) 0.7053(3) 0.41306(12)
C27 C 0.7807(8) 0.4304(2) 0.59067(10)
C28 C -0.2872(10) 0.4297(2) 0.41628(12)
H20 H -0.4086(10) 0.4096(2) 0.42467(12)
C29 C 0.5708(9) 0.4557(2) 0.58749(11)
H21 H 0.5184(9) 0.4802(2) 0.60237(11)
C30 C 0.0652(10) 0.4791(2) 0.42118(11)
H22 H 0.1831(10) 0.4927(2) 0.43314(11)
C31 C -0.1981(11) 0.6351(2) 0.42385(12)
H23 H -0.2801(11) 0.6025(2) 0.41842(12)
C32 C -0.1035(18) 0.4694(4) 0.37341(16)
H24 H -0.0991(18) 0.4754(4) 0.35293(16)
C33 C 0.0703(15) 0.4896(3) 0.39071(14)
H25 H 0.1902(15) 0.5101(3) 0.38225(14)
C34 C -0.2819(16) 0.4408(3) 0.38543(16)
H26 H -0.4013(16) 0.4285(3) 0.37334(16)
C35 C 0.2851(12) 0.7267(3) 0.39322(14)
H27 H 0.275(5) 0.7082(17) 0.3741(4)
H28 H 0.271(5) 0.7676(5) 0.3907(9)
H29 H 0.4298(12) 0.718(2) 0.4022(6)
C36 C 0.0067(16) 0.6302(3) 0.57418(15)
H30 H 0.0769(16) 0.6404(3) 0.59200(15)
C37 C -0.3013(10) 0.5859(3) 0.54803(12)
H31 H -0.4391(10) 0.5660(3) 0.54839(12)
C38 C -0.1921(14) 0.6003(4) 0.57433(14)
H32 H -0.2562(14) 0.5894(4) 0.59243(14)
S2 S 0.0198(2) 0.68828(6) 0.81266(3)
N3 N 0.5774(6) 0.81844(14) 0.71942(8)
C39 C 0.3939(9) 0.86113(19) 0.76420(11)
C40 C 0.8665(8) 0.83010(19) 0.68699(10)
C41 C 0.3742(8) 0.81997(18) 0.73813(10)
H33 H 0.2404(8) 0.82985(18) 0.72604(10)
O3 O -0.0246(7) 0.62924(14) 0.81968(8)
C42 C 0.2105(9) 0.7162(2) 0.83879(10)
C43 C 0.6636(8) 0.76538(18) 0.71333(9)
C44 C 0.6964(9) 0.8592(2) 0.70352(10)
C45 C 0.2058(8) 0.74169(19) 0.76778(10)
H34 H 0.1153(8) 0.77168(19) 0.77474(10)
N4 N 0.1577(7) 0.68754(15) 0.78012(8)
O4 O -0.1625(6) 0.72848(17) 0.80932(8)
C46 C 0.8429(7) 0.76919(18) 0.69337(9)
C47 C 0.5377(8) 0.72141(17) 0.73101(9)
H35 H 0.4654(8) 0.69334(17) 0.71810(9)
H36 H 0.6389(8) 0.70166(17) 0.74472(9)
C48 C 0.2734(8) 0.63676(19) 0.77083(9)
C49 C 0.3617(7) 0.75641(17) 0.74761(9)
C50 C 1.0149(11) 0.6198(2) 0.66989(14)
H37 H 0.9547(11) 0.5828(2) 0.67108(14)
C51 C 1.0099(10) 0.8643(2) 0.66916(11)
H38 H 1.1229(10) 0.8476(2) 0.65744(11)
C52 C 0.3813(11) 0.7970(2) 0.86270(12)
H39 H 0.3860(11) 0.8365(2) 0.86593(12)
C53 C 0.9736(8) 0.72135(19) 0.68092(9)
C54 C 1.2220(9) 0.6277(3) 0.65680(11)
C55 C 1.3008(10) 0.6829(3) 0.65545(13)
H40 H 1.4396(10) 0.6899(3) 0.64605(13)
C56 C 1.1828(9) 0.7288(2) 0.66749(12)
H41 H 1.2459(9) 0.7655(2) 0.66649(12)
C57 C 0.4728(10) 0.6192(2) 0.78374(11)
H42 H 0.5348(10) 0.6403(2) 0.79939(11)
C58 C 0.5821(13) 0.5708(3) 0.77376(14)
H43 H 0.7179(13) 0.5589(3) 0.78258(14)
C59 C 0.5310(10) 0.7620(2) 0.87761(11)
C60 C 0.8128(13) 0.9500(2) 0.68559(14)
H44 H 0.7989(13) 0.9898(2) 0.68472(14)
C61 C 0.5168(11) 0.7044(2) 0.87314(10)
H45 H 0.6172(11) 0.6802(2) 0.88321(10)
C62 C 0.3571(11) 0.6805(2) 0.85400(10)
H46 H 0.3491(11) 0.6409(2) 0.85147(10)
C63 C 0.2254(11) 0.7749(2) 0.84319(11)
H47 H 0.1286(11) 0.7994(2) 0.83279(11)
C64 C 0.8915(10) 0.6654(2) 0.68148(13)
H48 H 0.7491(10) 0.6584(2) 0.68990(13)
C65 C 0.2197(11) 0.8980(2) 0.77094(15)
H49 H 0.0914(11) 0.8995(2) 0.75876(15)
C66 C 0.9796(13) 0.9231(2) 0.66940(14)
H50 H 1.0775(13) 0.9456(2) 0.65799(14)
C67 C 0.1805(11) 0.6066(3) 0.74773(13)
H51 H 0.0436(11) 0.6181(3) 0.73906(13)
C68 C 1.3554(11) 0.5773(3) 0.64446(14)
H52 H 1.462(6) 0.5640(14) 0.6592(5)
H53 H 1.2520(14) 0.5468(8) 0.6394(10)
H54 H 1.437(7) 0.5892(6) 0.6269(7)
C69 C 0.6668(11) 0.9190(2) 0.70298(12)
H55 H 0.5524(11) 0.9368(2) 0.71402(12)
C70 C 0.489(2) 0.5400(3) 0.7506(2)
H56 H 0.559(2) 0.5065(3) 0.7438(2)
C71 C 0.7050(12) 0.7871(3) 0.89868(14)
H57 H 0.8525(18) 0.7711(14) 0.8944(6)
H58 H 0.710(5) 0.8281(4) 0.8962(7)
H59 H 0.663(4) 0.7782(16) 0.91883(15)
C72 C 0.2932(18) 0.5593(4) 0.73774(19)
H60 H 0.2342(18) 0.5394(4) 0.72149(19)
C73 C 0.425(2) 0.9319(4) 0.8125(2)
H61 H 0.438(2) 0.9570(4) 0.8286(2)
C74 C 0.5857(11) 0.8594(3) 0.78221(12)
H62 H 0.7047(11) 0.8343(3) 0.77784(12)
C75 C 0.5995(17) 0.8955(4) 0.80689(16)
H63 H 0.7267(17) 0.8945(4) 0.81929(16)
C76 C 0.2334(19) 0.9334(3) 0.7960(2)
H64 H 0.1129(19) 0.9574(3) 0.8011(2)
loop_
_geom_bond_atom_site_label_1
_geom_bond_atom_site_label_2
_geom_bond_site_symmetry_1
_geom_bond_site_symmetry_2
S1 N1 1_555 1_555
N1 C6 1_555 1_555
O1 S1 1_555 1_555
N2 C3 1_555 1_555
C1 C2 1_555 1_555
C2 C3 1_555 1_555
C3 C8 1_555 1_555
C4 H1 1_555 1_555
C5 C1 1_555 1_555
C6 C4 1_555 1_555
C7 H2 1_555 1_555
C8 H3 1_555 1_555
C9 N2 1_555 1_555
C10 N1 1_555 1_555
H4 C10 1_555 1_555
O2 S1 1_555 1_555
C11 C2 1_555 1_555
H5 C11 1_555 1_555
C12 C11 1_555 1_555
H6 C12 1_555 1_555
C13 C10 1_555 1_555
C14 S1 1_555 1_555
C15 C5 1_555 1_555
H7 C15 1_555 1_555
C16 C8 1_555 1_555
H8 C16 1_555 1_555
C17 C21 1_555 1_555
C18 H9 1_555 1_555
H10 C18 1_555 1_555
H11 C18 1_555 1_555
C19 C5 1_555 1_555
H12 C19 1_555 1_555
C20 H13 1_555 1_555
C21 N2 1_555 1_555
H14 C21 1_555 1_555
C22 C15 1_555 1_555
H15 C22 1_555 1_555
C23 C7 1_555 1_555
H16 C23 1_555 1_555
C24 C9 1_555 1_555
H17 C24 1_555 1_555
H18 C24 1_555 1_555
C25 C4 1_555 1_555
H19 C25 1_555 1_555
C26 C20 1_555 1_555
C27 C18 1_555 1_555
C28 C17 1_555 1_555
H20 C28 1_555 1_555
C29 C19 1_555 1_555
H21 C29 1_555 1_555
C30 C17 1_555 1_555
H22 C30 1_555 1_555
C31 C14 1_555 1_555
H23 C31 1_555 1_555
C32 H24 1_555 1_555
C33 C30 1_555 1_555
H25 C33 1_555 1_555
C34 C28 1_555 1_555
H26 C34 1_555 1_555
C35 C26 1_555 1_555
H27 C35 1_555 1_555
H28 C35 1_555 1_555
H29 C35 1_555 1_555
C36 C25 1_555 1_555
H30 C36 1_555 1_555
C37 C6 1_555 1_555
H31 C37 1_555 1_555
C38 C36 1_555 1_555
H32 C38 1_555 1_555
S2 O3 1_555 1_555
N3 C41 1_555 1_555
C39 C41 1_555 1_555
C40 C44 1_555 1_555
C41 H33 1_555 1_555
C42 S2 1_555 1_555
C43 N3 1_555 1_555
C44 N3 1_555 1_555
C45 H34 1_555 1_555
N4 S2 1_555 1_555
O4 S2 1_555 1_555
C46 C40 1_555 1_555
C47 C43 1_555 1_555
H35 C47 1_555 1_555
H36 C47 1_555 1_555
C48 N4 1_555 1_555
C49 C41 1_555 1_555
C50 H37 1_555 1_555
C51 C40 1_555 1_555
H38 C51 1_555 1_555
C52 H39 1_555 1_555
C53 C46 1_555 1_555
C54 C50 1_555 1_555
C55 C54 1_555 1_555
H40 C55 1_555 1_555
C56 C53 1_555 1_555
H41 C56 1_555 1_555
C57 C48 1_555 1_555
H42 C57 1_555 1_555
C58 C57 1_555 1_555
H43 C58 1_555 1_555
C59 C52 1_555 1_555
C60 H44 1_555 1_555
C61 C59 1_555 1_555
H45 C61 1_555 1_555
C62 C42 1_555 1_555
H46 C62 1_555 1_555
C63 C42 1_555 1_555
H47 C63 1_555 1_555
C64 C50 1_555 1_555
H48 C64 1_555 1_555
C65 C39 1_555 1_555
H49 C65 1_555 1_555
C66 C51 1_555 1_555
H50 C66 1_555 1_555
C67 C48 1_555 1_555
H51 C67 1_555 1_555
C68 C54 1_555 1_555
H52 C68 1_555 1_555
H53 C68 1_555 1_555
H54 C68 1_555 1_555
C69 C44 1_555 1_555
H55 C69 1_555 1_555
C70 C58 1_555 1_555
H56 C70 1_555 1_555
C71 C59 1_555 1_555
H57 C71 1_555 1_555
H58 C71 1_555 1_555
H59 C71 1_555 1_555
C72 C67 1_555 1_555
H60 C72 1_555 1_555
C73 H61 1_555 1_555
C74 C39 1_555 1_555
H62 C74 1_555 1_555
C75 C73 1_555 1_555
H63 C75 1_555 1_555
C76 C65 1_555 1_555
H64 C76 1_555 1_555
C1 C9 1_555 1_555
C7 C14 1_555 1_555
C12 C16 1_555 1_555
C13 C21 1_555 1_555
C13 C24 1_555 1_555
C20 C31 1_555 1_555
C22 C27 1_555 1_555
C23 C26 1_555 1_555
C27 C29 1_555 1_555
C32 C33 1_555 1_555
C32 C34 1_555 1_555
C37 C38 1_555 1_555
C43 C46 1_555 1_555
C45 N4 1_555 1_555
C45 C49 1_555 1_555
C47 C49 1_555 1_555
C52 C63 1_555 1_555
C53 C64 1_555 1_555
C55 C56 1_555 1_555
C60 C66 1_555 1_555
C60 C69 1_555 1_555
C61 C62 1_555 1_555
C70 C72 1_555 1_555
C73 C76 1_555 1_555
C74 C75 1_555 1_555

#END
