
#######################################################################
#
#                 Cambridge Crystallographic Data Centre
#                                CCDC 
#
#######################################################################
#
# If this CIF has been generated from an entry in the Cambridge 
# Structural Database, then it will include bibliographic, chemical, 
# crystal, experimental, refinement or atomic coordinate data resulting 
# from the CCDC's data processing and validation procedures.
#
#######################################################################

data_YADHOA
_chemical_formula_moiety         'C21 H22 N3 O4 P1 S1'
_chemical_name_systematic        
6,12-Dioxo-1-(N-benzylideneamino)-11-ethoxycarbonylmethyl-1,4,3-thia-azaphosphacyclohexano(3,4-b)-1,3,2-benzodiazaphosphorine
_symmetry_cell_setting           orthorhombic
_symmetry_space_group_name_H-M   'P c a b'
_symmetry_Int_Tables_number      61
_space_group_name_Hall           '-P 2bc 2ac'
loop_
_symmetry_equiv_pos_site_id
_symmetry_equiv_pos_as_xyz
1 x,y,z
2 -x,1/2-y,1/2+z
3 1/2+x,-y,1/2-z
4 1/2-x,1/2+y,-z
5 -x,-y,-z
6 x,1/2+y,1/2-z
7 1/2-x,y,1/2+z
8 1/2+x,1/2-y,z
_cell_length_a                   10.596(1)
_cell_length_b                   19.117(2)
_cell_length_c                   20.744(2)
_cell_angle_alpha                90
_cell_angle_beta                 90
_cell_angle_gamma                90
_cell_volume                     4201.98
_cell_formula_units_Z            8
loop_
_atom_site_label
_atom_site_type_symbol
_atom_site_fract_x
_atom_site_fract_y
_atom_site_fract_z
P1 P 0.3813(1) 0.0301(1) 0.1333(1)
S1 S 0.3981(1) -0.0608(1) 0.2479(1)
O1 O 0.4442(3) 0.0892(1) 0.1649(1)
O2 O 0.5179(3) -0.1202(1) 0.0340(1)
N1 N 0.4769(3) -0.0307(2) 0.1016(1)
N2 N 0.2963(3) 0.0536(2) 0.0700(1)
N3 N 0.2171(3) -0.0733(2) 0.1547(1)
C1 C 0.2887(4) -0.0215(2) 0.1901(2)
C2 C 0.5092(4) -0.1050(2) 0.1956(2)
C3 C 0.5724(4) -0.0579(2) 0.1473(2)
C4 C 0.4506(4) -0.0713(2) 0.0482(2)
C5 C 0.2650(3) 0.0068(2) 0.0202(1)
C6 C 0.3381(3) -0.0525(2) 0.0095(2)
C7 C 0.3056(4) -0.0980(2) -0.0401(2)
C8 C 0.2027(5) -0.0852(2) -0.0788(2)
C9 C 0.1315(4) -0.0262(2) -0.0684(2)
C10 C 0.1615(4) 0.0191(2) -0.0193(2)
C11 C 0.0233(4) -0.1344(2) 0.1386(2)
C12 C -0.0939(4) -0.1521(2) 0.1647(2)
C13 C -0.1686(4) -0.2006(3) 0.1329(2)
C14 C -0.1295(4) -0.2309(2) 0.0775(2)
C15 C -0.0148(4) -0.2133(2) 0.0508(2)
C16 C 0.0604(4) -0.1648(2) 0.0814(2)
C17 C 0.2655(4) 0.1278(2) 0.0647(2)
C18 C 0.1692(4) 0.1511(2) 0.1132(2)
O3 O 0.1226(3) 0.1140(1) 0.1534(1)
O4 O 0.1470(3) 0.2192(1) 0.1068(1)
C19 C 0.0663(5) 0.2510(2) 0.1563(2)
C20 C 0.1443(7) 0.2711(3) 0.2115(2)
C21 C 0.1045(4) -0.0841(2) 0.1723(2)
loop_
_geom_bond_atom_site_label_1
_geom_bond_atom_site_label_2
_geom_bond_site_symmetry_1
_geom_bond_site_symmetry_2
P1 O1 1_555 1_555
S1 C1 1_555 1_555
O2 C4 1_555 1_555
N1 P1 1_555 1_555
N2 P1 1_555 1_555
N3 C1 1_555 1_555
C1 P1 1_555 1_555
C2 S1 1_555 1_555
C3 N1 1_555 1_555
C4 N1 1_555 1_555
C5 N2 1_555 1_555
C6 C4 1_555 1_555
C7 C6 1_555 1_555
C8 C7 1_555 1_555
C9 C8 1_555 1_555
C10 C5 1_555 1_555
C11 C12 1_555 1_555
C12 C13 1_555 1_555
C13 C14 1_555 1_555
C14 C15 1_555 1_555
C15 C16 1_555 1_555
C16 C11 1_555 1_555
C17 N2 1_555 1_555
C18 C17 1_555 1_555
O3 C18 1_555 1_555
O4 C18 1_555 1_555
C19 O4 1_555 1_555
C20 C19 1_555 1_555
C21 N3 1_555 1_555
C2 C3 1_555 1_555
C5 C6 1_555 1_555
C9 C10 1_555 1_555
C11 C21 1_555 1_555

#END
