
#######################################################################
#
#                 Cambridge Crystallographic Data Centre
#                                CCDC 
#
#######################################################################
#
# If this CIF has been generated from an entry in the Cambridge 
# Structural Database, then it will include bibliographic, chemical, 
# crystal, experimental, refinement or atomic coordinate data resulting 
# from the CCDC's data processing and validation procedures.
#
#######################################################################

data_YADJES
_chemical_formula_moiety         'C12 H13 N1 O3'
_chemical_name_systematic        Ethyl(Z)-\a-formylaminocinnamate
_symmetry_cell_setting           monoclinic
_symmetry_space_group_name_H-M   'P 1 1 21/n'
_symmetry_Int_Tables_number      14
_space_group_name_Hall           '-P 2n'
loop_
_symmetry_equiv_pos_site_id
_symmetry_equiv_pos_as_xyz
1 x,y,z
2 1/2-x,1/2-y,1/2+z
3 -x,-y,-z
4 1/2+x,1/2+y,1/2-z
_cell_length_a                   7.806(2)
_cell_length_b                   7.846(2)
_cell_length_c                   19.441(5)
_cell_angle_alpha                90
_cell_angle_beta                 90
_cell_angle_gamma                113.01(2)
_cell_volume                     1095.95
_chemical_melting_point          74-75deg.C
_cell_formula_units_Z            4
loop_
_atom_site_label
_atom_site_type_symbol
_atom_site_fract_x
_atom_site_fract_y
_atom_site_fract_z
O1 O 0.2884(4) 1.0189(4) 0.5821(1)
O2 O 0.1137(3) 0.8069(4) 0.5068(1)
O3 O -0.1503(4) 0.6556(4) 0.7417(1)
N1 N 0.0247(4) 0.9092(4) 0.6791(1)
C1 C -0.5200(6) 0.5208(7) 0.5936(2)
C2 C -0.7019(5) 0.4706(5) 0.6172(2)
C3 C -0.7421(5) 0.5759(5) 0.6672(2)
C4 C -0.6008(7) 0.7340(8) 0.6940(2)
C5 C -0.4188(5) 0.7807(5) 0.6706(2)
C6 C -0.3769(5) 0.6787(5) 0.6197(2)
C7 C -0.1919(5) 0.7297(6) 0.5887(2)
C8 C -0.0229(5) 0.8376(5) 0.6120(2)
C9 C 0.1441(5) 0.8976(6) 0.5663(2)
C10 C 0.2778(6) 0.8501(7) 0.4636(2)
C11 C 0.2163(9) 0.7530(10) 0.3960(2)
C12 C -0.0336(6) 0.8115(6) 0.7378(2)
loop_
_geom_bond_atom_site_label_1
_geom_bond_atom_site_label_2
_geom_bond_site_symmetry_1
_geom_bond_site_symmetry_2
O1 C9 1_555 1_555
O2 C9 1_555 1_555
O3 C12 1_555 1_555
N1 C8 1_555 1_555
C1 C2 1_555 1_555
C2 C3 1_555 1_555
C3 C4 1_555 1_555
C4 C5 1_555 1_555
C5 C6 1_555 1_555
C6 C1 1_555 1_555
C7 C6 1_555 1_555
C8 C7 1_555 1_555
C9 C8 1_555 1_555
C10 O2 1_555 1_555
C11 C10 1_555 1_555
C12 N1 1_555 1_555

#END
