
#######################################################################
#
#                 Cambridge Crystallographic Data Centre
#                                CCDC 
#
#######################################################################
#
# If this CIF has been generated from an entry in the Cambridge 
# Structural Database, then it will include bibliographic, chemical, 
# crystal, experimental, refinement or atomic coordinate data resulting 
# from the CCDC's data processing and validation procedures.
#
#######################################################################

data_YADJAR
_chemical_formula_moiety         'C14 H11 Cl1 O1 S1'
_chemical_name_systematic        1-chloro-4-(2-(phenylsulfinyl)vinyl)benzene
_symmetry_cell_setting           monoclinic
_symmetry_space_group_name_H-M   'C c'
_symmetry_Int_Tables_number      9
_space_group_name_Hall           'C -2yc'
loop_
_symmetry_equiv_pos_site_id
_symmetry_equiv_pos_as_xyz
1 x,y,z
2 x,-y,1/2+z
3 1/2+x,1/2+y,z
4 1/2+x,1/2-y,1/2+z
_cell_length_a                   26.557(4)
_cell_length_b                   5.7283(9)
_cell_length_c                   8.4734(14)
_cell_angle_alpha                90
_cell_angle_beta                 105.676(3)
_cell_angle_gamma                90
_cell_volume                     1241.08
_exptl_crystal_colour            colorless
_exptl_crystal_description       plate
_cell_formula_units_Z            4
loop_
_atom_site_label
_atom_site_type_symbol
_atom_site_fract_x
_atom_site_fract_y
_atom_site_fract_z
C1 C 0.38581(12) 0.4805(5) 0.3755(4)
H1 H 0.3853 0.6294 0.4245
C2 C 0.34517(12) 0.4192(5) 0.2401(4)
H2 H 0.3172 0.5242 0.1963
C3 C 0.34658(12) 0.2016(6) 0.1711(4)
C4 C 0.38799(12) 0.0491(5) 0.2298(4)
H3 H 0.3889 -0.0975 0.1782
C5 C 0.42816(12) 0.1140(5) 0.3649(4)
H4 H 0.4566 0.0105 0.406
C6 C 0.42721(11) 0.3287(5) 0.4408(4)
C7 C 0.46681(12) 0.3970(5) 0.5918(4)
H5 H 0.4647 0.5507 0.6317
C8 C 0.50525(12) 0.2617(5) 0.6771(4)
H6 H 0.5114 0.112 0.6377
C9 C 0.60749(11) 0.3008(5) 0.8351(3)
C10 C 0.63290(13) 0.0983(5) 0.9023(4)
H7 H 0.6172 -0.0064 0.9617
C11 C 0.68187(13) 0.0520(6) 0.8808(4)
H8 H 0.7 -0.0858 0.9261
C12 C 0.70457(12) 0.2059(6) 0.7937(4)
H9 H 0.7381 0.1725 0.7793
C13 C 0.67868(12) 0.4072(6) 0.7278(4)
H10 H 0.6943 0.5112 0.6674
C14 C 0.62987(12) 0.4577(5) 0.7496(4)
H11 H 0.6121 0.5974 0.7066
Cl1 Cl 0.29538(3) 0.11408(14) 0.00610(8)
O1 O 0.53738(8) 0.2023(4) 0.9945(2)
S1 S 0.54478(3) 0.36869(12) 0.86644(7)
loop_
_geom_bond_atom_site_label_1
_geom_bond_atom_site_label_2
_geom_bond_site_symmetry_1
_geom_bond_site_symmetry_2
C1 H1 1_555 1_555
C2 C1 1_555 1_555
H2 C2 1_555 1_555
C3 C2 1_555 1_555
C4 C3 1_555 1_555
H3 C4 1_555 1_555
C5 C4 1_555 1_555
H4 C5 1_555 1_555
C6 C1 1_555 1_555
C7 C6 1_555 1_555
H5 C7 1_555 1_555
C8 C7 1_555 1_555
H6 C8 1_555 1_555
C9 C10 1_555 1_555
C10 H7 1_555 1_555
C11 C10 1_555 1_555
H8 C11 1_555 1_555
C12 C11 1_555 1_555
H9 C12 1_555 1_555
C13 C12 1_555 1_555
H10 C13 1_555 1_555
C14 C9 1_555 1_555
H11 C14 1_555 1_555
Cl1 C3 1_555 1_555
O1 S1 1_555 1_555
S1 C8 1_555 1_555
C5 C6 1_555 1_555
C9 S1 1_555 1_555
C13 C14 1_555 1_555

#END
