
#######################################################################
#
#                 Cambridge Crystallographic Data Centre
#                                CCDC 
#
#######################################################################
#
# If this CIF has been generated from an entry in the Cambridge 
# Structural Database, then it will include bibliographic, chemical, 
# crystal, experimental, refinement or atomic coordinate data resulting 
# from the CCDC's data processing and validation procedures.
#
#######################################################################

data_YAFDUF
_chemical_formula_moiety         'C18 H18 N2 O4'
_chemical_name_systematic        
7,15-Dimethoxy-17,18-diazatricyclo(11.3.1.1^5,9^)octadeca-1(16),5,7,9(18),13(17),14-hexaene-3,11-dione
_symmetry_cell_setting           monoclinic
_symmetry_space_group_name_H-M   'P 21/c'
_symmetry_Int_Tables_number      14
_space_group_name_Hall           '-P 2ybc'
loop_
_symmetry_equiv_pos_site_id
_symmetry_equiv_pos_as_xyz
1 x,y,z
2 x,1/2-y,1/2+z
3 -x,-y,-z
4 -x,1/2+y,1/2-z
_cell_length_a                   9.587(1)
_cell_length_b                   8.604(1)
_cell_length_c                   9.773(1)
_cell_angle_alpha                90
_cell_angle_beta                 101.77(1)
_cell_angle_gamma                90
_cell_volume                     789.191
_exptl_crystal_colour            colorless
_exptl_crystal_description       plates
_cell_formula_units_Z            2
loop_
_atom_site_label
_atom_site_type_symbol
_atom_site_fract_x
_atom_site_fract_y
_atom_site_fract_z
O1 O 0.83534(15) -0.34525(14) 0.00217(14)
O2 O 0.58498(13) 0.03398(15) 0.25630(13)
N1 N 0.88291(13) 0.10409(14) 0.01046(12)
C1 C 0.87392(17) -0.26581(19) -0.08536(16)
C2 C 0.79448(17) -0.11634(19) -0.13583(16)
H1 H 0.8437 -0.0629 -0.1995
H2 H 0.6993 -0.1417 -0.1866
C3 C 0.78419(16) -0.01013(17) -0.01553(15)
C4 C 0.68500(16) -0.03291(19) 0.06621(17)
H3 H 0.6167 -0.1106 0.0440
C5 C 0.68775(17) 0.06078(19) 0.18193(17)
C6 C 0.79365(17) 0.17221(18) 0.21486(17)
H4 H 0.8016 0.2331 0.2947
C7 C 0.88702(16) 0.19002(17) 0.12548(15)
C8 C 0.99640(17) -0.31174(18) -0.15066(17)
H5 H 1.0348 -0.4102 -0.1118
H6 H 0.9627 -0.3256 -0.2504
C9 C 0.5841(2) 0.1296(3) 0.3750(2)
H7 H 0.5016 0.1061 0.4127
H8 H 0.5816 0.2369 0.3477
H9 H 0.6686 0.1102 0.4446
C8B C 1.00360(17) 0.31174(18) 0.15066(17)
C1B C 1.12608(17) 0.26581(19) 0.08536(16)
O1B O 1.16466(15) 0.34525(14) -0.00217(14)
C2B C 1.20552(17) 0.11634(19) 0.13583(16)
H1B H 1.1563 0.0629 0.1995
H2B H 1.3007 0.1417 0.1866
C3B C 1.21581(16) 0.01013(17) 0.01553(15)
N1B N 1.11709(13) -0.10409(14) -0.01046(12)
C7B C 1.11298(16) -0.19002(17) -0.12548(15)
C6B C 1.20635(17) -0.17221(18) -0.21486(17)
C5B C 1.31225(17) -0.06078(19) -0.18193(17)
O2B O 1.41502(13) -0.03398(15) -0.25630(13)
C9B C 1.4159(2) -0.1296(3) -0.3750(2)
H7B H 1.4984 -0.1061 -0.4127
H8B H 1.4184 -0.2369 -0.3477
H9B H 1.3314 -0.1102 -0.4446
C4B C 1.31500(16) 0.03291(19) -0.06621(17)
H3B H 1.3833 0.1106 -0.0440
H4B H 1.1984 -0.2331 -0.2947
H5B H 0.9652 0.4102 0.1118
H6B H 1.0373 0.3256 0.2504
loop_
_geom_bond_atom_site_label_1
_geom_bond_atom_site_label_2
_geom_bond_site_symmetry_1
_geom_bond_site_symmetry_2
O1 C1 1_555 1_555
O2 C5 1_555 1_555
N1 C3 1_555 1_555
C1 C2 1_555 1_555
C2 H1 1_555 1_555
H2 C2 1_555 1_555
C3 C2 1_555 1_555
C4 C3 1_555 1_555
H3 C4 1_555 1_555
C5 C4 1_555 1_555
C6 C5 1_555 1_555
H4 C6 1_555 1_555
C7 N1 1_555 1_555
C8 C1 1_555 1_555
H5 C8 1_555 1_555
H6 C8 1_555 1_555
C9 O2 1_555 1_555
H7 C9 1_555 1_555
H8 C9 1_555 1_555
H9 C9 1_555 1_555
C8B C7 1_555 1_555
C1B C8B 1_555 1_555
O1B C1B 1_555 1_555
C2B C1B 1_555 1_555
H1B C2B 1_555 1_555
H2B C2B 1_555 1_555
C3B C2B 1_555 1_555
N1B C3B 1_555 1_555
C7B C8 1_555 1_555
C6B C7B 1_555 1_555
C5B C6B 1_555 1_555
O2B C5B 1_555 1_555
C9B O2B 1_555 1_555
H7B C9B 1_555 1_555
H8B C9B 1_555 1_555
H9B C9B 1_555 1_555
C4B C3B 1_555 1_555
H3B C4B 1_555 1_555
H4B C6B 1_555 1_555
H5B C8B 1_555 1_555
H6B C8B 1_555 1_555
C6 C7 1_555 1_555
N1B C7B 1_555 1_555
C5B C4B 1_555 1_555

#END
