
#######################################################################
#
#                 Cambridge Crystallographic Data Centre
#                                CCDC 
#
#######################################################################
#
# If this CIF has been generated from an entry in the Cambridge 
# Structural Database, then it will include bibliographic, chemical, 
# crystal, experimental, refinement or atomic coordinate data resulting 
# from the CCDC's data processing and validation procedures.
#
#######################################################################

data_YAFGES
_chemical_formula_moiety         'C30 H34'
_chemical_name_systematic        (3.3)(3.3)Metacyclophane
_symmetry_cell_setting           monoclinic
_symmetry_space_group_name_H-M   'P 21/c'
_symmetry_Int_Tables_number      14
_space_group_name_Hall           '-P 2ybc'
loop_
_symmetry_equiv_pos_site_id
_symmetry_equiv_pos_as_xyz
1 x,y,z
2 x,1/2-y,1/2+z
3 -x,-y,-z
4 -x,1/2+y,1/2-z
_cell_length_a                   9.142(1)
_cell_length_b                   16.553(2)
_cell_length_c                   7.864(2)
_cell_angle_alpha                90
_cell_angle_beta                 112.87(1)
_cell_angle_gamma                90
_cell_volume                     1096.49
_exptl_crystal_colour            colorless
_exptl_crystal_description       plates
_cell_formula_units_Z            2
loop_
_atom_site_label
_atom_site_type_symbol
_atom_site_fract_x
_atom_site_fract_y
_atom_site_fract_z
C1 C 0.2043(2) 0.40753(10) 0.3744(2)
H1 H 0.1184 0.4405 0.3832
H2 H 0.2204 0.3616 0.4584
C2 C 0.1492(2) 0.37467(11) 0.1763(3)
H3 H 0.0387 0.3571 0.1379
H4 H 0.1506 0.4194 0.0953
C3 C 0.2448(2) 0.30444(10) 0.1431(3)
H5 H 0.2572 0.2625 0.2356
H6 H 0.1839 0.2811 0.0215
C4 C 0.4066(2) 0.32743(9) 0.1514(2)
C5 C 0.4224(2) 0.37856(10) 0.0184(2)
H7 H 0.3316 0.3949 -0.0829
C6 C 0.5696(2) 0.40520(10) 0.0340(2)
H8 H 0.5791 0.4382 -0.0584
C7 C 0.7035(2) 0.38354(9) 0.1850(3)
H9 H 0.8032 0.4037 0.1972
C8 C 0.6921(2) 0.33199(9) 0.3195(2)
C9 C 0.5440(2) 0.30267(9) 0.2960(2)
H10 H 0.5360 0.2646 0.3808
C10 C 0.8363(2) 0.31391(10) 0.4926(3)
H11 H 0.9218 0.2947 0.4571
H12 H 0.8101 0.2701 0.5597
C11 C 0.8972(2) 0.38632(11) 0.6228(3)
H13 H 0.9114 0.4318 0.5509
H14 H 1.0022 0.3725 0.7155
C12 C 0.7929(2) 0.41482(10) 0.7241(2)
H15 H 0.7620 0.3673 0.7766
H16 H 0.8579 0.4491 0.8275
C13 C 0.64347(18) 0.46110(9) 0.6113(2)
C14 C 0.49700(19) 0.42267(9) 0.5536(2)
H17 H 0.4945 0.3693 0.5934
C15 C 0.35428(18) 0.45770(9) 0.4414(2)
C13B C 0.35653(18) 0.53890(9) 0.3887(2)
C12B C 0.2071(2) 0.58518(10) 0.2759(2)
C11B C 0.1028(2) 0.61368(11) 0.3772(3)
C10B C 0.1637(2) 0.68609(10) 0.5074(3)
C8B C 0.3079(2) 0.66801(9) 0.6805(2)
C7B C 0.2965(2) 0.61646(9) 0.8150(3)
C6B C 0.4304(2) 0.59480(10) 0.9660(2)
C5B C 0.5776(2) 0.62144(10) 0.9816(2)
C4B C 0.5934(2) 0.67257(9) 0.8486(2)
C3B C 0.7552(2) 0.69556(10) 0.8569(3)
C2B C 0.8508(2) 0.62533(11) 0.8237(3)
C1B C 0.7957(2) 0.59247(10) 0.6256(2)
H1B H 0.8816 0.5595 0.6168
H2B H 0.7796 0.6384 0.5416
C15B C 0.64572(18) 0.54230(9) 0.5586(2)
C14B C 0.50300(19) 0.57733(9) 0.4464(2)
H17B H 0.5055 0.6307 0.4066
H3B H 0.9613 0.6429 0.8621
H4B H 0.8494 0.5806 0.9047
H5B H 0.7428 0.7375 0.7644
H6B H 0.8161 0.7189 0.9785
C9B C 0.4560(2) 0.69733(9) 0.7040(2)
H10B H 0.4640 0.7354 0.6192
H7B H 0.6684 0.6051 1.0829
H8B H 0.4209 0.5618 1.0584
H9B H 0.1968 0.5963 0.8028
H11B H 0.0782 0.7053 0.5429
H12B H 0.1899 0.7299 0.4403
H13B H 0.0886 0.5682 0.4491
H14B H -0.0022 0.6275 0.2845
H15B H 0.2380 0.6327 0.2234
H16B H 0.1421 0.5509 0.1725
loop_
_geom_bond_atom_site_label_1
_geom_bond_atom_site_label_2
_geom_bond_site_symmetry_1
_geom_bond_site_symmetry_2
C1 H1 1_555 1_555
H2 C1 1_555 1_555
C2 C1 1_555 1_555
H3 C2 1_555 1_555
H4 C2 1_555 1_555
C3 C2 1_555 1_555
H5 C3 1_555 1_555
H6 C3 1_555 1_555
C4 C3 1_555 1_555
C5 C4 1_555 1_555
H7 C5 1_555 1_555
C6 C5 1_555 1_555
H8 C6 1_555 1_555
C7 C6 1_555 1_555
H9 C7 1_555 1_555
C8 C7 1_555 1_555
C9 C4 1_555 1_555
H10 C9 1_555 1_555
C10 C8 1_555 1_555
H11 C10 1_555 1_555
H12 C10 1_555 1_555
C11 C10 1_555 1_555
H13 C11 1_555 1_555
H14 C11 1_555 1_555
C12 C11 1_555 1_555
H15 C12 1_555 1_555
H16 C12 1_555 1_555
C13 C12 1_555 1_555
C14 C13 1_555 1_555
H17 C14 1_555 1_555
C15 C1 1_555 1_555
C13B C15 1_555 1_555
C12B C13B 1_555 1_555
C11B C12B 1_555 1_555
C10B C11B 1_555 1_555
C8B C10B 1_555 1_555
C7B C8B 1_555 1_555
C6B C7B 1_555 1_555
C5B C6B 1_555 1_555
C4B C5B 1_555 1_555
C3B C4B 1_555 1_555
C2B C3B 1_555 1_555
C1B C2B 1_555 1_555
H1B C1B 1_555 1_555
H2B C1B 1_555 1_555
C15B C13 1_555 1_555
C14B C13B 1_555 1_555
H17B C14B 1_555 1_555
H3B C2B 1_555 1_555
H4B C2B 1_555 1_555
H5B C3B 1_555 1_555
H6B C3B 1_555 1_555
C9B C8B 1_555 1_555
H10B C9B 1_555 1_555
H7B C5B 1_555 1_555
H8B C6B 1_555 1_555
H9B C7B 1_555 1_555
H11B C10B 1_555 1_555
H12B C10B 1_555 1_555
H13B C11B 1_555 1_555
H14B C11B 1_555 1_555
H15B C12B 1_555 1_555
H16B C12B 1_555 1_555
C8 C9 1_555 1_555
C14 C15 1_555 1_555
C4B C9B 1_555 1_555
C1B C15B 1_555 1_555
C15B C14B 1_555 1_555

#END
