
#######################################################################
#
#                 Cambridge Crystallographic Data Centre
#                                CCDC 
#
#######################################################################
#
# If this CIF has been generated from an entry in the Cambridge 
# Structural Database, then it will include bibliographic, chemical, 
# crystal, experimental, refinement or atomic coordinate data resulting 
# from the CCDC's data processing and validation procedures.
#
#######################################################################

data_YAFPEB
_chemical_formula_moiety         'C14 H12 O2 S1'
_chemical_name_systematic        '5,7-Dihydrodibenzo(c,e)thiepine 6,6-dioxide'
_symmetry_cell_setting           monoclinic
_symmetry_space_group_name_H-M   'P 21/c'
_symmetry_Int_Tables_number      14
_space_group_name_Hall           '-P 2ybc'
loop_
_symmetry_equiv_pos_site_id
_symmetry_equiv_pos_as_xyz
1 x,y,z
2 x,1/2-y,1/2+z
3 -x,-y,-z
4 -x,1/2+y,1/2-z
_cell_length_a                   10.269(1)
_cell_length_b                   13.743(1)
_cell_length_c                   8.516(1)
_cell_angle_alpha                90
_cell_angle_beta                 102.33(1)
_cell_angle_gamma                90
_cell_volume                     1174.11
_exptl_crystal_colour            colorless
_exptl_crystal_description       plates
_cell_formula_units_Z            4
loop_
_atom_site_label
_atom_site_type_symbol
_atom_site_fract_x
_atom_site_fract_y
_atom_site_fract_z
S1 S 0.22591(8) 0.50439(5) 0.11450(8)
O1 O 0.1344(3) 0.58312(17) 0.1188(3)
O2 O 0.2754(3) 0.4914(2) -0.0299(3)
C1 C 0.3643(3) 0.5186(2) 0.2805(4)
H1 H 0.4248 0.5666 0.2525
H2 H 0.3321 0.5434 0.3719
C2 C 0.4395(3) 0.4265(2) 0.3284(3)
C3 C 0.5645(3) 0.4107(3) 0.2926(4)
H3 H 0.5991 0.4563 0.2321
C4 C 0.6371(3) 0.3281(3) 0.3461(4)
H4 H 0.7195 0.3182 0.3199
C5 C 0.5880(3) 0.2602(3) 0.4384(4)
H5 H 0.6382 0.2056 0.4772
C6 C 0.4638(3) 0.2741(2) 0.4725(4)
H6 H 0.4304 0.2281 0.5337
C7 C 0.3876(3) 0.35550(19) 0.4172(3)
C8 C 0.2516(3) 0.36618(18) 0.4507(3)
C9 C 0.2343(3) 0.3562(2) 0.6086(3)
H7 H 0.3079 0.3465 0.6920
C10 C 0.1075(3) 0.3609(2) 0.6415(4)
H8 H 0.0968 0.3539 0.7467
C11 C -0.0012(3) 0.3755(3) 0.5205(4)
H9 H -0.0858 0.3777 0.5431
C12 C 0.0142(3) 0.3873(2) 0.3638(4)
H10 H -0.0603 0.3984 0.2821
C13 C 0.1398(3) 0.38267(19) 0.3275(3)
C14 C 0.1531(3) 0.3923(2) 0.1557(3)
H11 H 0.0654 0.3865 0.0859
H12 H 0.2073 0.3391 0.1306
loop_
_geom_bond_atom_site_label_1
_geom_bond_atom_site_label_2
_geom_bond_site_symmetry_1
_geom_bond_site_symmetry_2
S1 O1 1_555 1_555
O2 S1 1_555 1_555
C1 S1 1_555 1_555
H1 C1 1_555 1_555
H2 C1 1_555 1_555
C2 C1 1_555 1_555
C3 C2 1_555 1_555
H3 C3 1_555 1_555
C4 C3 1_555 1_555
H4 C4 1_555 1_555
C5 C4 1_555 1_555
H5 C5 1_555 1_555
C6 C5 1_555 1_555
H6 C6 1_555 1_555
C7 C2 1_555 1_555
C8 C7 1_555 1_555
C9 C8 1_555 1_555
H7 C9 1_555 1_555
C10 C9 1_555 1_555
H8 C10 1_555 1_555
C11 C10 1_555 1_555
H9 C11 1_555 1_555
C12 C11 1_555 1_555
H10 C12 1_555 1_555
C13 C8 1_555 1_555
C14 S1 1_555 1_555
H11 C14 1_555 1_555
H12 C14 1_555 1_555
C6 C7 1_555 1_555
C12 C13 1_555 1_555
C13 C14 1_555 1_555

#END
