
#######################################################################
#
#                 Cambridge Crystallographic Data Centre
#                                CCDC 
#
#######################################################################
#
# If this CIF has been generated from an entry in the Cambridge 
# Structural Database, then it will include bibliographic, chemical, 
# crystal, experimental, refinement or atomic coordinate data resulting 
# from the CCDC's data processing and validation procedures.
#
#######################################################################

data_YAFRAB
_chemical_formula_moiety         'C16 H20 O2'
_chemical_name_systematic        
1,3-dimethyl-3-(4-methylphenyl)-2-oxocyclohexanecarbaldehyde
_symmetry_cell_setting           orthorhombic
_symmetry_space_group_name_H-M   'P 21 21 21'
_symmetry_Int_Tables_number      19
_space_group_name_Hall           'P 2ac 2ab'
loop_
_symmetry_equiv_pos_site_id
_symmetry_equiv_pos_as_xyz
1 x,y,z
2 1/2-x,-y,1/2+z
3 -x,1/2+y,1/2-z
4 1/2+x,1/2-y,-z
_cell_length_a                   7.8436(4)
_cell_length_b                   11.1049(6)
_cell_length_c                   15.6957(8)
_cell_angle_alpha                90
_cell_angle_beta                 90
_cell_angle_gamma                90
_cell_volume                     1367.13
_exptl_crystal_colour            colorless
_exptl_crystal_description       block
_cell_formula_units_Z            4
loop_
_atom_site_label
_atom_site_type_symbol
_atom_site_fract_x
_atom_site_fract_y
_atom_site_fract_z
O1 O 0.1103(3) 0.3241(2) 0.62016(13)
O2 O 0.4808(4) 0.3860(2) 0.51134(15)
C1 C 0.2015(3) 0.2437(2) 0.64569(15)
C2 C 0.3848(3) 0.2352(2) 0.61117(15)
C3 C 0.4304(4) 0.1042(3) 0.58997(17)
H1 H 0.3644 0.0781 0.5403
H2 H 0.5516 0.0992 0.5753
C4 C 0.3935(4) 0.0204(3) 0.66455(18)
H3 H 0.4236 -0.0623 0.6490
H4 H 0.4631 0.0439 0.7137
C5 C 0.2055(4) 0.0266(2) 0.68822(17)
H5 H 0.1848 -0.0284 0.7359
H6 H 0.1380 -0.0019 0.6397
C6 C 0.1424(3) 0.1530(2) 0.71331(16)
C7 C 0.3880(4) 0.3053(3) 0.52803(16)
H7 H 0.3090 0.2825 0.4860
C8 C 0.5094(3) 0.2928(3) 0.67395(19)
H8 H 0.6233 0.2922 0.6498
H9 H 0.5091 0.2476 0.7268
H10 H 0.4750 0.3752 0.6851
C9 C 0.2055(3) 0.1979(2) 0.80080(14)
C10 C 0.1783(3) 0.3165(2) 0.82387(16)
H11 H 0.1339 0.3702 0.7832
C11 C 0.2142(3) 0.3586(3) 0.90484(17)
H12 H 0.1932 0.4397 0.9184
C12 C 0.2815(3) 0.2812(3) 0.96670(17)
C13 C 0.3143(4) 0.1646(3) 0.94334(18)
H13 H 0.3637 0.1121 0.9833
C14 C 0.2765(4) 0.1211(3) 0.86164(16)
H14 H 0.2989 0.0403 0.8478
C15 C 0.3148(5) 0.3273(4) 1.0555(2)
H15 H 0.2081 0.3323 1.0865
H16 H 0.3663 0.4066 1.0524
H17 H 0.3915 0.2727 1.0848
C16 C -0.0540(3) 0.1523(3) 0.71635(18)
H18 H -0.0948 0.2316 0.7323
H19 H -0.0922 0.0936 0.7580
H20 H -0.0985 0.1311 0.6607
loop_
_geom_bond_atom_site_label_1
_geom_bond_atom_site_label_2
_geom_bond_site_symmetry_1
_geom_bond_site_symmetry_2
O1 C1 1_555 1_555
O2 C7 1_555 1_555
C1 C2 1_555 1_555
C2 C3 1_555 1_555
C3 H1 1_555 1_555
H2 C3 1_555 1_555
C4 C3 1_555 1_555
H3 C4 1_555 1_555
H4 C4 1_555 1_555
C5 C4 1_555 1_555
H5 C5 1_555 1_555
H6 C5 1_555 1_555
C6 C1 1_555 1_555
C7 C2 1_555 1_555
H7 C7 1_555 1_555
C8 C2 1_555 1_555
H8 C8 1_555 1_555
H9 C8 1_555 1_555
H10 C8 1_555 1_555
C9 C6 1_555 1_555
C10 C9 1_555 1_555
H11 C10 1_555 1_555
C11 C10 1_555 1_555
H12 C11 1_555 1_555
C12 C11 1_555 1_555
C13 C12 1_555 1_555
H13 C13 1_555 1_555
C14 C9 1_555 1_555
H14 C14 1_555 1_555
C15 C12 1_555 1_555
H15 C15 1_555 1_555
H16 C15 1_555 1_555
H17 C15 1_555 1_555
C16 C6 1_555 1_555
H18 C16 1_555 1_555
H19 C16 1_555 1_555
H20 C16 1_555 1_555
C5 C6 1_555 1_555
C13 C14 1_555 1_555

#END
