
#######################################################################
#
#                 Cambridge Crystallographic Data Centre
#                                CCDC 
#
#######################################################################
#
# If this CIF has been generated from an entry in the Cambridge 
# Structural Database, then it will include bibliographic, chemical, 
# crystal, experimental, refinement or atomic coordinate data resulting 
# from the CCDC's data processing and validation procedures.
#
#######################################################################

data_YAFTIL02
_chemical_formula_moiety         'C16 H36 N1 1+,C1 Cl9 Si3 1-'
_chemical_name_systematic        
'tetra-n-butylammonium tris(trichlorosilyl)methanide'
_symmetry_cell_setting           cubic
_symmetry_space_group_name_H-M   'P -4 3 n'
_symmetry_Int_Tables_number      218
_space_group_name_Hall           'P -4n 2 3'
loop_
_symmetry_equiv_pos_site_id
_symmetry_equiv_pos_as_xyz
1 x,y,z
2 -x,-y,z
3 -x,y,-z
4 x,-y,-z
5 z,x,y
6 z,-x,-y
7 -z,-x,y
8 -z,x,-y
9 y,z,x
10 -y,z,-x
11 y,-z,-x
12 -y,-z,x
13 1/2+y,1/2+x,1/2+z
14 1/2-y,1/2-x,1/2+z
15 1/2+y,1/2-x,1/2-z
16 1/2-y,1/2+x,1/2-z
17 1/2+x,1/2+z,1/2+y
18 1/2-x,1/2+z,1/2-y
19 1/2-x,1/2-z,1/2+y
20 1/2+x,1/2-z,1/2-y
21 1/2+z,1/2+y,1/2+x
22 1/2+z,1/2-y,1/2-x
23 1/2-z,1/2+y,1/2-x
24 1/2-z,1/2-y,1/2+x
_cell_length_a                   18.5044(8)
_cell_length_b                   18.5044(8)
_cell_length_c                   18.5044(8)
_cell_angle_alpha                90
_cell_angle_beta                 90
_cell_angle_gamma                90
_cell_volume                     6336.14
_exptl_crystal_colour            colorless
_exptl_crystal_description       block
_cell_formula_units_Z            8
loop_
_atom_site_label
_atom_site_type_symbol
_atom_site_fract_x
_atom_site_fract_y
_atom_site_fract_z
C1 C 0.1729(2) 0.1729(2) 0.8271(2)
Si1 Si 0.25075(7) 0.16062(7) 0.88110(7)
Cl1 Cl 0.25571(7) 0.23423(7) 0.96419(7)
Cl2 Cl 0.26059(8) 0.06247(7) 0.93124(7)
Cl3 Cl 0.34761(7) 0.17243(8) 0.82719(8)
Si1G Si 0.11890(7) 0.25075(7) 0.83938(7)
Cl1G Cl 0.03581(7) 0.25571(7) 0.76577(7)
Cl2G Cl 0.06876(7) 0.26059(8) 0.93753(7)
Cl3G Cl 0.17281(8) 0.34761(7) 0.82757(8)
Si1J Si 0.16062(7) 0.11890(7) 0.74925(7)
Cl1J Cl 0.23423(7) 0.03581(7) 0.74429(7)
Cl2J Cl 0.06247(7) 0.06876(7) 0.73941(8)
Cl3J Cl 0.17243(8) 0.17281(8) 0.65239(7)
N1 N 0.5000 0.2500 1.0000
C2 C 0.5616(2) 0.2031(2) 0.9721(2)
H1 H 0.5985 0.2353 0.9507
H2 H 0.5841 0.1787 1.0141
C3 C 0.5426(2) 0.1459(3) 0.9167(2)
H3 H 0.5111 0.1089 0.9391
H4 H 0.5157 0.1683 0.8762
C4 C 0.6106(3) 0.1105(3) 0.8882(3)
H5 H 0.6414 0.1478 0.8653
H6 H 0.6379 0.0896 0.9291
C5 C 0.5949(3) 0.0520(3) 0.8339(3)
H7 H 0.6404 0.0295 0.8186
H8 H 0.5705 0.0729 0.7919
H9 H 0.5638 0.0153 0.8561
C2B C 0.4384(2) 0.2031(2) 1.0279(2)
H1B H 0.4015 0.2353 1.0493
H2B H 0.4159 0.1787 0.9859
C3B C 0.4574(2) 0.1459(3) 1.0833(2)
H3B H 0.4889 0.1089 1.0609
H4B H 0.4843 0.1683 1.1238
C4B C 0.3894(3) 0.1105(3) 1.1118(3)
H5B H 0.3586 0.1478 1.1347
H6B H 0.3621 0.0896 1.0709
C5B C 0.4051(3) 0.0520(3) 1.1661(3)
H7B H 0.3596 0.0295 1.1814
H8B H 0.4295 0.0729 1.2081
H9B H 0.4362 0.0153 1.1439
C2U C 0.4721(2) 0.2969(2) 0.9384(2)
H1U H 0.4507 0.2647 0.9015
H2U H 0.5141 0.3213 0.9159
C3U C 0.4167(2) 0.3541(3) 0.9574(2)
H3U H 0.4391 0.3911 0.9889
H4U H 0.3762 0.3317 0.9843
C4U C 0.3882(3) 0.3895(3) 0.8894(3)
H5U H 0.3653 0.3522 0.8586
H6U H 0.4291 0.4104 0.8621
C5U C 0.3339(3) 0.4480(3) 0.9051(3)
H7U H 0.3186 0.4705 0.8596
H8U H 0.2919 0.4271 0.9295
H9U H 0.3561 0.4847 0.9362
C2W C 0.5279(2) 0.2969(2) 1.0616(2)
H1W H 0.5493 0.2647 1.0985
H2W H 0.4859 0.3213 1.0841
C3W C 0.5833(2) 0.3541(3) 1.0426(2)
H3W H 0.5609 0.3911 1.0111
H4W H 0.6238 0.3317 1.0157
C4W C 0.6118(3) 0.3895(3) 1.1106(3)
H5W H 0.6347 0.3522 1.1414
H6W H 0.5709 0.4104 1.1379
C5W C 0.6661(3) 0.4480(3) 1.0949(3)
H7W H 0.6814 0.4705 1.1404
H8W H 0.7081 0.4271 1.0705
H9W H 0.6439 0.4847 1.0638
N2? N 1.0000 0.0000 1.0000
C6? C 0.9426(18) 0.0152(10) 0.9436(19)
H10? H 0.8988 -0.0110 0.9595
H11? H 0.9599 -0.0098 0.8996
C7? C 0.9204(6) 0.0796(6) 0.9204(6)
H12? H 0.9640 0.1044 0.9010
H13? H 0.9072 0.1061 0.9648
C8? C 0.865(3) 0.0973(11) 0.867(3)
H14? H 0.8211 0.0759 0.8891
H15? H 0.8760 0.0665 0.8247
C9? C 0.8398(7) 0.1602(7) 0.8398(7)
H16? H 0.8269 0.1954 0.8772
H17? H 0.8789 0.1801 0.8098
H18? H 0.7976 0.1507 0.8092
loop_
_geom_bond_atom_site_label_1
_geom_bond_atom_site_label_2
_geom_bond_site_symmetry_1
_geom_bond_site_symmetry_2
C1 Si1 1_555 1_555
Si1 Cl1 1_555 1_555
Cl2 Si1 1_555 1_555
Cl3 Si1 1_555 1_555
N1 C2 1_555 1_555
C2 H1 1_555 1_555
H2 C2 1_555 1_555
C3 C2 1_555 1_555
H3 C3 1_555 1_555
H4 C3 1_555 1_555
C4 C3 1_555 1_555
H5 C4 1_555 1_555
H6 C4 1_555 1_555
C5 C4 1_555 1_555
H7 C5 1_555 1_555
H8 C5 1_555 1_555
H9 C5 1_555 1_555
Si1G C1 1_555 1_555
Cl1G Si1G 1_555 1_555
Cl2G Si1G 1_555 1_555
Cl3G Si1G 1_555 1_555
Si1J C1 1_555 1_555
Cl1J Si1J 1_555 1_555
Cl2J Si1J 1_555 1_555
Cl3J Si1J 1_555 1_555
C2B N1 1_555 1_555
H1B C2B 1_555 1_555
H2B C2B 1_555 1_555
C3B C2B 1_555 1_555
H3B C3B 1_555 1_555
H4B C3B 1_555 1_555
C4B C3B 1_555 1_555
H5B C4B 1_555 1_555
H6B C4B 1_555 1_555
C5B C4B 1_555 1_555
H7B C5B 1_555 1_555
H8B C5B 1_555 1_555
H9B C5B 1_555 1_555
C2U N1 1_555 1_555
H1U C2U 1_555 1_555
H2U C2U 1_555 1_555
C3U C2U 1_555 1_555
H3U C3U 1_555 1_555
H4U C3U 1_555 1_555
C4U C3U 1_555 1_555
H5U C4U 1_555 1_555
H6U C4U 1_555 1_555
C5U C4U 1_555 1_555
H7U C5U 1_555 1_555
H8U C5U 1_555 1_555
H9U C5U 1_555 1_555
C2W N1 1_555 1_555
H1W C2W 1_555 1_555
H2W C2W 1_555 1_555
C3W C2W 1_555 1_555
H3W C3W 1_555 1_555
H4W C3W 1_555 1_555
C4W C3W 1_555 1_555
H5W C4W 1_555 1_555
H6W C4W 1_555 1_555
C5W C4W 1_555 1_555
H7W C5W 1_555 1_555
H8W C5W 1_555 1_555
H9W C5W 1_555 1_555

#END
