
#######################################################################
#
#                 Cambridge Crystallographic Data Centre
#                                CCDC 
#
#######################################################################
#
# If this CIF has been generated from an entry in the Cambridge 
# Structural Database, then it will include bibliographic, chemical, 
# crystal, experimental, refinement or atomic coordinate data resulting 
# from the CCDC's data processing and validation procedures.
#
#######################################################################

data_YAFXAE
_chemical_formula_moiety         'C7 H7 Br1 N2 S1'
_chemical_name_systematic        N-(p-Bromophenyl)thiourea
_symmetry_cell_setting           monoclinic
_symmetry_space_group_name_H-M   'P 21/c'
_symmetry_Int_Tables_number      14
_space_group_name_Hall           '-P 2ybc'
loop_
_symmetry_equiv_pos_site_id
_symmetry_equiv_pos_as_xyz
1 x,y,z
2 -x,1/2+y,1/2-z
3 -x,-y,-z
4 x,1/2-y,1/2+z
_cell_length_a                   9.096(6)
_cell_length_b                   8.991(4)
_cell_length_c                   10.659(8)
_cell_angle_alpha                90
_cell_angle_beta                 105.59(6)
_cell_angle_gamma                90
_cell_volume                     839.645
_cell_formula_units_Z            4
loop_
_atom_site_label
_atom_site_type_symbol
_atom_site_fract_x
_atom_site_fract_y
_atom_site_fract_z
Br1 Br 0.1746(1) 0.4115(1) 0.38245(8)
S1 S -0.5384(2) 0.2883(2) -0.3201(2)
N1 N -0.3929(8) 0.1580(7) -0.1010(6)
N2 N -0.3492(6) 0.4079(8) -0.1104(6)
C1 C -0.4202(8) 0.2839(8) -0.1688(7)
C2 C -0.2279(7) 0.4043(9) 0.0059(6)
C3 C -0.0918(8) 0.3341(8) 0.0096(7)
C4 C 0.0266(9) 0.3372(9) 0.1232(8)
C5 C 0.0090(7) 0.4110(9) 0.2289(5)
C6 C -0.124(1) 0.481(1) 0.2290(8)
C7 C -0.2420(9) 0.479(1) 0.1161(8)
loop_
_geom_bond_atom_site_label_1
_geom_bond_atom_site_label_2
_geom_bond_site_symmetry_1
_geom_bond_site_symmetry_2
Br1 C5 1_555 1_555
S1 C1 1_555 1_555
N1 C1 1_555 1_555
N2 C1 1_555 1_555
C2 N2 1_555 1_555
C3 C2 1_555 1_555
C4 C3 1_555 1_555
C5 C4 1_555 1_555
C6 C5 1_555 1_555
C7 C2 1_555 1_555
C6 C7 1_555 1_555

#END
