
#######################################################################
#
#                 Cambridge Crystallographic Data Centre
#                                CCDC 
#
#######################################################################
#
# If this CIF has been generated from an entry in the Cambridge 
# Structural Database, then it will include bibliographic, chemical, 
# crystal, experimental, refinement or atomic coordinate data resulting 
# from the CCDC's data processing and validation procedures.
#
#######################################################################

data_YAGLIC
_chemical_formula_moiety         'C18 H18 N2 O4'
_chemical_name_systematic        1,4-bis(4-Methoxyphenyl)piperazine-2,5-dione
_symmetry_cell_setting           monoclinic
_symmetry_space_group_name_H-M   'P 21/c'
_symmetry_Int_Tables_number      14
_space_group_name_Hall           '-P 2ybc'
loop_
_symmetry_equiv_pos_site_id
_symmetry_equiv_pos_as_xyz
1 x,y,z
2 x,1/2-y,1/2+z
3 -x,-y,-z
4 -x,1/2+y,1/2-z
_cell_length_a                   16.9231(17)
_cell_length_b                   5.8166(6)
_cell_length_c                   8.0580(8)
_cell_angle_alpha                90
_cell_angle_beta                 92.687(2)
_cell_angle_gamma                90
_cell_volume                     792.316
_exptl_crystal_colour            colorless
_exptl_crystal_description       column
_cell_formula_units_Z            2
_exptl_crystal_recrystallization_method chloroform-ethanol
loop_
_atom_site_label
_atom_site_type_symbol
_atom_site_fract_x
_atom_site_fract_y
_atom_site_fract_z
O1 O 0.91274(6) 0.0420(2) 0.59156(18)
O2 O 0.57510(6) -0.32730(17) 0.67867(14)
N1 N 0.58278(6) 0.00831(18) 0.53827(14)
C1 C 0.95255(12) 0.2387(4) 0.6576(4)
H1 H 1.0084(14) 0.206(4) 0.650(3)
H2 H 0.9340(12) 0.385(4) 0.591(3)
H3 H 0.9410(14) 0.268(4) 0.772(4)
C2 C 0.83149(8) 0.0451(3) 0.5847(2)
C3 C 0.79465(9) -0.1439(3) 0.5095(2)
H4 H 0.8273(10) -0.268(3) 0.466(2)
C4 C 0.71347(9) -0.1567(3) 0.4950(2)
H5 H 0.6873(9) -0.286(3) 0.439(2)
C5 C 0.66774(8) 0.0189(2) 0.55692(16)
C6 C 0.70421(9) 0.2080(3) 0.62934(19)
H6 H 0.6719(10) 0.332(3) 0.668(2)
C7 C 0.78627(9) 0.2220(3) 0.6440(2)
H7 H 0.8099(10) 0.355(3) 0.693(2)
C8 C 0.54371(8) 0.1941(2) 0.44506(19)
H8 H 0.5690(10) 0.213(3) 0.340(2)
C9 C 0.54327(8) -0.1734(2) 0.59541(16)
H9 H 0.5512(9) 0.338(3) 0.506(2)
C9B C 0.45673(8) 0.1734(2) 0.40459(16)
O2B O 0.42490(6) 0.32730(17) 0.32133(14)
N1B N 0.41722(6) -0.00831(18) 0.46173(14)
C5B C 0.33226(8) -0.0189(2) 0.44308(16)
C4B C 0.28653(9) 0.1567(3) 0.5050(2)
C3B C 0.20535(9) 0.1439(3) 0.4905(2)
C2B C 0.16851(8) -0.0451(3) 0.4153(2)
O1B O 0.08726(6) -0.0420(2) 0.40844(18)
C1B C 0.04745(12) -0.2387(4) 0.3424(4)
H1B H -0.0084(14) -0.206(4) 0.350(3)
H2B H 0.0660(12) -0.385(4) 0.409(3)
H3B H 0.0590(14) -0.268(4) 0.228(4)
C7B C 0.21373(9) -0.2220(3) 0.3560(2)
C6B C 0.29579(9) -0.2080(3) 0.37066(19)
H6B H 0.3281(10) -0.332(3) 0.332(2)
H7B H 0.1901(10) -0.355(3) 0.307(2)
H4B H 0.1727(10) 0.268(3) 0.534(2)
H5B H 0.3127(9) 0.286(3) 0.561(2)
C8B C 0.45629(8) -0.1941(2) 0.55494(19)
H8B H 0.4310(10) -0.213(3) 0.660(2)
H9B H 0.4488(9) -0.338(3) 0.494(2)
loop_
_geom_bond_atom_site_label_1
_geom_bond_atom_site_label_2
_geom_bond_site_symmetry_1
_geom_bond_site_symmetry_2
O1 C1 1_555 1_555
O2 C9 1_555 1_555
N1 C5 1_555 1_555
C1 H1 1_555 1_555
H2 C1 1_555 1_555
H3 C1 1_555 1_555
C2 O1 1_555 1_555
C3 C2 1_555 1_555
H4 C3 1_555 1_555
C4 C3 1_555 1_555
H5 C4 1_555 1_555
C5 C4 1_555 1_555
C6 C5 1_555 1_555
H6 C6 1_555 1_555
C7 C2 1_555 1_555
H7 C7 1_555 1_555
C8 N1 1_555 1_555
H8 C8 1_555 1_555
C9 N1 1_555 1_555
H9 C8 1_555 1_555
C9B C8 1_555 1_555
O2B C9B 1_555 1_555
N1B C9B 1_555 1_555
C5B N1B 1_555 1_555
C4B C5B 1_555 1_555
C3B C4B 1_555 1_555
C2B C3B 1_555 1_555
O1B C2B 1_555 1_555
C1B O1B 1_555 1_555
H1B C1B 1_555 1_555
H2B C1B 1_555 1_555
H3B C1B 1_555 1_555
C7B C2B 1_555 1_555
C6B C5B 1_555 1_555
H6B C6B 1_555 1_555
H7B C7B 1_555 1_555
H4B C3B 1_555 1_555
H5B C4B 1_555 1_555
C8B C9 1_555 1_555
H8B C8B 1_555 1_555
H9B C8B 1_555 1_555
C6 C7 1_555 1_555
N1B C8B 1_555 1_555
C7B C6B 1_555 1_555

#END
