
#######################################################################
#
#                 Cambridge Crystallographic Data Centre
#                                CCDC 
#
#######################################################################
#
# If this CIF has been generated from an entry in the Cambridge 
# Structural Database, then it will include bibliographic, chemical, 
# crystal, experimental, refinement or atomic coordinate data resulting 
# from the CCDC's data processing and validation procedures.
#
#######################################################################

data_YAGNEB
_chemical_formula_moiety         'C7 H7 O3 S1 1-,C6 H7 F1 N1 1+'
_chemical_name_systematic        '3-Fluoroanilinium 4-methylbenzenesulfonate'
_symmetry_cell_setting           monoclinic
_symmetry_space_group_name_H-M   'P 21/n'
_symmetry_Int_Tables_number      14
_space_group_name_Hall           '-P 2yn'
loop_
_symmetry_equiv_pos_site_id
_symmetry_equiv_pos_as_xyz
1 x,y,z
2 1/2-x,1/2+y,1/2-z
3 -x,-y,-z
4 1/2+x,1/2-y,1/2+z
_cell_length_a                   14.5385(7)
_cell_length_b                   6.4939(3)
_cell_length_c                   14.5522(7)
_cell_angle_alpha                90
_cell_angle_beta                 91.429(4)
_cell_angle_gamma                90
_cell_volume                     1373.47
_exptl_crystal_colour            colorless
_exptl_crystal_description       rod
_cell_formula_units_Z            4
loop_
_atom_site_label
_atom_site_type_symbol
_atom_site_fract_x
_atom_site_fract_y
_atom_site_fract_z
S1 S 0.84338(3) 0.25122(6) 0.46398(3)
O1 O 0.79440(10) 0.0607(2) 0.48237(9)
O2 O 0.79079(9) 0.4330(2) 0.48854(9)
O3 O 0.93526(10) 0.2539(2) 0.50709(9)
C1 C 0.85900(13) 0.2623(3) 0.34404(12)
C2 C 0.83246(14) 0.1018(4) 0.28787(14)
H4 H 0.8042 -0.0165 0.3132
C3 C 0.84700(15) 0.1129(4) 0.19455(15)
H5 H 0.8291 0.0007 0.1562
C4 C 0.88712(14) 0.2840(4) 0.15601(14)
C5 C 0.91260(15) 0.4458(4) 0.21321(15)
H6 H 0.9398 0.5652 0.1876
C6 C 0.89915(14) 0.4368(3) 0.30711(14)
H7 H 0.9172 0.5485 0.3457
C7 C 0.90233(19) 0.2933(5) 0.05369(16)
H8 H 0.8498 0.2305 0.0208
H9 H 0.9586 0.2180 0.0393
H10 H 0.9084 0.4372 0.0346
F1 F 0.93374(13) 1.1392(2) 0.84280(10)
N1 N 0.88997(11) 0.7501(2) 0.56685(11)
H1 H 0.8610 0.6332 0.5475
H2 H 0.9504 0.7439 0.5524
H3 H 0.8634 0.8611 0.5387
C8 C 0.90357(16) 0.9645(3) 0.80119(15)
C9 C 0.91293(14) 0.9489(3) 0.70742(13)
H11 H 0.9395 1.0566 0.6727
C10 C 0.88200(13) 0.7699(3) 0.66649(13)
C11 C 0.84357(14) 0.6132(3) 0.71594(14)
H12 H 0.8232 0.4906 0.6862
C12 C 0.83496(15) 0.6368(4) 0.81015(15)
H13 H 0.8081 0.5297 0.8450
C13 C 0.86476(15) 0.8130(4) 0.85343(14)
H14 H 0.8587 0.8299 0.9178
loop_
_geom_bond_atom_site_label_1
_geom_bond_atom_site_label_2
_geom_bond_site_symmetry_1
_geom_bond_site_symmetry_2
S1 O1 1_555 1_555
F1 C8 1_555 1_555
O2 S1 1_555 1_555
O3 S1 1_555 1_555
N1 H1 1_555 1_555
H2 N1 1_555 1_555
H3 N1 1_555 1_555
C1 S1 1_555 1_555
C2 C1 1_555 1_555
H4 C2 1_555 1_555
C3 C2 1_555 1_555
H5 C3 1_555 1_555
C4 C3 1_555 1_555
C5 C4 1_555 1_555
H6 C5 1_555 1_555
C6 C1 1_555 1_555
H7 C6 1_555 1_555
C7 C4 1_555 1_555
H8 C7 1_555 1_555
H9 C7 1_555 1_555
H10 C7 1_555 1_555
C8 C9 1_555 1_555
C9 H11 1_555 1_555
C10 N1 1_555 1_555
C11 C10 1_555 1_555
H12 C11 1_555 1_555
C12 C11 1_555 1_555
H13 C12 1_555 1_555
C13 C8 1_555 1_555
H14 C13 1_555 1_555
C5 C6 1_555 1_555
C9 C10 1_555 1_555
C12 C13 1_555 1_555

#END
