
#######################################################################
#
#                 Cambridge Crystallographic Data Centre
#                                CCDC 
#
#######################################################################
#
# If this CIF has been generated from an entry in the Cambridge 
# Structural Database, then it will include bibliographic, chemical, 
# crystal, experimental, refinement or atomic coordinate data resulting 
# from the CCDC's data processing and validation procedures.
#
#######################################################################

data_YAGQAA
_chemical_formula_moiety         'C9 H8 Cl1 N3 O1,0.5(H2 O1)'
_chemical_name_systematic        
'[1-(3-Chlorophenyl)-1H-1,2,3-triazol-4-yl]methanol hemihydrate'
_symmetry_cell_setting           triclinic
_symmetry_space_group_name_H-M   'P -1'
_symmetry_Int_Tables_number      2
_space_group_name_Hall           '-P 1'
loop_
_symmetry_equiv_pos_site_id
_symmetry_equiv_pos_as_xyz
1 x,y,z
2 -x,-y,-z
_cell_length_a                   6.0078(4)
_cell_length_b                   7.4897(4)
_cell_length_c                   22.3145(15)
_cell_angle_alpha                88.818(4)
_cell_angle_beta                 89.901(2)
_cell_angle_gamma                80.493(4)
_cell_volume                     990.074
_exptl_crystal_colour            colorless
_exptl_crystal_description       plate
_cell_formula_units_Z            4
loop_
_atom_site_label
_atom_site_type_symbol
_atom_site_fract_x
_atom_site_fract_y
_atom_site_fract_z
Cl1 Cl 0.85344(17) 0.75800(15) 0.46687(4)
O1 O 0.5639(6) 0.7737(5) 0.05307(13)
H1 H 0.629(9) 0.747(7) 0.0204(13)
N1 N 0.6411(5) 0.8503(4) 0.24523(13)
N2 N 0.8433(5) 0.7528(4) 0.23011(14)
N3 N 0.8614(6) 0.7674(4) 0.17193(14)
C1 C 0.6580(6) 0.8250(5) 0.41004(15)
C2 C 0.4384(6) 0.8954(5) 0.42488(16)
H2 H 0.3932 0.9055 0.4657
C3 C 0.2852(6) 0.9509(5) 0.37926(15)
H3 H 0.1338 1.0005 0.3889
C4 C 0.3494(6) 0.9352(5) 0.31987(16)
H4 H 0.2426 0.9724 0.2889
C5 C 0.5708(6) 0.8647(4) 0.30588(15)
C6 C 0.7280(6) 0.8092(5) 0.35095(15)
H5 H 0.8801 0.7614 0.3414
C7 C 0.5315(6) 0.9254(5) 0.19577(15)
H6 H 0.3870 0.9992 0.1940
C8 C 0.6716(7) 0.8731(5) 0.14894(16)
C9 C 0.6412(8) 0.9160(6) 0.08392(17)
H7 H 0.5309 1.0289 0.0784
H8 H 0.7867 0.9368 0.0665
Cl2 Cl 0.7137(2) 0.31120(15) 0.43211(4)
O2 O 1.1922(7) 0.3320(5) 0.04279(18)
H9 H 1.219(12) 0.422(6) 0.062(3)
N4 N 0.7744(5) 0.2978(4) 0.20400(13)
N5 N 0.9702(5) 0.1798(5) 0.21008(15)
N6 N 1.0590(6) 0.1604(5) 0.15647(16)
C10 C 0.5956(6) 0.3531(5) 0.36144(16)
C11 C 0.3706(6) 0.4305(5) 0.35577(16)
H10 H 0.2793 0.4587 0.3902
C12 C 0.2826(6) 0.4657(5) 0.29895(17)
H11 H 0.1293 0.5210 0.2943
C13 C 0.4137(6) 0.4217(5) 0.24830(16)
H12 H 0.3506 0.4445 0.2093
C14 C 0.6367(6) 0.3444(4) 0.25557(16)
C15 C 0.7315(6) 0.3090(5) 0.31195(16)
H13 H 0.8855 0.2558 0.3166
C16 C 0.7421(6) 0.3525(5) 0.14617(16)
H14 H 0.6188 0.4348 0.1298
C17 C 0.9245(7) 0.2643(5) 0.11626(18)
C18 C 0.9826(8) 0.2697(6) 0.05057(19)
H15 H 0.9928 0.1471 0.0339
H16 H 0.8623 0.3516 0.0287
O3 O 1.2489(5) 0.6147(4) 0.10634(13)
H17 H 1.143(6) 0.661(6) 0.1286(19)
H18 H 1.293(8) 0.698(5) 0.086(2)
loop_
_geom_bond_atom_site_label_1
_geom_bond_atom_site_label_2
_geom_bond_site_symmetry_1
_geom_bond_site_symmetry_2
Cl1 C1 1_555 1_555
O1 H1 1_555 1_555
N1 N2 1_555 1_555
N2 N3 1_555 1_555
N3 C8 1_555 1_555
C1 C2 1_555 1_555
C2 H2 1_555 1_555
C3 C2 1_555 1_555
H3 C3 1_555 1_555
C4 C3 1_555 1_555
H4 C4 1_555 1_555
C5 N1 1_555 1_555
C6 C1 1_555 1_555
H5 C6 1_555 1_555
C7 N1 1_555 1_555
H6 C7 1_555 1_555
C8 C7 1_555 1_555
C9 O1 1_555 1_555
H7 C9 1_555 1_555
H8 C9 1_555 1_555
Cl2 C10 1_555 1_555
O2 H9 1_555 1_555
N4 N5 1_555 1_555
N5 N6 1_555 1_555
N6 C17 1_555 1_555
C10 C11 1_555 1_555
C11 H10 1_555 1_555
C12 C11 1_555 1_555
H11 C12 1_555 1_555
C13 C12 1_555 1_555
H12 C13 1_555 1_555
C14 N4 1_555 1_555
C15 C10 1_555 1_555
H13 C15 1_555 1_555
C16 N4 1_555 1_555
H14 C16 1_555 1_555
C17 C16 1_555 1_555
C18 O2 1_555 1_555
H15 C18 1_555 1_555
H16 C18 1_555 1_555
O3 H17 1_555 1_555
H18 O3 1_555 1_555
C4 C5 1_555 1_555
C5 C6 1_555 1_555
C8 C9 1_555 1_555
C13 C14 1_555 1_555
C14 C15 1_555 1_555
C17 C18 1_555 1_555

#END
