
#######################################################################
#
#                 Cambridge Crystallographic Data Centre
#                                CCDC 
#
#######################################################################
#
# If this CIF has been generated from an entry in the Cambridge 
# Structural Database, then it will include bibliographic, chemical, 
# crystal, experimental, refinement or atomic coordinate data resulting 
# from the CCDC's data processing and validation procedures.
#
#######################################################################

data_YAGTAE
_chemical_formula_moiety         'C22 H23 N4 1+,3(H2 O1),Cl1 1-'
_chemical_name_systematic        
'3-amino-7-(diethylamino)-5-phenylphenazin-5-ium chloride trihydrate'
_symmetry_cell_setting           triclinic
_symmetry_space_group_name_H-M   'P -1'
_symmetry_Int_Tables_number      2
_space_group_name_Hall           '-P 1'
loop_
_symmetry_equiv_pos_site_id
_symmetry_equiv_pos_as_xyz
1 x,y,z
2 -x,-y,-z
_cell_length_a                   7.3216(3)
_cell_length_b                   11.8592(4)
_cell_length_c                   14.0954(5)
_cell_angle_alpha                67.1137(6)
_cell_angle_beta                 85.7285(6)
_cell_angle_gamma                88.6015(6)
_cell_volume                     1124.39
_exptl_crystal_colour            violet
_exptl_crystal_description       plate
_cell_formula_units_Z            2
loop_
_atom_site_label
_atom_site_type_symbol
_atom_site_fract_x
_atom_site_fract_y
_atom_site_fract_z
Cl1 Cl 0.68210(4) 0.68854(3) -0.01988(2)
N1 N 0.76730(12) 0.46068(8) 0.40224(7)
N2 N 0.72475(13) 0.58014(9) 0.53856(7)
N3 N 0.66805(14) 0.84779(9) 0.12535(8)
H1 H 0.668(2) 0.8112(14) 0.0828(11)
H2 H 0.651(2) 0.9250(9) 0.1051(12)
N4 N 0.81187(14) 0.07861(9) 0.69591(8)
C1 C 0.73877(14) 0.58573(10) 0.36330(8)
C2 C 0.72052(15) 0.64258(10) 0.43691(9)
C3 C 0.69317(16) 0.77190(11) 0.39896(9)
H3 H 0.6838 0.8115 0.4462
C4 C 0.68033(16) 0.83925(11) 0.29703(9)
H4 H 0.6633 0.9253 0.2734
C5 C 0.69248(15) 0.78060(10) 0.22462(9)
C6 C 0.72522(15) 0.65433(10) 0.25909(8)
H5 H 0.7381 0.6160 0.2110
C7 C 0.77412(14) 0.39340(10) 0.50674(8)
C8 C 0.74904(15) 0.45892(10) 0.57360(8)
C9 C 0.74788(16) 0.39025(11) 0.68203(9)
H6 H 0.7320 0.4317 0.7277
C10 C 0.76891(16) 0.26730(11) 0.72141(9)
H7 H 0.7670 0.2238 0.7941
C11 C 0.79420(15) 0.20166(10) 0.65441(9)
C12 C 0.79878(15) 0.26760(10) 0.54678(9)
H8 H 0.8188 0.2258 0.5015
C13 C 0.78496(15) 0.39845(10) 0.33131(8)
C14 C 0.95839(17) 0.37495(11) 0.29688(10)
H9 H 1.0645 0.3966 0.3210
C15 C 0.97401(19) 0.31903(12) 0.22622(10)
H10 H 1.0917 0.3025 0.2015
C16 C 0.8181(2) 0.28734(12) 0.19183(10)
H11 H 0.8295 0.2499 0.1431
C17 C 0.6453(2) 0.31001(12) 0.22825(10)
H12 H 0.5391 0.2874 0.2048
C18 C 0.62741(17) 0.36588(11) 0.29907(9)
H13 H 0.5098 0.3813 0.3247
C19 C 0.8664(2) 0.00934(12) 0.63280(10)
H14 H 0.9378 -0.0629 0.6740
H15 H 0.9471 0.0611 0.5728
C20 C 0.7040(3) -0.03356(16) 0.59403(14)
H16 H 0.7475 -0.0851 0.5571
H17 H 0.6401 0.0377 0.5472
H18 H 0.6198 -0.0808 0.6528
C21 C 0.77400(17) 0.00638(11) 0.80704(9)
H19 H 0.7312 -0.0762 0.8169
H20 H 0.6739 0.0459 0.8339
C22 C 0.94011(18) -0.00634(13) 0.86912(10)
H21 H 0.9104 -0.0616 0.9410
H22 H 0.9742 0.0742 0.8667
H23 H 1.0427 -0.0398 0.8397
O1 O 0.32783(13) 0.52768(8) 0.10717(7)
H24 H 0.4264(17) 0.5641(15) 0.0783(13)
H25 H 0.321(2) 0.4742(13) 0.0836(13)
O2 O 0.08280(13) 0.72026(9) 0.05854(7)
H26 H 0.136(2) 0.6525(11) 0.0743(14)
H27 H -0.0176(16) 0.7022(16) 0.0436(14)
O3 O 0.35637(14) 0.88918(9) -0.05701(9)
H28 H 0.270(2) 0.8451(16) -0.0217(14)
H29 H 0.443(2) 0.8403(15) -0.0508(15)
loop_
_geom_bond_atom_site_label_1
_geom_bond_atom_site_label_2
_geom_bond_site_symmetry_1
_geom_bond_site_symmetry_2
N1 C1 1_555 1_555
N2 C2 1_555 1_555
N3 H1 1_555 1_555
H2 N3 1_555 1_555
N4 C11 1_555 1_555
C1 C2 1_555 1_555
C2 C3 1_555 1_555
C3 H3 1_555 1_555
C4 C3 1_555 1_555
H4 C4 1_555 1_555
C5 N3 1_555 1_555
C6 C1 1_555 1_555
H5 C6 1_555 1_555
C7 N1 1_555 1_555
C8 N2 1_555 1_555
C9 C8 1_555 1_555
H6 C9 1_555 1_555
C10 C9 1_555 1_555
H7 C10 1_555 1_555
C11 C10 1_555 1_555
C12 C7 1_555 1_555
H8 C12 1_555 1_555
C13 N1 1_555 1_555
C14 C13 1_555 1_555
H9 C14 1_555 1_555
C15 C14 1_555 1_555
H10 C15 1_555 1_555
C16 C15 1_555 1_555
H11 C16 1_555 1_555
C17 C16 1_555 1_555
H12 C17 1_555 1_555
C18 C13 1_555 1_555
H13 C18 1_555 1_555
C19 N4 1_555 1_555
H14 C19 1_555 1_555
H15 C19 1_555 1_555
C20 C19 1_555 1_555
H16 C20 1_555 1_555
H17 C20 1_555 1_555
H18 C20 1_555 1_555
C21 N4 1_555 1_555
H19 C21 1_555 1_555
H20 C21 1_555 1_555
C22 C21 1_555 1_555
H21 C22 1_555 1_555
H22 C22 1_555 1_555
H23 C22 1_555 1_555
O1 H24 1_555 1_555
H25 O1 1_555 1_555
O2 H26 1_555 1_555
H27 O2 1_555 1_555
O3 H28 1_555 1_555
H29 O3 1_555 1_555
C4 C5 1_555 1_555
C5 C6 1_555 1_555
C7 C8 1_555 1_555
C11 C12 1_555 1_555
C17 C18 1_555 1_555

#END
