
#######################################################################
#
#                 Cambridge Crystallographic Data Centre
#                                CCDC 
#
#######################################################################
#
# If this CIF has been generated from an entry in the Cambridge 
# Structural Database, then it will include bibliographic, chemical, 
# crystal, experimental, refinement or atomic coordinate data resulting 
# from the CCDC's data processing and validation procedures.
#
#######################################################################

data_YAHBOB
_chemical_formula_moiety         'C27 H23 N3,C1 H2 Cl2'
_chemical_name_systematic        
'2,6-bis(5-methyl-3-phenyl-1H-pyrrol-2-yl)pyridine dichloromethane solvate'
_symmetry_cell_setting           monoclinic
_symmetry_space_group_name_H-M   'C 2/c'
_symmetry_Int_Tables_number      15
_space_group_name_Hall           '-C 2yn'
loop_
_symmetry_equiv_pos_site_id
_symmetry_equiv_pos_as_xyz
1 x,y,z
2 -x,y,1/2-z
3 1/2+x,1/2+y,z
4 1/2-x,1/2+y,1/2-z
5 -x,-y,-z
6 x,-y,1/2+z
7 1/2-x,1/2-y,-z
8 1/2+x,1/2-y,1/2+z
_cell_length_a                   15.2333(6)
_cell_length_b                   21.8990(9)
_cell_length_c                   15.6210(8)
_cell_angle_alpha                90
_cell_angle_beta                 113.6822(13)
_cell_angle_gamma                90
_cell_volume                     4772.23
_exptl_crystal_colour            'pale yellow'
_exptl_crystal_description       parallelepiped
_cell_formula_units_Z            8
loop_
_atom_site_label
_atom_site_type_symbol
_atom_site_fract_x
_atom_site_fract_y
_atom_site_fract_z
N1 N 0.48644(13) 0.35555(9) 0.33962(12)
H1 H 0.521(2) 0.3845(14) 0.337(2)
N2 N 0.37518(12) 0.43862(8) 0.19857(12)
N3 N 0.47472(13) 0.51767(9) 0.13144(13)
H2 H 0.5057(19) 0.4975(13) 0.1721(19)
C1 C 0.52501(16) 0.30313(10) 0.38635(15)
C2 C 0.45034(16) 0.26315(10) 0.37172(15)
H3 H 0.4559 0.2231 0.3968
C3 C 0.36324(16) 0.29239(10) 0.31244(14)
C4 C 0.38869(15) 0.35052(10) 0.29422(14)
C5 C 0.33276(15) 0.40314(10) 0.24236(14)
C6 C 0.24288(16) 0.41676(10) 0.24122(15)
H4 H 0.2146 0.3913 0.2725
C7 C 0.19592(16) 0.46841(11) 0.19322(16)
H5 H 0.1348 0.4789 0.1917
C8 C 0.23774(16) 0.50483(11) 0.14748(16)
H6 H 0.206 0.5404 0.1147
C9 C 0.32776(15) 0.48832(10) 0.15042(14)
C10 C 0.37740(15) 0.52422(9) 0.10422(14)
C11 C 0.34715(15) 0.56869(10) 0.03484(14)
C12 C 0.43049(16) 0.58943(10) 0.02329(15)
H7 H 0.4322 0.6204 -0.0187
C13 C 0.50777(15) 0.55702(10) 0.08323(15)
C14 C 0.26868(15) 0.26215(10) 0.27558(15)
C15 C 0.25048(17) 0.21465(10) 0.32625(16)
H8 H 0.2984 0.2035 0.3853
C16 C 0.16339(18) 0.18345(11) 0.29180(17)
H9 H 0.1524 0.1514 0.3274
C17 C 0.09268(17) 0.19911(11) 0.20565(17)
H10 H 0.0332 0.178 0.1822
C18 C 0.10925(16) 0.24577(11) 0.15382(16)
H11 H 0.0609 0.2566 0.0949
C19 C 0.19640(16) 0.27666(10) 0.18790(15)
H12 H 0.2073 0.3081 0.1513
C20 C 0.24870(16) 0.58864(10) -0.02341(15)
C21 C 0.17590(17) 0.54545(12) -0.06489(16)
H13 H 0.1906 0.5031 -0.0562
C22 C 0.08286(18) 0.56370(13) -0.11827(18)
H14 H 0.0341 0.5339 -0.1452
C23 C 0.06038(18) 0.62543(14) -0.13260(18)
H15 H -0.0039 0.6379 -0.1676
C24 C 0.13228(18) 0.66860(12) -0.09560(17)
H16 H 0.1177 0.7108 -0.107
C25 C 0.22607(17) 0.65031(11) -0.04162(16)
H17 H 0.2751 0.6802 -0.017
C26 C 0.63084(16) 0.29681(11) 0.43985(16)
H18 H 0.6624 0.2961 0.3962
H19 H 0.6446 0.2587 0.4758
H20 H 0.6549 0.3315 0.4826
C27 C 0.61128(16) 0.55849(11) 0.09937(16)
H21 H 0.6487 0.5765 0.1608
H22 H 0.6193 0.5832 0.0507
H23 H 0.6337 0.5168 0.0973
C28 C 0.3629(3) 0.15674(14) 0.1567(2)
H24 H 0.4138 0.188 0.1823
H25 H 0.3004 0.1773 0.1403
Cl1 Cl 0.37792(7) 0.10145(4) 0.24255(8)
Cl2 Cl 0.36743(6) 0.12477(4) 0.05451(6)
loop_
_geom_bond_atom_site_label_1
_geom_bond_atom_site_label_2
_geom_bond_site_symmetry_1
_geom_bond_site_symmetry_2
N1 H1 1_555 1_555
N2 C5 1_555 1_555
N3 H2 1_555 1_555
C1 N1 1_555 1_555
C2 C1 1_555 1_555
H3 C2 1_555 1_555
C3 C2 1_555 1_555
C4 N1 1_555 1_555
C5 C4 1_555 1_555
C6 C5 1_555 1_555
H4 C6 1_555 1_555
C7 C6 1_555 1_555
H5 C7 1_555 1_555
C8 C7 1_555 1_555
H6 C8 1_555 1_555
C9 N2 1_555 1_555
C10 N3 1_555 1_555
C11 C10 1_555 1_555
C12 C11 1_555 1_555
H7 C12 1_555 1_555
C13 N3 1_555 1_555
C14 C3 1_555 1_555
C15 C14 1_555 1_555
H8 C15 1_555 1_555
C16 C15 1_555 1_555
H9 C16 1_555 1_555
C17 C16 1_555 1_555
H10 C17 1_555 1_555
C18 C17 1_555 1_555
H11 C18 1_555 1_555
C19 C14 1_555 1_555
H12 C19 1_555 1_555
C20 C11 1_555 1_555
C21 C20 1_555 1_555
H13 C21 1_555 1_555
C22 C21 1_555 1_555
H14 C22 1_555 1_555
C23 C22 1_555 1_555
H15 C23 1_555 1_555
C24 C23 1_555 1_555
H16 C24 1_555 1_555
C25 C20 1_555 1_555
H17 C25 1_555 1_555
C26 C1 1_555 1_555
H18 C26 1_555 1_555
H19 C26 1_555 1_555
H20 C26 1_555 1_555
C27 C13 1_555 1_555
H21 C27 1_555 1_555
H22 C27 1_555 1_555
H23 C27 1_555 1_555
C28 H24 1_555 1_555
H25 C28 1_555 1_555
Cl1 C28 1_555 1_555
Cl2 C28 1_555 1_555
C3 C4 1_555 1_555
C8 C9 1_555 1_555
C9 C10 1_555 1_555
C12 C13 1_555 1_555
C18 C19 1_555 1_555
C24 C25 1_555 1_555

#END
