
#######################################################################
#
#                 Cambridge Crystallographic Data Centre
#                                CCDC 
#
#######################################################################
#
# If this CIF has been generated from an entry in the Cambridge 
# Structural Database, then it will include bibliographic, chemical, 
# crystal, experimental, refinement or atomic coordinate data resulting 
# from the CCDC's data processing and validation procedures.
#
#######################################################################

data_YAHDAO
_chemical_formula_moiety         'C16 H16 N2 O1 S2'
_chemical_name_systematic        
'Benzyl (E)-3-(4-methoxybenzylidene)dithiocarbazate'
_symmetry_cell_setting           monoclinic
_symmetry_space_group_name_H-M   'P 21/c'
_symmetry_Int_Tables_number      14
_space_group_name_Hall           '-P 2ybc'
loop_
_symmetry_equiv_pos_site_id
_symmetry_equiv_pos_as_xyz
1 x,y,z
2 -x,1/2+y,1/2-z
3 -x,-y,-z
4 x,1/2-y,1/2+z
_cell_length_a                   10.267(5)
_cell_length_b                   5.150(2)
_cell_length_c                   31.686(11)
_cell_angle_alpha                90
_cell_angle_beta                 97.141(5)
_cell_angle_gamma                90
_cell_volume                     1662.4
_exptl_crystal_colour            colorless
_exptl_crystal_description       block
_cell_formula_units_Z            4
_exptl_crystal_recrystallization_method 'absolute methanol'
loop_
_atom_site_label
_atom_site_type_symbol
_atom_site_fract_x
_atom_site_fract_y
_atom_site_fract_z
S1 S 0.65124(8) 0.64526(18) 0.54959(2)
S2 S 0.57408(9) 0.40404(17) 0.63003(2)
O1 O -0.0078(2) -0.7274(5) 0.62062(8)
N1 N 0.4039(2) 0.1129(5) 0.57509(7)
N2 N 0.4768(2) 0.2797(5) 0.55381(7)
H1 H 0.4665 0.2815 0.5265
C1 C 0.2443(3) -0.2240(6) 0.56941(8)
C2 C 0.1678(3) -0.3916(6) 0.54309(9)
H2 H 0.1740 -0.3887 0.5141
C3 C 0.0825(3) -0.5632(6) 0.55848(10)
H3 H 0.0315 -0.6738 0.5400
C4 C 0.0734(3) -0.5699(6) 0.60140(10)
C5 C 0.1509(3) -0.4053(7) 0.62824(10)
H4 H 0.1456 -0.4105 0.6573
C6 C 0.2355(3) -0.2346(6) 0.61278(9)
H5 H 0.2871 -0.1255 0.6313
C7 C 0.3302(3) -0.0417(6) 0.55184(9)
H6 H 0.3314 -0.0376 0.5226
C8 C 0.5635(3) 0.4391(6) 0.57512(8)
C9 C 0.6968(4) 0.6468(7) 0.64781(9)
H7 H 0.7778 0.6104 0.6361
H8 H 0.6662 0.8177 0.6383
C10 C 0.7200(5) 0.6388(8) 0.69529(11)
C11 C 0.8198(6) 0.4920(11) 0.71552(14)
H9 H 0.8712 0.3939 0.6993
C12 C 0.8464(8) 0.4854(16) 0.7592(2)
H10 H 0.9153 0.3870 0.7727
C13 C 0.7687(13) 0.6270(17) 0.7815(2)
H11 H 0.7830 0.6173 0.8110
C14 C 0.6712(12) 0.7826(15) 0.7635(2)
H12 H 0.6231 0.8854 0.7801
C15 C 0.6444(7) 0.7838(11) 0.71840(14)
H13 H 0.5758 0.8830 0.7049
C16 C -0.0915(4) -0.8990(7) 0.59433(13)
H14 H -0.1487 -0.7997 0.5741
H15 H -0.1431 -0.9991 0.6117
H16 H -0.0392 -1.0135 0.5795
loop_
_geom_bond_atom_site_label_1
_geom_bond_atom_site_label_2
_geom_bond_site_symmetry_1
_geom_bond_site_symmetry_2
S1 C8 1_555 1_555
S2 C8 1_555 1_555
O1 C4 1_555 1_555
N1 N2 1_555 1_555
N2 H1 1_555 1_555
C1 C2 1_555 1_555
C2 H2 1_555 1_555
C3 C2 1_555 1_555
H3 C3 1_555 1_555
C4 C3 1_555 1_555
C5 C4 1_555 1_555
H4 C5 1_555 1_555
C6 C1 1_555 1_555
H5 C6 1_555 1_555
C7 N1 1_555 1_555
H6 C7 1_555 1_555
C8 N2 1_555 1_555
C9 S2 1_555 1_555
H7 C9 1_555 1_555
H8 C9 1_555 1_555
C10 C9 1_555 1_555
C11 C10 1_555 1_555
H9 C11 1_555 1_555
C12 C11 1_555 1_555
H10 C12 1_555 1_555
C13 C12 1_555 1_555
H11 C13 1_555 1_555
C14 C13 1_555 1_555
H12 C14 1_555 1_555
C15 C10 1_555 1_555
H13 C15 1_555 1_555
C16 O1 1_555 1_555
H14 C16 1_555 1_555
H15 C16 1_555 1_555
H16 C16 1_555 1_555
C1 C7 1_555 1_555
C5 C6 1_555 1_555
C14 C15 1_555 1_555

#END
