
#######################################################################
#
#                 Cambridge Crystallographic Data Centre
#                                CCDC 
#
#######################################################################
#
# If this CIF has been generated from an entry in the Cambridge 
# Structural Database, then it will include bibliographic, chemical, 
# crystal, experimental, refinement or atomic coordinate data resulting 
# from the CCDC's data processing and validation procedures.
#
#######################################################################

data_YAHJUO
_chemical_formula_moiety         'C8 H12 N4 O4'
_chemical_name_systematic        meso-3,6-Dioxopiperazine-2,5-diacetamide
_symmetry_cell_setting           monoclinic
_symmetry_space_group_name_H-M   'P 21/c'
_symmetry_Int_Tables_number      14
_space_group_name_Hall           '-P 2ybc'
loop_
_symmetry_equiv_pos_site_id
_symmetry_equiv_pos_as_xyz
1 x,y,z
2 -x,1/2+y,1/2-z
3 -x,-y,-z
4 x,1/2-y,1/2+z
_cell_length_a                   5.0409(10)
_cell_length_b                   8.3178(17)
_cell_length_c                   12.900(3)
_cell_angle_alpha                90
_cell_angle_beta                 109.76(3)
_cell_angle_gamma                90
_cell_volume                     509.038
_exptl_crystal_colour            colorless
_exptl_crystal_description       needle
_cell_formula_units_Z            2
loop_
_atom_site_label
_atom_site_type_symbol
_atom_site_fract_x
_atom_site_fract_y
_atom_site_fract_z
O1 O 0.0282(2) -0.01262(16) 0.31172(9)
O2 O 0.2805(3) 0.29340(13) 0.49666(9)
N1 N 0.0676(4) 0.0393(2) 0.14760(11)
H1 H -0.0736 -0.0213 0.1141
H2 H 0.1561 0.0889 0.1107
N2 N 0.6588(2) -0.04206(14) 0.43619(9)
H3 H 0.7546 -0.0678 0.3948
C1 C 0.1482(3) 0.05588(18) 0.25545(11)
C2 C 0.3991(3) 0.16430(17) 0.30689(11)
H4 H 0.3353 0.2749 0.3022
H5 H 0.5274 0.1554 0.2656
C3 C 0.5568(3) 0.12212(17) 0.42763(11)
H6 H 0.7224 0.1923 0.4531
C4 C 0.3792(3) 0.15646(18) 0.49910(11)
O1B O 0.9718(2) 0.01262(16) 0.68828(9)
O2B O 0.7195(3) -0.29340(13) 0.50334(9)
N1B N 0.9324(4) -0.0393(2) 0.85240(11)
H1B H 1.0736 0.0213 0.8859
H2B H 0.8439 -0.0889 0.8893
N2B N 0.3412(2) 0.04206(14) 0.56381(9)
H3B H 0.2454 0.0678 0.6052
C1B C 0.8518(3) -0.05588(18) 0.74455(11)
C2B C 0.6009(3) -0.16430(17) 0.69311(11)
H4B H 0.6647 -0.2749 0.6978
H5B H 0.4726 -0.1554 0.7344
C3B C 0.4432(3) -0.12212(17) 0.57237(11)
H6B H 0.2776 -0.1923 0.5469
C4B C 0.6208(3) -0.15646(18) 0.50090(11)
loop_
_geom_bond_atom_site_label_1
_geom_bond_atom_site_label_2
_geom_bond_site_symmetry_1
_geom_bond_site_symmetry_2
O1 C1 1_555 1_555
O2 C4 1_555 1_555
N1 H1 1_555 1_555
H2 N1 1_555 1_555
N2 H3 1_555 1_555
C1 N1 1_555 1_555
C2 C1 1_555 1_555
H4 C2 1_555 1_555
H5 C2 1_555 1_555
C3 N2 1_555 1_555
H6 C3 1_555 1_555
C4 C3 1_555 1_555
O1B C1B 1_555 1_555
O2B C4B 1_555 1_555
N1B H1B 1_555 1_555
H2B N1B 1_555 1_555
N2B C4 1_555 1_555
H3B N2B 1_555 1_555
C1B N1B 1_555 1_555
C2B C1B 1_555 1_555
H4B C2B 1_555 1_555
H5B C2B 1_555 1_555
C3B N2B 1_555 1_555
H6B C3B 1_555 1_555
C4B N2 1_555 1_555
C2 C3 1_555 1_555
C2B C3B 1_555 1_555
C3B C4B 1_555 1_555

#END
