
#######################################################################
#
#                 Cambridge Crystallographic Data Centre
#                                CCDC 
#
#######################################################################
#
# If this CIF has been generated from an entry in the Cambridge 
# Structural Database, then it will include bibliographic, chemical, 
# crystal, experimental, refinement or atomic coordinate data resulting 
# from the CCDC's data processing and validation procedures.
#
#######################################################################

data_YAHKEX
_chemical_formula_moiety         'C19 H28 Li1 N1 O6 S1'
_chemical_name_systematic        
(15,17-Dimethyl-16,18-dimethoxy-3,6,9,12-tetraoxabicyclo(12.3.1)-octadeca-1(18),14,16-triene-O,O',O'',O''')-isothiocyanato-lithium
_symmetry_cell_setting           monoclinic
_symmetry_space_group_name_H-M   'P 21/n'
_symmetry_Int_Tables_number      14
_space_group_name_Hall           '-P 2yn'
loop_
_symmetry_equiv_pos_site_id
_symmetry_equiv_pos_as_xyz
1 x,y,z
2 1/2-x,1/2+y,1/2-z
3 -x,-y,-z
4 1/2+x,1/2-y,1/2+z
_cell_length_a                   14.103(4)
_cell_length_b                   8.493(4)
_cell_length_c                   19.128(8)
_cell_angle_alpha                90
_cell_angle_beta                 108.70(9)
_cell_angle_gamma                90
_cell_volume                     2170.14
_cell_formula_units_Z            4
loop_
_atom_site_label
_atom_site_type_symbol
_atom_site_fract_x
_atom_site_fract_y
_atom_site_fract_z
Li1 Li 0.0877(3) 0.1323(5) 0.1666(2)
S1 S 0.3277(1) 0.1973(1) 0.0461(1)
C1 C 0.2531(2) 0.1566(3) 0.0932(1)
N1 N 0.2002(2) 0.1281(3) 0.1265(1)
C2 C 0.1229(2) 0.2882(3) 0.3179(1)
O1 O 0.1242(1) 0.1376(2) 0.2838(1)
C3 C 0.0744(2) 0.0186(3) 0.3118(2)
C4 C 0.0727(2) -0.1252(3) 0.2664(2)
O2 O 0.0324(1) -0.0912(2) 0.1889(1)
C5 C -0.0735(2) -0.0736(4) 0.1635(2)
C6 C -0.1025(2) -0.0233(4) 0.0856(2)
O3 O -0.0470(1) 0.1169(2) 0.0840(1)
C7 C -0.0740(2) 0.1995(5) 0.0160(2)
C8 C -0.1730(3) 0.2801(5) -0.0011(2)
O4 O -0.1887(1) 0.3601(3) 0.0588(1)
C9 C -0.1254(2) 0.4930(3) 0.0890(2)
C10 C -0.0024(1) 0.4124(2) 0.2104(1)
C11 C -0.0943(2) 0.4779(3) 0.1716(1)
C12 C -0.1602(2) 0.5149(3) 0.2106(2)
C13 C -0.1311(2) 0.4812(3) 0.2855(2)
C14 C -0.0418(2) 0.4050(3) 0.3235(1)
C15 C 0.0244(2) 0.3717(3) 0.2845(1)
C16 C 0.1317(2) 0.5016(3) 0.1713(2)
O5 O 0.0644(1) 0.3738(2) 0.1726(1)
C17 C -0.2619(2) 0.5864(4) 0.1721(3)
C18 C -0.1763(5) 0.6689(5) 0.3585(4)
O6 O -0.1970(2) 0.5177(2) 0.3234(2)
C19 C -0.0203(3) 0.3605(4) 0.4036(2)
H1 H 0.1352 0.2744 0.3735
H2 H 0.1791 0.3586 0.3135
H3 H 0.1093 -0.0017 0.3668
H4 H 0.0028 0.0519 0.3072
H5 H 0.0317 -0.2128 0.2797
H6 H 0.1438 -0.1678 0.2787
H7 H -0.0964 0.0123 0.1925
H8 H -0.1105 -0.1729 0.1684
H9 H -0.1771 -0.0044 0.0633
H10 H -0.0847 -0.1105 0.0550
H11 H -0.0193 0.2807 0.0174
H12 H -0.0742 0.1228 -0.0256
H13 H -0.1784 0.3592 -0.0434
H14 H -0.2263 0.1991 -0.0214
H15 H -0.1620 0.5968 0.0725
H16 H -0.0640 0.4949 0.0721
H17 H 0.1789 0.4639 0.1488
H18 H 0.0936 0.5832 0.1456
H19 H 0.1786 0.5286 0.2309
H20 H -0.3130 0.5625 0.1942
H21 H -0.2573 0.7028 0.1679
H22 H -0.2884 0.5422 0.1190
H23 H -0.2222 0.6955 0.3871
H24 H -0.1041 0.6730 0.3953
H25 H -0.1802 0.7553 0.3214
H26 H 0.0361 0.4204 0.4333
H27 H -0.0775 0.3844 0.4213
H28 H -0.0015 0.2468 0.4121
loop_
_geom_bond_atom_site_label_1
_geom_bond_atom_site_label_2
_geom_bond_site_symmetry_1
_geom_bond_site_symmetry_2
Li1 N1 1_555 1_555
S1 C1 1_555 1_555
C1 N1 1_555 1_555
C2 O1 1_555 1_555
O1 Li1 1_555 1_555
C3 O1 1_555 1_555
C4 C3 1_555 1_555
O2 Li1 1_555 1_555
C5 O2 1_555 1_555
C6 C5 1_555 1_555
O3 Li1 1_555 1_555
C7 O3 1_555 1_555
C8 C7 1_555 1_555
O4 C8 1_555 1_555
C9 O4 1_555 1_555
C10 C11 1_555 1_555
C11 C9 1_555 1_555
C12 C11 1_555 1_555
C13 C12 1_555 1_555
C14 C13 1_555 1_555
C15 C2 1_555 1_555
C16 O5 1_555 1_555
O5 Li1 1_555 1_555
C17 C12 1_555 1_555
C18 O6 1_555 1_555
O6 C13 1_555 1_555
C19 C14 1_555 1_555
H1 C2 1_555 1_555
H2 C2 1_555 1_555
H3 C3 1_555 1_555
H4 C3 1_555 1_555
H5 C4 1_555 1_555
H6 C4 1_555 1_555
H7 C5 1_555 1_555
H8 C5 1_555 1_555
H9 C6 1_555 1_555
H10 C6 1_555 1_555
H11 C7 1_555 1_555
H12 C7 1_555 1_555
H13 C8 1_555 1_555
H14 C8 1_555 1_555
H15 C9 1_555 1_555
H16 C9 1_555 1_555
H17 C16 1_555 1_555
H18 C16 1_555 1_555
H19 C16 1_555 1_555
H20 C17 1_555 1_555
H21 C17 1_555 1_555
H22 C17 1_555 1_555
H23 C18 1_555 1_555
H24 C18 1_555 1_555
H25 C18 1_555 1_555
H26 C19 1_555 1_555
H27 C19 1_555 1_555
H28 C19 1_555 1_555
C4 O2 1_555 1_555
C6 O3 1_555 1_555
C10 C15 1_555 1_555
C10 O5 1_555 1_555
C14 C15 1_555 1_555

#END
