
#######################################################################
#
#                 Cambridge Crystallographic Data Centre
#                                CCDC 
#
#######################################################################
#
# If this CIF has been generated from an entry in the Cambridge 
# Structural Database, then it will include bibliographic, chemical, 
# crystal, experimental, refinement or atomic coordinate data resulting 
# from the CCDC's data processing and validation procedures.
#
#######################################################################

data_YAHTUX
_chemical_formula_moiety         'C8 H18 N1 1+,C18 H21 O3 1-'
_chemical_name_systematic        
'1-(Cyclohexyl)ethylammonium 4-(2-(\a-1-norbornyl)-2-methylpropanoyl)benzoate'
_symmetry_cell_setting           monoclinic
_symmetry_space_group_name_H-M   'P 21'
_symmetry_Int_Tables_number      4
_space_group_name_Hall           'P 2yb'
loop_
_symmetry_equiv_pos_site_id
_symmetry_equiv_pos_as_xyz
1 x,y,z
2 -x,1/2+y,-z
_cell_length_a                   13.017(1)
_cell_length_b                   6.2546(6)
_cell_length_c                   14.544(2)
_cell_angle_alpha                90
_cell_angle_beta                 95.511(5)
_cell_angle_gamma                90
_cell_volume                     1178.64
_exptl_crystal_colour            colorless
_exptl_crystal_description       needle
_cell_formula_units_Z            2
loop_
_atom_site_label
_atom_site_type_symbol
_atom_site_fract_x
_atom_site_fract_y
_atom_site_fract_z
C1 C 0.33389(11) 0.9379(2) 0.58220(10)
C2 C 0.22985(12) 1.0142(2) 0.61555(10)
C3 C 0.23952(15) 1.0945(3) 0.71740(11)
H1 H 0.2444 0.9727 0.7611
H2 H 0.3012 1.1863 0.7303
C4 C 0.13927(16) 1.2237(4) 0.72523(13)
H3 H 0.0979 1.1603 0.7720
H4 H 0.1550 1.3744 0.7420
C5 C 0.08262(14) 1.2077(3) 0.62880(12)
H5 H 0.0298 1.3218 0.6137
C6 C 0.17183(12) 1.2077(3) 0.56759(11)
H6 H 0.2128 1.3412 0.5733
H7 H 0.1487 1.1795 0.5019
C7 C 0.04202(14) 0.9792(4) 0.61509(15)
H8 H -0.0055 0.9674 0.5579
H9 H 0.0055 0.9325 0.6683
C8 C 0.14235(12) 0.8438(3) 0.60772(12)
H10 H 0.1523 0.7383 0.6585
H11 H 0.1395 0.7676 0.5479
C9 C 0.31552(10) 0.8378(2) 0.48494(10)
C10 C 0.26628(10) 0.9608(2) 0.40223(9)
C11 C 0.29288(11) 1.1675(2) 0.37701(9)
H12 H 0.3471 1.2412 0.4121
C12 C 0.24019(11) 1.2658(2) 0.30049(10)
H13 H 0.2587 1.4066 0.2839
C13 C 0.16039(10) 1.1594(2) 0.24784(9)
C14 C 0.13597(11) 0.9511(2) 0.27182(10)
H14 H 0.0828 0.8761 0.2359
C15 C 0.18849(11) 0.8524(2) 0.34761(10)
H15 H 0.1716 0.7097 0.3627
C16 C 0.10231(11) 1.2698(2) 0.16576(10)
C17 C 0.38221(13) 0.7632(3) 0.64771(12)
H16 H 0.4462 0.7117 0.6249
H17 H 0.3336 0.6440 0.6500
H18 H 0.3975 0.8229 0.7098
C18 C 0.41301(12) 1.1230(3) 0.58151(11)
H19 H 0.4706 1.0786 0.5472
H20 H 0.4390 1.1586 0.6451
H21 H 0.3794 1.2487 0.5518
O1 O 0.33549(9) 0.65031(18) 0.47303(8)
O2 O 0.10830(10) 1.46826(19) 0.16083(8)
O3 O 0.04994(9) 1.15270(19) 0.10758(8)
C19 C 0.19889(12) 0.8263(3) -0.01727(10)
H22 H 0.1864 0.9607 -0.0539
C20 C 0.22014(15) 0.6505(4) -0.08427(12)
H23 H 0.1656 0.6490 -0.1356
H24 H 0.2218 0.5123 -0.0524
H25 H 0.2869 0.6761 -0.1082
C21 C 0.28617(12) 0.8735(3) 0.06019(11)
H26 H 0.2524 0.9426 0.1115
C22 C 0.33995(13) 0.6722(3) 0.10142(11)
H27 H 0.2879 0.5751 0.1242
H28 H 0.3737 0.5961 0.0528
C23 C 0.42088(14) 0.7296(3) 0.18118(13)
H29 H 0.3856 0.7860 0.2334
H30 H 0.4587 0.5986 0.2026
C24 C 0.49764(14) 0.8951(3) 0.15307(14)
H31 H 0.5436 0.9384 0.2081
H32 H 0.5409 0.8306 0.1080
C25 C 0.44343(14) 1.0913(3) 0.11043(14)
H33 H 0.4954 1.1888 0.0878
H34 H 0.4089 1.1680 0.1584
C26 C 0.36336(14) 1.0338(3) 0.03032(14)
H35 H 0.3267 1.1648 0.0075
H36 H 0.3987 0.9730 -0.0210
N1 N 0.10189(10) 0.7760(2) 0.02525(9)
H37 H 0.1093(13) 0.657(3) 0.0653(13)
H38 H 0.0844(14) 0.888(4) 0.0588(13)
H39 H 0.0496(14) 0.747(3) -0.0242(13)
loop_
_geom_bond_atom_site_label_1
_geom_bond_atom_site_label_2
_geom_bond_site_symmetry_1
_geom_bond_site_symmetry_2
C1 C2 1_555 1_555
C2 C3 1_555 1_555
C3 H1 1_555 1_555
H2 C3 1_555 1_555
C4 C3 1_555 1_555
H3 C4 1_555 1_555
H4 C4 1_555 1_555
C5 C4 1_555 1_555
H5 C5 1_555 1_555
C6 C2 1_555 1_555
H6 C6 1_555 1_555
H7 C6 1_555 1_555
C7 C5 1_555 1_555
H8 C7 1_555 1_555
H9 C7 1_555 1_555
C8 C2 1_555 1_555
H10 C8 1_555 1_555
H11 C8 1_555 1_555
C9 C1 1_555 1_555
C10 C9 1_555 1_555
C11 C10 1_555 1_555
H12 C11 1_555 1_555
C12 C11 1_555 1_555
H13 C12 1_555 1_555
C13 C12 1_555 1_555
C14 C13 1_555 1_555
H14 C14 1_555 1_555
C15 C10 1_555 1_555
H15 C15 1_555 1_555
C16 C13 1_555 1_555
C17 C1 1_555 1_555
H16 C17 1_555 1_555
H17 C17 1_555 1_555
H18 C17 1_555 1_555
C18 C1 1_555 1_555
H19 C18 1_555 1_555
H20 C18 1_555 1_555
H21 C18 1_555 1_555
C19 H22 1_555 1_555
C20 C19 1_555 1_555
H23 C20 1_555 1_555
H24 C20 1_555 1_555
H25 C20 1_555 1_555
C21 C19 1_555 1_555
H26 C21 1_555 1_555
C22 C21 1_555 1_555
H27 C22 1_555 1_555
H28 C22 1_555 1_555
C23 C22 1_555 1_555
H29 C23 1_555 1_555
H30 C23 1_555 1_555
C24 C23 1_555 1_555
H31 C24 1_555 1_555
H32 C24 1_555 1_555
C25 C24 1_555 1_555
H33 C25 1_555 1_555
H34 C25 1_555 1_555
C26 C21 1_555 1_555
H35 C26 1_555 1_555
H36 C26 1_555 1_555
N1 C19 1_555 1_555
O1 C9 1_555 1_555
O2 C16 1_555 1_555
O3 C16 1_555 1_555
H37 N1 1_555 1_555
H38 N1 1_555 1_555
H39 N1 1_555 1_555
C5 C6 1_555 1_555
C7 C8 1_555 1_555
C14 C15 1_555 1_555
C25 C26 1_555 1_555

#END
