
#######################################################################
#
#                 Cambridge Crystallographic Data Centre
#                                CCDC 
#
#######################################################################
#
# If this CIF has been generated from an entry in the Cambridge 
# Structural Database, then it will include bibliographic, chemical, 
# crystal, experimental, refinement or atomic coordinate data resulting 
# from the CCDC's data processing and validation procedures.
#
#######################################################################

data_YAJGUN
_chemical_name_common            
N-(bis(cyclohexyl(methyl)amino)phosphoryl)-2,6-difluorobenzamide
_chemical_formula_moiety         'C21 H32 F2 N3 O2 P1'
_chemical_name_systematic        
"N,N'-Dicyclohexyl-N''-(2,6-difluorobenzoyl)-N,N'-dimethylphosphoric triamide"
_symmetry_cell_setting           triclinic
_symmetry_space_group_name_H-M   'P -1'
_symmetry_Int_Tables_number      2
_space_group_name_Hall           '-P 1'
loop_
_symmetry_equiv_pos_site_id
_symmetry_equiv_pos_as_xyz
1 x,y,z
2 -x,-y,-z
_cell_length_a                   10.2322(6)
_cell_length_b                   10.6188(5)
_cell_length_c                   11.2658(6)
_cell_angle_alpha                69.4190(10)
_cell_angle_beta                 79.2690(10)
_cell_angle_gamma                81.5360(10)
_cell_volume                     1121.45
_exptl_crystal_colour            colorless
_exptl_crystal_description       block
_cell_formula_units_Z            2
_exptl_crystal_recrystallization_method chloroform/DMF
loop_
_atom_site_label
_atom_site_type_symbol
_atom_site_fract_x
_atom_site_fract_y
_atom_site_fract_z
P1 P 0.42370(3) 0.41644(3) 0.20824(3)
F1 F 0.91928(9) 0.33633(12) 0.27902(10)
F2 F 0.68054(9) 0.73518(9) 0.04970(9)
O1 O 0.64907(10) 0.41510(13) 0.35266(9)
O2 O 0.35023(8) 0.47928(9) 0.09668(8)
N1 N 0.57558(10) 0.47579(11) 0.15972(10)
H1 H 0.5985(14) 0.5054(14) 0.0781(9)
N2 N 0.34278(10) 0.45423(10) 0.33252(9)
N3 N 0.45145(11) 0.25173(11) 0.25782(11)
C1 C 0.91678(14) 0.4643(2) 0.19652(16)
C2 C 1.03613(16) 0.5176(3) 0.14059(19)
H2 H 1.1182 0.4669 0.1619
C3 C 1.03445(16) 0.6460(3) 0.0529(2)
H3 H 1.1166 0.6842 0.0137
C4 C 0.91532(17) 0.7212(2) 0.02025(17)
H4 H 0.9148 0.8099 -0.0405
C5 C 0.79751(14) 0.66235(18) 0.07925(15)
C6 C 0.79311(13) 0.53390(17) 0.16838(13)
C7 C 0.66617(13) 0.46961(15) 0.23652(13)
C8 C 0.27329(12) 0.59130(12) 0.31148(11)
H5 H 0.2504 0.6255 0.2224
C9 C 0.36202(14) 0.69035(14) 0.32103(14)
H6 H 0.3890 0.6578 0.4075
H7 H 0.4439 0.6951 0.2575
C10 C 0.28793(18) 0.83088(16) 0.29625(17)
H8 H 0.3451 0.8918 0.3081
H9 H 0.2701 0.8673 0.2064
C11 C 0.15626(17) 0.82817(16) 0.38598(17)
H10 H 0.1743 0.8016 0.4753
H11 H 0.1085 0.9197 0.3635
C12 C 0.06889(15) 0.72885(15) 0.37619(16)
H12 H 0.0434 0.7605 0.2892
H13 H -0.0139 0.7250 0.4385
C13 C 0.14254(13) 0.58770(14) 0.40322(13)
H14 H 0.1616 0.5529 0.4927
H15 H 0.0852 0.5257 0.3933
C14 C 0.36037(14) 0.37310(14) 0.46557(12)
H16 H 0.3893 0.4297 0.5066
H17 H 0.4281 0.2975 0.4658
H18 H 0.2754 0.3381 0.5129
C15 C 0.57908(14) 0.17673(14) 0.22547(14)
H19 H 0.6473 0.2439 0.1874
C16 C 0.57337(16) 0.11177(15) 0.12540(14)
H20 H 0.5479 0.1824 0.0465
H21 H 0.5042 0.0468 0.1585
C17 C 0.70838(18) 0.03820(16) 0.09313(15)
H22 H 0.6998 -0.0088 0.0334
H23 H 0.7750 0.1049 0.0497
C18 C 0.7570(2) -0.06431(18) 0.21368(16)
H24 H 0.6957 -0.1369 0.2517
H25 H 0.8468 -0.1059 0.1906
C19 C 0.76312(19) 0.00220(19) 0.31179(17)
H26 H 0.8303 0.0692 0.2766
H27 H 0.7914 -0.0671 0.3901
C20 C 0.62703(17) 0.07244(16) 0.34615(15)
H28 H 0.6341 0.1178 0.4076
H29 H 0.5613 0.0045 0.3877
C21 C 0.33158(15) 0.17706(14) 0.30012(15)
H30 H 0.3101 0.1560 0.2283
H31 H 0.2564 0.2325 0.3300
H32 H 0.3483 0.0930 0.3702
loop_
_geom_bond_atom_site_label_1
_geom_bond_atom_site_label_2
_geom_bond_site_symmetry_1
_geom_bond_site_symmetry_2
P1 O2 1_555 1_555
F1 C1 1_555 1_555
F2 C5 1_555 1_555
O1 C7 1_555 1_555
N1 P1 1_555 1_555
H1 N1 1_555 1_555
N2 P1 1_555 1_555
N3 P1 1_555 1_555
C1 C2 1_555 1_555
C2 H2 1_555 1_555
C3 C2 1_555 1_555
H3 C3 1_555 1_555
C4 C3 1_555 1_555
H4 C4 1_555 1_555
C5 C4 1_555 1_555
C6 C1 1_555 1_555
C7 N1 1_555 1_555
C8 N2 1_555 1_555
H5 C8 1_555 1_555
C9 C8 1_555 1_555
H6 C9 1_555 1_555
H7 C9 1_555 1_555
C10 C9 1_555 1_555
H8 C10 1_555 1_555
H9 C10 1_555 1_555
C11 C10 1_555 1_555
H10 C11 1_555 1_555
H11 C11 1_555 1_555
C12 C11 1_555 1_555
H12 C12 1_555 1_555
H13 C12 1_555 1_555
C13 C8 1_555 1_555
H14 C13 1_555 1_555
H15 C13 1_555 1_555
C14 N2 1_555 1_555
H16 C14 1_555 1_555
H17 C14 1_555 1_555
H18 C14 1_555 1_555
C15 N3 1_555 1_555
H19 C15 1_555 1_555
C16 C15 1_555 1_555
H20 C16 1_555 1_555
H21 C16 1_555 1_555
C17 C16 1_555 1_555
H22 C17 1_555 1_555
H23 C17 1_555 1_555
C18 C17 1_555 1_555
H24 C18 1_555 1_555
H25 C18 1_555 1_555
C19 C18 1_555 1_555
H26 C19 1_555 1_555
H27 C19 1_555 1_555
C20 C15 1_555 1_555
H28 C20 1_555 1_555
H29 C20 1_555 1_555
C21 N3 1_555 1_555
H30 C21 1_555 1_555
H31 C21 1_555 1_555
H32 C21 1_555 1_555
C5 C6 1_555 1_555
C6 C7 1_555 1_555
C12 C13 1_555 1_555
C19 C20 1_555 1_555

#END
