
#######################################################################
#
#                 Cambridge Crystallographic Data Centre
#                                CCDC 
#
#######################################################################
#
# If this CIF has been generated from an entry in the Cambridge 
# Structural Database, then it will include bibliographic, chemical, 
# crystal, experimental, refinement or atomic coordinate data resulting 
# from the CCDC's data processing and validation procedures.
#
#######################################################################

data_YAJPUV01
_chemical_name_common            4-Hydroxybenzophenone
_chemical_formula_moiety         'C13 H10 O2'
_chemical_name_systematic        (4-hydroxyphenyl)(phenyl)methanone
_symmetry_cell_setting           orthorhombic
_symmetry_space_group_name_H-M   'P b c a'
_symmetry_Int_Tables_number      61
_space_group_name_Hall           '-P 2ac 2ab'
loop_
_symmetry_equiv_pos_site_id
_symmetry_equiv_pos_as_xyz
1 x,y,z
2 1/2-x,-y,1/2+z
3 -x,1/2+y,1/2-z
4 1/2+x,1/2-y,-z
5 -x,-y,-z
6 1/2+x,y,1/2-z
7 x,1/2-y,1/2+z
8 1/2-x,1/2+y,z
_cell_length_a                   15.009(6)
_cell_length_b                   13.965(7)
_cell_length_c                   19.470(9)
_cell_angle_alpha                90
_cell_angle_beta                 90
_cell_angle_gamma                90
_cell_volume                     4080.93
_exptl_crystal_colour            yellow
_cell_formula_units_Z            16
loop_
_atom_site_label
_atom_site_type_symbol
_atom_site_fract_x
_atom_site_fract_y
_atom_site_fract_z
C1 C 0.6639(3) 0.1204(3) 0.8445(3)
C2 C 0.7342(3) 0.1261(3) 0.7917(3)
C3 C 0.7091(3) 0.1374(4) 0.7224(3)
H1 H 0.6493 0.1447 0.7111
C4 C 0.7713(3) 0.1377(4) 0.6721(3)
H2 H 0.7533 0.1462 0.6268
C5 C 0.8611(3) 0.1256(3) 0.6863(2)
C6 C 0.8859(3) 0.1127(3) 0.7534(2)
H3 H 0.9457 0.1026 0.7636
C7 C 0.8249(3) 0.1142(3) 0.8061(2)
H4 H 0.8440 0.1074 0.8513
C8 C 0.6834(3) 0.1239(4) 0.9193(3)
C9 C 0.7443(3) 0.1858(4) 0.9471(3)
H5 H 0.7771 0.2257 0.9184
C10 C 0.7572(4) 0.1894(5) 1.0167(3)
H6 H 0.7972 0.2335 1.0348
C11 C 0.7119(5) 0.1288(6) 1.0600(4)
H7 H 0.7229 0.1300 1.1070
C12 C 0.6492(5) 0.0656(5) 1.0328(3)
H8 H 0.6176 0.0247 1.0616
C13 C 0.6344(4) 0.0639(4) 0.9620(3)
H9 H 0.5919 0.0229 0.9435
O1 O 0.5856(2) 0.1131(3) 0.8254(2)
O2 O 0.9181(2) 0.1259(3) 0.63306(16)
H10 H 0.9688 0.1162 0.6471
C14 C 0.8978(3) 0.8746(3) 0.8485(3)
C15 C 0.9681(3) 0.8695(3) 0.7945(2)
C16 C 0.9419(3) 0.8547(4) 0.7270(3)
H11 H 0.8820 0.8451 0.7170
C17 C 1.0016(3) 0.8541(4) 0.6762(3)
H12 H 0.9828 0.8422 0.6315
C18 C 1.0921(3) 0.8711(3) 0.6892(2)
C19 C 1.1201(3) 0.8852(3) 0.7554(2)
H13 H 1.1801 0.8946 0.7648
C20 C 1.0576(3) 0.8853(3) 0.8085(2)
H14 H 1.0760 0.8959 0.8534
C21 C 0.9202(3) 0.8734(3) 0.9232(3)
C22 C 0.9844(3) 0.8141(4) 0.9502(3)
H15 H 1.0173 0.7749 0.9211
C23 C 1.0005(4) 0.8120(5) 1.0199(3)
H16 H 1.0425 0.7700 1.0382
C24 C 0.9526(4) 0.8742(5) 1.0631(3)
H17 H 0.9634 0.8748 1.1101
C25 C 0.8902(4) 0.9334(4) 1.0354(3)
H18 H 0.8590 0.9750 1.0639
C26 C 0.8724(3) 0.9332(4) 0.9661(3)
H19 H 0.8284 0.9729 0.9482
O3 O 0.8196(2) 0.8804(3) 0.8308(2)
O4 O 1.1475(2) 0.8678(3) 0.63489(17)
H20 H 1.1989 0.8756 0.6479
loop_
_geom_bond_atom_site_label_1
_geom_bond_atom_site_label_2
_geom_bond_site_symmetry_1
_geom_bond_site_symmetry_2
C1 C2 1_555 1_555
C2 C3 1_555 1_555
C3 H1 1_555 1_555
C4 C3 1_555 1_555
H2 C4 1_555 1_555
C5 C4 1_555 1_555
C6 C5 1_555 1_555
H3 C6 1_555 1_555
C7 C2 1_555 1_555
H4 C7 1_555 1_555
C8 C1 1_555 1_555
C9 C8 1_555 1_555
H5 C9 1_555 1_555
C10 C9 1_555 1_555
H6 C10 1_555 1_555
C11 C10 1_555 1_555
H7 C11 1_555 1_555
C12 C11 1_555 1_555
H8 C12 1_555 1_555
C13 C8 1_555 1_555
H9 C13 1_555 1_555
O1 C1 1_555 1_555
O2 C5 1_555 1_555
H10 O2 1_555 1_555
C14 C15 1_555 1_555
C15 C16 1_555 1_555
C16 H11 1_555 1_555
C17 C16 1_555 1_555
H12 C17 1_555 1_555
C18 C17 1_555 1_555
C19 C18 1_555 1_555
H13 C19 1_555 1_555
C20 C15 1_555 1_555
H14 C20 1_555 1_555
C21 C14 1_555 1_555
C22 C21 1_555 1_555
H15 C22 1_555 1_555
C23 C22 1_555 1_555
H16 C23 1_555 1_555
C24 C23 1_555 1_555
H17 C24 1_555 1_555
C25 C24 1_555 1_555
H18 C25 1_555 1_555
C26 C21 1_555 1_555
H19 C26 1_555 1_555
O3 C14 1_555 1_555
O4 C18 1_555 1_555
H20 O4 1_555 1_555
C6 C7 1_555 1_555
C12 C13 1_555 1_555
C19 C20 1_555 1_555
C25 C26 1_555 1_555

#END
