
#######################################################################
#
#                 Cambridge Crystallographic Data Centre
#                                CCDC 
#
#######################################################################
#
# If this CIF has been generated from an entry in the Cambridge 
# Structural Database, then it will include bibliographic, chemical, 
# crystal, experimental, refinement or atomic coordinate data resulting 
# from the CCDC's data processing and validation procedures.
#
#######################################################################

data_YAJWOV
_chemical_formula_moiety         'C10 H21 As1 N4'
_chemical_name_systematic        Hydro-cyclam-arsenic
_symmetry_cell_setting           monoclinic
_symmetry_space_group_name_H-M   'P 21/c'
_symmetry_Int_Tables_number      14
_space_group_name_Hall           '-P 2ybc'
loop_
_symmetry_equiv_pos_site_id
_symmetry_equiv_pos_as_xyz
1 x,y,z
2 -x,1/2+y,1/2-z
3 -x,-y,-z
4 x,1/2-y,1/2+z
_cell_length_a                   15.866(5)
_cell_length_b                   8.460(3)
_cell_length_c                   9.333(4)
_cell_angle_alpha                90
_cell_angle_beta                 100.98(3)
_cell_angle_gamma                90
_cell_volume                     1229.8
_exptl_crystal_colour            white
_chemical_melting_point          180-182deg.C(dec.)
_cell_formula_units_Z            4
_chemical_properties_physical    Air-sensitive
loop_
_atom_site_label
_atom_site_type_symbol
_atom_site_fract_x
_atom_site_fract_y
_atom_site_fract_z
As1 As 0.7198(1) 0.0094(1) 0.0566(1)
N1 N 0.7752(5) 0.3059(10) 0.1400(9)
N2 N 0.6713(5) 0.1362(9) -0.1103(8)
N3 N 0.7085(5) -0.1842(9) -0.0471(9)
N4 N 0.8355(5) 0.0021(9) 0.0440(9)
C1 C 0.7439(7) 0.3776(13) -0.0011(11)
C2 C 0.6605(6) 0.3049(11) -0.0727(12)
C3 C 0.5869(6) 0.0734(13) -0.1795(12)
C4 C 0.6216(7) -0.2131(13) -0.1326(12)
C5 C 0.7770(6) -0.2002(11) -0.1279(11)
C6 C 0.8565(7) -0.1474(13) -0.0210(12)
C7 C 0.9002(7) 0.0563(13) 0.1618(12)
C8 C 0.8623(7) 0.3410(13) 0.2055(12)
C9 C 0.5901(7) -0.0860(13) -0.2459(12)
C10 C 0.9265(7) 0.2300(12) 0.1498(14)
H1 H 0.7420 0.3541 0.2124
H2 H 0.7851 0.3601 -0.0626
H3 H 0.7367 0.4896 0.0081
H4 H 0.6217 0.3104 -0.0055
H5 H 0.6356 0.3628 -0.1588
H6 H 0.5622 0.1463 -0.2546
H7 H 0.5499 0.0703 -0.1092
H8 H 0.6217 -0.3131 -0.1810
H9 H 0.5819 -0.2207 -0.0671
H10 H 0.7674 -0.1335 -0.2125
H11 H 0.7820 -0.3077 -0.1579
H12 H 0.9037 -0.1318 -0.0702
H13 H 0.8724 -0.2261 0.0532
H14 H 0.9496 -0.0112 0.1718
H15 H 0.8774 0.0484 0.2496
H16 H 0.8754 0.4494 0.1884
H17 H 0.8694 0.3251 0.3088
H18 H 0.6267 -0.0837 -0.3168
H19 H 0.5333 -0.1135 -0.2955
H20 H 0.9237 0.2526 0.0483
H21 H 0.9845 0.2462 0.2001
loop_
_geom_bond_atom_site_label_1
_geom_bond_atom_site_label_2
_geom_bond_site_symmetry_1
_geom_bond_site_symmetry_2
As1 N2 1_555 1_555
N1 C1 1_555 1_555
N2 C2 1_555 1_555
N3 As1 1_555 1_555
N4 As1 1_555 1_555
C1 C2 1_555 1_555
C2 H4 1_555 1_555
C3 N2 1_555 1_555
C4 N3 1_555 1_555
C5 N3 1_555 1_555
C6 N4 1_555 1_555
C7 N4 1_555 1_555
C8 N1 1_555 1_555
C9 C3 1_555 1_555
C10 C7 1_555 1_555
H1 N1 1_555 1_555
H2 C1 1_555 1_555
H3 C1 1_555 1_555
H5 C2 1_555 1_555
H6 C3 1_555 1_555
H7 C3 1_555 1_555
H8 C4 1_555 1_555
H9 C4 1_555 1_555
H10 C5 1_555 1_555
H11 C5 1_555 1_555
H12 C6 1_555 1_555
H13 C6 1_555 1_555
H14 C7 1_555 1_555
H15 C7 1_555 1_555
H16 C8 1_555 1_555
H17 C8 1_555 1_555
H18 C9 1_555 1_555
H19 C9 1_555 1_555
H20 C10 1_555 1_555
H21 C10 1_555 1_555
C4 C9 1_555 1_555
C5 C6 1_555 1_555
C8 C10 1_555 1_555

#END
