
#######################################################################
#
#                 Cambridge Crystallographic Data Centre
#                                CCDC 
#
#######################################################################
#
# If this CIF has been generated from an entry in the Cambridge 
# Structural Database, then it will include bibliographic, chemical, 
# crystal, experimental, refinement or atomic coordinate data resulting 
# from the CCDC's data processing and validation procedures.
#
#######################################################################

data_YAJZAL
_chemical_formula_moiety         'C23 H32 N2 O3'
_chemical_name_systematic        
(5S,6R,1'R,2'R,4'R)-3,4,5,6-Tetrahydro-5-methyl-4-(1,7,7-trimethylbicyclo(2.2.1)hept-2-yl)-6-phenyl-3-propionyl-2H-1,3,4-oxadiazin-2-one
_symmetry_cell_setting           orthorhombic
_symmetry_space_group_name_H-M   'P 21 21 21'
_symmetry_Int_Tables_number      19
_space_group_name_Hall           'P 2ac 2ab'
loop_
_symmetry_equiv_pos_site_id
_symmetry_equiv_pos_as_xyz
1 x,y,z
2 1/2-x,-y,1/2+z
3 1/2+x,1/2-y,-z
4 -x,1/2+y,1/2-z
_cell_length_a                   7.1352(6)
_cell_length_b                   7.1884(6)
_cell_length_c                   41.107(3)
_cell_angle_alpha                90
_cell_angle_beta                 90
_cell_angle_gamma                90
_cell_volume                     2108.41
_exptl_crystal_colour            colorless
_exptl_crystal_description       prism
_chemical_melting_point          225-226deg.C
_cell_formula_units_Z            4
loop_
_atom_site_label
_atom_site_type_symbol
_atom_site_fract_x
_atom_site_fract_y
_atom_site_fract_z
C1 C 0.2273(4) 0.9007(4) 0.90224(6)
C2 C 0.2149(4) 0.5138(3) 0.90200(6)
H1 H 0.1737 0.3876 0.8947
C3 C 0.0428(4) 0.6155(4) 0.91468(6)
H2 H -0.0605 0.5958 0.8986
C4 C 0.5491(4) 0.8164(4) 0.88414(7)
C5 C 0.1452(4) 0.6437(4) 0.84694(6)
H3 H 0.0466 0.7306 0.8552
C6 C 0.3708(4) 0.4870(4) 0.92704(7)
H4 H 0.4758 0.4207 0.917
H5 H 0.323 0.4144 0.9454
H6 H 0.4136 0.6087 0.9348
C7 C -0.0289(4) 0.5546(4) 0.94755(7)
C8 C -0.1018(13) 0.6706(11) 0.96959(17)
H7 H -0.0963 0.8008 0.9657
C9 C -0.1872(13) 0.6053(15) 0.9986(2)
H8 H -0.2291 0.69 1.0147
C10 C -0.2082(18) 0.416(3) 1.0027(4)
H9 H -0.2626 0.3678 1.022
C11 C -0.148(5) 0.296(6) 0.9781(8)
H10 H -0.1648 0.1662 0.9813
C12 C -0.071(2) 0.352(2) 0.9510(5)
H11 H -0.0428 0.2672 0.934
C18 C 0.0510(5) 0.4580(5) 0.83717(7)
H17 H 0.1226 0.3503 0.8456
H18 H -0.0791 0.4514 0.8454
C19 C 0.0544(5) 0.4627(5) 0.79986(7)
H19 H 0.0268 0.3404 0.7893
C20 C -0.0733(5) 0.6217(6) 0.78881(9)
H20 H -0.0989 0.6143 0.7652
H21 H -0.1937 0.6203 0.8008
C21 C 0.0404(5) 0.7944(5) 0.79704(8)
H22 H -0.0294 0.8763 0.8121
H23 H 0.0715 0.8654 0.7771
C22 C 0.2193(4) 0.7181(4) 0.81330(6)
C23 C 0.2532(4) 0.5375(4) 0.79317(7)
C24 C 0.4100(5) 0.4159(5) 0.80605(8)
H24 H 0.3898 0.3919 0.8293
H25 H 0.5303 0.4795 0.803
H26 H 0.4113 0.2977 0.7942
C25 C 0.2912(5) 0.5711(5) 0.75694(7)
H27 H 0.1915 0.6491 0.7478
H28 H 0.2943 0.4517 0.7455
H29 H 0.4121 0.6342 0.7544
C26 C 0.3763(5) 0.8583(4) 0.81312(7)
H30 H 0.4871 0.8044 0.8236
H31 H 0.3373 0.9698 0.825
H32 H 0.4067 0.8918 0.7906
C27 C 0.6343(5) 0.9877(5) 0.89929(10)
H33 H 0.5455 1.0414 0.9152
H34 H 0.7503 0.9532 0.911
C28 C 0.6784(8) 1.1279(5) 0.87407(10)
H35 H 0.7328 1.2383 0.8844
H36 H 0.5633 1.1627 0.8626
H37 H 0.7683 1.0755 0.8586
N1 N 0.3516(3) 0.7900(3) 0.88474(5)
N2 N 0.2867(3) 0.6145(3) 0.87309(5)
O1 O 0.0804(3) 0.8166(2) 0.91617(5)
O2 O 0.2440(3) 1.0659(3) 0.90590(6)
O3 O 0.6480(3) 0.7016(3) 0.87233(6)
C13? C 0.0321(12) 0.6566(9) 0.97658(15)
H12? H 0.1091 0.7641 0.9751
C14? C -0.0284(13) 0.5884(11) 1.00646(15)
H13? H 0.0045 0.655 1.0256
C15? C -0.1315(17) 0.4321(18) 1.0096(3)
H14? H -0.1697 0.3912 1.0305
C16? C -0.180(4) 0.334(5) 0.9829(7)
H15? H -0.253 0.2235 0.9844
C17? C -0.116(3) 0.406(2) 0.9517(4)
H16? H -0.143 0.3332 0.9329
loop_
_geom_bond_atom_site_label_1
_geom_bond_atom_site_label_2
_geom_bond_site_symmetry_1
_geom_bond_site_symmetry_2
C1 N1 1_555 1_555
C2 H1 1_555 1_555
C3 C2 1_555 1_555
H2 C3 1_555 1_555
C4 C27 1_555 1_555
C5 H3 1_555 1_555
C6 C2 1_555 1_555
H4 C6 1_555 1_555
H5 C6 1_555 1_555
H6 C6 1_555 1_555
C7 C3 1_555 1_555
C8 C7 1_555 1_555
H7 C8 1_555 1_555
C9 C8 1_555 1_555
H8 C9 1_555 1_555
C10 C9 1_555 1_555
H9 C10 1_555 1_555
C11 C10 1_555 1_555
H10 C11 1_555 1_555
C12 C7 1_555 1_555
H11 C12 1_555 1_555
C18 C5 1_555 1_555
H17 C18 1_555 1_555
H18 C18 1_555 1_555
C19 C18 1_555 1_555
H19 C19 1_555 1_555
C20 C19 1_555 1_555
H20 C20 1_555 1_555
H21 C20 1_555 1_555
C21 C20 1_555 1_555
H22 C21 1_555 1_555
H23 C21 1_555 1_555
C22 C5 1_555 1_555
C23 C19 1_555 1_555
C24 C23 1_555 1_555
H24 C24 1_555 1_555
H25 C24 1_555 1_555
H26 C24 1_555 1_555
C25 C23 1_555 1_555
H27 C25 1_555 1_555
H28 C25 1_555 1_555
H29 C25 1_555 1_555
C26 C22 1_555 1_555
H30 C26 1_555 1_555
H31 C26 1_555 1_555
H32 C26 1_555 1_555
C27 H33 1_555 1_555
H34 C27 1_555 1_555
C28 C27 1_555 1_555
H35 C28 1_555 1_555
H36 C28 1_555 1_555
H37 C28 1_555 1_555
N1 C4 1_555 1_555
N2 C2 1_555 1_555
O1 C1 1_555 1_555
O2 C1 1_555 1_555
O3 C4 1_555 1_555
C3 O1 1_555 1_555
C5 N2 1_555 1_555
C11 C12 1_555 1_555
C21 C22 1_555 1_555
C22 C23 1_555 1_555
N1 N2 1_555 1_555

#END
