
#######################################################################
#
#                 Cambridge Crystallographic Data Centre
#                                CCDC 
#
#######################################################################
#
# If this CIF has been generated from an entry in the Cambridge 
# Structural Database, then it will include bibliographic, chemical, 
# crystal, experimental, refinement or atomic coordinate data resulting 
# from the CCDC's data processing and validation procedures.
#
#######################################################################

data_YAJZEP
_chemical_formula_moiety         'C34 H40 N2 O4'
_chemical_name_systematic        
(5S,6R,1'R,2'R,4'R,2''S,3''S)-3,4,5,6-Tetarahydro-3-(3-hydroxy-2-methyl-3-(2-naphthyl)propionyl)-5-methyl-(1,7,7-trimethylbicyclo(2.2.1)hept-2-yl)-6-phenyl-4-(2H-1,3,4-oxadiazin-2-one)
_symmetry_cell_setting           tetragonal
_symmetry_space_group_name_H-M   'P 43 21 2'
_symmetry_Int_Tables_number      96
_space_group_name_Hall           'P 4nw 2abw'
loop_
_symmetry_equiv_pos_site_id
_symmetry_equiv_pos_as_xyz
1 x,y,z
2 -x,-y,1/2+z
3 1/2+x,1/2-y,1/4-z
4 1/2-x,1/2+y,3/4-z
5 -y,-x,1/2-z
6 y,x,-z
7 1/2+y,1/2-x,1/4+z
8 1/2-y,1/2+x,3/4+z
_cell_length_a                   10.7001(6)
_cell_length_b                   10.7001(6)
_cell_length_c                   54.3471(29)
_cell_angle_alpha                90
_cell_angle_beta                 90
_cell_angle_gamma                90
_cell_volume                     6222.32
_exptl_crystal_colour            colorless
_exptl_crystal_description       prism
_chemical_melting_point          140-141deg.C
_cell_formula_units_Z            8
loop_
_atom_site_label
_atom_site_type_symbol
_atom_site_fract_x
_atom_site_fract_y
_atom_site_fract_z
C1 C 0.46659(19) 0.9370(2) 0.12142(4)
C2 C 0.22965(19) 0.81611(19) 0.12121(4)
H1 H 0.1732 0.7521 0.1287
C3 C 0.3453(2) 0.7455(2) 0.11142(4)
H2 H 0.3537 0.6669 0.1212
C4 C 0.31716(19) 1.11251(19) 0.12789(3)
C5 C 0.3182(2) 0.83852(19) 0.16330(4)
H3 H 0.3919 0.787 0.1583
C6 C 0.1535(2) 0.8851(2) 0.10197(4)
H4 H 0.0824 0.9264 0.1099
H5 H 0.1228 0.8255 0.0897
H6 H 0.2061 0.9479 0.0939
C7 C 0.3357(2) 0.7087(2) 0.08458(4)
C8 C 0.3790(2) 0.7850(3) 0.06589(4)
H7 H 0.4209 0.8608 0.0698
C9 C 0.3615(3) 0.7510(3) 0.04153(5)
H8 H 0.3912 0.8039 0.0288
C10 C 0.3020(3) 0.6425(4) 0.03573(5)
H9 H 0.2902 0.62 0.019
C11 C 0.2586(3) 0.5646(3) 0.05431(5)
H10 H 0.2174 0.4887 0.0503
C12 C 0.2761(2) 0.5986(2) 0.07872(4)
H11 H 0.2466 0.5455 0.0915
C13 C 0.2159(2) 0.7515(2) 0.17429(4)
H12 H 0.1332 0.7697 0.167
H13 H 0.2366 0.6625 0.1714
C14 C 0.2168(2) 0.7815(2) 0.20178(4)
H14 H 0.1416 0.7509 0.2109
C15 C 0.3416(2) 0.7348(2) 0.21229(4)
H15 H 0.3605 0.6489 0.2066
H16 H 0.3413 0.7363 0.2305
C16 C 0.4358(2) 0.8297(2) 0.20178(4)
H17 H 0.4988 0.7875 0.1913
H18 H 0.4792 0.8749 0.2152
C17 C 0.3545(2) 0.9204(2) 0.18629(3)
C18 C 0.2323(2) 0.9257(2) 0.20193(4)
C19 C 0.1253(2) 0.9975(3) 0.18978(4)
H19 H 0.1109 0.9644 0.1732
H20 H 0.1472 1.0863 0.1887
H21 H 0.0492 0.9878 0.1996
C20 C 0.2507(3) 0.9812(3) 0.22773(4)
H22 H 0.3195 0.9378 0.236
H23 H 0.1738 0.9707 0.2373
H24 H 0.2705 1.0703 0.2263
C21 C 0.4193(2) 1.0448(2) 0.18204(4)
H25 H 0.3649 1.0994 0.1723
H26 H 0.4978 1.0309 0.1731
H27 H 0.4371 1.0844 0.1979
C22 C 0.4069(2) 1.20616(19) 0.11636(3)
H28 H 0.4944 1.185 0.1213
C23 C 0.37538(19) 1.33888(19) 0.12515(4)
H29 H 0.2861 1.3555 0.1208
C24 C 0.3948(2) 1.1958(2) 0.08827(4)
H30 H 0.4155 1.1105 0.0831
H31 H 0.4523 1.2548 0.0804
H32 H 0.3088 1.2153 0.0834
C25 C 0.3878(2) 1.35214(19) 0.15281(4)
C26 C 0.2857(2) 1.3775(2) 0.16731(4)
H33 H 0.2064 1.3888 0.1598
C27 C 0.2959(2) 1.3871(2) 0.19318(4)
C28 C 0.1914(3) 1.4125(3) 0.20816(5)
H34 H 0.1117 1.4245 0.2008
C29 C 0.2035(3) 1.4201(3) 0.23307(5)
H35 H 0.1324 1.4377 0.243
C30 C 0.3201(3) 1.4021(3) 0.24414(5)
H36 H 0.3276 1.4071 0.2615
C31 C 0.4222(3) 1.3778(3) 0.23029(5)
H37 H 0.5007 1.3655 0.2381
C32 C 0.4140(3) 1.3702(2) 0.20422(4)
C33 C 0.5184(2) 1.3463(2) 0.18918(4)
H38 H 0.5986 1.3367 0.1965
C34 C 0.5060(2) 1.3366(2) 0.16417(4)
H39 H 0.5774 1.3194 0.1543
N1 N 0.35547(15) 0.98762(16) 0.13076(3)
N2 N 0.26666(16) 0.90320(16) 0.14128(3)
O1 O 0.46063(13) 0.81724(15) 0.11468(3)
O2 O 0.21180(13) 1.14228(13) 0.13372(3)
O3 O 0.44999(16) 1.42817(14) 0.11243(3)
O4 O 0.56467(14) 0.99086(15) 0.11999(3)
H40 H 0.527(3) 1.411(3) 0.1141(5)
loop_
_geom_bond_atom_site_label_1
_geom_bond_atom_site_label_2
_geom_bond_site_symmetry_1
_geom_bond_site_symmetry_2
C1 N1 1_555 1_555
C2 H1 1_555 1_555
C3 C2 1_555 1_555
H2 C3 1_555 1_555
C4 C22 1_555 1_555
C5 H3 1_555 1_555
C6 C2 1_555 1_555
H4 C6 1_555 1_555
H5 C6 1_555 1_555
H6 C6 1_555 1_555
C7 C3 1_555 1_555
C8 C7 1_555 1_555
H7 C8 1_555 1_555
C9 C8 1_555 1_555
H8 C9 1_555 1_555
C10 C9 1_555 1_555
H9 C10 1_555 1_555
C11 C10 1_555 1_555
H10 C11 1_555 1_555
C12 C7 1_555 1_555
H11 C12 1_555 1_555
C13 C5 1_555 1_555
H12 C13 1_555 1_555
H13 C13 1_555 1_555
C14 C13 1_555 1_555
H14 C14 1_555 1_555
C15 C14 1_555 1_555
H15 C15 1_555 1_555
H16 C15 1_555 1_555
C16 C15 1_555 1_555
H17 C16 1_555 1_555
H18 C16 1_555 1_555
C17 C5 1_555 1_555
C18 C14 1_555 1_555
C19 C18 1_555 1_555
H19 C19 1_555 1_555
H20 C19 1_555 1_555
H21 C19 1_555 1_555
C20 C18 1_555 1_555
H22 C20 1_555 1_555
H23 C20 1_555 1_555
H24 C20 1_555 1_555
C21 C17 1_555 1_555
H25 C21 1_555 1_555
H26 C21 1_555 1_555
H27 C21 1_555 1_555
C22 H28 1_555 1_555
C23 C22 1_555 1_555
H29 C23 1_555 1_555
C24 C22 1_555 1_555
H30 C24 1_555 1_555
H31 C24 1_555 1_555
H32 C24 1_555 1_555
C25 C23 1_555 1_555
C26 C25 1_555 1_555
H33 C26 1_555 1_555
C27 C26 1_555 1_555
C28 C27 1_555 1_555
H34 C28 1_555 1_555
C29 C28 1_555 1_555
H35 C29 1_555 1_555
C30 C29 1_555 1_555
H36 C30 1_555 1_555
C31 C30 1_555 1_555
H37 C31 1_555 1_555
C32 C27 1_555 1_555
C33 C32 1_555 1_555
H38 C33 1_555 1_555
C34 C25 1_555 1_555
H39 C34 1_555 1_555
N1 C4 1_555 1_555
N2 C2 1_555 1_555
O1 C1 1_555 1_555
O2 C4 1_555 1_555
O3 C23 1_555 1_555
O4 C1 1_555 1_555
H40 O3 1_555 1_555
C3 O1 1_555 1_555
C5 N2 1_555 1_555
C11 C12 1_555 1_555
C16 C17 1_555 1_555
C17 C18 1_555 1_555
C31 C32 1_555 1_555
C33 C34 1_555 1_555
N1 N2 1_555 1_555

#END
