
#######################################################################
#
#                 Cambridge Crystallographic Data Centre
#                                CCDC 
#
#######################################################################
#
# If this CIF has been generated from an entry in the Cambridge 
# Structural Database, then it will include bibliographic, chemical, 
# crystal, experimental, refinement or atomic coordinate data resulting 
# from the CCDC's data processing and validation procedures.
#
#######################################################################

data_YAKQEJ
_chemical_formula_moiety         'C27 H29 Cl1 N3 O3 P1'
_chemical_name_systematic        
'diethyl ((3-(4-chlorophenyl)-1-phenyl-1H-pyrazol-4-yl)((4-methylphenyl)amino)methyl)phosphonate unknown solvate'
_chemical_properties_biological  
'tested for insecticidal activity against Plutella xylostella'
_symmetry_cell_setting           monoclinic
_symmetry_space_group_name_H-M   'P 21/c'
_symmetry_Int_Tables_number      14
_space_group_name_Hall           '-P 2ybc'
loop_
_symmetry_equiv_pos_site_id
_symmetry_equiv_pos_as_xyz
1 x,y,z
2 -x,1/2+y,1/2-z
3 -x,-y,-z
4 x,1/2-y,1/2+z
_cell_length_a                   14.8888(17)
_cell_length_b                   12.0635(14)
_cell_length_c                   17.420(2)
_cell_angle_alpha                90
_cell_angle_beta                 109.169(4)
_cell_angle_gamma                90
_cell_volume                     2955.34
_exptl_crystal_colour            colorless
_exptl_crystal_description       block
_chemical_melting_point          '182-184 deg.C'
_cell_formula_units_Z            4
loop_
_atom_site_label
_atom_site_type_symbol
_atom_site_fract_x
_atom_site_fract_y
_atom_site_fract_z
Cl1 Cl 0.56050(11) 1.02858(19) -0.13464(13)
P1 P 0.16828(9) 0.96547(11) 0.11671(7)
N1 N 0.1626(3) 0.7721(3) -0.1303(2)
N2 N 0.0844(3) 0.7561(3) -0.1081(2)
O1 O 0.2095(3) 1.0722(4) 0.1668(2)
O2 O 0.0742(2) 0.9310(3) 0.11585(19)
O3 O 0.2482(2) 0.8791(4) 0.1532(2)
C1 C 0.2810(7) 1.5275(5) -0.0320(6)
H1 H 0.3450 1.5312 0.0049
H2 H 0.2433 1.5838 -0.0182
H3 H 0.2811 1.5394 -0.0865
C2 C 0.3078(7) 0.6971(8) 0.1753(7)
H4 H 0.2968 0.6261 0.1953
H5 H 0.3695 0.7239 0.2072
H6 H 0.3048 0.6902 0.1196
C3 C 0.1900(7) 1.1126(8) 0.2320(6)
H7 H 0.1995 1.0544 0.2724
H8 H 0.1238 1.1347 0.2155
C4 C 0.1645(3) 1.2000(4) -0.0182(3)
C5 C 0.2053(3) 0.8589(4) -0.0875(3)
C6 C 0.0777(3) 0.8324(4) -0.0533(3)
H9 H 0.0294 0.8371 -0.0305
C7 C -0.0341(4) 0.6223(5) -0.0989(3)
H10 H -0.0298 0.6503 -0.0481
N3 N 0.1254(3) 1.0974(3) -0.0156(2)
H11 H 0.0646 1.0912 -0.0354
C8 C 0.2951(3) 0.9015(4) -0.0956(3)
C9 C 0.1545(3) 0.9010(3) -0.0374(2)
C10 C 0.1800(3) 0.9986(3) 0.0184(3)
H12 H 0.2471 1.0155 0.0276
C11 C 0.2488(7) 1.2061(7) 0.2682(5)
H13 H 0.2316 1.2327 0.3135
H14 H 0.2396 1.2641 0.2286
H15 H 0.3143 1.1840 0.2867
C12 C 0.0164(3) 0.6228(4) -0.2160(3)
H16 H 0.0540 0.6520 -0.2444
C13 C 0.3894(4) 1.0522(5) -0.1167(3)
H17 H 0.3967 1.1277 -0.1235
C14 C 0.1117(4) 1.2804(4) -0.0700(3)
H18 H 0.0505 1.2636 -0.1039
C15 C 0.0206(3) 0.6664(4) -0.1424(3)
C16 C 0.3074(4) 1.0119(4) -0.1062(3)
H19 H 0.2593 1.0612 -0.1064
C17 C -0.0444(4) 0.5347(4) -0.2479(3)
H20 H -0.0480 0.5051 -0.2982
C18 C -0.0952(4) 0.5355(5) -0.1330(4)
H21 H -0.1344 0.5069 -0.1058
C19 C 0.4590(4) 0.9802(5) -0.1170(4)
C20 C 0.3677(4) 0.8309(5) -0.0941(4)
H22 H 0.3611 0.7557 -0.0853
C21 C 0.2911(5) 1.3336(5) 0.0253(4)
H23 H 0.3526 1.3508 0.0581
C22 C 0.2562(4) 1.2282(4) 0.0306(3)
H24 H 0.2940 1.1766 0.0666
C23 C 0.1476(5) 1.3842(5) -0.0725(3)
H25 H 0.1092 1.4372 -0.1066
C24 C 0.2389(5) 1.4130(5) -0.0261(4)
C25 C -0.0985(4) 0.4916(5) -0.2057(3)
H26 H -0.1381 0.4316 -0.2268
C26 C 0.2363(6) 0.7739(6) 0.1808(6)
H27 H 0.1741 0.7459 0.1490
H28 H 0.2385 0.7788 0.2369
C27 C 0.4500(4) 0.8676(6) -0.1051(4)
H29 H 0.4983 0.8184 -0.1045
loop_
_geom_bond_atom_site_label_1
_geom_bond_atom_site_label_2
_geom_bond_site_symmetry_1
_geom_bond_site_symmetry_2
Cl1 C19 1_555 1_555
P1 O1 1_555 1_555
N1 N2 1_555 1_555
N2 C6 1_555 1_555
O1 C3 1_555 1_555
O2 P1 1_555 1_555
O3 P1 1_555 1_555
C1 H1 1_555 1_555
H2 C1 1_555 1_555
H3 C1 1_555 1_555
C2 H4 1_555 1_555
H5 C2 1_555 1_555
H6 C2 1_555 1_555
C3 H7 1_555 1_555
H8 C3 1_555 1_555
C4 N3 1_555 1_555
C5 N1 1_555 1_555
C6 H9 1_555 1_555
C7 H10 1_555 1_555
N3 H11 1_555 1_555
C8 C5 1_555 1_555
C9 C5 1_555 1_555
C10 P1 1_555 1_555
H12 C10 1_555 1_555
C11 C3 1_555 1_555
H13 C11 1_555 1_555
H14 C11 1_555 1_555
H15 C11 1_555 1_555
C12 H16 1_555 1_555
C13 H17 1_555 1_555
C14 C4 1_555 1_555
H18 C14 1_555 1_555
C15 N2 1_555 1_555
C16 C8 1_555 1_555
H19 C16 1_555 1_555
C17 C12 1_555 1_555
H20 C17 1_555 1_555
C18 C7 1_555 1_555
H21 C18 1_555 1_555
C19 C13 1_555 1_555
C20 C8 1_555 1_555
H22 C20 1_555 1_555
C21 H23 1_555 1_555
C22 C4 1_555 1_555
H24 C22 1_555 1_555
C23 C14 1_555 1_555
H25 C23 1_555 1_555
C24 C1 1_555 1_555
C25 C17 1_555 1_555
H26 C25 1_555 1_555
C26 O3 1_555 1_555
H27 C26 1_555 1_555
H28 C26 1_555 1_555
C27 C19 1_555 1_555
H29 C27 1_555 1_555
C2 C26 1_555 1_555
C6 C9 1_555 1_555
C7 C15 1_555 1_555
N3 C10 1_555 1_555
C9 C10 1_555 1_555
C12 C15 1_555 1_555
C13 C16 1_555 1_555
C18 C25 1_555 1_555
C20 C27 1_555 1_555
C21 C22 1_555 1_555
C21 C24 1_555 1_555
C23 C24 1_555 1_555

#END
