
#######################################################################
#
#                 Cambridge Crystallographic Data Centre
#                                CCDC 
#
#######################################################################
#
# If this CIF has been generated from an entry in the Cambridge 
# Structural Database, then it will include bibliographic, chemical, 
# crystal, experimental, refinement or atomic coordinate data resulting 
# from the CCDC's data processing and validation procedures.
#
#######################################################################

data_YAKRIN
_chemical_formula_moiety         'C20 H24 O3'
_chemical_name_systematic        2-t-Butyl-6-cyclohexyloxy-1,4-naphthoquinone
_symmetry_cell_setting           triclinic
_symmetry_space_group_name_H-M   'P -1'
_symmetry_Int_Tables_number      2
_space_group_name_Hall           '-P 1'
loop_
_symmetry_equiv_pos_site_id
_symmetry_equiv_pos_as_xyz
1 x,y,z
2 -x,-y,-z
_cell_length_a                   6.012(3)
_cell_length_b                   10.495(5)
_cell_length_c                   14.060(6)
_cell_angle_alpha                86.706(12)
_cell_angle_beta                 79.892(12)
_cell_angle_gamma                81.886(10)
_cell_volume                     864.13
_exptl_crystal_colour            yellow
_exptl_crystal_description       prism
_cell_formula_units_Z            2
loop_
_atom_site_label
_atom_site_type_symbol
_atom_site_fract_x
_atom_site_fract_y
_atom_site_fract_z
O1 O 0.2551(2) 0.10146(14) 0.38493(10)
O2 O -0.2900(2) 0.46520(12) 0.59387(9)
O3 O 0.3208(2) 0.31862(12) 0.78858(8)
C1 C 0.5293(3) 0.26998(16) 0.82459(12)
C2 C 0.5194(4) 0.13545(19) 0.86825(14)
H1 H 0.5126 0.0766 0.8184
H2 H 0.3833 0.1344 0.9168
C3 C 0.7287(4) 0.0929(2) 0.91388(15)
H3 H 0.7204 0.0073 0.9430
H4 H 0.8634 0.0887 0.8642
C4 C 0.7495(4) 0.1837(3) 0.98963(15)
H5 H 0.8880 0.1555 1.0157
H6 H 0.6212 0.1824 1.0421
C5 C 0.7550(4) 0.3203(2) 0.94765(16)
H7 H 0.7563 0.3782 0.9988
H8 H 0.8931 0.3239 0.9007
C6 C 0.5488(4) 0.3631(2) 0.89941(15)
H9 H 0.4119 0.3698 0.9480
H10 H 0.5610 0.4477 0.8689
C7 C 0.0467(3) 0.31590(13) 0.58078(10)
C8 C 0.1920(3) 0.22543(13) 0.52272(11)
C9 C 0.1386(3) 0.19119(16) 0.42908(12)
C10 C -0.0604(3) 0.26729(14) 0.39174(11)
C11 C -0.1959(3) 0.35511(15) 0.44924(11)
H11 H -0.3214 0.4004 0.4263
C12 C -0.1589(3) 0.38426(14) 0.54607(11)
C13 C 0.3886(3) 0.16631(15) 0.55421(12)
H12 H 0.4885 0.1070 0.5153
C14 C 0.4388(3) 0.19394(15) 0.64235(12)
H13 H 0.5709 0.1532 0.6626
C15 C 0.2908(3) 0.28301(15) 0.70060(11)
C16 C 0.0945(3) 0.34450(14) 0.66974(11)
H14 H -0.0043 0.4045 0.7084
C17 C -0.1008(3) 0.24057(15) 0.29076(11)
C18 C -0.1551(4) 0.10269(18) 0.28795(15)
H15 H -0.0299 0.0431 0.3043
H16 H -0.1789 0.0866 0.2242
H17 H -0.2905 0.0920 0.3336
C19 C 0.1109(3) 0.2619(2) 0.21624(13)
H18 H 0.2404 0.2052 0.2317
H19 H 0.1388 0.3496 0.2174
H20 H 0.0860 0.2443 0.1530
C20 C -0.3046(3) 0.33238(19) 0.26405(14)
H21 H -0.2750 0.4198 0.2652
H22 H -0.4391 0.3202 0.3098
H23 H -0.3272 0.3146 0.2005
loop_
_geom_bond_atom_site_label_1
_geom_bond_atom_site_label_2
_geom_bond_site_symmetry_1
_geom_bond_site_symmetry_2
O1 C9 1_555 1_555
O2 C12 1_555 1_555
O3 C1 1_555 1_555
C1 C2 1_555 1_555
C2 H1 1_555 1_555
H2 C2 1_555 1_555
C3 C2 1_555 1_555
H3 C3 1_555 1_555
H4 C3 1_555 1_555
C4 C3 1_555 1_555
H5 C4 1_555 1_555
H6 C4 1_555 1_555
C5 C4 1_555 1_555
H7 C5 1_555 1_555
H8 C5 1_555 1_555
C6 C1 1_555 1_555
H9 C6 1_555 1_555
H10 C6 1_555 1_555
C7 C8 1_555 1_555
C8 C9 1_555 1_555
C9 C10 1_555 1_555
C10 C11 1_555 1_555
C11 H11 1_555 1_555
C12 C7 1_555 1_555
C13 C8 1_555 1_555
H12 C13 1_555 1_555
C14 C13 1_555 1_555
H13 C14 1_555 1_555
C15 O3 1_555 1_555
C16 C7 1_555 1_555
H14 C16 1_555 1_555
C17 C10 1_555 1_555
C18 C17 1_555 1_555
H15 C18 1_555 1_555
H16 C18 1_555 1_555
H17 C18 1_555 1_555
C19 C17 1_555 1_555
H18 C19 1_555 1_555
H19 C19 1_555 1_555
H20 C19 1_555 1_555
C20 C17 1_555 1_555
H21 C20 1_555 1_555
H22 C20 1_555 1_555
H23 C20 1_555 1_555
C5 C6 1_555 1_555
C11 C12 1_555 1_555
C14 C15 1_555 1_555
C15 C16 1_555 1_555

#END
