
#######################################################################
#
#                 Cambridge Crystallographic Data Centre
#                                CCDC 
#
#######################################################################
#
# If this CIF has been generated from an entry in the Cambridge 
# Structural Database, then it will include bibliographic, chemical, 
# crystal, experimental, refinement or atomic coordinate data resulting 
# from the CCDC's data processing and validation procedures.
#
#######################################################################

data_YALFIB
_chemical_name_common            
'1,2,3,4,5,6,7,8,9,10,11,12,13,14,15,16,17,18-Octadecamethoxy-hexa-peri-hexabenzocoronene bis(hexafluorobenzene) clathrate'
_chemical_formula_moiety         'C60 H54 O18,2(C6 F6)'
_chemical_name_systematic        
'1,2,3,4,5,6,7,8,9,10,11,12,13,14,15,16,17,18-Octadecamethoxy-hexabenzo(bc,ef,hi,kl,no,qr)coronene bis(hexafluorobenzene) clathrate'
_symmetry_cell_setting           triclinic
_symmetry_space_group_name_H-M   'P -1'
_symmetry_Int_Tables_number      2
_space_group_name_Hall           '-P 1'
loop_
_symmetry_equiv_pos_site_id
_symmetry_equiv_pos_as_xyz
1 x,y,z
2 -x,-y,-z
_cell_length_a                   11.1105(5)
_cell_length_b                   11.7330(5)
_cell_length_c                   13.0297(6)
_cell_angle_alpha                73.4251(13)
_cell_angle_beta                 88.9235(12)
_cell_angle_gamma                75.0981(13)
_cell_volume                     1570.48
_exptl_crystal_colour            orange
_exptl_crystal_description       prism
_cell_formula_units_Z            1
loop_
_atom_site_label
_atom_site_type_symbol
_atom_site_fract_x
_atom_site_fract_y
_atom_site_fract_z
O1 O 0.4384(3) 0.2278(2) 0.0160(2)
O2 O 0.6746(3) 0.2030(2) 0.0628(2)
O3 O 0.8890(2) 0.0165(2) 0.0861(2)
O4 O 0.9200(2) -0.2008(2) 0.2550(2)
O5 O 0.1507(2) 0.4587(2) 0.2046(2)
O6 O 0.2350(3) 0.4139(2) 0.0159(2)
O7 O 0.7961(2) -0.3736(2) 0.2918(2)
O8 O 0.8075(2) -0.5726(2) 0.4653(2)
O9 O 0.2474(3) 0.5472(2) 0.3377(2)
C1 C 0.4085(3) 0.2534(3) 0.1119(3)
C2 C 0.4760(3) 0.1801(3) 0.2081(3)
C3 C 0.4249(3) 0.1953(3) 0.3048(3)
C4 C 0.4656(3) 0.0983(3) 0.4044(3)
C5 C 0.4070(3) 0.1076(3) 0.5002(3)
C6 C 0.5562(3) -0.0115(3) 0.4038(3)
C7 C 0.6211(3) -0.0186(3) 0.3077(3)
C8 C 0.5919(3) 0.0840(3) 0.2139(3)
C9 C 0.6831(3) 0.0920(3) 0.1381(3)
C10 C 0.7931(3) -0.0031(3) 0.1522(3)
C11 C 0.8081(3) -0.1132(3) 0.2340(3)
C12 C 0.7187(3) -0.1241(3) 0.3103(3)
C13 C 0.7279(3) -0.2352(3) 0.4000(3)
C14 C 0.3199(3) 0.2226(3) 0.5014(3)
C15 C 0.2941(3) 0.3237(3) 0.4074(3)
C16 C 0.3261(3) 0.2998(3) 0.3048(3)
C17 C 0.2607(3) 0.3710(3) 0.2064(3)
C18 C 0.3018(3) 0.3473(3) 0.1113(3)
C19 C 0.7722(3) -0.3550(3) 0.3901(3)
C20 C 0.7800(3) -0.4574(3) 0.4799(3)
C21 C 0.2505(3) 0.4418(3) 0.4200(3)
C28 C 0.3707(5) 0.1483(4) -0.0058(4)
H1 H 0.3810(5) 0.0786(4) 0.0484(4)
H2 H 0.3946(5) 0.1397(4) -0.0733(4)
H3 H 0.2804(5) 0.1855(4) -0.0003(4)
C29 C 0.6888(4) 0.2012(4) -0.0467(3)
H4 H 0.6810(4) 0.2825(4) -0.0917(3)
H5 H 0.6260(4) 0.1694(4) -0.0680(3)
H6 H 0.7687(4) 0.1502(4) -0.0528(3)
C30 C 0.9795(5) 0.0569(5) 0.1330(4)
H7 H 1.0038(5) 0.0176(5) 0.2086(4)
H8 H 0.9379(5) 0.1371(5) 0.1461(4)
H9 H 1.0477(5) 0.0576(5) 0.0801(4)
C31 C 0.9751(4) -0.2492(4) 0.1695(3)
H10 H 1.0310(4) -0.3186(4) 0.1964(3)
H11 H 0.9999(4) -0.1894(4) 0.1132(3)
H12 H 0.9063(4) -0.2641(4) 0.1367(3)
C32 C 0.0430(4) 0.4200(5) 0.1882(5)
H13 H -0.0300(4) 0.4838(5) 0.1874(5)
H14 H 0.0413(4) 0.3484(5) 0.2446(5)
H15 H 0.0463(4) 0.4017(5) 0.1216(5)
C33 C 0.2481(5) 0.5380(4) -0.0214(4)
H16 H 0.2063(5) 0.5821(4) 0.0466(4)
H17 H 0.2071(5) 0.5849(4) -0.0894(4)
H18 H 0.3430(5) 0.5346(4) -0.0304(4)
C34 C 0.6931(4) -0.3996(4) 0.2460(4)
H19 H 0.6684(4) -0.4790(4) 0.2901(4)
H20 H 0.7103(4) -0.3849(4) 0.1694(4)
H21 H 0.6153(4) -0.3354(4) 0.2461(4)
C35 C 0.9328(4) -0.6447(4) 0.5023(5)
H22 H 0.9558(4) -0.6404(4) 0.5747(5)
H23 H 0.9375(4) -0.7101(4) 0.4824(5)
H24 H 0.9961(4) -0.6107(4) 0.4502(5)
C36 C 0.3677(5) 0.5639(4) 0.3123(4)
H25 H 0.3595(5) 0.6376(4) 0.2553(4)
H26 H 0.4081(5) 0.5697(4) 0.3735(4)
H27 H 0.4158(5) 0.4959(4) 0.2909(4)
O1A O 0.5616(3) -0.2278(2) 0.9840(2)
O2A O 0.3254(3) -0.2030(2) 0.9372(2)
O3A O 0.1110(2) -0.0165(2) 0.9139(2)
O4A O 0.0800(2) 0.2008(2) 0.7450(2)
O5A O 0.8493(2) -0.4587(2) 0.7954(2)
O6A O 0.7650(3) -0.4139(2) 0.9841(2)
O7A O 0.2039(2) 0.3736(2) 0.7082(2)
O8A O 0.1925(2) 0.5726(2) 0.5347(2)
O9A O 0.7526(3) -0.5472(2) 0.6623(2)
C1A C 0.5915(3) -0.2534(3) 0.8881(3)
C2A C 0.5240(3) -0.1801(3) 0.7919(3)
C3A C 0.5751(3) -0.1953(3) 0.6952(3)
C4A C 0.5344(3) -0.0983(3) 0.5956(3)
C5A C 0.5930(3) -0.1076(3) 0.4998(3)
C6A C 0.4438(3) 0.0115(3) 0.5962(3)
C7A C 0.3789(3) 0.0186(3) 0.6923(3)
C8A C 0.4081(3) -0.0840(3) 0.7861(3)
C9A C 0.3169(3) -0.0920(3) 0.8619(3)
C10A C 0.2069(3) 0.0031(3) 0.8478(3)
C11A C 0.1919(3) 0.1132(3) 0.7660(3)
C12A C 0.2813(3) 0.1241(3) 0.6897(3)
C13A C 0.2721(3) 0.2352(3) 0.6000(3)
C14A C 0.6801(3) -0.2226(3) 0.4986(3)
C15A C 0.7059(3) -0.3237(3) 0.5926(3)
C16A C 0.6739(3) -0.2998(3) 0.6952(3)
C17A C 0.7393(3) -0.3710(3) 0.7936(3)
C18A C 0.6982(3) -0.3473(3) 0.8887(3)
C19A C 0.2278(3) 0.3550(3) 0.6099(3)
C20A C 0.2200(3) 0.4574(3) 0.5201(3)
C21A C 0.7495(3) -0.4418(3) 0.5800(3)
C28A C 0.6293(5) -0.1483(4) 1.0058(4)
H1A H 0.6190(5) -0.0786(4) 0.9516(4)
H2A H 0.6054(5) -0.1397(4) 1.0733(4)
H3A H 0.7196(5) -0.1855(4) 1.0003(4)
C29A C 0.3112(4) -0.2012(4) 1.0467(3)
H4A H 0.3190(4) -0.2825(4) 1.0917(3)
H5A H 0.3740(4) -0.1694(4) 1.0680(3)
H6A H 0.2313(4) -0.1502(4) 1.0528(3)
C30A C 0.0205(5) -0.0569(5) 0.8670(4)
H7A H -0.0038(5) -0.0176(5) 0.7914(4)
H8A H 0.0621(5) -0.1371(5) 0.8539(4)
H9A H -0.0477(5) -0.0576(5) 0.9199(4)
C31A C 0.0249(4) 0.2492(4) 0.8305(3)
H10A H -0.0310(4) 0.3186(4) 0.8036(3)
H11A H 0.0001(4) 0.1894(4) 0.8868(3)
H12A H 0.0937(4) 0.2641(4) 0.8633(3)
C32A C 0.9570(4) -0.4200(5) 0.8118(5)
H13A H 1.0300(4) -0.4838(5) 0.8126(5)
H14A H 0.9587(4) -0.3484(5) 0.7554(5)
H15A H 0.9537(4) -0.4017(5) 0.8784(5)
C33A C 0.7519(5) -0.5380(4) 1.0214(4)
H16A H 0.7937(5) -0.5821(4) 0.9534(4)
H17A H 0.7929(5) -0.5849(4) 1.0894(4)
H18A H 0.6570(5) -0.5346(4) 1.0304(4)
C34A C 0.3069(4) 0.3996(4) 0.7540(4)
H19A H 0.3316(4) 0.4790(4) 0.7099(4)
H20A H 0.2897(4) 0.3849(4) 0.8306(4)
H21A H 0.3847(4) 0.3354(4) 0.7539(4)
C35A C 0.0672(4) 0.6447(4) 0.4977(5)
H22A H 0.0442(4) 0.6404(4) 0.4253(5)
H23A H 0.0625(4) 0.7101(4) 0.5176(5)
H24A H 0.0039(4) 0.6107(4) 0.5498(5)
C36A C 0.6323(5) -0.5639(4) 0.6877(4)
H25A H 0.6405(5) -0.6376(4) 0.7447(4)
H26A H 0.5919(5) -0.5697(4) 0.6265(4)
H27A H 0.5842(5) -0.4959(4) 0.7091(4)
C22 C 0.6631(6) 0.2159(7) 0.5025(9)
C23 C 0.7511(8) 0.166(1) 0.4259(8)
C24 C 0.8294(6) 0.0484(8) 0.4733(8)
C25 C 0.8316(6) -0.0169(9) 0.5790(11)
C26 C 0.7568(7) 0.0304(7) 0.6355(9)
C27 C 0.6737(5) 0.1403(7) 0.6075(7)
F1 F 0.5779(4) 0.3212(4) 0.4775(7)
F2 F 0.7470(9) 0.2308(9) 0.3291(5)
F3 F 0.9093(4) -0.0028(6) 0.4119(5)
F4 F 0.9135(4) -0.1269(4) 0.6089(5)
F5 F 0.7611(5) -0.0413(5) 0.7435(5)
F6 F 0.5963(4) 0.1741(5) 0.6800(5)
loop_
_geom_bond_atom_site_label_1
_geom_bond_atom_site_label_2
_geom_bond_site_symmetry_1
_geom_bond_site_symmetry_2
O1 C1 1_555 1_555
O2 C9 1_555 1_555
O3 C10 1_555 1_555
O4 C11 1_555 1_555
O5 C17 1_555 1_555
O6 C18 1_555 1_555
O7 C19 1_555 1_555
O8 C20 1_555 1_555
O9 C21 1_555 1_555
C1 C2 1_555 1_555
C2 C3 1_555 1_555
C3 C4 1_555 1_555
C4 C5 1_555 1_555
C5 C14 1_555 1_555
C6 C4 1_555 1_555
C7 C6 1_555 1_555
C8 C2 1_555 1_555
C9 C8 1_555 1_555
C10 C9 1_555 1_555
C11 C10 1_555 1_555
C12 C7 1_555 1_555
C13 C12 1_555 1_555
C14 C15 1_555 1_555
C15 C16 1_555 1_555
C16 C3 1_555 1_555
C17 C16 1_555 1_555
C18 C1 1_555 1_555
C19 C13 1_555 1_555
C20 C19 1_555 1_555
C21 C15 1_555 1_555
C22 C23 1_555 1_555
C23 C24 1_555 1_555
C24 C25 1_555 1_555
C25 C26 1_555 1_555
C26 C27 1_555 1_555
C27 C22 1_555 1_555
F1 C22 1_555 1_555
F2 C23 1_555 1_555
F3 C24 1_555 1_555
F4 C25 1_555 1_555
F5 C26 1_555 1_555
F6 C27 1_555 1_555
C28 O1 1_555 1_555
H1 C28 1_555 1_555
H2 C28 1_555 1_555
H3 C28 1_555 1_555
C29 O2 1_555 1_555
H4 C29 1_555 1_555
H5 C29 1_555 1_555
H6 C29 1_555 1_555
C30 O3 1_555 1_555
H7 C30 1_555 1_555
H8 C30 1_555 1_555
H9 C30 1_555 1_555
C31 O4 1_555 1_555
H10 C31 1_555 1_555
H11 C31 1_555 1_555
H12 C31 1_555 1_555
C32 O5 1_555 1_555
H13 C32 1_555 1_555
H14 C32 1_555 1_555
H15 C32 1_555 1_555
C33 O6 1_555 1_555
H16 C33 1_555 1_555
H17 C33 1_555 1_555
H18 C33 1_555 1_555
C34 O7 1_555 1_555
H19 C34 1_555 1_555
H20 C34 1_555 1_555
H21 C34 1_555 1_555
C35 O8 1_555 1_555
H22 C35 1_555 1_555
H23 C35 1_555 1_555
H24 C35 1_555 1_555
C36 O9 1_555 1_555
H25 C36 1_555 1_555
H26 C36 1_555 1_555
H27 C36 1_555 1_555
O1A C1A 1_555 1_555
O2A C9A 1_555 1_555
O3A C10A 1_555 1_555
O4A C11A 1_555 1_555
O5A C17A 1_555 1_555
O6A C18A 1_555 1_555
O7A C19A 1_555 1_555
O8A C20A 1_555 1_555
O9A C21A 1_555 1_555
C1A C2A 1_555 1_555
C2A C3A 1_555 1_555
C3A C4A 1_555 1_555
C4A C5A 1_555 1_555
C5A C6 1_555 1_555
C6A C5 1_555 1_555
C7A C6A 1_555 1_555
C8A C2A 1_555 1_555
C9A C8A 1_555 1_555
C10A C9A 1_555 1_555
C11A C10A 1_555 1_555
C12A C7A 1_555 1_555
C13A C14 1_555 1_555
C14A C13 1_555 1_555
C15A C14A 1_555 1_555
C16A C3A 1_555 1_555
C17A C16A 1_555 1_555
C18A C1A 1_555 1_555
C19A C13A 1_555 1_555
C20A C21 1_555 1_555
C21A C20 1_555 1_555
C28A O1A 1_555 1_555
H1A C28A 1_555 1_555
H2A C28A 1_555 1_555
H3A C28A 1_555 1_555
C29A O2A 1_555 1_555
H4A C29A 1_555 1_555
H5A C29A 1_555 1_555
H6A C29A 1_555 1_555
C30A O3A 1_555 1_555
H7A C30A 1_555 1_555
H8A C30A 1_555 1_555
H9A C30A 1_555 1_555
C31A O4A 1_555 1_555
H10A C31A 1_555 1_555
H11A C31A 1_555 1_555
H12A C31A 1_555 1_555
C32A O5A 1_555 1_555
H13A C32A 1_555 1_555
H14A C32A 1_555 1_555
H15A C32A 1_555 1_555
C33A O6A 1_555 1_555
H16A C33A 1_555 1_555
H17A C33A 1_555 1_555
H18A C33A 1_555 1_555
C34A O7A 1_555 1_555
H19A C34A 1_555 1_555
H20A C34A 1_555 1_555
H21A C34A 1_555 1_555
C35A O8A 1_555 1_555
H22A C35A 1_555 1_555
H23A C35A 1_555 1_555
H24A C35A 1_555 1_555
C36A O9A 1_555 1_555
H25A C36A 1_555 1_555
H26A C36A 1_555 1_555
H27A C36A 1_555 1_555
C7 C8 1_555 1_555
C11 C12 1_555 1_555
C17 C18 1_555 1_555
C4A C6A 1_555 1_555
C5A C14A 1_555 1_555
C7A C8A 1_555 1_555
C11A C12A 1_555 1_555
C12A C13A 1_555 1_555
C15A C16A 1_555 1_555
C15A C21A 1_555 1_555
C17A C18A 1_555 1_555
C19A C20A 1_555 1_555

#END
