
#######################################################################
#
#                 Cambridge Crystallographic Data Centre
#                                CCDC 
#
#######################################################################
#
# If this CIF has been generated from an entry in the Cambridge 
# Structural Database, then it will include bibliographic, chemical, 
# crystal, experimental, refinement or atomic coordinate data resulting 
# from the CCDC's data processing and validation procedures.
#
#######################################################################

data_YALNIK
_chemical_formula_moiety         'C54 H42 O2 P2'
_chemical_name_systematic        
2-(2-(Diphenylphosphino)benzylidene)-3-(2-(diphenylphosphino)phenyl)-1,5-diphenylpentane-1,5-dione
_symmetry_cell_setting           monoclinic
_symmetry_space_group_name_H-M   'P 21/c'
_symmetry_Int_Tables_number      14
_space_group_name_Hall           '-P 2ybc'
loop_
_symmetry_equiv_pos_site_id
_symmetry_equiv_pos_as_xyz
1 x,y,z
2 -x,1/2+y,1/2-z
3 -x,-y,-z
4 x,1/2-y,1/2+z
_cell_length_a                   10.6118(7)
_cell_length_b                   20.8716(16)
_cell_length_c                   18.5327(14)
_cell_angle_alpha                90
_cell_angle_beta                 94.12(1)
_cell_angle_gamma                90
_cell_volume                     4094.11
_exptl_crystal_colour            colorless
_exptl_crystal_description       tabular
_cell_formula_units_Z            4
loop_
_atom_site_label
_atom_site_type_symbol
_atom_site_fract_x
_atom_site_fract_y
_atom_site_fract_z
P1 P 0.70913(3) 0.343805(18) 0.57610(2)
P2 P 0.28306(4) 0.273111(19) 0.26832(2)
O1 O 0.66595(10) 0.20269(6) 0.28707(6)
O2 O 0.31582(11) 0.09542(6) 0.34642(6)
C1 C 0.75916(13) 0.37415(7) 0.48923(8)
C2 C 0.70853(13) 0.34522(7) 0.42492(8)
C3 C 0.75856(14) 0.36058(7) 0.35958(8)
H1 H 0.7245 0.3411 0.3161
C4 C 0.85775(14) 0.40386(7) 0.35703(8)
H2 H 0.8921 0.4133 0.3123
C5 C 0.90602(14) 0.43318(7) 0.41988(8)
H3 H 0.9725 0.4635 0.4183
C6 C 0.85764(13) 0.41833(7) 0.48521(8)
H4 H 0.8919 0.4386 0.5282
C7 C 0.59827(13) 0.30158(7) 0.42484(8)
H5 H 0.5298 0.3153 0.4513
C8 C 0.58510(13) 0.24515(7) 0.39163(8)
C9 C 0.68769(13) 0.21487(7) 0.35110(8)
C10 C 0.55798(13) 0.38323(7) 0.58786(8)
C11 C 0.50206(14) 0.37074(8) 0.65239(8)
H6 H 0.5445 0.3443 0.6881
C12 C 0.38514(15) 0.39659(8) 0.66464(9)
H7 H 0.3488 0.3886 0.7091
C13 C 0.32116(15) 0.43396(7) 0.61233(9)
H8 H 0.2409 0.4515 0.6208
C14 C 0.37422(14) 0.44579(7) 0.54768(9)
H9 H 0.3297 0.4708 0.5114
C15 C 0.49291(14) 0.42106(7) 0.53560(8)
H10 H 0.5296 0.4300 0.4914
C16 C 0.81952(14) 0.38728(7) 0.63882(8)
C17 C 0.93970(14) 0.36065(8) 0.65175(8)
H11 H 0.9582 0.3206 0.6307
C18 C 1.03256(16) 0.39195(9) 0.69502(9)
H12 H 1.1140 0.3734 0.7033
C19 C 1.00609(17) 0.45014(9) 0.72600(9)
H13 H 1.0697 0.4720 0.7551
C20 C 0.88724(18) 0.47642(9) 0.71448(10)
H14 H 0.8689 0.5161 0.7366
C21 C 0.79398(16) 0.44554(8) 0.67094(9)
H15 H 0.7126 0.4643 0.6631
C22 C 0.81094(13) 0.19754(7) 0.38988(8)
C23 C 0.90089(14) 0.16713(7) 0.35046(8)
H16 H 0.8824 0.1581 0.3006
C24 C 1.01688(14) 0.15009(7) 0.38383(9)
H17 H 1.0778 0.1293 0.3568
C25 C 1.04441(14) 0.16328(7) 0.45641(9)
H18 H 1.1243 0.1518 0.4791
C26 C 0.95564(14) 0.19314(7) 0.49607(9)
H19 H 0.9751 0.2026 0.5458
C27 C 0.83827(14) 0.20927(7) 0.46338(8)
H20 H 0.7764 0.2284 0.4911
C28 C 0.26825(13) 0.27944(7) 0.36670(8)
C29 C 0.35284(13) 0.24428(7) 0.41392(8)
C30 C 0.34006(14) 0.24785(7) 0.48818(9)
H21 H 0.3963 0.2241 0.5202
C31 C 0.24758(14) 0.28497(8) 0.51639(9)
H22 H 0.2411 0.2868 0.5672
C32 C 0.16448(15) 0.31946(8) 0.47024(9)
H23 H 0.1007 0.3451 0.4893
C33 C 0.17496(14) 0.31641(7) 0.39636(9)
H24 H 0.1174 0.3400 0.3650
C34 C 0.46168(13) 0.20695(7) 0.38562(8)
H25 H 0.4399 0.1990 0.3330
C35 C 0.48262(14) 0.14090(7) 0.42208(9)
H26 H 0.4977 0.1468 0.4750
H27 H 0.5588 0.1207 0.4042
C36 C 0.36989(14) 0.09649(7) 0.40671(9)
C37 C 0.14060(14) 0.31411(7) 0.22948(8)
C38 C 0.14335(15) 0.36965(7) 0.18797(8)
H28 H 0.2219 0.3898 0.1812
C39 C 0.03202(15) 0.39589(8) 0.15619(9)
H29 H 0.0351 0.4341 0.1286
C40 C -0.08261(15) 0.36677(8) 0.16470(8)
H30 H -0.1584 0.3852 0.1435
C41 C -0.08679(15) 0.31043(8) 0.20422(9)
H31 H -0.1653 0.2897 0.2094
C42 C 0.02391(15) 0.28462(8) 0.23616(8)
H32 H 0.0203 0.2460 0.2631
C43 C 0.40400(14) 0.33347(8) 0.25290(9)
C44 C 0.41759(15) 0.39049(8) 0.29161(10)
H33 H 0.3670 0.3983 0.3309
C45 C 0.50479(17) 0.43616(9) 0.27287(12)
H34 H 0.5135 0.4751 0.2993
C46 C 0.57897(17) 0.42480(12) 0.21557(12)
H35 H 0.6374 0.4564 0.2023
C47 C 0.56839(17) 0.36808(12) 0.17798(11)
H36 H 0.6205 0.3602 0.1393
C48 C 0.48171(15) 0.32225(10) 0.19649(10)
H37 H 0.4751 0.2830 0.1706
C49 C 0.32669(14) 0.05377(7) 0.46481(9)
C50 C 0.22278(15) 0.01378(7) 0.44802(9)
H38 H 0.1841 0.0132 0.4002
C51 C 0.17608(17) -0.02476(8) 0.50036(10)
H39 H 0.1051 -0.0515 0.4885
C52 C 0.23185(16) -0.02468(8) 0.56989(10)
H40 H 0.1992 -0.0513 0.6057
C53 C 0.33489(16) 0.01384(8) 0.58750(9)
H41 H 0.3734 0.0139 0.6354
C54 C 0.38222(15) 0.05279(8) 0.53479(9)
H42 H 0.4537 0.0791 0.5470
loop_
_geom_bond_atom_site_label_1
_geom_bond_atom_site_label_2
_geom_bond_site_symmetry_1
_geom_bond_site_symmetry_2
P1 C1 1_555 1_555
P2 C28 1_555 1_555
O1 C9 1_555 1_555
O2 C36 1_555 1_555
C1 C2 1_555 1_555
C2 C3 1_555 1_555
C3 H1 1_555 1_555
C4 C3 1_555 1_555
H2 C4 1_555 1_555
C5 C4 1_555 1_555
H3 C5 1_555 1_555
C6 C1 1_555 1_555
H4 C6 1_555 1_555
C7 C2 1_555 1_555
H5 C7 1_555 1_555
C8 C7 1_555 1_555
C9 C8 1_555 1_555
C10 P1 1_555 1_555
C11 C10 1_555 1_555
H6 C11 1_555 1_555
C12 C11 1_555 1_555
H7 C12 1_555 1_555
C13 C12 1_555 1_555
H8 C13 1_555 1_555
C14 C13 1_555 1_555
H9 C14 1_555 1_555
C15 C10 1_555 1_555
H10 C15 1_555 1_555
C16 P1 1_555 1_555
C17 C16 1_555 1_555
H11 C17 1_555 1_555
C18 C17 1_555 1_555
H12 C18 1_555 1_555
C19 C18 1_555 1_555
H13 C19 1_555 1_555
C20 C19 1_555 1_555
H14 C20 1_555 1_555
C21 C16 1_555 1_555
H15 C21 1_555 1_555
C22 C9 1_555 1_555
C23 C22 1_555 1_555
H16 C23 1_555 1_555
C24 C23 1_555 1_555
H17 C24 1_555 1_555
C25 C24 1_555 1_555
H18 C25 1_555 1_555
C26 C25 1_555 1_555
H19 C26 1_555 1_555
C27 C22 1_555 1_555
H20 C27 1_555 1_555
C28 C29 1_555 1_555
C29 C30 1_555 1_555
C30 H21 1_555 1_555
C31 C30 1_555 1_555
H22 C31 1_555 1_555
C32 C31 1_555 1_555
H23 C32 1_555 1_555
C33 C28 1_555 1_555
H24 C33 1_555 1_555
C34 C8 1_555 1_555
H25 C34 1_555 1_555
C35 C34 1_555 1_555
H26 C35 1_555 1_555
H27 C35 1_555 1_555
C36 C35 1_555 1_555
C37 P2 1_555 1_555
C38 C37 1_555 1_555
H28 C38 1_555 1_555
C39 C38 1_555 1_555
H29 C39 1_555 1_555
C40 C39 1_555 1_555
H30 C40 1_555 1_555
C41 C40 1_555 1_555
H31 C41 1_555 1_555
C42 C37 1_555 1_555
H32 C42 1_555 1_555
C43 P2 1_555 1_555
C44 C43 1_555 1_555
H33 C44 1_555 1_555
C45 C44 1_555 1_555
H34 C45 1_555 1_555
C46 C45 1_555 1_555
H35 C46 1_555 1_555
C47 C46 1_555 1_555
H36 C47 1_555 1_555
C48 C43 1_555 1_555
H37 C48 1_555 1_555
C49 C36 1_555 1_555
C50 C49 1_555 1_555
H38 C50 1_555 1_555
C51 C50 1_555 1_555
H39 C51 1_555 1_555
C52 C51 1_555 1_555
H40 C52 1_555 1_555
C53 C52 1_555 1_555
H41 C53 1_555 1_555
C54 C49 1_555 1_555
H42 C54 1_555 1_555
C5 C6 1_555 1_555
C14 C15 1_555 1_555
C20 C21 1_555 1_555
C26 C27 1_555 1_555
C29 C34 1_555 1_555
C32 C33 1_555 1_555
C41 C42 1_555 1_555
C47 C48 1_555 1_555
C53 C54 1_555 1_555

#END
