
#######################################################################
#
#                 Cambridge Crystallographic Data Centre
#                                CCDC 
#
#######################################################################
#
# If this CIF has been generated from an entry in the Cambridge 
# Structural Database, then it will include bibliographic, chemical, 
# crystal, experimental, refinement or atomic coordinate data resulting 
# from the CCDC's data processing and validation procedures.
#
#######################################################################

data_YALTUC
_chemical_formula_moiety         'C6 H8 N4 2+,2(C10 H6 N1 O4 1-)'
_chemical_name_systematic        
"2,2'-Bi-imidazoledi-ium bis(N-phthaloylglycinate)"
_symmetry_cell_setting           monoclinic
_symmetry_space_group_name_H-M   'P 21/n'
_symmetry_Int_Tables_number      14
_space_group_name_Hall           '-P 2yn'
loop_
_symmetry_equiv_pos_site_id
_symmetry_equiv_pos_as_xyz
1 x,y,z
2 1/2-x,1/2+y,1/2-z
3 -x,-y,-z
4 1/2+x,1/2-y,1/2+z
_cell_length_a                   15.3775(14)
_cell_length_b                   5.3200(6)
_cell_length_c                   16.4689(18)
_cell_angle_alpha                90
_cell_angle_beta                 115.418(2)
_cell_angle_gamma                90
_cell_volume                     1216.88
_exptl_crystal_colour            colorless
_exptl_crystal_description       needle
_cell_formula_units_Z            2
loop_
_atom_site_label
_atom_site_type_symbol
_atom_site_fract_x
_atom_site_fract_y
_atom_site_fract_z
N1 N 0.8820(2) 0.6023(6) 0.06669(19)
O1 O 0.62357(19) 0.5762(5) -0.04292(17)
O2 O 0.73211(19) 0.3536(6) 0.0686(2)
O3 O 0.8982(2) 0.8426(6) 0.1878(2)
O4 O 0.8962(2) 0.2843(6) -0.0207(2)
C1 C 0.7081(3) 0.5253(8) 0.0112(2)
C2 C 0.7864(3) 0.6863(8) 0.0064(3)
H3 H 0.7803 0.6846 -0.0547
H4 H 0.7779 0.8584 0.0212
C3 C 0.9279(3) 0.6803(8) 0.1556(3)
C4 C 0.9262(3) 0.3958(8) 0.0502(3)
C5 C 1.0138(3) 0.3484(7) 0.1359(2)
C6 C 1.0148(3) 0.5204(7) 0.1981(2)
C7 C 1.0875(3) 0.5221(8) 0.2845(3)
H5 H 1.0888 0.6400 0.3267
C8 C 1.1580(3) 0.3422(9) 0.3054(3)
H6 H 1.2078 0.3382 0.3631
C9 C 1.1565(3) 0.1683(9) 0.2434(3)
H7 H 1.2050 0.0480 0.2601
C10 C 1.0841(3) 0.1681(8) 0.1561(3)
H8 H 1.0833 0.0521 0.1135
N2 N 0.6180(2) 1.0483(6) 0.0965(2)
H1 H 0.6456 1.1726 0.0836
N3 N 0.5141(2) 0.7635(6) 0.0862(2)
H2 H 0.4633 0.6713 0.0654
C11 C 0.5316(3) 0.9561(7) 0.0441(2)
C12 C 0.5906(3) 0.7369(9) 0.1684(3)
H9 H 0.5969 0.6189 0.2122
C13 C 0.6550(3) 0.9136(9) 0.1735(3)
H10 H 0.7146 0.9390 0.2217
N2B N 0.3820(2) 0.9517(6) -0.0965(2)
H1B H 0.3544 0.8274 -0.0836
N3B N 0.4859(2) 1.2365(6) -0.0862(2)
H2B H 0.5367 1.3287 -0.0654
C11B C 0.4684(3) 1.0439(7) -0.0441(2)
C12B C 0.4094(3) 1.2631(9) -0.1684(3)
H9B H 0.4031 1.3811 -0.2122
C13B C 0.3450(3) 1.0864(9) -0.1735(3)
H10B H 0.2854 1.0610 -0.2217
loop_
_geom_bond_atom_site_label_1
_geom_bond_atom_site_label_2
_geom_bond_site_symmetry_1
_geom_bond_site_symmetry_2
N1 C2 1_555 1_555
N2 H1 1_555 1_555
N3 H2 1_555 1_555
O1 C1 1_555 1_555
O2 C1 1_555 1_555
O3 C3 1_555 1_555
O4 C4 1_555 1_555
C1 C2 1_555 1_555
C2 H3 1_555 1_555
H4 C2 1_555 1_555
C3 N1 1_555 1_555
C4 N1 1_555 1_555
C5 C4 1_555 1_555
C6 C3 1_555 1_555
C7 C6 1_555 1_555
H5 C7 1_555 1_555
C8 C7 1_555 1_555
H6 C8 1_555 1_555
C9 C8 1_555 1_555
H7 C9 1_555 1_555
C10 C5 1_555 1_555
H8 C10 1_555 1_555
C11 N2 1_555 1_555
C12 N3 1_555 1_555
H9 C12 1_555 1_555
C13 N2 1_555 1_555
H10 C13 1_555 1_555
N2B H1B 1_555 1_555
N3B H2B 1_555 1_555
C11B C11 1_555 1_555
C12B N3B 1_555 1_555
H9B C12B 1_555 1_555
C13B N2B 1_555 1_555
H10B C13B 1_555 1_555
N3 C11 1_555 1_555
C5 C6 1_555 1_555
C9 C10 1_555 1_555
C12 C13 1_555 1_555
N2B C11B 1_555 1_555
N3B C11B 1_555 1_555
C12B C13B 1_555 1_555

#END
