
#######################################################################
#
#                 Cambridge Crystallographic Data Centre
#                                CCDC 
#
#######################################################################
#
# If this CIF has been generated from an entry in the Cambridge 
# Structural Database, then it will include bibliographic, chemical, 
# crystal, experimental, refinement or atomic coordinate data resulting 
# from the CCDC's data processing and validation procedures.
#
#######################################################################

data_YALXEP
_chemical_name_common            
20-p-tolyl-5,14-dioxa-19-aza-tricyclo(16.3.1.0$7,12!)docosa-1(21),7,9,11,18(22),19-hexaene
_chemical_formula_moiety         'C26 H29 N1 O2'
_chemical_name_systematic        
1^6^-p-tolyl-7(1,2)-benzena-1(2,4)pyridina-5,9-dioxacyclododecaphane
_symmetry_cell_setting           triclinic
_symmetry_space_group_name_H-M   'P -1'
_symmetry_Int_Tables_number      2
_space_group_name_Hall           '-P 1'
loop_
_symmetry_equiv_pos_site_id
_symmetry_equiv_pos_as_xyz
1 x,y,z
2 -x,-y,-z
_cell_length_a                   5.3589(5)
_cell_length_b                   9.9265(9)
_cell_length_c                   20.0854(19)
_cell_angle_alpha                90.084(2)
_cell_angle_beta                 96.144(2)
_cell_angle_gamma                94.173(2)
_cell_volume                     1059.45
_exptl_crystal_colour            colorless
_exptl_crystal_description       parallelepiped
_cell_formula_units_Z            2
_exptl_crystal_recrystallization_method chloroform
loop_
_atom_site_label
_atom_site_type_symbol
_atom_site_fract_x
_atom_site_fract_y
_atom_site_fract_z
C1 C 0.2862(3) 0.37632(16) 0.19973(8)
C2 C 0.2252(4) 0.3900(2) 0.12481(9)
H1 H 0.228(3) 0.4876(17) 0.1118(8)
H2 H 0.359(3) 0.3469(14) 0.1020(7)
C3 C -0.0316(4) 0.32276(18) 0.09747(10)
H3 H -0.167(3) 0.3751(16) 0.1136(8)
H4 H -0.045(3) 0.3241(15) 0.0475(9)
C4 C -0.0768(3) 0.18028(18) 0.12132(10)
H5 H -0.243(3) 0.1395(14) 0.1013(7)
H6 H -0.069(3) 0.1806(14) 0.1719(8)
O1 O 0.1141(2) 0.09892(11) 0.10281(5)
C5 C 0.1216(4) -0.01803(19) 0.14337(10)
H7 H 0.168(3) 0.0132(17) 0.1954(9)
H8 H -0.047(3) -0.0686(17) 0.1388(8)
C6 C 0.3080(3) -0.11208(16) 0.12299(8)
C7 C 0.3704(4) -0.11641(19) 0.05798(9)
H9 H 0.291(3) -0.0569(16) 0.0256(8)
C8 C 0.5403(4) -0.20438(19) 0.03950(10)
H10 H 0.588(3) -0.2056(18) -0.0075(10)
C9 C 0.6479(4) -0.29067(19) 0.08561(10)
H11 H 0.770(3) -0.3535(17) 0.0709(8)
C10 C 0.5859(4) -0.28799(18) 0.15099(10)
H12 H 0.654(3) -0.3473(17) 0.1834(9)
C11 C 0.4188(3) -0.19876(16) 0.17056(8)
C12 C 0.3607(4) -0.19358(19) 0.24231(9)
H13 H 0.172(3) -0.1814(15) 0.2479(8)
H14 H 0.413(3) -0.2776(16) 0.2665(8)
O2 O 0.5047(2) -0.07849(11) 0.27418(5)
C13 C 0.3994(4) -0.0285(2) 0.33084(9)
H15 H 0.351(3) -0.1075(16) 0.3595(8)
H16 H 0.248(3) 0.0158(15) 0.3152(7)
C14 C 0.5943(4) 0.06930(18) 0.36826(9)
H17 H 0.738(3) 0.0170(15) 0.3885(7)
H18 H 0.518(3) 0.1087(15) 0.4068(8)
C15 C 0.7003(4) 0.18149(18) 0.32480(10)
H19 H 0.779(3) 0.1385(14) 0.2891(7)
H20 H 0.836(3) 0.2363(16) 0.3539(9)
C16 C 0.5109(3) 0.27467(15) 0.29507(8)
N1 N 0.4046(3) 0.35404(13) 0.33785(7)
C17 C 0.2421(3) 0.44396(15) 0.31209(8)
C18 C 0.1832(3) 0.45642(16) 0.24416(8)
H21 H 0.083(3) 0.5149(16) 0.2287(8)
C19 C 0.4497(3) 0.28388(17) 0.22656(9)
H22 H 0.523(3) 0.2265(13) 0.1998(7)
C20 C 0.1379(3) 0.53273(15) 0.36047(8)
C21 C -0.0759(3) 0.59995(17) 0.34277(9)
H23 H -0.168(3) 0.5864(14) 0.2987(8)
C22 C -0.1674(4) 0.68553(17) 0.38747(9)
H24 H -0.316(3) 0.7310(16) 0.3728(8)
C23 C -0.0494(3) 0.70647(15) 0.45178(8)
C24 C 0.1635(3) 0.63829(17) 0.46974(9)
H25 H 0.246(3) 0.6496(14) 0.5151(8)
C25 C 0.2570(3) 0.55349(17) 0.42519(8)
H26 H 0.412(3) 0.5070(16) 0.4390(8)
C26 C -0.1523(5) 0.7966(2) 0.50076(11)
H27 H -0.304(4) 0.8331(18) 0.4835(9)
H28 H -0.034(4) 0.877(2) 0.5146(10)
H29 H -0.183(4) 0.754(2) 0.5404(11)
loop_
_geom_bond_atom_site_label_1
_geom_bond_atom_site_label_2
_geom_bond_site_symmetry_1
_geom_bond_site_symmetry_2
C1 C2 1_555 1_555
C2 H1 1_555 1_555
H2 C2 1_555 1_555
C3 C2 1_555 1_555
H3 C3 1_555 1_555
H4 C3 1_555 1_555
C4 C3 1_555 1_555
H5 C4 1_555 1_555
H6 C4 1_555 1_555
O1 C4 1_555 1_555
C5 O1 1_555 1_555
H7 C5 1_555 1_555
H8 C5 1_555 1_555
C6 C5 1_555 1_555
C7 C6 1_555 1_555
H9 C7 1_555 1_555
C8 C7 1_555 1_555
H10 C8 1_555 1_555
C9 C8 1_555 1_555
H11 C9 1_555 1_555
C10 C9 1_555 1_555
H12 C10 1_555 1_555
C11 C6 1_555 1_555
C12 C11 1_555 1_555
H13 C12 1_555 1_555
H14 C12 1_555 1_555
O2 C12 1_555 1_555
C13 O2 1_555 1_555
H15 C13 1_555 1_555
H16 C13 1_555 1_555
C14 C13 1_555 1_555
H17 C14 1_555 1_555
H18 C14 1_555 1_555
C15 C14 1_555 1_555
H19 C15 1_555 1_555
H20 C15 1_555 1_555
C16 C15 1_555 1_555
N1 C16 1_555 1_555
C17 N1 1_555 1_555
C18 C1 1_555 1_555
H21 C18 1_555 1_555
C19 C1 1_555 1_555
H22 C19 1_555 1_555
C20 C17 1_555 1_555
C21 C20 1_555 1_555
H23 C21 1_555 1_555
C22 C21 1_555 1_555
H24 C22 1_555 1_555
C23 C22 1_555 1_555
C24 C23 1_555 1_555
H25 C24 1_555 1_555
C25 C20 1_555 1_555
H26 C25 1_555 1_555
C26 C23 1_555 1_555
H27 C26 1_555 1_555
H28 C26 1_555 1_555
H29 C26 1_555 1_555
C10 C11 1_555 1_555
C16 C19 1_555 1_555
C17 C18 1_555 1_555
C24 C25 1_555 1_555

#END
