
#######################################################################
#
#                 Cambridge Crystallographic Data Centre
#                                CCDC 
#
#######################################################################
#
# If this CIF has been generated from an entry in the Cambridge 
# Structural Database, then it will include bibliographic, chemical, 
# crystal, experimental, refinement or atomic coordinate data resulting 
# from the CCDC's data processing and validation procedures.
#
#######################################################################

data_YALXIT
_chemical_formula_moiety         'C22 H24 O8'
_chemical_name_systematic        
'Dimethyl 6,7,9,14,16,17-hexahydro-5,8,15,18-tetraoxadibenzo(a,h)cyclotetradecene-11,12-dicarboxylate'
_symmetry_cell_setting           orthorhombic
_symmetry_space_group_name_H-M   'P b c a'
_symmetry_Int_Tables_number      61
_space_group_name_Hall           '-P 2ac 2ab'
loop_
_symmetry_equiv_pos_site_id
_symmetry_equiv_pos_as_xyz
1 x,y,z
2 1/2-x,-y,1/2+z
3 -x,1/2+y,1/2-z
4 1/2+x,1/2-y,-z
5 -x,-y,-z
6 1/2+x,y,1/2-z
7 x,1/2-y,1/2+z
8 1/2-x,1/2+y,z
_cell_length_a                   16.4185(19)
_cell_length_b                   8.2130(10)
_cell_length_c                   29.691(3)
_cell_angle_alpha                90
_cell_angle_beta                 90
_cell_angle_gamma                90
_cell_volume                     4003.69
_exptl_crystal_colour            colorless
_exptl_crystal_description       'thin plate'
_cell_formula_units_Z            8
_exptl_crystal_recrystallization_method chloroform
loop_
_atom_site_label
_atom_site_type_symbol
_atom_site_fract_x
_atom_site_fract_y
_atom_site_fract_z
C1 C 0.43299(13) -0.1218(3) 0.09140(7)
H1 H 0.4897 -0.1442 0.0925
C2 C 0.38557(14) -0.1916(2) 0.05823(7)
H2 H 0.4099 -0.2610 0.0365
C3 C 0.30367(14) -0.1614(3) 0.05651(7)
H3 H 0.2714 -0.2097 0.0335
C4 C 0.26753(13) -0.0601(2) 0.08834(6)
H4 H 0.2106 -0.0396 0.0872
O1 O 0.28527(7) 0.10963(15) 0.15488(4)
C5 C 0.19985(11) 0.1064(2) 0.16413(6)
H5 H 0.1809 -0.0069 0.1686
H6 H 0.1689 0.1551 0.1389
C6 C 0.18830(11) 0.2039(2) 0.20614(6)
H7 H 0.2123 0.3136 0.2024
H8 H 0.1295 0.2164 0.2126
O2 O 0.22746(7) 0.12053(14) 0.24237(4)
C7 C 0.25296(11) 0.2272(2) 0.27739(6)
H9 H 0.2048 0.2750 0.2925
H10 H 0.2859 0.3170 0.2646
C8 C 0.26855(11) 0.0898(2) 0.35186(6)
H11 H 0.2138 0.1202 0.3580
C9 C 0.31190(11) 0.0033(2) 0.38428(6)
C10 C 0.39304(11) -0.0364(2) 0.37577(6)
C11 C 0.42801(11) 0.0047(2) 0.33479(6)
H12 H 0.4833 -0.0228 0.3292
C12 C 0.42031(11) 0.1191(2) 0.25586(6)
H13 H 0.3818 0.0854 0.2319
H14 H 0.4308 0.2372 0.2525
O3 O 0.49427(8) 0.03135(16) 0.25152(4)
C13 C 0.54144(11) 0.0745(3) 0.21296(6)
H15 H 0.5993 0.0484 0.2190
H16 H 0.5375 0.1936 0.2083
C14 C 0.51599(11) -0.0098(3) 0.17036(7)
H17 H 0.5572 0.0077 0.1465
H18 H 0.5105 -0.1283 0.1756
O4 O 0.43940(8) 0.05774(16) 0.15696(4)
C15 C 0.31441(12) 0.0103(2) 0.12153(6)
C16 C 0.30297(11) 0.13262(19) 0.31095(6)
C17 C 0.38356(11) 0.0856(2) 0.30156(6)
C18 C 0.39842(12) -0.0197(2) 0.12288(6)
C19 C 0.27371(12) -0.0399(2) 0.42814(7)
O5 O 0.19538(8) -0.07515(17) 0.42307(4)
C20 C 0.14929(13) -0.1116(3) 0.46313(7)
H19 H 0.1026 -0.0377 0.4652
H20 H 0.1841 -0.0976 0.4897
H21 H 0.1299 -0.2244 0.4618
O6 O 0.30891(9) -0.0417(2) 0.46354(5)
C21 C 0.44038(11) -0.1395(2) 0.40831(6)
O7 O 0.50516(8) -0.06216(16) 0.42438(5)
C22 C 0.55412(13) -0.1548(3) 0.45579(7)
H22 H 0.5947 -0.0832 0.4697
H23 H 0.5819 -0.2430 0.4397
H24 H 0.5190 -0.2010 0.4792
O8 O 0.42301(9) -0.27645(17) 0.41731(5)
loop_
_geom_bond_atom_site_label_1
_geom_bond_atom_site_label_2
_geom_bond_site_symmetry_1
_geom_bond_site_symmetry_2
C1 H1 1_555 1_555
C2 C1 1_555 1_555
H2 C2 1_555 1_555
C3 C2 1_555 1_555
H3 C3 1_555 1_555
C4 C3 1_555 1_555
H4 C4 1_555 1_555
O1 C5 1_555 1_555
C5 H5 1_555 1_555
H6 C5 1_555 1_555
C6 C5 1_555 1_555
H7 C6 1_555 1_555
H8 C6 1_555 1_555
O2 C6 1_555 1_555
C7 O2 1_555 1_555
H9 C7 1_555 1_555
H10 C7 1_555 1_555
C8 H11 1_555 1_555
C9 C8 1_555 1_555
C10 C9 1_555 1_555
C11 C10 1_555 1_555
H12 C11 1_555 1_555
C12 H13 1_555 1_555
H14 C12 1_555 1_555
O3 C12 1_555 1_555
C13 O3 1_555 1_555
H15 C13 1_555 1_555
H16 C13 1_555 1_555
C14 C13 1_555 1_555
H17 C14 1_555 1_555
H18 C14 1_555 1_555
O4 C14 1_555 1_555
C15 C4 1_555 1_555
C16 C7 1_555 1_555
C17 C11 1_555 1_555
C18 C1 1_555 1_555
C19 C9 1_555 1_555
O5 C19 1_555 1_555
C20 O5 1_555 1_555
H19 C20 1_555 1_555
H20 C20 1_555 1_555
H21 C20 1_555 1_555
O6 C19 1_555 1_555
C21 C10 1_555 1_555
O7 C21 1_555 1_555
C22 O7 1_555 1_555
H22 C22 1_555 1_555
H23 C22 1_555 1_555
H24 C22 1_555 1_555
O8 C21 1_555 1_555
O1 C15 1_555 1_555
C8 C16 1_555 1_555
C12 C17 1_555 1_555
O4 C18 1_555 1_555
C15 C18 1_555 1_555
C16 C17 1_555 1_555

#END
