
#######################################################################
#
#                 Cambridge Crystallographic Data Centre
#                                CCDC 
#
#######################################################################
#
# If this CIF has been generated from an entry in the Cambridge 
# Structural Database, then it will include bibliographic, chemical, 
# crystal, experimental, refinement or atomic coordinate data resulting 
# from the CCDC's data processing and validation procedures.
#
#######################################################################

data_YAMBEV
_chemical_name_common            9-methoxycannabilactone
_chemical_formula_moiety         'C23 H28 O4'
_chemical_name_systematic        
1-Hydroxy-9-methoxy-3-(2-methyloctan-2-yl)-6H-benzo[c]chromen-6-one
_symmetry_cell_setting           triclinic
_symmetry_space_group_name_H-M   'P -1'
_symmetry_Int_Tables_number      2
_space_group_name_Hall           '-P 1'
loop_
_symmetry_equiv_pos_site_id
_symmetry_equiv_pos_as_xyz
1 x,y,z
2 -x,-y,-z
_cell_length_a                   6.7679(10)
_cell_length_b                   8.794(3)
_cell_length_c                   17.880(5)
_cell_angle_alpha                96.68(2)
_cell_angle_beta                 99.738(11)
_cell_angle_gamma                92.501(16)
_cell_volume                     1039.53
_chemical_melting_point          '422-424 K'
_cell_formula_units_Z            2
loop_
_atom_site_label
_atom_site_type_symbol
_atom_site_fract_x
_atom_site_fract_y
_atom_site_fract_z
O1 O 0.2511(5) 0.1458(3) 0.5227(1)
C1 C 0.2830(5) 0.2540(4) 0.5844(2)
C2 C 0.3727(6) 0.2659(4) 0.8024(2)
C3 C 0.5005(7) 0.1274(5) 0.8057(2)
C4 C 0.1605(7) 0.2201(6) 0.8160(3)
C5 C 0.3153(6) 0.2132(4) 0.6576(2)
C6 C 0.4686(6) 0.3943(5) 0.8658(2)
C7 C 0.3476(5) 0.3196(4) 0.7225(2)
C8 C 0.6857(6) 0.4467(5) 0.8655(2)
C9 C 0.3124(5) 0.5135(4) 0.6383(2)
C10 C 0.3438(5) 0.4732(4) 0.7116(2)
C11 C 0.7535(6) 0.6004(5) 0.9114(2)
O2 O 0.3154(4) 0.6706(2) 0.6358(1)
C12 C 0.9737(6) 0.6450(5) 0.9138(2)
C13 C 0.2528(5) 0.6282(4) 0.4985(2)
O3 O 0.2948(5) 0.8710(3) 0.5756(2)
C14 C 0.2878(6) 0.7312(4) 0.5690(2)
C15 C 1.0410(8) 0.8066(6) 0.9535(3)
C16 C 0.2233(5) 0.6917(4) 0.4294(2)
C17 C 1.2584(8) 0.8504(7) 0.9526(3)
C18 C 0.1892(5) 0.6005(5) 0.3614(2)
O4 O 0.1498(4) 0.3585(3) 0.2899(1)
C19 C 0.1857(5) 0.4421(4) 0.3600(2)
C20 C 0.2801(5) 0.4095(4) 0.5719(2)
C21 C 0.2485(4) 0.4694(4) 0.4981(2)
C22 C 0.2143(5) 0.3762(4) 0.4278(2)
C23 C 0.1458(9) 0.1960(5) 0.2854(3)
H1 H 0.2633 0.0607 0.5368
H2 H 0.5145 0.0956 0.8558
H3 H 0.6308 0.1546 0.7950
H4 H 0.4366 0.0448 0.7684
H5 H 0.1694 0.1857 0.8654
H6 H 0.0998 0.1389 0.7772
H7 H 0.0799 0.3072 0.8138
H8 H 0.3154 0.1095 0.6635
H9 H 0.3880 0.4825 0.8619
H10 H 0.4615 0.3595 0.9149
H11 H 0.7722 0.3703 0.8855
H12 H 0.7026 0.4515 0.8130
H13 H 0.3624 0.5489 0.7535
H14 H 0.7299 0.5980 0.9633
H15 H 0.6731 0.6783 0.8895
H16 H 0.9996 0.6373 0.8618
H17 H 1.0541 0.5722 0.9400
H18 H 0.9577 0.8794 0.9284
H19 H 1.0203 0.8134 1.0061
H20 H 0.2272 0.7977 0.4302
H21 H 1.2922 0.9527 0.9782
H22 H 1.2794 0.8463 0.9006
H23 H 1.3420 0.7803 0.9784
H24 H 0.1681 0.6437 0.3159
H25 H 0.2107 0.2701 0.4263
H26 H 0.1189 0.1521 0.2326
H27 H 0.0423 0.1600 0.3109
H28 H 0.2735 0.1660 0.3094
loop_
_geom_bond_atom_site_label_1
_geom_bond_atom_site_label_2
_geom_bond_site_symmetry_1
_geom_bond_site_symmetry_2
O1 C1 1_555 1_555
C1 C5 1_555 1_555
C2 C3 1_555 1_555
C3 H2 1_555 1_555
C4 C2 1_555 1_555
C5 C7 1_555 1_555
C6 C2 1_555 1_555
C7 C2 1_555 1_555
C8 C6 1_555 1_555
C9 C10 1_555 1_555
C10 C7 1_555 1_555
C11 C8 1_555 1_555
O2 C9 1_555 1_555
C12 C11 1_555 1_555
C13 C14 1_555 1_555
O3 C14 1_555 1_555
C14 O2 1_555 1_555
C15 C12 1_555 1_555
C16 C13 1_555 1_555
C17 C15 1_555 1_555
C18 C16 1_555 1_555
O4 C19 1_555 1_555
C19 C18 1_555 1_555
C20 C1 1_555 1_555
C21 C13 1_555 1_555
C22 C19 1_555 1_555
C23 O4 1_555 1_555
H1 O1 1_555 1_555
H3 C3 1_555 1_555
H4 C3 1_555 1_555
H5 C4 1_555 1_555
H6 C4 1_555 1_555
H7 C4 1_555 1_555
H8 C5 1_555 1_555
H9 C6 1_555 1_555
H10 C6 1_555 1_555
H11 C8 1_555 1_555
H12 C8 1_555 1_555
H13 C10 1_555 1_555
H14 C11 1_555 1_555
H15 C11 1_555 1_555
H16 C12 1_555 1_555
H17 C12 1_555 1_555
H18 C15 1_555 1_555
H19 C15 1_555 1_555
H20 C16 1_555 1_555
H21 C17 1_555 1_555
H22 C17 1_555 1_555
H23 C17 1_555 1_555
H24 C18 1_555 1_555
H25 C22 1_555 1_555
H26 C23 1_555 1_555
H27 C23 1_555 1_555
H28 C23 1_555 1_555
C9 C20 1_555 1_555
C20 C21 1_555 1_555
C21 C22 1_555 1_555

#END
