
#######################################################################
#
#                 Cambridge Crystallographic Data Centre
#                                CCDC 
#
#######################################################################
#
# If this CIF has been generated from an entry in the Cambridge 
# Structural Database, then it will include bibliographic, chemical, 
# crystal, experimental, refinement or atomic coordinate data resulting 
# from the CCDC's data processing and validation procedures.
#
#######################################################################

data_YAMKEE
_chemical_formula_moiety         'C16 H20 O2 S2 Si2'
_chemical_name_systematic        
2,7-bis(trimethylsilyl)thieno[3,2-g][1]benzothiophene-4,5-dione
_symmetry_cell_setting           orthorhombic
_symmetry_space_group_name_H-M   'P n n a'
_symmetry_Int_Tables_number      52
_space_group_name_Hall           '-P 2a 2bc'
loop_
_symmetry_equiv_pos_site_id
_symmetry_equiv_pos_as_xyz
1 x,y,z
2 1/2-x,-y,z
3 1/2-x,1/2+y,1/2-z
4 x,1/2-y,1/2-z
5 -x,-y,-z
6 1/2+x,y,-z
7 1/2+x,1/2-y,1/2+z
8 -x,1/2+y,1/2+z
_cell_length_a                   15.360(2)
_cell_length_b                   12.7830(16)
_cell_length_c                   19.119(2)
_cell_angle_alpha                90
_cell_angle_beta                 90
_cell_angle_gamma                90
_cell_volume                     3753.96
_exptl_crystal_colour            red
_exptl_crystal_description       block
_cell_formula_units_Z            8
loop_
_atom_site_label
_atom_site_type_symbol
_atom_site_fract_x
_atom_site_fract_y
_atom_site_fract_z
Si1 Si 0.14727(2) 0.32296(3) 0.998876(18)
S1 S 0.140619(19) 0.26763(2) 0.840195(16)
O1 O 0.46013(6) 0.27453(7) 0.81984(5)
C1 C 0.39092(8) 0.26146(9) 0.79029(6)
C2 C 0.30600(8) 0.26653(9) 0.82541(6)
C3 C 0.22983(8) 0.25797(9) 0.78742(6)
C4 C 0.28994(8) 0.28199(9) 0.89812(7)
H1 H 0.3351 0.2894 0.9317
C5 C 0.20298(8) 0.28522(9) 0.91501(6)
C6 C 0.11948(10) 0.46438(11) 0.98946(7)
H2 H 0.0795 0.4735 0.9500
H3 H 0.1728 0.5046 0.9810
H4 H 0.0916 0.4893 1.0325
C7 C 0.04657(10) 0.24386(13) 1.00876(8)
H5 H 0.0618 0.1695 1.0110
H6 H 0.0082 0.2561 0.9686
H7 H 0.0165 0.2642 1.0519
C8 C 0.22541(10) 0.30057(13) 1.07145(7)
H8 H 0.2767 0.3451 1.0648
H9 H 0.2432 0.2270 1.0718
H10 H 0.1975 0.3179 1.1161
Si1C Si 0.14727(2) 0.17704(3) 0.501124(18)
S1C S 0.140619(19) 0.23237(2) 0.659805(16)
O1C O 0.46013(6) 0.22547(7) 0.68016(5)
C1C C 0.39092(8) 0.23854(9) 0.70971(6)
C2C C 0.30600(8) 0.23347(9) 0.67459(6)
C3C C 0.22983(8) 0.24203(9) 0.71258(6)
C4C C 0.28994(8) 0.21801(9) 0.60188(7)
H1C H 0.3351 0.2106 0.5683
C5C C 0.20298(8) 0.21478(9) 0.58499(6)
C6C C 0.11948(10) 0.03562(11) 0.51054(7)
H2C H 0.0795 0.0265 0.5500
H3C H 0.1728 -0.0046 0.5190
H4C H 0.0916 0.0107 0.4675
C7C C 0.04657(10) 0.25614(13) 0.49124(8)
H5C H 0.0618 0.3305 0.4890
H6C H 0.0082 0.2439 0.5314
H7C H 0.0165 0.2358 0.4481
C8C C 0.22541(10) 0.19943(13) 0.42855(7)
H8C H 0.2767 0.1549 0.4352
H9C H 0.2432 0.2730 0.4282
H10C H 0.1975 0.1821 0.3839
Si2 Si 0.56827(2) 0.51949(3) 0.719899(19)
S2 S 0.363628(19) 0.50112(2) 0.729948(15)
O2 O 0.33902(7) 0.49606(9) 0.47359(5)
C9 C 0.30104(9) 0.49850(10) 0.52932(7)
C10 C 0.34480(8) 0.49925(9) 0.59721(7)
C11 C 0.29696(8) 0.49986(9) 0.65854(6)
C12 C 0.43605(8) 0.50093(10) 0.60986(7)
H11 H 0.4782 0.5005 0.5735
C13 C 0.45751(8) 0.50321(9) 0.67969(7)
C14 C 0.61195(9) 0.64268(11) 0.68157(8)
H12 H 0.5708 0.6999 0.6901
H13 H 0.6200 0.6336 0.6311
H14 H 0.6680 0.6594 0.7034
C15 C 0.63659(9) 0.40457(12) 0.69816(9)
H15 H 0.6471 0.4027 0.6476
H16 H 0.6065 0.3404 0.7125
H17 H 0.6923 0.4097 0.7229
C16 C 0.55482(9) 0.53014(12) 0.81653(7)
H18 H 0.5298 0.4651 0.8347
H19 H 0.5159 0.5887 0.8274
H20 H 0.6117 0.5423 0.8383
Si2A Si -0.06827(2) 0.48051(3) 0.719899(19)
S2A S 0.136372(19) 0.49888(2) 0.729948(15)
O2A O 0.16098(7) 0.50394(9) 0.47359(5)
C9A C 0.19896(9) 0.50150(10) 0.52932(7)
C10A C 0.15520(8) 0.50075(9) 0.59721(7)
C11A C 0.20304(8) 0.50014(9) 0.65854(6)
C12A C 0.06395(8) 0.49907(10) 0.60986(7)
H11A H 0.0218 0.4995 0.5735
C13A C 0.04249(8) 0.49679(9) 0.67969(7)
C14A C -0.11195(9) 0.35732(11) 0.68157(8)
H12A H -0.0708 0.3001 0.6901
H13A H -0.1200 0.3664 0.6311
H14A H -0.1680 0.3406 0.7034
C15A C -0.13659(9) 0.59543(12) 0.69816(9)
H15A H -0.1471 0.5973 0.6476
H16A H -0.1065 0.6596 0.7125
H17A H -0.1923 0.5903 0.7229
C16A C -0.05482(9) 0.46986(12) 0.81653(7)
H18A H -0.0298 0.5349 0.8347
H19A H -0.0159 0.4113 0.8274
H20A H -0.1117 0.4577 0.8383
loop_
_geom_bond_atom_site_label_1
_geom_bond_atom_site_label_2
_geom_bond_site_symmetry_1
_geom_bond_site_symmetry_2
Si1 C5 1_555 1_555
S1 C3 1_555 1_555
O1 C1 1_555 1_555
C1 C2 1_555 1_555
C2 C3 1_555 1_555
C3 C3C 1_555 1_555
C4 C2 1_555 1_555
H1 C4 1_555 1_555
C5 S1 1_555 1_555
C6 Si1 1_555 1_555
H2 C6 1_555 1_555
H3 C6 1_555 1_555
H4 C6 1_555 1_555
C7 Si1 1_555 1_555
H5 C7 1_555 1_555
H6 C7 1_555 1_555
H7 C7 1_555 1_555
C8 Si1 1_555 1_555
H8 C8 1_555 1_555
H9 C8 1_555 1_555
H10 C8 1_555 1_555
Si2 C13 1_555 1_555
S2 C11 1_555 1_555
O2 C9 1_555 1_555
C9 C10 1_555 1_555
C10 C11 1_555 1_555
C11 C11A 1_555 1_555
C12 C10 1_555 1_555
H11 C12 1_555 1_555
C13 S2 1_555 1_555
C14 Si2 1_555 1_555
H12 C14 1_555 1_555
H13 C14 1_555 1_555
H14 C14 1_555 1_555
C15 Si2 1_555 1_555
H15 C15 1_555 1_555
H16 C15 1_555 1_555
H17 C15 1_555 1_555
C16 Si2 1_555 1_555
H18 C16 1_555 1_555
H19 C16 1_555 1_555
H20 C16 1_555 1_555
Si1C C5C 1_555 1_555
S1C C3C 1_555 1_555
O1C C1C 1_555 1_555
C1C C1 1_555 1_555
C2C C1C 1_555 1_555
C3C C2C 1_555 1_555
C4C C2C 1_555 1_555
H1C C4C 1_555 1_555
C5C S1C 1_555 1_555
C6C Si1C 1_555 1_555
H2C C6C 1_555 1_555
H3C C6C 1_555 1_555
H4C C6C 1_555 1_555
C7C Si1C 1_555 1_555
H5C C7C 1_555 1_555
H6C C7C 1_555 1_555
H7C C7C 1_555 1_555
C8C Si1C 1_555 1_555
H8C C8C 1_555 1_555
H9C C8C 1_555 1_555
H10C C8C 1_555 1_555
Si2A C13A 1_555 1_555
S2A C11A 1_555 1_555
O2A C9A 1_555 1_555
C9A C9 1_555 1_555
C10A C9A 1_555 1_555
C11A C10A 1_555 1_555
C12A C10A 1_555 1_555
H11A C12A 1_555 1_555
C13A S2A 1_555 1_555
C14A Si2A 1_555 1_555
H12A C14A 1_555 1_555
H13A C14A 1_555 1_555
H14A C14A 1_555 1_555
C15A Si2A 1_555 1_555
H15A C15A 1_555 1_555
H16A C15A 1_555 1_555
H17A C15A 1_555 1_555
C16A Si2A 1_555 1_555
H18A C16A 1_555 1_555
H19A C16A 1_555 1_555
H20A C16A 1_555 1_555
C4 C5 1_555 1_555
C12 C13 1_555 1_555
C4C C5C 1_555 1_555
C12A C13A 1_555 1_555

#END
