
#######################################################################
#
#                 Cambridge Crystallographic Data Centre
#                                CCDC 
#
#######################################################################
#
# If this CIF has been generated from an entry in the Cambridge 
# Structural Database, then it will include bibliographic, chemical, 
# crystal, experimental, refinement or atomic coordinate data resulting 
# from the CCDC's data processing and validation procedures.
#
#######################################################################

data_YAMNOQ
_chemical_formula_moiety         'C21 H29 Br1 O3,C1 H4 O1'
_chemical_name_systematic        
'16\b-Bromo-17\a-hydroxypregn-4-ene-3,20-dione methanol solvate'
_symmetry_cell_setting           orthorhombic
_symmetry_space_group_name_H-M   'P 21 21 21'
_symmetry_Int_Tables_number      19
_space_group_name_Hall           'P 2ac 2ab'
loop_
_symmetry_equiv_pos_site_id
_symmetry_equiv_pos_as_xyz
1 x,y,z
2 1/2-x,-y,1/2+z
3 1/2+x,1/2-y,-z
4 -x,1/2+y,1/2-z
_cell_length_a                   12.008(3)
_cell_length_b                   25.192(6)
_cell_length_c                   7.0192(12)
_cell_angle_alpha                90
_cell_angle_beta                 90
_cell_angle_gamma                90
_cell_volume                     2123.35
_exptl_crystal_colour            colorless
_exptl_crystal_description       block
_cell_formula_units_Z            4
loop_
_atom_site_label
_atom_site_type_symbol
_atom_site_fract_x
_atom_site_fract_y
_atom_site_fract_z
Br1 Br -0.12607(9) 0.87544(4) 0.16222(12)
O1 O 0.5151(6) 0.8119(3) 1.3759(10)
O2 O -0.1125(6) 1.0042(3) 0.4572(12)
O3 O -0.1555(5) 0.9017(3) 0.7367(8)
H1 H -0.2109 0.8814 0.7171
C1 C 0.3565(7) 0.9067(3) 1.1090(12)
H2 H 0.3590 0.9446 1.0842
H3 H 0.2948 0.9002 1.1951
C2 C 0.4638(7) 0.8905(3) 1.2076(14)
H4 H 0.5270 0.9017 1.1313
H5 H 0.4688 0.9081 1.3303
C3 C 0.4676(8) 0.8316(4) 1.2355(13)
C4 C 0.4161(8) 0.7997(3) 1.0933(14)
H6 H 0.4224 0.7630 1.1039
C5 C 0.3584(7) 0.8194(3) 0.9433(11)
C6 C 0.3198(8) 0.7835(3) 0.7827(15)
H7 H 0.3653 0.7900 0.6710
H8 H 0.3302 0.7468 0.8202
C7 C 0.1990(8) 0.7923(3) 0.7323(14)
H9 H 0.1804 0.7712 0.6211
H10 H 0.1525 0.7804 0.8370
C8 C 0.1748(7) 0.8499(3) 0.6916(11)
H11 H 0.2188 0.8609 0.5809
C9 C 0.2086(6) 0.8849(3) 0.8642(11)
H12 H 0.1651 0.8718 0.9726
C10 C 0.3336(6) 0.8777(3) 0.9210(10)
C11 C 0.1751(7) 0.9437(3) 0.8382(15)
H13 H 0.1897 0.9626 0.9558
H14 H 0.2212 0.9593 0.7395
C12 C 0.0524(7) 0.9510(3) 0.7845(11)
H15 H 0.0055 0.9397 0.8894
H16 H 0.0376 0.9883 0.7603
C13 C 0.0248(7) 0.9185(3) 0.6071(10)
C14 C -0.1005(7) 0.9133(3) 0.5617(12)
C15 C -0.1096(6) 0.8620(3) 0.4352(10)
H17 H -0.1736 0.8411 0.4788
C16 C 0.0005(8) 0.8302(3) 0.4824(13)
H18 H -0.0166 0.7939 0.5179
H19 H 0.0503 0.8298 0.3737
C17 C 0.0525(7) 0.8601(3) 0.6491(12)
H20 H 0.0106 0.8501 0.7634
C18 C 0.4119(7) 0.9011(4) 0.7644(15)
H21 H 0.4881 0.8964 0.8022
H22 H 0.3968 0.9382 0.7487
H23 H 0.3991 0.8830 0.6461
C19 C 0.0883(7) 0.9399(3) 0.4300(12)
H24 H 0.0732 0.9770 0.4149
H25 H 0.0641 0.9211 0.3185
H26 H 0.1668 0.9346 0.4473
C20 C -0.1604(8) 0.9625(4) 0.4785(13)
C21 C -0.2861(8) 0.9597(4) 0.4574(16)
H27 H -0.3207 0.9708 0.5740
H28 H -0.3077 0.9238 0.4292
H29 H -0.3094 0.9826 0.3556
O4 O 0.6590(6) 0.8347(3) 0.6709(14)
H30 H 0.6387 0.8260 0.5639
C22 C 0.6698(10) 0.7886(5) 0.7866(18)
H31 H 0.7333 0.7685 0.7455
H32 H 0.6040 0.7672 0.7752
H33 H 0.6796 0.7990 0.9171
loop_
_geom_bond_atom_site_label_1
_geom_bond_atom_site_label_2
_geom_bond_site_symmetry_1
_geom_bond_site_symmetry_2
Br1 C15 1_555 1_555
O1 C3 1_555 1_555
O2 C20 1_555 1_555
O3 H1 1_555 1_555
C1 H2 1_555 1_555
H3 C1 1_555 1_555
C2 C1 1_555 1_555
H4 C2 1_555 1_555
H5 C2 1_555 1_555
C3 C2 1_555 1_555
C4 C3 1_555 1_555
H6 C4 1_555 1_555
C5 C4 1_555 1_555
C6 C5 1_555 1_555
H7 C6 1_555 1_555
H8 C6 1_555 1_555
C7 C6 1_555 1_555
H9 C7 1_555 1_555
H10 C7 1_555 1_555
C8 C7 1_555 1_555
H11 C8 1_555 1_555
C9 C8 1_555 1_555
H12 C9 1_555 1_555
C10 C1 1_555 1_555
C11 C9 1_555 1_555
H13 C11 1_555 1_555
H14 C11 1_555 1_555
C12 C11 1_555 1_555
H15 C12 1_555 1_555
H16 C12 1_555 1_555
C13 C12 1_555 1_555
C14 O3 1_555 1_555
C15 C14 1_555 1_555
H17 C15 1_555 1_555
C16 C15 1_555 1_555
H18 C16 1_555 1_555
H19 C16 1_555 1_555
C17 C8 1_555 1_555
H20 C17 1_555 1_555
C18 C10 1_555 1_555
H21 C18 1_555 1_555
H22 C18 1_555 1_555
H23 C18 1_555 1_555
C19 C13 1_555 1_555
H24 C19 1_555 1_555
H25 C19 1_555 1_555
H26 C19 1_555 1_555
C20 C14 1_555 1_555
C21 C20 1_555 1_555
H27 C21 1_555 1_555
H28 C21 1_555 1_555
H29 C21 1_555 1_555
O4 H30 1_555 1_555
C22 O4 1_555 1_555
H31 C22 1_555 1_555
H32 C22 1_555 1_555
H33 C22 1_555 1_555
C5 C10 1_555 1_555
C9 C10 1_555 1_555
C13 C14 1_555 1_555
C13 C17 1_555 1_555
C16 C17 1_555 1_555

#END
