
#######################################################################
#
#                 Cambridge Crystallographic Data Centre
#                                CCDC 
#
#######################################################################
#
# If this CIF has been generated from an entry in the Cambridge 
# Structural Database, then it will include bibliographic, chemical, 
# crystal, experimental, refinement or atomic coordinate data resulting 
# from the CCDC's data processing and validation procedures.
#
#######################################################################

data_YAMPOS
_chemical_formula_moiety         'C36 H50 O3,C2 H4 O2'
_chemical_name_systematic        
'(2E,6E)-2,6-bis(3,5-Di-t-butyl-4-hydroxybenzylidene)cyclohexanone acetic acid solvate'
_symmetry_cell_setting           monoclinic
_symmetry_space_group_name_H-M   'P 21/n'
_symmetry_Int_Tables_number      14
_space_group_name_Hall           '-P 2yn'
loop_
_symmetry_equiv_pos_site_id
_symmetry_equiv_pos_as_xyz
1 x,y,z
2 1/2-x,1/2+y,1/2-z
3 -x,-y,-z
4 1/2+x,1/2-y,1/2+z
_cell_length_a                   12.838(7)
_cell_length_b                   16.250(9)
_cell_length_c                   17.221(9)
_cell_angle_alpha                90
_cell_angle_beta                 102.376(11)
_cell_angle_gamma                90
_cell_volume                     3509.12
_exptl_crystal_colour            brown
_exptl_crystal_description       block
_cell_formula_units_Z            4
_exptl_crystal_recrystallization_method 'acetic acid/water'
loop_
_atom_site_label
_atom_site_type_symbol
_atom_site_fract_x
_atom_site_fract_y
_atom_site_fract_z
O1 O 0.66361(11) 0.59188(8) 1.03155(7)
O2 O 0.34566(10) 0.86671(8) 0.64644(8)
H1 H 0.2856 0.8505 0.6258
C1 C 0.55390(12) 0.58348(10) 0.90324(9)
C2 C 0.49396(12) 0.83697(9) 0.74696(9)
C3 C 0.49458(12) 0.71654(9) 0.83116(9)
C4 C 0.33688(12) 0.74613(10) 0.72845(9)
C5 C 0.39136(12) 0.69863(10) 0.79114(9)
H2 H 0.3573 0.6530 0.8069
C6 C 0.65728(12) 0.45973(10) 0.97379(9)
C7 C 0.54247(12) 0.78683(10) 0.80896(10)
H3 H 0.6103 0.8008 0.8372
C8 C 0.89845(13) 0.34523(11) 1.06487(10)
H4 H 0.9399 0.3927 1.0705
C9 C 0.74196(13) 0.43523(10) 1.02850(10)
H5 H 0.7759 0.4760 1.0627
O3 O 0.93087(13) 0.12460(10) 1.09032(11)
C10 C 0.39015(12) 0.81495(10) 0.70677(9)
C11 C 0.88329(14) 0.20006(10) 1.07209(11)
C12 C 0.55428(12) 0.66540(10) 0.89551(10)
H6 H 0.5986 0.6937 0.9367
C13 C 0.72733(14) 0.28164(11) 1.03400(10)
H7 H 0.6536 0.2864 1.0188
C14 C 0.59556(15) 0.40525(10) 0.90952(10)
H8 H 0.5333 0.3838 0.9262
H9 H 0.6397 0.3589 0.9014
C15 C 0.94881(13) 0.26974(11) 1.07981(10)
C16 C 0.22266(12) 0.72271(11) 0.68598(10)
C17 C 0.54929(13) 0.91424(10) 0.72413(11)
C18 C 0.78839(13) 0.35278(10) 1.04179(10)
C19 C 0.62757(12) 0.54817(10) 0.97421(9)
C20 C 0.77153(14) 0.20380(10) 1.04795(10)
C21 C 0.49290(14) 0.52485(10) 0.84288(10)
H10 H 0.4701 0.5531 0.7925
H11 H 0.4297 0.5063 0.8601
C22 C 1.07118(14) 0.26534(11) 1.10634(12)
C23 C 0.56030(16) 0.45139(11) 0.83185(10)
H12 H 0.6225 0.4697 0.8131
H13 H 0.5195 0.4149 0.7921
C24 C 0.69990(15) 0.12668(11) 1.03749(12)
C25 C 0.14418(14) 0.79115(13) 0.69589(12)
H14 H 0.0734 0.7757 0.6691
H15 H 0.1640 0.8413 0.6734
H16 H 0.1460 0.7993 0.7514
C26 C 0.21784(15) 0.70462(13) 0.59793(11)
H17 H 0.2673 0.6615 0.5934
H18 H 0.2362 0.7534 0.5724
H19 H 0.1470 0.6876 0.5729
C27 C 0.18483(15) 0.64483(13) 0.72132(13)
H20 H 0.2317 0.6000 0.7163
H21 H 0.1138 0.6317 0.6934
H22 H 0.1852 0.6538 0.7765
C28 C 0.66056(16) 0.92494(13) 0.77621(15)
H23 H 0.7038 0.8783 0.7696
H24 H 0.6555 0.9291 0.8309
H25 H 0.6924 0.9741 0.7609
C29 C 0.48565(17) 0.99056(11) 0.73778(14)
H26 H 0.4147 0.9869 0.7058
H27 H 0.5200 1.0389 0.7232
H28 H 0.4824 0.9938 0.7929
C30 C 1.12312(16) 0.34898(14) 1.10141(16)
H29 H 1.0966 0.3875 1.1348
H30 H 1.1064 0.3681 1.0474
H31 H 1.1990 0.3440 1.1190
C31 C 1.10169(17) 0.23702(16) 1.19255(14)
H32 H 1.0720 0.2741 1.2254
H33 H 1.1780 0.2365 1.2096
H34 H 1.0744 0.1826 1.1970
C32 C 0.7070(2) 0.08312(16) 1.11723(16)
C33 C 0.5611(2) 0.90926(15) 0.63765(14)
H35 H 0.6011 0.8609 0.6306
H36 H 0.5978 0.9572 0.6250
H37 H 0.4917 0.9065 0.6031
C34 C 0.58270(17) 0.14913(15) 1.00676(17)
H38 H 0.5745 0.1767 0.9565
H39 H 0.5597 0.1849 1.0442
H40 H 0.5403 0.0999 1.0003
C35 C 1.11848(18) 0.20820(16) 1.05198(16)
H41 H 1.1946 0.2066 1.0696
H42 H 1.1004 0.2284 0.9984
H43 H 1.0900 0.1538 1.0539
C36 C 0.7293(3) 0.06751(18) 0.97664(18)
H48 H 0.6801(19) 0.1194(15) 1.1551(15)
H49 H 0.662(2) 0.0355(16) 1.1069(14)
H50 H 0.678(2) 0.0198(18) 0.9703(16)
H51 H 0.718(2) 0.0955(17) 0.9262(18)
H52 H 0.782(2) 0.0628(15) 1.1425(14)
H53 H 0.802(3) 0.0487(17) 0.9856(16)
H54 H 0.903(4) 0.088(3) 1.096(3)
O4 O 1.09089(16) 0.00155(12) 1.13485(17)
H44 H 1.0562 0.0439 1.1235
C37 C 1.0287(2) -0.05870(14) 1.12943(14)
O5 O 0.93284(18) -0.04827(13) 1.11158(19)
C38 C 1.0757(3) -0.13989(16) 1.15135(19)
H45 H 1.0201 -0.1804 1.1450
H46 H 1.1139 -0.1390 1.2058
H47 H 1.1238 -0.1534 1.1176
loop_
_geom_bond_atom_site_label_1
_geom_bond_atom_site_label_2
_geom_bond_site_symmetry_1
_geom_bond_site_symmetry_2
O1 C19 1_555 1_555
O2 H1 1_555 1_555
C1 C12 1_555 1_555
C2 C7 1_555 1_555
C3 C5 1_555 1_555
C4 C5 1_555 1_555
C5 H2 1_555 1_555
C6 C9 1_555 1_555
C7 C3 1_555 1_555
H3 C7 1_555 1_555
C8 H4 1_555 1_555
C9 H5 1_555 1_555
O3 C11 1_555 1_555
C10 O2 1_555 1_555
C11 C15 1_555 1_555
C12 C3 1_555 1_555
H6 C12 1_555 1_555
C13 H7 1_555 1_555
C14 C6 1_555 1_555
H8 C14 1_555 1_555
H9 C14 1_555 1_555
C15 C8 1_555 1_555
C16 C4 1_555 1_555
C17 C2 1_555 1_555
C18 C8 1_555 1_555
C19 C1 1_555 1_555
C20 C11 1_555 1_555
C21 C1 1_555 1_555
H10 C21 1_555 1_555
H11 C21 1_555 1_555
C22 C15 1_555 1_555
C23 C14 1_555 1_555
H12 C23 1_555 1_555
H13 C23 1_555 1_555
C24 C20 1_555 1_555
C25 C16 1_555 1_555
H14 C25 1_555 1_555
H15 C25 1_555 1_555
H16 C25 1_555 1_555
C26 C16 1_555 1_555
H17 C26 1_555 1_555
H18 C26 1_555 1_555
H19 C26 1_555 1_555
C27 C16 1_555 1_555
H20 C27 1_555 1_555
H21 C27 1_555 1_555
H22 C27 1_555 1_555
C28 C17 1_555 1_555
H23 C28 1_555 1_555
H24 C28 1_555 1_555
H25 C28 1_555 1_555
C29 C17 1_555 1_555
H26 C29 1_555 1_555
H27 C29 1_555 1_555
H28 C29 1_555 1_555
C30 C22 1_555 1_555
H29 C30 1_555 1_555
H30 C30 1_555 1_555
H31 C30 1_555 1_555
C31 C22 1_555 1_555
H32 C31 1_555 1_555
H33 C31 1_555 1_555
H34 C31 1_555 1_555
C32 C24 1_555 1_555
C33 C17 1_555 1_555
H35 C33 1_555 1_555
H36 C33 1_555 1_555
H37 C33 1_555 1_555
C34 C24 1_555 1_555
H38 C34 1_555 1_555
H39 C34 1_555 1_555
H40 C34 1_555 1_555
C35 C22 1_555 1_555
H41 C35 1_555 1_555
H42 C35 1_555 1_555
H43 C35 1_555 1_555
C36 C24 1_555 1_555
O4 H44 1_555 1_555
C37 O4 1_555 1_555
O5 C37 1_555 1_555
C38 C37 1_555 1_555
H45 C38 1_555 1_555
H46 C38 1_555 1_555
H47 C38 1_555 1_555
H48 C32 1_555 1_555
H49 C32 1_555 1_555
H50 C36 1_555 1_555
H51 C36 1_555 1_555
H52 C32 1_555 1_555
H53 C36 1_555 1_555
H54 O3 1_555 1_555
C2 C10 1_555 1_555
C4 C10 1_555 1_555
C6 C19 1_555 1_555
C9 C18 1_555 1_555
C13 C18 1_555 1_555
C13 C20 1_555 1_555
C21 C23 1_555 1_555

#END
