
#######################################################################
#
#                 Cambridge Crystallographic Data Centre
#                                CCDC 
#
#######################################################################
#
# If this CIF has been generated from an entry in the Cambridge 
# Structural Database, then it will include bibliographic, chemical, 
# crystal, experimental, refinement or atomic coordinate data resulting 
# from the CCDC's data processing and validation procedures.
#
#######################################################################

data_YAMROV
_chemical_formula_moiety         'C17 H14 F6 N4 O2'
_chemical_name_systematic        
9-(2-(3,4-Dimethoxyphenyl)ethyl)-2,6-bis(trifluoromethyl)-9H-purine
_symmetry_cell_setting           monoclinic
_symmetry_space_group_name_H-M   'P 21/c'
_symmetry_Int_Tables_number      14
_space_group_name_Hall           '-P 2ybc'
loop_
_symmetry_equiv_pos_site_id
_symmetry_equiv_pos_as_xyz
1 x,y,z
2 -x,1/2+y,1/2-z
3 -x,-y,-z
4 x,1/2-y,1/2+z
_cell_length_a                   9.0853(5)
_cell_length_b                   8.9488(5)
_cell_length_c                   21.8339(13)
_cell_angle_alpha                90
_cell_angle_beta                 94.247(2)
_cell_angle_gamma                90
_cell_volume                     1770.28
_exptl_crystal_colour            colorless
_exptl_crystal_description       block
_cell_formula_units_Z            4
loop_
_atom_site_label
_atom_site_type_symbol
_atom_site_fract_x
_atom_site_fract_y
_atom_site_fract_z
F1 F 1.42031(11) -0.21033(12) 0.12457(5)
F2 F 1.48040(9) -0.12421(11) 0.03934(5)
F3 F 1.31100(11) -0.28923(11) 0.04134(6)
F4 F 1.2185(16) 0.3794(10) -0.0115(4)
F5 F 1.1641(10) 0.2085(7) -0.0763(3)
F6 F 0.9967(6) 0.3250(10) -0.0340(4)
N1 N 1.23984(11) 0.05008(11) 0.02633(5)
N2 N 1.03511(10) 0.17444(11) 0.06895(5)
N3 N 1.13678(11) -0.12656(11) 0.17093(5)
N4 N 0.96478(10) 0.05665(11) 0.16234(5)
O1 O 0.26314(10) 0.17790(11) 0.26955(4)
O2 O 0.17284(9) 0.38383(10) 0.19293(4)
C1 C 1.25080(12) -0.04797(13) 0.07248(6)
C2 C 1.15616(11) -0.04155(12) 0.11938(5)
C3 C 1.04907(11) 0.07346(12) 0.11349(5)
C4 C 1.02170(13) -0.06503(14) 0.19402(6)
H1 H 0.9811 -0.1021 0.2299
C5 C 1.13537(12) 0.15478(13) 0.02803(5)
C6 C 1.36732(13) -0.16811(14) 0.06875(6)
C7 C 1.13455(15) 0.26889(14) -0.02331(6)
C8 C 0.83203(12) 0.14191(14) 0.17439(6)
H2 H 0.8363 0.2416 0.1549
H3 H 0.8286 0.1566 0.2192
C9 C 0.69314(13) 0.06084(15) 0.14932(7)
H4 H 0.6981 0.0437 0.1047
H5 H 0.6879 -0.0378 0.1696
C10 C 0.55532(12) 0.14923(14) 0.15993(6)
C11 C 0.50547(13) 0.25934(15) 0.11933(6)
H6 H 0.5582 0.2796 0.0843
C12 C 0.37845(13) 0.34157(14) 0.12908(5)
H7 H 0.3459 0.4176 0.1009
C13 C 0.30011(12) 0.31231(13) 0.17976(5)
C14 C 0.34957(12) 0.20026(13) 0.22154(5)
C15 C 0.47689(12) 0.12070(14) 0.21148(6)
H8 H 0.5111 0.0460 0.2400
C16 C 0.30910(15) 0.06256(16) 0.31184(6)
H9 H 0.3099 -0.0333 0.2902
H10 H 0.2405 0.0571 0.3443
H11 H 0.4085 0.0847 0.3301
C17 C 0.12350(15) 0.50206(15) 0.15268(7)
H12 H 0.2009 0.5782 0.1519
H13 H 0.0342 0.5470 0.1673
H14 H 0.1015 0.4623 0.1112
F7? F 1.1390(12) 0.2084(8) -0.0774(4)
F8? F 1.0277(19) 0.3633(19) -0.0242(7)
F9? F 1.2624(14) 0.3534(15) -0.0166(5)
loop_
_geom_bond_atom_site_label_1
_geom_bond_atom_site_label_2
_geom_bond_site_symmetry_1
_geom_bond_site_symmetry_2
F1 C6 1_555 1_555
F2 C6 1_555 1_555
F3 C6 1_555 1_555
F4 C7 1_555 1_555
F5 C7 1_555 1_555
F6 C7 1_555 1_555
N1 C1 1_555 1_555
N2 C3 1_555 1_555
N3 C2 1_555 1_555
N4 C3 1_555 1_555
O1 C14 1_555 1_555
O2 C13 1_555 1_555
C1 C2 1_555 1_555
C2 C3 1_555 1_555
C4 N3 1_555 1_555
H1 C4 1_555 1_555
C5 N1 1_555 1_555
C6 C1 1_555 1_555
C7 C5 1_555 1_555
C8 N4 1_555 1_555
H2 C8 1_555 1_555
H3 C8 1_555 1_555
C9 C8 1_555 1_555
H4 C9 1_555 1_555
H5 C9 1_555 1_555
C10 C9 1_555 1_555
C11 C10 1_555 1_555
H6 C11 1_555 1_555
C12 C11 1_555 1_555
H7 C12 1_555 1_555
C13 C12 1_555 1_555
C14 C13 1_555 1_555
C15 C10 1_555 1_555
H8 C15 1_555 1_555
C16 O1 1_555 1_555
H9 C16 1_555 1_555
H10 C16 1_555 1_555
H11 C16 1_555 1_555
C17 O2 1_555 1_555
H12 C17 1_555 1_555
H13 C17 1_555 1_555
H14 C17 1_555 1_555
N2 C5 1_555 1_555
N4 C4 1_555 1_555
C14 C15 1_555 1_555

#END
