
#######################################################################
#
#                 Cambridge Crystallographic Data Centre
#                                CCDC 
#
#######################################################################
#
# If this CIF has been generated from an entry in the Cambridge 
# Structural Database, then it will include bibliographic, chemical, 
# crystal, experimental, refinement or atomic coordinate data resulting 
# from the CCDC's data processing and validation procedures.
#
#######################################################################

data_YAMSAI
_chemical_formula_moiety         'C16 H12 F6 N4 O1'
_chemical_name_systematic        
9-(2-(2-Methoxyphenyl)ethyl)-2,6-bis(trifluoromethyl)-9H-purine
_symmetry_cell_setting           orthorhombic
_symmetry_space_group_name_H-M   'F d d 2'
_symmetry_Int_Tables_number      43
_space_group_name_Hall           'F 2 -2d'
loop_
_symmetry_equiv_pos_site_id
_symmetry_equiv_pos_as_xyz
1 x,y,z
2 -x,-y,z
3 1/4+x,1/4-y,1/4+z
4 1/4-x,1/4+y,1/4+z
5 x,1/2+y,1/2+z
6 -x,1/2-y,1/2+z
7 1/4+x,3/4-y,3/4+z
8 1/4-x,3/4+y,3/4+z
9 1/2+x,y,1/2+z
10 1/2-x,-y,1/2+z
11 3/4+x,1/4-y,3/4+z
12 3/4-x,1/4+y,3/4+z
13 1/2+x,1/2+y,z
14 1/2-x,1/2-y,z
15 3/4+x,3/4-y,1/4+z
16 3/4-x,3/4+y,1/4+z
_cell_length_a                   25.3323(6)
_cell_length_b                   30.6921(10)
_cell_length_c                   8.5601(2)
_cell_angle_alpha                90
_cell_angle_beta                 90
_cell_angle_gamma                90
_cell_volume                     6655.49
_exptl_crystal_colour            colorless
_exptl_crystal_description       block
_cell_formula_units_Z            16
loop_
_atom_site_label
_atom_site_type_symbol
_atom_site_fract_x
_atom_site_fract_y
_atom_site_fract_z
N1 N 0.05310(5) 0.14208(4) 0.84637(13)
N2 N 0.02427(4) 0.17270(3) 0.60061(13)
N3 N 0.03674(4) 0.12319(3) 0.38465(13)
N4 N 0.07166(5) 0.06556(3) 0.51388(14)
O1 O -0.06335(4) 0.09101(3) 0.52089(12)
F1 F -0.0214(2) 0.20416(12) 0.9496(5)
F2 F 0.05140(17) 0.2352(3) 0.9070(12)
F3 F -0.0139(3) 0.24056(18) 0.7485(5)
F4 F 0.1154(5) 0.0400(3) 0.8111(12)
F5 F 0.0516(3) 0.0512(3) 0.9644(9)
F6 F 0.1213(4) 0.0874(3) 0.9939(11)
C1 C 0.05536(5) 0.08131(4) 0.37956(16)
H1 H 0.0564 0.0648 0.2857
C2 C 0.04008(5) 0.13532(4) 0.53739(14)
C3 C 0.06255(5) 0.09947(4) 0.61747(16)
C4 C 0.03226(5) 0.17288(4) 0.75461(16)
C5 C 0.06850(5) 0.10514(4) 0.77630(16)
C6 C 0.08911(6) 0.07008(5) 0.88551(18)
C7 C 0.01394(6) 0.21351(5) 0.84090(19)
C8 C -0.07231(5) 0.10467(4) 0.25177(16)
C9 C -0.08778(5) 0.09104(5) 0.10398(17)
H2 H -0.0836 0.1103 0.0179
C10 C -0.10923(6) 0.04981(5) 0.0788(2)
H3 H -0.1198 0.0411 -0.0230
C11 C -0.11482(6) 0.02178(5) 0.2035(2)
H4 H -0.1293 -0.0064 0.1870
C12 C -0.09953(5) 0.03411(4) 0.3528(2)
H5 H -0.1033 0.0144 0.4378
C13 C -0.07854(5) 0.07559(4) 0.37740(16)
C14 C -0.06663(7) 0.06170(7) 0.6505(2)
H6 H -0.1036 0.0540 0.6690
H7 H -0.0521 0.0758 0.7439
H8 H -0.0463 0.0353 0.6274
C15 C 0.01210(5) 0.14891(4) 0.26008(16)
H9 H 0.0221 0.1366 0.1574
H10 H 0.0254 0.1792 0.2649
C16 C -0.04820(5) 0.14923(4) 0.27474(16)
H11 H -0.0580 0.1603 0.3795
H12 H -0.0630 0.1695 0.1961
F7? F -0.0287(3) 0.2067(3) 0.9088(17)
F8? F 0.0474(4) 0.2212(2) 0.9568(7)
F9? F 0.0171(7) 0.24665(18) 0.7563(9)
F10? F 0.1241(4) 0.0448(3) 0.8211(13)
F11? F 0.0479(4) 0.0441(5) 0.923(3)
F12? F 0.1091(6) 0.0848(3) 1.0122(9)
loop_
_geom_bond_atom_site_label_1
_geom_bond_atom_site_label_2
_geom_bond_site_symmetry_1
_geom_bond_site_symmetry_2
N1 C4 1_555 1_555
N2 C2 1_555 1_555
N3 C1 1_555 1_555
N4 C1 1_555 1_555
O1 C13 1_555 1_555
F1 C7 1_555 1_555
F2 C7 1_555 1_555
F3 C7 1_555 1_555
F4 C6 1_555 1_555
F5 C6 1_555 1_555
F6 C6 1_555 1_555
C1 H1 1_555 1_555
C2 N3 1_555 1_555
C3 N4 1_555 1_555
C4 N2 1_555 1_555
C5 N1 1_555 1_555
C6 C5 1_555 1_555
C7 C4 1_555 1_555
C8 C9 1_555 1_555
C9 H2 1_555 1_555
C10 C9 1_555 1_555
H3 C10 1_555 1_555
C11 C10 1_555 1_555
H4 C11 1_555 1_555
C12 C11 1_555 1_555
H5 C12 1_555 1_555
C13 C8 1_555 1_555
C14 O1 1_555 1_555
H6 C14 1_555 1_555
H7 C14 1_555 1_555
H8 C14 1_555 1_555
C15 N3 1_555 1_555
H9 C15 1_555 1_555
H10 C15 1_555 1_555
C16 C8 1_555 1_555
H11 C16 1_555 1_555
H12 C16 1_555 1_555
C2 C3 1_555 1_555
C3 C5 1_555 1_555
C12 C13 1_555 1_555
C15 C16 1_555 1_555

#END
