
#######################################################################
#
#                 Cambridge Crystallographic Data Centre
#                                CCDC 
#
#######################################################################
#
# If this CIF has been generated from an entry in the Cambridge 
# Structural Database, then it will include bibliographic, chemical, 
# crystal, experimental, refinement or atomic coordinate data resulting 
# from the CCDC's data processing and validation procedures.
#
#######################################################################

data_YANFIE
_chemical_formula_moiety         'C21 H21 Br1 N2 O4'
_chemical_name_systematic        
'2-t-Butyl 1-methyl 5-(4-bromophenyl)-6,6-dicyanocyclohex-2-ene-1,2-dicarboxylate'
_symmetry_cell_setting           monoclinic
_symmetry_space_group_name_H-M   'C 2'
_symmetry_Int_Tables_number      5
_space_group_name_Hall           'C 2y'
loop_
_symmetry_equiv_pos_site_id
_symmetry_equiv_pos_as_xyz
1 x,y,z
2 -x,y,-z
3 1/2+x,1/2+y,z
4 1/2-x,1/2+y,-z
_cell_length_a                   21.316(2)
_cell_length_b                   6.3205(6)
_cell_length_c                   17.4926(17)
_cell_angle_alpha                90
_cell_angle_beta                 112.859(2)
_cell_angle_gamma                90
_cell_volume                     2171.65
_exptl_crystal_colour            colorless
_exptl_crystal_description       plate
_cell_formula_units_Z            4
loop_
_atom_site_label
_atom_site_type_symbol
_atom_site_fract_x
_atom_site_fract_y
_atom_site_fract_z
Br1 Br 0.56936(2) 0.72875(10) 0.96059(3)
O1 O 0.8659(2) 0.5121(5) 0.6444(2)
O2 O 0.80754(16) 0.7876(6) 0.57393(17)
O3 O 1.03328(14) 0.8055(6) 0.8100(2)
O4 O 0.95278(13) 0.9261(5) 0.69081(17)
N1 N 0.7842(3) 0.3107(6) 0.7532(3)
N2 N 0.6724(2) 0.8565(9) 0.6427(3)
C1 C 0.74534(18) 0.7823(5) 0.8663(2)
C2 C 0.7356(2) 0.5952(7) 0.9021(2)
H1 H 0.7648 0.4796 0.9077
C3 C 0.6834(2) 0.5790(7) 0.9295(3)
H2 H 0.6763 0.4518 0.9527
C4 C 0.64189(19) 0.7497(8) 0.9226(2)
C5 C 0.6497(2) 0.9351(7) 0.8874(3)
H3 H 0.6204 1.0501 0.8825
C6 C 0.70196(19) 0.9497(6) 0.8587(2)
H4 H 0.7078 1.0759 0.8337
C7 C 0.80384(17) 0.8082(5) 0.8372(2)
H5 H 0.8112 0.9624 0.8350
C8 C 0.87130(17) 0.7161(10) 0.8970(2)
H6 H 0.8848 0.7872 0.9508
H7 H 0.8652 0.5654 0.9054
C9 C 0.92643(17) 0.7413(9) 0.8653(2)
H8 H 0.9717 0.7246 0.9029
C10 C 0.91542(17) 0.7854(6) 0.7877(2)
C11 C 0.84516(17) 0.8017(5) 0.7189(2)
H9 H 0.8361 0.9529 0.7038
C12 C 0.78938(15) 0.7217(7) 0.74875(19)
C13 C 0.7866(2) 0.4885(7) 0.7499(3)
C14 C 0.72263(19) 0.7980(6) 0.6891(2)
C15 C 0.9754(2) 0.8357(7) 0.7652(3)
C16 C 0.9988(2) 1.0172(9) 0.6533(3)
C17 C 1.0404(3) 1.1891(13) 0.7081(4)
H10 H 1.0109 1.2834 0.7227
H11 H 1.0634 1.2681 0.6791
H12 H 1.0739 1.1276 0.7581
C18 C 1.0416(4) 0.8440(14) 0.6395(5)
H13 H 1.0658 0.8981 0.6067
H14 H 1.0126 0.7276 0.6104
H15 H 1.0742 0.7948 0.6927
C19 C 0.9489(3) 1.1087(10) 0.5729(3)
H16 H 0.9169 1.1994 0.5843
H17 H 0.9244 0.9947 0.5364
H18 H 0.9733 1.1907 0.5465
C20 C 0.8421(2) 0.6813(7) 0.6419(3)
C21 C 0.8017(4) 0.6876(14) 0.4955(3)
H19 H 0.8423 0.7171 0.4851
H20 H 0.7622 0.7439 0.4504
H21 H 0.7966 0.5359 0.4992
loop_
_geom_bond_atom_site_label_1
_geom_bond_atom_site_label_2
_geom_bond_site_symmetry_1
_geom_bond_site_symmetry_2
Br1 C4 1_555 1_555
O1 C20 1_555 1_555
O2 C20 1_555 1_555
O3 C15 1_555 1_555
O4 C15 1_555 1_555
N1 C13 1_555 1_555
N2 C14 1_555 1_555
C1 C2 1_555 1_555
C2 H1 1_555 1_555
C3 C2 1_555 1_555
H2 C3 1_555 1_555
C4 C3 1_555 1_555
C5 C4 1_555 1_555
H3 C5 1_555 1_555
C6 C1 1_555 1_555
H4 C6 1_555 1_555
C7 C1 1_555 1_555
H5 C7 1_555 1_555
C8 C7 1_555 1_555
H6 C8 1_555 1_555
H7 C8 1_555 1_555
C9 C8 1_555 1_555
H8 C9 1_555 1_555
C10 C9 1_555 1_555
C11 C10 1_555 1_555
H9 C11 1_555 1_555
C12 C7 1_555 1_555
C13 C12 1_555 1_555
C14 C12 1_555 1_555
C15 C10 1_555 1_555
C16 O4 1_555 1_555
C17 C16 1_555 1_555
H10 C17 1_555 1_555
H11 C17 1_555 1_555
H12 C17 1_555 1_555
C18 C16 1_555 1_555
H13 C18 1_555 1_555
H14 C18 1_555 1_555
H15 C18 1_555 1_555
C19 C16 1_555 1_555
H16 C19 1_555 1_555
H17 C19 1_555 1_555
H18 C19 1_555 1_555
C20 C11 1_555 1_555
C21 O2 1_555 1_555
H19 C21 1_555 1_555
H20 C21 1_555 1_555
H21 C21 1_555 1_555
C5 C6 1_555 1_555
C11 C12 1_555 1_555

#END
