
#######################################################################
#
#                 Cambridge Crystallographic Data Centre
#                                CCDC 
#
#######################################################################
#
# If this CIF has been generated from an entry in the Cambridge 
# Structural Database, then it will include bibliographic, chemical, 
# crystal, experimental, refinement or atomic coordinate data resulting 
# from the CCDC's data processing and validation procedures.
#
#######################################################################

data_YANPEL
_chemical_formula_moiety         'C12 H8 N2,C6 F4 I2'
_chemical_name_systematic        
'1,2,4,5-tetrafluoro-3,6-di-iodobenzene 1,7-phenanthroline'
_symmetry_cell_setting           monoclinic
_symmetry_space_group_name_H-M   'P 21/c'
_symmetry_Int_Tables_number      14
_space_group_name_Hall           '-P 2ybc'
loop_
_symmetry_equiv_pos_site_id
_symmetry_equiv_pos_as_xyz
1 x,y,z
2 -x,1/2+y,1/2-z
3 -x,-y,-z
4 x,1/2-y,1/2+z
_cell_length_a                   15.007(8)
_cell_length_b                   5.970(3)
_cell_length_c                   20.196(11)
_cell_angle_alpha                90
_cell_angle_beta                 104.844(8)
_cell_angle_gamma                90
_cell_volume                     1749.01
_exptl_crystal_description       bulk
_cell_formula_units_Z            4
loop_
_atom_site_label
_atom_site_type_symbol
_atom_site_fract_x
_atom_site_fract_y
_atom_site_fract_z
C1 C 0.9466(2) 0.5055(6) 0.08180(17)
C2 C 0.9025(2) 0.6321(5) 0.02501(18)
C3 C 0.8212(2) 0.5615(5) -0.01888(16)
C4 C 0.7803(2) 0.3606(5) -0.00911(16)
C5 C 0.8251(3) 0.2328(5) 0.04702(18)
C6 C 0.9061(2) 0.3031(5) 0.09113(17)
F1 F 0.93936(15) 0.8297(3) 0.01302(11)
F2 F 0.78123(15) 0.6970(3) -0.07172(10)
F3 F 0.78797(14) 0.0350(3) 0.05941(10)
F4 F 0.94401(15) 0.1713(3) 0.14535(10)
I1 I 1.063861(15) 0.62106(4) 0.152410(11)
I2 I 0.655691(15) 0.25284(3) -0.074374(10)
C7 C 0.1669(2) 1.0295(5) 0.26775(18)
H1 H 0.1103 1.0612 0.2352
C8 C 0.1962(2) 1.1780(5) 0.32267(18)
H2 H 0.1603 1.3057 0.3270
C9 C 0.2773(2) 1.1353(5) 0.36983(17)
H3 H 0.2985 1.2323 0.4079
C10 C 0.3293(2) 0.9449(5) 0.36136(17)
C11 C 0.4165(2) 0.8922(5) 0.40790(17)
H4 H 0.4402 0.9880 0.4459
C12 C 0.4655(3) 0.7102(6) 0.39908(17)
H5 H 0.5225 0.6788 0.4312
C13 C 0.4325(2) 0.5638(5) 0.34179(16)
C14 C 0.4550(3) 0.2476(5) 0.28249(18)
H6 H 0.4911 0.1198 0.2787
C15 C 0.3736(3) 0.2828(5) 0.23139(18)
H7 H 0.3555 0.1826 0.1938
C16 C 0.3203(2) 0.4658(5) 0.23685(17)
H8 H 0.2650 0.4945 0.2026
C17 C 0.3484(2) 0.6116(5) 0.29390(17)
C18 C 0.2943(2) 0.8054(5) 0.30362(17)
N1 N 0.4847(2) 0.3819(4) 0.33587(14)
N2 N 0.2127(2) 0.8478(4) 0.25795(15)
loop_
_geom_bond_atom_site_label_1
_geom_bond_atom_site_label_2
_geom_bond_site_symmetry_1
_geom_bond_site_symmetry_2
C1 C2 1_555 1_555
C2 C3 1_555 1_555
C3 C4 1_555 1_555
C4 C5 1_555 1_555
C5 C6 1_555 1_555
C6 C1 1_555 1_555
F1 C2 1_555 1_555
F2 C3 1_555 1_555
F3 C5 1_555 1_555
F4 C6 1_555 1_555
I1 C1 1_555 1_555
I2 C4 1_555 1_555
C7 H1 1_555 1_555
C8 C7 1_555 1_555
H2 C8 1_555 1_555
C9 C8 1_555 1_555
H3 C9 1_555 1_555
C10 C9 1_555 1_555
C11 C10 1_555 1_555
H4 C11 1_555 1_555
C12 C11 1_555 1_555
H5 C12 1_555 1_555
C13 C12 1_555 1_555
C14 H6 1_555 1_555
C15 C14 1_555 1_555
H7 C15 1_555 1_555
C16 C15 1_555 1_555
H8 C16 1_555 1_555
C17 C13 1_555 1_555
C18 C10 1_555 1_555
N1 C13 1_555 1_555
N2 C7 1_555 1_555
C14 N1 1_555 1_555
C16 C17 1_555 1_555
C17 C18 1_555 1_555
C18 N2 1_555 1_555

#END
