
#######################################################################
#
#                 Cambridge Crystallographic Data Centre
#                                CCDC 
#
#######################################################################
#
# If this CIF has been generated from an entry in the Cambridge 
# Structural Database, then it will include bibliographic, chemical, 
# crystal, experimental, refinement or atomic coordinate data resulting 
# from the CCDC's data processing and validation procedures.
#
#######################################################################

data_YANPIN
_chemical_formula_moiety         'C15 H12 O2'
_chemical_name_systematic        6-Hydroxy-7-phenylindan-1-one
_symmetry_cell_setting           monoclinic
_symmetry_space_group_name_H-M   'P 21/c'
_symmetry_Int_Tables_number      14
_space_group_name_Hall           '-P 2ybc'
loop_
_symmetry_equiv_pos_site_id
_symmetry_equiv_pos_as_xyz
1 x,y,z
2 -x,1/2+y,1/2-z
3 -x,-y,-z
4 x,1/2-y,1/2+z
_cell_length_a                   12.061(1)
_cell_length_b                   15.232(1)
_cell_length_c                   12.918
_cell_angle_alpha                90
_cell_angle_beta                 102.32
_cell_angle_gamma                90
_cell_volume                     2318.55
_exptl_crystal_colour            colorless
_exptl_crystal_description       rhombic
_chemical_melting_point          '438-440 K'
_cell_formula_units_Z            8
_exptl_crystal_recrystallization_method dichloromethane/pentane
loop_
_atom_site_label
_atom_site_type_symbol
_atom_site_fract_x
_atom_site_fract_y
_atom_site_fract_z
O1 O 0.517 0.590 0.324
O2 O 0.538 0.917 0.161
C1 C 0.451 0.646 0.343
C2 C 0.368 0.632 0.414
C3 C 0.307 0.719 0.418
C4 C 0.362 0.780 0.352
C5 C 0.343 0.870 0.337
C6 C 0.405 0.915 0.275
C7 C 0.482 0.872 0.225
C8 C 0.501 0.781 0.237
C9 C 0.440 0.738 0.304
C10 C 0.575 0.734 0.177
C11 C 0.688 0.756 0.185
C12 C 0.753 0.715 0.123
C13 C 0.707 0.651 0.052
C14 C 0.595 0.627 0.044
C15 C 0.530 0.668 0.106
H1 H 0.51 0.974 0.16
H2 H 0.315 0.588 0.384
H3 H 0.407 0.615 0.482
H4 H 0.228 0.713 0.390
H5 H 0.319 0.739 0.489
H6 H 0.290 0.899 0.369
H7 H 0.394 0.976 0.266
H8 H 0.721 0.800 0.235
H9 H 0.830 0.732 0.130
H10 H 0.751 0.623 0.009
H11 H 0.563 0.582 -0.004
H12 H 0.453 0.651 0.100
O3 O -0.008 0.646 0.330
O4 O 0.051 0.320 0.186
C16 C -0.066 0.587 0.356
C17 C -0.152 0.598 0.423
C18 C -0.187 0.505 0.450
C19 C -0.127 0.446 0.386
C20 C -0.130 0.355 0.378
C21 C -0.070 0.314 0.312
C22 C -0.006 0.361 0.254
C23 C 0.002 0.452 0.262
C24 C -0.060 0.493 0.329
C25 C 0.070 0.502 0.198
C26 C 0.018 0.561 0.121
C27 C 0.082 0.605 0.059
C28 C 0.198 0.590 0.075
C29 C 0.250 0.532 0.151
C30 C 0.187 0.488 0.212
H13 H 0.03 0.26 0.18
H14 H -0.216 0.630 0.385
H15 H -0.120 0.629 0.487
H16 H -0.267 0.498 0.428
H17 H -0.164 0.494 0.523
H18 H -0.173 0.321 0.418
H19 H -0.074 0.252 0.306
H20 H -0.061 0.571 0.110
H21 H 0.047 0.646 0.006
H22 H 0.241 0.621 0.033
H23 H 0.329 0.522 0.162
H24 H 0.223 0.447 0.264
loop_
_geom_bond_atom_site_label_1
_geom_bond_atom_site_label_2
_geom_bond_site_symmetry_1
_geom_bond_site_symmetry_2
O1 C1 1_555 1_555
O2 C7 1_555 1_555
O3 C16 1_555 1_555
O4 C22 1_555 1_555
C1 C2 1_555 1_555
C2 C3 1_555 1_555
C3 C4 1_555 1_555
C4 C5 1_555 1_555
C5 C6 1_555 1_555
C6 C7 1_555 1_555
C7 C8 1_555 1_555
C8 C9 1_555 1_555
C9 C1 1_555 1_555
C10 C8 1_555 1_555
C11 C10 1_555 1_555
C12 C11 1_555 1_555
C13 C12 1_555 1_555
C14 C13 1_555 1_555
C15 C10 1_555 1_555
C16 C17 1_555 1_555
C17 C18 1_555 1_555
C18 C19 1_555 1_555
C19 C20 1_555 1_555
C20 C21 1_555 1_555
C21 C22 1_555 1_555
C22 C23 1_555 1_555
C23 C24 1_555 1_555
C24 C16 1_555 1_555
C25 C23 1_555 1_555
C26 C25 1_555 1_555
C27 C26 1_555 1_555
C28 C27 1_555 1_555
C29 C28 1_555 1_555
C30 C25 1_555 1_555
H1 O2 1_555 1_555
H2 C2 1_555 1_555
H3 C2 1_555 1_555
H4 C3 1_555 1_555
H5 C3 1_555 1_555
H6 C5 1_555 1_555
H7 C6 1_555 1_555
H8 C11 1_555 1_555
H9 C12 1_555 1_555
H10 C13 1_555 1_555
H11 C14 1_555 1_555
H12 C15 1_555 1_555
H13 O4 1_555 1_555
H14 C17 1_555 1_555
H15 C17 1_555 1_555
H16 C18 1_555 1_555
H17 C18 1_555 1_555
H18 C20 1_555 1_555
H19 C21 1_555 1_555
H20 C26 1_555 1_555
H21 C27 1_555 1_555
H22 C28 1_555 1_555
H23 C29 1_555 1_555
H24 C30 1_555 1_555
C4 C9 1_555 1_555
C14 C15 1_555 1_555
C19 C24 1_555 1_555
C29 C30 1_555 1_555

#END
