
#######################################################################
#
#                 Cambridge Crystallographic Data Centre
#                                CCDC 
#
#######################################################################
#
# If this CIF has been generated from an entry in the Cambridge 
# Structural Database, then it will include bibliographic, chemical, 
# crystal, experimental, refinement or atomic coordinate data resulting 
# from the CCDC's data processing and validation procedures.
#
#######################################################################

data_YANZUJ
_chemical_formula_moiety         'C20 H16 Br1 N1 O1'
_chemical_name_systematic        
2-Benzyl-7-bromo-3,4-dihydro-2H-benzo(g)isoquinolin-1-one
_symmetry_cell_setting           monoclinic
_symmetry_space_group_name_H-M   'P 21/c'
_symmetry_Int_Tables_number      14
_space_group_name_Hall           '-P 2ybc'
loop_
_symmetry_equiv_pos_site_id
_symmetry_equiv_pos_as_xyz
1 x,y,z
2 -x,1/2+y,1/2-z
3 -x,-y,-z
4 x,1/2-y,1/2+z
_cell_length_a                   14.350(3)
_cell_length_b                   7.859(2)
_cell_length_c                   14.201(4)
_cell_angle_alpha                90
_cell_angle_beta                 99.34(2)
_cell_angle_gamma                90
_cell_volume                     1580.31
_exptl_crystal_colour            colorless
_exptl_crystal_description       prism
_cell_formula_units_Z            4
_exptl_crystal_recrystallization_method 'n-hexane/ethyl acetate'
loop_
_atom_site_label
_atom_site_type_symbol
_atom_site_fract_x
_atom_site_fract_y
_atom_site_fract_z
Br1 Br 0.38569(2) 0.46903(5) 0.75070(2)
O1 O 0.7390(1) 0.0603(3) 0.3407(2)
N1 N 0.8390(2) 0.2832(3) 0.3757(2)
C1 C 0.7614(2) 0.1895(4) 0.3872(2)
C2 C 0.7080(2) 0.2525(4) 0.4609(2)
C3 C 0.6143(2) 0.2055(4) 0.4564(2)
C4 C 0.5604(2) 0.2641(4) 0.5234(2)
C5 C 0.4641(2) 0.2197(4) 0.5209(2)
C6 C 0.4144(2) 0.2761(5) 0.5871(2)
C7 C 0.4577(2) 0.3856(4) 0.6593(2)
C8 C 0.5499(2) 0.4328(4) 0.6660(2)
C9 C 0.6027(2) 0.3725(4) 0.5982(2)
C10 C 0.6998(2) 0.4199(4) 0.6015(2)
C11 C 0.7495(2) 0.3631(4) 0.5346(2)
C12 C 0.8507(2) 0.4149(4) 0.5324(2)
C13 C 0.8635(2) 0.4399(4) 0.4300(2)
C14 C 0.8884(2) 0.2496(5) 0.2958(2)
C15 C 0.9935(2) 0.2180(4) 0.3244(2)
C16 C 1.0543(2) 0.2576(4) 0.2618(2)
C17 C 1.1504(2) 0.2239(5) 0.2861(3)
C18 C 1.1852(2) 0.1528(5) 0.3723(3)
C19 C 1.1258(2) 0.1155(5) 0.4360(3)
C20 C 1.0289(2) 0.1485(4) 0.4116(2)
H1 H 0.5867 0.1313 0.4069
H2 H 0.4342 0.1478 0.4712
H3 H 0.3498 0.2433 0.5848
H4 H 0.5780 0.5055 0.7162
H5 H 0.7283 0.4925 0.6511
H6 H 0.8642 0.5183 0.5667
H7 H 0.8922 0.3284 0.5609
H8 H 0.9277 0.4680 0.4280
H9 H 0.8240 0.5297 0.4026
H10 H 0.8612 0.1521 0.2627
H11 H 0.8806 0.3453 0.2542
H12 H 1.0315 0.3084 0.2020
H13 H 1.1916 0.2508 0.2423
H14 H 1.2509 0.1288 0.3884
H15 H 1.1494 0.0665 0.4963
H16 H 0.9885 0.1226 0.4560
loop_
_geom_bond_atom_site_label_1
_geom_bond_atom_site_label_2
_geom_bond_site_symmetry_1
_geom_bond_site_symmetry_2
Br1 C7 1_555 1_555
O1 C1 1_555 1_555
N1 C1 1_555 1_555
C1 C2 1_555 1_555
C2 C3 1_555 1_555
C3 C4 1_555 1_555
C4 C5 1_555 1_555
C5 C6 1_555 1_555
C6 C7 1_555 1_555
C7 C8 1_555 1_555
C8 C9 1_555 1_555
C9 C4 1_555 1_555
C10 C9 1_555 1_555
C11 C2 1_555 1_555
C12 C11 1_555 1_555
C13 N1 1_555 1_555
C14 N1 1_555 1_555
C15 C14 1_555 1_555
C16 C15 1_555 1_555
C17 C16 1_555 1_555
C18 C17 1_555 1_555
C19 C18 1_555 1_555
C20 C15 1_555 1_555
H1 C3 1_555 1_555
H2 C5 1_555 1_555
H3 C6 1_555 1_555
H4 C8 1_555 1_555
H5 C10 1_555 1_555
H6 C12 1_555 1_555
H7 C12 1_555 1_555
H8 C13 1_555 1_555
H9 C13 1_555 1_555
H10 C14 1_555 1_555
H11 C14 1_555 1_555
H12 C16 1_555 1_555
H13 C17 1_555 1_555
H14 C18 1_555 1_555
H15 C19 1_555 1_555
H16 C20 1_555 1_555
C10 C11 1_555 1_555
C12 C13 1_555 1_555
C19 C20 1_555 1_555

#END
