
#######################################################################
#
#                 Cambridge Crystallographic Data Centre
#                                CCDC 
#
#######################################################################
#
# If this CIF has been generated from an entry in the Cambridge 
# Structural Database, then it will include bibliographic, chemical, 
# crystal, experimental, refinement or atomic coordinate data resulting 
# from the CCDC's data processing and validation procedures.
#
#######################################################################

data_YAPDEA01
_chemical_name_common            'Cyanogriside A'
_chemical_formula_moiety         'C19 H21 N3 O7'
_chemical_name_systematic        
8-((Hydroxyimino)methyl)-3,4a-dimethoxy-2-methyl-6-(pyridin-2-yl)-3,4,4a,10a-tetrahydro-2H-pyrano[2',3':5,6][1,4]dioxino[2,3-c]pyridin-4-ol
_symmetry_cell_setting           orthorhombic
_symmetry_space_group_name_H-M   'P 21 21 21'
_symmetry_Int_Tables_number      19
_space_group_name_Hall           'P 2ac 2ab'
loop_
_symmetry_equiv_pos_site_id
_symmetry_equiv_pos_as_xyz
1 x,y,z
2 1/2-x,-y,1/2+z
3 -x,1/2+y,1/2-z
4 1/2+x,1/2-y,-z
_cell_length_a                   7.13190(10)
_cell_length_b                   10.27060(10)
_cell_length_c                   24.8328(2)
_cell_angle_alpha                90
_cell_angle_beta                 90
_cell_angle_gamma                90
_cell_volume                     1818.98
_exptl_crystal_colour            colorless
_exptl_crystal_description       block
_cell_formula_units_Z            4
loop_
_atom_site_label
_atom_site_type_symbol
_atom_site_fract_x
_atom_site_fract_y
_atom_site_fract_z
O1 O 0.18288(14) 0.11623(10) 0.78447(4)
C1 C -0.0156(2) 0.12628(14) 0.77198(6)
H1 H -0.0591 0.2169 0.7799
C2 C -0.12692(19) 0.03041(14) 0.80677(6)
H2 H -0.0858 -0.0608 0.7990
O2 O -0.32194(14) 0.04415(10) 0.79548(4)
C3 C -0.09159(19) 0.06264(13) 0.86591(5)
H3 H -0.1298 0.1549 0.8725
C4 C 0.1189(2) 0.05040(13) 0.87639(5)
O3 O -0.19443(14) -0.01895(9) 0.90122(4)
H4 H -0.2584 0.0271 0.9223
O4 O 0.16480(14) -0.07969(9) 0.86951(4)
O5 O 0.16235(14) 0.08447(9) 0.93127(4)
C5 C 0.15636(19) 0.21458(13) 0.94375(5)
C6 C 0.14635(18) 0.25703(14) 0.99735(6)
N1 N 0.13823(16) 0.38578(11) 1.00883(5)
C7 C 0.13113(19) 0.47184(13) 0.96818(6)
C8 C 0.1469(2) 0.43695(14) 0.91438(5)
H5 H 0.1460 0.5009 0.8868
C9 C 0.1637(2) 0.30735(14) 0.90239(6)
O6 O 0.18394(16) 0.27316(9) 0.84939(4)
C10 C 0.2282(2) 0.13926(14) 0.83800(6)
H6 H 0.3657 0.1250 0.8433
C11 C -0.0338(2) 0.10071(17) 0.71207(6)
H7 H 0.0401 0.1650 0.6921
H8 H -0.1659 0.1075 0.7015
H9 H 0.0124 0.0131 0.7039
C12 C 0.0986(2) 0.60807(14) 0.98387(6)
H10 H 0.1252 0.6374 1.0193
N2 N 0.03338(19) 0.68595(12) 0.94823(5)
O7 O -0.00077(17) 0.80748(10) 0.97088(4)
H11 H -0.0417 0.8582 0.9471
C13 C -0.4014(2) -0.06854(17) 0.77071(7)
H12 H -0.3426 -0.0825 0.7355
H13 H -0.5366 -0.0557 0.7660
H14 H -0.3795 -0.1447 0.7936
C14 C 0.3435(2) -0.12169(15) 0.89001(6)
H15 H 0.4398 -0.0578 0.8803
H16 H 0.3756 -0.2064 0.8744
H17 H 0.3368 -0.1295 0.9293
N3 N 0.11757(17) 0.22770(11) 1.09305(5)
C15 C 0.13989(19) 0.16768(13) 1.04518(5)
C16 C 0.1549(2) 0.03279(14) 1.04165(6)
H18 H 0.1728 -0.0079 1.0077
C17 C 0.1434(2) -0.04208(14) 1.08824(6)
H19 H 0.1512 -0.1343 1.0863
C18 C 0.1207(2) 0.01872(14) 1.13716(6)
H20 H 0.1123 -0.0299 1.1696
C19 C 0.1104(2) 0.15365(14) 1.13742(6)
H21 H 0.0974 0.1962 1.1712
loop_
_geom_bond_atom_site_label_1
_geom_bond_atom_site_label_2
_geom_bond_site_symmetry_1
_geom_bond_site_symmetry_2
O1 C1 1_555 1_555
C1 H1 1_555 1_555
C2 C1 1_555 1_555
H2 C2 1_555 1_555
O2 C2 1_555 1_555
C3 C2 1_555 1_555
H3 C3 1_555 1_555
C4 C3 1_555 1_555
O3 C3 1_555 1_555
H4 O3 1_555 1_555
O4 C4 1_555 1_555
O5 C4 1_555 1_555
C5 O5 1_555 1_555
C6 C5 1_555 1_555
N1 C6 1_555 1_555
C7 N1 1_555 1_555
C8 C7 1_555 1_555
H5 C8 1_555 1_555
C9 C5 1_555 1_555
O6 C9 1_555 1_555
C10 O1 1_555 1_555
H6 C10 1_555 1_555
C11 C1 1_555 1_555
H7 C11 1_555 1_555
H8 C11 1_555 1_555
H9 C11 1_555 1_555
C12 C7 1_555 1_555
H10 C12 1_555 1_555
N2 C12 1_555 1_555
O7 N2 1_555 1_555
H11 O7 1_555 1_555
C13 O2 1_555 1_555
H12 C13 1_555 1_555
H13 C13 1_555 1_555
H14 C13 1_555 1_555
C14 O4 1_555 1_555
H15 C14 1_555 1_555
H16 C14 1_555 1_555
H17 C14 1_555 1_555
N3 C15 1_555 1_555
C15 C6 1_555 1_555
C16 C15 1_555 1_555
H18 C16 1_555 1_555
C17 C16 1_555 1_555
H19 C17 1_555 1_555
C18 C17 1_555 1_555
H20 C18 1_555 1_555
C19 N3 1_555 1_555
H21 C19 1_555 1_555
C4 C10 1_555 1_555
C8 C9 1_555 1_555
O6 C10 1_555 1_555
C18 C19 1_555 1_555

#END
