
#######################################################################
#
#                 Cambridge Crystallographic Data Centre
#                                CCDC 
#
#######################################################################
#
# If this CIF has been generated from an entry in the Cambridge 
# Structural Database, then it will include bibliographic, chemical, 
# crystal, experimental, refinement or atomic coordinate data resulting 
# from the CCDC's data processing and validation procedures.
#
#######################################################################

data_YAPGOO
_chemical_formula_moiety         'C16 H12 O5'
_chemical_name_systematic        7-hydroxy-1,2-dimethoxyanthracene-9,10-dione
_symmetry_cell_setting           monoclinic
_symmetry_space_group_name_H-M   'P 21/c'
_symmetry_Int_Tables_number      14
_space_group_name_Hall           '-P 2ybc'
loop_
_symmetry_equiv_pos_site_id
_symmetry_equiv_pos_as_xyz
1 x,y,z
2 -x,1/2+y,1/2-z
3 -x,-y,-z
4 x,1/2-y,1/2+z
_cell_length_a                   10.4466(6)
_cell_length_b                   4.1414(2)
_cell_length_c                   29.0120(18)
_cell_angle_alpha                90
_cell_angle_beta                 94.984(3)
_cell_angle_gamma                90
_cell_volume                     1250.42
_exptl_crystal_colour            colorless
_cell_formula_units_Z            4
loop_
_atom_site_label
_atom_site_type_symbol
_atom_site_fract_x
_atom_site_fract_y
_atom_site_fract_z
C1 C 0.7292(3) 0.2702(7) 0.33093(9)
C2 C 0.6843(3) 0.4369(7) 0.36892(9)
C3 C 0.5526(2) 0.4766(6) 0.37197(9)
C4 C 0.5009(3) 0.6597(7) 0.41071(10)
C5 C 0.3592(3) 0.7066(7) 0.40892(9)
C6 C 0.3098(3) 0.8848(7) 0.44451(11)
H1 H 0.3648 0.9712 0.4693
C7 C 0.1791(3) 0.9298(8) 0.44232(11)
C8 C 0.0952(3) 0.8102(8) 0.40741(12)
H2 H 0.0054 0.8475 0.4073
C9 C 0.1440(3) 0.6357(8) 0.37277(11)
H3 H 0.0875 0.5505 0.3483
C10 C 0.2752(3) 0.5826(7) 0.37310(10)
C11 C 0.3254(3) 0.3906(7) 0.33564(10)
C12 C 0.4659(3) 0.3460(6) 0.33654(9)
C13 C 0.5129(3) 0.1757(7) 0.30070(9)
H4 H 0.4541 0.0824 0.2776
C14 C 0.6431(3) 0.1375(7) 0.29751(10)
H5 H 0.6731 0.0204 0.2724
C15 C 0.9085(3) 0.0912(9) 0.29238(11)
H6 H 0.8780 -0.1327 0.2911
H7 H 1.0026 0.0936 0.2962
H8 H 0.8787 0.2023 0.2636
C16 C 0.8065(3) 0.3678(8) 0.44011(11)
H9 H 0.7381 0.3844 0.4611
H10 H 0.8878 0.4413 0.4561
H11 H 0.8151 0.1426 0.4305
O1 O 0.85882(17) 0.2528(5) 0.33078(7)
O2 O 0.77499(17) 0.5660(5) 0.40006(6)
O3 O 0.5689(2) 0.7665(6) 0.44304(8)
O4 O 0.13086(19) 1.1017(5) 0.47650(7)
H12 H 0.1359 1.2998 0.4707
O5 O 0.25261(19) 0.2781(6) 0.30435(7)
loop_
_geom_bond_atom_site_label_1
_geom_bond_atom_site_label_2
_geom_bond_site_symmetry_1
_geom_bond_site_symmetry_2
C1 C2 1_555 1_555
C2 C3 1_555 1_555
C3 C4 1_555 1_555
C4 C5 1_555 1_555
C5 C6 1_555 1_555
C6 H1 1_555 1_555
C7 C6 1_555 1_555
C8 C7 1_555 1_555
H2 C8 1_555 1_555
C9 C8 1_555 1_555
H3 C9 1_555 1_555
C10 C5 1_555 1_555
C11 C10 1_555 1_555
C12 C3 1_555 1_555
C13 C12 1_555 1_555
H4 C13 1_555 1_555
C14 C1 1_555 1_555
H5 C14 1_555 1_555
C15 H6 1_555 1_555
H7 C15 1_555 1_555
H8 C15 1_555 1_555
C16 H9 1_555 1_555
H10 C16 1_555 1_555
H11 C16 1_555 1_555
O1 C1 1_555 1_555
O2 C2 1_555 1_555
O3 C4 1_555 1_555
O4 C7 1_555 1_555
H12 O4 1_555 1_555
O5 C11 1_555 1_555
C9 C10 1_555 1_555
C11 C12 1_555 1_555
C13 C14 1_555 1_555
C15 O1 1_555 1_555
C16 O2 1_555 1_555

#END
