
#######################################################################
#
#                 Cambridge Crystallographic Data Centre
#                                CCDC 
#
#######################################################################
#
# If this CIF has been generated from an entry in the Cambridge 
# Structural Database, then it will include bibliographic, chemical, 
# crystal, experimental, refinement or atomic coordinate data resulting 
# from the CCDC's data processing and validation procedures.
#
#######################################################################

data_YAPHAB
_chemical_formula_moiety         'C25 H28 N2 O6'
_chemical_name_systematic        
'3-methoxy-10-[(pyridine-2-carbonyl)amino]-5,6,7,8,9,10-hexahydrophenanthrene-1,8a(4bH)-diyl diacetate'
_symmetry_cell_setting           monoclinic
_symmetry_space_group_name_H-M   'C 2/c'
_symmetry_Int_Tables_number      15
_space_group_name_Hall           '-C 2yn'
loop_
_symmetry_equiv_pos_site_id
_symmetry_equiv_pos_as_xyz
1 x,y,z
2 -x,y,1/2-z
3 1/2+x,1/2+y,z
4 1/2-x,1/2+y,1/2-z
5 -x,-y,-z
6 x,-y,1/2+z
7 1/2-x,1/2-y,-z
8 1/2+x,1/2-y,1/2+z
_cell_length_a                   25.1784(14)
_cell_length_b                   10.2826(5)
_cell_length_c                   19.7614(11)
_cell_angle_alpha                90
_cell_angle_beta                 110.072(6)
_cell_angle_gamma                90
_cell_volume                     4805.47
_exptl_crystal_colour            brown
_exptl_crystal_description       Block
_cell_formula_units_Z            8
loop_
_atom_site_label
_atom_site_type_symbol
_atom_site_fract_x
_atom_site_fract_y
_atom_site_fract_z
O1 O 0.37138(9) 0.6409(2) 0.87346(10)
O2 O 0.41359(10) 0.4209(2) 0.65734(12)
O3 O 0.44280(9) 0.2177(2) 0.83122(14)
N1 N 0.39095(10) 0.3997(2) 0.79852(13)
H1 H 0.3573 0.4314 0.7849
O4 O 0.34038(12) 0.8504(3) 0.57729(11)
C1 C 0.39738(12) 0.2744(3) 0.81516(15)
O5 O 0.38471(12) 0.4953(3) 0.96267(15)
C2 C 0.40807(11) 0.7171(3) 0.75564(13)
C3 C 0.41605(11) 0.5863(3) 0.74206(14)
C4 C 0.34429(13) 0.2069(3) 0.81401(15)
N2 N 0.29782(11) 0.2773(3) 0.79636(17)
C5 C 0.40000(12) 0.5486(3) 0.67027(15)
C6 C 0.43770(11) 0.4877(3) 0.80181(15)
H2 H 0.4673 0.4364 0.7925
C7 C 0.43254(13) 0.6687(3) 0.88870(15)
C8 C 0.38354(12) 0.8012(3) 0.69873(15)
H3 H 0.3785 0.8881 0.7082
C9 C 0.42927(12) 0.7711(3) 0.83136(14)
H4 H 0.4022 0.8375 0.8343
C10 C 0.46306(12) 0.5484(3) 0.87637(15)
H5 H 0.4632 0.4836 0.9121
H6 H 0.5021 0.5712 0.8841
O6 O 0.32274(15) 0.3628(3) 0.6134(2)
C11 C 0.36635(13) 0.7585(3) 0.62795(15)
C12 C 0.37559(13) 0.6311(3) 0.61320(16)
H7 H 0.3656 0.6017 0.5660
C13 C 0.48631(15) 0.8390(3) 0.84512(17)
H8 H 0.5126 0.7775 0.8367
H9 H 0.4812 0.9097 0.8110
C14 C 0.34574(17) 0.0787(3) 0.8317(2)
H10 H 0.3793 0.0317 0.8435
C15 C 0.35431(16) 0.5628(4) 0.9161(2)
C16 C 0.3718(2) 0.3352(4) 0.6283(2)
C17 C 0.45810(15) 0.7260(4) 0.96401(16)
H11 H 0.4622 0.6577 0.9993
H12 H 0.4325 0.7909 0.9711
C18 C 0.51567(17) 0.7884(4) 0.97630(18)
H13 H 0.5298 0.8258 1.0242
H14 H 0.5422 0.7222 0.9733
C19 C 0.51186(18) 0.8930(4) 0.92137(18)
H15 H 0.5493 0.9270 0.9285
H16 H 0.4886 0.9639 0.9278
C20 C 0.2965(2) 0.0201(4) 0.8315(2)
H17 H 0.2964 -0.0676 0.8431
C21 C 0.24889(19) 0.0898(5) 0.8147(2)
H18 H 0.2154 0.0524 0.8151
C22 C 0.25094(16) 0.2166(5) 0.7971(3)
H19 H 0.2177 0.2646 0.7847
C23 C 0.3229(2) 0.8141(5) 0.50359(18)
H20 H 0.3032 0.8853 0.4742
H21 H 0.2983 0.7401 0.4955
H22 H 0.3555 0.7924 0.4911
C24 C 0.29125(17) 0.5682(5) 0.8963(2)
H23 H 0.2797 0.6566 0.8983
H24 H 0.2801 0.5163 0.9296
H25 H 0.2736 0.5350 0.8484
C25 C 0.3947(3) 0.2041(4) 0.6215(3)
H26 H 0.4239 0.2125 0.6006
H27 H 0.3649 0.1503 0.5911
H28 H 0.4103 0.1650 0.6683
loop_
_geom_bond_atom_site_label_1
_geom_bond_atom_site_label_2
_geom_bond_site_symmetry_1
_geom_bond_site_symmetry_2
O1 C7 1_555 1_555
O2 C5 1_555 1_555
O3 C1 1_555 1_555
N1 H1 1_555 1_555
O4 C11 1_555 1_555
C1 N1 1_555 1_555
O5 C15 1_555 1_555
C2 C3 1_555 1_555
C3 C5 1_555 1_555
C4 C1 1_555 1_555
N2 C4 1_555 1_555
C5 C12 1_555 1_555
C6 N1 1_555 1_555
H2 C6 1_555 1_555
C7 C9 1_555 1_555
C8 C2 1_555 1_555
H3 C8 1_555 1_555
C9 C2 1_555 1_555
H4 C9 1_555 1_555
C10 C6 1_555 1_555
H5 C10 1_555 1_555
H6 C10 1_555 1_555
O6 C16 1_555 1_555
C11 C8 1_555 1_555
C12 C11 1_555 1_555
H7 C12 1_555 1_555
C13 C9 1_555 1_555
H8 C13 1_555 1_555
H9 C13 1_555 1_555
C14 C4 1_555 1_555
H10 C14 1_555 1_555
C15 O1 1_555 1_555
C16 O2 1_555 1_555
C17 C7 1_555 1_555
H11 C17 1_555 1_555
H12 C17 1_555 1_555
C18 C17 1_555 1_555
H13 C18 1_555 1_555
H14 C18 1_555 1_555
C19 C13 1_555 1_555
H15 C19 1_555 1_555
H16 C19 1_555 1_555
C20 C14 1_555 1_555
H17 C20 1_555 1_555
C21 C20 1_555 1_555
H18 C21 1_555 1_555
C22 N2 1_555 1_555
H19 C22 1_555 1_555
C23 O4 1_555 1_555
H20 C23 1_555 1_555
H21 C23 1_555 1_555
H22 C23 1_555 1_555
C24 C15 1_555 1_555
H23 C24 1_555 1_555
H24 C24 1_555 1_555
H25 C24 1_555 1_555
C25 C16 1_555 1_555
H26 C25 1_555 1_555
H27 C25 1_555 1_555
H28 C25 1_555 1_555
C3 C6 1_555 1_555
C7 C10 1_555 1_555
C18 C19 1_555 1_555
C21 C22 1_555 1_555

#END
