
#######################################################################
#
#                 Cambridge Crystallographic Data Centre
#                                CCDC 
#
#######################################################################
#
# If this CIF has been generated from an entry in the Cambridge 
# Structural Database, then it will include bibliographic, chemical, 
# crystal, experimental, refinement or atomic coordinate data resulting 
# from the CCDC's data processing and validation procedures.
#
#######################################################################

data_YAPSUG
_chemical_formula_moiety         'C33 H28 O5'
_chemical_name_systematic        
"diethyl 2'-oxo-2-phenyl-2'H,3H-spiro[acenaphthylene-1,1'-naphthalene]-4,4(5H)-dicarboxylate"
_symmetry_cell_setting           triclinic
_symmetry_space_group_name_H-M   'P -1'
_symmetry_Int_Tables_number      2
_space_group_name_Hall           '-P 1'
loop_
_symmetry_equiv_pos_site_id
_symmetry_equiv_pos_as_xyz
1 x,y,z
2 -x,-y,-z
_cell_length_a                   10.846(3)
_cell_length_b                   11.856(3)
_cell_length_c                   12.144(3)
_cell_angle_alpha                95.924(4)
_cell_angle_beta                 116.435(3)
_cell_angle_gamma                103.106(4)
_cell_volume                     1324.05
_exptl_crystal_colour            colorless
_exptl_crystal_description       block
_cell_formula_units_Z            2
loop_
_atom_site_label
_atom_site_type_symbol
_atom_site_fract_x
_atom_site_fract_y
_atom_site_fract_z
O1 O 0.17500(18) 0.97842(15) 0.33379(18)
O2 O 0.4550(2) 0.62245(16) 0.67684(18)
O3 O 0.5088(2) 0.66866(18) 0.87886(17)
O4 O 0.77125(18) 0.79601(19) 0.84555(18)
O5 O 0.7773(2) 0.9639(2) 0.95144(19)
C1 C 0.3589(8) 0.4227(4) 0.5547(6)
H1 H 0.2733 0.3636 0.5407
H2 H 0.4244 0.3841 0.5468
H3 H 0.3333 0.4700 0.4932
C2 C 0.4258(6) 0.4963(3) 0.6765(4)
H4 H 0.5162 0.4812 0.7283
H5 H 0.3641 0.4759 0.7143
C3 C 0.5015(2) 0.6985(2) 0.7855(2)
C4 C 0.9597(5) 0.7150(6) 0.8980(5)
H6 H 0.9076 0.6581 0.9252
H7 H 1.0616 0.7283 0.9490
H8 H 0.9311 0.6847 0.8110
C5 C 0.9277(3) 0.8259(4) 0.9114(3)
H9 H 0.9694 0.8808 0.8742
H10 H 0.9668 0.8626 1.0000
C6 C 0.7125(3) 0.8735(3) 0.8724(2)
C7 C 0.5500(2) 0.8295(2) 0.7830(2)
C8 C 0.4762(3) 0.9005(2) 0.8335(2)
H11 H 0.4814 0.8779 0.9096
H12 H 0.5281 0.9847 0.8560
C9 C 0.3202(2) 0.87951(19) 0.7383(2)
C10 C 0.2116(3) 0.8929(2) 0.7653(2)
H13 H 0.2326 0.9139 0.8491
C11 C 0.0731(3) 0.8755(2) 0.6693(2)
H14 H 0.0029 0.8859 0.6901
C12 C 0.0357(2) 0.84289(19) 0.5427(2)
H15 H -0.0580 0.8310 0.4789
C13 C 0.1422(2) 0.82879(17) 0.51476(19)
C14 C 0.2812(2) 0.84751(17) 0.61159(19)
C15 C 0.3751(2) 0.83077(18) 0.56028(18)
C16 C 0.5304(2) 0.8495(2) 0.65207(19)
H16 H 0.5869 0.9300 0.6628
H17 H 0.5662 0.7947 0.6184
C17 C 0.2992(2) 0.80099(18) 0.43261(19)
C18 C 0.1393(2) 0.79019(18) 0.38873(18)
C19 C 0.0907(2) 0.88042(19) 0.3098(2)
C20 C -0.0585(2) 0.8468(2) 0.2111(2)
H18 H -0.0947 0.9049 0.1738
C21 C -0.1452(3) 0.7354(2) 0.1723(2)
H19 H -0.2394 0.7186 0.1072
C22 C -0.1004(2) 0.6391(2) 0.2264(2)
C23 C -0.1936(3) 0.5225(2) 0.1775(3)
H20 H -0.2851 0.5064 0.1084
C24 C -0.1525(3) 0.4319(2) 0.2299(3)
H21 H -0.2153 0.3545 0.1959
C25 C -0.0186(4) 0.4553(2) 0.3326(3)
H22 H 0.0084 0.3938 0.3694
C26 C 0.0772(3) 0.5703(2) 0.3823(2)
H23 H 0.1683 0.5852 0.4515
C27 C 0.0374(2) 0.66249(18) 0.32931(19)
C28 C 0.3543(2) 0.7841(2) 0.3430(2)
C29 C 0.2674(3) 0.7100(3) 0.2227(2)
H24 H 0.1714 0.6698 0.1970
C30 C 0.3219(4) 0.6953(4) 0.1406(3)
H25 H 0.2620 0.6449 0.0607
C31 C 0.4618(4) 0.7533(3) 0.1748(3)
H26 H 0.4975 0.7423 0.1189
C32 C 0.5499(3) 0.8282(3) 0.2930(3)
H27 H 0.6455 0.8683 0.3171
C33 C 0.4970(3) 0.8442(2) 0.3762(2)
H28 H 0.5574 0.8957 0.4554
loop_
_geom_bond_atom_site_label_1
_geom_bond_atom_site_label_2
_geom_bond_site_symmetry_1
_geom_bond_site_symmetry_2
O1 C19 1_555 1_555
O2 C2 1_555 1_555
O3 C3 1_555 1_555
O4 C5 1_555 1_555
O5 C6 1_555 1_555
C1 H1 1_555 1_555
H2 C1 1_555 1_555
H3 C1 1_555 1_555
C2 C1 1_555 1_555
H4 C2 1_555 1_555
H5 C2 1_555 1_555
C3 O2 1_555 1_555
C4 H6 1_555 1_555
H7 C4 1_555 1_555
H8 C4 1_555 1_555
C5 C4 1_555 1_555
H9 C5 1_555 1_555
H10 C5 1_555 1_555
C6 O4 1_555 1_555
C7 C3 1_555 1_555
C8 C7 1_555 1_555
H11 C8 1_555 1_555
H12 C8 1_555 1_555
C9 C8 1_555 1_555
C10 C9 1_555 1_555
H13 C10 1_555 1_555
C11 C10 1_555 1_555
H14 C11 1_555 1_555
C12 C11 1_555 1_555
H15 C12 1_555 1_555
C13 C12 1_555 1_555
C14 C9 1_555 1_555
C15 C14 1_555 1_555
C16 C7 1_555 1_555
H16 C16 1_555 1_555
H17 C16 1_555 1_555
C17 C15 1_555 1_555
C18 C13 1_555 1_555
C19 C18 1_555 1_555
C20 C19 1_555 1_555
H18 C20 1_555 1_555
C21 C20 1_555 1_555
H19 C21 1_555 1_555
C22 C21 1_555 1_555
C23 C22 1_555 1_555
H20 C23 1_555 1_555
C24 C23 1_555 1_555
H21 C24 1_555 1_555
C25 C24 1_555 1_555
H22 C25 1_555 1_555
C26 C25 1_555 1_555
H23 C26 1_555 1_555
C27 C18 1_555 1_555
C28 C17 1_555 1_555
C29 C28 1_555 1_555
H24 C29 1_555 1_555
C30 C29 1_555 1_555
H25 C30 1_555 1_555
C31 C30 1_555 1_555
H26 C31 1_555 1_555
C32 C31 1_555 1_555
H27 C32 1_555 1_555
C33 C28 1_555 1_555
H28 C33 1_555 1_555
C6 C7 1_555 1_555
C13 C14 1_555 1_555
C15 C16 1_555 1_555
C17 C18 1_555 1_555
C22 C27 1_555 1_555
C26 C27 1_555 1_555
C32 C33 1_555 1_555

#END
