
#######################################################################
#
#                 Cambridge Crystallographic Data Centre
#                                CCDC 
#
#######################################################################
#
# If this CIF has been generated from an entry in the Cambridge 
# Structural Database, then it will include bibliographic, chemical, 
# crystal, experimental, refinement or atomic coordinate data resulting 
# from the CCDC's data processing and validation procedures.
#
#######################################################################

data_YAPXIY
_chemical_formula_moiety         'C24 H27 N1'
_chemical_name_systematic        
(R)-2-((2-Butyl-6-methylphenyl)(2-methylphenyl)methyl)pyridine
_symmetry_cell_setting           monoclinic
_symmetry_space_group_name_H-M   'P 21'
_symmetry_Int_Tables_number      4
_space_group_name_Hall           'P 2yb'
loop_
_symmetry_equiv_pos_site_id
_symmetry_equiv_pos_as_xyz
1 x,y,z
2 -x,1/2+y,-z
_cell_length_a                   8.8002(12)
_cell_length_b                   13.2695(19)
_cell_length_c                   8.9052(13)
_cell_angle_alpha                90
_cell_angle_beta                 113.995(5)
_cell_angle_gamma                90
_cell_volume                     950.031
_exptl_crystal_colour            colorless
_exptl_crystal_description       block
_cell_formula_units_Z            2
loop_
_atom_site_label
_atom_site_type_symbol
_atom_site_fract_x
_atom_site_fract_y
_atom_site_fract_z
C1 C 0.71375(16) 0.52594(10) 1.09019(16)
H1 H 0.7016 0.4642 1.0219
C2 C 0.54804(17) 0.53716(10) 1.10611(17)
C3 C 0.53394(18) 0.52988(11) 1.25500(18)
H2 H 0.6288 0.5156 1.3531
C4 C 0.3794(2) 0.54368(11) 1.25879(19)
H3 H 0.3670 0.5386 1.3597
C5 C 0.24348(17) 0.56486(11) 1.1148(2)
H4 H 0.1371 0.5771 1.1148
C6 C 0.26743(17) 0.56770(12) 0.96982(18)
H5 H 0.1739 0.5806 0.8699
C7 C 0.86152(17) 0.50506(11) 1.25263(17)
C8 C 0.97533(17) 0.58065(11) 1.33572(17)
H6 H 0.9604 0.6465 1.2902
C9 C 1.10996(19) 0.56153(14) 1.48364(19)
H7 H 1.1858 0.6139 1.5385
C10 C 1.1328(2) 0.46515(16) 1.55069(19)
H8 H 1.2236 0.4514 1.6523
C11 C 1.0221(2) 0.38955(13) 1.46811(19)
H9 H 1.0389 0.3237 1.5137
C12 C 0.88593(19) 0.40748(11) 1.31923(18)
C13 C 0.7720(2) 0.32169(12) 1.2319(2)
H10 H 0.7781 0.3098 1.1259
H11 H 0.6576 0.3388 1.2137
H12 H 0.8064 0.2607 1.2994
C14 C 0.74617(16) 0.61216(11) 0.99275(17)
C15 C 0.72002(17) 0.71443(12) 1.02089(19)
C16 C 0.7603(2) 0.78920(13) 0.9333(2)
H13 H 0.7455 0.8579 0.9540
C17 C 0.8213(2) 0.76542(14) 0.8167(2)
H14 H 0.8473 0.8174 0.7576
C18 C 0.84412(18) 0.66516(15) 0.7867(2)
H15 H 0.8846 0.6488 0.7057
C19 C 0.80825(16) 0.58773(12) 0.87409(17)
C20 C 0.6507(2) 0.74851(11) 1.1421(2)
H16 H 0.5320 0.7320 1.0995
H17 H 0.6653 0.8215 1.1582
H18 H 0.7097 0.7141 1.2473
C21 C 0.83386(17) 0.48014(12) 0.83321(18)
H19 H 0.8769 0.4398 0.9356
H20 H 0.9186 0.4789 0.7866
C22 C 0.67276(19) 0.43173(13) 0.71004(18)
H21 H 0.5897 0.4304 0.7587
H22 H 0.6272 0.4738 0.6097
C23 C 0.6986(2) 0.32478(14) 0.6625(2)
H23 H 0.7333 0.2809 0.7607
H24 H 0.7891 0.3248 0.6234
C24 C 0.5410(2) 0.28210(15) 0.5282(2)
H25 H 0.5040 0.3267 0.4322
H26 H 0.4536 0.2772 0.5694
H27 H 0.5642 0.2150 0.4967
N1 N 0.41575(16) 0.55313(9) 0.96357(15)
loop_
_geom_bond_atom_site_label_1
_geom_bond_atom_site_label_2
_geom_bond_site_symmetry_1
_geom_bond_site_symmetry_2
C1 H1 1_555 1_555
C2 C1 1_555 1_555
C3 C2 1_555 1_555
H2 C3 1_555 1_555
C4 C3 1_555 1_555
H3 C4 1_555 1_555
C5 C4 1_555 1_555
H4 C5 1_555 1_555
C6 C5 1_555 1_555
H5 C6 1_555 1_555
C7 C1 1_555 1_555
C8 C7 1_555 1_555
H6 C8 1_555 1_555
C9 C8 1_555 1_555
H7 C9 1_555 1_555
C10 C9 1_555 1_555
H8 C10 1_555 1_555
C11 C10 1_555 1_555
H9 C11 1_555 1_555
C12 C7 1_555 1_555
C13 C12 1_555 1_555
H10 C13 1_555 1_555
H11 C13 1_555 1_555
H12 C13 1_555 1_555
C14 C1 1_555 1_555
C15 C14 1_555 1_555
C16 C15 1_555 1_555
H13 C16 1_555 1_555
C17 C16 1_555 1_555
H14 C17 1_555 1_555
C18 C17 1_555 1_555
H15 C18 1_555 1_555
C19 C14 1_555 1_555
C20 C15 1_555 1_555
H16 C20 1_555 1_555
H17 C20 1_555 1_555
H18 C20 1_555 1_555
C21 C19 1_555 1_555
H19 C21 1_555 1_555
H20 C21 1_555 1_555
C22 C21 1_555 1_555
H21 C22 1_555 1_555
H22 C22 1_555 1_555
C23 C22 1_555 1_555
H23 C23 1_555 1_555
H24 C23 1_555 1_555
C24 C23 1_555 1_555
H25 C24 1_555 1_555
H26 C24 1_555 1_555
H27 C24 1_555 1_555
N1 C2 1_555 1_555
C6 N1 1_555 1_555
C11 C12 1_555 1_555
C18 C19 1_555 1_555

#END
