
#######################################################################
#
#                 Cambridge Crystallographic Data Centre
#                                CCDC 
#
#######################################################################
#
# If this CIF has been generated from an entry in the Cambridge 
# Structural Database, then it will include bibliographic, chemical, 
# crystal, experimental, refinement or atomic coordinate data resulting 
# from the CCDC's data processing and validation procedures.
#
#######################################################################

data_YAPYOF
_chemical_formula_moiety         
'C60 H74 N4 O16,C30 H34 N2 O2 2+,2(F6 P1 1-),2(C2 H3 N1),C1 H1 Cl3,H2 O1'
_chemical_name_systematic        
"N,N'-(ethane-1,2-diylbis(oxy-4,1-phenylenemethylene))bis(phenylmethanaminium) bis(hexafluorophosphate) 17,46-dipropyl-7,8,10,11,13,14,20,21,23,24,26,27,36,37,39,40,42,43,49,50,52,53,55,56-tetracosahydroquinoxalino[2''',3''':14'',15''][1,4,7,10,13,16,19,22]octaoxacyclotetracosino[2'',3'':6',7']anthra[2',3':14,15][1,4,7,10,13,16,19,22]octaoxacyclotetracosino[2,3-b]quinoxaline acetonitrile chloroform solvate monohydrate"
_symmetry_cell_setting           monoclinic
_symmetry_space_group_name_H-M   'P 21/n'
_symmetry_Int_Tables_number      14
_space_group_name_Hall           '-P 2yn'
loop_
_symmetry_equiv_pos_site_id
_symmetry_equiv_pos_as_xyz
1 x,y,z
2 1/2-x,1/2+y,1/2-z
3 -x,-y,-z
4 1/2+x,1/2-y,1/2+z
_cell_length_a                   14.484(3)
_cell_length_b                   32.495(7)
_cell_length_c                   22.293(5)
_cell_angle_alpha                90
_cell_angle_beta                 99.43(3)
_cell_angle_gamma                90
_cell_volume                     10350.6
_exptl_crystal_colour            colorless
_exptl_crystal_description       block
_cell_formula_units_Z            4
loop_
_atom_site_label
_atom_site_type_symbol
_atom_site_fract_x
_atom_site_fract_y
_atom_site_fract_z
C1 C 0.4035(4) -0.0716(2) 0.7212(3)
C2 C 0.4911(4) -0.0504(2) 0.7271(3)
C3 C 0.4969(4) -0.0072(2) 0.7358(3)
H1 H 0.4411 0.0079 0.7368
C4 C 0.5793(5) 0.0129(2) 0.7426(3)
C5 C 0.6645(4) -0.0092(2) 0.7400(3)
C6 C 0.6612(4) -0.0502(2) 0.7312(3)
H2 H 0.7174 -0.0646 0.7286
C7 C 0.5756(4) -0.0725(2) 0.7258(3)
C8 C 0.5736(4) -0.1162(2) 0.7197(3)
C9 C 0.4887(4) -0.1371(2) 0.7196(3)
C10 C 0.4832(4) -0.1816(2) 0.7178(3)
H3 H 0.5385 -0.1971 0.7169
C11 C 0.4009(4) -0.2018(2) 0.7176(3)
C12 C 0.3170(4) -0.1791(2) 0.7186(3)
C13 C 0.3180(4) -0.1376(2) 0.7182(3)
H4 H 0.261 -0.1231 0.7176
C14 C 0.4020(4) -0.1151(2) 0.7186(3)
C15 C 0.6630(4) -0.1397(2) 0.7153(3)
H5 H 0.7032 -0.1225 0.6936
H6 H 0.6468 -0.1649 0.6908
C16 C 0.7183(4) -0.1520(2) 0.7771(4)
H7 H 0.6793 -0.1699 0.7986
H8 H 0.7344 -0.127 0.8021
C17 C 0.8085(5) -0.1748(3) 0.7692(5)
H9 H 0.8429 -0.1824 0.8092
H10 H 0.8475 -0.1568 0.7485
H11 H 0.7925 -0.1997 0.7448
C18 C 0.3131(4) -0.0478(2) 0.7180(3)
H12 H 0.2625 -0.063 0.6919
H13 H 0.3201 -0.0208 0.6986
C19 C 0.2847(5) -0.0407(3) 0.7800(4)
H14 H 0.2768 -0.0676 0.7992
H15 H 0.3356 -0.0257 0.8063
C20 C 0.1955(6) -0.0165(3) 0.7762(5)
H16 H 0.1811 -0.0123 0.8172
H17 H 0.1443 -0.0318 0.7516
H18 H 0.2029 0.0102 0.7572
C21 C 0.8311(4) -0.0058(2) 0.7577(4)
H19 H 0.8443 -0.0171 0.7188
H20 H 0.8306 -0.0288 0.7869
C22 C 0.9033(5) 0.0255(3) 0.7825(5)
H21 H 0.8835 0.0395 0.8177
H22 H 0.9633 0.0113 0.797
C23 C 1.0164(5) 0.0701(3) 0.6647(5)
H23 H 1.0428 0.0954 0.6854
H24 H 1.0661 0.0567 0.646
C24 C 0.9689(6) 0.0990(3) 0.5672(4)
H25 H 0.9147 0.0992 0.5337
H26 H 1.0187 0.082 0.5539
C25 C 1.0044(5) 0.1424(2) 0.5784(4)
H27 H 1.0553 0.1433 0.6139
H28 H 1.029 0.153 0.5424
C26 C 0.9440(5) 0.2072(2) 0.5985(3)
C27 C 0.8623(5) 0.2329(2) 0.5998(3)
C28 C 0.6973(5) 0.2398(3) 0.5910(4)
H29 H 0.6925 0.2585 0.5556
H30 H 0.7012 0.2566 0.6284
C29 C 0.6148(6) 0.2121(3) 0.5847(4)
H31 H 0.557 0.2284 0.573
H32 H 0.6186 0.1918 0.5521
C30 C 0.5394(6) 0.2008(3) 0.6693(5)
H33 H 0.4802 0.1976 0.6405
H34 H 0.5453 0.2302 0.6808
C31 C 0.5324(9) 0.1779(4) 0.7217(7)
H35 H 0.566 0.1936 0.7567
H36 H 0.4654 0.1779 0.7261
C32 C 0.5418(5) 0.1194(2) 0.7814(4)
H37 H 0.4921 0.1339 0.7987
H38 H 0.5989 0.1187 0.8127
C33 C 0.5109(5) 0.0764(2) 0.7644(3)
H39 H 0.4847 0.0632 0.798
H40 H 0.4621 0.0766 0.7277
C34 C 0.1552(4) -0.1818(2) 0.7312(3)
H41 H 0.1279 -0.1657 0.6949
H42 H 0.1706 -0.1627 0.766
C35 C 0.0882(5) -0.2135(3) 0.7446(4)
H43 H 0.1185 -0.2303 0.7794
H44 H 0.0335 -0.1996 0.7571
C36 C -0.0313(5) -0.2285(3) 0.6612(4)
H45 H -0.0242 -0.2022 0.64
H46 H -0.0757 -0.2239 0.6899
C37 C -0.0715(5) -0.2606(5) 0.6149(4)
H47 H -0.103 -0.2814 0.6369
H48 H -0.1212 -0.2468 0.586
C38 C -0.0718(7) -0.3009(3) 0.5322(4)
H49 H -0.0347 -0.2998 0.4986
H50 H -0.1314 -0.2862 0.5185
C39 C -0.0923(5) -0.3438(3) 0.5438(3)
H51 H -0.1205 -0.3459 0.5813
H52 H -0.1376 -0.3549 0.5095
C40 C 0.2186(9) -0.4396(4) 0.5502(6)
H53 H 0.2022 -0.4632 0.5226
H54 H 0.2461 -0.4497 0.5912
C41 C 0.2854(10) -0.4079(5) 0.5242(8)
H55 H 0.3313 -0.4224 0.5034
H56 H 0.2491 -0.3883 0.4956
C42 C 0.3946(12) -0.3527(5) 0.5623(8)
H57 H 0.435 -0.3631 0.5339
H58 H 0.3565 -0.3296 0.5426
C43 C 0.4497(9) -0.3396(7) 0.6175(10)
H59 H 0.4954 -0.319 0.608
H60 H 0.4855 -0.3635 0.6366
C44 C 0.4460(6) -0.3115(3) 0.7205(5)
H61 H 0.5018 -0.3294 0.7303
H62 H 0.4051 -0.3164 0.7512
C45 C 0.4761(5) -0.2674(2) 0.7230(4)
H63 H 0.5166 -0.2613 0.7623
H64 H 0.5111 -0.261 0.6896
N1 N 1.0271(4) 0.2219(2) 0.6047(2)
C46 C 1.0367(5) 0.2641(3) 0.6133(3)
C47 C 1.1261(6) 0.2818(3) 0.6204(4)
H65 H 1.1798 0.2649 0.6208
C48 C 1.1354(8) 0.3232(3) 0.6269(4)
H66 H 1.1962 0.3351 0.6325
C49 C 1.0570(9) 0.3488(3) 0.6254(4)
H67 H 1.0647 0.3777 0.6295
C50 C 0.9710(8) 0.3322(3) 0.6181(4)
H68 H 0.9178 0.3495 0.6166
C51 C 0.9593(6) 0.2892(2) 0.6126(3)
N2 N 0.8699(5) 0.2729(2) 0.6059(3)
C52 C -0.0199(6) -0.4099(3) 0.5642(3)
C53 C 0.0665(8) -0.4352(5) 0.5660(4)
N3 N 0.0626(7) -0.4736(3) 0.5743(4)
C54 C -0.0198(10) -0.4905(4) 0.5881(5)
C55 C -0.0175(11) -0.5328(4) 0.5968(6)
H69 H 0.0362 -0.5487 0.5927
C56 C -0.0930(16) -0.5497(7) 0.6110(8)
H70 H -0.0908 -0.578 0.6219
C57 C -0.1762(18) -0.5284(6) 0.6108(6)
H71 H -0.2303 -0.5427 0.6186
C58 C -0.1811(9) -0.4844(4) 0.5987(5)
H72 H -0.2364 -0.4687 0.5988
C59 C -0.0948(9) -0.4668(4) 0.5865(4)
N4 N -0.0939(6) -0.4227(3) 0.5730(3)
C91 C 0.9866(7) 0.0425(5) 0.7088(7)
H104 H 0.9663 0.0164 0.6878
H105 H 1.0419 0.0361 0.7398
O1 O 0.7423(3) 0.01552(14) 0.7487(2)
O2 O 0.9170(3) 0.05537(17) 0.7383(3)
O3 O 0.9413(3) 0.08042(16) 0.6194(3)
O4 O 0.9261(3) 0.16702(15) 0.5897(2)
O5 O 0.7798(3) 0.21358(15) 0.5942(2)
O6 O 0.6107(4) 0.1911(2) 0.6400(2)
O7 O 0.5608(4) 0.14076(18) 0.7282(3)
O8 O 0.5910(3) 0.05474(15) 0.7529(2)
O9 O 0.2387(3) -0.20309(15) 0.72006(19)
O10 O 0.0560(3) -0.2402(2) 0.6940(2)
O11 O -0.0213(5) -0.2798(2) 0.5838(3)
O12 O -0.0059(3) -0.3674(2) 0.5508(2)
O13 O 0.1392(5) -0.4127(2) 0.5521(3)
O14 O 0.3319(6) -0.3869(3) 0.5795(6)
O15 O 0.3965(4) -0.3218(2) 0.6613(4)
O16 O 0.3904(3) -0.24348(15) 0.7168(2)
C60 C 0.2044(4) -0.3404(2) 0.7123(3)
C61 C 0.2172(5) -0.3145(3) 0.7615(4)
H73 H 0.2121 -0.2856 0.7554
C62 C 0.2376(6) -0.3301(3) 0.8208(4)
H74 H 0.2478 -0.312 0.8547
C63 C 0.2428(5) -0.3721(3) 0.8294(4)
H75 H 0.2543 -0.383 0.8695
C64 C 0.2315(5) -0.3980(3) 0.7810(4)
H76 H 0.2367 -0.4269 0.7871
C65 C 0.2128(5) -0.3822(3) 0.7237(4)
H77 H 0.2052 -0.4006 0.6901
C66 C 0.1794(5) -0.3256(3) 0.6477(3)
H78 H 0.2099 -0.3437 0.621
H79 H 0.1109 -0.328 0.6348
C67 C 0.1959(6) -0.2710(3) 0.5733(3)
H80 H 0.129 -0.273 0.5548
H81 H 0.2318 -0.2901 0.5514
C68 C 0.2301(6) -0.2274(3) 0.5670(3)
C69 C 0.1702(6) -0.1950(4) 0.5632(4)
H82 H 0.1054 -0.2002 0.5623
C70 C 0.2006(5) -0.1547(3) 0.5605(3)
H83 H 0.1576 -0.1326 0.559
C71 C 0.2938(5) -0.1472(3) 0.5600(3)
C72 C 0.3552(5) -0.1796(3) 0.5627(3)
H84 H 0.4197 -0.1748 0.5623
C73 C 0.3221(5) -0.2196(3) 0.5661(3)
H85 H 0.3648 -0.2419 0.5677
C74 C 0.4173(5) -0.0994(3) 0.5595(3)
H86 H 0.4389 -0.1105 0.5229
H87 H 0.4533 -0.1129 0.5958
C75 C 0.4320(5) -0.0543(3) 0.5630(3)
H88 H 0.3966 -0.0404 0.5269
H89 H 0.4122 -0.0428 0.6001
C76 C 0.5707(5) -0.0120(2) 0.5771(3)
C77 C 0.5206(5) 0.0237(2) 0.5834(3)
H90 H 0.4542 0.023 0.5787
C78 C 0.5678(5) 0.0598(2) 0.5964(3)
H91 H 0.5334 0.0843 0.5999
C79 C 0.6645(5) 0.0617(2) 0.6047(3)
C80 C 0.7140(5) 0.0256(2) 0.5978(3)
H92 H 0.7804 0.0263 0.603
C81 C 0.6675(5) -0.0110(2) 0.5837(3)
H93 H 0.7016 -0.0353 0.5785
C82 C 0.7180(5) 0.1005(2) 0.6205(3)
H94 H 0.6844 0.1238 0.5981
H95 H 0.7803 0.0983 0.6081
C83 C 0.7993(4) 0.1412(2) 0.7068(3)
H96 H 0.7889 0.1638 0.6768
H97 H 0.8625 0.1298 0.7061
C84 C 0.7964(4) 0.1584(2) 0.7688(3)
C85 C 0.7961(4) 0.2010(3) 0.7757(4)
H98 H 0.7939 0.218 0.7407
C86 C 0.7988(5) 0.2193(3) 0.8320(4)
H99 H 0.7981 0.2484 0.8363
C87 C 0.8025(5) 0.1940(4) 0.8811(4)
H100 H 0.8065 0.206 0.9203
C88 C 0.8007(5) 0.1527(4) 0.8765(4)
H101 H 0.8005 0.1361 0.9116
C89 C 0.7992(5) 0.1345(3) 0.8200(4)
H102 H 0.8 0.1054 0.8166
N5 N 0.2076(4) -0.28298(19) 0.6393(2)
H106 H 0.2693 -0.2797 0.6567
H107 H 0.1723 -0.2657 0.6591
N6 N 0.7295(4) 0.10867(19) 0.6883(2)
H108 H 0.6729 0.1165 0.6982
H109 H 0.748 0.0848 0.7091
O17 O 0.3200(3) -0.10700(18) 0.5567(2)
O18 O 0.5301(3) -0.04965(16) 0.5650(2)
C90 C 0.7109(8) -0.1588(3) 0.5257(5)
H103 H 0.7497 -0.143 0.5592
Cl1 Cl 0.7864(2) -0.18632(11) 0.48791(14)
Cl2 Cl 0.6359(3) -0.19080(14) 0.55852(18)
Cl3 Cl 0.6474(4) -0.12472(18) 0.4794(3)
F1 F 0.6285(5) -0.2668(2) 0.4012(3)
F2 F 0.6981(4) -0.3115(2) 0.4714(2)
F3 F 0.5660(5) -0.3483(2) 0.4604(3)
F4 F 0.4989(4) -0.3031(2) 0.3887(3)
F5 F 0.6348(4) -0.3340(2) 0.3791(2)
F6 F 0.5598(4) -0.2821(2) 0.4816(3)
P1 P 0.59737(18) -0.30757(9) 0.43086(11)
N7 N 0.2671(8) 0.0350(3) 0.5984(5)
C92 C 0.2152(7) 0.0138(3) 0.5686(4)
C93 C 0.1523(7) -0.0135(4) 0.5294(5)
H110 H 0.1332 -0.0004 0.4897
H111 H 0.0968 -0.019 0.5481
H112 H 0.1845 -0.0394 0.5241
N8 N 0.915(2) -0.0727(9) 0.8994(8)
C94 C 0.9369(13) -0.0863(5) 0.8566(7)
C95 C 1.0060(9) -0.0921(4) 0.8098(7)
H113 H 1.0706 -0.0916 0.8314
H114 H 0.9969 -0.0697 0.7799
H115 H 0.9936 -0.1185 0.7889
O19 O -0.2747(17) -0.4333(5) 0.4531(11)
P2 P 0.94796(16) -0.08977(7) 0.61797(11)
F7 F 0.8595(8) -0.0862(4) 0.5628(7)
F8 F 0.9236(15) -0.1366(3) 0.6237(10)
F9 F 0.8794(13) -0.0784(7) 0.6644(8)
F10 F 1.0340(11) -0.0917(6) 0.6700(7)
F11 F 0.9621(13) -0.0416(3) 0.6090(9)
F12 F 1.0097(13) -0.0991(8) 0.5677(7)
O20 O -0.377(2) -0.4739(11) 0.4309(10)
F13? F 0.9523(13) -0.0565(5) 0.6703(8)
F14? F 0.9227(18) -0.0581(6) 0.5653(8)
F15? F 1.0585(7) -0.0827(6) 0.6190(10)
F16? F 0.9556(12) -0.1272(4) 0.5724(7)
F17? F 0.9787(12) -0.1234(5) 0.6715(7)
F18? F 0.8431(6) -0.0995(6) 0.6210(9)
loop_
_geom_bond_atom_site_label_1
_geom_bond_atom_site_label_2
_geom_bond_site_symmetry_1
_geom_bond_site_symmetry_2
C1 C2 1_555 1_555
C2 C3 1_555 1_555
C3 H1 1_555 1_555
C4 C3 1_555 1_555
C5 C4 1_555 1_555
C6 C5 1_555 1_555
H2 C6 1_555 1_555
C7 C2 1_555 1_555
C8 C7 1_555 1_555
C9 C8 1_555 1_555
C10 C9 1_555 1_555
H3 C10 1_555 1_555
C11 C10 1_555 1_555
C12 C11 1_555 1_555
C13 C12 1_555 1_555
H4 C13 1_555 1_555
C14 C1 1_555 1_555
C15 C8 1_555 1_555
H5 C15 1_555 1_555
H6 C15 1_555 1_555
C16 C15 1_555 1_555
H7 C16 1_555 1_555
H8 C16 1_555 1_555
C17 C16 1_555 1_555
H9 C17 1_555 1_555
H10 C17 1_555 1_555
H11 C17 1_555 1_555
C18 C1 1_555 1_555
H12 C18 1_555 1_555
H13 C18 1_555 1_555
C19 C18 1_555 1_555
H14 C19 1_555 1_555
H15 C19 1_555 1_555
C20 C19 1_555 1_555
H16 C20 1_555 1_555
H17 C20 1_555 1_555
H18 C20 1_555 1_555
C21 H19 1_555 1_555
H20 C21 1_555 1_555
C22 C21 1_555 1_555
H21 C22 1_555 1_555
H22 C22 1_555 1_555
C23 H23 1_555 1_555
H24 C23 1_555 1_555
C24 H25 1_555 1_555
H26 C24 1_555 1_555
C25 C24 1_555 1_555
H27 C25 1_555 1_555
H28 C25 1_555 1_555
C26 C27 1_555 1_555
C27 N2 1_555 1_555
C28 H29 1_555 1_555
H30 C28 1_555 1_555
C29 C28 1_555 1_555
H31 C29 1_555 1_555
H32 C29 1_555 1_555
C30 H33 1_555 1_555
H34 C30 1_555 1_555
C31 C30 1_555 1_555
H35 C31 1_555 1_555
H36 C31 1_555 1_555
C32 H37 1_555 1_555
H38 C32 1_555 1_555
C33 C32 1_555 1_555
H39 C33 1_555 1_555
H40 C33 1_555 1_555
C34 H41 1_555 1_555
H42 C34 1_555 1_555
C35 C34 1_555 1_555
H43 C35 1_555 1_555
H44 C35 1_555 1_555
C36 H45 1_555 1_555
H46 C36 1_555 1_555
C37 C36 1_555 1_555
H47 C37 1_555 1_555
H48 C37 1_555 1_555
C38 H49 1_555 1_555
H50 C38 1_555 1_555
C39 C38 1_555 1_555
H51 C39 1_555 1_555
H52 C39 1_555 1_555
C40 H53 1_555 1_555
H54 C40 1_555 1_555
C41 C40 1_555 1_555
H55 C41 1_555 1_555
H56 C41 1_555 1_555
C42 H57 1_555 1_555
H58 C42 1_555 1_555
C43 C42 1_555 1_555
H59 C43 1_555 1_555
H60 C43 1_555 1_555
C44 H61 1_555 1_555
H62 C44 1_555 1_555
C45 C44 1_555 1_555
H63 C45 1_555 1_555
H64 C45 1_555 1_555
N1 C26 1_555 1_555
C46 N1 1_555 1_555
C47 C46 1_555 1_555
H65 C47 1_555 1_555
C48 C47 1_555 1_555
H66 C48 1_555 1_555
C49 C48 1_555 1_555
H67 C49 1_555 1_555
C50 C49 1_555 1_555
H68 C50 1_555 1_555
C51 C46 1_555 1_555
N2 C51 1_555 1_555
C52 C53 1_555 1_555
C53 N3 1_555 1_555
N3 C54 1_555 1_555
C54 C55 1_555 1_555
C55 H69 1_555 1_555
C56 C55 1_555 1_555
H70 C56 1_555 1_555
C57 C56 1_555 1_555
H71 C57 1_555 1_555
C58 C57 1_555 1_555
H72 C58 1_555 1_555
C59 C54 1_555 1_555
N4 C52 1_555 1_555
C60 C61 1_555 1_555
C61 H73 1_555 1_555
C62 C61 1_555 1_555
H74 C62 1_555 1_555
C63 C62 1_555 1_555
H75 C63 1_555 1_555
C64 C63 1_555 1_555
H76 C64 1_555 1_555
C65 C60 1_555 1_555
H77 C65 1_555 1_555
C66 C60 1_555 1_555
H78 C66 1_555 1_555
H79 C66 1_555 1_555
C67 H80 1_555 1_555
H81 C67 1_555 1_555
C68 C67 1_555 1_555
C69 C68 1_555 1_555
H82 C69 1_555 1_555
C70 C69 1_555 1_555
H83 C70 1_555 1_555
C71 C70 1_555 1_555
C72 C71 1_555 1_555
H84 C72 1_555 1_555
C73 C68 1_555 1_555
H85 C73 1_555 1_555
C74 H86 1_555 1_555
H87 C74 1_555 1_555
C75 C74 1_555 1_555
H88 C75 1_555 1_555
H89 C75 1_555 1_555
C76 C77 1_555 1_555
C77 H90 1_555 1_555
C78 C77 1_555 1_555
H91 C78 1_555 1_555
C79 C78 1_555 1_555
C80 C79 1_555 1_555
H92 C80 1_555 1_555
C81 C76 1_555 1_555
H93 C81 1_555 1_555
C82 C79 1_555 1_555
H94 C82 1_555 1_555
H95 C82 1_555 1_555
C83 H96 1_555 1_555
H97 C83 1_555 1_555
C84 C83 1_555 1_555
C85 C84 1_555 1_555
H98 C85 1_555 1_555
C86 C85 1_555 1_555
H99 C86 1_555 1_555
C87 C86 1_555 1_555
H100 C87 1_555 1_555
C88 C87 1_555 1_555
H101 C88 1_555 1_555
C89 C84 1_555 1_555
H102 C89 1_555 1_555
C90 H103 1_555 1_555
C91 C23 1_555 1_555
H104 C91 1_555 1_555
H105 C91 1_555 1_555
N5 C66 1_555 1_555
H106 N5 1_555 1_555
H107 N5 1_555 1_555
N6 C82 1_555 1_555
H108 N6 1_555 1_555
H109 N6 1_555 1_555
O1 C5 1_555 1_555
O2 C22 1_555 1_555
O3 C23 1_555 1_555
O4 C25 1_555 1_555
O5 C27 1_555 1_555
O6 C29 1_555 1_555
O7 C31 1_555 1_555
O8 C4 1_555 1_555
O9 C12 1_555 1_555
O10 C35 1_555 1_555
O11 C37 1_555 1_555
O12 C39 1_555 1_555
O13 C40 1_555 1_555
O14 C41 1_555 1_555
O15 C43 1_555 1_555
O16 C11 1_555 1_555
O17 C71 1_555 1_555
O18 C75 1_555 1_555
F1 P1 1_555 1_555
F2 P1 1_555 1_555
F3 P1 1_555 1_555
F4 P1 1_555 1_555
F5 P1 1_555 1_555
F6 P1 1_555 1_555
Cl1 C90 1_555 1_555
Cl2 C90 1_555 1_555
Cl3 C90 1_555 1_555
N7 C92 1_555 1_555
C92 C93 1_555 1_555
C93 H110 1_555 1_555
H111 C93 1_555 1_555
H112 C93 1_555 1_555
N8 C94 1_555 1_555
C94 C95 1_555 1_555
C95 H113 1_555 1_555
H114 C95 1_555 1_555
H115 C95 1_555 1_555
P2 F7 1_555 1_555
F8 P2 1_555 1_555
F9 P2 1_555 1_555
F10 P2 1_555 1_555
F11 P2 1_555 1_555
F12 P2 1_555 1_555
C6 C7 1_555 1_555
C9 C14 1_555 1_555
C13 C14 1_555 1_555
C21 O1 1_555 1_555
C24 O3 1_555 1_555
C26 O4 1_555 1_555
C28 O5 1_555 1_555
C30 O6 1_555 1_555
C32 O7 1_555 1_555
C33 O8 1_555 1_555
C34 O9 1_555 1_555
C36 O10 1_555 1_555
C38 O11 1_555 1_555
C42 O14 1_555 1_555
C44 O15 1_555 1_555
C45 O16 1_555 1_555
C50 C51 1_555 1_555
C52 O12 1_555 1_555
C53 O13 1_555 1_555
C58 C59 1_555 1_555
C59 N4 1_555 1_555
C64 C65 1_555 1_555
C67 N5 1_555 1_555
C72 C73 1_555 1_555
C74 O17 1_555 1_555
C76 O18 1_555 1_555
C80 C81 1_555 1_555
C83 N6 1_555 1_555
C88 C89 1_555 1_555
C91 O2 1_555 1_555

#END
