
#######################################################################
#
#                 Cambridge Crystallographic Data Centre
#                                CCDC 
#
#######################################################################
#
# If this CIF has been generated from an entry in the Cambridge 
# Structural Database, then it will include bibliographic, chemical, 
# crystal, experimental, refinement or atomic coordinate data resulting 
# from the CCDC's data processing and validation procedures.
#
#######################################################################

data_YAQDAY
_chemical_name_common            
'B-phenyl alpha-nitro-meso-triphenylsubchlorophin'
_chemical_formula_moiety         'C37 H25 B1 N4 O2'
_chemical_name_systematic        
'[10-nitro-2,7,11-triphenyl-9,15,16-triazatricyclo[10.2.1.1^3,6^]hexadeca-1,3,5,7,10,12(15),13-heptaenato](phenyl)boron'
_symmetry_cell_setting           monoclinic
_symmetry_space_group_name_H-M   'C 2/c'
_symmetry_Int_Tables_number      15
_space_group_name_Hall           '-C 2yn'
loop_
_symmetry_equiv_pos_site_id
_symmetry_equiv_pos_as_xyz
1 x,y,z
2 -x,y,1/2-z
3 1/2+x,1/2+y,z
4 1/2-x,1/2+y,1/2-z
5 -x,-y,-z
6 x,-y,1/2+z
7 1/2-x,1/2-y,-z
8 1/2+x,1/2-y,1/2+z
_cell_length_a                   29.310(5)
_cell_length_b                   7.8719(14)
_cell_length_c                   23.808(4)
_cell_angle_alpha                90
_cell_angle_beta                 91.253(6)
_cell_angle_gamma                90
_cell_volume                     5491.8
_exptl_crystal_colour            red
_exptl_crystal_description       Prism
_cell_formula_units_Z            8
loop_
_atom_site_label
_atom_site_type_symbol
_atom_site_fract_x
_atom_site_fract_y
_atom_site_fract_z
C1 C 0.32115(4) 0.49868(17) 0.12713(5)
C2 C 0.33104(5) 0.65249(17) 0.15373(5)
C3 C 0.37745(5) 0.68944(17) 0.16833(5)
C4 C 0.40175(5) 0.84165(17) 0.18166(5)
H1 H 0.3890 0.9455 0.1914
C5 C 0.44755(5) 0.80615(17) 0.17749(5)
H2 H 0.4713 0.8822 0.1841
C6 C 0.45222(4) 0.63193(17) 0.16126(5)
C7 C 0.48803(4) 0.53497(17) 0.13892(5)
C8 C 0.47744(4) 0.37733(17) 0.11381(5)
C9 C 0.50150(5) 0.26592(18) 0.07750(5)
H3 H 0.5322 0.2735 0.0687
C10 C 0.47106(5) 0.14519(18) 0.05779(6)
H4 H 0.4776 0.0569 0.0333
C11 C 0.42778(5) 0.17965(17) 0.08171(5)
C12 C 0.38201(4) 0.12610(17) 0.06989(5)
C13 C 0.34596(5) 0.22912(17) 0.08553(5)
H5 H 0.3166 0.1996 0.0737
C14 C 0.29677(4) 0.79043(16) 0.15842(6)
C15 C 0.28915(5) 0.86801(18) 0.21006(6)
H6 H 0.3049 0.8302 0.2420
C16 C 0.25842(5) 1.00076(19) 0.21415(6)
H7 H 0.2533 1.0508 0.2488
C17 C 0.23530(5) 1.05913(18) 0.16663(7)
H8 H 0.2146 1.1482 0.1694
C18 C 0.24293(5) 0.98489(18) 0.11494(6)
H9 H 0.2275 1.0248 0.0830
C19 C 0.27345(5) 0.85145(17) 0.11062(6)
H10 H 0.2785 0.8022 0.0758
C20 C 0.37321(5) -0.02673(17) 0.03471(5)
C21 C 0.40030(5) -0.17164(18) 0.04129(6)
H11 H 0.4241 -0.1714 0.0678
C22 C 0.39247(5) -0.31571(18) 0.00908(6)
H12 H 0.4107 -0.4114 0.0144
C23 C 0.35734(5) -0.31715(19) -0.03120(6)
H13 H 0.3519 -0.4135 -0.0530
C24 C 0.33042(5) -0.17330(19) -0.03860(6)
H14 H 0.3070 -0.1735 -0.0656
C25 C 0.33810(5) -0.02975(18) -0.00618(6)
H15 H 0.3198 0.0656 -0.0116
C26 C 0.39344(5) 0.28860(16) 0.21341(5)
C27 C 0.35295(5) 0.27851(19) 0.24297(6)
H16 H 0.3260 0.3162 0.2259
C28 C 0.35180(5) 0.2136(2) 0.29734(6)
H17 H 0.3243 0.2078 0.3161
C29 C 0.39179(6) 0.1578(2) 0.32343(6)
H18 H 0.3914 0.1164 0.3600
C30 C 0.43241(5) 0.1641(2) 0.29482(6)
H19 H 0.4592 0.1244 0.3118
C31 C 0.43305(5) 0.22953(18) 0.24083(6)
H20 H 0.4606 0.2343 0.2223
N1 N 0.35177(4) 0.37212(14) 0.11762(4)
N2 N 0.40875(4) 0.56708(14) 0.15946(4)
N3 N 0.43385(4) 0.31384(14) 0.11633(4)
N4 N 0.27422(4) 0.46695(15) 0.10625(5)
B1 B 0.39710(5) 0.38141(19) 0.15333(6)
O1 O 0.24339(3) 0.47393(14) 0.14022(5)
O2 O 0.26865(4) 0.43430(15) 0.05620(5)
C32 C 0.53445(15) 0.6069(7) 0.1329(2)
C33 C 0.5620(2) 0.6408(9) 0.17958(17)
H21 H 0.5515 0.6172 0.2153
C34 C 0.6049(2) 0.7091(10) 0.17354(18)
H22 H 0.6231 0.7294 0.2052
C35 C 0.62095(15) 0.7476(9) 0.1212(2)
H23 H 0.6499 0.7941 0.1174
C36 C 0.59375(15) 0.7165(5) 0.07482(16)
H24 H 0.6042 0.7426 0.0392
C37 C 0.55097(15) 0.6466(5) 0.08053(17)
H25 H 0.5329 0.6257 0.0487
C38? C 0.5343(5) 0.612(3) 0.1361(8)
C39? C 0.5677(6) 0.594(3) 0.1780(7)
H26? H 0.5609 0.5385 0.2114
C40? C 0.6113(6) 0.658(2) 0.1701(7)
H27? H 0.6337 0.6452 0.1981
C41? C 0.6215(5) 0.740(3) 0.1203(8)
H28? H 0.6507 0.7826 0.1150
C42? C 0.5881(7) 0.758(5) 0.0784(8)
H29? H 0.5949 0.8133 0.0450
C43? C 0.5445(7) 0.694(4) 0.0863(9)
H30? H 0.5222 0.7066 0.0582
loop_
_geom_bond_atom_site_label_1
_geom_bond_atom_site_label_2
_geom_bond_site_symmetry_1
_geom_bond_site_symmetry_2
C1 C2 1_555 1_555
C2 C3 1_555 1_555
C3 C4 1_555 1_555
C4 H1 1_555 1_555
C5 C4 1_555 1_555
H2 C5 1_555 1_555
C6 C5 1_555 1_555
C7 C6 1_555 1_555
C8 C7 1_555 1_555
C9 C8 1_555 1_555
H3 C9 1_555 1_555
C10 C9 1_555 1_555
H4 C10 1_555 1_555
C11 C10 1_555 1_555
C12 C11 1_555 1_555
C13 C12 1_555 1_555
H5 C13 1_555 1_555
C14 C2 1_555 1_555
C15 C14 1_555 1_555
H6 C15 1_555 1_555
C16 C15 1_555 1_555
H7 C16 1_555 1_555
C17 C16 1_555 1_555
H8 C17 1_555 1_555
C18 C17 1_555 1_555
H9 C18 1_555 1_555
C19 C14 1_555 1_555
H10 C19 1_555 1_555
C20 C12 1_555 1_555
C21 C20 1_555 1_555
H11 C21 1_555 1_555
C22 C21 1_555 1_555
H12 C22 1_555 1_555
C23 C22 1_555 1_555
H13 C23 1_555 1_555
C24 C23 1_555 1_555
H14 C24 1_555 1_555
C25 C20 1_555 1_555
H15 C25 1_555 1_555
C26 C27 1_555 1_555
C27 H16 1_555 1_555
C28 C27 1_555 1_555
H17 C28 1_555 1_555
C29 C28 1_555 1_555
H18 C29 1_555 1_555
C30 C29 1_555 1_555
H19 C30 1_555 1_555
C31 C26 1_555 1_555
H20 C31 1_555 1_555
N1 C1 1_555 1_555
N2 C3 1_555 1_555
N3 C8 1_555 1_555
N4 C1 1_555 1_555
B1 C26 1_555 1_555
O1 N4 1_555 1_555
O2 N4 1_555 1_555
C32 C7 1_555 1_555
C33 C32 1_555 1_555
H21 C33 1_555 1_555
C34 C33 1_555 1_555
H22 C34 1_555 1_555
C35 C34 1_555 1_555
H23 C35 1_555 1_555
C36 C35 1_555 1_555
H24 C36 1_555 1_555
C37 C32 1_555 1_555
H25 C37 1_555 1_555
C6 N2 1_555 1_555
C11 N3 1_555 1_555
C13 N1 1_555 1_555
C18 C19 1_555 1_555
C24 C25 1_555 1_555
C30 C31 1_555 1_555
N1 B1 1_555 1_555
N2 B1 1_555 1_555
N3 B1 1_555 1_555
C36 C37 1_555 1_555

#END
