
#######################################################################
#
#                 Cambridge Crystallographic Data Centre
#                                CCDC 
#
#######################################################################
#
# If this CIF has been generated from an entry in the Cambridge 
# Structural Database, then it will include bibliographic, chemical, 
# crystal, experimental, refinement or atomic coordinate data resulting 
# from the CCDC's data processing and validation procedures.
#
#######################################################################

data_YAQSER
_chemical_name_common            
'(3-oxo-2-benzofuran-1(3H)-ylidene)methyl 4-methylbenzenesulfonate'
_chemical_formula_moiety         'C16 H12 O5 S1'
_chemical_name_systematic        
'(E)-(3-oxoisobenzofuran-1(3H)-ylidene)methyl 4-methylbenzenesulfonate'
_symmetry_cell_setting           monoclinic
_symmetry_space_group_name_H-M   'P 21/c'
_symmetry_Int_Tables_number      14
_space_group_name_Hall           '-P 2ybc'
loop_
_symmetry_equiv_pos_site_id
_symmetry_equiv_pos_as_xyz
1 x,y,z
2 -x,1/2+y,1/2-z
3 -x,-y,-z
4 x,1/2-y,1/2+z
_cell_length_a                   8.99567(15)
_cell_length_b                   20.3803(3)
_cell_length_c                   8.08882(13)
_cell_angle_alpha                90
_cell_angle_beta                 102.5457(16)
_cell_angle_gamma                90
_cell_volume                     1447.55
_exptl_crystal_colour            white
_cell_formula_units_Z            4
_exptl_crystal_recrystallization_method 'ethyl acetate/petroleum ether'
loop_
_atom_site_label
_atom_site_type_symbol
_atom_site_fract_x
_atom_site_fract_y
_atom_site_fract_z
S1 S 0.25887(5) 0.494535(19) 0.79484(5)
O1 O 0.39032(13) 0.44420(6) 0.88604(14)
O2 O 0.15505(15) 0.49222(6) 0.90447(16)
O3 O 0.71559(13) 0.37390(6) 0.75763(16)
O4 O 0.87112(14) 0.29069(6) 0.72240(18)
O5 O 0.33074(15) 0.55446(6) 0.76526(16)
C1 C 0.52127(19) 0.43961(8) 0.8203(2)
C2 C 0.21647(19) 0.48150(9) 0.4542(2)
C3 C 0.6146(2) 0.20300(9) 0.8213(2)
C4 C 0.18335(18) 0.45617(8) 0.6016(2)
C5 C 0.0119(2) 0.35914(10) 0.1293(2)
C6 C 0.09269(19) 0.40070(8) 0.5987(2)
C7 C 0.1592(2) 0.44992(9) 0.3026(2)
C8 C 0.07091(19) 0.39330(8) 0.2958(2)
C9 C 0.75452(19) 0.30778(9) 0.7581(2)
C10 C 0.52428(19) 0.31481(8) 0.8411(2)
C11 C 0.57761(19) 0.38024(8) 0.8083(2)
C12 C 0.03750(19) 0.36960(8) 0.4455(2)
C13 C 0.3945(2) 0.29295(9) 0.8921(2)
C14 C 0.63178(19) 0.27054(9) 0.8084(2)
C15 C 0.4844(2) 0.18124(9) 0.8700(3)
C16 C 0.3776(2) 0.22546(10) 0.9056(3)
H1 H 0.06957(19) 0.38479(8) 0.6979(2)
H2 H -0.02276(19) 0.33234(8) 0.4422(2)
H3 H 0.1798(2) 0.46674(9) 0.2031(2)
H4 H 0.27604(19) 0.51897(9) 0.4575(2)
H5 H 0.6871(2) 0.17383(9) 0.7985(2)
H6 H 0.4682(2) 0.13644(9) 0.8789(3)
H7 H 0.2922(2) 0.20934(10) 0.9395(3)
H8 H 0.3225(2) 0.32214(9) 0.9160(2)
H9 H 0.56693(19) 0.47671(8) 0.7863(2)
H10 H -0.0097(17) 0.39108(12) 0.0400(4)
H11 H 0.0873(7) 0.3289(6) 0.1077(10)
H12 H -0.0796(10) 0.3356(6) 0.1341(7)
loop_
_geom_bond_atom_site_label_1
_geom_bond_atom_site_label_2
_geom_bond_site_symmetry_1
_geom_bond_site_symmetry_2
S1 O1 1_555 1_555
O1 C1 1_555 1_555
O2 S1 1_555 1_555
O3 C9 1_555 1_555
O4 C9 1_555 1_555
O5 S1 1_555 1_555
C1 C11 1_555 1_555
C2 C4 1_555 1_555
C3 C14 1_555 1_555
C4 S1 1_555 1_555
C5 C8 1_555 1_555
C6 C4 1_555 1_555
C7 C2 1_555 1_555
C8 C7 1_555 1_555
C9 C14 1_555 1_555
C10 C11 1_555 1_555
C11 O3 1_555 1_555
C12 C6 1_555 1_555
C13 C10 1_555 1_555
C14 C10 1_555 1_555
C15 C3 1_555 1_555
C16 C13 1_555 1_555
H1 C6 1_555 1_555
H2 C12 1_555 1_555
H3 C7 1_555 1_555
H4 C2 1_555 1_555
H5 C3 1_555 1_555
H6 C15 1_555 1_555
H7 C16 1_555 1_555
H8 C13 1_555 1_555
H9 C1 1_555 1_555
H10 C5 1_555 1_555
H11 C5 1_555 1_555
H12 C5 1_555 1_555
C8 C12 1_555 1_555
C15 C16 1_555 1_555

#END
