
#######################################################################
#
#                 Cambridge Crystallographic Data Centre
#                                CCDC 
#
#######################################################################
#
# If this CIF has been generated from an entry in the Cambridge 
# Structural Database, then it will include bibliographic, chemical, 
# crystal, experimental, refinement or atomic coordinate data resulting 
# from the CCDC's data processing and validation procedures.
#
#######################################################################

data_YAQSAN
_chemical_name_common            
'(E)-(3-oxo-2-tosylisoindolin-1-ylidene)methyl 4-methylbenzenesulfonate'
_chemical_formula_moiety         'C23 H19 N1 O6 S2'
_chemical_name_systematic        
'(2-((4-methylphenyl)sulfonyl)-3-oxo-2,3-dihydro-1H-isoindol-1-ylidene)methyl 4-methylbenzenesulfonate'
_symmetry_cell_setting           triclinic
_symmetry_space_group_name_H-M   'P -1'
_symmetry_Int_Tables_number      2
_space_group_name_Hall           '-P 1'
loop_
_symmetry_equiv_pos_site_id
_symmetry_equiv_pos_as_xyz
1 x,y,z
2 -x,-y,-z
_cell_length_a                   7.83191(19)
_cell_length_b                   12.3569(3)
_cell_length_c                   22.7654(5)
_cell_angle_alpha                104.4355(19)
_cell_angle_beta                 97.8284(19)
_cell_angle_gamma                93.8331(19)
_cell_volume                     2102.05
_exptl_crystal_colour            white
_cell_formula_units_Z            4
_exptl_crystal_recrystallization_method 'dichloromethane/petroleum ether'
loop_
_atom_site_label
_atom_site_type_symbol
_atom_site_fract_x
_atom_site_fract_y
_atom_site_fract_z
S1 S 0.84590(11) 0.76204(8) 0.56642(4)
S2 S 0.88256(12) 1.07301(8) 0.78858(4)
O1 O 0.9528(4) 0.8665(2) 0.59102(13)
O2 O 1.0307(4) 1.1177(3) 0.76874(14)
O3 O 0.9014(4) 0.6737(2) 0.52244(13)
O4 O 0.6841(4) 0.5342(2) 0.57000(14)
O5 O 0.8629(4) 1.1003(3) 0.85176(14)
N1 N 0.8172(4) 0.7115(3) 0.62701(15)
O6 O 0.8795(4) 0.9379(2) 0.77190(13)
C1 C 0.7041(5) 1.1680(4) 0.7071(2)
C2 C 0.7169(5) 0.7234(3) 0.78230(19)
C3 C 0.5822(5) 0.8937(3) 0.56176(19)
C4 C 0.7408(5) 0.7051(3) 0.72107(17)
C5 C 0.8210(5) 0.7793(3) 0.68904(17)
C6 C 0.5514(6) 1.1842(4) 0.6727(2)
C7 C 0.6938(5) 1.0919(3) 0.74248(18)
C8 C 0.8901(5) 0.8857(3) 0.71083(18)
C9 C 0.6380(5) 0.7890(3) 0.53819(18)
C10 C 0.6855(5) 0.6012(3) 0.67955(18)
C11 C 0.7234(5) 0.6041(3) 0.61849(18)
C12 C 0.3126(5) 0.8347(3) 0.48986(19)
C13 C 0.5378(5) 1.0330(4) 0.7447(2)
C14 C 0.4194(5) 0.9155(4) 0.53744(19)
C15 C 0.3878(6) 1.0511(4) 0.7104(2)
C16 C 0.5813(6) 0.5302(4) 0.7575(2)
C17 C 0.6371(6) 0.6353(4) 0.7997(2)
C18 C 0.5326(5) 0.7052(3) 0.49224(19)
C19 C 0.6054(5) 0.5123(4) 0.6961(2)
C20 C 0.3702(5) 0.7290(4) 0.4688(2)
C21 C 0.3918(6) 1.1274(4) 0.6742(2)
C22 C 0.2263(7) 1.1467(5) 0.6376(3)
C23 C 0.1417(6) 0.8611(4) 0.4615(2)
S3 S 0.04230(12) 0.48922(8) 0.83109(4)
S4 S 0.28256(12) 0.93857(8) 0.87860(4)
O7 O 0.1311(4) 0.9375(3) 0.90716(14)
O8 O 0.0050(4) 0.5836(3) 0.87683(14)
O9 O 0.0022(4) 0.3662(3) 0.69282(15)
O10 O 0.3376(4) 1.0315(3) 0.85732(14)
O11 O -0.0779(4) 0.3909(3) 0.80914(14)
N2 N 0.0696(4) 0.5374(3) 0.76945(16)
C24 C 0.4188(5) 0.8398(3) 0.96591(19)
O12 O 0.2496(4) 0.8360(2) 0.81614(13)
C25 C 0.4535(5) 0.8986(3) 0.92330(18)
C26 C 0.2727(5) 0.7197(3) 0.68625(18)
C27 C 0.1358(5) 0.5322(3) 0.67297(18)
C28 C 0.3624(5) 0.5315(4) 0.9012(2)
C29 C 0.0595(5) 0.4635(3) 0.70895(18)
C30 C 0.5224(6) 0.5013(4) 0.9227(2)
C31 C 0.1944(5) 0.6396(3) 0.71086(17)
C32 C 0.1527(5) 0.6466(3) 0.77236(18)
C33 C 0.2900(5) 0.6879(4) 0.62425(19)
C34 C 0.1708(5) 0.7348(3) 0.82069(18)
C35 C 0.5565(6) 0.8014(4) 0.9981(2)
C36 C 0.2297(5) 0.5795(3) 0.58688(19)
C37 C 0.1513(5) 0.5002(3) 0.61147(19)
C38 C 0.6231(6) 0.9235(4) 0.9140(2)
C39 C 0.2891(6) 0.3432(4) 0.8333(2)
C40 C 0.5673(6) 0.3924(4) 0.9011(2)
C41 C 0.7265(6) 0.8209(4) 0.9877(2)
C42 C 0.2463(5) 0.4521(3) 0.85635(19)
C43 C 0.7574(6) 0.8843(4) 0.9467(2)
C44 C 0.7388(6) 0.3604(4) 0.9272(2)
C45 C 0.4504(6) 0.3141(4) 0.8558(2)
C46 C 0.8728(7) 0.7750(5) 1.0211(3)
loop_
_geom_bond_atom_site_label_1
_geom_bond_atom_site_label_2
_geom_bond_site_symmetry_1
_geom_bond_site_symmetry_2
S1 O1 1_555 1_555
S2 O2 1_555 1_555
O3 S1 1_555 1_555
O4 C11 1_555 1_555
O5 S2 1_555 1_555
N1 S1 1_555 1_555
O6 S2 1_555 1_555
C1 C6 1_555 1_555
C2 C4 1_555 1_555
C3 C9 1_555 1_555
C4 C5 1_555 1_555
C5 N1 1_555 1_555
C6 C21 1_555 1_555
C7 S2 1_555 1_555
C8 O6 1_555 1_555
C9 S1 1_555 1_555
C10 C4 1_555 1_555
C11 N1 1_555 1_555
C12 C14 1_555 1_555
C13 C7 1_555 1_555
C14 C3 1_555 1_555
C15 C13 1_555 1_555
C16 C17 1_555 1_555
C17 C2 1_555 1_555
C18 C9 1_555 1_555
C19 C10 1_555 1_555
C20 C12 1_555 1_555
C21 C15 1_555 1_555
C22 C21 1_555 1_555
C23 C12 1_555 1_555
S3 O8 1_555 1_555
S4 O7 1_555 1_555
O9 C29 1_555 1_555
O10 S4 1_555 1_555
O11 S3 1_555 1_555
N2 S3 1_555 1_555
C24 C25 1_555 1_555
O12 S4 1_555 1_555
C25 S4 1_555 1_555
C26 C31 1_555 1_555
C27 C29 1_555 1_555
C28 C30 1_555 1_555
C29 N2 1_555 1_555
C30 C40 1_555 1_555
C31 C27 1_555 1_555
C32 N2 1_555 1_555
C33 C26 1_555 1_555
C34 O12 1_555 1_555
C35 C24 1_555 1_555
C36 C33 1_555 1_555
C37 C27 1_555 1_555
C38 C25 1_555 1_555
C39 C42 1_555 1_555
C40 C44 1_555 1_555
C41 C35 1_555 1_555
C42 S3 1_555 1_555
C43 C38 1_555 1_555
C45 C39 1_555 1_555
C46 C41 1_555 1_555
C1 C7 1_555 1_555
C5 C8 1_555 1_555
C10 C11 1_555 1_555
C16 C19 1_555 1_555
C18 C20 1_555 1_555
C28 C42 1_555 1_555
C31 C32 1_555 1_555
C32 C34 1_555 1_555
C36 C37 1_555 1_555
C40 C45 1_555 1_555
C41 C43 1_555 1_555

#END
