
#######################################################################
#
#                 Cambridge Crystallographic Data Centre
#                                CCDC 
#
#######################################################################
#
# If this CIF has been generated from an entry in the Cambridge 
# Structural Database, then it will include bibliographic, chemical, 
# crystal, experimental, refinement or atomic coordinate data resulting 
# from the CCDC's data processing and validation procedures.
#
#######################################################################

data_YAQVOE
_chemical_formula_moiety         'C26 H38 N4 O4 Si1'
_chemical_name_systematic        
't-butyl 13-azido-9-(2-((t-butyl(dimethyl)silyl)oxy)ethyl)-10-methylene-14-oxa-2-azatetracyclo[9.2.1.0^1,9^.0^3,8^]tetradeca-3,5,7-triene-2-carboxylate'
_symmetry_cell_setting           monoclinic
_symmetry_space_group_name_H-M   'C 2/c'
_symmetry_Int_Tables_number      15
_space_group_name_Hall           '-C 2yn'
loop_
_symmetry_equiv_pos_site_id
_symmetry_equiv_pos_as_xyz
1 x,y,z
2 -x,y,1/2-z
3 1/2+x,1/2+y,z
4 1/2-x,1/2+y,1/2-z
5 -x,-y,-z
6 x,-y,1/2+z
7 1/2-x,1/2-y,-z
8 1/2+x,1/2-y,1/2+z
_cell_length_a                   26.0702(18)
_cell_length_b                   10.9823(7)
_cell_length_c                   21.1910(12)
_cell_angle_alpha                90
_cell_angle_beta                 108.083(6)
_cell_angle_gamma                90
_cell_volume                     5767.54
_exptl_crystal_colour            colorless
_exptl_crystal_description       block
_cell_formula_units_Z            8
loop_
_atom_site_label
_atom_site_type_symbol
_atom_site_fract_x
_atom_site_fract_y
_atom_site_fract_z
O1 O -0.29088(8) -0.4631(2) -0.38878(9)
O2 O -0.19481(10) -0.2267(2) -0.37877(11)
O3 O -0.15265(9) -0.2574(2) -0.26975(10)
O4 O -0.08247(11) -0.6916(3) -0.37277(18)
N1 N -0.20244(10) -0.4053(2) -0.32840(10)
N2 N -0.19499(15) -0.4513(3) -0.48146(14)
N3 N -0.16930(17) -0.3622(4) -0.48472(17)
N4 N -0.1424(2) -0.2867(5) -0.4911(3)
C1 C -0.19471(11) -0.4865(3) -0.27295(12)
C2 C -0.17853(12) -0.4605(3) -0.20576(13)
H1 H -0.1695 -0.3817 -0.1902
C3 C -0.1630(2) -0.0359(4) -0.2728(3)
H2 H -0.1873 -0.0438 -0.2470
H3 H -0.1832 -0.0367 -0.3192
H4 H -0.1436 0.0394 -0.2620
C4 C -0.17637(13) -0.5569(3) -0.16255(14)
H5 H -0.1651 -0.5418 -0.1171
C5 C -0.08510(19) -0.1353(5) -0.2968(3)
H6 H -0.1047 -0.1347 -0.3434
H7 H -0.0620 -0.2055 -0.2866
H8 H -0.0636 -0.0628 -0.2856
C6 C -0.19021(12) -0.6734(3) -0.18450(14)
H9 H -0.1886 -0.7357 -0.1542
C7 C -0.0939(2) -0.1486(5) -0.1841(2)
H10 H -0.0707 -0.2186 -0.1759
H11 H -0.1193 -0.1563 -0.1598
H12 H -0.0726 -0.0765 -0.1699
C8 C -0.20661(11) -0.6977(3) -0.25177(13)
H13 H -0.2159 -0.7765 -0.2672
C9 C -0.18392(12) -0.2889(3) -0.32939(15)
C10 C -0.20907(10) -0.6036(2) -0.29592(12)
C11 C -0.22233(11) -0.6076(3) -0.37045(12)
C12 C -0.23519(12) -0.4700(3) -0.38612(12)
C13 C -0.24151(14) -0.4290(3) -0.45768(14)
H14 H -0.2512 -0.3425 -0.4627
C14 C -0.29015(17) -0.5061(4) -0.49638(15)
H15 H -0.2795 -0.5720 -0.5201
H16 H -0.3175 -0.4570 -0.5275
C15 C -0.31023(15) -0.5549(3) -0.43935(15)
H17 H -0.3492 -0.5690 -0.4522
C16 C -0.27674(13) -0.6627(3) -0.40837(13)
C17 C -0.29053(16) -0.7784(3) -0.41375(15)
H18 H -0.3250 -0.8012 -0.4395
H19 H -0.2658 -0.8373 -0.3918
C18 C -0.17574(13) -0.6684(3) -0.38920(15)
H20 H -0.1747 -0.7539 -0.3774
H21 H -0.1838 -0.6638 -0.4370
C19 C -0.12044(14) -0.6152(3) -0.35744(18)
H22 H -0.1185 -0.5338 -0.3743
H23 H -0.1129 -0.6103 -0.3097
C20 C 0.0055(2) -0.5241(5) -0.3531(3)
H24 H 0.0322 -0.4979 -0.3728
H25 H -0.0170 -0.4564 -0.3503
H26 H 0.0230 -0.5554 -0.3094
C21 C -0.12406(16) -0.1398(4) -0.25769(18)
Si1 Si -0.03590(6) -0.64326(16) -0.40424(9)
C22 C 0.0006(3) -0.7853(7) -0.4099(5)
C23 C 0.0453(6) -0.7773(14) -0.4346(7)
H27 H 0.0679 -0.7104 -0.4137
H28 H 0.0325 -0.7645 -0.4817
H29 H 0.0656 -0.8516 -0.4251
C24 C -0.0306(5) -0.8965(11) -0.4305(7)
H30 H -0.0544 -0.9075 -0.4043
H31 H -0.0066 -0.9648 -0.4242
H32 H -0.0514 -0.8905 -0.4765
C25 C 0.0295(8) -0.8245(15) -0.3345(9)
H33 H 0.0037 -0.8231 -0.3106
H34 H 0.0582 -0.7686 -0.3143
H35 H 0.0439 -0.9052 -0.3333
C26 C -0.0665(4) -0.5813(12) -0.4871(5)
H36 H -0.0705 -0.6449 -0.5194
H37 H -0.0439 -0.5181 -0.4952
H38 H -0.1014 -0.5483 -0.4904
H39? H 0.0433 -0.5177 -0.3477
H40? H -0.0146 -0.4790 -0.3917
H41? H -0.0016 -0.4916 -0.3146
Si2? Si -0.01573(15) -0.6913(4) -0.3638(2)
C27? C -0.0204(9) -0.742(2) -0.4470(11)
C28? C 0.0433(14) -0.732(3) -0.4551(14)
H42? H 0.0586 -0.8122 -0.4526
H43? H 0.0657 -0.6827 -0.4200
H44? H 0.0410 -0.6961 -0.4972
C29? C -0.0464(10) -0.857(2) -0.4671(11)
H45? H -0.0216 -0.9219 -0.4482
H46? H -0.0577 -0.8632 -0.5146
H47? H -0.0773 -0.8636 -0.4517
C30? C -0.0527(13) -0.641(2) -0.5025(15)
H48? H -0.0879 -0.6276 -0.4985
H49? H -0.0561 -0.6709 -0.5462
H50? H -0.0329 -0.5661 -0.4951
C31? C 0.0351(11) -0.772(2) -0.3003(11)
H51? H 0.0283 -0.8582 -0.3054
H52? H 0.0340 -0.7469 -0.2574
H53? H 0.0700 -0.7548 -0.3043
loop_
_geom_bond_atom_site_label_1
_geom_bond_atom_site_label_2
_geom_bond_site_symmetry_1
_geom_bond_site_symmetry_2
O1 C12 1_555 1_555
O2 C9 1_555 1_555
O3 C9 1_555 1_555
O4 C19 1_555 1_555
N1 C1 1_555 1_555
N2 N3 1_555 1_555
N3 N4 1_555 1_555
C1 C2 1_555 1_555
C2 H1 1_555 1_555
C3 H2 1_555 1_555
H3 C3 1_555 1_555
H4 C3 1_555 1_555
C4 C2 1_555 1_555
H5 C4 1_555 1_555
C5 H6 1_555 1_555
H7 C5 1_555 1_555
H8 C5 1_555 1_555
C6 C4 1_555 1_555
H9 C6 1_555 1_555
C7 H10 1_555 1_555
H11 C7 1_555 1_555
H12 C7 1_555 1_555
C8 C6 1_555 1_555
H13 C8 1_555 1_555
C9 N1 1_555 1_555
C10 C1 1_555 1_555
C11 C10 1_555 1_555
C12 N1 1_555 1_555
C13 N2 1_555 1_555
H14 C13 1_555 1_555
C14 C13 1_555 1_555
H15 C14 1_555 1_555
H16 C14 1_555 1_555
C15 O1 1_555 1_555
H17 C15 1_555 1_555
C16 C11 1_555 1_555
C17 C16 1_555 1_555
H18 C17 1_555 1_555
H19 C17 1_555 1_555
C18 C11 1_555 1_555
H20 C18 1_555 1_555
H21 C18 1_555 1_555
C19 C18 1_555 1_555
H22 C19 1_555 1_555
H23 C19 1_555 1_555
C20 H24 1_555 1_555
H25 C20 1_555 1_555
H26 C20 1_555 1_555
C21 O3 1_555 1_555
Si1 O4 1_555 1_555
C22 Si1 1_555 1_555
C23 C22 1_555 1_555
H27 C23 1_555 1_555
H28 C23 1_555 1_555
H29 C23 1_555 1_555
C24 C22 1_555 1_555
H30 C24 1_555 1_555
H31 C24 1_555 1_555
H32 C24 1_555 1_555
C25 C22 1_555 1_555
H33 C25 1_555 1_555
H34 C25 1_555 1_555
H35 C25 1_555 1_555
C26 Si1 1_555 1_555
H36 C26 1_555 1_555
H37 C26 1_555 1_555
H38 C26 1_555 1_555
C3 C21 1_555 1_555
C5 C21 1_555 1_555
C7 C21 1_555 1_555
C8 C10 1_555 1_555
C11 C12 1_555 1_555
C12 C13 1_555 1_555
C14 C15 1_555 1_555
C15 C16 1_555 1_555
C20 Si1 1_555 1_555

#END
