
#######################################################################
#
#                 Cambridge Crystallographic Data Centre
#                                CCDC 
#
#######################################################################
#
# If this CIF has been generated from an entry in the Cambridge 
# Structural Database, then it will include bibliographic, chemical, 
# crystal, experimental, refinement or atomic coordinate data resulting 
# from the CCDC's data processing and validation procedures.
#
#######################################################################

data_YAQYUN
_chemical_formula_moiety         'C27 H30 N2 O4 S1'
_chemical_name_systematic        
1-(2-((4-methoxyphenyl)methyl)phenyl)-N-(((4-methylphenyl)sulfonyl)methyl)prolinamide
_symmetry_cell_setting           monoclinic
_symmetry_space_group_name_H-M   'P 21/c'
_symmetry_Int_Tables_number      14
_space_group_name_Hall           '-P 2ybc'
loop_
_symmetry_equiv_pos_site_id
_symmetry_equiv_pos_as_xyz
1 x,y,z
2 -x,1/2+y,1/2-z
3 -x,-y,-z
4 x,1/2-y,1/2+z
_cell_length_a                   8.7990(18)
_cell_length_b                   12.568(3)
_cell_length_c                   22.970(5)
_cell_angle_alpha                90
_cell_angle_beta                 97.36(3)
_cell_angle_gamma                90
_cell_volume                     2519.23
_exptl_crystal_colour            colorless
_exptl_crystal_description       block
_cell_formula_units_Z            4
loop_
_atom_site_label
_atom_site_type_symbol
_atom_site_fract_x
_atom_site_fract_y
_atom_site_fract_z
S1 S 0.05361(14) 0.13068(10) 0.64058(6)
N1 N 0.1457(4) 0.1255(3) 0.53404(15)
H1 H 0.1406 0.1917 0.5246
C1 C 0.6688(7) -0.0326(5) 0.7500(2)
H2 H 0.7417 0.0246 0.7522
H3 H 0.7024 -0.0892 0.7267
H4 H 0.6606 -0.0584 0.7888
O1 O 0.0595(4) 0.2445(2) 0.63938(16)
O2 O -0.0638(4) 0.0795(3) 0.66829(15)
N2 N 0.3572(4) 0.2419(3) 0.48865(15)
C2 C 0.5161(6) 0.0066(5) 0.7225(2)
O3 O 0.2724(4) -0.0289(2) 0.52681(15)
C3 C 0.4983(7) 0.1102(5) 0.7046(3)
H5 H 0.5826 0.1553 0.7097
O4 O 0.0104(4) 0.7722(2) 0.65422(15)
C4 C 0.3592(7) 0.1498(4) 0.6792(2)
H6 H 0.3509 0.2203 0.6669
C5 C 0.2336(5) 0.0845(4) 0.67209(19)
C6 C 0.2484(6) -0.0203(4) 0.6882(2)
H7 H 0.1644 -0.0657 0.6822
C7 C 0.3879(7) -0.0577(4) 0.7132(2)
H8 H 0.3967 -0.1288 0.7243
C8 C 0.0321(5) 0.0829(4) 0.5665(2)
H9 H 0.0392 0.0059 0.5668
H10 H -0.0687 0.1022 0.5472
C9 C 0.2602(5) 0.0670(4) 0.51764(19)
C10 C 0.3705(5) 0.1260(3) 0.48402(19)
H11 H 0.4756 0.1043 0.4984
C11 C 0.3379(6) 0.1040(4) 0.4182(2)
H12 H 0.3858 0.0383 0.4079
H13 H 0.2286 0.1002 0.4054
C12 C 0.4093(6) 0.1996(4) 0.3921(2)
H14 H 0.5197 0.1922 0.3946
H15 H 0.3671 0.2101 0.3514
C13 C 0.3661(6) 0.2893(4) 0.43010(19)
H16 H 0.4428 0.3451 0.4327
H17 H 0.2680 0.3194 0.4141
C14 C 0.4414(5) 0.2954(3) 0.53724(18)
C15 C 0.5730(5) 0.2538(4) 0.5684(2)
H18 H 0.6071 0.1869 0.5586
C16 C 0.6540(5) 0.3093(4) 0.6135(2)
H19 H 0.7432 0.2805 0.6334
C17 C 0.6036(5) 0.4078(4) 0.6293(2)
H20 H 0.6592 0.4464 0.6593
C18 C 0.4700(5) 0.4480(4) 0.6001(2)
H21 H 0.4347 0.5134 0.6118
C19 C 0.3858(5) 0.3949(3) 0.55369(19)
C20 C 0.2394(5) 0.4424(4) 0.5212(2)
H22 H 0.2618 0.4710 0.4840
H23 H 0.1646 0.3859 0.5127
C21 C 0.1693(5) 0.5296(4) 0.5549(2)
C22 C 0.0906(5) 0.5047(4) 0.6010(2)
H24 H 0.0737 0.4337 0.6094
C23 C 0.0358(5) 0.5833(4) 0.6351(2)
H25 H -0.0163 0.5648 0.6664
C24 C 0.0585(5) 0.6885(3) 0.6228(2)
C25 C 0.1333(5) 0.7150(4) 0.5754(2)
H26 H 0.1467 0.7860 0.5659
C26 C 0.1878(5) 0.6357(4) 0.5425(2)
H27 H 0.2387 0.6543 0.5109
C27 C -0.0312(8) 0.7498(5) 0.7111(3)
H28 H -0.0621 0.8145 0.7285
H29 H 0.0552 0.7200 0.7355
H30 H -0.1145 0.7000 0.7076
loop_
_geom_bond_atom_site_label_1
_geom_bond_atom_site_label_2
_geom_bond_site_symmetry_1
_geom_bond_site_symmetry_2
S1 O1 1_555 1_555
N1 H1 1_555 1_555
C1 H2 1_555 1_555
H3 C1 1_555 1_555
H4 C1 1_555 1_555
O2 S1 1_555 1_555
N2 C10 1_555 1_555
C2 C1 1_555 1_555
O3 C9 1_555 1_555
C3 C2 1_555 1_555
H5 C3 1_555 1_555
O4 C24 1_555 1_555
C4 C3 1_555 1_555
H6 C4 1_555 1_555
C5 S1 1_555 1_555
C6 C5 1_555 1_555
H7 C6 1_555 1_555
C7 C2 1_555 1_555
H8 C7 1_555 1_555
C8 S1 1_555 1_555
H9 C8 1_555 1_555
H10 C8 1_555 1_555
C9 N1 1_555 1_555
C10 C9 1_555 1_555
H11 C10 1_555 1_555
C11 C10 1_555 1_555
H12 C11 1_555 1_555
H13 C11 1_555 1_555
C12 C11 1_555 1_555
H14 C12 1_555 1_555
H15 C12 1_555 1_555
C13 N2 1_555 1_555
H16 C13 1_555 1_555
H17 C13 1_555 1_555
C14 N2 1_555 1_555
C15 C14 1_555 1_555
H18 C15 1_555 1_555
C16 C15 1_555 1_555
H19 C16 1_555 1_555
C17 C16 1_555 1_555
H20 C17 1_555 1_555
C18 C17 1_555 1_555
H21 C18 1_555 1_555
C19 C14 1_555 1_555
C20 C19 1_555 1_555
H22 C20 1_555 1_555
H23 C20 1_555 1_555
C21 C20 1_555 1_555
C22 C21 1_555 1_555
H24 C22 1_555 1_555
C23 C22 1_555 1_555
H25 C23 1_555 1_555
C24 C23 1_555 1_555
C25 C24 1_555 1_555
H26 C25 1_555 1_555
C26 C21 1_555 1_555
H27 C26 1_555 1_555
C27 O4 1_555 1_555
H28 C27 1_555 1_555
H29 C27 1_555 1_555
H30 C27 1_555 1_555
N1 C8 1_555 1_555
C4 C5 1_555 1_555
C6 C7 1_555 1_555
C12 C13 1_555 1_555
C18 C19 1_555 1_555
C25 C26 1_555 1_555

#END
