
#######################################################################
#
#                 Cambridge Crystallographic Data Centre
#                                CCDC 
#
#######################################################################
#
# If this CIF has been generated from an entry in the Cambridge 
# Structural Database, then it will include bibliographic, chemical, 
# crystal, experimental, refinement or atomic coordinate data resulting 
# from the CCDC's data processing and validation procedures.
#
#######################################################################

data_YARBEB
_chemical_formula_moiety         'C17 H12 Cl1 N1 O1'
_chemical_name_systematic        6-(4-chlorophenyl)-2-phenylpyridin-3-ol
_symmetry_cell_setting           monoclinic
_symmetry_space_group_name_H-M   'P 21/c'
_symmetry_Int_Tables_number      14
_space_group_name_Hall           '-P 2ybc'
loop_
_symmetry_equiv_pos_site_id
_symmetry_equiv_pos_as_xyz
1 x,y,z
2 -x,1/2+y,1/2-z
3 -x,-y,-z
4 x,1/2-y,1/2+z
_cell_length_a                   9.793(3)
_cell_length_b                   12.819(4)
_cell_length_c                   11.666(3)
_cell_angle_alpha                90
_cell_angle_beta                 109.278(6)
_cell_angle_gamma                90
_cell_volume                     1382.39
_exptl_crystal_colour            white
_exptl_crystal_description       block
_cell_formula_units_Z            4
loop_
_atom_site_label
_atom_site_type_symbol
_atom_site_fract_x
_atom_site_fract_y
_atom_site_fract_z
Cl1 Cl 0.28980(15) 0.22498(9) 0.63501(11)
N1 N 0.2476(3) 0.6678(2) 0.3221(2)
O1 O 0.2516(3) 0.82437(18) 0.0662(2)
H1 H 0.2510 0.8064 -0.0014
C1 C 0.1786(4) 0.4763(3) 0.4253(3)
H2 H 0.1037 0.5247 0.4048
C2 C 0.1768(4) 0.3965(3) 0.5021(3)
H3 H 0.1021 0.3914 0.5345
C3 C 0.2861(5) 0.3238(3) 0.5313(3)
C4 C 0.3953(4) 0.3306(3) 0.4823(4)
H4 H 0.4678 0.2803 0.5007
C5 C 0.3974(4) 0.4125(3) 0.4053(3)
H5 H 0.4719 0.4172 0.3726
C6 C 0.2900(4) 0.4868(3) 0.3770(3)
C7 C 0.2916(4) 0.5741(3) 0.2945(3)
C8 C 0.3321(4) 0.5615(3) 0.1927(3)
H6 H 0.3667 0.4974 0.1770
C9 C 0.3214(4) 0.6430(3) 0.1151(3)
H7 H 0.3467 0.6342 0.0455
C10 C 0.2729(4) 0.7391(3) 0.1401(3)
C11 C 0.2396(3) 0.7499(3) 0.2477(3)
C12 C 0.1927(4) 0.8517(3) 0.2851(3)
C13 C 0.2656(5) 0.9436(3) 0.2829(4)
H8 H 0.3431 0.9441 0.2536
C14 C 0.2230(6) 1.0347(3) 0.3245(4)
H9 H 0.2731 1.0963 0.3241
C15 C 0.1083(6) 1.0354(4) 0.3663(4)
H10 H 0.0806 1.0973 0.3939
C16 C 0.0344(5) 0.9464(4) 0.3676(3)
H11 H -0.0442 0.9472 0.3955
C17 C 0.0764(4) 0.8545(3) 0.3275(3)
H12 H 0.0257 0.7935 0.3290
loop_
_geom_bond_atom_site_label_1
_geom_bond_atom_site_label_2
_geom_bond_site_symmetry_1
_geom_bond_site_symmetry_2
Cl1 C3 1_555 1_555
N1 C7 1_555 1_555
O1 H1 1_555 1_555
C1 H2 1_555 1_555
C2 C1 1_555 1_555
H3 C2 1_555 1_555
C3 C2 1_555 1_555
C4 C3 1_555 1_555
H4 C4 1_555 1_555
C5 C4 1_555 1_555
H5 C5 1_555 1_555
C6 C1 1_555 1_555
C7 C6 1_555 1_555
C8 C7 1_555 1_555
H6 C8 1_555 1_555
C9 C8 1_555 1_555
H7 C9 1_555 1_555
C10 O1 1_555 1_555
C11 N1 1_555 1_555
C12 C11 1_555 1_555
C13 C12 1_555 1_555
H8 C13 1_555 1_555
C14 C13 1_555 1_555
H9 C14 1_555 1_555
C15 C14 1_555 1_555
H10 C15 1_555 1_555
C16 C15 1_555 1_555
H11 C16 1_555 1_555
C17 C12 1_555 1_555
H12 C17 1_555 1_555
C5 C6 1_555 1_555
C9 C10 1_555 1_555
C10 C11 1_555 1_555
C16 C17 1_555 1_555

#END
