
#######################################################################
#
#                 Cambridge Crystallographic Data Centre
#                                CCDC 
#
#######################################################################
#
# If this CIF has been generated from an entry in the Cambridge 
# Structural Database, then it will include bibliographic, chemical, 
# crystal, experimental, refinement or atomic coordinate data resulting 
# from the CCDC's data processing and validation procedures.
#
#######################################################################

data_YARRIV
_chemical_formula_moiety         'C17 H13 N1 O1'
_chemical_name_systematic        (6-methylquinolin-2-yl)(phenyl)methanone
_symmetry_cell_setting           monoclinic
_symmetry_space_group_name_H-M   'P 21/c'
_symmetry_Int_Tables_number      14
_space_group_name_Hall           '-P 2ybc'
loop_
_symmetry_equiv_pos_site_id
_symmetry_equiv_pos_as_xyz
1 x,y,z
2 -x,1/2+y,1/2-z
3 -x,-y,-z
4 x,1/2-y,1/2+z
_cell_length_a                   4.0198(8)
_cell_length_b                   13.908(3)
_cell_length_c                   23.210(5)
_cell_angle_alpha                90
_cell_angle_beta                 94.200(4)
_cell_angle_gamma                90
_cell_volume                     1294.13
_exptl_crystal_colour            colorless
_exptl_crystal_description       Block
_cell_formula_units_Z            4
loop_
_atom_site_label
_atom_site_type_symbol
_atom_site_fract_x
_atom_site_fract_y
_atom_site_fract_z
N1 N 0.1534(3) 0.14792(8) 0.37067(5)
C1 C 0.0708(3) 0.24154(9) 0.37980(6)
C2 C 0.1391(4) 0.31593(10) 0.34061(6)
C3 C 0.0436(4) 0.41102(11) 0.35326(7)
H1 H 0.0895 0.4601 0.3278
C4 C 0.2953(4) 0.12755(10) 0.32268(6)
C5 C -0.0901(4) 0.26523(11) 0.42980(6)
H2 H -0.1364 0.2174 0.4560
C6 C 0.2957(4) 0.29038(12) 0.29077(7)
H3 H 0.3481 0.3373 0.2644
C7 C 0.3705(4) 0.19677(12) 0.28121(6)
H4 H 0.4695 0.1787 0.2479
C8 C 0.3665(5) 0.02424(11) 0.31038(7)
C9 C -0.1780(4) 0.35782(11) 0.43984(7)
H5 H -0.2841 0.3721 0.4731
C10 C -0.1130(4) 0.43285(11) 0.40138(8)
C11 C 0.4084(4) -0.04833(10) 0.35715(6)
C12 C 0.5661(4) -0.02787(11) 0.41074(6)
H6 H 0.6307 0.0349 0.4198
O1 O 0.3888(5) 0.00035(10) 0.26028(5)
C13 C 0.3072(4) -0.14226(12) 0.34492(8)
H7 H 0.1995 -0.1571 0.3092
C14 C -0.2222(5) 0.53400(12) 0.41341(10)
H8 H -0.0906 0.5589 0.4462
H9 H -0.4533 0.5339 0.4213
H10 H -0.1923 0.5737 0.3803
C15 C 0.5279(5) -0.19216(13) 0.43815(9)
H11 H 0.5697 -0.2407 0.4653
C16 C 0.3668(5) -0.21312(13) 0.38569(10)
H12 H 0.2970 -0.2757 0.3775
C17 C 0.6277(5) -0.09996(13) 0.45076(7)
H13 H 0.7375 -0.0860 0.4864
loop_
_geom_bond_atom_site_label_1
_geom_bond_atom_site_label_2
_geom_bond_site_symmetry_1
_geom_bond_site_symmetry_2
N1 C1 1_555 1_555
C1 C2 1_555 1_555
C2 C3 1_555 1_555
C3 H1 1_555 1_555
C4 N1 1_555 1_555
C5 C1 1_555 1_555
H2 C5 1_555 1_555
C6 C2 1_555 1_555
H3 C6 1_555 1_555
C7 C4 1_555 1_555
H4 C7 1_555 1_555
C8 C4 1_555 1_555
C9 C5 1_555 1_555
H5 C9 1_555 1_555
C10 C3 1_555 1_555
C11 C8 1_555 1_555
C12 C11 1_555 1_555
H6 C12 1_555 1_555
O1 C8 1_555 1_555
C13 C11 1_555 1_555
H7 C13 1_555 1_555
C14 C10 1_555 1_555
H8 C14 1_555 1_555
H9 C14 1_555 1_555
H10 C14 1_555 1_555
C15 H11 1_555 1_555
C16 C13 1_555 1_555
H12 C16 1_555 1_555
C17 C12 1_555 1_555
H13 C17 1_555 1_555
C6 C7 1_555 1_555
C9 C10 1_555 1_555
C15 C16 1_555 1_555
C15 C17 1_555 1_555

#END
