
#######################################################################
#
#                 Cambridge Crystallographic Data Centre
#                                CCDC 
#
#######################################################################
#
# If this CIF has been generated from an entry in the Cambridge 
# Structural Database, then it will include bibliographic, chemical, 
# crystal, experimental, refinement or atomic coordinate data resulting 
# from the CCDC's data processing and validation procedures.
#
#######################################################################

data_YARWUM
_chemical_formula_moiety         'C20 H16 F3 N3 O3'
_chemical_name_systematic        
2-{[(morpholin-4-yl)imino][4-(trifluoromethyl)phenyl]methyl}-1H-isoindole-1,3(2H)-dione
_symmetry_cell_setting           orthorhombic
_symmetry_space_group_name_H-M   'P b c n'
_symmetry_Int_Tables_number      60
_space_group_name_Hall           '-P 2n 2ab'
loop_
_symmetry_equiv_pos_site_id
_symmetry_equiv_pos_as_xyz
1 x,y,z
2 1/2-x,1/2-y,1/2+z
3 -x,y,1/2-z
4 1/2+x,1/2-y,-z
5 -x,-y,-z
6 1/2+x,1/2+y,1/2-z
7 x,-y,1/2+z
8 1/2-x,1/2+y,z
_cell_length_a                   19.520(4)
_cell_length_b                   13.946(3)
_cell_length_c                   13.312(3)
_cell_angle_alpha                90
_cell_angle_beta                 90
_cell_angle_gamma                90
_cell_volume                     3623.87
_exptl_crystal_colour            yellow
_exptl_crystal_description       block
_cell_formula_units_Z            8
loop_
_atom_site_label
_atom_site_type_symbol
_atom_site_fract_x
_atom_site_fract_y
_atom_site_fract_z
F1 F 0.03291(8) 0.08327(10) -0.04611(12)
F2 F -0.05606(7) 0.17096(11) -0.02666(11)
F3 F 0.01390(8) 0.19973(11) -0.14793(10)
O1 O 0.25380(8) 0.27461(11) 0.35590(12)
O2 O 0.07246(8) 0.48384(12) 0.34020(11)
O3 O 0.39638(9) 0.58444(13) 0.30476(13)
N1 N 0.16754(9) 0.38484(12) 0.32198(12)
N2 N 0.23585(9) 0.42866(13) 0.17831(13)
N3 N 0.28818(9) 0.46712(13) 0.23324(13)
C1 C 0.11355(11) 0.42886(15) 0.37609(15)
C2 C 0.12006(11) 0.39351(15) 0.48086(15)
C3 C 0.08061(12) 0.41350(15) 0.56461(16)
H1 H 0.0427 0.4560 0.5612
C4 C 0.09895(12) 0.36857(17) 0.65406(16)
H2 H 0.0731 0.3809 0.7131
C5 C 0.15429(12) 0.30604(17) 0.65867(17)
H3 H 0.1653 0.2761 0.7207
C6 C 0.19384(12) 0.28651(17) 0.57417(16)
H4 H 0.2318 0.2439 0.5772
C7 C 0.17569(10) 0.33155(15) 0.48565(15)
C8 C 0.20623(10) 0.32325(15) 0.38406(16)
C9 C 0.18077(10) 0.39368(15) 0.21621(15)
C10 C 0.13259(10) 0.34517(14) 0.14728(15)
C11 C 0.14132(11) 0.35239(16) 0.04309(16)
H5 H 0.1751 0.3944 0.0167
C12 C 0.10129(11) 0.29898(17) -0.02179(16)
H6 H 0.1084 0.3032 -0.0922
C13 C 0.05082(10) 0.23928(15) 0.01606(15)
C14 C 0.03974(11) 0.23389(16) 0.11868(16)
H7 H 0.0043 0.1943 0.1445
C15 C 0.08061(11) 0.28657(16) 0.18358(16)
H8 H 0.0730 0.2825 0.2539
C16 C 0.01059(12) 0.17453(17) -0.05101(17)
C17 C 0.27578(12) 0.53830(16) 0.31233(17)
H9 H 0.2400 0.5147 0.3590
H10 H 0.2596 0.5991 0.2822
C18 C 0.34207(12) 0.55521(18) 0.36901(18)
H11 H 0.3345 0.6052 0.4207
H12 H 0.3554 0.4954 0.4039
C19 C 0.40718(12) 0.5143(2) 0.22808(19)
H13 H 0.4207 0.4527 0.2593
H14 H 0.4450 0.5354 0.1837
C20 C 0.34314(11) 0.50001(18) 0.16658(17)
H15 H 0.3298 0.5611 0.1341
H16 H 0.3515 0.4518 0.1134
loop_
_geom_bond_atom_site_label_1
_geom_bond_atom_site_label_2
_geom_bond_site_symmetry_1
_geom_bond_site_symmetry_2
F1 C16 1_555 1_555
F2 C16 1_555 1_555
F3 C16 1_555 1_555
O1 C8 1_555 1_555
O2 C1 1_555 1_555
O3 C18 1_555 1_555
N1 C1 1_555 1_555
N2 N3 1_555 1_555
N3 C17 1_555 1_555
C1 C2 1_555 1_555
C2 C3 1_555 1_555
C3 H1 1_555 1_555
C4 C3 1_555 1_555
H2 C4 1_555 1_555
C5 C4 1_555 1_555
H3 C5 1_555 1_555
C6 C5 1_555 1_555
H4 C6 1_555 1_555
C7 C2 1_555 1_555
C8 N1 1_555 1_555
C9 N1 1_555 1_555
C10 C9 1_555 1_555
C11 C10 1_555 1_555
H5 C11 1_555 1_555
C12 C11 1_555 1_555
H6 C12 1_555 1_555
C13 C12 1_555 1_555
C14 C13 1_555 1_555
H7 C14 1_555 1_555
C15 C10 1_555 1_555
H8 C15 1_555 1_555
C16 C13 1_555 1_555
C17 H9 1_555 1_555
H10 C17 1_555 1_555
C18 C17 1_555 1_555
H11 C18 1_555 1_555
H12 C18 1_555 1_555
C19 O3 1_555 1_555
H13 C19 1_555 1_555
H14 C19 1_555 1_555
C20 N3 1_555 1_555
H15 C20 1_555 1_555
H16 C20 1_555 1_555
N2 C9 1_555 1_555
C6 C7 1_555 1_555
C7 C8 1_555 1_555
C14 C15 1_555 1_555
C19 C20 1_555 1_555

#END
