
#######################################################################
#
#                 Cambridge Crystallographic Data Centre
#                                CCDC 
#
#######################################################################
#
# If this CIF has been generated from an entry in the Cambridge 
# Structural Database, then it will include bibliographic, chemical, 
# crystal, experimental, refinement or atomic coordinate data resulting 
# from the CCDC's data processing and validation procedures.
#
#######################################################################

data_YARZAV
_chemical_formula_moiety         'C22 H19 F3 O3'
_chemical_name_systematic        
'ethyl 4-benzoyl-3-phenyl-5-(trifluoromethyl)cyclopent-1-ene-1-carboxylate'
_symmetry_cell_setting           triclinic
_symmetry_space_group_name_H-M   'P 1'
_symmetry_Int_Tables_number      1
_space_group_name_Hall           'P 1'
loop_
_symmetry_equiv_pos_site_id
_symmetry_equiv_pos_as_xyz
1 x,y,z
_cell_length_a                   8.7678(2)
_cell_length_b                   10.7305(2)
_cell_length_c                   10.8657(2)
_cell_angle_alpha                67.7570(10)
_cell_angle_beta                 88.9110(10)
_cell_angle_gamma                87.4110(10)
_cell_volume                     945.238
_exptl_crystal_colour            colorless
_exptl_crystal_description       block
_cell_formula_units_Z            2
loop_
_atom_site_label
_atom_site_type_symbol
_atom_site_fract_x
_atom_site_fract_y
_atom_site_fract_z
F1 F 0.3828(2) 0.44069(17) 0.46672(19)
F2 F 0.4424(2) 0.3984(2) 0.29341(19)
F3 F 0.4971(2) 0.58685(19) 0.3017(3)
O1 O 0.9322(3) 0.4950(2) 0.16723(19)
O2 O 0.8061(3) 0.6307(2) 0.2538(2)
O3 O 0.7203(4) 0.2939(2) 0.7060(2)
C1 C 0.4923(3) 0.4559(3) 0.3755(3)
C2 C 0.6405(3) 0.3938(2) 0.4406(2)
H1 H 0.6716 0.4414 0.4988
C3 C 0.7715(3) 0.3942(3) 0.3472(2)
C4 C 0.8360(3) 0.5209(3) 0.2527(2)
C5 C 1.0036(4) 0.6099(3) 0.0671(3)
H2 H 1.0257 0.6783 0.1043
H3 H 0.9356 0.6521 -0.0107
C6 C 1.1494(5) 0.5555(4) 0.0270(4)
H4 H 1.1953 0.6267 -0.0486
H5 H 1.1271 0.4798 0.0016
H6 H 1.2207 0.5246 0.1020
C7 C 0.8266(3) 0.2710(3) 0.3677(3)
H7 H 0.9112 0.2538 0.3196
C8 C 0.7443(3) 0.1607(2) 0.4734(2)
H8 H 0.8178 0.1092 0.5459
C9 C 0.6247(3) 0.2414(2) 0.5280(2)
H9 H 0.5191 0.2137 0.5203
C10 C 0.6614(4) 0.2118(3) 0.6733(3)
C11 C 0.6332(3) 0.0735(3) 0.7743(2)
C12 C 0.5281(4) -0.0112(3) 0.7557(3)
H10 H 0.4705 0.0170 0.6758
C13 C 0.5077(4) -0.1378(3) 0.8549(3)
H11 H 0.4353 -0.1956 0.8434
C14 C 0.5932(4) -0.1790(3) 0.9703(3)
H12 H 0.5791 -0.2653 1.0376
C15 C 0.6998(4) -0.0952(3) 0.9889(3)
H13 H 0.7597 -0.1249 1.0674
C16 C 0.7173(4) 0.0316(3) 0.8917(3)
H14 H 0.7871 0.0905 0.9050
C17 C 0.6782(3) 0.0643(2) 0.4175(3)
C18 C 0.6044(4) 0.1132(3) 0.2951(3)
H15 H 0.5889 0.2077 0.2493
C19 C 0.5532(4) 0.0262(3) 0.2390(3)
H16 H 0.5029 0.0611 0.1554
C20 C 0.5757(4) -0.1119(3) 0.3053(3)
H17 H 0.5422 -0.1719 0.2667
C21 C 0.6466(4) -0.1616(3) 0.4270(3)
H18 H 0.6607 -0.2562 0.4727
C22 C 0.6983(3) -0.0749(3) 0.4844(3)
H19 H 0.7469 -0.1105 0.5688
F4 F -0.0136(2) 0.4408(2) 0.7623(2)
F5 F -0.1470(2) 0.56647(19) 0.5932(2)
F6 F -0.0611(2) 0.6492(2) 0.72760(19)
O4 O 0.4368(3) 0.50026(19) 0.82649(19)
O5 O 0.3014(3) 0.3603(2) 0.7651(2)
O6 O 0.1604(3) 0.6514(2) 0.3140(2)
C23 C -0.0248(4) 0.5633(3) 0.6670(3)
C24 C 0.1165(3) 0.6003(2) 0.5813(2)
H20 H 0.1320 0.5370 0.5338
C25 C 0.2602(3) 0.5983(3) 0.6567(2)
C26 C 0.3319(3) 0.4719(3) 0.7542(3)
C27 C 0.5180(4) 0.3853(3) 0.9245(3)
H21 H 0.5590 0.3230 0.8829
H22 H 0.4486 0.3356 0.9979
C28 C 0.6454(5) 0.4399(4) 0.9760(4)
H23 H 0.7117 0.4908 0.9020
H24 H 0.7049 0.3652 1.0410
H25 H 0.6031 0.4996 1.0188
C29 C 0.3212(3) 0.7188(3) 0.6155(2)
H26 H 0.4132 0.7346 0.6510
C30 C 0.2324(3) 0.8272(3) 0.5084(2)
H27 H 0.2992 0.8631 0.4281
C31 C 0.1015(3) 0.7472(2) 0.4769(2)
H28 H -0.0007 0.7889 0.4845
C32 C 0.1255(3) 0.7507(3) 0.3356(3)
C33 C 0.1147(3) 0.8864(3) 0.2242(2)
C34 C 0.2143(4) 0.9097(3) 0.1162(3)
H29 H 0.2827 0.8394 0.1137
C35 C 0.2137(4) 1.0344(4) 0.0134(3)
H30 H 0.2834 1.0505 -0.0584
C36 C 0.1117(5) 1.1359(3) 0.0148(3)
H31 H 0.1114 1.2216 -0.0562
C37 C 0.0101(5) 1.1132(3) 0.1193(3)
H32 H -0.0621 1.1823 0.1185
C38 C 0.0135(4) 0.9886(3) 0.2261(3)
H33 H -0.0533 0.9742 0.2997
C39 C 0.1828(3) 0.9429(3) 0.5497(3)
C40 C 0.1176(4) 0.9202(3) 0.6739(3)
H34 H 0.0979 0.8307 0.7320
C41 C 0.0811(4) 1.0263(4) 0.7137(4)
H35 H 0.0361 1.0092 0.7985
C42 C 0.1098(4) 1.1568(4) 0.6306(5)
H36 H 0.0871 1.2292 0.6589
C43 C 0.1720(5) 1.1816(3) 0.5056(5)
H37 H 0.1894 1.2715 0.4472
C44 C 0.2088(4) 1.0753(3) 0.4657(3)
H38 H 0.2522 1.0930 0.3803
loop_
_geom_bond_atom_site_label_1
_geom_bond_atom_site_label_2
_geom_bond_site_symmetry_1
_geom_bond_site_symmetry_2
F1 C1 1_555 1_555
F2 C1 1_555 1_555
F3 C1 1_555 1_555
O1 C4 1_555 1_555
O2 C4 1_555 1_555
O3 C10 1_555 1_555
C1 C2 1_555 1_555
C2 H1 1_555 1_555
C3 C2 1_555 1_555
C4 C3 1_555 1_555
C5 O1 1_555 1_555
H2 C5 1_555 1_555
H3 C5 1_555 1_555
C6 C5 1_555 1_555
H4 C6 1_555 1_555
H5 C6 1_555 1_555
H6 C6 1_555 1_555
C7 C3 1_555 1_555
H7 C7 1_555 1_555
C8 C7 1_555 1_555
H8 C8 1_555 1_555
C9 C2 1_555 1_555
H9 C9 1_555 1_555
C10 C9 1_555 1_555
C11 C10 1_555 1_555
C12 C11 1_555 1_555
H10 C12 1_555 1_555
C13 C12 1_555 1_555
H11 C13 1_555 1_555
C14 C13 1_555 1_555
H12 C14 1_555 1_555
C15 C14 1_555 1_555
H13 C15 1_555 1_555
C16 C11 1_555 1_555
H14 C16 1_555 1_555
C17 C8 1_555 1_555
C18 C17 1_555 1_555
H15 C18 1_555 1_555
C19 C18 1_555 1_555
H16 C19 1_555 1_555
C20 C19 1_555 1_555
H17 C20 1_555 1_555
C21 C20 1_555 1_555
H18 C21 1_555 1_555
C22 C17 1_555 1_555
H19 C22 1_555 1_555
F4 C23 1_555 1_555
F5 C23 1_555 1_555
F6 C23 1_555 1_555
O4 C26 1_555 1_555
O5 C26 1_555 1_555
O6 C32 1_555 1_555
C23 C24 1_555 1_555
C24 H20 1_555 1_555
C25 C24 1_555 1_555
C26 C25 1_555 1_555
C27 O4 1_555 1_555
H21 C27 1_555 1_555
H22 C27 1_555 1_555
C28 C27 1_555 1_555
H23 C28 1_555 1_555
H24 C28 1_555 1_555
H25 C28 1_555 1_555
C29 C25 1_555 1_555
H26 C29 1_555 1_555
C30 C29 1_555 1_555
H27 C30 1_555 1_555
C31 C24 1_555 1_555
H28 C31 1_555 1_555
C32 C31 1_555 1_555
C33 C32 1_555 1_555
C34 C33 1_555 1_555
H29 C34 1_555 1_555
C35 C34 1_555 1_555
H30 C35 1_555 1_555
C36 C35 1_555 1_555
H31 C36 1_555 1_555
C37 C36 1_555 1_555
H32 C37 1_555 1_555
C38 C33 1_555 1_555
H33 C38 1_555 1_555
C39 C30 1_555 1_555
C40 C39 1_555 1_555
H34 C40 1_555 1_555
C41 C40 1_555 1_555
H35 C41 1_555 1_555
C42 C41 1_555 1_555
H36 C42 1_555 1_555
C43 C42 1_555 1_555
H37 C43 1_555 1_555
C44 C39 1_555 1_555
H38 C44 1_555 1_555
C8 C9 1_555 1_555
C15 C16 1_555 1_555
C21 C22 1_555 1_555
C30 C31 1_555 1_555
C37 C38 1_555 1_555
C43 C44 1_555 1_555

#END
