
#######################################################################
#
#                 Cambridge Crystallographic Data Centre
#                                CCDC 
#
#######################################################################
#
# If this CIF has been generated from an entry in the Cambridge 
# Structural Database, then it will include bibliographic, chemical, 
# crystal, experimental, refinement or atomic coordinate data resulting 
# from the CCDC's data processing and validation procedures.
#
#######################################################################

data_YASBAW
_chemical_formula_moiety         'C45 H56 N4 O7 Si2'
_chemical_name_systematic        
'Isopropyl 4-amino-2,5-anhydro-3-O-t-butyldiphenylsilyl-4-N-(2,5-anhydro-4-azido-3-O-t-butyldiphenylsilyl-4-deoxy-L-ribonyl)-4-deoxy-L-ribonate'
_symmetry_cell_setting           monoclinic
_symmetry_space_group_name_H-M   'P 21'
_symmetry_Int_Tables_number      4
_space_group_name_Hall           'P 2yb'
loop_
_symmetry_equiv_pos_site_id
_symmetry_equiv_pos_as_xyz
1 x,y,z
2 -x,1/2+y,-z
_cell_length_a                   15.4548(4)
_cell_length_b                   9.0111(2)
_cell_length_c                   16.4767(5)
_cell_angle_alpha                90
_cell_angle_beta                 102.7868(10)
_cell_angle_gamma                90
_cell_volume                     2237.72
_exptl_crystal_colour            colorless
_exptl_crystal_description       prism
_cell_formula_units_Z            2
_exptl_crystal_recrystallization_method methanol
loop_
_atom_site_label
_atom_site_type_symbol
_atom_site_fract_x
_atom_site_fract_y
_atom_site_fract_z
Si1 Si 0.14482(6) 0.36845(13) 0.25970(5)
Si2 Si 0.28747(5) 0.47285(12) 0.84360(5)
C1 C 0.2651(2) 0.4364(5) 0.40455(19)
C2 C 0.3032(2) 0.5867(5) 0.4362(2)
C3 C 0.4197(3) 0.4315(8) 0.4285(3)
C4 C 0.3418(4) 0.3372(7) 0.4321(3)
C5 C 0.2785(2) 0.6316(5) 0.5169(2)
C6 C 0.3333(2) 0.7119(4) 0.66015(18)
C7 C 0.36860(18) 0.5938(3) 0.72532(17)
C8 C 0.1894(2) 0.5551(4) 0.87813(19)
C9 C 0.1216(2) 0.6032(5) 0.7992(2)
C10 C 0.1462(2) 0.4374(5) 0.9232(2)
C11 C 0.2133(2) 0.6925(4) 0.9332(2)
C12 C 0.2496(2) 0.3135(4) 0.7724(2)
C13 C 0.2086(2) 0.3349(4) 0.6880(2)
C14 C 0.1747(3) 0.2164(5) 0.6373(3)
C15 C 0.1804(3) 0.0739(6) 0.6688(4)
C16 C 0.2187(3) 0.0508(5) 0.7508(4)
C17 C 0.2530(3) 0.1678(4) 0.8019(3)
C18 C 0.3823(2) 0.4158(4) 0.9299(2)
C19 C 0.3861(3) 0.4411(5) 1.0152(2)
C20 C 0.4627(3) 0.4083(6) 1.0747(3)
C21 C 0.5356(3) 0.3520(6) 1.0510(3)
C22 C 0.5317(3) 0.3236(8) 0.9700(3)
C23 C 0.4561(3) 0.3576(7) 0.9103(3)
C24 C 0.4674(2) 0.6379(4) 0.7527(2)
C25 C 0.3888(2) 0.8455(4) 0.6941(2)
C26 C 0.5238(2) 0.5435(4) 0.7081(2)
C27 C 0.6082(3) 0.3190(5) 0.7176(3)
C28 C 0.7008(3) 0.3848(7) 0.7285(3)
C29 C 0.6078(5) 0.1813(7) 0.7669(5)
C30 C 0.0883(2) 0.2542(4) 0.3279(2)
C31 C 0.0226(2) 0.3088(4) 0.3664(2)
C32 C -0.0166(2) 0.2214(5) 0.4169(2)
C33 C 0.0097(3) 0.0756(5) 0.4313(2)
C34 C 0.0742(3) 0.0193(5) 0.3963(3)
C35 C 0.1126(3) 0.1068(5) 0.3437(2)
C36 C 0.1797(2) 0.2446(4) 0.18129(19)
C37 C 0.2645(2) 0.2492(5) 0.1659(2)
C38 C 0.2874(3) 0.1602(5) 0.1050(2)
C39 C 0.2272(3) 0.0654(5) 0.0587(2)
C40 C 0.1428(3) 0.0575(6) 0.0725(2)
C41 C 0.1200(3) 0.1459(5) 0.1330(2)
C42 C 0.0774(2) 0.5299(4) 0.2059(2)
C43 C -0.0142(3) 0.4788(5) 0.1571(3)
C44 C 0.0653(3) 0.6531(5) 0.2669(2)
C45 C 0.1279(3) 0.5981(5) 0.1436(3)
O1 O 0.23825(14) 0.4387(3) 0.31647(13)
O2 O 0.39594(17) 0.5793(4) 0.44477(16)
O3 O 0.32402(13) 0.6086(2) 0.79167(12)
O4 O 0.47512(16) 0.7875(3) 0.72919(16)
O5 O 0.53825(16) 0.5705(3) 0.64113(15)
O6 O 0.55231(18) 0.4244(3) 0.75264(17)
O7 O 0.20056(16) 0.6364(5) 0.52043(17)
N1 N 0.34587(18) 0.6699(3) 0.57860(15)
N5 N 0.3658(5) 0.2755(9) 0.5127(4)
N6 N 0.3353(5) 0.1546(9) 0.5120(5)
N7 N 0.3137(10) 0.0369(10) 0.5186(7)
H1 H 0.3979 0.6662 0.5705
H2 H 0.2156 0.4073 0.4288
H3 H 0.2805 0.6638 0.3945
H4 H 0.4713 0.4017 0.4697
H5 H 0.4323 0.4229 0.3736
H6 H 0.3373 0.2510 0.3954
H7 H 0.2710 0.7334 0.6569
H8 H 0.3617 0.4943 0.7021
H9 H 0.0704 0.6479 0.8153
H10 H 0.1478 0.6748 0.7672
H11 H 0.1016 0.5166 0.7650
H12 H 0.0944 0.4798 0.9381
H13 H 0.1877 0.4061 0.9743
H14 H 0.1284 0.3527 0.8884
H15 H 0.1607 0.7317 0.9477
H16 H 0.2555 0.6685 0.9835
H17 H 0.2376 0.7701 0.9029
H18 H 0.2047 0.4306 0.6659
H19 H 0.1484 0.2331 0.5815
H20 H 0.1583 -0.0070 0.6345
H21 H 0.2207 -0.0460 0.7715
H22 H 0.2784 0.1516 0.8574
H23 H 0.3350 0.4798 1.0327
H24 H 0.4638 0.4238 1.1332
H25 H 0.5882 0.3324 1.0900
H26 H 0.5817 0.2813 0.9535
H27 H 0.4551 0.3396 0.8523
H28 H 0.4878 0.6242 0.8124
H29 H 0.3643 0.8964 0.7368
H30 H 0.3917 0.9152 0.6489
H31 H 0.5820 0.3007 0.6581
H32 H 0.7387 0.3125 0.7081
H33 H 0.7237 0.4034 0.7882
H34 H 0.6990 0.4780 0.6973
H35 H 0.6491 0.1108 0.7523
H36 H 0.6234 0.2051 0.8262
H37 H 0.5473 0.1415 0.7523
H38 H 0.0048 0.4084 0.3561
H39 H -0.0600 0.2605 0.4414
H40 H -0.0176 0.0162 0.4647
H41 H 0.0917 -0.0796 0.4055
H42 H 0.1562 0.0655 0.3196
H43 H 0.3068 0.3167 0.1961
H44 H 0.3451 0.1673 0.0961
H45 H 0.2435 0.0030 0.0176
H46 H 0.1011 -0.0076 0.0423
H47 H 0.0628 0.1369 0.1429
H48 H -0.0436 0.5629 0.1266
H49 H -0.0492 0.4426 0.1953
H50 H -0.0064 0.4024 0.1172
H51 H 0.0374 0.7392 0.2382
H52 H 0.1215 0.6831 0.3018
H53 H 0.0290 0.6155 0.3020
H54 H 0.0962 0.6844 0.1176
H55 H 0.1862 0.6269 0.1726
H56 H 0.1321 0.5240 0.1025
N2? N 0.3204(6) 0.3119(13) 0.5206(5)
N3? N 0.3745(7) 0.2480(12) 0.5756(6)
N4? N 0.4213(7) 0.2048(14) 0.6321(7)
loop_
_geom_bond_atom_site_label_1
_geom_bond_atom_site_label_2
_geom_bond_site_symmetry_1
_geom_bond_site_symmetry_2
Si1 C30 1_555 1_555
Si2 C8 1_555 1_555
C1 C2 1_555 1_555
C2 C5 1_555 1_555
C3 C4 1_555 1_555
C4 C1 1_555 1_555
C5 O7 1_555 1_555
C6 C7 1_555 1_555
C7 C24 1_555 1_555
C8 C9 1_555 1_555
C9 H9 1_555 1_555
C10 C8 1_555 1_555
C11 C8 1_555 1_555
C12 Si2 1_555 1_555
C13 C12 1_555 1_555
C14 C13 1_555 1_555
C15 C14 1_555 1_555
C16 C15 1_555 1_555
C17 C12 1_555 1_555
C18 Si2 1_555 1_555
C19 C18 1_555 1_555
C20 C19 1_555 1_555
C21 C20 1_555 1_555
C22 C21 1_555 1_555
C23 C18 1_555 1_555
C24 C26 1_555 1_555
C25 C6 1_555 1_555
C26 O5 1_555 1_555
C27 C28 1_555 1_555
C28 H32 1_555 1_555
C29 C27 1_555 1_555
C30 C31 1_555 1_555
C31 C32 1_555 1_555
C32 C33 1_555 1_555
C33 C34 1_555 1_555
C34 C35 1_555 1_555
C35 C30 1_555 1_555
C36 Si1 1_555 1_555
C37 C36 1_555 1_555
C38 C37 1_555 1_555
C39 C38 1_555 1_555
C40 C39 1_555 1_555
C41 C36 1_555 1_555
C42 Si1 1_555 1_555
C43 C42 1_555 1_555
C44 C42 1_555 1_555
C45 C42 1_555 1_555
O1 Si1 1_555 1_555
O2 C2 1_555 1_555
O3 Si2 1_555 1_555
O4 C24 1_555 1_555
O6 C26 1_555 1_555
N1 C5 1_555 1_555
N5 C4 1_555 1_555
N6 N5 1_555 1_555
N7 N6 1_555 1_555
H1 N1 1_555 1_555
H2 C1 1_555 1_555
H3 C2 1_555 1_555
H4 C3 1_555 1_555
H5 C3 1_555 1_555
H6 C4 1_555 1_555
H7 C6 1_555 1_555
H8 C7 1_555 1_555
H10 C9 1_555 1_555
H11 C9 1_555 1_555
H12 C10 1_555 1_555
H13 C10 1_555 1_555
H14 C10 1_555 1_555
H15 C11 1_555 1_555
H16 C11 1_555 1_555
H17 C11 1_555 1_555
H18 C13 1_555 1_555
H19 C14 1_555 1_555
H20 C15 1_555 1_555
H21 C16 1_555 1_555
H22 C17 1_555 1_555
H23 C19 1_555 1_555
H24 C20 1_555 1_555
H25 C21 1_555 1_555
H26 C22 1_555 1_555
H27 C23 1_555 1_555
H28 C24 1_555 1_555
H29 C25 1_555 1_555
H30 C25 1_555 1_555
H31 C27 1_555 1_555
H33 C28 1_555 1_555
H34 C28 1_555 1_555
H35 C29 1_555 1_555
H36 C29 1_555 1_555
H37 C29 1_555 1_555
H38 C31 1_555 1_555
H39 C32 1_555 1_555
H40 C33 1_555 1_555
H41 C34 1_555 1_555
H42 C35 1_555 1_555
H43 C37 1_555 1_555
H44 C38 1_555 1_555
H45 C39 1_555 1_555
H46 C40 1_555 1_555
H47 C41 1_555 1_555
H48 C43 1_555 1_555
H49 C43 1_555 1_555
H50 C43 1_555 1_555
H51 C44 1_555 1_555
H52 C44 1_555 1_555
H53 C44 1_555 1_555
H54 C45 1_555 1_555
H55 C45 1_555 1_555
H56 C45 1_555 1_555
C1 O1 1_555 1_555
C3 O2 1_555 1_555
C6 N1 1_555 1_555
C7 O3 1_555 1_555
C16 C17 1_555 1_555
C22 C23 1_555 1_555
C25 O4 1_555 1_555
C27 O6 1_555 1_555
C40 C41 1_555 1_555

#END
