
#######################################################################
#
#                 Cambridge Crystallographic Data Centre
#                                CCDC 
#
#######################################################################
#
# If this CIF has been generated from an entry in the Cambridge 
# Structural Database, then it will include bibliographic, chemical, 
# crystal, experimental, refinement or atomic coordinate data resulting 
# from the CCDC's data processing and validation procedures.
#
#######################################################################

data_YASBAY
_chemical_formula_moiety         'C43 H30 N2 O2'
_chemical_name_systematic        
5-methyl-1,2,3a,14a-tetraphenyl-3a,14a-dihydro-13H-furo[3',2':3,4]isoquinolino[1,2-b]quinazolin-13-one
_symmetry_cell_setting           triclinic
_symmetry_space_group_name_H-M   'P -1'
_symmetry_Int_Tables_number      2
_space_group_name_Hall           '-P 1'
loop_
_symmetry_equiv_pos_site_id
_symmetry_equiv_pos_as_xyz
1 x,y,z
2 -x,-y,-z
_cell_length_a                   10.4789(9)
_cell_length_b                   12.0740(11)
_cell_length_c                   12.5011(11)
_cell_angle_alpha                92.552(7)
_cell_angle_beta                 94.697(7)
_cell_angle_gamma                98.319(7)
_cell_volume                     1557.22
_exptl_crystal_colour            colorless
_exptl_crystal_description       prism
_cell_formula_units_Z            2
loop_
_atom_site_label
_atom_site_type_symbol
_atom_site_fract_x
_atom_site_fract_y
_atom_site_fract_z
C1 C 1.1835(2) 0.6199(2) 0.1251(2)
H1 H 1.2285 0.6917 0.1211
C2 C 1.2392(2) 0.5277(3) 0.0982(2)
H2 H 1.3221 0.5372 0.0754
C3 C 1.1736(3) 0.4213(3) 0.1047(2)
H3 H 1.2129 0.3595 0.0870
C4 C 1.0509(2) 0.4059(2) 0.1370(2)
H4 H 1.0070 0.3337 0.1411
C5 C 0.9917(2) 0.4985(2) 0.16375(18)
C6 C 1.05848(19) 0.60489(19) 0.15857(18)
C7 C 0.9993(2) 0.7032(2) 0.19018(18)
C8 C 0.81384(18) 0.56634(17) 0.22477(16)
C9 C 0.68594(18) 0.54161(17) 0.26778(16)
C10 C 0.61110(18) 0.62534(17) 0.28570(16)
C11 C 0.65423(17) 0.74300(17) 0.25489(16)
C12 C 0.80582(17) 0.77318(16) 0.25843(16)
C13 C 0.83532(18) 0.88019(17) 0.19831(17)
C14 C 0.8371(2) 0.8772(2) 0.08661(18)
H5 H 0.8299 0.8085 0.0481
C15 C 0.8494(2) 0.9756(2) 0.0323(2)
H6 H 0.8502 0.9722 -0.0421
C16 C 0.8605(2) 1.0774(2) 0.0873(2)
H7 H 0.8688 1.1431 0.0507
C17 C 0.8591(2) 1.0819(2) 0.1972(2)
H8 H 0.8668 1.1510 0.2350
C18 C 0.8462(2) 0.98391(19) 0.25225(19)
H9 H 0.8449 0.9883 0.3266
C19 C 0.57771(18) 0.76336(17) 0.15134(16)
C20 C 0.5734(2) 0.6890(2) 0.06328(18)
H10 H 0.6176 0.6277 0.0691
C21 C 0.5054(2) 0.7035(2) -0.03263(19)
H11 H 0.5044 0.6529 -0.0911
C22 C 0.4386(2) 0.7939(3) -0.0415(2)
H12 H 0.3924 0.8048 -0.1060
C23 C 0.4412(2) 0.8666(2) 0.0450(2)
H13 H 0.3955 0.9269 0.0393
C24 C 0.5105(2) 0.8530(2) 0.14160(19)
H14 H 0.5117 0.9042 0.1996
C25 C 0.5779(2) 0.87737(19) 0.54642(18)
H15 H 0.5152 0.8738 0.4887
C26 C 0.5492(2) 0.9082(2) 0.6478(2)
H16 H 0.4675 0.9263 0.6579
C27 C 0.6396(3) 0.9128(2) 0.7345(2)
H17 H 0.6189 0.9324 0.8030
C28 C 0.7611(3) 0.8881(2) 0.7188(2)
H18 H 0.8231 0.8916 0.7770
C29 C 0.7911(2) 0.8584(2) 0.61765(19)
H19 H 0.8738 0.8426 0.6080
C30 C 0.70016(19) 0.85141(17) 0.52953(17)
C31 C 0.73018(18) 0.81891(16) 0.42122(16)
C32 C 0.83570(18) 0.79138(17) 0.38055(16)
C33 C 0.96341(18) 0.77707(17) 0.43585(16)
C34 C 1.0701(2) 0.8593(2) 0.4346(2)
H20 H 1.0615 0.9258 0.4016
C35 C 1.1893(2) 0.8431(2) 0.4821(2)
H21 H 1.2604 0.8987 0.4807
C36 C 1.2038(2) 0.7467(2) 0.5308(2)
H22 H 1.2846 0.7361 0.5616
C37 C 1.0986(2) 0.6650(2) 0.5342(2)
H23 H 1.1074 0.5997 0.5690
C38 C 0.9796(2) 0.68043(19) 0.4856(2)
H24 H 0.9091 0.6242 0.4868
C39 C 0.49149(19) 0.59918(19) 0.32676(17)
H25 H 0.4422 0.6559 0.3390
C40 C 0.44435(19) 0.49061(19) 0.34971(17)
C41 C 0.5199(2) 0.40745(19) 0.33055(18)
H26 H 0.4903 0.3339 0.3454
C42 C 0.6385(2) 0.43277(18) 0.28971(17)
H27 H 0.6872 0.3758 0.2767
C43 C 0.3154(2) 0.4638(2) 0.3957(2)
H28 H 0.2649 0.4005 0.3556
H29 H 0.2702 0.5273 0.3912
H30 H 0.3292 0.4465 0.4696
N1 N 0.86850(16) 0.48029(15) 0.19967(15)
N2 N 0.86834(14) 0.67759(14) 0.21562(13)
O1 O 1.05566(14) 0.79833(14) 0.19692(16)
O2 O 0.62732(12) 0.81749(11) 0.34177(11)
loop_
_geom_bond_atom_site_label_1
_geom_bond_atom_site_label_2
_geom_bond_site_symmetry_1
_geom_bond_site_symmetry_2
C1 H1 1_555 1_555
C2 C1 1_555 1_555
H2 C2 1_555 1_555
C3 C2 1_555 1_555
H3 C3 1_555 1_555
C4 C3 1_555 1_555
H4 C4 1_555 1_555
C5 C4 1_555 1_555
C6 C1 1_555 1_555
C7 C6 1_555 1_555
C8 C9 1_555 1_555
C9 C10 1_555 1_555
C10 C11 1_555 1_555
C11 C12 1_555 1_555
C12 C13 1_555 1_555
C13 C14 1_555 1_555
C14 H5 1_555 1_555
C15 C14 1_555 1_555
H6 C15 1_555 1_555
C16 C15 1_555 1_555
H7 C16 1_555 1_555
C17 C16 1_555 1_555
H8 C17 1_555 1_555
C18 C13 1_555 1_555
H9 C18 1_555 1_555
C19 C11 1_555 1_555
C20 C19 1_555 1_555
H10 C20 1_555 1_555
C21 C20 1_555 1_555
H11 C21 1_555 1_555
C22 C21 1_555 1_555
H12 C22 1_555 1_555
C23 C22 1_555 1_555
H13 C23 1_555 1_555
C24 C19 1_555 1_555
H14 C24 1_555 1_555
C25 H15 1_555 1_555
C26 C25 1_555 1_555
H16 C26 1_555 1_555
C27 C26 1_555 1_555
H17 C27 1_555 1_555
C28 C27 1_555 1_555
H18 C28 1_555 1_555
C29 C28 1_555 1_555
H19 C29 1_555 1_555
C30 C25 1_555 1_555
C31 C30 1_555 1_555
C32 C12 1_555 1_555
C33 C32 1_555 1_555
C34 C33 1_555 1_555
H20 C34 1_555 1_555
C35 C34 1_555 1_555
H21 C35 1_555 1_555
C36 C35 1_555 1_555
H22 C36 1_555 1_555
C37 C36 1_555 1_555
H23 C37 1_555 1_555
C38 C33 1_555 1_555
H24 C38 1_555 1_555
C39 C10 1_555 1_555
H25 C39 1_555 1_555
C40 C39 1_555 1_555
C41 C40 1_555 1_555
H26 C41 1_555 1_555
C42 C9 1_555 1_555
H27 C42 1_555 1_555
C43 C40 1_555 1_555
H28 C43 1_555 1_555
H29 C43 1_555 1_555
H30 C43 1_555 1_555
N1 C5 1_555 1_555
N2 C7 1_555 1_555
O1 C7 1_555 1_555
O2 C11 1_555 1_555
C5 C6 1_555 1_555
C8 N1 1_555 1_555
C8 N2 1_555 1_555
C12 N2 1_555 1_555
C17 C18 1_555 1_555
C23 C24 1_555 1_555
C29 C30 1_555 1_555
C31 C32 1_555 1_555
C31 O2 1_555 1_555
C37 C38 1_555 1_555
C41 C42 1_555 1_555

#END
