
#######################################################################
#
#                 Cambridge Crystallographic Data Centre
#                                CCDC 
#
#######################################################################
#
# If this CIF has been generated from an entry in the Cambridge 
# Structural Database, then it will include bibliographic, chemical, 
# crystal, experimental, refinement or atomic coordinate data resulting 
# from the CCDC's data processing and validation procedures.
#
#######################################################################

data_YASCAX
_chemical_formula_moiety         'C16 H16 N2 O4'
_chemical_name_systematic        
2'-(3,4-Dimethoxybenzylidene)-2-hydroxybenzoylhydrazide
_symmetry_cell_setting           monoclinic
_symmetry_space_group_name_H-M   'P 21/n'
_symmetry_Int_Tables_number      14
_space_group_name_Hall           '-P 2yn'
loop_
_symmetry_equiv_pos_site_id
_symmetry_equiv_pos_as_xyz
1 x,y,z
2 1/2-x,1/2+y,1/2-z
3 -x,-y,-z
4 1/2+x,1/2-y,1/2+z
_cell_length_a                   6.2877(6)
_cell_length_b                   21.724(2)
_cell_length_c                   10.9742(11)
_cell_angle_alpha                90
_cell_angle_beta                 90.390(2)
_cell_angle_gamma                90
_cell_volume                     1498.98
_exptl_crystal_colour            colorless
_exptl_crystal_description       block
_cell_formula_units_Z            4
_exptl_crystal_recrystallization_method DMF
loop_
_atom_site_label
_atom_site_type_symbol
_atom_site_fract_x
_atom_site_fract_y
_atom_site_fract_z
N1 N 1.1889(2) 0.24511(6) 0.86967(14)
N2 N 1.0326(2) 0.20611(6) 0.82543(12)
O1 O 1.2921(2) 0.26679(6) 0.68112(10)
O2 O 1.4502(2) 0.28091(6) 1.04797(12)
O3 O 0.29096(19) 0.01041(6) 0.77339(11)
O4 O 0.59478(16) 0.03343(5) 0.62628(10)
C1 C 1.3222(3) 0.27151(8) 0.79100(15)
C2 C 1.5040(3) 0.30766(7) 0.84063(15)
C3 C 1.6255(3) 0.33920(9) 0.75587(19)
C4 C 1.7992(3) 0.37338(9) 0.7881(2)
H1 H 1.8775 0.3941 0.7295
C5 C 1.8555(4) 0.37647(10) 0.9086(2)
C6 C 1.7425(3) 0.34559(9) 0.99540(19)
H2 H 1.7841 0.3478 1.0768
C7 C 1.5659(3) 0.31090(7) 0.96228(16)
C8 C 0.8968(3) 0.18802(8) 0.90260(17)
C9 C 0.7343(3) 0.14299(7) 0.86992(14)
C10 C 0.5720(3) 0.13016(9) 0.94935(18)
C11 C 0.4201(3) 0.08625(9) 0.91992(18)
C12 C 0.4297(3) 0.05496(8) 0.81160(16)
C13 C 0.5953(2) 0.06748(7) 0.73071(14)
C14 C 0.7441(3) 0.11098(8) 0.75977(15)
C15 C 0.1332(3) -0.00912(10) 0.85621(19)
H3 H 0.2000 -0.0237 0.9297
H4 H 0.0512 -0.0417 0.8202
H5 H 0.0413 0.0248 0.8750
C16 C 0.7803(3) 0.03532(9) 0.55411(16)
H6 H 0.8041 0.0767 0.5267
H7 H 0.7626 0.0087 0.4849
H8 H 0.9002 0.0218 0.6017
H9 H 1.209(2) 0.2481(7) 0.9456(16)
H10 H 1.517(3) 0.2761(10) 1.111(2)
H11 H 1.579(3) 0.3368(8) 0.6724(17)
H12 H 1.974(3) 0.3984(8) 0.9348(17)
H13 H 0.900(2) 0.2028(6) 0.9817(15)
H14 H 0.565(2) 0.1519(7) 1.0246(15)
H15 H 0.307(2) 0.0785(7) 0.9755(14)
H16 H 0.856(2) 0.1186(6) 0.7078(12)
loop_
_geom_bond_atom_site_label_1
_geom_bond_atom_site_label_2
_geom_bond_site_symmetry_1
_geom_bond_site_symmetry_2
N1 N2 1_555 1_555
N2 C8 1_555 1_555
O1 C1 1_555 1_555
O2 C7 1_555 1_555
O3 C12 1_555 1_555
O4 C13 1_555 1_555
C1 N1 1_555 1_555
C2 C1 1_555 1_555
C3 C2 1_555 1_555
C4 C3 1_555 1_555
H1 C4 1_555 1_555
C5 C4 1_555 1_555
C6 C5 1_555 1_555
H2 C6 1_555 1_555
C7 C2 1_555 1_555
C8 C9 1_555 1_555
C9 C10 1_555 1_555
C10 C11 1_555 1_555
C11 C12 1_555 1_555
C12 C13 1_555 1_555
C13 C14 1_555 1_555
C14 C9 1_555 1_555
C15 O3 1_555 1_555
H3 C15 1_555 1_555
H4 C15 1_555 1_555
H5 C15 1_555 1_555
C16 O4 1_555 1_555
H6 C16 1_555 1_555
H7 C16 1_555 1_555
H8 C16 1_555 1_555
H9 N1 1_555 1_555
H10 O2 1_555 1_555
H11 C3 1_555 1_555
H12 C5 1_555 1_555
H13 C8 1_555 1_555
H14 C10 1_555 1_555
H15 C11 1_555 1_555
H16 C14 1_555 1_555
C6 C7 1_555 1_555

#END
