
#######################################################################
#
#                 Cambridge Crystallographic Data Centre
#                                CCDC 
#
#######################################################################
#
# If this CIF has been generated from an entry in the Cambridge 
# Structural Database, then it will include bibliographic, chemical, 
# crystal, experimental, refinement or atomic coordinate data resulting 
# from the CCDC's data processing and validation procedures.
#
#######################################################################

data_YASKAF
_chemical_formula_moiety         'C9 H9 Cl1 N4'
_chemical_name_systematic        
2-Chloro-4-(3,5-dimethyl-1H-pyrazol-1-yl)pyrimidine
_symmetry_cell_setting           monoclinic
_symmetry_space_group_name_H-M   'P 21/m'
_symmetry_Int_Tables_number      11
_space_group_name_Hall           '-P 2yb'
loop_
_symmetry_equiv_pos_site_id
_symmetry_equiv_pos_as_xyz
1 x,y,z
2 -x,1/2+y,-z
3 -x,-y,-z
4 x,1/2-y,z
_cell_length_a                   7.336(4)
_cell_length_b                   6.607(4)
_cell_length_c                   10.092(6)
_cell_angle_alpha                90
_cell_angle_beta                 96.387(9)
_cell_angle_gamma                90
_cell_volume                     486.113
_exptl_crystal_colour            yellow
_exptl_crystal_description       block
_chemical_melting_point          414-415K
_cell_formula_units_Z            2
_exptl_crystal_recrystallization_method methanol
loop_
_atom_site_label
_atom_site_type_symbol
_atom_site_fract_x
_atom_site_fract_y
_atom_site_fract_z
Cl1 Cl 0.54090(11) 0.2500 -0.33176(8)
N1 N 0.8951(3) 0.2500 -0.2946(2)
N2 N 0.7348(3) 0.2500 -0.1014(2)
N3 N 0.8894(3) 0.2500 0.1140(2)
N4 N 1.0561(3) 0.2500 0.1931(2)
C1 C 0.7489(4) 0.2500 -0.2308(3)
C2 C 1.0521(4) 0.2500 -0.2135(3)
H1 H 1.1615 0.2500 -0.2521
C3 C 1.0620(4) 0.2500 -0.0777(3)
H2 H 1.1736 0.2500 -0.0241
C4 C 0.8947(3) 0.2500 -0.0241(2)
C5 C 0.5453(4) 0.2500 0.1383(3)
C6 C 0.7436(4) 0.2500 0.1905(3)
C7 C 0.8213(4) 0.2500 0.3191(3)
H6 H 0.7599 0.2500 0.3949
C8 C 1.0133(4) 0.2500 0.3157(3)
C9 C 1.1595(4) 0.2500 0.4310(3)
H3? H 0.5112 0.1184 0.1036
H4? H 0.5239 0.3487 0.0685
H5? H 0.4732 0.2829 0.2091
H7? H 1.1219 0.1666 0.5009
H8? H 1.1794 0.3858 0.4631
H9? H 1.2711 0.1976 0.4030
loop_
_geom_bond_atom_site_label_1
_geom_bond_atom_site_label_2
_geom_bond_site_symmetry_1
_geom_bond_site_symmetry_2
Cl1 C1 1_555 1_555
N1 C1 1_555 1_555
N2 C1 1_555 1_555
N3 N4 1_555 1_555
N4 C8 1_555 1_555
C2 N1 1_555 1_555
H1 C2 1_555 1_555
C3 C2 1_555 1_555
H2 C3 1_555 1_555
C4 N2 1_555 1_555
C5 C6 1_555 1_555
C6 N3 1_555 1_555
C7 C6 1_555 1_555
H6 C7 1_555 1_555
C8 C7 1_555 1_555
C9 C8 1_555 1_555
N3 C4 1_555 1_555
C3 C4 1_555 1_555

#END
