
#######################################################################
#
#                 Cambridge Crystallographic Data Centre
#                                CCDC 
#
#######################################################################
#
# If this CIF has been generated from an entry in the Cambridge 
# Structural Database, then it will include bibliographic, chemical, 
# crystal, experimental, refinement or atomic coordinate data resulting 
# from the CCDC's data processing and validation procedures.
#
#######################################################################

data_YASVIA
_chemical_formula_moiety         'C20 H20 N2 O2 S1'
_chemical_name_systematic        
4-methyl-1-((4-methylphenyl)sulfonyl)-1,2,5,10-tetrahydroazepino[2,3-b]indole
_symmetry_cell_setting           orthorhombic
_symmetry_space_group_name_H-M   'P 21 21 21'
_symmetry_Int_Tables_number      19
_space_group_name_Hall           'P 2ac 2ab'
loop_
_symmetry_equiv_pos_site_id
_symmetry_equiv_pos_as_xyz
1 x,y,z
2 1/2-x,-y,1/2+z
3 1/2+x,1/2-y,-z
4 -x,1/2+y,1/2-z
_cell_length_a                   10.9681(6)
_cell_length_b                   12.3253(5)
_cell_length_c                   12.9362(5)
_cell_angle_alpha                90
_cell_angle_beta                 90
_cell_angle_gamma                90
_cell_volume                     1748.78
_exptl_crystal_colour            colorless
_exptl_crystal_description       block
_cell_formula_units_Z            4
loop_
_atom_site_label
_atom_site_type_symbol
_atom_site_fract_x
_atom_site_fract_y
_atom_site_fract_z
S1 S 0.17255(6) 0.28039(5) 0.04061(5)
O1 O 0.28220(18) 0.23452(15) 0.08142(15)
O2 O 0.10155(18) 0.21934(14) -0.03194(14)
N1 N 0.4006(2) 0.43839(16) 0.06845(17)
H1 H 0.4333 0.3756 0.0604
N2 N 0.2143(2) 0.39295(16) -0.02083(16)
C1 C 0.4060(3) 0.7128(2) 0.1534(2)
H2 H 0.3533 0.7719 0.1510
C2 C 0.5184(3) 0.7224(3) 0.1985(2)
H3 H 0.5413 0.7885 0.2272
C3 C 0.5993(3) 0.6353(3) 0.2022(2)
H4 H 0.6754 0.6445 0.2327
C4 C 0.5683(3) 0.5359(3) 0.1614(2)
H5 H 0.6219 0.4775 0.1643
C5 C 0.4542(2) 0.5259(2) 0.11582(19)
C6 C 0.3711(3) 0.6122(2) 0.11060(19)
C7 C 0.2626(2) 0.57406(19) 0.06049(19)
C8 C 0.2859(2) 0.46784(19) 0.0361(2)
C9 C 0.1223(3) 0.4446(2) -0.0899(2)
H6 H 0.0891 0.3895 -0.1354
H7 H 0.1632 0.4979 -0.1327
C10 C 0.0192(3) 0.4989(2) -0.0345(2)
H8 H -0.0587 0.4706 -0.0435
C11 C 0.0316(3) 0.5847(2) 0.0265(2)
C12 C 0.1511(3) 0.6416(2) 0.0413(3)
H9 H 0.1422 0.6912 0.0990
H10 H 0.1662 0.6853 -0.0198
C13 C -0.0750(3) 0.6325(3) 0.0831(3)
H11 H -0.0849 0.7070 0.0632
H12 H -0.0608 0.6284 0.1562
H13 H -0.1475 0.5928 0.0660
C14 C 0.0787(3) 0.3199(2) 0.14453(19)
C15 C 0.1315(3) 0.3728(2) 0.2281(2)
H14 H 0.2157 0.3788 0.2334
C16 C 0.0566(3) 0.4164(3) 0.3033(2)
H15 H 0.0912 0.4524 0.3592
C17 C -0.0695(3) 0.4075(2) 0.2969(2)
C18 C -0.1183(3) 0.3513(2) 0.2143(2)
H16 H -0.2023 0.3423 0.2102
C19 C -0.0456(3) 0.3083(2) 0.1380(2)
H17 H -0.0803 0.2716 0.0825
C20 C -0.1500(3) 0.4579(3) 0.3785(3)
H18 H -0.2337 0.4530 0.3572
H19 H -0.1282 0.5327 0.3874
H20 H -0.1394 0.4200 0.4427
loop_
_geom_bond_atom_site_label_1
_geom_bond_atom_site_label_2
_geom_bond_site_symmetry_1
_geom_bond_site_symmetry_2
S1 O1 1_555 1_555
O2 S1 1_555 1_555
N1 H1 1_555 1_555
N2 S1 1_555 1_555
C1 H2 1_555 1_555
C2 C1 1_555 1_555
H3 C2 1_555 1_555
C3 C2 1_555 1_555
H4 C3 1_555 1_555
C4 C3 1_555 1_555
H5 C4 1_555 1_555
C5 N1 1_555 1_555
C6 C1 1_555 1_555
C7 C6 1_555 1_555
C8 N1 1_555 1_555
C9 N2 1_555 1_555
H6 C9 1_555 1_555
H7 C9 1_555 1_555
C10 C9 1_555 1_555
H8 C10 1_555 1_555
C11 C10 1_555 1_555
C12 C7 1_555 1_555
H9 C12 1_555 1_555
H10 C12 1_555 1_555
C13 C11 1_555 1_555
H11 C13 1_555 1_555
H12 C13 1_555 1_555
H13 C13 1_555 1_555
C14 S1 1_555 1_555
C15 C14 1_555 1_555
H14 C15 1_555 1_555
C16 C15 1_555 1_555
H15 C16 1_555 1_555
C17 C16 1_555 1_555
C18 C17 1_555 1_555
H16 C18 1_555 1_555
C19 C14 1_555 1_555
H17 C19 1_555 1_555
C20 C17 1_555 1_555
H18 C20 1_555 1_555
H19 C20 1_555 1_555
H20 C20 1_555 1_555
N2 C8 1_555 1_555
C4 C5 1_555 1_555
C5 C6 1_555 1_555
C7 C8 1_555 1_555
C11 C12 1_555 1_555
C18 C19 1_555 1_555

#END
