
#######################################################################
#
#                 Cambridge Crystallographic Data Centre
#                                CCDC 
#
#######################################################################
#
# If this CIF has been generated from an entry in the Cambridge 
# Structural Database, then it will include bibliographic, chemical, 
# crystal, experimental, refinement or atomic coordinate data resulting 
# from the CCDC's data processing and validation procedures.
#
#######################################################################

data_YASZAW
_chemical_formula_moiety         'C37 H29 Br1 N2 O2'
_chemical_name_systematic        
1-benzyl-3'-(4-bromobenzoyl)-4',5'-diphenylspiro[indole-3,2'-pyrrolidin]-2(1H)-one
_symmetry_cell_setting           monoclinic
_symmetry_space_group_name_H-M   'P 21'
_symmetry_Int_Tables_number      4
_space_group_name_Hall           'P 2yb'
loop_
_symmetry_equiv_pos_site_id
_symmetry_equiv_pos_as_xyz
1 x,y,z
2 -x,1/2+y,-z
_cell_length_a                   10.0039(12)
_cell_length_b                   11.6625(13)
_cell_length_c                   25.912(3)
_cell_angle_alpha                90
_cell_angle_beta                 94.479(3)
_cell_angle_gamma                90
_cell_volume                     3013.93
_exptl_crystal_description       block
_cell_formula_units_Z            4
loop_
_atom_site_label
_atom_site_type_symbol
_atom_site_fract_x
_atom_site_fract_y
_atom_site_fract_z
Br1 Br 0.18329(4) 0.45605(4) 0.462301(17)
N1 N -0.4334(3) 0.6407(3) 0.43373(11)
C1 C -0.5877(3) 1.0647(3) 0.33061(13)
O1 O -0.4319(3) 0.8173(2) 0.47283(10)
O2 O -0.1381(3) 0.8626(2) 0.31150(10)
N2 N -0.5270(3) 0.8720(2) 0.36178(12)
H1 H -0.6055 0.8465 0.3518
C2 C -0.4072(3) 0.6884(3) 0.34985(13)
C3 C -0.4264(3) 0.7569(3) 0.43494(15)
C4 C 0.0730(4) 0.5722(3) 0.42957(15)
C5 C -0.0855(3) 0.7406(3) 0.38171(13)
C6 C -0.5849(4) 1.1832(3) 0.33593(15)
H2 H -0.5207 1.2172 0.3589
C7 C -0.0250(3) 0.6221(3) 0.45594(14)
H3 H -0.0383 0.6000 0.4896
C8 C -0.2798(4) 0.6273(4) 0.54825(15)
H4 H -0.3146 0.7013 0.5480
C9 C -0.4189(3) 0.5980(3) 0.38378(14)
C10 C -0.1039(3) 0.7061(3) 0.43140(13)
H5 H -0.1711 0.7401 0.4489
C11 C -0.4126(3) 0.7995(3) 0.37927(13)
C12 C -0.1688(3) 0.8298(3) 0.35345(13)
C13 C -0.2897(3) 0.8818(3) 0.37654(12)
H6 H -0.2617 0.9065 0.4119
C14 C -0.2636(3) 1.0943(3) 0.35485(12)
C15 C -0.3944(4) 0.6688(4) 0.29785(15)
H7 H -0.3893 0.7293 0.2747
C16 C -0.4601(4) 0.5732(4) 0.47939(15)
H8 H -0.5033 0.5021 0.4680
H9 H -0.5225 0.6152 0.4991
C17 C -0.4901(3) 0.9925(3) 0.36355(13)
H10 H -0.4873 1.0195 0.3994
C18 C -0.7725(4) 1.2024(4) 0.27350(18)
H11 H -0.8338 1.2484 0.2543
C19 C -0.6856(4) 1.0166(3) 0.29656(14)
H12 H -0.6902 0.9374 0.2926
C20 C -0.3894(4) 0.5559(4) 0.28127(19)
H13 H -0.3801 0.5403 0.2465
C21 C -0.3367(3) 0.5450(3) 0.51463(15)
C22 C -0.2366(4) 1.1436(3) 0.40222(15)
H14 H -0.2692 1.1100 0.4313
C23 C -0.1721(4) 0.5992(5) 0.58189(16)
H15 H -0.1343 0.6548 0.6043
C24 C -0.2098(4) 1.1468(3) 0.31253(16)
H16 H -0.2247 1.1142 0.2798
C25 C -0.1603(5) 1.2446(4) 0.4077(2)
H17 H -0.1435 1.2779 0.4402
C26 C -0.4136(4) 0.4861(3) 0.36698(19)
H18 H -0.4202 0.4253 0.3898
C27 C 0.0158(4) 0.6890(4) 0.35625(14)
H19 H 0.0300 0.7108 0.3226
C28 C 0.0955(4) 0.6055(4) 0.38065(15)
H20 H 0.1643 0.5720 0.3637
C29 C -0.2842(4) 0.4372(4) 0.51596(16)
H21 H -0.3217 0.3814 0.4936
C30 C -0.1200(4) 0.4922(5) 0.58309(18)
H22 H -0.0468 0.4747 0.6061
C31 C -0.1751(5) 0.4096(5) 0.5503(2)
H23 H -0.1399 0.3358 0.5511
C32 C -0.3470(3) 0.9870(3) 0.34647(11)
H24 H -0.3524 0.9686 0.3095
C33 C -0.6769(4) 1.2510(4) 0.30727(18)
H25 H -0.6737 1.3303 0.3110
C34 C -0.7775(4) 1.0869(4) 0.26814(16)
H26 H -0.8428 1.0539 0.2453
C35 C -0.1103(5) 1.2941(4) 0.3650(3)
H27 H -0.0593 1.3608 0.3683
C36 C -0.1361(5) 1.2449(4) 0.3184(2)
H28 H -0.1028 1.2785 0.2895
C37 C -0.3981(5) 0.4671(4) 0.3154(2)
H29 H -0.3934 0.3922 0.3035
Br2 Br 0.60707(7) 1.32195(5) -0.06730(3)
C38 C 0.7491(4) 1.1592(3) 0.17079(13)
C39 C 0.8165(3) 0.9661(3) 0.16509(11)
N3 N 0.9091(3) 0.9027(3) 0.20013(11)
H30 H 0.9646 0.9329 0.2233
C40 C 0.8945(4) 0.7805(3) 0.19046(13)
H31 H 0.8141 0.7521 0.2056
O3 O 0.5986(3) 0.9002(3) 0.19394(11)
N4 N 0.6385(3) 1.0912(3) 0.18178(11)
C41 C 0.8047(4) 1.0426(3) 0.04085(13)
C42 C 0.8555(3) 1.0899(3) 0.16166(12)
C43 C 0.9784(4) 1.1401(4) 0.15309(14)
H32 H 1.0523 1.0948 0.1473
C44 C 0.6719(4) 0.9781(3) 0.18282(12)
C45 C 0.6086(4) 1.1414(5) 0.00587(19)
H33 H 0.5160 1.1508 0.0037
C46 C 1.0006(5) 0.6006(4) 0.22750(16)
H34 H 0.9150 0.5700 0.2284
C47 C 0.8085(3) 0.8913(3) 0.11460(12)
H35 H 0.7141 0.8783 0.1030
C48 C 0.5095(4) 1.1378(4) 0.19617(16)
H36 H 0.4601 1.0771 0.2119
H37 H 0.5271 1.1972 0.2220
C49 C 0.7994(5) 0.6722(3) 0.11028(14)
C50 C 0.8771(3) 0.9496(3) 0.07181(12)
C51 C 0.9886(5) 1.2580(4) 0.15329(18)
H38 H 1.0702 1.2922 0.1477
C52 C 1.0149(4) 0.7111(3) 0.21057(14)
O4 O 0.9906(3) 0.9255(3) 0.06283(12)
C53 C 0.8735(4) 0.7760(3) 0.13083(13)
H39 H 0.9625 0.7744 0.1175
C54 C 0.8803(4) 1.1188(4) 0.01515(19)
H40 H 0.9733 1.1131 0.0189
C55 C 0.7584(5) 1.2780(3) 0.17061(17)
H41 H 0.6849 1.3237 0.1764
C56 C 0.6860(4) 1.2089(4) -0.02186(18)
C57 C 0.6694(4) 1.0580(4) 0.03758(17)
H42 H 0.6168 1.0116 0.0570
C58 C 1.2344(7) 0.5796(6) 0.2432(3)
H43 H 1.3083 0.5352 0.2544
C59 C 0.6712(5) 0.6464(4) 0.12418(19)
H44 H 0.6310 0.6950 0.1469
C60 C 0.8214(5) 1.2038(5) -0.0162(2)
H45 H 0.8735 1.2561 -0.0329
C61 C 1.1418(5) 0.7553(5) 0.2107(2)
H46 H 1.1533 0.8303 0.1997
C62 C 0.8803(5) 1.3256(4) 0.16154(17)
H47 H 0.8893 1.4049 0.1610
C63 C 0.7859(12) 0.5015(5) 0.0570(2)
H48 H 0.8244 0.4539 0.0335
C64 C 0.6024(7) 0.5517(5) 0.1055(3)
H49 H 0.5167 0.5363 0.1152
C65 C 0.6633(12) 0.4788(6) 0.0714(3)
H50 H 0.6180 0.4138 0.0587
C66 C 1.1086(7) 0.5347(4) 0.2430(2)
H51 H 1.0966 0.4594 0.2535
C67 C 0.4247(4) 1.1862(4) 0.15219(16)
C68 C 0.8561(7) 0.5971(4) 0.07745(17)
H52 H 0.9432 0.6101 0.0686
C69 C 0.3964(6) 1.3001(6) 0.1492(3)
H53 H 0.4275 1.3496 0.1756
C70 C 1.2528(6) 0.6907(6) 0.2268(3)
H54 H 1.3385 0.7215 0.2266
C71 C 0.2874(7) 1.1510(15) 0.0746(3)
H55 H 0.2456 1.0994 0.0511
C72 C 0.3698(6) 1.1130(9) 0.1163(3)
H56 H 0.3879 1.0350 0.1196
C73 C 0.3197(7) 1.3417(11) 0.1057(6)
H57 H 0.3038 1.4200 0.1024
C74 C 0.2684(9) 1.2693(17) 0.0685(4)
H58 H 0.2208 1.2979 0.0390
loop_
_geom_bond_atom_site_label_1
_geom_bond_atom_site_label_2
_geom_bond_site_symmetry_1
_geom_bond_site_symmetry_2
Br1 C4 1_555 1_555
N1 C3 1_555 1_555
C1 C6 1_555 1_555
O1 C3 1_555 1_555
O2 C12 1_555 1_555
N2 H1 1_555 1_555
C2 C9 1_555 1_555
C3 C11 1_555 1_555
C4 C7 1_555 1_555
C5 C10 1_555 1_555
C6 H2 1_555 1_555
C7 H3 1_555 1_555
C8 H4 1_555 1_555
C9 N1 1_555 1_555
C10 C7 1_555 1_555
H5 C10 1_555 1_555
C11 N2 1_555 1_555
C12 C5 1_555 1_555
C13 C11 1_555 1_555
H6 C13 1_555 1_555
C14 C22 1_555 1_555
C15 C2 1_555 1_555
H7 C15 1_555 1_555
C16 N1 1_555 1_555
H8 C16 1_555 1_555
H9 C16 1_555 1_555
C17 C1 1_555 1_555
H10 C17 1_555 1_555
C18 H11 1_555 1_555
C19 C1 1_555 1_555
H12 C19 1_555 1_555
C20 C15 1_555 1_555
H13 C20 1_555 1_555
C21 C8 1_555 1_555
C22 H14 1_555 1_555
C23 C8 1_555 1_555
H15 C23 1_555 1_555
C24 C14 1_555 1_555
H16 C24 1_555 1_555
C25 C22 1_555 1_555
H17 C25 1_555 1_555
C26 C9 1_555 1_555
H18 C26 1_555 1_555
C27 C5 1_555 1_555
H19 C27 1_555 1_555
C28 C4 1_555 1_555
H20 C28 1_555 1_555
C29 C21 1_555 1_555
H21 C29 1_555 1_555
C30 C23 1_555 1_555
H22 C30 1_555 1_555
C31 C29 1_555 1_555
H23 C31 1_555 1_555
C32 C13 1_555 1_555
H24 C32 1_555 1_555
C33 C6 1_555 1_555
H25 C33 1_555 1_555
C34 C18 1_555 1_555
H26 C34 1_555 1_555
C35 C25 1_555 1_555
H27 C35 1_555 1_555
C36 C24 1_555 1_555
H28 C36 1_555 1_555
C37 C20 1_555 1_555
H29 C37 1_555 1_555
Br2 C56 1_555 1_555
C38 N4 1_555 1_555
C39 N3 1_555 1_555
N3 H30 1_555 1_555
C40 N3 1_555 1_555
H31 C40 1_555 1_555
O3 C44 1_555 1_555
N4 C44 1_555 1_555
C41 C50 1_555 1_555
C42 C38 1_555 1_555
C43 C42 1_555 1_555
H32 C43 1_555 1_555
C44 C39 1_555 1_555
C45 H33 1_555 1_555
C46 H34 1_555 1_555
C47 C39 1_555 1_555
H35 C47 1_555 1_555
C48 N4 1_555 1_555
H36 C48 1_555 1_555
H37 C48 1_555 1_555
C49 C53 1_555 1_555
C50 C47 1_555 1_555
C51 C43 1_555 1_555
H38 C51 1_555 1_555
C52 C40 1_555 1_555
O4 C50 1_555 1_555
C53 C40 1_555 1_555
H39 C53 1_555 1_555
C54 C41 1_555 1_555
H40 C54 1_555 1_555
C55 C38 1_555 1_555
H41 C55 1_555 1_555
C56 C45 1_555 1_555
C57 C41 1_555 1_555
H42 C57 1_555 1_555
C58 H43 1_555 1_555
C59 C49 1_555 1_555
H44 C59 1_555 1_555
C60 C54 1_555 1_555
H45 C60 1_555 1_555
C61 C52 1_555 1_555
H46 C61 1_555 1_555
C62 C51 1_555 1_555
H47 C62 1_555 1_555
C63 H48 1_555 1_555
C64 C59 1_555 1_555
H49 C64 1_555 1_555
C65 C63 1_555 1_555
H50 C65 1_555 1_555
C66 C46 1_555 1_555
H51 C66 1_555 1_555
C67 C48 1_555 1_555
C68 C49 1_555 1_555
H52 C68 1_555 1_555
C69 C67 1_555 1_555
H53 C69 1_555 1_555
C70 C58 1_555 1_555
H54 C70 1_555 1_555
C71 H55 1_555 1_555
C72 C67 1_555 1_555
H56 C72 1_555 1_555
C73 C69 1_555 1_555
H57 C73 1_555 1_555
C74 C71 1_555 1_555
H58 C74 1_555 1_555
N2 C17 1_555 1_555
C2 C11 1_555 1_555
C12 C13 1_555 1_555
C14 C32 1_555 1_555
C16 C21 1_555 1_555
C17 C32 1_555 1_555
C18 C33 1_555 1_555
C19 C34 1_555 1_555
C26 C37 1_555 1_555
C27 C28 1_555 1_555
C30 C31 1_555 1_555
C35 C36 1_555 1_555
C39 C42 1_555 1_555
C45 C57 1_555 1_555
C46 C52 1_555 1_555
C47 C53 1_555 1_555
C55 C62 1_555 1_555
C56 C60 1_555 1_555
C58 C66 1_555 1_555
C61 C70 1_555 1_555
C63 C68 1_555 1_555
C64 C65 1_555 1_555
C71 C72 1_555 1_555
C73 C74 1_555 1_555

#END
