
#######################################################################
#
#                 Cambridge Crystallographic Data Centre
#                                CCDC 
#
#######################################################################
#
# If this CIF has been generated from an entry in the Cambridge 
# Structural Database, then it will include bibliographic, chemical, 
# crystal, experimental, refinement or atomic coordinate data resulting 
# from the CCDC's data processing and validation procedures.
#
#######################################################################

data_YATRUJ
_chemical_formula_moiety         'C13 H18 Cl1 N1 O2'
_chemical_name_systematic        
'(1S, 2S)-1-(4-chlorophenyl)-2-(morpholin-4-yl)propan-1-ol'
_symmetry_cell_setting           monoclinic
_symmetry_space_group_name_H-M   'P 21'
_symmetry_Int_Tables_number      4
_space_group_name_Hall           'P 2yb'
loop_
_symmetry_equiv_pos_site_id
_symmetry_equiv_pos_as_xyz
1 x,y,z
2 -x,1/2+y,-z
_cell_length_a                   6.9195(7)
_cell_length_b                   13.3255(14)
_cell_length_c                   14.5808(15)
_cell_angle_alpha                90
_cell_angle_beta                 96.229(2)
_cell_angle_gamma                90
_cell_volume                     1336.5
_exptl_crystal_colour            colorless
_exptl_crystal_description       block
_cell_formula_units_Z            4
loop_
_atom_site_label
_atom_site_type_symbol
_atom_site_fract_x
_atom_site_fract_y
_atom_site_fract_z
C1 C 1.1636(3) 0.65829(19) 0.26045(14)
C2 C 0.9874(3) 0.62124(18) 0.27958(15)
H1 H 0.9581 0.5535 0.2713
C3 C 0.8541(3) 0.68644(17) 0.31143(14)
H2 H 0.7348 0.6618 0.3252
C4 C 0.8947(3) 0.78715(17) 0.32310(12)
C5 C 1.0736(3) 0.82237(17) 0.30142(15)
H3 H 1.1022 0.8904 0.3079
C6 C 1.2096(3) 0.7583(2) 0.27047(15)
H4 H 1.3293 0.7823 0.2567
C7 C 0.7445(3) 0.85614(16) 0.35593(13)
H5 H 0.6434 0.8150 0.3795
C8 C 0.8233(3) 0.92875(18) 0.43172(14)
H6 H 0.9373 0.9614 0.4105
C9 C 0.8933(5) 0.8738(3) 0.52136(17)
H7 H 0.9318 0.9219 0.5688
H8 H 1.0022 0.8319 0.5117
H9 H 0.7899 0.8330 0.5398
C10 C 0.5149(4) 0.9792(2) 0.4898(2)
H10 H 0.5608 0.9678 0.5542
H11 H 0.4569 0.9175 0.4646
C11 C 0.3653(4) 1.0619(3) 0.4819(2)
H12 H 0.3165 1.0713 0.4176
H13 H 0.2568 1.0429 0.5152
C12 C 0.6032(5) 1.1809(2) 0.4693(2)
H14 H 0.6584 1.2433 0.4944
H15 H 0.5551 1.1926 0.4052
C13 C 0.7577(4) 1.1031(2) 0.47424(19)
H16 H 0.8599 1.1241 0.4379
H17 H 0.8141 1.0952 0.5377
Cl1 Cl 1.33328(10) 0.57505(6) 0.22262(5)
N1 N 0.6775(3) 1.00749(15) 0.43945(12)
O1 O 0.6581(2) 0.91208(14) 0.27972(10)
H18 H 0.6214 0.9664 0.2977
O2 O 0.4463(3) 1.15298(16) 0.51833(15)
C14 C -0.1760(3) 0.2859(2) 0.23645(14)
C15 C 0.0162(3) 0.30186(19) 0.22555(17)
H19 H 0.0724 0.3645 0.2376
C16 C 0.1247(3) 0.22346(18) 0.19644(17)
H20 H 0.2546 0.2339 0.1883
C17 C 0.0430(3) 0.12935(15) 0.17910(13)
C18 C -0.1502(3) 0.11617(18) 0.19048(15)
H21 H -0.2072 0.0536 0.1790
C19 C -0.2618(3) 0.1948(2) 0.21891(16)
H22 H -0.3926 0.1854 0.2258
C20 C 0.1598(3) 0.04099(16) 0.15128(14)
H23 H 0.0744 -0.0179 0.1463
C21 C 0.2473(3) 0.05227(16) 0.06025(14)
H24 H 0.3363 0.1096 0.0672
C22 C 0.0963(4) 0.0755(3) -0.02106(17)
H25 H 0.1559 0.0718 -0.0774
H26 H 0.0456 0.1418 -0.0142
H27 H -0.0076 0.0276 -0.0228
C23 C 0.5173(4) -0.0243(2) -0.01125(18)
H28 H 0.5930 0.0352 0.0064
H29 H 0.4573 -0.0153 -0.0740
C24 C 0.6479(4) -0.1146(2) -0.0063(2)
H30 H 0.7479 -0.1049 -0.0472
H31 H 0.7114 -0.1215 0.0560
C25 C 0.3949(5) -0.2168(2) 0.0271(2)
H32 H 0.4533 -0.2261 0.0901
H33 H 0.3216 -0.2768 0.0087
C26 C 0.2602(3) -0.1292(2) 0.02333(18)
H34 H 0.1963 -0.1217 -0.0389
H35 H 0.1611 -0.1407 0.0643
Cl2 Cl -0.31564(10) 0.38397(5) 0.27360(5)
N2 N 0.3671(2) -0.03797(13) 0.05059(11)
O3 O 0.3115(2) 0.02265(14) 0.22293(10)
H36 H 0.3881 -0.0181 0.2052
O4 O 0.5441(3) -0.20351(15) -0.03136(14)
loop_
_geom_bond_atom_site_label_1
_geom_bond_atom_site_label_2
_geom_bond_site_symmetry_1
_geom_bond_site_symmetry_2
C1 C2 1_555 1_555
C2 H1 1_555 1_555
C3 C2 1_555 1_555
H2 C3 1_555 1_555
C4 C3 1_555 1_555
C5 C4 1_555 1_555
H3 C5 1_555 1_555
C6 C1 1_555 1_555
H4 C6 1_555 1_555
C7 C4 1_555 1_555
H5 C7 1_555 1_555
C8 C7 1_555 1_555
H6 C8 1_555 1_555
C9 C8 1_555 1_555
H7 C9 1_555 1_555
H8 C9 1_555 1_555
H9 C9 1_555 1_555
C10 H10 1_555 1_555
H11 C10 1_555 1_555
C11 C10 1_555 1_555
H12 C11 1_555 1_555
H13 C11 1_555 1_555
C12 H14 1_555 1_555
H15 C12 1_555 1_555
C13 C12 1_555 1_555
H16 C13 1_555 1_555
H17 C13 1_555 1_555
Cl1 C1 1_555 1_555
N1 C8 1_555 1_555
O1 C7 1_555 1_555
H18 O1 1_555 1_555
O2 C11 1_555 1_555
C14 C15 1_555 1_555
C15 H19 1_555 1_555
C16 C15 1_555 1_555
H20 C16 1_555 1_555
C17 C16 1_555 1_555
C18 C17 1_555 1_555
H21 C18 1_555 1_555
C19 C14 1_555 1_555
H22 C19 1_555 1_555
C20 C17 1_555 1_555
H23 C20 1_555 1_555
C21 C20 1_555 1_555
H24 C21 1_555 1_555
C22 C21 1_555 1_555
H25 C22 1_555 1_555
H26 C22 1_555 1_555
H27 C22 1_555 1_555
C23 H28 1_555 1_555
H29 C23 1_555 1_555
C24 C23 1_555 1_555
H30 C24 1_555 1_555
H31 C24 1_555 1_555
C25 H32 1_555 1_555
H33 C25 1_555 1_555
C26 C25 1_555 1_555
H34 C26 1_555 1_555
H35 C26 1_555 1_555
Cl2 C14 1_555 1_555
N2 C21 1_555 1_555
O3 C20 1_555 1_555
H36 O3 1_555 1_555
O4 C24 1_555 1_555
C5 C6 1_555 1_555
C10 N1 1_555 1_555
C12 O2 1_555 1_555
C13 N1 1_555 1_555
C18 C19 1_555 1_555
C23 N2 1_555 1_555
C25 O4 1_555 1_555
C26 N2 1_555 1_555

#END
