
#######################################################################
#
#                 Cambridge Crystallographic Data Centre
#                                CCDC 
#
#######################################################################
#
# If this CIF has been generated from an entry in the Cambridge 
# Structural Database, then it will include bibliographic, chemical, 
# crystal, experimental, refinement or atomic coordinate data resulting 
# from the CCDC's data processing and validation procedures.
#
#######################################################################

data_YAVMOA
_chemical_formula_moiety         
'C102 H30 F40 N10 S1 2+,2(C2 F3 O2 1-),0.35(C2 H1 F3 O2),0.57(C1 H2 Cl2),7.81(C1 H4 O1),0.5(H2 O1)'
_chemical_name_systematic        
'10,15,20,25,35,40,45,50-octakis(pentafluorophenyl)-5,30-(thiene-2,5-diyl)-[46]decaphyrin(1.1.1.1.1.1.1.1.1.1)-diium bis(trifluoroacetato) trifluoroacetic acid dichloromethane methanol solvate hydrate'
_symmetry_cell_setting           triclinic
_symmetry_space_group_name_H-M   'P -1'
_symmetry_Int_Tables_number      2
_space_group_name_Hall           '-P 1'
loop_
_symmetry_equiv_pos_site_id
_symmetry_equiv_pos_as_xyz
1 x,y,z
2 -x,-y,-z
_cell_length_a                   13.3846(17)
_cell_length_b                   19.1244(7)
_cell_length_c                   25.590(3)
_cell_angle_alpha                72.615(16)
_cell_angle_beta                 89.57(2)
_cell_angle_gamma                70.103(11)
_cell_volume                     5845.49
_exptl_crystal_colour            purple
_exptl_crystal_description       Prism
_cell_formula_units_Z            2
loop_
_atom_site_label
_atom_site_type_symbol
_atom_site_fract_x
_atom_site_fract_y
_atom_site_fract_z
C1 C 0.3418(4) 0.5259(2) 0.39054(17)
C2 C 0.3085(4) 0.5449(2) 0.43833(16)
C3 C 0.2505(4) 0.6213(2) 0.44255(17)
H1 H 0.2248 0.6692 0.4131
C4 C 0.2394(4) 0.6118(2) 0.49669(18)
H2 H 0.2035 0.6520 0.5120
C5 C 0.2912(4) 0.5309(2) 0.52652(16)
N1 N 0.3337(3) 0.49217(19) 0.49019(13)
H3 H 0.3710 0.4418 0.4987
C6 C 0.3014(4) 0.4954(2) 0.58430(17)
C7 C 0.3820(4) 0.4259(2) 0.61174(16)
C8 C 0.4812(4) 0.3895(2) 0.59320(16)
H4 H 0.5026 0.4075 0.5577
C9 C 0.5396(4) 0.3254(2) 0.63435(17)
H5 H 0.6094 0.2909 0.6330
C10 C 0.4786(4) 0.3181(2) 0.68034(16)
N2 N 0.3859(3) 0.38130(19) 0.66554(14)
H6 H 0.3357 0.3921 0.6873
C11 C 0.5066(4) 0.2590(2) 0.73073(17)
C12 C 0.5909(4) 0.1877(2) 0.73735(17)
C13 C 0.6546(5) 0.1318(3) 0.78680(18)
H7 H 0.6496 0.1368 0.8226
C14 C 0.7232(5) 0.0705(3) 0.77341(18)
H8 H 0.7743 0.0248 0.7982
C15 C 0.7050(4) 0.0867(2) 0.71578(17)
N3 N 0.6257(3) 0.15877(19) 0.69468(14)
C16 C 0.7538(4) 0.0398(2) 0.68288(17)
C17 C 0.7512(4) 0.0713(2) 0.62578(17)
C18 C 0.7350(4) 0.1489(2) 0.59292(17)
H9 H 0.7204 0.1927 0.6058
C19 C 0.7437(4) 0.1503(2) 0.54008(17)
H10 H 0.7371 0.1951 0.5095
C20 C 0.7646(4) 0.0727(2) 0.53816(16)
N4 N 0.7710(3) 0.02636(18) 0.59116(13)
H11 H 0.7855 -0.0246 0.6016
C21 C 0.7823(4) 0.0452(2) 0.49215(16)
C22 C 0.7491(4) 0.0950(2) 0.43843(17)
C23 C 0.7903(4) 0.0832(2) 0.38895(17)
H12 H 0.8445 0.0374 0.3862
C24 C 0.7385(4) 0.1489(2) 0.34655(16)
H13 H 0.7512 0.1575 0.3090
C25 C 0.6615(4) 0.2027(2) 0.36818(15)
N5 N 0.6710(3) 0.16805(18) 0.42420(13)
H14 H 0.6330 0.1894 0.4473
C26 C 0.5932(4) 0.2791(2) 0.34011(16)
C27 C 0.5740(4) 0.3064(2) 0.28177(16)
C28 C 0.5554(4) 0.3819(2) 0.24554(16)
H15 H 0.5482 0.4270 0.2559
C29 C 0.5495(4) 0.3797(2) 0.19312(16)
H16 H 0.5396 0.4225 0.1606
C30 C 0.5606(4) 0.3020(2) 0.19524(16)
N6 N 0.5781(3) 0.25848(18) 0.25018(13)
H17 H 0.5901 0.2079 0.2631
C31 C 0.5588(4) 0.2717(2) 0.15226(16)
C32 C 0.5107(4) 0.3204(2) 0.09899(17)
C33 C 0.5256(4) 0.3045(3) 0.04790(17)
H18 H 0.5725 0.2575 0.0429
C34 C 0.4610(4) 0.3684(2) 0.00774(17)
H19 H 0.4543 0.3738 -0.0303
C35 C 0.4045(4) 0.4264(2) 0.03278(16)
N7 N 0.4390(3) 0.39510(19) 0.08768(13)
H20 H 0.4181 0.4195 0.1122
C36 C 0.3263(4) 0.5000(2) 0.00802(16)
C37 C 0.2959(4) 0.5582(2) 0.03451(16)
C38 C 0.3550(4) 0.5676(2) 0.07629(17)
H21 H 0.4251 0.5341 0.0928
C39 C 0.2938(4) 0.6328(2) 0.08852(17)
H22 H 0.3136 0.6529 0.1149
C40 C 0.1950(4) 0.6653(2) 0.05474(17)
N8 N 0.1998(3) 0.62022(19) 0.02110(13)
C41 C 0.1062(4) 0.7321(2) 0.05230(17)
C42 C 0.0844(5) 0.7635(3) 0.09565(18)
C43 C 0.0121(6) 0.8383(3) 0.0942(2)
H23 H -0.0286 0.8788 0.0624
C44 C 0.0112(6) 0.8421(3) 0.1464(2)
H24 H -0.0308 0.8855 0.1573
C45 C 0.0839(5) 0.7701(2) 0.18181(18)
N9 N 0.1291(4) 0.7250(2) 0.14890(14)
H25 H 0.1794 0.6783 0.1604
C46 C 0.1047(4) 0.7448(2) 0.23943(18)
C47 C 0.1959(4) 0.6807(2) 0.26742(17)
C48 C 0.2934(4) 0.6484(2) 0.24744(17)
H26 H 0.3113 0.6666 0.2111
C49 C 0.3578(4) 0.5863(2) 0.28933(17)
H27 H 0.4279 0.5530 0.2871
C50 C 0.3017(4) 0.5802(2) 0.33667(17)
N10 N 0.2049(3) 0.63960(19) 0.32236(14)
H28 H 0.1559 0.6500 0.3448
C51 C 0.4243(4) 0.4507(2) 0.39379(16)
C52 C 0.5137(4) 0.4081(2) 0.42994(16)
H29 H 0.5290 0.4213 0.4612
C53 C 0.5811(4) 0.3430(2) 0.41651(16)
H30 H 0.6467 0.3081 0.4377
C54 C 0.5430(4) 0.3347(2) 0.36984(16)
S1 S 0.42065(10) 0.40690(6) 0.34410(4)
C55 C 0.2230(4) 0.5385(2) 0.61498(17)
C56 C 0.1140(5) 0.5647(4) 0.6005(2)
C57 C 0.0420(6) 0.6085(5) 0.6265(3)
C58 C 0.0767(6) 0.6304(4) 0.6680(2)
C59 C 0.1834(5) 0.6059(3) 0.68363(19)
C60 C 0.2546(4) 0.5596(2) 0.65825(17)
F1 F 0.0767(3) 0.5457(2) 0.56036(14)
F2 F -0.0636(4) 0.6315(4) 0.6120(2)
F3 F 0.0056(4) 0.6757(3) 0.69214(18)
F4 F 0.2180(3) 0.62654(18) 0.72348(12)
F5 F 0.3580(2) 0.53539(14) 0.67569(10)
C61 C 0.4489(4) 0.2659(2) 0.77987(17)
C62 C 0.4381(4) 0.3264(2) 0.80201(18)
C63 C 0.3939(5) 0.3280(3) 0.85025(19)
C64 C 0.3542(5) 0.2712(3) 0.8779(2)
C65 C 0.3617(5) 0.2116(3) 0.8566(2)
C66 C 0.4075(5) 0.2100(3) 0.8087(2)
F6 F 0.4735(3) 0.38390(15) 0.77675(11)
F7 F 0.3883(3) 0.38679(18) 0.87010(12)
F8 F 0.3133(3) 0.2733(2) 0.92464(13)
F9 F 0.3222(4) 0.1564(2) 0.88273(17)
F10 F 0.4132(3) 0.15058(17) 0.78964(13)
C67 C 0.8079(4) -0.0454(2) 0.71088(16)
C68 C 0.7546(4) -0.0902(2) 0.74345(18)
C69 C 0.8031(4) -0.1694(2) 0.76859(18)
C70 C 0.9080(4) -0.2060(2) 0.76159(18)
C71 C 0.9633(4) -0.1635(2) 0.73016(18)
C72 C 0.9138(4) -0.0842(2) 0.70482(16)
F11 F 0.6522(2) -0.05691(15) 0.75076(12)
F12 F 0.7497(3) -0.21133(16) 0.79917(13)
F13 F 0.9547(3) -0.28274(14) 0.78649(11)
F14 F 1.0662(2) -0.19857(16) 0.72377(12)
F15 F 0.9705(2) -0.04390(14) 0.67528(11)
C73 C 0.8413(4) -0.0385(2) 0.50079(16)
C74 C 0.9406(4) -0.0782(2) 0.53148(17)
C75 C 0.9970(5) -0.1553(3) 0.5378(2)
C76 C 0.9539(5) -0.1955(3) 0.5133(2)
C77 C 0.8558(5) -0.1587(3) 0.4839(2)
C78 C 0.8008(4) -0.0821(2) 0.47813(17)
F16 F 0.9853(2) -0.04032(14) 0.55466(10)
F17 F 1.0942(3) -0.19212(17) 0.56625(13)
F18 F 1.0093(4) -0.27039(17) 0.51797(18)
F19 F 0.8143(3) -0.19958(16) 0.46192(14)
F20 F 0.7037(3) -0.04909(14) 0.45024(11)
C79 C 0.6084(4) 0.1863(2) 0.16049(16)
C80 C 0.7150(4) 0.1452(3) 0.18000(18)
C81 C 0.7637(5) 0.0674(3) 0.1842(2)
C82 C 0.7056(5) 0.0275(3) 0.1692(2)
C83 C 0.5986(5) 0.0664(3) 0.1508(2)
C84 C 0.5520(5) 0.1440(3) 0.14683(19)
F21 F 0.7745(2) 0.18170(15) 0.19446(12)
F22 F 0.8666(3) 0.02899(18) 0.20359(16)
F23 F 0.7521(3) -0.04704(16) 0.17275(14)
F24 F 0.5412(3) 0.02813(18) 0.13710(16)
F25 F 0.4476(3) 0.17920(16) 0.12905(13)
C85 C 0.2692(4) 0.5147(2) -0.04547(16)
C86 C 0.2250(4) 0.4640(2) -0.05574(17)
C87 C 0.1699(4) 0.4794(2) -0.10483(18)
C88 C 0.1560(4) 0.5479(3) -0.14708(17)
C89 C 0.1980(4) 0.6005(2) -0.13876(16)
C90 C 0.2544(4) 0.5837(2) -0.08929(16)
F26 F 0.2327(3) 0.39770(14) -0.01600(11)
F27 F 0.1276(3) 0.42843(15) -0.11280(12)
F28 F 0.1004(3) 0.56303(15) -0.19447(10)
F29 F 0.1861(2) 0.66713(14) -0.17887(10)
F30 F 0.2964(2) 0.63571(14) -0.08312(10)
C91 C 0.0271(5) 0.7707(2) 0.00266(17)
C92 C 0.0537(5) 0.8016(3) -0.04910(19)
C93 C -0.0219(6) 0.8399(3) -0.09439(19)
C94 C -0.1259(6) 0.8473(3) -0.0883(2)
C95 C -0.1548(6) 0.8167(4) -0.0381(2)
C96 C -0.0800(5) 0.7789(3) 0.00656(19)
F31 F 0.1551(3) 0.7957(2) -0.05659(13)
F32 F 0.0059(4) 0.8700(2) -0.14417(12)
F33 F -0.1993(3) 0.8855(2) -0.13193(13)
F34 F -0.2568(4) 0.8213(3) -0.03240(15)
F35 F -0.1094(3) 0.7477(2) 0.05554(12)
C97 C 0.0265(5) 0.7882(2) 0.27036(17)
C98 C -0.0821(5) 0.8023(3) 0.26294(19)
C99 C -0.1538(5) 0.8429(3) 0.2918(2)
C100 C -0.1173(6) 0.8696(3) 0.3294(2)
C101 C -0.0116(5) 0.8556(2) 0.33863(19)
C102 C 0.0595(5) 0.8151(2) 0.30928(18)
F36 F -0.1208(3) 0.77653(18) 0.22754(12)
F37 F -0.2586(3) 0.8561(2) 0.28382(14)
F38 F -0.1881(3) 0.90907(19) 0.35769(13)
F39 F 0.0221(3) 0.88000(16) 0.37655(12)
F40 F 0.1619(3) 0.80379(15) 0.31872(11)
F41 F 0.3859(4) 1.2323(2) 0.3480(2)
F42 F 0.2254(4) 1.26981(19) 0.31497(17)
F43 F 0.2595(4) 1.2468(2) 0.40041(16)
C103 C 0.2944(5) 1.2210(3) 0.3586(2)
C104 C 0.3010(4) 1.1370(3) 0.3678(2)
O1 O 0.3808(3) 1.0947(2) 0.35291(19)
O2 O 0.2246(3) 1.12190(18) 0.38713(15)
O3 O 0.5325(3) 0.12422(18) 0.28883(15)
C105 C 0.6010(5) 0.0454(3) 0.3006(2)
O4 O 0.0411(7) 0.6553(5) 0.3816(3)
C106 C -0.1201(9) 0.6461(5) 0.4052(4)
C107 C -0.0228(12) 0.6359(6) 0.3704(4)
O5 O -0.0339(8) 0.6081(6) 0.3325(4)
F44 F -0.0928(7) 0.6246(7) 0.4586(3)
F45 F -0.1792(8) 0.7212(4) 0.3914(4)
F46 F -0.1828(6) 0.6088(4) 0.3997(3)
O6 O 0.1314(7) 0.5253(5) 0.2900(3)
C108 C 0.1382(15) 0.4523(9) 0.3154(7)
O7 O -0.1664(11) 0.5823(7) 0.2400(6)
C109 C -0.1984(17) 0.6073(11) 0.2830(8)
O8 O 0.3005(3) 0.43395(19) 0.16284(13)
C110 C 0.2882(7) 0.3715(4) 0.2057(3)
O9 O 0.5154(3) 0.8106(2) 0.39603(17)
C111 C 0.5641(14) 0.8616(12) 0.3730(5)
O10 O 0.4862(6) 0.8162(7) 0.5068(3)
C112 C 0.5112(13) 0.8948(12) 0.5030(6)
O11 O 0.6428(5) 0.6629(3) 0.4824(2)
C113 C 0.6985(11) 0.6659(7) 0.5161(5)
Cl1 Cl 0.315(9) 0.885(3) 0.019(2)
Cl2 Cl 0.3443(7) 0.7814(5) 0.1128(4)
C114 C 0.3842(18) 0.7846(12) 0.0569(9)
O12 O 0.0988(19) 0.9979(14) 0.0257(10)
C115 C 0.099(2) 0.9498(17) -0.0285(12)
O13 O -0.0229(9) 0.3902(6) 0.0292(4)
C116? C -0.0546(11) 0.5908(7) 0.2503(5)
C117? C -0.1529(13) 0.6098(7) 0.2836(5)
O14? O -0.2266(7) 0.5969(5) 0.2703(5)
F47? F -0.0796(7) 0.6345(5) 0.1969(3)
F48? F -0.0216(7) 0.5160(4) 0.2507(3)
F49? F 0.0255(6) 0.6030(5) 0.2691(3)
O15? O -0.1460(8) 0.6313(5) 0.3214(4)
O16? O -0.2890(10) 0.7178(6) 0.3883(4)
O17? O -0.0142(14) 0.6227(9) 0.4307(7)
C118? C 0.0206(17) 0.6365(11) 0.3783(9)
C119? C 0.0463(10) 0.3494(6) 0.0771(5)
Cl3? Cl 0.0937(14) 0.5176(10) 0.1080(7)
C120? C 0.0780(10) 0.5657(6) 0.1582(5)
Cl4? Cl 0.1734(4) 0.5625(3) 0.18749(19)
C121? C 0.0104(8) 0.4136(5) 0.0340(4)
O18? O -0.0295(6) 0.3640(5) 0.0444(4)
F50? F 0.1810(5) 0.3322(3) 0.0858(2)
F51? F 0.0637(5) 0.4010(4) 0.1271(2)
F52? F 0.1457(5) 0.4558(3) 0.0644(2)
O19? O -0.0100(6) 0.4738(4) -0.0051(3)
C122? C 0.1005(8) 0.4010(6) 0.0773(4)
loop_
_geom_bond_atom_site_label_1
_geom_bond_atom_site_label_2
_geom_bond_site_symmetry_1
_geom_bond_site_symmetry_2
C1 C2 1_555 1_555
C2 C3 1_555 1_555
C3 H1 1_555 1_555
C4 C3 1_555 1_555
H2 C4 1_555 1_555
C5 C4 1_555 1_555
N1 C2 1_555 1_555
H3 N1 1_555 1_555
C6 C5 1_555 1_555
C7 C6 1_555 1_555
C8 C7 1_555 1_555
H4 C8 1_555 1_555
C9 C8 1_555 1_555
H5 C9 1_555 1_555
C10 C9 1_555 1_555
N2 C7 1_555 1_555
H6 N2 1_555 1_555
C11 C10 1_555 1_555
C12 C11 1_555 1_555
C13 C12 1_555 1_555
H7 C13 1_555 1_555
C14 C13 1_555 1_555
H8 C14 1_555 1_555
C15 C14 1_555 1_555
N3 C12 1_555 1_555
C16 C15 1_555 1_555
C17 C16 1_555 1_555
C18 C17 1_555 1_555
H9 C18 1_555 1_555
C19 C18 1_555 1_555
H10 C19 1_555 1_555
C20 C19 1_555 1_555
N4 C17 1_555 1_555
H11 N4 1_555 1_555
C21 C20 1_555 1_555
C22 C21 1_555 1_555
C23 C22 1_555 1_555
H12 C23 1_555 1_555
C24 C23 1_555 1_555
H13 C24 1_555 1_555
C25 C24 1_555 1_555
N5 C22 1_555 1_555
H14 N5 1_555 1_555
C26 C25 1_555 1_555
C27 C26 1_555 1_555
C28 C27 1_555 1_555
H15 C28 1_555 1_555
C29 C28 1_555 1_555
H16 C29 1_555 1_555
C30 C29 1_555 1_555
N6 C27 1_555 1_555
H17 N6 1_555 1_555
C31 C30 1_555 1_555
C32 C31 1_555 1_555
C33 C32 1_555 1_555
H18 C33 1_555 1_555
C34 C33 1_555 1_555
H19 C34 1_555 1_555
C35 C34 1_555 1_555
N7 C32 1_555 1_555
H20 N7 1_555 1_555
C36 C35 1_555 1_555
C37 C36 1_555 1_555
C38 C37 1_555 1_555
H21 C38 1_555 1_555
C39 C38 1_555 1_555
H22 C39 1_555 1_555
C40 C39 1_555 1_555
N8 C37 1_555 1_555
C41 C40 1_555 1_555
C42 C41 1_555 1_555
C43 C42 1_555 1_555
H23 C43 1_555 1_555
C44 C43 1_555 1_555
H24 C44 1_555 1_555
C45 C44 1_555 1_555
N9 C42 1_555 1_555
H25 N9 1_555 1_555
C46 C45 1_555 1_555
C47 C46 1_555 1_555
C48 C47 1_555 1_555
H26 C48 1_555 1_555
C49 C48 1_555 1_555
H27 C49 1_555 1_555
C50 C1 1_555 1_555
N10 C47 1_555 1_555
H28 N10 1_555 1_555
C51 C1 1_555 1_555
C52 C51 1_555 1_555
H29 C52 1_555 1_555
C53 C52 1_555 1_555
H30 C53 1_555 1_555
C54 C26 1_555 1_555
S1 C51 1_555 1_555
C55 C6 1_555 1_555
C56 C55 1_555 1_555
C57 C56 1_555 1_555
C58 C57 1_555 1_555
C59 C58 1_555 1_555
C60 C55 1_555 1_555
F1 C56 1_555 1_555
F2 C57 1_555 1_555
F3 C58 1_555 1_555
F4 C59 1_555 1_555
F5 C60 1_555 1_555
C61 C11 1_555 1_555
C62 C61 1_555 1_555
C63 C62 1_555 1_555
C64 C63 1_555 1_555
C65 C64 1_555 1_555
C66 C61 1_555 1_555
F6 C62 1_555 1_555
F7 C63 1_555 1_555
F8 C64 1_555 1_555
F9 C65 1_555 1_555
F10 C66 1_555 1_555
C67 C16 1_555 1_555
C68 C67 1_555 1_555
C69 C68 1_555 1_555
C70 C69 1_555 1_555
C71 C70 1_555 1_555
C72 C67 1_555 1_555
F11 C68 1_555 1_555
F12 C69 1_555 1_555
F13 C70 1_555 1_555
F14 C71 1_555 1_555
F15 C72 1_555 1_555
C73 C21 1_555 1_555
C74 C73 1_555 1_555
C75 C74 1_555 1_555
C76 C75 1_555 1_555
C77 C76 1_555 1_555
C78 C73 1_555 1_555
F16 C74 1_555 1_555
F17 C75 1_555 1_555
F18 C76 1_555 1_555
F19 C77 1_555 1_555
F20 C78 1_555 1_555
C79 C31 1_555 1_555
C80 C79 1_555 1_555
C81 C80 1_555 1_555
C82 C81 1_555 1_555
C83 C82 1_555 1_555
C84 C79 1_555 1_555
F21 C80 1_555 1_555
F22 C81 1_555 1_555
F23 C82 1_555 1_555
F24 C83 1_555 1_555
F25 C84 1_555 1_555
C85 C36 1_555 1_555
C86 C85 1_555 1_555
C87 C86 1_555 1_555
C88 C87 1_555 1_555
C89 C88 1_555 1_555
C90 C85 1_555 1_555
F26 C86 1_555 1_555
F27 C87 1_555 1_555
F28 C88 1_555 1_555
F29 C89 1_555 1_555
F30 C90 1_555 1_555
C91 C41 1_555 1_555
C92 C91 1_555 1_555
C93 C92 1_555 1_555
C94 C93 1_555 1_555
C95 C94 1_555 1_555
C96 C91 1_555 1_555
F31 C92 1_555 1_555
F32 C93 1_555 1_555
F33 C94 1_555 1_555
F34 C95 1_555 1_555
F35 C96 1_555 1_555
C97 C46 1_555 1_555
C98 C97 1_555 1_555
C99 C98 1_555 1_555
C100 C99 1_555 1_555
C101 C100 1_555 1_555
C102 C97 1_555 1_555
F36 C98 1_555 1_555
F37 C99 1_555 1_555
F38 C100 1_555 1_555
F39 C101 1_555 1_555
F40 C102 1_555 1_555
F41 C103 1_555 1_555
F42 C103 1_555 1_555
F43 C103 1_555 1_555
C103 C104 1_555 1_555
C104 O1 1_555 1_555
O2 C104 1_555 1_555
O3 C105 1_555 1_555
O4 C107 1_555 1_555
C106 C107 1_555 1_555
C107 O5 1_555 1_555
F44 C106 1_555 1_555
F45 C106 1_555 1_555
F46 C106 1_555 1_555
O6 C108 1_555 1_555
O7 C109 1_555 1_555
O8 C110 1_555 1_555
O9 C111 1_555 1_555
O10 C112 1_555 1_555
O11 C113 1_555 1_555
Cl1 C114 1_555 1_555
Cl2 C114 1_555 1_555
O12 C115 1_555 1_555
C5 N1 1_555 1_555
C10 N2 1_555 1_555
C15 N3 1_555 1_555
C20 N4 1_555 1_555
C25 N5 1_555 1_555
C30 N6 1_555 1_555
C35 N7 1_555 1_555
C40 N8 1_555 1_555
C45 N9 1_555 1_555
C49 C50 1_555 1_555
C50 N10 1_555 1_555
C53 C54 1_555 1_555
C54 S1 1_555 1_555
C59 C60 1_555 1_555
C65 C66 1_555 1_555
C71 C72 1_555 1_555
C77 C78 1_555 1_555
C83 C84 1_555 1_555
C89 C90 1_555 1_555
C95 C96 1_555 1_555
C101 C102 1_555 1_555

#END
