
#######################################################################
#
#                 Cambridge Crystallographic Data Centre
#                                CCDC 
#
#######################################################################
#
# If this CIF has been generated from an entry in the Cambridge 
# Structural Database, then it will include bibliographic, chemical, 
# crystal, experimental, refinement or atomic coordinate data resulting 
# from the CCDC's data processing and validation procedures.
#
#######################################################################

data_YAVTEW
_chemical_name_common            41-Azido-41-deoxyrapamycin
_chemical_formula_moiety         'C51 H78 N4 O12'
_chemical_name_systematic        
12-(1-(4-Azido-3-methoxycyclohexyl)propan-2-yl)-1,18-dihydroxy-19,30-dimethoxy-15,17,21,23,29,35-hexamethyl-11,36-dioxa-4-azatricyclo[30.3.1.0^4,9^]hexatriaconta-16,24,26,28-tetraene-2,3,10,14,20-pentone
_symmetry_cell_setting           orthorhombic
_symmetry_space_group_name_H-M   'P 21 21 21'
_symmetry_Int_Tables_number      19
_space_group_name_Hall           'P 2ac 2ab'
loop_
_symmetry_equiv_pos_site_id
_symmetry_equiv_pos_as_xyz
1 x,y,z
2 1/2-x,-y,1/2+z
3 -x,1/2+y,1/2-z
4 1/2+x,1/2-y,-z
_cell_length_a                   12.7461(7)
_cell_length_b                   12.9824(7)
_cell_length_c                   34.4022(12)
_cell_angle_alpha                90
_cell_angle_beta                 90
_cell_angle_gamma                90
_cell_volume                     5692.7
_exptl_crystal_colour            colorless
_exptl_crystal_description       block
_cell_formula_units_Z            4
loop_
_atom_site_label
_atom_site_type_symbol
_atom_site_fract_x
_atom_site_fract_y
_atom_site_fract_z
N1 N 0.4521(6) 0.3588(5) 0.25753(16)
N2 N 0.3802(9) 0.8666(8) 0.4697(3)
N3 N 0.3528(10) 0.9168(10) 0.4926(4)
N4 N 0.3321(13) 0.9709(11) 0.5184(4)
O1 O 0.6698(4) 0.2159(4) 0.26859(12)
O2 O 0.7631(5) 0.2089(4) 0.21010(14)
H1 H 0.7235 0.1651 0.2012
O3 O 0.5771(6) 0.2783(5) 0.18713(16)
O4 O 0.5614(6) 0.4776(5) 0.23361(18)
O5 O 0.4895(4) 0.4333(4) 0.32932(12)
O6 O 0.3584(5) 0.5464(5) 0.32564(16)
O7 O 0.3845(6) 0.3104(5) 0.39436(19)
O8 O 0.4701(7) 0.4427(7) 0.53139(19)
H2 H 0.4453 0.4351 0.5532
O9 O 0.6484(9) 0.4613(10) 0.5890(3)
O10 O 0.4991(9) 0.3651(9) 0.6147(3)
O11 O 0.7906(5) -0.0375(5) 0.32119(14)
O12 O 0.4698(7) 0.7458(6) 0.5318(2)
C1 C 0.7506(6) 0.1683(6) 0.29287(18)
H3 H 0.7903 0.1190 0.2771
C2 C 0.8252(7) 0.2503(7) 0.3079(2)
H4 H 0.8824 0.2179 0.3219
H5 H 0.7883 0.2956 0.3257
C3 C 0.8688(8) 0.3127(8) 0.2741(2)
H6 H 0.9118 0.2685 0.2579
H7 H 0.9131 0.3673 0.2841
C4 C 0.7811(7) 0.3601(7) 0.2492(2)
H8 H 0.7401 0.4065 0.2657
C5 C 0.7082(7) 0.2711(6) 0.2358(2)
C6 C 0.6055(7) 0.3084(7) 0.2192(2)
C7 C 0.5380(8) 0.3880(7) 0.2384(2)
C8 C 0.4334(8) 0.2488(7) 0.2691(3)
H9 H 0.4584 0.2379 0.2954
H10 H 0.4726 0.2036 0.2519
C9 C 0.3176(9) 0.2224(8) 0.2668(3)
H11 H 0.2964 0.2194 0.2398
H12 H 0.3063 0.1548 0.2781
C10 C 0.2502(8) 0.3001(8) 0.2878(3)
H13 H 0.1767 0.2815 0.2854
H14 H 0.2680 0.3014 0.3152
C11 C 0.2686(8) 0.4013(8) 0.2705(3)
H15 H 0.2243 0.4512 0.2836
H16 H 0.2472 0.3990 0.2435
C12 C 0.3817(7) 0.4388(6) 0.2724(2)
H17 H 0.3872 0.4977 0.2547
C13 C 0.4102(8) 0.4779(7) 0.3130(2)
C14 C 0.5112(7) 0.4722(6) 0.36905(18)
H18 H 0.4451 0.4926 0.3814
C15 C 0.5559(7) 0.3802(6) 0.3899(2)
H19 H 0.5996 0.4044 0.4111
H20 H 0.6006 0.3427 0.3720
C16 C 0.4750(8) 0.3069(7) 0.4061(2)
C17 C 0.5093(7) 0.2379(7) 0.4392(2)
H21 H 0.5812 0.2143 0.4343
C18 C 0.5081(9) 0.3024(7) 0.4751(2)
H22 H 0.4436 0.3318 0.4812
C19 C 0.5808(9) 0.3229(9) 0.4984(2)
C20 C 0.5758(11) 0.4023(11) 0.5306(3)
H23 H 0.6226 0.4590 0.5233
C21 C 0.6134(13) 0.3609(13) 0.5684(4)
H24 H 0.6741 0.3159 0.5642
C22 C 0.5386(12) 0.3100(15) 0.5872(3)
C23 C 0.5082(11) 0.2036(13) 0.5795(3)
H25 H 0.5294 0.1876 0.5528
C24 C 0.5708(8) 0.1253(11) 0.6081(2)
H26 H 0.6394 0.1545 0.6134
H27 H 0.5333 0.1216 0.6325
C25 C 0.5857(8) 0.0181(10) 0.5931(2)
H28 H 0.5172 -0.0104 0.5859
C26 C 0.6556(7) 0.0189(8) 0.55779(17)
H29 H 0.7228 0.0451 0.5615
C27 C 0.6341(7) -0.0126(8) 0.52235(18)
H30 H 0.5712 -0.0480 0.5192
C28 C 0.6956(6) 0.0011(6) 0.48806(16)
H31 H 0.7634 0.0263 0.4913
C29 C 0.6651(6) -0.0188(6) 0.45253(16)
H32 H 0.6012 -0.0526 0.4499
C30 C 0.7184(6) 0.0054(6) 0.41760(17)
H33 H 0.7827 0.0380 0.4212
C31 C 0.6929(6) -0.0101(5) 0.38036(16)
C32 C 0.7555(6) 0.0366(6) 0.34803(16)
H34 H 0.8161 0.0728 0.3590
C33 C 0.6918(6) 0.1111(6) 0.32327(17)
H35 H 0.6361 0.0727 0.3107
H36 H 0.6590 0.1609 0.3404
C34 C 0.8238(9) 0.4220(8) 0.2155(3)
H37 H 0.7669 0.4546 0.2020
H38 H 0.8606 0.3771 0.1980
H39 H 0.8711 0.4737 0.2251
C35 C 0.6878(8) 0.5458(8) 0.3477(3)
H40 H 0.6766 0.5217 0.3217
H41 H 0.7258 0.4947 0.3621
H42 H 0.7275 0.6086 0.3471
C36 C 0.5840(7) 0.5650(7) 0.3669(2)
H43 H 0.5479 0.6171 0.3512
C37 C 0.6006(8) 0.6127(7) 0.4078(2)
H44 H 0.6467 0.5676 0.4224
H45 H 0.6366 0.6779 0.4047
C38 C 0.5016(9) 0.6314(7) 0.4321(2)
H46 H 0.4696 0.5642 0.4374
C39 C 0.5282(9) 0.6808(7) 0.4709(2)
H47 H 0.5776 0.6372 0.4846
H48 H 0.5620 0.7466 0.4662
C40 C 0.4340(11) 0.6975(9) 0.4960(3)
H49 H 0.4055 0.6297 0.5027
C41 C 0.3477(11) 0.7584(9) 0.4768(3)
H50 H 0.2846 0.7570 0.4930
C42 C 0.3241(10) 0.7134(9) 0.4374(3)
H51 H 0.2756 0.7587 0.4240
H52 H 0.2893 0.6476 0.4409
C43 C 0.4199(8) 0.6975(8) 0.4120(3)
H53 H 0.3989 0.6646 0.3879
H54 H 0.4503 0.7638 0.4056
C44 C 0.4192(14) 0.7247(13) 0.5642(4)
H55 H 0.4238 0.6523 0.5695
H56 H 0.3469 0.7441 0.5615
H57 H 0.4501 0.7625 0.5853
C45 C 0.4390(10) 0.1460(9) 0.4428(3)
H58 H 0.3671 0.1680 0.4425
H59 H 0.4534 0.1111 0.4669
H60 H 0.4514 0.1000 0.4215
C46 C 0.6913(8) 0.2799(10) 0.4921(3)
H61 H 0.6957 0.2491 0.4668
H62 H 0.7060 0.2288 0.5116
H63 H 0.7415 0.3348 0.4941
C47 C 0.7008(16) 0.4346(18) 0.6248(5)
H64 H 0.7625 0.3950 0.6191
H65 H 0.6544 0.3947 0.6408
H66 H 0.7204 0.4964 0.6383
C48 C 0.3956(11) 0.1988(15) 0.5810(4)
H67 H 0.3671 0.2665 0.5773
H68 H 0.3740 0.1726 0.6058
H69 H 0.3705 0.1540 0.5608
C49 C 0.6345(11) -0.0495(11) 0.6259(2)
H70 H 0.6960 -0.0162 0.6360
H71 H 0.6533 -0.1156 0.6155
H72 H 0.5842 -0.0584 0.6464
C50 C 0.5983(9) -0.0713(8) 0.3692(3)
H73 H 0.5447 -0.0257 0.3598
H74 H 0.5727 -0.1081 0.3914
H75 H 0.6167 -0.1194 0.3491
C51 C 0.8704(10) -0.1028(10) 0.3372(3)
H76 H 0.8383 -0.1566 0.3522
H77 H 0.9158 -0.0629 0.3536
H78 H 0.9106 -0.1327 0.3165
loop_
_geom_bond_atom_site_label_1
_geom_bond_atom_site_label_2
_geom_bond_site_symmetry_1
_geom_bond_site_symmetry_2
N1 C7 1_555 1_555
N2 N3 1_555 1_555
N3 N4 1_555 1_555
O1 C1 1_555 1_555
O2 H1 1_555 1_555
O3 C6 1_555 1_555
O4 C7 1_555 1_555
O5 C13 1_555 1_555
O6 C13 1_555 1_555
O7 C16 1_555 1_555
O8 H2 1_555 1_555
O9 C21 1_555 1_555
O10 C22 1_555 1_555
O11 C32 1_555 1_555
O12 C40 1_555 1_555
C1 H3 1_555 1_555
C2 C1 1_555 1_555
H4 C2 1_555 1_555
H5 C2 1_555 1_555
C3 C2 1_555 1_555
H6 C3 1_555 1_555
H7 C3 1_555 1_555
C4 C3 1_555 1_555
H8 C4 1_555 1_555
C5 O1 1_555 1_555
C6 C5 1_555 1_555
C7 C6 1_555 1_555
C8 N1 1_555 1_555
H9 C8 1_555 1_555
H10 C8 1_555 1_555
C9 C8 1_555 1_555
H11 C9 1_555 1_555
H12 C9 1_555 1_555
C10 C9 1_555 1_555
H13 C10 1_555 1_555
H14 C10 1_555 1_555
C11 C10 1_555 1_555
H15 C11 1_555 1_555
H16 C11 1_555 1_555
C12 N1 1_555 1_555
H17 C12 1_555 1_555
C13 C12 1_555 1_555
C14 O5 1_555 1_555
H18 C14 1_555 1_555
C15 C14 1_555 1_555
H19 C15 1_555 1_555
H20 C15 1_555 1_555
C16 C15 1_555 1_555
C17 C16 1_555 1_555
H21 C17 1_555 1_555
C18 C17 1_555 1_555
H22 C18 1_555 1_555
C19 C18 1_555 1_555
C20 O8 1_555 1_555
H23 C20 1_555 1_555
C21 C20 1_555 1_555
H24 C21 1_555 1_555
C22 C21 1_555 1_555
C23 C22 1_555 1_555
H25 C23 1_555 1_555
C24 C23 1_555 1_555
H26 C24 1_555 1_555
H27 C24 1_555 1_555
C25 C24 1_555 1_555
H28 C25 1_555 1_555
C26 C25 1_555 1_555
H29 C26 1_555 1_555
C27 C26 1_555 1_555
H30 C27 1_555 1_555
C28 C27 1_555 1_555
H31 C28 1_555 1_555
C29 C28 1_555 1_555
H32 C29 1_555 1_555
C30 C29 1_555 1_555
H33 C30 1_555 1_555
C31 C30 1_555 1_555
C32 C31 1_555 1_555
H34 C32 1_555 1_555
C33 C1 1_555 1_555
H35 C33 1_555 1_555
H36 C33 1_555 1_555
C34 C4 1_555 1_555
H37 C34 1_555 1_555
H38 C34 1_555 1_555
H39 C34 1_555 1_555
C35 H40 1_555 1_555
H41 C35 1_555 1_555
H42 C35 1_555 1_555
C36 C14 1_555 1_555
H43 C36 1_555 1_555
C37 C36 1_555 1_555
H44 C37 1_555 1_555
H45 C37 1_555 1_555
C38 C37 1_555 1_555
H46 C38 1_555 1_555
C39 C38 1_555 1_555
H47 C39 1_555 1_555
H48 C39 1_555 1_555
C40 C39 1_555 1_555
H49 C40 1_555 1_555
C41 N2 1_555 1_555
H50 C41 1_555 1_555
C42 C41 1_555 1_555
H51 C42 1_555 1_555
H52 C42 1_555 1_555
C43 C38 1_555 1_555
H53 C43 1_555 1_555
H54 C43 1_555 1_555
C44 O12 1_555 1_555
H55 C44 1_555 1_555
H56 C44 1_555 1_555
H57 C44 1_555 1_555
C45 C17 1_555 1_555
H58 C45 1_555 1_555
H59 C45 1_555 1_555
H60 C45 1_555 1_555
C46 C19 1_555 1_555
H61 C46 1_555 1_555
H62 C46 1_555 1_555
H63 C46 1_555 1_555
C47 O9 1_555 1_555
H64 C47 1_555 1_555
H65 C47 1_555 1_555
H66 C47 1_555 1_555
C48 C23 1_555 1_555
H67 C48 1_555 1_555
H68 C48 1_555 1_555
H69 C48 1_555 1_555
C49 C25 1_555 1_555
H70 C49 1_555 1_555
H71 C49 1_555 1_555
H72 C49 1_555 1_555
C50 C31 1_555 1_555
H73 C50 1_555 1_555
H74 C50 1_555 1_555
H75 C50 1_555 1_555
C51 O11 1_555 1_555
H76 C51 1_555 1_555
H77 C51 1_555 1_555
H78 C51 1_555 1_555
O2 C5 1_555 1_555
C4 C5 1_555 1_555
C11 C12 1_555 1_555
C19 C20 1_555 1_555
C32 C33 1_555 1_555
C35 C36 1_555 1_555
C40 C41 1_555 1_555
C42 C43 1_555 1_555

#END
