
#######################################################################
#
#                 Cambridge Crystallographic Data Centre
#                                CCDC 
#
#######################################################################
#
# If this CIF has been generated from an entry in the Cambridge 
# Structural Database, then it will include bibliographic, chemical, 
# crystal, experimental, refinement or atomic coordinate data resulting 
# from the CCDC's data processing and validation procedures.
#
#######################################################################

data_YAVVUO
_chemical_name_common            
'1-(tris(pentafluorophenyl)-lambda$5!-boranyl)-2-vinyl-1lambda$5!-pyridine hexane solvate'
_chemical_formula_moiety         'C25 H7 B1 F15 N1,C6 H14'
_chemical_name_systematic        
'2-Vinylpyridine-tris(pentafluorophenyl)borane hexane solvate'
_symmetry_cell_setting           monoclinic
_symmetry_space_group_name_H-M   'P 21/n'
_symmetry_Int_Tables_number      14
_space_group_name_Hall           '-P 2yn'
loop_
_symmetry_equiv_pos_site_id
_symmetry_equiv_pos_as_xyz
1 x,y,z
2 1/2-x,1/2+y,1/2-z
3 -x,-y,-z
4 1/2+x,1/2-y,1/2+z
_cell_length_a                   12.4173(2)
_cell_length_b                   17.1269(3)
_cell_length_c                   13.9211(2)
_cell_angle_alpha                90
_cell_angle_beta                 100.8890(10)
_cell_angle_gamma                90
_cell_volume                     2907.29
_exptl_crystal_colour            colorless
_exptl_crystal_description       prism
_cell_formula_units_Z            4
loop_
_atom_site_label
_atom_site_type_symbol
_atom_site_fract_x
_atom_site_fract_y
_atom_site_fract_z
C1 C 0.90231(17) 0.13181(12) 0.38660(15)
H1 H 0.8263 0.1383 0.3864
C2 C 0.9757(2) 0.16041(15) 0.46482(18)
H2 H 0.9512 0.1865 0.5169
C3 C 1.0860(2) 0.15025(18) 0.4657(2)
H3 H 1.1392 0.1673 0.5200
C4 C 1.11785(19) 0.11521(16) 0.3873(2)
H4 H 1.1938 0.1084 0.3874
C5 C 1.04135(16) 0.08929(12) 0.30710(19)
C6 C 1.07643(17) 0.05611(14) 0.2212(2)
H5 H 1.0328 0.0165 0.1853
C7 C 1.1666(2) 0.07912(17) 0.1916(3)
H6 H 1.2114 0.1187 0.2265
H7 H 1.1865 0.0561 0.1353
C8 C 0.84554(14) -0.02844(11) 0.19742(13)
C9 C 0.90655(14) -0.08385(11) 0.25654(13)
C10 C 0.90397(16) -0.16275(11) 0.23593(14)
C11 C 0.83804(18) -0.18957(11) 0.15249(15)
C12 C 0.77312(18) -0.13771(13) 0.09240(15)
C13 C 0.77700(16) -0.05962(12) 0.11631(14)
C14 C 0.71442(14) 0.07074(10) 0.25130(13)
C15 C 0.69487(15) 0.02992(11) 0.33276(13)
C16 C 0.59468(16) 0.02570(11) 0.36130(15)
C17 C 0.50623(15) 0.06250(11) 0.30572(15)
C18 C 0.51920(15) 0.10188(11) 0.22336(15)
C19 C 0.62162(15) 0.10543(10) 0.19769(13)
C20 C 0.85181(15) 0.12444(12) 0.13074(16)
C21 C 0.83817(15) 0.20401(12) 0.14261(17)
C22 C 0.85464(18) 0.25980(14) 0.0756(2)
C23 C 0.8865(2) 0.23690(17) -0.0090(2)
C24 C 0.9022(2) 0.15996(17) -0.0244(2)
C25 C 0.88500(18) 0.10540(14) 0.04498(18)
N1 N 0.93177(12) 0.09495(9) 0.30993(13)
B1 B 0.83605(16) 0.06510(12) 0.22003(16)
F1 F 0.97508(9) -0.06271(7) 0.33938(8)
F2 F 0.96667(11) -0.21289(7) 0.29565(9)
F3 F 0.83723(12) -0.26568(7) 0.12948(9)
F4 F 0.70812(13) -0.16365(9) 0.01098(9)
F5 F 0.70978(11) -0.01194(7) 0.05566(8)
F6 F 0.77858(9) -0.00810(7) 0.38990(8)
F7 F 0.58340(11) -0.01383(7) 0.44164(9)
F8 F 0.40755(10) 0.05864(7) 0.33126(10)
F9 F 0.43240(9) 0.13657(7) 0.16772(10)
F10 F 0.62556(9) 0.14561(7) 0.11527(8)
F11 F 0.80562(10) 0.23048(7) 0.22390(10)
F12 F 0.83828(12) 0.33561(8) 0.09278(14)
F13 F 0.90227(15) 0.29033(11) -0.07537(15)
F14 F 0.93402(17) 0.13562(12) -0.10669(14)
F15 F 0.90590(12) 0.03096(8) 0.02312(10)
loop_
_geom_bond_atom_site_label_1
_geom_bond_atom_site_label_2
_geom_bond_site_symmetry_1
_geom_bond_site_symmetry_2
C1 H1 1_555 1_555
C2 C1 1_555 1_555
H2 C2 1_555 1_555
C3 C2 1_555 1_555
H3 C3 1_555 1_555
C4 C3 1_555 1_555
H4 C4 1_555 1_555
C5 C4 1_555 1_555
C6 C5 1_555 1_555
H5 C6 1_555 1_555
C7 C6 1_555 1_555
H6 C7 1_555 1_555
H7 C7 1_555 1_555
C8 C9 1_555 1_555
C9 C10 1_555 1_555
C10 C11 1_555 1_555
C11 C12 1_555 1_555
C12 C13 1_555 1_555
C13 C8 1_555 1_555
C14 C15 1_555 1_555
C15 C16 1_555 1_555
C16 C17 1_555 1_555
C17 C18 1_555 1_555
C18 C19 1_555 1_555
C19 C14 1_555 1_555
C20 C21 1_555 1_555
C21 C22 1_555 1_555
C22 C23 1_555 1_555
C23 C24 1_555 1_555
C24 C25 1_555 1_555
C25 C20 1_555 1_555
N1 C1 1_555 1_555
B1 C8 1_555 1_555
F1 C9 1_555 1_555
F2 C10 1_555 1_555
F3 C11 1_555 1_555
F4 C12 1_555 1_555
F5 C13 1_555 1_555
F6 C15 1_555 1_555
F7 C16 1_555 1_555
F8 C17 1_555 1_555
F9 C18 1_555 1_555
F10 C19 1_555 1_555
F11 C21 1_555 1_555
F12 C22 1_555 1_555
F13 C23 1_555 1_555
F14 C24 1_555 1_555
F15 C25 1_555 1_555
C5 N1 1_555 1_555
C14 B1 1_555 1_555
C20 B1 1_555 1_555
N1 B1 1_555 1_555

#END
