
#######################################################################
#
#                 Cambridge Crystallographic Data Centre
#                                CCDC 
#
#######################################################################
#
# If this CIF has been generated from an entry in the Cambridge 
# Structural Database, then it will include bibliographic, chemical, 
# crystal, experimental, refinement or atomic coordinate data resulting 
# from the CCDC's data processing and validation procedures.
#
#######################################################################

data_YAWFIL
_chemical_formula_moiety         'C32 H56 O9 Si1'
_chemical_name_systematic        
"11-(Hydroxymethyl)-4-((t-butyldimethylsilyl)oxy)hexadecahydro-5a,12a-dimethyl-oxepino(3,2-b)pyrano(2',3,:5,6)pyrano(2,3-b)pyrano(2,3-f)oxepin-2-propanoate methyl ester"
_symmetry_cell_setting           monoclinic
_symmetry_space_group_name_H-M   'P 21'
_symmetry_Int_Tables_number      4
_space_group_name_Hall           'P 2yb'
loop_
_symmetry_equiv_pos_site_id
_symmetry_equiv_pos_as_xyz
1 x,y,z
2 -x,1/2+y,-z
_cell_length_a                   11.351(9)
_cell_length_b                   7.354(8)
_cell_length_c                   21.84(2)
_cell_angle_alpha                90
_cell_angle_beta                 96.72(8)
_cell_angle_gamma                90
_cell_volume                     1810.57
_exptl_crystal_colour            colorless
_chemical_melting_point          166.6deg.C
_cell_formula_units_Z            2
loop_
_atom_site_label
_atom_site_type_symbol
_atom_site_fract_x
_atom_site_fract_y
_atom_site_fract_z
Si1 Si -0.0913(4) 0.0386 0.1590(3)
O1 O 0.6129(8) 0.0168(13) 0.7037(5)
O2 O 0.4384(5) 0.1595(10) 0.6115(3)
O3 O 0.1527(5) 0.3251(9) 0.5356(3)
O4 O 0.2830(5) 0.1643(9) 0.4151(3)
O5 O 0.0719(5) -0.0571(10) 0.2993(3)
O6 O 0.0438(6) -0.0379(13) 0.1706(3)
O7 O 0.3452(6) -0.1502(12) 0.2292(3)
O8 O 0.3946(19) 0.2322(26) 0.0451(12)
O9 O 0.4886(16) 0.3554(22) 0.1054(11)
C1 C 0.4956(9) -0.0518(16) 0.6908(6)
C2 C 0.4048(9) 0.0772(14) 0.6657(5)
C3 C 0.2805(9) -0.0098(15) 0.6517(6)
C4 C 0.1910(8) 0.1113(15) 0.6187(5)
C5 C 0.2368(7) 0.1970(12) 0.5617(4)
C6 C 0.3578(7) 0.2908(11) 0.5786(4)
C7 C 0.3461(8) 0.4604(14) 0.6172(5)
C8 C 0.4168(8) 0.3316(13) 0.5207(5)
C9 C 0.3419(8) 0.4404(15) 0.4714(5)
C10 C 0.2394(7) 0.3370(12) 0.4349(4)
C11 C 0.1300(7) 0.3227(13) 0.4705(4)
C12 C 0.0427(8) 0.1667(14) 0.4518(5)
C13 C 0.0213(7) 0.1110(13) 0.3841(5)
C14 C 0.1193(8) -0.0042(12) 0.3600(4)
C15 C 0.1440(9) -0.1779(13) 0.4011(5)
C16 C 0.2314(7) 0.1065(12) 0.3568(4)
C17 C 0.3213(7) 0.0076(13) 0.3224(5)
C18 C 0.2627(8) -0.0412(15) 0.2611(5)
C19 C 0.1515(8) -0.1525(15) 0.2644(5)
C20 C 0.0881(10) -0.1971(17) 0.2015(5)
C21 C 0.1757(11) -0.2936(18) 0.1628(7)
C22 C 0.3011(12) -0.1935(18) 0.1642(6)
C23 C 0.2933(12) -0.0216(17) 0.1244(7)
C24 C 0.4166(14) 0.0740(19) 0.1360(8)
C25 C 0.4068(17) 0.2534(21) 0.1005(11)
C26 C 0.5026(20) 0.5250(26) 0.0557(13)
C27 C -0.0684(21) 0.2807(21) 0.1955(13)
C28 C -0.1918(15) -0.0742(23) 0.2093(9)
C29 C -0.1373(18) 0.1058(21) 0.0796(8)
C30 C -0.0343(19) 0.1814(26) 0.0484(14)
C31 C -0.2474(19) 0.2347(26) 0.0778(17)
C32 C -0.1511(22) -0.0985(22) 0.0625(15)
H1 H 0.6056 0.1139 0.7241
H2 H 0.4978 -0.1483 0.6614
H3 H 0.4722 -0.0998 0.7284
H4 H 0.3987 0.1670 0.6971
H5 H 0.2534 -0.0447 0.6900
H6 H 0.2875 -0.1159 0.6268
H7 H 0.1206 0.0426 0.6059
H8 H 0.1727 0.2066 0.6461
H9 H 0.2474 0.1026 0.5325
H10 H 0.2926 0.5442 0.5947
H11 H 0.4224 0.5165 0.6265
H12 H 0.3157 0.4275 0.6549
H13 H 0.4360 0.2176 0.5028
H14 H 0.4884 0.3983 0.5328
H15 H 0.3087 0.5418 0.4912
H16 H 0.3932 0.4841 0.4427
H17 H 0.2109 0.4037 0.3984
H18 H 0.0924 0.4353 0.4573
H19 H 0.0713 0.0611 0.4748
H20 H -0.0326 0.2021 0.4639
H21 H -0.0510 0.0421 0.3784
H22 H 0.0123 0.2196 0.3596
H23 H 0.1758 -0.1425 0.4420
H24 H 0.1999 -0.2544 0.3837
H25 H 0.0712 -0.2433 0.4027
H26 H 0.2069 0.2132 0.3334
H27 H 0.3484 -0.1002 0.3445
H28 H 0.3876 0.0860 0.3183
H29 H 0.2407 0.0695 0.2393
H30 H 0.1763 -0.2645 0.2845
H31 H 0.0226 -0.2760 0.2067
H32 H 0.1891 -0.4149 0.1783
H33 H 0.1399 -0.2986 0.1208
H34 H 0.3554 -0.2739 0.1471
H35 H 0.2763 -0.0529 0.0816
H36 H 0.2323 0.0574 0.1360
H37 H 0.4766 -0.0005 0.1212
H38 H 0.4366 0.0959 0.1793
loop_
_geom_bond_atom_site_label_1
_geom_bond_atom_site_label_2
_geom_bond_site_symmetry_1
_geom_bond_site_symmetry_2
Si1 O6 1_555 1_555
O1 C1 1_555 1_555
O2 C2 1_555 1_555
O3 C5 1_555 1_555
O4 C10 1_555 1_555
O5 C14 1_555 1_555
O6 C20 1_555 1_555
O7 C18 1_555 1_555
O8 C25 1_555 1_555
O9 C25 1_555 1_555
C1 C2 1_555 1_555
C2 C3 1_555 1_555
C3 C4 1_555 1_555
C4 C5 1_555 1_555
C5 C6 1_555 1_555
C6 O2 1_555 1_555
C7 C6 1_555 1_555
C8 C6 1_555 1_555
C9 C8 1_555 1_555
C10 C9 1_555 1_555
C11 O3 1_555 1_555
C12 C11 1_555 1_555
C13 C12 1_555 1_555
C14 C13 1_555 1_555
C15 C14 1_555 1_555
C16 O4 1_555 1_555
C17 C16 1_555 1_555
C18 C17 1_555 1_555
C19 O5 1_555 1_555
C20 C19 1_555 1_555
C21 C20 1_555 1_555
C22 O7 1_555 1_555
C23 C22 1_555 1_555
C24 C23 1_555 1_555
C25 C24 1_555 1_555
C26 O9 1_555 1_555
C27 Si1 1_555 1_555
C28 Si1 1_555 1_555
C29 Si1 1_555 1_555
C30 C29 1_555 1_555
C31 C29 1_555 1_555
C32 C29 1_555 1_555
H1 O1 1_555 1_555
H2 C1 1_555 1_555
H3 C1 1_555 1_555
H4 C2 1_555 1_555
H5 C3 1_555 1_555
H6 C3 1_555 1_555
H7 C4 1_555 1_555
H8 C4 1_555 1_555
H9 C5 1_555 1_555
H10 C7 1_555 1_555
H11 C7 1_555 1_555
H12 C7 1_555 1_555
H13 C8 1_555 1_555
H14 C8 1_555 1_555
H15 C9 1_555 1_555
H16 C9 1_555 1_555
H17 C10 1_555 1_555
H18 C11 1_555 1_555
H19 C12 1_555 1_555
H20 C12 1_555 1_555
H21 C13 1_555 1_555
H22 C13 1_555 1_555
H23 C15 1_555 1_555
H24 C15 1_555 1_555
H25 C15 1_555 1_555
H26 C16 1_555 1_555
H27 C17 1_555 1_555
H28 C17 1_555 1_555
H29 C18 1_555 1_555
H30 C19 1_555 1_555
H31 C20 1_555 1_555
H32 C21 1_555 1_555
H33 C21 1_555 1_555
H34 C22 1_555 1_555
H35 C23 1_555 1_555
H36 C23 1_555 1_555
H37 C24 1_555 1_555
H38 C24 1_555 1_555
C10 C11 1_555 1_555
C14 C16 1_555 1_555
C18 C19 1_555 1_555
C21 C22 1_555 1_555

#END
