
#######################################################################
#
#                 Cambridge Crystallographic Data Centre
#                                CCDC 
#
#######################################################################
#
# If this CIF has been generated from an entry in the Cambridge 
# Structural Database, then it will include bibliographic, chemical, 
# crystal, experimental, refinement or atomic coordinate data resulting 
# from the CCDC's data processing and validation procedures.
#
#######################################################################

data_YAWMIU
_chemical_formula_moiety         'C12 H10 Br3 N1 O2'
_chemical_name_systematic        
3,6,8-Tribromo-7-(ethylamino)-4-methyl-2H-chromen-2-one
_symmetry_cell_setting           monoclinic
_symmetry_space_group_name_H-M   'P 21/c'
_symmetry_Int_Tables_number      14
_space_group_name_Hall           '-P 2ybc'
loop_
_symmetry_equiv_pos_site_id
_symmetry_equiv_pos_as_xyz
1 x,y,z
2 -x,1/2+y,1/2-z
3 -x,-y,-z
4 x,1/2-y,1/2+z
_cell_length_a                   8.5045(9)
_cell_length_b                   7.2551(8)
_cell_length_c                   21.556(2)
_cell_angle_alpha                90
_cell_angle_beta                 94.720(2)
_cell_angle_gamma                90
_cell_volume                     1325.52
_exptl_crystal_colour            colorless
_exptl_crystal_description       block
_cell_formula_units_Z            4
loop_
_atom_site_label
_atom_site_type_symbol
_atom_site_fract_x
_atom_site_fract_y
_atom_site_fract_z
Br1 Br 0.35825(6) 0.11548(6) 0.05870(2)
Br2 Br 0.41792(7) 0.58281(7) -0.22380(2)
Br3 Br 0.01975(6) 0.79144(7) 0.09690(2)
O1 O 0.3974(3) 0.3023(4) -0.05962(13)
C1 C 0.1457(5) 0.6305(6) 0.0522(2)
C2 C 0.3144(4) 0.4156(5) -0.02319(19)
C3 C 0.2630(5) 0.5889(5) -0.0453(2)
C4 C 0.1975(5) 0.4566(6) 0.07545(19)
C5 C 0.3720(5) 0.5264(6) -0.14159(19)
O2 O 0.5003(4) 0.2360(5) -0.14659(15)
C6 C 0.1786(5) 0.6931(5) -0.0049(2)
H1 H 0.1434 0.8097 -0.0174
C7 C 0.4277(5) 0.3477(6) -0.1195(2)
C8 C 0.2947(5) 0.6444(5) -0.1069(2)
C9 C 0.2846(5) 0.3532(5) 0.03440(19)
N1 N 0.1665(5) 0.3812(6) 0.13117(19)
C10 C 0.2404(6) 0.8311(7) -0.1302(2)
H2 H 0.2757 0.8515 -0.1708
H3 H 0.2836 0.9243 -0.1021
H4 H 0.1273 0.8365 -0.1325
C11 C 0.1232(8) 0.4655(9) 0.1875(3)
H5 H 0.0167 0.5137 0.1812
H6 H 0.1938 0.5673 0.1986
C12 C 0.1322(8) 0.3266(9) 0.2388(2)
H7 H 0.0715 0.2198 0.2258
H8 H 0.0906 0.3791 0.2749
H9 H 0.2402 0.2916 0.2488
H10 H 0.218(6) 0.287(5) 0.147(2)
loop_
_geom_bond_atom_site_label_1
_geom_bond_atom_site_label_2
_geom_bond_site_symmetry_1
_geom_bond_site_symmetry_2
Br1 C9 1_555 1_555
Br2 C5 1_555 1_555
Br3 C1 1_555 1_555
O1 C2 1_555 1_555
C1 C4 1_555 1_555
C2 C3 1_555 1_555
C3 C6 1_555 1_555
C4 C9 1_555 1_555
C5 C7 1_555 1_555
O2 C7 1_555 1_555
C6 C1 1_555 1_555
H1 C6 1_555 1_555
C7 O1 1_555 1_555
C8 C3 1_555 1_555
C9 C2 1_555 1_555
N1 C4 1_555 1_555
C10 C8 1_555 1_555
H2 C10 1_555 1_555
H3 C10 1_555 1_555
H4 C10 1_555 1_555
C11 N1 1_555 1_555
H5 C11 1_555 1_555
H6 C11 1_555 1_555
C12 C11 1_555 1_555
H7 C12 1_555 1_555
H8 C12 1_555 1_555
H9 C12 1_555 1_555
H10 N1 1_555 1_555
C5 C8 1_555 1_555

#END
