
#######################################################################
#
#                 Cambridge Crystallographic Data Centre
#                                CCDC 
#
#######################################################################
#
# If this CIF has been generated from an entry in the Cambridge 
# Structural Database, then it will include bibliographic, chemical, 
# crystal, experimental, refinement or atomic coordinate data resulting 
# from the CCDC's data processing and validation procedures.
#
#######################################################################

data_YAWNAN
_chemical_name_common            1,3-Diphenyl-4,5-dihydro-1H-pyrazol-5-one
_chemical_formula_moiety         'C15 H12 N2 O1'
_chemical_name_systematic        2,5-Diphenyl-2,4-dihydro-3H-pyrazol-3-one
_symmetry_cell_setting           monoclinic
_symmetry_space_group_name_H-M   'P 21/c'
_symmetry_Int_Tables_number      14
_space_group_name_Hall           '-P 2ybc'
loop_
_symmetry_equiv_pos_site_id
_symmetry_equiv_pos_as_xyz
1 x,y,z
2 -x,1/2+y,1/2-z
3 -x,-y,-z
4 x,1/2-y,1/2+z
_cell_length_a                   11.1823(3)
_cell_length_b                   11.7503(4)
_cell_length_c                   9.6443(2)
_cell_angle_alpha                90
_cell_angle_beta                 113.998(2)
_cell_angle_gamma                90
_cell_volume                     1157.68
_exptl_crystal_colour            'light yellow'
_exptl_crystal_description       rod
_cell_formula_units_Z            4
loop_
_atom_site_label
_atom_site_type_symbol
_atom_site_fract_x
_atom_site_fract_y
_atom_site_fract_z
O1 O 0.22694(13) 0.27778(11) 0.57957(14)
N1 N 0.21383(13) 0.47099(12) 0.62331(15)
N2 N 0.24220(13) 0.54258(12) 0.74837(15)
C1 C 0.15405(16) 0.51898(14) 0.47568(18)
C2 C 0.16304(18) 0.46485(15) 0.35195(19)
H1 H 0.2084 0.3946 0.3650
C3 C 0.1051(2) 0.51443(17) 0.2092(2)
H2 H 0.1101 0.4771 0.1243
C4 C 0.03995(18) 0.61747(16) 0.1888(2)
H3 H 0.0002 0.6507 0.0907
C5 C 0.03356(17) 0.67148(16) 0.3133(2)
H4 H -0.0094 0.7429 0.3004
C6 C 0.08893(17) 0.62284(15) 0.4563(2)
H5 H 0.0826 0.6600 0.5405
C7 C 0.24708(16) 0.35860(14) 0.66481(19)
C8 C 0.30948(17) 0.35961(14) 0.83575(18)
H6 H 0.2618 0.3096 0.8787
H7 H 0.4023 0.3357 0.8752
C9 C 0.29726(16) 0.48130(14) 0.86983(18)
C10 C 0.34323(16) 0.53258(14) 1.02117(18)
C11 C 0.31799(17) 0.64722(15) 1.0390(2)
H8 H 0.2693 0.6921 0.9523
C12 C 0.36371(18) 0.69541(16) 1.1822(2)
H9 H 0.3452 0.7729 1.1937
C13 C 0.43659(18) 0.63072(16) 1.3092(2)
H10 H 0.4688 0.6642 1.4073
C14 C 0.46240(18) 0.51717(16) 1.2925(2)
H11 H 0.5127 0.4731 1.3794
C15 C 0.41501(17) 0.46785(15) 1.14959(19)
H12 H 0.4315 0.3897 1.1390
loop_
_geom_bond_atom_site_label_1
_geom_bond_atom_site_label_2
_geom_bond_site_symmetry_1
_geom_bond_site_symmetry_2
O1 C7 1_555 1_555
N1 N2 1_555 1_555
N2 C9 1_555 1_555
C1 N1 1_555 1_555
C2 C1 1_555 1_555
H1 C2 1_555 1_555
C3 C2 1_555 1_555
H2 C3 1_555 1_555
C4 C3 1_555 1_555
H3 C4 1_555 1_555
C5 C4 1_555 1_555
H4 C5 1_555 1_555
C6 C1 1_555 1_555
H5 C6 1_555 1_555
C7 N1 1_555 1_555
C8 C7 1_555 1_555
H6 C8 1_555 1_555
H7 C8 1_555 1_555
C9 C8 1_555 1_555
C10 C9 1_555 1_555
C11 C10 1_555 1_555
H8 C11 1_555 1_555
C12 C11 1_555 1_555
H9 C12 1_555 1_555
C13 C12 1_555 1_555
H10 C13 1_555 1_555
C14 C13 1_555 1_555
H11 C14 1_555 1_555
C15 C10 1_555 1_555
H12 C15 1_555 1_555
C5 C6 1_555 1_555
C14 C15 1_555 1_555

#END
