
#######################################################################
#
#                 Cambridge Crystallographic Data Centre
#                                CCDC 
#
#######################################################################
#
# If this CIF has been generated from an entry in the Cambridge 
# Structural Database, then it will include bibliographic, chemical, 
# crystal, experimental, refinement or atomic coordinate data resulting 
# from the CCDC's data processing and validation procedures.
#
#######################################################################

data_YAWTEX
_chemical_formula_moiety         'C15 H18 N2 O2'
_chemical_name_systematic        
1-(4-t-Butylbenzyl)pyrimidine-2,4(1H,3H)-dione
_symmetry_cell_setting           monoclinic
_symmetry_space_group_name_H-M   'P 21/c'
_symmetry_Int_Tables_number      14
_space_group_name_Hall           '-P 2ybc'
loop_
_symmetry_equiv_pos_site_id
_symmetry_equiv_pos_as_xyz
1 x,y,z
2 -x,1/2+y,1/2-z
3 -x,-y,-z
4 x,1/2-y,1/2+z
_cell_length_a                   20.853(7)
_cell_length_b                   10.013(4)
_cell_length_c                   13.893(5)
_cell_angle_alpha                90
_cell_angle_beta                 94.915(6)
_cell_angle_gamma                90
_cell_volume                     2890.21
_exptl_crystal_colour            colorless
_exptl_crystal_description       prism
_cell_formula_units_Z            8
loop_
_atom_site_label
_atom_site_type_symbol
_atom_site_fract_x
_atom_site_fract_y
_atom_site_fract_z
O1 O 0.59221(12) 0.8165(2) 1.02506(16)
O2 O 0.63012(14) 0.5542(3) 1.28734(17)
N1 N 0.61343(12) 0.6826(2) 1.15484(16)
H1 H 0.5903 0.7343 1.1873
N2 N 0.65534(12) 0.6327(3) 1.00998(17)
C1 C 0.61872(14) 0.7185(3) 1.0607(2)
C2 C 0.64043(16) 0.5741(3) 1.2041(2)
C3 C 0.67929(17) 0.4932(3) 1.1461(2)
H3 H 0.7011 0.4196 1.1732
C4 C 0.68399(16) 0.5235(3) 1.0539(2)
H4 H 0.7080 0.4676 1.0174
C5 C 0.65428(15) 0.6492(4) 0.9050(2)
H5 H 0.6274 0.7256 0.8861
H6 H 0.6343 0.5710 0.8742
C6 C 0.71906(16) 0.6689(3) 0.8674(2)
C7 C 0.7650(2) 0.7498(5) 0.9107(3)
H7 H 0.7580 0.7906 0.9690
C8 C 0.8220(2) 0.7726(5) 0.8696(3)
H8 H 0.8522 0.8292 0.9014
C9 C 0.83593(18) 0.7163(4) 0.7849(3)
C10 C 0.78888(19) 0.6360(4) 0.7410(3)
H9 H 0.7955 0.5968 0.6820
C11 C 0.73176(17) 0.6115(4) 0.7819(2)
H10 H 0.7014 0.5549 0.7504
C12 C 0.8989(2) 0.7414(6) 0.7402(4)
C13 C 0.9136(5) 0.6293(10) 0.6679(7)
H11 H 0.9127 0.5441 0.6995
H12 H 0.9554 0.6436 0.6458
H13 H 0.8818 0.6309 0.6137
C14 C 0.8930(5) 0.8728(9) 0.6871(8)
H14 H 0.8604 0.8658 0.6343
H15 H 0.9334 0.8945 0.6626
H16 H 0.8815 0.9416 0.7305
C15 C 0.9545(4) 0.7453(12) 0.8190(6)
H17 H 0.9494 0.8209 0.8601
H18 H 0.9944 0.7526 0.7899
H19 H 0.9545 0.6648 0.8565
O3 O 0.47352(10) 0.14989(19) 0.74452(13)
O4 O 0.54683(10) 0.11521(19) 0.44745(14)
N3 N 0.51352(11) 0.1350(2) 0.59833(15)
H2 H 0.5018 0.0526 0.5959
N4 N 0.56191(11) 0.3135(2) 0.52653(16)
C16 C 0.54110(14) 0.1835(3) 0.51971(19)
C17 C 0.50240(14) 0.2044(3) 0.68156(19)
C18 C 0.52587(15) 0.3387(3) 0.6835(2)
H20 H 0.5225 0.3917 0.7378
C19 C 0.55269(14) 0.3876(3) 0.6071(2)
H21 H 0.5658 0.4764 0.6086
C20 C 0.59296(14) 0.3704(3) 0.4448(2)
H22 H 0.5894 0.4669 0.4464
H23 H 0.5706 0.3393 0.3848
C21 C 0.66279(15) 0.3322(3) 0.4470(2)
C22 C 0.68630(18) 0.2626(3) 0.3729(2)
H24 H 0.6582 0.2355 0.3210
C23 C 0.7508(2) 0.2317(4) 0.3736(3)
H25 H 0.7649 0.1841 0.3220
C24 C 0.79479(18) 0.2687(4) 0.4475(3)
C25 C 0.7703(2) 0.3357(5) 0.5223(3)
H26 H 0.7980 0.3605 0.5752
C26 C 0.70607(19) 0.3674(5) 0.5218(3)
H27 H 0.6919 0.4141 0.5738
C27 C 0.8656(2) 0.2326(5) 0.4482(4)
C28 C 0.8862(5) 0.1729(11) 0.3544(7)
H28 H 0.8756 0.0796 0.3516
H29 H 0.9319 0.1834 0.3524
H30 H 0.8643 0.2180 0.3003
C29 C 0.9078(5) 0.3574(9) 0.4697(8)
H31 H 0.8969 0.4244 0.4217
H32 H 0.9524 0.3337 0.4684
H33 H 0.9006 0.3917 0.5324
C30 C 0.8739(5) 0.0849(8) 0.4731(8)
H34 H 0.8565 0.0672 0.5336
H35 H 0.9188 0.0625 0.4781
H36 H 0.8516 0.0319 0.4233
C31? C 0.8921(5) 0.7427(14) 0.6299(6)
C32? C 0.9290(6) 0.8780(10) 0.7697(9)
C33? C 0.9492(5) 0.6380(12) 0.7739(9)
C34? C 0.8853(5) 0.2512(12) 0.3424(7)
C35? C 0.9086(5) 0.3213(11) 0.5155(8)
C36? C 0.8809(5) 0.1323(11) 0.5311(8)
H37? H 0.8776 0.6568 0.6064
H38? H 0.9331 0.7626 0.6065
H39? H 0.8614 0.8096 0.6076
H40? H 0.8974 0.9470 0.7575
H41? H 0.9649 0.8951 0.7327
H42? H 0.9433 0.8768 0.8372
H43? H 0.9527 0.6333 0.8432
H44? H 0.9901 0.6630 0.7523
H45? H 0.9367 0.5523 0.7476
H46? H 0.8621 0.1884 0.3004
H47? H 0.9307 0.2362 0.3413
H48? H 0.8751 0.3404 0.3209
H49? H 0.8937 0.4119 0.5099
H50? H 0.9520 0.3163 0.4980
H51? H 0.9070 0.2915 0.5809
H52? H 0.8788 0.1768 0.5919
H53? H 0.9234 0.0969 0.5273
H54? H 0.8502 0.0608 0.5257
loop_
_geom_bond_atom_site_label_1
_geom_bond_atom_site_label_2
_geom_bond_site_symmetry_1
_geom_bond_site_symmetry_2
O1 C1 1_555 1_555
O2 C2 1_555 1_555
O3 C17 1_555 1_555
O4 C16 1_555 1_555
N1 H1 1_555 1_555
N2 C1 1_555 1_555
N3 H2 1_555 1_555
N4 C16 1_555 1_555
C1 N1 1_555 1_555
C2 N1 1_555 1_555
C3 C2 1_555 1_555
H3 C3 1_555 1_555
C4 N2 1_555 1_555
H4 C4 1_555 1_555
C5 N2 1_555 1_555
H5 C5 1_555 1_555
H6 C5 1_555 1_555
C6 C5 1_555 1_555
C7 C6 1_555 1_555
H7 C7 1_555 1_555
C8 C7 1_555 1_555
H8 C8 1_555 1_555
C9 C8 1_555 1_555
C10 C9 1_555 1_555
H9 C10 1_555 1_555
C11 C6 1_555 1_555
H10 C11 1_555 1_555
C12 C9 1_555 1_555
C13 C12 1_555 1_555
H11 C13 1_555 1_555
H12 C13 1_555 1_555
H13 C13 1_555 1_555
C14 C12 1_555 1_555
H14 C14 1_555 1_555
H15 C14 1_555 1_555
H16 C14 1_555 1_555
C15 C12 1_555 1_555
H17 C15 1_555 1_555
H18 C15 1_555 1_555
H19 C15 1_555 1_555
C16 N3 1_555 1_555
C17 N3 1_555 1_555
C18 C17 1_555 1_555
H20 C18 1_555 1_555
C19 N4 1_555 1_555
H21 C19 1_555 1_555
C20 N4 1_555 1_555
H22 C20 1_555 1_555
H23 C20 1_555 1_555
C21 C20 1_555 1_555
C22 C21 1_555 1_555
H24 C22 1_555 1_555
C23 C22 1_555 1_555
H25 C23 1_555 1_555
C24 C23 1_555 1_555
C25 C24 1_555 1_555
H26 C25 1_555 1_555
C26 C21 1_555 1_555
H27 C26 1_555 1_555
C27 C24 1_555 1_555
C28 C27 1_555 1_555
H28 C28 1_555 1_555
H29 C28 1_555 1_555
H30 C28 1_555 1_555
C29 C27 1_555 1_555
H31 C29 1_555 1_555
H32 C29 1_555 1_555
H33 C29 1_555 1_555
C30 C27 1_555 1_555
H34 C30 1_555 1_555
H35 C30 1_555 1_555
H36 C30 1_555 1_555
C3 C4 1_555 1_555
C10 C11 1_555 1_555
C18 C19 1_555 1_555
C25 C26 1_555 1_555

#END
