
#######################################################################
#
#                 Cambridge Crystallographic Data Centre
#                                CCDC 
#
#######################################################################
#
# If this CIF has been generated from an entry in the Cambridge 
# Structural Database, then it will include bibliographic, chemical, 
# crystal, experimental, refinement or atomic coordinate data resulting 
# from the CCDC's data processing and validation procedures.
#
#######################################################################

data_YAXXUS
_chemical_formula_moiety         'C14 H9 Br2 Cl1 N2 O2'
_chemical_name_systematic        
4-Chloro-N'-(3,5-dibromo-2-hydroxybenzylidene)benzohydrazide
_symmetry_cell_setting           monoclinic
_symmetry_space_group_name_H-M   'C 2/c'
_symmetry_Int_Tables_number      15
_space_group_name_Hall           '-C 2yn'
loop_
_symmetry_equiv_pos_site_id
_symmetry_equiv_pos_as_xyz
1 x,y,z
2 -x,y,1/2-z
3 1/2+x,1/2+y,z
4 1/2-x,1/2+y,1/2-z
5 -x,-y,-z
6 x,-y,1/2+z
7 1/2-x,1/2-y,-z
8 1/2+x,1/2-y,1/2+z
_cell_length_a                   21.0503(19)
_cell_length_b                   9.9895(11)
_cell_length_c                   30.185(2)
_cell_angle_alpha                90
_cell_angle_beta                 101.836(2)
_cell_angle_gamma                90
_cell_volume                     6212.41
_exptl_crystal_colour            colorless
_exptl_crystal_description       block
_cell_formula_units_Z            16
loop_
_atom_site_label
_atom_site_type_symbol
_atom_site_fract_x
_atom_site_fract_y
_atom_site_fract_z
Br1 Br 0.59984(4) -0.15649(7) 0.50684(2)
Br2 Br 0.60096(5) 0.40530(8) 0.51878(3)
Cl1 Cl 0.28553(8) 0.0539(2) 0.08490(5)
N1 N 0.48103(18) 0.0501(4) 0.34395(14)
N2 N 0.4503(2) 0.0679(4) 0.29989(14)
O1 O 0.5259(2) -0.0988(3) 0.41356(11)
H1 H 0.5103 -0.0831 0.3869
O2 O 0.44485(17) -0.1529(3) 0.28785(12)
C1 C 0.5296(2) 0.1408(5) 0.41481(18)
C2 C 0.5433(2) 0.0165(5) 0.43546(18)
C3 C 0.5777(3) 0.0117(6) 0.48000(19)
C4 C 0.5949(3) 0.1262(6) 0.50448(19)
H3 H 0.6173 0.1215 0.5344
C5 C 0.5787(3) 0.2482(6) 0.4843(2)
C6 C 0.5472(3) 0.2557(5) 0.44034(19)
H4 H 0.5373 0.3392 0.4271
C7 C 0.4980(2) 0.1532(5) 0.36838(18)
H5 H 0.4896 0.2380 0.3558
C8 C 0.4314(2) -0.0407(5) 0.27356(18)
C9 C 0.3945(2) -0.0126(5) 0.22721(17)
C10 C 0.3549(2) 0.0978(5) 0.21643(18)
H6 H 0.3515 0.1596 0.2389
C11 C 0.3200(3) 0.1184(6) 0.1727(2)
H7 H 0.2930 0.1924 0.1657
C12 C 0.3265(3) 0.0269(6) 0.13990(18)
C13 C 0.3631(3) -0.0858(6) 0.1497(2)
H8 H 0.3650 -0.1487 0.1273
C14 C 0.3976(2) -0.1056(5) 0.19342(19)
H9 H 0.4231 -0.1818 0.2003
H17 H 0.440(2) 0.150(2) 0.2886(14)
Br3 Br 0.16100(3) 0.32156(6) 0.13346(2)
Br4 Br 0.13920(3) 0.88180(6) 0.11656(2)
Cl2 Cl 0.69898(8) 0.5736(2) 0.42951(6)
N3 N 0.3518(2) 0.5527(4) 0.25814(14)
N4 N 0.4089(2) 0.5744(4) 0.28790(15)
O3 O 0.26677(17) 0.3947(3) 0.21220(12)
H2 H 0.3028 0.4132 0.2271
O4 O 0.43685(17) 0.3578(3) 0.28369(11)
C15 C 0.2601(2) 0.6341(5) 0.20665(17)
C16 C 0.2386(2) 0.5064(5) 0.19194(17)
C17 C 0.1875(2) 0.4942(5) 0.15544(17)
C18 C 0.1587(2) 0.6050(6) 0.13239(17)
H10 H 0.1263 0.5948 0.1066
C19 C 0.1784(3) 0.7297(5) 0.14789(17)
C20 C 0.2292(2) 0.7460(5) 0.18405(16)
H11 H 0.2431 0.8316 0.1935
C21 C 0.3177(2) 0.6530(5) 0.24191(16)
H12 H 0.3297 0.7386 0.2526
C22 C 0.4500(2) 0.4694(5) 0.29903(17)
C23 C 0.5113(3) 0.5008(5) 0.33136(16)
C24 C 0.5150(3) 0.5908(5) 0.36667(17)
H13 H 0.4781 0.6385 0.3696
C25 C 0.5719(3) 0.6111(5) 0.39751(19)
H14 H 0.5731 0.6693 0.4217
C26 C 0.6262(3) 0.5457(6) 0.3924(2)
C27 C 0.6246(3) 0.4561(6) 0.3576(2)
H15 H 0.6620 0.4107 0.3545
C28 C 0.5668(3) 0.4343(5) 0.32730(18)
H16 H 0.5656 0.3736 0.3038
H18 H 0.4239(18) 0.6586(17) 0.2928(13)
loop_
_geom_bond_atom_site_label_1
_geom_bond_atom_site_label_2
_geom_bond_site_symmetry_1
_geom_bond_site_symmetry_2
Br1 C3 1_555 1_555
Br2 C5 1_555 1_555
Br3 C17 1_555 1_555
Br4 C19 1_555 1_555
Cl1 C12 1_555 1_555
Cl2 C26 1_555 1_555
N1 N2 1_555 1_555
N2 C8 1_555 1_555
N3 N4 1_555 1_555
N4 C22 1_555 1_555
O1 H1 1_555 1_555
O2 C8 1_555 1_555
O3 H2 1_555 1_555
O4 C22 1_555 1_555
C1 C2 1_555 1_555
C2 O1 1_555 1_555
C3 C2 1_555 1_555
C4 C3 1_555 1_555
H3 C4 1_555 1_555
C5 C4 1_555 1_555
C6 C1 1_555 1_555
H4 C6 1_555 1_555
C7 N1 1_555 1_555
H5 C7 1_555 1_555
C8 C9 1_555 1_555
C9 C10 1_555 1_555
C10 H6 1_555 1_555
C11 C10 1_555 1_555
H7 C11 1_555 1_555
C12 C11 1_555 1_555
C13 C12 1_555 1_555
H8 C13 1_555 1_555
C14 C9 1_555 1_555
H9 C14 1_555 1_555
C15 C16 1_555 1_555
C16 O3 1_555 1_555
C17 C16 1_555 1_555
C18 C17 1_555 1_555
H10 C18 1_555 1_555
C19 C18 1_555 1_555
C20 C15 1_555 1_555
H11 C20 1_555 1_555
C21 N3 1_555 1_555
H12 C21 1_555 1_555
C22 C23 1_555 1_555
C23 C24 1_555 1_555
C24 H13 1_555 1_555
C25 C24 1_555 1_555
H14 C25 1_555 1_555
C26 C25 1_555 1_555
C27 C26 1_555 1_555
H15 C27 1_555 1_555
C28 C23 1_555 1_555
H16 C28 1_555 1_555
H17 N2 1_555 1_555
H18 N4 1_555 1_555
C1 C7 1_555 1_555
C5 C6 1_555 1_555
C13 C14 1_555 1_555
C15 C21 1_555 1_555
C19 C20 1_555 1_555
C27 C28 1_555 1_555

#END
