
#######################################################################
#
#                 Cambridge Crystallographic Data Centre
#                                CCDC 
#
#######################################################################
#
# If this CIF has been generated from an entry in the Cambridge 
# Structural Database, then it will include bibliographic, chemical, 
# crystal, experimental, refinement or atomic coordinate data resulting 
# from the CCDC's data processing and validation procedures.
#
#######################################################################

data_YAYQEX
_chemical_formula_moiety         'C10 H12 N3 1+,C6 H3 N2 O4 1-,H2 O1'
_chemical_name_systematic        
'7-amino-2,4-dimethyl-1,8-naphthyridin-1-ium 3-carboxypyrazine-2-carboxylate monohydrate'
_symmetry_cell_setting           monoclinic
_symmetry_space_group_name_H-M   'P 21/n'
_symmetry_Int_Tables_number      14
_space_group_name_Hall           '-P 2yn'
loop_
_symmetry_equiv_pos_site_id
_symmetry_equiv_pos_as_xyz
1 x,y,z
2 1/2-x,1/2+y,1/2-z
3 -x,-y,-z
4 1/2+x,1/2-y,1/2+z
_cell_length_a                   8.0757(9)
_cell_length_b                   18.8012(17)
_cell_length_c                   10.9031(11)
_cell_angle_alpha                90
_cell_angle_beta                 99.577(2)
_cell_angle_gamma                90
_cell_volume                     1632.38
_exptl_crystal_colour            colorless
_exptl_crystal_description       block
_cell_formula_units_Z            4
loop_
_atom_site_label
_atom_site_type_symbol
_atom_site_fract_x
_atom_site_fract_y
_atom_site_fract_z
N1 N 0.8077(2) 0.50460(11) 0.53265(19)
N2 N 0.7327(3) 0.38707(11) 0.53189(19)
H1 H 0.8122 0.3824 0.5945
N3 N 0.8812(3) 0.62282(11) 0.53153(19)
H2 H 0.9539 0.6157 0.5975
H3 H 0.8695 0.6646 0.4990
C1 C 0.7865(3) 0.56910(13) 0.4796(2)
C2 C 0.6642(3) 0.58222(14) 0.3709(2)
H4 H 0.6547 0.6273 0.3354
C3 C 0.5637(3) 0.52969(13) 0.3205(2)
H5 H 0.4832 0.5384 0.2507
C4 C 0.5801(3) 0.46006(13) 0.3741(2)
C5 C 0.7077(3) 0.45239(13) 0.4784(2)
C6 C 0.6403(3) 0.32926(13) 0.4927(2)
C7 C 0.5132(3) 0.33657(14) 0.3923(2)
H6 H 0.4470 0.2973 0.3651
C8 C 0.4812(3) 0.40124(14) 0.3305(2)
C9 C 0.6808(4) 0.26113(14) 0.5602(3)
H7 H 0.7963 0.2492 0.5598
H8 H 0.6100 0.2241 0.5198
H9 H 0.6622 0.2661 0.6445
C10 C 0.3444(4) 0.40545(16) 0.2199(3)
H10 H 0.3924 0.4027 0.1451
H11 H 0.2853 0.4497 0.2214
H12 H 0.2677 0.3666 0.2220
N4 N 0.6107(3) 0.91355(11) 0.27382(19)
N5 N 0.7792(3) 0.95381(12) 0.5065(2)
O1 O 0.6116(3) 0.77710(10) 0.20223(19)
O2 O 0.8195(3) 0.75105(10) 0.35629(17)
O3 O 0.7697(3) 0.80052(11) 0.62222(18)
O4 O 1.0212(2) 0.83213(10) 0.58079(17)
H13 H 1.0553 0.8024 0.6342
C11 C 0.7106(3) 0.79115(14) 0.2995(2)
C12 C 0.8585(4) 0.83423(14) 0.5640(2)
C13 C 0.7002(3) 0.86619(13) 0.3487(2)
C14 C 0.7796(3) 0.88677(13) 0.4670(2)
C15 C 0.6945(4) 1.00040(16) 0.4271(3)
H14 H 0.6945 1.0481 0.4495
C16 C 0.6072(3) 0.97976(14) 0.3131(3)
H15 H 0.5443 1.0133 0.2627
O5 O 0.9844(2) 0.35450(10) 0.74616(17)
H16 H 1.0386 0.3213 0.7178
H17 H 0.9113 0.3359 0.7842
loop_
_geom_bond_atom_site_label_1
_geom_bond_atom_site_label_2
_geom_bond_site_symmetry_1
_geom_bond_site_symmetry_2
N1 C1 1_555 1_555
N2 H1 1_555 1_555
N3 H2 1_555 1_555
H3 N3 1_555 1_555
C1 N3 1_555 1_555
C2 C1 1_555 1_555
H4 C2 1_555 1_555
C3 C2 1_555 1_555
H5 C3 1_555 1_555
C4 C3 1_555 1_555
C5 N1 1_555 1_555
C6 N2 1_555 1_555
C7 C6 1_555 1_555
H6 C7 1_555 1_555
C8 C4 1_555 1_555
C9 C6 1_555 1_555
H7 C9 1_555 1_555
H8 C9 1_555 1_555
H9 C9 1_555 1_555
C10 C8 1_555 1_555
H10 C10 1_555 1_555
H11 C10 1_555 1_555
H12 C10 1_555 1_555
N4 C13 1_555 1_555
N5 C14 1_555 1_555
O1 C11 1_555 1_555
O2 C11 1_555 1_555
O3 C12 1_555 1_555
O4 H13 1_555 1_555
C11 C13 1_555 1_555
C12 O4 1_555 1_555
C13 C14 1_555 1_555
C14 C12 1_555 1_555
C15 N5 1_555 1_555
H14 C15 1_555 1_555
C16 N4 1_555 1_555
H15 C16 1_555 1_555
O5 H16 1_555 1_555
H17 O5 1_555 1_555
N2 C5 1_555 1_555
C4 C5 1_555 1_555
C7 C8 1_555 1_555
C15 C16 1_555 1_555

#END
