
#######################################################################
#
#                 Cambridge Crystallographic Data Centre
#                                CCDC 
#
#######################################################################
#
# If this CIF has been generated from an entry in the Cambridge 
# Structural Database, then it will include bibliographic, chemical, 
# crystal, experimental, refinement or atomic coordinate data resulting 
# from the CCDC's data processing and validation procedures.
#
#######################################################################

data_YAYXEC
_chemical_formula_moiety         'C25 H14 F6 N4 S2'
_chemical_name_systematic        
1,2-bis(2-Ethyl-5-(2,2-dicyanovinyl)-3-thienyl)-3,3,4,4,5,5-hexafluorocyclopent-1-ene
_symmetry_cell_setting           hexagonal
_symmetry_space_group_name_H-M   'P 65 2 2'
_symmetry_Int_Tables_number      179
_space_group_name_Hall           "P 65 2' (0,0,1)"
loop_
_symmetry_equiv_pos_site_id
_symmetry_equiv_pos_as_xyz
1 x,y,z
2 -y,x-y,2/3+z
3 -x+y,-x,1/3+z
4 -x,-y,1/2+z
5 y,-x+y,1/6+z
6 x-y,x,5/6+z
7 y,x,2/3-z
8 x-y,-y,-z
9 -x,-x+y,1/3-z
10 -y,-x,1/6-z
11 -x+y,y,1/2-z
12 x,x-y,5/6-z
_cell_length_a                   8.4786(7)
_cell_length_b                   8.4786(7)
_cell_length_c                   59.562(9)
_cell_angle_alpha                90
_cell_angle_beta                 90
_cell_angle_gamma                120
_cell_volume                     3708.07
_exptl_crystal_colour            colorless
_exptl_crystal_description       prism
_chemical_melting_point          '438-439 K'
_cell_formula_units_Z            6
_chemical_properties_physical    light-sensitive
_exptl_crystal_recrystallization_method chloroform/hexane
_exptl_crystal_preparation       photochromic
loop_
_atom_site_label
_atom_site_type_symbol
_atom_site_fract_x
_atom_site_fract_y
_atom_site_fract_z
S1 S 0.26456(17) 0.89681(18) 0.047760(17)
F1 F -0.3429(5) 0.8414(5) 0.03203(7)
F2 F -0.2048(4) 1.1270(5) 0.03419(5)
F3 F -0.2791(12) 1.2140(9) 0.00028(12)
F4 F -0.5026(8) 0.9387(12) -0.0011(2)
N1 N 0.5825(8) 0.9564(9) 0.08672(7)
N2 N 0.5654(7) 1.3708(8) 0.12714(7)
C1 C -0.0729(6) 0.9949(6) 0.01132(6)
C2 C -0.2419(6) 0.9917(7) 0.02001(6)
C3 C -0.3236(10) 1.0384(13) -0.00060(13)
C4 C 0.1219(6) 0.8666(6) 0.02578(6)
C5 C 0.0531(6) 0.9835(6) 0.02725(6)
C6 C 0.1145(6) 1.0923(7) 0.04690(6)
H1 H 0.0780 1.1755 0.0508
C7 C 0.2322(6) 1.0639(6) 0.05971(6)
C8 C 0.3161(7) 1.1642(7) 0.07950(6)
H2 H 0.2789 1.2457 0.0839
C9 C 0.4417(7) 1.1588(7) 0.09285(6)
C10 C 0.5197(8) 1.0470(9) 0.08924(8)
C11 C 0.5087(8) 1.2767(8) 0.11186(7)
C12 C 0.0810(7) 0.7238(7) 0.00836(6)
H3 H 0.1599 0.7808 -0.0045
H4 H -0.0436 0.6753 0.0033
C13 C 0.1052(8) 0.5664(7) 0.01630(7)
H5 H 0.0748 0.4802 0.0043
H6 H 0.0266 0.5077 0.0289
H7 H 0.2295 0.6120 0.0207
S1G S 0.36775(25) 1.10319(18) -0.047760(17)
F1G F -0.1843(7) 1.1586(5) -0.03203(7)
F2G F -0.3318(6) 0.8730(5) -0.03419(5)
F3G F -0.4931(15) 0.7860(9) -0.00028(12)
F4G F -0.4413(14) 1.0613(12) 0.0011(2)
N1G N 0.6261(12) 1.0436(9) -0.08672(7)
N2G N 0.1946(11) 0.6292(8) -0.12714(7)
C1G C -0.0678(8) 1.0051(6) -0.01132(6)
C2G C -0.2336(9) 1.0083(7) -0.02001(6)
C3G C -0.3620(16) 0.9616(13) 0.00060(13)
C4G C 0.2553(8) 1.1334(6) -0.02578(6)
C5G C 0.0696(8) 1.0165(6) -0.02725(6)
C6G C 0.0222(9) 0.9077(7) -0.04690(6)
H1G H -0.0975 0.8245 -0.0508
C7G C 0.1683(8) 0.9361(6) -0.05971(6)
C8G C 0.1519(10) 0.8358(7) -0.07950(6)
H2G H 0.0332 0.7543 -0.0839
C9G C 0.2829(10) 0.8412(7) -0.09285(6)
C10G C 0.4727(12) 0.9530(9) -0.08924(8)
C11G C 0.2320(11) 0.7233(8) -0.11186(7)
C12G C 0.3572(10) 1.2762(7) -0.00836(6)
H3G H 0.3791 1.2192 0.0045
H4G H 0.2811 1.3247 -0.0033
C13G C 0.5388(11) 1.4336(7) -0.01630(7)
H5G H 0.5946 1.5198 -0.0043
H6G H 0.5189 1.4923 -0.0289
H7G H 0.6175 1.3880 -0.0207
loop_
_geom_bond_atom_site_label_1
_geom_bond_atom_site_label_2
_geom_bond_site_symmetry_1
_geom_bond_site_symmetry_2
S1 C4 1_555 1_555
F1 C2 1_555 1_555
F2 C2 1_555 1_555
F3 C3 1_555 1_555
F4 C3 1_555 1_555
N1 C10 1_555 1_555
N2 C11 1_555 1_555
C1 C2 1_555 1_555
C2 C3 1_555 1_555
C3 F4G 1_555 1_555
C4 C5 1_555 1_555
C5 C1 1_555 1_555
C6 C5 1_555 1_555
H1 C6 1_555 1_555
C7 S1 1_555 1_555
C8 C7 1_555 1_555
H2 C8 1_555 1_555
C9 C8 1_555 1_555
C10 C9 1_555 1_555
C11 C9 1_555 1_555
C12 C4 1_555 1_555
H3 C12 1_555 1_555
H4 C12 1_555 1_555
C13 C12 1_555 1_555
H5 C13 1_555 1_555
H6 C13 1_555 1_555
H7 C13 1_555 1_555
S1G C4G 1_555 1_555
F1G C2G 1_555 1_555
F2G C2G 1_555 1_555
F3G F4 1_555 1_555
F4G F3 1_555 1_555
N1G C10G 1_555 1_555
N2G C11G 1_555 1_555
C1G C1 1_555 1_555
C2G C3 1_555 1_555
C3G F4 1_555 1_555
C4G C5G 1_555 1_555
C5G C1G 1_555 1_555
C6G C5G 1_555 1_555
H1G C6G 1_555 1_555
C7G S1G 1_555 1_555
C8G C7G 1_555 1_555
H2G C8G 1_555 1_555
C9G C8G 1_555 1_555
C10G C9G 1_555 1_555
C11G C9G 1_555 1_555
C12G C4G 1_555 1_555
H3G C12G 1_555 1_555
H4G C12G 1_555 1_555
C13G C12G 1_555 1_555
H5G C13G 1_555 1_555
H6G C13G 1_555 1_555
H7G C13G 1_555 1_555
F4 F4G 1_555 1_555
C2 C3G 1_555 1_555
C3 C3G 1_555 1_555
C6 C7 1_555 1_555
F3G C3G 1_555 1_555
F4G C3G 1_555 1_555
C1G C2G 1_555 1_555
C2G C3G 1_555 1_555
C6G C7G 1_555 1_555

#END
