
#######################################################################
#
#                 Cambridge Crystallographic Data Centre
#                                CCDC 
#
#######################################################################
#
# If this CIF has been generated from an entry in the Cambridge 
# Structural Database, then it will include bibliographic, chemical, 
# crystal, experimental, refinement or atomic coordinate data resulting 
# from the CCDC's data processing and validation procedures.
#
#######################################################################

data_YAZLAM
_chemical_formula_moiety         'C22 H22 O4 S2'
_chemical_name_systematic        
trans-1,2-bis(Phenylthio)-4,5-dimethoxycarbonyl-1-cyclohexene
_symmetry_cell_setting           monoclinic
_symmetry_space_group_name_H-M   'P 21/c'
_symmetry_Int_Tables_number      14
_space_group_name_Hall           '-P 2ybc'
loop_
_symmetry_equiv_pos_site_id
_symmetry_equiv_pos_as_xyz
1 x,y,z
2 -x,1/2+y,1/2-z
3 -x,-y,-z
4 x,1/2-y,1/2+z
_cell_length_a                   5.538(2)
_cell_length_b                   22.424(6)
_cell_length_c                   19.042(4)
_cell_angle_alpha                90
_cell_angle_beta                 94.99(2)
_cell_angle_gamma                90
_cell_volume                     2355.75
_cell_formula_units_Z            4
loop_
_atom_site_label
_atom_site_type_symbol
_atom_site_fract_x
_atom_site_fract_y
_atom_site_fract_z
S1 S 0.1946(6) 0.5102(1) 0.8054(2)
S2 S 0.0817(6) 0.4047(2) 0.7035(2)
O1 O 0.7737(19) 0.3549(6) 0.9960(6)
O2 O 1.0480(20) 0.4135(5) 0.9599(5)
O3 O 0.9285(22) 0.2751(5) 0.8448(8)
O4 O 0.6156(18) 0.2317(5) 0.8815(5)
C1 C 0.3798(21) 0.4467(5) 0.8140(7)
C2 C 0.3222(19) 0.3998(6) 0.7724(6)
C3 C 0.4439(20) 0.3397(5) 0.7811(6)
C4 C 0.5808(21) 0.3356(5) 0.8549(7)
C5 C 0.7181(21) 0.3882(5) 0.8781(6)
C6 C 0.5656(21) 0.4434(5) 0.8718(6)
C7 C 0.8518(25) 0.3829(6) 0.9472(8)
C8 C 1.1620(27) 0.4144(8) 1.0307(8)
C9 C 0.7321(27) 0.2778(7) 0.8620(7)
C10 C 0.7611(28) 0.1763(6) 0.8809(8)
C11 C 0.5845(20) 0.5574(4) 0.7451(5)
C12 C 0.7416 0.6036 0.7307
C13 C 0.7174 0.6594 0.7616
C14 C 0.5361 0.6691 0.8068
C15 C 0.3790 0.6229 0.8211
C16 C 0.4032 0.5670 0.7903
C17 C 0.3531(19) 0.3569(5) 0.6033(7)
C18 C 0.3936 0.3165 0.5499
C19 C 0.2345 0.2689 0.5355
C20 C 0.0349 0.2618 0.5746
C21 C -0.0056 0.3022 0.6281
C22 C 0.1535 0.3497 0.6424
loop_
_geom_bond_atom_site_label_1
_geom_bond_atom_site_label_2
_geom_bond_site_symmetry_1
_geom_bond_site_symmetry_2
S1 C1 1_555 1_555
S2 C2 1_555 1_555
O1 C7 1_555 1_555
O2 C7 1_555 1_555
O3 C9 1_555 1_555
O4 C9 1_555 1_555
C1 C2 1_555 1_555
C2 C3 1_555 1_555
C3 C4 1_555 1_555
C4 C5 1_555 1_555
C5 C6 1_555 1_555
C6 C1 1_555 1_555
C7 C5 1_555 1_555
C8 O2 1_555 1_555
C9 C4 1_555 1_555
C10 O4 1_555 1_555
C11 C12 1_555 1_555
C12 C13 1_555 1_555
C13 C14 1_555 1_555
C14 C15 1_555 1_555
C15 C16 1_555 1_555
C16 S1 1_555 1_555
C17 C18 1_555 1_555
C18 C19 1_555 1_555
C19 C20 1_555 1_555
C20 C21 1_555 1_555
C21 C22 1_555 1_555
C22 S2 1_555 1_555
C11 C16 1_555 1_555
C17 C22 1_555 1_555

#END
