
#######################################################################
#
#                 Cambridge Crystallographic Data Centre
#                                CCDC 
#
#######################################################################
#
# If this CIF has been generated from an entry in the Cambridge 
# Structural Database, then it will include bibliographic, chemical, 
# crystal, experimental, refinement or atomic coordinate data resulting 
# from the CCDC's data processing and validation procedures.
#
#######################################################################

data_YECHAQ
_chemical_formula_moiety         'C12 H8 N4 O1,C4 H4 O4'
_chemical_name_systematic        
'2,5-bis(3-Pyridyl)-1,3,4-oxadiazole fumaric acid'
_symmetry_cell_setting           monoclinic
_symmetry_space_group_name_H-M   'C 2/c'
_symmetry_Int_Tables_number      15
_space_group_name_Hall           '-C 2yn'
loop_
_symmetry_equiv_pos_site_id
_symmetry_equiv_pos_as_xyz
1 x,y,z
2 1/2+x,1/2+y,z
3 -x,y,1/2-z
4 1/2-x,1/2+y,1/2-z
5 -x,-y,-z
6 1/2-x,1/2-y,-z
7 x,-y,1/2+z
8 1/2+x,1/2-y,1/2+z
_cell_length_a                   22.271(8)
_cell_length_b                   6.611(2)
_cell_length_c                   10.553(4)
_cell_angle_alpha                90
_cell_angle_beta                 100.225(6)
_cell_angle_gamma                90
_cell_volume                     1529.08
_exptl_crystal_colour            colorless
_exptl_crystal_description       Lamellar
_chemical_melting_point          185-186deg.C
_cell_formula_units_Z            4
loop_
_atom_site_label
_atom_site_type_symbol
_atom_site_fract_x
_atom_site_fract_y
_atom_site_fract_z
N1 N 0.37852(8) 0.2819(3) 0.33060(17)
N2 N 0.48102(10) 0.0746(3) 0.68885(19)
O1 O 0.5000 0.3907(3) 0.7500
C1 C 0.41427(9) 0.2186(3) 0.4380(2)
H2 H 0.4263 0.0837 0.4437
C2 C 0.43443(9) 0.3453(3) 0.54211(19)
C3 C 0.41727(10) 0.5468(3) 0.5326(2)
H3 H 0.4309 0.6367 0.5993
C4 C 0.37942(10) 0.6115(3) 0.4218(2)
H4 H 0.3664 0.7453 0.4133
C5 C 0.36137(10) 0.4750(4) 0.3246(2)
H5 H 0.3358 0.5198 0.2505
C6 C 0.47142(9) 0.2612(3) 0.6577(2)
N1B N 0.62148(8) 0.2819(3) 1.16940(17)
N2B N 0.51898(10) 0.0746(3) 0.81115(19)
C1B C 0.58573(9) 0.2186(3) 1.0620(2)
H2B H 0.5737 0.0837 1.0563
C2B C 0.56557(9) 0.3453(3) 0.95789(19)
C3B C 0.58273(10) 0.5468(3) 0.9674(2)
H3B H 0.5691 0.6367 0.9007
C4B C 0.62058(10) 0.6115(3) 1.0782(2)
H4B H 0.6336 0.7453 1.0867
C5B C 0.63863(10) 0.4750(4) 1.1754(2)
H5B H 0.6642 0.5198 1.2495
C6B C 0.52858(9) 0.2612(3) 0.8423(2)
O2 O 0.71663(8) 0.8694(2) 0.26909(14)
O3 O 0.67203(9) 1.0818(3) 0.38634(15)
H1 H 0.6605 1.1366 0.3166
C7 C 0.70787(9) 0.9288(3) 0.37159(19)
C8 C 0.73520(9) 0.8359(3) 0.49697(19)
H6 H 0.7312 0.9016 0.5730
O2E O 0.78337(8) 0.6306(2) 0.73091(14)
O3E O 0.82797(9) 0.4182(3) 0.61366(15)
H1E H 0.8395 0.3634 0.6834
C7E C 0.79213(9) 0.5712(3) 0.62841(19)
C8E C 0.76480(9) 0.6641(3) 0.50303(19)
H6E H 0.7688 0.5984 0.4270
loop_
_geom_bond_atom_site_label_1
_geom_bond_atom_site_label_2
_geom_bond_site_symmetry_1
_geom_bond_site_symmetry_2
N1 C1 1_555 1_555
N2 C6 1_555 1_555
O1 C6 1_555 1_555
O2 C7 1_555 1_555
O3 H1 1_555 1_555
C1 H2 1_555 1_555
C2 C1 1_555 1_555
C3 C2 1_555 1_555
H3 C3 1_555 1_555
C4 C3 1_555 1_555
H4 C4 1_555 1_555
C5 N1 1_555 1_555
H5 C5 1_555 1_555
C6 C2 1_555 1_555
C7 O3 1_555 1_555
C8 C7 1_555 1_555
H6 C8 1_555 1_555
N1B C1B 1_555 1_555
N2B N2 1_555 1_555
O2E C7E 1_555 1_555
O3E H1E 1_555 1_555
C1B H2B 1_555 1_555
C2B C1B 1_555 1_555
C3B C2B 1_555 1_555
H3B C3B 1_555 1_555
C4B C3B 1_555 1_555
H4B C4B 1_555 1_555
C5B N1B 1_555 1_555
H5B C5B 1_555 1_555
C6B O1 1_555 1_555
C7E O3E 1_555 1_555
C8E C8 1_555 1_555
H6E C8E 1_555 1_555
C4 C5 1_555 1_555
N2B C6B 1_555 1_555
C2B C6B 1_555 1_555
C4B C5B 1_555 1_555
C7E C8E 1_555 1_555

#END
