
#######################################################################
#
#                 Cambridge Crystallographic Data Centre
#                                CCDC 
#
#######################################################################
#
# If this CIF has been generated from an entry in the Cambridge 
# Structural Database, then it will include bibliographic, chemical, 
# crystal, experimental, refinement or atomic coordinate data resulting 
# from the CCDC's data processing and validation procedures.
#
#######################################################################

data_YECKUM
_chemical_formula_moiety         'C24 H19 O3 P1,2(C1 H2 Cl2)'
_chemical_name_systematic        
'4-Oxy-5-triphenylphosphonium-6-methyl-2-pyrone dichloromethane solvate'
_symmetry_cell_setting           triclinic
_symmetry_space_group_name_H-M   'P -1'
_symmetry_Int_Tables_number      2
_space_group_name_Hall           '-P 1'
loop_
_symmetry_equiv_pos_site_id
_symmetry_equiv_pos_as_xyz
1 x,y,z
2 -x,-y,-z
_cell_length_a                   14.838(4)
_cell_length_b                   11.109(4)
_cell_length_c                   8.215(2)
_cell_angle_alpha                104.30(8)
_cell_angle_beta                 91.20(7)
_cell_angle_gamma                96.30(7)
_cell_volume                     1302.62
_exptl_crystal_colour            white-yellow
_chemical_melting_point          '213-215 deg.C(dec.)'
_cell_formula_units_Z            2
loop_
_atom_site_label
_atom_site_type_symbol
_atom_site_fract_x
_atom_site_fract_y
_atom_site_fract_z
P1 P 0.26523(5) 0.21298(7) -0.0018(1)
O1 O 0.2457(2) -0.0123(2) 0.0927(3)
O2 O 0.1936(2) -0.2907(2) -0.4309(3)
O3 O 0.2156(2) -0.0840(2) -0.4113(3)
C1 C 0.2412(2) 0.0644(3) -0.1501(4)
C2 C 0.2362(2) -0.0397(3) -0.0643(4)
C3 C 0.2202(2) -0.1573(3) -0.1648(4)
C4 C 0.2083(2) -0.1850(3) -0.3408(4)
C5 C 0.2321(2) 0.0396(3) -0.3192(4)
C6 C 0.2373(3) 0.1236(4) -0.4364(5)
C7 C 0.3675(2) 0.3795(3) -0.1482(5)
C8 C 0.3769(3) 0.4707(4) -0.2394(5)
C9 C 0.3021(3) 0.5188(4) -0.2857(5)
C10 C 0.2170(3) 0.4800(4) -0.2412(5)
C11 C 0.2064(2) 0.3892(3) -0.1508(5)
C12 C 0.2816(2) 0.3379(3) -0.1061(4)
C13 C 0.1782(2) 0.3746(3) 0.2335(5)
C14 C 0.1107(3) 0.4107(4) 0.3412(5)
C15 C 0.0375(3) 0.3236(4) 0.3508(6)
C16 C 0.0334(3) 0.2010(4) 0.2522(6)
C17 C 0.1016(2) 0.1651(3) 0.1459(5)
C18 C 0.1749(2) 0.2517(3) 0.1369(4)
C19 C 0.4403(2) 0.1589(3) 0.0250(5)
C20 C 0.5231(2) 0.1597(4) 0.1095(5)
C21 C 0.5337(3) 0.2158(4) 0.2819(6)
C22 C 0.4640(3) 0.2694(4) 0.3680(5)
C23 C 0.3817(3) 0.2699(4) 0.2847(4)
C24 C 0.3700(2) 0.2141(3) 0.1141(4)
H1 H 0.21661 -0.23822 -0.10978
H2 H 0.28191 0.20676 -0.38009
H3 H 0.16992 0.14712 -0.45742
H4 H 0.25952 0.08436 -0.54504
H5 H 0.42628 0.33974 -0.11368
H6 H 0.44498 0.50152 -0.27431
H7 H 0.31077 0.59150 -0.35587
H8 H 0.15787 0.51971 -0.27680
H9 H 0.13918 0.35793 -0.11617
H10 H 0.23627 0.44196 0.22570
H11 H 0.11372 0.50497 0.41716
H12 H -0.01673 0.35029 0.43484
H13 H -0.02463 0.13259 0.26105
H14 H 0.09793 0.06958 0.06960
H15 H 0.43138 0.11628 -0.10846
H16 H 0.57820 0.11845 0.04150
H17 H 0.59915 0.21681 0.34696
H18 H 0.47327 0.31300 0.50246
H19 H 0.32645 0.31083 0.35250
Cl1 Cl 0.4222(1) -0.0944(1) 0.3514(2)
Cl2 Cl 0.3786(1) -0.3581(2) 0.2101(3)
C25 C 0.3362(3) -0.2132(5) 0.2640(6)
Cl3 Cl 0.0000(1) 0.1290(1) -0.2986(2)
Cl4 Cl -0.0602(1) 0.3522(1) -0.0946(2)
C26 C -0.0925(3) 0.2059(5) -0.2248(7)
loop_
_geom_bond_atom_site_label_1
_geom_bond_atom_site_label_2
_geom_bond_site_symmetry_1
_geom_bond_site_symmetry_2
P1 C1 1_555 1_555
Cl1 C25 1_555 1_555
Cl2 C25 1_555 1_555
Cl3 C26 1_555 1_555
Cl4 C26 1_555 1_555
O1 C2 1_555 1_555
O2 C4 1_555 1_555
O3 C4 1_555 1_555
C1 C2 1_555 1_555
C2 C3 1_555 1_555
C3 C4 1_555 1_555
C5 O3 1_555 1_555
C6 C5 1_555 1_555
C7 C8 1_555 1_555
C8 C9 1_555 1_555
C9 C10 1_555 1_555
C10 C11 1_555 1_555
C11 C12 1_555 1_555
C12 P1 1_555 1_555
C13 C14 1_555 1_555
C14 C15 1_555 1_555
C15 C16 1_555 1_555
C16 C17 1_555 1_555
C17 C18 1_555 1_555
C18 P1 1_555 1_555
C19 C20 1_555 1_555
C20 C21 1_555 1_555
C21 C22 1_555 1_555
C22 C23 1_555 1_555
C23 C24 1_555 1_555
C24 P1 1_555 1_555
H1 C3 1_555 1_555
H2 C6 1_555 1_555
H3 C6 1_555 1_555
H4 C6 1_555 1_555
H5 C7 1_555 1_555
H6 C8 1_555 1_555
H7 C9 1_555 1_555
H8 C10 1_555 1_555
H9 C11 1_555 1_555
H10 C13 1_555 1_555
H11 C14 1_555 1_555
H12 C15 1_555 1_555
H13 C16 1_555 1_555
H14 C17 1_555 1_555
H15 C19 1_555 1_555
H16 C20 1_555 1_555
H17 C21 1_555 1_555
H18 C22 1_555 1_555
H19 C23 1_555 1_555
C1 C5 1_555 1_555
C7 C12 1_555 1_555
C13 C18 1_555 1_555
C19 C24 1_555 1_555

#END
