
#######################################################################
#
#                 Cambridge Crystallographic Data Centre
#                                CCDC 
#
#######################################################################
#
# If this CIF has been generated from an entry in the Cambridge 
# Structural Database, then it will include bibliographic, chemical, 
# crystal, experimental, refinement or atomic coordinate data resulting 
# from the CCDC's data processing and validation procedures.
#
#######################################################################

data_YEDNAZ
_chemical_formula_moiety         'C33 H45 N5 O3'
_chemical_name_systematic        
4,22,27-trioxa-1,10,13,16,33-penta-azapentacyclo[11.11.11.2^5,8^.2^18,21^.2^28,31^]hentetraconta-5,7,18,20,28,30,36,38,40-nonaene
_symmetry_cell_setting           rhombohedral
_symmetry_space_group_name_H-M   'R 3 c'
_symmetry_Int_Tables_number      161
_space_group_name_Hall           'R 3 -2"c'
loop_
_symmetry_equiv_pos_site_id
_symmetry_equiv_pos_as_xyz
1 x,y,z
2 -y,x-y,z
3 -x+y,-x,z
4 -y,-x,1/2+z
5 -x+y,y,1/2+z
6 x,x-y,1/2+z
7 2/3+x,1/3+y,1/3+z
8 2/3-y,1/3+x-y,1/3+z
9 2/3-x+y,1/3-x,1/3+z
10 2/3-y,1/3-x,5/6+z
11 2/3-x+y,1/3+y,5/6+z
12 2/3+x,1/3+x-y,5/6+z
13 1/3+x,2/3+y,2/3+z
14 1/3-y,2/3+x-y,2/3+z
15 1/3-x+y,2/3-x,2/3+z
16 1/3-y,2/3-x,1/6+z
17 1/3-x+y,2/3+y,1/6+z
18 1/3+x,2/3+x-y,1/6+z
_cell_length_a                   13.4796(6)
_cell_length_b                   13.4796(6)
_cell_length_c                   29.4124(6)
_cell_angle_alpha                90
_cell_angle_beta                 90
_cell_angle_gamma                120
_cell_volume                     4628.23
_exptl_crystal_colour            colorless
_exptl_crystal_description       Block
_cell_formula_units_Z            6
loop_
_atom_site_label
_atom_site_type_symbol
_atom_site_fract_x
_atom_site_fract_y
_atom_site_fract_z
O1 O 0.4010(3) 0.5493(3) 0.12407(9)
N1 N 0.3333 0.6667 -0.15127(19)
N2 N 0.4867(6) 0.6515(7) -0.0885(2)
H1 H 0.5243 0.7322 -0.0822
N3 N 0.3333 0.6667 0.1894(2)
C1 C 0.4495(4) 0.7010(5) -0.1642(2)
H2 H 0.4984 0.7824 -0.1587
H3 H 0.4521 0.6871 -0.1964
C2 C 0.4944(4) 0.6340(4) -0.13689(14)
H4 H 0.4493 0.5531 -0.1440
H5 H 0.5734 0.6603 -0.1451
C3 C 0.5369(3) 0.5989(4) -0.06029(14)
H6 H 0.6197 0.6443 -0.0625
H7 H 0.5138 0.5233 -0.0722
C4 C 0.5039(3) 0.5880(3) -0.01154(13)
C5 C 0.5845(3) 0.6327(3) 0.02171(15)
H8 H 0.6613 0.6728 0.0134
C6 C 0.5555(3) 0.6205(3) 0.06905(13)
H9 H 0.6121 0.6492 0.0913
C7 C 0.4407(3) 0.5645(3) 0.08041(13)
C8 C 0.3575(3) 0.5178(3) 0.04694(12)
H10 H 0.2804 0.4783 0.0549
C9 C 0.3887(3) 0.5298(3) 0.00202(15)
H11 H 0.3319 0.4983 -0.0201
C10 C 0.4761(4) 0.6215(4) 0.15875(13)
H12 H 0.5201 0.6998 0.1480
H13 H 0.5287 0.5958 0.1678
C11 C 0.4012(4) 0.6142(4) 0.19827(13)
H14 H 0.3507 0.5342 0.2058
H15 H 0.4494 0.6509 0.2245
O1A O 0.4507(3) 0.8517(4) 0.12407(9)
N2A N 0.3485(7) 0.8352(9) -0.0885(2)
H1A H 0.2678 0.7921 -0.0822
C1A C 0.2990(5) 0.7485(6) -0.1642(2)
H2A H 0.2176 0.7160 -0.1587
H3A H 0.3129 0.7650 -0.1964
C2A C 0.3660(4) 0.8604(6) -0.13689(14)
H4A H 0.4469 0.8962 -0.1440
H5A H 0.3397 0.9131 -0.1451
C3A C 0.4011(4) 0.9380(5) -0.06029(14)
H6A H 0.3557 0.9754 -0.0625
H7A H 0.4767 0.9905 -0.0722
C4A C 0.4120(3) 0.9159(4) -0.01154(13)
C5A C 0.3673(3) 0.9518(4) 0.02171(15)
H8A H 0.3272 0.9885 0.0134
C6A C 0.3795(3) 0.9350(4) 0.06905(13)
H9A H 0.3508 0.9629 0.0913
C7A C 0.4355(3) 0.8762(4) 0.08041(13)
C8A C 0.4822(3) 0.8397(4) 0.04694(12)
H10A H 0.5217 0.8021 0.0549
C9A C 0.4702(3) 0.8589(4) 0.00202(15)
H11A H 0.5017 0.8336 -0.0201
C10A C 0.3785(4) 0.8546(6) 0.15875(13)
H12A H 0.3002 0.8203 0.1480
H13A H 0.4042 0.9329 0.1678
C11A C 0.3858(4) 0.7870(6) 0.19827(13)
H14A H 0.4658 0.8165 0.2058
H15A H 0.3491 0.7985 0.2245
O1B O 0.1483(4) 0.5990(3) 0.12407(9)
N2B N 0.1648(9) 0.5133(6) -0.0885(2)
H1B H 0.2079 0.4757 -0.0822
C1B C 0.2515(6) 0.5505(4) -0.1642(2)
H2B H 0.2840 0.5016 -0.1587
H3B H 0.2350 0.5479 -0.1964
C2B C 0.1396(6) 0.5056(4) -0.13689(14)
H4B H 0.1038 0.5507 -0.1440
H5B H 0.0869 0.4266 -0.1451
C3B C 0.0620(5) 0.4631(3) -0.06029(14)
H6B H 0.0246 0.3803 -0.0625
H7B H 0.0095 0.4862 -0.0722
C4B C 0.0841(4) 0.4961(3) -0.01154(13)
C5B C 0.0482(4) 0.4155(3) 0.02171(15)
H8B H 0.0115 0.3387 0.0134
C6B C 0.0650(4) 0.4445(3) 0.06905(13)
H9B H 0.0371 0.3879 0.0913
C7B C 0.1238(4) 0.5593(3) 0.08041(13)
C8B C 0.1603(4) 0.6425(3) 0.04694(12)
H10B H 0.1979 0.7196 0.0549
C9B C 0.1411(4) 0.6113(3) 0.00202(15)
H11B H 0.1664 0.6681 -0.0201
C10B C 0.1454(6) 0.5239(4) 0.15875(13)
H12B H 0.1797 0.4799 0.1480
H13B H 0.0671 0.4713 0.1678
C11B C 0.2130(6) 0.5988(4) 0.19827(13)
H14B H 0.1835 0.6493 0.2058
H15B H 0.2015 0.5506 0.2245
N4? N 0.4427(12) 0.5906(15) -0.0905(4)
H16? H 0.3829 0.5121 -0.0929
C12? C 0.3859(10) 0.5995(11) -0.1673(4)
H17? H 0.4080 0.6166 -0.1990
H18? H 0.3319 0.5182 -0.1645
H19? H 0.5365 0.5984 -0.1474
H20? H 0.5441 0.7156 -0.1363
H21? H 0.5546 0.5403 -0.0680
H22? H 0.6045 0.6719 -0.0652
loop_
_geom_bond_atom_site_label_1
_geom_bond_atom_site_label_2
_geom_bond_site_symmetry_1
_geom_bond_site_symmetry_2
O1 C7 1_555 1_555
N1 C1 1_555 1_555
N2 H1 1_555 1_555
N3 C11 1_555 1_555
C1 H2 1_555 1_555
H3 C1 1_555 1_555
C2 N2 1_555 1_555
H4 C2 1_555 1_555
H5 C2 1_555 1_555
C3 N2 1_555 1_555
H6 C3 1_555 1_555
H7 C3 1_555 1_555
C4 C3 1_555 1_555
C5 C4 1_555 1_555
H8 C5 1_555 1_555
C6 C5 1_555 1_555
H9 C6 1_555 1_555
C7 C6 1_555 1_555
C8 C7 1_555 1_555
H10 C8 1_555 1_555
C9 C4 1_555 1_555
H11 C9 1_555 1_555
C10 O1 1_555 1_555
H12 C10 1_555 1_555
H13 C10 1_555 1_555
C11 C10 1_555 1_555
H14 C11 1_555 1_555
H15 C11 1_555 1_555
O1A C7A 1_555 1_555
N2A H1A 1_555 1_555
C1A N1 1_555 1_555
H2A C1A 1_555 1_555
H3A C1A 1_555 1_555
C2A N2A 1_555 1_555
H4A C2A 1_555 1_555
H5A C2A 1_555 1_555
C3A N2A 1_555 1_555
H6A C3A 1_555 1_555
H7A C3A 1_555 1_555
C4A C3A 1_555 1_555
C5A C4A 1_555 1_555
H8A C5A 1_555 1_555
C6A C5A 1_555 1_555
H9A C6A 1_555 1_555
C7A C6A 1_555 1_555
C8A C7A 1_555 1_555
H10A C8A 1_555 1_555
C9A C4A 1_555 1_555
H11A C9A 1_555 1_555
C10A O1A 1_555 1_555
H12A C10A 1_555 1_555
H13A C10A 1_555 1_555
C11A N3 1_555 1_555
H14A C11A 1_555 1_555
H15A C11A 1_555 1_555
O1B C7B 1_555 1_555
N2B H1B 1_555 1_555
C1B N1 1_555 1_555
H2B C1B 1_555 1_555
H3B C1B 1_555 1_555
C2B N2B 1_555 1_555
H4B C2B 1_555 1_555
H5B C2B 1_555 1_555
C3B N2B 1_555 1_555
H6B C3B 1_555 1_555
H7B C3B 1_555 1_555
C4B C3B 1_555 1_555
C5B C4B 1_555 1_555
H8B C5B 1_555 1_555
C6B C5B 1_555 1_555
H9B C6B 1_555 1_555
C7B C6B 1_555 1_555
C8B C7B 1_555 1_555
H10B C8B 1_555 1_555
C9B C4B 1_555 1_555
H11B C9B 1_555 1_555
C10B O1B 1_555 1_555
H12B C10B 1_555 1_555
H13B C10B 1_555 1_555
C11B N3 1_555 1_555
H14B C11B 1_555 1_555
H15B C11B 1_555 1_555
C1 C2 1_555 1_555
C8 C9 1_555 1_555
C1A C2A 1_555 1_555
C8A C9A 1_555 1_555
C10A C11A 1_555 1_555
C1B C2B 1_555 1_555
C8B C9B 1_555 1_555
C10B C11B 1_555 1_555

#END
