
#######################################################################
#
#                 Cambridge Crystallographic Data Centre
#                                CCDC 
#
#######################################################################
#
# If this CIF has been generated from an entry in the Cambridge 
# Structural Database, then it will include bibliographic, chemical, 
# crystal, experimental, refinement or atomic coordinate data resulting 
# from the CCDC's data processing and validation procedures.
#
#######################################################################

data_YEDRUW
_chemical_formula_moiety         'C26 H31 N3'
_chemical_name_systematic        
N-(1-(6-(2-((2,6-Dimethylphenyl)amino)propan-2-yl)pyridin-2-yl)ethylidene)-2,6-dimethylaniline
_symmetry_cell_setting           monoclinic
_symmetry_space_group_name_H-M   'P 21/c'
_symmetry_Int_Tables_number      14
_space_group_name_Hall           '-P 2ybc'
loop_
_symmetry_equiv_pos_site_id
_symmetry_equiv_pos_as_xyz
1 x,y,z
2 -x,1/2+y,1/2-z
3 -x,-y,-z
4 x,1/2-y,1/2+z
_cell_length_a                   24.660(5)
_cell_length_b                   6.3263(13)
_cell_length_c                   14.002(3)
_cell_angle_alpha                90
_cell_angle_beta                 95.05(3)
_cell_angle_gamma                90
_cell_volume                     2175.92
_exptl_crystal_colour            yellow
_exptl_crystal_description       plate
_cell_formula_units_Z            4
loop_
_atom_site_label
_atom_site_type_symbol
_atom_site_fract_x
_atom_site_fract_y
_atom_site_fract_z
N1 N 0.13334(8) 0.7635(3) 0.18423(17)
N2 N 0.26331(8) 0.7615(3) 0.09201(16)
N3 N 0.36770(9) 0.7083(3) -0.07323(16)
C1 C 0.27049(10) 0.4842(4) -0.02210(19)
H1 H 0.2912 0.4140 -0.0646
C2 C 0.21182(10) 0.6999(4) 0.10223(18)
C3 C 0.29222(10) 0.6550(4) 0.03121(18)
C4 C 0.10219(10) 0.8733(4) 0.2495(2)
C5 C 0.20965(10) 1.0144(4) 0.2163(2)
H2 H 0.1861 1.0821 0.2581
H3 H 0.2185 1.1122 0.1676
H4 H 0.2425 0.9697 0.2527
C6 C 0.18127(10) 0.8257(4) 0.17021(18)
C7 C 0.34501(10) 1.0400(4) -0.15645(18)
C8 C 0.36204(11) 1.2243(4) -0.19845(19)
H5 H 0.3363 1.3237 -0.2211
C9 C 0.38459(10) 0.8938(4) -0.11871(18)
C10 C 0.44007(10) 0.9309(4) -0.12966(19)
C11 C 0.18771(10) 0.5283(4) 0.0522(2)
H6 H 0.1523 0.4874 0.0612
C12 C 0.10091(10) 0.7916(4) 0.3425(2)
C13 C 0.45516(11) 1.1157(4) -0.17485(19)
H7 H 0.4917 1.1395 -0.1832
C14 C 0.07135(10) 1.0504(4) 0.2191(2)
C15 C 0.35221(10) 0.7191(4) 0.02790(18)
C16 C 0.36313(11) 0.9346(4) 0.0736(2)
H8 H 0.4006 0.9720 0.0699
H9 H 0.3555 0.9297 0.1396
H10 H 0.3402 1.0384 0.0403
C17 C 0.03861(11) 1.0706(5) 0.3763(2)
H11 H 0.0174 1.1376 0.4190
C18 C 0.06849(11) 0.8940(5) 0.4050(2)
H12 H 0.0670 0.8424 0.4669
C19 C 0.28531(10) 0.9921(4) -0.1533(2)
H13 H 0.2755 1.0088 -0.0889
H14 H 0.2782 0.8493 -0.1741
H15 H 0.2642 1.0876 -0.1949
C20 C 0.41673(11) 1.2635(4) -0.20735(19)
H16 H 0.4274 1.3887 -0.2351
C21 C 0.03998(11) 1.1483(5) 0.2844(2)
H17 H 0.0197 1.2676 0.2659
C22 C 0.21780(11) 0.4203(4) -0.0111(2)
H18 H 0.2027 0.3061 -0.0458
C23 C 0.07133(12) 1.1328(5) 0.1181(2)
H19 H 0.0536 1.0326 0.0743
H20 H 0.1082 1.1534 0.1028
H21 H 0.0522 1.2650 0.1128
C24 C 0.38634(11) 0.5528(5) 0.0859(2)
H22 H 0.3814 0.4175 0.0553
H23 H 0.3749 0.5451 0.1496
H24 H 0.4241 0.5917 0.0891
C25 C 0.48340(10) 0.7772(5) -0.0907(2)
H25 H 0.5182 0.8217 -0.1094
H26 H 0.4751 0.6387 -0.1160
H27 H 0.4845 0.7735 -0.0220
C26 C 0.13389(12) 0.5987(5) 0.3724(2)
H28 H 0.1268 0.4893 0.3254
H29 H 0.1240 0.5501 0.4334
H30 H 0.1719 0.6338 0.3774
H31 H 0.3964(16) 0.606(6) -0.078(3)
loop_
_geom_bond_atom_site_label_1
_geom_bond_atom_site_label_2
_geom_bond_site_symmetry_1
_geom_bond_site_symmetry_2
N1 C4 1_555 1_555
N2 C2 1_555 1_555
N3 C9 1_555 1_555
C1 H1 1_555 1_555
C2 C6 1_555 1_555
C3 N2 1_555 1_555
C4 C12 1_555 1_555
C5 H2 1_555 1_555
H3 C5 1_555 1_555
H4 C5 1_555 1_555
C6 N1 1_555 1_555
C7 C8 1_555 1_555
C8 H5 1_555 1_555
C9 C7 1_555 1_555
C10 C9 1_555 1_555
C11 C2 1_555 1_555
H6 C11 1_555 1_555
C12 C18 1_555 1_555
C13 C10 1_555 1_555
H7 C13 1_555 1_555
C14 C4 1_555 1_555
C15 N3 1_555 1_555
C16 C15 1_555 1_555
H8 C16 1_555 1_555
H9 C16 1_555 1_555
H10 C16 1_555 1_555
C17 H11 1_555 1_555
C18 C17 1_555 1_555
H12 C18 1_555 1_555
C19 C7 1_555 1_555
H13 C19 1_555 1_555
H14 C19 1_555 1_555
H15 C19 1_555 1_555
C20 C8 1_555 1_555
H16 C20 1_555 1_555
C21 C14 1_555 1_555
H17 C21 1_555 1_555
C22 C1 1_555 1_555
H18 C22 1_555 1_555
C23 C14 1_555 1_555
H19 C23 1_555 1_555
H20 C23 1_555 1_555
H21 C23 1_555 1_555
C24 C15 1_555 1_555
H22 C24 1_555 1_555
H23 C24 1_555 1_555
H24 C24 1_555 1_555
C25 C10 1_555 1_555
H25 C25 1_555 1_555
H26 C25 1_555 1_555
H27 C25 1_555 1_555
C26 C12 1_555 1_555
H28 C26 1_555 1_555
H29 C26 1_555 1_555
H30 C26 1_555 1_555
H31 N3 1_555 1_555
C1 C3 1_555 1_555
C3 C15 1_555 1_555
C5 C6 1_555 1_555
C11 C22 1_555 1_555
C13 C20 1_555 1_555
C17 C21 1_555 1_555

#END
