
#######################################################################
#
#                 Cambridge Crystallographic Data Centre
#                                CCDC 
#
#######################################################################
#
# If this CIF has been generated from an entry in the Cambridge 
# Structural Database, then it will include bibliographic, chemical, 
# crystal, experimental, refinement or atomic coordinate data resulting 
# from the CCDC's data processing and validation procedures.
#
#######################################################################

data_YEDROQ
_chemical_formula_moiety         'C35 H51 N3'
_chemical_name_systematic        
2,6-bis(2-(2,6-diisopropylphenylamino)prop-2-yl)pyridine
_symmetry_cell_setting           orthorhombic
_symmetry_space_group_name_H-M   'P c c n'
_symmetry_Int_Tables_number      56
_space_group_name_Hall           '-P 2ab 2ac'
loop_
_symmetry_equiv_pos_site_id
_symmetry_equiv_pos_as_xyz
1 x,y,z
2 1/2-x,1/2-y,z
3 -x,1/2+y,1/2-z
4 1/2+x,-y,1/2-z
5 -x,-y,-z
6 1/2+x,1/2+y,-z
7 x,1/2-y,1/2+z
8 1/2-x,y,1/2+z
_cell_length_a                   15.873(3)
_cell_length_b                   32.135(6)
_cell_length_c                   12.193(2)
_cell_angle_alpha                90
_cell_angle_beta                 90
_cell_angle_gamma                90
_cell_volume                     6219.39
_exptl_crystal_colour            colorless
_exptl_crystal_description       block
_cell_formula_units_Z            8
loop_
_atom_site_label
_atom_site_type_symbol
_atom_site_fract_x
_atom_site_fract_y
_atom_site_fract_z
C1 C 0.1288(2) 0.59323(13) 0.3046(3)
C2 C 0.0845(3) 0.60190(13) 0.4001(4)
H1 H 0.1055 0.5939 0.4681
C3 C 0.0090(3) 0.62264(14) 0.3920(4)
H2 H -0.0213 0.6292 0.4549
C4 C -0.0219(3) 0.63376(13) 0.2892(4)
H3 H -0.0734 0.6473 0.2825
C5 C 0.0252(2) 0.62433(13) 0.1977(3)
C6 C 0.0010(2) 0.63591(13) 0.0800(3)
C7 C -0.0005(3) 0.59678(15) 0.0097(4)
H4 H -0.0399 0.5772 0.0400
H5 H 0.0547 0.5846 0.0084
H6 H -0.0172 0.6039 -0.0636
C8 C 0.0681(3) 0.66515(15) 0.0324(4)
H7 H 0.0520 0.6734 -0.0404
H8 H 0.1213 0.6510 0.0298
H9 H 0.0729 0.6894 0.0780
C9 C -0.1293(2) 0.66365(14) -0.0169(3)
C10 C -0.1852(2) 0.63345(14) -0.0569(4)
C11 C -0.2282(3) 0.64202(16) -0.1541(4)
H10 H -0.2645 0.6220 -0.1825
C12 C -0.2186(3) 0.67890(16) -0.2092(4)
H11 H -0.2466 0.6834 -0.2752
C13 C -0.1674(3) 0.70912(15) -0.1660(4)
H12 H -0.1628 0.7345 -0.2020
C14 C -0.1221(3) 0.70276(14) -0.0698(4)
C15 C -0.0718(3) 0.73973(14) -0.0248(4)
H13 H -0.0373 0.7292 0.0360
C16 C -0.0111(4) 0.75849(17) -0.1096(5)
H14 H -0.0429 0.7701 -0.1692
H15 H 0.0255 0.7371 -0.1370
H16 H 0.0219 0.7800 -0.0757
C17 C -0.1313(4) 0.77247(17) 0.0228(5)
H17 H -0.1645 0.7843 -0.0351
H18 H -0.0989 0.7940 0.0576
H19 H -0.1678 0.7597 0.0757
C18 C -0.2068(3) 0.59417(14) 0.0062(4)
H20 H -0.1675 0.5918 0.0678
C19 C -0.1983(3) 0.55492(15) -0.0639(4)
H21 H -0.2378 0.5560 -0.1234
H22 H -0.2096 0.5309 -0.0196
H23 H -0.1421 0.5532 -0.0927
C20 C -0.2959(3) 0.59712(16) 0.0529(4)
H24 H -0.3014 0.6224 0.0942
H25 H -0.3062 0.5737 0.1001
H26 H -0.3360 0.5971 -0.0060
C21 C 0.2099(2) 0.56651(13) 0.3053(3)
C22 C 0.1789(3) 0.52111(14) 0.3022(4)
H27 H 0.1512 0.5159 0.2335
H28 H 0.1399 0.5165 0.3612
H29 H 0.2260 0.5027 0.3098
C23 C 0.2613(3) 0.57365(16) 0.4088(4)
H30 H 0.3134 0.5586 0.4037
H31 H 0.2301 0.5640 0.4713
H32 H 0.2728 0.6028 0.4168
C24 C 0.3423(2) 0.59215(14) 0.2074(3)
C25 C 0.4105(2) 0.56421(15) 0.2158(3)
C26 C 0.4919(3) 0.58031(16) 0.2155(4)
H33 H 0.5374 0.5621 0.2208
C27 C 0.5070(3) 0.62227(17) 0.2078(4)
H34 H 0.5618 0.6324 0.2110
C28 C 0.4402(3) 0.64924(16) 0.1951(4)
H35 H 0.4507 0.6775 0.1869
C29 C 0.3573(3) 0.63511(14) 0.1945(3)
C30 C 0.2867(3) 0.66606(15) 0.1775(4)
H36 H 0.2362 0.6498 0.1596
C31 C 0.2670(5) 0.6896(2) 0.2811(5)
H37 H 0.3148 0.7062 0.3014
H38 H 0.2546 0.6703 0.3389
H39 H 0.2192 0.7073 0.2690
C32 C 0.3016(3) 0.69519(18) 0.0822(5)
H40 H 0.2507 0.7101 0.0663
H41 H 0.3182 0.6794 0.0190
H42 H 0.3454 0.7146 0.1008
C33 C 0.3980(3) 0.51724(15) 0.2186(4)
H43 H 0.3373 0.5121 0.2238
C34 C 0.4390(4) 0.49595(18) 0.3156(5)
H44 H 0.4988 0.5002 0.3128
H45 H 0.4272 0.4667 0.3130
H46 H 0.4171 0.5074 0.3824
C35 C 0.4282(3) 0.49771(17) 0.1124(4)
H47 H 0.4862 0.5048 0.1005
H48 H 0.3948 0.5079 0.0525
H49 H 0.4226 0.4680 0.1169
N1 N 0.10021(19) 0.60447(11) 0.2059(3)
N2 N 0.2590(2) 0.57461(11) 0.2039(3)
N3 N -0.0847(2) 0.65555(12) 0.0845(3)
H50 H -0.072(3) 0.6808(16) 0.113(4)
H51 H 0.229(3) 0.5873(13) 0.159(4)
loop_
_geom_bond_atom_site_label_1
_geom_bond_atom_site_label_2
_geom_bond_site_symmetry_1
_geom_bond_site_symmetry_2
C1 C2 1_555 1_555
C2 H1 1_555 1_555
C3 C2 1_555 1_555
H2 C3 1_555 1_555
C4 C3 1_555 1_555
H3 C4 1_555 1_555
C5 C4 1_555 1_555
C6 C5 1_555 1_555
C7 C6 1_555 1_555
H4 C7 1_555 1_555
H5 C7 1_555 1_555
H6 C7 1_555 1_555
C8 C6 1_555 1_555
H7 C8 1_555 1_555
H8 C8 1_555 1_555
H9 C8 1_555 1_555
C9 C10 1_555 1_555
C10 C11 1_555 1_555
C11 H10 1_555 1_555
C12 C11 1_555 1_555
H11 C12 1_555 1_555
C13 C12 1_555 1_555
H12 C13 1_555 1_555
C14 C9 1_555 1_555
C15 C14 1_555 1_555
H13 C15 1_555 1_555
C16 C15 1_555 1_555
H14 C16 1_555 1_555
H15 C16 1_555 1_555
H16 C16 1_555 1_555
C17 C15 1_555 1_555
H17 C17 1_555 1_555
H18 C17 1_555 1_555
H19 C17 1_555 1_555
C18 C10 1_555 1_555
H20 C18 1_555 1_555
C19 C18 1_555 1_555
H21 C19 1_555 1_555
H22 C19 1_555 1_555
H23 C19 1_555 1_555
C20 C18 1_555 1_555
H24 C20 1_555 1_555
H25 C20 1_555 1_555
H26 C20 1_555 1_555
C21 C1 1_555 1_555
C22 C21 1_555 1_555
H27 C22 1_555 1_555
H28 C22 1_555 1_555
H29 C22 1_555 1_555
C23 C21 1_555 1_555
H30 C23 1_555 1_555
H31 C23 1_555 1_555
H32 C23 1_555 1_555
C24 C25 1_555 1_555
C25 C26 1_555 1_555
C26 H33 1_555 1_555
C27 C26 1_555 1_555
H34 C27 1_555 1_555
C28 C27 1_555 1_555
H35 C28 1_555 1_555
C29 C24 1_555 1_555
C30 C29 1_555 1_555
H36 C30 1_555 1_555
C31 C30 1_555 1_555
H37 C31 1_555 1_555
H38 C31 1_555 1_555
H39 C31 1_555 1_555
C32 C30 1_555 1_555
H40 C32 1_555 1_555
H41 C32 1_555 1_555
H42 C32 1_555 1_555
C33 C25 1_555 1_555
H43 C33 1_555 1_555
C34 C33 1_555 1_555
H44 C34 1_555 1_555
H45 C34 1_555 1_555
H46 C34 1_555 1_555
C35 C33 1_555 1_555
H47 C35 1_555 1_555
H48 C35 1_555 1_555
H49 C35 1_555 1_555
N1 C1 1_555 1_555
N2 C21 1_555 1_555
N3 C6 1_555 1_555
H50 N3 1_555 1_555
H51 N2 1_555 1_555
C5 N1 1_555 1_555
C9 N3 1_555 1_555
C13 C14 1_555 1_555
C24 N2 1_555 1_555
C28 C29 1_555 1_555

#END
