
#######################################################################
#
#                 Cambridge Crystallographic Data Centre
#                                CCDC 
#
#######################################################################
#
# If this CIF has been generated from an entry in the Cambridge 
# Structural Database, then it will include bibliographic, chemical, 
# crystal, experimental, refinement or atomic coordinate data resulting 
# from the CCDC's data processing and validation procedures.
#
#######################################################################

data_YEDXOV
_chemical_formula_moiety         'C24 H20 N4 O1 S1'
_chemical_name_systematic        
6-(Biphenyl-4-yl)-3-(4-ethoxyphenyl)-7H-1,2,4-triazolo(3,4-b)(1,3,4)thiadiazine
_symmetry_cell_setting           monoclinic
_symmetry_space_group_name_H-M   'P 21/c'
_symmetry_Int_Tables_number      14
_space_group_name_Hall           '-P 2ybc'
loop_
_symmetry_equiv_pos_site_id
_symmetry_equiv_pos_as_xyz
1 x,y,z
2 -x,1/2+y,1/2-z
3 -x,-y,-z
4 x,1/2-y,1/2+z
_cell_length_a                   13.1290(10)
_cell_length_b                   17.3638(13)
_cell_length_c                   9.2648(7)
_cell_angle_alpha                90
_cell_angle_beta                 101.1890(10)
_cell_angle_gamma                90
_cell_volume                     2071.94
_exptl_crystal_colour            colorless
_exptl_crystal_description       block
_cell_formula_units_Z            4
_exptl_crystal_recrystallization_method ethanol
loop_
_atom_site_label
_atom_site_type_symbol
_atom_site_fract_x
_atom_site_fract_y
_atom_site_fract_z
S1 S 1.03968(7) 0.10287(5) 0.54915(10)
O1 O 0.64338(18) 0.47291(11) 0.9013(2)
N1 N 0.85616(17) 0.15744(13) 0.6941(2)
N2 N 0.92066(17) 0.21039(12) 0.6444(2)
N3 N 1.0268(2) 0.25926(16) 0.5109(3)
N4 N 0.96741(19) 0.31833(14) 0.5536(3)
C1 C 0.6381(2) -0.12520(15) 0.9686(3)
C2 C 0.6851(3) -0.17667(16) 1.0763(4)
H1 H 0.7571 -0.1800 1.0993
C3 C 0.6263(3) -0.22284(18) 1.1495(4)
H2 H 0.6591 -0.2566 1.2217
C4 C 0.5199(3) -0.2195(2) 1.1171(4)
H3 H 0.4807 -0.2502 1.1679
C5 C 0.4721(3) -0.1705(2) 1.0090(4)
H4 H 0.4000 -0.1687 0.9849
C6 C 0.5303(2) -0.12383(18) 0.9358(4)
H5 H 0.4967 -0.0907 0.8630
C7 C 0.7013(2) -0.07228(15) 0.8957(3)
C8 C 0.8014(2) -0.09118(16) 0.8817(4)
H6 H 0.8277 -0.1396 0.9119
C9 C 0.8630(2) -0.04006(16) 0.8242(3)
H7 H 0.9301 -0.0545 0.8173
C10 C 0.8273(2) 0.03246(15) 0.7763(3)
C11 C 0.7255(2) 0.05077(16) 0.7860(3)
H8 H 0.6984 0.0984 0.7523
C12 C 0.6647(2) -0.00010(15) 0.8441(3)
H9 H 0.5971 0.0139 0.8493
C13 C 0.8950(2) 0.09014(16) 0.7255(3)
C14 C 1.0058(2) 0.07123(19) 0.7193(4)
H10 H 1.0161 0.0160 0.7291
H11 H 1.0515 0.0958 0.8012
C15 C 0.9972(2) 0.19616(17) 0.5659(3)
C16 C 0.9041(2) 0.28864(15) 0.6325(3)
C17 C 0.8322(2) 0.33370(15) 0.7006(3)
C18 C 0.8177(2) 0.41055(16) 0.6603(3)
H12 H 0.8503 0.4301 0.5874
C19 C 0.7565(2) 0.45857(17) 0.7252(3)
H13 H 0.7492 0.5100 0.6974
C20 C 0.7059(2) 0.43051(16) 0.8316(3)
C21 C 0.7177(2) 0.35335(16) 0.8718(3)
H14 H 0.6831 0.3337 0.9424
C22 C 0.7801(2) 0.30592(16) 0.8079(3)
H15 H 0.7878 0.2546 0.8365
C23 C 0.6352(3) 0.55424(18) 0.8700(4)
H16 H 0.6054 0.5622 0.7669
H17 H 0.7037 0.5774 0.8901
C24 C 0.5702(4) 0.5904(2) 0.9606(5)
H18 H 0.5033 0.5661 0.9431
H19 H 0.5622 0.6441 0.9361
H20 H 0.6021 0.5851 1.0625
loop_
_geom_bond_atom_site_label_1
_geom_bond_atom_site_label_2
_geom_bond_site_symmetry_1
_geom_bond_site_symmetry_2
S1 C14 1_555 1_555
O1 C20 1_555 1_555
N1 N2 1_555 1_555
N2 C15 1_555 1_555
N3 N4 1_555 1_555
N4 C16 1_555 1_555
C1 C2 1_555 1_555
C2 H1 1_555 1_555
C3 C2 1_555 1_555
H2 C3 1_555 1_555
C4 C3 1_555 1_555
H3 C4 1_555 1_555
C5 C4 1_555 1_555
H4 C5 1_555 1_555
C6 C1 1_555 1_555
H5 C6 1_555 1_555
C7 C1 1_555 1_555
C8 C7 1_555 1_555
H6 C8 1_555 1_555
C9 C8 1_555 1_555
H7 C9 1_555 1_555
C10 C9 1_555 1_555
C11 C10 1_555 1_555
H8 C11 1_555 1_555
C12 C7 1_555 1_555
H9 C12 1_555 1_555
C13 N1 1_555 1_555
C14 C13 1_555 1_555
H10 C14 1_555 1_555
H11 C14 1_555 1_555
C15 S1 1_555 1_555
C16 N2 1_555 1_555
C17 C16 1_555 1_555
C18 C17 1_555 1_555
H12 C18 1_555 1_555
C19 C18 1_555 1_555
H13 C19 1_555 1_555
C20 C19 1_555 1_555
C21 C20 1_555 1_555
H14 C21 1_555 1_555
C22 C17 1_555 1_555
H15 C22 1_555 1_555
C23 O1 1_555 1_555
H16 C23 1_555 1_555
H17 C23 1_555 1_555
C24 C23 1_555 1_555
H18 C24 1_555 1_555
H19 C24 1_555 1_555
H20 C24 1_555 1_555
N3 C15 1_555 1_555
C5 C6 1_555 1_555
C10 C13 1_555 1_555
C11 C12 1_555 1_555
C21 C22 1_555 1_555

#END
