
#######################################################################
#
#                 Cambridge Crystallographic Data Centre
#                                CCDC 
#
#######################################################################
#
# If this CIF has been generated from an entry in the Cambridge 
# Structural Database, then it will include bibliographic, chemical, 
# crystal, experimental, refinement or atomic coordinate data resulting 
# from the CCDC's data processing and validation procedures.
#
#######################################################################

data_YEGBES
_chemical_formula_moiety         'C18 H21 Br1 Cl1 N1 O5'
_chemical_name_systematic        
"4'-Bromo-5'-chloro-2',7'-dimethyl-6',8'-dioxo-4,4',5,6',7',8'-hexahydro-2'H,3H-spiro(furan-2,3'-isoquinolin)-7'-yl propanoate"
_symmetry_cell_setting           triclinic
_symmetry_space_group_name_H-M   'P -1'
_symmetry_Int_Tables_number      2
_space_group_name_Hall           '-P 1'
loop_
_symmetry_equiv_pos_site_id
_symmetry_equiv_pos_as_xyz
1 x,y,z
2 -x,-y,-z
_cell_length_a                   8.0160(10)
_cell_length_b                   10.2825(12)
_cell_length_c                   12.1920(15)
_cell_angle_alpha                75.661(2)
_cell_angle_beta                 77.684(2)
_cell_angle_gamma                87.245(2)
_cell_volume                     951.195
_exptl_crystal_colour            yellow
_cell_formula_units_Z            2
loop_
_atom_site_label
_atom_site_type_symbol
_atom_site_fract_x
_atom_site_fract_y
_atom_site_fract_z
Br1 Br 0.45136(5) 0.17533(5) 1.16043(4)
Cl1 Cl 0.78915(14) -0.05972(10) 1.03993(10)
O1 O 0.9332(4) 0.3224(3) 1.1399(3)
O2 O 0.8999(5) 0.0157(3) 0.7859(3)
O3 O 0.7664(6) 0.4711(3) 0.7272(3)
O4 O 0.9059(4) 0.2615(3) 0.6371(2)
O5 O 1.1063(5) 0.2874(4) 0.7306(3)
N1 N 0.7081(5) 0.4476(3) 1.0745(3)
C1 C 0.9748(6) 0.2883(5) 1.2530(4)
H1 H 1.0817 0.3300 1.2512
H2 H 0.9843 0.1919 1.2806
C2 C 0.8304(7) 0.3414(5) 1.3280(4)
H3 H 0.8456 0.4361 1.3217
H4 H 0.8177 0.2927 1.4083
C3 C 0.6801(6) 0.3179(4) 1.2796(4)
H5 H 0.5944 0.3866 1.2879
H6 H 0.6287 0.2308 1.3192
C4 C 0.7517(5) 0.3240(4) 1.1530(3)
C5 C 0.7017(5) 0.2021(4) 1.1173(4)
C6 C 0.7489(5) 0.2083(4) 0.9909(3)
C7 C 0.7438(5) 0.3404(4) 0.9176(3)
C8 C 0.7197(6) 0.4504(4) 0.9645(4)
H7 H 0.7109 0.5336 0.9144
C9 C 0.7863(5) 0.0986(4) 0.9488(3)
C10 C 0.8366(5) 0.1073(4) 0.8259(4)
C11 C 0.7861(6) 0.2357(4) 0.7462(4)
C12 C 0.7687(6) 0.3634(4) 0.7934(4)
C13 C 0.7147(8) 0.5781(5) 1.1068(5)
H8 H 0.8195 0.5840 1.1314
H9 H 0.6198 0.5831 1.1687
H10 H 0.7089 0.6509 1.0410
C14 C 0.6176(7) 0.2104(5) 0.7196(5)
H11 H 0.5898 0.2855 0.6619
H12 H 0.5302 0.1987 0.7888
H13 H 0.6250 0.1307 0.6912
C15 C 1.0657(7) 0.2855(5) 0.6441(4)
C16 C 1.1868(9) 0.3068(6) 0.5269(5)
H14 H 1.1390 0.3735 0.4706
H15 H 1.2946 0.3415 0.5319
C17 C 1.2179(12) 0.1843(9) 0.4871(8)
H16 H 1.1124 0.1628 0.4683
H17 H 1.3011 0.2066 0.4146
C18 C 1.2731(14) 0.0654(10) 0.5528(10)
H18 H 1.3676 0.0844 0.5834
H19 H 1.3084 0.0037 0.5048
H20 H 1.1814 0.0265 0.6154
H21 H 0.734(7) 0.115(3) 1.153(4)
loop_
_geom_bond_atom_site_label_1
_geom_bond_atom_site_label_2
_geom_bond_site_symmetry_1
_geom_bond_site_symmetry_2
Br1 C5 1_555 1_555
Cl1 C9 1_555 1_555
O1 C1 1_555 1_555
O2 C10 1_555 1_555
O3 C12 1_555 1_555
O4 C11 1_555 1_555
O5 C15 1_555 1_555
N1 C4 1_555 1_555
C1 H1 1_555 1_555
H2 C1 1_555 1_555
C2 C1 1_555 1_555
H3 C2 1_555 1_555
H4 C2 1_555 1_555
C3 C2 1_555 1_555
H5 C3 1_555 1_555
H6 C3 1_555 1_555
C4 O1 1_555 1_555
C5 C4 1_555 1_555
C6 C5 1_555 1_555
C7 C6 1_555 1_555
C8 N1 1_555 1_555
H7 C8 1_555 1_555
C9 C6 1_555 1_555
C10 C9 1_555 1_555
C11 C10 1_555 1_555
C12 C7 1_555 1_555
C13 N1 1_555 1_555
H8 C13 1_555 1_555
H9 C13 1_555 1_555
H10 C13 1_555 1_555
C14 C11 1_555 1_555
H11 C14 1_555 1_555
H12 C14 1_555 1_555
H13 C14 1_555 1_555
C15 O4 1_555 1_555
C16 C15 1_555 1_555
H14 C16 1_555 1_555
H15 C16 1_555 1_555
C17 C16 1_555 1_555
H16 C17 1_555 1_555
H17 C17 1_555 1_555
C18 C17 1_555 1_555
H18 C18 1_555 1_555
H19 C18 1_555 1_555
H20 C18 1_555 1_555
H21 C5 1_555 1_555
C3 C4 1_555 1_555
C7 C8 1_555 1_555
C11 C12 1_555 1_555

#END
