
#######################################################################
#
#                 Cambridge Crystallographic Data Centre
#                                CCDC 
#
#######################################################################
#
# If this CIF has been generated from an entry in the Cambridge 
# Structural Database, then it will include bibliographic, chemical, 
# crystal, experimental, refinement or atomic coordinate data resulting 
# from the CCDC's data processing and validation procedures.
#
#######################################################################

data_YEGWAJ
_chemical_formula_moiety         'C54 H50 O2,2(C4 H8 O2)'
_chemical_name_systematic        
"3,3'-bis(2,5-Dimethylphenyl)methyl-2,2'-dihydroxy-1,1'-binaphthalene ethyl acetate solvate"
_symmetry_cell_setting           monoclinic
_symmetry_space_group_name_H-M   'P 21'
_symmetry_Int_Tables_number      4
_space_group_name_Hall           'P 2yb'
loop_
_symmetry_equiv_pos_site_id
_symmetry_equiv_pos_as_xyz
1 x,y,z
2 -x,1/2+y,-z
_cell_length_a                   11.701(2)
_cell_length_b                   12.244(2)
_cell_length_c                   18.506(4)
_cell_angle_alpha                90
_cell_angle_beta                 96.23(3)
_cell_angle_gamma                90
_cell_volume                     2635.64
_chemical_melting_point          '314-315 deg.C'
_cell_formula_units_Z            2
loop_
_atom_site_label
_atom_site_type_symbol
_atom_site_fract_x
_atom_site_fract_y
_atom_site_fract_z
O1 O 0.2478(2) 0.8555(2) 0.37047(14)
H1 H 0.2953 0.8771 0.3443
O2 O 0.14486(19) 0.8006(3) 0.17927(13)
H2 H 0.1198 0.7530 0.2044
C1 C 0.3217(3) 0.7498(3) 0.24637(18)
C2 C 0.2628(3) 0.6914(3) 0.30260(18)
C3 C 0.2614(3) 0.7985(3) 0.18833(18)
C4 C 0.2330(3) 0.7467(3) 0.36162(19)
C5 C 0.1850(3) 0.6935(3) 0.41927(18)
C6 C 0.3138(3) 0.8535(3) 0.13388(18)
C7 C 0.1644(3) 0.5845(3) 0.41323(19)
H3 H 0.1324 0.5485 0.4505
C8 C 0.4304(3) 0.8601(3) 0.14177(19)
H4 H 0.4664 0.8970 0.1066
C9 C 0.6191(3) 0.8202(4) 0.2093(2)
H5 H 0.6557 0.8583 0.1749
C10 C 0.1679(4) 0.4108(4) 0.3457(2)
H6 H 0.1351 0.3745 0.3825
C11 C 0.1938(4) 0.3549(4) 0.2867(3)
H7 H 0.1780 0.2805 0.2829
C12 C 0.6841(3) 0.7720(4) 0.2667(2)
H8 H 0.7637 0.7794 0.2721
C13 C 0.6307(4) 0.7130(4) 0.3161(2)
H9 H 0.6751 0.6778 0.3538
C14 C 0.2442(5) 0.4078(4) 0.2315(3)
H10 H 0.2622 0.3685 0.1913
C15 C 0.2674(4) 0.5164(4) 0.2361(2)
H11 H 0.3007 0.5507 0.1987
C16 C 0.5142(3) 0.7047(3) 0.3113(2)
H12 H 0.4801 0.6659 0.3465
C17 C 0.1902(3) 0.5243(3) 0.3519(2)
C18 C 0.4449(3) 0.7544(3) 0.25358(18)
C19 C 0.4991(3) 0.8132(3) 0.20129(19)
C20 C 0.2419(3) 0.5778(3) 0.29633(19)
C21 C 0.1638(3) 0.7605(3) 0.48535(17)
H13 H 0.1226 0.8262 0.4669
C22 C 0.2383(3) 0.8987(3) 0.06927(18)
H14 H 0.1711 0.9305 0.0886
C23 C 0.2740(3) 0.7997(4) 0.52803(19)
C24 C 0.2968(3) 0.9912(3) 0.0338(2)
C25 C 0.3777(3) 0.7516(4) 0.5207(2)
H15 H 0.3803 0.6922 0.4896
C26 C 0.2993(4) 1.0937(4) 0.0650(3)
C27 C 0.4802(3) 0.7894(5) 0.5588(2)
C28 C 0.3567(5) 1.1760(5) 0.0336(4)
H16 H 0.3586 1.2455 0.0541
C29 C 0.4752(5) 0.8761(5) 0.6043(3)
H17 H 0.5419 0.9024 0.6304
C30 C 0.4107(5) 1.1583(5) -0.0264(4)
H18 H 0.4497 1.2155 -0.0459
C31 C 0.3706(5) 0.9247(5) 0.6115(3)
H19 H 0.3683 0.9836 0.6431
C32 C 0.4092(4) 1.0582(5) -0.0589(3)
C33 C 0.2698(4) 0.8892(4) 0.5738(2)
C34 C 0.3505(4) 0.9741(4) -0.0276(2)
H20 H 0.3479 0.9051 -0.0487
C35 C 0.5933(4) 0.7352(5) 0.5469(3)
H21 H 0.6549 0.7705 0.5765
H22 H 0.6058 0.7411 0.4967
H23 H 0.5906 0.6595 0.5602
C36 C 0.4671(5) 1.0346(7) -0.1254(3)
H24 H 0.5035 1.0997 -0.1405
H25 H 0.4111 1.0101 -0.1637
H26 H 0.5240 0.9787 -0.1147
C37 C 0.1600(4) 0.9475(4) 0.5829(3)
H27 H 0.1751 1.0067 0.6165
H28 H 0.1068 0.8975 0.6012
H29 H 0.1274 0.9755 0.5367
C38 C 0.2398(5) 1.1168(4) 0.1323(3)
H30 H 0.2508 1.1921 0.1459
H31 H 0.2719 1.0710 0.1714
H32 H 0.1591 1.1021 0.1222
C39 C 0.0851(3) 0.7025(3) 0.53211(19)
C40 C 0.1927(3) 0.8115(4) 0.01574(19)
C41 C 0.2499(4) 0.7149(4) 0.0097(2)
H33 H 0.3179 0.7036 0.0397
C42 C 0.1275(4) 0.6431(4) 0.5926(2)
H34 H 0.2067 0.6416 0.6049
C43 C 0.0602(4) 0.5865(4) 0.6357(2)
C44 C 0.2118(5) 0.6336(5) -0.0386(3)
C45 C -0.0540(5) 0.5915(5) 0.6178(3)
H35 H -0.1025 0.5544 0.6459
C46 C 0.1111(5) 0.6531(6) -0.0820(3)
H36 H 0.0834 0.6006 -0.1158
C47 C -0.1005(4) 0.6507(5) 0.5585(3)
H37 H -0.1800 0.6525 0.5479
C48 C 0.0521(5) 0.7450(6) -0.0768(3)
H38 H -0.0164 0.7542 -0.1067
C49 C -0.0333(3) 0.7078(4) 0.5138(2)
C50 C 0.0888(4) 0.8281(4) -0.0283(2)
C51 C -0.0850(4) 0.7707(6) 0.4482(3)
H39 H -0.1673 0.7651 0.4445
H40 H -0.0578 0.7411 0.4052
H41 H -0.0629 0.8461 0.4532
C52 C 0.0203(4) 0.9292(5) -0.0239(3)
H42 H -0.0474 0.9252 -0.0581
H43 H 0.0656 0.9911 -0.0350
H44 H -0.0016 0.9368 0.0244
C53 C 0.1094(5) 0.5226(6) 0.7011(3)
H45 H 0.0481 0.4889 0.7236
H46 H 0.1513 0.5709 0.7353
H47 H 0.1602 0.4673 0.6864
C54 C 0.2775(6) 0.5309(5) -0.0444(4)
H48 H 0.2379 0.4850 -0.0811
H49 H 0.2842 0.4936 0.0015
H50 H 0.3528 0.5476 -0.0574
O3 O 0.8708(4) 0.5604(4) 0.1721(2)
O4 O 0.9756(3) 0.6847(4) 0.2324(2)
C55 C 0.8332(8) 0.3900(7) 0.2235(4)
H51 H 0.8543 0.3419 0.2637
H52 H 0.8460 0.3539 0.1790
H53 H 0.7534 0.4089 0.2223
C56 C 0.9001(8) 0.4847(9) 0.2313(4)
H54 H 0.9807 0.4652 0.2330
H55 H 0.8885 0.5199 0.2769
C57 C 0.9186(4) 0.6563(6) 0.1784(3)
C58 C 0.8936(5) 0.7228(6) 0.1134(3)
H56 H 0.9304 0.7926 0.1208
H57 H 0.8120 0.7329 0.1037
H58 H 0.9219 0.6867 0.0729
O5 O 0.3873(4) 0.0059(3) 0.3077(2)
O6 O 0.5610(4) 0.0818(4) 0.3086(2)
C59 C 0.6059(8) 0.1998(9) 0.2159(5)
H59 H 0.5769 0.2355 0.1715
H60 H 0.6691 0.1533 0.2072
H61 H 0.6316 0.2536 0.2517
C60 C 0.5195(6) 0.1375(7) 0.2408(4)
H62 H 0.4927 0.0838 0.2043
H63 H 0.4552 0.1842 0.2490
C61 C 0.4843(6) 0.0184(4) 0.3359(3)
C62 C 0.5379(6) -0.0353(6) 0.4025(3)
H64 H 0.4823 -0.0808 0.4223
H65 H 0.5649 0.0193 0.4375
H66 H 0.6015 -0.0791 0.3910
loop_
_geom_bond_atom_site_label_1
_geom_bond_atom_site_label_2
_geom_bond_site_symmetry_1
_geom_bond_site_symmetry_2
O1 H1 1_555 1_555
O2 H2 1_555 1_555
O3 C56 1_555 1_555
O4 C57 1_555 1_555
O5 C61 1_555 1_555
O6 C60 1_555 1_555
C1 C2 1_555 1_555
C2 C4 1_555 1_555
C3 O2 1_555 1_555
C4 O1 1_555 1_555
C5 C4 1_555 1_555
C6 C3 1_555 1_555
C7 C5 1_555 1_555
H3 C7 1_555 1_555
C8 C6 1_555 1_555
H4 C8 1_555 1_555
C9 H5 1_555 1_555
C10 H6 1_555 1_555
C11 C10 1_555 1_555
H7 C11 1_555 1_555
C12 C9 1_555 1_555
H8 C12 1_555 1_555
C13 C12 1_555 1_555
H9 C13 1_555 1_555
C14 C11 1_555 1_555
H10 C14 1_555 1_555
C15 C14 1_555 1_555
H11 C15 1_555 1_555
C16 C13 1_555 1_555
H12 C16 1_555 1_555
C17 C7 1_555 1_555
C18 C1 1_555 1_555
C19 C8 1_555 1_555
C20 C2 1_555 1_555
C21 C5 1_555 1_555
H13 C21 1_555 1_555
C22 C6 1_555 1_555
H14 C22 1_555 1_555
C23 C21 1_555 1_555
C24 C22 1_555 1_555
C25 C23 1_555 1_555
H15 C25 1_555 1_555
C26 C24 1_555 1_555
C27 C25 1_555 1_555
C28 C26 1_555 1_555
H16 C28 1_555 1_555
C29 C27 1_555 1_555
H17 C29 1_555 1_555
C30 C28 1_555 1_555
H18 C30 1_555 1_555
C31 C29 1_555 1_555
H19 C31 1_555 1_555
C32 C30 1_555 1_555
C33 C23 1_555 1_555
C34 C24 1_555 1_555
H20 C34 1_555 1_555
C35 C27 1_555 1_555
H21 C35 1_555 1_555
H22 C35 1_555 1_555
H23 C35 1_555 1_555
C36 C32 1_555 1_555
H24 C36 1_555 1_555
H25 C36 1_555 1_555
H26 C36 1_555 1_555
C37 C33 1_555 1_555
H27 C37 1_555 1_555
H28 C37 1_555 1_555
H29 C37 1_555 1_555
C38 C26 1_555 1_555
H30 C38 1_555 1_555
H31 C38 1_555 1_555
H32 C38 1_555 1_555
C39 C21 1_555 1_555
C40 C22 1_555 1_555
C41 C40 1_555 1_555
H33 C41 1_555 1_555
C42 C39 1_555 1_555
H34 C42 1_555 1_555
C43 C42 1_555 1_555
C44 C41 1_555 1_555
C45 C43 1_555 1_555
H35 C45 1_555 1_555
C46 C44 1_555 1_555
H36 C46 1_555 1_555
C47 C45 1_555 1_555
H37 C47 1_555 1_555
C48 C46 1_555 1_555
H38 C48 1_555 1_555
C49 C39 1_555 1_555
C50 C40 1_555 1_555
C51 C49 1_555 1_555
H39 C51 1_555 1_555
H40 C51 1_555 1_555
H41 C51 1_555 1_555
C52 C50 1_555 1_555
H42 C52 1_555 1_555
H43 C52 1_555 1_555
H44 C52 1_555 1_555
C53 C43 1_555 1_555
H45 C53 1_555 1_555
H46 C53 1_555 1_555
H47 C53 1_555 1_555
C54 C44 1_555 1_555
H48 C54 1_555 1_555
H49 C54 1_555 1_555
H50 C54 1_555 1_555
C55 H51 1_555 1_555
H52 C55 1_555 1_555
H53 C55 1_555 1_555
C56 C55 1_555 1_555
H54 C56 1_555 1_555
H55 C56 1_555 1_555
C57 O3 1_555 1_555
C58 C57 1_555 1_555
H56 C58 1_555 1_555
H57 C58 1_555 1_555
H58 C58 1_555 1_555
C59 H59 1_555 1_555
H60 C59 1_555 1_555
H61 C59 1_555 1_555
C60 C59 1_555 1_555
H62 C60 1_555 1_555
H63 C60 1_555 1_555
C61 O6 1_555 1_555
C62 C61 1_555 1_555
H64 C62 1_555 1_555
H65 C62 1_555 1_555
H66 C62 1_555 1_555
C1 C3 1_555 1_555
C9 C19 1_555 1_555
C10 C17 1_555 1_555
C15 C20 1_555 1_555
C16 C18 1_555 1_555
C17 C20 1_555 1_555
C18 C19 1_555 1_555
C31 C33 1_555 1_555
C32 C34 1_555 1_555
C47 C49 1_555 1_555
C48 C50 1_555 1_555

#END
