
#######################################################################
#
#                 Cambridge Crystallographic Data Centre
#                                CCDC 
#
#######################################################################
#
# If this CIF has been generated from an entry in the Cambridge 
# Structural Database, then it will include bibliographic, chemical, 
# crystal, experimental, refinement or atomic coordinate data resulting 
# from the CCDC's data processing and validation procedures.
#
#######################################################################

data_YEGZOC
_chemical_formula_moiety         'C16 H14 N4 O4'
_chemical_name_systematic        
'2-(2-(5-cyano-1-ethyl-4-methyl-2,6-dioxo-1,6-dihydropyridin-3(2H)-ylidene)hydrazino)benzoic acid'
_symmetry_cell_setting           monoclinic
_symmetry_space_group_name_H-M   'P 21/c'
_symmetry_Int_Tables_number      14
_space_group_name_Hall           '-P 2ybc'
loop_
_symmetry_equiv_pos_site_id
_symmetry_equiv_pos_as_xyz
1 x,y,z
2 -x,1/2+y,1/2-z
3 -x,-y,-z
4 x,1/2-y,1/2+z
_cell_length_a                   5.5572(19)
_cell_length_b                   16.423(6)
_cell_length_c                   16.447(6)
_cell_angle_alpha                90
_cell_angle_beta                 93.609(6)
_cell_angle_gamma                90
_cell_volume                     1498.07
_exptl_crystal_colour            yellow
_exptl_crystal_description       block
_cell_formula_units_Z            4
loop_
_atom_site_label
_atom_site_type_symbol
_atom_site_fract_x
_atom_site_fract_y
_atom_site_fract_z
C1 C -0.0107(4) 0.21824(12) 0.14521(11)
C2 C -0.1680(4) 0.16342(13) 0.10281(12)
C3 C -0.3639(4) 0.19481(14) 0.05589(13)
H1 H -0.4697 0.1592 0.0280
C4 C -0.4044(4) 0.27766(15) 0.04992(14)
H2 H -0.5361 0.2977 0.0183
C5 C -0.2472(4) 0.33030(14) 0.09137(14)
H3 H -0.2733 0.3861 0.0875
C6 C -0.0517(4) 0.30127(13) 0.13846(14)
H4 H 0.0532 0.3376 0.1658
C7 C -0.1274(4) 0.07409(13) 0.10633(13)
C8 C 0.5251(4) 0.21796(12) 0.27673(12)
C9 C 0.5906(4) 0.13197(12) 0.28912(12)
C10 C 0.9489(4) 0.17397(13) 0.37346(13)
C11 C 0.8734(4) 0.25838(12) 0.36017(12)
C12 C 0.6719(4) 0.28144(12) 0.31439(12)
C13 C 0.8631(4) 0.02866(12) 0.35002(14)
H5 H 1.0358 0.0232 0.3612
H6 H 0.8175 -0.0028 0.3016
C14 C 0.7339(5) -0.00378(16) 0.42090(17)
H7 H 0.7829 0.0264 0.4691
H8 H 0.7733 -0.0602 0.4290
H9 H 0.5630 0.0018 0.4098
C15 C 1.0274(4) 0.31797(13) 0.40106(13)
C16 C 0.6057(4) 0.36928(13) 0.30225(15)
H10 H 0.7307 0.4030 0.3271
H11 H 0.4568 0.3801 0.3268
H12 H 0.5871 0.3810 0.2450
N1 N 0.1882(3) 0.18888(11) 0.19413(10)
N2 N 0.3333(3) 0.24185(10) 0.23121(10)
N3 N 0.8016(3) 0.11513(10) 0.33565(10)
N4 N 1.1453(4) 0.36621(12) 0.43302(13)
O1 O 0.0205(3) 0.04124(10) 0.15181(11)
O2 O -0.2727(4) 0.03388(10) 0.05401(12)
H13 H -0.2448 -0.0150 0.0580
O3 O 0.4672(3) 0.07616(9) 0.25934(10)
O4 O 1.1313(3) 0.15552(10) 0.41454(10)
H14 H 0.216(6) 0.132(2) 0.1968(17)
loop_
_geom_bond_atom_site_label_1
_geom_bond_atom_site_label_2
_geom_bond_site_symmetry_1
_geom_bond_site_symmetry_2
C1 C2 1_555 1_555
C2 C3 1_555 1_555
C3 H1 1_555 1_555
C4 C3 1_555 1_555
H2 C4 1_555 1_555
C5 C4 1_555 1_555
H3 C5 1_555 1_555
C6 C1 1_555 1_555
H4 C6 1_555 1_555
C7 C2 1_555 1_555
C8 C9 1_555 1_555
C9 N3 1_555 1_555
C10 C11 1_555 1_555
C11 C12 1_555 1_555
C12 C8 1_555 1_555
C13 H5 1_555 1_555
H6 C13 1_555 1_555
C14 C13 1_555 1_555
H7 C14 1_555 1_555
H8 C14 1_555 1_555
H9 C14 1_555 1_555
C15 C11 1_555 1_555
C16 C12 1_555 1_555
H10 C16 1_555 1_555
H11 C16 1_555 1_555
H12 C16 1_555 1_555
N1 C1 1_555 1_555
N2 C8 1_555 1_555
N3 C10 1_555 1_555
N4 C15 1_555 1_555
O1 C7 1_555 1_555
O2 C7 1_555 1_555
H13 O2 1_555 1_555
O3 C9 1_555 1_555
O4 C10 1_555 1_555
H14 N1 1_555 1_555
C5 C6 1_555 1_555
C13 N3 1_555 1_555
N1 N2 1_555 1_555

#END
