
#######################################################################
#
#                 Cambridge Crystallographic Data Centre
#                                CCDC 
#
#######################################################################
#
# If this CIF has been generated from an entry in the Cambridge 
# Structural Database, then it will include bibliographic, chemical, 
# crystal, experimental, refinement or atomic coordinate data resulting 
# from the CCDC's data processing and validation procedures.
#
#######################################################################

data_YEHNOR
_chemical_formula_moiety         'C50 H54 B2 Br2 N4,2(C1 H1 Cl3)'
_chemical_name_systematic        
'2,5-dibromo-2,5-diphenyl-1,3,4,6-tetrakis(2,4,6-trimethylphenyl)-2,5-diborata-2,3,5,6-tetrahydroimidazo[4,5-d]imidazole-1,4-diium chloroform solvate'
_symmetry_cell_setting           triclinic
_symmetry_space_group_name_H-M   'P -1'
_symmetry_Int_Tables_number      2
_space_group_name_Hall           '-P 1'
loop_
_symmetry_equiv_pos_site_id
_symmetry_equiv_pos_as_xyz
1 x,y,z
2 -x,-y,-z
_cell_length_a                   9.2160(12)
_cell_length_b                   10.4837(15)
_cell_length_c                   14.3635(19)
_cell_angle_alpha                81.176(4)
_cell_angle_beta                 78.995(4)
_cell_angle_gamma                73.107(4)
_cell_volume                     1296.36
_exptl_crystal_colour            colorless
_exptl_crystal_description       block
_cell_formula_units_Z            1
loop_
_atom_site_label
_atom_site_type_symbol
_atom_site_fract_x
_atom_site_fract_y
_atom_site_fract_z
B1 B 0.0686(4) 0.8535(3) 0.6257(3)
Br1 Br 0.24382(4) 0.90092(3) 0.67753(2)
C1 C 0.1962(3) 0.9635(3) 0.3067(2)
C2 C 0.3301(3) 0.9992(3) 0.3114(2)
C3 C 0.3340(4) 1.0908(3) 0.3817(2)
H1 H 0.4399 1.0939 0.3793
H2 H 0.2946 1.0569 0.4461
H3 H 0.27 1.1811 0.3653
C4 C 0.4602(3) 0.9526(3) 0.2462(2)
H4 H 0.5512 0.9765 0.2485
C5 C 0.4615(4) 0.8720(3) 0.1775(2)
C6 C 0.6060(4) 0.8210(4) 0.1078(3)
H5 H 0.6203 0.726 0.1022
H6 H 0.6947 0.8317 0.131
H7 H 0.5964 0.8723 0.0452
C7 C 0.3271(4) 0.8402(3) 0.1745(2)
H8 H 0.3267 0.7857 0.1275
C8 C 0.1918(3) 0.8847(3) 0.2377(2)
C9 C 0.0509(3) 0.8464(3) 0.2274(2)
H9 H -0.0024 0.9098 0.1793
H10 H -0.0177 0.8486 0.2887
H11 H 0.0809 0.7558 0.2076
C10 C 0.2115(3) 0.7285(3) 0.4622(2)
C11 C 0.3704(3) 0.6951(3) 0.4386(2)
C12 C 0.4733(3) 0.7574(3) 0.4754(2)
H12 H 0.4149 0.8463 0.4941
H13 H 0.5594 0.7659 0.4253
H14 H 0.5126 0.7004 0.5308
C13 C 0.4376(4) 0.5957(3) 0.3764(2)
H15 H 0.5461 0.5717 0.3588
C14 C 0.3536(4) 0.5310(3) 0.3393(2)
C15 C 0.4302(4) 0.4338(3) 0.2659(2)
H16 H 0.4485 0.4837 0.2033
H17 H 0.3636 0.3771 0.2633
H18 H 0.5283 0.3775 0.2834
C16 C 0.1965(4) 0.5617(3) 0.3699(2)
H19 H 0.1376 0.5146 0.3482
C17 C 0.1226(3) 0.6591(3) 0.4312(2)
C18 C -0.0482(3) 0.6892(3) 0.4619(2)
H20 H -0.0884 0.6286 0.4349
H21 H -0.0967 0.7822 0.4393
H22 H -0.0708 0.6766 0.5317
C19 C 0.0413(3) 0.7243(3) 0.6938(2)
C20 C 0.1366(4) 0.5965(3) 0.6781(2)
H23 H 0.2097 0.5856 0.6215
C21 C 0.1280(4) 0.4848(3) 0.7425(2)
H24 H 0.1949 0.3994 0.7296
C22 C 0.0223(4) 0.4976(3) 0.8251(2)
H25 H 0.0157 0.4213 0.8692
C23 C -0.0727(4) 0.6212(3) 0.8428(2)
H26 H -0.1456 0.631 0.8996
C24 C -0.0632(4) 0.7335(3) 0.7778(2)
H27 H -0.1301 0.8186 0.7915
C25 C 0.0576(3) 0.9557(3) 0.4680(2)
N1 N 0.0649(3) 1.0119(2) 0.37855(16)
N2 N 0.1251(3) 0.8424(2) 0.51519(17)
B1A B -0.0686(4) 1.1465(3) 0.3743(3)
Br1A Br -0.24382(4) 1.09908(3) 0.32247(2)
C1A C -0.1962(3) 1.0365(3) 0.6933(2)
C2A C -0.3301(3) 1.0008(3) 0.6886(2)
C3A C -0.3340(4) 0.9092(3) 0.6183(2)
H1A H -0.4399 0.9061 0.6207
H2A H -0.2946 0.9431 0.5539
H3A H -0.27 0.8189 0.6347
C4A C -0.4602(3) 1.0474(3) 0.7538(2)
H4A H -0.5512 1.0235 0.7515
C5A C -0.4615(4) 1.1280(3) 0.8225(2)
C6A C -0.6060(4) 1.1790(4) 0.8922(3)
H5A H -0.6203 1.274 0.8978
H6A H -0.6947 1.1683 0.869
H7A H -0.5964 1.1277 0.9548
C7A C -0.3271(4) 1.1598(3) 0.8255(2)
H8A H -0.3267 1.2143 0.8725
C8A C -0.1918(3) 1.1153(3) 0.7623(2)
C9A C -0.0509(3) 1.1536(3) 0.7726(2)
H9A H 0.0024 1.0902 0.8207
H10A H 0.0177 1.1514 0.7113
H11A H -0.0809 1.2442 0.7924
C10A C -0.2115(3) 1.2715(3) 0.5378(2)
C11A C -0.3704(3) 1.3049(3) 0.5614(2)
C12A C -0.4733(3) 1.2426(3) 0.5246(2)
H12A H -0.4149 1.1537 0.5059
H13A H -0.5594 1.2341 0.5747
H14A H -0.5126 1.2996 0.4692
C13A C -0.4376(4) 1.4043(3) 0.6236(2)
H15A H -0.5461 1.4283 0.6412
C14A C -0.3536(4) 1.4690(3) 0.6607(2)
C15A C -0.4302(4) 1.5662(3) 0.7341(2)
H16A H -0.4485 1.5163 0.7967
H17A H -0.3636 1.6229 0.7367
H18A H -0.5283 1.6225 0.7166
C16A C -0.1965(4) 1.4383(3) 0.6301(2)
H19A H -0.1376 1.4854 0.6518
C17A C -0.1226(3) 1.3409(3) 0.5688(2)
C18A C 0.0482(3) 1.3108(3) 0.5381(2)
H20A H 0.0884 1.3714 0.5651
H21A H 0.0967 1.2178 0.5607
H22A H 0.0708 1.3234 0.4683
C19A C -0.0413(3) 1.2757(3) 0.3062(2)
C20A C -0.1366(4) 1.4035(3) 0.3219(2)
H23A H -0.2097 1.4144 0.3785
C21A C -0.1280(4) 1.5152(3) 0.2575(2)
H24A H -0.1949 1.6006 0.2704
C22A C -0.0223(4) 1.5024(3) 0.1749(2)
H25A H -0.0157 1.5787 0.1308
C23A C 0.0727(4) 1.3788(3) 0.1572(2)
H26A H 0.1456 1.369 0.1004
C24A C 0.0632(4) 1.2665(3) 0.2222(2)
H27A H 0.1301 1.1814 0.2085
C25A C -0.0576(3) 1.0443(3) 0.5320(2)
N1A N -0.0649(3) 0.9881(2) 0.62145(16)
N2A N -0.1251(3) 1.1576(2) 0.48481(17)
C26 C 0.7534(4) 0.2727(3) 0.0840(2)
H28 H 0.7663 0.2846 0.1494
Cl1 Cl 0.71273(11) 0.42957(9) 0.01780(7)
Cl2 Cl 0.92478(13) 0.16664(10) 0.03053(7)
Cl3 Cl 0.59988(13) 0.20053(10) 0.09388(7)
loop_
_geom_bond_atom_site_label_1
_geom_bond_atom_site_label_2
_geom_bond_site_symmetry_1
_geom_bond_site_symmetry_2
B1 Br1 1_555 1_555
C1 C2 1_555 1_555
C2 C3 1_555 1_555
C3 H1 1_555 1_555
H2 C3 1_555 1_555
H3 C3 1_555 1_555
C4 C2 1_555 1_555
H4 C4 1_555 1_555
C5 C4 1_555 1_555
C6 C5 1_555 1_555
H5 C6 1_555 1_555
H6 C6 1_555 1_555
H7 C6 1_555 1_555
C7 C5 1_555 1_555
H8 C7 1_555 1_555
C8 C1 1_555 1_555
C9 C8 1_555 1_555
H9 C9 1_555 1_555
H10 C9 1_555 1_555
H11 C9 1_555 1_555
C10 C11 1_555 1_555
C11 C12 1_555 1_555
C12 H12 1_555 1_555
H13 C12 1_555 1_555
H14 C12 1_555 1_555
C13 C11 1_555 1_555
H15 C13 1_555 1_555
C14 C13 1_555 1_555
C15 C14 1_555 1_555
H16 C15 1_555 1_555
H17 C15 1_555 1_555
H18 C15 1_555 1_555
C16 C14 1_555 1_555
H19 C16 1_555 1_555
C17 C10 1_555 1_555
C18 C17 1_555 1_555
H20 C18 1_555 1_555
H21 C18 1_555 1_555
H22 C18 1_555 1_555
C19 B1 1_555 1_555
C20 C19 1_555 1_555
H23 C20 1_555 1_555
C21 C20 1_555 1_555
H24 C21 1_555 1_555
C22 C21 1_555 1_555
H25 C22 1_555 1_555
C23 C22 1_555 1_555
H26 C23 1_555 1_555
C24 C19 1_555 1_555
H27 C24 1_555 1_555
C25 N1 1_555 1_555
N1 C1 1_555 1_555
N2 B1 1_555 1_555
C26 H28 1_555 1_555
Cl1 C26 1_555 1_555
Cl2 C26 1_555 1_555
Cl3 C26 1_555 1_555
B1A N1 1_555 1_555
Br1A B1A 1_555 1_555
C1A C2A 1_555 1_555
C2A C3A 1_555 1_555
C3A H1A 1_555 1_555
H2A C3A 1_555 1_555
H3A C3A 1_555 1_555
C4A C2A 1_555 1_555
H4A C4A 1_555 1_555
C5A C4A 1_555 1_555
C6A C5A 1_555 1_555
H5A C6A 1_555 1_555
H6A C6A 1_555 1_555
H7A C6A 1_555 1_555
C7A C5A 1_555 1_555
H8A C7A 1_555 1_555
C8A C1A 1_555 1_555
C9A C8A 1_555 1_555
H9A C9A 1_555 1_555
H10A C9A 1_555 1_555
H11A C9A 1_555 1_555
C10A C11A 1_555 1_555
C11A C12A 1_555 1_555
C12A H12A 1_555 1_555
H13A C12A 1_555 1_555
H14A C12A 1_555 1_555
C13A C11A 1_555 1_555
H15A C13A 1_555 1_555
C14A C13A 1_555 1_555
C15A C14A 1_555 1_555
H16A C15A 1_555 1_555
H17A C15A 1_555 1_555
H18A C15A 1_555 1_555
C16A C14A 1_555 1_555
H19A C16A 1_555 1_555
C17A C10A 1_555 1_555
C18A C17A 1_555 1_555
H20A C18A 1_555 1_555
H21A C18A 1_555 1_555
H22A C18A 1_555 1_555
C19A B1A 1_555 1_555
C20A C19A 1_555 1_555
H23A C20A 1_555 1_555
C21A C20A 1_555 1_555
H24A C21A 1_555 1_555
C22A C21A 1_555 1_555
H25A C22A 1_555 1_555
C23A C22A 1_555 1_555
H26A C23A 1_555 1_555
C24A C19A 1_555 1_555
H27A C24A 1_555 1_555
C25A C25 1_555 1_555
N1A B1 1_555 1_555
N2A B1A 1_555 1_555
C7 C8 1_555 1_555
C10 N2 1_555 1_555
C16 C17 1_555 1_555
C23 C24 1_555 1_555
C25 N2 1_555 1_555
C1A N1A 1_555 1_555
C7A C8A 1_555 1_555
C10A N2A 1_555 1_555
C16A C17A 1_555 1_555
C23A C24A 1_555 1_555
C25A N1A 1_555 1_555
C25A N2A 1_555 1_555

#END
