
#######################################################################
#
#                 Cambridge Crystallographic Data Centre
#                                CCDC 
#
#######################################################################
#
# If this CIF has been generated from an entry in the Cambridge 
# Structural Database, then it will include bibliographic, chemical, 
# crystal, experimental, refinement or atomic coordinate data resulting 
# from the CCDC's data processing and validation procedures.
#
#######################################################################

data_YEHPIK
_chemical_formula_moiety         'C10 H10 N4'
_chemical_name_systematic        6,6'-Dimethyl-2,2'-bipyrazine
_symmetry_cell_setting           triclinic
_symmetry_space_group_name_H-M   'P -1'
_symmetry_Int_Tables_number      2
_space_group_name_Hall           '-P 1'
loop_
_symmetry_equiv_pos_site_id
_symmetry_equiv_pos_as_xyz
1 x,y,z
2 -x,-y,-z
_cell_length_a                   3.942(1)
_cell_length_b                   7.902(1)
_cell_length_c                   15.448(4)
_cell_angle_alpha                83.03(2)
_cell_angle_beta                 89.61(2)
_cell_angle_gamma                77.05(2)
_cell_volume                     465.392
_exptl_crystal_colour            colorless
_chemical_melting_point          175deg.C
_cell_formula_units_Z            2
loop_
_atom_site_label
_atom_site_type_symbol
_atom_site_fract_x
_atom_site_fract_y
_atom_site_fract_z
C1 C 0.0365(4) 0.0396(2) 0.0395(1)
N1 N -0.1118(4) 0.2093(2) 0.04132(9)
C2 C -0.0488(5) 0.2802(2) 0.1114(1)
C3 C 0.1676(5) 0.1810(3) 0.1789(1)
N2 N 0.3133(5) 0.0131(2) 0.1780(1)
C4 C 0.2493(5) -0.0576(3) 0.1069(1)
C5 C -0.2156(6) 0.4693(2) 0.1156(1)
H1 H 0.1727(5) 0.2728(3) 0.2251(1)
H2 H 0.3296(5) -0.1864(3) 0.0866(1)
H3 H -0.1404(6) 0.5078(2) 0.1760(1)
H4 H -0.4953(6) 0.4878(2) 0.1122(1)
H5 H -0.1313(6) 0.5486(2) 0.0614(1)
C1A C -0.0365(4) -0.0396(2) -0.0395(1)
N1A N 0.1118(4) -0.2093(2) -0.04132(9)
C4A C -0.2493(5) 0.0576(3) -0.1069(1)
C2A C 0.0488(5) -0.2802(2) -0.1114(1)
N2A N -0.3133(5) -0.0131(2) -0.1780(1)
H2A H -0.3296(5) 0.1864(3) -0.0866(1)
C3A C -0.1676(5) -0.1810(3) -0.1789(1)
C5A C 0.2156(6) -0.4693(2) -0.1156(1)
H1A H -0.1727(5) -0.2728(3) -0.2251(1)
H3A H 0.1404(6) -0.5078(2) -0.1760(1)
H4A H 0.4953(6) -0.4878(2) -0.1122(1)
H5A H 0.1313(6) -0.5486(2) -0.0614(1)
C6 C 0.3955(4) -0.4607(2) -0.5401(1)
N3 N 0.2167(4) -0.2935(2) -0.54224(9)
C7 C 0.0292(5) -0.2228(2) -0.6145(1)
C8 C 0.0198(6) -0.3185(3) -0.6836(1)
N4 N 0.1953(5) -0.4833(2) -0.6820(1)
C9 C 0.3835(6) -0.5548(3) -0.6091(1)
C10 C -0.1743(6) -0.0356(3) -0.6176(1)
H6 H -0.1502(6) -0.2281(3) -0.7312(1)
H7 H 0.5480(6) -0.6820(3) -0.5883(1)
H8 H -0.3128(6) 0.0042(3) -0.6794(1)
H9 H 0.0026(6) 0.0484(3) -0.6103(1)
H10 H -0.3581(6) -0.0257(3) -0.5653(1)
C6A C 0.6045(4) -0.5393(2) -0.4599(1)
N3A N 0.7833(4) -0.7065(2) -0.45776(9)
C9A C 0.6165(6) -0.4452(3) -0.3909(1)
C7A C 0.9708(5) -0.7772(2) -0.3855(1)
N4A N 0.8047(5) -0.5167(2) -0.3180(1)
H7A H 0.4520(6) -0.3180(3) -0.4117(1)
C8A C 0.9802(6) -0.6815(3) -0.3164(1)
C10A C 1.1743(6) -0.9644(3) -0.3824(1)
H6A H 1.1502(6) -0.7719(3) -0.2688(1)
H8A H 1.3128(6) -1.0042(3) -0.3206(1)
H9A H 0.9974(6) -1.0484(3) -0.3897(1)
H10A H 1.3581(6) -0.9743(3) -0.4347(1)
loop_
_geom_bond_atom_site_label_1
_geom_bond_atom_site_label_2
_geom_bond_site_symmetry_1
_geom_bond_site_symmetry_2
C1 N1 1_555 1_555
N1 C2 1_555 1_555
C2 C3 1_555 1_555
C3 N2 1_555 1_555
N2 C4 1_555 1_555
C4 C1 1_555 1_555
C5 C2 1_555 1_555
H1 C3 1_555 1_555
H2 C4 1_555 1_555
H3 C5 1_555 1_555
H4 C5 1_555 1_555
H5 C5 1_555 1_555
C6 N3 1_555 1_555
N3 C7 1_555 1_555
C7 C8 1_555 1_555
C8 N4 1_555 1_555
N4 C9 1_555 1_555
C9 C6 1_555 1_555
C10 C7 1_555 1_555
H6 C8 1_555 1_555
H7 C9 1_555 1_555
H8 C10 1_555 1_555
H9 C10 1_555 1_555
H10 C10 1_555 1_555
C1A C1 1_555 1_555
N1A C1A 1_555 1_555
C4A C1A 1_555 1_555
C2A N1A 1_555 1_555
N2A C4A 1_555 1_555
H2A C4A 1_555 1_555
C3A C2A 1_555 1_555
C5A C2A 1_555 1_555
H1A C3A 1_555 1_555
H3A C5A 1_555 1_555
H4A C5A 1_555 1_555
H5A C5A 1_555 1_555
C6A C6 1_555 1_555
N3A C6A 1_555 1_555
C9A C6A 1_555 1_555
C7A N3A 1_555 1_555
N4A C9A 1_555 1_555
H7A C9A 1_555 1_555
C8A C7A 1_555 1_555
C10A C7A 1_555 1_555
H6A C8A 1_555 1_555
H8A C10A 1_555 1_555
H9A C10A 1_555 1_555
H10A C10A 1_555 1_555
N2A C3A 1_555 1_555
N4A C8A 1_555 1_555

#END
