
#######################################################################
#
#                 Cambridge Crystallographic Data Centre
#                                CCDC 
#
#######################################################################
#
# If this CIF has been generated from an entry in the Cambridge 
# Structural Database, then it will include bibliographic, chemical, 
# crystal, experimental, refinement or atomic coordinate data resulting 
# from the CCDC's data processing and validation procedures.
#
#######################################################################

data_YEKHAA
_chemical_formula_moiety         'C18 H14 Cl1 F2 N1 O4'
_chemical_name_systematic        
'[2-(4-chlorophenyl)-2-(difluoromethyl)-1-nitrocyclopropyl](4-methoxyphenyl)methanone'
_symmetry_cell_setting           orthorhombic
_symmetry_space_group_name_H-M   'P 21 21 21'
_symmetry_Int_Tables_number      19
_space_group_name_Hall           'P 2ac 2ab'
loop_
_symmetry_equiv_pos_site_id
_symmetry_equiv_pos_as_xyz
1 x,y,z
2 1/2-x,-y,1/2+z
3 -x,1/2+y,1/2-z
4 1/2+x,1/2-y,-z
_cell_length_a                   7.3361(3)
_cell_length_b                   11.2680(4)
_cell_length_c                   20.2108(7)
_cell_angle_alpha                90
_cell_angle_beta                 90
_cell_angle_gamma                90
_cell_volume                     1670.69
_exptl_crystal_description       block
_cell_formula_units_Z            4
loop_
_atom_site_label
_atom_site_type_symbol
_atom_site_fract_x
_atom_site_fract_y
_atom_site_fract_z
Cl1 Cl 1.20740(7) 0.66145(4) 0.69389(2)
F1 F 1.0606(2) 0.70482(12) 0.37699(7)
F2 F 1.21240(19) 0.53937(13) 0.37828(6)
O1 O 0.2885(2) 0.02848(13) 0.27389(7)
O2 O 0.9764(2) 0.35368(14) 0.32103(7)
O3 O 0.6738(2) 0.40041(14) 0.51569(6)
O4 O 0.8490(2) 0.26282(12) 0.47593(7)
N1 N 0.7713(2) 0.35866(13) 0.47284(7)
C1 C 0.1354(3) 0.0058(2) 0.31577(11)
H1 H 0.1781 -0.0119 0.3606
H2 H 0.0668 -0.0622 0.2986
H3 H 0.0564 0.0759 0.3168
C2 C 0.4108(3) 0.11140(16) 0.29480(9)
C3 C 0.3782(3) 0.19076(17) 0.34667(8)
H4 H 0.2651 0.1901 0.3695
C4 C 0.5138(3) 0.27038(16) 0.36411(8)
H5 H 0.4922 0.3251 0.3990
C5 C 0.6810(3) 0.27191(16) 0.33159(8)
C6 C 0.7081(3) 0.19430(16) 0.27800(8)
H6 H 0.8195 0.1968 0.2540
C7 C 0.5749(3) 0.11500(17) 0.26004(9)
H7 H 0.5945 0.0626 0.2239
C8 C 0.8336(3) 0.34945(17) 0.35104(8)
C9 C 0.8060(3) 0.42897(16) 0.41139(8)
C10 C 0.7140(3) 0.54749(16) 0.40744(9)
H8 H 0.6279 0.5688 0.4432
H9 H 0.6799 0.5773 0.3630
C11 C 0.9140(3) 0.54243(17) 0.42435(9)
C12 C 1.0406(3) 0.58434(19) 0.37045(10)
H10 H 0.9909 0.5638 0.3258
C13 C 0.9811(3) 0.56950(15) 0.49307(8)
C14 C 0.9053(3) 0.66195(17) 0.52960(10)
H11 H 0.8066 0.7065 0.5119
C15 C 0.9740(3) 0.68908(16) 0.59192(10)
H12 H 0.9214 0.7512 0.6173
C16 C 1.1192(3) 0.62482(16) 0.61655(9)
C17 C 1.1959(3) 0.53239(16) 0.58102(9)
H13 H 1.2953 0.4887 0.5987
C18 C 1.1254(3) 0.50454(16) 0.51922(9)
H14 H 1.1760 0.4407 0.4946
loop_
_geom_bond_atom_site_label_1
_geom_bond_atom_site_label_2
_geom_bond_site_symmetry_1
_geom_bond_site_symmetry_2
Cl1 C16 1_555 1_555
F1 C12 1_555 1_555
F2 C12 1_555 1_555
O1 C1 1_555 1_555
O2 C8 1_555 1_555
O3 N1 1_555 1_555
O4 N1 1_555 1_555
N1 C9 1_555 1_555
C1 H1 1_555 1_555
H2 C1 1_555 1_555
H3 C1 1_555 1_555
C2 O1 1_555 1_555
C3 C2 1_555 1_555
H4 C3 1_555 1_555
C4 C3 1_555 1_555
H5 C4 1_555 1_555
C5 C4 1_555 1_555
C6 C5 1_555 1_555
H6 C6 1_555 1_555
C7 C2 1_555 1_555
H7 C7 1_555 1_555
C8 C5 1_555 1_555
C9 C8 1_555 1_555
C10 C9 1_555 1_555
H8 C10 1_555 1_555
H9 C10 1_555 1_555
C11 C9 1_555 1_555
C12 C11 1_555 1_555
H10 C12 1_555 1_555
C13 C11 1_555 1_555
C14 C13 1_555 1_555
H11 C14 1_555 1_555
C15 C14 1_555 1_555
H12 C15 1_555 1_555
C16 C15 1_555 1_555
C17 C16 1_555 1_555
H13 C17 1_555 1_555
C18 C13 1_555 1_555
H14 C18 1_555 1_555
C6 C7 1_555 1_555
C10 C11 1_555 1_555
C17 C18 1_555 1_555

#END
