
#######################################################################
#
#                 Cambridge Crystallographic Data Centre
#                                CCDC 
#
#######################################################################
#
# If this CIF has been generated from an entry in the Cambridge 
# Structural Database, then it will include bibliographic, chemical, 
# crystal, experimental, refinement or atomic coordinate data resulting 
# from the CCDC's data processing and validation procedures.
#
#######################################################################

data_YENYIC
_chemical_formula_moiety         'C15 H11 N3 O2,H2 O1'
_chemical_name_systematic        
"(E)-N'-(quinolin-2-ylmethylene)furan-2-carbohydrazide monohydrate"
_symmetry_cell_setting           triclinic
_symmetry_space_group_name_H-M   'P -1'
_symmetry_Int_Tables_number      2
_space_group_name_Hall           '-P 1'
loop_
_symmetry_equiv_pos_site_id
_symmetry_equiv_pos_as_xyz
1 x,y,z
2 -x,-y,-z
_cell_length_a                   6.4662(13)
_cell_length_b                   7.1213(14)
_cell_length_c                   15.373(3)
_cell_angle_alpha                80.09(3)
_cell_angle_beta                 88.40(3)
_cell_angle_gamma                74.81(3)
_cell_volume                     672.857
_exptl_crystal_colour            yellow
_exptl_crystal_description       block
_cell_formula_units_Z            2
loop_
_atom_site_label
_atom_site_type_symbol
_atom_site_fract_x
_atom_site_fract_y
_atom_site_fract_z
O1 O 0.31650(18) 0.05767(19) 0.77060(8)
O2 O 0.8743(2) -0.0904(2) 0.82365(9)
N1 N 0.5811(2) 0.32100(18) 0.38601(8)
N2 N 0.4767(2) 0.16071(18) 0.60881(8)
N3 N 0.6043(2) 0.06659(19) 0.68175(8)
H1 H 0.7416 0.0353 0.6778
C1 C 0.4814(2) 0.4163(2) 0.30682(10)
C2 C 0.6095(3) 0.4435(3) 0.23259(12)
H2 H 0.7578 0.3963 0.2378
C3 C 0.5160(3) 0.5393(3) 0.15283(12)
H3 H 0.6013 0.5548 0.1038
C4 C 0.2936(3) 0.6141(3) 0.14428(13)
H4 H 0.2330 0.6816 0.0899
C5 C 0.1653(3) 0.5894(3) 0.21419(12)
H5 H 0.0175 0.6391 0.2074
C6 C 0.2557(3) 0.4879(2) 0.29777(11)
C7 C 0.1325(3) 0.4517(3) 0.37302(12)
H6 H -0.0163 0.4944 0.3693
C8 C 0.2319(3) 0.3542(3) 0.45109(11)
H7 H 0.1522 0.3278 0.5008
C9 C 0.4595(2) 0.2934(2) 0.45503(10)
C10 C 0.5768(2) 0.1934(2) 0.53751(10)
H8 H 0.7258 0.1534 0.5378
C11 C 0.5100(2) 0.0243(2) 0.76005(10)
C12 C 0.6615(3) -0.0671(2) 0.83428(11)
C13 C 0.6191(3) -0.1226(3) 0.91906(11)
H9 H 0.4852 -0.1185 0.9436
C14 C 0.8205(4) -0.1887(4) 0.96382(14)
H10 H 0.8444 -0.2396 1.0237
C15 C 0.9686(3) -0.1649(4) 0.90473(14)
H11 H 1.1148 -0.1945 0.9168
O3 O 0.95652(17) -0.01165(19) 0.36709(8)
H12 H 0.8735 0.1011 0.3797
H13 H 0.8686 -0.0437 0.3262
loop_
_geom_bond_atom_site_label_1
_geom_bond_atom_site_label_2
_geom_bond_site_symmetry_1
_geom_bond_site_symmetry_2
O1 C11 1_555 1_555
O2 C12 1_555 1_555
N1 C1 1_555 1_555
N2 N3 1_555 1_555
N3 H1 1_555 1_555
C1 C2 1_555 1_555
C2 H2 1_555 1_555
C3 C2 1_555 1_555
H3 C3 1_555 1_555
C4 C3 1_555 1_555
H4 C4 1_555 1_555
C5 C4 1_555 1_555
H5 C5 1_555 1_555
C6 C1 1_555 1_555
C7 C6 1_555 1_555
H6 C7 1_555 1_555
C8 C7 1_555 1_555
H7 C8 1_555 1_555
C9 N1 1_555 1_555
C10 N2 1_555 1_555
H8 C10 1_555 1_555
C11 N3 1_555 1_555
C12 C11 1_555 1_555
C13 C12 1_555 1_555
H9 C13 1_555 1_555
C14 C13 1_555 1_555
H10 C14 1_555 1_555
C15 O2 1_555 1_555
H11 C15 1_555 1_555
O3 H12 1_555 1_555
H13 O3 1_555 1_555
C5 C6 1_555 1_555
C8 C9 1_555 1_555
C9 C10 1_555 1_555
C14 C15 1_555 1_555

#END
