
#######################################################################
#
#                 Cambridge Crystallographic Data Centre
#                                CCDC 
#
#######################################################################
#
# If this CIF has been generated from an entry in the Cambridge 
# Structural Database, then it will include bibliographic, chemical, 
# crystal, experimental, refinement or atomic coordinate data resulting 
# from the CCDC's data processing and validation procedures.
#
#######################################################################

data_YENZUN01
_chemical_formula_moiety         'C19 H22 N2 O3 S1'
_chemical_name_systematic        
'Propyl 2-(3-cyano-4-(2-methylpropoxy)phenyl)-4-methylthiazole-5-carboxylate'
_symmetry_cell_setting           monoclinic
_symmetry_space_group_name_H-M   'P 21/a'
_symmetry_Int_Tables_number      14
_space_group_name_Hall           '-P 2yab'
loop_
_symmetry_equiv_pos_site_id
_symmetry_equiv_pos_as_xyz
1 x,y,z
2 1/2-x,1/2+y,-z
3 -x,-y,-z
4 1/2+x,1/2-y,z
_cell_length_a                   8.1526(9)
_cell_length_b                   19.637(3)
_cell_length_c                   12.2979(17)
_cell_angle_alpha                90
_cell_angle_beta                 100.117(5)
_cell_angle_gamma                90
_cell_volume                     1938.19
_exptl_crystal_colour            colorless
_exptl_crystal_description       block
_cell_formula_units_Z            4
loop_
_atom_site_label
_atom_site_type_symbol
_atom_site_fract_x
_atom_site_fract_y
_atom_site_fract_z
S1 S 0.85516(17) 1.09768(6) 0.32254(10)
O1 O 0.7214(6) 1.2327(2) 0.5233(3)
O2 O 0.9735(4) 0.78660(17) 0.1376(2)
O3 O 0.8125(5) 1.23796(18) 0.3625(3)
N1 N 0.7634(5) 1.0154(2) 0.4622(3)
N2 N 0.9905(7) 0.9119(2) -0.0488(3)
C1 C 0.8648(5) 0.9561(2) 0.3121(3)
C2 C 0.9025(5) 0.9611(2) 0.2064(3)
C3 C 0.9366(5) 0.9033(2) 0.1508(3)
C4 C 0.9351(5) 0.8389(2) 0.1994(3)
C5 C 0.8958(6) 0.8340(2) 0.3043(3)
C6 C 0.8614(6) 0.8920(2) 0.3581(3)
C7 C 0.9685(7) 0.9082(2) 0.0388(4)
C8 C 0.8257(5) 1.0174(2) 0.3705(3)
C9 C 0.7795(6) 1.1308(2) 0.4337(3)
C10 C 0.7369(6) 1.0801(2) 0.4976(4)
C11 C 0.6609(8) 1.0876(3) 0.6006(4)
C12 C 0.9459(7) 0.7179(2) 0.1700(4)
C13 C 0.9793(7) 0.6719(2) 0.0782(4)
C14 C 0.8634(9) 0.6898(3) -0.0315(5)
C15 C 0.9530(9) 0.5979(2) 0.1122(5)
C16 C 0.7668(7) 1.2049(2) 0.4473(4)
C17 C 0.8059(8) 1.3121(2) 0.3630(5)
C18 C 0.8500(9) 1.3378(3) 0.2616(5)
C19 C 0.8545(9) 1.4150(3) 0.2603(6)
H1 H 0.9046 1.0045 0.1724
H2 H 0.8934 0.7907 0.3384
H3 H 0.8340 0.8882 0.4298
H4 H 0.6959 1.3264 0.3672
H5 H 0.8811 1.3293 0.4247
H6 H 0.9576 1.3210 0.2562
H7 H 0.7715 1.3218 0.2006
H8 H 0.7475 1.4316 0.2282
H9 H 0.9347 1.4308 0.2187
H10 H 0.8826 1.4310 0.3341
H11 H 0.5429 1.0888 0.5810
H12 H 0.6992 1.1286 0.6374
H13 H 0.6930 1.0500 0.6482
H14 H 1.0185 0.7069 0.2369
H15 H 0.8336 0.7124 0.1796
H16 H 1.0919 0.6778 0.0694
H17 H 1.0543 0.5800 0.1519
H18 H 0.9172 0.5710 0.0482
H19 H 0.8703 0.5971 0.1578
H20 H 0.7657 0.6626 -0.0384
H21 H 0.9184 0.6811 -0.0921
H22 H 0.8337 0.7366 -0.0311
loop_
_geom_bond_atom_site_label_1
_geom_bond_atom_site_label_2
_geom_bond_site_symmetry_1
_geom_bond_site_symmetry_2
S1 C8 1_555 1_555
O1 C16 1_555 1_555
O2 C4 1_555 1_555
O3 C16 1_555 1_555
N1 C8 1_555 1_555
N2 C7 1_555 1_555
C1 C2 1_555 1_555
C2 C3 1_555 1_555
C3 C4 1_555 1_555
C4 C5 1_555 1_555
C5 C6 1_555 1_555
C6 C1 1_555 1_555
C7 C3 1_555 1_555
C8 C1 1_555 1_555
C9 S1 1_555 1_555
C10 N1 1_555 1_555
C11 C10 1_555 1_555
C12 O2 1_555 1_555
C13 C12 1_555 1_555
C14 C13 1_555 1_555
C15 C13 1_555 1_555
C16 C9 1_555 1_555
C17 O3 1_555 1_555
C18 C17 1_555 1_555
C19 C18 1_555 1_555
H1 C2 1_555 1_555
H2 C5 1_555 1_555
H3 C6 1_555 1_555
H4 C17 1_555 1_555
H5 C17 1_555 1_555
H6 C18 1_555 1_555
H7 C18 1_555 1_555
H8 C19 1_555 1_555
H9 C19 1_555 1_555
H10 C19 1_555 1_555
H11 C11 1_555 1_555
H12 C11 1_555 1_555
H13 C11 1_555 1_555
H14 C12 1_555 1_555
H15 C12 1_555 1_555
H16 C13 1_555 1_555
H17 C15 1_555 1_555
H18 C15 1_555 1_555
H19 C15 1_555 1_555
H20 C14 1_555 1_555
H21 C14 1_555 1_555
H22 C14 1_555 1_555
C9 C10 1_555 1_555

#END
