
#######################################################################
#
#                 Cambridge Crystallographic Data Centre
#                                CCDC 
#
#######################################################################
#
# If this CIF has been generated from an entry in the Cambridge 
# Structural Database, then it will include bibliographic, chemical, 
# crystal, experimental, refinement or atomic coordinate data resulting 
# from the CCDC's data processing and validation procedures.
#
#######################################################################

data_YEPCEC
_chemical_formula_moiety         'C12 H10 N4 O2,2(H2 O1)'
_chemical_name_systematic        "N,N'-bis(3-Picolinoyl)hydrazine dihydrate"
_symmetry_cell_setting           monoclinic
_symmetry_space_group_name_H-M   'C 2/c'
_symmetry_Int_Tables_number      15
_space_group_name_Hall           '-C 2yn'
loop_
_symmetry_equiv_pos_site_id
_symmetry_equiv_pos_as_xyz
1 x,y,z
2 1/2+x,1/2+y,z
3 -x,y,1/2-z
4 1/2-x,1/2+y,1/2-z
5 -x,-y,-z
6 1/2-x,1/2-y,-z
7 x,-y,1/2+z
8 1/2+x,1/2-y,1/2+z
_cell_length_a                   24.004(5)
_cell_length_b                   3.8319(7)
_cell_length_c                   16.271(3)
_cell_angle_alpha                90
_cell_angle_beta                 121.504(2)
_cell_angle_gamma                90
_cell_volume                     1276.03
_exptl_crystal_colour            'light yellow'
_exptl_crystal_description       prism
_cell_formula_units_Z            4
loop_
_atom_site_label
_atom_site_type_symbol
_atom_site_fract_x
_atom_site_fract_y
_atom_site_fract_z
O1 O -0.01430(5) 0.2416(4) 0.37030(7)
N1 N 0.02985(5) -0.0192(4) 0.29328(7)
H1 H 0.0641 -0.1038 0.2964
N2 N 0.15612(6) 0.1803(4) 0.63505(8)
C1 C 0.09840(6) 0.0985(4) 0.46366(9)
C2 C 0.10076(7) 0.1771(5) 0.54836(10)
H2 H 0.0618 0.2307 0.5450
C3 C 0.21100(7) 0.1041(5) 0.63793(10)
H3 H 0.2498 0.1051 0.6975
C4 C 0.21367(7) 0.0240(5) 0.55799(10)
H4 H 0.2534 -0.0271 0.5635
C5 C 0.15644(7) 0.0205(5) 0.46921(10)
H5 H 0.1569 -0.0335 0.4139
C6 C 0.03328(7) 0.1154(4) 0.37222(9)
O1B O 0.01430(5) 0.2416(4) 0.12970(7)
N1B N -0.02985(5) -0.0192(4) 0.20672(7)
H1B H -0.0641 -0.1038 0.2036
N2B N -0.15612(6) 0.1803(4) -0.13505(8)
C1B C -0.09840(6) 0.0985(4) 0.03634(9)
C2B C -0.10076(7) 0.1771(5) -0.04836(10)
H2B H -0.0618 0.2307 -0.0450
C3B C -0.21100(7) 0.1041(5) -0.13793(10)
H3B H -0.2498 0.1051 -0.1975
C4B C -0.21367(7) 0.0240(5) -0.05799(10)
H4B H -0.2534 -0.0271 -0.0635
C5B C -0.15644(7) 0.0205(5) 0.03079(10)
H5B H -0.1569 -0.0335 0.0861
C6B C -0.03328(7) 0.1154(4) 0.12778(9)
O2 O 0.12373(5) 0.5890(3) 0.27289(7)
H6 H 0.1400 0.7087 0.2466
H7 H 0.0917 0.4560 0.2359
loop_
_geom_bond_atom_site_label_1
_geom_bond_atom_site_label_2
_geom_bond_site_symmetry_1
_geom_bond_site_symmetry_2
O1 C6 1_555 1_555
N1 H1 1_555 1_555
N2 C2 1_555 1_555
C1 C2 1_555 1_555
C2 H2 1_555 1_555
C3 N2 1_555 1_555
H3 C3 1_555 1_555
C4 C3 1_555 1_555
H4 C4 1_555 1_555
C5 C1 1_555 1_555
H5 C5 1_555 1_555
C6 N1 1_555 1_555
O2 H6 1_555 1_555
H7 O2 1_555 1_555
O1B C6B 1_555 1_555
N1B N1 1_555 1_555
H1B N1B 1_555 1_555
N2B C2B 1_555 1_555
C1B C2B 1_555 1_555
C2B H2B 1_555 1_555
C3B N2B 1_555 1_555
H3B C3B 1_555 1_555
C4B C3B 1_555 1_555
H4B C4B 1_555 1_555
C5B C1B 1_555 1_555
H5B C5B 1_555 1_555
C6B N1B 1_555 1_555
C1 C6 1_555 1_555
C4 C5 1_555 1_555
C1B C6B 1_555 1_555
C4B C5B 1_555 1_555

#END
