
#######################################################################
#
#                 Cambridge Crystallographic Data Centre
#                                CCDC 
#
#######################################################################
#
# If this CIF has been generated from an entry in the Cambridge 
# Structural Database, then it will include bibliographic, chemical, 
# crystal, experimental, refinement or atomic coordinate data resulting 
# from the CCDC's data processing and validation procedures.
#
#######################################################################

data_YEPMOV
_chemical_formula_moiety         'C19 H25 N3 O3'
_chemical_name_systematic        
3,9-Diacetyl-7-benzyl-10-hydroxy-10-methyl-1,2,7-triazaspiro(4.5)dec-2-ene
_symmetry_cell_setting           monoclinic
_symmetry_space_group_name_H-M   'P 21'
_symmetry_Int_Tables_number      4
_space_group_name_Hall           'P 2yb'
loop_
_symmetry_equiv_pos_site_id
_symmetry_equiv_pos_as_xyz
1 x,y,z
2 -x,1/2+y,-z
_cell_length_a                   8.740(3)
_cell_length_b                   10.660(3)
_cell_length_c                   10.565(4)
_cell_angle_alpha                90
_cell_angle_beta                 111.49(3)
_cell_angle_gamma                90
_cell_volume                     915.895
_exptl_crystal_colour            yellow
_chemical_melting_point          178-180deg.C
_cell_formula_units_Z            2
loop_
_atom_site_label
_atom_site_type_symbol
_atom_site_fract_x
_atom_site_fract_y
_atom_site_fract_z
N1 N 0.8786(3) 0.8422(3) 0.4273(3)
N2 N 0.7240(3) 0.8236(3) 0.3379(3)
N3 N 1.0820(3) 0.9626(3) 0.6820(3)
C1 C 0.6692(4) 0.9270(4) 0.2734(3)
C2 C 0.7816(4) 1.0360(4) 0.3234(4)
C3 C 0.9292(4) 0.9754(3) 0.4364(3)
C4 C 0.9517(4) 1.0265(3) 0.5763(3)
C5 C 1.2385(4) 0.9812(4) 0.6653(4)
C6 C 1.2291(4) 0.9254(3) 0.5297(3)
C7 C 1.0907(4) 0.9842(3) 0.4097(3)
C8 C 1.0787(5) 0.9224(4) 0.2762(4)
C9 C 0.5078(4) 0.9311(4) 0.1661(4)
C10 C 0.4095(5) 0.8114(5) 0.1319(4)
C11 C 1.0899(5) 1.0049(4) 0.8164(4)
C12 C 0.9565(4) 0.9471(4) 0.8557(3)
C13 C 0.8456(5) 1.0202(4) 0.8887(4)
C14 C 0.7258(5) 0.9661(5) 0.9259(4)
C15 C 0.7157(5) 0.8363(5) 0.9323(4)
C16 C 0.8251(5) 0.7647(4) 0.8994(4)
C17 C 0.9433(5) 0.8177(4) 0.8604(4)
C18 C 1.3965(5) 0.9353(4) 0.5186(4)
C19 C 1.5095(5) 0.8282(5) 0.5640(4)
O1 O 1.1195(3) 1.11644 0.40244(24)
O2 O 0.4554(3) 1.0283(3) 0.1064(3)
O3 O 1.4366(4) 1.0289(3) 0.4745(4)
H1 H 1.235 1.121 0.411
H2 H 0.915 0.791 0.509
H3 H 0.731 1.105 0.355
H4 H 0.812 1.073 0.251
H5 H 0.965 1.114 0.580
H6 H 0.846 1.010 0.590
H7 H 1.327 0.940 0.739
H8 H 1.267 1.068 0.668
H9 H 1.199 0.837 0.531
H10 H 1.183 0.928 0.264
H11 H 1.052 0.836 0.275
H12 H 0.996 0.968 0.206
H13 H 0.469 0.739 0.184
H14 H 0.306 0.813 0.147
H15 H 0.386 0.794 0.037
H16 H 1.194 0.982 0.884
H17 H 1.085 1.096 0.813
H18 H 0.852 1.115 0.888
H19 H 0.652 1.023 0.948
H20 H 0.624 0.805 0.957
H21 H 0.818 0.674 0.903
H22 H 1.025 0.766 0.839
H23 H 1.516 0.784 0.486
H24 H 1.619 0.858 0.616
H25 H 1.470 0.771 0.620
loop_
_geom_bond_atom_site_label_1
_geom_bond_atom_site_label_2
_geom_bond_site_symmetry_1
_geom_bond_site_symmetry_2
N1 N2 1_555 1_555
N2 C1 1_555 1_555
N3 C4 1_555 1_555
C1 C2 1_555 1_555
C2 C3 1_555 1_555
C3 N1 1_555 1_555
C4 C3 1_555 1_555
C5 N3 1_555 1_555
C6 C5 1_555 1_555
C7 C3 1_555 1_555
C8 C7 1_555 1_555
C9 C1 1_555 1_555
C10 C9 1_555 1_555
C11 N3 1_555 1_555
C12 C11 1_555 1_555
C13 C12 1_555 1_555
C14 C13 1_555 1_555
C15 C14 1_555 1_555
C16 C15 1_555 1_555
C17 C12 1_555 1_555
C18 C6 1_555 1_555
C19 C18 1_555 1_555
O1 C7 1_555 1_555
O2 C9 1_555 1_555
O3 C18 1_555 1_555
H1 O1 1_555 1_555
H2 N1 1_555 1_555
H3 C2 1_555 1_555
H4 C2 1_555 1_555
H5 C4 1_555 1_555
H6 C4 1_555 1_555
H7 C5 1_555 1_555
H8 C5 1_555 1_555
H9 C6 1_555 1_555
H10 C8 1_555 1_555
H11 C8 1_555 1_555
H12 C8 1_555 1_555
H13 C10 1_555 1_555
H14 C10 1_555 1_555
H15 C10 1_555 1_555
H16 C11 1_555 1_555
H17 C11 1_555 1_555
H18 C13 1_555 1_555
H19 C14 1_555 1_555
H20 C15 1_555 1_555
H21 C16 1_555 1_555
H22 C17 1_555 1_555
H23 C19 1_555 1_555
H24 C19 1_555 1_555
H25 C19 1_555 1_555
C6 C7 1_555 1_555
C16 C17 1_555 1_555

#END
