
#######################################################################
#
#                 Cambridge Crystallographic Data Centre
#                                CCDC 
#
#######################################################################
#
# If this CIF has been generated from an entry in the Cambridge 
# Structural Database, then it will include bibliographic, chemical, 
# crystal, experimental, refinement or atomic coordinate data resulting 
# from the CCDC's data processing and validation procedures.
#
#######################################################################

data_YEPMIP
_chemical_formula_moiety         'C15 H23 N3 O3'
_chemical_name_systematic        
3,9-Diacetyl-10-hydroxy-10-methyl-7-(2-propenyl)-1,2,7-triazaspiro(4.5)dec-2-ene
_symmetry_cell_setting           monoclinic
_symmetry_space_group_name_H-M   'C 2/c'
_symmetry_Int_Tables_number      15
_space_group_name_Hall           '-C 2yn'
loop_
_symmetry_equiv_pos_site_id
_symmetry_equiv_pos_as_xyz
1 x,y,z
2 1/2+x,1/2+y,z
3 -x,y,1/2-z
4 1/2-x,1/2+y,1/2-z
5 -x,-y,-z
6 1/2-x,1/2-y,-z
7 x,-y,1/2+z
8 1/2+x,1/2-y,1/2+z
_cell_length_a                   26.004(6)
_cell_length_b                   7.1682(17)
_cell_length_c                   18.621(5)
_cell_angle_alpha                90
_cell_angle_beta                 109.13(2)
_cell_angle_gamma                90
_cell_volume                     3279.31
_exptl_crystal_colour            yellow
_chemical_melting_point          190-192deg.C
_cell_formula_units_Z            8
loop_
_atom_site_label
_atom_site_type_symbol
_atom_site_fract_x
_atom_site_fract_y
_atom_site_fract_z
N1 N 0.43266(8) 0.5133(3) 0.22908(10)
N2 N 0.44729(8) 0.3833(3) 0.28488(11)
N3 N 0.29281(8) 0.4326(3) 0.09227(11)
C1 C 0.42852(9) 0.2222(3) 0.25628(13)
C2 C 0.39630(10) 0.2314(3) 0.17378(14)
C3 C 0.39030(9) 0.4441(3) 0.16045(13)
C4 C 0.33435(10) 0.5083(4) 0.15901(14)
C5 C 0.30082(11) 0.5007(4) 0.02315(14)
C6 C 0.35602(10) 0.4409(4) 0.01932(14)
C7 C 0.40246(10) 0.5102(4) 0.08910(13)
C8 C 0.41019(12) 0.7209(4) 0.08822(16)
C9 C 0.43977(10) 0.0532(3) 0.30221(15)
C10 C 0.46414(13) 0.0664(4) 0.38623(16)
C11 C 0.23796(11) 0.4774(5) 0.09336(17)
C12 C 0.22589(11) 0.3841(5) 0.15686(19)
C13 C 0.20480(14) 0.4669(6) 0.20277(22)
C14 C 0.36342(12) 0.4981(4) -0.05515(15)
C15 C 0.40149(14) 0.3919(5) -0.08281(17)
O1 O 0.45073(7) 0.4234(3) 0.08507(9)
O2 O 0.42770(9) -0.09642(24) 0.27036(11)
O3 O 0.33859(12) 0.6267(4) -0.09074(13)
H1 H 0.481 0.456 0.130
H2 H 0.424 0.623 0.252
H3 H 0.413 0.172 0.140
H4 H 0.360 0.168 0.160
H5 H 0.333 0.645 0.160
H6 H 0.328 0.469 0.205
H7 H 0.271 0.457 -0.022
H8 H 0.299 0.636 0.021
H9 H 0.356 0.300 0.024
H10 H 0.410 0.766 0.039
H11 H 0.442 0.763 0.126
H12 H 0.378 0.774 0.097
H13 H 0.496 0.145 0.403
H14 H 0.476 -0.054 0.413
H15 H 0.437 0.116 0.404
H16 H 0.211 0.442 0.046
H17 H 0.234 0.609 0.099
H18 H 0.235 0.250 0.165
H19 H 0.191 0.410 0.240
H20 H 0.200 0.604 0.199
H21 H 0.388 0.272 -0.104
H22 H 0.437 0.368 -0.044
H23 H 0.408 0.467 -0.123
loop_
_geom_bond_atom_site_label_1
_geom_bond_atom_site_label_2
_geom_bond_site_symmetry_1
_geom_bond_site_symmetry_2
N1 N2 1_555 1_555
N2 C1 1_555 1_555
N3 C4 1_555 1_555
C1 C2 1_555 1_555
C2 C3 1_555 1_555
C3 N1 1_555 1_555
C4 C3 1_555 1_555
C5 N3 1_555 1_555
C6 C5 1_555 1_555
C7 C3 1_555 1_555
C8 C7 1_555 1_555
C9 C1 1_555 1_555
C10 C9 1_555 1_555
C11 N3 1_555 1_555
C12 C11 1_555 1_555
C13 C12 1_555 1_555
C14 C6 1_555 1_555
C15 C14 1_555 1_555
O1 C7 1_555 1_555
O2 C9 1_555 1_555
O3 C14 1_555 1_555
H1 O1 1_555 1_555
H2 N1 1_555 1_555
H3 C2 1_555 1_555
H4 C2 1_555 1_555
H5 C4 1_555 1_555
H6 C4 1_555 1_555
H7 C5 1_555 1_555
H8 C5 1_555 1_555
H9 C6 1_555 1_555
H10 C8 1_555 1_555
H11 C8 1_555 1_555
H12 C8 1_555 1_555
H13 C10 1_555 1_555
H14 C10 1_555 1_555
H15 C10 1_555 1_555
H16 C11 1_555 1_555
H17 C11 1_555 1_555
H18 C12 1_555 1_555
H19 C13 1_555 1_555
H20 C13 1_555 1_555
H21 C15 1_555 1_555
H22 C15 1_555 1_555
H23 C15 1_555 1_555
C6 C7 1_555 1_555

#END
