
#######################################################################
#
#                 Cambridge Crystallographic Data Centre
#                                CCDC 
#
#######################################################################
#
# If this CIF has been generated from an entry in the Cambridge 
# Structural Database, then it will include bibliographic, chemical, 
# crystal, experimental, refinement or atomic coordinate data resulting 
# from the CCDC's data processing and validation procedures.
#
#######################################################################

data_YEPQUI
_chemical_formula_moiety         'C34 H44 O15'
_chemical_name_systematic        
9,9'-(6-methyl-2,4-dioxooxane-3,3-diyl)bis(5-hydroxy-6,14-dimethyl-1,7-dioxacyclotetradec-3-ene-2,8,11-trione)
_symmetry_cell_setting           monoclinic
_symmetry_space_group_name_H-M   'P 21'
_symmetry_Int_Tables_number      4
_space_group_name_Hall           'P 2yb'
loop_
_symmetry_equiv_pos_site_id
_symmetry_equiv_pos_as_xyz
1 x,y,z
2 -x,1/2+y,-z
_cell_length_a                   10.9088(3)
_cell_length_b                   21.0266(7)
_cell_length_c                   15.6713(4)
_cell_angle_alpha                90
_cell_angle_beta                 95.207(2)
_cell_angle_gamma                90
_cell_volume                     3579.77
_exptl_crystal_colour            colorless
_exptl_crystal_description       block
_cell_formula_units_Z            4
loop_
_atom_site_label
_atom_site_type_symbol
_atom_site_fract_x
_atom_site_fract_y
_atom_site_fract_z
C1 C 0.5251(8) 0.2918(4) 0.0604(6)
H1 H 0.507242 0.265440 0.009224
H2 H 0.453576 0.291999 0.094006
H3 H 0.596441 0.274377 0.095238
C2 C 0.5524(7) 0.3578(4) 0.0344(5)
H4 H 0.481547 0.373323 -0.005071
C3 C 0.5751(6) 0.4055(4) 0.1074(5)
H5 H 0.580958 0.448595 0.082644
H6 H 0.503104 0.405170 0.141636
C4 C 0.6899(5) 0.3931(4) 0.1667(4)
H7 H 0.701808 0.346474 0.171013
H8 H 0.675136 0.408708 0.224440
C5 C 0.8095(5) 0.4226(3) 0.1420(3)
C6 C 1.0439(5) 0.4314(2) 0.1848(3)
H9 H 1.112375 0.400771 0.200859
C7 C 1.0670(5) 0.4555(3) 0.0964(3)
C8 C 1.0817(6) 0.4225(3) -0.0489(3)
H10 H 1.049177 0.466002 -0.063617
C9 C 0.9253(5) 0.3915(3) 0.1826(3)
H11 H 0.938514 0.351542 0.151253
H12 H 0.911516 0.379769 0.242171
C10 C 1.2171(7) 0.4198(4) -0.0597(4)
H13 H 1.261484 0.448492 -0.018448
H14 H 1.231125 0.432890 -0.118075
H15 H 1.246935 0.376227 -0.049786
C11 C 1.0079(6) 0.3728(3) -0.1026(3)
H16 H 1.047864 0.330633 -0.089867
C12 C 0.8798(6) 0.3689(3) -0.0764(3)
H17 H 0.870159 0.348897 -0.022983
C13 C 0.7799(7) 0.3899(3) -0.1190(4)
H18 H 0.785878 0.406637 -0.174750
C14 C 0.6582(7) 0.3892(3) -0.0854(4)
C15 C 1.0581(4) 0.4850(3) 0.2549(3)
C16 C 0.9470(5) 0.5290(3) 0.2505(3)
C17 C 0.9587(6) 0.5901(3) 0.2101(4)
H19 H 0.895904 0.607930 0.171398
C18 C 1.0803(7) 0.6234(3) 0.2347(4)
H20 H 1.077729 0.637225 0.295571
C19 C 1.1790(5) 0.5192(3) 0.2436(3)
C20 C 1.1021(11) 0.6813(4) 0.1855(5)
H21 H 1.186425 0.696292 0.200397
H22 H 1.043823 0.714447 0.199288
H23 H 1.090582 0.671854 0.124065
C21 C 1.0654(4) 0.4532(3) 0.3457(3)
H24 H 0.986055 0.429904 0.349068
C22 C 1.0709(4) 0.5033(3) 0.4140(3)
C23 C 1.0408(5) 0.5190(3) 0.5621(3)
H25 H 1.128531 0.533260 0.569261
C24 C 0.9568(7) 0.5764(4) 0.5619(4)
H26 H 0.978242 0.606533 0.517884
H27 H 0.966710 0.597084 0.618168
H28 H 0.871080 0.562842 0.549495
C25 C 1.0183(5) 0.4715(3) 0.6319(3)
H29 H 0.928141 0.461905 0.626348
C26 C 1.1799(5) 0.3884(3) 0.6644(3)
H30 H 1.213633 0.412802 0.711947
C27 C 1.2389(5) 0.3273(3) 0.6459(4)
C28 C 1.2364(5) 0.2386(3) 0.5496(4)
H31 H 1.328269 0.241366 0.555734
C29 C 1.1957(6) 0.1851(3) 0.6062(4)
H32 H 1.232403 0.191361 0.665029
H33 H 1.222669 0.144219 0.584528
H34 H 1.105750 0.185413 0.605494
C30 C 1.1917(6) 0.2321(3) 0.4556(4)
H35 H 1.226734 0.192805 0.432906
H36 H 1.101031 0.227648 0.450075
C31 C 1.2265(5) 0.2882(3) 0.4014(4)
H37 H 1.246925 0.272102 0.345000
H38 H 1.301354 0.308482 0.429657
C32 C 1.1265(5) 0.3379(3) 0.3871(3)
C33 C 1.1696(4) 0.4043(3) 0.3673(3)
H39 H 1.220539 0.401823 0.318189
H40 H 1.223001 0.420093 0.417247
C34 C 1.0835(4) 0.4104(3) 0.6183(3)
H41 H 1.051690 0.384946 0.571322
O1 O 0.5682(5) 0.4150(3) -0.1197(3)
O2 O 0.6596(4) 0.3575(2) -0.0116(3)
O3 O 0.8137(4) 0.4664(2) 0.0930(3)
O4 O 1.0950(4) 0.5091(2) 0.0797(2)
O5 O 1.0622(4) 0.40731(18) 0.04038(19)
O6 O 1.0127(6) 0.3846(3) -0.1911(2)
H42 H 0.986314 0.421454 -0.202753
O7 O 1.0186(4) 0.3254(2) 0.3864(3)
O8 O 1.1847(3) 0.29913(19) 0.5765(2)
O9 O 1.3283(4) 0.3068(2) 0.6874(3)
O10 O 1.0467(3) 0.49904(19) 0.71402(19)
H43 H 1.119946 0.511866 0.718439
O11 O 1.0185(3) 0.48357(18) 0.48249(19)
O12 O 1.1213(4) 0.5539(2) 0.4098(2)
O13 O 0.8537(3) 0.5130(2) 0.2826(2)
O14 O 1.2754(3) 0.4895(2) 0.2439(2)
O15 O 1.1864(4) 0.5814(2) 0.2337(2)
C35 C 0.6864(4) 0.5672(3) 0.8077(3)
H44 H 0.719168 0.543181 0.859133
H45 H 0.716096 0.545671 0.757276
C36 C 0.7410(5) 0.6332(3) 0.8133(3)
C37 C 0.8644(6) 0.6400(4) 0.7814(4)
H46 H 0.909300 0.599460 0.792147
H47 H 0.852834 0.646092 0.718552
C38 C 0.9423(8) 0.6914(6) 0.8178(5)
H48 H 0.889933 0.729303 0.823727
H49 H 1.002431 0.702266 0.776378
C39 C 1.0131(6) 0.6782(5) 0.9043(4)
H50 H 1.046865 0.720148 0.925165
C40 C 0.8630(7) 0.7063(4) 0.9985(4)
C41 C 0.7642(6) 0.6840(3) 1.0512(4)
H51 H 0.725721 0.713799 1.085746
C42 C 0.7298(5) 0.6253(3) 1.0513(3)
H52 H 0.777893 0.595704 1.022864
C43 C 0.6214(5) 0.5995(3) 1.0917(3)
H53 H 0.638186 0.553968 1.107268
C44 C 0.5063(4) 0.6023(3) 1.0274(3)
H54 H 0.484521 0.647796 1.015369
C45 C 0.4905(4) 0.5942(2) 0.8749(3)
C46 C 0.5460(4) 0.5622(2) 0.8006(2)
H55 H 0.528042 0.515907 0.806717
C47 C 0.3968(5) 0.5688(3) 1.0562(3)
H56 H 0.329456 0.570195 1.010373
H57 H 0.370915 0.589841 1.107372
H58 H 0.418186 0.524458 1.069634
C48 C 0.4802(4) 0.5818(2) 0.7118(3)
C49 C 0.3417(4) 0.5776(3) 0.7184(3)
C50 C 0.3038(5) 0.6854(3) 0.6651(4)
H59 H 0.300283 0.682056 0.601226
C51 C 0.4350(5) 0.7025(3) 0.7005(4)
H60 H 0.462289 0.741220 0.671691
H61 H 0.437070 0.711300 0.762627
C52 C 0.5185(5) 0.6490(3) 0.6855(3)
C53 C 0.2135(7) 0.7349(4) 0.6887(5)
H62 H 0.130691 0.723349 0.664106
H63 H 0.236300 0.776301 0.666233
H64 H 0.214617 0.737266 0.751230
C54 C 0.5206(4) 0.5358(3) 0.6416(3)
H65 H 0.610634 0.542815 0.637790
C55 C 0.4551(5) 0.5549(3) 0.5555(3)
C56 C 0.4721(5) 0.5617(3) 0.4060(3)
H66 H 0.388257 0.542081 0.399840
C57 C 0.4616(6) 0.6315(3) 0.3846(4)
H67 H 0.409175 0.652358 0.423854
H68 H 0.425098 0.636635 0.325556
H69 H 0.543593 0.650889 0.390616
C58 C 0.5556(4) 0.5256(3) 0.3511(3)
H70 H 0.640401 0.543682 0.361275
C59 C 0.5606(5) 0.4569(3) 0.3761(3)
H71 H 0.492712 0.430748 0.356595
C60 C 0.6539(5) 0.4298(3) 0.4238(3)
H72 H 0.728149 0.452851 0.436436
C61 C 0.6437(5) 0.3653(3) 0.4568(3)
C62 C 0.7336(5) 0.2946(3) 0.5684(4)
H73 H 0.661611 0.267843 0.546740
C63 C 0.7204(6) 0.3156(3) 0.6591(4)
H74 H 0.794113 0.340590 0.679837
H75 H 0.718137 0.277412 0.695880
C64 C 0.6066(6) 0.3554(3) 0.6698(4)
H76 H 0.579301 0.346651 0.727150
H77 H 0.540136 0.341053 0.626851
C65 C 0.6207(5) 0.4262(3) 0.6606(3)
C66 C 0.5021(5) 0.4638(3) 0.6555(3)
H78 H 0.462397 0.457457 0.709223
H79 H 0.445713 0.446915 0.607782
C67 C 0.8509(6) 0.2598(3) 0.5588(4)
H80 H 0.872149 0.263660 0.499545
H81 H 0.840593 0.214812 0.572745
H82 H 0.916994 0.278133 0.597691
C68 C 1.1139(8) 0.6340(7) 0.9161(7)
H83 H 1.135013 0.626980 0.977509
H84 H 1.185354 0.651447 0.890507
H85 H 1.089904 0.593550 0.888412
O16 O 0.4080(3) 0.63174(18) 0.86927(19)
O17 O 0.5450(3) 0.57312(17) 0.94983(17)
O18 O 0.5990(4) 0.6332(2) 1.1670(2)
H86 H 0.523661 0.631590 1.173985
O19 O 0.8787(6) 0.7616(3) 0.9863(4)
O20 O 0.9222(4) 0.6596(3) 0.9645(3)
O21 O 0.6833(3) 0.6770(2) 0.8397(2)
O22 O 0.2976(3) 0.52783(19) 0.7420(2)
O23 O 0.6134(3) 0.6558(2) 0.6511(2)
O24 O 0.2648(3) 0.6260(2) 0.6996(2)
O25 O 0.3494(4) 0.5718(3) 0.5452(2)
O26 O 0.5271(3) 0.55234(18) 0.49330(18)
O27 O 0.5150(3) 0.53292(19) 0.26215(18)
H87 H 0.440100 0.523295 0.253951
O28 O 0.5619(4) 0.3283(2) 0.4379(3)
O29 O 0.7377(3) 0.35331(18) 0.5166(2)
O30 O 0.7194(3) 0.4524(2) 0.6623(3)
loop_
_geom_bond_atom_site_label_1
_geom_bond_atom_site_label_2
_geom_bond_site_symmetry_1
_geom_bond_site_symmetry_2
C1 H1 1_555 1_555
H2 C1 1_555 1_555
H3 C1 1_555 1_555
C2 C1 1_555 1_555
H4 C2 1_555 1_555
C3 C2 1_555 1_555
H5 C3 1_555 1_555
H6 C3 1_555 1_555
C4 C3 1_555 1_555
H7 C4 1_555 1_555
H8 C4 1_555 1_555
C5 C4 1_555 1_555
C6 H9 1_555 1_555
C7 C6 1_555 1_555
C8 H10 1_555 1_555
C9 C5 1_555 1_555
H11 C9 1_555 1_555
H12 C9 1_555 1_555
C10 C8 1_555 1_555
H13 C10 1_555 1_555
H14 C10 1_555 1_555
H15 C10 1_555 1_555
C11 C8 1_555 1_555
H16 C11 1_555 1_555
C12 C11 1_555 1_555
H17 C12 1_555 1_555
C13 C12 1_555 1_555
H18 C13 1_555 1_555
C14 C13 1_555 1_555
C15 C6 1_555 1_555
C16 C15 1_555 1_555
C17 C16 1_555 1_555
H19 C17 1_555 1_555
C18 C17 1_555 1_555
H20 C18 1_555 1_555
C19 C15 1_555 1_555
C20 C18 1_555 1_555
H21 C20 1_555 1_555
H22 C20 1_555 1_555
H23 C20 1_555 1_555
C21 C15 1_555 1_555
H24 C21 1_555 1_555
C22 C21 1_555 1_555
C23 H25 1_555 1_555
C24 C23 1_555 1_555
H26 C24 1_555 1_555
H27 C24 1_555 1_555
H28 C24 1_555 1_555
C25 C23 1_555 1_555
H29 C25 1_555 1_555
C26 H30 1_555 1_555
C27 C26 1_555 1_555
C28 H31 1_555 1_555
C29 C28 1_555 1_555
H32 C29 1_555 1_555
H33 C29 1_555 1_555
H34 C29 1_555 1_555
C30 C28 1_555 1_555
H35 C30 1_555 1_555
H36 C30 1_555 1_555
C31 C30 1_555 1_555
H37 C31 1_555 1_555
H38 C31 1_555 1_555
C32 C31 1_555 1_555
C33 C21 1_555 1_555
H39 C33 1_555 1_555
H40 C33 1_555 1_555
C34 C25 1_555 1_555
H41 C34 1_555 1_555
O1 C14 1_555 1_555
O2 C2 1_555 1_555
O3 C5 1_555 1_555
O4 C7 1_555 1_555
O5 C7 1_555 1_555
O6 C11 1_555 1_555
H42 O6 1_555 1_555
O7 C32 1_555 1_555
O8 C27 1_555 1_555
O9 C27 1_555 1_555
O10 C25 1_555 1_555
H43 O10 1_555 1_555
O11 C22 1_555 1_555
O12 C22 1_555 1_555
O13 C16 1_555 1_555
O14 C19 1_555 1_555
O15 C18 1_555 1_555
C35 H44 1_555 1_555
H45 C35 1_555 1_555
C36 C35 1_555 1_555
C37 C36 1_555 1_555
H46 C37 1_555 1_555
H47 C37 1_555 1_555
C38 C37 1_555 1_555
H48 C38 1_555 1_555
H49 C38 1_555 1_555
C39 C38 1_555 1_555
H50 C39 1_555 1_555
C40 C41 1_555 1_555
C41 H51 1_555 1_555
C42 C41 1_555 1_555
H52 C42 1_555 1_555
C43 C42 1_555 1_555
H53 C43 1_555 1_555
C44 C43 1_555 1_555
H54 C44 1_555 1_555
C45 C46 1_555 1_555
C46 C35 1_555 1_555
H55 C46 1_555 1_555
C47 C44 1_555 1_555
H56 C47 1_555 1_555
H57 C47 1_555 1_555
H58 C47 1_555 1_555
C48 C46 1_555 1_555
C49 C48 1_555 1_555
C50 H59 1_555 1_555
C51 C50 1_555 1_555
H60 C51 1_555 1_555
H61 C51 1_555 1_555
C52 C48 1_555 1_555
C53 C50 1_555 1_555
H62 C53 1_555 1_555
H63 C53 1_555 1_555
H64 C53 1_555 1_555
C54 C48 1_555 1_555
H65 C54 1_555 1_555
C55 C54 1_555 1_555
C56 H66 1_555 1_555
C57 C56 1_555 1_555
H67 C57 1_555 1_555
H68 C57 1_555 1_555
H69 C57 1_555 1_555
C58 C56 1_555 1_555
H70 C58 1_555 1_555
C59 C58 1_555 1_555
H71 C59 1_555 1_555
C60 C59 1_555 1_555
H72 C60 1_555 1_555
C61 C60 1_555 1_555
C62 H73 1_555 1_555
C63 C62 1_555 1_555
H74 C63 1_555 1_555
H75 C63 1_555 1_555
C64 C63 1_555 1_555
H76 C64 1_555 1_555
H77 C64 1_555 1_555
C65 C64 1_555 1_555
C66 C54 1_555 1_555
H78 C66 1_555 1_555
H79 C66 1_555 1_555
C67 C62 1_555 1_555
H80 C67 1_555 1_555
H81 C67 1_555 1_555
H82 C67 1_555 1_555
C68 C39 1_555 1_555
H83 C68 1_555 1_555
H84 C68 1_555 1_555
H85 C68 1_555 1_555
O16 C45 1_555 1_555
O17 C44 1_555 1_555
O18 C43 1_555 1_555
H86 O18 1_555 1_555
O19 C40 1_555 1_555
O20 C39 1_555 1_555
O21 C36 1_555 1_555
O22 C49 1_555 1_555
O23 C52 1_555 1_555
O24 C49 1_555 1_555
O25 C55 1_555 1_555
O26 C55 1_555 1_555
O27 C58 1_555 1_555
H87 O27 1_555 1_555
O28 C61 1_555 1_555
O29 C61 1_555 1_555
O30 C65 1_555 1_555
C6 C9 1_555 1_555
C8 O5 1_555 1_555
C14 O2 1_555 1_555
C19 O15 1_555 1_555
C23 O11 1_555 1_555
C26 C34 1_555 1_555
C28 O8 1_555 1_555
C32 C33 1_555 1_555
C40 O20 1_555 1_555
C45 O17 1_555 1_555
C50 O24 1_555 1_555
C51 C52 1_555 1_555
C56 O26 1_555 1_555
C62 O29 1_555 1_555
C65 C66 1_555 1_555

#END
