
#######################################################################
#
#                 Cambridge Crystallographic Data Centre
#                                CCDC 
#
#######################################################################
#
# If this CIF has been generated from an entry in the Cambridge 
# Structural Database, then it will include bibliographic, chemical, 
# crystal, experimental, refinement or atomic coordinate data resulting 
# from the CCDC's data processing and validation procedures.
#
#######################################################################

data_YEQHIO
_chemical_formula_moiety         'C24 H23 N1 O4'
_chemical_name_systematic        
'ethyl 3-[6-(2-ethoxy-2-oxoethyl)-6H-isoindolo[2,1-a]indol-10-yl]prop-2-enoate'
_symmetry_cell_setting           monoclinic
_symmetry_space_group_name_H-M   'P 21/c'
_symmetry_Int_Tables_number      14
_space_group_name_Hall           '-P 2ybc'
loop_
_symmetry_equiv_pos_site_id
_symmetry_equiv_pos_as_xyz
1 x,y,z
2 -x,1/2+y,1/2-z
3 -x,-y,-z
4 x,1/2-y,1/2+z
_cell_length_a                   5.35588(12)
_cell_length_b                   19.1883(5)
_cell_length_c                   19.7062(5)
_cell_angle_alpha                90
_cell_angle_beta                 92.631(2)
_cell_angle_gamma                90
_cell_volume                     2023.08
_cell_formula_units_Z            4
loop_
_atom_site_label
_atom_site_type_symbol
_atom_site_fract_x
_atom_site_fract_y
_atom_site_fract_z
O1 O 0.5221(2) 0.57740(6) 0.36850(6)
N1 N 0.3247(2) 0.17205(6) 0.41153(6)
C1 C 0.2111(3) 0.35680(8) 0.44355(8)
C2 C 0.2271(3) 0.28412(8) 0.43780(7)
C3 C 0.3863(3) 0.24037(8) 0.39803(7)
C4 C 0.0682(3) 0.24008(8) 0.47294(7)
C5 C 0.5726(3) 0.24138(8) 0.35266(8)
H1 H 0.6476 0.2807 0.3349
C6 C 0.4743(3) 0.05556(9) 0.37121(9)
H2 H 0.3673 0.0282 0.3958
O2 O 0.0858(2) 0.13407(6) 0.63460(6)
C7 C 0.4691(3) 0.12794(8) 0.37510(7)
C8 C 0.6293(3) 0.17057(8) 0.33789(7)
C9 C 0.3837(3) 0.40198(8) 0.40874(9)
H3 H 0.5157 0.3798 0.3885
C10 C 0.8023(3) 0.13824(9) 0.29667(9)
H4 H 0.9117 0.1649 0.2721
C11 C 0.0268(3) 0.38263(9) 0.48493(9)
H5 H 0.0110 0.4306 0.4899
C12 C 0.6910(4) 0.62145(9) 0.33257(9)
H6 H 0.6767 0.6119 0.2842
H7 H 0.8624 0.6131 0.3486
O3 O 0.7355(3) 0.48397(8) 0.33836(10)
C13 C -0.1124(3) 0.26738(9) 0.51312(8)
H8 H -0.2188 0.2382 0.5361
C14 C 0.5643(3) 0.50905(9) 0.36657(9)
C15 C 0.1284(3) 0.16398(8) 0.46000(7)
H9 H -0.0168 0.1399 0.4389
O4 O -0.1778(3) 0.08794(10) 0.55633(8)
C16 C 0.3750(3) 0.46990(9) 0.40254(9)
H10 H 0.2450 0.4941 0.4215
C17 C 0.8079(4) 0.06683(10) 0.29306(10)
H11 H 0.9224 0.0452 0.2659
C18 C 0.2249(3) 0.12562(9) 0.52382(8)
H12 H 0.2949 0.0811 0.5111
H13 H 0.3570 0.1528 0.5464
C19 C 0.0202(3) 0.11357(9) 0.57211(9)
C20 C 0.6447(4) 0.02619(10) 0.32943(10)
H14 H 0.6510 -0.0221 0.3254
C21 C -0.1316(3) 0.33973(10) 0.51851(9)
H15 H -0.2529 0.3591 0.5451
C22 C -0.0927(4) 0.12131(12) 0.68671(11)
H16 H -0.1414 0.0726 0.6867
H17 H -0.2413 0.1495 0.6784
C23 C 0.6175(5) 0.69518(10) 0.34651(12)
H18 H 0.7234 0.7263 0.3228
H19 H 0.6352 0.7041 0.3944
H20 H 0.4467 0.7024 0.3312
C24 C 0.0337(6) 0.14035(14) 0.75306(12)
H21 H 0.0674 0.1895 0.7539
H22 H 0.1879 0.1151 0.7588
H23 H -0.0729 0.1287 0.7892
loop_
_geom_bond_atom_site_label_1
_geom_bond_atom_site_label_2
_geom_bond_site_symmetry_1
_geom_bond_site_symmetry_2
O1 C12 1_555 1_555
N1 C3 1_555 1_555
C1 C2 1_555 1_555
C2 C3 1_555 1_555
C3 C5 1_555 1_555
C4 C2 1_555 1_555
C5 H1 1_555 1_555
C6 H2 1_555 1_555
O2 C19 1_555 1_555
C7 N1 1_555 1_555
C8 C5 1_555 1_555
C9 C1 1_555 1_555
H3 C9 1_555 1_555
C10 C8 1_555 1_555
H4 C10 1_555 1_555
C11 C1 1_555 1_555
H5 C11 1_555 1_555
C12 H6 1_555 1_555
H7 C12 1_555 1_555
O3 C14 1_555 1_555
C13 C4 1_555 1_555
H8 C13 1_555 1_555
C14 O1 1_555 1_555
C15 N1 1_555 1_555
H9 C15 1_555 1_555
O4 C19 1_555 1_555
C16 C9 1_555 1_555
H10 C16 1_555 1_555
C17 C10 1_555 1_555
H11 C17 1_555 1_555
C18 C15 1_555 1_555
H12 C18 1_555 1_555
H13 C18 1_555 1_555
C19 C18 1_555 1_555
C20 C6 1_555 1_555
H14 C20 1_555 1_555
C21 C11 1_555 1_555
H15 C21 1_555 1_555
C22 O2 1_555 1_555
H16 C22 1_555 1_555
H17 C22 1_555 1_555
C23 C12 1_555 1_555
H18 C23 1_555 1_555
H19 C23 1_555 1_555
H20 C23 1_555 1_555
C24 C22 1_555 1_555
H21 C24 1_555 1_555
H22 C24 1_555 1_555
H23 C24 1_555 1_555
C4 C15 1_555 1_555
C6 C7 1_555 1_555
C7 C8 1_555 1_555
C13 C21 1_555 1_555
C14 C16 1_555 1_555
C17 C20 1_555 1_555

#END
