
#######################################################################
#
#                 Cambridge Crystallographic Data Centre
#                                CCDC 
#
#######################################################################
#
# If this CIF has been generated from an entry in the Cambridge 
# Structural Database, then it will include bibliographic, chemical, 
# crystal, experimental, refinement or atomic coordinate data resulting 
# from the CCDC's data processing and validation procedures.
#
#######################################################################

data_YEQJOW
_chemical_formula_moiety         'C12 H14 N1 1+,C10 H15 O3 1-'
_chemical_name_systematic        
'1-(naphthalen-1-yl)ethylammonium 2-hydroxy-6,6-dimethylbicyclo[3.1.1]heptane-2-carboxylate'
_symmetry_cell_setting           orthorhombic
_symmetry_space_group_name_H-M   'P 21 21 21'
_symmetry_Int_Tables_number      19
_space_group_name_Hall           'P 2ac 2ab'
loop_
_symmetry_equiv_pos_site_id
_symmetry_equiv_pos_as_xyz
1 x,y,z
2 1/2-x,-y,1/2+z
3 1/2+x,1/2-y,-z
4 -x,1/2+y,1/2-z
_cell_length_a                   6.6676(5)
_cell_length_b                   12.2739(9)
_cell_length_c                   23.7176(17)
_cell_angle_alpha                90
_cell_angle_beta                 90
_cell_angle_gamma                90
_cell_volume                     1940.99
_exptl_crystal_colour            colorless
_exptl_crystal_description       block
_cell_formula_units_Z            4
loop_
_atom_site_label
_atom_site_type_symbol
_atom_site_fract_x
_atom_site_fract_y
_atom_site_fract_z
O1 O 0.3107(4) 0.58041(14) 0.83832(9)
O2 O 0.2205(3) 0.71003(18) 0.92698(7)
O3 O 0.5244(3) 0.76490(13) 0.92063(6)
C1 C 0.3916(6) 0.9416(2) 0.82541(12)
H1 H 0.5070 0.9005 0.8369
H2 H 0.3150 0.9617 0.8581
H3 H 0.4342 1.0061 0.8059
C2 C 0.0815(6) 0.9402(3) 0.76908(14)
H4 H -0.0003 0.8969 0.7444
H5 H 0.1243 1.0048 0.7496
H6 H 0.0051 0.9604 0.8018
C3 C 0.2656(4) 0.8742(2) 0.78730(9)
C4 C 0.2004(4) 0.7568(2) 0.80617(9)
C5 C 0.2028(7) 0.7220(4) 0.74433(12)
C6 C 0.3560(6) 0.8128(3) 0.73651(10)
C7 C 0.5610(6) 0.7686(3) 0.75044(14)
C8 C 0.5653(4) 0.7021(3) 0.80561(11)
C9 C 0.3649(3) 0.69410(15) 0.83639(7)
C10 C 0.3727(3) 0.72640(14) 0.89918(7)
H7 H 0.079(4) 0.748(2) 0.8264(11)
H8 H 0.651(4) 0.835(2) 0.7651(10)
H9 H 0.359(4) 0.849(2) 0.7048(13)
H10 H 0.665(5) 0.739(3) 0.8308(13)
H11 H 0.088(5) 0.741(3) 0.7248(14)
H12 H 0.605(5) 0.722(3) 0.7187(16)
H13 H 0.640(5) 0.632(3) 0.8024(14)
H14 H 0.216(7) 0.650(3) 0.7320(17)
H15 H 0.200(10) 0.579(9) 0.867(3)
N1 N 0.6485(3) 0.33937(12) 0.47011(7)
C11 C 0.8938(4) 0.73992(17) 0.60840(8)
C12 C 0.7272(5) 0.79963(19) 0.60014(9)
C13 C 0.5808(5) 0.76345(19) 0.56292(10)
C14 C 0.6023(3) 0.66710(16) 0.53424(8)
C15 C 0.7764(3) 0.60195(14) 0.54189(6)
C16 C 0.9257(3) 0.63999(14) 0.57967(7)
C17 C 1.1006(3) 0.57823(18) 0.58783(8)
C18 C 1.1290(3) 0.48350(19) 0.55977(9)
C19 C 0.9837(3) 0.44607(16) 0.52200(9)
C20 C 0.8088(2) 0.50188(14) 0.51294(7)
C21 C 0.6553(3) 0.46065(13) 0.47110(7)
C22 C 0.6968(4) 0.50118(19) 0.41151(9)
H16 H 1.195(4) 0.6021(19) 0.6142(10)
H17 H 0.996(4) 0.766(2) 0.6323(11)
H18 H 1.247(4) 0.435(2) 0.5636(11)
H19 H 0.521(3) 0.4866(14) 0.4839(8)
H20 H 0.763(3) 0.3121(17) 0.4523(9)
H21 H 0.542(4) 0.3193(18) 0.4507(10)
H22 H 0.673(4) 0.579(3) 0.4132(11)
H23 H 1.008(3) 0.3812(17) 0.5026(8)
H24 H 0.601(4) 0.4749(18) 0.3848(10)
H25 H 0.497(4) 0.6429(17) 0.5060(9)
H26 H 0.705(3) 0.868(2) 0.6180(10)
H27 H 0.464(4) 0.808(2) 0.5573(12)
H28 H 0.833(4) 0.478(2) 0.4020(10)
H29 H 0.645(4) 0.310(2) 0.5067(12)
loop_
_geom_bond_atom_site_label_1
_geom_bond_atom_site_label_2
_geom_bond_site_symmetry_1
_geom_bond_site_symmetry_2
O1 C9 1_555 1_555
O2 C10 1_555 1_555
O3 C10 1_555 1_555
C1 H1 1_555 1_555
H2 C1 1_555 1_555
H3 C1 1_555 1_555
C2 H4 1_555 1_555
H5 C2 1_555 1_555
H6 C2 1_555 1_555
C3 C1 1_555 1_555
C4 C3 1_555 1_555
C5 C4 1_555 1_555
C6 C3 1_555 1_555
C7 C6 1_555 1_555
C8 C7 1_555 1_555
C9 C4 1_555 1_555
C10 C9 1_555 1_555
H7 C4 1_555 1_555
H8 C7 1_555 1_555
H9 C6 1_555 1_555
H10 C8 1_555 1_555
H11 C5 1_555 1_555
H12 C7 1_555 1_555
H13 C8 1_555 1_555
H14 C5 1_555 1_555
H15 O1 1_555 1_555
N1 C21 1_555 1_555
C11 C12 1_555 1_555
C12 C13 1_555 1_555
C13 C14 1_555 1_555
C14 C15 1_555 1_555
C15 C16 1_555 1_555
C16 C11 1_555 1_555
C17 C16 1_555 1_555
C18 C17 1_555 1_555
C19 C18 1_555 1_555
C20 C15 1_555 1_555
C21 C20 1_555 1_555
C22 C21 1_555 1_555
H16 C17 1_555 1_555
H17 C11 1_555 1_555
H18 C18 1_555 1_555
H19 C21 1_555 1_555
H20 N1 1_555 1_555
H21 N1 1_555 1_555
H22 C22 1_555 1_555
H23 C19 1_555 1_555
H24 C22 1_555 1_555
H25 C14 1_555 1_555
H26 C12 1_555 1_555
H27 C13 1_555 1_555
H28 C22 1_555 1_555
H29 N1 1_555 1_555
C2 C3 1_555 1_555
C5 C6 1_555 1_555
C8 C9 1_555 1_555
C19 C20 1_555 1_555

#END
