
#######################################################################
#
#                 Cambridge Crystallographic Data Centre
#                                CCDC 
#
#######################################################################
#
# If this CIF has been generated from an entry in the Cambridge 
# Structural Database, then it will include bibliographic, chemical, 
# crystal, experimental, refinement or atomic coordinate data resulting 
# from the CCDC's data processing and validation procedures.
#
#######################################################################

data_YERMAJ
_chemical_formula_moiety         'C24 H19 N1 O1'
_chemical_name_systematic        4-(4-Methoxyphenyl)-2,6-diphenylpyridine
_symmetry_cell_setting           monoclinic
_symmetry_space_group_name_H-M   'C 2/c'
_symmetry_Int_Tables_number      15
_space_group_name_Hall           '-C 2yn'
loop_
_symmetry_equiv_pos_site_id
_symmetry_equiv_pos_as_xyz
1 x,y,z
2 1/2+x,1/2+y,z
3 -x,y,1/2-z
4 1/2-x,1/2+y,1/2-z
5 -x,-y,-z
6 1/2-x,1/2-y,-z
7 x,-y,1/2+z
8 1/2+x,1/2-y,1/2+z
_cell_length_a                   16.353(4)
_cell_length_b                   10.111(2)
_cell_length_c                   23.059(5)
_cell_angle_alpha                90
_cell_angle_beta                 108.04(2)
_cell_angle_gamma                90
_cell_volume                     3625.26
_chemical_melting_point          101.5-102.0deg.C
_cell_formula_units_Z            8
loop_
_atom_site_label
_atom_site_type_symbol
_atom_site_fract_x
_atom_site_fract_y
_atom_site_fract_z
N1 N 0.7039(1) 0.2051(1) 0.3337(1)
C1 C 0.6482(1) 0.1386(1) 0.2876(1)
C2 C 0.6029(1) 0.1979(1) 0.2328(1)
C3 C 0.6150(1) 0.3324(1) 0.2236(1)
C4 C 0.6743(1) 0.3996(1) 0.2713(1)
C5 C 0.7168(1) 0.3346(1) 0.3251(1)
C6 C 0.6353(1) -0.0040(1) 0.2992(1)
C7 C 0.6173(1) -0.0964(1) 0.2525(1)
C8 C 0.6057(1) -0.2289(2) 0.2643(1)
C9 C 0.6105(1) -0.2690(2) 0.3221(1)
C10 C 0.6270(1) -0.1784(2) 0.3686(1)
C11 C 0.6403(1) -0.0462(2) 0.3575(1)
C12 C 0.5637(1) 0.4014(1) 0.1673(1)
C13 C 0.4797(1) 0.3629(1) 0.1373(1)
C14 C 0.4283(1) 0.4301(1) 0.0868(1)
C15 C 0.4607(1) 0.5400(1) 0.0653(1)
C16 C 0.5449(1) 0.5789(1) 0.0940(1)
C17 C 0.5955(1) 0.5106(1) 0.1439(1)
O1 O 0.4146(1) 0.6169(1) 0.0175(1)
C18 C 0.3271(1) 0.5827(2) -0.0111(1)
C19 C 0.7780(1) 0.4038(1) 0.3783(1)
C20 C 0.8076(1) 0.3412(2) 0.4347(1)
C21 C 0.8642(1) 0.4038(2) 0.4844(1)
C22 C 0.8928(1) 0.5307(2) 0.4789(1)
C23 C 0.8642(1) 0.5940(2) 0.4236(1)
C24 C 0.8072(1) 0.5321(2) 0.3736(1)
H1 H 0.5646(1) 0.1484(1) 0.2023(1)
H2 H 0.6854(1) 0.4886(1) 0.2668(1)
H3 H 0.6129(1) -0.0697(1) 0.2130(1)
H4 H 0.5947(1) -0.2905(2) 0.2329(1)
H5 H 0.6025(1) -0.3576(2) 0.3298(1)
H6 H 0.6292(1) -0.2054(2) 0.4076(1)
H7 H 0.6528(1) 0.0144(2) 0.3893(1)
H8 H 0.4573(1) 0.2898(1) 0.1516(1)
H9 H 0.3724(1) 0.4016(1) 0.0674(1)
H10 H 0.5673(1) 0.6516(1) 0.0794(1)
H11 H 0.6520(1) 0.5377(1) 0.1624(1)
H12 H 0.3020(1) 0.6435(2) -0.0437(1)
H13 H 0.2964(1) 0.5869(2) 0.0182(1)
H14 H 0.3238(1) 0.4945(2) -0.0271(1)
H15 H 0.7891(1) 0.2559(2) 0.4390(1)
H16 H 0.8831(1) 0.3604(2) 0.5218(1)
H17 H 0.9309(1) 0.5726(2) 0.5123(1)
H18 H 0.8832(1) 0.6791(2) 0.4196(1)
H19 H 0.7881(1) 0.5766(2) 0.3366(1)
loop_
_geom_bond_atom_site_label_1
_geom_bond_atom_site_label_2
_geom_bond_site_symmetry_1
_geom_bond_site_symmetry_2
N1 C1 1_555 1_555
C1 C2 1_555 1_555
C2 C3 1_555 1_555
C3 C4 1_555 1_555
C4 C5 1_555 1_555
C5 N1 1_555 1_555
C6 C1 1_555 1_555
C7 C6 1_555 1_555
C8 C7 1_555 1_555
C9 C8 1_555 1_555
C10 C9 1_555 1_555
C11 C6 1_555 1_555
C12 C3 1_555 1_555
C13 C12 1_555 1_555
C14 C13 1_555 1_555
C15 C14 1_555 1_555
C16 C15 1_555 1_555
C17 C12 1_555 1_555
O1 C15 1_555 1_555
C18 O1 1_555 1_555
C19 C5 1_555 1_555
C20 C19 1_555 1_555
C21 C20 1_555 1_555
C22 C21 1_555 1_555
C23 C22 1_555 1_555
C24 C19 1_555 1_555
H1 C2 1_555 1_555
H2 C4 1_555 1_555
H3 C7 1_555 1_555
H4 C8 1_555 1_555
H5 C9 1_555 1_555
H6 C10 1_555 1_555
H7 C11 1_555 1_555
H8 C13 1_555 1_555
H9 C14 1_555 1_555
H10 C16 1_555 1_555
H11 C17 1_555 1_555
H12 C18 1_555 1_555
H13 C18 1_555 1_555
H14 C18 1_555 1_555
H15 C20 1_555 1_555
H16 C21 1_555 1_555
H17 C22 1_555 1_555
H18 C23 1_555 1_555
H19 C24 1_555 1_555
C10 C11 1_555 1_555
C16 C17 1_555 1_555
C23 C24 1_555 1_555

#END
