
#######################################################################
#
#                 Cambridge Crystallographic Data Centre
#                                CCDC 
#
#######################################################################
#
# If this CIF has been generated from an entry in the Cambridge 
# Structural Database, then it will include bibliographic, chemical, 
# crystal, experimental, refinement or atomic coordinate data resulting 
# from the CCDC's data processing and validation procedures.
#
#######################################################################

data_YERNUE
_chemical_formula_moiety         'C14 H11 N1 O4'
_chemical_name_systematic        
'(1S*,5R*)-6-Benzoyl-7-oxo-6-azabicyclo(3.2.0)hept-2-ene-2-carboxylic acid'
_symmetry_cell_setting           monoclinic
_symmetry_space_group_name_H-M   'C 2/c'
_symmetry_Int_Tables_number      15
_space_group_name_Hall           '-C 2yn'
loop_
_symmetry_equiv_pos_site_id
_symmetry_equiv_pos_as_xyz
1 x,y,z
2 1/2+x,1/2+y,z
3 -x,y,1/2-z
4 1/2-x,1/2+y,1/2-z
5 -x,-y,-z
6 1/2-x,1/2-y,-z
7 x,-y,1/2+z
8 1/2+x,1/2-y,1/2+z
_cell_length_a                   24.228(5)
_cell_length_b                   7.708(2)
_cell_length_c                   14.975(4)
_cell_angle_alpha                90
_cell_angle_beta                 115.50(2)
_cell_angle_gamma                90
_cell_volume                     2524.15
_exptl_crystal_colour            white
_chemical_melting_point          194.1-196.1deg.C
_cell_formula_units_Z            8
loop_
_atom_site_label
_atom_site_type_symbol
_atom_site_fract_x
_atom_site_fract_y
_atom_site_fract_z
O1 O 0.4986(1) 0.6523(3) 0.4065(2)
O2 O 0.4344(1) 0.4492(3) 0.4116(1)
C1 C 0.4467(2) 0.5676(4) 0.3677(2)
C2 C 0.4023(1) 0.6212(3) 0.2695(2)
C3 C 0.4092(2) 0.7513(3) 0.2152(2)
C4 C 0.3541(2) 0.7746(3) 0.1190(2)
C5 C 0.3138(2) 0.6204(3) 0.1146(2)
N1 N 0.3280(1) 0.4600(3) 0.0737(2)
C6 C 0.3477(1) 0.3682(3) 0.1631(2)
O3 O 0.3611(1) 0.2198(2) 0.1835(1)
C7 C 0.3425(1) 0.5302(3) 0.2173(2)
C8 C 0.3135(1) 0.4226(3) -0.0247(2)
O4 O 0.2820(1) 0.5238(3) -0.0887(1)
C9 C 0.3389(1) 0.2617(3) -0.0463(2)
C10 C 0.3052(2) 0.1783(3) -0.1358(2)
C11 C 0.3278(2) 0.0338(4) -0.1615(2)
C12 C 0.3841(2) -0.0292(4) -0.0990(2)
C13 C 0.4188(2) 0.0532(4) -0.0103(2)
C14 C 0.3961(1) 0.1984(3) 0.0164(2)
H1 H 0.4156 0.8566 0.2526
H2 H 0.3657 0.7690 0.0653
H3 H 0.3341 0.8833 0.1160
H4 H 0.2710 0.6465 0.0893
H5 H 0.3178 0.5205 0.2528
H6 H 0.2658 0.2224 -0.1797
H7 H 0.3042 -0.0237 -0.2231
H8 H 0.3994 -0.1319 -0.1168
H9 H 0.4588 0.0100 0.0321
H10 H 0.4197 0.2556 0.0782
loop_
_geom_bond_atom_site_label_1
_geom_bond_atom_site_label_2
_geom_bond_site_symmetry_1
_geom_bond_site_symmetry_2
O1 C1 1_555 1_555
O2 C1 1_555 1_555
C1 C2 1_555 1_555
C2 C3 1_555 1_555
C3 C4 1_555 1_555
C4 C5 1_555 1_555
C5 N1 1_555 1_555
N1 C6 1_555 1_555
C6 O3 1_555 1_555
C7 C2 1_555 1_555
C8 N1 1_555 1_555
O4 C8 1_555 1_555
C9 C8 1_555 1_555
C10 C9 1_555 1_555
C11 C10 1_555 1_555
C12 C11 1_555 1_555
C13 C12 1_555 1_555
C14 C9 1_555 1_555
H1 C3 1_555 1_555
H2 C4 1_555 1_555
H3 C4 1_555 1_555
H4 C5 1_555 1_555
H5 C7 1_555 1_555
H6 C10 1_555 1_555
H7 C11 1_555 1_555
H8 C12 1_555 1_555
H9 C13 1_555 1_555
H10 C14 1_555 1_555
C5 C7 1_555 1_555
C6 C7 1_555 1_555
C13 C14 1_555 1_555

#END
