
#######################################################################
#
#                 Cambridge Crystallographic Data Centre
#                                CCDC 
#
#######################################################################
#
# If this CIF has been generated from an entry in the Cambridge 
# Structural Database, then it will include bibliographic, chemical, 
# crystal, experimental, refinement or atomic coordinate data resulting 
# from the CCDC's data processing and validation procedures.
#
#######################################################################

data_YERWIC
_chemical_formula_moiety         'C15 H14 Br1 N1'
_chemical_name_systematic        N-(4-Bromobenzylidene)-2,4-dimethylaniline
_symmetry_cell_setting           monoclinic
_symmetry_space_group_name_H-M   'C c'
_symmetry_Int_Tables_number      9
_space_group_name_Hall           'C -2yc'
loop_
_symmetry_equiv_pos_site_id
_symmetry_equiv_pos_as_xyz
1 x,y,z
2 x,-y,1/2+z
3 1/2+x,1/2+y,z
4 1/2+x,1/2-y,1/2+z
_cell_length_a                   7.5540(10)
_cell_length_b                   15.3230(10)
_cell_length_c                   11.7140(10)
_cell_angle_alpha                90
_cell_angle_beta                 97.1340(10)
_cell_angle_gamma                90
_cell_volume                     1345.4
_exptl_crystal_colour            yellow
_exptl_crystal_description       block
_cell_formula_units_Z            4
_exptl_crystal_recrystallization_method ethanol
loop_
_atom_site_label
_atom_site_type_symbol
_atom_site_fract_x
_atom_site_fract_y
_atom_site_fract_z
Br1 Br 0.50000(8) 1.12488(3) 0.50000(7)
N1 N 0.4834(6) 0.7111(3) 0.2663(4)
C1 C 0.5113(6) 1.0054(3) 0.4594(5)
C2 C 0.5984(6) 0.9470(3) 0.5363(4)
C3 C 0.6063(7) 0.8605(3) 0.5048(4)
C4 C 0.5297(6) 0.8330(3) 0.3967(4)
C5 C 0.4440(7) 0.8932(3) 0.3201(5)
C6 C 0.4336(7) 0.9800(3) 0.3506(5)
C7 C 0.5403(6) 0.7399(3) 0.3658(4)
C8 C 0.4870(6) 0.6196(3) 0.2501(4)
C9 C 0.4161(7) 0.5625(3) 0.3262(4)
C10 C 0.4119(7) 0.4740(3) 0.3078(5)
C11 C 0.4821(7) 0.4377(3) 0.2145(5)
C12 C 0.5523(6) 0.4947(3) 0.1392(5)
C13 C 0.5558(6) 0.5846(3) 0.1551(4)
C14 C 0.4759(9) 0.3409(4) 0.1941(6)
C15 C 0.6321(9) 0.6436(4) 0.0698(6)
H1 H 0.6510 0.9656 0.6082
H2 H 0.6632 0.8202 0.5563
H3 H 0.3932 0.8749 0.2476
H4 H 0.3761 1.0205 0.2996
H5 H 0.5906 0.7008 0.4214
H6 H 0.3710 0.5851 0.3904
H7 H 0.3613 0.4378 0.3586
H8 H 0.5988 0.4717 0.0757
H9 H 0.5003 0.3289 0.1172
H10 H 0.3596 0.3192 0.2041
H11 H 0.5639 0.3128 0.2480
H12 H 0.6794 0.6088 0.0126
H13 H 0.7256 0.6787 0.1094
H14 H 0.5396 0.6808 0.0333
loop_
_geom_bond_atom_site_label_1
_geom_bond_atom_site_label_2
_geom_bond_site_symmetry_1
_geom_bond_site_symmetry_2
Br1 C1 1_555 1_555
N1 C7 1_555 1_555
C1 C2 1_555 1_555
C2 C3 1_555 1_555
C3 C4 1_555 1_555
C4 C5 1_555 1_555
C5 C6 1_555 1_555
C6 C1 1_555 1_555
C7 C4 1_555 1_555
C8 N1 1_555 1_555
C9 C8 1_555 1_555
C10 C9 1_555 1_555
C11 C10 1_555 1_555
C12 C11 1_555 1_555
C13 C8 1_555 1_555
C14 C11 1_555 1_555
C15 C13 1_555 1_555
H1 C2 1_555 1_555
H2 C3 1_555 1_555
H3 C5 1_555 1_555
H4 C6 1_555 1_555
H5 C7 1_555 1_555
H6 C9 1_555 1_555
H7 C10 1_555 1_555
H8 C12 1_555 1_555
H9 C14 1_555 1_555
H10 C14 1_555 1_555
H11 C14 1_555 1_555
H12 C15 1_555 1_555
H13 C15 1_555 1_555
H14 C15 1_555 1_555
C12 C13 1_555 1_555

#END
