
#######################################################################
#
#                 Cambridge Crystallographic Data Centre
#                                CCDC 
#
#######################################################################
#
# If this CIF has been generated from an entry in the Cambridge 
# Structural Database, then it will include bibliographic, chemical, 
# crystal, experimental, refinement or atomic coordinate data resulting 
# from the CCDC's data processing and validation procedures.
#
#######################################################################

data_YERXID
_chemical_formula_moiety         'C20 H17 Br1 N2 O4'
_chemical_name_systematic        
4-(4-Bromophenyl)-3-(2,5-dioxopyrrolidin-1-yl)-1-(4-methyloxyphenyl)azetidin-2-one
_symmetry_cell_setting           triclinic
_symmetry_space_group_name_H-M   'P -1'
_symmetry_Int_Tables_number      2
_space_group_name_Hall           '-P 1'
loop_
_symmetry_equiv_pos_site_id
_symmetry_equiv_pos_as_xyz
1 x,y,z
2 -x,-y,-z
_cell_length_a                   9.1715(11)
_cell_length_b                   10.1286(12)
_cell_length_c                   10.6487(12)
_cell_angle_alpha                111.2110(10)
_cell_angle_beta                 92.045(2)
_cell_angle_gamma                94.6450(10)
_cell_volume                     916.911
_exptl_crystal_colour            colorless
_exptl_crystal_description       block
_cell_formula_units_Z            2
loop_
_atom_site_label
_atom_site_type_symbol
_atom_site_fract_x
_atom_site_fract_y
_atom_site_fract_z
Br1 Br 0.01666(4) 0.54352(3) 0.82751(3)
O1 O 0.2720(2) 0.0013(2) 0.50335(19)
O2 O 0.5431(2) 0.3080(2) 0.3604(2)
O3 O 0.24678(18) -0.18152(17) 0.19318(18)
O4 O -0.47297(19) -0.18864(19) -0.0041(2)
N1 N 0.3965(2) 0.1376(2) 0.40250(19)
N2 N 0.0989(2) 0.00332(19) 0.21143(18)
C1 C 0.3584(3) 0.1002(3) 0.5116(2)
C2 C 0.4435(3) 0.2057(3) 0.6360(3)
H1 H 0.4994 0.1570 0.6818
H2 H 0.3779 0.2626 0.6981
C3 C 0.5448(3) 0.2983(3) 0.5854(3)
H3 H 0.5331 0.3981 0.6326
H4 H 0.6463 0.2830 0.5989
C4 C 0.5013(3) 0.2544(3) 0.4384(3)
C5 C 0.3162(2) 0.0861(2) 0.2723(2)
H5 H 0.3791 0.0946 0.2025
C6 C 0.2231(3) -0.0587(3) 0.2219(2)
C7 C 0.1674(2) 0.1510(2) 0.2649(2)
H6 H 0.1652 0.1954 0.1970
C8 C 0.1198(2) 0.2461(2) 0.3978(2)
C9 C 0.0192(3) 0.1986(2) 0.4706(2)
H7 H -0.0266 0.1063 0.4336
C10 C -0.0133(3) 0.2866(2) 0.5966(2)
H8 H -0.0822 0.2549 0.6440
C11 C 0.0577(3) 0.4228(2) 0.6520(2)
C12 C 0.1568(3) 0.4733(2) 0.5824(3)
H9 H 0.2033 0.5653 0.6204
C13 C 0.1860(3) 0.3846(2) 0.4550(2)
H10 H 0.2516 0.4184 0.4064
C14 C -0.0450(2) -0.0508(2) 0.1549(2)
C15 C -0.0909(3) -0.1944(2) 0.1124(2)
H11 H -0.0259 -0.2575 0.1199
C16 C -0.2335(3) -0.2448(2) 0.0587(2)
H12 H -0.2641 -0.3415 0.0299
C17 C -0.3298(3) -0.1507(3) 0.0479(2)
C18 C -0.2836(3) -0.0070(3) 0.0902(2)
H13 H -0.3487 0.0560 0.0828
C19 C -0.1424(3) 0.0433(2) 0.1430(2)
H14 H -0.1119 0.1400 0.1707
C20 C -0.5292(3) -0.3331(3) -0.0470(3)
H15 H -0.4719 -0.3896 -0.1165
H16 H -0.6292 -0.3438 -0.0818
H17 H -0.5247 -0.3642 0.0280
loop_
_geom_bond_atom_site_label_1
_geom_bond_atom_site_label_2
_geom_bond_site_symmetry_1
_geom_bond_site_symmetry_2
Br1 C11 1_555 1_555
O1 C1 1_555 1_555
O2 C4 1_555 1_555
O3 C6 1_555 1_555
O4 C17 1_555 1_555
N1 C1 1_555 1_555
N2 C6 1_555 1_555
C1 C2 1_555 1_555
C2 H1 1_555 1_555
H2 C2 1_555 1_555
C3 C2 1_555 1_555
H3 C3 1_555 1_555
H4 C3 1_555 1_555
C4 N1 1_555 1_555
C5 N1 1_555 1_555
H5 C5 1_555 1_555
C6 C5 1_555 1_555
C7 N2 1_555 1_555
H6 C7 1_555 1_555
C8 C7 1_555 1_555
C9 C8 1_555 1_555
H7 C9 1_555 1_555
C10 C9 1_555 1_555
H8 C10 1_555 1_555
C11 C10 1_555 1_555
C12 C11 1_555 1_555
H9 C12 1_555 1_555
C13 C8 1_555 1_555
H10 C13 1_555 1_555
C14 N2 1_555 1_555
C15 C14 1_555 1_555
H11 C15 1_555 1_555
C16 C15 1_555 1_555
H12 C16 1_555 1_555
C17 C16 1_555 1_555
C18 C17 1_555 1_555
H13 C18 1_555 1_555
C19 C14 1_555 1_555
H14 C19 1_555 1_555
C20 O4 1_555 1_555
H15 C20 1_555 1_555
H16 C20 1_555 1_555
H17 C20 1_555 1_555
C3 C4 1_555 1_555
C5 C7 1_555 1_555
C12 C13 1_555 1_555
C18 C19 1_555 1_555

#END
