
#######################################################################
#
#                 Cambridge Crystallographic Data Centre
#                                CCDC 
#
#######################################################################
#
# If this CIF has been generated from an entry in the Cambridge 
# Structural Database, then it will include bibliographic, chemical, 
# crystal, experimental, refinement or atomic coordinate data resulting 
# from the CCDC's data processing and validation procedures.
#
#######################################################################

data_YERYUS
_chemical_formula_moiety         'C11 H12 N2 O2 S1,2(C6 H6 N2 O1)'
_chemical_name_systematic        
'bis(pyridine-3-carboxamide) N-[1-(1-benzothiophen-2-yl)ethyl]-N-hydroxyurea'
_symmetry_cell_setting           monoclinic
_symmetry_space_group_name_H-M   'P 21/c'
_symmetry_Int_Tables_number      14
_space_group_name_Hall           '-P 2ybc'
loop_
_symmetry_equiv_pos_site_id
_symmetry_equiv_pos_as_xyz
1 x,y,z
2 -x,1/2+y,1/2-z
3 -x,-y,-z
4 x,1/2-y,1/2+z
_cell_length_a                   5.1859(7)
_cell_length_b                   43.799(5)
_cell_length_c                   10.7366(15)
_cell_angle_alpha                90
_cell_angle_beta                 104.691(12)
_cell_angle_gamma                90
_cell_volume                     2358.96
_exptl_crystal_colour            colorless
_exptl_crystal_description       'rod like'
_cell_formula_units_Z            4
loop_
_atom_site_label
_atom_site_type_symbol
_atom_site_fract_x
_atom_site_fract_y
_atom_site_fract_z
C1 C 0.0435(8) 0.04483(10) 0.0508(4)
C2 C -0.0290(9) 0.08545(10) 0.1921(5)
H1 H -0.2039 0.0759 0.1827
C3 C -0.0721(10) 0.11987(11) 0.1895(6)
H2 H -0.1316 0.1259 0.2636
H3 H -0.2044 0.1254 0.1127
H4 H 0.0924 0.1300 0.1906
C4 C 0.1474(9) 0.07417(12) 0.3161(5)
C5 C 0.0983(14) 0.05108(15) 0.3869(7)
H5 H -0.0574 0.0396 0.3638
C6 C 0.3030(16) 0.04527(19) 0.5012(7)
C7 C 0.3173(19) 0.0230(2) 0.5999(8)
H6 H 0.1793 0.0092 0.5959
C8 C 0.541(2) 0.0226(2) 0.7009(8)
H7 H 0.5581 0.0072 0.7620
C9 C 0.727(2) 0.0424(2) 0.7152(8)
H8 H 0.8674 0.0421 0.7889
C10 C 0.7203(17) 0.0637(2) 0.6237(7)
H9 H 0.8615 0.0773 0.6322
C11 C 0.5024(15) 0.06549(18) 0.5162(6)
N1 N 0.2420(7) 0.03203(8) 0.0130(4)
H10 H 0.2313 0.0132 -0.0107
H11 H 0.3817 0.0425 0.0122
N2 N 0.0668(7) 0.07613(8) 0.0798(4)
O1 O -0.1639(6) 0.03167(7) 0.0552(4)
O2 O 0.3254(5) 0.08797(7) 0.0886(3)
H12 H 0.3250 0.0975 0.0227
S1 S 0.4507(4) 0.09004(5) 0.38772(15)
C12 C 1.1411(9) 0.24908(10) 0.2439(4)
C13 C 0.9329(8) 0.22566(9) 0.2474(4)
C14 C 0.7970(9) 0.21159(10) 0.1339(4)
H13 H 0.8365 0.2164 0.0565
C15 C 0.6026(10) 0.19038(11) 0.1374(5)
H14 H 0.5076 0.1809 0.0621
C16 C 0.5513(10) 0.18337(11) 0.2530(5)
H15 H 0.4196 0.1690 0.2539
C17 C 0.8647(10) 0.21703(11) 0.3594(4)
H16 H 0.9531 0.2265 0.4360
N3 N 1.2577(8) 0.26341(9) 0.3524(4)
H17 H 1.3804 0.2767 0.3532
H18 H 1.2107 0.2594 0.4220
N4 N 0.6800(8) 0.19602(10) 0.3644(4)
O3 O 1.2036(7) 0.25421(7) 0.1417(3)
C18 C 0.7202(9) 0.18588(11) 0.7421(5)
C19 C 0.9251(9) 0.16177(11) 0.7443(4)
C20 C 1.0163(12) 0.15306(14) 0.6396(6)
H19 H 0.9505 0.1625 0.5604
C21 C 1.2057(14) 0.13021(15) 0.6525(7)
H20 H 1.2673 0.1238 0.5826
C22 C 1.2989(13) 0.11736(15) 0.7716(8)
H21 H 1.4283 0.1022 0.7807
C23 C 1.0348(11) 0.14695(13) 0.8589(5)
H22 H 0.9769 0.1527 0.9307
N5 N 0.6096(8) 0.19969(10) 0.6304(4)
H23 H 0.5876 0.1867 0.5684
H24 H 0.4575 0.2070 0.6335
N6 N 1.2179(10) 0.12494(11) 0.8739(5)
O4 O 0.6631(7) 0.19280(9) 0.8434(3)
loop_
_geom_bond_atom_site_label_1
_geom_bond_atom_site_label_2
_geom_bond_site_symmetry_1
_geom_bond_site_symmetry_2
C1 N1 1_555 1_555
C2 H1 1_555 1_555
C3 C2 1_555 1_555
H2 C3 1_555 1_555
H3 C3 1_555 1_555
H4 C3 1_555 1_555
C4 C2 1_555 1_555
C5 C4 1_555 1_555
H5 C5 1_555 1_555
C6 C5 1_555 1_555
C7 C6 1_555 1_555
H6 C7 1_555 1_555
C8 C7 1_555 1_555
H7 C8 1_555 1_555
C9 C8 1_555 1_555
H8 C9 1_555 1_555
C10 C9 1_555 1_555
H9 C10 1_555 1_555
C11 C6 1_555 1_555
N1 H10 1_555 1_555
H11 N1 1_555 1_555
N2 C1 1_555 1_555
O1 C1 1_555 1_555
O2 N2 1_555 1_555
H12 O2 1_555 1_555
S1 C4 1_555 1_555
C12 C13 1_555 1_555
C13 C14 1_555 1_555
C14 H13 1_555 1_555
C15 C14 1_555 1_555
H14 C15 1_555 1_555
C16 C15 1_555 1_555
H15 C16 1_555 1_555
C17 C13 1_555 1_555
H16 C17 1_555 1_555
N3 C12 1_555 1_555
H17 N3 1_555 1_555
H18 N3 1_555 1_555
N4 C16 1_555 1_555
O3 C12 1_555 1_555
C18 C19 1_555 1_555
C19 C20 1_555 1_555
C20 H19 1_555 1_555
C21 C20 1_555 1_555
H20 C21 1_555 1_555
C22 C21 1_555 1_555
H21 C22 1_555 1_555
C23 C19 1_555 1_555
H22 C23 1_555 1_555
N5 C18 1_555 1_555
H23 N5 1_555 1_555
H24 N5 1_555 1_555
N6 C22 1_555 1_555
O4 C18 1_555 1_555
C2 N2 1_555 1_555
C10 C11 1_555 1_555
C11 S1 1_555 1_555
C17 N4 1_555 1_555
C23 N6 1_555 1_555

#END
