
#######################################################################
#
#                 Cambridge Crystallographic Data Centre
#                                CCDC 
#
#######################################################################
#
# If this CIF has been generated from an entry in the Cambridge 
# Structural Database, then it will include bibliographic, chemical, 
# crystal, experimental, refinement or atomic coordinate data resulting 
# from the CCDC's data processing and validation procedures.
#
#######################################################################

data_YERYIG
_chemical_formula_moiety         'C11 H12 N2 O2 S1'
_chemical_name_systematic        
N-[1-(1-benzothiophen-2-yl)ethyl]-N-hydroxyurea
_symmetry_cell_setting           triclinic
_symmetry_space_group_name_H-M   'P -1'
_symmetry_Int_Tables_number      2
_space_group_name_Hall           '-P 1'
loop_
_symmetry_equiv_pos_site_id
_symmetry_equiv_pos_as_xyz
1 x,y,z
2 -x,-y,-z
_cell_length_a                   5.224(3)
_cell_length_b                   6.014(4)
_cell_length_c                   36.61(2)
_cell_angle_alpha                87.300(14)
_cell_angle_beta                 87.390(13)
_cell_angle_gamma                81.545(14)
_cell_volume                     1135.55
_exptl_crystal_colour            colorless
_exptl_crystal_description       needle
_cell_formula_units_Z            4
loop_
_atom_site_label
_atom_site_type_symbol
_atom_site_fract_x
_atom_site_fract_y
_atom_site_fract_z
S1 S 0.38120(19) 0.94983(17) 0.37242(3)
O1 O 0.4763(5) 0.6097(5) 0.45676(7)
H1 H 0.3304 0.6791 0.4543
O2 O 1.0180(5) 0.8898(5) 0.45625(7)
N1 N 0.6625(5) 0.7413(5) 0.44165(8)
N2 N 0.7508(6) 0.7860(6) 0.50232(9)
H2 H 0.8430 0.8304 0.5187
H3 H 0.6141 0.7276 0.5088
C1 C 0.5762(7) 0.6883(6) 0.37812(10)
C2 C 0.7789(7) 0.6586(7) 0.40648(10)
H4 H 0.9099 0.7535 0.3985
C3 C 0.8205(7) 0.8065(6) 0.46705(10)
C4 C 0.9165(8) 0.4157(7) 0.41003(12)
H5 H 1.0498 0.4064 0.4275
H6 H 0.9925 0.3703 0.3867
H7 H 0.7935 0.3182 0.4181
C5 C 0.5258(7) 0.5381(7) 0.35349(10)
H8 H 0.6133 0.3922 0.3523
C6 C 0.3208(7) 0.6313(7) 0.32932(11)
C7 C 0.2231(7) 0.8548(7) 0.33667(11)
C8 C 0.0156(8) 0.9746(8) 0.31731(11)
H9 H -0.0481 1.1231 0.3224
C9 C -0.0902(8) 0.8656(9) 0.29069(12)
H10 H -0.2288 0.9410 0.2779
C10 C 0.0080(9) 0.6432(9) 0.28268(12)
H11 H -0.0651 0.5734 0.2644
C11 C 0.2133(8) 0.5252(8) 0.30165(11)
H12 H 0.2784 0.3778 0.2961
S2 S 0.18609(19) 0.65345(18) 0.86904(3)
O3 O 0.0456(5) 0.9139(5) 0.95646(7)
H13 H 0.1938 0.8493 0.9531
O4 O -0.4957(5) 0.6325(4) 0.95564(7)
N3 N -0.1325(5) 0.7903(5) 0.94094(8)
N4 N -0.2489(6) 0.7091(6) 1.00163(9)
H14 H -0.3455 0.6518 1.0180
H15 H -0.1164 0.7659 1.0079
C12 C -0.0235(7) 0.9024(6) 0.87788(10)
C13 C -0.2382(7) 0.9002(6) 0.90677(10)
H16 H -0.3607 0.8077 0.8981
C14 C -0.3043(7) 0.7109(6) 0.96651(10)
C15 C -0.3866(8) 1.1351(7) 0.91241(12)
H17 H -0.5263 1.1258 0.9301
H18 H -0.4550 1.1970 0.8896
H19 H -0.2718 1.2302 0.9210
C16 C 0.0275(7) 1.0756(7) 0.85521(10)
H20 H -0.0668 1.2192 0.8560
C17 C 0.2426(7) 1.0161(7) 0.82970(11)
C18 C 0.3497(7) 0.7888(7) 0.83431(11)
C19 C 0.5671(8) 0.6979(8) 0.81292(12)
H21 H 0.6384 0.5475 0.8159
C20 C 0.6721(8) 0.8391(9) 0.78725(12)
H22 H 0.8162 0.7820 0.7729
C21 C 0.5668(9) 1.0643(9) 0.78240(12)
H23 H 0.6408 1.1551 0.7649
C22 C 0.3541(8) 1.1541(8) 0.80330(12)
H24 H 0.2847 1.3048 0.8000
loop_
_geom_bond_atom_site_label_1
_geom_bond_atom_site_label_2
_geom_bond_site_symmetry_1
_geom_bond_site_symmetry_2
S1 C1 1_555 1_555
O1 H1 1_555 1_555
O2 C3 1_555 1_555
N1 O1 1_555 1_555
N2 H2 1_555 1_555
H3 N2 1_555 1_555
C1 C2 1_555 1_555
C2 N1 1_555 1_555
H4 C2 1_555 1_555
C3 N1 1_555 1_555
C4 C2 1_555 1_555
H5 C4 1_555 1_555
H6 C4 1_555 1_555
H7 C4 1_555 1_555
C5 C1 1_555 1_555
H8 C5 1_555 1_555
C6 C5 1_555 1_555
C7 S1 1_555 1_555
C8 C7 1_555 1_555
H9 C8 1_555 1_555
C9 C8 1_555 1_555
H10 C9 1_555 1_555
C10 C9 1_555 1_555
H11 C10 1_555 1_555
C11 C6 1_555 1_555
H12 C11 1_555 1_555
S2 C12 1_555 1_555
O3 H13 1_555 1_555
O4 C14 1_555 1_555
N3 O3 1_555 1_555
N4 H14 1_555 1_555
H15 N4 1_555 1_555
C12 C13 1_555 1_555
C13 N3 1_555 1_555
H16 C13 1_555 1_555
C14 N3 1_555 1_555
C15 C13 1_555 1_555
H17 C15 1_555 1_555
H18 C15 1_555 1_555
H19 C15 1_555 1_555
C16 C12 1_555 1_555
H20 C16 1_555 1_555
C17 C16 1_555 1_555
C18 S2 1_555 1_555
C19 C18 1_555 1_555
H21 C19 1_555 1_555
C20 C19 1_555 1_555
H22 C20 1_555 1_555
C21 C20 1_555 1_555
H23 C21 1_555 1_555
C22 C17 1_555 1_555
H24 C22 1_555 1_555
N2 C3 1_555 1_555
C6 C7 1_555 1_555
C10 C11 1_555 1_555
N4 C14 1_555 1_555
C17 C18 1_555 1_555
C21 C22 1_555 1_555

#END
