
#######################################################################
#
#                 Cambridge Crystallographic Data Centre
#                                CCDC 
#
#######################################################################
#
# If this CIF has been generated from an entry in the Cambridge 
# Structural Database, then it will include bibliographic, chemical, 
# crystal, experimental, refinement or atomic coordinate data resulting 
# from the CCDC's data processing and validation procedures.
#
#######################################################################

data_YERYOM
_chemical_formula_moiety         'C11 H12 N2 O2 S1,H2 O1'
_chemical_name_systematic        
'N-[1-(1-benzothiophen-2-yl)ethyl]-N-hydroxyurea monohydrate'
_symmetry_cell_setting           monoclinic
_symmetry_space_group_name_H-M   'P c'
_symmetry_Int_Tables_number      7
_space_group_name_Hall           'P -2yc'
loop_
_symmetry_equiv_pos_site_id
_symmetry_equiv_pos_as_xyz
1 x,y,z
2 x,-y,1/2+z
_cell_length_a                   20.997(3)
_cell_length_b                   6.1061(9)
_cell_length_c                   9.6195(14)
_cell_angle_alpha                90
_cell_angle_beta                 95.637(5)
_cell_angle_gamma                90
_cell_volume                     1227.35
_exptl_crystal_colour            colorless
_exptl_crystal_description       block
_cell_formula_units_Z            4
loop_
_atom_site_label
_atom_site_type_symbol
_atom_site_fract_x
_atom_site_fract_y
_atom_site_fract_z
S1 S 0.2319(3) 0.5670(11) 0.4881(7)
O1 O 0.3777(2) 0.7372(7) 0.4895(4)
H1 H 0.3677 0.6444 0.5449
O2 O 0.3706(3) 0.6216(8) 0.1340(4)
N1 N 0.3482(3) 0.6894(9) 0.3561(5)
N2 N 0.4464(3) 0.5513(10) 0.3116(6)
H2 H 0.4723 0.5028 0.2548
H3 H 0.4579 0.5536 0.3999
C1 C 0.2412(3) 0.8078(11) 0.4005(7)
C2 C 0.2961(3) 0.8383(10) 0.3110(7)
H4 H 0.2803 0.7972 0.2153
C3 C 0.3893(3) 0.6222(9) 0.2633(6)
C4 C 0.3184(4) 1.0773(12) 0.3068(9)
H5 H 0.3270 1.1315 0.4005
H6 H 0.2854 1.1643 0.2575
H7 H 0.3566 1.0856 0.2599
C5 C 0.1919(14) 0.959(4) 0.421(3)
H8 H 0.1889 1.0989 0.3834
C6 C 0.1458(4) 0.8628(15) 0.5103(10)
C7 C 0.1672(4) 0.6556(14) 0.5503(9)
C8 C 0.1336(6) 0.533(2) 0.6409(15)
H9 H 0.1475 0.3932 0.6683
C9 C 0.0802(7) 0.619(4) 0.6885(16)
H10 H 0.0585 0.5386 0.7512
C10 C 0.0580(6) 0.818(4) 0.6468(16)
H11 H 0.0204 0.8693 0.6789
C11 C 0.0894(5) 0.950(3) 0.5579(16)
H12 H 0.0743 1.0883 0.5310
S3 S 0.81090(19) 0.5045(8) 0.5295(5)
O3 O 0.6167(2) 0.2381(8) 0.5396(4)
H14 H 0.6219 0.1355 0.5944
O4 O 0.6253(3) 0.1219(7) 0.1881(5)
N3 N 0.6476(3) 0.1915(8) 0.4182(5)
N4 N 0.5488(3) 0.0509(11) 0.3334(6)
H15 H 0.5229 -0.0003 0.2664
H16 H 0.5375 0.0551 0.4169
C13 C 0.7536(3) 0.3072(11) 0.5069(7)
C14 C 0.6989(4) 0.3435(11) 0.3965(7)
H17 H 0.7143 0.3061 0.3067
C15 C 0.6060(3) 0.1236(10) 0.3080(6)
C16 C 0.6764(4) 0.5815(12) 0.3864(9)
H18 H 0.6355 0.5889 0.3327
H19 H 0.7068 0.6674 0.3417
H20 H 0.6729 0.6378 0.4786
C17 C 0.7658(11) 0.125(4) 0.586(3)
H21 H 0.7397 0.0020 0.5800
C18 C 0.8278(4) 0.1455(15) 0.6854(9)
C19 C 0.8526(4) 0.3482(13) 0.6577(10)
C20 C 0.9102(5) 0.410(2) 0.7330(17)
H22 H 0.9278 0.5457 0.7149
C21 C 0.9404(5) 0.282(3) 0.8289(17)
H23 H 0.9790 0.3269 0.8761
C22 C 0.9134(6) 0.076(3) 0.8593(14)
H24 H 0.9327 -0.0118 0.9302
C23 C 0.8578(5) 0.0084(18) 0.7818(14)
H25 H 0.8411 -0.1301 0.7957
O5 O 0.4674(2) 1.0622(8) 0.5692(5)
H27 H 0.4521 0.9572 0.5184
H28 H 0.4589 1.1831 0.5278
O6 O 0.5264(2) 0.5633(8) 0.5815(6)
H29 H 0.5468 0.6827 0.5759
H30 H 0.5502 0.4567 0.5629
S2? S 0.1864(5) 1.0137(17) 0.3988(14)
C12? C 0.2237(18) 0.629(5) 0.476(3)
H13? H 0.2467 0.4983 0.4784
S4? S 0.7632(5) 0.0527(15) 0.5986(12)
C24? C 0.8039(17) 0.428(6) 0.555(4)
H26? H 0.8075 0.5690 0.5209
loop_
_geom_bond_atom_site_label_1
_geom_bond_atom_site_label_2
_geom_bond_site_symmetry_1
_geom_bond_site_symmetry_2
S1 C1 1_555 1_555
O1 H1 1_555 1_555
O2 C3 1_555 1_555
N1 O1 1_555 1_555
N2 H2 1_555 1_555
H3 N2 1_555 1_555
C1 C2 1_555 1_555
C2 N1 1_555 1_555
H4 C2 1_555 1_555
C3 N1 1_555 1_555
C4 C2 1_555 1_555
H5 C4 1_555 1_555
H6 C4 1_555 1_555
H7 C4 1_555 1_555
C5 C1 1_555 1_555
H8 C5 1_555 1_555
C6 C5 1_555 1_555
C7 S1 1_555 1_555
C8 C7 1_555 1_555
H9 C8 1_555 1_555
C9 C8 1_555 1_555
H10 C9 1_555 1_555
C10 C9 1_555 1_555
H11 C10 1_555 1_555
C11 C6 1_555 1_555
H12 C11 1_555 1_555
S3 C13 1_555 1_555
O3 H14 1_555 1_555
O4 C15 1_555 1_555
N3 O3 1_555 1_555
N4 H15 1_555 1_555
H16 N4 1_555 1_555
C13 C14 1_555 1_555
C14 N3 1_555 1_555
H17 C14 1_555 1_555
C15 N3 1_555 1_555
C16 C14 1_555 1_555
H18 C16 1_555 1_555
H19 C16 1_555 1_555
H20 C16 1_555 1_555
C17 C13 1_555 1_555
H21 C17 1_555 1_555
C18 C17 1_555 1_555
C19 S3 1_555 1_555
C20 C19 1_555 1_555
H22 C20 1_555 1_555
C21 C20 1_555 1_555
H23 C21 1_555 1_555
C22 C21 1_555 1_555
H24 C22 1_555 1_555
C23 C18 1_555 1_555
H25 C23 1_555 1_555
O5 H27 1_555 1_555
H28 O5 1_555 1_555
O6 H29 1_555 1_555
H30 O6 1_555 1_555
N2 C3 1_555 1_555
C6 C7 1_555 1_555
C10 C11 1_555 1_555
N4 C15 1_555 1_555
C18 C19 1_555 1_555
C22 C23 1_555 1_555

#END
