
#######################################################################
#
#                 Cambridge Crystallographic Data Centre
#                                CCDC 
#
#######################################################################
#
# If this CIF has been generated from an entry in the Cambridge 
# Structural Database, then it will include bibliographic, chemical, 
# crystal, experimental, refinement or atomic coordinate data resulting 
# from the CCDC's data processing and validation procedures.
#
#######################################################################

data_YESRIA
_chemical_compound_source        
'isolated from the leaves of Rhododendron molle'
_chemical_name_common            'mollfoliagein C hemihydrate'
_chemical_formula_moiety         'C20 H30 O5,0.5(H2 O1)'
_chemical_name_systematic        
'2,3-epoxygrayanotox-10-ene-5,6,14,16-tetrol hemihydrate'
_chemical_properties_biological  
'Inhibitory activity against nitric oxide production in lipopolysaccharide-induced RAW264.7 mouse macrophages.'
_symmetry_cell_setting           monoclinic
_symmetry_space_group_name_H-M   'P 21'
_symmetry_Int_Tables_number      4
_space_group_name_Hall           'P 2yb'
loop_
_symmetry_equiv_pos_site_id
_symmetry_equiv_pos_as_xyz
1 x,y,z
2 -x,1/2+y,-z
_cell_length_a                   6.2989(2)
_cell_length_b                   27.0429(6)
_cell_length_c                   11.3517(3)
_cell_angle_alpha                90
_cell_angle_beta                 104.0960(10)
_cell_angle_gamma                90
_cell_volume                     1875.43
_exptl_crystal_colour            colorless
_exptl_crystal_description       block
_cell_formula_units_Z            4
loop_
_atom_site_label
_atom_site_type_symbol
_atom_site_fract_x
_atom_site_fract_y
_atom_site_fract_z
C1 C 0.0517(3) 0.33488(7) -0.03939(16)
H1 H -0.0157 0.3677 -0.0308
C2 C -0.1122(3) 0.30474(7) -0.13065(18)
H2 H -0.2674 0.3024 -0.1242
C3 C -0.0643(3) 0.30831(8) -0.24863(18)
H3 H -0.1877 0.3082 -0.3232
C4 C 0.1302(3) 0.34199(7) -0.24346(17)
C5 C 0.2441(3) 0.34322(7) -0.10307(16)
C6 C 0.3626(3) 0.39158(7) -0.06108(15)
H4 H 0.2527 0.419 -0.0769
C7 C 0.4840(3) 0.39321(7) 0.07233(15)
H5 H 0.5701 0.4242 0.0852
H6 H 0.5904 0.3656 0.0865
C8 C 0.3570(3) 0.39045(6) 0.17215(14)
C9 C 0.2835(3) 0.33690(6) 0.19207(16)
H7 H 0.4197 0.3164 0.2078
C10 C 0.1213(3) 0.31153(7) 0.08572(17)
C11 C 0.2041(3) 0.33482(6) 0.31040(16)
H8 H 0.127 0.3031 0.3135
H9 H 0.3326 0.3359 0.3809
C12 C 0.0506(3) 0.37760(6) 0.31989(16)
H10 H 0.0305 0.3787 0.4037
H11 H -0.0942 0.3712 0.2643
C13 C 0.1337(3) 0.42826(6) 0.28884(15)
H12 H 0.0306 0.4553 0.2981
C14 C 0.1586(3) 0.42546(6) 0.15832(15)
H13 H 0.0259 0.4095 0.1056
C15 C 0.5106(3) 0.40945(6) 0.29405(16)
H14 H 0.579 0.3811 0.3445
H15 H 0.6283 0.4305 0.2769
C16 C 0.3686(3) 0.43971(6) 0.36163(16)
C17 C 0.4143(3) 0.43119(7) 0.49749(16)
H16 H 0.5647 0.4413 0.5359
H17 H 0.3959 0.396 0.5134
H18 H 0.3119 0.4507 0.531
C18 C 0.0352(3) 0.39242(8) -0.29202(18)
H19 H 0.155 0.4157 -0.291
H20 H -0.0569 0.4052 -0.2406
H21 H -0.0532 0.3886 -0.3754
C19 C 0.2783(4) 0.32158(8) -0.32055(18)
H22 H 0.3198 0.2875 -0.2959
H23 H 0.4102 0.342 -0.3088
H24 H 0.1997 0.3221 -0.4064
C20 C 0.0548(4) 0.26588(8) 0.1019(2)
H25 H -0.0351 0.2484 0.0357
H26 H 0.0971 0.2508 0.1797
O1 O 0.4154(2) 0.49138(5) 0.34032(11)
O2 O 0.1937(2) 0.47286(4) 0.10823(11)
O3 O 0.5171(2) 0.40007(5) -0.13324(12)
O4 O 0.4000(2) 0.30412(5) -0.07082(12)
O5 O -0.0119(2) 0.26330(5) -0.17871(13)
H27 H 0.350(5) 0.5095(11) 0.379(3)
H28 H 0.270(5) 0.4904(11) 0.168(3)
H29 H 0.588(5) 0.4272(12) -0.104(3)
H30 H 0.327(5) 0.2784(12) -0.089(3)
C21 C 0.5302(3) 0.16970(7) 0.38796(17)
H31 H 0.3851 0.153 0.3772
C22 C 0.5257(4) 0.21694(7) 0.4585(2)
H32 H 0.3987 0.24 0.434
C23 C 0.6259(4) 0.20880(8) 0.5861(2)
H33 H 0.5667 0.2266 0.6484
C24 C 0.6959(4) 0.15544(7) 0.60799(18)
C25 C 0.7074(3) 0.13748(7) 0.47727(17)
C26 C 0.6585(3) 0.08277(6) 0.45447(16)
H34 H 0.5037 0.0772 0.4589
C27 C 0.6803(3) 0.06307(6) 0.33199(15)
H35 H 0.6722 0.0265 0.3347
H36 H 0.8288 0.0716 0.3236
C28 C 0.5158(3) 0.08044(6) 0.21605(15)
C29 C 0.5664(3) 0.13344(7) 0.17605(16)
H37 H 0.7174 0.1314 0.1628
C30 C 0.5735(3) 0.17684(7) 0.26462(18)
C31 C 0.4158(4) 0.14596(8) 0.04990(19)
H38 H 0.4204 0.1821 0.0362
H39 H 0.4728 0.1293 -0.0137
C32 C 0.1797(4) 0.13028(7) 0.03745(19)
H40 H 0.0996 0.1326 -0.049
H41 H 0.11 0.1534 0.0843
C33 C 0.1591(3) 0.07738(7) 0.08249(17)
H42 H 0.0019 0.0675 0.068
C34 C 0.2713(3) 0.07568(6) 0.21777(16)
H43 H 0.2258 0.1048 0.2601
C35 C 0.5241(3) 0.04425(7) 0.10932(16)
H44 H 0.6221 0.0577 0.0609
H45 H 0.5812 0.0116 0.1421
C36 C 0.2892(3) 0.03863(7) 0.02860(15)
C37 C 0.2689(3) 0.04153(8) -0.10776(17)
H46 H 0.3493 0.014 -0.1327
H47 H 0.33 0.0729 -0.1272
H48 H 0.1142 0.0395 -0.151
C38 C 0.5128(5) 0.12949(9) 0.6529(2)
H49 H 0.4926 0.1462 0.7261
H50 H 0.5531 0.0949 0.6719
H51 H 0.3761 0.1309 0.5894
C39 C 0.9137(5) 0.15169(9) 0.7020(2)
H52 H 1.0247 0.1709 0.6747
H53 H 0.9592 0.117 0.712
H54 H 0.8974 0.1648 0.7798
C40 C 0.6334(4) 0.22090(8) 0.2322(2)
H55 H 0.649 0.248 0.287
H56 H 0.6607 0.2254 0.1542
O6 O 0.2135(2) -0.01024(4) 0.05426(11)
O7 O 0.2290(2) 0.03087(5) 0.27493(12)
O8 O 0.7964(2) 0.05401(4) 0.54951(11)
O9 O 0.9183(2) 0.14611(5) 0.45660(13)
O10 O 0.7428(3) 0.23643(5) 0.51282(15)
H57 H 0.911(6) 0.0439(13) 0.536(3)
H58 H 0.080(6) -0.0144(12) 0.007(3)
H59 H 0.207(5) 0.0104(12) 0.219(3)
H60 H 0.948(5) 0.1764(14) 0.463(3)
O11 O 0.1589(3) 0.01506(7) 0.50687(15)
H61 H 0.183(5) 0.0178(12) 0.441(3)
H62 H 0.287(6) 0.0118(12) 0.554(3)
loop_
_geom_bond_atom_site_label_1
_geom_bond_atom_site_label_2
_geom_bond_site_symmetry_1
_geom_bond_site_symmetry_2
C1 H1 1_555 1_555
C2 C1 1_555 1_555
H2 C2 1_555 1_555
C3 C2 1_555 1_555
H3 C3 1_555 1_555
C4 C3 1_555 1_555
C5 C1 1_555 1_555
C6 C5 1_555 1_555
H4 C6 1_555 1_555
C7 C6 1_555 1_555
H5 C7 1_555 1_555
H6 C7 1_555 1_555
C8 C7 1_555 1_555
C9 C8 1_555 1_555
H7 C9 1_555 1_555
C10 C1 1_555 1_555
C11 C9 1_555 1_555
H8 C11 1_555 1_555
H9 C11 1_555 1_555
C12 C11 1_555 1_555
H10 C12 1_555 1_555
H11 C12 1_555 1_555
C13 C12 1_555 1_555
H12 C13 1_555 1_555
C14 C8 1_555 1_555
H13 C14 1_555 1_555
C15 C8 1_555 1_555
H14 C15 1_555 1_555
H15 C15 1_555 1_555
C16 C13 1_555 1_555
C17 C16 1_555 1_555
H16 C17 1_555 1_555
H17 C17 1_555 1_555
H18 C17 1_555 1_555
C18 C4 1_555 1_555
H19 C18 1_555 1_555
H20 C18 1_555 1_555
H21 C18 1_555 1_555
C19 C4 1_555 1_555
H22 C19 1_555 1_555
H23 C19 1_555 1_555
H24 C19 1_555 1_555
C20 C10 1_555 1_555
H25 C20 1_555 1_555
H26 C20 1_555 1_555
O1 C16 1_555 1_555
O2 C14 1_555 1_555
O3 C6 1_555 1_555
O4 C5 1_555 1_555
O5 C2 1_555 1_555
H27 O1 1_555 1_555
H28 O2 1_555 1_555
H29 O3 1_555 1_555
H30 O4 1_555 1_555
C21 H31 1_555 1_555
C22 C21 1_555 1_555
H32 C22 1_555 1_555
C23 C22 1_555 1_555
H33 C23 1_555 1_555
C24 C23 1_555 1_555
C25 C21 1_555 1_555
C26 C25 1_555 1_555
H34 C26 1_555 1_555
C27 C26 1_555 1_555
H35 C27 1_555 1_555
H36 C27 1_555 1_555
C28 C27 1_555 1_555
C29 C28 1_555 1_555
H37 C29 1_555 1_555
C30 C21 1_555 1_555
C31 C29 1_555 1_555
H38 C31 1_555 1_555
H39 C31 1_555 1_555
C32 C31 1_555 1_555
H40 C32 1_555 1_555
H41 C32 1_555 1_555
C33 C32 1_555 1_555
H42 C33 1_555 1_555
C34 C28 1_555 1_555
H43 C34 1_555 1_555
C35 C28 1_555 1_555
H44 C35 1_555 1_555
H45 C35 1_555 1_555
C36 C33 1_555 1_555
C37 C36 1_555 1_555
H46 C37 1_555 1_555
H47 C37 1_555 1_555
H48 C37 1_555 1_555
C38 C24 1_555 1_555
H49 C38 1_555 1_555
H50 C38 1_555 1_555
H51 C38 1_555 1_555
C39 C24 1_555 1_555
H52 C39 1_555 1_555
H53 C39 1_555 1_555
H54 C39 1_555 1_555
C40 C30 1_555 1_555
H55 C40 1_555 1_555
H56 C40 1_555 1_555
O6 C36 1_555 1_555
O7 C34 1_555 1_555
O8 C26 1_555 1_555
O9 C25 1_555 1_555
O10 C22 1_555 1_555
H57 O8 1_555 1_555
H58 O6 1_555 1_555
H59 O7 1_555 1_555
H60 O9 1_555 1_555
O11 H61 1_555 1_555
H62 O11 1_555 1_555
C3 O5 1_555 1_555
C4 C5 1_555 1_555
C9 C10 1_555 1_555
C13 C14 1_555 1_555
C15 C16 1_555 1_555
C23 O10 1_555 1_555
C24 C25 1_555 1_555
C29 C30 1_555 1_555
C33 C34 1_555 1_555
C35 C36 1_555 1_555

#END
