
#######################################################################
#
#                 Cambridge Crystallographic Data Centre
#                                CCDC 
#
#######################################################################
#
# If this CIF has been generated from an entry in the Cambridge 
# Structural Database, then it will include bibliographic, chemical, 
# crystal, experimental, refinement or atomic coordinate data resulting 
# from the CCDC's data processing and validation procedures.
#
#######################################################################

data_YESRAS
_chemical_compound_source        
'isolated from the leaves of Rhododendron molle'
_chemical_name_common            'mollfoliagein A monohydrate'
_chemical_formula_moiety         'C22 H32 O7,H2 O1'
_chemical_name_systematic        
'2a,10,12-trihydroxy-2,2,6,10-tetramethyltetradecahydro-6,9-epoxy-4a,7-methanocyclohepta[6,7]azuleno[1,2-b]oxiren-3-yl acetate monohydrate'
_symmetry_cell_setting           monoclinic
_symmetry_space_group_name_H-M   'P 21'
_symmetry_Int_Tables_number      4
_space_group_name_Hall           'P 2yb'
loop_
_symmetry_equiv_pos_site_id
_symmetry_equiv_pos_as_xyz
1 x,y,z
2 -x,1/2+y,-z
_cell_length_a                   12.5466(6)
_cell_length_b                   6.2439(3)
_cell_length_c                   13.9222(6)
_cell_angle_alpha                90
_cell_angle_beta                 101.124(2)
_cell_angle_gamma                90
_cell_volume                     1070.17
_exptl_crystal_colour            colorless
_exptl_crystal_description       block
_cell_formula_units_Z            2
loop_
_atom_site_label
_atom_site_type_symbol
_atom_site_fract_x
_atom_site_fract_y
_atom_site_fract_z
C1 C 0.21703(16) 0.0667(3) 0.64113(13)
H1 H 0.2621 -0.0230 0.6908
C2 C 0.13372(17) -0.0816(4) 0.58327(16)
H2 H 0.1569 -0.2145 0.5560
C3 C 0.03605(17) -0.0790(4) 0.62412(16)
H3 H -0.0061 -0.2111 0.6241
C4 C 0.04922(17) 0.0684(4) 0.71146(16)
C5 C 0.14953(16) 0.2136(3) 0.69819(14)
C6 C 0.22128(16) 0.2788(4) 0.79500(14)
H4 H 0.2519 0.1507 0.8307
C7 C 0.31157(18) 0.4342(4) 0.78598(16)
H5 H 0.3409 0.4874 0.8512
H6 H 0.2784 0.5553 0.7479
C8 C 0.40806(16) 0.3616(3) 0.74107(14)
C9 C 0.38269(16) 0.3267(3) 0.62754(14)
H7 H 0.3563 0.4657 0.6000
C10 C 0.29504(15) 0.1595(3) 0.57786(14)
C11 C 0.49100(17) 0.2884(4) 0.59143(15)
H8 H 0.4779 0.2670 0.5204
C12 C 0.56094(18) 0.1092(4) 0.64467(17)
H9 H 0.6274 0.0895 0.6199
H10 H 0.5218 -0.0253 0.6414
C13 C 0.58250(17) 0.2033(4) 0.74761(16)
H11 H 0.6478 0.1458 0.7899
C14 C 0.47866(17) 0.1748(4) 0.78962(15)
H12 H 0.4440 0.0373 0.7689
C15 C 0.49300(18) 0.5436(4) 0.76194(16)
H13 H 0.4670 0.6724 0.7260
H14 H 0.5108 0.5766 0.8313
C16 C 0.58975(18) 0.4505(4) 0.72643(16)
C17 C 0.6985(2) 0.5578(5) 0.76176(19)
H15 H 0.7526 0.4908 0.7316
H16 H 0.7186 0.5438 0.8316
H17 H 0.6932 0.7068 0.7445
C18 C -0.05456(19) 0.1956(5) 0.7133(2)
H18 H -0.0754 0.2726 0.6529
H19 H -0.0417 0.2951 0.7669
H20 H -0.1117 0.0991 0.7214
C19 C 0.0740(2) -0.0796(5) 0.80073(19)
H21 H 0.0172 -0.1839 0.7971
H22 H 0.0785 0.0036 0.8594
H23 H 0.1419 -0.1512 0.8017
C20 C 0.23588(18) 0.2599(4) 0.48238(15)
H24 H 0.2880 0.3062 0.4445
H25 H 0.1943 0.3807 0.4968
H26 H 0.1881 0.1561 0.4458
C21 C 0.1733(3) 0.3729(5) 0.94856(18)
C22 C 0.1070(4) 0.5227(7) 0.9963(2)
H27 H 0.1058 0.4737 1.0614
H28 H 0.0342 0.5276 0.9590
H29 H 0.1384 0.6634 0.9992
O1 O 0.03603(12) 0.0303(3) 0.53253(11)
O2 O 0.11576(13) 0.4069(2) 0.64824(11)
H30 H 0.0794 0.3794 0.5941
O3 O 0.15199(13) 0.3932(3) 0.85193(11)
O4 O 0.2379(3) 0.2504(5) 0.99285(15)
O5 O 0.34555(12) -0.0350(3) 0.55313(11)
H31 H 0.3685 -0.0170 0.5024
O6 O 0.56244(12) 0.4684(3) 0.62009(11)
O7 O 0.50195(15) 0.1898(4) 0.89366(11)
H32 H 0.4634 0.1056 0.9166
O8 O 0.3663(2) 0.9011(4) 0.95864(15)
H33 H 0.406(3) 0.836(6) 1.005(2)
H34 H 0.330(3) 0.990(6) 0.984(3)
loop_
_geom_bond_atom_site_label_1
_geom_bond_atom_site_label_2
_geom_bond_site_symmetry_1
_geom_bond_site_symmetry_2
C1 H1 1_555 1_555
C2 C1 1_555 1_555
H2 C2 1_555 1_555
C3 C2 1_555 1_555
H3 C3 1_555 1_555
C4 C3 1_555 1_555
C5 C1 1_555 1_555
C6 C5 1_555 1_555
H4 C6 1_555 1_555
C7 C6 1_555 1_555
H5 C7 1_555 1_555
H6 C7 1_555 1_555
C8 C7 1_555 1_555
C9 C8 1_555 1_555
H7 C9 1_555 1_555
C10 C1 1_555 1_555
C11 C9 1_555 1_555
H8 C11 1_555 1_555
C12 C11 1_555 1_555
H9 C12 1_555 1_555
H10 C12 1_555 1_555
C13 C12 1_555 1_555
H11 C13 1_555 1_555
C14 C8 1_555 1_555
H12 C14 1_555 1_555
C15 C8 1_555 1_555
H13 C15 1_555 1_555
H14 C15 1_555 1_555
C16 C13 1_555 1_555
C17 C16 1_555 1_555
H15 C17 1_555 1_555
H16 C17 1_555 1_555
H17 C17 1_555 1_555
C18 C4 1_555 1_555
H18 C18 1_555 1_555
H19 C18 1_555 1_555
H20 C18 1_555 1_555
C19 C4 1_555 1_555
H21 C19 1_555 1_555
H22 C19 1_555 1_555
H23 C19 1_555 1_555
C20 C10 1_555 1_555
H24 C20 1_555 1_555
H25 C20 1_555 1_555
H26 C20 1_555 1_555
C21 C22 1_555 1_555
C22 H27 1_555 1_555
H28 C22 1_555 1_555
H29 C22 1_555 1_555
O1 C2 1_555 1_555
O2 C5 1_555 1_555
H30 O2 1_555 1_555
O3 C6 1_555 1_555
O4 C21 1_555 1_555
O5 C10 1_555 1_555
H31 O5 1_555 1_555
O6 C11 1_555 1_555
O7 C14 1_555 1_555
H32 O7 1_555 1_555
O8 H33 1_555 1_555
H34 O8 1_555 1_555
C3 O1 1_555 1_555
C4 C5 1_555 1_555
C9 C10 1_555 1_555
C13 C14 1_555 1_555
C15 C16 1_555 1_555
C16 O6 1_555 1_555
C21 O3 1_555 1_555

#END
