
#######################################################################
#
#                 Cambridge Crystallographic Data Centre
#                                CCDC 
#
#######################################################################
#
# If this CIF has been generated from an entry in the Cambridge 
# Structural Database, then it will include bibliographic, chemical, 
# crystal, experimental, refinement or atomic coordinate data resulting 
# from the CCDC's data processing and validation procedures.
#
#######################################################################

data_YESRUK
_chemical_formula_moiety         'C50 H48 N12 O4,C1 H2 Cl2'
_chemical_name_systematic        
'5,17-bis(Dimethylamino)-2,8,14,20-bis(p-methoxyphenyl)-2,4,6,8,14,16,18,20,26,28-decaazapentacyclo(19.3.1.1^3,7^.1^9,13^.1^15,19^)octacosa-1(25),3(28),4,6,9(27),10,12,15(26),16,18,21,23-dodecaene dichloromethane solvate'
_symmetry_cell_setting           monoclinic
_symmetry_space_group_name_H-M   'C 2/c'
_symmetry_Int_Tables_number      15
_space_group_name_Hall           '-C 2yn'
loop_
_symmetry_equiv_pos_site_id
_symmetry_equiv_pos_as_xyz
1 x,y,z
2 1/2+x,1/2+y,z
3 -x,y,1/2-z
4 1/2-x,1/2+y,1/2-z
5 -x,-y,-z
6 1/2-x,1/2-y,-z
7 x,-y,1/2+z
8 1/2+x,1/2-y,1/2+z
_cell_length_a                   26.598(5)
_cell_length_b                   9.4281(19)
_cell_length_c                   20.033(4)
_cell_angle_alpha                90
_cell_angle_beta                 110.21(3)
_cell_angle_gamma                90
_cell_volume                     4714.36
_exptl_crystal_colour            colorless
_exptl_crystal_description       block
_chemical_melting_point          'above 300 deg.C'
_cell_formula_units_Z            4
_exptl_crystal_recrystallization_method n-hexane/dichloromethane
loop_
_atom_site_label
_atom_site_type_symbol
_atom_site_fract_x
_atom_site_fract_y
_atom_site_fract_z
Cl1 Cl -0.00108(4) 0.04073(9) -0.17827(4)
C26 C 0.0000 -0.0538(6) -0.2500
Cl1B Cl 0.00108(4) 0.04073(9) -0.32173(4)
O1 O -0.16359(7) 0.2829(2) -0.20898(9)
O2 O 0.26699(10) -0.1132(2) 0.45177(11)
N1 N 0.13079(7) 0.1176(2) 0.05757(9)
N2 N 0.05414(7) 0.2269(2) 0.05920(8)
N3 N 0.12969(7) 0.1923(2) 0.16649(9)
N4 N 0.05080(7) 0.3051(2) 0.17069(9)
N5 N -0.02076(6) 0.34105(19) 0.06896(8)
N6 N 0.12343(7) 0.2728(2) 0.27344(9)
C1 C 0.10656(11) 0.1011(3) -0.01921(12)
H1 H 0.0717 0.1444 -0.0353
H2 H 0.1032 0.0020 -0.0310
H3 H 0.1288 0.1461 -0.0419
C2 C 0.18388(10) 0.0584(4) 0.09154(15)
H4 H 0.1954 0.0758 0.1418
H5 H 0.2085 0.1023 0.0723
H6 H 0.1829 -0.0419 0.0830
C3 C 0.10403(8) 0.1805(2) 0.09556(11)
C4 C 0.10034(8) 0.2556(2) 0.19989(10)
C5 C 0.03021(8) 0.2887(2) 0.09984(10)
C6 C -0.05330(8) 0.3286(2) -0.00469(10)
C7 C -0.08619(9) 0.4407(2) -0.03630(11)
H7 H -0.0833 0.5253 -0.0113
C8 C -0.12352(10) 0.4303(3) -0.10441(12)
H8 H -0.1457 0.5068 -0.1246
C9 C -0.12757(9) 0.3061(3) -0.14195(11)
C10 C -0.09333(10) 0.1950(3) -0.11169(12)
H9 H -0.0950 0.1123 -0.1377
C11 C -0.05667(9) 0.2050(2) -0.04354(12)
H10 H -0.0342 0.1290 -0.0237
C12 C -0.20763(11) 0.3780(5) -0.23482(15)
H11 H -0.2297 0.3502 -0.2819
H12 H -0.1945 0.4725 -0.2360
H13 H -0.2283 0.3755 -0.2040
C13 C -0.07595(7) 0.3142(2) 0.14269(10)
H14 H -0.0819 0.2204 0.1278
C14 C -0.04610(7) 0.4023(2) 0.11563(10)
C15 C -0.03900(9) 0.5437(2) 0.13439(11)
H15 H -0.0188 0.6023 0.1160
C16 C -0.06253(10) 0.5965(2) 0.18105(12)
H16 H -0.0591 0.6923 0.1929
C17 C -0.09109(9) 0.5089(2) 0.21021(12)
H17 H -0.1063 0.5455 0.2419
C18 C 0.09705(8) 0.3665(2) 0.30778(10)
C19 C 0.16236(8) 0.1756(2) 0.31662(10)
C20 C 0.20393(9) 0.2247(3) 0.37468(13)
H18 H 0.2081 0.3218 0.3829
C21 C 0.23977(10) 0.1315(3) 0.42126(13)
H19 H 0.2675 0.1664 0.4603
C22 C 0.23416(11) -0.0119(3) 0.40938(13)
C23 C 0.19340(12) -0.0615(3) 0.35063(13)
H20 H 0.1898 -0.1585 0.3418
C24 C 0.15793(11) 0.0310(3) 0.30488(12)
H21 H 0.1306 -0.0043 0.2655
C25 C 0.30360(12) -0.0721(4) 0.51825(16)
H22 H 0.3238 -0.1532 0.5419
H23 H 0.2845 -0.0331 0.5468
H24 H 0.3275 -0.0018 0.5115
O1B O 0.16359(7) 0.2829(2) 0.70898(9)
O2B O -0.26699(10) -0.1132(2) 0.04823(11)
N1B N -0.13079(7) 0.1176(2) 0.44243(9)
N2B N -0.05414(7) 0.2269(2) 0.44080(8)
N3B N -0.12969(7) 0.1923(2) 0.33351(9)
N4B N -0.05080(7) 0.3051(2) 0.32931(9)
N5B N 0.02076(6) 0.34105(19) 0.43104(8)
N6B N -0.12343(7) 0.2728(2) 0.22656(9)
C1B C -0.10656(11) 0.1011(3) 0.51921(12)
H1B H -0.0717 0.1444 0.5353
H2B H -0.1032 0.0020 0.5310
H3B H -0.1288 0.1461 0.5419
C2B C -0.18388(10) 0.0584(4) 0.40846(15)
H4B H -0.1954 0.0758 0.3582
H5B H -0.2085 0.1023 0.4277
H6B H -0.1829 -0.0419 0.4170
C3B C -0.10403(8) 0.1805(2) 0.40444(11)
C4B C -0.10034(8) 0.2556(2) 0.30011(10)
C5B C -0.03021(8) 0.2887(2) 0.40016(10)
C6B C 0.05330(8) 0.3286(2) 0.50469(10)
C7B C 0.08619(9) 0.4407(2) 0.53630(11)
H7B H 0.0833 0.5253 0.5113
C8B C 0.12352(10) 0.4303(3) 0.60441(12)
H8B H 0.1457 0.5068 0.6246
C9B C 0.12757(9) 0.3061(3) 0.64195(11)
C10B C 0.09333(10) 0.1950(3) 0.61169(12)
H9B H 0.0950 0.1123 0.6377
C11B C 0.05667(9) 0.2050(2) 0.54354(12)
H10B H 0.0342 0.1290 0.5237
C12B C 0.20763(11) 0.3780(5) 0.73482(15)
H11B H 0.2297 0.3502 0.7819
H12B H 0.1945 0.4725 0.7360
H13B H 0.2283 0.3755 0.7040
C13B C 0.07595(7) 0.3142(2) 0.35731(10)
H14B H 0.0819 0.2204 0.3722
C14B C 0.04610(7) 0.4023(2) 0.38437(10)
C15B C 0.03900(9) 0.5437(2) 0.36561(11)
H15B H 0.0188 0.6023 0.3840
C16B C 0.06253(10) 0.5965(2) 0.31895(12)
H16B H 0.0591 0.6923 0.3071
C17B C 0.09109(9) 0.5089(2) 0.28979(12)
H17B H 0.1063 0.5455 0.2581
C18B C -0.09705(8) 0.3665(2) 0.19222(10)
C19B C -0.16236(8) 0.1756(2) 0.18338(10)
C20B C -0.20393(9) 0.2247(3) 0.12532(13)
H18B H -0.2081 0.3218 0.1171
C21B C -0.23977(10) 0.1315(3) 0.07874(13)
H19B H -0.2675 0.1664 0.0397
C22B C -0.23416(11) -0.0119(3) 0.09062(13)
C23B C -0.19340(12) -0.0615(3) 0.14937(13)
H20B H -0.1898 -0.1585 0.1582
C24B C -0.15793(11) 0.0310(3) 0.19512(12)
H21B H -0.1306 -0.0043 0.2345
C25B C -0.30360(12) -0.0721(4) -0.01825(16)
H22B H -0.3238 -0.1532 -0.0419
H23B H -0.2845 -0.0331 -0.0468
H24B H -0.3275 -0.0018 -0.0115
H25? H -0.011(3) -0.138(6) -0.254(5)
loop_
_geom_bond_atom_site_label_1
_geom_bond_atom_site_label_2
_geom_bond_site_symmetry_1
_geom_bond_site_symmetry_2
Cl1 C26 1_555 1_555
O1 C9 1_555 1_555
O2 C22 1_555 1_555
N1 C1 1_555 1_555
N2 C3 1_555 1_555
N3 C3 1_555 1_555
N4 C4 1_555 1_555
N5 C5 1_555 1_555
N6 C4 1_555 1_555
C1 H1 1_555 1_555
H2 C1 1_555 1_555
H3 C1 1_555 1_555
C2 N1 1_555 1_555
H4 C2 1_555 1_555
H5 C2 1_555 1_555
H6 C2 1_555 1_555
C3 N1 1_555 1_555
C4 N3 1_555 1_555
C5 N2 1_555 1_555
C6 N5 1_555 1_555
C7 C6 1_555 1_555
H7 C7 1_555 1_555
C8 C7 1_555 1_555
H8 C8 1_555 1_555
C9 C8 1_555 1_555
C10 C9 1_555 1_555
H9 C10 1_555 1_555
C11 C6 1_555 1_555
H10 C11 1_555 1_555
C12 O1 1_555 1_555
H11 C12 1_555 1_555
H12 C12 1_555 1_555
H13 C12 1_555 1_555
C13 H14 1_555 1_555
C14 N5 1_555 1_555
C15 C14 1_555 1_555
H15 C15 1_555 1_555
C16 C15 1_555 1_555
H16 C16 1_555 1_555
C17 C16 1_555 1_555
H17 C17 1_555 1_555
C18 N6 1_555 1_555
C19 N6 1_555 1_555
C20 C19 1_555 1_555
H18 C20 1_555 1_555
C21 C20 1_555 1_555
H19 C21 1_555 1_555
C22 C21 1_555 1_555
C23 C22 1_555 1_555
H20 C23 1_555 1_555
C24 C19 1_555 1_555
H21 C24 1_555 1_555
C25 O2 1_555 1_555
H22 C25 1_555 1_555
H23 C25 1_555 1_555
H24 C25 1_555 1_555
C26 Cl1B 1_555 1_555
O1B C9B 1_555 1_555
O2B C22B 1_555 1_555
N1B C1B 1_555 1_555
N2B C3B 1_555 1_555
N3B C3B 1_555 1_555
N4B C4B 1_555 1_555
N5B C5B 1_555 1_555
N6B C4B 1_555 1_555
C1B H1B 1_555 1_555
H2B C1B 1_555 1_555
H3B C1B 1_555 1_555
C2B N1B 1_555 1_555
H4B C2B 1_555 1_555
H5B C2B 1_555 1_555
H6B C2B 1_555 1_555
C3B N1B 1_555 1_555
C4B N3B 1_555 1_555
C5B N2B 1_555 1_555
C6B N5B 1_555 1_555
C7B C6B 1_555 1_555
H7B C7B 1_555 1_555
C8B C7B 1_555 1_555
H8B C8B 1_555 1_555
C9B C8B 1_555 1_555
C10B C9B 1_555 1_555
H9B C10B 1_555 1_555
C11B C6B 1_555 1_555
H10B C11B 1_555 1_555
C12B O1B 1_555 1_555
H11B C12B 1_555 1_555
H12B C12B 1_555 1_555
H13B C12B 1_555 1_555
C13B C18 1_555 1_555
H14B C13B 1_555 1_555
C14B N5B 1_555 1_555
C15B C14B 1_555 1_555
H15B C15B 1_555 1_555
C16B C15B 1_555 1_555
H16B C16B 1_555 1_555
C17B C18 1_555 1_555
H17B C17B 1_555 1_555
C18B C13 1_555 1_555
C19B N6B 1_555 1_555
C20B C19B 1_555 1_555
H18B C20B 1_555 1_555
C21B C20B 1_555 1_555
H19B C21B 1_555 1_555
C22B C21B 1_555 1_555
C23B C22B 1_555 1_555
H20B C23B 1_555 1_555
C24B C19B 1_555 1_555
H21B C24B 1_555 1_555
C25B O2B 1_555 1_555
H22B C25B 1_555 1_555
H23B C25B 1_555 1_555
H24B C25B 1_555 1_555
N4 C5 1_555 1_555
C10 C11 1_555 1_555
C13 C14 1_555 1_555
C17 C18B 1_555 1_555
C23 C24 1_555 1_555
N4B C5B 1_555 1_555
N6B C18B 1_555 1_555
C10B C11B 1_555 1_555
C13B C14B 1_555 1_555
C16B C17B 1_555 1_555
C23B C24B 1_555 1_555

#END
