
#######################################################################
#
#                 Cambridge Crystallographic Data Centre
#                                CCDC 
#
#######################################################################
#
# If this CIF has been generated from an entry in the Cambridge 
# Structural Database, then it will include bibliographic, chemical, 
# crystal, experimental, refinement or atomic coordinate data resulting 
# from the CCDC's data processing and validation procedures.
#
#######################################################################

data_YESSOH
_chemical_compound_source        
'isolated from the leaves of Rhododendron molle'
_chemical_name_common            'rhodojaponin VI ethanol solvate'
_chemical_formula_moiety         'C20 H34 O7,C2 H6 O1'
_chemical_name_systematic        
'grayanotoxane-2,3,5,6,10,14,16-heptol ethanol solvate'
_chemical_properties_biological  
'Inhibitory activity against nitric oxide production in lipopolysaccharide-induced RAW264.7 mouse macrophages.'
_symmetry_cell_setting           orthorhombic
_symmetry_space_group_name_H-M   'P 21 21 21'
_symmetry_Int_Tables_number      19
_space_group_name_Hall           'P 2ac 2ab'
loop_
_symmetry_equiv_pos_site_id
_symmetry_equiv_pos_as_xyz
1 x,y,z
2 1/2-x,-y,1/2+z
3 -x,1/2+y,1/2-z
4 1/2+x,1/2-y,-z
_cell_length_a                   10.3826(3)
_cell_length_b                   10.5016(3)
_cell_length_c                   19.1653(6)
_cell_angle_alpha                90
_cell_angle_beta                 90
_cell_angle_gamma                90
_cell_volume                     2089.67
_exptl_crystal_colour            colorless
_exptl_crystal_description       block
_cell_formula_units_Z            4
loop_
_atom_site_label
_atom_site_type_symbol
_atom_site_fract_x
_atom_site_fract_y
_atom_site_fract_z
O1 O 1.00298(18) 0.7723(2) 0.72064(11)
C1 C 0.8174(2) 0.6712(2) 0.66539(13)
H1 H 0.8886 0.6770 0.6304
O2 O 0.67025(18) 0.82348(19) 0.77942(10)
H2 H 0.6874(12) 0.774(4) 0.807(2)
C2 C 0.8703(2) 0.7393(2) 0.73182(13)
H3 H 0.8620 0.6822 0.7734
O3 O 0.58217(17) 0.71950(18) 0.65860(10)
C3 C 0.7843(3) 0.8569(2) 0.74068(13)
H4 H 0.8320 0.9283 0.7636
O4 O 0.62941(19) 0.85161(18) 0.52941(10)
H5 H 0.626(3) 0.847(2) 0.491(2)
C4 C 0.7420(3) 0.8928(2) 0.66630(13)
O5 O 0.8006(2) 0.3462(2) 0.38672(10)
C5 C 0.6589(2) 0.6249(2) 0.52614(13)
H6 H 0.6502 0.6364 0.4751
H7 H 0.5710 0.6118 0.5448
O6 O 0.8808(2) 0.56648(18) 0.44628(10)
C6 C 0.7084(2) 0.7505(2) 0.55598(13)
H8 H 0.7987 0.7639 0.5393
O7 O 0.92352(19) 0.47705(18) 0.69178(10)
H9 H 0.575(5) 0.747(5) 0.705(3)
C7 C 0.7076(2) 0.7578(2) 0.63575(13)
C8 C 0.7338(2) 0.5006(2) 0.53797(12)
H10 H 1.025(4) 0.832(4) 0.747(2)
C9 C 0.7303(2) 0.4509(2) 0.61453(13)
H11 H 0.6368 0.4459 0.6269
C10 C 0.7952(2) 0.5267(2) 0.67617(13)
H12 H 0.951(4) 0.599(3) 0.4468(17)
C11 C 0.7793(2) 0.3118(2) 0.61641(14)
H13 H 0.7958 0.2872 0.6655
H14 H 0.7111 0.2550 0.5980
H15 H 0.830(5) 0.419(5) 0.386(2)
C12 C 0.9031(3) 0.2917(2) 0.57363(13)
H16 H 0.9772 0.3260 0.6002
H17 H 0.9173 0.1993 0.5671
H18 H 0.982(4) 0.518(4) 0.669(2)
C13 C 0.8980(2) 0.3563(2) 0.50202(13)
H19 H 0.9793 0.3409 0.4754
C14 C 0.8740(2) 0.4996(2) 0.51151(12)
H20 H 0.9341 0.5371 0.5467
C15 C 0.6699(2) 0.3975(2) 0.48957(13)
H21 H 0.6091 0.3445 0.5167
H22 H 0.6219 0.4391 0.4512
C16 C 0.7799(3) 0.3138(2) 0.45961(13)
C17 C 0.7551(3) 0.1708(3) 0.45865(15)
H23 H 0.6893 0.1511 0.4236
H24 H 0.7251 0.1432 0.5047
H25 H 0.8351 0.1260 0.4470
C18 C 0.8553(3) 0.9546(3) 0.62741(15)
H26 H 0.9263 0.8935 0.6238
H27 H 0.8843 1.0301 0.6531
H28 H 0.8276 0.9798 0.5805
C19 C 0.6307(3) 0.9885(3) 0.66815(14)
H29 H 0.6134 1.0193 0.6208
H30 H 0.6540 1.0605 0.6981
H31 H 0.5534 0.9469 0.6867
C20 C 0.7177(3) 0.4939(3) 0.74199(13)
H32 H 0.6358 0.5402 0.7414
H33 H 0.7671 0.5183 0.7835
H34 H 0.7008 0.4021 0.7431
C21 C 0.2642(19) 0.6360(16) 0.6348(7)
H35 H 0.2950 0.6941 0.5977
H36 H 0.2647 0.6885 0.6777
C22 C 0.3744(3) 0.5573(3) 0.64540(19)
H37 H 0.3665 0.4673 0.6426
H38 H 0.4556 0.5949 0.6552
O8 O 0.1321(2) 0.6297(2) 0.62003(11)
H39 H 0.090(2) 0.684(4) 0.648(2)
loop_
_geom_bond_atom_site_label_1
_geom_bond_atom_site_label_2
_geom_bond_site_symmetry_1
_geom_bond_site_symmetry_2
O1 C2 1_555 1_555
C1 H1 1_555 1_555
O2 H2 1_555 1_555
C2 C1 1_555 1_555
H3 C2 1_555 1_555
O3 H9 1_555 1_555
C3 O2 1_555 1_555
H4 C3 1_555 1_555
O4 H5 1_555 1_555
C4 C3 1_555 1_555
O5 H15 1_555 1_555
C5 H6 1_555 1_555
H7 C5 1_555 1_555
O6 H12 1_555 1_555
C6 O4 1_555 1_555
H8 C6 1_555 1_555
O7 C10 1_555 1_555
C7 C1 1_555 1_555
C8 C5 1_555 1_555
H10 O1 1_555 1_555
C9 C8 1_555 1_555
H11 C9 1_555 1_555
C10 C1 1_555 1_555
C11 C9 1_555 1_555
H13 C11 1_555 1_555
H14 C11 1_555 1_555
C12 C11 1_555 1_555
H16 C12 1_555 1_555
H17 C12 1_555 1_555
H18 O7 1_555 1_555
C13 C12 1_555 1_555
H19 C13 1_555 1_555
C14 O6 1_555 1_555
H20 C14 1_555 1_555
C15 C8 1_555 1_555
H21 C15 1_555 1_555
H22 C15 1_555 1_555
C16 O5 1_555 1_555
C17 C16 1_555 1_555
H23 C17 1_555 1_555
H24 C17 1_555 1_555
H25 C17 1_555 1_555
C18 C4 1_555 1_555
H26 C18 1_555 1_555
H27 C18 1_555 1_555
H28 C18 1_555 1_555
C19 C4 1_555 1_555
H29 C19 1_555 1_555
H30 C19 1_555 1_555
H31 C19 1_555 1_555
C20 C10 1_555 1_555
H32 C20 1_555 1_555
H33 C20 1_555 1_555
H34 C20 1_555 1_555
C21 H35 1_555 1_555
H36 C21 1_555 1_555
C22 C21 1_555 1_555
H37 C22 1_555 1_555
H38 C22 1_555 1_555
O8 C21 1_555 1_555
H39 O8 1_555 1_555
C2 C3 1_555 1_555
O3 C7 1_555 1_555
C4 C7 1_555 1_555
C5 C6 1_555 1_555
C6 C7 1_555 1_555
C8 C14 1_555 1_555
C9 C10 1_555 1_555
C13 C14 1_555 1_555
C13 C16 1_555 1_555
C15 C16 1_555 1_555

#END
