
#######################################################################
#
#                 Cambridge Crystallographic Data Centre
#                                CCDC 
#
#######################################################################
#
# If this CIF has been generated from an entry in the Cambridge 
# Structural Database, then it will include bibliographic, chemical, 
# crystal, experimental, refinement or atomic coordinate data resulting 
# from the CCDC's data processing and validation procedures.
#
#######################################################################

data_YESSIB
_chemical_compound_source        
'isolated from the leaves of Rhododendron molle'
_chemical_name_common            'rhodojaponin I'
_chemical_formula_moiety         'C24 H36 O8'
_chemical_name_systematic        
'5,10,16-trihydroxy-2,3-epoxygrayanotoxane-6,14-diyl diacetate'
_chemical_properties_biological  
'Inhibitory activity against nitric oxide production in lipopolysaccharide-induced RAW264.7 mouse macrophages.'
_symmetry_cell_setting           monoclinic
_symmetry_space_group_name_H-M   'P 21'
_symmetry_Int_Tables_number      4
_space_group_name_Hall           'P 2yb'
loop_
_symmetry_equiv_pos_site_id
_symmetry_equiv_pos_as_xyz
1 x,y,z
2 -x,1/2+y,-z
_cell_length_a                   8.7254(2)
_cell_length_b                   13.1452(3)
_cell_length_c                   20.1229(5)
_cell_angle_alpha                90
_cell_angle_beta                 98.5930(10)
_cell_angle_gamma                90
_cell_volume                     2282.13
_exptl_crystal_colour            colorless
_exptl_crystal_description       block
_cell_formula_units_Z            4
loop_
_atom_site_label
_atom_site_type_symbol
_atom_site_fract_x
_atom_site_fract_y
_atom_site_fract_z
O1 O -0.14237(15) 0.19878(11) 0.56596(7)
O2 O 0.15774(13) 0.26936(9) 0.55721(6)
H1 H 0.0517 0.2846 0.5522
O3 O 0.41249(13) 0.20594(9) 0.65025(6)
O4 O 0.58517(15) 0.08253(10) 0.68415(7)
O5 O 0.35659(19) -0.12689(13) 0.60500(8)
O6 O 0.51331(14) -0.06451(10) 0.53546(6)
O7 O 0.69404(13) -0.03990(9) 0.43593(6)
H2 H 0.6818 -0.0565 0.4741
O8 O 0.00536(13) -0.00435(10) 0.43788(6)
H3 H -0.088 -0.0062 0.4394
C1 C 0.07213(18) 0.09071(13) 0.53765(8)
H4 H 0.1143 0.0237 0.5518
C2 C -0.0887(2) 0.09458(15) 0.55815(9)
H5 H -0.1634 0.04 0.5447
C3 C -0.0780(2) 0.14024(15) 0.62439(10)
H6 H -0.1469 0.1161 0.6553
C4 C 0.0883(2) 0.16508(14) 0.65161(9)
C5 C 0.16625(18) 0.16883(13) 0.58540(8)
C6 C 0.33615(18) 0.13861(12) 0.59700(8)
H7 H 0.345 0.0681 0.613
C7 C 0.42274(18) 0.14938(13) 0.53727(8)
H8 H 0.5319 0.139 0.5537
H9 H 0.4114 0.2194 0.5222
C8 C 0.38112(17) 0.08143(12) 0.47504(8)
C9 C 0.22248(17) 0.10905(13) 0.43197(8)
H10 H 0.2284 0.1821 0.4229
C10 C 0.06559(18) 0.09395(13) 0.45996(8)
C11 C 0.21188(19) 0.05651(14) 0.36228(8)
H11 H 0.1055 0.0598 0.3399
H12 H 0.2754 0.094 0.335
C12 C 0.26404(19) -0.05472(14) 0.36612(8)
H13 H 0.2799 -0.077 0.3217
H14 H 0.1823 -0.0961 0.3799
C13 C 0.41468(18) -0.07214(13) 0.41561(8)
H15 H 0.4445 -0.1441 0.4171
C14 C 0.38433(18) -0.03504(12) 0.48474(8)
H16 H 0.2854 -0.0606 0.4955
C15 C 0.51363(18) 0.09861(13) 0.43119(8)
H17 H 0.4809 0.1481 0.3962
H18 H 0.606 0.1242 0.459
C16 C 0.54870(18) -0.00409(13) 0.39960(8)
C17 C 0.5701(2) 0.00229(15) 0.32603(9)
H19 H 0.4759 0.0259 0.2998
H20 H 0.5953 -0.0638 0.3105
H21 H 0.6526 0.0488 0.3214
C18 C 0.1001(2) 0.26436(16) 0.69208(10)
H22 H 0.2069 0.2783 0.7088
H23 H 0.0431 0.2577 0.7291
H24 H 0.0577 0.3192 0.6636
C19 C 0.1481(2) 0.07531(16) 0.69720(10)
H25 H 0.2543 0.0871 0.716
H26 H 0.1406 0.0137 0.6713
H27 H 0.0866 0.069 0.7328
C20 C -0.0461(2) 0.17586(15) 0.42679(9)
H28 H -0.0076 0.242 0.4411
H29 H -0.1466 0.166 0.4398
H30 H -0.054 0.1707 0.3788
C21 C 0.5329(2) 0.16599(13) 0.69153(8)
C22 C 0.5953(3) 0.23727(16) 0.74721(10)
H31 H 0.5358 0.299 0.7432
H32 H 0.7017 0.2526 0.7444
H33 H 0.5884 0.2059 0.7897
C23 C 0.4844(2) -0.11084(14) 0.59142(9)
C24 C 0.6338(3) -0.13852(16) 0.63470(10)
H34 H 0.7193 -0.1181 0.6128
H35 H 0.6375 -0.2108 0.6418
H36 H 0.6401 -0.1044 0.6772
O9 O 0.69265(15) 0.29834(11) 0.07077(7)
O10 O 0.38310(13) 0.23091(9) 0.06213(6)
H37 H 0.48 0.2149 0.0544
O11 O 0.18943(13) 0.29897(9) 0.15284(6)
O12 O 0.05950(18) 0.42927(11) 0.19054(8)
O13 O 0.45999(13) 0.50149(10) -0.05968(6)
H38 H 0.5544 0.5032 -0.0581
O14 O 0.2381(2) 0.63263(13) 0.10025(8)
O15 O 0.02620(14) 0.57010(10) 0.03481(6)
O16 O -0.22746(13) 0.54207(10) -0.06290(6)
H39 H -0.1876 0.5602 -0.0253
C25 C 0.46057(18) 0.40814(13) 0.04096(8)
H40 H 0.4294 0.4758 0.0544
C26 C 0.6350(2) 0.40278(15) 0.06200(10)
H41 H 0.7017 0.4563 0.0481
C27 C 0.6696(2) 0.35867(16) 0.12868(10)
H42 H 0.76 0.3829 0.1594
C28 C 0.52038(19) 0.33543(15) 0.15593(9)
C29 C 0.39734(19) 0.33175(13) 0.08935(8)
C30 C 0.23638(19) 0.36527(13) 0.10028(8)
H43 H 0.2412 0.4358 0.1163
C31 C 0.10866(18) 0.35592(13) 0.04056(8)
H44 H 0.0116 0.3701 0.0568
H45 H 0.1051 0.2851 0.0268
C32 C 0.10998(17) 0.42009(13) -0.02324(8)
C33 C 0.23817(19) 0.38805(13) -0.06511(8)
H46 H 0.2249 0.3147 -0.0723
C34 C 0.41470(18) 0.40351(13) -0.03663(9)
C35 C 0.2022(2) 0.43696(15) -0.13600(9)
H47 H 0.2938 0.4321 -0.1579
H48 H 0.1203 0.3983 -0.1626
C36 C 0.1525(2) 0.54862(15) -0.13510(9)
H49 H 0.1051 0.568 -0.18
H50 H 0.244 0.5905 -0.1231
C37 C 0.03752(19) 0.57106(13) -0.08572(8)
H51 H 0.0109 0.6435 -0.0858
C38 C 0.11654(18) 0.53691(13) -0.01616(8)
H52 H 0.2236 0.5615 -0.0067
C39 C -0.05296(18) 0.40251(13) -0.06644(9)
H53 H -0.0453 0.3516 -0.1007
H54 H -0.1261 0.3785 -0.0381
C40 C -0.10894(18) 0.50451(14) -0.09956(8)
C41 C -0.1825(2) 0.49549(17) -0.17295(9)
H55 H -0.107 0.4707 -0.1991
H56 H -0.2187 0.5611 -0.1894
H57 H -0.2683 0.449 -0.1766
C42 C 0.5318(2) 0.23741(17) 0.19700(10)
H58 H 0.4355 0.2255 0.2133
H59 H 0.6137 0.2436 0.2343
H60 H 0.5533 0.1815 0.1692
C43 C 0.4949(2) 0.42691(16) 0.20073(9)
H61 H 0.4013 0.4171 0.2196
H62 H 0.4866 0.4879 0.1742
H63 H 0.5811 0.4327 0.2363
C44 C 0.5035(2) 0.32032(16) -0.06888(10)
H64 H 0.4744 0.2547 -0.0539
H65 H 0.6129 0.3301 -0.0559
H66 H 0.4785 0.3243 -0.1169
C45 C 0.0992(2) 0.34139(14) 0.19354(8)
C46 C 0.0503(2) 0.26675(16) 0.24229(10)
H67 H 0.0957 0.2016 0.2359
H68 H -0.0606 0.2608 0.235
H69 H 0.0844 0.2899 0.2873
C47 C 0.1002(3) 0.61685(14) 0.08975(9)
C48 C -0.0113(4) 0.64373(17) 0.13622(11)
H70 H -0.114 0.6238 0.1166
H71 H -0.0088 0.7158 0.1439
H72 H 0.0169 0.6089 0.1782
loop_
_geom_bond_atom_site_label_1
_geom_bond_atom_site_label_2
_geom_bond_site_symmetry_1
_geom_bond_site_symmetry_2
O1 C2 1_555 1_555
O2 H1 1_555 1_555
O3 C6 1_555 1_555
O4 C21 1_555 1_555
O5 C23 1_555 1_555
O6 C14 1_555 1_555
O7 H2 1_555 1_555
O8 H3 1_555 1_555
C1 H4 1_555 1_555
C2 C1 1_555 1_555
H5 C2 1_555 1_555
C3 O1 1_555 1_555
H6 C3 1_555 1_555
C4 C3 1_555 1_555
C5 O2 1_555 1_555
C6 C5 1_555 1_555
H7 C6 1_555 1_555
C7 C6 1_555 1_555
H8 C7 1_555 1_555
H9 C7 1_555 1_555
C8 C7 1_555 1_555
C9 C8 1_555 1_555
H10 C9 1_555 1_555
C10 O8 1_555 1_555
C11 C9 1_555 1_555
H11 C11 1_555 1_555
H12 C11 1_555 1_555
C12 C11 1_555 1_555
H13 C12 1_555 1_555
H14 C12 1_555 1_555
C13 C12 1_555 1_555
H15 C13 1_555 1_555
C14 C8 1_555 1_555
H16 C14 1_555 1_555
C15 C8 1_555 1_555
H17 C15 1_555 1_555
H18 C15 1_555 1_555
C16 O7 1_555 1_555
C17 C16 1_555 1_555
H19 C17 1_555 1_555
H20 C17 1_555 1_555
H21 C17 1_555 1_555
C18 C4 1_555 1_555
H22 C18 1_555 1_555
H23 C18 1_555 1_555
H24 C18 1_555 1_555
C19 C4 1_555 1_555
H25 C19 1_555 1_555
H26 C19 1_555 1_555
H27 C19 1_555 1_555
C20 C10 1_555 1_555
H28 C20 1_555 1_555
H29 C20 1_555 1_555
H30 C20 1_555 1_555
C21 O3 1_555 1_555
C22 C21 1_555 1_555
H31 C22 1_555 1_555
H32 C22 1_555 1_555
H33 C22 1_555 1_555
C23 O6 1_555 1_555
C24 C23 1_555 1_555
H34 C24 1_555 1_555
H35 C24 1_555 1_555
H36 C24 1_555 1_555
O9 C26 1_555 1_555
O10 H37 1_555 1_555
O11 C30 1_555 1_555
O12 C45 1_555 1_555
O13 H38 1_555 1_555
O14 C47 1_555 1_555
O15 C38 1_555 1_555
O16 H39 1_555 1_555
C25 H40 1_555 1_555
C26 C25 1_555 1_555
H41 C26 1_555 1_555
C27 O9 1_555 1_555
H42 C27 1_555 1_555
C28 C27 1_555 1_555
C29 O10 1_555 1_555
C30 C29 1_555 1_555
H43 C30 1_555 1_555
C31 C30 1_555 1_555
H44 C31 1_555 1_555
H45 C31 1_555 1_555
C32 C31 1_555 1_555
C33 C32 1_555 1_555
H46 C33 1_555 1_555
C34 O13 1_555 1_555
C35 C33 1_555 1_555
H47 C35 1_555 1_555
H48 C35 1_555 1_555
C36 C35 1_555 1_555
H49 C36 1_555 1_555
H50 C36 1_555 1_555
C37 C36 1_555 1_555
H51 C37 1_555 1_555
C38 C32 1_555 1_555
H52 C38 1_555 1_555
C39 C32 1_555 1_555
H53 C39 1_555 1_555
H54 C39 1_555 1_555
C40 O16 1_555 1_555
C41 C40 1_555 1_555
H55 C41 1_555 1_555
H56 C41 1_555 1_555
H57 C41 1_555 1_555
C42 C28 1_555 1_555
H58 C42 1_555 1_555
H59 C42 1_555 1_555
H60 C42 1_555 1_555
C43 C28 1_555 1_555
H61 C43 1_555 1_555
H62 C43 1_555 1_555
H63 C43 1_555 1_555
C44 C34 1_555 1_555
H64 C44 1_555 1_555
H65 C44 1_555 1_555
H66 C44 1_555 1_555
C45 O11 1_555 1_555
C46 C45 1_555 1_555
H67 C46 1_555 1_555
H68 C46 1_555 1_555
H69 C46 1_555 1_555
C47 O15 1_555 1_555
C48 C47 1_555 1_555
H70 C48 1_555 1_555
H71 C48 1_555 1_555
H72 C48 1_555 1_555
C1 C5 1_555 1_555
C1 C10 1_555 1_555
C2 C3 1_555 1_555
C4 C5 1_555 1_555
C9 C10 1_555 1_555
C13 C14 1_555 1_555
C13 C16 1_555 1_555
C15 C16 1_555 1_555
C25 C29 1_555 1_555
C25 C34 1_555 1_555
C26 C27 1_555 1_555
C28 C29 1_555 1_555
C33 C34 1_555 1_555
C37 C38 1_555 1_555
C37 C40 1_555 1_555
C39 C40 1_555 1_555

#END
