
#######################################################################
#
#                 Cambridge Crystallographic Data Centre
#                                CCDC 
#
#######################################################################
#
# If this CIF has been generated from an entry in the Cambridge 
# Structural Database, then it will include bibliographic, chemical, 
# crystal, experimental, refinement or atomic coordinate data resulting 
# from the CCDC's data processing and validation procedures.
#
#######################################################################

data_YETMOC
_chemical_formula_moiety         'C10 H10 I1 N2 O5 P1'
_chemical_name_systematic        
'dimethyl [(1-diazyn-1-yl)(3-oxo-1,3-dihydro-1,2-benziodoxol-1-ylidene)methyl]phosphonate'
_symmetry_cell_setting           monoclinic
_symmetry_space_group_name_H-M   'P 21/c'
_symmetry_Int_Tables_number      14
_space_group_name_Hall           '-P 2ybc'
loop_
_symmetry_equiv_pos_site_id
_symmetry_equiv_pos_as_xyz
1 x,y,z
2 -x,1/2+y,1/2-z
3 -x,-y,-z
4 x,1/2-y,1/2+z
_cell_length_a                   11.7354(8)
_cell_length_b                   8.7985(6)
_cell_length_c                   13.1464(10)
_cell_angle_alpha                90
_cell_angle_beta                 105.5933(19)
_cell_angle_gamma                90
_cell_volume                     1307.46
_exptl_crystal_colour            yellow
_exptl_crystal_description       plate
_cell_formula_units_Z            4
loop_
_atom_site_label
_atom_site_type_symbol
_atom_site_fract_x
_atom_site_fract_y
_atom_site_fract_z
C1 C 0.65105(16) -0.0465(2) 0.48338(15)
C2 C 0.73495(17) 0.0077(2) 0.57102(16)
H1 H 0.7759 0.1000 0.5681
C3 C 0.75747(18) -0.0775(2) 0.66366(17)
H2 H 0.8139 -0.0425 0.7254
C4 C 0.69757(18) -0.2136(2) 0.66621(17)
H3 H 0.7152 -0.2726 0.7291
C5 C 0.61223(17) -0.2637(2) 0.57748(16)
H4 H 0.5709 -0.3558 0.5803
C6 C 0.58692(16) -0.1794(2) 0.48440(16)
C7 C 0.49373(16) -0.2278(2) 0.38736(16)
C8 C 0.73967(16) 0.2405(2) 0.38490(16)
C9 C 1.08001(17) 0.2281(3) 0.54982(19)
H5 H 1.1244 0.2075 0.4979
H6 H 1.1129 0.1675 0.6135
H7 H 1.0860 0.3363 0.5681
C10 C 0.8806(2) 0.1234(3) 0.20611(19)
H8 H 0.7947 0.1336 0.1780
H9 H 0.9078 0.0343 0.1746
H10 H 0.9195 0.2147 0.1889
I1 I 0.61719(2) 0.06272(2) 0.33363(2)
N1 N 0.69498(14) 0.3749(2) 0.39679(14)
N2 N 0.65931(16) 0.4908(2) 0.40506(17)
O1 O 0.49123(12) -0.14913(16) 0.30399(12)
O2 O 0.42695(12) -0.33488(17) 0.39027(12)
O3 O 0.93056(13) 0.39253(17) 0.36201(13)
O4 O 0.95612(12) 0.18777(17) 0.50509(12)
O5 O 0.91002(13) 0.10484(17) 0.32052(12)
P1 P 0.89211(4) 0.24324(6) 0.39014(4)
loop_
_geom_bond_atom_site_label_1
_geom_bond_atom_site_label_2
_geom_bond_site_symmetry_1
_geom_bond_site_symmetry_2
C1 C2 1_555 1_555
C2 H1 1_555 1_555
C3 C2 1_555 1_555
H2 C3 1_555 1_555
C4 C3 1_555 1_555
H3 C4 1_555 1_555
C5 C4 1_555 1_555
H4 C5 1_555 1_555
C6 C1 1_555 1_555
C7 C6 1_555 1_555
C8 I1 1_555 1_555
C9 H5 1_555 1_555
H6 C9 1_555 1_555
H7 C9 1_555 1_555
C10 H8 1_555 1_555
H9 C10 1_555 1_555
H10 C10 1_555 1_555
I1 C1 1_555 1_555
N1 C8 1_555 1_555
N2 N1 1_555 1_555
O1 C7 1_555 1_555
O2 C7 1_555 1_555
O3 P1 1_555 1_555
O4 C9 1_555 1_555
O5 C10 1_555 1_555
P1 C8 1_555 1_555
C5 C6 1_555 1_555
I1 O1 1_555 1_555
O4 P1 1_555 1_555
O5 P1 1_555 1_555

#END
