
#######################################################################
#
#                 Cambridge Crystallographic Data Centre
#                                CCDC 
#
#######################################################################
#
# If this CIF has been generated from an entry in the Cambridge 
# Structural Database, then it will include bibliographic, chemical, 
# crystal, experimental, refinement or atomic coordinate data resulting 
# from the CCDC's data processing and validation procedures.
#
#######################################################################

data_YETXED
_chemical_formula_moiety         'C21 H20 N2 O2 S1'
_chemical_name_systematic        
N-benzyl-N'-benzylidene-4-methylbenzene-1-sulfonohydrazide
_symmetry_cell_setting           monoclinic
_symmetry_space_group_name_H-M   'P 21/c'
_symmetry_Int_Tables_number      14
_space_group_name_Hall           '-P 2ybc'
loop_
_symmetry_equiv_pos_site_id
_symmetry_equiv_pos_as_xyz
1 x,y,z
2 -x,1/2+y,1/2-z
3 -x,-y,-z
4 x,1/2-y,1/2+z
_cell_length_a                   19.436(3)
_cell_length_b                   6.1396(6)
_cell_length_c                   16.362(3)
_cell_angle_alpha                90
_cell_angle_beta                 108.100(16)
_cell_angle_gamma                90
_cell_volume                     1855.85
_exptl_crystal_colour            colorless
_exptl_crystal_description       needle
_cell_formula_units_Z            4
loop_
_atom_site_label
_atom_site_type_symbol
_atom_site_fract_x
_atom_site_fract_y
_atom_site_fract_z
C1 C 0.77937(11) 0.9122(3) 0.51902(15)
H1 H 0.7802 1.0241 0.5594
C2 C 0.80290(12) 0.9551(4) 0.44847(15)
H2 H 0.8198 1.0967 0.4411
C3 C 0.80201(12) 0.7936(4) 0.38892(15)
H3 H 0.8180 0.8242 0.3408
C4 C 0.77757(12) 0.5869(4) 0.40020(15)
H4 H 0.7770 0.4753 0.3597
C5 C 0.75394(11) 0.5422(3) 0.47056(14)
H5 H 0.7373 0.4003 0.4779
C6 C 0.75453(10) 0.7048(3) 0.53034(13)
C7 C 0.72448(11) 0.6648(3) 0.60403(14)
H6 H 0.7533 0.7495 0.6546
H7 H 0.6741 0.7193 0.5876
C8 C 0.84486(11) 0.4391(3) 0.70750(13)
H8 H 0.8493 0.5652 0.6759
C9 C 0.90824(11) 0.3552(3) 0.77473(13)
C10 C 0.96876(11) 0.4903(4) 0.80476(14)
H9 H 0.9689 0.6295 0.7795
C11 C 1.02865(12) 0.4225(4) 0.87122(15)
H10 H 1.0694 0.5157 0.8914
C12 C 1.02924(12) 0.2187(4) 0.90842(15)
H11 H 1.0702 0.1730 0.9542
C13 C 0.96972(12) 0.0819(4) 0.87847(15)
H12 H 0.9701 -0.0577 0.9037
C14 C 0.90971(11) 0.1488(3) 0.81186(14)
H13 H 0.8694 0.0541 0.7913
C15 C 0.62046(10) 0.4122(3) 0.71154(13)
C16 C 0.58931(11) 0.6184(3) 0.70862(14)
H14 H 0.5821 0.7090 0.6596
C17 C 0.56909(11) 0.6885(3) 0.77841(14)
H15 H 0.5487 0.8296 0.7772
C18 C 0.57813(10) 0.5556(3) 0.85067(13)
C19 C 0.60883(11) 0.3500(3) 0.85148(14)
H16 H 0.6151 0.2577 0.8998
C20 C 0.63040(11) 0.2781(3) 0.78261(14)
H17 H 0.6518 0.1384 0.7842
C21 C 0.55247(11) 0.6285(4) 0.92408(14)
H18 H 0.5538 0.7878 0.9276
H19 H 0.5841 0.5671 0.9780
H20 H 0.5028 0.5779 0.9145
N1 N 0.72510(8) 0.4340(3) 0.62858(11)
N2 N 0.78332(9) 0.3428(3) 0.69111(11)
O1 O 0.59676(7) 0.4039(2) 0.54563(9)
O2 O 0.65873(7) 0.0892(2) 0.63330(9)
S1 S 0.64591(3) 0.31857(8) 0.62333(3)
loop_
_geom_bond_atom_site_label_1
_geom_bond_atom_site_label_2
_geom_bond_site_symmetry_1
_geom_bond_site_symmetry_2
C1 H1 1_555 1_555
C2 C1 1_555 1_555
H2 C2 1_555 1_555
C3 C2 1_555 1_555
H3 C3 1_555 1_555
C4 C3 1_555 1_555
H4 C4 1_555 1_555
C5 C4 1_555 1_555
H5 C5 1_555 1_555
C6 C1 1_555 1_555
C7 C6 1_555 1_555
H6 C7 1_555 1_555
H7 C7 1_555 1_555
C8 H8 1_555 1_555
C9 C8 1_555 1_555
C10 C9 1_555 1_555
H9 C10 1_555 1_555
C11 C10 1_555 1_555
H10 C11 1_555 1_555
C12 C11 1_555 1_555
H11 C12 1_555 1_555
C13 C12 1_555 1_555
H12 C13 1_555 1_555
C14 C9 1_555 1_555
H13 C14 1_555 1_555
C15 C16 1_555 1_555
C16 H14 1_555 1_555
C17 C16 1_555 1_555
H15 C17 1_555 1_555
C18 C17 1_555 1_555
C19 C18 1_555 1_555
H16 C19 1_555 1_555
C20 C15 1_555 1_555
H17 C20 1_555 1_555
C21 C18 1_555 1_555
H18 C21 1_555 1_555
H19 C21 1_555 1_555
H20 C21 1_555 1_555
N1 C7 1_555 1_555
N2 C8 1_555 1_555
O1 S1 1_555 1_555
O2 S1 1_555 1_555
S1 C15 1_555 1_555
C5 C6 1_555 1_555
C13 C14 1_555 1_555
C19 C20 1_555 1_555
N1 N2 1_555 1_555
N1 S1 1_555 1_555

#END
