
#######################################################################
#
#                 Cambridge Crystallographic Data Centre
#                                CCDC 
#
#######################################################################
#
# If this CIF has been generated from an entry in the Cambridge 
# Structural Database, then it will include bibliographic, chemical, 
# crystal, experimental, refinement or atomic coordinate data resulting 
# from the CCDC's data processing and validation procedures.
#
#######################################################################

data_YEVMEU
_chemical_name_common            '11-cinnamamidoundecanoic acid'
_chemical_formula_moiety         'C20 H29 N1 O3'
_chemical_name_systematic        '11-[(3-phenylacryloyl)amino]undecanoic acid'
_symmetry_cell_setting           triclinic
_symmetry_space_group_name_H-M   'P -1'
_symmetry_Int_Tables_number      2
_space_group_name_Hall           '-P 1'
loop_
_symmetry_equiv_pos_site_id
_symmetry_equiv_pos_as_xyz
1 x,y,z
2 -x,-y,-z
_cell_length_a                   4.9745(1)
_cell_length_b                   11.2461(3)
_cell_length_c                   16.8204(6)
_cell_angle_alpha                82.426(2)
_cell_angle_beta                 85.357(2)
_cell_angle_gamma                81.863(2)
_cell_volume                     921.533
_exptl_crystal_colour            colorless
_exptl_crystal_description       plates
_cell_formula_units_Z            2
loop_
_atom_site_label
_atom_site_type_symbol
_atom_site_fract_x
_atom_site_fract_y
_atom_site_fract_z
O1 O 0.8428(2) 0.10915(11) 0.05602(7)
O2 O 1.2628(2) 0.00794(11) 0.06200(7)
H1 H 1.216(4) -0.0267(18) 0.0222(11)
C1 C 1.0675(3) 0.08995(14) 0.08417(9)
C2 C 1.1431(3) 0.15851(15) 0.14812(9)
H2 H 1.2981 0.2020 0.1264
H3 H 1.2058 0.0996 0.1941
C3 C 0.9155(3) 0.24940(15) 0.17879(10)
H4 H 0.7590 0.2069 0.2004
H5 H 0.8545 0.3100 0.1334
C4 C 1.0051(3) 0.31435(15) 0.24442(10)
H6 H 1.0661 0.2536 0.2897
H7 H 1.1620 0.3565 0.2228
C5 C 0.7790(3) 0.40618(15) 0.27583(10)
H8 H 0.6224 0.3638 0.2974
H9 H 0.7176 0.4665 0.2304
C6 C 0.8646(3) 0.47244(15) 0.34138(9)
H10 H 0.9185 0.4126 0.3878
H11 H 1.0257 0.5123 0.3206
C7 C 0.6405(3) 0.56732(15) 0.36976(10)
H12 H 0.4796 0.5270 0.3900
H13 H 0.5870 0.6267 0.3230
C8 C 0.7175(3) 0.63555(14) 0.43543(9)
H14 H 0.7792 0.5766 0.4815
H15 H 0.8710 0.6804 0.4145
C9 C 0.4802(3) 0.72422(14) 0.46420(9)
H16 H 0.3269 0.6787 0.4841
H17 H 0.4197 0.7825 0.4177
C10 C 0.5428(3) 0.79522(14) 0.53044(9)
H18 H 0.6092 0.7382 0.5769
H19 H 0.6876 0.8456 0.5103
C11 C 0.2894(3) 0.87548(14) 0.55685(9)
H20 H 0.2241 0.9316 0.5099
H21 H 0.1451 0.8244 0.5761
N1 N 0.3335(3) 0.94610(12) 0.62061(8)
H22 H 0.497(3) 0.9582(16) 0.6285(11)
C12 C 0.1236(3) 1.00638(13) 0.66031(9)
O3 O -0.1167(2) 1.00251(10) 0.64692(7)
C13 C 0.1967(3) 1.07781(14) 0.72197(9)
H23 H 0.3786 1.0665 0.7377
C14 C 0.0122(3) 1.15722(14) 0.75548(9)
H24 H -0.1659 1.1678 0.7369
C15 C 0.0573(3) 1.23021(14) 0.81856(9)
C16 C 0.2723(3) 1.19653(15) 0.86848(10)
H25 H 0.3951 1.1253 0.8615
C17 C 0.3093(4) 1.26566(16) 0.92823(10)
H26 H 0.4567 1.2414 0.9619
C18 C 0.1331(4) 1.36939(16) 0.93897(10)
H27 H 0.1605 1.4170 0.9795
C19 C -0.0843(4) 1.40420(16) 0.89047(11)
H28 H -0.2066 1.4753 0.8980
C20 C -0.1222(4) 1.33453(15) 0.83082(10)
H29 H -0.2721 1.3581 0.7980
loop_
_geom_bond_atom_site_label_1
_geom_bond_atom_site_label_2
_geom_bond_site_symmetry_1
_geom_bond_site_symmetry_2
O1 C1 1_555 1_555
O2 H1 1_555 1_555
C1 O2 1_555 1_555
C2 C1 1_555 1_555
H2 C2 1_555 1_555
H3 C2 1_555 1_555
C3 C2 1_555 1_555
H4 C3 1_555 1_555
H5 C3 1_555 1_555
C4 C3 1_555 1_555
H6 C4 1_555 1_555
H7 C4 1_555 1_555
C5 C4 1_555 1_555
H8 C5 1_555 1_555
H9 C5 1_555 1_555
C6 C5 1_555 1_555
H10 C6 1_555 1_555
H11 C6 1_555 1_555
C7 C6 1_555 1_555
H12 C7 1_555 1_555
H13 C7 1_555 1_555
C8 C7 1_555 1_555
H14 C8 1_555 1_555
H15 C8 1_555 1_555
C9 C8 1_555 1_555
H16 C9 1_555 1_555
H17 C9 1_555 1_555
C10 C9 1_555 1_555
H18 C10 1_555 1_555
H19 C10 1_555 1_555
C11 C10 1_555 1_555
H20 C11 1_555 1_555
H21 C11 1_555 1_555
N1 C11 1_555 1_555
H22 N1 1_555 1_555
C12 N1 1_555 1_555
O3 C12 1_555 1_555
C13 C12 1_555 1_555
H23 C13 1_555 1_555
C14 C13 1_555 1_555
H24 C14 1_555 1_555
C15 C14 1_555 1_555
C16 C15 1_555 1_555
H25 C16 1_555 1_555
C17 C16 1_555 1_555
H26 C17 1_555 1_555
C18 C17 1_555 1_555
H27 C18 1_555 1_555
C19 C18 1_555 1_555
H28 C19 1_555 1_555
C20 C15 1_555 1_555
H29 C20 1_555 1_555
C19 C20 1_555 1_555

#END
