
#######################################################################
#
#                 Cambridge Crystallographic Data Centre
#                                CCDC 
#
#######################################################################
#
# If this CIF has been generated from an entry in the Cambridge 
# Structural Database, then it will include bibliographic, chemical, 
# crystal, experimental, refinement or atomic coordinate data resulting 
# from the CCDC's data processing and validation procedures.
#
#######################################################################

data_YEWCUB
_chemical_formula_moiety         'C37 H51 F1 N2 O6 Si2'
_chemical_name_systematic        
'4-fluoro-4-phenyl-1,6-bis[tris(propan-2-yl)silyl]hexa-1,5-diyn-3-yl 3,5-dinitrobenzoate'
_symmetry_cell_setting           monoclinic
_symmetry_space_group_name_H-M   'P 21'
_symmetry_Int_Tables_number      4
_space_group_name_Hall           'P 2yb'
loop_
_symmetry_equiv_pos_site_id
_symmetry_equiv_pos_as_xyz
1 x,y,z
2 -x,1/2+y,-z
_cell_length_a                   12.1873(2)
_cell_length_b                   8.7246(2)
_cell_length_c                   19.6392(14)
_cell_angle_alpha                90
_cell_angle_beta                 101.712(7)
_cell_angle_gamma                90
_cell_volume                     2044.75
_exptl_crystal_colour            colorless
_exptl_crystal_description       prism
_cell_formula_units_Z            2
loop_
_atom_site_label
_atom_site_type_symbol
_atom_site_fract_x
_atom_site_fract_y
_atom_site_fract_z
C1 C 0.0572(14) 0.707(2) 0.4412(6)
H1 H 0.043756 0.597275 0.432804
C2 C 0.1791(7) 0.6958(9) 0.3243(5)
C3 C 0.1609(7) 0.6725(9) 0.2626(4)
C4 C 0.1436(5) 0.6499(8) 0.1882(3)
C5 C 0.1885(6) 0.7858(7) 0.1522(3)
H2 H 0.170728 0.768580 0.101883
C6 C 0.0546(6) 0.9805(9) 0.1151(4)
C7 C -0.0049(6) 1.1150(8) 0.1386(4)
C8 C 0.0123(6) 1.1623(10) 0.2067(4)
H3 H 0.062647 1.110745 0.241025
C9 C -0.0458(7) 1.2864(10) 0.2233(4)
C10 C 0.3064(17) 0.614(2) 0.4676(9)
H4 H 0.319128 0.638751 0.517269
C11 C -0.0802(6) 1.1950(10) 0.0882(4)
H5 H -0.094273 1.163396 0.042074
C12 C -0.1325(6) 1.3196(10) 0.1076(4)
C13 C -0.1198(7) 1.3692(10) 0.1740(4)
H6 H -0.158332 1.453786 0.185881
C14 C 0.3071(7) 0.8095(8) 0.1736(4)
C15 C 0.4064(8) 0.8233(10) 0.1860(4)
C16 C 0.5997(13) 0.891(2) 0.1176(11)
H7 H 0.573266 0.803075 0.087391
C17 C 0.1864(6) 0.5004(8) 0.1650(4)
C18 C 0.1530(7) 0.4558(9) 0.0971(4)
H8 H 0.102540 0.516610 0.066840
C19 C 0.1925(9) 0.3225(11) 0.0724(5)
H9 H 0.168884 0.294533 0.026039
C20 C 0.2661(9) 0.2328(13) 0.1162(8)
H10 H 0.293675 0.143968 0.099637
C21 C 0.2994(8) 0.2722(13) 0.1840(8)
H11 H 0.348398 0.208569 0.213730
C22 C 0.2604(7) 0.4099(11) 0.2104(5)
H12 H 0.284096 0.437746 0.256719
C23 C 0.6155(14) 0.634(4) 0.2259(17)
H13 H 0.696868 0.637490 0.229594
C24 C 0.2333(18) 0.950(2) 0.4280(7)
H14 H 0.158353 0.996304 0.417227
C25 C 0.2862(16) 1.0285(18) 0.3781(8)
H15 H 0.256721 0.989500 0.332365
H16 H 0.271254 1.136393 0.379312
H17 H 0.365581 1.011380 0.389688
C26 C 0.2733(19) 1.003(3) 0.5040(9)
H18 H 0.234351 0.945464 0.533552
H19 H 0.352423 0.984860 0.518125
H20 H 0.258096 1.109874 0.507749
C27 C 0.058(2) 0.729(3) 0.5200(8)
H21 H 0.120621 0.676335 0.547165
H22 H 0.062868 0.836505 0.531097
H23 H -0.010438 0.688597 0.530245
C28 C -0.0367(14) 0.784(3) 0.3939(10)
H24 H -0.031179 0.764972 0.346545
H25 H -0.106550 0.744304 0.401780
H26 H -0.033245 0.892212 0.402633
C29 C 0.598(2) 0.594(4) 0.2985(17)
H27 H 0.631491 0.672522 0.330584
H28 H 0.519220 0.588833 0.298122
H29 H 0.632331 0.497458 0.312712
C30 C 0.567(2) 0.521(3) 0.159(3)
H30 H 0.586182 0.563672 0.118049
H31 H 0.600617 0.421343 0.167795
H32 H 0.487506 0.512718 0.153204
C31 C 0.553(2) 1.009(5) 0.0804(13)
H33 H 0.474177 1.010813 0.079996
H34 H 0.586745 1.102293 0.100626
H35 H 0.564508 0.999961 0.033618
C32 C 0.7199(16) 0.900(3) 0.1145(13)
H36 H 0.759538 0.816462 0.140582
H37 H 0.727902 0.892937 0.066969
H38 H 0.750140 0.995270 0.133978
C33 C 0.288(3) 0.465(2) 0.4585(12)
H39 H 0.221872 0.437605 0.475558
H40 H 0.276452 0.441477 0.409846
H41 H 0.350834 0.409058 0.483415
C34 C 0.4172(16) 0.651(7) 0.4379(16)
H42 H 0.434113 0.758529 0.443483
H43 H 0.478908 0.592546 0.463047
H44 H 0.404526 0.624966 0.389477
C35 C 0.6053(12) 1.012(3) 0.2615(11)
H45 H 0.578622 1.097715 0.230069
C36 C 0.5483(18) 1.037(4) 0.3141(11)
H46 H 0.470240 1.015370 0.297598
H47 H 0.577761 0.971242 0.352603
H48 H 0.557188 1.142144 0.328767
C37 C 0.7271(18) 1.040(4) 0.2778(14)
H49 H 0.757782 1.019442 0.237471
H50 H 0.741109 1.145424 0.291379
H51 H 0.761682 0.974522 0.315215
F1 F 0.0263(3) 0.6515(5) 0.1631(2)
N1 N -0.0272(9) 1.3394(13) 0.2954(5)
N2 N -0.2111(7) 1.4051(13) 0.0524(5)
O1 O 0.0489(9) 1.2843(12) 0.3367(4)
O2 O -0.2318(9) 1.5355(12) 0.0659(5)
O3 O -0.2511(7) 1.3383(13) -0.0008(4)
O4 O 0.0364(5) 0.9367(7) 0.0568(3)
O5 O 0.1301(4) 0.9216(5) 0.1676(2)
O6 O -0.0890(8) 1.4355(12) 0.3112(4)
Si1 Si 0.1976(3) 0.7445(4) 0.41757(12)
Si2 Si 0.5625(2) 0.8356(4) 0.20065(18)
loop_
_geom_bond_atom_site_label_1
_geom_bond_atom_site_label_2
_geom_bond_site_symmetry_1
_geom_bond_site_symmetry_2
C1 H1 1_555 1_555
C2 C3 1_555 1_555
C3 C4 1_555 1_555
C4 C5 1_555 1_555
C5 H2 1_555 1_555
C6 C7 1_555 1_555
C7 C8 1_555 1_555
C8 H3 1_555 1_555
C9 C8 1_555 1_555
C10 H4 1_555 1_555
C11 C7 1_555 1_555
H5 C11 1_555 1_555
C12 C11 1_555 1_555
C13 C9 1_555 1_555
H6 C13 1_555 1_555
C14 C5 1_555 1_555
C15 C14 1_555 1_555
C16 H7 1_555 1_555
C17 C4 1_555 1_555
C18 C17 1_555 1_555
H8 C18 1_555 1_555
C19 C18 1_555 1_555
H9 C19 1_555 1_555
C20 C19 1_555 1_555
H10 C20 1_555 1_555
C21 C20 1_555 1_555
H11 C21 1_555 1_555
C22 C17 1_555 1_555
H12 C22 1_555 1_555
C23 H13 1_555 1_555
C24 H14 1_555 1_555
C25 C24 1_555 1_555
H15 C25 1_555 1_555
H16 C25 1_555 1_555
H17 C25 1_555 1_555
C26 C24 1_555 1_555
H18 C26 1_555 1_555
H19 C26 1_555 1_555
H20 C26 1_555 1_555
C27 C1 1_555 1_555
H21 C27 1_555 1_555
H22 C27 1_555 1_555
H23 C27 1_555 1_555
C28 C1 1_555 1_555
H24 C28 1_555 1_555
H25 C28 1_555 1_555
H26 C28 1_555 1_555
C29 C23 1_555 1_555
H27 C29 1_555 1_555
H28 C29 1_555 1_555
H29 C29 1_555 1_555
C30 C23 1_555 1_555
H30 C30 1_555 1_555
H31 C30 1_555 1_555
H32 C30 1_555 1_555
C31 C16 1_555 1_555
H33 C31 1_555 1_555
H34 C31 1_555 1_555
H35 C31 1_555 1_555
C32 C16 1_555 1_555
H36 C32 1_555 1_555
H37 C32 1_555 1_555
H38 C32 1_555 1_555
C33 C10 1_555 1_555
H39 C33 1_555 1_555
H40 C33 1_555 1_555
H41 C33 1_555 1_555
C34 C10 1_555 1_555
H42 C34 1_555 1_555
H43 C34 1_555 1_555
H44 C34 1_555 1_555
C35 H45 1_555 1_555
C36 C35 1_555 1_555
H46 C36 1_555 1_555
H47 C36 1_555 1_555
H48 C36 1_555 1_555
C37 C35 1_555 1_555
H49 C37 1_555 1_555
H50 C37 1_555 1_555
H51 C37 1_555 1_555
F1 C4 1_555 1_555
N1 C9 1_555 1_555
N2 C12 1_555 1_555
O1 N1 1_555 1_555
O2 N2 1_555 1_555
O3 N2 1_555 1_555
O4 C6 1_555 1_555
O5 C5 1_555 1_555
O6 N1 1_555 1_555
Si1 C1 1_555 1_555
Si2 C15 1_555 1_555
C2 Si1 1_555 1_555
C6 O5 1_555 1_555
C10 Si1 1_555 1_555
C12 C13 1_555 1_555
C16 Si2 1_555 1_555
C21 C22 1_555 1_555
C23 Si2 1_555 1_555
C24 Si1 1_555 1_555
C35 Si2 1_555 1_555

#END
