
#######################################################################
#
#                 Cambridge Crystallographic Data Centre
#                                CCDC 
#
#######################################################################
#
# If this CIF has been generated from an entry in the Cambridge 
# Structural Database, then it will include bibliographic, chemical, 
# crystal, experimental, refinement or atomic coordinate data resulting 
# from the CCDC's data processing and validation procedures.
#
#######################################################################

data_YEWHUG
_chemical_formula_moiety         'C40 H48 N2'
_chemical_name_systematic        
N^1^,N^4^-bis[2,6-di-isopropylphenyl]-1,4-diphenylbutane-1,4-di-imine
_symmetry_cell_setting           monoclinic
_symmetry_space_group_name_H-M   'P 21/n'
_symmetry_Int_Tables_number      14
_space_group_name_Hall           '-P 2yn'
loop_
_symmetry_equiv_pos_site_id
_symmetry_equiv_pos_as_xyz
1 x,y,z
2 1/2-x,1/2+y,1/2-z
3 -x,-y,-z
4 1/2+x,1/2-y,1/2+z
_cell_length_a                   8.839(3)
_cell_length_b                   12.054(4)
_cell_length_c                   16.055(7)
_cell_angle_alpha                90
_cell_angle_beta                 100.70(4)
_cell_angle_gamma                90
_cell_volume                     1680.84
_exptl_crystal_colour            colorless
_exptl_crystal_description       block
_cell_formula_units_Z            2
loop_
_atom_site_label
_atom_site_type_symbol
_atom_site_fract_x
_atom_site_fract_y
_atom_site_fract_z
N1 N 0.86295(15) -0.02239(11) 0.14422(8)
C1 C 0.88757(18) 0.09246(13) 0.16051(10)
C2 C 0.7723(2) 0.16755(14) 0.12327(11)
C3 C 0.7925(2) 0.27868(16) 0.14459(13)
H1 H 0.7174 0.3302 0.1202
C4 C 0.9193(3) 0.31538(16) 0.20044(14)
H2 H 0.9306 0.3913 0.2136
C5 C 1.0302(2) 0.24073(18) 0.23727(13)
H3 H 1.1166 0.2668 0.2754
C6 C 1.0172(2) 0.12776(15) 0.21921(11)
C7 C 1.1334(2) 0.04390(17) 0.26297(13)
H4 H 1.1537 -0.0091 0.2192
C8 C 1.0674(3) -0.0222(2) 0.32873(15)
H5 H 1.0503 0.0269 0.3740
H6 H 1.1394 -0.0800 0.3519
H7 H 0.9705 -0.0555 0.3022
C9 C 1.2875(3) 0.0944(2) 0.30383(16)
H8 H 1.3228 0.1442 0.2639
H9 H 1.3626 0.0357 0.3194
H10 H 1.2753 0.1355 0.3541
C10 C 0.6281(2) 0.12727(16) 0.06501(12)
H11 H 0.6517 0.0543 0.0421
C11 C 0.5727(3) 0.2037(2) -0.00991(16)
H12 H 0.5338 0.2720 0.0101
H13 H 0.4913 0.1674 -0.0493
H14 H 0.6578 0.2204 -0.0383
C12 C 0.5009(3) 0.1096(2) 0.11624(17)
H15 H 0.5344 0.0554 0.1605
H16 H 0.4089 0.0829 0.0791
H17 H 0.4787 0.1793 0.1417
C13 C 0.93012(18) -0.07537(13) 0.09249(10)
C14 C 1.04097(19) -0.02198(14) 0.04225(11)
H18 H 1.0953 0.0391 0.0754
H19 H 1.1178 -0.0769 0.0328
C15 C 0.89667(18) -0.19607(13) 0.08055(10)
C16 C 0.9312(2) -0.25492(14) 0.01219(11)
H20 H 0.9811 -0.2190 -0.0271
C17 C 0.8930(2) -0.36552(15) 0.00134(13)
H21 H 0.9158 -0.4041 -0.0457
C18 C 0.8221(2) -0.41976(16) 0.05857(14)
H22 H 0.7957 -0.4951 0.0506
C19 C 0.7898(2) -0.36361(16) 0.12749(14)
H23 H 0.7433 -0.4010 0.1675
C20 C 0.82540(19) -0.25235(15) 0.13834(12)
H24 H 0.8012 -0.2143 0.1852
N1B N 1.13705(15) 0.02239(11) -0.14422(8)
C1B C 1.11243(18) -0.09246(13) -0.16051(10)
C2B C 1.2277(2) -0.16755(14) -0.12327(11)
C3B C 1.2075(2) -0.27868(16) -0.14459(13)
H1B H 1.2826 -0.3302 -0.1202
C4B C 1.0807(3) -0.31538(16) -0.20044(14)
H2B H 1.0694 -0.3913 -0.2136
C5B C 0.9698(2) -0.24073(18) -0.23727(13)
H3B H 0.8834 -0.2668 -0.2754
C6B C 0.9828(2) -0.12776(15) -0.21921(11)
C7B C 0.8666(2) -0.04390(17) -0.26297(13)
H4B H 0.8463 0.0091 -0.2192
C8B C 0.9326(3) 0.0222(2) -0.32873(15)
H5B H 0.9497 -0.0269 -0.3740
H6B H 0.8606 0.0800 -0.3519
H7B H 1.0295 0.0555 -0.3022
C9B C 0.7125(3) -0.0944(2) -0.30383(16)
H8B H 0.6772 -0.1442 -0.2639
H9B H 0.6374 -0.0357 -0.3194
H10B H 0.7247 -0.1355 -0.3541
C10B C 1.3719(2) -0.12727(16) -0.06501(12)
H11B H 1.3483 -0.0543 -0.0421
C11B C 1.4273(3) -0.2037(2) 0.00991(16)
H12B H 1.4662 -0.2720 -0.0101
H13B H 1.5087 -0.1674 0.0493
H14B H 1.3422 -0.2204 0.0383
C12B C 1.4991(3) -0.1096(2) -0.11624(17)
H15B H 1.4656 -0.0554 -0.1605
H16B H 1.5911 -0.0829 -0.0791
H17B H 1.5213 -0.1793 -0.1417
C13B C 1.06988(18) 0.07537(13) -0.09249(10)
C14B C 0.95903(19) 0.02198(14) -0.04225(11)
H18B H 0.9047 -0.0391 -0.0754
H19B H 0.8822 0.0769 -0.0328
C15B C 1.10333(18) 0.19607(13) -0.08055(10)
C16B C 1.0688(2) 0.25492(14) -0.01219(11)
H20B H 1.0189 0.2190 0.0271
C17B C 1.1070(2) 0.36552(15) -0.00134(13)
H21B H 1.0842 0.4041 0.0457
C18B C 1.1779(2) 0.41976(16) -0.05857(14)
H22B H 1.2043 0.4951 -0.0506
C19B C 1.2102(2) 0.36361(16) -0.12749(14)
H23B H 1.2567 0.4010 -0.1675
C20B C 1.17460(19) 0.25235(15) -0.13834(12)
H24B H 1.1988 0.2143 -0.1852
loop_
_geom_bond_atom_site_label_1
_geom_bond_atom_site_label_2
_geom_bond_site_symmetry_1
_geom_bond_site_symmetry_2
N1 C1 1_555 1_555
C1 C2 1_555 1_555
C2 C3 1_555 1_555
C3 H1 1_555 1_555
C4 C3 1_555 1_555
H2 C4 1_555 1_555
C5 C4 1_555 1_555
H3 C5 1_555 1_555
C6 C1 1_555 1_555
C7 C6 1_555 1_555
H4 C7 1_555 1_555
C8 C7 1_555 1_555
H5 C8 1_555 1_555
H6 C8 1_555 1_555
H7 C8 1_555 1_555
C9 C7 1_555 1_555
H8 C9 1_555 1_555
H9 C9 1_555 1_555
H10 C9 1_555 1_555
C10 C2 1_555 1_555
H11 C10 1_555 1_555
C11 C10 1_555 1_555
H12 C11 1_555 1_555
H13 C11 1_555 1_555
H14 C11 1_555 1_555
C12 C10 1_555 1_555
H15 C12 1_555 1_555
H16 C12 1_555 1_555
H17 C12 1_555 1_555
C13 N1 1_555 1_555
C14 C13 1_555 1_555
H18 C14 1_555 1_555
H19 C14 1_555 1_555
C15 C13 1_555 1_555
C16 C15 1_555 1_555
H20 C16 1_555 1_555
C17 C16 1_555 1_555
H21 C17 1_555 1_555
C18 C17 1_555 1_555
H22 C18 1_555 1_555
C19 C18 1_555 1_555
H23 C19 1_555 1_555
C20 C15 1_555 1_555
H24 C20 1_555 1_555
N1B C1B 1_555 1_555
C1B C2B 1_555 1_555
C2B C3B 1_555 1_555
C3B H1B 1_555 1_555
C4B C3B 1_555 1_555
H2B C4B 1_555 1_555
C5B C4B 1_555 1_555
H3B C5B 1_555 1_555
C6B C1B 1_555 1_555
C7B C6B 1_555 1_555
H4B C7B 1_555 1_555
C8B C7B 1_555 1_555
H5B C8B 1_555 1_555
H6B C8B 1_555 1_555
H7B C8B 1_555 1_555
C9B C7B 1_555 1_555
H8B C9B 1_555 1_555
H9B C9B 1_555 1_555
H10B C9B 1_555 1_555
C10B C2B 1_555 1_555
H11B C10B 1_555 1_555
C11B C10B 1_555 1_555
H12B C11B 1_555 1_555
H13B C11B 1_555 1_555
H14B C11B 1_555 1_555
C12B C10B 1_555 1_555
H15B C12B 1_555 1_555
H16B C12B 1_555 1_555
H17B C12B 1_555 1_555
C13B N1B 1_555 1_555
C14B C14 1_555 1_555
H18B C14B 1_555 1_555
H19B C14B 1_555 1_555
C15B C13B 1_555 1_555
C16B C15B 1_555 1_555
H20B C16B 1_555 1_555
C17B C16B 1_555 1_555
H21B C17B 1_555 1_555
C18B C17B 1_555 1_555
H22B C18B 1_555 1_555
C19B C18B 1_555 1_555
H23B C19B 1_555 1_555
C20B C15B 1_555 1_555
H24B C20B 1_555 1_555
C5 C6 1_555 1_555
C19 C20 1_555 1_555
C5B C6B 1_555 1_555
C13B C14B 1_555 1_555
C19B C20B 1_555 1_555

#END
