
#######################################################################
#
#                 Cambridge Crystallographic Data Centre
#                                CCDC 
#
#######################################################################
#
# If this CIF has been generated from an entry in the Cambridge 
# Structural Database, then it will include bibliographic, chemical, 
# crystal, experimental, refinement or atomic coordinate data resulting 
# from the CCDC's data processing and validation procedures.
#
#######################################################################

data_YEWJOA
_chemical_formula_moiety         'C25 H29 N2 O4 1+,C2 F3 O2 1-'
_chemical_name_systematic        
'trans-(1S,3R)-(-)-2-Benzyl-3-ethoxycarbonyl-1-methoxycarbonylethyl-1,2,3,4-tetrahydro-9H-pyrido(3,4-b)indol-2-ium trifluoroacetate'
_symmetry_cell_setting           triclinic
_symmetry_space_group_name_H-M   'P 1'
_symmetry_Int_Tables_number      1
_space_group_name_Hall           'P 1'
loop_
_symmetry_equiv_pos_site_id
_symmetry_equiv_pos_as_xyz
1 x,y,z
_cell_length_a                   6.7724(8)
_cell_length_b                   9.1776(12)
_cell_length_c                   10.8996(14)
_cell_angle_alpha                69.167(2)
_cell_angle_beta                 77.199(2)
_cell_angle_gamma                87.489(2)
_cell_volume                     616.974
_exptl_crystal_colour            'pale yellow'
_exptl_crystal_description       plate
_cell_formula_units_Z            1
loop_
_atom_site_label
_atom_site_type_symbol
_atom_site_fract_x
_atom_site_fract_y
_atom_site_fract_z
C1 C 0.3524(3) 0.6086(2) -0.0729(2)
H1 H 0.4650 0.5454 -0.1014
N1 N 0.1717(3) 0.4958(2) 0.01369(18)
H2 H 0.1001 0.4836 -0.0458
C2 C 0.0255(3) 0.5603(3) 0.1067(2)
H3 H -0.0189 0.6622 0.0492
C3 C 0.4434(3) 0.7690(3) 0.1789(2)
C4 C 0.3201(3) 0.6804(3) 0.1368(2)
C5 C 0.1210(3) 0.5937(3) 0.2087(2)
H4 H 0.0300 0.6572 0.2524
H5 H 0.1421 0.4946 0.2794
C6 C 0.4208(4) 0.8140(3) 0.2911(2)
H6 H 0.3007 0.7858 0.3600
C7 C 0.5759(4) 0.9002(3) 0.3003(3)
H7 H 0.5624 0.9305 0.3764
C8 C 0.7538(4) 0.9434(3) 0.1975(2)
H8 H 0.8597 1.0006 0.2068
C9 C 0.7779(3) 0.9047(3) 0.0842(2)
H9 H 0.8971 0.9359 0.0146
C10 C 0.6200(3) 0.8176(3) 0.0752(2)
N2 N 0.6052(3) 0.7622(2) -0.02467(19)
H10 H 0.6962 0.7763 -0.0997
C11 C 0.4218(3) 0.6808(2) 0.0144(2)
O1 O -0.2157(3) 0.3691(2) 0.11504(18)
C12 C -0.1616(3) 0.4502(3) 0.1686(2)
O2 O -0.2543(2) 0.45787(19) 0.28669(16)
C13 C -0.4383(3) 0.3573(3) 0.3560(2)
H11 H -0.4039 0.2460 0.3825
H12 H -0.5348 0.3767 0.2962
C14 C -0.5294(4) 0.3967(3) 0.4777(3)
H13 H -0.6537 0.3327 0.5266
H14 H -0.5615 0.5073 0.4500
H15 H -0.4328 0.3761 0.5363
C15 C 0.3045(3) 0.7291(3) -0.2000(2)
H16 H 0.4134 0.8118 -0.2391
H17 H 0.1767 0.7784 -0.1744
C16 C 0.2830(3) 0.6653(3) -0.3093(2)
H18 H 0.3246 0.7488 -0.3985
H19 H 0.3766 0.5789 -0.3068
O3 O -0.0419(2) 0.53656(19) -0.18800(16)
C17 C 0.0706(3) 0.6065(3) -0.2944(2)
O4 O 0.0267(2) 0.6366(2) -0.41353(16)
C18 C -0.1722(4) 0.5823(4) -0.4116(3)
H20 H -0.1888 0.6099 -0.5041
H21 H -0.2764 0.6316 -0.3630
H22 H -0.1857 0.4687 -0.3664
C19 C 0.2474(3) 0.3364(2) 0.0833(2)
H23 H 0.3621 0.3477 0.1224
H24 H 0.1377 0.2729 0.1573
C20 C 0.3153(3) 0.2562(3) -0.0171(2)
C21 C 0.1703(3) 0.2033(3) -0.0667(2)
H25 H 0.0303 0.2144 -0.0344
C22 C 0.2309(4) 0.1343(3) -0.1632(3)
H26 H 0.1324 0.0984 -0.1969
C23 C 0.4358(4) 0.1179(3) -0.2101(3)
H27 H 0.4776 0.0717 -0.2766
C24 C 0.5796(4) 0.1694(3) -0.1596(3)
H28 H 0.7195 0.1573 -0.1911
C25 C 0.5196(4) 0.2380(3) -0.0636(2)
H29 H 0.6185 0.2727 -0.0294
F1 F 0.2004(2) 0.0469(2) 0.53064(18)
F2 F -0.0177(3) 0.2224(2) 0.5185(3)
F3 F 0.0163(4) 0.0918(4) 0.38754(19)
C26 C 0.0126(4) 0.0790(3) 0.5121(3)
O5 O -0.1137(2) -0.0975(2) 0.73045(17)
O6 O -0.3029(3) -0.0519(2) 0.57610(19)
C27 C -0.1533(3) -0.0375(3) 0.6172(2)
loop_
_geom_bond_atom_site_label_1
_geom_bond_atom_site_label_2
_geom_bond_site_symmetry_1
_geom_bond_site_symmetry_2
C1 H1 1_555 1_555
N1 C1 1_555 1_555
H2 N1 1_555 1_555
C2 N1 1_555 1_555
H3 C2 1_555 1_555
C3 C4 1_555 1_555
C4 C5 1_555 1_555
C5 C2 1_555 1_555
H4 C5 1_555 1_555
H5 C5 1_555 1_555
C6 C3 1_555 1_555
H6 C6 1_555 1_555
C7 C6 1_555 1_555
H7 C7 1_555 1_555
C8 C7 1_555 1_555
H8 C8 1_555 1_555
C9 C8 1_555 1_555
H9 C9 1_555 1_555
C10 C3 1_555 1_555
N2 C10 1_555 1_555
H10 N2 1_555 1_555
C11 C1 1_555 1_555
O1 C12 1_555 1_555
C12 C2 1_555 1_555
O2 C12 1_555 1_555
C13 O2 1_555 1_555
H11 C13 1_555 1_555
H12 C13 1_555 1_555
C14 C13 1_555 1_555
H13 C14 1_555 1_555
H14 C14 1_555 1_555
H15 C14 1_555 1_555
C15 C1 1_555 1_555
H16 C15 1_555 1_555
H17 C15 1_555 1_555
C16 C15 1_555 1_555
H18 C16 1_555 1_555
H19 C16 1_555 1_555
O3 C17 1_555 1_555
C17 C16 1_555 1_555
O4 C17 1_555 1_555
C18 O4 1_555 1_555
H20 C18 1_555 1_555
H21 C18 1_555 1_555
H22 C18 1_555 1_555
C19 N1 1_555 1_555
H23 C19 1_555 1_555
H24 C19 1_555 1_555
C20 C19 1_555 1_555
C21 C20 1_555 1_555
H25 C21 1_555 1_555
C22 C21 1_555 1_555
H26 C22 1_555 1_555
C23 C22 1_555 1_555
H27 C23 1_555 1_555
C24 C23 1_555 1_555
H28 C24 1_555 1_555
C25 C20 1_555 1_555
H29 C25 1_555 1_555
F1 C26 1_555 1_555
F2 C26 1_555 1_555
F3 C26 1_555 1_555
C26 C27 1_555 1_555
O5 C27 1_555 1_555
O6 C27 1_555 1_555
C4 C11 1_555 1_555
C9 C10 1_555 1_555
N2 C11 1_555 1_555
C24 C25 1_555 1_555

#END
