
#######################################################################
#
#                 Cambridge Crystallographic Data Centre
#                                CCDC 
#
#######################################################################
#
# If this CIF has been generated from an entry in the Cambridge 
# Structural Database, then it will include bibliographic, chemical, 
# crystal, experimental, refinement or atomic coordinate data resulting 
# from the CCDC's data processing and validation procedures.
#
#######################################################################

data_YEWJIU
_chemical_formula_moiety         'C25 H28 N2 O4'
_chemical_name_systematic        
trans-(1S,3R)-(-)-2-Benzyl-3-ethoxycarbonyl-1-methoxycarbonylethyl-1,2,3,4-tetrahydro-9H-pyrido(3,4-b)indole
_symmetry_cell_setting           orthorhombic
_symmetry_space_group_name_H-M   'P 21 21 21'
_symmetry_Int_Tables_number      19
_space_group_name_Hall           'P 2ac 2ab'
loop_
_symmetry_equiv_pos_site_id
_symmetry_equiv_pos_as_xyz
1 x,y,z
2 1/2-x,-y,1/2+z
3 -x,1/2+y,1/2-z
4 1/2+x,1/2-y,-z
_cell_length_a                   8.17120(10)
_cell_length_b                   12.59460(10)
_cell_length_c                   22.3126(2)
_cell_angle_alpha                90
_cell_angle_beta                 90
_cell_angle_gamma                90
_cell_volume                     2296.26
_exptl_crystal_colour            colorless
_exptl_crystal_description       rod
_chemical_melting_point          '122-124 deg.C'
_cell_formula_units_Z            4
loop_
_atom_site_label
_atom_site_type_symbol
_atom_site_fract_x
_atom_site_fract_y
_atom_site_fract_z
C1 C 0.1336(5) 0.6781(3) 0.1511(2)
H1 H 0.2158 0.6917 0.1822
N1 N -0.0301(4) 0.6784(3) 0.17959(17)
C2 C -0.1630(5) 0.6849(3) 0.1360(2)
H2 H -0.1469 0.6255 0.1083
C3 C -0.1646(6) 0.7858(4) 0.0973(2)
H3 H -0.2292 0.7739 0.0615
H4 H -0.2135 0.8438 0.1196
C4 C 0.0067(5) 0.8135(3) 0.0804(2)
C5 C 0.0698(6) 0.8921(3) 0.0393(2)
C6 C -0.0028(8) 0.9645(4) -0.0002(2)
H5 H -0.1159 0.9668 -0.0045
C7 C 0.0946(8) 1.0316(4) -0.0323(3)
H6 H 0.0470 1.0805 -0.0582
C8 C 0.2670(8) 1.0279(4) -0.0268(3)
H7 H 0.3313 1.0735 -0.0496
C9 C 0.3408(8) 0.9576(4) 0.0118(3)
H8 H 0.4540 0.9566 0.0161
C10 C 0.2446(6) 0.8892(4) 0.0438(2)
N2 N 0.2846(5) 0.8102(3) 0.08550(19)
C11 C 0.1406(5) 0.7663(3) 0.1066(2)
C12 C -0.3263(5) 0.6657(4) 0.1664(3)
O1 O -0.4506(4) 0.7123(4) 0.1521(2)
O2 O -0.3203(4) 0.5926(3) 0.2089(2)
C13 C -0.4679(7) 0.5716(8) 0.2422(4)
H9 H -0.5128 0.6382 0.2567
H10 H -0.5481 0.5394 0.2159
C14 C -0.4389(12) 0.5032(8) 0.2916(5)
H11 H -0.5415 0.4778 0.3070
H12 H -0.3820 0.5414 0.3225
H13 H -0.3735 0.4440 0.2789
C15 C 0.1732(6) 0.5718(3) 0.1213(2)
H14 H 0.1078 0.5647 0.0853
H15 H 0.2874 0.5715 0.1095
C16 C 0.1408(6) 0.4765(3) 0.1619(3)
H16 H 0.1872 0.4901 0.2012
H17 H 0.0237 0.4674 0.1667
O3 O 0.1456(7) 0.3523(3) 0.0852(2)
C17 C 0.2121(7) 0.3779(4) 0.1374(3)
O4 O 0.3191(6) 0.3259(4) 0.1590(3)
C18 C 0.2000(15) 0.2560(6) 0.0568(4)
H18 H 0.1657 0.2558 0.0157
H19 H 0.1534 0.1960 0.0771
H20 H 0.3172 0.2520 0.0587
C19 C -0.0385(6) 0.7587(3) 0.2266(2)
H21 H -0.1518 0.7703 0.2378
H22 H 0.0052 0.8253 0.2116
C20 C 0.0590(6) 0.7236(4) 0.2814(2)
C21 C 0.0248(8) 0.6274(4) 0.3077(3)
H23 H -0.0590 0.5855 0.2923
C22 C 0.1122(13) 0.5920(8) 0.3565(3)
H24 H 0.0866 0.5271 0.3740
C23 C 0.2319(13) 0.6497(9) 0.3783(3)
H25 H 0.2895 0.6250 0.4114
C24 C 0.2739(9) 0.7448(8) 0.3538(4)
H26 H 0.3590 0.7845 0.3700
C25 C 0.1862(7) 0.7830(5) 0.3030(3)
H27 H 0.2148 0.8469 0.2850
loop_
_geom_bond_atom_site_label_1
_geom_bond_atom_site_label_2
_geom_bond_site_symmetry_1
_geom_bond_site_symmetry_2
C1 H1 1_555 1_555
N1 C1 1_555 1_555
C2 N1 1_555 1_555
H2 C2 1_555 1_555
C3 C2 1_555 1_555
H3 C3 1_555 1_555
H4 C3 1_555 1_555
C4 C3 1_555 1_555
C5 C4 1_555 1_555
C6 C5 1_555 1_555
H5 C6 1_555 1_555
C7 C6 1_555 1_555
H6 C7 1_555 1_555
C8 C7 1_555 1_555
H7 C8 1_555 1_555
C9 C8 1_555 1_555
H8 C9 1_555 1_555
C10 C5 1_555 1_555
N2 C10 1_555 1_555
C11 C1 1_555 1_555
C12 C2 1_555 1_555
O1 C12 1_555 1_555
O2 C12 1_555 1_555
C13 O2 1_555 1_555
H9 C13 1_555 1_555
H10 C13 1_555 1_555
C14 C13 1_555 1_555
H11 C14 1_555 1_555
H12 C14 1_555 1_555
H13 C14 1_555 1_555
C15 C1 1_555 1_555
H14 C15 1_555 1_555
H15 C15 1_555 1_555
C16 C15 1_555 1_555
H16 C16 1_555 1_555
H17 C16 1_555 1_555
O3 C17 1_555 1_555
C17 C16 1_555 1_555
O4 C17 1_555 1_555
C18 O3 1_555 1_555
H18 C18 1_555 1_555
H19 C18 1_555 1_555
H20 C18 1_555 1_555
C19 N1 1_555 1_555
H21 C19 1_555 1_555
H22 C19 1_555 1_555
C20 C19 1_555 1_555
C21 C20 1_555 1_555
H23 C21 1_555 1_555
C22 C21 1_555 1_555
H24 C22 1_555 1_555
C23 C22 1_555 1_555
H25 C23 1_555 1_555
C24 C23 1_555 1_555
H26 C24 1_555 1_555
C25 C20 1_555 1_555
H27 C25 1_555 1_555
C4 C11 1_555 1_555
C9 C10 1_555 1_555
N2 C11 1_555 1_555
C24 C25 1_555 1_555

#END
