
#######################################################################
#
#                 Cambridge Crystallographic Data Centre
#                                CCDC 
#
#######################################################################
#
# If this CIF has been generated from an entry in the Cambridge 
# Structural Database, then it will include bibliographic, chemical, 
# crystal, experimental, refinement or atomic coordinate data resulting 
# from the CCDC's data processing and validation procedures.
#
#######################################################################

data_YEWJES
_chemical_formula_moiety         'C32 H32 N2'
_chemical_name_systematic        
N^1^,N^4^-bis(2,6-dimethylphenyl)-1,4-diphenylbutane-1,4-di-imine
_symmetry_cell_setting           triclinic
_symmetry_space_group_name_H-M   'P -1'
_symmetry_Int_Tables_number      2
_space_group_name_Hall           '-P 1'
loop_
_symmetry_equiv_pos_site_id
_symmetry_equiv_pos_as_xyz
1 x,y,z
2 -x,-y,-z
_cell_length_a                   10.2057(10)
_cell_length_b                   11.4873(11)
_cell_length_c                   12.1715(11)
_cell_angle_alpha                66.232(2)
_cell_angle_beta                 83.013(2)
_cell_angle_gamma                83.378(2)
_cell_volume                     1292.76
_exptl_crystal_colour            colorless
_exptl_crystal_description       block
_cell_formula_units_Z            2
loop_
_atom_site_label
_atom_site_type_symbol
_atom_site_fract_x
_atom_site_fract_y
_atom_site_fract_z
N1 N 0.52641(13) 0.72301(13) 0.10994(12)
C1 C 0.39577(16) 0.71685(14) 0.16725(15)
C2 C 0.29222(19) 0.71140(17) 0.10458(17)
C3 C 0.1659(2) 0.70075(19) 0.1620(2)
H1 H 0.0939 0.6986 0.1203
C4 C 0.1424(2) 0.69324(19) 0.2779(2)
H2 H 0.0548 0.6872 0.3154
C5 C 0.2458(2) 0.69452(18) 0.33945(19)
H3 H 0.2290 0.6880 0.4201
C6 C 0.37423(17) 0.70511(15) 0.28636(16)
C7 C 0.3191(3) 0.7149(3) -0.0215(2)
H4 H 0.3317 0.8027 -0.0786
H5 H 0.2438 0.6839 -0.0419
H6 H 0.3992 0.6604 -0.0257
C8 C 0.4866(2) 0.7014(2) 0.35653(17)
H7 H 0.4538 0.6832 0.4405
H8 H 0.5255 0.7841 0.3214
H9 H 0.5541 0.6345 0.3536
C9 C 0.58207(16) 0.82811(15) 0.06185(13)
C10 C 0.71702(16) 0.82701(16) -0.00152(13)
C11 C 0.7615(2) 0.72671(19) -0.03470(16)
H10 H 0.7076 0.6578 -0.0149
C12 C 0.8855(2) 0.7263(3) -0.09721(19)
H11 H 0.9159 0.6572 -0.1199
C13 C 0.9637(2) 0.8260(3) -0.12599(19)
H12 H 1.0477 0.8260 -0.1692
C14 C 0.9211(2) 0.9250(3) -0.09278(19)
H13 H 0.9758 0.9932 -0.1119
C15 C 0.79835(18) 0.9260(2) -0.03129(17)
H14 H 0.7690 0.9956 -0.0090
C16 C 0.51806(17) 0.95287(15) 0.06111(14)
H15 H 0.5792 0.9915 0.0918
H16 H 0.4369 0.9362 0.1170
N1A N 0.47359(13) 1.27699(13) -0.10994(12)
C1A C 0.60423(16) 1.28315(14) -0.16725(15)
C2A C 0.70778(19) 1.28860(17) -0.10458(17)
C3A C 0.8341(2) 1.29925(19) -0.1620(2)
H1A H 0.9061 1.3014 -0.1203
C4A C 0.8576(2) 1.30676(19) -0.2779(2)
H2A H 0.9452 1.3128 -0.3154
C5A C 0.7542(2) 1.30548(18) -0.33945(19)
H3A H 0.7710 1.3120 -0.4201
C6A C 0.62577(17) 1.29489(15) -0.28636(16)
C7A C 0.6809(3) 1.2851(3) 0.0215(2)
H4A H 0.6683 1.1973 0.0786
H5A H 0.7562 1.3161 0.0419
H6A H 0.6008 1.3396 0.0257
C8A C 0.5134(2) 1.2986(2) -0.35653(17)
H7A H 0.5462 1.3168 -0.4405
H8A H 0.4745 1.2159 -0.3214
H9A H 0.4459 1.3655 -0.3536
C9A C 0.41793(16) 1.17189(15) -0.06185(13)
C10A C 0.28298(16) 1.17299(16) 0.00152(13)
C11A C 0.2385(2) 1.27329(19) 0.03470(16)
H10A H 0.2924 1.3422 0.0149
C12A C 0.1145(2) 1.2737(3) 0.09721(19)
H11A H 0.0841 1.3428 0.1199
C13A C 0.0363(2) 1.1740(3) 0.12599(19)
H12A H -0.0477 1.1740 0.1692
C14A C 0.0789(2) 1.0750(3) 0.09278(19)
H13A H 0.0242 1.0068 0.1119
C15A C 0.20165(18) 1.0740(2) 0.03129(17)
H14A H 0.2310 1.0044 0.0090
C16A C 0.48194(17) 1.04713(15) -0.06111(14)
H15A H 0.4208 1.0085 -0.0918
H16A H 0.5631 1.0638 -0.1170
N2 N 0.73433(12) 0.03061(12) 0.43750(12)
C17 C 0.72315(15) -0.10198(14) 0.50309(14)
C18 C 0.66321(16) -0.14680(16) 0.62114(15)
C19 C 0.65053(18) -0.27679(18) 0.68105(17)
H17 H 0.6111 -0.3088 0.7614
C20 C 0.69353(19) -0.36049(18) 0.6272(2)
H18 H 0.6867 -0.4495 0.6710
C21 C 0.74670(18) -0.31435(17) 0.50937(19)
H19 H 0.7745 -0.3721 0.4716
C22 C 0.76040(16) -0.18447(16) 0.44450(16)
C23 C 0.6106(2) -0.05596(19) 0.67924(18)
H20 H 0.6847 -0.0206 0.6967
H21 H 0.5578 -0.1013 0.7544
H22 H 0.5551 0.0135 0.6245
C24 C 0.8106(2) -0.1324(2) 0.31329(17)
H23 H 0.7534 -0.0577 0.2684
H24 H 0.8100 -0.1980 0.2812
H25 H 0.9012 -0.1075 0.3050
C25 C 0.82833(14) 0.08672(14) 0.45171(13)
C26 C 0.82786(15) 0.22757(14) 0.38387(13)
C27 C 0.71530(18) 0.29544(16) 0.32928(15)
H26 H 0.6404 0.2514 0.3335
C28 C 0.7114(2) 0.42613(18) 0.26912(18)
H27 H 0.6338 0.4714 0.2322
C29 C 0.8186(2) 0.49129(18) 0.26205(18)
H28 H 0.8151 0.5814 0.2206
C30 C 0.9308(2) 0.42612(17) 0.31486(17)
H29 H 1.0054 0.4710 0.3095
C31 C 0.93527(17) 0.29513(15) 0.37589(15)
H30 H 1.0131 0.2507 0.4129
C32 C 0.93828(14) 0.01939(14) 0.53348(13)
H31 H 0.9053 -0.0578 0.6000
H32 H 0.9631 0.0765 0.5693
N2A N 1.26567(12) -0.03061(12) 0.56250(12)
C17A C 1.27685(15) 0.10198(14) 0.49691(14)
C18A C 1.33679(16) 0.14680(16) 0.37886(15)
C19A C 1.34947(18) 0.27679(18) 0.31895(17)
H17A H 1.3889 0.3088 0.2386
C20A C 1.30647(19) 0.36049(18) 0.3728(2)
H18A H 1.3133 0.4495 0.3290
C21A C 1.25330(18) 0.31435(17) 0.49063(19)
H19A H 1.2255 0.3721 0.5284
C22A C 1.23960(16) 0.18447(16) 0.55550(16)
C23A C 1.3894(2) 0.05596(19) 0.32076(18)
H20A H 1.3153 0.0206 0.3033
H21A H 1.4422 0.1013 0.2456
H22A H 1.4449 -0.0135 0.3755
C24A C 1.1894(2) 0.1324(2) 0.68671(17)
H23A H 1.2466 0.0577 0.7316
H24A H 1.1900 0.1980 0.7188
H25A H 1.0988 0.1075 0.6950
C25A C 1.17167(14) -0.08672(14) 0.54829(13)
C26A C 1.17214(15) -0.22757(14) 0.61613(13)
C27A C 1.28470(18) -0.29544(16) 0.67072(15)
H26A H 1.3596 -0.2514 0.6665
C28A C 1.2886(2) -0.42613(18) 0.73088(18)
H27A H 1.3662 -0.4714 0.7678
C29A C 1.1814(2) -0.49129(18) 0.73795(18)
H28A H 1.1849 -0.5814 0.7794
C30A C 1.0692(2) -0.42612(17) 0.68514(17)
H29A H 0.9946 -0.4710 0.6905
C31A C 1.06473(17) -0.29513(15) 0.62411(15)
H30A H 0.9869 -0.2507 0.5871
C32A C 1.06172(14) -0.01939(14) 0.46652(13)
H31A H 1.0947 0.0578 0.4000
H32A H 1.0369 -0.0765 0.4307
loop_
_geom_bond_atom_site_label_1
_geom_bond_atom_site_label_2
_geom_bond_site_symmetry_1
_geom_bond_site_symmetry_2
N1 C1 1_555 1_555
C1 C2 1_555 1_555
C2 C3 1_555 1_555
C3 H1 1_555 1_555
C4 C3 1_555 1_555
H2 C4 1_555 1_555
C5 C4 1_555 1_555
H3 C5 1_555 1_555
C6 C1 1_555 1_555
C7 C2 1_555 1_555
H4 C7 1_555 1_555
H5 C7 1_555 1_555
H6 C7 1_555 1_555
C8 C6 1_555 1_555
H7 C8 1_555 1_555
H8 C8 1_555 1_555
H9 C8 1_555 1_555
C9 N1 1_555 1_555
C10 C9 1_555 1_555
C11 C10 1_555 1_555
H10 C11 1_555 1_555
C12 C11 1_555 1_555
H11 C12 1_555 1_555
C13 C12 1_555 1_555
H12 C13 1_555 1_555
C14 C13 1_555 1_555
H13 C14 1_555 1_555
C15 C10 1_555 1_555
H14 C15 1_555 1_555
C16 C9 1_555 1_555
H15 C16 1_555 1_555
H16 C16 1_555 1_555
N2 C17 1_555 1_555
C17 C18 1_555 1_555
C18 C19 1_555 1_555
C19 H17 1_555 1_555
C20 C19 1_555 1_555
H18 C20 1_555 1_555
C21 C20 1_555 1_555
H19 C21 1_555 1_555
C22 C17 1_555 1_555
C23 C18 1_555 1_555
H20 C23 1_555 1_555
H21 C23 1_555 1_555
H22 C23 1_555 1_555
C24 C22 1_555 1_555
H23 C24 1_555 1_555
H24 C24 1_555 1_555
H25 C24 1_555 1_555
C25 N2 1_555 1_555
C26 C25 1_555 1_555
C27 C26 1_555 1_555
H26 C27 1_555 1_555
C28 C27 1_555 1_555
H27 C28 1_555 1_555
C29 C28 1_555 1_555
H28 C29 1_555 1_555
C30 C29 1_555 1_555
H29 C30 1_555 1_555
C31 C26 1_555 1_555
H30 C31 1_555 1_555
C32 C25 1_555 1_555
H31 C32 1_555 1_555
H32 C32 1_555 1_555
N1A C1A 1_555 1_555
C1A C2A 1_555 1_555
C2A C3A 1_555 1_555
C3A H1A 1_555 1_555
C4A C3A 1_555 1_555
H2A C4A 1_555 1_555
C5A C4A 1_555 1_555
H3A C5A 1_555 1_555
C6A C1A 1_555 1_555
C7A C2A 1_555 1_555
H4A C7A 1_555 1_555
H5A C7A 1_555 1_555
H6A C7A 1_555 1_555
C8A C6A 1_555 1_555
H7A C8A 1_555 1_555
H8A C8A 1_555 1_555
H9A C8A 1_555 1_555
C9A N1A 1_555 1_555
C10A C9A 1_555 1_555
C11A C10A 1_555 1_555
H10A C11A 1_555 1_555
C12A C11A 1_555 1_555
H11A C12A 1_555 1_555
C13A C12A 1_555 1_555
H12A C13A 1_555 1_555
C14A C13A 1_555 1_555
H13A C14A 1_555 1_555
C15A C10A 1_555 1_555
H14A C15A 1_555 1_555
C16A C16 1_555 1_555
H15A C16A 1_555 1_555
H16A C16A 1_555 1_555
N2A C17A 1_555 1_555
C17A C18A 1_555 1_555
C18A C19A 1_555 1_555
C19A H17A 1_555 1_555
C20A C19A 1_555 1_555
H18A C20A 1_555 1_555
C21A C20A 1_555 1_555
H19A C21A 1_555 1_555
C22A C17A 1_555 1_555
C23A C18A 1_555 1_555
H20A C23A 1_555 1_555
H21A C23A 1_555 1_555
H22A C23A 1_555 1_555
C24A C22A 1_555 1_555
H23A C24A 1_555 1_555
H24A C24A 1_555 1_555
H25A C24A 1_555 1_555
C25A N2A 1_555 1_555
C26A C25A 1_555 1_555
C27A C26A 1_555 1_555
H26A C27A 1_555 1_555
C28A C27A 1_555 1_555
H27A C28A 1_555 1_555
C29A C28A 1_555 1_555
H28A C29A 1_555 1_555
C30A C29A 1_555 1_555
H29A C30A 1_555 1_555
C31A C26A 1_555 1_555
H30A C31A 1_555 1_555
C32A C32 1_555 1_555
H31A C32A 1_555 1_555
H32A C32A 1_555 1_555
C5 C6 1_555 1_555
C14 C15 1_555 1_555
C21 C22 1_555 1_555
C30 C31 1_555 1_555
C5A C6A 1_555 1_555
C9A C16A 1_555 1_555
C14A C15A 1_555 1_555
C21A C22A 1_555 1_555
C25A C32A 1_555 1_555
C30A C31A 1_555 1_555

#END
