
#######################################################################
#
#                 Cambridge Crystallographic Data Centre
#                                CCDC 
#
#######################################################################
#
# If this CIF has been generated from an entry in the Cambridge 
# Structural Database, then it will include bibliographic, chemical, 
# crystal, experimental, refinement or atomic coordinate data resulting 
# from the CCDC's data processing and validation procedures.
#
#######################################################################

data_YEWKIX
_chemical_formula_moiety         'C50 H62 B2 F4 N4 O16 2-,2(H5 N2 1+)'
_chemical_name_systematic        
"bis(hydrazinium) 3,3',7,7'-tetrakis(ethoxycarbonyl)-5,5,5',5'-tetrafluoro-1,1',9,9'-tetrakis(3-methoxy-3-oxopropyl)-2,2',8,8'-tetramethyl-5H,5'H,10H,10'H-[10,10'-bidipyrrolo[1,2-c:2',1'-f][1,3,2]diazaborinine]-5,5'-diide"
_symmetry_cell_setting           monoclinic
_symmetry_space_group_name_H-M   'C c'
_symmetry_Int_Tables_number      9
_space_group_name_Hall           'C -2yc'
loop_
_symmetry_equiv_pos_site_id
_symmetry_equiv_pos_as_xyz
1 x,y,z
2 x,-y,1/2+z
3 1/2+x,1/2+y,z
4 1/2+x,1/2-y,1/2+z
_cell_length_a                   15.491(3)
_cell_length_b                   19.198(4)
_cell_length_c                   19.066(4)
_cell_angle_alpha                90
_cell_angle_beta                 90.81(3)
_cell_angle_gamma                90
_cell_volume                     5669.59
_exptl_crystal_colour            colorless
_exptl_crystal_description       rod
_cell_formula_units_Z            4
_chemical_properties_physical    ', Heat-sensitive'
loop_
_atom_site_label
_atom_site_type_symbol
_atom_site_fract_x
_atom_site_fract_y
_atom_site_fract_z
F1 F 0.8674(3) 0.3024(2) 0.3779(2)
F2 F 0.9038(3) 0.4144(3) 0.3521(3)
F3 F 0.6079(3) 0.2095(3) 0.1008(2)
F4 F 0.5725(3) 0.0963(3) 0.1282(3)
O1 O 1.0677(4) 0.3590(3) 0.3231(3)
O2 O 1.0940(4) 0.4178(3) 0.2243(3)
O3 O 0.7810(5) 0.4449(4) 0.4567(3)
O4 O 0.7190(5) 0.5366(3) 0.4059(3)
O5 O 0.4393(5) 0.3266(3) 0.1070(4)
O6 O 0.3452(5) 0.3205(4) 0.1956(4)
O7 O 0.7717(4) 0.2233(4) -0.0490(3)
O8 O 0.8733(5) 0.1402(4) -0.0495(3)
O9 O 1.0573(4) 0.1848(4) 0.3504(3)
O10 O 1.1398(4) 0.1943(3) 0.2545(3)
O11 O 0.7138(5) 0.2990(4) 0.5249(4)
O12 O 0.6068(5) 0.3778(4) 0.5246(3)
O13 O 0.4141(4) 0.1550(3) 0.1592(3)
O14 O 0.3891(4) 0.0934(3) 0.2567(3)
O15 O 0.6811(4) 0.0792(3) 0.0169(3)
O16 O 0.7585(5) -0.0140(4) 0.0521(3)
N1 N 0.8941(4) 0.3324(3) 0.2569(3)
N2 N 0.7629(4) 0.3763(3) 0.3180(3)
N3 N 0.7160(4) 0.1364(3) 0.1564(3)
N4 N 0.5873(4) 0.1783(3) 0.2241(3)
C1 C 1.1561(9) 0.5066(6) 0.2975(7)
H1 H 1.1174 0.5381 0.2716
H2 H 1.2102 0.5309 0.3089
H3 H 1.1285 0.4918 0.3409
C2 C 1.1744(7) 0.4457(5) 0.2544(6)
H4 H 1.2032 0.4096 0.2834
H5 H 1.2139 0.4589 0.2162
C3 C 1.0473(6) 0.3758(4) 0.2639(5)
C4 C 0.9713(5) 0.3516(4) 0.2254(4)
C5 C 0.9643(6) 0.3386(4) 0.1530(5)
C6 C 1.0317(7) 0.3502(6) 0.0983(6)
H6 H 1.0674 0.3083 0.0941
H7 H 1.0683 0.3897 0.1121
H8 H 1.0035 0.3602 0.0531
C7 C 0.8820(5) 0.3106(4) 0.1399(4)
C8 C 0.8403(5) 0.3071(4) 0.2034(4)
C9 C 0.7478(5) 0.2907(4) 0.2199(4)
H9 H 0.7143 0.2896 0.1747
C10 C 0.7138(5) 0.3500(4) 0.2634(4)
C11 C 0.6390(5) 0.3888(4) 0.2514(4)
C12 C 0.6429(5) 0.4425(4) 0.3041(4)
C13 C 0.5738(6) 0.4966(5) 0.3122(5)
H10 H 0.5710 0.5257 0.2700
H11 H 0.5873 0.5258 0.3530
H12 H 0.5180 0.4736 0.3188
C14 C 0.7204(5) 0.4342(4) 0.3434(4)
C15 C 0.7445(6) 0.4702(5) 0.4071(5)
C16 C 0.7280(8) 0.5785(6) 0.4694(6)
H13 H 0.7566 0.6232 0.4583
H14 H 0.7642 0.5535 0.5045
C17 C 0.6406(10) 0.5920(8) 0.4986(7)
H15 H 0.6026 0.6105 0.4616
H16 H 0.6454 0.6259 0.5369
H17 H 0.6165 0.5484 0.5165
C18 C 0.8452(5) 0.2891(4) 0.0701(4)
H18 H 0.8619 0.3239 0.0345
H19 H 0.7814 0.2892 0.0727
C19 C 0.8753(6) 0.2169(4) 0.0465(4)
H20 H 0.9387 0.2175 0.0407
H21 H 0.8617 0.1823 0.0832
C20 C 0.8328(6) 0.1952(5) -0.0215(4)
C21 C 0.8352(8) 0.1142(6) -0.1145(6)
H22 H 0.8414 0.1492 -0.1514
H23 H 0.7738 0.1045 -0.1075
H24 H 0.8647 0.0713 -0.1283
C22 C 0.5723(5) 0.3767(4) 0.1970(4)
H25 H 0.5958 0.3451 0.1610
H26 H 0.5582 0.4215 0.1739
C23 C 0.4886(5) 0.3448(4) 0.2257(4)
H27 H 0.5026 0.3009 0.2506
H28 H 0.4632 0.3773 0.2600
C24 C 0.4233(6) 0.3300(5) 0.1687(5)
C25 C 0.2778(9) 0.3036(7) 0.1418(8)
H29 H 0.3016 0.2712 0.1073
H30 H 0.2592 0.3464 0.1181
H31 H 0.2282 0.2819 0.1646
C26 C 1.2126(6) 0.2108(6) 0.2999(5)
H32 H 1.2635 0.2201 0.2714
H33 H 1.2245 0.1714 0.3312
H34 H 1.1992 0.2521 0.3279
C27 C 1.0641(6) 0.1834(4) 0.2865(4)
C28 C 0.9921(5) 0.1661(4) 0.2353(4)
H35 H 0.9731 0.2096 0.2119
H36 H 1.0149 0.1347 0.1988
C29 C 0.9151(5) 0.1321(4) 0.2682(4)
H37 H 0.8943 0.1618 0.3069
H38 H 0.9328 0.0867 0.2885
C30 C 0.8411(5) 0.1203(4) 0.2153(4)
C31 C 0.8366(5) 0.0695(4) 0.1629(4)
C32 C 0.9046(6) 0.0173(5) 0.1456(5)
H39 H 0.8787 -0.0292 0.1431
H40 H 0.9497 0.0178 0.1822
H41 H 0.9300 0.0290 0.1003
C33 C 0.7606(5) 0.0809(4) 0.1273(4)
C34 C 0.7284(6) 0.0502(4) 0.0602(5)
C35 C 0.7382(8) -0.0491(6) -0.0140(6)
H42 H 0.7184 -0.0146 -0.0493
H43 H 0.6912 -0.0833 -0.0071
C36 C 0.8155(9) -0.0846(7) -0.0386(7)
H44 H 0.8067 -0.0988 -0.0876
H45 H 0.8265 -0.1259 -0.0097
H46 H 0.8650 -0.0529 -0.0352
C37 C 0.7671(5) 0.1591(3) 0.2117(4)
C38 C 0.7359(5) 0.2181(4) 0.2572(4)
H47 H 0.7705 0.2181 0.3019
C39 C 0.6421(5) 0.2041(4) 0.2745(4)
C40 C 0.6033(5) 0.2026(4) 0.3389(4)
C41 C 0.6415(5) 0.2278(4) 0.4086(4)
H48 H 0.6278 0.1935 0.4455
H49 H 0.7051 0.2300 0.4048
C42 C 0.6084(6) 0.2983(4) 0.4304(4)
H50 H 0.6212 0.3325 0.3931
H51 H 0.5449 0.2959 0.4350
C43 C 0.6473(7) 0.3234(5) 0.4985(5)
C44 C 0.6448(8) 0.4075(6) 0.5884(5)
H52 H 0.6986 0.4316 0.5770
H53 H 0.6572 0.3701 0.6221
H54 H 0.6043 0.4407 0.6089
C45 C 0.5200(5) 0.1748(4) 0.3279(4)
C46 C 0.4545(6) 0.1638(5) 0.3853(5)
H55 H 0.3970 0.1771 0.3679
H56 H 0.4701 0.1926 0.4260
H57 H 0.4542 0.1146 0.3990
C47 C 0.5120(5) 0.1605(4) 0.2583(4)
C48 C 0.4362(5) 0.1371(4) 0.2181(4)
C49 C 0.3107(6) 0.0643(5) 0.2242(5)
H58 H 0.2827 0.1001 0.1942
H59 H 0.2697 0.0511 0.2612
C50 C 0.3315(7) 0.0018(5) 0.1809(6)
H60 H 0.3717 0.0150 0.1440
H61 H 0.2783 -0.0166 0.1596
H62 H 0.3581 -0.0340 0.2109
B1 B 0.8600(6) 0.3563(5) 0.3290(5)
B2 B 0.6195(6) 0.1547(4) 0.1500(5)
N5 N 0.0147(6) 0.2584(5) 0.4800(5)
H63 H 0.0087 0.2128 0.4806
H64 H -0.0405 0.2680 0.4848
N6 N 0.0884(5) 0.2964(5) 0.4557(4)
H65 H 0.0821 0.3159 0.4142
H66 H 0.1157 0.3327 0.4736
N7 N 0.9078(11) 0.3673(9) 0.5183(8)
H67 H 0.8672 0.3925 0.4979
H68 H 0.9104 0.3590 0.5636
N8 N 0.9638(11) 0.4271(10) 0.5099(8)
H69 H 1.0052 0.4255 0.4789
H70 H 0.9544 0.4721 0.5060
loop_
_geom_bond_atom_site_label_1
_geom_bond_atom_site_label_2
_geom_bond_site_symmetry_1
_geom_bond_site_symmetry_2
F1 B1 1_555 1_555
F2 B1 1_555 1_555
F3 B2 1_555 1_555
F4 B2 1_555 1_555
O1 C3 1_555 1_555
O2 C2 1_555 1_555
O3 C15 1_555 1_555
O4 C15 1_555 1_555
O5 C24 1_555 1_555
O6 C24 1_555 1_555
O7 C20 1_555 1_555
O8 C20 1_555 1_555
O9 C27 1_555 1_555
O10 C26 1_555 1_555
O11 C43 1_555 1_555
O12 C43 1_555 1_555
O13 C48 1_555 1_555
O14 C48 1_555 1_555
O15 C34 1_555 1_555
O16 C34 1_555 1_555
N1 C4 1_555 1_555
N2 C10 1_555 1_555
N3 C33 1_555 1_555
N4 C39 1_555 1_555
C1 H1 1_555 1_555
H2 C1 1_555 1_555
H3 C1 1_555 1_555
C2 C1 1_555 1_555
H4 C2 1_555 1_555
H5 C2 1_555 1_555
C3 O2 1_555 1_555
C4 C3 1_555 1_555
C5 C4 1_555 1_555
C6 C5 1_555 1_555
H6 C6 1_555 1_555
H7 C6 1_555 1_555
H8 C6 1_555 1_555
C7 C5 1_555 1_555
C8 N1 1_555 1_555
C9 C8 1_555 1_555
H9 C9 1_555 1_555
C10 C9 1_555 1_555
C11 C10 1_555 1_555
C12 C11 1_555 1_555
C13 C12 1_555 1_555
H10 C13 1_555 1_555
H11 C13 1_555 1_555
H12 C13 1_555 1_555
C14 N2 1_555 1_555
C15 C14 1_555 1_555
C16 O4 1_555 1_555
H13 C16 1_555 1_555
H14 C16 1_555 1_555
C17 C16 1_555 1_555
H15 C17 1_555 1_555
H16 C17 1_555 1_555
H17 C17 1_555 1_555
C18 C7 1_555 1_555
H18 C18 1_555 1_555
H19 C18 1_555 1_555
C19 C18 1_555 1_555
H20 C19 1_555 1_555
H21 C19 1_555 1_555
C20 C19 1_555 1_555
C21 O8 1_555 1_555
H22 C21 1_555 1_555
H23 C21 1_555 1_555
H24 C21 1_555 1_555
C22 C11 1_555 1_555
H25 C22 1_555 1_555
H26 C22 1_555 1_555
C23 C22 1_555 1_555
H27 C23 1_555 1_555
H28 C23 1_555 1_555
C24 C23 1_555 1_555
C25 O6 1_555 1_555
H29 C25 1_555 1_555
H30 C25 1_555 1_555
H31 C25 1_555 1_555
C26 H32 1_555 1_555
H33 C26 1_555 1_555
H34 C26 1_555 1_555
C27 O10 1_555 1_555
C28 C27 1_555 1_555
H35 C28 1_555 1_555
H36 C28 1_555 1_555
C29 C28 1_555 1_555
H37 C29 1_555 1_555
H38 C29 1_555 1_555
C30 C29 1_555 1_555
C31 C30 1_555 1_555
C32 C31 1_555 1_555
H39 C32 1_555 1_555
H40 C32 1_555 1_555
H41 C32 1_555 1_555
C33 C31 1_555 1_555
C34 C33 1_555 1_555
C35 O16 1_555 1_555
H42 C35 1_555 1_555
H43 C35 1_555 1_555
C36 C35 1_555 1_555
H44 C36 1_555 1_555
H45 C36 1_555 1_555
H46 C36 1_555 1_555
C37 N3 1_555 1_555
C38 C9 1_555 1_555
H47 C38 1_555 1_555
C39 C38 1_555 1_555
C40 C39 1_555 1_555
C41 C40 1_555 1_555
H48 C41 1_555 1_555
H49 C41 1_555 1_555
C42 C41 1_555 1_555
H50 C42 1_555 1_555
H51 C42 1_555 1_555
C43 C42 1_555 1_555
C44 O12 1_555 1_555
H52 C44 1_555 1_555
H53 C44 1_555 1_555
H54 C44 1_555 1_555
C45 C40 1_555 1_555
C46 C45 1_555 1_555
H55 C46 1_555 1_555
H56 C46 1_555 1_555
H57 C46 1_555 1_555
C47 N4 1_555 1_555
C48 C47 1_555 1_555
C49 O14 1_555 1_555
H58 C49 1_555 1_555
H59 C49 1_555 1_555
C50 C49 1_555 1_555
H60 C50 1_555 1_555
H61 C50 1_555 1_555
H62 C50 1_555 1_555
B1 N1 1_555 1_555
B2 N3 1_555 1_555
N5 H63 1_555 1_555
H64 N5 1_555 1_555
N6 N5 1_555 1_555
H65 N6 1_555 1_555
H66 N6 1_555 1_555
N7 H67 1_555 1_555
H68 N7 1_555 1_555
N8 N7 1_555 1_555
H69 N8 1_555 1_555
H70 N8 1_555 1_555
N2 B1 1_555 1_555
N4 B2 1_555 1_555
C7 C8 1_555 1_555
C12 C14 1_555 1_555
C30 C37 1_555 1_555
C37 C38 1_555 1_555
C45 C47 1_555 1_555

#END
