
#######################################################################
#
#                 Cambridge Crystallographic Data Centre
#                                CCDC 
#
#######################################################################
#
# If this CIF has been generated from an entry in the Cambridge 
# Structural Database, then it will include bibliographic, chemical, 
# crystal, experimental, refinement or atomic coordinate data resulting 
# from the CCDC's data processing and validation procedures.
#
#######################################################################

data_YEXHOB
_chemical_formula_moiety         'C23 H18 N2 O3'
_chemical_name_systematic        
'ethyl 2-(benzenecarbonyl)-1-(2,2-dicyano-1-phenylethenyl)cyclopropane-1-carboxylate'
_symmetry_cell_setting           orthorhombic
_symmetry_space_group_name_H-M   'P 21 21 21'
_symmetry_Int_Tables_number      19
_space_group_name_Hall           'P 2ac 2ab'
loop_
_symmetry_equiv_pos_site_id
_symmetry_equiv_pos_as_xyz
1 x,y,z
2 1/2-x,-y,1/2+z
3 -x,1/2+y,1/2-z
4 1/2+x,1/2-y,-z
_cell_length_a                   9.89529(19)
_cell_length_b                   10.4097(2)
_cell_length_c                   18.3297(3)
_cell_angle_alpha                90
_cell_angle_beta                 90
_cell_angle_gamma                90
_cell_volume                     1888.09
_exptl_crystal_colour            colorless
_exptl_crystal_description       block
_cell_formula_units_Z            4
loop_
_atom_site_label
_atom_site_type_symbol
_atom_site_fract_x
_atom_site_fract_y
_atom_site_fract_z
O1 O 0.75910(17) 0.28331(17) 0.68982(9)
O2 O 0.87138(17) 0.35906(17) 0.59239(10)
O3 O 0.39279(17) 0.43019(17) 0.50069(10)
N1 N 0.5647(3) 0.6199(2) 0.66577(14)
N2 N 0.2388(2) 0.3871(2) 0.74707(14)
C1 C 0.7682(2) 0.3261(2) 0.62164(13)
C2 C 0.4604(2) 0.1633(2) 0.63097(11)
C3 C 0.6330(2) 0.3248(2) 0.58361(12)
C4 C 0.6387(2) 0.2762(2) 0.50607(13)
H1 H 0.7258 0.2413 0.4884
H2 H 0.5576 0.2322 0.4867
C5 C 0.3354(2) 0.3869(2) 0.71262(13)
C6 C 0.4543(2) 0.3948(2) 0.66807(12)
C7 C 0.5095(2) 0.2971(2) 0.62903(12)
C8 C 0.5012(2) 0.4847(2) 0.49661(12)
C9 C 0.4083(2) 0.6610(2) 0.42085(13)
H3 H 0.3347 0.6058 0.4096
C10 C 0.2855(2) 0.0042(2) 0.64875(14)
H4 H 0.1933 -0.0161 0.6574
C11 C 0.3256(2) 0.1315(2) 0.64375(13)
H5 H 0.2604 0.1978 0.6491
C12 C 0.5536(3) 0.0628(2) 0.62133(14)
H6 H 0.6453 0.0821 0.6106
C13 C 0.6297(2) 0.4192(2) 0.51846(12)
H7 H 0.7147 0.4688 0.5096
C14 C 0.4124(3) 0.7845(3) 0.39225(14)
H8 H 0.3415 0.8137 0.3615
C15 C 0.6203(3) 0.6985(2) 0.48136(13)
H9 H 0.6922 0.6690 0.5113
C16 C 0.3797(3) -0.0936(2) 0.64112(14)
H10 H 0.3524 -0.1808 0.6454
C17 C 0.5197(3) 0.8652(2) 0.40856(14)
H11 H 0.5220 0.9499 0.3893
C18 C 0.5130(3) -0.0637(2) 0.62734(14)
H12 H 0.5775 -0.1306 0.6219
C19 C 0.5120(2) 0.6180(2) 0.46599(12)
C20 C 0.8873(3) 0.2725(3) 0.72915(14)
H13 H 0.8693 0.2663 0.7822
H14 H 0.9421 0.3506 0.7205
C21 C 0.5158(3) 0.5207(2) 0.66668(13)
C22 C 0.9653(3) 0.1560(2) 0.70459(14)
H15 H 0.9908 0.1660 0.6532
H16 H 0.9089 0.0793 0.7102
H17 H 1.0470 0.1470 0.7344
C23 C 0.6235(3) 0.8224(2) 0.45293(14)
H18 H 0.6971 0.8777 0.4640
loop_
_geom_bond_atom_site_label_1
_geom_bond_atom_site_label_2
_geom_bond_site_symmetry_1
_geom_bond_site_symmetry_2
O1 C1 1_555 1_555
O2 C1 1_555 1_555
O3 C8 1_555 1_555
N1 C21 1_555 1_555
N2 C5 1_555 1_555
C1 C3 1_555 1_555
C2 C7 1_555 1_555
C3 C4 1_555 1_555
C4 H1 1_555 1_555
H2 C4 1_555 1_555
C5 C6 1_555 1_555
C6 C7 1_555 1_555
C7 C3 1_555 1_555
C8 C13 1_555 1_555
C9 H3 1_555 1_555
C10 H4 1_555 1_555
C11 C2 1_555 1_555
H5 C11 1_555 1_555
C12 C2 1_555 1_555
H6 C12 1_555 1_555
C13 C3 1_555 1_555
H7 C13 1_555 1_555
C14 C9 1_555 1_555
H8 C14 1_555 1_555
C15 H9 1_555 1_555
C16 C10 1_555 1_555
H10 C16 1_555 1_555
C17 C14 1_555 1_555
H11 C17 1_555 1_555
C18 C12 1_555 1_555
H12 C18 1_555 1_555
C19 C8 1_555 1_555
C20 O1 1_555 1_555
H13 C20 1_555 1_555
H14 C20 1_555 1_555
C21 C6 1_555 1_555
C22 C20 1_555 1_555
H15 C22 1_555 1_555
H16 C22 1_555 1_555
H17 C22 1_555 1_555
C23 C15 1_555 1_555
H18 C23 1_555 1_555
C4 C13 1_555 1_555
C9 C19 1_555 1_555
C10 C11 1_555 1_555
C15 C19 1_555 1_555
C16 C18 1_555 1_555
C17 C23 1_555 1_555

#END
