
#######################################################################
#
#                 Cambridge Crystallographic Data Centre
#                                CCDC 
#
#######################################################################
#
# If this CIF has been generated from an entry in the Cambridge 
# Structural Database, then it will include bibliographic, chemical, 
# crystal, experimental, refinement or atomic coordinate data resulting 
# from the CCDC's data processing and validation procedures.
#
#######################################################################

data_YEXRID
_chemical_formula_moiety         'C29 H25 Cl1 N2 O4 S2'
_chemical_name_systematic        
N-(3'-(3-Chlorophenyl)prop-2'-ynyl)-N,N'-1,2-phenylenedi-(p-tosylamide)
_symmetry_cell_setting           triclinic
_symmetry_space_group_name_H-M   'P -1'
_symmetry_Int_Tables_number      2
_space_group_name_Hall           '-P 1'
loop_
_symmetry_equiv_pos_site_id
_symmetry_equiv_pos_as_xyz
1 x,y,z
2 -x,-y,-z
_cell_length_a                   8.8039(8)
_cell_length_b                   11.8783(11)
_cell_length_c                   13.1957(12)
_cell_angle_alpha                87.6330(10)
_cell_angle_beta                 77.257(2)
_cell_angle_gamma                81.915(2)
_cell_volume                     1332.5
_exptl_crystal_colour            colorless
_exptl_crystal_description       block
_chemical_melting_point          '426-428 K'
_cell_formula_units_Z            2
_exptl_crystal_recrystallization_method 'ethyl acetate/petroleum ether'
loop_
_atom_site_label
_atom_site_type_symbol
_atom_site_fract_x
_atom_site_fract_y
_atom_site_fract_z
S1 S 0.58894(5) 0.64334(4) 0.53179(3)
S2 S 0.18632(5) 0.71422(4) 0.29334(3)
Cl1 Cl 0.74375(10) 0.93567(5) -0.08605(5)
N1 N 0.62186(16) 0.64077(12) 0.40378(11)
N2 N 0.34875(17) 0.70052(12) 0.33460(11)
H1 H 0.3690 0.6406 0.3707
O1 O 0.43775(15) 0.70781(12) 0.56663(10)
O2 O 0.61897(16) 0.52679(11) 0.56402(10)
O3 O 0.11896(14) 0.61236(11) 0.32731(10)
O4 O 0.09581(15) 0.82228(11) 0.32372(10)
C1 C 1.0989(3) 0.89667(17) 0.61029(19)
H2 H 1.1919 0.8771 0.5573
H3 H 1.1210 0.8759 0.6772
H4 H 1.0657 0.9771 0.6079
C2 C 0.9706(2) 0.83395(15) 0.59241(14)
C3 C 0.8198(2) 0.89058(15) 0.59495(14)
H5 H 0.7991 0.9684 0.6071
C4 C 0.7009(2) 0.83328(15) 0.57978(14)
H6 H 0.6012 0.8721 0.5806
C5 C 0.7322(2) 0.71643(15) 0.56322(13)
C6 C 0.8809(2) 0.65753(14) 0.56257(13)
H7 H 0.9005 0.5793 0.5530
C7 C 0.9988(2) 0.71696(15) 0.57629(14)
H8 H 1.0987 0.6782 0.5747
C8 C 0.5989(2) 0.74908(14) 0.35132(13)
C9 C 0.7155(2) 0.81969(15) 0.33008(14)
H9 H 0.8085 0.7993 0.3528
C10 C 0.6935(2) 0.92079(15) 0.27483(14)
H10 H 0.7716 0.9679 0.2600
C11 C 0.5539(2) 0.95058(15) 0.24218(14)
H11 H 0.5381 1.0188 0.2063
C12 C 0.4375(2) 0.88043(15) 0.26208(14)
H12 H 0.3447 0.9014 0.2392
C13 C 0.4594(2) 0.77800(14) 0.31652(13)
C14 C 0.2419(2) 0.71616(15) 0.15632(14)
C15 C 0.1409(2) 0.77984(17) 0.10142(16)
H13 H 0.0487 0.8222 0.1365
C16 C 0.1793(3) 0.77931(18) -0.00606(16)
H14 H 0.1114 0.8212 -0.0428
C17 C 0.3170(2) 0.71772(17) -0.06021(15)
C18 C 0.4165(2) 0.65461(17) -0.00323(15)
H15 H 0.5091 0.6126 -0.0382
C19 C 0.3794(2) 0.65353(16) 0.10438(15)
H16 H 0.4465 0.6110 0.1414
C20 C 0.3586(3) 0.7171(2) -0.17738(16)
H17 H 0.4655 0.7310 -0.2013
H18 H 0.2901 0.7755 -0.2038
H19 H 0.3467 0.6444 -0.2016
C21 C 0.7508(2) 0.55305(15) 0.35133(14)
H20 H 0.8482 0.5625 0.3708
H21 H 0.7256 0.4777 0.3732
C22 C 0.7697(2) 0.56508(14) 0.23893(14)
C23 C 0.7852(2) 0.58601(15) 0.14843(14)
C24 C 0.7982(2) 0.62769(16) 0.04305(14)
C25 C 0.8368(2) 0.55628(16) -0.04289(15)
H22 H 0.8582 0.4780 -0.0339
C26 C 0.8433(2) 0.60275(18) -0.14190(15)
H23 H 0.8685 0.5552 -0.1992
C27 C 0.8124(2) 0.71927(19) -0.15601(15)
H24 H 0.8158 0.7503 -0.2222
C28 C 0.7765(3) 0.78854(17) -0.06998(16)
C29 C 0.7681(2) 0.74507(16) 0.02928(15)
H25 H 0.7428 0.7932 0.0861
loop_
_geom_bond_atom_site_label_1
_geom_bond_atom_site_label_2
_geom_bond_site_symmetry_1
_geom_bond_site_symmetry_2
S1 N1 1_555 1_555
S2 N2 1_555 1_555
Cl1 C28 1_555 1_555
N1 C8 1_555 1_555
N2 H1 1_555 1_555
O1 S1 1_555 1_555
O2 S1 1_555 1_555
O3 S2 1_555 1_555
O4 S2 1_555 1_555
C1 H2 1_555 1_555
H3 C1 1_555 1_555
H4 C1 1_555 1_555
C2 C1 1_555 1_555
C3 C2 1_555 1_555
H5 C3 1_555 1_555
C4 C3 1_555 1_555
H6 C4 1_555 1_555
C5 S1 1_555 1_555
C6 C5 1_555 1_555
H7 C6 1_555 1_555
C7 C2 1_555 1_555
H8 C7 1_555 1_555
C8 C9 1_555 1_555
C9 H9 1_555 1_555
C10 C9 1_555 1_555
H10 C10 1_555 1_555
C11 C10 1_555 1_555
H11 C11 1_555 1_555
C12 C11 1_555 1_555
H12 C12 1_555 1_555
C13 N2 1_555 1_555
C14 S2 1_555 1_555
C15 C14 1_555 1_555
H13 C15 1_555 1_555
C16 C15 1_555 1_555
H14 C16 1_555 1_555
C17 C16 1_555 1_555
C18 C17 1_555 1_555
H15 C18 1_555 1_555
C19 C14 1_555 1_555
H16 C19 1_555 1_555
C20 C17 1_555 1_555
H17 C20 1_555 1_555
H18 C20 1_555 1_555
H19 C20 1_555 1_555
C21 N1 1_555 1_555
H20 C21 1_555 1_555
H21 C21 1_555 1_555
C22 C21 1_555 1_555
C23 C22 1_555 1_555
C24 C23 1_555 1_555
C25 C24 1_555 1_555
H22 C25 1_555 1_555
C26 C25 1_555 1_555
H23 C26 1_555 1_555
C27 C26 1_555 1_555
H24 C27 1_555 1_555
C28 C27 1_555 1_555
C29 C24 1_555 1_555
H25 C29 1_555 1_555
C4 C5 1_555 1_555
C6 C7 1_555 1_555
C8 C13 1_555 1_555
C12 C13 1_555 1_555
C18 C19 1_555 1_555
C28 C29 1_555 1_555

#END
