
#######################################################################
#
#                 Cambridge Crystallographic Data Centre
#                                CCDC 
#
#######################################################################
#
# If this CIF has been generated from an entry in the Cambridge 
# Structural Database, then it will include bibliographic, chemical, 
# crystal, experimental, refinement or atomic coordinate data resulting 
# from the CCDC's data processing and validation procedures.
#
#######################################################################

data_YEYFIS
_chemical_formula_moiety         'C18 H14 N2 O2'
_chemical_name_systematic        "6-p-Tolyl-2,2'-bipyridinyl-4-carboxylic acid"
_symmetry_cell_setting           monoclinic
_symmetry_space_group_name_H-M   'P 21/n'
_symmetry_Int_Tables_number      14
_space_group_name_Hall           '-P 2yn'
loop_
_symmetry_equiv_pos_site_id
_symmetry_equiv_pos_as_xyz
1 x,y,z
2 1/2-x,1/2+y,1/2-z
3 -x,-y,-z
4 1/2+x,1/2-y,1/2+z
_cell_length_a                   14.699(3)
_cell_length_b                   3.9680(8)
_cell_length_c                   24.914(5)
_cell_angle_alpha                90
_cell_angle_beta                 105.67(3)
_cell_angle_gamma                90
_cell_volume                     1399.12
_exptl_crystal_colour            colorless
_exptl_crystal_description       block
_cell_formula_units_Z            4
_exptl_crystal_recrystallization_method methanol
loop_
_atom_site_label
_atom_site_type_symbol
_atom_site_fract_x
_atom_site_fract_y
_atom_site_fract_z
O1 O 0.69530(12) 1.0978(6) -0.06910(7)
O2 O 0.55915(11) 0.9902(6) -0.04990(7)
N1 N 0.54138(13) 0.6125(6) 0.13205(8)
N2 N 0.77921(13) 0.5356(5) 0.11932(8)
C1 C 0.49189(17) 0.5394(7) 0.16850(11)
H1 H 0.4296 0.6131 0.1605
C2 C 0.52761(17) 0.3626(7) 0.21681(11)
H2 H 0.4907 0.3187 0.2410
C3 C 0.61929(18) 0.2519(7) 0.22850(10)
H3 H 0.6463 0.1347 0.2613
C4 C 0.67098(16) 0.3171(7) 0.19081(10)
H4 H 0.7326 0.2378 0.1976
C5 C 0.63090(16) 0.5009(6) 0.14293(10)
H5 H 0.5371 1.1019 -0.0781
C6 C 0.68525(16) 0.5879(7) 0.10219(10)
C7 C 0.64085(17) 0.7174(7) 0.05042(10)
H6 H 0.5755 0.7401 0.0391
C8 C 0.69579(16) 0.8133(7) 0.01550(9)
C9 C 0.79180(17) 0.7595(7) 0.03260(10)
H7 H 0.8296 0.8196 0.0096
C10 C 0.83211(15) 0.6140(7) 0.08464(10)
C11 C 0.93548(16) 0.5474(7) 0.10486(10)
C12 C 0.99888(17) 0.6459(7) 0.07610(11)
H8 H 0.9765 0.7555 0.0421
C13 C 1.09481(17) 0.5868(7) 0.09629(11)
H9 H 1.1354 0.6540 0.0754
C14 C 1.13112(16) 0.4295(7) 0.14697(12)
C15 C 1.06853(16) 0.3294(7) 0.17597(11)
H10 H 1.0913 0.2230 0.2102
C16 C 0.97227(16) 0.3832(7) 0.15539(10)
H11 H 0.9316 0.3083 0.1757
C17 C 0.65231(18) 0.9812(7) -0.03931(11)
C18 C 1.23585(16) 0.3656(8) 0.16941(12)
H12 H 1.2691 0.5765 0.1741
H13 H 1.2572 0.2270 0.1437
H14 H 1.2478 0.2528 0.2047
loop_
_geom_bond_atom_site_label_1
_geom_bond_atom_site_label_2
_geom_bond_site_symmetry_1
_geom_bond_site_symmetry_2
O1 C17 1_555 1_555
O2 H5 1_555 1_555
N1 C1 1_555 1_555
N2 C6 1_555 1_555
C1 H1 1_555 1_555
C2 C1 1_555 1_555
H2 C2 1_555 1_555
C3 C2 1_555 1_555
H3 C3 1_555 1_555
C4 C3 1_555 1_555
H4 C4 1_555 1_555
C5 N1 1_555 1_555
C6 C5 1_555 1_555
C7 C6 1_555 1_555
H6 C7 1_555 1_555
C8 C7 1_555 1_555
C9 C8 1_555 1_555
H7 C9 1_555 1_555
C10 N2 1_555 1_555
C11 C10 1_555 1_555
C12 C11 1_555 1_555
H8 C12 1_555 1_555
C13 C12 1_555 1_555
H9 C13 1_555 1_555
C14 C13 1_555 1_555
C15 C14 1_555 1_555
H10 C15 1_555 1_555
C16 C11 1_555 1_555
H11 C16 1_555 1_555
C17 O2 1_555 1_555
C18 C14 1_555 1_555
H12 C18 1_555 1_555
H13 C18 1_555 1_555
H14 C18 1_555 1_555
C4 C5 1_555 1_555
C8 C17 1_555 1_555
C9 C10 1_555 1_555
C15 C16 1_555 1_555

#END
