
#######################################################################
#
#                 Cambridge Crystallographic Data Centre
#                                CCDC 
#
#######################################################################
#
# If this CIF has been generated from an entry in the Cambridge 
# Structural Database, then it will include bibliographic, chemical, 
# crystal, experimental, refinement or atomic coordinate data resulting 
# from the CCDC's data processing and validation procedures.
#
#######################################################################

data_YIBFOH
_chemical_formula_moiety         'C33 H40 O1'
_chemical_name_systematic        3-(2,2-diphenylethenyl)androstan-17-one
_symmetry_cell_setting           orthorhombic
_symmetry_space_group_name_H-M   'P 21 21 21'
_symmetry_Int_Tables_number      19
_space_group_name_Hall           'P 2ac 2ab'
loop_
_symmetry_equiv_pos_site_id
_symmetry_equiv_pos_as_xyz
1 x,y,z
2 1/2+x,1/2-y,-z
3 -x,1/2+y,1/2-z
4 1/2-x,-y,1/2+z
_cell_length_a                   8.658(2)
_cell_length_b                   11.271(3)
_cell_length_c                   27.041(6)
_cell_angle_alpha                90
_cell_angle_beta                 90
_cell_angle_gamma                90
_cell_volume                     2638.78
_exptl_crystal_colour            colorless
_exptl_crystal_description       block
_cell_formula_units_Z            4
loop_
_atom_site_label
_atom_site_type_symbol
_atom_site_fract_x
_atom_site_fract_y
_atom_site_fract_z
C1 C 0.9327(4) 0.4176(3) -0.03990(11)
C2 C 0.8865(5) 0.3022(3) -0.03156(13)
H1 H 0.9168 0.2642 -0.0026
C3 C 0.7962(5) 0.2420(4) -0.06526(15)
H2 H 0.7651 0.1646 -0.0588
C4 C 0.7531(5) 0.2963(4) -0.10776(16)
H3 H 0.6924 0.2558 -0.1306
C5 C 0.7981(5) 0.4096(4) -0.11727(14)
H4 H 0.7684 0.4465 -0.1465
C6 C 0.8882(4) 0.4697(3) -0.08326(12)
H5 H 0.9191 0.5471 -0.0900
C7 C 1.0291(4) 0.4811(3) -0.00309(12)
C8 C 1.1869(4) 0.5190(3) -0.01852(11)
C9 C 1.2665(5) 0.4568(3) -0.05463(14)
H6 H 1.2191 0.3930 -0.0703
C10 C 1.4136(5) 0.4877(4) -0.06754(16)
H7 H 1.4658 0.4438 -0.0914
C11 C 1.4851(5) 0.5828(4) -0.04573(17)
H8 H 1.5849 0.6039 -0.0549
C12 C 1.4091(5) 0.6457(4) -0.01066(15)
H9 H 1.4574 0.7099 0.0045
C13 C 1.2606(5) 0.6151(3) 0.00278(13)
H10 H 1.2093 0.6598 0.0266
C14 C 0.9790(4) 0.5010(3) 0.04254(13)
H11 H 1.0514 0.5330 0.0641
C15 C 0.8225(4) 0.4792(3) 0.06413(11)
H12 H 0.7538 0.4513 0.0378
C16 C 0.7586(4) 0.5961(3) 0.08456(12)
H13 H 0.8342 0.6305 0.1068
H14 H 0.7439 0.6511 0.0573
C17 C 0.6073(4) 0.5824(3) 0.11190(11)
H15 H 0.5333 0.5499 0.0881
C18 C 0.5432(5) 0.7010(3) 0.12829(12)
H16 H 0.6157 0.7380 0.1509
H17 H 0.5327 0.7523 0.0997
C19 C 0.3882(5) 0.6898(3) 0.15351(12)
H18 H 0.3115 0.6647 0.1295
H19 H 0.3572 0.7667 0.1662
C20 C 0.3933(4) 0.6008(2) 0.19591(10)
H20 H 0.4665 0.6305 0.2206
C21 C 0.2384(4) 0.5852(2) 0.22103(11)
H21 H 0.1677 0.5535 0.1960
C22 C 0.1587(5) 0.6936(3) 0.24379(13)
H22 H 0.2319 0.7422 0.2619
H23 H 0.1097 0.7417 0.2185
C23 C 0.0391(4) 0.6397(3) 0.27842(13)
H24 H 0.0398 0.6802 0.3101
H25 H -0.0635 0.6461 0.2642
C24 C 0.0834(5) 0.5113(3) 0.28478(12)
C25 C 0.2427(4) 0.4954(3) 0.26278(11)
C26 C 0.2830(4) 0.3752(3) 0.24172(12)
H26 H 0.2039 0.3509 0.2184
H27 H 0.2867 0.3171 0.2682
C27 C 0.4394(4) 0.3801(2) 0.21562(11)
H28 H 0.4575 0.3047 0.1993
H29 H 0.5196 0.3904 0.2403
C28 C 0.4537(4) 0.4798(2) 0.17716(11)
H30 H 0.3859 0.4572 0.1497
C29 C 0.6175(4) 0.4919(2) 0.15476(10)
C30 C 0.6725(4) 0.3754(3) 0.13197(11)
H31 H 0.5947 0.3472 0.1090
H32 H 0.6828 0.3166 0.1580
C31 C 0.8270(4) 0.3861(3) 0.10465(12)
H33 H 0.9073 0.4065 0.1282
H34 H 0.8531 0.3099 0.0902
C32 C 0.3539(4) 0.5285(3) 0.30502(11)
H35 H 0.3246 0.6039 0.3186
H36 H 0.4574 0.5333 0.2924
H37 H 0.3491 0.4690 0.3304
C33 C 0.7341(4) 0.5314(3) 0.19415(11)
H38 H 0.7492 0.4685 0.2176
H39 H 0.6954 0.6004 0.2109
H40 H 0.8308 0.5502 0.1786
O1 O 0.0041(3) 0.4367(2) 0.30381(10)
loop_
_geom_bond_atom_site_label_1
_geom_bond_atom_site_label_2
_geom_bond_site_symmetry_1
_geom_bond_site_symmetry_2
C1 C2 1_555 1_555
C2 H1 1_555 1_555
C3 C2 1_555 1_555
H2 C3 1_555 1_555
C4 C3 1_555 1_555
H3 C4 1_555 1_555
C5 C4 1_555 1_555
H4 C5 1_555 1_555
C6 C1 1_555 1_555
H5 C6 1_555 1_555
C7 C1 1_555 1_555
C8 C7 1_555 1_555
C9 C8 1_555 1_555
H6 C9 1_555 1_555
C10 C9 1_555 1_555
H7 C10 1_555 1_555
C11 C10 1_555 1_555
H8 C11 1_555 1_555
C12 C11 1_555 1_555
H9 C12 1_555 1_555
C13 C8 1_555 1_555
H10 C13 1_555 1_555
C14 C7 1_555 1_555
H11 C14 1_555 1_555
C15 C14 1_555 1_555
H12 C15 1_555 1_555
C16 C15 1_555 1_555
H13 C16 1_555 1_555
H14 C16 1_555 1_555
C17 C16 1_555 1_555
H15 C17 1_555 1_555
C18 C17 1_555 1_555
H16 C18 1_555 1_555
H17 C18 1_555 1_555
C19 C18 1_555 1_555
H18 C19 1_555 1_555
H19 C19 1_555 1_555
C20 C19 1_555 1_555
H20 C20 1_555 1_555
C21 C20 1_555 1_555
H21 C21 1_555 1_555
C22 C21 1_555 1_555
H22 C22 1_555 1_555
H23 C22 1_555 1_555
C23 C22 1_555 1_555
H24 C23 1_555 1_555
H25 C23 1_555 1_555
C24 C23 1_555 1_555
C25 C21 1_555 1_555
C26 C25 1_555 1_555
H26 C26 1_555 1_555
H27 C26 1_555 1_555
C27 C26 1_555 1_555
H28 C27 1_555 1_555
H29 C27 1_555 1_555
C28 C20 1_555 1_555
H30 C28 1_555 1_555
C29 C17 1_555 1_555
C30 C29 1_555 1_555
H31 C30 1_555 1_555
H32 C30 1_555 1_555
C31 C15 1_555 1_555
H33 C31 1_555 1_555
H34 C31 1_555 1_555
C32 C25 1_555 1_555
H35 C32 1_555 1_555
H36 C32 1_555 1_555
H37 C32 1_555 1_555
C33 C29 1_555 1_555
H38 C33 1_555 1_555
H39 C33 1_555 1_555
H40 C33 1_555 1_555
O1 C24 1_555 1_555
C5 C6 1_555 1_555
C12 C13 1_555 1_555
C24 C25 1_555 1_555
C27 C28 1_555 1_555
C28 C29 1_555 1_555
C30 C31 1_555 1_555

#END
