
#######################################################################
#
#                 Cambridge Crystallographic Data Centre
#                                CCDC 
#
#######################################################################
#
# If this CIF has been generated from an entry in the Cambridge 
# Structural Database, then it will include bibliographic, chemical, 
# crystal, experimental, refinement or atomic coordinate data resulting 
# from the CCDC's data processing and validation procedures.
#
#######################################################################

data_YIBJUR
_chemical_name_common            
'benzo-TTF-calix[4]pyrrole radical cation chloride dichloromethane solvate'
_chemical_formula_moiety         'C60 H44 N4 S16 1+,2(C1 H2 Cl2),Cl1 1-'
_chemical_name_systematic        
'2-[14,22,30-tris(1,3-benzodithiol-2-ylidene)-2,2,10,10,18,18,26,26-octamethyl-5,7,13,15,21,23,29,31-octathia-33,34,35,36-tetraazanonacyclo[25.5.1.1^3,9^.1^11,17^.1^19,25^.0^4,8^.0^12,16^.0^20,24^.0^28,32^]hexatriaconta-1(32),3,8,11,16,19,24,27-octaen-6-ylidene]-1,3-benzodithiol-1-ium radical cation chloride dichloromethane solvate'
_symmetry_cell_setting           monoclinic
_symmetry_space_group_name_H-M   'P 21/c'
_symmetry_Int_Tables_number      14
_space_group_name_Hall           '-P 2ybc'
loop_
_symmetry_equiv_pos_site_id
_symmetry_equiv_pos_as_xyz
1 x,y,z
2 -x,1/2+y,1/2-z
3 -x,-y,-z
4 x,1/2-y,1/2+z
_cell_length_a                   13.319(8)
_cell_length_b                   38.199(20)
_cell_length_c                   14.505(8)
_cell_angle_alpha                90
_cell_angle_beta                 112.908(7)
_cell_angle_gamma                90
_cell_volume                     6797.71
_exptl_crystal_colour            blue
_exptl_crystal_description       Plate
_cell_formula_units_Z            4
loop_
_atom_site_label
_atom_site_type_symbol
_atom_site_fract_x
_atom_site_fract_y
_atom_site_fract_z
C1 C 1.0507(11) 0.8387(3) 0.5341(9)
C2 C 1.0407(12) 0.8712(5) 0.5726(12)
C3 C 0.9330(11) 0.8741(4) 0.5676(10)
C4 C 0.8766(10) 0.8444(3) 0.5285(9)
C5 C 1.0233(15) 0.9362(5) 0.6173(15)
C6 C 1.0338(14) 0.9706(4) 0.6306(12)
C7 C 1.1153(13) 1.0329(5) 0.6471(11)
C8 C 1.0045(13) 1.0377(4) 0.6411(10)
C9 C 0.9706(15) 1.0696(4) 0.6555(12)
H1 H 0.9021 1.0719 0.6610
C10 C 1.0323(12) 1.0986(4) 0.6623(12)
H2 H 1.0047 1.1213 0.6655
C11 C 1.1339(12) 1.0943(4) 0.6644(11)
H3 H 1.1799 1.1142 0.6753
C12 C 1.1729(13) 1.0625(5) 0.6517(11)
H4 H 1.2415 1.0610 0.6460
C13 C 0.7597(12) 0.8333(4) 0.5081(11)
C14 C 0.7510(11) 0.7940(3) 0.5277(10)
H5 H 0.6741 0.7870 0.5004
H6 H 0.7827 0.7896 0.6000
H7 H 0.7905 0.7804 0.4953
C15 C 0.7183(13) 0.8546(4) 0.5785(13)
H8 H 0.7343 0.8795 0.5751
H9 H 0.7553 0.8463 0.6475
H10 H 0.6395 0.8514 0.5571
C16 C 0.6881(11) 0.8425(4) 0.4048(10)
C17 C 0.6171(13) 0.8698(4) 0.3577(10)
C18 C 0.5740(13) 0.8654(4) 0.2574(12)
C19 C 0.6155(12) 0.8365(4) 0.2322(13)
C20 C 0.5274(13) 0.9287(4) 0.2836(12)
C21 C 0.5351(12) 0.9636(4) 0.2705(13)
C22 C 0.5682(12) 1.0311(4) 0.2902(11)
C23 C 0.5232(13) 1.0245(5) 0.1872(13)
C24 C 0.5019(14) 1.0513(5) 0.1234(12)
H11 H 0.4739 1.0472 0.0533
C25 C 0.5214(13) 1.0861(4) 0.1612(13)
H12 H 0.5028 1.1051 0.1155
C26 C 0.5645(13) 1.0925(4) 0.2575(13)
H13 H 0.5778 1.1160 0.2805
C27 C 0.5911(13) 1.0650(5) 0.3267(14)
H14 H 0.6238 1.0694 0.3966
C28 C 0.6087(11) 0.8213(4) 0.1327(11)
C29 C 0.5959(13) 0.7818(4) 0.1316(13)
H15 H 0.5767 0.7730 0.0633
H16 H 0.5380 0.7757 0.1547
H17 H 0.6646 0.7711 0.1761
C30 C 0.5103(12) 0.8362(4) 0.0478(13)
H18 H 0.5128 0.8618 0.0510
H19 H 0.4435 0.8279 0.0540
H20 H 0.5110 0.8284 -0.0163
C31 C 0.7151(12) 0.8315(4) 0.1212(10)
C32 C 0.7469(13) 0.8648(4) 0.1016(11)
C33 C 0.8527(12) 0.8607(5) 0.1035(12)
C34 C 0.8821(12) 0.8256(4) 0.1210(10)
C35 C 0.8148(15) 0.9273(4) 0.0939(13)
C36 C 0.8342(13) 0.9614(4) 0.1010(14)
C37 C 0.8044(14) 1.0288(4) 0.1015(12)
C38 C 0.9069(12) 1.0254(4) 0.1038(10)
C39 C 0.9688(13) 1.0549(4) 0.1022(13)
H21 H 1.0376 1.0520 0.0978
C40 C 0.9306(17) 1.0881(5) 0.1069(13)
H22 H 0.9754 1.1080 0.1116
C41 C 0.8231(16) 1.0926(5) 0.1046(16)
H23 H 0.7934 1.1153 0.1032
C42 C 0.7638(17) 1.0630(5) 0.1043(15)
H24 H 0.6937 1.0656 0.1061
C43 C 0.9922(12) 0.8080(4) 0.1466(11)
C44 C 0.9763(11) 0.7679(4) 0.1435(12)
H25 H 1.0427 0.7563 0.1454
H26 H 0.9149 0.7614 0.0818
H27 H 0.9610 0.7605 0.2015
C45 C 1.0723(10) 0.8210(4) 0.2449(10)
C46 C 1.1556(11) 0.8458(3) 0.2721(10)
C47 C 1.1948(11) 0.8479(3) 0.3736(11)
C48 C 1.1398(12) 0.8276(4) 0.4147(11)
C49 C 1.2764(11) 0.8985(3) 0.3092(10)
C50 C 1.2839(12) 0.9323(4) 0.2961(11)
C51 C 1.2700(11) 0.9948(4) 0.2203(11)
C52 C 1.3128(13) 1.0005(5) 0.3187(14)
C53 C 1.3369(13) 1.0327(5) 0.3591(11)
H28 H 1.3643 1.0357 0.4296
C54 C 1.3213(14) 1.0615(5) 0.2967(13)
H29 H 1.3396 1.0843 0.3237
C55 C 1.2786(13) 1.0561(4) 0.1942(13)
H30 H 1.2656 1.0753 0.1494
C56 C 1.2560(12) 1.0234(4) 0.1596(13)
H31 H 1.2288 1.0198 0.0892
C57 C 1.1460(13) 0.8206(4) 0.5184(11)
C58 C 1.1510(12) 0.7821(4) 0.5421(11)
H32 H 1.0855 0.7705 0.4949
H33 H 1.1549 0.7789 0.6104
H34 H 1.2158 0.7718 0.5364
C59 C 1.2501(11) 0.8367(3) 0.5899(11)
H35 H 1.2441 0.8623 0.5854
H36 H 1.3109 0.8291 0.5727
H37 H 1.2633 0.8293 0.6584
C60 C 1.0333(13) 0.8171(5) 0.0593(13)
H38 H 1.0317 0.8425 0.0496
H39 H 0.9853 0.8058 -0.0030
H40 H 1.1080 0.8085 0.0778
N1 N 0.9501(9) 0.8239(3) 0.5127(8)
H41 H 0.9349 0.8023 0.4900
N2 N 1.0664(10) 0.8095(3) 0.3307(8)
H42 H 1.0223 0.7928 0.3338
N3 N 0.7934(9) 0.8099(3) 0.1311(8)
H43 H 0.7906 0.7874 0.1432
N4 N 0.6835(10) 0.8226(3) 0.3194(10)
H44 H 0.7212 0.8033 0.3235
S1 S 0.4782(3) 0.89861(11) 0.1857(3)
S2 S 0.5773(3) 0.90906(11) 0.4061(3)
S3 S 0.5892(3) 0.99329(10) 0.3696(3)
S4 S 0.4860(4) 0.98077(11) 0.1496(3)
S5 S 0.6975(3) 0.90705(11) 0.0883(3)
S6 S 0.9193(3) 0.89813(11) 0.0847(3)
S7 S 0.9549(3) 0.98172(10) 0.1040(3)
S8 S 0.7323(3) 0.99084(11) 0.1035(3)
S9 S 1.2195(3) 0.86942(11) 0.2064(3)
S10 S 1.3073(3) 0.87905(10) 0.4260(3)
S11 S 1.3386(3) 0.96205(10) 0.3966(3)
S12 S 1.2454(3) 0.95186(11) 0.1755(3)
S13 S 1.1225(3) 0.90782(11) 0.6100(3)
S14 S 0.9001(3) 0.91468(10) 0.6064(3)
S15 S 0.9345(3) 0.99771(10) 0.6344(3)
S16 S 1.1543(3) 0.99055(10) 0.6354(3)
Cl1 Cl 0.8683(3) 0.75941(10) 0.3464(3)
C61 C 0.4217(14) 0.7982(5) 0.3258(12)
H45 H 0.3999 0.8232 0.3197
H46 H 0.4974 0.7973 0.3292
Cl2 Cl 0.3397(4) 0.77717(15) 0.2197(5)
Cl3 Cl 0.4219(5) 0.78239(15) 0.4391(5)
loop_
_geom_bond_atom_site_label_1
_geom_bond_atom_site_label_2
_geom_bond_site_symmetry_1
_geom_bond_site_symmetry_2
C1 C2 1_555 1_555
C2 C3 1_555 1_555
C3 C4 1_555 1_555
C4 C13 1_555 1_555
C5 C6 1_555 1_555
C6 S15 1_555 1_555
C7 C8 1_555 1_555
C8 C9 1_555 1_555
C9 H1 1_555 1_555
C10 C9 1_555 1_555
H2 C10 1_555 1_555
C11 C10 1_555 1_555
H3 C11 1_555 1_555
C12 C7 1_555 1_555
H4 C12 1_555 1_555
C13 C14 1_555 1_555
C14 H5 1_555 1_555
H6 C14 1_555 1_555
H7 C14 1_555 1_555
C15 C13 1_555 1_555
H8 C15 1_555 1_555
H9 C15 1_555 1_555
H10 C15 1_555 1_555
C16 C13 1_555 1_555
C17 C16 1_555 1_555
C18 C17 1_555 1_555
C19 C18 1_555 1_555
C20 C21 1_555 1_555
C21 S3 1_555 1_555
C22 C23 1_555 1_555
C23 C24 1_555 1_555
C24 H11 1_555 1_555
C25 C24 1_555 1_555
H12 C25 1_555 1_555
C26 C25 1_555 1_555
H13 C26 1_555 1_555
C27 C22 1_555 1_555
H14 C27 1_555 1_555
C28 C19 1_555 1_555
C29 C28 1_555 1_555
H15 C29 1_555 1_555
H16 C29 1_555 1_555
H17 C29 1_555 1_555
C30 C28 1_555 1_555
H18 C30 1_555 1_555
H19 C30 1_555 1_555
H20 C30 1_555 1_555
C31 C28 1_555 1_555
C32 C31 1_555 1_555
C33 C32 1_555 1_555
C34 C33 1_555 1_555
C35 C36 1_555 1_555
C36 S7 1_555 1_555
C37 C38 1_555 1_555
C38 C39 1_555 1_555
C39 H21 1_555 1_555
C40 C39 1_555 1_555
H22 C40 1_555 1_555
C41 C40 1_555 1_555
H23 C41 1_555 1_555
C42 C37 1_555 1_555
H24 C42 1_555 1_555
C43 C34 1_555 1_555
C44 C43 1_555 1_555
H25 C44 1_555 1_555
H26 C44 1_555 1_555
H27 C44 1_555 1_555
C45 C43 1_555 1_555
C46 C45 1_555 1_555
C47 C46 1_555 1_555
C48 C47 1_555 1_555
C49 C50 1_555 1_555
C50 S11 1_555 1_555
C51 C52 1_555 1_555
C52 C53 1_555 1_555
C53 H28 1_555 1_555
C54 C53 1_555 1_555
H29 C54 1_555 1_555
C55 C54 1_555 1_555
H30 C55 1_555 1_555
C56 C51 1_555 1_555
H31 C56 1_555 1_555
C57 C1 1_555 1_555
C58 C57 1_555 1_555
H32 C58 1_555 1_555
H33 C58 1_555 1_555
H34 C58 1_555 1_555
C59 C57 1_555 1_555
H35 C59 1_555 1_555
H36 C59 1_555 1_555
H37 C59 1_555 1_555
C60 C43 1_555 1_555
H38 C60 1_555 1_555
H39 C60 1_555 1_555
H40 C60 1_555 1_555
N1 C1 1_555 1_555
H41 N1 1_555 1_555
N2 C45 1_555 1_555
H42 N2 1_555 1_555
N3 C31 1_555 1_555
H43 N3 1_555 1_555
N4 C16 1_555 1_555
H44 N4 1_555 1_555
S1 C18 1_555 1_555
S2 C17 1_555 1_555
S3 C22 1_555 1_555
S4 C21 1_555 1_555
S5 C32 1_555 1_555
S6 C33 1_555 1_555
S7 C38 1_555 1_555
S8 C36 1_555 1_555
S9 C46 1_555 1_555
S10 C47 1_555 1_555
S11 C52 1_555 1_555
S12 C50 1_555 1_555
S13 C2 1_555 1_555
S14 C3 1_555 1_555
S15 C8 1_555 1_555
S16 C6 1_555 1_555
C61 H45 1_555 1_555
H46 C61 1_555 1_555
Cl2 C61 1_555 1_555
Cl3 C61 1_555 1_555
C4 N1 1_555 1_555
C5 S13 1_555 1_555
C5 S14 1_555 1_555
C7 S16 1_555 1_555
C11 C12 1_555 1_555
C19 N4 1_555 1_555
C20 S1 1_555 1_555
C20 S2 1_555 1_555
C23 S4 1_555 1_555
C26 C27 1_555 1_555
C34 N3 1_555 1_555
C35 S5 1_555 1_555
C35 S6 1_555 1_555
C37 S8 1_555 1_555
C41 C42 1_555 1_555
C48 C57 1_555 1_555
C48 N2 1_555 1_555
C49 S9 1_555 1_555
C49 S10 1_555 1_555
C51 S12 1_555 1_555
C55 C56 1_555 1_555

#END
