
#######################################################################
#
#                 Cambridge Crystallographic Data Centre
#                                CCDC 
#
#######################################################################
#
# If this CIF has been generated from an entry in the Cambridge 
# Structural Database, then it will include bibliographic, chemical, 
# crystal, experimental, refinement or atomic coordinate data resulting 
# from the CCDC's data processing and validation procedures.
#
#######################################################################

data_YICCAP
_chemical_formula_moiety         'C25 H28 O7'
_chemical_name_systematic        
(2E,5E)-2,5-bis(2,3,4-Trimethoxybenzylidene)cyclopentanone
_symmetry_cell_setting           triclinic
_symmetry_space_group_name_H-M   'P -1'
_symmetry_Int_Tables_number      2
_space_group_name_Hall           '-P 1'
loop_
_symmetry_equiv_pos_site_id
_symmetry_equiv_pos_as_xyz
1 x,y,z
2 -x,-y,-z
_cell_length_a                   12.6636(6)
_cell_length_b                   15.4927(8)
_cell_length_c                   19.2970(10)
_cell_angle_alpha                108.0890(10)
_cell_angle_beta                 95.4120(10)
_cell_angle_gamma                111.2420(10)
_cell_volume                     3261.65
_exptl_crystal_colour            yellow
_exptl_crystal_description       block
_cell_formula_units_Z            6
_exptl_crystal_recrystallization_method 'acetic acid'
loop_
_atom_site_label
_atom_site_type_symbol
_atom_site_fract_x
_atom_site_fract_y
_atom_site_fract_z
O1 O 0.38891(19) 0.32679(17) -0.08857(12)
O2 O 0.16408(18) 0.24772(15) -0.07891(11)
O3 O 0.11224(18) 0.24359(15) 0.05506(11)
O4 O 0.1790(2) 0.31459(18) 0.31200(12)
O5 O 0.21279(18) 0.31951(16) 0.55281(12)
O6 O 0.30646(19) 0.30784(16) 0.68041(12)
O7 O 0.53681(19) 0.35573(17) 0.71874(12)
C1 C 0.3696(3) 0.3248(2) -0.02019(17)
C2 C 0.2537(3) 0.2831(2) -0.01743(17)
C3 C 0.2263(3) 0.2821(2) 0.05066(17)
C4 C 0.3144(3) 0.3231(2) 0.11684(17)
C5 C 0.4292(3) 0.3618(2) 0.11071(17)
H1 H 0.4900 0.3886 0.1543
C6 C 0.4580(3) 0.3629(2) 0.04350(18)
H2 H 0.5373 0.3893 0.0410
C7 C 0.2798(3) 0.3232(2) 0.18645(17)
H3 H 0.1989 0.3052 0.1835
C8 C 0.3423(3) 0.3445(2) 0.25403(17)
C9 C 0.2839(3) 0.3372(2) 0.31619(17)
C10 C 0.3706(3) 0.3564(2) 0.38229(17)
C11 C 0.4871(3) 0.3771(2) 0.36333(17)
H4 H 0.5145 0.3260 0.3671
H5 H 0.5453 0.4435 0.3981
C12 C 0.4701(3) 0.3737(2) 0.28213(16)
H6 H 0.5170 0.4399 0.2810
H7 H 0.4949 0.3243 0.2503
C13 C 0.3344(3) 0.3497(2) 0.44429(17)
H8 H 0.2549 0.3382 0.4414
C14 C 0.3954(3) 0.3571(2) 0.51544(16)
C15 C 0.3295(3) 0.3392(2) 0.56847(17)
C16 C 0.3783(3) 0.3384(2) 0.63521(17)
C17 C 0.4969(3) 0.3599(2) 0.65253(17)
C18 C 0.5639(3) 0.3806(2) 0.60212(17)
H9 H 0.6448 0.3962 0.6140
C19 C 0.5135(3) 0.3788(2) 0.53489(17)
H10 H 0.5606 0.3928 0.5009
C20 C 0.5070(3) 0.3613(3) -0.0960(2)
H11 H 0.5084 0.3592 -0.1472
H12 H 0.5421 0.3184 -0.0856
H13 H 0.5513 0.4300 -0.0604
C21 C 0.1591(3) 0.1649(2) -0.14071(18)
H14 H 0.0925 0.1446 -0.1816
H15 H 0.1502 0.1091 -0.1246
H16 H 0.2312 0.1844 -0.1582
C22 C 0.0504(3) 0.1380(2) 0.01708(19)
H17 H -0.0298 0.1172 0.0234
H18 H 0.0891 0.1042 0.0383
H19 H 0.0496 0.1202 -0.0364
C23 C 0.1933(3) 0.4075(3) 0.5825(2)
H20 H 0.1095 0.3904 0.5705
H21 H 0.2338 0.4555 0.5604
H22 H 0.2230 0.4370 0.6371
C24 C 0.3202(4) 0.3823(3) 0.75089(19)
H23 H 0.2651 0.3524 0.7780
H24 H 0.3049 0.4362 0.7423
H25 H 0.4000 0.4092 0.7806
C25 C 0.6586(3) 0.3844(3) 0.74094(19)
H26 H 0.6767 0.3786 0.7894
H27 H 0.7009 0.4536 0.7455
H28 H 0.6823 0.3406 0.7032
O8 O 0.44452(19) 0.89840(17) 1.39049(12)
O9 O 0.67780(18) 0.98287(15) 1.41080(11)
O10 O 0.77568(18) 0.99953(15) 1.29074(11)
O11 O 0.79858(19) 1.00537(16) 1.05879(11)
O12 O 0.85657(18) 0.99694(15) 0.82286(11)
O13 O 0.79894(18) 0.97172(15) 0.67620(11)
O14 O 0.57232(18) 0.88520(16) 0.60096(11)
C26 C 0.4859(3) 0.9024(2) 1.32834(18)
C27 C 0.6070(3) 0.9438(2) 1.34018(17)
C28 C 0.6569(3) 0.9555(2) 1.28071(17)
C29 C 0.5879(3) 0.9287(2) 1.20908(17)
C30 C 0.4677(3) 0.8839(2) 1.19935(18)
H29 H 0.4190 0.8618 1.1512
C31 C 0.4174(3) 0.8708(2) 1.25783(18)
H30 H 0.3350 0.8398 1.2494
C32 C 0.6470(3) 0.9496(2) 1.15163(16)
H31 H 0.7292 0.9851 1.1689
C33 C 0.6077(3) 0.9283(2) 1.07880(17)
C34 C 0.6931(3) 0.9595(2) 1.03457(17)
C35 C 0.6298(3) 0.9275(2) 0.95617(17)
C36 C 0.5017(3) 0.8733(2) 0.94894(17)
H32 H 0.4721 0.8041 0.9120
H33 H 0.4582 0.9077 0.9321
C37 C 0.4870(3) 0.8731(2) 1.02819(16)
H34 H 0.4364 0.9069 1.0464
H35 H 0.4515 0.8039 1.0266
C38 C 0.6914(3) 0.9484(2) 0.90595(16)
H36 H 0.7732 0.9830 0.9258
C39 C 0.6546(3) 0.9271(2) 0.82668(17)
C40 C 0.7406(3) 0.9528(2) 0.78644(17)
C41 C 0.7110(3) 0.9379(2) 0.71137(17)
C42 C 0.5934(3) 0.8955(2) 0.67412(17)
C43 C 0.5084(3) 0.8686(2) 0.71280(17)
H37 H 0.4284 0.8389 0.6877
C44 C 0.5389(3) 0.8849(2) 0.78745(17)
H38 H 0.4791 0.8666 0.8131
C45 C 0.3229(3) 0.8723(3) 1.3845(2)
H39 H 0.3047 0.8728 1.4329
H40 H 0.2785 0.8055 1.3461
H41 H 0.3020 0.9207 1.3706
C46 C 0.6755(3) 0.9123(3) 1.44521(18)
H42 H 0.7286 0.9475 1.4950
H43 H 0.7001 0.8632 1.4140
H44 H 0.5962 0.8782 1.4500
C47 C 0.8423(3) 0.9592(3) 1.32402(17)
H45 H 0.9253 0.9965 1.3280
H46 H 0.8184 0.8889 1.2927
H47 H 0.8290 0.9646 1.3741
C48 C 0.9104(3) 0.9288(3) 0.8140(2)
H48 H 0.9923 0.9651 0.8412
H49 H 0.9055 0.8963 0.7607
H50 H 0.8702 0.8782 0.8341
C49 C 0.8141(3) 0.8957(2) 0.61854(18)
H51 H 0.8776 0.9267 0.5969
H52 H 0.7419 0.8563 0.5793
H53 H 0.8331 0.8520 0.6400
C50 C 0.4532(3) 0.8423(2) 0.56068(17)
H54 H 0.4501 0.8390 0.5089
H55 H 0.4143 0.8838 0.5849
H56 H 0.4137 0.7750 0.5606
O15 O 0.0504(2) 0.77070(16) 0.37700(12)
O16 O 0.14063(19) 0.63419(16) 0.35826(11)
O17 O 0.20750(19) 0.58935(16) 0.47762(12)
O18 O 0.2784(2) 0.61396(18) 0.72679(12)
O19 O 0.25860(18) 0.55058(15) 0.94510(11)
O20 O 0.21461(18) 0.56546(15) 1.08290(12)
O21 O 0.13566(19) 0.70117(15) 1.15528(11)
C51 C 0.0785(3) 0.7512(2) 0.43894(17)
C52 C 0.1229(3) 0.6790(2) 0.42724(17)
C53 C 0.1581(3) 0.6563(2) 0.48707(17)
C54 C 0.1480(3) 0.7041(2) 0.56025(17)
C55 C 0.1012(3) 0.7740(2) 0.56875(18)
H57 H 0.0925 0.8068 0.6170
C56 C 0.0668(3) 0.7977(2) 0.50934(18)
H58 H 0.0351 0.8460 0.5172
C57 C 0.1867(3) 0.6782(2) 0.62107(18)
H59 H 0.2271 0.6365 0.6086
C58 C 0.1749(3) 0.7037(2) 0.69226(17)
C59 C 0.2231(3) 0.6646(2) 0.74294(17)
C60 C 0.1903(3) 0.6958(2) 0.81494(17)
C61 C 0.1232(3) 0.7572(3) 0.81239(17)
H60 H 0.1638 0.8247 0.8519
H61 H 0.0443 0.7253 0.8201
C62 C 0.1154(3) 0.7636(2) 0.73347(17)
H62 H 0.0330 0.7363 0.7066
H63 H 0.1543 0.8338 0.7379
C63 C 0.2186(3) 0.6632(2) 0.86828(17)
H64 H 0.2612 0.6236 0.8549
C64 C 0.1954(3) 0.6778(2) 0.94236(17)
C65 C 0.2131(3) 0.6164(2) 0.97882(17)
C66 C 0.1912(3) 0.6246(2) 1.04900(17)
C67 C 0.1526(3) 0.6965(2) 1.08574(17)
C68 C 0.1358(3) 0.7582(2) 1.05076(17)
H65 H 0.1097 0.8074 1.0753
C69 C 0.1567(3) 0.7480(2) 0.98075(18)
H66 H 0.1443 0.7907 0.9577
C70 C 0.0012(3) 0.8415(3) 0.3853(2)
H67 H -0.0150 0.8485 0.3372
H68 H 0.0562 0.9061 0.4228
H69 H -0.0714 0.8187 0.4017
C71 C 0.0369(3) 0.5697(3) 0.29953(19)
H70 H 0.0585 0.5416 0.2530
H71 H -0.0067 0.6082 0.2917
H72 H -0.0117 0.5156 0.3138
C72 C 0.1335(4) 0.4891(3) 0.4308(2)
H73 H 0.1768 0.4475 0.4275
H74 H 0.1062 0.4863 0.3805
H75 H 0.0665 0.4646 0.4520
C73 C 0.1774(3) 0.4504(2) 0.9090(2)
H76 H 0.2177 0.4092 0.8868
H77 H 0.1185 0.4455 0.8694
H78 H 0.1394 0.4268 0.9456
C74 C 0.1160(3) 0.4909(2) 1.09161(19)
H79 H 0.1422 0.4529 1.1159
H80 H 0.0645 0.4458 1.0423
H81 H 0.0737 0.5229 1.1226
C75 C 0.0897(3) 0.7695(2) 1.19245(18)
H82 H 0.0814 0.7656 1.2415
H83 H 0.0133 0.7525 1.1622
H84 H 0.1427 0.8374 1.1992
loop_
_geom_bond_atom_site_label_1
_geom_bond_atom_site_label_2
_geom_bond_site_symmetry_1
_geom_bond_site_symmetry_2
O1 C1 1_555 1_555
O2 C2 1_555 1_555
O3 C3 1_555 1_555
O4 C9 1_555 1_555
O5 C15 1_555 1_555
O6 C16 1_555 1_555
O7 C17 1_555 1_555
O8 C26 1_555 1_555
O9 C27 1_555 1_555
O10 C28 1_555 1_555
O11 C34 1_555 1_555
O12 C40 1_555 1_555
O13 C41 1_555 1_555
O14 C42 1_555 1_555
O15 C51 1_555 1_555
O16 C52 1_555 1_555
O17 C53 1_555 1_555
O18 C59 1_555 1_555
O19 C65 1_555 1_555
O20 C66 1_555 1_555
O21 C67 1_555 1_555
C1 C2 1_555 1_555
C2 C3 1_555 1_555
C3 C4 1_555 1_555
C4 C5 1_555 1_555
C5 H1 1_555 1_555
C6 C1 1_555 1_555
H2 C6 1_555 1_555
C7 C4 1_555 1_555
H3 C7 1_555 1_555
C8 C7 1_555 1_555
C9 C8 1_555 1_555
C10 C9 1_555 1_555
C11 C10 1_555 1_555
H4 C11 1_555 1_555
H5 C11 1_555 1_555
C12 C8 1_555 1_555
H6 C12 1_555 1_555
H7 C12 1_555 1_555
C13 C10 1_555 1_555
H8 C13 1_555 1_555
C14 C13 1_555 1_555
C15 C14 1_555 1_555
C16 C15 1_555 1_555
C17 C16 1_555 1_555
C18 C17 1_555 1_555
H9 C18 1_555 1_555
C19 C14 1_555 1_555
H10 C19 1_555 1_555
C20 O1 1_555 1_555
H11 C20 1_555 1_555
H12 C20 1_555 1_555
H13 C20 1_555 1_555
C21 O2 1_555 1_555
H14 C21 1_555 1_555
H15 C21 1_555 1_555
H16 C21 1_555 1_555
C22 O3 1_555 1_555
H17 C22 1_555 1_555
H18 C22 1_555 1_555
H19 C22 1_555 1_555
C23 O5 1_555 1_555
H20 C23 1_555 1_555
H21 C23 1_555 1_555
H22 C23 1_555 1_555
C24 O6 1_555 1_555
H23 C24 1_555 1_555
H24 C24 1_555 1_555
H25 C24 1_555 1_555
C25 O7 1_555 1_555
H26 C25 1_555 1_555
H27 C25 1_555 1_555
H28 C25 1_555 1_555
C26 C27 1_555 1_555
C27 C28 1_555 1_555
C28 C29 1_555 1_555
C29 C30 1_555 1_555
C30 H29 1_555 1_555
C31 C26 1_555 1_555
H30 C31 1_555 1_555
C32 C29 1_555 1_555
H31 C32 1_555 1_555
C33 C32 1_555 1_555
C34 C33 1_555 1_555
C35 C34 1_555 1_555
C36 C35 1_555 1_555
H32 C36 1_555 1_555
H33 C36 1_555 1_555
C37 C33 1_555 1_555
H34 C37 1_555 1_555
H35 C37 1_555 1_555
C38 C35 1_555 1_555
H36 C38 1_555 1_555
C39 C38 1_555 1_555
C40 C39 1_555 1_555
C41 C40 1_555 1_555
C42 C41 1_555 1_555
C43 C42 1_555 1_555
H37 C43 1_555 1_555
C44 C39 1_555 1_555
H38 C44 1_555 1_555
C45 O8 1_555 1_555
H39 C45 1_555 1_555
H40 C45 1_555 1_555
H41 C45 1_555 1_555
C46 O9 1_555 1_555
H42 C46 1_555 1_555
H43 C46 1_555 1_555
H44 C46 1_555 1_555
C47 O10 1_555 1_555
H45 C47 1_555 1_555
H46 C47 1_555 1_555
H47 C47 1_555 1_555
C48 O12 1_555 1_555
H48 C48 1_555 1_555
H49 C48 1_555 1_555
H50 C48 1_555 1_555
C49 O13 1_555 1_555
H51 C49 1_555 1_555
H52 C49 1_555 1_555
H53 C49 1_555 1_555
C50 O14 1_555 1_555
H54 C50 1_555 1_555
H55 C50 1_555 1_555
H56 C50 1_555 1_555
C51 C52 1_555 1_555
C52 C53 1_555 1_555
C53 C54 1_555 1_555
C54 C55 1_555 1_555
C55 H57 1_555 1_555
C56 C51 1_555 1_555
H58 C56 1_555 1_555
C57 C54 1_555 1_555
H59 C57 1_555 1_555
C58 C57 1_555 1_555
C59 C58 1_555 1_555
C60 C59 1_555 1_555
C61 C60 1_555 1_555
H60 C61 1_555 1_555
H61 C61 1_555 1_555
C62 C58 1_555 1_555
H62 C62 1_555 1_555
H63 C62 1_555 1_555
C63 C60 1_555 1_555
H64 C63 1_555 1_555
C64 C63 1_555 1_555
C65 C64 1_555 1_555
C66 C65 1_555 1_555
C67 C66 1_555 1_555
C68 C67 1_555 1_555
H65 C68 1_555 1_555
C69 C64 1_555 1_555
H66 C69 1_555 1_555
C70 O15 1_555 1_555
H67 C70 1_555 1_555
H68 C70 1_555 1_555
H69 C70 1_555 1_555
C71 O16 1_555 1_555
H70 C71 1_555 1_555
H71 C71 1_555 1_555
H72 C71 1_555 1_555
C72 O17 1_555 1_555
H73 C72 1_555 1_555
H74 C72 1_555 1_555
H75 C72 1_555 1_555
C73 O19 1_555 1_555
H76 C73 1_555 1_555
H77 C73 1_555 1_555
H78 C73 1_555 1_555
C74 O20 1_555 1_555
H79 C74 1_555 1_555
H80 C74 1_555 1_555
H81 C74 1_555 1_555
C75 O21 1_555 1_555
H82 C75 1_555 1_555
H83 C75 1_555 1_555
H84 C75 1_555 1_555
C5 C6 1_555 1_555
C11 C12 1_555 1_555
C18 C19 1_555 1_555
C30 C31 1_555 1_555
C36 C37 1_555 1_555
C43 C44 1_555 1_555
C55 C56 1_555 1_555
C61 C62 1_555 1_555
C68 C69 1_555 1_555

#END
