
#######################################################################
#
#                 Cambridge Crystallographic Data Centre
#                                CCDC 
#
#######################################################################
#
# If this CIF has been generated from an entry in the Cambridge 
# Structural Database, then it will include bibliographic, chemical, 
# crystal, experimental, refinement or atomic coordinate data resulting 
# from the CCDC's data processing and validation procedures.
#
#######################################################################

data_YICSEL
_chemical_formula_moiety         'C13 H8 Cl1 F6 N1 O2'
_chemical_name_systematic        
(Z)-3-(1-chloro-2,2,2-trifluoroethylidene)-1-[4-(trifluoromethoxy)phenyl]pyrrolidin-2-one
_symmetry_cell_setting           monoclinic
_symmetry_space_group_name_H-M   'P 21/n'
_symmetry_Int_Tables_number      14
_space_group_name_Hall           '-P 2yn'
loop_
_symmetry_equiv_pos_site_id
_symmetry_equiv_pos_as_xyz
1 x,y,z
2 1/2-x,1/2+y,1/2-z
3 -x,-y,-z
4 1/2+x,1/2-y,1/2+z
_cell_length_a                   5.9989(3)
_cell_length_b                   14.1298(9)
_cell_length_c                   16.3735(10)
_cell_angle_alpha                90
_cell_angle_beta                 92.802(5)
_cell_angle_gamma                90
_cell_volume                     1386.21
_exptl_crystal_colour            colorless
_exptl_crystal_description       Needle
_cell_formula_units_Z            4
loop_
_atom_site_label
_atom_site_type_symbol
_atom_site_fract_x
_atom_site_fract_y
_atom_site_fract_z
O1 O 0.1820(2) 0.65545(9) 0.47275(7)
F1 F 0.09403(19) 0.34609(10) 0.80030(8)
O2 O 0.3833(2) 0.30866(8) 0.72735(7)
C1 C 0.3659(3) 0.68459(11) 0.49516(9)
F2 F 0.6793(2) 0.94205(9) 0.42189(9)
F3 F 0.5481(2) 0.91575(9) 0.30073(7)
N1 N 0.5076(2) 0.64404(9) 0.55324(8)
F4 F 0.4210(2) 0.36580(10) 0.85363(7)
C2 C 0.4690(3) 0.55943(11) 0.59708(9)
F5 F 0.2989(2) 0.22571(9) 0.83092(8)
C3 C 0.4765(3) 0.77270(12) 0.46584(10)
C4 C 0.4087(3) 0.39602(12) 0.68584(10)
F6 F 0.3543(2) 0.99085(8) 0.38432(9)
C5 C 0.6917(3) 0.78548(14) 0.51574(12)
C6 C 0.2719(3) 0.50749(12) 0.58658(10)
C7 C 0.6344(3) 0.52734(13) 0.65296(11)
C8 C 0.2427(3) 0.42554(12) 0.63106(10)
C9 C 0.4963(4) 0.91885(13) 0.37853(12)
C10 C 0.6048(3) 0.44514(13) 0.69710(11)
C11 C 0.3011(3) 0.31277(14) 0.80120(11)
C12 C 0.7136(3) 0.69783(13) 0.56985(11)
C13 C 0.3930(3) 0.82807(13) 0.40618(11)
Cl1 Cl 0.14989(8) 0.80503(4) 0.34860(3)
H1 H 0.724(3) 0.7145(13) 0.6266(12)
H2 H 0.843(3) 0.6596(13) 0.5553(11)
H3 H 0.762(3) 0.5607(14) 0.6604(12)
H4 H 0.717(3) 0.4235(14) 0.7340(12)
H5 H 0.815(4) 0.7910(14) 0.4813(13)
H6 H 0.683(3) 0.8427(16) 0.5476(13)
H7 H 0.164(3) 0.5276(13) 0.5486(11)
H8 H 0.110(3) 0.3904(14) 0.6236(11)
loop_
_geom_bond_atom_site_label_1
_geom_bond_atom_site_label_2
_geom_bond_site_symmetry_1
_geom_bond_site_symmetry_2
O1 C1 1_555 1_555
F1 C11 1_555 1_555
O2 C4 1_555 1_555
C1 N1 1_555 1_555
F2 C9 1_555 1_555
F3 C9 1_555 1_555
N1 C2 1_555 1_555
F4 C11 1_555 1_555
C2 C6 1_555 1_555
F5 C11 1_555 1_555
C3 C1 1_555 1_555
C4 C8 1_555 1_555
F6 C9 1_555 1_555
C5 C3 1_555 1_555
C6 C8 1_555 1_555
C7 C2 1_555 1_555
C8 H8 1_555 1_555
C9 C13 1_555 1_555
C10 C4 1_555 1_555
C11 O2 1_555 1_555
C12 N1 1_555 1_555
C13 C3 1_555 1_555
Cl1 C13 1_555 1_555
H1 C12 1_555 1_555
H2 C12 1_555 1_555
H3 C7 1_555 1_555
H4 C10 1_555 1_555
H5 C5 1_555 1_555
H6 C5 1_555 1_555
H7 C6 1_555 1_555
C5 C12 1_555 1_555
C7 C10 1_555 1_555

#END
