
#######################################################################
#
#                 Cambridge Crystallographic Data Centre
#                                CCDC 
#
#######################################################################
#
# If this CIF has been generated from an entry in the Cambridge 
# Structural Database, then it will include bibliographic, chemical, 
# crystal, experimental, refinement or atomic coordinate data resulting 
# from the CCDC's data processing and validation procedures.
#
#######################################################################

data_YICZAN
_chemical_formula_moiety         'C23 H15 Cl1 N2 O5'
_chemical_name_systematic        
2-(1-(3-Chlorophenyl)-3-oxo-3-phenylpropyl)-5-nitro-1H-isoindole-1,3(2H)-dione
_symmetry_cell_setting           monoclinic
_symmetry_space_group_name_H-M   'P 21'
_symmetry_Int_Tables_number      4
_space_group_name_Hall           'P 2yb'
loop_
_symmetry_equiv_pos_site_id
_symmetry_equiv_pos_as_xyz
1 x,y,z
2 -x,1/2+y,-z
_cell_length_a                   5.9139(18)
_cell_length_b                   18.664(6)
_cell_length_c                   8.834(3)
_cell_angle_alpha                90
_cell_angle_beta                 93.314(5)
_cell_angle_gamma                90
_cell_volume                     973.44
_exptl_crystal_colour            colorless
_exptl_crystal_description       Prism
_cell_formula_units_Z            2
loop_
_atom_site_label
_atom_site_type_symbol
_atom_site_fract_x
_atom_site_fract_y
_atom_site_fract_z
Cl1 Cl 1.27560(8) 0.61632(2) -0.53375(5)
O1 O 1.3836(2) 0.46066(6) -0.00185(14)
O2 O 0.68776(19) 0.60520(6) 0.19718(13)
O3 O 1.3205(2) 0.71641(6) 0.03165(14)
O4 O 0.4030(2) 0.84787(7) 0.47950(15)
O5 O 0.6480(2) 0.93470(7) 0.49295(15)
N1 N 1.0259(2) 0.64360(7) 0.09973(15)
N2 N 0.5822(3) 0.87557(9) 0.44725(16)
C1 C 1.0160(3) 0.36248(10) 0.2399(2)
H1 H 0.9011 0.3972 0.2526
C2 C 0.9985(3) 0.29525(10) 0.3046(2)
H2 H 0.8708 0.2839 0.3606
C3 C 1.1646(3) 0.24487(10) 0.2885(2)
H3 H 1.1525 0.1991 0.3346
C4 C 1.3493(3) 0.26055(10) 0.2053(2)
H4 H 1.4640 0.2256 0.1940
C5 C 1.3666(3) 0.32728(9) 0.1386(2)
H5 H 1.4926 0.3376 0.0803
C6 C 1.2016(3) 0.37944(9) 0.15594(19)
C7 C 1.2344(3) 0.45069(10) 0.08523(19)
C8 C 1.0818(3) 0.51137(9) 0.12968(19)
H6 H 1.1133 0.5230 0.2382
H7 H 0.9216 0.4961 0.1156
C9 C 1.1194(3) 0.57822(9) 0.03362(18)
H8 H 1.2870 0.5854 0.0336
C10 C 1.0348(3) 0.57014(9) -0.13148(18)
C11 C 0.8194(3) 0.54404(9) -0.1727(2)
H9 H 0.7209 0.5304 -0.0966
C12 C 0.7483(3) 0.53788(9) -0.3242(2)
H10 H 0.6020 0.5192 -0.3511
C13 C 0.8881(3) 0.55857(9) -0.4371(2)
H11 H 0.8394 0.5543 -0.5411
C14 C 1.0992(3) 0.58544(9) -0.39491(19)
C15 C 1.1750(3) 0.59130(8) -0.24408(18)
H12 H 1.3219 0.6097 -0.2179
C16 C 1.1433(3) 0.70867(9) 0.09137(19)
C17 C 1.0114(3) 0.76247(9) 0.17372(18)
C18 C 1.0575(3) 0.83384(10) 0.20149(19)
H13 H 1.1840 0.8568 0.1610
C19 C 0.9113(3) 0.87063(10) 0.2912(2)
H14 H 0.9374 0.9197 0.3146
C20 C 0.7279(3) 0.83554(10) 0.34615(19)
C21 C 0.6759(3) 0.76392(9) 0.31596(19)
H15 H 0.5472 0.7412 0.3540
C22 C 0.8242(3) 0.72819(9) 0.22696(19)
C23 C 0.8263(3) 0.65173(9) 0.17650(18)
loop_
_geom_bond_atom_site_label_1
_geom_bond_atom_site_label_2
_geom_bond_site_symmetry_1
_geom_bond_site_symmetry_2
Cl1 C14 1_555 1_555
O1 C7 1_555 1_555
O2 C23 1_555 1_555
O3 C16 1_555 1_555
O4 N2 1_555 1_555
O5 N2 1_555 1_555
N1 C9 1_555 1_555
N2 C20 1_555 1_555
C1 H1 1_555 1_555
C2 C1 1_555 1_555
H2 C2 1_555 1_555
C3 C2 1_555 1_555
H3 C3 1_555 1_555
C4 C3 1_555 1_555
H4 C4 1_555 1_555
C5 C4 1_555 1_555
H5 C5 1_555 1_555
C6 C1 1_555 1_555
C7 C6 1_555 1_555
C8 C7 1_555 1_555
H6 C8 1_555 1_555
H7 C8 1_555 1_555
C9 C8 1_555 1_555
H8 C9 1_555 1_555
C10 C9 1_555 1_555
C11 C10 1_555 1_555
H9 C11 1_555 1_555
C12 C11 1_555 1_555
H10 C12 1_555 1_555
C13 C12 1_555 1_555
H11 C13 1_555 1_555
C14 C13 1_555 1_555
C15 C10 1_555 1_555
H12 C15 1_555 1_555
C16 N1 1_555 1_555
C17 C16 1_555 1_555
C18 C17 1_555 1_555
H13 C18 1_555 1_555
C19 C18 1_555 1_555
H14 C19 1_555 1_555
C20 C19 1_555 1_555
C21 C20 1_555 1_555
H15 C21 1_555 1_555
C22 C17 1_555 1_555
C23 N1 1_555 1_555
C5 C6 1_555 1_555
C14 C15 1_555 1_555
C21 C22 1_555 1_555
C22 C23 1_555 1_555

#END
