
#######################################################################
#
#                 Cambridge Crystallographic Data Centre
#                                CCDC 
#
#######################################################################
#
# If this CIF has been generated from an entry in the Cambridge 
# Structural Database, then it will include bibliographic, chemical, 
# crystal, experimental, refinement or atomic coordinate data resulting 
# from the CCDC's data processing and validation procedures.
#
#######################################################################

data_YIFVER
_chemical_formula_moiety         'C38 H46 B1 1-,C16 H32 Li1 O4 1+'
_chemical_name_systematic        
"tetrakis(tetrahydrofuran)-lithium (4,4'-di-t-butyl[1,1'-biphenyl]-2,2'-diyl)bis(2,4,6-trimethylphenyl)borate"
_symmetry_cell_setting           monoclinic
_symmetry_space_group_name_H-M   'P 21/n'
_symmetry_Int_Tables_number      14
_space_group_name_Hall           '-P 2yn'
loop_
_symmetry_equiv_pos_site_id
_symmetry_equiv_pos_as_xyz
1 x,y,z
2 1/2-x,1/2+y,1/2-z
3 -x,-y,-z
4 1/2+x,1/2-y,1/2+z
_cell_length_a                   14.6562(7)
_cell_length_b                   14.8668(9)
_cell_length_c                   22.8135(12)
_cell_angle_alpha                90
_cell_angle_beta                 93.859(4)
_cell_angle_gamma                90
_cell_volume                     4959.58
_exptl_crystal_colour            colorless
_exptl_crystal_description       needle
_cell_formula_units_Z            4
loop_
_atom_site_label
_atom_site_type_symbol
_atom_site_fract_x
_atom_site_fract_y
_atom_site_fract_z
B1 B 0.4918(2) 0.2388(2) 0.69945(14)
C1 C 0.44242(19) 0.26105(18) 0.76213(12)
C2 C 0.37239(19) 0.32488(18) 0.75214(12)
C3 C 0.3232(2) 0.3575(2) 0.79816(14)
H1 H 0.276383 0.400983 0.790718
C4 C 0.3432(2) 0.3259(2) 0.85436(13)
H2 H 0.308156 0.346655 0.885184
C5 C 0.4131(2) 0.26456(19) 0.86716(12)
C6 C 0.4632(2) 0.23525(19) 0.82077(13)
H3 H 0.513615 0.196119 0.829276
C7 C 0.4313(2) 0.2284(2) 0.92989(13)
C8 C 0.3576(3) 0.1612(3) 0.94252(18)
H4 H 0.357560 0.112114 0.913837
H5 H 0.369691 0.136820 0.982193
H6 H 0.297916 0.191119 0.939693
C9 C 0.4320(4) 0.3051(3) 0.97433(16)
H7 H 0.479791 0.348411 0.965936
H8 H 0.372358 0.335255 0.971554
H9 H 0.444133 0.280956 1.014055
C10 C 0.5242(3) 0.1821(3) 0.93829(17)
H10 H 0.572620 0.224919 0.930234
H11 H 0.533563 0.160437 0.978829
H12 H 0.526127 0.131040 0.911194
C11 C 0.42388(19) 0.30529(18) 0.65657(13)
C12 C 0.35926(19) 0.34860(18) 0.68959(12)
C13 C 0.2928(2) 0.4049(2) 0.66346(14)
H13 H 0.250079 0.433591 0.686848
C14 C 0.2885(2) 0.4194(2) 0.60336(14)
H14 H 0.243808 0.459224 0.585962
C15 C 0.3491(2) 0.3762(2) 0.56807(13)
C16 C 0.4144(2) 0.31843(19) 0.59560(13)
H15 H 0.454268 0.286650 0.571760
C17 C 0.3422(2) 0.3959(2) 0.50174(14)
C18 C 0.2464(3) 0.3755(3) 0.47512(17)
H16 H 0.201632 0.410059 0.495852
H17 H 0.242170 0.392278 0.433484
H18 H 0.233857 0.311116 0.478896
C19 C 0.4110(3) 0.3425(3) 0.46962(15)
H19 H 0.472784 0.355417 0.486660
H20 H 0.398287 0.278082 0.473398
H21 H 0.406600 0.359244 0.427987
C20 C 0.3606(3) 0.4971(3) 0.49349(18)
H22 H 0.316209 0.532179 0.514207
H23 H 0.422617 0.511482 0.509482
H24 H 0.354685 0.511873 0.451547
C21 C 0.60008(19) 0.26544(18) 0.71773(12)
C22 C 0.6569(2) 0.20277(18) 0.75038(13)
C23 C 0.7441(2) 0.2268(2) 0.77306(13)
H25 H 0.779523 0.183211 0.794873
C24 C 0.7816(2) 0.3105(2) 0.76550(14)
C25 C 0.7280(2) 0.3708(2) 0.73227(13)
H26 H 0.752255 0.428797 0.725162
C26 C 0.6400(2) 0.35058(18) 0.70873(12)
C27 C 0.6285(2) 0.10655(18) 0.76171(14)
H27 H 0.639731 0.069372 0.727458
H28 H 0.563299 0.104872 0.768713
H29 H 0.664200 0.083225 0.796290
C28 C 0.8753(2) 0.3351(3) 0.79274(18)
H30 H 0.875358 0.330581 0.835598
H31 H 0.890190 0.396841 0.781778
H32 H 0.920954 0.293781 0.778480
C29 C 0.5906(2) 0.4234(2) 0.67283(14)
H33 H 0.626215 0.479158 0.675895
H34 H 0.530272 0.433545 0.687724
H35 H 0.583248 0.404580 0.631607
C30 C 0.48151(19) 0.13840(18) 0.66852(12)
C31 C 0.5359(2) 0.11712(19) 0.62102(13)
C32 C 0.5266(2) 0.0345(2) 0.59180(13)
H36 H 0.563591 0.023274 0.559948
C33 C 0.4661(2) -0.0315(2) 0.60713(14)
C34 C 0.4134(2) -0.0115(2) 0.65334(14)
H37 H 0.371685 -0.055562 0.665567
C35 C 0.4189(2) 0.07120(19) 0.68295(13)
C36 C 0.6079(2) 0.1802(2) 0.59996(14)
H38 H 0.585916 0.242295 0.601632
H39 H 0.620092 0.165096 0.559406
H40 H 0.664339 0.173909 0.625221
C37 C 0.4571(3) -0.1205(2) 0.57523(16)
H41 H 0.495743 -0.120218 0.541821
H42 H 0.393162 -0.129816 0.561014
H43 H 0.476418 -0.169295 0.602177
C38 C 0.3540(2) 0.0837(2) 0.73102(15)
H44 H 0.387702 0.077672 0.769401
H45 H 0.305931 0.037830 0.727142
H46 H 0.326287 0.143595 0.727686
Li1 Li 0.4703(4) 0.6545(4) 0.8518(2)
O1 O 0.42907(18) 0.66352(16) 0.76963(10)
C39 C 0.4594(3) 0.5970(3) 0.72949(17)
H47 H 0.433019 0.537462 0.738012
H48 H 0.526903 0.592042 0.733076
C40 C 0.4272(3) 0.6275(3) 0.66860(16)
H49 H 0.472864 0.666825 0.651366
H50 H 0.413559 0.575771 0.642143
C41 C 0.3431(3) 0.6779(3) 0.68012(17)
H51 H 0.290679 0.636612 0.683447
H52 H 0.327566 0.722046 0.648505
C42 C 0.3677(3) 0.7250(3) 0.73812(17)
H53 H 0.398154 0.783236 0.731675
H54 H 0.312511 0.735751 0.759863
O2 O 0.56288(15) 0.55952(14) 0.85884(10)
C43 C 0.5583(3) 0.4648(2) 0.84205(18)
H55 H 0.560265 0.458144 0.798980
H56 H 0.501252 0.437009 0.854389
C44 C 0.6396(2) 0.4224(2) 0.87304(16)
H57 H 0.658398 0.367571 0.852378
H58 H 0.627799 0.406814 0.914025
C45 C 0.7106(2) 0.4952(3) 0.87101(19)
H59 H 0.755474 0.491229 0.905351
H60 H 0.743563 0.490898 0.834628
C46 C 0.6571(2) 0.5811(3) 0.8723(2)
H61 H 0.665231 0.609242 0.911601
H62 H 0.678453 0.623976 0.842920
O3 O 0.51580(17) 0.77531(15) 0.87449(11)
C47 C 0.6047(3) 0.8155(2) 0.87392(18)
H63 H 0.634444 0.798094 0.837887
H64 H 0.644043 0.795699 0.908519
C48 C 0.5902(4) 0.9158(3) 0.8756(2)
H65 H 0.601988 0.939491 0.915923
H66 H 0.630660 0.947131 0.849116
C49 C 0.4930(5) 0.9269(3) 0.8551(4)
H67 H 0.466512 0.980482 0.873298
H68 H 0.486455 0.933728 0.811808
C50 C 0.4479(3) 0.8454(3) 0.8731(2)
H69 H 0.424503 0.853365 0.912516
H70 H 0.395975 0.830188 0.844893
O4 O 0.37075(16) 0.62911(15) 0.90223(11)
C51 C 0.2868(3) 0.6733(3) 0.9088(2)
H71 H 0.250945 0.676211 0.870472
H72 H 0.298131 0.735552 0.922906
C52 C 0.2345(3) 0.6225(3) 0.95205(18)
H73 H 0.168853 0.618742 0.938970
H74 H 0.240846 0.651009 0.991330
C53 C 0.2785(3) 0.5310(3) 0.95301(18)
H75 H 0.278249 0.503681 0.992578
H76 H 0.246106 0.490366 0.924201
C54 C 0.3720(3) 0.5479(3) 0.9372(3)
H77 H 0.413176 0.555458 0.973060
H78 H 0.394263 0.496640 0.914413
loop_
_geom_bond_atom_site_label_1
_geom_bond_atom_site_label_2
_geom_bond_site_symmetry_1
_geom_bond_site_symmetry_2
B1 C1 1_555 1_555
C1 C2 1_555 1_555
C2 C3 1_555 1_555
C3 H1 1_555 1_555
C4 C3 1_555 1_555
H2 C4 1_555 1_555
C5 C4 1_555 1_555
C6 C1 1_555 1_555
H3 C6 1_555 1_555
C7 C5 1_555 1_555
C8 C7 1_555 1_555
H4 C8 1_555 1_555
H5 C8 1_555 1_555
H6 C8 1_555 1_555
C9 C7 1_555 1_555
H7 C9 1_555 1_555
H8 C9 1_555 1_555
H9 C9 1_555 1_555
C10 C7 1_555 1_555
H10 C10 1_555 1_555
H11 C10 1_555 1_555
H12 C10 1_555 1_555
C11 B1 1_555 1_555
C12 C2 1_555 1_555
C13 C12 1_555 1_555
H13 C13 1_555 1_555
C14 C13 1_555 1_555
H14 C14 1_555 1_555
C15 C14 1_555 1_555
C16 C11 1_555 1_555
H15 C16 1_555 1_555
C17 C15 1_555 1_555
C18 C17 1_555 1_555
H16 C18 1_555 1_555
H17 C18 1_555 1_555
H18 C18 1_555 1_555
C19 C17 1_555 1_555
H19 C19 1_555 1_555
H20 C19 1_555 1_555
H21 C19 1_555 1_555
C20 C17 1_555 1_555
H22 C20 1_555 1_555
H23 C20 1_555 1_555
H24 C20 1_555 1_555
C21 B1 1_555 1_555
C22 C21 1_555 1_555
C23 C22 1_555 1_555
H25 C23 1_555 1_555
C24 C23 1_555 1_555
C25 C24 1_555 1_555
H26 C25 1_555 1_555
C26 C21 1_555 1_555
C27 C22 1_555 1_555
H27 C27 1_555 1_555
H28 C27 1_555 1_555
H29 C27 1_555 1_555
C28 C24 1_555 1_555
H30 C28 1_555 1_555
H31 C28 1_555 1_555
H32 C28 1_555 1_555
C29 C26 1_555 1_555
H33 C29 1_555 1_555
H34 C29 1_555 1_555
H35 C29 1_555 1_555
C30 B1 1_555 1_555
C31 C30 1_555 1_555
C32 C31 1_555 1_555
H36 C32 1_555 1_555
C33 C32 1_555 1_555
C34 C33 1_555 1_555
H37 C34 1_555 1_555
C35 C30 1_555 1_555
C36 C31 1_555 1_555
H38 C36 1_555 1_555
H39 C36 1_555 1_555
H40 C36 1_555 1_555
C37 C33 1_555 1_555
H41 C37 1_555 1_555
H42 C37 1_555 1_555
H43 C37 1_555 1_555
C38 C35 1_555 1_555
H44 C38 1_555 1_555
H45 C38 1_555 1_555
H46 C38 1_555 1_555
Li1 O1 1_555 1_555
O1 C39 1_555 1_555
C39 H47 1_555 1_555
H48 C39 1_555 1_555
C40 C39 1_555 1_555
H49 C40 1_555 1_555
H50 C40 1_555 1_555
C41 C40 1_555 1_555
H51 C41 1_555 1_555
H52 C41 1_555 1_555
C42 O1 1_555 1_555
H53 C42 1_555 1_555
H54 C42 1_555 1_555
O2 Li1 1_555 1_555
C43 O2 1_555 1_555
H55 C43 1_555 1_555
H56 C43 1_555 1_555
C44 C43 1_555 1_555
H57 C44 1_555 1_555
H58 C44 1_555 1_555
C45 C44 1_555 1_555
H59 C45 1_555 1_555
H60 C45 1_555 1_555
C46 O2 1_555 1_555
H61 C46 1_555 1_555
H62 C46 1_555 1_555
O3 Li1 1_555 1_555
C47 O3 1_555 1_555
H63 C47 1_555 1_555
H64 C47 1_555 1_555
C48 C47 1_555 1_555
H65 C48 1_555 1_555
H66 C48 1_555 1_555
C49 C48 1_555 1_555
H67 C49 1_555 1_555
H68 C49 1_555 1_555
C50 O3 1_555 1_555
H69 C50 1_555 1_555
H70 C50 1_555 1_555
O4 Li1 1_555 1_555
C51 O4 1_555 1_555
H71 C51 1_555 1_555
H72 C51 1_555 1_555
C52 C51 1_555 1_555
H73 C52 1_555 1_555
H74 C52 1_555 1_555
C53 C52 1_555 1_555
H75 C53 1_555 1_555
H76 C53 1_555 1_555
C54 O4 1_555 1_555
H77 C54 1_555 1_555
H78 C54 1_555 1_555
C5 C6 1_555 1_555
C11 C12 1_555 1_555
C15 C16 1_555 1_555
C25 C26 1_555 1_555
C34 C35 1_555 1_555
C41 C42 1_555 1_555
C45 C46 1_555 1_555
C49 C50 1_555 1_555
C53 C54 1_555 1_555

#END
