
#######################################################################
#
#                 Cambridge Crystallographic Data Centre
#                                CCDC 
#
#######################################################################
#
# If this CIF has been generated from an entry in the Cambridge 
# Structural Database, then it will include bibliographic, chemical, 
# crystal, experimental, refinement or atomic coordinate data resulting 
# from the CCDC's data processing and validation procedures.
#
#######################################################################

data_YIFXOB
_chemical_formula_moiety         'C6 H8 N3 O1 1+,C7 H5 O6 S1 1-,H2 O1'
_chemical_name_systematic        
'4-(Hydrazinocarbonyl)pyridinium 3-carboxy-4-hydroxybenzenesulfonate monohydrate'
_symmetry_cell_setting           orthorhombic
_symmetry_space_group_name_H-M   'P b c a'
_symmetry_Int_Tables_number      61
_space_group_name_Hall           '-P 2ac 2ab'
loop_
_symmetry_equiv_pos_site_id
_symmetry_equiv_pos_as_xyz
1 x,y,z
2 1/2-x,-y,1/2+z
3 -x,1/2+y,1/2-z
4 1/2+x,1/2-y,-z
5 -x,-y,-z
6 1/2+x,y,1/2-z
7 x,1/2-y,1/2+z
8 1/2-x,1/2+y,z
_cell_length_a                   13.7628(8)
_cell_length_b                   13.0656(8)
_cell_length_c                   16.9752(10)
_cell_angle_alpha                90
_cell_angle_beta                 90
_cell_angle_gamma                90
_cell_volume                     3052.47
_exptl_crystal_colour            colorless
_exptl_crystal_description       plate
_cell_formula_units_Z            8
loop_
_atom_site_label
_atom_site_type_symbol
_atom_site_fract_x
_atom_site_fract_y
_atom_site_fract_z
C1 C 0.17378(17) 0.51847(17) 0.82574(12)
C2 C 0.27410(17) 0.52771(19) 0.83228(13)
H1 H 0.3121 0.5368 0.7875
C3 C 0.31671(19) 0.52328(19) 0.90534(14)
H2 H 0.3838 0.5285 0.9101
C4 C 0.16537(19) 0.5029(2) 0.96546(14)
H3 H 0.1292 0.4949 1.0113
C5 C 0.11965(18) 0.5060(2) 0.89398(14)
H4 H 0.0524 0.4997 0.8911
C6 C 0.11982(17) 0.51932(17) 0.74783(13)
N1 N 0.13200(16) 0.51270(19) 0.60756(12)
H8 H 0.0923(16) 0.5630(15) 0.6003(17)
H9 H 0.0998(18) 0.4563(13) 0.6098(17)
N2 N 0.17413(14) 0.52155(17) 0.68322(11)
H10 H 0.2359(8) 0.528(2) 0.6823(15)
N3 N 0.26167(17) 0.51140(17) 0.96953(11)
H11 H 0.2938(18) 0.509(2) 1.0131(10)
O1 O 0.03087(13) 0.51570(15) 0.74565(10)
C7 C 0.15251(16) 0.71604(18) 0.26384(13)
C8 C 0.24789(16) 0.72193(17) 0.29228(13)
C9 C 0.26353(16) 0.73103(18) 0.37378(14)
H5 H 0.3267 0.7349 0.3931
C10 C 0.18697(17) 0.73430(17) 0.42491(13)
H6 H 0.1981 0.7406 0.4787
C11 C 0.09111(16) 0.72820(17) 0.39610(12)
C12 C 0.07484(16) 0.71956(18) 0.31632(13)
H7 H 0.0115 0.7161 0.2974
C13 C 0.13520(18) 0.7073(2) 0.17783(13)
O2 O 0.20020(14) 0.70257(19) 0.12983(10)
O3 O 0.04337(14) 0.7035(2) 0.15867(10)
H12 H 0.036(3) 0.695(3) 0.1110(7)
O4 O 0.32670(13) 0.71925(15) 0.24516(10)
H13 H 0.306(2) 0.715(3) 0.2000(9)
O5 O -0.09471(12) 0.73591(16) 0.41419(10)
O6 O -0.00170(13) 0.63684(15) 0.50742(11)
O7 O 0.00528(12) 0.82175(14) 0.51056(9)
S1 S -0.00779(4) 0.73054(5) 0.46210(3)
O8 O 0.37530(13) 0.56058(16) 0.65203(11)
H14 H 0.381(2) 0.6196(12) 0.6353(18)
H15 H 0.4214(16) 0.543(2) 0.6807(16)
loop_
_geom_bond_atom_site_label_1
_geom_bond_atom_site_label_2
_geom_bond_site_symmetry_1
_geom_bond_site_symmetry_2
C1 C2 1_555 1_555
C2 H1 1_555 1_555
C3 C2 1_555 1_555
H2 C3 1_555 1_555
C4 H3 1_555 1_555
C5 C1 1_555 1_555
H4 C5 1_555 1_555
C6 C1 1_555 1_555
C7 C8 1_555 1_555
C8 C9 1_555 1_555
C9 H5 1_555 1_555
C10 C9 1_555 1_555
H6 C10 1_555 1_555
C11 C10 1_555 1_555
C12 C7 1_555 1_555
H7 C12 1_555 1_555
C13 C7 1_555 1_555
N1 H8 1_555 1_555
H9 N1 1_555 1_555
N2 C6 1_555 1_555
H10 N2 1_555 1_555
N3 C3 1_555 1_555
H11 N3 1_555 1_555
O1 C6 1_555 1_555
O2 C13 1_555 1_555
O3 C13 1_555 1_555
H12 O3 1_555 1_555
O4 C8 1_555 1_555
H13 O4 1_555 1_555
O5 S1 1_555 1_555
O6 S1 1_555 1_555
O7 S1 1_555 1_555
O8 H14 1_555 1_555
H15 O8 1_555 1_555
S1 C11 1_555 1_555
C4 C5 1_555 1_555
C4 N3 1_555 1_555
C11 C12 1_555 1_555
N1 N2 1_555 1_555

#END
