
#######################################################################
#
#                 Cambridge Crystallographic Data Centre
#                                CCDC 
#
#######################################################################
#
# If this CIF has been generated from an entry in the Cambridge 
# Structural Database, then it will include bibliographic, chemical, 
# crystal, experimental, refinement or atomic coordinate data resulting 
# from the CCDC's data processing and validation procedures.
#
#######################################################################

data_YIGGIF
_chemical_name_common            3-Deoxy-beta-D-glucopyranose
_chemical_formula_moiety         'C6 H12 O5'
_chemical_name_systematic        3-Deoxy-\b-D-ribo-hexopyranose
_symmetry_cell_setting           orthorhombic
_symmetry_space_group_name_H-M   'P 21 21 21'
_symmetry_Int_Tables_number      19
_space_group_name_Hall           'P 2ac 2ab'
loop_
_symmetry_equiv_pos_site_id
_symmetry_equiv_pos_as_xyz
1 x,y,z
2 1/2+x,1/2-y,-z
3 -x,1/2+y,1/2-z
4 1/2-x,-y,1/2+z
_cell_length_a                   7.4534(7)
_cell_length_b                   9.0663(8)
_cell_length_c                   10.6966(9)
_cell_angle_alpha                90
_cell_angle_beta                 90
_cell_angle_gamma                90
_cell_volume                     722.82
_exptl_crystal_description       needle
_cell_formula_units_Z            4
_exptl_crystal_recrystallization_method water
loop_
_atom_site_label
_atom_site_type_symbol
_atom_site_fract_x
_atom_site_fract_y
_atom_site_fract_z
O1 O 0.63868(12) 0.87513(11) 0.74343(9)
H1 H 0.7248 0.8295 0.7762
O2 O 0.47577(13) 0.94455(11) 0.98188(8)
H2 H 0.5690 0.9933 0.9664
O3 O -0.06991(12) 0.73601(11) 0.81886(9)
H3 H -0.0509 0.6827 0.8817
O4 O 0.37441(13) 0.78829(11) 0.67501(8)
O5 O 0.19681(13) 0.57721(11) 0.50954(9)
H4 H 0.1760 0.5864 0.4328
C1 C 0.47656(18) 0.81383(15) 0.78443(12)
H5 H 0.4991 0.7189 0.8294
C2 C 0.37792(18) 0.92197(15) 0.86930(12)
H6 H 0.3607 1.0181 0.8251
C3 C 0.19664(18) 0.85676(16) 0.90432(12)
H7 H 0.1275 0.9297 0.9535
H8 H 0.2148 0.7683 0.9570
C4 C 0.09067(17) 0.81441(15) 0.78725(12)
H9 H 0.0569 0.9066 0.7416
C5 C 0.20523(18) 0.71826(14) 0.70051(13)
H10 H 0.2268 0.6204 0.7409
C6 C 0.11368(18) 0.69546(15) 0.57620(12)
H11 H -0.0147 0.6725 0.5899
H12 H 0.1212 0.7871 0.5262
loop_
_geom_bond_atom_site_label_1
_geom_bond_atom_site_label_2
_geom_bond_site_symmetry_1
_geom_bond_site_symmetry_2
O1 H1 1_555 1_555
O2 H2 1_555 1_555
O3 H3 1_555 1_555
O4 C1 1_555 1_555
O5 H4 1_555 1_555
C1 O1 1_555 1_555
H5 C1 1_555 1_555
C2 O2 1_555 1_555
H6 C2 1_555 1_555
C3 C2 1_555 1_555
H7 C3 1_555 1_555
H8 C3 1_555 1_555
C4 O3 1_555 1_555
H9 C4 1_555 1_555
C5 O4 1_555 1_555
H10 C5 1_555 1_555
C6 O5 1_555 1_555
H11 C6 1_555 1_555
H12 C6 1_555 1_555
C1 C2 1_555 1_555
C3 C4 1_555 1_555
C4 C5 1_555 1_555
C5 C6 1_555 1_555

#END
