
#######################################################################
#
#                 Cambridge Crystallographic Data Centre
#                                CCDC 
#
#######################################################################
#
# If this CIF has been generated from an entry in the Cambridge 
# Structural Database, then it will include bibliographic, chemical, 
# crystal, experimental, refinement or atomic coordinate data resulting 
# from the CCDC's data processing and validation procedures.
#
#######################################################################

data_YIGQAH
_chemical_formula_moiety         'C12 H19 N4 O2 1+,C24 H20 B1 1-'
_chemical_name_systematic        
'N,N,N-trimethyl-2-oxo-2-[2-(phenylcarbamoyl)hydrazino]ethanaminium tetraphenylborate'
_symmetry_cell_setting           monoclinic
_symmetry_space_group_name_H-M   'P 21/n'
_symmetry_Int_Tables_number      14
_space_group_name_Hall           '-P 2yn'
loop_
_symmetry_equiv_pos_site_id
_symmetry_equiv_pos_as_xyz
1 x,y,z
2 1/2-x,1/2+y,1/2-z
3 -x,-y,-z
4 1/2+x,1/2-y,1/2+z
_cell_length_a                   12.7145(17)
_cell_length_b                   15.8471(17)
_cell_length_c                   15.7636(15)
_cell_angle_alpha                90
_cell_angle_beta                 100.298(9)
_cell_angle_gamma                90
_cell_volume                     3125.01
_exptl_crystal_colour            colorless
_exptl_crystal_description       prism
_cell_formula_units_Z            4
loop_
_atom_site_label
_atom_site_type_symbol
_atom_site_fract_x
_atom_site_fract_y
_atom_site_fract_z
N1 N 0.18390(11) -0.16733(9) -0.04879(10)
N2 N 0.15341(14) 0.06269(10) -0.08008(10)
H1 H 0.0987(18) 0.0617(14) -0.1269(15)
N3 N 0.18428(16) 0.14115(10) -0.04644(10)
H2 H 0.245(2) 0.1609(15) -0.0603(15)
N4 N 0.20547(14) 0.23444(11) 0.06461(11)
H3 H 0.2452(17) 0.2595(13) 0.0327(13)
O1 O 0.27346(11) -0.00798(9) 0.01493(10)
O2 O 0.09145(10) 0.12338(8) 0.06216(9)
C1 C 0.1540(2) -0.16836(18) 0.03923(14)
H4 H 0.074(2) -0.1532(13) 0.0327(14)
H5 H 0.169(2) -0.2238(18) 0.0625(16)
H6 H 0.193(2) -0.1260(16) 0.0739(16)
C2 C 0.30092(18) -0.18407(19) -0.0425(2)
H7 H 0.3149(17) -0.2415(16) -0.0196(14)
H8 H 0.3169(18) -0.1808(14) -0.0996(16)
H9 H 0.337(2) -0.1411(18) -0.0022(17)
C3 C 0.1232(2) -0.23618(14) -0.10171(16)
H10 H 0.1435(18) -0.2908(15) -0.0765(14)
H11 H 0.1413(16) -0.2319(13) -0.1595(14)
H12 H 0.0499(19) -0.2257(13) -0.1013(13)
C4 C 0.15231(16) -0.08548(11) -0.09296(13)
H13 H 0.0786(15) -0.0823(11) -0.0987(11)
H14 H 0.1749(14) -0.0883(11) -0.1466(13)
C5 C 0.20039(14) -0.00799(12) -0.04580(11)
C6 C 0.15634(14) 0.16288(11) 0.03053(12)
C7 C 0.17947(13) 0.27858(11) 0.13601(11)
C8 C 0.15865(16) 0.23703(13) 0.20796(12)
H15 H 0.1598(16) 0.1784(14) 0.2087(13)
C9 C 0.13064(19) 0.28246(14) 0.27458(13)
H16 H 0.1106(16) 0.2531(13) 0.3204(14)
C10 C 0.1258(2) 0.36875(14) 0.27176(14)
H17 H 0.1030(17) 0.4021(14) 0.3180(14)
C11 C 0.1497(2) 0.40983(14) 0.20129(15)
H18 H 0.148(2) 0.4706(17) 0.1985(16)
C12 C 0.17622(18) 0.36562(13) 0.13324(15)
H19 H 0.1945(18) 0.3919(14) 0.0820(15)
B1 B 0.22790(15) -0.03603(11) 0.64335(12)
C13 C 0.33564(12) -0.05322(10) 0.71652(10)
C14 C 0.35899(15) -0.01136(12) 0.79502(11)
H20 H 0.3093(15) 0.0307(12) 0.8115(11)
C15 C 0.45234(17) -0.02617(14) 0.85470(14)
H21 H 0.4668(19) 0.0062(15) 0.9110(17)
C16 C 0.52613(17) -0.08322(14) 0.83685(15)
H22 H 0.593(2) -0.0965(15) 0.8766(15)
C17 C 0.50672(15) -0.12606(13) 0.76006(15)
H23 H 0.5564(17) -0.1673(13) 0.7444(13)
C18 C 0.41289(14) -0.11165(11) 0.70131(13)
H24 H 0.4010(14) -0.1438(11) 0.6475(12)
C19 C 0.13786(13) 0.01843(10) 0.68315(10)
C20 C 0.15156(16) 0.10565(11) 0.69819(11)
H25 H 0.2176(15) 0.1316(11) 0.6859(11)
C21 C 0.07672(19) 0.15522(13) 0.72798(13)
H26 H 0.0925(18) 0.2164(15) 0.7387(14)
C22 C -0.01661(18) 0.12050(15) 0.74403(13)
H27 H -0.0692(16) 0.1565(13) 0.7648(13)
C23 C -0.03284(17) 0.03516(15) 0.73149(14)
H28 H -0.0974(18) 0.0105(13) 0.7438(14)
C24 C 0.04355(14) -0.01405(12) 0.70204(12)
H29 H 0.0283(15) -0.0759(13) 0.6945(12)
C25 C 0.25906(13) 0.01869(10) 0.56278(10)
C26 C 0.36245(15) 0.03238(11) 0.54896(13)
H30 H 0.4188(15) 0.0125(11) 0.5890(12)
C27 C 0.38552(18) 0.07495(12) 0.47731(13)
H31 H 0.4614(18) 0.0841(13) 0.4689(14)
C28 C 0.3039(2) 0.10586(12) 0.41619(13)
H32 H 0.3195(16) 0.1330(13) 0.3642(14)
C29 C 0.20062(19) 0.09648(12) 0.42876(12)
H33 H 0.1418(19) 0.1205(14) 0.3839(15)
C30 C 0.17879(16) 0.05469(11) 0.50040(12)
H34 H 0.1038(15) 0.0497(11) 0.5105(11)
C31 C 0.17454(12) -0.12753(10) 0.60870(10)
C32 C 0.11623(13) -0.14207(11) 0.52610(11)
H35 H 0.1124(13) -0.0967(11) 0.4836(11)
C33 C 0.06457(14) -0.21777(12) 0.50204(13)
H36 H 0.0282(16) -0.2261(12) 0.4432(13)
C34 C 0.06848(14) -0.28261(12) 0.55994(14)
H37 H 0.0342(15) -0.3364(12) 0.5449(12)
C35 C 0.12507(15) -0.27167(12) 0.64246(13)
H38 H 0.1287(14) -0.3164(12) 0.6834(12)
C36 C 0.17712(14) -0.19609(11) 0.66484(12)
H39 H 0.2163(15) -0.1902(11) 0.7229(13)
loop_
_geom_bond_atom_site_label_1
_geom_bond_atom_site_label_2
_geom_bond_site_symmetry_1
_geom_bond_site_symmetry_2
N1 C1 1_555 1_555
N2 H1 1_555 1_555
N3 N2 1_555 1_555
H2 N3 1_555 1_555
N4 H3 1_555 1_555
O1 C5 1_555 1_555
O2 C6 1_555 1_555
B1 C13 1_555 1_555
C1 H4 1_555 1_555
H5 C1 1_555 1_555
H6 C1 1_555 1_555
C2 N1 1_555 1_555
H7 C2 1_555 1_555
H8 C2 1_555 1_555
H9 C2 1_555 1_555
C3 N1 1_555 1_555
H10 C3 1_555 1_555
H11 C3 1_555 1_555
H12 C3 1_555 1_555
C4 N1 1_555 1_555
H13 C4 1_555 1_555
H14 C4 1_555 1_555
C5 N2 1_555 1_555
C6 N3 1_555 1_555
C7 N4 1_555 1_555
C8 C7 1_555 1_555
H15 C8 1_555 1_555
C9 C8 1_555 1_555
H16 C9 1_555 1_555
C10 C9 1_555 1_555
H17 C10 1_555 1_555
C11 C10 1_555 1_555
H18 C11 1_555 1_555
C12 C7 1_555 1_555
H19 C12 1_555 1_555
C13 C14 1_555 1_555
C14 H20 1_555 1_555
C15 C14 1_555 1_555
H21 C15 1_555 1_555
C16 C15 1_555 1_555
H22 C16 1_555 1_555
C17 C16 1_555 1_555
H23 C17 1_555 1_555
C18 C13 1_555 1_555
H24 C18 1_555 1_555
C19 B1 1_555 1_555
C20 C19 1_555 1_555
H25 C20 1_555 1_555
C21 C20 1_555 1_555
H26 C21 1_555 1_555
C22 C21 1_555 1_555
H27 C22 1_555 1_555
C23 C22 1_555 1_555
H28 C23 1_555 1_555
C24 C19 1_555 1_555
H29 C24 1_555 1_555
C25 B1 1_555 1_555
C26 C25 1_555 1_555
H30 C26 1_555 1_555
C27 C26 1_555 1_555
H31 C27 1_555 1_555
C28 C27 1_555 1_555
H32 C28 1_555 1_555
C29 C28 1_555 1_555
H33 C29 1_555 1_555
C30 C25 1_555 1_555
H34 C30 1_555 1_555
C31 B1 1_555 1_555
C32 C31 1_555 1_555
H35 C32 1_555 1_555
C33 C32 1_555 1_555
H36 C33 1_555 1_555
C34 C33 1_555 1_555
H37 C34 1_555 1_555
C35 C34 1_555 1_555
H38 C35 1_555 1_555
C36 C31 1_555 1_555
H39 C36 1_555 1_555
N4 C6 1_555 1_555
C4 C5 1_555 1_555
C11 C12 1_555 1_555
C17 C18 1_555 1_555
C23 C24 1_555 1_555
C29 C30 1_555 1_555
C35 C36 1_555 1_555

#END
