
#######################################################################
#
#                 Cambridge Crystallographic Data Centre
#                                CCDC 
#
#######################################################################
#
# If this CIF has been generated from an entry in the Cambridge 
# Structural Database, then it will include bibliographic, chemical, 
# crystal, experimental, refinement or atomic coordinate data resulting 
# from the CCDC's data processing and validation procedures.
#
#######################################################################

data_YIHBEX
_chemical_formula_moiety         'C29 H37 B1 P1 1+,I1 1-,2(C1 H1 Cl3)'
_chemical_name_systematic        
'5,5-Dimethyl-10-(2,4,6-tri-isopropylphenyl)-5,10-dihydrophenophosphaborinin-5-ium iodide chloroform solvate'
_symmetry_cell_setting           triclinic
_symmetry_space_group_name_H-M   'P -1'
_symmetry_Int_Tables_number      2
_space_group_name_Hall           '-P 1'
loop_
_symmetry_equiv_pos_site_id
_symmetry_equiv_pos_as_xyz
1 x,y,z
2 -x,-y,-z
_cell_length_a                   8.429(4)
_cell_length_b                   13.259(6)
_cell_length_c                   17.080(8)
_cell_angle_alpha                105.475(5)
_cell_angle_beta                 94.910(5)
_cell_angle_gamma                102.703(5)
_cell_volume                     1773.38
_cell_formula_units_Z            2
_exptl_crystal_recrystallization_method chloroform/ethanol
loop_
_atom_site_label
_atom_site_type_symbol
_atom_site_fract_x
_atom_site_fract_y
_atom_site_fract_z
P1 P 0.17320(7) 0.91997(4) 0.14845(3)
C1 C 0.4081(3) 0.77502(16) 0.33932(13)
C2 C 0.5315(3) 0.71814(17) 0.33364(13)
C3 C 0.3443(3) 0.80017(16) 0.41331(13)
C4 C 0.4062(3) 0.77236(17) 0.48031(14)
H1 H 0.3625 0.7907 0.5302
C5 C 0.4409(3) 0.92604(17) 0.25700(13)
C6 C 0.5991(3) 0.97731(18) 0.30033(14)
H2 H 0.6462 0.9453 0.3369
C7 C 0.5318(3) 0.71773(17) 0.47627(13)
C8 C 0.4648(3) 1.07764(18) 0.19764(14)
H3 H 0.4173 1.1123 0.1633
C9 C 0.1994(3) 0.74063(17) 0.19773(13)
C10 C 0.0671(3) 0.8095(2) 0.45940(16)
H4 H 0.1082 0.8202 0.5172
H5 H 0.0270 0.7319 0.4310
H6 H -0.0231 0.8446 0.4560
C11 C 0.5903(3) 0.69040(17) 0.40189(13)
H7 H 0.6730 0.6516 0.3973
C12 C 0.6222(3) 1.12430(18) 0.24064(15)
H8 H 0.6837 1.1907 0.2353
C13 C 0.1616(3) 0.94689(19) 0.05138(14)
H9 H 0.2504 0.9252 0.0230
H10 H 0.1730 1.0244 0.0600
H11 H 0.0551 0.9059 0.0179
C14 C -0.0008(3) 0.70897(18) 0.07555(14)
H12 H -0.0507 0.7361 0.0363
B1 B 0.3466(3) 0.8135(2) 0.26502(15)
C15 C 0.0295(3) 0.97859(19) 0.20459(16)
H13 H 0.0555 1.0564 0.2110
H14 H 0.0366 0.9670 0.2590
H15 H -0.0822 0.9445 0.1746
C16 C 0.3761(3) 0.97935(17) 0.20496(13)
C17 C 0.1422(3) 0.63044(18) 0.19143(14)
H16 H 0.1884 0.6027 0.2314
C18 C -0.0511(3) 0.60045(18) 0.07073(14)
H17 H -0.1347 0.5529 0.0277
C19 C 0.2062(3) 0.85903(18) 0.41871(14)
H18 H 0.1585 0.8519 0.3613
C20 C 0.6899(3) 1.07385(18) 0.29154(14)
H19 H 0.7986 1.1053 0.3205
C21 C 0.5986(3) 0.68595(19) 0.25343(14)
H20 H 0.5466 0.7176 0.2141
C22 C 0.0202(3) 0.56098(18) 0.12861(14)
H21 H -0.0144 0.4865 0.1252
C23 C 0.1232(3) 0.77826(17) 0.13808(13)
C24 C 0.2737(3) 0.9793(2) 0.46300(18)
H22 H 0.1831 1.0149 0.4666
H23 H 0.3533 1.0116 0.4324
H24 H 0.3281 0.9888 0.5185
C25 C 0.7858(3) 0.7319(2) 0.26447(16)
H25 H 0.8140 0.8092 0.2944
H26 H 0.8214 0.7220 0.2104
H27 H 0.8412 0.6939 0.2956
C26 C 0.5525(3) 0.5632(2) 0.21520(15)
H28 H 0.5928 0.5293 0.2546
H29 H 0.6027 0.5450 0.1653
H30 H 0.4326 0.5367 0.2012
C27 C 0.6009(3) 0.68870(18) 0.54957(14)
H31 H 0.6730 0.6396 0.5298
C28 C 0.4677(3) 0.6281(2) 0.58835(15)
H32 H 0.3986 0.6757 0.6113
H33 H 0.5201 0.6060 0.6323
H34 H 0.3995 0.5639 0.5462
C29 C 0.7085(3) 0.7889(2) 0.61501(15)
H35 H 0.8007 0.8226 0.5916
H36 H 0.7509 0.7677 0.6618
H37 H 0.6426 0.8407 0.6336
Cl1 Cl 0.68790(9) 1.27664(6) 0.07866(4)
Cl2 Cl 0.41562(9) 1.13902(6) -0.04561(5)
Cl3 Cl 0.51574(11) 1.36803(6) -0.02711(5)
C31 C 0.4959(3) 1.2694(2) 0.02499(16)
H39 H 0.4181 1.2828 0.0653
I1 I 0.140922(19) 0.257700(12) 0.144124(9)
Cl4 Cl 0.96797(8) 0.35365(6) 0.41542(4)
Cl5 Cl 1.20224(9) 0.52042(6) 0.37674(5)
Cl6 Cl 0.86475(9) 0.45614(7) 0.29735(5)
C30 C 1.0269(3) 0.41255(19) 0.33817(15)
H38 H 1.0542 0.3566 0.2930
loop_
_geom_bond_atom_site_label_1
_geom_bond_atom_site_label_2
_geom_bond_site_symmetry_1
_geom_bond_site_symmetry_2
P1 C13 1_555 1_555
Cl1 C31 1_555 1_555
Cl2 C31 1_555 1_555
Cl3 C31 1_555 1_555
C1 C2 1_555 1_555
C2 C11 1_555 1_555
C3 C1 1_555 1_555
C4 C3 1_555 1_555
H1 C4 1_555 1_555
C5 C6 1_555 1_555
C6 H2 1_555 1_555
C7 C4 1_555 1_555
C8 H3 1_555 1_555
C9 B1 1_555 1_555
C10 H4 1_555 1_555
H5 C10 1_555 1_555
H6 C10 1_555 1_555
C11 C7 1_555 1_555
H7 C11 1_555 1_555
C12 C8 1_555 1_555
H8 C12 1_555 1_555
C13 H9 1_555 1_555
H10 C13 1_555 1_555
H11 C13 1_555 1_555
C14 H12 1_555 1_555
B1 C1 1_555 1_555
C15 P1 1_555 1_555
H13 C15 1_555 1_555
H14 C15 1_555 1_555
H15 C15 1_555 1_555
C16 P1 1_555 1_555
C17 C9 1_555 1_555
H16 C17 1_555 1_555
C18 C14 1_555 1_555
H17 C18 1_555 1_555
C19 C3 1_555 1_555
H18 C19 1_555 1_555
C20 C6 1_555 1_555
H19 C20 1_555 1_555
C21 C2 1_555 1_555
H20 C21 1_555 1_555
C22 C17 1_555 1_555
H21 C22 1_555 1_555
C23 P1 1_555 1_555
C24 C19 1_555 1_555
H22 C24 1_555 1_555
H23 C24 1_555 1_555
H24 C24 1_555 1_555
C25 C21 1_555 1_555
H25 C25 1_555 1_555
H26 C25 1_555 1_555
H27 C25 1_555 1_555
C26 C21 1_555 1_555
H28 C26 1_555 1_555
H29 C26 1_555 1_555
H30 C26 1_555 1_555
Cl4 C30 1_555 1_555
Cl5 C30 1_555 1_555
Cl6 C30 1_555 1_555
C27 C7 1_555 1_555
H31 C27 1_555 1_555
C28 C27 1_555 1_555
H32 C28 1_555 1_555
H33 C28 1_555 1_555
H34 C28 1_555 1_555
C29 C27 1_555 1_555
H35 C29 1_555 1_555
H36 C29 1_555 1_555
H37 C29 1_555 1_555
C30 H38 1_555 1_555
C31 H39 1_555 1_555
C5 B1 1_555 1_555
C5 C16 1_555 1_555
C8 C16 1_555 1_555
C9 C23 1_555 1_555
C10 C19 1_555 1_555
C12 C20 1_555 1_555
C14 C23 1_555 1_555
C18 C22 1_555 1_555

#END
