
#######################################################################
#
#                 Cambridge Crystallographic Data Centre
#                                CCDC 
#
#######################################################################
#
# If this CIF has been generated from an entry in the Cambridge 
# Structural Database, then it will include bibliographic, chemical, 
# crystal, experimental, refinement or atomic coordinate data resulting 
# from the CCDC's data processing and validation procedures.
#
#######################################################################

data_YIHFIE
_chemical_formula_moiety         'C24 H16 O1 S1 Se2'
_chemical_name_systematic        
1-(Phenylseleninyl)-9-(phenylseleno)dibenzothiophene
_symmetry_cell_setting           monoclinic
_symmetry_space_group_name_H-M   'P 21/n'
_symmetry_Int_Tables_number      14
_space_group_name_Hall           '-P 2yn'
loop_
_symmetry_equiv_pos_site_id
_symmetry_equiv_pos_as_xyz
1 x,y,z
2 1/2-x,1/2+y,1/2-z
3 -x,-y,-z
4 1/2+x,1/2-y,1/2+z
_cell_length_a                   10.063
_cell_length_b                   9.022
_cell_length_c                   21.981
_cell_angle_alpha                90
_cell_angle_beta                 93.50
_cell_angle_gamma                90
_cell_volume                     1991.9
_exptl_crystal_colour            colorless
_chemical_melting_point          '203 deg.C'
_cell_formula_units_Z            4
loop_
_atom_site_label
_atom_site_type_symbol
_atom_site_fract_x
_atom_site_fract_y
_atom_site_fract_z
Se1 Se 0.26808(5) 0.15036(5) 0.95487(2)
Se2 Se 0.52621(5) 0.03147(5) 0.90338(2)
S1 S 0.5899(1) 0.6387(1) 0.92133(6)
O1 O 0.1449(4) 0.1968(6) 1.0002(2)
C1 C 0.4339(6) 0.5598(5) 0.9060(2)
C2 C 0.3193(6) 0.6396(6) 0.8890(3)
C3 C 0.1973(7) 0.5696(7) 0.8827(4)
C4 C 0.1906(6) 0.4162(6) 0.8968(3)
C5 C 0.3052(5) 0.3373(5) 0.9145(2)
C6 C 0.4325(4) 0.4033(5) 0.9158(2)
C7 C 0.6584(5) 0.4672(5) 0.9390(2)
C8 C 0.7958(5) 0.4468(7) 0.9576(2)
C9 C 0.8391(5) 0.3043(7) 0.9643(3)
C10 C 0.7546(6) 0.1821(6) 0.9502(2)
C11 C 0.6206(5) 0.2018(6) 0.9331(2)
C12 C 0.5660(4) 0.3479(5) 0.9297(2)
C13 C 0.1684(5) 0.0584(6) 0.8855(3)
C14 C 0.0561(6) -0.0231(8) 0.8998(4)
C15 C -0.0191(8) -0.095(1) 0.8548(5)
C16 C 0.0184(9) -0.085(1) 0.7961(4)
C17 C 0.133(1) -0.004(1) 0.7806(5)
C18 C 0.2064(8) 0.0673(9) 0.8271(3)
C19 C 0.5832(5) 0.0198(6) 0.8219(3)
C20 C 0.5256(8) -0.0925(8) 0.7853(3)
C21 C 0.563(1) -0.111(1) 0.7271(4)
C22 C 0.6522(9) -0.016(1) 0.7028(3)
C23 C 0.7092(9) 0.093(1) 0.7378(4)
C24 C 0.6752(7) 0.1135(8) 0.7974(3)
H1 H 0.3252 0.7431 0.8819
H2 H 0.1199 0.6216 0.8680
H3 H 0.1063 0.3676 0.8953
H4 H 0.8533 0.5286 0.9656
H5 H 0.9291 0.2862 0.9775
H6 H 0.7903 0.0847 0.9526
H7 H 0.0315 -0.0290 0.9407
H8 H -0.0953 -0.1507 0.8637
H9 H -0.0335 -0.1328 0.7652
H10 H 0.1578 0.0009 0.7393
H11 H 0.2822 0.1246 0.8184
H12 H 0.4610 -0.1561 0.8014
H13 H 0.5257 -0.1904 0.7030
H14 H 0.6749 -0.0283 0.6613
H15 H 0.7737 0.1560 0.7214
H16 H 0.7136 0.1925 0.8211
loop_
_geom_bond_atom_site_label_1
_geom_bond_atom_site_label_2
_geom_bond_site_symmetry_1
_geom_bond_site_symmetry_2
Se1 O1 1_555 1_555
Se2 C11 1_555 1_555
S1 C1 1_555 1_555
C1 C2 1_555 1_555
C2 C3 1_555 1_555
C3 C4 1_555 1_555
C4 C5 1_555 1_555
C5 Se1 1_555 1_555
C6 C1 1_555 1_555
C7 S1 1_555 1_555
C8 C7 1_555 1_555
C9 C8 1_555 1_555
C10 C9 1_555 1_555
C11 C10 1_555 1_555
C12 C6 1_555 1_555
C13 Se1 1_555 1_555
C14 C13 1_555 1_555
C15 C14 1_555 1_555
C16 C15 1_555 1_555
C17 C16 1_555 1_555
C18 C13 1_555 1_555
C19 Se2 1_555 1_555
C20 C19 1_555 1_555
C21 C20 1_555 1_555
C22 C21 1_555 1_555
C23 C22 1_555 1_555
C24 C19 1_555 1_555
H1 C2 1_555 1_555
H2 C3 1_555 1_555
H3 C4 1_555 1_555
H4 C8 1_555 1_555
H5 C9 1_555 1_555
H6 C10 1_555 1_555
H7 C14 1_555 1_555
H8 C15 1_555 1_555
H9 C16 1_555 1_555
H10 C17 1_555 1_555
H11 C18 1_555 1_555
H12 C20 1_555 1_555
H13 C21 1_555 1_555
H14 C22 1_555 1_555
H15 C23 1_555 1_555
H16 C24 1_555 1_555
C5 C6 1_555 1_555
C7 C12 1_555 1_555
C11 C12 1_555 1_555
C17 C18 1_555 1_555
C23 C24 1_555 1_555

#END
