
#######################################################################
#
#                 Cambridge Crystallographic Data Centre
#                                CCDC 
#
#######################################################################
#
# If this CIF has been generated from an entry in the Cambridge 
# Structural Database, then it will include bibliographic, chemical, 
# crystal, experimental, refinement or atomic coordinate data resulting 
# from the CCDC's data processing and validation procedures.
#
#######################################################################

data_YIHPUD
_chemical_formula_moiety         'C17 H24 N1 O4 1+,C20 H17 O8 1-'
_chemical_name_systematic        
"(6S,2'R )-6-hydroxy-3-[(3-hydroxy-2-phenylpropanoyl)oxy]-8-methyl-8-azabicyclo[3.2.1]octan-8-ium 3-carboxy-2,3-bis[(4-methylbenzene-1-carbonyl)oxy]propanoate"
_symmetry_cell_setting           orthorhombic
_symmetry_space_group_name_H-M   'P 21 21 21'
_symmetry_Int_Tables_number      19
_space_group_name_Hall           'P 2ac 2ab'
loop_
_symmetry_equiv_pos_site_id
_symmetry_equiv_pos_as_xyz
1 x,y,z
2 1/2-x,-y,1/2+z
3 1/2+x,1/2-y,-z
4 -x,1/2+y,1/2-z
_cell_length_a                   7.84420(15)
_cell_length_b                   12.7698(3)
_cell_length_c                   35.3028(8)
_cell_angle_alpha                90
_cell_angle_beta                 90
_cell_angle_gamma                90
_cell_volume                     3536.24
_exptl_crystal_colour            'whiteish white'
_exptl_crystal_description       block
_cell_formula_units_Z            4
loop_
_atom_site_label
_atom_site_type_symbol
_atom_site_fract_x
_atom_site_fract_y
_atom_site_fract_z
O1 O 0.5016(4) 0.8623(2) 0.28359(8)
H1 H 0.414107 0.841188 0.293757
O2 O 0.9001(4) 0.6147(2) 0.29286(7)
O3 O 1.1632(4) 0.5557(3) 0.27830(9)
O4 O 1.1893(3) 0.7917(2) 0.30991(8)
H2 H 1.128275 0.835393 0.320210
N1 N 0.6189(4) 0.7353(3) 0.21417(9)
H3 H 0.620774 0.677950 0.195714
C1 C 0.8004(5) 0.7656(3) 0.22357(11)
H4 H 0.846426 0.813155 0.204309
C2 C 1.0658(5) 0.5941(3) 0.30085(12)
C3 C 0.9029(6) 0.6656(4) 0.22512(11)
H5 H 1.020669 0.682749 0.230709
H6 H 0.899958 0.632528 0.200387
C4 C 1.1122(5) 0.6256(3) 0.34071(11)
H7 H 1.010042 0.651077 0.353771
C5 C 0.8385(6) 0.5873(3) 0.25474(12)
H8 H 0.878515 0.516971 0.248131
C6 C 1.2417(5) 0.7155(3) 0.33711(11)
H9 H 1.255316 0.749069 0.361572
H10 H 1.351429 0.687086 0.329707
C7 C 0.6436(6) 0.5867(3) 0.25743(13)
H11 H 0.599235 0.538712 0.238537
H12 H 0.611248 0.559906 0.282120
C8 C 1.1853(5) 0.5322(3) 0.36240(12)
C9 C 0.5597(5) 0.6931(3) 0.25180(11)
H13 H 0.435206 0.686653 0.252327
C10 C 1.1076(5) 0.4354(3) 0.36081(12)
H14 H 1.008327 0.427636 0.346682
C11 C 0.6199(5) 0.7772(3) 0.27968(11)
H15 H 0.646006 0.746267 0.304419
C12 C 1.1738(5) 0.3490(4) 0.37976(12)
H16 H 1.119925 0.284344 0.377984
C13 C 0.7807(5) 0.8220(3) 0.26146(11)
H17 H 0.879157 0.809442 0.277438
H18 H 0.768954 0.896863 0.257583
C14 C 1.3203(6) 0.3599(4) 0.40131(14)
H19 H 1.364438 0.303056 0.414550
C15 C 0.5142(6) 0.8233(4) 0.19855(12)
H20 H 0.515050 0.880805 0.216057
H21 H 0.399089 0.799898 0.194807
H22 H 0.561231 0.845555 0.174777
C16 C 1.3988(8) 0.4548(4) 0.40282(18)
H23 H 1.497854 0.462217 0.417032
C17 C 1.3337(7) 0.5408(4) 0.38357(17)
H24 H 1.390171 0.604727 0.384874
O5 O 0.4571(3) 0.5717(3) 0.66222(8)
O6 O 0.5503(3) 0.4505(2) 0.62162(8)
H25 H 0.673(9) 0.485(5) 0.6244(19)
O7 O 0.2396(3) 0.38721(19) 0.60476(7)
O8 O 0.2989(4) 0.2385(2) 0.63652(7)
O9 O -0.0789(3) 0.4167(2) 0.66149(8)
O10 O -0.1722(3) 0.5373(2) 0.62081(7)
O11 O 0.1415(3) 0.57944(19) 0.59773(7)
O12 O 0.1006(4) 0.7435(2) 0.61931(8)
C18 C 0.2573(4) 0.4501(3) 0.63808(10)
H26 H 0.234019 0.407297 0.660531
C19 C 0.4363(4) 0.4967(3) 0.64097(10)
C20 C 0.2697(4) 0.2834(3) 0.60712(10)
C21 C 0.2642(5) 0.2347(3) 0.56904(10)
C22 C 0.3109(5) 0.1308(3) 0.56466(11)
H27 H 0.342832 0.091759 0.585724
C23 C 0.3104(6) 0.0848(4) 0.52926(12)
H28 H 0.345481 0.015600 0.526744
C24 C 0.2587(6) 0.1395(3) 0.49747(12)
C25 C 0.2090(6) 0.2435(4) 0.50194(12)
H29 H 0.172657 0.281636 0.480984
C26 C 0.2130(6) 0.2905(3) 0.53698(11)
H30 H 0.181139 0.360339 0.539362
C27 C 0.2590(8) 0.0891(4) 0.45871(13)
H31 H 0.346252 0.120510 0.443386
H32 H 0.150015 0.099402 0.446905
H33 H 0.280900 0.015507 0.461230
C28 C 0.1233(4) 0.5356(3) 0.63479(9)
H34 H 0.144303 0.589716 0.653917
C29 C -0.0566(4) 0.4910(3) 0.63973(10)
C30 C 0.1141(5) 0.6832(3) 0.59335(11)
C31 C 0.1063(5) 0.7105(3) 0.55244(10)
C32 C 0.0871(7) 0.8148(4) 0.54246(12)
H35 H 0.084257 0.865980 0.561206
C33 C 0.0721(7) 0.8433(4) 0.50489(13)
H36 H 0.055412 0.913512 0.498877
C34 C 0.0811(5) 0.7714(4) 0.47622(11)
C35 C 0.1048(7) 0.6669(4) 0.48630(12)
H37 H 0.112648 0.616389 0.467413
C36 C 0.1170(6) 0.6369(4) 0.52388(12)
H38 H 0.132494 0.566686 0.529931
C37 C 0.0698(6) 0.8033(4) 0.43521(12)
H39 H -0.006149 0.861831 0.432763
H40 H 0.027432 0.745669 0.420488
H41 H 0.180955 0.822640 0.426239
loop_
_geom_bond_atom_site_label_1
_geom_bond_atom_site_label_2
_geom_bond_site_symmetry_1
_geom_bond_site_symmetry_2
O1 H1 1_555 1_555
O2 C2 1_555 1_555
O3 C2 1_555 1_555
O4 H2 1_555 1_555
N1 H3 1_555 1_555
C1 N1 1_555 1_555
H4 C1 1_555 1_555
C2 C4 1_555 1_555
C3 C1 1_555 1_555
H5 C3 1_555 1_555
H6 C3 1_555 1_555
C4 H7 1_555 1_555
C5 O2 1_555 1_555
H8 C5 1_555 1_555
C6 O4 1_555 1_555
H9 C6 1_555 1_555
H10 C6 1_555 1_555
C7 C5 1_555 1_555
H11 C7 1_555 1_555
H12 C7 1_555 1_555
C8 C4 1_555 1_555
C9 N1 1_555 1_555
H13 C9 1_555 1_555
C10 C8 1_555 1_555
H14 C10 1_555 1_555
C11 O1 1_555 1_555
H15 C11 1_555 1_555
C12 C10 1_555 1_555
H16 C12 1_555 1_555
C13 C1 1_555 1_555
H17 C13 1_555 1_555
H18 C13 1_555 1_555
C14 C12 1_555 1_555
H19 C14 1_555 1_555
C15 N1 1_555 1_555
H20 C15 1_555 1_555
H21 C15 1_555 1_555
H22 C15 1_555 1_555
C16 C14 1_555 1_555
H23 C16 1_555 1_555
C17 C8 1_555 1_555
H24 C17 1_555 1_555
O5 C19 1_555 1_555
O6 H25 1_555 1_555
O7 C18 1_555 1_555
O8 C20 1_555 1_555
O9 C29 1_555 1_555
O10 C29 1_555 1_555
O11 C28 1_555 1_555
O12 C30 1_555 1_555
C18 H26 1_555 1_555
C19 O6 1_555 1_555
C20 O7 1_555 1_555
C21 C20 1_555 1_555
C22 C21 1_555 1_555
H27 C22 1_555 1_555
C23 C22 1_555 1_555
H28 C23 1_555 1_555
C24 C23 1_555 1_555
C25 C24 1_555 1_555
H29 C25 1_555 1_555
C26 C21 1_555 1_555
H30 C26 1_555 1_555
C27 C24 1_555 1_555
H31 C27 1_555 1_555
H32 C27 1_555 1_555
H33 C27 1_555 1_555
C28 C18 1_555 1_555
H34 C28 1_555 1_555
C29 C28 1_555 1_555
C30 O11 1_555 1_555
C31 C30 1_555 1_555
C32 C31 1_555 1_555
H35 C32 1_555 1_555
C33 C32 1_555 1_555
H36 C33 1_555 1_555
C34 C33 1_555 1_555
C35 C34 1_555 1_555
H37 C35 1_555 1_555
C36 C31 1_555 1_555
H38 C36 1_555 1_555
C37 C34 1_555 1_555
H39 C37 1_555 1_555
H40 C37 1_555 1_555
H41 C37 1_555 1_555
C3 C5 1_555 1_555
C4 C6 1_555 1_555
C7 C9 1_555 1_555
C9 C11 1_555 1_555
C11 C13 1_555 1_555
C16 C17 1_555 1_555
C18 C19 1_555 1_555
C25 C26 1_555 1_555
C35 C36 1_555 1_555

#END
