
#######################################################################
#
#                 Cambridge Crystallographic Data Centre
#                                CCDC 
#
#######################################################################
#
# If this CIF has been generated from an entry in the Cambridge 
# Structural Database, then it will include bibliographic, chemical, 
# crystal, experimental, refinement or atomic coordinate data resulting 
# from the CCDC's data processing and validation procedures.
#
#######################################################################

data_YIHTIU
_chemical_formula_moiety         'C18 H5 F5 S3'
_chemical_name_systematic        
2-(Pentafluorophenyl)thieno[2',3':4,5]thieno[3,2-b][1]benzothiophene
_symmetry_cell_setting           monoclinic
_symmetry_space_group_name_H-M   'P 21/c'
_symmetry_Int_Tables_number      14
_space_group_name_Hall           '-P 2ybc'
loop_
_symmetry_equiv_pos_site_id
_symmetry_equiv_pos_as_xyz
1 x,y,z
2 -x,1/2+y,1/2-z
3 -x,-y,-z
4 x,1/2-y,1/2+z
_cell_length_a                   8.1849(3)
_cell_length_b                   6.2142(2)
_cell_length_c                   29.0350(11)
_cell_angle_alpha                90
_cell_angle_beta                 93.943(2)
_cell_angle_gamma                90
_cell_volume                     1473.3
_exptl_crystal_colour            colorless
_exptl_crystal_description       block
_cell_formula_units_Z            4
loop_
_atom_site_label
_atom_site_type_symbol
_atom_site_fract_x
_atom_site_fract_y
_atom_site_fract_z
S1 S 0.93637(7) 1.19526(9) 0.150161(17)
S2 S 0.98811(7) 0.63962(8) 0.070679(17)
S3 S 0.73270(6) 1.18803(8) 0.025174(16)
F1 F 0.69438(17) 0.7183(2) -0.09831(4)
F2 F 0.52443(18) 0.8040(2) -0.17592(4)
F3 F 0.35836(18) 1.1804(2) -0.18785(5)
F4 F 0.37201(16) 1.4735(2) -0.11847(5)
F5 F 0.54008(17) 1.3925(2) -0.03939(4)
C1 C 1.0600(3) 1.0164(3) 0.18330(7)
C2 C 1.1313(3) 1.0551(4) 0.22706(7)
H1 H 1.1116 1.1832 0.2423
C3 C 1.2317(3) 0.9008(4) 0.24756(7)
H2 H 1.2821 0.9264 0.2767
C4 C 1.2596(3) 0.7067(4) 0.22559(8)
H3 H 1.3269 0.6039 0.2404
C5 C 1.1891(3) 0.6652(3) 0.18231(7)
H4 H 1.2085 0.5355 0.1677
C6 C 1.0869(2) 0.8224(3) 0.16039(6)
C7 C 1.0040(2) 0.8244(3) 0.11513(7)
C8 C 0.9234(2) 1.0134(3) 0.10495(7)
C9 C 0.8472(2) 1.0121(3) 0.05938(6)
C10 C 0.8715(2) 0.8222(3) 0.03726(7)
C11 C 0.7970(2) 0.8135(3) -0.00753(6)
H5 H 0.8015 0.6944 -0.0268
C12 C 0.7164(2) 1.0009(3) -0.01983(6)
C13 C 0.6257(2) 1.0495(3) -0.06389(6)
C14 C 0.6152(3) 0.9074(3) -0.10104(7)
C15 C 0.5270(3) 0.9484(4) -0.14205(7)
C16 C 0.4434(3) 1.1390(4) -0.14800(7)
C17 C 0.4513(3) 1.2855(4) -0.11325(7)
C18 C 0.5395(2) 1.2407(4) -0.07216(7)
loop_
_geom_bond_atom_site_label_1
_geom_bond_atom_site_label_2
_geom_bond_site_symmetry_1
_geom_bond_site_symmetry_2
S1 C1 1_555 1_555
S2 C7 1_555 1_555
S3 C9 1_555 1_555
F1 C14 1_555 1_555
F2 C15 1_555 1_555
F3 C16 1_555 1_555
F4 C17 1_555 1_555
F5 C18 1_555 1_555
C1 C2 1_555 1_555
C2 H1 1_555 1_555
C3 C2 1_555 1_555
H2 C3 1_555 1_555
C4 C3 1_555 1_555
H3 C4 1_555 1_555
C5 C4 1_555 1_555
H4 C5 1_555 1_555
C6 C1 1_555 1_555
C7 C6 1_555 1_555
C8 S1 1_555 1_555
C9 C8 1_555 1_555
C10 S2 1_555 1_555
C11 C10 1_555 1_555
H5 C11 1_555 1_555
C12 S3 1_555 1_555
C13 C12 1_555 1_555
C14 C13 1_555 1_555
C15 C14 1_555 1_555
C16 C15 1_555 1_555
C17 C16 1_555 1_555
C18 C13 1_555 1_555
C5 C6 1_555 1_555
C7 C8 1_555 1_555
C9 C10 1_555 1_555
C11 C12 1_555 1_555
C17 C18 1_555 1_555

#END
