
#######################################################################
#
#                 Cambridge Crystallographic Data Centre
#                                CCDC 
#
#######################################################################
#
# If this CIF has been generated from an entry in the Cambridge 
# Structural Database, then it will include bibliographic, chemical, 
# crystal, experimental, refinement or atomic coordinate data resulting 
# from the CCDC's data processing and validation procedures.
#
#######################################################################

data_YIJKIN
_chemical_formula_moiety         'C20 H13 Cl1 O1 Se1'
_chemical_name_systematic        
5-Chloro-2-phenyl-3-(phenylselanyl)-1-benzofuran
_symmetry_cell_setting           triclinic
_symmetry_space_group_name_H-M   'P -1'
_symmetry_Int_Tables_number      2
_space_group_name_Hall           '-P 1'
loop_
_symmetry_equiv_pos_site_id
_symmetry_equiv_pos_as_xyz
1 x,y,z
2 -x,-y,-z
_cell_length_a                   9.4752(10)
_cell_length_b                   9.7345(10)
_cell_length_c                   10.5538(11)
_cell_angle_alpha                63.692(2)
_cell_angle_beta                 71.369(2)
_cell_angle_gamma                75.086(2)
_cell_volume                     819.173
_exptl_crystal_colour            colorless
_exptl_crystal_description       Block
_cell_formula_units_Z            2
loop_
_atom_site_label
_atom_site_type_symbol
_atom_site_fract_x
_atom_site_fract_y
_atom_site_fract_z
Se1 Se 0.03919(3) 0.19849(3) 0.12506(3)
Cl1 Cl 0.32267(13) 0.75239(10) -0.01159(14)
O1 O 0.2999(2) 0.1156(2) 0.4035(2)
C1 C 0.3373(4) 0.1614(4) -0.0635(4)
H1 H 0.3761 0.1723 0.0017
C2 C 0.4325(4) 0.1376(4) -0.1839(4)
H2 H 0.5357 0.1330 -0.2000
C3 C 0.3761(4) 0.1208(4) -0.2803(4)
H3 H 0.4407 0.1033 -0.3606
C4 C 0.2216(4) 0.1301(4) -0.2566(4)
H4 H 0.1828 0.1200 -0.3222
C5 C 0.1262(4) 0.1538(4) -0.1380(4)
H5 H 0.0230 0.1597 -0.1231
C6 C 0.1828(3) 0.1690(3) -0.0402(3)
C7 C 0.1699(3) 0.1876(3) 0.2335(3)
C8 C 0.2131(3) 0.0676(3) 0.3509(3)
C9 C 0.1918(3) -0.0955(3) 0.4318(3)
C10 C 0.2382(4) -0.1822(4) 0.5607(4)
H6 H 0.2793 -0.1352 0.5979
C11 C 0.2240(5) -0.3368(4) 0.6337(4)
H7 H 0.2572 -0.3935 0.7190
C12 C 0.1605(5) -0.4100(4) 0.5817(5)
H8 H 0.1485 -0.5140 0.6325
C13 C 0.1163(6) -0.3239(5) 0.4533(6)
H9 H 0.0752 -0.3711 0.4162
C14 C 0.1316(5) -0.1689(4) 0.3784(5)
H10 H 0.1013 -0.1132 0.2915
C15 C 0.3135(3) 0.2676(3) 0.3152(3)
C16 C 0.2351(3) 0.3184(3) 0.2086(3)
C17 C 0.2347(4) 0.4711(4) 0.1050(4)
H11 H 0.1815 0.5091 0.0332
C18 C 0.3174(4) 0.5623(4) 0.1151(4)
C19 C 0.3950(4) 0.5090(4) 0.2231(5)
H12 H 0.4489 0.5750 0.2255
C20 C 0.3934(4) 0.3606(4) 0.3264(4)
H13 H 0.4435 0.3243 0.4003
loop_
_geom_bond_atom_site_label_1
_geom_bond_atom_site_label_2
_geom_bond_site_symmetry_1
_geom_bond_site_symmetry_2
Se1 C6 1_555 1_555
Cl1 C18 1_555 1_555
O1 C8 1_555 1_555
C1 H1 1_555 1_555
C2 C1 1_555 1_555
H2 C2 1_555 1_555
C3 C2 1_555 1_555
H3 C3 1_555 1_555
C4 C3 1_555 1_555
H4 C4 1_555 1_555
C5 C4 1_555 1_555
H5 C5 1_555 1_555
C6 C1 1_555 1_555
C7 Se1 1_555 1_555
C8 C7 1_555 1_555
C9 C8 1_555 1_555
C10 C9 1_555 1_555
H6 C10 1_555 1_555
C11 C10 1_555 1_555
H7 C11 1_555 1_555
C12 C11 1_555 1_555
H8 C12 1_555 1_555
C13 C12 1_555 1_555
H9 C13 1_555 1_555
C14 C9 1_555 1_555
H10 C14 1_555 1_555
C15 O1 1_555 1_555
C16 C7 1_555 1_555
C17 C16 1_555 1_555
H11 C17 1_555 1_555
C18 C17 1_555 1_555
C19 C18 1_555 1_555
H12 C19 1_555 1_555
C20 C15 1_555 1_555
H13 C20 1_555 1_555
C5 C6 1_555 1_555
C13 C14 1_555 1_555
C15 C16 1_555 1_555
C19 C20 1_555 1_555

#END
