
#######################################################################
#
#                 Cambridge Crystallographic Data Centre
#                                CCDC 
#
#######################################################################
#
# If this CIF has been generated from an entry in the Cambridge 
# Structural Database, then it will include bibliographic, chemical, 
# crystal, experimental, refinement or atomic coordinate data resulting 
# from the CCDC's data processing and validation procedures.
#
#######################################################################

data_YIJMUC
_chemical_formula_moiety         'C15 H16 N4 2+,2(Cl1 O4 1-),H2 O1'
_chemical_name_systematic        
'2-({3-[(pyridin-2-yl)methyl]-1H-imidazol-3-ium-1-yl}methyl)pyridin-1-ium diperchlorate monohydrate'
_symmetry_cell_setting           monoclinic
_symmetry_space_group_name_H-M   'P 21/c'
_symmetry_Int_Tables_number      14
_space_group_name_Hall           '-P 2ybc'
loop_
_symmetry_equiv_pos_site_id
_symmetry_equiv_pos_as_xyz
1 x,y,z
2 -x,1/2+y,1/2-z
3 -x,-y,-z
4 x,1/2-y,1/2+z
_cell_length_a                   10.5147(8)
_cell_length_b                   7.8390(6)
_cell_length_c                   24.4801(16)
_cell_angle_alpha                90
_cell_angle_beta                 101.418(2)
_cell_angle_gamma                90
_cell_volume                     1977.83
_exptl_crystal_colour            yellow
_exptl_crystal_description       Block
_cell_formula_units_Z            4
loop_
_atom_site_label
_atom_site_type_symbol
_atom_site_fract_x
_atom_site_fract_y
_atom_site_fract_z
Cl1 Cl 0.70721(5) 0.98024(7) 0.22807(2)
O1 O 0.82191(19) 1.0819(3) 0.23989(9)
O2 O 0.59497(19) 1.0885(3) 0.21889(8)
O3 O 0.7027(3) 0.8703(3) 0.27432(10)
O4 O 0.7107(2) 0.8820(3) 0.17958(9)
Cl2 Cl 0.72245(4) 0.67138(6) 0.460054(19)
O5 O 0.61975(14) 0.6052(2) 0.48523(6)
O6 O 0.74978(16) 0.8442(2) 0.47823(7)
O7 O 0.83568(15) 0.5682(2) 0.47680(7)
O8 O 0.68257(16) 0.6683(3) 0.40038(7)
N1 N 0.18324(17) -0.1067(2) 0.34656(7)
N2 N 0.45281(16) -0.0230(2) 0.39445(7)
N3 N 0.56029(16) 0.1895(2) 0.37146(7)
N4 N 0.85543(17) 0.3635(2) 0.33413(7)
H1 H 0.8178 0.4189 0.3040
C1 C -0.0095(2) -0.1987(3) 0.37608(12)
H2 H -0.1016 -0.2014 0.3697
C2 C 0.0537(2) -0.1131(3) 0.33975(10)
H3 H 0.0030 -0.0564 0.3086
C3 C 0.25212(19) -0.1892(3) 0.39061(9)
C4 C 0.3968(2) -0.1943(3) 0.39554(11)
H4 H 0.4366 -0.2515 0.4308
H5 H 0.4177 -0.2625 0.3644
C5 C 0.52405(19) 0.0296(3) 0.35873(9)
H6 H 0.5455 -0.0357 0.3291
C6 C 0.6371(2) 0.2945(3) 0.34105(9)
H7 H 0.6102 0.4151 0.3427
H8 H 0.6194 0.2593 0.3014
C7 C 0.7805(2) 0.2808(3) 0.36401(8)
C8 C 0.9852(2) 0.3648(3) 0.34843(10)
H9 H 1.0348 0.4235 0.3258
C9 C 1.0465(2) 0.2818(3) 0.39548(10)
H10 H 1.1384 0.2831 0.4061
C10 C 0.0626(2) -0.2792(3) 0.42131(11)
H11 H 0.0215 -0.3373 0.4471
C11 C 0.1957(2) -0.2748(3) 0.42887(10)
H12 H 0.2480 -0.3299 0.4600
C12 C 0.44308(19) 0.1075(3) 0.43117(8)
H13 H 0.3976 0.1037 0.4610
C13 C 0.50955(19) 0.2404(3) 0.41692(8)
H14 H 0.5199 0.3488 0.4346
C14 C 0.9727(2) 0.1964(3) 0.42716(9)
H15 H 1.0138 0.1387 0.4601
C15 C 0.8386(2) 0.1939(3) 0.41132(9)
H16 H 0.7875 0.1332 0.4328
O9 O 0.73013(18) 0.5128(2) 0.24434(7)
H17 H 0.752(3) 0.489(3) 0.2146(9)
H18 H 0.719(3) 0.617(2) 0.2477(11)
loop_
_geom_bond_atom_site_label_1
_geom_bond_atom_site_label_2
_geom_bond_site_symmetry_1
_geom_bond_site_symmetry_2
Cl1 O1 1_555 1_555
O2 Cl1 1_555 1_555
O3 Cl1 1_555 1_555
O4 Cl1 1_555 1_555
Cl2 O5 1_555 1_555
O6 Cl2 1_555 1_555
O7 Cl2 1_555 1_555
O8 Cl2 1_555 1_555
N1 C2 1_555 1_555
N2 C4 1_555 1_555
N3 C5 1_555 1_555
N4 H1 1_555 1_555
C1 H2 1_555 1_555
C2 C1 1_555 1_555
H3 C2 1_555 1_555
C3 N1 1_555 1_555
C4 C3 1_555 1_555
H4 C4 1_555 1_555
H5 C4 1_555 1_555
C5 N2 1_555 1_555
H6 C5 1_555 1_555
C6 N3 1_555 1_555
H7 C6 1_555 1_555
H8 C6 1_555 1_555
C7 N4 1_555 1_555
C8 N4 1_555 1_555
H9 C8 1_555 1_555
C9 C8 1_555 1_555
H10 C9 1_555 1_555
C10 C1 1_555 1_555
H11 C10 1_555 1_555
C11 C3 1_555 1_555
H12 C11 1_555 1_555
C12 N2 1_555 1_555
H13 C12 1_555 1_555
C13 N3 1_555 1_555
H14 C13 1_555 1_555
C14 C9 1_555 1_555
H15 C14 1_555 1_555
C15 C7 1_555 1_555
H16 C15 1_555 1_555
O9 H17 1_555 1_555
H18 O9 1_555 1_555
C6 C7 1_555 1_555
C10 C11 1_555 1_555
C12 C13 1_555 1_555
C14 C15 1_555 1_555

#END
