
#######################################################################
#
#                 Cambridge Crystallographic Data Centre
#                                CCDC 
#
#######################################################################
#
# If this CIF has been generated from an entry in the Cambridge 
# Structural Database, then it will include bibliographic, chemical, 
# crystal, experimental, refinement or atomic coordinate data resulting 
# from the CCDC's data processing and validation procedures.
#
#######################################################################

data_YIJQEN
_chemical_formula_moiety         'C32 H40 N4 O4,C1 H2 Cl2'
_chemical_name_systematic        
'7,16-bis(Quinolin-8-ylmethyl)-1,4,10,13-tetraoxa-7,16-diazacyclooctadecane dichloromethane solvate'
_symmetry_cell_setting           monoclinic
_symmetry_space_group_name_H-M   'P 21/c'
_symmetry_Int_Tables_number      14
_space_group_name_Hall           '-P 2ybc'
loop_
_symmetry_equiv_pos_site_id
_symmetry_equiv_pos_as_xyz
1 x,y,z
2 -x,1/2+y,1/2-z
3 -x,-y,-z
4 x,1/2-y,1/2+z
_cell_length_a                   8.8325(14)
_cell_length_b                   13.808(3)
_cell_length_c                   13.310(3)
_cell_angle_alpha                90
_cell_angle_beta                 94.722(15)
_cell_angle_gamma                90
_cell_volume                     1617.77
_exptl_crystal_colour            colorless
_exptl_crystal_description       block
_chemical_melting_point          95-96deg.C
_cell_formula_units_Z            2
_exptl_crystal_recrystallization_method dichloromethane/methanol
loop_
_atom_site_label
_atom_site_type_symbol
_atom_site_fract_x
_atom_site_fract_y
_atom_site_fract_z
N1 N 0.7325(5) -0.1797(3) 0.6658(3)
C2 C 0.6852(6) -0.1592(4) 0.5601(4)
H3 H 0.5872(6) -0.1270(4) 0.5564(4)
H4 H 0.6723(6) -0.2200(4) 0.5240(4)
C3 C 0.7948(6) -0.0971(4) 0.5086(4)
H5 H 0.8365(6) -0.0472(4) 0.5540(4)
H6 H 0.8779(6) -0.1362(4) 0.4876(4)
O1 O 0.7131(4) -0.0547(3) 0.4234(2)
C4 C 0.7053(6) 0.0518(4) 0.2842(4)
H7 H 0.7680(6) 0.0865(4) 0.2397(4)
H8 H 0.6516(6) 0.0011(4) 0.2455(4)
C5 C 0.8033(6) 0.0081(4) 0.3688(4)
H9 H 0.8858(6) -0.0279(4) 0.3425(4)
H10 H 0.8467(6) 0.0586(4) 0.4128(4)
O2 O 0.5996(4) 0.1162(3) 0.3226(2)
C6 C 0.5018(6) 0.1578(4) 0.2446(4)
H11 H 0.4475(6) 0.1067(4) 0.2070(4)
H12 H 0.5622(6) 0.1924(4) 0.1987(4)
C7 C 0.6110(6) -0.2265(4) 0.7152(4)
H13 H 0.6586(6) -0.2630(4) 0.7787(4)
H14 H 0.5386(6) -0.2757(4) 0.6627(4)
C8 C 0.8720(6) -0.2385(4) 0.6770(4)
H15 H 0.9371(6) -0.2202(4) 0.6249(4)
H16 H 0.8451(6) -0.3061(4) 0.6668(4)
C9 C 0.9596(6) -0.2276(4) 0.7784(3)
C10 C 0.9241(6) -0.1613(4) 0.8478(4)
H17 H 0.8421(6) -0.1200(4) 0.8330(4)
C11 C 1.0094(7) -0.1534(5) 0.9424(4)
H18 H 0.9828(7) -0.1072(5) 0.9886(4)
C12 C 1.1278(7) -0.2119(5) 0.9657(4)
H19 H 1.1816(7) -0.2066(5) 1.0285(4)
C13 C 1.1722(6) -0.2814(4) 0.8961(4)
C14 C 1.2976(6) -0.3447(5) 0.9151(5)
H20 H 1.3536(6) -0.3438(5) 0.9774(5)
C15 C 1.3354(7) -0.4061(5) 0.8430(6)
H21 H 1.4196(7) -0.4463(5) 0.8537(6)
C16 C 1.2458(7) -0.4082(4) 0.7518(5)
H22 H 1.2724(7) -0.4520(4) 0.7032(5)
N2 N 1.1262(5) -0.3529(3) 0.7293(3)
C17 C 1.0875(5) -0.2895(4) 0.8013(3)
C7B C 0.3890(6) 0.2265(4) 0.2848(4)
N1B N 0.2675(5) 0.1797(3) 0.3342(3)
C2B C 0.3148(6) 0.1592(4) 0.4399(4)
H3B H 0.4128(6) 0.1270(4) 0.4436(4)
H4B H 0.3277(6) 0.2200(4) 0.4760(4)
C3B C 0.2052(6) 0.0971(4) 0.4914(4)
H5B H 0.1635(6) 0.0472(4) 0.4460(4)
H6B H 0.1221(6) 0.1362(4) 0.5124(4)
O1B O 0.2869(4) 0.0547(3) 0.5766(2)
C5B C 0.1967(6) -0.0081(4) 0.6312(4)
C4B C 0.2947(6) -0.0518(4) 0.7158(4)
H7B H 0.2320(6) -0.0865(4) 0.7603(4)
H8B H 0.3484(6) -0.0011(4) 0.7545(4)
O2B O 0.4004(4) -0.1162(3) 0.6774(2)
C6B C 0.4982(6) -0.1578(4) 0.7554(4)
H11B H 0.5525(6) -0.1067(4) 0.7930(4)
H12B H 0.4378(6) -0.1924(4) 0.8013(4)
H9B H 0.1142(6) 0.0279(4) 0.6575(4)
H10B H 0.1533(6) -0.0586(4) 0.5872(4)
C8B C 0.1280(6) 0.2385(4) 0.3230(4)
H15B H 0.0629(6) 0.2202(4) 0.3751(4)
H16B H 0.1549(6) 0.3061(4) 0.3332(4)
C9B C 0.0404(6) 0.2276(4) 0.2216(3)
C10B C 0.0759(6) 0.1613(4) 0.1522(4)
H17B H 0.1579(6) 0.1200(4) 0.1670(4)
C11B C -0.0094(7) 0.1534(5) 0.0576(4)
H18B H 0.0172(7) 0.1072(5) 0.0114(4)
C12B C -0.1278(7) 0.2119(5) 0.0343(4)
H19B H -0.1816(7) 0.2066(5) -0.0285(4)
C13B C -0.1722(6) 0.2814(4) 0.1039(4)
C14B C -0.2976(6) 0.3447(5) 0.0849(5)
H20B H -0.3536(6) 0.3438(5) 0.0226(5)
C15B C -0.3354(7) 0.4061(5) 0.1570(6)
H21B H -0.4196(7) 0.4463(5) 0.1463(6)
C16B C -0.2458(7) 0.4082(4) 0.2482(5)
H22B H -0.2724(7) 0.4520(4) 0.2968(5)
N2B N -0.1262(5) 0.3529(3) 0.2707(3)
C17B C -0.0875(5) 0.2895(4) 0.1987(3)
H13B H 0.3414(6) 0.2630(4) 0.2213(4)
H14B H 0.4614(6) 0.2757(4) 0.3373(4)
Cl1 Cl 0.6524(4) -0.0388(3) 1.0125(2)
C1 C 0.4603(17) -0.0561(11) 1.0140(10)
H1 H 0.4410(17) -0.0797(11) 1.0796(10)
H2 H 0.4314(17) -0.1062(11) 0.9663(10)
Cl1B Cl 0.3476(4) 0.0388(3) 0.9875(2)
C1B C 0.5397(17) 0.0561(11) 0.9860(10)
H1B H 0.5590(17) 0.0797(11) 0.9204(10)
H2B H 0.5686(17) 0.1062(11) 1.0337(10)
loop_
_geom_bond_atom_site_label_1
_geom_bond_atom_site_label_2
_geom_bond_site_symmetry_1
_geom_bond_site_symmetry_2
Cl1 C1 1_555 1_555
C1 H1 1_555 1_555
H2 C1 1_555 1_555
N1 C2 1_555 1_555
C2 H3 1_555 1_555
H4 C2 1_555 1_555
C3 C2 1_555 1_555
H5 C3 1_555 1_555
H6 C3 1_555 1_555
O1 C3 1_555 1_555
C4 H7 1_555 1_555
H8 C4 1_555 1_555
C5 O1 1_555 1_555
H9 C5 1_555 1_555
H10 C5 1_555 1_555
O2 C4 1_555 1_555
C6 O2 1_555 1_555
H11 C6 1_555 1_555
H12 C6 1_555 1_555
C7 N1 1_555 1_555
H13 C7 1_555 1_555
H14 C7 1_555 1_555
C8 N1 1_555 1_555
H15 C8 1_555 1_555
H16 C8 1_555 1_555
C9 C8 1_555 1_555
C10 C9 1_555 1_555
H17 C10 1_555 1_555
C11 C10 1_555 1_555
H18 C11 1_555 1_555
C12 C11 1_555 1_555
H19 C12 1_555 1_555
C13 C12 1_555 1_555
C14 C13 1_555 1_555
H20 C14 1_555 1_555
C15 C14 1_555 1_555
H21 C15 1_555 1_555
C16 C15 1_555 1_555
H22 C16 1_555 1_555
N2 C16 1_555 1_555
C17 C9 1_555 1_555
Cl1B C1 1_555 1_555
C1B Cl1 1_555 1_555
H1B C1B 1_555 1_555
H2B C1B 1_555 1_555
C7B C6 1_555 1_555
N1B C7B 1_555 1_555
C2B N1B 1_555 1_555
H3B C2B 1_555 1_555
H4B C2B 1_555 1_555
C3B C2B 1_555 1_555
H5B C3B 1_555 1_555
H6B C3B 1_555 1_555
O1B C3B 1_555 1_555
C5B O1B 1_555 1_555
C4B C5B 1_555 1_555
H7B C4B 1_555 1_555
H8B C4B 1_555 1_555
O2B C4B 1_555 1_555
C6B C7 1_555 1_555
H11B C6B 1_555 1_555
H12B C6B 1_555 1_555
H9B C5B 1_555 1_555
H10B C5B 1_555 1_555
C8B N1B 1_555 1_555
H15B C8B 1_555 1_555
H16B C8B 1_555 1_555
C9B C8B 1_555 1_555
C10B C9B 1_555 1_555
H17B C10B 1_555 1_555
C11B C10B 1_555 1_555
H18B C11B 1_555 1_555
C12B C11B 1_555 1_555
H19B C12B 1_555 1_555
C13B C12B 1_555 1_555
C14B C13B 1_555 1_555
H20B C14B 1_555 1_555
C15B C14B 1_555 1_555
H21B C15B 1_555 1_555
C16B C15B 1_555 1_555
H22B C16B 1_555 1_555
N2B C16B 1_555 1_555
C17B C9B 1_555 1_555
H13B C7B 1_555 1_555
H14B C7B 1_555 1_555
C1 C1B 1_555 1_555
C4 C5 1_555 1_555
C13 C17 1_555 1_555
N2 C17 1_555 1_555
Cl1B C1B 1_555 1_555
O2B C6B 1_555 1_555
C13B C17B 1_555 1_555
N2B C17B 1_555 1_555

#END
