
#######################################################################
#
#                 Cambridge Crystallographic Data Centre
#                                CCDC 
#
#######################################################################
#
# If this CIF has been generated from an entry in the Cambridge 
# Structural Database, then it will include bibliographic, chemical, 
# crystal, experimental, refinement or atomic coordinate data resulting 
# from the CCDC's data processing and validation procedures.
#
#######################################################################

data_YIKWEW
_chemical_formula_moiety         'C23 H34 O4'
_chemical_name_systematic        
'Ethyl 15-(hydroxymethylene)-16-oxobeyeran-18-oate'
_symmetry_cell_setting           monoclinic
_symmetry_space_group_name_H-M   'P 21'
_symmetry_Int_Tables_number      4
_space_group_name_Hall           'P 2yb'
loop_
_symmetry_equiv_pos_site_id
_symmetry_equiv_pos_as_xyz
1 x,y,z
2 -x,1/2+y,-z
_cell_length_a                   6.8882(14)
_cell_length_b                   11.523(2)
_cell_length_c                   13.459(3)
_cell_angle_alpha                90
_cell_angle_beta                 99.43(3)
_cell_angle_gamma                90
_cell_volume                     1053.84
_exptl_crystal_colour            colorless
_exptl_crystal_description       prismatic
_cell_formula_units_Z            2
loop_
_atom_site_label
_atom_site_type_symbol
_atom_site_fract_x
_atom_site_fract_y
_atom_site_fract_z
O1 O -0.0090(6) 0.9789(3) 0.0717(3)
O2 O -0.1948(5) 0.7904(4) 0.0038(3)
O3 O -0.1057(5) 0.3502(5) 0.3773(3)
O4 O 0.0176(5) 0.3121(4) 0.2383(3)
C1 C 0.2048(10) 0.6412(6) 0.4629(4)
H1 H 0.3440 0.6553 0.4849
H2 H 0.1337 0.7070 0.4841
C2 C 0.1467(10) 0.5333(7) 0.5158(4)
H3 H 0.0057 0.5213 0.4991
H4 H 0.1800 0.5431 0.5882
C3 C 0.2551(9) 0.4283(6) 0.4827(4)
H5 H 0.2098 0.3595 0.5135
H6 H 0.3943 0.4370 0.5085
C4 C 0.2302(6) 0.4088(4) 0.3691(3)
C5 C 0.2710(6) 0.5248(4) 0.3154(3)
H7 H 0.4111 0.5398 0.3387
C6 C 0.2529(6) 0.5189(4) 0.2010(3)
H8 H 0.3124 0.4476 0.1823
H9 H 0.1148 0.5178 0.1711
C7 C 0.3531(6) 0.6221(4) 0.1600(4)
H10 H 0.4938 0.6164 0.1827
H11 H 0.3304 0.6180 0.0870
C8 C 0.2825(6) 0.7393(4) 0.1917(3)
C9 C 0.2642(7) 0.7430(4) 0.3056(3)
H12 H 0.4001 0.7428 0.3413
C10 C 0.1658(6) 0.6356(4) 0.3476(3)
C11 C 0.1793(9) 0.8610(5) 0.3318(4)
H13 H 0.0397 0.8626 0.3050
H14 H 0.1935 0.8678 0.4045
C12 C 0.2775(11) 0.9658(5) 0.2909(5)
H15 H 0.4036 0.9797 0.3332
H16 H 0.1961 1.0338 0.2946
C13 C 0.3102(8) 0.9493(5) 0.1812(4)
C14 C 0.4277(7) 0.8372(5) 0.1746(4)
H17 H 0.5440 0.8356 0.2262
H18 H 0.4676 0.8299 0.1091
C15 C 0.0980(6) 0.7871(4) 0.1239(3)
C16 C 0.1156(7) 0.9131(4) 0.1200(4)
C17 C 0.3973(12) 1.0582(6) 0.1404(6)
H19 H 0.4149 1.0451 0.0720
H20 H 0.5222 1.0754 0.1807
H21 H 0.3095 1.1224 0.1428
C18 C 0.3833(7) 0.3174(5) 0.3503(5)
H22 H 0.3592 0.2462 0.3832
H23 H 0.5130 0.3451 0.3767
H24 H 0.3733 0.3041 0.2792
C19 C 0.0264(6) 0.3568(5) 0.3309(4)
C20 C -0.0599(6) 0.6332(5) 0.3105(4)
H25 H -0.0853 0.6292 0.2382
H26 H -0.1182 0.7024 0.3322
H27 H -0.1158 0.5665 0.3379
C21 C -0.1644(8) 0.2573(6) 0.1915(5)
H28 H -0.2323 0.2257 0.2431
H29 H -0.1351 0.1938 0.1490
C22 C -0.2917(8) 0.3418(7) 0.1306(5)
H30 H -0.4116 0.3045 0.1004
H31 H -0.2252 0.3719 0.0788
H32 H -0.3216 0.4043 0.1728
C23 C -0.0495(6) 0.7334(4) 0.0636(3)
H33 H -0.0515 0.6527 0.0630
H34 H -0.164(10) 0.866(8) 0.010(5)
loop_
_geom_bond_atom_site_label_1
_geom_bond_atom_site_label_2
_geom_bond_site_symmetry_1
_geom_bond_site_symmetry_2
O1 C16 1_555 1_555
O2 C23 1_555 1_555
O3 C19 1_555 1_555
O4 C19 1_555 1_555
C1 H1 1_555 1_555
H2 C1 1_555 1_555
C2 C1 1_555 1_555
H3 C2 1_555 1_555
H4 C2 1_555 1_555
C3 C2 1_555 1_555
H5 C3 1_555 1_555
H6 C3 1_555 1_555
C4 C3 1_555 1_555
C5 C4 1_555 1_555
H7 C5 1_555 1_555
C6 C5 1_555 1_555
H8 C6 1_555 1_555
H9 C6 1_555 1_555
C7 C6 1_555 1_555
H10 C7 1_555 1_555
H11 C7 1_555 1_555
C8 C7 1_555 1_555
C9 C8 1_555 1_555
H12 C9 1_555 1_555
C10 C1 1_555 1_555
C11 C9 1_555 1_555
H13 C11 1_555 1_555
H14 C11 1_555 1_555
C12 C11 1_555 1_555
H15 C12 1_555 1_555
H16 C12 1_555 1_555
C13 C12 1_555 1_555
C14 C8 1_555 1_555
H17 C14 1_555 1_555
H18 C14 1_555 1_555
C15 C8 1_555 1_555
C16 C13 1_555 1_555
C17 C13 1_555 1_555
H19 C17 1_555 1_555
H20 C17 1_555 1_555
H21 C17 1_555 1_555
C18 C4 1_555 1_555
H22 C18 1_555 1_555
H23 C18 1_555 1_555
H24 C18 1_555 1_555
C19 C4 1_555 1_555
C20 C10 1_555 1_555
H25 C20 1_555 1_555
H26 C20 1_555 1_555
H27 C20 1_555 1_555
C21 O4 1_555 1_555
H28 C21 1_555 1_555
H29 C21 1_555 1_555
C22 C21 1_555 1_555
H30 C22 1_555 1_555
H31 C22 1_555 1_555
H32 C22 1_555 1_555
C23 C15 1_555 1_555
H33 C23 1_555 1_555
H34 O2 1_555 1_555
C5 C10 1_555 1_555
C9 C10 1_555 1_555
C13 C14 1_555 1_555
C15 C16 1_555 1_555

#END
