
#######################################################################
#
#                 Cambridge Crystallographic Data Centre
#                                CCDC 
#
#######################################################################
#
# If this CIF has been generated from an entry in the Cambridge 
# Structural Database, then it will include bibliographic, chemical, 
# crystal, experimental, refinement or atomic coordinate data resulting 
# from the CCDC's data processing and validation procedures.
#
#######################################################################

data_YILYUP
_chemical_formula_moiety         'C21 H21 N1 O4 S1'
_chemical_name_systematic        
2-(Hydroxy(1-(phenylsulfonyl)-1H-indol-3-yl)methyl)cyclohexanone
_symmetry_cell_setting           orthorhombic
_symmetry_space_group_name_H-M   'P 21 21 21'
_symmetry_Int_Tables_number      19
_space_group_name_Hall           'P 2ac 2ab'
loop_
_symmetry_equiv_pos_site_id
_symmetry_equiv_pos_as_xyz
1 x,y,z
2 1/2-x,-y,1/2+z
3 -x,1/2+y,1/2-z
4 1/2+x,1/2-y,-z
_cell_length_a                   9.654(6)
_cell_length_b                   11.039(7)
_cell_length_c                   18.337(12)
_cell_angle_alpha                90
_cell_angle_beta                 90
_cell_angle_gamma                90
_cell_volume                     1954.18
_exptl_crystal_colour            colorless
_exptl_crystal_description       prism
_cell_formula_units_Z            4
loop_
_atom_site_label
_atom_site_type_symbol
_atom_site_fract_x
_atom_site_fract_y
_atom_site_fract_z
S1 S 0.51002(7) -0.08379(6) 0.13481(4)
O1 O 0.3843(2) -0.0164(2) 0.13416(15)
O2 O 0.5164(3) -0.20278(18) 0.10528(13)
O3 O 0.8213(2) 0.32711(15) -0.00413(9)
H1 H 0.8311 0.3999 -0.0115
O4 O 0.8457(3) 0.54794(18) 0.06936(14)
N1 N 0.6226(2) 0.00080(19) 0.08907(12)
C1 C 0.5527(4) 0.0085(3) 0.27093(17)
H2 H 0.5055 0.0767 0.2545
C2 C 0.6014(5) 0.0032(4) 0.34183(19)
H3 H 0.5885 0.0686 0.3730
C3 C 0.6688(4) -0.0986(3) 0.36625(16)
H4 H 0.6996 -0.1024 0.4142
C4 C 0.6909(4) -0.1951(3) 0.32001(17)
H5 H 0.7365 -0.2639 0.3368
C5 C 0.6455(3) -0.1893(2) 0.24901(15)
H6 H 0.6624 -0.2533 0.2172
C6 C 0.5746(3) -0.0881(2) 0.22505(14)
C7 C 0.7611(3) -0.0315(2) 0.07419(11)
C8 C 0.8200(3) -0.1460(2) 0.06543(13)
H7 H 0.7682 -0.2164 0.0713
C9 C 0.9585(4) -0.1498(3) 0.04773(14)
H8 H 1.0013 -0.2246 0.0416
C10 C 1.0365(3) -0.0443(2) 0.03878(13)
H9 H 1.1301 -0.0499 0.0273
C11 C 0.9759(3) 0.0684(2) 0.04686(12)
H10 H 1.0279 0.1385 0.0402
C12 C 0.8362(2) 0.07588(19) 0.06502(10)
C13 C 0.7406(2) 0.1756(2) 0.07531(11)
C14 C 0.6164(3) 0.1286(2) 0.09082(13)
H11 H 0.5374 0.1735 0.1013
C15 C 0.7706(3) 0.3084(2) 0.06857(12)
H12 H 0.6831 0.3526 0.0737
C16 C 0.8707(2) 0.3545(2) 0.12679(12)
H13 H 0.9599 0.3139 0.1193
C17 C 0.8215(3) 0.3254(3) 0.20486(13)
H14 H 0.7281 0.3560 0.2112
H15 H 0.8188 0.2382 0.2112
C18 C 0.9140(4) 0.3799(3) 0.26306(17)
H16 H 0.8763 0.3615 0.3108
H17 H 1.0055 0.3438 0.2599
C19 C 0.9259(5) 0.5157(3) 0.25427(19)
H18 H 0.9886 0.5476 0.2909
H19 H 0.8358 0.5526 0.2618
C20 C 0.9795(4) 0.5485(3) 0.1783(2)
H20 H 0.9772 0.6357 0.1723
H21 H 1.0750 0.5222 0.1737
C21 C 0.8943(3) 0.4904(2) 0.11944(16)
loop_
_geom_bond_atom_site_label_1
_geom_bond_atom_site_label_2
_geom_bond_site_symmetry_1
_geom_bond_site_symmetry_2
S1 O1 1_555 1_555
O2 S1 1_555 1_555
O3 H1 1_555 1_555
O4 C21 1_555 1_555
N1 S1 1_555 1_555
C1 H2 1_555 1_555
C2 C1 1_555 1_555
H3 C2 1_555 1_555
C3 C2 1_555 1_555
H4 C3 1_555 1_555
C4 C3 1_555 1_555
H5 C4 1_555 1_555
C5 C4 1_555 1_555
H6 C5 1_555 1_555
C6 S1 1_555 1_555
C7 N1 1_555 1_555
C8 C7 1_555 1_555
H7 C8 1_555 1_555
C9 C8 1_555 1_555
H8 C9 1_555 1_555
C10 C9 1_555 1_555
H9 C10 1_555 1_555
C11 C10 1_555 1_555
H10 C11 1_555 1_555
C12 C7 1_555 1_555
C13 C12 1_555 1_555
C14 N1 1_555 1_555
H11 C14 1_555 1_555
C15 O3 1_555 1_555
H12 C15 1_555 1_555
C16 C15 1_555 1_555
H13 C16 1_555 1_555
C17 C16 1_555 1_555
H14 C17 1_555 1_555
H15 C17 1_555 1_555
C18 C17 1_555 1_555
H16 C18 1_555 1_555
H17 C18 1_555 1_555
C19 C18 1_555 1_555
H18 C19 1_555 1_555
H19 C19 1_555 1_555
C20 C19 1_555 1_555
H20 C20 1_555 1_555
H21 C20 1_555 1_555
C21 C16 1_555 1_555
C1 C6 1_555 1_555
C5 C6 1_555 1_555
C11 C12 1_555 1_555
C13 C14 1_555 1_555
C13 C15 1_555 1_555
C20 C21 1_555 1_555

#END
