
#######################################################################
#
#                 Cambridge Crystallographic Data Centre
#                                CCDC 
#
#######################################################################
#
# If this CIF has been generated from an entry in the Cambridge 
# Structural Database, then it will include bibliographic, chemical, 
# crystal, experimental, refinement or atomic coordinate data resulting 
# from the CCDC's data processing and validation procedures.
#
#######################################################################

data_YINBOM
_chemical_compound_source        
'polyoxygenated metabolite of Aspergillus fumigatus FO-1289'
_chemical_formula_moiety         'C31 H37 N1 O10'
_chemical_name_systematic        'Pyripyropene A'
_chemical_properties_biological  'antiatherosclerotic agent'
_symmetry_cell_setting           orthorhombic
_symmetry_space_group_name_H-M   'P 21 21 21'
_symmetry_Int_Tables_number      19
_space_group_name_Hall           'P 2ac 2ab'
loop_
_symmetry_equiv_pos_site_id
_symmetry_equiv_pos_as_xyz
1 x,y,z
2 1/2-x,-y,1/2+z
3 1/2+x,1/2-y,-z
4 -x,1/2+y,1/2-z
_cell_length_a                   7.430
_cell_length_b                   10.528
_cell_length_c                   38.639
_cell_angle_alpha                90
_cell_angle_beta                 90
_cell_angle_gamma                90
_cell_volume                     3022.46
_cell_formula_units_Z            4
loop_
_atom_site_label
_atom_site_type_symbol
_atom_site_fract_x
_atom_site_fract_y
_atom_site_fract_z
C1 C 0.6510(7) 0.9976(5) 0.1264(1)
C2 C 0.7271(7) 0.9155(5) 0.1565(1)
C3 C 0.8151(7) 0.7975(4) 0.1395(1)
C4 C 0.9517(7) 0.8226(5) 0.1099(1)
C5 C 0.8632(7) 0.9083(5) 0.0828(1)
C6 C 0.7887(8) 1.0328(5) 0.0992(1)
C7 C 0.8937(8) 0.7018(5) 0.1656(1)
C8 C 0.9327(7) 0.5764(5) 0.1478(1)
C9 C 1.0610(7) 0.5883(5) 0.1173(1)
C10 C 0.9852(7) 0.6898(4) 0.0924(1)
O1 O 1.0441(5) 0.4622(3) 0.1004(1)
C11 C 1.0773(7) 0.4531(5) 0.0657(1)
C12 C 1.0966(7) 0.5554(5) 0.0450(1)
C13 C 1.0791(7) 0.6908(5) 0.0569(1)
C14 C 1.1268(8) 0.5336(5) 0.0087(1)
O2 O 1.1392(6) 0.4056(3) -0.0026(1)
C15 C 1.1182(7) 0.3067(5) 0.0198(1)
C16 C 1.0886(7) 0.3265(5) 0.0537(1)
C17 C 1.1267(7) 0.1817(5) 0.0026(1)
C18 C 1.1809(8) 0.0745(5) 0.0211(1)
N1 N 1.1782(7) -0.0426(4) 0.0087(1)
C19 C 1.1226(8) -0.0571(5) -0.0241(2)
C20 C 1.0765(8) 0.0415(6) -0.0447(2)
C21 C 1.0781(8) 0.1652(5) -0.0318(1)
O3 O 0.5784(5) 1.1131(3) 0.1422(1)
C22 C 0.4418(8) 1.1690(5) 0.1258(2)
O4 O 0.3867(6) 1.1369(4) 0.0977(1)
C23 C 0.3661(11) 1.2756(7) 0.1465(2)
C24 C 0.8488(8) 0.9922(5) 0.1807(1)
O5 O 0.5975(5) 0.8153(4) 0.2087(1)
C25 C 0.4601(9) 0.7618(8) 0.2245(2)
O6 O 0.3059(7) 0.7680(7) 0.2144(1)
C26 C 0.5099(12) 0.6928(9) 0.2564(2)
C27 C 0.5568(7) 0.8770(5) 0.1759(1)
O7 O 1.0101(5) 0.4880(3) 0.1725(1)
C28 C 0.8980(10) 0.4256(6) 0.1933(2)
O8 O 0.7363(7) 0.4378(5) 0.1918(1)
C29 C 1.0000(11) 0.3455(7) 0.2184(2)
C30 C 1.2576(7) 0.6048(5) 0.1277(2)
C31 C 1.1280(7) 0.8888(5) 0.1223(1)
O9 O 1.1415(7) 0.6141(3) -0.0135(1)
O10 O 1.2531(5) 0.7516(3) 0.0571(1)
loop_
_geom_bond_atom_site_label_1
_geom_bond_atom_site_label_2
_geom_bond_site_symmetry_1
_geom_bond_site_symmetry_2
C1 C2 1_555 1_555
C2 C3 1_555 1_555
C3 C4 1_555 1_555
C4 C5 1_555 1_555
C5 C6 1_555 1_555
C6 C1 1_555 1_555
C7 C3 1_555 1_555
C8 C7 1_555 1_555
C9 C8 1_555 1_555
C10 C4 1_555 1_555
O1 C9 1_555 1_555
C11 O1 1_555 1_555
C12 C11 1_555 1_555
C13 C10 1_555 1_555
C14 C12 1_555 1_555
O2 C14 1_555 1_555
C15 O2 1_555 1_555
C16 C11 1_555 1_555
C17 C15 1_555 1_555
C18 C17 1_555 1_555
N1 C18 1_555 1_555
C19 N1 1_555 1_555
C20 C19 1_555 1_555
C21 C17 1_555 1_555
O3 C1 1_555 1_555
C22 O3 1_555 1_555
O4 C22 1_555 1_555
C23 C22 1_555 1_555
C24 C2 1_555 1_555
O5 C25 1_555 1_555
C25 O6 1_555 1_555
C26 C25 1_555 1_555
C27 C2 1_555 1_555
O7 C8 1_555 1_555
C28 O7 1_555 1_555
O8 C28 1_555 1_555
C29 C28 1_555 1_555
C30 C9 1_555 1_555
C31 C4 1_555 1_555
O9 C14 1_555 1_555
O10 C13 1_555 1_555
C9 C10 1_555 1_555
C12 C13 1_555 1_555
C15 C16 1_555 1_555
C20 C21 1_555 1_555
O5 C27 1_555 1_555

#END
