
#######################################################################
#
#                 Cambridge Crystallographic Data Centre
#                                CCDC 
#
#######################################################################
#
# If this CIF has been generated from an entry in the Cambridge 
# Structural Database, then it will include bibliographic, chemical, 
# crystal, experimental, refinement or atomic coordinate data resulting 
# from the CCDC's data processing and validation procedures.
#
#######################################################################

data_YINFEI
_chemical_name_common            'Henrylactone G'
_chemical_formula_moiety         'C15 H20 O6'
_chemical_name_systematic        
5a,9-Dihydroxy-3a,5b,8a-trimethyloctahydro-8H-furo[3',2':3a,4]pentaleno[1,2-c]furan-2,8(1H)-dione
_symmetry_cell_setting           orthorhombic
_symmetry_space_group_name_H-M   'P 21 21 21'
_symmetry_Int_Tables_number      19
_space_group_name_Hall           'P 2ac 2ab'
loop_
_symmetry_equiv_pos_site_id
_symmetry_equiv_pos_as_xyz
1 x,y,z
2 1/2-x,-y,1/2+z
3 1/2+x,1/2-y,-z
4 -x,1/2+y,1/2-z
_cell_length_a                   7.4146(4)
_cell_length_b                   8.9431(8)
_cell_length_c                   22.1196(14)
_cell_angle_alpha                90
_cell_angle_beta                 90
_cell_angle_gamma                90
_cell_volume                     1466.74
_cell_formula_units_Z            4
loop_
_atom_site_label
_atom_site_type_symbol
_atom_site_fract_x
_atom_site_fract_y
_atom_site_fract_z
O1 O 0.1410(3) 0.76834(19) 0.34384(8)
O2 O 0.2767(3) 0.8082(2) 0.25615(9)
O3 O 0.5141(2) 0.4593(2) 0.41533(9)
H1 H 0.567(6) 0.422(5) 0.4490(18)
O4 O 0.0346(2) 0.47720(18) 0.28222(7)
H2 H -0.060(5) 0.437(4) 0.2707(13)
O5 O 0.2180(3) 0.1621(2) 0.49153(8)
O6 O 0.0378(3) 0.10760(19) 0.41526(8)
C1 C 0.1354(3) 0.6561(3) 0.39273(10)
C2 C -0.0608(4) 0.6075(3) 0.40096(12)
H3 H -0.0990 0.6231 0.4424
H4 H -0.1393 0.6645 0.3745
C3 C -0.0682(3) 0.4418(3) 0.38493(11)
H5 H -0.1833 0.4163 0.3668
H6 H -0.0502 0.3804 0.4206
C4 C 0.0865(3) 0.4197(2) 0.33950(9)
C5 C 0.1656(3) 0.2582(2) 0.33615(9)
C6 C 0.2959(3) 0.2532(3) 0.39122(9)
C7 C 0.3324(3) 0.4186(2) 0.41219(9)
H7 H 0.2768 0.4341 0.4519
C8 C 0.4693(4) 0.1620(3) 0.38260(13)
H8 H 0.5433 0.2088 0.3524
H9 H 0.4390 0.0625 0.3698
H10 H 0.5341 0.1576 0.4201
C9 C 0.2368(3) 0.5196(2) 0.36544(8)
C10 C 0.3583(3) 0.5914(2) 0.31773(10)
H11 H 0.4763 0.6143 0.3343
H12 H 0.3727 0.5263 0.2830
C11 C 0.2592(3) 0.7311(3) 0.30101(10)
C12 C 0.1840(3) 0.1724(3) 0.43871(10)
C13 C 0.2541(4) 0.2278(3) 0.27466(10)
H13 H 0.3478 0.2999 0.2677
H14 H 0.1651 0.2354 0.2433
H15 H 0.3049 0.1290 0.2745
C14 C 0.0279(4) 0.1352(3) 0.35030(10)
H16 H -0.0925 0.1673 0.3391
H17 H 0.0566 0.0448 0.3280
C15 C 0.2200(5) 0.7303(3) 0.44772(13)
H18 H 0.3448 0.7508 0.4397
H19 H 0.2104 0.6647 0.4819
H20 H 0.1581 0.8222 0.4562
loop_
_geom_bond_atom_site_label_1
_geom_bond_atom_site_label_2
_geom_bond_site_symmetry_1
_geom_bond_site_symmetry_2
O1 C1 1_555 1_555
O2 C11 1_555 1_555
O3 H1 1_555 1_555
O4 H2 1_555 1_555
O5 C12 1_555 1_555
O6 C12 1_555 1_555
C1 C2 1_555 1_555
C2 H3 1_555 1_555
H4 C2 1_555 1_555
C3 C2 1_555 1_555
H5 C3 1_555 1_555
H6 C3 1_555 1_555
C4 O4 1_555 1_555
C5 C4 1_555 1_555
C6 C5 1_555 1_555
C7 O3 1_555 1_555
H7 C7 1_555 1_555
C8 C6 1_555 1_555
H8 C8 1_555 1_555
H9 C8 1_555 1_555
H10 C8 1_555 1_555
C9 C1 1_555 1_555
C10 C9 1_555 1_555
H11 C10 1_555 1_555
H12 C10 1_555 1_555
C11 O1 1_555 1_555
C12 C6 1_555 1_555
C13 C5 1_555 1_555
H13 C13 1_555 1_555
H14 C13 1_555 1_555
H15 C13 1_555 1_555
C14 O6 1_555 1_555
H16 C14 1_555 1_555
H17 C14 1_555 1_555
C15 C1 1_555 1_555
H18 C15 1_555 1_555
H19 C15 1_555 1_555
H20 C15 1_555 1_555
C3 C4 1_555 1_555
C4 C9 1_555 1_555
C5 C14 1_555 1_555
C6 C7 1_555 1_555
C7 C9 1_555 1_555
C10 C11 1_555 1_555

#END
