
#######################################################################
#
#                 Cambridge Crystallographic Data Centre
#                                CCDC 
#
#######################################################################
#
# If this CIF has been generated from an entry in the Cambridge 
# Structural Database, then it will include bibliographic, chemical, 
# crystal, experimental, refinement or atomic coordinate data resulting 
# from the CCDC's data processing and validation procedures.
#
#######################################################################

data_YINXEB
_chemical_formula_moiety         'C18 H18 N2 O3 S1'
_chemical_name_systematic        
4-ethenyl-7-methyl-3-[(4-methylphenyl)sulfonyl]-3,4-dihydroquinazolin-2(1H)-one
_symmetry_cell_setting           orthorhombic
_symmetry_space_group_name_H-M   'P 21 21 21'
_symmetry_Int_Tables_number      19
_space_group_name_Hall           'P 2ac 2ab'
loop_
_symmetry_equiv_pos_site_id
_symmetry_equiv_pos_as_xyz
1 x,y,z
2 1/2-x,-y,1/2+z
3 -x,1/2+y,1/2-z
4 1/2+x,1/2-y,-z
_cell_length_a                   8.2292(12)
_cell_length_b                   12.3415(18)
_cell_length_c                   17.181(3)
_cell_angle_alpha                90
_cell_angle_beta                 90
_cell_angle_gamma                90
_cell_volume                     1744.91
_exptl_crystal_colour            colorless
_exptl_crystal_description       block
_cell_formula_units_Z            4
loop_
_atom_site_label
_atom_site_type_symbol
_atom_site_fract_x
_atom_site_fract_y
_atom_site_fract_z
S1 S 0.36618(8) 0.43910(5) 0.84159(3)
O1 O 0.5456(2) 0.23853(15) 0.82674(11)
O2 O 0.2817(3) 0.53340(15) 0.81289(11)
O3 O 0.4658(3) 0.45161(17) 0.90877(10)
N1 N 0.5966(3) 0.25703(17) 0.69800(12)
H1 H 0.652117 0.198016 0.697509
N2 N 0.4718(3) 0.39618(16) 0.76491(11)
C1 C 0.5269(3) 0.47550(19) 0.70525(14)
H2 H 0.446624 0.534033 0.702322
C2 C 0.5409(3) 0.2922(2) 0.76725(15)
C3 C 0.5705(4) 0.3099(2) 0.62601(15)
C4 C 0.5851(5) 0.2543(3) 0.55685(17)
H3 H 0.611797 0.181085 0.557103
C5 C 0.5599(6) 0.3076(3) 0.48677(19)
C6 C 0.5210(5) 0.4169(3) 0.48809(18)
H4 H 0.504286 0.453528 0.441472
C7 C 0.5068(4) 0.4721(3) 0.55768(16)
H5 H 0.480170 0.545322 0.557475
C8 C 0.5319(3) 0.4191(2) 0.62795(15)
C9 C 0.6894(4) 0.5243(2) 0.72473(18)
H6 H 0.729414 0.575339 0.689786
C10 C 0.7795(4) 0.5037(3) 0.7842(2)
H7 H 0.745666 0.453357 0.821090
H8 H 0.878492 0.539098 0.790280
C11 C 0.5737(9) 0.2462(4) 0.4099(2)
H9 H 0.662648 0.196028 0.412673
H10 H 0.592407 0.296646 0.368289
H11 H 0.474666 0.207272 0.400286
C12 C 0.2242(3) 0.33551(19) 0.85742(14)
C13 C 0.2332(4) 0.2740(2) 0.92437(14)
H12 H 0.314073 0.286888 0.961012
C14 C 0.1200(4) 0.1928(3) 0.93607(15)
H13 H 0.123987 0.151880 0.981485
C15 C 0.0010(3) 0.1715(2) 0.88140(16)
C16 C -0.0054(4) 0.2353(3) 0.81501(17)
H14 H -0.085884 0.222481 0.778112
C17 C 0.1051(3) 0.3172(2) 0.80279(15)
H15 H 0.099441 0.359648 0.758145
C18 C -0.1161(5) 0.0803(3) 0.8920(2)
H16 H -0.224896 0.106393 0.884387
H17 H -0.105623 0.051539 0.943628
H18 H -0.093201 0.024456 0.854678
loop_
_geom_bond_atom_site_label_1
_geom_bond_atom_site_label_2
_geom_bond_site_symmetry_1
_geom_bond_site_symmetry_2
S1 O2 1_555 1_555
O1 C2 1_555 1_555
O3 S1 1_555 1_555
N1 H1 1_555 1_555
N2 S1 1_555 1_555
C1 N2 1_555 1_555
H2 C1 1_555 1_555
C2 N1 1_555 1_555
C3 N1 1_555 1_555
C4 C3 1_555 1_555
H3 C4 1_555 1_555
C5 C4 1_555 1_555
C6 C5 1_555 1_555
H4 C6 1_555 1_555
C7 C6 1_555 1_555
H5 C7 1_555 1_555
C8 C1 1_555 1_555
C9 C1 1_555 1_555
H6 C9 1_555 1_555
C10 C9 1_555 1_555
H7 C10 1_555 1_555
H8 C10 1_555 1_555
C11 C5 1_555 1_555
H9 C11 1_555 1_555
H10 C11 1_555 1_555
H11 C11 1_555 1_555
C12 S1 1_555 1_555
C13 C12 1_555 1_555
H12 C13 1_555 1_555
C14 C13 1_555 1_555
H13 C14 1_555 1_555
C15 C14 1_555 1_555
C16 C15 1_555 1_555
H14 C16 1_555 1_555
C17 C12 1_555 1_555
H15 C17 1_555 1_555
C18 C15 1_555 1_555
H16 C18 1_555 1_555
H17 C18 1_555 1_555
H18 C18 1_555 1_555
N2 C2 1_555 1_555
C3 C8 1_555 1_555
C7 C8 1_555 1_555
C16 C17 1_555 1_555

#END
