
#######################################################################
#
#                 Cambridge Crystallographic Data Centre
#                                CCDC 
#
#######################################################################
#
# If this CIF has been generated from an entry in the Cambridge 
# Structural Database, then it will include bibliographic, chemical, 
# crystal, experimental, refinement or atomic coordinate data resulting 
# from the CCDC's data processing and validation procedures.
#
#######################################################################

data_YIPMOA
_chemical_name_common            
'beta-Neopentyl-4-fluorophenethylammonium mandelate'
_chemical_formula_moiety         'C13 H21 F1 N1 1+,C8 H7 O3 1-'
_chemical_name_systematic        
'2-(4-Fluorophenyl)-4,4-dimethylpentan-1-aminium hydroxy(phenyl)acetate'
_symmetry_cell_setting           orthorhombic
_symmetry_space_group_name_H-M   'P 21 21 21'
_symmetry_Int_Tables_number      19
_space_group_name_Hall           'P 2ac 2ab'
loop_
_symmetry_equiv_pos_site_id
_symmetry_equiv_pos_as_xyz
1 x,y,z
2 1/2-x,-y,1/2+z
3 -x,1/2+y,1/2-z
4 1/2+x,1/2-y,-z
_cell_length_a                   6.8147(11)
_cell_length_b                   13.398(2)
_cell_length_c                   21.769(4)
_cell_angle_alpha                90
_cell_angle_beta                 90
_cell_angle_gamma                90
_cell_volume                     1987.58
_exptl_crystal_colour            colorless
_exptl_crystal_description       needle
_cell_formula_units_Z            4
loop_
_atom_site_label
_atom_site_type_symbol
_atom_site_fract_x
_atom_site_fract_y
_atom_site_fract_z
F1 F -0.3247(4) 0.01240(17) -0.17210(9)
N1 N 0.1779(6) 0.1843(2) 0.04793(16)
H1 H 0.147(5) 0.200(2) 0.0025(17)
H2 H 0.052(5) 0.207(2) 0.0688(15)
H3 H 0.338(7) 0.228(3) 0.0577(18)
C1 C 0.2249(6) 0.0769(2) 0.06104(16)
H4 H 0.2872 0.0718 0.1020
H5 H 0.3202 0.0525 0.0302
C2 C 0.0408(6) 0.0102(3) 0.05956(16)
H6 H -0.0554 0.0372 0.0900
C3 C 0.1039(5) -0.0948(3) 0.08108(16)
H7 H 0.1830 -0.1250 0.0478
H8 H 0.1922 -0.0862 0.1168
C4 C -0.0550(7) -0.1709(3) 0.09937(18)
C5 C 0.0516(7) -0.2617(3) 0.12480(18)
H9 H -0.0442 -0.3135 0.1354
H10 H 0.1252 -0.2426 0.1617
H11 H 0.1426 -0.2875 0.0938
C6 C -0.1792(7) -0.2035(3) 0.04452(18)
H12 H -0.2670 -0.2578 0.0570
H13 H -0.0930 -0.2269 0.0115
H14 H -0.2572 -0.1469 0.0299
C7 C -0.1872(7) -0.1284(3) 0.14890(18)
H15 H -0.2730 -0.1812 0.1647
H16 H -0.2675 -0.0747 0.1315
H17 H -0.1067 -0.1019 0.1824
C8 C -0.0547(6) 0.0118(3) -0.00301(17)
C9 C -0.2384(7) 0.0533(3) -0.01064(18)
H18 H -0.3025 0.0823 0.0238
C10 C -0.3325(7) 0.0539(3) -0.0675(2)
H19 H -0.4589 0.0828 -0.0724
C11 C -0.2374(8) 0.0118(3) -0.11556(18)
C12 C -0.0516(7) -0.0294(3) -0.11135(18)
H20 H 0.0118 -0.0572 -0.1463
C13 C 0.0387(6) -0.0285(3) -0.05406(16)
H21 H 0.1665 -0.0560 -0.0497
O1 O 0.0490(4) 0.24056(18) -0.06911(11)
O2 O 0.3529(4) 0.2308(2) -0.10556(12)
O3 O 0.2531(5) 0.20331(19) -0.21811(11)
H22 H 0.393(7) 0.208(4) -0.197(2)
C14 C 0.1724(7) 0.2315(3) -0.11150(19)
C15 C 0.0924(6) 0.2176(3) -0.17703(16)
H23 H 0.0108 0.1556 -0.1775
C16 C -0.0344(6) 0.3026(3) -0.19743(16)
C17 C 0.0445(6) 0.3968(3) -0.20481(15)
H24 H 0.1800 0.4074 -0.1969
C18 C -0.0727(7) 0.4764(3) -0.22372(16)
H25 H -0.0172 0.5411 -0.2282
C19 C -0.2667(7) 0.4615(3) -0.23582(16)
H26 H -0.3458 0.5157 -0.2491
C20 C -0.3491(6) 0.3677(4) -0.22878(17)
H27 H -0.4845 0.3574 -0.2371
C21 C -0.2314(6) 0.2887(3) -0.20940(16)
H28 H -0.2876 0.2243 -0.2044
loop_
_geom_bond_atom_site_label_1
_geom_bond_atom_site_label_2
_geom_bond_site_symmetry_1
_geom_bond_site_symmetry_2
F1 C11 1_555 1_555
N1 H1 1_555 1_555
H2 N1 1_555 1_555
H3 N1 1_555 1_555
C1 N1 1_555 1_555
H4 C1 1_555 1_555
H5 C1 1_555 1_555
C2 C1 1_555 1_555
H6 C2 1_555 1_555
C3 C2 1_555 1_555
H7 C3 1_555 1_555
H8 C3 1_555 1_555
C4 C3 1_555 1_555
C5 C4 1_555 1_555
H9 C5 1_555 1_555
H10 C5 1_555 1_555
H11 C5 1_555 1_555
C6 C4 1_555 1_555
H12 C6 1_555 1_555
H13 C6 1_555 1_555
H14 C6 1_555 1_555
C7 C4 1_555 1_555
H15 C7 1_555 1_555
H16 C7 1_555 1_555
H17 C7 1_555 1_555
C8 C2 1_555 1_555
C9 C8 1_555 1_555
H18 C9 1_555 1_555
C10 C9 1_555 1_555
H19 C10 1_555 1_555
C11 C10 1_555 1_555
C12 C11 1_555 1_555
H20 C12 1_555 1_555
C13 C8 1_555 1_555
H21 C13 1_555 1_555
O1 C14 1_555 1_555
O2 C14 1_555 1_555
O3 H22 1_555 1_555
C14 C15 1_555 1_555
C15 O3 1_555 1_555
H23 C15 1_555 1_555
C16 C15 1_555 1_555
C17 C16 1_555 1_555
H24 C17 1_555 1_555
C18 C17 1_555 1_555
H25 C18 1_555 1_555
C19 C18 1_555 1_555
H26 C19 1_555 1_555
C20 C19 1_555 1_555
H27 C20 1_555 1_555
C21 C16 1_555 1_555
H28 C21 1_555 1_555
C12 C13 1_555 1_555
C20 C21 1_555 1_555

#END
