
#######################################################################
#
#                 Cambridge Crystallographic Data Centre
#                                CCDC 
#
#######################################################################
#
# If this CIF has been generated from an entry in the Cambridge 
# Structural Database, then it will include bibliographic, chemical, 
# crystal, experimental, refinement or atomic coordinate data resulting 
# from the CCDC's data processing and validation procedures.
#
#######################################################################

data_YIPSUO
_chemical_name_common            
1,2-O-isopropylidene-3-O-methyl-5-C-phenil-alpha-D-gluco-pentofuranose
_chemical_formula_moiety         'C15 H20 O5'
_chemical_name_systematic        
(6-methoxy-2,2-dimethyltetrahydro-2H-furo[2,3-d][1,3]dioxol-5-yl)(phenyl)methanol
_symmetry_cell_setting           orthorhombic
_symmetry_space_group_name_H-M   'P 21 21 21'
_symmetry_Int_Tables_number      19
_space_group_name_Hall           'P 2ac 2ab'
loop_
_symmetry_equiv_pos_site_id
_symmetry_equiv_pos_as_xyz
1 x,y,z
2 1/2-x,-y,1/2+z
3 1/2+x,1/2-y,-z
4 -x,1/2+y,1/2-z
_cell_length_a                   11.0585(4)
_cell_length_b                   11.4256(3)
_cell_length_c                   11.8876(4)
_cell_angle_alpha                90
_cell_angle_beta                 90
_cell_angle_gamma                90
_cell_volume                     1502
_exptl_crystal_colour            colorless
_exptl_crystal_description       block
_chemical_melting_point          '344 K'
_cell_formula_units_Z            4
loop_
_atom_site_label
_atom_site_type_symbol
_atom_site_fract_x
_atom_site_fract_y
_atom_site_fract_z
O1 O 0.51540(14) 0.27474(11) 0.73064(11)
O2 O 0.38081(13) 0.22829(11) 0.87343(13)
O3 O 0.36012(13) 0.42345(12) 0.89750(13)
O4 O 0.65763(13) 0.47830(12) 0.77978(13)
O5 O 0.53689(16) 0.51556(13) 0.53151(14)
H1 H 0.575(2) 0.564(3) 0.566(2)
C1 C 0.49420(17) 0.27621(15) 0.84673(15)
H2 H 0.559 0.2356 0.8873
C2 C 0.48637(18) 0.40463(15) 0.88288(15)
H3 H 0.5335 0.4217 0.9507
C3 C 0.53005(17) 0.47156(15) 0.78022(16)
H4 H 0.4921 0.5488 0.7739
C4 C 0.49092(17) 0.38897(14) 0.68613(15)
H5 H 0.4038 0.3973 0.6735
C5 C 0.55723(17) 0.40128(16) 0.57435(16)
H6 H 0.6441 0.3893 0.5861
C6 C 0.51106(18) 0.31411(16) 0.48872(14)
C7 C 0.5702(2) 0.20916(19) 0.47193(19)
H7 H 0.6401 0.1924 0.5124
C8 C 0.5261(3) 0.1285(2) 0.3950(2)
H8 H 0.5664 0.0579 0.3844
C9 C 0.4244(3) 0.1518(3) 0.3350(2)
H9 H 0.3957 0.0977 0.2829
C10 C 0.3645(3) 0.2544(3) 0.3512(2)
H10 H 0.2944 0.27 0.3107
C11 C 0.4074(2) 0.3360(2) 0.4277(2)
H11 H 0.366 0.406 0.438
C12 C 0.30694(18) 0.31453(18) 0.92803(17)
C13 C 0.3121(2) 0.2964(3) 1.0539(2)
H12 H 0.2817 0.22 1.072
H13 H 0.2635 0.3547 1.0905
H14 H 0.3943 0.3031 1.0791
C14 C 0.1814(2) 0.3075(3) 0.8803(2)
H15 H 0.1484 0.2313 0.8946
H16 H 0.1843 0.3211 0.8006
H17 H 0.1313 0.3658 0.9151
C15 C 0.7059(2) 0.5649(2) 0.8532(2)
H18 H 0.7923 0.567 0.8457
H19 H 0.685 0.5461 0.9295
H20 H 0.6729 0.64 0.834
loop_
_geom_bond_atom_site_label_1
_geom_bond_atom_site_label_2
_geom_bond_site_symmetry_1
_geom_bond_site_symmetry_2
O1 C1 1_555 1_555
O2 C1 1_555 1_555
O3 C2 1_555 1_555
O4 C3 1_555 1_555
O5 H1 1_555 1_555
C1 H2 1_555 1_555
C2 C1 1_555 1_555
H3 C2 1_555 1_555
C3 C2 1_555 1_555
H4 C3 1_555 1_555
C4 O1 1_555 1_555
H5 C4 1_555 1_555
C5 O5 1_555 1_555
H6 C5 1_555 1_555
C6 C5 1_555 1_555
C7 C6 1_555 1_555
H7 C7 1_555 1_555
C8 C7 1_555 1_555
H8 C8 1_555 1_555
C9 C8 1_555 1_555
H9 C9 1_555 1_555
C10 C9 1_555 1_555
H10 C10 1_555 1_555
C11 C6 1_555 1_555
H11 C11 1_555 1_555
C12 O2 1_555 1_555
C13 C12 1_555 1_555
H12 C13 1_555 1_555
H13 C13 1_555 1_555
H14 C13 1_555 1_555
C14 C12 1_555 1_555
H15 C14 1_555 1_555
H16 C14 1_555 1_555
H17 C14 1_555 1_555
C15 O4 1_555 1_555
H18 C15 1_555 1_555
H19 C15 1_555 1_555
H20 C15 1_555 1_555
O3 C12 1_555 1_555
C3 C4 1_555 1_555
C4 C5 1_555 1_555
C10 C11 1_555 1_555

#END
