
#######################################################################
#
#                 Cambridge Crystallographic Data Centre
#                                CCDC 
#
#######################################################################
#
# If this CIF has been generated from an entry in the Cambridge 
# Structural Database, then it will include bibliographic, chemical, 
# crystal, experimental, refinement or atomic coordinate data resulting 
# from the CCDC's data processing and validation procedures.
#
#######################################################################

data_YIPTEZ
_chemical_name_common            
6-methoxy-5-[methoxy(phenyl)methyl]tetrahydrofuro[3,2-b]furan-2(3H)-one
_chemical_formula_moiety         'C15 H18 O5'
_chemical_name_systematic        
3,6-Anhydro-2-deoxy-5,7-di-O-methyl-7-C-phenyl-L-glycero-D-ido-heptono-1,4-lactone
_symmetry_cell_setting           orthorhombic
_symmetry_space_group_name_H-M   'P 21 21 21'
_symmetry_Int_Tables_number      19
_space_group_name_Hall           'P 2ac 2ab'
loop_
_symmetry_equiv_pos_site_id
_symmetry_equiv_pos_as_xyz
1 x,y,z
2 1/2-x,-y,1/2+z
3 -x,1/2+y,1/2-z
4 1/2+x,1/2-y,-z
_cell_length_a                   8.1993(2)
_cell_length_b                   9.5498(2)
_cell_length_c                   18.6176(4)
_cell_angle_alpha                90
_cell_angle_beta                 90
_cell_angle_gamma                90
_cell_volume                     1457.79
_exptl_crystal_colour            colorless
_exptl_crystal_description       irregular
_chemical_melting_point          '392 K'
_cell_formula_units_Z            4
loop_
_atom_site_label
_atom_site_type_symbol
_atom_site_fract_x
_atom_site_fract_y
_atom_site_fract_z
O1 O 0.2362(8) 0.7816(5) 0.4860(2)
O2 O 0.4058(4) 0.7784(2) 0.39328(14)
O3 O 0.2951(3) 0.5118(3) 0.32172(12)
O4 O 0.5616(3) 0.6059(2) 0.23177(14)
O5 O 0.0827(3) 0.5033(3) 0.20734(11)
C1 C 0.3209(7) 0.7162(5) 0.4468(2)
C2 C 0.3560(7) 0.5633(5) 0.44562(18)
H1 H 0.2574 0.5095 0.4537
H2 H 0.4355 0.5389 0.4821
C3 C 0.4229(5) 0.5365(3) 0.37164(16)
H3 H 0.504 0.4611 0.3715
C4 C 0.4965(4) 0.6754(3) 0.35200(18)
H4 H 0.614 0.6791 0.3614
C5 C 0.4559(3) 0.6903(3) 0.27239(16)
H5 H 0.4549 0.7881 0.2563
C6 C 0.2875(3) 0.6229(3) 0.27044(14)
H6 H 0.2066 0.6916 0.2865
C7 C 0.2376(3) 0.5678(3) 0.19742(14)
H7 H 0.3164 0.4967 0.182
C8 C 0.2311(3) 0.6827(3) 0.14195(14)
C9 C 0.3289(4) 0.6770(4) 0.08136(15)
H8 H 0.401 0.6026 0.0755
C10 C 0.3208(6) 0.7802(5) 0.02962(19)
H9 H 0.3868 0.7743 -0.0109
C11 C 0.2178(7) 0.8899(5) 0.0372(2)
H10 H 0.2123 0.9582 0.0017
C12 C 0.1202(5) 0.9006(5) 0.0980(3)
H11 H 0.0516 0.9773 0.104
C13 C 0.1261(4) 0.7954(4) 0.15006(19)
H12 H 0.0593 0.8009 0.1903
C14 C 0.7125(6) 0.6698(7) 0.2153(5)
H13 H 0.7429 0.6471 0.1669
H14 H 0.7946 0.6361 0.2478
H15 H 0.7026 0.7695 0.2201
C15 C 0.0299(6) 0.4265(5) 0.1471(2)
H16 H -0.0738 0.3843 0.1572
H17 H 0.1081 0.3547 0.1363
H18 H 0.0195 0.4882 0.1066
loop_
_geom_bond_atom_site_label_1
_geom_bond_atom_site_label_2
_geom_bond_site_symmetry_1
_geom_bond_site_symmetry_2
O1 C1 1_555 1_555
O2 C1 1_555 1_555
O3 C3 1_555 1_555
O4 C5 1_555 1_555
O5 C7 1_555 1_555
C1 C2 1_555 1_555
C2 H1 1_555 1_555
H2 C2 1_555 1_555
C3 C2 1_555 1_555
H3 C3 1_555 1_555
C4 O2 1_555 1_555
H4 C4 1_555 1_555
C5 C4 1_555 1_555
H5 C5 1_555 1_555
C6 O3 1_555 1_555
H6 C6 1_555 1_555
C7 C6 1_555 1_555
H7 C7 1_555 1_555
C8 C7 1_555 1_555
C9 C8 1_555 1_555
H8 C9 1_555 1_555
C10 C9 1_555 1_555
H9 C10 1_555 1_555
C11 C10 1_555 1_555
H10 C11 1_555 1_555
C12 C11 1_555 1_555
H11 C12 1_555 1_555
C13 C8 1_555 1_555
H12 C13 1_555 1_555
C14 O4 1_555 1_555
H13 C14 1_555 1_555
H14 C14 1_555 1_555
H15 C14 1_555 1_555
C15 O5 1_555 1_555
H16 C15 1_555 1_555
H17 C15 1_555 1_555
H18 C15 1_555 1_555
C3 C4 1_555 1_555
C5 C6 1_555 1_555
C12 C13 1_555 1_555

#END
