
#######################################################################
#
#                 Cambridge Crystallographic Data Centre
#                                CCDC 
#
#######################################################################
#
# If this CIF has been generated from an entry in the Cambridge 
# Structural Database, then it will include bibliographic, chemical, 
# crystal, experimental, refinement or atomic coordinate data resulting 
# from the CCDC's data processing and validation procedures.
#
#######################################################################

data_YIPZEE
_chemical_formula_moiety         'C23 H30 N1 O5 P1'
_chemical_name_systematic        
'2-Isopropyl-5-methylcyclohexyl 3-nitrophenyl benzylphosphonate'
_symmetry_cell_setting           orthorhombic
_symmetry_space_group_name_H-M   'P 21 21 21'
_symmetry_Int_Tables_number      19
_space_group_name_Hall           'P 2ac 2ab'
loop_
_symmetry_equiv_pos_site_id
_symmetry_equiv_pos_as_xyz
1 x,y,z
2 1/2-x,-y,1/2+z
3 -x,1/2+y,1/2-z
4 1/2+x,1/2-y,-z
_cell_length_a                   6.5931(5)
_cell_length_b                   13.8319(16)
_cell_length_c                   25.388(3)
_cell_angle_alpha                90
_cell_angle_beta                 90
_cell_angle_gamma                90
_cell_volume                     2315.26
_exptl_crystal_colour            colorless
_exptl_crystal_description       block
_cell_formula_units_Z            4
loop_
_atom_site_label
_atom_site_type_symbol
_atom_site_fract_x
_atom_site_fract_y
_atom_site_fract_z
P1 P 0.7506(2) 0.10153(7) 0.83441(4)
N1 N 0.8233(8) 0.5163(3) 0.82863(19)
O1 O 0.5875(5) 0.1526(2) 0.86167(11)
O2 O 0.9048(5) 0.17102(18) 0.80405(11)
O3 O 0.8864(5) 0.03717(17) 0.87061(10)
O4 O 0.6397(7) 0.5089(3) 0.82442(15)
O5 O 0.9112(8) 0.5930(2) 0.8278(2)
C1 C 0.6247(8) -0.1528(4) 0.78655(16)
H1 H 0.7574 -0.1623 0.7753
C2 C 0.5032(11) -0.2326(4) 0.7978(2)
H2 H 0.5556 -0.2948 0.7951
C3 C 0.3039(11) -0.2185(4) 0.81316(18)
H3 H 0.2208 -0.2715 0.8197
C4 C 0.2284(9) -0.1263(4) 0.81877(16)
H4 H 0.0952 -0.1169 0.8296
C5 C 0.3498(9) -0.0485(3) 0.80833(17)
H5 H 0.2973 0.0135 0.8123
C6 C 0.5513(8) -0.0595(3) 0.79179(16)
C7 C 0.6844(8) 0.0261(3) 0.77973(15)
H6 H 0.6161 0.0658 0.7537
H7 H 0.8087 0.0026 0.7638
C8 C 0.8823(8) 0.0394(3) 0.92875(14)
H8 H 0.7512 0.0649 0.9405
C9 C 1.0483(7) 0.1042(3) 0.94838(15)
H9 H 1.0251 0.1693 0.9355
H10 H 1.1770 0.0821 0.9343
C10 C 1.0607(9) 0.1063(4) 1.00858(17)
H11 H 0.9340 0.1340 1.0220
C11 C 1.0780(9) 0.0037(3) 1.02938(16)
H12 H 1.2078 -0.0230 1.0189
H13 H 1.0740 0.0051 1.0676
C12 C 0.9104(9) -0.0609(3) 1.00941(16)
H14 H 0.7811 -0.0372 1.0223
H15 H 0.9299 -0.1257 1.0231
C13 C 0.9061(8) -0.0643(3) 0.94863(15)
H16 H 1.0401 -0.0867 0.9372
C14 C 0.7501(10) -0.1353(3) 0.92578(16)
H17 H 0.7549 -0.1276 0.8874
C15 C 0.5331(9) -0.1142(4) 0.9424(2)
H18 H 0.5223 -0.1189 0.9800
H19 H 0.4435 -0.1603 0.9263
H20 H 0.4963 -0.0502 0.9314
C16 C 0.8071(9) -0.2408(3) 0.93740(18)
H21 H 0.9437 -0.2526 0.9260
H22 H 0.7164 -0.2831 0.9189
H23 H 0.7968 -0.2526 0.9746
C17 C 1.2344(11) 0.1699(4) 1.0271(2)
H24 H 1.3611 0.1415 1.0167
H25 H 1.2302 0.1754 1.0648
H26 H 1.2218 0.2329 1.0117
C18 C 0.9778(7) 0.2591(3) 0.82327(16)
C19 C 0.8593(7) 0.3409(3) 0.81899(14)
H27 H 0.7271 0.3378 0.8063
C20 C 0.9443(8) 0.4274(3) 0.83420(17)
C21 C 1.1393(9) 0.4343(4) 0.85330(17)
H28 H 1.1925 0.4938 0.8632
C22 C 1.2549(9) 0.3508(4) 0.85748(16)
H29 H 1.3864 0.3536 0.8707
C23 C 1.1731(8) 0.2637(4) 0.84192(16)
H30 H 1.2506 0.2077 0.8440
loop_
_geom_bond_atom_site_label_1
_geom_bond_atom_site_label_2
_geom_bond_site_symmetry_1
_geom_bond_site_symmetry_2
P1 O1 1_555 1_555
N1 O4 1_555 1_555
O2 P1 1_555 1_555
O3 P1 1_555 1_555
O5 N1 1_555 1_555
C1 H1 1_555 1_555
C2 C1 1_555 1_555
H2 C2 1_555 1_555
C3 C2 1_555 1_555
H3 C3 1_555 1_555
C4 C3 1_555 1_555
H4 C4 1_555 1_555
C5 C4 1_555 1_555
H5 C5 1_555 1_555
C6 C1 1_555 1_555
C7 P1 1_555 1_555
H6 C7 1_555 1_555
H7 C7 1_555 1_555
C8 O3 1_555 1_555
H8 C8 1_555 1_555
C9 C8 1_555 1_555
H9 C9 1_555 1_555
H10 C9 1_555 1_555
C10 C9 1_555 1_555
H11 C10 1_555 1_555
C11 C10 1_555 1_555
H12 C11 1_555 1_555
H13 C11 1_555 1_555
C12 C11 1_555 1_555
H14 C12 1_555 1_555
H15 C12 1_555 1_555
C13 C8 1_555 1_555
H16 C13 1_555 1_555
C14 C13 1_555 1_555
H17 C14 1_555 1_555
C15 C14 1_555 1_555
H18 C15 1_555 1_555
H19 C15 1_555 1_555
H20 C15 1_555 1_555
C16 C14 1_555 1_555
H21 C16 1_555 1_555
H22 C16 1_555 1_555
H23 C16 1_555 1_555
C17 C10 1_555 1_555
H24 C17 1_555 1_555
H25 C17 1_555 1_555
H26 C17 1_555 1_555
C18 O2 1_555 1_555
C19 C18 1_555 1_555
H27 C19 1_555 1_555
C20 N1 1_555 1_555
C21 C20 1_555 1_555
H28 C21 1_555 1_555
C22 C21 1_555 1_555
H29 C22 1_555 1_555
C23 C18 1_555 1_555
H30 C23 1_555 1_555
C5 C6 1_555 1_555
C6 C7 1_555 1_555
C12 C13 1_555 1_555
C19 C20 1_555 1_555
C22 C23 1_555 1_555

#END
