
#######################################################################
#
#                 Cambridge Crystallographic Data Centre
#                                CCDC 
#
#######################################################################
#
# If this CIF has been generated from an entry in the Cambridge 
# Structural Database, then it will include bibliographic, chemical, 
# crystal, experimental, refinement or atomic coordinate data resulting 
# from the CCDC's data processing and validation procedures.
#
#######################################################################

data_YIQDIM
_chemical_formula_moiety         'C13 H10 F1 N3 O1'
_chemical_name_systematic        
'(E)-N-isonicotinoyl 2-fluorobenzaldehydehydrazone'
_symmetry_cell_setting           triclinic
_symmetry_space_group_name_H-M   'P -1'
_symmetry_Int_Tables_number      2
_space_group_name_Hall           '-P 1'
loop_
_symmetry_equiv_pos_site_id
_symmetry_equiv_pos_as_xyz
1 x,y,z
2 -x,-y,-z
_cell_length_a                   7.4815(2)
_cell_length_b                   11.1344(2)
_cell_length_c                   14.5365(3)
_cell_angle_alpha                90.663(2)
_cell_angle_beta                 104.903(3)
_cell_angle_gamma                109.268(2)
_cell_volume                     1098.45
_exptl_crystal_colour            colorless
_exptl_crystal_description       needle
_chemical_melting_point          '464-465 K'
_cell_formula_units_Z            4
_exptl_crystal_recrystallization_method ethanol
loop_
_atom_site_label
_atom_site_type_symbol
_atom_site_fract_x
_atom_site_fract_y
_atom_site_fract_z
N1 N 0.2568(2) 0.10175(13) 0.23246(9)
C1 C 0.2461(3) 0.21827(16) 0.22005(12)
C2 C 0.2556(2) 0.30368(15) 0.29254(11)
C3 C 0.2742(2) 0.26714(14) 0.38461(11)
C4 C 0.2839(3) 0.14643(15) 0.39850(11)
C5 C 0.2752(3) 0.06825(16) 0.32166(12)
C6 C 0.2846(2) 0.34777(15) 0.47089(11)
O1 O 0.3187(2) 0.31077(11) 0.55034(8)
N2 N 0.2520(2) 0.45985(12) 0.45519(9)
N3 N 0.2615(2) 0.53571(13) 0.53311(9)
C7 C 0.2206(2) 0.63712(15) 0.51473(11)
C8 C 0.2277(2) 0.72362(15) 0.59302(11)
C9 C 0.2171(3) 0.84367(16) 0.57814(12)
F1 F 0.20023(18) 0.87950(10) 0.48760(7)
C10 C 0.2258(3) 0.93012(16) 0.64940(13)
C11 C 0.2436(3) 0.89412(17) 0.74086(13)
C12 C 0.2523(3) 0.77371(16) 0.75936(12)
C13 C 0.2447(2) 0.68958(15) 0.68671(11)
H1 H 0.2310 0.2441 0.1573
H2 H 0.2495 0.3859 0.2796
H3 H 0.2965 0.1175 0.4603
H4 H 0.2828 -0.0141 0.3328
H5 H 0.2247 0.4847 0.3960
H6 H 0.1858 0.6562 0.4504
H7 H 0.2198 1.0122 0.6358
H8 H 0.2500 0.9517 0.7913
H9 H 0.2635 0.7491 0.8224
H10 H 0.2510 0.6076 0.7003
N4 N 0.1828(2) 0.59474(13) 0.27155(10)
C14 C 0.3068(2) 0.71541(15) 0.28034(11)
C15 C 0.3042(2) 0.79405(15) 0.20699(11)
C16 C 0.1675(2) 0.74530(15) 0.11893(11)
C17 C 0.0398(2) 0.61985(15) 0.10813(11)
C18 C 0.0519(3) 0.54914(16) 0.18554(12)
C19 C 0.1565(2) 0.81756(15) 0.03206(11)
O2 O 0.08845(19) 0.76039(11) -0.04838(8)
N5 N 0.2310(2) 0.94722(12) 0.05026(9)
N6 N 0.2291(2) 1.01832(12) -0.02739(9)
C20 C 0.3226(2) 1.13827(15) -0.00777(11)
C21 C 0.3254(2) 1.22065(15) -0.08559(11)
C22 C 0.4632(3) 1.34337(15) -0.07278(11)
F2 F 0.59329(15) 1.38642(9) 0.01540(7)
C23 C 0.4784(3) 1.42250(16) -0.14464(12)
C24 C 0.3500(3) 1.37705(16) -0.23482(12)
C25 C 0.2069(3) 1.25612(16) -0.25095(12)
C26 C 0.1936(3) 1.17945(16) -0.17695(11)
H11 H 0.4020 0.7491 0.3402
H12 H 0.3941 0.8795 0.2169
H13 H -0.0544 0.5832 0.0485
H14 H -0.0372 0.4637 0.1775
H15 H 0.2568 0.9871 0.1089
H16 H 0.3897 1.1738 0.0566
H17 H 0.5744 1.5060 -0.1326
H18 H 0.3599 1.4289 -0.2860
H19 H 0.1180 1.2259 -0.3128
H20 H 0.0934 1.0976 -0.1883
loop_
_geom_bond_atom_site_label_1
_geom_bond_atom_site_label_2
_geom_bond_site_symmetry_1
_geom_bond_site_symmetry_2
N1 C1 1_555 1_555
C1 C2 1_555 1_555
C2 C3 1_555 1_555
C3 C4 1_555 1_555
C4 C5 1_555 1_555
C5 N1 1_555 1_555
C6 C3 1_555 1_555
O1 C6 1_555 1_555
N2 C6 1_555 1_555
N3 N2 1_555 1_555
C7 N3 1_555 1_555
C8 C7 1_555 1_555
C9 C8 1_555 1_555
F1 C9 1_555 1_555
C10 C9 1_555 1_555
C11 C10 1_555 1_555
C12 C11 1_555 1_555
C13 C8 1_555 1_555
N4 C14 1_555 1_555
C14 C15 1_555 1_555
C15 C16 1_555 1_555
C16 C17 1_555 1_555
C17 C18 1_555 1_555
C18 N4 1_555 1_555
C19 C16 1_555 1_555
O2 C19 1_555 1_555
N5 C19 1_555 1_555
N6 N5 1_555 1_555
C20 N6 1_555 1_555
C21 C20 1_555 1_555
C22 C21 1_555 1_555
F2 C22 1_555 1_555
C23 C22 1_555 1_555
C24 C23 1_555 1_555
C25 C24 1_555 1_555
C26 C21 1_555 1_555
H1 C1 1_555 1_555
H2 C2 1_555 1_555
H3 C4 1_555 1_555
H4 C5 1_555 1_555
H5 N2 1_555 1_555
H6 C7 1_555 1_555
H7 C10 1_555 1_555
H8 C11 1_555 1_555
H9 C12 1_555 1_555
H10 C13 1_555 1_555
H11 C14 1_555 1_555
H12 C15 1_555 1_555
H13 C17 1_555 1_555
H14 C18 1_555 1_555
H15 N5 1_555 1_555
H16 C20 1_555 1_555
H17 C23 1_555 1_555
H18 C24 1_555 1_555
H19 C25 1_555 1_555
H20 C26 1_555 1_555
C12 C13 1_555 1_555
C25 C26 1_555 1_555

#END
