
#######################################################################
#
#                 Cambridge Crystallographic Data Centre
#                                CCDC 
#
#######################################################################
#
# If this CIF has been generated from an entry in the Cambridge 
# Structural Database, then it will include bibliographic, chemical, 
# crystal, experimental, refinement or atomic coordinate data resulting 
# from the CCDC's data processing and validation procedures.
#
#######################################################################

data_YIQTID
_chemical_formula_moiety         'C19 H17 N3 O2'
_chemical_name_systematic        
4-(5-(4-Butoxyphenyl)-1,3,4-oxadiazol-2-yl)benzonitrile
_symmetry_cell_setting           monoclinic
_symmetry_space_group_name_H-M   'P 21/c'
_symmetry_Int_Tables_number      14
_space_group_name_Hall           '-P 2ybc'
loop_
_symmetry_equiv_pos_site_id
_symmetry_equiv_pos_as_xyz
1 x,y,z
2 -x,1/2+y,1/2-z
3 -x,-y,-z
4 x,1/2-y,1/2+z
_cell_length_a                   17.834(4)
_cell_length_b                   6.0045(13)
_cell_length_c                   15.233(3)
_cell_angle_alpha                90
_cell_angle_beta                 95.790(4)
_cell_angle_gamma                90
_cell_volume                     1622.89
_cell_formula_units_Z            4
loop_
_atom_site_label
_atom_site_type_symbol
_atom_site_fract_x
_atom_site_fract_y
_atom_site_fract_z
O1 O 0.54234(6) 0.0540(2) 0.15060(7)
O2 O 0.23574(7) 0.2572(2) -0.08350(9)
N1 N 0.91242(13) 0.3812(4) 0.39502(16)
N2 N 0.56328(9) -0.2747(3) 0.21131(10)
N3 N 0.49279(9) -0.2785(3) 0.16193(10)
C1 C 0.86051(14) 0.2965(4) 0.35971(15)
C2 C 0.79402(11) 0.1948(4) 0.31704(13)
C3 C 0.74844(11) 0.3154(4) 0.25530(14)
H1 H 0.7631 0.4568 0.2390
C4 C 0.68179(11) 0.2276(3) 0.21797(13)
H2 H 0.6510 0.3101 0.1771
C5 C 0.66035(10) 0.0158(3) 0.24126(11)
C6 C 0.70632(11) -0.1062(3) 0.30220(13)
H3 H 0.6922 -0.2490 0.3175
C7 C 0.77273(11) -0.0169(4) 0.34014(13)
H4 H 0.8034 -0.0989 0.3813
C8 C 0.58968(10) -0.0778(3) 0.20306(11)
C9 C 0.48277(10) -0.0817(3) 0.12816(11)
C10 C 0.41889(10) 0.0043(3) 0.07272(11)
C11 C 0.41884(11) 0.2175(3) 0.03683(12)
H5 H 0.4609 0.3084 0.0485
C12 C 0.35754(11) 0.2940(3) -0.01533(12)
H6 H 0.3585 0.4360 -0.0396
C13 C 0.29397(11) 0.1625(3) -0.03248(12)
C14 C 0.29351(11) -0.0502(3) 0.00250(12)
H7 H 0.2514 -0.1407 -0.0091
C15 C 0.35555(11) -0.1270(3) 0.05443(12)
H8 H 0.3549 -0.2701 0.0777
C16 C 0.16616(11) 0.1363(4) -0.09737(14)
H9 H 0.1504 0.0885 -0.0412
H10 H 0.1726 0.0052 -0.1331
C17 C 0.10810(12) 0.2864(4) -0.14335(14)
H11 H 0.0620 0.2022 -0.1574
H12 H 0.1255 0.3350 -0.1985
C18 C 0.09060(13) 0.4883(4) -0.09079(17)
H13 H 0.1367 0.5719 -0.0763
H14 H 0.0728 0.4398 -0.0358
C19 C 0.03225(15) 0.6406(5) -0.1380(2)
H15 H 0.0518 0.7034 -0.1890
H16 H 0.0204 0.7581 -0.0989
H17 H -0.0126 0.5571 -0.1561
loop_
_geom_bond_atom_site_label_1
_geom_bond_atom_site_label_2
_geom_bond_site_symmetry_1
_geom_bond_site_symmetry_2
O1 C8 1_555 1_555
O2 C13 1_555 1_555
N1 C1 1_555 1_555
N2 N3 1_555 1_555
N3 C9 1_555 1_555
C1 C2 1_555 1_555
C2 C3 1_555 1_555
C3 H1 1_555 1_555
C4 C3 1_555 1_555
H2 C4 1_555 1_555
C5 C4 1_555 1_555
C6 C5 1_555 1_555
H3 C6 1_555 1_555
C7 C2 1_555 1_555
H4 C7 1_555 1_555
C8 N2 1_555 1_555
C9 O1 1_555 1_555
C10 C9 1_555 1_555
C11 C10 1_555 1_555
H5 C11 1_555 1_555
C12 C11 1_555 1_555
H6 C12 1_555 1_555
C13 C12 1_555 1_555
C14 C13 1_555 1_555
H7 C14 1_555 1_555
C15 C10 1_555 1_555
H8 C15 1_555 1_555
C16 O2 1_555 1_555
H9 C16 1_555 1_555
H10 C16 1_555 1_555
C17 C16 1_555 1_555
H11 C17 1_555 1_555
H12 C17 1_555 1_555
C18 C17 1_555 1_555
H13 C18 1_555 1_555
H14 C18 1_555 1_555
C19 C18 1_555 1_555
H15 C19 1_555 1_555
H16 C19 1_555 1_555
H17 C19 1_555 1_555
C5 C8 1_555 1_555
C6 C7 1_555 1_555
C14 C15 1_555 1_555

#END
