
#######################################################################
#
#                 Cambridge Crystallographic Data Centre
#                                CCDC 
#
#######################################################################
#
# If this CIF has been generated from an entry in the Cambridge 
# Structural Database, then it will include bibliographic, chemical, 
# crystal, experimental, refinement or atomic coordinate data resulting 
# from the CCDC's data processing and validation procedures.
#
#######################################################################

data_YIQVEC01
_chemical_formula_moiety         'C26 H19 N1 O1 S1'
_chemical_name_systematic        
(3-methyl-4-(10H-phenothiazin-10-yl)phenyl)(phenyl)methanone
_symmetry_cell_setting           monoclinic
_symmetry_space_group_name_H-M   'P 21/n'
_symmetry_Int_Tables_number      14
_space_group_name_Hall           '-P 2yn'
loop_
_symmetry_equiv_pos_site_id
_symmetry_equiv_pos_as_xyz
1 x,y,z
2 1/2-x,1/2+y,1/2-z
3 -x,-y,-z
4 1/2+x,1/2-y,1/2+z
_cell_length_a                   10.9527(9)
_cell_length_b                   8.8724(8)
_cell_length_c                   20.1833(17)
_cell_angle_alpha                90
_cell_angle_beta                 98.863(3)
_cell_angle_gamma                90
_cell_volume                     1937.93
_exptl_crystal_colour            yellow
_exptl_crystal_description       irregular
_cell_formula_units_Z            4
_exptl_crystal_recrystallization_method dichloromethane/hexane
_exptl_crystal_preparation       ', Luminescent'
loop_
_atom_site_label
_atom_site_type_symbol
_atom_site_fract_x
_atom_site_fract_y
_atom_site_fract_z
S1 S 0.52082(4) 0.18088(4) 0.05579(2)
O1 O 0.40220(13) 0.80748(15) 0.40637(6)
N1 N 0.56094(12) 0.37115(14) 0.18408(6)
C1 C 0.48884(14) 0.71905(17) 0.41284(7)
C2 C 0.51469(14) 0.63201(16) 0.35295(7)
C3 C 0.63345(14) 0.59678(17) 0.34110(7)
H1 H 0.7034 0.6297 0.3715
C4 C 0.64934(13) 0.51325(17) 0.28469(7)
H2 H 0.7302 0.4889 0.2765
C5 C 0.54688(13) 0.46535(15) 0.24021(7)
C6 C 0.42686(13) 0.50222(16) 0.25044(7)
C7 C 0.41335(13) 0.58761(16) 0.30669(7)
H3 H 0.3328 0.6164 0.3137
C8 C 0.60990(13) 0.43207(16) 0.12890(7)
C9 C 0.60308(13) 0.35153(16) 0.06872(7)
C10 C 0.65397(14) 0.40974(18) 0.01518(8)
H4 H 0.6516 0.3517 -0.0246
C11 C 0.70804(15) 0.55121(18) 0.01898(8)
H5 H 0.7421 0.5910 -0.0179
C12 C 0.71156(16) 0.63354(18) 0.07759(8)
H6 H 0.7469 0.7315 0.0805
C13 C 0.66415(15) 0.57496(17) 0.13223(8)
H7 H 0.6687 0.6326 0.1722
C14 C 0.54870(13) 0.21422(16) 0.19338(7)
C15 C 0.53519(13) 0.11431(16) 0.13866(7)
C16 C 0.52366(14) -0.04009(17) 0.14879(8)
H8 H 0.5182 -0.1072 0.1118
C17 C 0.52009(15) -0.09676(17) 0.21281(9)
H9 H 0.5098 -0.2017 0.2194
C18 C 0.53171(15) 0.00109(18) 0.26673(8)
H10 H 0.5287 -0.0370 0.3104
C19 C 0.54785(15) 0.15494(17) 0.25760(8)
H11 H 0.5584 0.2203 0.2953
C20 C 0.56626(14) 0.69700(16) 0.47975(7)
C21 C 0.64687(14) 0.57601(17) 0.49490(8)
H12 H 0.6545 0.5019 0.4618
C22 C 0.71626(15) 0.5637(2) 0.55849(8)
H13 H 0.7715 0.4815 0.5686
C23 C 0.70501(16) 0.6713(2) 0.60715(8)
H14 H 0.7542 0.6641 0.6501
C24 C 0.62195(16) 0.7893(2) 0.59299(8)
H15 H 0.6128 0.8617 0.6266
C25 C 0.55254(15) 0.80156(18) 0.52994(8)
H16 H 0.4950 0.8817 0.5206
C26 C 0.31697(15) 0.4476(2) 0.20326(9)
H17 H 0.3224 0.4830 0.1578
H18 H 0.2414 0.4868 0.2174
H19 H 0.3152 0.3372 0.2037
loop_
_geom_bond_atom_site_label_1
_geom_bond_atom_site_label_2
_geom_bond_site_symmetry_1
_geom_bond_site_symmetry_2
S1 C9 1_555 1_555
O1 C1 1_555 1_555
N1 C5 1_555 1_555
C1 C2 1_555 1_555
C2 C3 1_555 1_555
C3 H1 1_555 1_555
C4 C3 1_555 1_555
H2 C4 1_555 1_555
C5 C4 1_555 1_555
C6 C5 1_555 1_555
C7 C2 1_555 1_555
H3 C7 1_555 1_555
C8 N1 1_555 1_555
C9 C8 1_555 1_555
C10 C9 1_555 1_555
H4 C10 1_555 1_555
C11 C10 1_555 1_555
H5 C11 1_555 1_555
C12 C11 1_555 1_555
H6 C12 1_555 1_555
C13 C8 1_555 1_555
H7 C13 1_555 1_555
C14 N1 1_555 1_555
C15 S1 1_555 1_555
C16 C15 1_555 1_555
H8 C16 1_555 1_555
C17 C16 1_555 1_555
H9 C17 1_555 1_555
C18 C17 1_555 1_555
H10 C18 1_555 1_555
C19 C14 1_555 1_555
H11 C19 1_555 1_555
C20 C1 1_555 1_555
C21 C20 1_555 1_555
H12 C21 1_555 1_555
C22 C21 1_555 1_555
H13 C22 1_555 1_555
C23 C22 1_555 1_555
H14 C23 1_555 1_555
C24 C23 1_555 1_555
H15 C24 1_555 1_555
C25 C20 1_555 1_555
H16 C25 1_555 1_555
C26 C6 1_555 1_555
H17 C26 1_555 1_555
H18 C26 1_555 1_555
H19 C26 1_555 1_555
C6 C7 1_555 1_555
C12 C13 1_555 1_555
C14 C15 1_555 1_555
C18 C19 1_555 1_555
C24 C25 1_555 1_555

#END
