
#######################################################################
#
#                 Cambridge Crystallographic Data Centre
#                                CCDC 
#
#######################################################################
#
# If this CIF has been generated from an entry in the Cambridge 
# Structural Database, then it will include bibliographic, chemical, 
# crystal, experimental, refinement or atomic coordinate data resulting 
# from the CCDC's data processing and validation procedures.
#
#######################################################################

data_YIQWED
_chemical_formula_moiety         'C27 H21 N1 O1 S1'
_chemical_name_systematic        
'[4-(1,9-dimethyl-10H-phenothiazin-10-yl)phenyl](phenyl)methanone'
_symmetry_cell_setting           monoclinic
_symmetry_space_group_name_H-M   'P 21/c'
_symmetry_Int_Tables_number      14
_space_group_name_Hall           '-P 2ybc'
loop_
_symmetry_equiv_pos_site_id
_symmetry_equiv_pos_as_xyz
1 x,y,z
2 -x,1/2+y,1/2-z
3 -x,-y,-z
4 x,1/2-y,1/2+z
_cell_length_a                   12.8485(4)
_cell_length_b                   11.0016(4)
_cell_length_c                   15.4009(5)
_cell_angle_alpha                90
_cell_angle_beta                 109.6540(12)
_cell_angle_gamma                90
_cell_volume                     2050.15
_exptl_crystal_colour            colorless
_exptl_crystal_description       block
_cell_formula_units_Z            4
_exptl_crystal_recrystallization_method dichloromethane/hexane
_exptl_crystal_preparation       Luminescent
loop_
_atom_site_label
_atom_site_type_symbol
_atom_site_fract_x
_atom_site_fract_y
_atom_site_fract_z
S1 S 0.45240(2) 0.81272(3) 0.68702(2)
O1 O 0.88214(7) 0.28417(7) 0.68685(5)
N1 N 0.66507(7) 0.81139(7) 0.65198(6)
C1 C 0.87680(8) 0.35043(9) 0.74921(7)
C2 C 0.82206(8) 0.47064(9) 0.72776(6)
C3 C 0.84378(8) 0.56733(9) 0.79011(6)
H1 H 0.8954 0.5567 0.8505
C4 C 0.79150(8) 0.67838(9) 0.76560(7)
H2 H 0.8074 0.7424 0.8095
C5 C 0.71538(8) 0.69776(8) 0.67688(6)
C6 C 0.69363(8) 0.60082(9) 0.61344(7)
H3 H 0.6425 0.6114 0.5529
C7 C 0.74640(9) 0.49037(9) 0.63904(7)
H4 H 0.7310 0.4261 0.5953
C8 C 0.57141(8) 0.82238(8) 0.56923(6)
C9 C 0.46607(8) 0.81978(9) 0.57692(7)
C10 C 0.37232(9) 0.82335(10) 0.49811(8)
H5 H 0.3007 0.8203 0.5031
C11 C 0.38486(10) 0.83136(10) 0.41245(8)
H6 H 0.3215 0.8303 0.3583
C12 C 0.48906(10) 0.84094(10) 0.40518(7)
H7 H 0.4959 0.8500 0.3460
C13 C 0.58441(9) 0.83748(9) 0.48321(7)
C14 C 0.69623(10) 0.84757(13) 0.47352(8)
H8 H 0.7458 0.8927 0.5261
H9 H 0.6899 0.8905 0.4162
H10 H 0.7262 0.7660 0.4719
C15 C 0.66456(8) 0.89258(8) 0.72474(6)
C16 C 0.57030(9) 0.89660(9) 0.75032(7)
C17 C 0.56900(10) 0.96663(10) 0.82543(7)
H11 H 0.5049 0.9699 0.8429
C18 C 0.66318(10) 1.03138(10) 0.87409(7)
H12 H 0.6648 1.0759 0.9274
C19 C 0.75513(10) 1.03193(9) 0.84590(7)
H13 H 0.8179 1.0790 0.8791
C20 C 0.75691(8) 0.96439(9) 0.76951(7)
C21 C 0.85492(9) 0.96887(10) 0.73694(8)
H14 H 0.8862 0.8871 0.7397
H15 H 0.8315 0.9986 0.6733
H16 H 0.9109 1.0237 0.7767
C22 C 0.92440(8) 0.30621(8) 0.84657(7)
C23 C 0.88058(8) 0.33868(9) 0.91496(7)
H17 H 0.8229 0.3971 0.9021
C24 C 0.92120(9) 0.28563(10) 1.00190(7)
H18 H 0.8917 0.3085 1.0484
C25 C 1.00467(9) 0.19936(10) 1.02077(7)
H19 H 1.0312 0.1622 1.0798
C26 C 1.04954(9) 0.16712(10) 0.95358(8)
H20 H 1.1074 0.1089 0.9669
C27 C 1.00952(8) 0.22030(9) 0.86669(7)
H21 H 1.0402 0.1982 0.8207
H22? H 0.9210 0.9410 0.7865
H23? H 0.8415 0.9159 0.6831
H24? H 0.8662 1.0525 0.7201
loop_
_geom_bond_atom_site_label_1
_geom_bond_atom_site_label_2
_geom_bond_site_symmetry_1
_geom_bond_site_symmetry_2
S1 C9 1_555 1_555
O1 C1 1_555 1_555
N1 C5 1_555 1_555
C1 C2 1_555 1_555
C2 C3 1_555 1_555
C3 H1 1_555 1_555
C4 C3 1_555 1_555
H2 C4 1_555 1_555
C5 C4 1_555 1_555
C6 C5 1_555 1_555
H3 C6 1_555 1_555
C7 C2 1_555 1_555
H4 C7 1_555 1_555
C8 N1 1_555 1_555
C9 C8 1_555 1_555
C10 C9 1_555 1_555
H5 C10 1_555 1_555
C11 C10 1_555 1_555
H6 C11 1_555 1_555
C12 C11 1_555 1_555
H7 C12 1_555 1_555
C13 C8 1_555 1_555
C14 C13 1_555 1_555
H8 C14 1_555 1_555
H9 C14 1_555 1_555
H10 C14 1_555 1_555
C15 N1 1_555 1_555
C16 S1 1_555 1_555
C17 C16 1_555 1_555
H11 C17 1_555 1_555
C18 C17 1_555 1_555
H12 C18 1_555 1_555
C19 C18 1_555 1_555
H13 C19 1_555 1_555
C20 C15 1_555 1_555
C21 C20 1_555 1_555
H14 C21 1_555 1_555
H15 C21 1_555 1_555
H16 C21 1_555 1_555
C22 C1 1_555 1_555
C23 C22 1_555 1_555
H17 C23 1_555 1_555
C24 C23 1_555 1_555
H18 C24 1_555 1_555
C25 C24 1_555 1_555
H19 C25 1_555 1_555
C26 C25 1_555 1_555
H20 C26 1_555 1_555
C27 C22 1_555 1_555
H21 C27 1_555 1_555
C6 C7 1_555 1_555
C12 C13 1_555 1_555
C15 C16 1_555 1_555
C19 C20 1_555 1_555
C26 C27 1_555 1_555

#END
