
#######################################################################
#
#                 Cambridge Crystallographic Data Centre
#                                CCDC 
#
#######################################################################
#
# If this CIF has been generated from an entry in the Cambridge 
# Structural Database, then it will include bibliographic, chemical, 
# crystal, experimental, refinement or atomic coordinate data resulting 
# from the CCDC's data processing and validation procedures.
#
#######################################################################

data_YIRHIR01
_chemical_formula_moiety         'C12 H10 N4 O2,H2 O1'
_chemical_name_systematic        
"N'-(E)-(3-Hydroxybenzylidene)-2-pyrazinecarbohydrazide monohydrate"
_symmetry_cell_setting           triclinic
_symmetry_space_group_name_H-M   'P -1'
_symmetry_Int_Tables_number      2
_space_group_name_Hall           '-P 1'
loop_
_symmetry_equiv_pos_site_id
_symmetry_equiv_pos_as_xyz
1 x,y,z
2 -x,-y,-z
_cell_length_a                   8.0182(3)
_cell_length_b                   8.1593(3)
_cell_length_c                   9.3206(3)
_cell_angle_alpha                95.203(2)
_cell_angle_beta                 102.338(2)
_cell_angle_gamma                100.588(2)
_cell_volume                     580.169
_exptl_crystal_colour            colorless
_exptl_crystal_description       block
_chemical_melting_point          '537-538 K'
_cell_formula_units_Z            2
_exptl_crystal_recrystallization_method ethanol
loop_
_atom_site_label
_atom_site_type_symbol
_atom_site_fract_x
_atom_site_fract_y
_atom_site_fract_z
O1 O 0.47683(14) 0.57444(13) 0.77531(11)
O2 O 0.07230(13) 1.09149(12) 0.36030(11)
H1 H -0.0095 1.1388 0.3264
N1 N 0.63495(15) 0.15433(15) 0.93959(13)
N2 N 0.45378(15) 0.14560(15) 0.64518(13)
N3 N 0.31906(15) 0.41153(15) 0.55989(13)
H2 H 0.2908 0.3118 0.5060
N4 N 0.25334(15) 0.54601(14) 0.50731(13)
C1 C 0.48772(17) 0.28351(17) 0.74497(15)
C2 C 0.57716(18) 0.28860(18) 0.89109(16)
H3 H 0.5979 0.3891 0.9581
C3 C 0.60306(18) 0.01805(18) 0.83991(16)
H4 H 0.6430 -0.0791 0.8695
C4 C 0.51298(18) 0.01328(18) 0.69370(16)
H5 H 0.4931 -0.0870 0.6266
C5 C 0.42795(18) 0.43767(17) 0.69632(15)
C6 C 0.16125(17) 0.51656(17) 0.37340(15)
H6 H 0.1450 0.4084 0.3189
C7 C 0.08021(17) 0.64496(17) 0.30193(15)
C8 C 0.11280(17) 0.81193(17) 0.36841(15)
H7 H 0.1885 0.8456 0.4641
C9 C 0.03443(17) 0.92851(17) 0.29433(15)
C10 C -0.07729(18) 0.87911(18) 0.15351(16)
H8 H -0.1301 0.9591 0.1025
C11 C -0.11076(19) 0.71303(19) 0.08849(15)
H9 H -0.1879 0.6792 -0.0066
C12 C -0.03235(18) 0.59591(18) 0.16141(15)
H10 H -0.0551 0.4825 0.1159
O3 O 0.19197(14) 0.77372(14) 0.75169(13)
H11 H 0.248(3) 0.802(3) 0.843(2)
H12 H 0.240(3) 0.706(3) 0.702(2)
loop_
_geom_bond_atom_site_label_1
_geom_bond_atom_site_label_2
_geom_bond_site_symmetry_1
_geom_bond_site_symmetry_2
O1 C5 1_555 1_555
O2 H1 1_555 1_555
N1 C2 1_555 1_555
N2 C1 1_555 1_555
N3 H2 1_555 1_555
N4 N3 1_555 1_555
C1 C2 1_555 1_555
C2 H3 1_555 1_555
C3 N1 1_555 1_555
H4 C3 1_555 1_555
C4 N2 1_555 1_555
H5 C4 1_555 1_555
C5 N3 1_555 1_555
C6 N4 1_555 1_555
H6 C6 1_555 1_555
C7 C6 1_555 1_555
C8 C7 1_555 1_555
H7 C8 1_555 1_555
C9 O2 1_555 1_555
C10 C9 1_555 1_555
H8 C10 1_555 1_555
C11 C10 1_555 1_555
H9 C11 1_555 1_555
C12 C7 1_555 1_555
H10 C12 1_555 1_555
O3 H11 1_555 1_555
H12 O3 1_555 1_555
C1 C5 1_555 1_555
C3 C4 1_555 1_555
C8 C9 1_555 1_555
C11 C12 1_555 1_555

#END
