
#######################################################################
#
#                 Cambridge Crystallographic Data Centre
#                                CCDC 
#
#######################################################################
#
# If this CIF has been generated from an entry in the Cambridge 
# Structural Database, then it will include bibliographic, chemical, 
# crystal, experimental, refinement or atomic coordinate data resulting 
# from the CCDC's data processing and validation procedures.
#
#######################################################################

data_YISDEK
_chemical_formula_moiety         'C25 H29 N1 O6'
_chemical_name_systematic        carbaplatensimycin
_chemical_properties_biological  
'Antibacterial activity against MRSA, VREF, Staphylococcus aureus, Staphylococcus epidermidis, Bacillus cereus and Lysteria monocytogenes. Inactive against E. coli, B. cepacia, S. typhimurium and P. aeruginosa'
_symmetry_cell_setting           orthorhombic
_symmetry_space_group_name_H-M   'P 21 21 21'
_symmetry_Int_Tables_number      19
_space_group_name_Hall           'P 2ac 2ab'
loop_
_symmetry_equiv_pos_site_id
_symmetry_equiv_pos_as_xyz
1 x,y,z
2 1/2-x,-y,1/2+z
3 -x,1/2+y,1/2-z
4 1/2+x,1/2-y,-z
_cell_length_a                   10.166(2)
_cell_length_b                   11.161(2)
_cell_length_c                   19.386(4)
_cell_angle_alpha                90
_cell_angle_beta                 90
_cell_angle_gamma                90
_cell_volume                     2199.59
_exptl_crystal_colour            colorless
_exptl_crystal_description       Parallelepiped
_chemical_melting_point          '217-219 deg.C'
_cell_formula_units_Z            4
_exptl_crystal_recrystallization_method acetone/hexane
loop_
_atom_site_label
_atom_site_type_symbol
_atom_site_fract_x
_atom_site_fract_y
_atom_site_fract_z
O1 O 0.5379(2) 1.13956(18) 0.04670(14)
H1 H 0.4813 1.0885 0.0534
O2 O 1.07133(19) 0.84494(19) 0.06174(14)
O3 O 1.1416(2) 1.0324(2) 0.04851(18)
H2 H 1.2131 1.0007 0.0556
O4 O 0.82309(19) 0.80541(15) 0.07246(11)
H3 H 0.9007 0.7870 0.0678
O5 O 0.3905(2) 0.9676(2) 0.0658(2)
O6 O 0.5976(3) 0.5741(3) 0.12993(18)
N1 N 0.5823(2) 0.8762(2) 0.07155(13)
H4 H 0.6156 0.8062 0.0778
C1 C 0.6579(3) 1.0877(2) 0.04785(14)
C2 C 0.7642(3) 1.1631(2) 0.03670(15)
H5 H 0.7495 1.2440 0.0284
C3 C 0.8895(3) 1.1208(3) 0.03771(15)
H6 H 0.9592 1.1732 0.0301
C4 C 0.9153(3) 1.0001(2) 0.04994(15)
C5 C 0.8081(3) 0.9232(2) 0.05976(13)
C6 C 0.6795(3) 0.9654(2) 0.05894(13)
C7 C 0.4536(3) 0.8766(3) 0.07579(16)
C8 C 0.3887(3) 0.7618(2) 0.09583(14)
H7 H 0.4235 0.6973 0.0677
H8 H 0.2950 0.7677 0.0869
C9 C 0.4108(3) 0.7321(3) 0.17246(15)
H9 H 0.4993 0.7560 0.1851
H10 H 0.3501 0.7792 0.1999
C10 C 0.3926(3) 0.6003(3) 0.19070(15)
C11 C 0.4967(3) 0.5277(4) 0.1511(2)
C12 C 0.4724(4) 0.4003(3) 0.14098(19)
H11 H 0.5409 0.3524 0.1251
C13 C 0.3571(4) 0.3499(3) 0.15336(17)
H12 H 0.3504 0.2676 0.1469
C14 C 0.2372(3) 0.4144(2) 0.17671(15)
C15 C 0.2559(3) 0.5530(2) 0.16964(14)
H13 H 0.2521 0.5672 0.1198
C16 C 0.1342(3) 0.6194(3) 0.19804(16)
H14 H 0.1456 0.7066 0.1971
C17 C 0.0921(4) 0.5745(3) 0.26928(17)
H15 H 0.1629 0.5814 0.3026
H16 H 0.0156 0.6174 0.2862
C18 C 0.0599(3) 0.4437(3) 0.25367(16)
H17 H -0.0014 0.4079 0.2868
C19 C 0.1899(3) 0.3775(3) 0.24878(16)
H18 H 0.1777 0.2915 0.2521
H19 H 0.2508 0.4035 0.2843
C20 C 0.0144(3) 0.5798(3) 0.15746(17)
H20 H 0.0276 0.5899 0.1082
H21 H -0.0637 0.6235 0.1714
C21 C 0.0050(3) 0.4464(3) 0.17728(17)
C22 C 0.1117(3) 0.3813(3) 0.13712(16)
H22 H 0.1157 0.4091 0.0898
H23 H 0.0973 0.2954 0.1374
C23 C -0.1321(3) 0.3960(3) 0.1679(2)
H24 H -0.1579 0.4037 0.1205
H25 H -0.1927 0.4393 0.1965
H26 H -0.1326 0.3129 0.1807
C24 C 1.0474(3) 0.9514(3) 0.05395(17)
C25 C 0.4295(4) 0.5869(3) 0.26781(18)
H27 H 0.5182 0.6137 0.2748
H28 H 0.4223 0.5042 0.2811
H29 H 0.3708 0.6343 0.2954
loop_
_geom_bond_atom_site_label_1
_geom_bond_atom_site_label_2
_geom_bond_site_symmetry_1
_geom_bond_site_symmetry_2
O1 H1 1_555 1_555
O2 C24 1_555 1_555
O3 H2 1_555 1_555
O4 H3 1_555 1_555
O5 C7 1_555 1_555
O6 C11 1_555 1_555
N1 H4 1_555 1_555
C1 O1 1_555 1_555
C2 C1 1_555 1_555
H5 C2 1_555 1_555
C3 C2 1_555 1_555
H6 C3 1_555 1_555
C4 C3 1_555 1_555
C5 O4 1_555 1_555
C6 N1 1_555 1_555
C7 N1 1_555 1_555
C8 C7 1_555 1_555
H7 C8 1_555 1_555
H8 C8 1_555 1_555
C9 C8 1_555 1_555
H9 C9 1_555 1_555
H10 C9 1_555 1_555
C10 C9 1_555 1_555
C11 C10 1_555 1_555
C12 C11 1_555 1_555
H11 C12 1_555 1_555
C13 C12 1_555 1_555
H12 C13 1_555 1_555
C14 C13 1_555 1_555
C15 C10 1_555 1_555
H13 C15 1_555 1_555
C16 C15 1_555 1_555
H14 C16 1_555 1_555
C17 C16 1_555 1_555
H15 C17 1_555 1_555
H16 C17 1_555 1_555
C18 C17 1_555 1_555
H17 C18 1_555 1_555
C19 C14 1_555 1_555
H18 C19 1_555 1_555
H19 C19 1_555 1_555
C20 C16 1_555 1_555
H20 C20 1_555 1_555
H21 C20 1_555 1_555
C21 C18 1_555 1_555
C22 C14 1_555 1_555
H22 C22 1_555 1_555
H23 C22 1_555 1_555
C23 C21 1_555 1_555
H24 C23 1_555 1_555
H25 C23 1_555 1_555
H26 C23 1_555 1_555
C24 O3 1_555 1_555
C25 C10 1_555 1_555
H27 C25 1_555 1_555
H28 C25 1_555 1_555
H29 C25 1_555 1_555
C1 C6 1_555 1_555
C4 C5 1_555 1_555
C4 C24 1_555 1_555
C5 C6 1_555 1_555
C14 C15 1_555 1_555
C18 C19 1_555 1_555
C20 C21 1_555 1_555
C21 C22 1_555 1_555

#END
