
#######################################################################
#
#                 Cambridge Crystallographic Data Centre
#                                CCDC 
#
#######################################################################
#
# If this CIF has been generated from an entry in the Cambridge 
# Structural Database, then it will include bibliographic, chemical, 
# crystal, experimental, refinement or atomic coordinate data resulting 
# from the CCDC's data processing and validation procedures.
#
#######################################################################

data_YITDAI
_chemical_formula_moiety         'C24 H24 N2 O3 S1'
_chemical_name_systematic        
6,11-Dimethyl-5-((4-methylphenyl)sulfonyl)-5,5a,6,11-tetrahydro-10bH-indolo[2,3-b]quinolin-10b-ol
_symmetry_cell_setting           triclinic
_symmetry_space_group_name_H-M   'P -1'
_symmetry_Int_Tables_number      2
_space_group_name_Hall           '-P 1'
loop_
_symmetry_equiv_pos_site_id
_symmetry_equiv_pos_as_xyz
1 x,y,z
2 -x,-y,-z
_cell_length_a                   8.5369(11)
_cell_length_b                   10.8291(14)
_cell_length_c                   12.7474(16)
_cell_angle_alpha                66.543(3)
_cell_angle_beta                 80.738(2)
_cell_angle_gamma                83.184(2)
_cell_volume                     1065.03
_exptl_crystal_colour            colorless
_exptl_crystal_description       block
_chemical_melting_point          '164-165 deg.C'
_cell_formula_units_Z            2
loop_
_atom_site_label
_atom_site_type_symbol
_atom_site_fract_x
_atom_site_fract_y
_atom_site_fract_z
C1 C 0.3075(12) 0.0261(9) -0.0846(9)
H1 H 0.3921 -0.0344 -0.0480
H2 H 0.3513 0.0968 -0.1533
H3 H 0.2378 -0.0225 -0.1043
C2 C 0.2137(9) 0.0875(8) -0.0019(7)
C3 C 0.2036(9) 0.2251(7) -0.0321(6)
H4 H 0.2531 0.2804 -0.1033
C4 C 0.1220(9) 0.2815(7) 0.0410(6)
H5 H 0.1179 0.3743 0.0204
C5 C 0.0459(7) 0.1998(6) 0.1454(5)
C6 C 0.0539(10) 0.0641(8) 0.1749(7)
H6 H 0.0029 0.0086 0.2455
C7 C 0.1370(12) 0.0088(8) 0.1008(8)
H7 H 0.1408 -0.0840 0.1215
C8 C 0.1938(6) 0.4017(5) 0.2404(5)
C9 C 0.1423(8) 0.5313(6) 0.1746(6)
H8 H 0.0340 0.5548 0.1743
C10 C 0.2497(12) 0.6258(8) 0.1096(7)
H9 H 0.2142 0.7135 0.0667
C11 C 0.4093(11) 0.5911(9) 0.1079(7)
H10 H 0.4824 0.6533 0.0601
C12 C 0.4605(9) 0.4646(9) 0.1770(6)
H11 H 0.5690 0.4440 0.1800
C13 C 0.3552(7) 0.3661(6) 0.2426(5)
C14 C 0.4095(7) 0.2239(7) 0.3150(5)
H12 H 0.5160 0.2281 0.3325
C15 C 0.3033(6) 0.1751(6) 0.4291(5)
C16 C 0.1203(7) 0.1933(7) 0.4191(5)
H13 H 0.0815 0.1070 0.4294
C17 C 0.4265(8) 0.1311(7) 0.2499(6)
H14 H 0.3231 0.1166 0.2380
H15 H 0.4776 0.0463 0.2939
H16 H 0.4895 0.1719 0.1767
C18 C -0.1154(8) 0.2549(9) 0.5387(6)
H17 H -0.1452 0.3473 0.4941
H18 H -0.1404 0.2375 0.6193
H19 H -0.1727 0.1968 0.5200
C19 C 0.1655(9) 0.2804(8) 0.5497(5)
C20 C 0.3160(7) 0.2504(6) 0.5049(5)
C21 C 0.4476(9) 0.2809(8) 0.5344(6)
H20 H 0.5484 0.2550 0.5070
C22 C 0.4293(12) 0.3519(9) 0.6065(7)
H21 H 0.5177 0.3772 0.6255
C23 C 0.2775(15) 0.3839(8) 0.6492(7)
H22 H 0.2652 0.4292 0.6988
C24 C 0.1453(12) 0.3510(9) 0.6208(7)
H23 H 0.0441 0.3756 0.6487
N1 N 0.0830(5) 0.2983(5) 0.3056(4)
N2 N 0.0511(7) 0.2297(8) 0.5128(5)
O1 O -0.1292(5) 0.3963(5) 0.1760(4)
O2 O -0.1475(5) 0.1704(6) 0.3299(4)
O3 O 0.3367(5) 0.0328(4) 0.4866(4)
H24 H 0.2817 0.0053 0.5494
S1 S -0.05335(17) 0.27004(18) 0.24174(15)
loop_
_geom_bond_atom_site_label_1
_geom_bond_atom_site_label_2
_geom_bond_site_symmetry_1
_geom_bond_site_symmetry_2
C1 H1 1_555 1_555
H2 C1 1_555 1_555
H3 C1 1_555 1_555
C2 C1 1_555 1_555
C3 C2 1_555 1_555
H4 C3 1_555 1_555
C4 C3 1_555 1_555
H5 C4 1_555 1_555
C5 C4 1_555 1_555
C6 C5 1_555 1_555
H6 C6 1_555 1_555
C7 C2 1_555 1_555
H7 C7 1_555 1_555
C8 C9 1_555 1_555
C9 H8 1_555 1_555
C10 C9 1_555 1_555
H9 C10 1_555 1_555
C11 C10 1_555 1_555
H10 C11 1_555 1_555
C12 C11 1_555 1_555
H11 C12 1_555 1_555
C13 C8 1_555 1_555
C14 C13 1_555 1_555
H12 C14 1_555 1_555
C15 C14 1_555 1_555
C16 C15 1_555 1_555
H13 C16 1_555 1_555
C17 C14 1_555 1_555
H14 C17 1_555 1_555
H15 C17 1_555 1_555
H16 C17 1_555 1_555
C18 H17 1_555 1_555
H18 C18 1_555 1_555
H19 C18 1_555 1_555
C19 C20 1_555 1_555
C20 C15 1_555 1_555
C21 C20 1_555 1_555
H20 C21 1_555 1_555
C22 C21 1_555 1_555
H21 C22 1_555 1_555
C23 C22 1_555 1_555
H22 C23 1_555 1_555
C24 C19 1_555 1_555
H23 C24 1_555 1_555
N1 C8 1_555 1_555
N2 C16 1_555 1_555
O1 S1 1_555 1_555
O2 S1 1_555 1_555
O3 C15 1_555 1_555
H24 O3 1_555 1_555
S1 C5 1_555 1_555
C6 C7 1_555 1_555
C12 C13 1_555 1_555
C16 N1 1_555 1_555
C18 N2 1_555 1_555
C19 N2 1_555 1_555
C23 C24 1_555 1_555
N1 S1 1_555 1_555

#END
