
#######################################################################
#
#                 Cambridge Crystallographic Data Centre
#                                CCDC 
#
#######################################################################
#
# If this CIF has been generated from an entry in the Cambridge 
# Structural Database, then it will include bibliographic, chemical, 
# crystal, experimental, refinement or atomic coordinate data resulting 
# from the CCDC's data processing and validation procedures.
#
#######################################################################

data_YITNOG
_chemical_formula_moiety         'C28 H34 N2 O2'
_chemical_name_systematic        
2,4-Di-t-butyl-6-((2-(((2-hydroxybenzylidene)amino)methyl)phenyl)amino)phenol
_symmetry_cell_setting           triclinic
_symmetry_space_group_name_H-M   'P -1'
_symmetry_Int_Tables_number      2
_space_group_name_Hall           '-P 1'
loop_
_symmetry_equiv_pos_site_id
_symmetry_equiv_pos_as_xyz
1 x,y,z
2 -x,-y,-z
_cell_length_a                   9.5342(8)
_cell_length_b                   12.0945(10)
_cell_length_c                   12.3345(11)
_cell_angle_alpha                62.280(4)
_cell_angle_beta                 83.074(5)
_cell_angle_gamma                81.490(5)
_cell_volume                     1243.03
_exptl_crystal_colour            yellow
_exptl_crystal_description       block
_cell_formula_units_Z            2
_exptl_crystal_recrystallization_method chloroform/ethanol
loop_
_atom_site_label
_atom_site_type_symbol
_atom_site_fract_x
_atom_site_fract_y
_atom_site_fract_z
C1 C 0.67577(16) 0.34153(14) 0.30363(14)
C2 C 0.61339(16) 0.35434(14) 0.20038(15)
C3 C 0.79404(17) 0.40439(16) 0.28610(16)
H1 H 0.8364 0.3967 0.3537
C4 C 0.6718(2) 0.42767(16) 0.08488(16)
H2 H 0.6312 0.4354 0.0165
C5 C 0.8490(2) 0.47789(18) 0.16945(19)
H3 H 0.9277 0.5197 0.1593
C6 C 0.7895(2) 0.49018(18) 0.06829(19)
H4 H 0.8273 0.5396 -0.0102
C7 C 0.55330(17) 0.10070(17) 0.19069(17)
H5 H 0.5367 0.1514 0.1083
C8 C 0.60394(18) -0.03036(17) 0.23051(17)
C9 C 0.48759(18) 0.28519(16) 0.21339(17)
H6 H 0.4136 0.3011 0.2672
H7 H 0.4496 0.3158 0.1338
C10 C 0.62716(18) -0.11226(17) 0.35352(17)
C11 C 0.6799(2) -0.23630(19) 0.3886(2)
H8 H 0.6965 -0.2901 0.4704
C12 C 0.6342(2) -0.0778(2) 0.1450(2)
H9 H 0.6196 -0.0248 0.0626
C13 C 0.6852(3) -0.2016(2) 0.1815(2)
H10 H 0.7046 -0.2323 0.1241
C14 C 0.7074(2) -0.2799(2) 0.3032(2)
H11 H 0.7416 -0.3636 0.3278
C15 C 0.69893(17) 0.29707(15) 0.58453(15)
C16 C 0.76249(16) 0.09942(15) 0.57852(15)
H12 H 0.7576 0.0489 0.5411
C17 C 0.77432(17) 0.25441(16) 0.68972(16)
C18 C 0.69528(16) 0.22122(16) 0.52831(15)
C19 C 0.83642(16) 0.05237(16) 0.68321(15)
C20 C 0.84046(17) 0.13239(16) 0.73540(16)
H13 H 0.8908 0.1020 0.8055
C21 C 0.91352(17) -0.08111(16) 0.74192(17)
C22 C 0.8922(2) -0.1551(2) 0.6737(2)
H14 H 0.7925 -0.1589 0.6729
H15 H 0.9390 -0.2386 0.7146
H16 H 0.9318 -0.1140 0.5910
C23 C 1.07270(19) -0.0746(2) 0.7410(2)
H17 H 1.1211 -0.1580 0.7744
H18 H 1.0879 -0.0350 0.7898
H19 H 1.1090 -0.0266 0.6582
C24 C 0.8561(2) -0.1522(2) 0.8747(2)
H20 H 0.7570 -0.1600 0.8762
H21 H 0.8679 -0.1069 0.9190
H22 H 0.9073 -0.2343 0.9124
C25 C 0.7824(2) 0.33861(19) 0.75115(18)
C26 C 0.8654(3) 0.2699(2) 0.8674(2)
H23 H 0.8213 0.1962 0.9243
H24 H 0.8656 0.3244 0.9043
H25 H 0.9614 0.2459 0.8466
C27 C 0.6323(3) 0.3811(3) 0.7874(2)
H26 H 0.5796 0.4287 0.7153
H27 H 0.6384 0.4324 0.8268
H28 H 0.5851 0.3088 0.8429
C28 C 0.8609(3) 0.4526(2) 0.6610(2)
H29 H 0.9569 0.4243 0.6448
H30 H 0.8612 0.5084 0.6963
H31 H 0.8133 0.4959 0.5856
N1 N 0.61554(14) 0.26919(13) 0.42129(12)
H32 H 0.5288 0.2533 0.4294
N2 N 0.53050(14) 0.14943(13) 0.26411(13)
O1 O 0.62874(14) 0.41612(11) 0.53374(12)
H33 H 0.5789 0.4239 0.4804
O2 O 0.59932(15) -0.07315(12) 0.44130(11)
H34 H 0.5709 0.0019 0.4095
loop_
_geom_bond_atom_site_label_1
_geom_bond_atom_site_label_2
_geom_bond_site_symmetry_1
_geom_bond_site_symmetry_2
C1 C2 1_555 1_555
C2 C4 1_555 1_555
C3 C1 1_555 1_555
H1 C3 1_555 1_555
C4 H2 1_555 1_555
C5 C3 1_555 1_555
H3 C5 1_555 1_555
C6 C4 1_555 1_555
H4 C6 1_555 1_555
C7 H5 1_555 1_555
C8 C7 1_555 1_555
C9 C2 1_555 1_555
H6 C9 1_555 1_555
H7 C9 1_555 1_555
C10 C8 1_555 1_555
C11 C10 1_555 1_555
H8 C11 1_555 1_555
C12 C8 1_555 1_555
H9 C12 1_555 1_555
C13 C12 1_555 1_555
H10 C13 1_555 1_555
C14 C11 1_555 1_555
H11 C14 1_555 1_555
C15 C17 1_555 1_555
C16 H12 1_555 1_555
C17 C20 1_555 1_555
C18 C15 1_555 1_555
C19 C16 1_555 1_555
C20 C19 1_555 1_555
H13 C20 1_555 1_555
C21 C19 1_555 1_555
C22 C21 1_555 1_555
H14 C22 1_555 1_555
H15 C22 1_555 1_555
H16 C22 1_555 1_555
C23 C21 1_555 1_555
H17 C23 1_555 1_555
H18 C23 1_555 1_555
H19 C23 1_555 1_555
C24 C21 1_555 1_555
H20 C24 1_555 1_555
H21 C24 1_555 1_555
H22 C24 1_555 1_555
C25 C17 1_555 1_555
C26 C25 1_555 1_555
H23 C26 1_555 1_555
H24 C26 1_555 1_555
H25 C26 1_555 1_555
C27 C25 1_555 1_555
H26 C27 1_555 1_555
H27 C27 1_555 1_555
H28 C27 1_555 1_555
C28 C25 1_555 1_555
H29 C28 1_555 1_555
H30 C28 1_555 1_555
H31 C28 1_555 1_555
N1 C1 1_555 1_555
H32 N1 1_555 1_555
N2 C7 1_555 1_555
O1 C15 1_555 1_555
H33 O1 1_555 1_555
O2 C10 1_555 1_555
H34 O2 1_555 1_555
C5 C6 1_555 1_555
C9 N2 1_555 1_555
C13 C14 1_555 1_555
C16 C18 1_555 1_555
C18 N1 1_555 1_555

#END
