
#######################################################################
#
#                 Cambridge Crystallographic Data Centre
#                                CCDC 
#
#######################################################################
#
# If this CIF has been generated from an entry in the Cambridge 
# Structural Database, then it will include bibliographic, chemical, 
# crystal, experimental, refinement or atomic coordinate data resulting 
# from the CCDC's data processing and validation procedures.
#
#######################################################################

data_YIVPOI
_chemical_formula_moiety         'C17 H15 Cl1 O2'
_chemical_name_systematic        2'-Hydroxy-4',6'-dimethyl-4-chlorochalcone
_symmetry_cell_setting           triclinic
_symmetry_space_group_name_H-M   'P -1'
_symmetry_Int_Tables_number      2
_space_group_name_Hall           '-P 1'
loop_
_symmetry_equiv_pos_site_id
_symmetry_equiv_pos_as_xyz
1 x,y,z
2 -x,-y,-z
_cell_length_a                   9.391
_cell_length_b                   10.004
_cell_length_c                   8.074
_cell_angle_alpha                106.14
_cell_angle_beta                 93.48
_cell_angle_gamma                88.27
_cell_volume                     727.222
_chemical_melting_point          '78 deg.C'
_cell_formula_units_Z            2
loop_
_atom_site_label
_atom_site_type_symbol
_atom_site_fract_x
_atom_site_fract_y
_atom_site_fract_z
Cl1 Cl 0.4728(2) 0.8439(1) 0.2914(2)
C1 C 0.5314(5) 0.7566(4) 0.4421(6)
C2 C 0.4532(6) 0.7679(5) 0.5838(7)
C3 C 0.4985(5) 0.6953(5) 0.6994(7)
C4 C 0.6212(4) 0.6137(4) 0.6777(5)
C5 C 0.6982(5) 0.6076(5) 0.5349(6)
C6 C 0.6539(6) 0.6777(7) 0.4168(7)
C7 C 0.6639(5) 0.5393(4) 0.8046(6)
C8 C 0.7819(5) 0.4677(5) 0.8168(6)
C9 C 0.8092(5) 0.3991(4) 0.9528(6)
C10 C 0.9264(4) 0.2976(4) 0.9535(5)
C11 C 0.9688(5) 0.2722(5) 1.1131(5)
C12 C 1.0825(5) 0.1826(5) 1.1266(7)
C13 C 1.1550(5) 0.1135(4) 0.9861(6)
C14 C 1.1097(3) 0.1337(5) 0.8281(6)
C15 C 0.9985(4) 0.2211(4) 0.8070(5)
C16 C 0.9556(9) 0.2229(4) 0.6232(7)
C17 C 1.2771(8) 0.0167(7) 1.0029(12)
O1 O 0.9034(4) 0.3343(4) 1.2589(4)
O2 O 0.7311(4) 0.4318(4) 1.0763(4)
H1 H 0.363(5) 0.816(5) 0.591(6)
H2 H 0.439(5) 0.692(5) 0.800(6)
H3 H 0.775(4) 0.548(4) 0.511(5)
H4 H 0.701(5) 0.673(4) 0.322(6)
H5 H 0.598(4) 0.539(4) 0.884(5)
H6 H 0.850(4) 0.461(4) 0.741(5)
H7 H 1.095(4) 0.168(4) 1.236(6)
H8 H 1.153(4) 0.080(4) 0.724(5)
H9 H 0.849(6) 0.218(6) 0.606(7)
H10 H 0.990(5) 0.301(5) 0.613(6)
H11 H 0.991(6) 0.140(6) 0.543(7)
H12 H 1.346(8) 0.031(7) 0.962(9)
H13 H 1.256(8) -0.087(9) 0.928(10)
H14 H 1.285(8) 0.005(8) 1.098(10)
H15 H 0.815(6) 0.381(6) 1.220(7)
loop_
_geom_bond_atom_site_label_1
_geom_bond_atom_site_label_2
_geom_bond_site_symmetry_1
_geom_bond_site_symmetry_2
Cl1 C1 1_555 1_555
C1 C2 1_555 1_555
C2 C3 1_555 1_555
C3 C4 1_555 1_555
C4 C5 1_555 1_555
C5 C6 1_555 1_555
C6 C1 1_555 1_555
C7 C4 1_555 1_555
C8 C7 1_555 1_555
C9 C8 1_555 1_555
C10 C9 1_555 1_555
C11 C10 1_555 1_555
C12 C11 1_555 1_555
C13 C12 1_555 1_555
C14 C13 1_555 1_555
C15 C10 1_555 1_555
C16 C15 1_555 1_555
C17 C13 1_555 1_555
O1 C11 1_555 1_555
O2 C9 1_555 1_555
H1 C2 1_555 1_555
H2 C3 1_555 1_555
H3 C5 1_555 1_555
H4 C6 1_555 1_555
H5 C7 1_555 1_555
H6 C8 1_555 1_555
H7 C12 1_555 1_555
H8 C14 1_555 1_555
H9 C16 1_555 1_555
H10 C16 1_555 1_555
H11 C16 1_555 1_555
H12 C17 1_555 1_555
H13 C17 1_555 1_555
H14 C17 1_555 1_555
H15 O1 1_555 1_555
C14 C15 1_555 1_555

#END
