
#######################################################################
#
#                 Cambridge Crystallographic Data Centre
#                                CCDC 
#
#######################################################################
#
# If this CIF has been generated from an entry in the Cambridge 
# Structural Database, then it will include bibliographic, chemical, 
# crystal, experimental, refinement or atomic coordinate data resulting 
# from the CCDC's data processing and validation procedures.
#
#######################################################################

data_YIWCUC
_chemical_formula_moiety         'C17 H24 O5'
_chemical_name_systematic        
(5aR,6aS,7aS,11aR,11bR)-Hexahydro-5,5,7a,11b-tetramethyl-5H,6aH-oxepino(4,3-f)oxireno(g)(1)benzopyran-3,9(2H,10H)-dione
_symmetry_cell_setting           monoclinic
_symmetry_space_group_name_H-M   'P 21'
_symmetry_Int_Tables_number      4
_space_group_name_Hall           'P 2yb'
loop_
_symmetry_equiv_pos_site_id
_symmetry_equiv_pos_as_xyz
1 x,y,z
2 -x,1/2+y,-z
_cell_length_a                   10.244
_cell_length_b                   13.901
_cell_length_c                   12.156
_cell_angle_alpha                90
_cell_angle_beta                 112.958
_cell_angle_gamma                90
_cell_volume                     1593.92
_exptl_crystal_colour            colorless
_chemical_melting_point          141-142deg.C
_cell_formula_units_Z            4
loop_
_atom_site_label
_atom_site_type_symbol
_atom_site_fract_x
_atom_site_fract_y
_atom_site_fract_z
C1 C 0.3859(3) 0.8437(2) 0.5762(3)
C2 C 0.3201(4) 0.7552(3) 0.5948(3)
C3 C 0.1649(5) 0.7471(4) 0.5699(5)
C4 C 0.0782(3) 0.8380(3) 0.5315(3)
O1 O 0.0168(3) 0.8339(2) 0.3994(3)
C5 C -0.0489(3) 0.9114(3) 0.3385(3)
C6 C -0.0481(4) 1.0039(3) 0.4007(3)
C7 C 0.0676(3) 1.0175(3) 0.5269(3)
C8 C 0.1651(4) 0.9296(3) 0.5721(4)
C9 C 0.3024(3) 0.9368(2) 0.5425(3)
C10 C 0.3926(3) 1.0197(3) 0.6198(3)
C11 C 0.5517(4) 1.0049(3) 0.6804(3)
C12 C 0.6199(4) 0.9896(3) 0.5917(3)
O2 O 0.5836(3) 0.9119(2) 0.5209(2)
C13 C 0.5165(4) 0.8246(3) 0.5433(4)
O3 O 0.4055(3) 0.8107(2) 0.6951(3)
O4 O -0.1067(3) 0.9039(2) 0.2297(2)
O5 O 0.7002(3) 1.0465(3) 0.5772(3)
C14 C -0.0463(4) 0.8324(4) 0.5714(4)
C15 C 0.2672(4) 0.9600(3) 0.4101(3)
C16 C 0.4677(6) 0.7742(4) 0.4221(5)
C17 C 0.6317(5) 0.7677(4) 0.6374(5)
H1 H 0.3189 0.6910 0.5652
H2 H 0.1561 0.7237 0.6410
H3 H 0.1243 0.7012 0.5066
H4 H -0.0382 1.0548 0.3512
H5 H -0.1383 1.0093 0.4071
H6 H 0.0223 1.0307 0.5810
H7 H 0.1251 1.0716 0.5249
H8 H 0.2015 0.9290 0.6579
H9 H 0.3580 1.0334 0.6810
H10 H 0.3777 1.0745 0.5684
H11 H 0.5687 0.9481 0.7288
H12 H 0.5937 1.0594 0.7301
H13 H -0.0114 0.8348 0.6570
H14 H -0.0969 0.7732 0.5436
H15 H -0.1089 0.8857 0.5382
H16 H 0.2139 1.0187 0.3892
H17 H 0.2120 0.9084 0.3615
H18 H 0.3533 0.9671 0.3970
H19 H 0.4212 0.7147 0.4244
H20 H 0.5464 0.7617 0.4000
H21 H 0.4019 0.8164 0.3645
H22 H 0.5932 0.7094 0.6547
H23 H 0.6722 0.8055 0.7088
H24 H 0.7038 0.7522 0.6082
C18 C 0.3169(4) 0.0095(3) -0.0201(3)
C19 C 0.3185(4) 0.1053(3) -0.0690(3)
C20 C 0.2018(5) 0.1775(3) -0.0989(4)
C21 C 0.0693(4) 0.1453(3) -0.0780(3)
O6 O 0.0947(3) 0.1769(2) 0.0453(2)
C22 C 0.0107(4) 0.1418(3) 0.0976(3)
C23 C -0.1015(4) 0.0727(3) 0.0344(3)
C24 C -0.0830(4) 0.0112(3) -0.0644(3)
C25 C 0.0520(4) 0.0363(3) -0.0873(4)
C26 C 0.1823(3) -0.0266(2) -0.0088(3)
C27 C 0.1488(4) -0.1299(3) -0.0631(3)
C28 C 0.2744(4) -0.1857(3) -0.0698(3)
C29 C 0.3859(4) -0.2022(3) 0.0501(3)
O7 O 0.4602(3) -0.1267(2) 0.1115(2)
C30 C 0.4633(4) -0.0324(3) 0.0579(3)
O8 O 0.2940(3) 0.0229(2) -0.1450(2)
O9 O 0.0306(3) 0.1725(2) 0.1967(2)
O10 O 0.4072(3) -0.2786(2) 0.1015(3)
C31 C -0.0579(5) 0.1994(4) -0.1650(4)
C32 C 0.2030(3) -0.0300(3) 0.1239(3)
C33 C 0.5347(4) 0.0295(4) 0.1688(4)
C34 C 0.5617(4) -0.0421(4) -0.0106(4)
H25 H 0.3858 0.1568 -0.0408
H26 H 0.2390 0.2341 -0.0519
H27 H 0.1725 0.1929 -0.1821
H28 H -0.1094 0.0294 0.0930
H29 H -0.1880 0.1085 -0.0017
H30 H -0.1637 0.0208 -0.1378
H31 H -0.0773 -0.0553 -0.0419
H32 H 0.0451 0.0206 -0.1663
H33 H 0.0771 -0.1247 -0.1424
H34 H 0.1127 -0.1665 -0.0141
H35 H 0.3138 -0.1492 -0.1165
H36 H 0.2417 -0.2467 -0.1075
H37 H -0.0740 0.1801 -0.2451
H38 H -0.0410 0.2675 -0.1568
H39 H -0.1398 0.1841 -0.1483
H40 H 0.2239 0.0335 0.1572
H41 H 0.2800 -0.0724 0.1670
H42 H 0.1176 -0.0530 0.1299
H43 H 0.5425 0.0945 0.1454
H44 H 0.6274 0.0049 0.2157
H45 H 0.4776 0.0283 0.2154
H46 H 0.5656 0.0182 -0.0475
H47 H 0.5268 -0.0910 -0.0709
H48 H 0.6550 -0.0592 0.0449
loop_
_geom_bond_atom_site_label_1
_geom_bond_atom_site_label_2
_geom_bond_site_symmetry_1
_geom_bond_site_symmetry_2
C1 C2 1_555 1_555
C2 C3 1_555 1_555
C3 C4 1_555 1_555
C4 O1 1_555 1_555
O1 C5 1_555 1_555
C5 C6 1_555 1_555
C6 C7 1_555 1_555
C7 C8 1_555 1_555
C8 C4 1_555 1_555
C9 C1 1_555 1_555
C10 C9 1_555 1_555
C11 C10 1_555 1_555
C12 C11 1_555 1_555
O2 C12 1_555 1_555
C13 C1 1_555 1_555
O3 C1 1_555 1_555
O4 C5 1_555 1_555
O5 C12 1_555 1_555
C14 C4 1_555 1_555
C15 C9 1_555 1_555
C16 C13 1_555 1_555
C17 C13 1_555 1_555
C18 C19 1_555 1_555
C19 C20 1_555 1_555
C20 C21 1_555 1_555
C21 O6 1_555 1_555
O6 C22 1_555 1_555
C22 C23 1_555 1_555
C23 C24 1_555 1_555
C24 C25 1_555 1_555
C25 C21 1_555 1_555
C26 C18 1_555 1_555
C27 C26 1_555 1_555
C28 C27 1_555 1_555
C29 C28 1_555 1_555
O7 C29 1_555 1_555
C30 C18 1_555 1_555
O8 C18 1_555 1_555
O9 C22 1_555 1_555
O10 C29 1_555 1_555
C31 C21 1_555 1_555
C32 C26 1_555 1_555
C33 C30 1_555 1_555
C34 C30 1_555 1_555
H1 C2 1_555 1_555
H2 C3 1_555 1_555
H3 C3 1_555 1_555
H4 C6 1_555 1_555
H5 C6 1_555 1_555
H6 C7 1_555 1_555
H7 C7 1_555 1_555
H8 C8 1_555 1_555
H9 C10 1_555 1_555
H10 C10 1_555 1_555
H11 C11 1_555 1_555
H12 C11 1_555 1_555
H13 C14 1_555 1_555
H14 C14 1_555 1_555
H15 C14 1_555 1_555
H16 C15 1_555 1_555
H17 C15 1_555 1_555
H18 C15 1_555 1_555
H19 C16 1_555 1_555
H20 C16 1_555 1_555
H21 C16 1_555 1_555
H22 C17 1_555 1_555
H23 C17 1_555 1_555
H24 C17 1_555 1_555
H25 C19 1_555 1_555
H26 C20 1_555 1_555
H27 C20 1_555 1_555
H28 C23 1_555 1_555
H29 C23 1_555 1_555
H30 C24 1_555 1_555
H31 C24 1_555 1_555
H32 C25 1_555 1_555
H33 C27 1_555 1_555
H34 C27 1_555 1_555
H35 C28 1_555 1_555
H36 C28 1_555 1_555
H37 C31 1_555 1_555
H38 C31 1_555 1_555
H39 C31 1_555 1_555
H40 C32 1_555 1_555
H41 C32 1_555 1_555
H42 C32 1_555 1_555
H43 C33 1_555 1_555
H44 C33 1_555 1_555
H45 C33 1_555 1_555
H46 C34 1_555 1_555
H47 C34 1_555 1_555
H48 C34 1_555 1_555
C2 O3 1_555 1_555
C8 C9 1_555 1_555
O2 C13 1_555 1_555
C19 O8 1_555 1_555
C25 C26 1_555 1_555
O7 C30 1_555 1_555

#END
