
#######################################################################
#
#                 Cambridge Crystallographic Data Centre
#                                CCDC 
#
#######################################################################
#
# If this CIF has been generated from an entry in the Cambridge 
# Structural Database, then it will include bibliographic, chemical, 
# crystal, experimental, refinement or atomic coordinate data resulting 
# from the CCDC's data processing and validation procedures.
#
#######################################################################

data_YIXNOJ
_chemical_formula_moiety         'C24 H14 Cl3 N1 O2 S1'
_chemical_name_systematic        
7-Chloro-4-(2,5-dichlorophenyl)-1-phenyl-1H-thiochromeno(2,3-b)pyridine-2,5(3H,4H)-dione
_symmetry_cell_setting           monoclinic
_symmetry_space_group_name_H-M   'P 21/c'
_symmetry_Int_Tables_number      14
_space_group_name_Hall           '-P 2ybc'
loop_
_symmetry_equiv_pos_site_id
_symmetry_equiv_pos_as_xyz
1 x,y,z
2 -x,1/2+y,1/2-z
3 -x,-y,-z
4 x,1/2-y,1/2+z
_cell_length_a                   13.624(5)
_cell_length_b                   13.474(5)
_cell_length_c                   11.861(4)
_cell_angle_alpha                90
_cell_angle_beta                 95.042(6)
_cell_angle_gamma                90
_cell_volume                     2168.9
_exptl_crystal_colour            yellow
_exptl_crystal_description       prism
_cell_formula_units_Z            4
loop_
_atom_site_label
_atom_site_type_symbol
_atom_site_fract_x
_atom_site_fract_y
_atom_site_fract_z
S1 S 0.90221(5) 0.18709(5) 0.44648(6)
Cl1 Cl 1.15911(7) 0.38600(6) 0.09743(8)
Cl2 Cl 0.73863(7) 0.67908(6) 0.56211(8)
Cl3 Cl 0.48232(6) 0.37484(7) 0.27266(7)
O1 O 0.92297(13) 0.51190(12) 0.38778(15)
O2 O 0.66915(15) 0.28572(14) 0.71540(16)
N1 N 0.76934(14) 0.25141(14) 0.57736(16)
C1 C 0.97544(16) 0.24922(17) 0.3549(2)
C2 C 1.03240(18) 0.18948(19) 0.2898(2)
H1 H 1.0327 0.1211 0.3004
C3 C 1.0880(2) 0.2301(2) 0.2103(2)
H2 H 1.1246 0.1896 0.1663
C4 C 1.08877(19) 0.3324(2) 0.1967(2)
C5 C 1.03478(18) 0.39236(19) 0.2611(2)
H3 H 1.0366 0.4608 0.2511
C6 C 0.97697(16) 0.35243(17) 0.3415(2)
C7 C 0.91855(17) 0.42134(18) 0.4054(2)
C8 C 0.85216(17) 0.38283(17) 0.4844(2)
C9 C 0.79469(17) 0.45849(17) 0.5447(2)
H4 H 0.8373 0.5166 0.5583
C10 C 0.77372(19) 0.41789(18) 0.6606(2)
H5 H 0.8346 0.4175 0.7097
H6 H 0.7281 0.4621 0.6940
C11 C 0.73121(19) 0.31487(19) 0.6559(2)
C12 C 0.83881(16) 0.28430(17) 0.50370(19)
C13 C 0.73107(17) 0.15033(17) 0.56871(19)
C14 C 0.7620(2) 0.0818(2) 0.6502(2)
H7 H 0.8082 0.0993 0.7093
C15 C 0.7234(2) -0.0139(2) 0.6432(3)
H8 H 0.7440 -0.0608 0.6978
C16 C 0.6561(2) -0.0390(2) 0.5570(3)
H9 H 0.6301 -0.1029 0.5528
C17 C 0.6263(2) 0.0299(2) 0.4760(3)
H10 H 0.5806 0.0121 0.4167
C18 C 0.6631(2) 0.1252(2) 0.4812(2)
H11 H 0.6422 0.1716 0.4263
C19 C 0.70135(18) 0.49370(19) 0.4760(2)
C20 C 0.6704(2) 0.5922(2) 0.4790(2)
C21 C 0.5847(3) 0.6240(2) 0.4178(3)
H12 H 0.5663 0.6904 0.4204
C22 C 0.5269(2) 0.5584(3) 0.3538(3)
H13 H 0.4692 0.5796 0.3132
C23 C 0.55580(19) 0.4603(2) 0.3506(2)
C24 C 0.64242(18) 0.4289(2) 0.4096(2)
H14 H 0.6614 0.3629 0.4045
loop_
_geom_bond_atom_site_label_1
_geom_bond_atom_site_label_2
_geom_bond_site_symmetry_1
_geom_bond_site_symmetry_2
S1 C1 1_555 1_555
Cl1 C4 1_555 1_555
Cl2 C20 1_555 1_555
Cl3 C23 1_555 1_555
O1 C7 1_555 1_555
O2 C11 1_555 1_555
N1 C11 1_555 1_555
C1 C2 1_555 1_555
C2 H1 1_555 1_555
C3 C2 1_555 1_555
H2 C3 1_555 1_555
C4 C3 1_555 1_555
C5 C4 1_555 1_555
H3 C5 1_555 1_555
C6 C1 1_555 1_555
C7 C6 1_555 1_555
C8 C7 1_555 1_555
C9 C8 1_555 1_555
H4 C9 1_555 1_555
C10 C9 1_555 1_555
H5 C10 1_555 1_555
H6 C10 1_555 1_555
C11 C10 1_555 1_555
C12 S1 1_555 1_555
C13 N1 1_555 1_555
C14 C13 1_555 1_555
H7 C14 1_555 1_555
C15 C14 1_555 1_555
H8 C15 1_555 1_555
C16 C15 1_555 1_555
H9 C16 1_555 1_555
C17 C16 1_555 1_555
H10 C17 1_555 1_555
C18 C13 1_555 1_555
H11 C18 1_555 1_555
C19 C9 1_555 1_555
C20 C19 1_555 1_555
C21 C20 1_555 1_555
H12 C21 1_555 1_555
C22 C21 1_555 1_555
H13 C22 1_555 1_555
C23 C22 1_555 1_555
C24 C19 1_555 1_555
H14 C24 1_555 1_555
N1 C12 1_555 1_555
C5 C6 1_555 1_555
C8 C12 1_555 1_555
C17 C18 1_555 1_555
C23 C24 1_555 1_555

#END
