
#######################################################################
#
#                 Cambridge Crystallographic Data Centre
#                                CCDC 
#
#######################################################################
#
# If this CIF has been generated from an entry in the Cambridge 
# Structural Database, then it will include bibliographic, chemical, 
# crystal, experimental, refinement or atomic coordinate data resulting 
# from the CCDC's data processing and validation procedures.
#
#######################################################################

data_YIXNAU
_chemical_formula_moiety         'C21 H32 N4'
_chemical_name_systematic        
3,6,10,13,16,16,17,17-Octamethyl-4,5,11,12-tetra-azahexacyclo(6.6.1.1^3,6^.1^10,13^.0^2,7^.0^9,14^)heptadecan-4,11-diene
_symmetry_cell_setting           orthorhombic
_symmetry_space_group_name_H-M   'P b c a'
_symmetry_Int_Tables_number      61
_space_group_name_Hall           '-P 2ac 2ab'
loop_
_symmetry_equiv_pos_site_id
_symmetry_equiv_pos_as_xyz
1 x,y,z
2 1/2-x,-y,1/2+z
3 1/2+x,1/2-y,-z
4 -x,1/2+y,1/2-z
5 -x,-y,-z
6 1/2+x,y,1/2-z
7 1/2-x,1/2+y,z
8 x,1/2-y,1/2+z
_cell_length_a                   13.869
_cell_length_b                   12.823
_cell_length_c                   21.889
_cell_angle_alpha                90
_cell_angle_beta                 90
_cell_angle_gamma                90
_cell_volume                     3892.79
_cell_formula_units_Z            8
loop_
_atom_site_label
_atom_site_type_symbol
_atom_site_fract_x
_atom_site_fract_y
_atom_site_fract_z
C1 C 0.8236(2) 0.1605(2) 0.0058(1)
C2 C 0.7120(2) 0.1492(2) 0.0058(1)
N1 N 0.6835(2) 0.2622(2) 0.0006(1)
N2 N 0.7438(2) 0.3150(2) 0.0300(1)
C3 C 0.8184(2) 0.2438(2) 0.0572(1)
C4 C 0.7665(2) 0.1822(2) 0.1092(1)
C5 C 0.7048(2) 0.2351(2) 0.1595(1)
C6 C 0.6824(2) 0.1422(2) 0.2033(1)
C7 C 0.6333(2) 0.1553(2) 0.2667(1)
C8 C 0.5816(2) 0.0476(2) 0.2742(1)
C9 C 0.5233(2) 0.0663(2) 0.2146(1)
N3 N 0.4845(2) 0.1732(2) 0.2271(1)
N4 N 0.5466(2) 0.2228(2) 0.2570(1)
C10 C 0.6061(2) 0.0793(2) 0.1671(1)
C11 C 0.5953(2) 0.1409(2) 0.1067(1)
C12 C 0.6919(2) 0.1171(2) 0.0732(1)
C13 C 0.6083(2) 0.2544(2) 0.1277(1)
C14 C 0.6642(2) 0.0829(3) -0.0428(1)
C15 C 0.8649(2) 0.2033(2) -0.0544(1)
C16 C 0.8800(2) 0.0615(2) 0.0212(1)
C17 C 0.9087(2) 0.3019(2) 0.0750(1)
C18 C 0.6963(2) 0.1961(3) 0.3175(1)
C19 C 0.6474(2) -0.0485(2) 0.2745(1)
C20 C 0.5189(2) 0.0409(2) 0.3317(1)
C21 C 0.4429(2) -0.0073(2) 0.1970(1)
H1 H 0.8195 0.1490 0.1313
H2 H 0.7325 0.2983 0.1779
H3 H 0.7459 0.1152 0.2137
H4 H 0.6164 0.0080 0.1511
H5 H 0.5363 0.1242 0.0835
H6 H 0.6892 0.0413 0.0726
H7 H 0.5562 0.2789 0.1541
H8 H 0.6105 0.3035 0.0930
H9 H 0.6835 0.0106 -0.0393
H10 H 0.6808 0.1066 -0.0836
H11 H 0.5945 0.0860 -0.0389
H12 H 0.8329 0.2666 -0.0665
H13 H 0.8603 0.1532 -0.0868
H14 H 0.9339 0.2202 -0.0492
H15 H 0.8563 0.0307 0.0592
H16 H 0.9482 0.0764 0.0273
H17 H 0.8747 0.0094 -0.0104
H18 H 0.9566 0.2552 0.0917
H19 H 0.8949 0.3553 0.1044
H20 H 0.9375 0.3356 0.0391
H21 H 0.7518 0.1511 0.3238
H22 H 0.6611 0.1990 0.3560
H23 H 0.7193 0.2653 0.3084
H24 H 0.6894 -0.0465 0.2387
H25 H 0.6112 -0.1113 0.2737
H26 H 0.6885 -0.0477 0.3103
H27 H 0.4736 0.0983 0.3355
H28 H 0.4666 -0.0758 0.1874
H29 H 0.4101 0.0189 0.1596
H30 H 0.3950 -0.0119 0.2283
loop_
_geom_bond_atom_site_label_1
_geom_bond_atom_site_label_2
_geom_bond_site_symmetry_1
_geom_bond_site_symmetry_2
C1 C2 1_555 1_555
C2 N1 1_555 1_555
N1 N2 1_555 1_555
N2 C3 1_555 1_555
C3 C1 1_555 1_555
C4 C3 1_555 1_555
C5 C4 1_555 1_555
C6 C5 1_555 1_555
C7 C6 1_555 1_555
C8 C7 1_555 1_555
C9 C8 1_555 1_555
N3 C9 1_555 1_555
N4 C7 1_555 1_555
C10 C6 1_555 1_555
C11 C10 1_555 1_555
C12 C2 1_555 1_555
C13 C5 1_555 1_555
C14 C2 1_555 1_555
C15 C1 1_555 1_555
C16 C1 1_555 1_555
C17 C3 1_555 1_555
C18 C7 1_555 1_555
C19 C8 1_555 1_555
C20 C8 1_555 1_555
C21 C9 1_555 1_555
H1 C4 1_555 1_555
H2 C5 1_555 1_555
H3 C6 1_555 1_555
H4 C10 1_555 1_555
H5 C11 1_555 1_555
H6 C12 1_555 1_555
H7 C13 1_555 1_555
H8 C13 1_555 1_555
H9 C14 1_555 1_555
H10 C14 1_555 1_555
H11 C14 1_555 1_555
H12 C15 1_555 1_555
H13 C15 1_555 1_555
H14 C15 1_555 1_555
H15 C16 1_555 1_555
H16 C16 1_555 1_555
H17 C16 1_555 1_555
H18 C17 1_555 1_555
H19 C17 1_555 1_555
H20 C17 1_555 1_555
H21 C18 1_555 1_555
H22 C18 1_555 1_555
H23 C18 1_555 1_555
H24 C19 1_555 1_555
H25 C19 1_555 1_555
H26 C19 1_555 1_555
H27 C20 1_555 1_555
H28 C21 1_555 1_555
H29 C21 1_555 1_555
H30 C21 1_555 1_555
C4 C12 1_555 1_555
C9 C10 1_555 1_555
N3 N4 1_555 1_555
C11 C12 1_555 1_555
C11 C13 1_555 1_555

#END
