
#######################################################################
#
#                 Cambridge Crystallographic Data Centre
#                                CCDC 
#
#######################################################################
#
# If this CIF has been generated from an entry in the Cambridge 
# Structural Database, then it will include bibliographic, chemical, 
# crystal, experimental, refinement or atomic coordinate data resulting 
# from the CCDC's data processing and validation procedures.
#
#######################################################################

data_YIYZUD
_chemical_formula_moiety         'C27 H43 N1 O2 Si2'
_chemical_name_systematic        
2-(bis(trimethylsilyl)methyl)-6-(hydroxy(phenyl)methyl)-N,N-diisopropylbenzamide
_symmetry_cell_setting           monoclinic
_symmetry_space_group_name_H-M   'P 21/c'
_symmetry_Int_Tables_number      14
_space_group_name_Hall           '-P 2ybc'
loop_
_symmetry_equiv_pos_site_id
_symmetry_equiv_pos_as_xyz
1 x,y,z
2 -x,1/2+y,1/2-z
3 -x,-y,-z
4 x,1/2-y,1/2+z
_cell_length_a                   14.4895(11)
_cell_length_b                   14.7887(11)
_cell_length_c                   13.6513(10)
_cell_angle_alpha                90
_cell_angle_beta                 96.5020(10)
_cell_angle_gamma                90
_cell_volume                     2906.4
_exptl_crystal_colour            colorless
_exptl_crystal_description       block
_cell_formula_units_Z            4
_chemical_properties_physical    Heat-sensitive
loop_
_atom_site_label
_atom_site_type_symbol
_atom_site_fract_x
_atom_site_fract_y
_atom_site_fract_z
Si1 Si 0.33599(4) 1.13918(3) 0.08807(4)
Si2 Si 0.41164(4) 1.04754(4) 0.29528(4)
O1 O 0.09638(10) 0.84588(10) 0.38206(10)
H1 H 0.1490 0.8373 0.3673
O2 O 0.24087(10) 0.83037(8) 0.26873(9)
N1 N 0.19156(10) 0.85167(8) 0.10777(9)
C1 C -0.05634(13) 0.89755(11) 0.32768(12)
C2 C -0.13144(15) 0.90021(14) 0.25528(14)
H2 H -0.1222 0.8901 0.1899
C3 C -0.21949(16) 0.91753(16) 0.27886(17)
H3 H -0.2692 0.9193 0.2294
C4 C -0.23443(16) 0.93224(14) 0.37530(17)
H4 H -0.2939 0.9450 0.3910
C5 C -0.16156(16) 0.92808(14) 0.44777(15)
H5 H -0.1716 0.9372 0.5131
C6 C -0.07319(15) 0.91044(13) 0.42457(13)
H6 H -0.0242 0.9071 0.4747
C7 C 0.04017(13) 0.88575(11) 0.30002(12)
H7 H 0.0379 0.8443 0.2438
C8 C 0.08606(12) 0.97441(10) 0.27261(11)
C9 C 0.16945(11) 0.97196(10) 0.22921(10)
C10 C 0.22237(11) 1.05074(10) 0.22044(11)
C11 C 0.18451(12) 1.13230(10) 0.24951(12)
H8 H 0.2178 1.1855 0.2447
C12 C 0.09969(13) 1.13590(11) 0.28491(13)
H9 H 0.0751 1.1915 0.3005
C13 C 0.05049(13) 1.05736(11) 0.29751(12)
H10 H -0.0065 1.0602 0.3227
C14 C 0.20441(12) 0.87952(10) 0.20207(12)
C15 C 0.21661(15) 0.75739(11) 0.08351(14)
H11 H 0.1972 0.7495 0.0129
C16 C 0.32144(19) 0.74345(19) 0.0978(2)
H12 H 0.3508 0.7890 0.0619
H13 H 0.3360 0.6847 0.0738
H14 H 0.3435 0.7478 0.1666
C17 C 0.1642(2) 0.68726(13) 0.13600(18)
H15 H 0.1872 0.6864 0.2047
H16 H 0.1727 0.6288 0.1079
H17 H 0.0992 0.7021 0.1287
C18 C 0.14288(15) 0.90628(12) 0.02725(12)
H18 H 0.1378 0.9680 0.0522
C19 C 0.04541(17) 0.87213(17) -0.00229(16)
H19 H 0.0479 0.8109 -0.0252
H20 H 0.0156 0.9095 -0.0541
H21 H 0.0108 0.8743 0.0536
C20 C 0.1981(2) 0.91113(17) -0.06092(15)
H22 H 0.2609 0.9284 -0.0392
H23 H 0.1704 0.9550 -0.1071
H24 H 0.1977 0.8530 -0.0922
C21 C 0.31782(12) 1.04998(11) 0.18523(12)
H25 H 0.3225 0.9916 0.1521
C22 C 0.22321(15) 1.17120(14) 0.01677(15)
H26 H 0.2348 1.2072 -0.0391
H27 H 0.1868 1.2054 0.0582
H28 H 0.1900 1.1175 -0.0055
C23 C 0.41207(18) 1.09175(18) -0.00035(17)
H29 H 0.3894 1.0333 -0.0222
H30 H 0.4743 1.0861 0.0316
H31 H 0.4117 1.1314 -0.0561
C24 C 0.39335(16) 1.24458(14) 0.14017(17)
H32 H 0.4540 1.2302 0.1721
H33 H 0.3566 1.2707 0.1872
H34 H 0.3989 1.2870 0.0879
C25 C 0.52803(17) 1.0397(2) 0.2507(2)
H35 H 0.5378 1.0915 0.2108
H36 H 0.5312 0.9857 0.2121
H37 H 0.5751 1.0377 0.3061
C26 C 0.40751(19) 1.14957(19) 0.37469(17)
H38 H 0.3469 1.1548 0.3961
H39 H 0.4204 1.2024 0.3378
H40 H 0.4531 1.1440 0.4311
C27 C 0.3962(2) 0.9496(2) 0.3772(2)
H41 H 0.4439 0.9506 0.4321
H42 H 0.4003 0.8944 0.3410
H43 H 0.3365 0.9534 0.4010
loop_
_geom_bond_atom_site_label_1
_geom_bond_atom_site_label_2
_geom_bond_site_symmetry_1
_geom_bond_site_symmetry_2
Si1 C21 1_555 1_555
Si2 C21 1_555 1_555
O1 H1 1_555 1_555
O2 C14 1_555 1_555
N1 C14 1_555 1_555
C1 C2 1_555 1_555
C2 H2 1_555 1_555
C3 C2 1_555 1_555
H3 C3 1_555 1_555
C4 C3 1_555 1_555
H4 C4 1_555 1_555
C5 C4 1_555 1_555
H5 C5 1_555 1_555
C6 C1 1_555 1_555
H6 C6 1_555 1_555
C7 O1 1_555 1_555
H7 C7 1_555 1_555
C8 C7 1_555 1_555
C9 C8 1_555 1_555
C10 C9 1_555 1_555
C11 C10 1_555 1_555
H8 C11 1_555 1_555
C12 C11 1_555 1_555
H9 C12 1_555 1_555
C13 C8 1_555 1_555
H10 C13 1_555 1_555
C14 C9 1_555 1_555
C15 N1 1_555 1_555
H11 C15 1_555 1_555
C16 C15 1_555 1_555
H12 C16 1_555 1_555
H13 C16 1_555 1_555
H14 C16 1_555 1_555
C17 C15 1_555 1_555
H15 C17 1_555 1_555
H16 C17 1_555 1_555
H17 C17 1_555 1_555
C18 N1 1_555 1_555
H18 C18 1_555 1_555
C19 C18 1_555 1_555
H19 C19 1_555 1_555
H20 C19 1_555 1_555
H21 C19 1_555 1_555
C20 C18 1_555 1_555
H22 C20 1_555 1_555
H23 C20 1_555 1_555
H24 C20 1_555 1_555
C21 C10 1_555 1_555
H25 C21 1_555 1_555
C22 Si1 1_555 1_555
H26 C22 1_555 1_555
H27 C22 1_555 1_555
H28 C22 1_555 1_555
C23 Si1 1_555 1_555
H29 C23 1_555 1_555
H30 C23 1_555 1_555
H31 C23 1_555 1_555
C24 Si1 1_555 1_555
H32 C24 1_555 1_555
H33 C24 1_555 1_555
H34 C24 1_555 1_555
C25 Si2 1_555 1_555
H35 C25 1_555 1_555
H36 C25 1_555 1_555
H37 C25 1_555 1_555
C26 Si2 1_555 1_555
H38 C26 1_555 1_555
H39 C26 1_555 1_555
H40 C26 1_555 1_555
C27 Si2 1_555 1_555
H41 C27 1_555 1_555
H42 C27 1_555 1_555
H43 C27 1_555 1_555
C1 C7 1_555 1_555
C5 C6 1_555 1_555
C12 C13 1_555 1_555

#END
