
#######################################################################
#
#                 Cambridge Crystallographic Data Centre
#                                CCDC 
#
#######################################################################
#
# If this CIF has been generated from an entry in the Cambridge 
# Structural Database, then it will include bibliographic, chemical, 
# crystal, experimental, refinement or atomic coordinate data resulting 
# from the CCDC's data processing and validation procedures.
#
#######################################################################

data_YIZRAA
_chemical_formula_moiety         'C14 H12 N4 O3'
_chemical_name_systematic        9-Benzyl-2-methoxycarbonylhypoxanthine
_symmetry_cell_setting           monoclinic
_symmetry_space_group_name_H-M   'P 21/c'
_symmetry_Int_Tables_number      14
_space_group_name_Hall           '-P 2ybc'
loop_
_symmetry_equiv_pos_site_id
_symmetry_equiv_pos_as_xyz
1 x,y,z
2 -x,1/2+y,1/2-z
3 -x,-y,-z
4 x,1/2-y,1/2+z
_cell_length_a                   11.675
_cell_length_b                   10.026
_cell_length_c                   11.954
_cell_angle_alpha                90
_cell_angle_beta                 107.89
_cell_angle_gamma                90
_cell_volume                     1331.6
_exptl_crystal_colour            'pale yellow'
_chemical_melting_point          '190-192 deg.C'
_cell_formula_units_Z            4
loop_
_atom_site_label
_atom_site_type_symbol
_atom_site_fract_x
_atom_site_fract_y
_atom_site_fract_z
N1 N 0.4709(2) 0.2172(2) 0.6189(2)
C1 C 0.4340(2) 0.2410(2) 0.5058(2)
N2 N 0.3717(2) 0.1377(2) 0.4411(1)
N3 N 0.3169(1) -0.0811(2) 0.4946(1)
C2 C 0.3317(2) -0.1527(2) 0.5887(2)
N4 N 0.3881(2) -0.1119(2) 0.7001(2)
C3 C 0.4408(2) 0.0134(2) 0.7315(2)
C4 C 0.3691(2) 0.0402(2) 0.5208(2)
C5 C 0.4305(2) 0.0909(2) 0.6293(2)
O1 O 0.4872(1) 0.0436(2) 0.8345(1)
C6 C 0.3120(2) 0.1337(2) 0.3145(2)
C7 C 0.1908(2) 0.1991(2) 0.2797(2)
C8 C 0.1540(2) 0.2756(3) 0.1811(2)
C9 C 0.0411(3) 0.3337(4) 0.1472(3)
C10 C -0.0351(3) 0.3167(3) 0.2107(3)
C11 C 0.0017(3) 0.2430(3) 0.3100(3)
C12 C 0.1132(2) 0.1842(3) 0.3437(2)
C13 C 0.2815(2) -0.2912(2) 0.5800(2)
O2 O 0.2602(2) -0.3444(2) 0.6605(2)
O3 O 0.2641(2) -0.3414(2) 0.4739(1)
C14 C 0.2135(4) -0.4739(3) 0.4566(3)
H1 H 0.4529(21) 0.3228(23) 0.4684(20)
H2 H 0.4036(21) -0.1710(24) 0.7576(23)
H3 H 0.3108(20) 0.0339(24) 0.2934(20)
H4 H 0.3678(21) 0.1754(23) 0.2749(20)
H5 H 0.2078(22) 0.2885(22) 0.1334(21)
H6 H 0.0195(22) 0.3913(25) 0.0814(21)
H7 H -0.1139(23) 0.3548(23) 0.1860(19)
H8 H -0.0455(22) 0.2260(24) 0.3561(20)
H9 H 0.1354(21) 0.1413(24) 0.4155(21)
H10 H 0.2071(21) -0.4941(26) 0.3805(22)
H11 H 0.2647(22) -0.5289(26) 0.5082(22)
H12 H 0.1322(22) -0.4754(24) 0.4759(21)
loop_
_geom_bond_atom_site_label_1
_geom_bond_atom_site_label_2
_geom_bond_site_symmetry_1
_geom_bond_site_symmetry_2
N1 C1 1_555 1_555
C1 N2 1_555 1_555
N2 C4 1_555 1_555
N3 C2 1_555 1_555
C2 N4 1_555 1_555
N4 C3 1_555 1_555
C3 C5 1_555 1_555
C4 N3 1_555 1_555
C5 N1 1_555 1_555
O1 C3 1_555 1_555
C6 N2 1_555 1_555
C7 C6 1_555 1_555
C8 C7 1_555 1_555
C9 C8 1_555 1_555
C10 C9 1_555 1_555
C11 C10 1_555 1_555
C12 C7 1_555 1_555
C13 C2 1_555 1_555
O2 C13 1_555 1_555
O3 C13 1_555 1_555
C14 O3 1_555 1_555
H1 C1 1_555 1_555
H2 N4 1_555 1_555
H3 C6 1_555 1_555
H4 C6 1_555 1_555
H5 C8 1_555 1_555
H6 C9 1_555 1_555
H7 C10 1_555 1_555
H8 C11 1_555 1_555
H9 C12 1_555 1_555
H10 C14 1_555 1_555
H11 C14 1_555 1_555
H12 C14 1_555 1_555
C4 C5 1_555 1_555
C11 C12 1_555 1_555

#END
