
#######################################################################
#
#                 Cambridge Crystallographic Data Centre
#                                CCDC 
#
#######################################################################
#
# If this CIF has been generated from an entry in the Cambridge 
# Structural Database, then it will include bibliographic, chemical, 
# crystal, experimental, refinement or atomic coordinate data resulting 
# from the CCDC's data processing and validation procedures.
#
#######################################################################

data_YOBSUF
_chemical_formula_moiety         'C22 H26 N4 O1'
_chemical_name_systematic        
1-((1-(2-phenyl-4,5,6,7-tetrahydro-1-benzofuran-4-yl)-1H-1,2,3-triazol-4-yl)methyl)piperidine
_symmetry_cell_setting           orthorhombic
_symmetry_space_group_name_H-M   'P n a 21'
_symmetry_Int_Tables_number      33
_space_group_name_Hall           'P 2c -2n'
loop_
_symmetry_equiv_pos_site_id
_symmetry_equiv_pos_as_xyz
1 x,y,z
2 -x,-y,1/2+z
3 1/2-x,1/2+y,1/2+z
4 1/2+x,1/2-y,z
_cell_length_a                   11.850(8)
_cell_length_b                   6.507(4)
_cell_length_c                   24.884(15)
_cell_angle_alpha                90
_cell_angle_beta                 90
_cell_angle_gamma                90
_cell_volume                     1918.75
_exptl_crystal_colour            colorless
_exptl_crystal_description       prism
_cell_formula_units_Z            4
loop_
_atom_site_label
_atom_site_type_symbol
_atom_site_fract_x
_atom_site_fract_y
_atom_site_fract_z
C1 C -0.0636(3) 0.6504(5) 0.32617(12)
C2 C 0.0404(3) 0.6971(5) 0.34402(13)
H1 H 0.1070 0.6290 0.3356
C3 C 0.0287(3) 0.8715(5) 0.37852(13)
C4 C 0.1143(3) 0.9921(5) 0.40966(14)
H2 H 0.1749 1.0326 0.3850
C5 C 0.0609(4) 1.1875(5) 0.43260(16)
H3 H 0.1082 1.2390 0.4614
H4 H 0.0586 1.2915 0.4047
C6 C -0.0576(3) 1.1541(6) 0.45396(16)
H5 H -0.0850 1.2808 0.4698
H6 H -0.0557 1.0503 0.4819
C7 C -0.1393(3) 1.0851(5) 0.40916(16)
H7 H -0.2092 1.0348 0.4246
H8 H -0.1565 1.1993 0.3855
C8 C -0.0816(3) 0.9196(5) 0.37910(13)
C9 C -0.1095(3) 0.4877(5) 0.29215(12)
C10 C -0.2173(3) 0.4990(7) 0.26910(16)
H9 H -0.2612 0.6157 0.2744
C11 C -0.2588(4) 0.3401(8) 0.23887(17)
H10 H -0.3301 0.3509 0.2235
C12 C -0.1961(4) 0.1652(7) 0.23112(17)
H11 H -0.2257 0.0568 0.2112
C13 C -0.0893(4) 0.1500(6) 0.25288(15)
H12 H -0.0465 0.0320 0.2474
C14 C -0.0466(3) 0.3098(6) 0.28258(14)
H13 H 0.0259 0.2994 0.2967
C15 C 0.1186(3) 0.7141(5) 0.48218(13)
H14 H 0.0463 0.6597 0.4795
C16 C 0.2021(3) 0.6573(6) 0.51743(15)
C17 C 0.2060(3) 0.4894(7) 0.55831(18)
H15 H 0.2482 0.3748 0.5436
H16 H 0.2465 0.5388 0.5896
C18 C 0.0385(4) 0.5716(6) 0.60737(17)
H17 H 0.0308 0.6970 0.5867
H18 H 0.0833 0.6025 0.6390
C19 C -0.0770(4) 0.4989(7) 0.6247(2)
H19 H -0.1121 0.6031 0.6470
H20 H -0.1240 0.4786 0.5932
C20 C -0.0686(4) 0.2994(7) 0.65587(19)
H21 H -0.0301 0.3233 0.6897
H22 H -0.1437 0.2481 0.6637
C21 C -0.0044(4) 0.1428(7) 0.62324(17)
H23 H 0.0071 0.0201 0.6447
H24 H -0.0487 0.1049 0.5920
C22 C 0.1075(4) 0.2245(6) 0.60532(18)
H25 H 0.1547 0.2477 0.6366
H26 H 0.1444 0.1225 0.5830
O1 O -0.14143(18) 0.7879(4) 0.34696(9)
N1 N 0.1637(2) 0.8643(4) 0.45248(11)
N2 N 0.2706(3) 0.9021(5) 0.46774(14)
N3 N 0.2931(3) 0.7769(5) 0.50750(14)
N4 N 0.0971(2) 0.4171(4) 0.57498(11)
loop_
_geom_bond_atom_site_label_1
_geom_bond_atom_site_label_2
_geom_bond_site_symmetry_1
_geom_bond_site_symmetry_2
C1 C2 1_555 1_555
C2 H1 1_555 1_555
C3 C2 1_555 1_555
C4 C3 1_555 1_555
H2 C4 1_555 1_555
C5 C4 1_555 1_555
H3 C5 1_555 1_555
H4 C5 1_555 1_555
C6 C5 1_555 1_555
H5 C6 1_555 1_555
H6 C6 1_555 1_555
C7 C6 1_555 1_555
H7 C7 1_555 1_555
H8 C7 1_555 1_555
C8 C3 1_555 1_555
C9 C1 1_555 1_555
C10 C9 1_555 1_555
H9 C10 1_555 1_555
C11 C10 1_555 1_555
H10 C11 1_555 1_555
C12 C11 1_555 1_555
H11 C12 1_555 1_555
C13 C12 1_555 1_555
H12 C13 1_555 1_555
C14 C9 1_555 1_555
H13 C14 1_555 1_555
C15 H14 1_555 1_555
C16 C15 1_555 1_555
C17 C16 1_555 1_555
H15 C17 1_555 1_555
H16 C17 1_555 1_555
C18 H17 1_555 1_555
H18 C18 1_555 1_555
C19 C18 1_555 1_555
H19 C19 1_555 1_555
H20 C19 1_555 1_555
C20 C19 1_555 1_555
H21 C20 1_555 1_555
H22 C20 1_555 1_555
C21 C20 1_555 1_555
H23 C21 1_555 1_555
H24 C21 1_555 1_555
C22 C21 1_555 1_555
H25 C22 1_555 1_555
H26 C22 1_555 1_555
O1 C1 1_555 1_555
N1 C4 1_555 1_555
N2 N1 1_555 1_555
N3 C16 1_555 1_555
N4 C17 1_555 1_555
C7 C8 1_555 1_555
C8 O1 1_555 1_555
C13 C14 1_555 1_555
C15 N1 1_555 1_555
C18 N4 1_555 1_555
C22 N4 1_555 1_555
N2 N3 1_555 1_555

#END
