
#######################################################################
#
#                 Cambridge Crystallographic Data Centre
#                                CCDC 
#
#######################################################################
#
# If this CIF has been generated from an entry in the Cambridge 
# Structural Database, then it will include bibliographic, chemical, 
# crystal, experimental, refinement or atomic coordinate data resulting 
# from the CCDC's data processing and validation procedures.
#
#######################################################################

data_YOBWET
_chemical_formula_moiety         'C23 H22 N2 O2,C1 H1 Cl3'
_chemical_name_systematic        
'methyl 3-(6-phenyl-1,2,4,7-tetrahydro-3H-azocino[5,4-b]indol-3-yl)acrylate chloroform solvate'
_symmetry_cell_setting           monoclinic
_symmetry_space_group_name_H-M   'P 21/c'
_symmetry_Int_Tables_number      14
_space_group_name_Hall           '-P 2ybc'
loop_
_symmetry_equiv_pos_site_id
_symmetry_equiv_pos_as_xyz
1 x,y,z
2 -x,1/2+y,1/2-z
3 -x,-y,-z
4 x,1/2-y,1/2+z
_cell_length_a                   11.113(2)
_cell_length_b                   19.200(4)
_cell_length_c                   11.883(2)
_cell_angle_alpha                90
_cell_angle_beta                 112.95(3)
_cell_angle_gamma                90
_cell_volume                     2334.78
_cell_formula_units_Z            4
loop_
_atom_site_label
_atom_site_type_symbol
_atom_site_fract_x
_atom_site_fract_y
_atom_site_fract_z
Cl1 Cl 0.37116(14) 0.17286(8) 0.79634(15)
Cl2 Cl 0.32033(15) 0.04434(8) 0.66424(14)
Cl3 Cl 0.11616(12) 0.11218(8) 0.71275(12)
C1 C 0.2812(4) 0.0953(2) 0.7665(4)
H1 H 0.3059 0.0695 0.8434
O1 O 0.4419(2) 0.16812(15) 1.2053(2)
N1 N -0.2917(3) 0.36381(14) 0.7521(2)
H2 H -0.3653 0.3544 0.7567
C2 C -0.2756(3) 0.40139(19) 0.6611(3)
O2 O 0.3214(2) 0.09566(13) 1.2659(2)
N2 N 0.1122(3) 0.23768(15) 0.9201(2)
C3 C -0.3684(4) 0.4310(2) 0.5564(3)
H3 H -0.4574 0.4271 0.5384
C4 C -0.3221(5) 0.4667(2) 0.4804(4)
H4 H -0.3819 0.4869 0.4094
C5 C -0.1894(5) 0.4735(2) 0.5063(4)
H5 H -0.1624 0.4982 0.4531
C6 C -0.0981(4) 0.4442(2) 0.6091(4)
H6 H -0.0094 0.4488 0.6261
C7 C -0.1408(3) 0.40707(18) 0.6885(3)
C8 C -0.0765(3) 0.36880(18) 0.7996(3)
C9 C 0.0697(3) 0.3628(2) 0.8654(3)
H7 H 0.0914 0.3693 0.9521
H8 H 0.1099 0.4007 0.8385
C10 C 0.1300(3) 0.2953(2) 0.8483(3)
H9 H 0.0919 0.2827 0.7625
H10 H 0.2228 0.3025 0.8705
C11 C -0.0209(3) 0.2107(2) 0.8889(3)
H11 H -0.0166 0.1605 0.8990
H12 H -0.0726 0.2205 0.8035
C12 C -0.0895(3) 0.24121(19) 0.9652(3)
H13 H -0.0817 0.2173 1.0358
C13 C -0.1596(3) 0.29914(19) 0.9397(3)
C14 C -0.1706(3) 0.34340(18) 0.8352(3)
C15 C -0.2262(3) 0.3230(2) 1.0201(3)
C16 C -0.3024(3) 0.2791(2) 1.0572(3)
H14 H -0.3177 0.2336 1.0281
C17 C -0.3565(4) 0.3032(3) 1.1388(4)
H15 H -0.4086 0.2734 1.1622
C18 C -0.3345(5) 0.3691(3) 1.1843(4)
H16 H -0.3686 0.3839 1.2402
C19 C -0.2610(4) 0.4132(2) 1.1462(4)
H17 H -0.2452 0.4584 1.1766
C20 C -0.2100(4) 0.3911(2) 1.0628(3)
H18 H -0.1641 0.4224 1.0350
C21 C 0.2118(3) 0.21204(19) 1.0144(3)
H19 H 0.2924 0.2324 1.0287
C22 C 0.2139(3) 0.16063(19) 1.0932(3)
H20 H 0.1377 0.1371 1.0844
C23 C 0.3345(4) 0.14329(19) 1.1893(3)
C24 C 0.4354(4) 0.0798(2) 1.3721(4)
H21 H 0.4142 0.0455 1.4203
H22 H 0.4663 0.1213 1.4197
H23 H 0.5022 0.0619 1.3477
loop_
_geom_bond_atom_site_label_1
_geom_bond_atom_site_label_2
_geom_bond_site_symmetry_1
_geom_bond_site_symmetry_2
Cl1 C1 1_555 1_555
Cl2 C1 1_555 1_555
Cl3 C1 1_555 1_555
C1 H1 1_555 1_555
O1 C23 1_555 1_555
N1 H2 1_555 1_555
C2 N1 1_555 1_555
O2 C23 1_555 1_555
N2 C10 1_555 1_555
C3 C2 1_555 1_555
H3 C3 1_555 1_555
C4 C3 1_555 1_555
H4 C4 1_555 1_555
C5 C4 1_555 1_555
H5 C5 1_555 1_555
C6 C5 1_555 1_555
H6 C6 1_555 1_555
C7 C2 1_555 1_555
C8 C7 1_555 1_555
C9 C8 1_555 1_555
H7 C9 1_555 1_555
H8 C9 1_555 1_555
C10 C9 1_555 1_555
H9 C10 1_555 1_555
H10 C10 1_555 1_555
C11 N2 1_555 1_555
H11 C11 1_555 1_555
H12 C11 1_555 1_555
C12 C11 1_555 1_555
H13 C12 1_555 1_555
C13 C12 1_555 1_555
C14 N1 1_555 1_555
C15 C13 1_555 1_555
C16 C15 1_555 1_555
H14 C16 1_555 1_555
C17 C16 1_555 1_555
H15 C17 1_555 1_555
C18 C17 1_555 1_555
H16 C18 1_555 1_555
C19 C18 1_555 1_555
H17 C19 1_555 1_555
C20 C15 1_555 1_555
H18 C20 1_555 1_555
C21 N2 1_555 1_555
H19 C21 1_555 1_555
C22 C21 1_555 1_555
H20 C22 1_555 1_555
C23 C22 1_555 1_555
C24 O2 1_555 1_555
H21 C24 1_555 1_555
H22 C24 1_555 1_555
H23 C24 1_555 1_555
C6 C7 1_555 1_555
C8 C14 1_555 1_555
C13 C14 1_555 1_555
C19 C20 1_555 1_555

#END
