
#######################################################################
#
#                 Cambridge Crystallographic Data Centre
#                                CCDC 
#
#######################################################################
#
# If this CIF has been generated from an entry in the Cambridge 
# Structural Database, then it will include bibliographic, chemical, 
# crystal, experimental, refinement or atomic coordinate data resulting 
# from the CCDC's data processing and validation procedures.
#
#######################################################################

data_YOBXUK
_chemical_formula_moiety         'C26 H23 N2 O3 1+,Br1 1-'
_chemical_name_systematic        
'1-(2-(2-naphthyl)-2-oxoethyl)-3-(2,3,5,6-tetrahydrofuro[3,2-f][1]benzofuran-8-ylmethyl)-1H-imidazol-3-ium bromide'
_symmetry_cell_setting           triclinic
_symmetry_space_group_name_H-M   'P -1'
_symmetry_Int_Tables_number      2
_space_group_name_Hall           '-P 1'
loop_
_symmetry_equiv_pos_site_id
_symmetry_equiv_pos_as_xyz
1 x,y,z
2 -x,-y,-z
_cell_length_a                   9.8296(15)
_cell_length_b                   10.2016(16)
_cell_length_c                   12.6394(19)
_cell_angle_alpha                78.083(2)
_cell_angle_beta                 70.581(2)
_cell_angle_gamma                70.890(2)
_cell_volume                     1122.67
_exptl_crystal_colour            colorless
_exptl_crystal_description       block
_cell_formula_units_Z            2
loop_
_atom_site_label
_atom_site_type_symbol
_atom_site_fract_x
_atom_site_fract_y
_atom_site_fract_z
N1 N -0.0522(5) 0.8601(4) 0.8253(4)
N2 N 0.0393(5) 0.7234(4) 0.9539(4)
O1 O 0.1710(6) 0.7262(5) 0.5756(5)
O2 O -0.0500(7) 1.1993(5) 0.6655(5)
O3 O 0.2365(5) 0.7403(4) 1.0574(4)
C1 C 0.0369(6) 0.7353(5) 0.8472(6)
H1 H 0.0885 0.6679 0.7973
C2 C -0.1056(7) 0.9311(5) 0.9170(6)
H2 H -0.1680 1.0220 0.9220
C3 C -0.0508(7) 0.8442(5) 1.0016(5)
H3 H -0.0704 0.8629 1.0750
C4 C 0.0439(7) 0.9566(6) 0.6303(6)
C5 C 0.1640(8) 0.8644(7) 0.5655(6)
C6 C 0.2882(9) 0.8990(10) 0.4866(7)
C7 C 0.2942(10) 1.0352(11) 0.4691(7)
H4 H 0.3748 1.0614 0.4156
C8 C 0.1771(10) 1.1323(9) 0.5330(7)
C9 C 0.0583(8) 1.0930(7) 0.6079(6)
C10 C 0.3113(12) 0.6581(11) 0.5001(10)
H5 H 0.2933 0.6142 0.4468
H6 H 0.3722 0.5866 0.5423
C11 C 0.3921(12) 0.7683(12) 0.4376(10)
H7 H 0.4891 0.7461 0.4512
H8 H 0.4065 0.7767 0.3570
C12 C -0.0006(14) 1.3244(9) 0.6241(10)
H9 H 0.0132 1.3584 0.6850
H10 H -0.0754 1.3969 0.5944
C13 C 0.1445(14) 1.2892(10) 0.5333(9)
H11 H 0.2232 1.3106 0.5508
H12 H 0.1341 1.3392 0.4610
C14 C -0.0845(7) 0.9144(7) 0.7158(6)
H13 H -0.1730 0.9941 0.7260
H14 H -0.1058 0.8429 0.6888
C15 C 0.3258(6) 0.4972(6) 1.1094(5)
C16 C 0.3409(6) 0.3645(5) 1.0924(5)
H15 H 0.2860 0.3510 1.0502
C17 C 0.4582(7) 0.1087(6) 1.1184(6)
H16 H 0.4034 0.0938 1.0767
C18 C 0.5547(8) -0.0019(7) 1.1592(7)
H17 H 0.5673 -0.0913 1.1442
C19 C 0.6354(8) 0.0182(8) 1.2237(7)
H18 H 0.6999 -0.0582 1.2534
C20 C 0.6200(7) 0.1495(8) 1.2435(6)
H19 H 0.6764 0.1613 1.2852
C21 C 0.5032(8) 0.4031(7) 1.2196(6)
H20 H 0.5551 0.4173 1.2639
C22 C 0.4106(8) 0.5176(7) 1.1730(6)
H21 H 0.4040 0.6074 1.1832
C23 C 0.4380(6) 0.2472(6) 1.1374(5)
C24 C 0.5208(6) 0.2679(6) 1.2022(5)
C25 C 0.2279(6) 0.6242(5) 1.0591(5)
C26 C 0.1191(6) 0.5975(5) 1.0116(5)
H22 H 0.1735 0.5281 0.9589
H23 H 0.0466 0.5598 1.0724
Br1 Br 0.24258(7) 0.38483(5) 0.78174(6)
loop_
_geom_bond_atom_site_label_1
_geom_bond_atom_site_label_2
_geom_bond_site_symmetry_1
_geom_bond_site_symmetry_2
N1 C1 1_555 1_555
N2 C1 1_555 1_555
O1 C5 1_555 1_555
O2 C9 1_555 1_555
O3 C25 1_555 1_555
C1 H1 1_555 1_555
C2 N1 1_555 1_555
H2 C2 1_555 1_555
C3 N2 1_555 1_555
H3 C3 1_555 1_555
C4 C5 1_555 1_555
C5 C6 1_555 1_555
C6 C7 1_555 1_555
C7 H4 1_555 1_555
C8 C7 1_555 1_555
C9 C4 1_555 1_555
C10 O1 1_555 1_555
H5 C10 1_555 1_555
H6 C10 1_555 1_555
C11 C6 1_555 1_555
H7 C11 1_555 1_555
H8 C11 1_555 1_555
C12 O2 1_555 1_555
H9 C12 1_555 1_555
H10 C12 1_555 1_555
C13 C8 1_555 1_555
H11 C13 1_555 1_555
H12 C13 1_555 1_555
C14 N1 1_555 1_555
H13 C14 1_555 1_555
H14 C14 1_555 1_555
C15 C16 1_555 1_555
C16 H15 1_555 1_555
C17 H16 1_555 1_555
C18 C17 1_555 1_555
H17 C18 1_555 1_555
C19 C18 1_555 1_555
H18 C19 1_555 1_555
C20 C19 1_555 1_555
H19 C20 1_555 1_555
C21 H20 1_555 1_555
C22 C15 1_555 1_555
H21 C22 1_555 1_555
C23 C16 1_555 1_555
C24 C20 1_555 1_555
C25 C15 1_555 1_555
C26 N2 1_555 1_555
H22 C26 1_555 1_555
H23 C26 1_555 1_555
C2 C3 1_555 1_555
C4 C14 1_555 1_555
C8 C9 1_555 1_555
C10 C11 1_555 1_555
C12 C13 1_555 1_555
C17 C23 1_555 1_555
C21 C22 1_555 1_555
C21 C24 1_555 1_555
C23 C24 1_555 1_555
C25 C26 1_555 1_555

#END
