
#######################################################################
#
#                 Cambridge Crystallographic Data Centre
#                                CCDC 
#
#######################################################################
#
# If this CIF has been generated from an entry in the Cambridge 
# Structural Database, then it will include bibliographic, chemical, 
# crystal, experimental, refinement or atomic coordinate data resulting 
# from the CCDC's data processing and validation procedures.
#
#######################################################################

data_YOCKEG10
_chemical_formula_moiety         'C36 H42 Br2 O9,H2 O1'
_chemical_name_systematic        
'16-(4-Bromobenzoyloxy)-17-(2-(4-bromobenzoyloxy)ethyl)-4,12,14,17-tetramethyl-2,8,13,18-tetraoxatetracyclo(10.8.0.0^3,9^.0^14,19^) icosan-7-one monohydrate'
_symmetry_cell_setting           monoclinic
_symmetry_space_group_name_H-M   'P 21'
_symmetry_Int_Tables_number      4
_space_group_name_Hall           'P 2yb'
loop_
_symmetry_equiv_pos_site_id
_symmetry_equiv_pos_as_xyz
1 x,y,z
2 -x,1/2+y,-z
_cell_length_a                   12.568(2)
_cell_length_b                   6.773(2)
_cell_length_c                   24.571(5)
_cell_angle_alpha                90
_cell_angle_beta                 90.38(2)
_cell_angle_gamma                90
_cell_volume                     2091.51
_exptl_crystal_colour            colorless
_chemical_melting_point          142-143deg.C
_cell_formula_units_Z            2
loop_
_atom_site_label
_atom_site_type_symbol
_atom_site_fract_x
_atom_site_fract_y
_atom_site_fract_z
Br1 Br 0.3307(5) -0.3569(10) -0.0651(2)
Br2 Br -0.3544(2) 0.7352 0.1594(1)
O1 O 1.0447(10) 0.1983(32) 0.5656(6)
O2 O 0.9721(9) 0.1744(25) 0.4878(6)
O3 O 0.6876(9) 0.1664(30) 0.4498(5)
O4 O 0.6780(12) 0.2507(29) 0.3018(6)
O5 O 0.3895(10) 0.1821(34) 0.3243(6)
O6 O 0.4024(14) 0.0858(30) 0.1768(7)
O7 O 0.3938(44) 0.3654(48) 0.1250(16)
O8 O 0.0925(32) 0.3375(65) 0.2733(17)
O9 O 0.1084(17) 0.6502(57) 0.3047(10)
C1 C 0.9680(17) 0.2296(44) 0.5385(10)
C2 C 0.8698(15) 0.3078(36) 0.5648(10)
C3 C 0.7706(18) 0.1784(40) 0.5646(10)
C4 C 0.7804(19) 0.0003(41) 0.5244(10)
C5 C 0.7884(14) 0.0632(33) 0.4625(8)
C6 C 0.8708(14) 0.2122(36) 0.4541(8)
C7 C 0.9119(16) 0.2123(46) 0.3957(8)
C8 C 0.8320(14) 0.1783(37) 0.3503(8)
C9 C 0.7252(14) 0.2686(36) 0.3565(9)
C10 C 0.6559(13) 0.1495(33) 0.3948(7)
C11 C 0.5365(15) 0.1956(46) 0.3913(9)
C12 C 0.5075(15) 0.1627(37) 0.3329(9)
C13 C 0.5541(18) 0.2691(43) 0.2956(10)
C14 C 0.5345(16) 0.1944(44) 0.2392(9)
C15 C 0.4268(17) 0.1947(46) 0.2273(10)
C16 C 0.3620(20) 0.1093(46) 0.2739(11)
C17 C 0.6884(13) -0.1524(54) 0.5286(11)
C18 C 0.7349(21) 0.4949(48) 0.3711(10)
C19 C 0.5280(26) 0.4957(50) 0.3003(15)
C20 C 0.3545(19) -0.1156(55) 0.2721(14)
C21 C 0.3917(23) 0.1832(83) 0.1307(10)
C22 C 0.3791(14) 0.0454(37) 0.0850(6)
C23 C 0.3633 0.1313 0.0339
C24 C 0.3532 0.0122 -0.0121
C25 C 0.3588 -0.1927 -0.0072
C26 C 0.3745 -0.2786 0.0438
C27 C 0.3847 -0.1595 0.0899
C28 C 0.2345(25) 0.1569(71) 0.2717(17)
C29 C 0.2000(30) 0.284(11) 0.2908(18)
C30 C 0.0711(22) 0.492(14) 0.2790(11)
C31 C -0.0472(12) 0.5795(39) 0.2537(7)
C32 C -0.0925 0.7670 0.2577
C33 C -0.1836 0.8131 0.2275
C34 C -0.2295 0.6717 0.1934
C35 C -0.1842 0.4842 0.1894
C36 C -0.0931 0.4381 0.2196
H1 H 0.8874 0.3341 0.6022
H2 H 0.8516 0.4292 0.5469
H3 H 0.7594 0.1286 0.6007
H4 H 0.7108 0.2576 0.5537
H5 H 0.8458 -0.0595 0.5363
H6 H 0.8032 -0.0518 0.4410
H7 H 0.8350 0.3324 0.4641
H8 H 0.9649 0.1106 0.3932
H9 H 0.9444 0.3386 0.3894
H10 H 0.8221 0.0383 0.3469
H11 H 0.8622 0.2293 0.3174
H12 H 0.6666 0.0169 0.3822
H13 H 0.5228 0.3298 0.4016
H14 H 0.4971 0.1082 0.4144
H15 H 0.5335 0.0311 0.3274
H16 H 0.5610 0.0619 0.2365
H17 H 0.5708 0.2771 0.2136
H18 H 0.4069 0.3302 0.2221
H19 H 0.6809 -0.1943 0.5657
H20 H 0.7043 -0.2646 0.5062
H21 H 0.6233 -0.0927 0.5163
H22 H 0.7656 0.5087 0.4068
H23 H 0.6656 0.5544 0.3705
H24 H 0.7795 0.5591 0.3449
H25 H 0.5643 0.5666 0.2722
H26 H 0.5508 0.5438 0.3352
H27 H 0.4526 0.5149 0.2964
H28 H 0.4246 -0.1715 0.2733
H29 H 0.3192 -0.1559 0.2391
H30 H 0.3146 -0.1607 0.3029
H31 H 0.3595 0.2723 0.0305
H32 H 0.3423 0.0713 -0.0473
H33 H 0.3784 -0.4196 0.0472
H34 H 0.3955 -0.2186 0.1250
H35 H 0.1996 0.0438 0.2870
H36 H 0.2160 0.1679 0.2338
H37 H 0.1976 0.2579 0.3292
H38 H 0.2457 0.3943 0.2841
H39 H -0.0609 0.8644 0.2811
H40 H -0.2147 0.9422 0.2303
H41 H -0.2158 0.3869 0.1660
H42 H -0.0620 0.3091 0.2169
O10 O 1.0108(64) -0.198(17) 0.0893(38)
O11 O 1.0581(74) 0.086(20) 0.0978(40)
loop_
_geom_bond_atom_site_label_1
_geom_bond_atom_site_label_2
_geom_bond_site_symmetry_1
_geom_bond_site_symmetry_2
Br1 C25 1_555 1_555
Br2 C34 1_555 1_555
O1 C1 1_555 1_555
O2 C1 1_555 1_555
O3 C5 1_555 1_555
O4 C9 1_555 1_555
O5 C12 1_555 1_555
O6 C15 1_555 1_555
O7 C21 1_555 1_555
O8 C29 1_555 1_555
O9 C30 1_555 1_555
C1 C2 1_555 1_555
C2 C3 1_555 1_555
C3 C4 1_555 1_555
C4 C5 1_555 1_555
C5 C6 1_555 1_555
C6 O2 1_555 1_555
C7 C6 1_555 1_555
C8 C7 1_555 1_555
C9 C8 1_555 1_555
C10 O3 1_555 1_555
C11 C10 1_555 1_555
C12 C11 1_555 1_555
C13 O4 1_555 1_555
C14 C13 1_555 1_555
C15 C14 1_555 1_555
C16 O5 1_555 1_555
C17 C4 1_555 1_555
C18 C9 1_555 1_555
C19 C13 1_555 1_555
C20 C16 1_555 1_555
C21 O6 1_555 1_555
C22 C21 1_555 1_555
C23 C22 1_555 1_555
C24 C23 1_555 1_555
C25 C24 1_555 1_555
C26 C25 1_555 1_555
C27 C22 1_555 1_555
C28 C16 1_555 1_555
C29 C28 1_555 1_555
C30 O8 1_555 1_555
C31 C30 1_555 1_555
C32 C31 1_555 1_555
C33 C32 1_555 1_555
C34 C33 1_555 1_555
C35 C34 1_555 1_555
C36 C31 1_555 1_555
H1 C2 1_555 1_555
H2 C2 1_555 1_555
H3 C3 1_555 1_555
H4 C3 1_555 1_555
H5 C4 1_555 1_555
H6 C5 1_555 1_555
H7 C6 1_555 1_555
H8 C7 1_555 1_555
H9 C7 1_555 1_555
H10 C8 1_555 1_555
H11 C8 1_555 1_555
H12 C10 1_555 1_555
H13 C11 1_555 1_555
H14 C11 1_555 1_555
H15 C12 1_555 1_555
H16 C14 1_555 1_555
H17 C14 1_555 1_555
H18 C15 1_555 1_555
H19 C17 1_555 1_555
H20 C17 1_555 1_555
H21 C17 1_555 1_555
H22 C18 1_555 1_555
H23 C18 1_555 1_555
H24 C18 1_555 1_555
H25 C19 1_555 1_555
H26 C19 1_555 1_555
H27 C19 1_555 1_555
H28 C20 1_555 1_555
H29 C20 1_555 1_555
H30 C20 1_555 1_555
H31 C23 1_555 1_555
H32 C24 1_555 1_555
H33 C26 1_555 1_555
H34 C27 1_555 1_555
H35 C28 1_555 1_555
H36 C28 1_555 1_555
H37 C29 1_555 1_555
H38 C29 1_555 1_555
H39 C32 1_555 1_555
H40 C33 1_555 1_555
H41 C35 1_555 1_555
H42 C36 1_555 1_555
C9 C10 1_555 1_555
C12 C13 1_555 1_555
C15 C16 1_555 1_555
C26 C27 1_555 1_555
C35 C36 1_555 1_555

#END
