
#######################################################################
#
#                 Cambridge Crystallographic Data Centre
#                                CCDC 
#
#######################################################################
#
# If this CIF has been generated from an entry in the Cambridge 
# Structural Database, then it will include bibliographic, chemical, 
# crystal, experimental, refinement or atomic coordinate data resulting 
# from the CCDC's data processing and validation procedures.
#
#######################################################################

data_YOCQAJ
_chemical_formula_moiety         'C30 H27 N2 O4 P1 S2'
_chemical_name_systematic        
'Diethyl 3-amino-4-((triphenylphosphoranylidene)amino)thieno(2,3-b)thiophene-2,5-dicarboxylate'
_symmetry_cell_setting           triclinic
_symmetry_space_group_name_H-M   'P -1'
_symmetry_Int_Tables_number      2
_space_group_name_Hall           '-P 1'
loop_
_symmetry_equiv_pos_site_id
_symmetry_equiv_pos_as_xyz
1 x,y,z
2 -x,-y,-z
_cell_length_a                   13.1260(9)
_cell_length_b                   15.3616(10)
_cell_length_c                   16.6497(11)
_cell_angle_alpha                68.1400(10)
_cell_angle_beta                 71.0430(10)
_cell_angle_gamma                68.9690(10)
_cell_volume                     2836.49
_exptl_crystal_colour            yellow
_exptl_crystal_description       block
_cell_formula_units_Z            4
loop_
_atom_site_label
_atom_site_type_symbol
_atom_site_fract_x
_atom_site_fract_y
_atom_site_fract_z
C1 C 0.2610(3) 0.4257(3) 0.8472(2)
C2 C 0.2866(3) 0.4036(3) 0.9289(3)
H1 H 0.2896 0.4528 0.9471
C3 C 0.3074(4) 0.3091(3) 0.9823(3)
H2 H 0.3214 0.2951 1.0378
C4 C 0.3078(4) 0.2357(3) 0.9548(4)
H3 H 0.3238 0.1717 0.9909
C5 C 0.2847(4) 0.2559(3) 0.8746(3)
H4 H 0.2846 0.2057 0.8562
C6 C 0.2617(3) 0.3504(3) 0.8208(3)
H5 H 0.2465 0.3636 0.7660
C7 C 0.1246(3) 0.6316(3) 0.8246(2)
C8 C 0.0934(3) 0.7258(3) 0.7712(3)
H6 H 0.1283 0.7422 0.7114
C9 C 0.0103(4) 0.7958(3) 0.8068(3)
H7 H -0.0104 0.8592 0.7705
C10 C -0.0415(4) 0.7735(3) 0.8939(4)
H8 H -0.0966 0.8214 0.9173
C11 C -0.0122(4) 0.6801(4) 0.9473(3)
H9 H -0.0475 0.6644 1.0071
C12 C 0.0699(3) 0.6089(3) 0.9126(3)
H10 H 0.0883 0.5452 0.9488
C13 C 0.3626(3) 0.5803(3) 0.7625(3)
C14 C 0.4623(3) 0.5437(3) 0.7082(3)
H11 H 0.4629 0.5054 0.6759
C15 C 0.5600(4) 0.5627(3) 0.7009(4)
H12 H 0.6260 0.5372 0.6644
C16 C 0.5595(5) 0.6190(4) 0.7476(4)
H13 H 0.6252 0.6328 0.7423
C17 C 0.4628(5) 0.6557(4) 0.8025(4)
H14 H 0.4638 0.6931 0.8350
C18 C 0.3640(4) 0.6374(3) 0.8099(3)
H15 H 0.2985 0.6633 0.8465
C19 C 0.1617(3) 0.5670(2) 0.6309(2)
C20 C 0.0575(3) 0.5474(3) 0.6605(2)
C21 C 0.0036(3) 0.5049(3) 0.7492(3)
C22 C -0.1442(4) 0.4291(4) 0.8356(3)
H16 H -0.2206 0.4370 0.8349
H17 H -0.1461 0.4526 0.8829
C23 C -0.0812(6) 0.3255(5) 0.8516(4)
H18 H -0.0794 0.3029 0.8044
H19 H -0.1171 0.2882 0.9070
H20 H -0.0062 0.3181 0.8535
C24 C 0.1894(3) 0.5986(2) 0.5359(2)
C25 C 0.1080(3) 0.6043(2) 0.4975(2)
C26 C 0.2835(3) 0.6265(2) 0.4709(2)
C27 C 0.2694(3) 0.6522(2) 0.3857(2)
N1 N 0.3742(3) 0.6258(2) 0.4942(2)
H21 H 0.3759 0.6025 0.5494
H22 H 0.4255 0.6458 0.4504
C28 C 0.3516(3) 0.6807(3) 0.3064(3)
C29 C 0.3981(4) 0.7238(4) 0.1496(3)
H23 H 0.3780 0.7941 0.1241
H24 H 0.4725 0.7034 0.1607
C30 C 0.3979(5) 0.6781(4) 0.0880(3)
H25 H 0.4189 0.6086 0.1129
H26 H 0.4503 0.6963 0.0333
H27 H 0.3243 0.6989 0.0767
N3 N 0.2389(2) 0.5576(2) 0.67443(19)
O1 O 0.0358(2) 0.4854(2) 0.81614(18)
O2 O -0.0900(2) 0.4850(2) 0.75083(18)
O3 O 0.4411(2) 0.6868(2) 0.30673(18)
O4 O 0.3190(2) 0.6972(2) 0.23237(18)
P1 P 0.23784(8) 0.54841(7) 0.77260(7)
S1 S -0.00477(8) 0.56927(8) 0.57338(7)
S2 S 0.14118(8) 0.64202(8) 0.38364(7)
C31 C 0.7449(3) 0.8334(3) 0.3607(3)
C32 C 0.6524(3) 0.8387(3) 0.3338(3)
H28 H 0.6151 0.8976 0.2995
C33 C 0.6157(3) 0.7574(3) 0.3577(3)
H29 H 0.5528 0.7620 0.3404
C34 C 0.6709(4) 0.6700(3) 0.4066(3)
H30 H 0.6462 0.6151 0.4216
C35 C 0.7622(4) 0.6624(3) 0.4337(3)
H31 H 0.7987 0.6027 0.4677
C36 C 0.8008(3) 0.7439(3) 0.4105(3)
H32 H 0.8635 0.7385 0.4283
C37 C 0.8032(3) 0.9893(3) 0.2095(3)
C38 C 0.7843(4) 1.0884(3) 0.1696(3)
H33 H 0.7583 1.1301 0.2048
C39 C 0.8030(5) 1.1264(4) 0.0797(3)
H34 H 0.7896 1.1935 0.0546
C40 C 0.8409(4) 1.0675(5) 0.0260(3)
H35 H 0.8532 1.0939 -0.0353
C41 C 0.8603(4) 0.9702(5) 0.0631(4)
H36 H 0.8871 0.9295 0.0268
C42 C 0.8409(4) 0.9297(4) 0.1547(3)
H37 H 0.8532 0.8626 0.1792
C43 C 0.6981(3) 1.0324(2) 0.3743(2)
C44 C 0.5824(3) 1.0483(3) 0.3927(3)
H38 H 0.5530 1.0056 0.3855
C45 C 0.5117(4) 1.1272(3) 0.4216(3)
H39 H 0.4346 1.1377 0.4337
C46 C 0.5541(4) 1.1899(3) 0.4326(3)
H40 H 0.5058 1.2433 0.4517
C47 C 0.6676(4) 1.1749(3) 0.4157(3)
H41 H 0.6962 1.2175 0.4240
C48 C 0.7390(3) 1.0968(3) 0.3864(2)
H42 H 0.8160 1.0871 0.3746
C49 C 0.9839(3) 0.9001(2) 0.3903(2)
C50 C 0.9597(3) 0.8761(2) 0.4826(3)
C51 C 0.8587(3) 0.8594(3) 0.5433(3)
C52 C 0.7663(10) 0.8289(6) 0.7033(9)
H43 H 0.6978 0.8565 0.6817
H44 H 0.7626 0.8626 0.7436
C53 C 0.7848(11) 0.7206(7) 0.7484(9)
H45 H 0.7859 0.6891 0.7078
H46 H 0.7253 0.7096 0.7996
H47 H 0.8550 0.6943 0.7662
C56 C 1.0954(3) 0.9101(2) 0.3543(2)
C57 C 1.1516(3) 0.8942(2) 0.4175(2)
C58 C 1.1601(3) 0.9351(2) 0.2662(2)
C59 C 1.2648(3) 0.9386(2) 0.2658(2)
N2 N 1.1221(3) 0.9535(2) 0.1935(2)
H53 H 1.0559 0.9473 0.2040
H54 H 1.1662 0.9747 0.1446
C60 C 1.3466(3) 0.9665(3) 0.1870(3)
C61 C 1.5255(3) 1.0003(4) 0.1294(3)
H55 H 1.5148 0.9979 0.0753
H56 H 1.5997 0.9596 0.1371
C62 C 1.5155(5) 1.1006(4) 0.1224(5)
H57 H 1.4414 1.1403 0.1160
H58 H 1.5693 1.1252 0.0716
H59 H 1.5292 1.1022 0.1750
N4 N 0.9225(2) 0.9157(2) 0.3315(2)
O5 O 0.7744(2) 0.8654(2) 0.52373(19)
O6 O 0.8661(2) 0.8356(2) 0.6283(2)
O7 O 1.3321(2) 0.9920(2) 0.1115(2)
O8 O 1.4417(2) 0.9638(2) 0.20472(18)
P2 P 0.79766(8) 0.93793(7) 0.32758(7)
S3 S 1.07321(8) 0.86553(7) 0.52315(6)
S4 S 1.28460(8) 0.90910(8) 0.37331(7)
C54? C 0.774(2) 0.788(3) 0.6825(9)
H48? H 0.7843 0.7311 0.6660
H49? H 0.7023 0.8332 0.6734
C55? C 0.781(2) 0.760(2) 0.7789(8)
H50? H 0.8497 0.7107 0.7882
H51? H 0.7188 0.7353 0.8170
H52? H 0.7791 0.8162 0.7925
loop_
_geom_bond_atom_site_label_1
_geom_bond_atom_site_label_2
_geom_bond_site_symmetry_1
_geom_bond_site_symmetry_2
C1 C2 1_555 1_555
C2 H1 1_555 1_555
C3 C2 1_555 1_555
H2 C3 1_555 1_555
C4 C3 1_555 1_555
H3 C4 1_555 1_555
C5 C4 1_555 1_555
H4 C5 1_555 1_555
C6 C1 1_555 1_555
H5 C6 1_555 1_555
C7 C8 1_555 1_555
C8 H6 1_555 1_555
C9 C8 1_555 1_555
H7 C9 1_555 1_555
C10 C9 1_555 1_555
H8 C10 1_555 1_555
C11 C10 1_555 1_555
H9 C11 1_555 1_555
C12 C7 1_555 1_555
H10 C12 1_555 1_555
C13 C14 1_555 1_555
C14 H11 1_555 1_555
C15 C14 1_555 1_555
H12 C15 1_555 1_555
C16 C15 1_555 1_555
H13 C16 1_555 1_555
C17 C16 1_555 1_555
H14 C17 1_555 1_555
C18 C13 1_555 1_555
H15 C18 1_555 1_555
C19 C20 1_555 1_555
C20 C21 1_555 1_555
C21 O1 1_555 1_555
C22 H16 1_555 1_555
H17 C22 1_555 1_555
C23 C22 1_555 1_555
H18 C23 1_555 1_555
H19 C23 1_555 1_555
H20 C23 1_555 1_555
C24 C19 1_555 1_555
C25 C24 1_555 1_555
C26 C24 1_555 1_555
C27 C26 1_555 1_555
N1 C26 1_555 1_555
H21 N1 1_555 1_555
H22 N1 1_555 1_555
C28 C27 1_555 1_555
C29 H23 1_555 1_555
H24 C29 1_555 1_555
C30 C29 1_555 1_555
H25 C30 1_555 1_555
H26 C30 1_555 1_555
H27 C30 1_555 1_555
C31 C32 1_555 1_555
C32 H28 1_555 1_555
C33 C32 1_555 1_555
H29 C33 1_555 1_555
C34 C33 1_555 1_555
H30 C34 1_555 1_555
C35 C34 1_555 1_555
H31 C35 1_555 1_555
C36 C31 1_555 1_555
H32 C36 1_555 1_555
C37 C38 1_555 1_555
C38 H33 1_555 1_555
C39 C38 1_555 1_555
H34 C39 1_555 1_555
C40 C39 1_555 1_555
H35 C40 1_555 1_555
C41 C40 1_555 1_555
H36 C41 1_555 1_555
C42 C37 1_555 1_555
H37 C42 1_555 1_555
C43 C44 1_555 1_555
C44 H38 1_555 1_555
C45 C44 1_555 1_555
H39 C45 1_555 1_555
C46 C45 1_555 1_555
H40 C46 1_555 1_555
C47 C46 1_555 1_555
H41 C47 1_555 1_555
C48 C43 1_555 1_555
H42 C48 1_555 1_555
C49 C50 1_555 1_555
C50 C51 1_555 1_555
C51 O5 1_555 1_555
C52 H43 1_555 1_555
H44 C52 1_555 1_555
C53 C52 1_555 1_555
H45 C53 1_555 1_555
H46 C53 1_555 1_555
H47 C53 1_555 1_555
C56 C49 1_555 1_555
C57 C56 1_555 1_555
C58 C56 1_555 1_555
C59 C58 1_555 1_555
N2 C58 1_555 1_555
H53 N2 1_555 1_555
H54 N2 1_555 1_555
C60 C59 1_555 1_555
C61 H55 1_555 1_555
H56 C61 1_555 1_555
C62 C61 1_555 1_555
H57 C62 1_555 1_555
H58 C62 1_555 1_555
H59 C62 1_555 1_555
N3 C19 1_555 1_555
O2 C21 1_555 1_555
O3 C28 1_555 1_555
O4 C28 1_555 1_555
N4 C49 1_555 1_555
O6 C51 1_555 1_555
O7 C60 1_555 1_555
O8 C60 1_555 1_555
P1 C1 1_555 1_555
P2 C31 1_555 1_555
S1 C20 1_555 1_555
S2 C25 1_555 1_555
S3 C50 1_555 1_555
S4 C57 1_555 1_555
C5 C6 1_555 1_555
C7 P1 1_555 1_555
C11 C12 1_555 1_555
C13 P1 1_555 1_555
C17 C18 1_555 1_555
C22 O2 1_555 1_555
C25 S1 1_555 1_555
C27 S2 1_555 1_555
C29 O4 1_555 1_555
C35 C36 1_555 1_555
C37 P2 1_555 1_555
C41 C42 1_555 1_555
C43 P2 1_555 1_555
C47 C48 1_555 1_555
C52 O6 1_555 1_555
C57 S3 1_555 1_555
C59 S4 1_555 1_555
C61 O8 1_555 1_555
N3 P1 1_555 1_555
N4 P2 1_555 1_555

#END
