
#######################################################################
#
#                 Cambridge Crystallographic Data Centre
#                                CCDC 
#
#######################################################################
#
# If this CIF has been generated from an entry in the Cambridge 
# Structural Database, then it will include bibliographic, chemical, 
# crystal, experimental, refinement or atomic coordinate data resulting 
# from the CCDC's data processing and validation procedures.
#
#######################################################################

data_YOCVAP
_chemical_formula_moiety         'Cl1 O4 1-,C3 H5 N2 1+'
_chemical_name_systematic        '1H-imidazol-1-ium perchlorate'
_symmetry_cell_setting           rhombohedral
_symmetry_space_group_name_H-M   'R 3 m'
_symmetry_Int_Tables_number      160
_space_group_name_Hall           'R 3 -2"'
loop_
_symmetry_equiv_pos_site_id
_symmetry_equiv_pos_as_xyz
1 x,y,z
2 -y,x-y,z
3 -x+y,-x,z
4 -y,-x,z
5 -x+y,y,z
6 x,x-y,z
7 2/3+x,1/3+y,1/3+z
8 2/3-y,1/3+x-y,1/3+z
9 2/3-x+y,1/3-x,1/3+z
10 2/3-y,1/3-x,1/3+z
11 2/3-x+y,1/3+y,1/3+z
12 2/3+x,1/3+x-y,1/3+z
13 1/3+x,2/3+y,2/3+z
14 1/3-y,2/3+x-y,2/3+z
15 1/3-x+y,2/3-x,2/3+z
16 1/3-y,2/3-x,2/3+z
17 1/3-x+y,2/3+y,2/3+z
18 1/3+x,2/3+x-y,2/3+z
_cell_length_a                   8.1079(5)
_cell_length_b                   8.1079(5)
_cell_length_c                   8.6241(8)
_cell_angle_alpha                90
_cell_angle_beta                 90
_cell_angle_gamma                120
_cell_volume                     490.977
_cell_formula_units_Z            3
loop_
_atom_site_label
_atom_site_type_symbol
_atom_site_fract_x
_atom_site_fract_y
_atom_site_fract_z
C1 C 1.52756(18) 1.19407(18) 0.53469(19)
H1 H 1.4049 1.0945 0.5287
C1D C 1.66651(25) 1.19407(18) 0.53469(19)
H1D H 1.6896 1.0945 0.5287
C1E C 1.52756(18) 1.33349(25) 0.53469(19)
H1E H 1.4049 1.3104 0.5287
C1A C 1.80593(18) 1.33349(25) 0.53469(19)
H1A H 1.9055 1.3104 0.5287
C1B C 1.66651(25) 1.47244(18) 0.53469(19)
H1B H 1.6896 1.5951 0.5287
C1C C 1.80593(18) 1.47244(18) 0.53469(19)
H1C H 1.9055 1.5951 0.5287
Cl1 Cl 1.6667 1.3333 -0.0057
O1 O 1.76208(11) 1.23792(11) -0.06261(19)
O2 O 1.6667 1.3333 0.1551(4)
O1A O 1.76208(11) 1.52416(16) -0.06261(19)
O1B O 1.47584(16) 1.23792(11) -0.06261(19)
N1? N 1.52756(18) 1.19407(18) 0.53469(19)
loop_
_geom_bond_atom_site_label_1
_geom_bond_atom_site_label_2
_geom_bond_site_symmetry_1
_geom_bond_site_symmetry_2
Cl1 O1 1_555 1_555
O2 Cl1 1_555 1_555
C1 H1 1_555 1_555
O1A Cl1 1_555 1_555
O1B Cl1 1_555 1_555
C1D C1 1_555 1_555
H1D C1D 1_555 1_555
C1E C1 1_555 1_555
H1E C1E 1_555 1_555
C1A C1D 1_555 1_555
H1A C1A 1_555 1_555
C1B C1E 1_555 1_555
H1B C1B 1_555 1_555
C1C C1A 1_555 1_555
H1C C1C 1_555 1_555
C1B C1C 1_555 1_555

#END
