
#######################################################################
#
#                 Cambridge Crystallographic Data Centre
#                                CCDC 
#
#######################################################################
#
# If this CIF has been generated from an entry in the Cambridge 
# Structural Database, then it will include bibliographic, chemical, 
# crystal, experimental, refinement or atomic coordinate data resulting 
# from the CCDC's data processing and validation procedures.
#
#######################################################################

data_YODSAM
_chemical_formula_moiety         'C16 H26 N2 O5 S1'
_chemical_name_systematic        
'(3R,6R,8S)-Methyl 6-isopropyl-6-(t-butoxycarbonylamino)-5-oxohexahydropyrrolo(2,1-b)thiazole-3-carboxylate'
_symmetry_cell_setting           orthorhombic
_symmetry_space_group_name_H-M   'P 21 21 21'
_symmetry_Int_Tables_number      19
_space_group_name_Hall           'P 2ac 2ab'
loop_
_symmetry_equiv_pos_site_id
_symmetry_equiv_pos_as_xyz
1 x,y,z
2 1/2-x,-y,1/2+z
3 -x,1/2+y,1/2-z
4 1/2+x,1/2-y,-z
_cell_length_a                   9.5872(8)
_cell_length_b                   9.9157(8)
_cell_length_c                   19.6384(15)
_cell_angle_alpha                90
_cell_angle_beta                 90
_cell_angle_gamma                90
_cell_volume                     1866.9
_exptl_crystal_colour            colorless
_cell_formula_units_Z            4
loop_
_atom_site_label
_atom_site_type_symbol
_atom_site_fract_x
_atom_site_fract_y
_atom_site_fract_z
S1 S 0.70391(6) 0.68046(6) 1.09504(3)
N1 N 0.75476(15) 0.48227(15) 1.01014(8)
N2 N 1.09495(17) 0.41177(16) 0.97409(8)
H1 H 1.1758 0.3844 0.9871
O1 O 0.83439(14) 0.26596(13) 1.00169(8)
O2 O 0.40952(17) 0.58420(17) 0.98539(10)
O3 O 0.54641(16) 0.47581(18) 0.91205(8)
O4 O 1.13526(19) 0.34797(18) 0.86580(9)
O5 O 0.96934(15) 0.50361(14) 0.89123(6)
C1 C 0.85313(19) 0.38613(18) 1.01109(9)
C2 C 0.99540(18) 0.44966(17) 1.02706(9)
C3 C 0.9643(2) 0.60273(19) 1.03157(11)
C4 C 0.8065(2) 0.61808(17) 1.02216(10)
H2 H 0.7878 0.6743 0.9821
C5 C 0.5902(2) 0.5339(2) 1.09588(12)
H3 H 0.6158 0.4737 1.1328
H4 H 0.4939 0.5613 1.1021
C6 C 0.6086(2) 0.4638(2) 1.02750(11)
C7 C 1.0500(2) 0.3883(2) 1.09476(11)
C8 C 1.1867(3) 0.4539(3) 1.11722(13)
H5 H 1.1689 0.5448 1.1318
H6 H 1.2510 0.4549 1.0798
H7 H 1.2260 0.4035 1.1543
C9 C 0.9410(3) 0.3928(3) 1.15150(12)
H8 H 0.9802 0.3563 1.1925
H9 H 0.8612 0.3405 1.1384
H10 H 0.9132 0.4846 1.1592
C10 C 0.5093(2) 0.51773(19) 0.97332(12)
C11 C 0.4520(3) 0.5102(4) 0.85685(15)
H11 H 0.3597 0.4795 0.8677
H12 H 0.4830 0.4677 0.8156
H13 H 0.4510 0.6063 0.8507
C12 C 1.0710(2) 0.4160(2) 0.90656(11)
C13 C 0.9231(2) 0.5228(2) 0.82080(10)
C14 C 1.0451(3) 0.5535(3) 0.77416(12)
H14 H 1.1065 0.6166 0.7960
H15 H 1.0112 0.5916 0.7324
H16 H 1.0950 0.4717 0.7645
C15 C 0.8422(3) 0.3991(3) 0.79910(13)
H17 H 0.9049 0.3240 0.7947
H18 H 0.7979 0.4159 0.7561
H19 H 0.7726 0.3787 0.8327
C16 C 0.8271(3) 0.6440(3) 0.82677(13)
H20 H 0.7528 0.6238 0.8579
H21 H 0.7887 0.6649 0.7829
H22 H 0.8790 0.7200 0.8433
H23 H 1.007(3) 0.655(2) 0.9968(11)
H24 H 0.987(2) 0.633(2) 1.0733(10)
H25 H 0.590(2) 0.367(2) 1.0334(11)
H26 H 1.068(2) 0.298(2) 1.0841(10)
loop_
_geom_bond_atom_site_label_1
_geom_bond_atom_site_label_2
_geom_bond_site_symmetry_1
_geom_bond_site_symmetry_2
S1 C4 1_555 1_555
N1 C1 1_555 1_555
N2 H1 1_555 1_555
O1 C1 1_555 1_555
O2 C10 1_555 1_555
O3 C10 1_555 1_555
O4 C12 1_555 1_555
O5 C12 1_555 1_555
C1 C2 1_555 1_555
C2 N2 1_555 1_555
C3 C2 1_555 1_555
C4 N1 1_555 1_555
H2 C4 1_555 1_555
C5 S1 1_555 1_555
H3 C5 1_555 1_555
H4 C5 1_555 1_555
C6 N1 1_555 1_555
C7 C2 1_555 1_555
C8 C7 1_555 1_555
H5 C8 1_555 1_555
H6 C8 1_555 1_555
H7 C8 1_555 1_555
C9 C7 1_555 1_555
H8 C9 1_555 1_555
H9 C9 1_555 1_555
H10 C9 1_555 1_555
C10 C6 1_555 1_555
C11 O3 1_555 1_555
H11 C11 1_555 1_555
H12 C11 1_555 1_555
H13 C11 1_555 1_555
C12 N2 1_555 1_555
C13 O5 1_555 1_555
C14 C13 1_555 1_555
H14 C14 1_555 1_555
H15 C14 1_555 1_555
H16 C14 1_555 1_555
C15 C13 1_555 1_555
H17 C15 1_555 1_555
H18 C15 1_555 1_555
H19 C15 1_555 1_555
C16 C13 1_555 1_555
H20 C16 1_555 1_555
H21 C16 1_555 1_555
H22 C16 1_555 1_555
H23 C3 1_555 1_555
H24 C3 1_555 1_555
H25 C6 1_555 1_555
H26 C7 1_555 1_555
C3 C4 1_555 1_555
C5 C6 1_555 1_555

#END
