
#######################################################################
#
#                 Cambridge Crystallographic Data Centre
#                                CCDC 
#
#######################################################################
#
# If this CIF has been generated from an entry in the Cambridge 
# Structural Database, then it will include bibliographic, chemical, 
# crystal, experimental, refinement or atomic coordinate data resulting 
# from the CCDC's data processing and validation procedures.
#
#######################################################################

data_YODTAO
_chemical_formula_moiety         'C22 H22 O3'
_chemical_name_systematic        
'(3-Isopropyl-2-oxocyclopentylidene)(phenyl)methyl benzoate'
_symmetry_cell_setting           monoclinic
_symmetry_space_group_name_H-M   'P 21'
_symmetry_Int_Tables_number      4
_space_group_name_Hall           'P 2yb'
loop_
_symmetry_equiv_pos_site_id
_symmetry_equiv_pos_as_xyz
1 x,y,z
2 -x,1/2+y,-z
_cell_length_a                   6.203(4)
_cell_length_b                   15.2747(10)
_cell_length_c                   9.510(6)
_cell_angle_alpha                90
_cell_angle_beta                 104.293(12)
_cell_angle_gamma                90
_cell_volume                     873.171
_cell_formula_units_Z            2
loop_
_atom_site_label
_atom_site_type_symbol
_atom_site_fract_x
_atom_site_fract_y
_atom_site_fract_z
O1 O 0.6083(3) 0.11907(10) 0.07337(16)
O2 O 0.3486(2) 0.12923(10) 0.30485(15)
O3 O 0.2909(3) 0.03926(9) 0.03368(15)
C1 C 0.2477(4) 0.18635(14) 0.2249(2)
C2 C 0.2214(4) 0.28026(14) 0.2717(2)
H1 H 0.1052 0.2798 0.3282
C3 C 0.1215(4) 0.32892(14) 0.1283(2)
H2 H 0.0219 0.3767 0.1435
H3 H 0.2405 0.3540 0.0878
C4 C -0.0094(4) 0.25872(14) 0.0266(2)
H4 H -0.1606 0.2513 0.0418
H5 H -0.0217 0.2738 -0.0764
C5 C 0.1293(4) 0.17670(14) 0.0700(2)
C6 C 0.1555(4) 0.11113(14) -0.0186(2)
C7 C 0.0518(4) 0.10545(14) -0.1755(2)
C8 C 0.1789(4) 0.07986(14) -0.2711(2)
H6 H 0.3284 0.0613 -0.2343
C9 C 0.0862(4) 0.08160(14) -0.4203(2)
H7 H 0.1731 0.0644 -0.4850
C10 C -0.1325(4) 0.10828(14) -0.4749(2)
H8 H -0.1932 0.1110 -0.5768
C11 C -0.2624(4) 0.13088(13) -0.3810(2)
H9 H -0.4135 0.1472 -0.4184
C12 C -0.1705(4) 0.12964(15) -0.2312(2)
H10 H -0.2594 0.1453 -0.1669
C13 C 0.5167(4) 0.05088(15) 0.0863(2)
C14 C 0.6252(4) -0.02964(14) 0.1551(2)
C15 C 0.5083(4) -0.10615(14) 0.1621(2)
H11 H 0.3527 -0.1082 0.1200
C16 C 0.6172(4) -0.17948(15) 0.2300(2)
H12 H 0.5368 -0.2321 0.2326
C17 C 0.8431(4) -0.17638(16) 0.2943(2)
H13 H 0.9164 -0.2264 0.3433
C18 C 0.9632(4) -0.10021(15) 0.2872(2)
H14 H 1.1184 -0.0981 0.3307
C19 C 0.8540(4) -0.02737(14) 0.2157(2)
H15 H 0.9357 0.0243 0.2082
C20 C 0.4323(4) 0.31954(15) 0.3704(2)
H16 H 0.4721 0.2836 0.4610
C21 C 0.3866(4) 0.41349(14) 0.4134(2)
H17 H 0.3526 0.4507 0.3267
H18 H 0.5183 0.4363 0.4830
H19 H 0.2598 0.4134 0.4577
C22 C 0.6312(4) 0.31790(15) 0.3017(3)
H20 H 0.6572 0.2578 0.2739
H21 H 0.7639 0.3395 0.3719
H22 H 0.5998 0.3554 0.2154
loop_
_geom_bond_atom_site_label_1
_geom_bond_atom_site_label_2
_geom_bond_site_symmetry_1
_geom_bond_site_symmetry_2
O1 C13 1_555 1_555
O2 C1 1_555 1_555
O3 C6 1_555 1_555
C1 C2 1_555 1_555
C2 H1 1_555 1_555
C3 C2 1_555 1_555
H2 C3 1_555 1_555
H3 C3 1_555 1_555
C4 C3 1_555 1_555
H4 C4 1_555 1_555
H5 C4 1_555 1_555
C5 C1 1_555 1_555
C6 C5 1_555 1_555
C7 C6 1_555 1_555
C8 C7 1_555 1_555
H6 C8 1_555 1_555
C9 C8 1_555 1_555
H7 C9 1_555 1_555
C10 C9 1_555 1_555
H8 C10 1_555 1_555
C11 C10 1_555 1_555
H9 C11 1_555 1_555
C12 C7 1_555 1_555
H10 C12 1_555 1_555
C13 O3 1_555 1_555
C14 C13 1_555 1_555
C15 C14 1_555 1_555
H11 C15 1_555 1_555
C16 C15 1_555 1_555
H12 C16 1_555 1_555
C17 C16 1_555 1_555
H13 C17 1_555 1_555
C18 C17 1_555 1_555
H14 C18 1_555 1_555
C19 C14 1_555 1_555
H15 C19 1_555 1_555
C20 C2 1_555 1_555
H16 C20 1_555 1_555
C21 C20 1_555 1_555
H17 C21 1_555 1_555
H18 C21 1_555 1_555
H19 C21 1_555 1_555
C22 C20 1_555 1_555
H20 C22 1_555 1_555
H21 C22 1_555 1_555
H22 C22 1_555 1_555
C4 C5 1_555 1_555
C11 C12 1_555 1_555
C18 C19 1_555 1_555

#END
