
#######################################################################
#
#                 Cambridge Crystallographic Data Centre
#                                CCDC 
#
#######################################################################
#
# If this CIF has been generated from an entry in the Cambridge 
# Structural Database, then it will include bibliographic, chemical, 
# crystal, experimental, refinement or atomic coordinate data resulting 
# from the CCDC's data processing and validation procedures.
#
#######################################################################

data_YOFPEP
_chemical_formula_moiety         'C69 H52 N2'
_chemical_name_systematic        
'2-Pyrenyl-9,9-di(4-(di-p-tolylamino)phenyl)fluorene unknown solvate'
_symmetry_cell_setting           triclinic
_symmetry_space_group_name_H-M   'P -1'
_symmetry_Int_Tables_number      2
_space_group_name_Hall           '-P 1'
loop_
_symmetry_equiv_pos_site_id
_symmetry_equiv_pos_as_xyz
1 x,y,z
2 -x,-y,-z
_cell_length_a                   13.5524(19)
_cell_length_b                   14.254(2)
_cell_length_c                   15.879(2)
_cell_angle_alpha                79.788(12)
_cell_angle_beta                 68.866(14)
_cell_angle_gamma                73.368(12)
_cell_volume                     2731.98
_exptl_crystal_colour            colorless
_exptl_crystal_description       prism
_cell_formula_units_Z            2
_exptl_crystal_preparation       luminescent
loop_
_atom_site_label
_atom_site_type_symbol
_atom_site_fract_x
_atom_site_fract_y
_atom_site_fract_z
N1 N -0.2024(2) 0.4556(2) 0.70783(18)
N2 N 0.2126(2) 0.1537(2) 1.12231(17)
C1 C 0.0885(3) 0.5952(3) 0.8845(2)
H1 H 0.0267 0.5743 0.9263
C2 C 0.1001(3) 0.6899(3) 0.8841(3)
H2 H 0.0468 0.7333 0.9267
C3 C 0.1891(3) 0.7200(3) 0.8215(3)
H3 H 0.1953 0.7849 0.8208
C4 C 0.2693(3) 0.6580(3) 0.7601(2)
H4 H 0.3311 0.6790 0.7184
C5 C 0.2577(3) 0.5641(3) 0.7605(2)
C6 C 0.3306(3) 0.4820(3) 0.7060(2)
C7 C 0.4310(3) 0.4748(3) 0.6374(2)
H5 H 0.4632 0.5293 0.6183
C8 C 0.4832(3) 0.3872(3) 0.5975(2)
H6 H 0.5503 0.3831 0.5491
C9 C 0.4398(3) 0.3044(3) 0.6265(2)
C10 C 0.3401(3) 0.3119(3) 0.6957(2)
H7 H 0.3095 0.2564 0.7168
C11 C 0.2853(3) 0.4004(3) 0.7340(2)
C12 C 0.1751(3) 0.4248(3) 0.8106(2)
C13 C 0.1684(3) 0.5325(3) 0.8230(2)
C14 C 0.0781(3) 0.4238(3) 0.7824(2)
C15 C 0.0842(3) 0.4294(2) 0.6927(2)
H8 H 0.1528 0.4266 0.6463
C16 C -0.0073(3) 0.4392(2) 0.6690(2)
H9 H -0.0003 0.4433 0.6068
C17 C -0.1097(3) 0.4431(3) 0.7347(2)
C18 C -0.1154(3) 0.4344(3) 0.8246(2)
H10 H -0.1834 0.4345 0.8711
C19 C -0.0241(3) 0.4256(3) 0.8478(2)
H11 H -0.0309 0.4206 0.9100
C20 C 0.2057(3) 0.2194(3) 1.0445(2)
C21 C 0.1773(3) 0.1931(3) 0.9773(2)
H12 H 0.1654 0.1296 0.9817
C22 C 0.1665(3) 0.2599(3) 0.9037(2)
H13 H 0.1482 0.2405 0.8581
C23 C 0.1817(3) 0.3546(3) 0.8949(2)
C24 C 0.2111(3) 0.3794(3) 0.9625(2)
H14 H 0.2233 0.4428 0.9582
C25 C 0.2228(3) 0.3130(3) 1.0356(2)
H15 H 0.2430 0.3317 1.0804
C26 C 0.2726(3) 0.0526(3) 1.1141(2)
C27 C 0.3517(3) 0.0181(3) 1.0355(2)
H16 H 0.3645 0.0610 0.9817
C28 C 0.4128(4) -0.0782(3) 1.0339(3)
H17 H 0.4659 -0.0999 0.9784
C29 C 0.3994(4) -0.1438(3) 1.1099(3)
C30 C 0.3166(4) -0.1100(3) 1.1882(3)
H18 H 0.3033 -0.1537 1.2414
C31 C 0.2530(3) -0.0145(3) 1.1908(3)
H19 H 0.1958 0.0057 1.2450
C32 C 0.4717(5) -0.2462(3) 1.1096(3)
H20 H 0.4351 -0.2927 1.1019
H21 H 0.4865 -0.2640 1.1671
H22 H 0.5406 -0.2486 1.0595
C33 C 0.1936(3) 0.1958(3) 1.2041(2)
C34 C 0.0932(3) 0.2575(3) 1.2457(2)
H23 H 0.0371 0.2725 1.2194
C35 C 0.0744(3) 0.2973(3) 1.3253(2)
H24 H 0.0051 0.3390 1.3528
C36 C 0.1537(3) 0.2779(3) 1.3656(2)
C37 C 0.1321(4) 0.3219(3) 1.4522(2)
H25 H 0.1136 0.3937 1.4423
H26 H 0.1975 0.3000 1.4705
H27 H 0.0713 0.3005 1.5000
C38 C 0.2546(3) 0.2160(3) 1.3229(2)
H28 H 0.3105 0.2007 1.3494
C39 C 0.2748(3) 0.1765(3) 1.2432(2)
H29 H 0.3445 0.1358 1.2151
C40 C -0.3087(3) 0.4990(3) 0.7658(2)
C41 C -0.3987(3) 0.4633(3) 0.7773(2)
H30 H -0.3908 0.4105 0.7445
C42 C -0.5005(3) 0.5054(3) 0.8371(2)
H31 H -0.5615 0.4815 0.8428
C43 C -0.5158(3) 0.5800(3) 0.8882(2)
C44 C -0.4258(3) 0.6169(3) 0.8739(2)
H32 H -0.4342 0.6698 0.9068
C45 C -0.3246(3) 0.5789(3) 0.8132(2)
H33 H -0.2655 0.6072 0.8037
C46 C -0.6255(3) 0.6197(3) 0.9584(2)
H34 H -0.6832 0.6027 0.9452
H35 H -0.6395 0.6913 0.9563
H36 H -0.6243 0.5907 1.0189
C47 C -0.1931(3) 0.3977(3) 0.6390(2)
C48 C -0.2308(3) 0.4407(3) 0.5668(2)
H37 H -0.2607 0.5096 0.5615
C49 C -0.2243(4) 0.3819(5) 0.5024(2)
H38 H -0.2500 0.4121 0.4535
C50 C -0.1817(4) 0.2812(5) 0.5074(3)
C51 C -0.1431(4) 0.2412(4) 0.5788(3)
H39 H -0.1120 0.1725 0.5835
C52 C -0.1482(3) 0.2977(3) 0.6440(2)
H40 H -0.1207 0.2674 0.6920
C53 C -0.1795(5) 0.2179(5) 0.4389(3)
H41 H -0.1994 0.2602 0.3888
H42 H -0.2316 0.1769 0.4683
H43 H -0.1060 0.1757 0.4154
C54 C 0.5026(3) 0.2093(3) 0.5863(2)
C55 C 0.5496(3) 0.1315(3) 0.6384(2)
H44 H 0.5370 0.1392 0.6998
C56 C 0.6138(4) 0.0436(3) 0.6026(2)
H45 H 0.6446 -0.0073 0.6398
C57 C 0.6336(3) 0.0290(3) 0.5134(2)
C58 C 0.7012(4) -0.0607(3) 0.4734(3)
H46 H 0.7342 -0.1121 0.5089
C59 C 0.7188(4) -0.0736(3) 0.3866(3)
H47 H 0.7649 -0.1332 0.3621
C60 C 0.6694(3) 0.0008(3) 0.3305(2)
C61 C 0.6872(4) -0.0116(3) 0.2398(3)
H48 H 0.7320 -0.0713 0.2147
C62 C 0.6403(4) 0.0623(3) 0.1870(3)
H49 H 0.6534 0.0532 0.1257
C63 C 0.5735(3) 0.1503(3) 0.2234(2)
H50 H 0.5410 0.2003 0.1865
C64 C 0.5538(3) 0.1659(3) 0.3129(2)
C65 C 0.4861(3) 0.2553(3) 0.3527(2)
H51 H 0.4516 0.3056 0.3174
C66 C 0.4702(3) 0.2697(3) 0.4388(2)
H52 H 0.4257 0.3303 0.4621
C67 C 0.5186(3) 0.1959(3) 0.4965(2)
C68 C 0.5848(3) 0.1052(3) 0.4588(2)
C69 C 0.6026(3) 0.0906(3) 0.3670(2)
loop_
_geom_bond_atom_site_label_1
_geom_bond_atom_site_label_2
_geom_bond_site_symmetry_1
_geom_bond_site_symmetry_2
N1 C17 1_555 1_555
N2 C20 1_555 1_555
C1 H1 1_555 1_555
C2 C1 1_555 1_555
H2 C2 1_555 1_555
C3 C2 1_555 1_555
H3 C3 1_555 1_555
C4 C3 1_555 1_555
H4 C4 1_555 1_555
C5 C4 1_555 1_555
C6 C5 1_555 1_555
C7 C6 1_555 1_555
H5 C7 1_555 1_555
C8 C7 1_555 1_555
H6 C8 1_555 1_555
C9 C8 1_555 1_555
C10 C9 1_555 1_555
H7 C10 1_555 1_555
C11 C6 1_555 1_555
C12 C11 1_555 1_555
C13 C1 1_555 1_555
C14 C12 1_555 1_555
C15 C14 1_555 1_555
H8 C15 1_555 1_555
C16 C15 1_555 1_555
H9 C16 1_555 1_555
C17 C16 1_555 1_555
C18 C17 1_555 1_555
H10 C18 1_555 1_555
C19 C14 1_555 1_555
H11 C19 1_555 1_555
C20 C21 1_555 1_555
C21 H12 1_555 1_555
C22 C21 1_555 1_555
H13 C22 1_555 1_555
C23 C12 1_555 1_555
C24 C23 1_555 1_555
H14 C24 1_555 1_555
C25 C20 1_555 1_555
H15 C25 1_555 1_555
C26 N2 1_555 1_555
C27 C26 1_555 1_555
H16 C27 1_555 1_555
C28 C27 1_555 1_555
H17 C28 1_555 1_555
C29 C28 1_555 1_555
C30 C29 1_555 1_555
H18 C30 1_555 1_555
C31 C26 1_555 1_555
H19 C31 1_555 1_555
C32 C29 1_555 1_555
H20 C32 1_555 1_555
H21 C32 1_555 1_555
H22 C32 1_555 1_555
C33 N2 1_555 1_555
C34 C33 1_555 1_555
H23 C34 1_555 1_555
C35 C34 1_555 1_555
H24 C35 1_555 1_555
C36 C35 1_555 1_555
C37 C36 1_555 1_555
H25 C37 1_555 1_555
H26 C37 1_555 1_555
H27 C37 1_555 1_555
C38 C36 1_555 1_555
H28 C38 1_555 1_555
C39 C33 1_555 1_555
H29 C39 1_555 1_555
C40 N1 1_555 1_555
C41 C40 1_555 1_555
H30 C41 1_555 1_555
C42 C41 1_555 1_555
H31 C42 1_555 1_555
C43 C42 1_555 1_555
C44 C43 1_555 1_555
H32 C44 1_555 1_555
C45 C40 1_555 1_555
H33 C45 1_555 1_555
C46 C43 1_555 1_555
H34 C46 1_555 1_555
H35 C46 1_555 1_555
H36 C46 1_555 1_555
C47 N1 1_555 1_555
C48 C47 1_555 1_555
H37 C48 1_555 1_555
C49 C48 1_555 1_555
H38 C49 1_555 1_555
C50 C49 1_555 1_555
C51 C50 1_555 1_555
H39 C51 1_555 1_555
C52 C47 1_555 1_555
H40 C52 1_555 1_555
C53 C50 1_555 1_555
H41 C53 1_555 1_555
H42 C53 1_555 1_555
H43 C53 1_555 1_555
C54 C9 1_555 1_555
C55 C54 1_555 1_555
H44 C55 1_555 1_555
C56 C55 1_555 1_555
H45 C56 1_555 1_555
C57 C56 1_555 1_555
C58 C57 1_555 1_555
H46 C58 1_555 1_555
C59 C58 1_555 1_555
H47 C59 1_555 1_555
C60 C59 1_555 1_555
C61 C60 1_555 1_555
H48 C61 1_555 1_555
C62 C61 1_555 1_555
H49 C62 1_555 1_555
C63 C62 1_555 1_555
H50 C63 1_555 1_555
C64 C63 1_555 1_555
C65 C64 1_555 1_555
H51 C65 1_555 1_555
C66 C65 1_555 1_555
H52 C66 1_555 1_555
C67 C54 1_555 1_555
C68 C57 1_555 1_555
C69 C60 1_555 1_555
C5 C13 1_555 1_555
C10 C11 1_555 1_555
C12 C13 1_555 1_555
C18 C19 1_555 1_555
C22 C23 1_555 1_555
C24 C25 1_555 1_555
C30 C31 1_555 1_555
C38 C39 1_555 1_555
C44 C45 1_555 1_555
C51 C52 1_555 1_555
C64 C69 1_555 1_555
C66 C67 1_555 1_555
C67 C68 1_555 1_555
C68 C69 1_555 1_555

#END
