
#######################################################################
#
#                 Cambridge Crystallographic Data Centre
#                                CCDC 
#
#######################################################################
#
# If this CIF has been generated from an entry in the Cambridge 
# Structural Database, then it will include bibliographic, chemical, 
# crystal, experimental, refinement or atomic coordinate data resulting 
# from the CCDC's data processing and validation procedures.
#
#######################################################################

data_YOFPAL
_chemical_formula_moiety         'C53 H44 N2'
_chemical_name_systematic        9,9-Di(4-(di-p-tolylamino)phenyl)fluorene
_symmetry_cell_setting           triclinic
_symmetry_space_group_name_H-M   'P -1'
_symmetry_Int_Tables_number      2
_space_group_name_Hall           '-P 1'
loop_
_symmetry_equiv_pos_site_id
_symmetry_equiv_pos_as_xyz
1 x,y,z
2 -x,-y,-z
_cell_length_a                   10.825(2)
_cell_length_b                   11.781(3)
_cell_length_c                   17.237(4)
_cell_angle_alpha                100.940(3)
_cell_angle_beta                 99.540(2)
_cell_angle_gamma                111.532(2)
_cell_volume                     1939.83
_exptl_crystal_colour            colorless
_exptl_crystal_description       prism
_cell_formula_units_Z            2
_exptl_crystal_preparation       luminescent
loop_
_atom_site_label
_atom_site_type_symbol
_atom_site_fract_x
_atom_site_fract_y
_atom_site_fract_z
N1 N 0.16123(13) 0.29199(11) 0.80147(7)
N2 N 0.18650(13) 0.33299(11) 0.25376(7)
C1 C -0.22902(15) -0.05599(13) 0.41396(8)
H1 H -0.1368 -0.0479 0.4259
C2 C -0.33772(16) -0.17456(14) 0.37658(9)
H2 H -0.3194 -0.2478 0.3634
C3 C -0.47217(16) -0.18616(15) 0.35851(9)
H3 H -0.5450 -0.2673 0.3328
C4 C -0.50144(16) -0.08088(14) 0.37756(9)
H4 H -0.5938 -0.0895 0.3650
C5 C -0.39404(14) 0.03797(14) 0.41536(8)
C6 C -0.39391(14) 0.16364(14) 0.44223(8)
C7 C -0.50147(16) 0.20237(15) 0.43875(9)
H5 H -0.5940 0.1424 0.4155
C8 C -0.47150(16) 0.32956(16) 0.46975(10)
H6 H -0.5441 0.3568 0.4676
C9 C -0.33658(16) 0.41772(15) 0.50395(9)
H7 H -0.3179 0.5046 0.5251
C10 C -0.22839(15) 0.38002(14) 0.50755(8)
H8 H -0.1361 0.4403 0.5309
C11 C -0.25794(14) 0.25291(13) 0.47641(8)
C12 C -0.15793(13) 0.18865(12) 0.47239(8)
C13 C -0.25809(14) 0.04966(13) 0.43327(8)
C14 C -0.07255(13) 0.21224(13) 0.55898(7)
C15 C -0.10937(14) 0.12620(13) 0.60538(8)
H9 H -0.1880 0.0482 0.5820
C16 C -0.03378(14) 0.15163(13) 0.68509(8)
H10 H -0.0619 0.0913 0.7153
C17 C 0.08255(14) 0.26453(13) 0.72108(8)
C18 C 0.11988(15) 0.35164(13) 0.67495(8)
H11 H 0.1986 0.4296 0.6982
C19 C 0.04361(14) 0.32559(13) 0.59607(8)
H12 H 0.0709 0.3865 0.5662
C20 C 0.10190(14) 0.29904(13) 0.30713(8)
C21 C -0.01610(14) 0.32274(13) 0.30322(8)
H13 H -0.0413 0.3614 0.2633
C22 C -0.09682(13) 0.29032(12) 0.35704(8)
H14 H -0.1757 0.3086 0.3538
C23 C -0.06507(13) 0.23185(12) 0.41556(7)
C24 C 0.05129(14) 0.20599(13) 0.41799(8)
H15 H 0.0745 0.1647 0.4567
C25 C 0.13373(14) 0.23909(13) 0.36537(8)
H16 H 0.2127 0.2209 0.3689
C26 C 0.27752(15) 0.27315(14) 0.24007(8)
C27 C 0.22766(15) 0.14223(14) 0.21282(9)
H17 H 0.1320 0.0915 0.2019
C28 C 0.31751(16) 0.08514(15) 0.20154(9)
H18 H 0.2825 -0.0048 0.1842
C29 C 0.45819(16) 0.15702(15) 0.21507(9)
C30 C 0.50527(16) 0.28785(15) 0.24103(9)
H19 H 0.6004 0.3390 0.2501
C31 C 0.41729(16) 0.34598(15) 0.25409(9)
H20 H 0.4526 0.4358 0.2727
C32 C 0.55504(17) 0.09425(17) 0.20287(10)
H21 H 0.6306 0.1486 0.1844
H22 H 0.5053 0.0122 0.1616
H23 H 0.5921 0.0812 0.2547
C33 C 0.18975(14) 0.43157(13) 0.21627(8)
C34 C 0.18768(14) 0.54335(13) 0.25872(8)
H24 H 0.1873 0.5567 0.3148
C35 C 0.18624(14) 0.63526(13) 0.21945(9)
H25 H 0.1837 0.7107 0.2492
C36 C 0.18846(15) 0.62036(13) 0.13792(9)
C37 C 0.19612(17) 0.51044(14) 0.09689(9)
H26 H 0.2017 0.4993 0.0417
C38 C 0.19581(16) 0.41681(14) 0.13501(9)
H27 H 0.1998 0.3420 0.1055
C39 C 0.1814(2) 0.71889(16) 0.09523(11)
H28 H 0.2747 0.7781 0.0983
H29 H 0.1342 0.7655 0.1218
H30 H 0.1306 0.6773 0.0378
C40 C 0.15677(14) 0.19422(13) 0.83995(8)
C41 C 0.16960(15) 0.08614(13) 0.80008(8)
H31 H 0.1815 0.0767 0.7462
C42 C 0.16498(14) -0.00761(13) 0.83899(8)
H32 H 0.1714 -0.0818 0.8106
C43 C 0.15116(14) 0.00441(13) 0.91856(8)
C44 C 0.14045(15) 0.11335(13) 0.95808(8)
H33 H 0.1316 0.1241 1.0126
C45 C 0.14239(15) 0.20703(13) 0.91926(8)
H34 H 0.1338 0.2803 0.9473
C46 C 0.15295(17) -0.09546(14) 0.96132(10)
H35 H 0.2448 -0.0954 0.9714
H36 H 0.0854 -0.1789 0.9269
H37 H 0.1298 -0.0770 1.0135
C47 C 0.24478(15) 0.42066(13) 0.84770(8)
C48 C 0.38303(15) 0.45701(14) 0.88389(8)
H38 H 0.4224 0.3970 0.8769
C49 C 0.46359(16) 0.58104(14) 0.93029(9)
H39 H 0.5577 0.6047 0.9553
C50 C 0.40912(15) 0.67169(14) 0.94090(8)
C51 C 0.27128(15) 0.63364(14) 0.90294(8)
H40 H 0.2324 0.6942 0.9083
C52 C 0.18875(15) 0.50936(13) 0.85740(8)
H41 H 0.0943 0.4853 0.8330
C53 C 0.49825(17) 0.80604(15) 0.99055(10)
H42 H 0.5638 0.8475 0.9610
H43 H 0.5485 0.8060 1.0433
H44 H 0.4405 0.8522 0.9997
loop_
_geom_bond_atom_site_label_1
_geom_bond_atom_site_label_2
_geom_bond_site_symmetry_1
_geom_bond_site_symmetry_2
N1 C17 1_555 1_555
N2 C20 1_555 1_555
C1 H1 1_555 1_555
C2 C1 1_555 1_555
H2 C2 1_555 1_555
C3 C2 1_555 1_555
H3 C3 1_555 1_555
C4 C3 1_555 1_555
H4 C4 1_555 1_555
C5 C4 1_555 1_555
C6 C5 1_555 1_555
C7 C6 1_555 1_555
H5 C7 1_555 1_555
C8 C7 1_555 1_555
H6 C8 1_555 1_555
C9 C8 1_555 1_555
H7 C9 1_555 1_555
C10 C9 1_555 1_555
H8 C10 1_555 1_555
C11 C6 1_555 1_555
C12 C11 1_555 1_555
C13 C1 1_555 1_555
C14 C12 1_555 1_555
C15 C14 1_555 1_555
H9 C15 1_555 1_555
C16 C15 1_555 1_555
H10 C16 1_555 1_555
C17 C16 1_555 1_555
C18 C17 1_555 1_555
H11 C18 1_555 1_555
C19 C14 1_555 1_555
H12 C19 1_555 1_555
C20 C21 1_555 1_555
C21 H13 1_555 1_555
C22 C21 1_555 1_555
H14 C22 1_555 1_555
C23 C12 1_555 1_555
C24 C23 1_555 1_555
H15 C24 1_555 1_555
C25 C20 1_555 1_555
H16 C25 1_555 1_555
C26 N2 1_555 1_555
C27 C26 1_555 1_555
H17 C27 1_555 1_555
C28 C27 1_555 1_555
H18 C28 1_555 1_555
C29 C28 1_555 1_555
C30 C29 1_555 1_555
H19 C30 1_555 1_555
C31 C26 1_555 1_555
H20 C31 1_555 1_555
C32 C29 1_555 1_555
H21 C32 1_555 1_555
H22 C32 1_555 1_555
H23 C32 1_555 1_555
C33 N2 1_555 1_555
C34 C33 1_555 1_555
H24 C34 1_555 1_555
C35 C34 1_555 1_555
H25 C35 1_555 1_555
C36 C35 1_555 1_555
C37 C36 1_555 1_555
H26 C37 1_555 1_555
C38 C33 1_555 1_555
H27 C38 1_555 1_555
C39 C36 1_555 1_555
H28 C39 1_555 1_555
H29 C39 1_555 1_555
H30 C39 1_555 1_555
C40 N1 1_555 1_555
C41 C40 1_555 1_555
H31 C41 1_555 1_555
C42 C41 1_555 1_555
H32 C42 1_555 1_555
C43 C42 1_555 1_555
C44 C43 1_555 1_555
H33 C44 1_555 1_555
C45 C40 1_555 1_555
H34 C45 1_555 1_555
C46 C43 1_555 1_555
H35 C46 1_555 1_555
H36 C46 1_555 1_555
H37 C46 1_555 1_555
C47 N1 1_555 1_555
C48 C47 1_555 1_555
H38 C48 1_555 1_555
C49 C48 1_555 1_555
H39 C49 1_555 1_555
C50 C49 1_555 1_555
C51 C50 1_555 1_555
H40 C51 1_555 1_555
C52 C47 1_555 1_555
H41 C52 1_555 1_555
C53 C50 1_555 1_555
H42 C53 1_555 1_555
H43 C53 1_555 1_555
H44 C53 1_555 1_555
C5 C13 1_555 1_555
C10 C11 1_555 1_555
C12 C13 1_555 1_555
C18 C19 1_555 1_555
C22 C23 1_555 1_555
C24 C25 1_555 1_555
C30 C31 1_555 1_555
C37 C38 1_555 1_555
C44 C45 1_555 1_555
C51 C52 1_555 1_555

#END
