
#######################################################################
#
#                 Cambridge Crystallographic Data Centre
#                                CCDC 
#
#######################################################################
#
# If this CIF has been generated from an entry in the Cambridge 
# Structural Database, then it will include bibliographic, chemical, 
# crystal, experimental, refinement or atomic coordinate data resulting 
# from the CCDC's data processing and validation procedures.
#
#######################################################################

data_YOFQEQ
_chemical_formula_moiety         
'C36 H36 N24 O12,C14 H20 N4 2+,2(Br1 1-),8(H2 O1)'
_chemical_name_systematic        
"(2)-(N,N'-Hexamethylenebis(pyrazinium))-(cucurbit[6]uril)-pseudorotaxane dibromide octahydrate"
_symmetry_cell_setting           monoclinic
_symmetry_space_group_name_H-M   'P 21/c'
_symmetry_Int_Tables_number      14
_space_group_name_Hall           '-P 2ybc'
loop_
_symmetry_equiv_pos_site_id
_symmetry_equiv_pos_as_xyz
1 x,y,z
2 -x,1/2+y,1/2-z
3 -x,-y,-z
4 x,1/2-y,1/2+z
_cell_length_a                   12.2318(7)
_cell_length_b                   21.2625(12)
_cell_length_c                   12.6303(7)
_cell_angle_alpha                90
_cell_angle_beta                 111.9110(10)
_cell_angle_gamma                90
_cell_volume                     3047.59
_exptl_crystal_colour            colorless
_exptl_crystal_description       block
_cell_formula_units_Z            2
loop_
_atom_site_label
_atom_site_type_symbol
_atom_site_fract_x
_atom_site_fract_y
_atom_site_fract_z
Br1 Br 0.00429(4) 0.30177(2) 0.53389(3)
C1 C 0.1515(2) 0.62588(14) 0.7428(2)
H1 H 0.0990 0.6600 0.7018
C2 C 0.0864(2) 0.56169(14) 0.7223(2)
H2 H 0.0033 0.5663 0.6728
C3 C 0.1501(2) 0.58745(14) 0.9154(2)
C4 C 0.2400(3) 0.55705(14) 0.6548(2)
C5 C 0.0371(3) 0.48893(14) 0.8592(3)
H3 H 0.0190 0.4983 0.9260
H4 H -0.0370 0.4835 0.7952
C6 C 0.1222(3) 0.45921(14) 0.6319(2)
H5 H 0.0373 0.4540 0.5997
H6 H 0.1518 0.4502 0.5722
C7 C 0.1039(3) 0.39063(14) 0.7874(2)
H7 H 0.0240 0.3786 0.7370
C8 C 0.1758(3) 0.33269(14) 0.8498(2)
H8 H 0.1283 0.2942 0.8310
C9 C 0.1571(2) 0.40418(15) 0.9832(2)
C10 C 0.2597(3) 0.37440(15) 0.7270(2)
C11 C 0.2692(3) 0.30687(14) 1.0617(3)
H9 H 0.2507 0.3188 1.1272
H10 H 0.2390 0.2647 1.0396
C12 C 0.3531(3) 0.27822(16) 0.8300(3)
H11 H 0.3792 0.2747 0.7665
H12 H 0.3121 0.2396 0.8331
C13 C 0.4574(3) 0.26569(14) 1.0453(2)
H13 H 0.4337 0.2216 1.0450
C14 C 0.5890(3) 0.27523(14) 1.1243(2)
H14 H 0.6244 0.2359 1.1621
C15 C 0.4683(2) 0.33354(13) 1.1950(2)
C16 C 0.5652(3) 0.29818(13) 0.9357(3)
C17 C 0.3191(3) 0.66554(14) 0.6885(2)
H15 H 0.2726 0.7035 0.6640
H16 H 0.3487 0.6541 0.6298
C18 C 0.2328(3) 0.69418(15) 0.9207(3)
H17 H 0.2137 0.6972 0.9885
H18 H 0.1909 0.7275 0.8691
N1 N 0.1914(2) 0.63406(12) 0.8661(2)
N2 N 0.2440(2) 0.61549(11) 0.7002(2)
N3 N 0.0991(2) 0.54188(12) 0.8362(2)
N4 N 0.1494(2) 0.52467(12) 0.6682(2)
N5 N 0.1020(2) 0.43059(12) 0.8781(2)
N6 N 0.1713(2) 0.41468(12) 0.7224(2)
N7 N 0.2095(2) 0.34919(12) 0.9690(2)
N8 N 0.2719(2) 0.33005(13) 0.8089(2)
N9 N 0.3945(2) 0.30565(11) 1.0950(2)
N10 N 0.4555(2) 0.28436(14) 0.9347(2)
N11 N 0.4180(2) 0.67830(12) 0.7936(2)
N12 N 0.3570(2) 0.70377(13) 0.9525(2)
O1 O 0.1567(2) 0.58675(11) 1.01503(18)
O2 O 0.3052(2) 0.53761(11) 0.60843(19)
O3 O 0.1590(2) 0.42512(11) 1.07375(17)
O4 O 0.3196(2) 0.37784(12) 0.6677(2)
O5 O 0.43684(18) 0.36273(10) 1.26114(18)
O6 O 0.5902(2) 0.30904(11) 0.8528(2)
C1B C 0.8485(2) 0.37412(14) 1.2572(2)
H1B H 0.9010 0.3400 1.2982
C2B C 0.9136(2) 0.43831(14) 1.2777(2)
H2B H 0.9967 0.4337 1.3272
C3B C 0.8499(2) 0.41255(14) 1.0846(2)
C4B C 0.7600(3) 0.44295(14) 1.3452(2)
C5B C 0.9629(3) 0.51107(14) 1.1408(3)
H3B H 0.9810 0.5017 1.0740
H4B H 1.0370 0.5165 1.2048
C6B C 0.8778(3) 0.54079(14) 1.3681(2)
H5B H 0.9627 0.5460 1.4003
H6B H 0.8482 0.5498 1.4278
C7B C 0.8961(3) 0.60937(14) 1.2126(2)
H7B H 0.9760 0.6214 1.2630
C8B C 0.8242(3) 0.66731(14) 1.1502(2)
H8B H 0.8717 0.7058 1.1690
C9B C 0.8429(2) 0.59582(15) 1.0168(2)
C10B C 0.7403(3) 0.62560(15) 1.2730(2)
C11B C 0.7308(3) 0.69313(14) 0.9383(3)
H9B H 0.7493 0.6812 0.8728
H10B H 0.7610 0.7353 0.9604
C12B C 0.6469(3) 0.72178(16) 1.1700(3)
H11B H 0.6208 0.7253 1.2335
H12B H 0.6879 0.7604 1.1669
C13B C 0.5426(3) 0.73431(14) 0.9547(2)
H13B H 0.5663 0.7784 0.9550
C14B C 0.4110(3) 0.72477(14) 0.8757(2)
H14B H 0.3756 0.7641 0.8379
C15B C 0.5317(2) 0.66646(13) 0.8050(2)
C16B C 0.4348(3) 0.70182(13) 1.0643(3)
C17B C 0.6809(3) 0.33446(14) 1.3115(2)
H15B H 0.7274 0.2965 1.3360
H16B H 0.6513 0.3459 1.3702
C18B C 0.7672(3) 0.30582(15) 1.0793(3)
H17B H 0.7863 0.3028 1.0115
H18B H 0.8091 0.2725 1.1309
N1B N 0.8086(2) 0.36594(12) 1.1339(2)
N2B N 0.7560(2) 0.38451(11) 1.2998(2)
N3B N 0.9009(2) 0.45812(12) 1.1638(2)
N4B N 0.8506(2) 0.47533(12) 1.3318(2)
N5B N 0.8980(2) 0.56941(12) 1.1219(2)
N6B N 0.8287(2) 0.58532(12) 1.2776(2)
N7B N 0.7905(2) 0.65081(12) 1.0310(2)
N8B N 0.7281(2) 0.66995(13) 1.1911(2)
N9B N 0.6055(2) 0.69435(11) 0.9050(2)
N10B N 0.5445(2) 0.71564(14) 1.0653(2)
N11B N 0.5820(2) 0.32170(12) 1.2064(2)
N12B N 0.6430(2) 0.29623(13) 1.0475(2)
O1B O 0.8433(2) 0.41325(11) 0.98497(18)
O2B O 0.6948(2) 0.46239(11) 1.39157(19)
O3B O 0.8410(2) 0.57488(11) 0.92625(17)
O4B O 0.6804(2) 0.62216(12) 1.3323(2)
O5B O 0.56316(18) 0.63727(10) 0.73886(18)
O6B O 0.4098(2) 0.69096(11) 1.1472(2)
C19 C 0.6949(3) 0.41845(17) 0.7272(3)
H19 H 0.7585 0.4242 0.7957
C20 C 0.7037(3) 0.37773(17) 0.6467(3)
H20 H 0.7739 0.3559 0.6622
C21 C 0.5174(3) 0.40050(18) 0.5297(3)
H21 H 0.4545 0.3952 0.4607
C22 C 0.5054(3) 0.44079(17) 0.6086(3)
H22 H 0.4347 0.4620 0.5938
C23 C 0.5850(4) 0.49490(16) 0.7929(3)
H23 H 0.5336 0.5291 0.7532
H24 H 0.6621 0.5126 0.8353
C24 C 0.5380(3) 0.46610(16) 0.8753(3)
H25 H 0.5911 0.4331 0.9178
H26 H 0.4621 0.4470 0.8332
C25 C 0.5239(4) 0.51380(18) 0.9583(3)
H27 H 0.5999 0.5328 1.0003
H28 H 0.4713 0.5469 0.9155
N13 N 0.5953(2) 0.44956(13) 0.7070(2)
N14 N 0.6169(3) 0.36826(14) 0.5484(2)
C19B C 0.3051(3) 0.58155(17) 1.2728(3)
H19B H 0.2415 0.5758 1.2043
C20B C 0.2963(3) 0.62227(17) 1.3533(3)
H20B H 0.2261 0.6441 1.3378
C21B C 0.4826(3) 0.59950(18) 1.4703(3)
H21B H 0.5455 0.6048 1.5393
C22B C 0.4946(3) 0.55921(17) 1.3914(3)
H22B H 0.5653 0.5380 1.4062
C23B C 0.4150(4) 0.50510(16) 1.2071(3)
H23B H 0.4664 0.4709 1.2468
H24B H 0.3379 0.4874 1.1647
C24B C 0.4620(3) 0.53390(16) 1.1247(3)
H25B H 0.4089 0.5669 1.0822
H26B H 0.5379 0.5530 1.1668
C25B C 0.4761(4) 0.48620(18) 1.0417(3)
H27B H 0.4001 0.4672 0.9997
H28B H 0.5287 0.4531 1.0845
N13B N 0.4047(2) 0.55044(13) 1.2930(2)
N14B N 0.3831(3) 0.63174(14) 1.4516(2)
O7 O 0.0703(3) 0.32901(17) 0.1942(3)
H29 H 0.082(5) 0.3553(17) 0.155(4)
H30 H 0.053(5) 0.2944(12) 0.171(4)
O8 O 0.0891(3) 0.68476(17) 0.1459(3)
H31 H 0.070(5) 0.7174(14) 0.112(4)
H32 H 0.108(5) 0.6571(17) 0.113(4)
O9 O 0.2172(4) 0.3498(2) 0.4191(3)
H33 H 0.200(6) 0.349(4) 0.477(3)
H34 H 0.164(5) 0.330(3) 0.367(4)
O10 O 0.2153(4) 0.4819(2) 0.3847(3)
H35 H 0.223(7) 0.501(3) 0.443(4)
H36 H 0.227(7) 0.4440(11) 0.397(6)
O11? O 0.229(2) 0.4522(12) 0.3179(18)
H37? H 0.2694 0.4652 0.2836
H38? H 0.1786 0.4287 0.2747
loop_
_geom_bond_atom_site_label_1
_geom_bond_atom_site_label_2
_geom_bond_site_symmetry_1
_geom_bond_site_symmetry_2
C1 H1 1_555 1_555
C2 C1 1_555 1_555
H2 C2 1_555 1_555
C3 N1 1_555 1_555
C4 N2 1_555 1_555
C5 H3 1_555 1_555
H4 C5 1_555 1_555
C6 H5 1_555 1_555
H6 C6 1_555 1_555
C7 H7 1_555 1_555
C8 C7 1_555 1_555
H8 C8 1_555 1_555
C9 N5 1_555 1_555
C10 N6 1_555 1_555
C11 H9 1_555 1_555
H10 C11 1_555 1_555
C12 H11 1_555 1_555
H12 C12 1_555 1_555
C13 H13 1_555 1_555
C14 C13 1_555 1_555
H14 C14 1_555 1_555
C15 N9 1_555 1_555
C16 N10 1_555 1_555
C17 H15 1_555 1_555
H16 C17 1_555 1_555
C18 H17 1_555 1_555
H18 C18 1_555 1_555
C19 H19 1_555 1_555
C20 C19 1_555 1_555
H20 C20 1_555 1_555
C21 H21 1_555 1_555
C22 C21 1_555 1_555
H22 C22 1_555 1_555
C23 H23 1_555 1_555
H24 C23 1_555 1_555
C24 C23 1_555 1_555
H25 C24 1_555 1_555
H26 C24 1_555 1_555
C25 C24 1_555 1_555
H27 C25 1_555 1_555
H28 C25 1_555 1_555
N1 C1 1_555 1_555
N2 C1 1_555 1_555
N3 C2 1_555 1_555
N4 C2 1_555 1_555
N5 C5 1_555 1_555
N6 C6 1_555 1_555
N7 C8 1_555 1_555
N8 C8 1_555 1_555
N9 C11 1_555 1_555
N10 C12 1_555 1_555
N11 C17 1_555 1_555
N12 C18 1_555 1_555
N13 C19 1_555 1_555
N14 C20 1_555 1_555
O1 C3 1_555 1_555
O2 C4 1_555 1_555
O3 C9 1_555 1_555
O4 C10 1_555 1_555
O5 C15 1_555 1_555
O6 C16 1_555 1_555
O7 H29 1_555 1_555
H30 O7 1_555 1_555
O8 H31 1_555 1_555
H32 O8 1_555 1_555
O9 H33 1_555 1_555
H34 O9 1_555 1_555
O10 H35 1_555 1_555
H36 O10 1_555 1_555
C1B H1B 1_555 1_555
C2B C1B 1_555 1_555
H2B C2B 1_555 1_555
C3B N1B 1_555 1_555
C4B N2B 1_555 1_555
C5B H3B 1_555 1_555
H4B C5B 1_555 1_555
C6B H5B 1_555 1_555
H6B C6B 1_555 1_555
C7B H7B 1_555 1_555
C8B C7B 1_555 1_555
H8B C8B 1_555 1_555
C9B N5B 1_555 1_555
C10B N6B 1_555 1_555
C11B H9B 1_555 1_555
H10B C11B 1_555 1_555
C12B H11B 1_555 1_555
H12B C12B 1_555 1_555
C13B H13B 1_555 1_555
C14B N11 1_555 1_555
H14B C14B 1_555 1_555
C15B N11 1_555 1_555
C16B N12 1_555 1_555
C17B H15B 1_555 1_555
H16B C17B 1_555 1_555
C18B H17B 1_555 1_555
H18B C18B 1_555 1_555
C19B H19B 1_555 1_555
C20B C19B 1_555 1_555
H20B C20B 1_555 1_555
C21B H21B 1_555 1_555
C22B C21B 1_555 1_555
H22B C22B 1_555 1_555
C23B H23B 1_555 1_555
H24B C23B 1_555 1_555
C24B C23B 1_555 1_555
H25B C24B 1_555 1_555
H26B C24B 1_555 1_555
C25B C25 1_555 1_555
H27B C25B 1_555 1_555
H28B C25B 1_555 1_555
N1B C1B 1_555 1_555
N2B C1B 1_555 1_555
N3B C2B 1_555 1_555
N4B C2B 1_555 1_555
N5B C5B 1_555 1_555
N6B C6B 1_555 1_555
N7B C8B 1_555 1_555
N8B C8B 1_555 1_555
N9B C11B 1_555 1_555
N10B C12B 1_555 1_555
N11B C14 1_555 1_555
N12B C14 1_555 1_555
N13B C19B 1_555 1_555
N14B C20B 1_555 1_555
O1B C3B 1_555 1_555
O2B C4B 1_555 1_555
O3B C9B 1_555 1_555
O4B C10B 1_555 1_555
O5B C15B 1_555 1_555
O6B C16B 1_555 1_555
C3 N3 1_555 1_555
C4 N4 1_555 1_555
C5 N3 1_555 1_555
C6 N4 1_555 1_555
C7 N5 1_555 1_555
C7 N6 1_555 1_555
C9 N7 1_555 1_555
C10 N8 1_555 1_555
C11 N7 1_555 1_555
C12 N8 1_555 1_555
C13 N9 1_555 1_555
C13 N10 1_555 1_555
C15 N11B 1_555 1_555
C16 N12B 1_555 1_555
C17 N2 1_555 1_555
C18 N1 1_555 1_555
C21 N14 1_555 1_555
C22 N13 1_555 1_555
C23 N13 1_555 1_555
N12 C14B 1_555 1_555
C3B N3B 1_555 1_555
C4B N4B 1_555 1_555
C5B N3B 1_555 1_555
C6B N4B 1_555 1_555
C7B N5B 1_555 1_555
C7B N6B 1_555 1_555
C9B N7B 1_555 1_555
C10B N8B 1_555 1_555
C11B N7B 1_555 1_555
C12B N8B 1_555 1_555
C13B C14B 1_555 1_555
C13B N9B 1_555 1_555
C13B N10B 1_555 1_555
C15B N9B 1_555 1_555
C16B N10B 1_555 1_555
C17B N2B 1_555 1_555
C17B N11B 1_555 1_555
C18B N1B 1_555 1_555
C18B N12B 1_555 1_555
C21B N14B 1_555 1_555
C22B N13B 1_555 1_555
C23B N13B 1_555 1_555
C24B C25B 1_555 1_555

#END
