
#######################################################################
#
#                 Cambridge Crystallographic Data Centre
#                                CCDC 
#
#######################################################################
#
# If this CIF has been generated from an entry in the Cambridge 
# Structural Database, then it will include bibliographic, chemical, 
# crystal, experimental, refinement or atomic coordinate data resulting 
# from the CCDC's data processing and validation procedures.
#
#######################################################################

data_YOGLUD
_chemical_formula_moiety         'C76 H22'
_chemical_name_systematic        
1-(3,5-di-t-butylhepta-3,4-diene-1,6-diyn-1-yl)-2-(methyl)-C60fullerene
_symmetry_cell_setting           monoclinic
_symmetry_space_group_name_H-M   'P 21'
_symmetry_Int_Tables_number      4
_space_group_name_Hall           'P 2yb'
loop_
_symmetry_equiv_pos_site_id
_symmetry_equiv_pos_as_xyz
1 x,y,z
2 -x,1/2+y,-z
_cell_length_a                   9.8502(4)
_cell_length_b                   22.5300(11)
_cell_length_c                   18.8662(9)
_cell_angle_alpha                90
_cell_angle_beta                 92.376(3)
_cell_angle_gamma                90
_cell_volume                     4183.28
_exptl_crystal_colour            'metallic black'
_exptl_crystal_description       needle
_cell_formula_units_Z            4
_exptl_crystal_recrystallization_method dichloromethane/methanol
loop_
_atom_site_label
_atom_site_type_symbol
_atom_site_fract_x
_atom_site_fract_y
_atom_site_fract_z
C1 C 0.4782(6) 0.7062(3) 0.6149(4)
C2 C 0.4998(6) 0.6770(3) 0.5529(4)
C3 C 0.6302(6) 0.6482(3) 0.5424(4)
C4 C 0.6050(6) 0.5933(3) 0.5037(3)
C5 C 0.6836(6) 0.5431(3) 0.5191(3)
C6 C 0.6201(6) 0.4856(3) 0.5229(3)
C7 C 0.6860(6) 0.4534(3) 0.5802(3)
C8 C 0.6118(6) 0.4171(3) 0.6244(3)
C9 C 0.6391(5) 0.4151(3) 0.6987(3)
C10 C 0.5117(5) 0.3939(3) 0.7369(3)
C11 C 0.5173(6) 0.3294(3) 0.7474(4)
C12 C 0.5098(5) 0.2764(3) 0.7556(3)
C13 C 0.4923(5) 0.2146(3) 0.7695(3)
C14 C 0.4612(5) 0.2008(3) 0.8350(3)
C15 C 0.4352(6) 0.1902(3) 0.9009(3)
C16 C 0.5437(5) 0.1783(3) 0.9595(3)
C17 C 0.5281(6) 0.1140(3) 0.9838(3)
H1 H 0.5372 0.0873 0.9432
H2 H 0.4384 0.1086 1.0034
H3 H 0.5987 0.1048 1.0202
C18 C 0.1828(6) 0.1874(3) 0.9430(4)
H4 H 0.0926 0.1863 0.9590
C19 C 0.2940(6) 0.1887(3) 0.9232(3)
C20 C 0.6840(6) 0.1869(3) 0.9291(3)
H5 H 0.6942 0.2283 0.9143
H6 H 0.6931 0.1608 0.8880
H7 H 0.7545 0.1772 0.9654
C21 C 0.5247(6) 0.2224(3) 1.0191(3)
H8 H 0.4366 0.2155 1.0400
H9 H 0.5277 0.2628 1.0002
H10 H 0.5975 0.2172 1.0555
C22 C 0.5027(5) 0.1705(3) 0.7095(3)
C23 C 0.6477(6) 0.1731(3) 0.6816(3)
H11 H 0.7136 0.1627 0.7199
H12 H 0.6663 0.2133 0.6647
H13 H 0.6552 0.1449 0.6423
C24 C 0.4737(7) 0.1084(3) 0.7353(4)
H14 H 0.3822 0.1070 0.7538
H15 H 0.5405 0.0976 0.7730
H16 H 0.4794 0.0804 0.6958
C25 C 0.4656(6) 0.4116(3) 0.6103(3)
C26 C 0.4033(5) 0.4055(3) 0.6767(3)
C27 C 0.2804(5) 0.4323(3) 0.6874(3)
C28 C 0.2575(5) 0.4637(3) 0.7541(3)
C29 C 0.1766(5) 0.5156(3) 0.7362(4)
C30 C 0.1499(5) 0.5168(3) 0.6609(3)
C31 C 0.2143(6) 0.4652(3) 0.6306(3)
C32 C 0.2715(6) 0.4698(3) 0.5646(3)
C33 C 0.2698(6) 0.5258(3) 0.5267(3)
C34 C 0.3976(6) 0.5326(3) 0.4927(3)
C35 C 0.4601(6) 0.5873(3) 0.4901(3)
C36 C 0.3487(6) 0.7000(3) 0.6492(4)
C37 C 0.2488(6) 0.6633(3) 0.6180(4)
C38 C 0.1703(5) 0.6249(3) 0.6633(4)
C39 C 0.1466(5) 0.5699(3) 0.6244(4)
C40 C 0.2080(6) 0.5752(3) 0.5558(4)
C41 C 0.2718(6) 0.6331(3) 0.5525(4)
C42 C 0.3954(6) 0.6386(3) 0.5199(4)
C43 C 0.1941(6) 0.6243(3) 0.7353(4)
C44 C 0.1968(5) 0.5686(3) 0.7731(3)
C45 C 0.3034(6) 0.5713(3) 0.8277(3)
C46 C 0.3672(6) 0.6293(3) 0.8240(4)
C47 C 0.3004(6) 0.6624(3) 0.7673(4)
C48 C 0.3746(6) 0.6987(3) 0.7244(4)
C49 C 0.5221(6) 0.7048(3) 0.7379(4)
C50 C 0.5833(6) 0.7097(3) 0.6703(4)
C51 C 0.7091(6) 0.6818(3) 0.6604(4)
C52 C 0.7308(6) 0.6513(3) 0.5950(4)
C53 C 0.8136(6) 0.5988(3) 0.6122(4)
C54 C 0.8392(5) 0.5976(3) 0.6882(4)
C55 C 0.8397(5) 0.5449(3) 0.7239(3)
C56 C 0.7768(5) 0.5398(3) 0.7917(3)
C57 C 0.7176(6) 0.5893(3) 0.8207(3)
C58 C 0.7157(6) 0.6451(3) 0.7827(4)
C59 C 0.5855(6) 0.6737(3) 0.7930(3)
C60 C 0.5076(6) 0.6346(3) 0.8370(4)
C61 C 0.5885(6) 0.5828(3) 0.8534(3)
C62 C 0.5278(6) 0.5270(3) 0.8564(3)
C63 C 0.3823(6) 0.5210(3) 0.8430(3)
C64 C 0.3556(5) 0.4664(3) 0.8070(3)
C65 C 0.4862(5) 0.4274(3) 0.8098(3)
C66 C 0.4810(6) 0.3843(3) 0.8731(3)
H17 H 0.5662 0.3619 0.8774
H18 H 0.4049 0.3567 0.8654
H19 H 0.4687 0.4069 0.9168
C67 C 0.5913(5) 0.4762(3) 0.8279(3)
C68 C 0.7138(5) 0.4822(3) 0.7953(3)
C69 C 0.7373(5) 0.4511(3) 0.7295(3)
C70 C 0.8148(5) 0.4900(3) 0.6852(4)
C71 C 0.7913(5) 0.4906(3) 0.6134(4)
C72 C 0.7904(6) 0.5465(3) 0.5754(3)
C73 C 0.4795(6) 0.4800(3) 0.5097(3)
C74 C 0.4019(6) 0.4418(3) 0.5545(3)
C75 C 0.7741(6) 0.6497(3) 0.7181(4)
C76 C 0.3998(6) 0.1887(3) 0.6507(4)
H20 H 0.4215 0.2286 0.6340
H21 H 0.3083 0.1886 0.6693
H22 H 0.4036 0.1605 0.6113
C77 C 1.3297(6) 0.7957(3) 0.4779(4)
H23 H 1.4216 0.8033 0.4922
C78 C 1.2161(6) 0.7864(3) 0.4603(3)
C79 C 1.0738(6) 0.7768(3) 0.4380(3)
C80 C 1.0457(5) 0.7530(3) 0.3764(3)
C81 C 1.0146(5) 0.7344(3) 0.3116(3)
C82 C 1.0002(5) 0.6722(3) 0.2970(3)
C83 C 0.9920(6) 0.6205(3) 0.2802(3)
C84 C 0.9870(5) 0.5602(3) 0.2497(3)
C85 C 0.9200(6) 0.5121(3) 0.3000(3)
C86 C 0.7941(5) 0.4810(3) 0.2641(3)
C87 C 0.7950(6) 0.4191(3) 0.2814(3)
C88 C 0.7253(6) 0.3782(3) 0.2389(3)
C89 C 0.7859(6) 0.3209(3) 0.2249(4)
C90 C 0.7518(5) 0.3052(3) 0.1516(4)
C91 C 0.8470(5) 0.2766(3) 0.1110(3)
C92 C 0.8635(5) 0.2942(3) 0.0391(3)
C93 C 1.0076(6) 0.2905(3) 0.0251(3)
C94 C 0.9131(6) 0.3062(3) 0.2546(3)
C95 C 0.9856(6) 0.3490(3) 0.2993(4)
C96 C 1.1275(6) 0.3443(3) 0.2860(4)
C97 C 1.2052(6) 0.3960(3) 0.2867(3)
C98 C 1.3054(5) 0.4049(3) 0.2328(4)
C99 C 1.3215(5) 0.3615(3) 0.1812(4)
C100 C 1.3388(5) 0.3795(3) 0.1083(4)
C101 C 1.3393(5) 0.4386(3) 0.0892(4)
C102 C 1.2690(6) 0.4584(3) 0.0249(3)
C103 C 1.2003(6) 0.4179(3) -0.0179(3)
C104 C 1.1995(6) 0.3562(3) 0.0010(4)
C105 C 1.2667(6) 0.3365(3) 0.0627(4)
C106 C 1.2066(6) 0.2934(3) 0.1078(4)
C107 C 1.0778(6) 0.2703(3) 0.0887(4)
C108 C 0.9788(6) 0.2614(3) 0.1429(4)
C109 C 1.0111(6) 0.2755(3) 0.2126(3)
C110 C 1.1445(6) 0.2998(3) 0.2327(4)
C111 C 1.2398(6) 0.3084(3) 0.1805(4)
C112 C 1.0650(6) 0.3323(3) -0.0185(3)
C113 C 0.9850(6) 0.3797(3) -0.0498(3)
C114 C 1.0671(6) 0.4330(3) -0.0499(3)
C115 C 1.0105(6) 0.4875(3) -0.0358(3)
C116 C 0.8655(6) 0.4917(3) -0.0215(3)
C117 C 0.7871(6) 0.4401(3) -0.0217(3)
C118 C 0.8466(6) 0.3834(3) -0.0358(3)
C119 C 0.7856(6) 0.3403(3) 0.0089(3)
C120 C 0.6866(5) 0.3703(3) 0.0513(4)
C121 C 0.6704(5) 0.3531(3) 0.1206(4)
C122 C 0.6550(5) 0.3979(3) 0.1750(3)
C123 C 1.0089(6) 0.4571(3) 0.3150(3)
C124 C 0.9289(6) 0.4041(3) 0.3126(3)
C125 C 1.1456(6) 0.4532(3) 0.3016(3)
C126 C 1.2072(5) 0.4977(3) 0.2558(3)
C127 C 1.1324(5) 0.5430(3) 0.2262(3)
C128 C 0.9154(6) 0.5666(3) 0.1757(3)
C129 C 0.7901(5) 0.5436(3) 0.1564(3)
C130 C 0.7574(5) 0.5284(3) 0.0848(3)
C131 C 0.6745(5) 0.4749(3) 0.0848(3)
C132 C 0.6875(5) 0.4323(3) 0.0326(3)
C133 C 0.6590(5) 0.4572(3) 0.1574(3)
C134 C 0.7296(5) 0.4994(3) 0.2036(3)
C135 C 0.8494(6) 0.5361(3) 0.0322(3)
C136 C 0.9835(6) 0.5598(3) 0.0520(3)
C137 C 1.0133(6) 0.5732(3) 0.1221(3)
C138 C 1.1460(5) 0.5587(3) 0.1545(3)
C139 C 1.2415(5) 0.5304(3) 0.1130(3)
C140 C 1.2087(6) 0.5154(3) 0.0399(3)
C141 C 1.0808(6) 0.5303(3) 0.0095(3)
C142 C 1.3234(5) 0.4837(3) 0.1438(3)
C143 C 1.3064(5) 0.4672(3) 0.2134(3)
C144 C 0.9669(6) 0.7957(3) 0.4901(3)
C145 C 0.9847(6) 0.7580(3) 0.5569(3)
H24 H 1.0729 0.7668 0.5806
H25 H 0.9808 0.7159 0.5441
H26 H 0.9119 0.7671 0.5891
C146 C 0.9960(5) 0.7770(3) 0.2481(3)
C147 C 1.0893(6) 0.7571(3) 0.1900(4)
H27 H 1.0678 0.7161 0.1764
H28 H 1.1841 0.7595 0.2077
H29 H 1.0760 0.7830 0.1486
C148 C 0.8473(5) 0.7748(3) 0.2209(3)
H30 H 0.7887 0.7887 0.2583
H31 H 0.8229 0.7340 0.2080
H32 H 0.8351 0.8005 0.1792
C149 C 0.8818(6) 0.5393(3) 0.3710(3)
H33 H 0.8194 0.5727 0.3622
H34 H 0.9641 0.5536 0.3966
H35 H 0.8375 0.5092 0.3996
C150 C 1.0313(6) 0.8399(3) 0.2708(4)
H36 H 1.1267 0.8416 0.2875
H37 H 0.9731 0.8519 0.3092
H38 H 1.0167 0.8668 0.2304
C151 C 0.9851(7) 0.8615(3) 0.5074(4)
H39 H 0.9743 0.8848 0.4637
H40 H 1.0760 0.8681 0.5290
H41 H 0.9166 0.8738 0.5406
C152 C 0.8232(6) 0.7851(4) 0.4567(4)
H42 H 0.8139 0.7434 0.4427
H43 H 0.8093 0.8105 0.4149
H44 H 0.7552 0.7947 0.4915
loop_
_geom_bond_atom_site_label_1
_geom_bond_atom_site_label_2
_geom_bond_site_symmetry_1
_geom_bond_site_symmetry_2
C1 C2 1_555 1_555
C2 C3 1_555 1_555
C3 C4 1_555 1_555
C4 C5 1_555 1_555
C5 C6 1_555 1_555
C6 C7 1_555 1_555
C7 C8 1_555 1_555
C8 C9 1_555 1_555
C9 C10 1_555 1_555
C10 C11 1_555 1_555
C11 C12 1_555 1_555
C12 C13 1_555 1_555
C13 C14 1_555 1_555
C14 C15 1_555 1_555
C15 C16 1_555 1_555
C16 C17 1_555 1_555
C17 H1 1_555 1_555
H2 C17 1_555 1_555
H3 C17 1_555 1_555
C18 H4 1_555 1_555
C19 C15 1_555 1_555
C20 C16 1_555 1_555
H5 C20 1_555 1_555
H6 C20 1_555 1_555
H7 C20 1_555 1_555
C21 C16 1_555 1_555
H8 C21 1_555 1_555
H9 C21 1_555 1_555
H10 C21 1_555 1_555
C22 C13 1_555 1_555
C23 C22 1_555 1_555
H11 C23 1_555 1_555
H12 C23 1_555 1_555
H13 C23 1_555 1_555
C24 C22 1_555 1_555
H14 C24 1_555 1_555
H15 C24 1_555 1_555
H16 C24 1_555 1_555
C25 C8 1_555 1_555
C26 C10 1_555 1_555
C27 C26 1_555 1_555
C28 C27 1_555 1_555
C29 C28 1_555 1_555
C30 C29 1_555 1_555
C31 C27 1_555 1_555
C32 C31 1_555 1_555
C33 C32 1_555 1_555
C34 C33 1_555 1_555
C35 C4 1_555 1_555
C36 C1 1_555 1_555
C37 C36 1_555 1_555
C38 C37 1_555 1_555
C39 C30 1_555 1_555
C40 C33 1_555 1_555
C41 C37 1_555 1_555
C42 C2 1_555 1_555
C43 C38 1_555 1_555
C44 C29 1_555 1_555
C45 C44 1_555 1_555
C46 C45 1_555 1_555
C47 C43 1_555 1_555
C48 C36 1_555 1_555
C49 C48 1_555 1_555
C50 C1 1_555 1_555
C51 C50 1_555 1_555
C52 C3 1_555 1_555
C53 C52 1_555 1_555
C54 C53 1_555 1_555
C55 C54 1_555 1_555
C56 C55 1_555 1_555
C57 C56 1_555 1_555
C58 C57 1_555 1_555
C59 C49 1_555 1_555
C60 C46 1_555 1_555
C61 C57 1_555 1_555
C62 C61 1_555 1_555
C63 C45 1_555 1_555
C64 C28 1_555 1_555
C65 C10 1_555 1_555
C66 C65 1_555 1_555
H17 C66 1_555 1_555
H18 C66 1_555 1_555
H19 C66 1_555 1_555
C67 C62 1_555 1_555
C68 C56 1_555 1_555
C69 C9 1_555 1_555
C70 C55 1_555 1_555
C71 C7 1_555 1_555
C72 C5 1_555 1_555
C73 C6 1_555 1_555
C74 C25 1_555 1_555
C75 C51 1_555 1_555
C76 C22 1_555 1_555
H20 C76 1_555 1_555
H21 C76 1_555 1_555
H22 C76 1_555 1_555
C77 H23 1_555 1_555
C78 C77 1_555 1_555
C79 C78 1_555 1_555
C80 C79 1_555 1_555
C81 C80 1_555 1_555
C82 C81 1_555 1_555
C83 C82 1_555 1_555
C84 C83 1_555 1_555
C85 C84 1_555 1_555
C86 C85 1_555 1_555
C87 C86 1_555 1_555
C88 C87 1_555 1_555
C89 C88 1_555 1_555
C90 C89 1_555 1_555
C91 C90 1_555 1_555
C92 C91 1_555 1_555
C93 C92 1_555 1_555
C94 C89 1_555 1_555
C95 C94 1_555 1_555
C96 C95 1_555 1_555
C97 C96 1_555 1_555
C98 C97 1_555 1_555
C99 C98 1_555 1_555
C100 C99 1_555 1_555
C101 C100 1_555 1_555
C102 C101 1_555 1_555
C103 C102 1_555 1_555
C104 C103 1_555 1_555
C105 C100 1_555 1_555
C106 C105 1_555 1_555
C107 C93 1_555 1_555
C108 C91 1_555 1_555
C109 C94 1_555 1_555
C110 C96 1_555 1_555
C111 C99 1_555 1_555
C112 C93 1_555 1_555
C113 C112 1_555 1_555
C114 C103 1_555 1_555
C115 C114 1_555 1_555
C116 C115 1_555 1_555
C117 C116 1_555 1_555
C118 C113 1_555 1_555
C119 C92 1_555 1_555
C120 C119 1_555 1_555
C121 C90 1_555 1_555
C122 C88 1_555 1_555
C123 C85 1_555 1_555
C124 C87 1_555 1_555
C125 C97 1_555 1_555
C126 C125 1_555 1_555
C127 C84 1_555 1_555
C128 C84 1_555 1_555
C129 C128 1_555 1_555
C130 C129 1_555 1_555
C131 C130 1_555 1_555
C132 C117 1_555 1_555
C133 C122 1_555 1_555
C134 C86 1_555 1_555
C135 C116 1_555 1_555
C136 C135 1_555 1_555
C137 C128 1_555 1_555
C138 C127 1_555 1_555
C139 C138 1_555 1_555
C140 C102 1_555 1_555
C141 C115 1_555 1_555
C142 C101 1_555 1_555
C143 C98 1_555 1_555
C144 C79 1_555 1_555
C145 C144 1_555 1_555
H24 C145 1_555 1_555
H25 C145 1_555 1_555
H26 C145 1_555 1_555
C146 C81 1_555 1_555
C147 C146 1_555 1_555
H27 C147 1_555 1_555
H28 C147 1_555 1_555
H29 C147 1_555 1_555
C148 C146 1_555 1_555
H30 C148 1_555 1_555
H31 C148 1_555 1_555
H32 C148 1_555 1_555
C149 C85 1_555 1_555
H33 C149 1_555 1_555
H34 C149 1_555 1_555
H35 C149 1_555 1_555
C150 C146 1_555 1_555
H36 C150 1_555 1_555
H37 C150 1_555 1_555
H38 C150 1_555 1_555
C151 C144 1_555 1_555
H39 C151 1_555 1_555
H40 C151 1_555 1_555
H41 C151 1_555 1_555
C152 C144 1_555 1_555
H42 C152 1_555 1_555
H43 C152 1_555 1_555
H44 C152 1_555 1_555
C18 C19 1_555 1_555
C25 C26 1_555 1_555
C30 C31 1_555 1_555
C32 C74 1_555 1_555
C34 C35 1_555 1_555
C34 C73 1_555 1_555
C35 C42 1_555 1_555
C38 C39 1_555 1_555
C39 C40 1_555 1_555
C40 C41 1_555 1_555
C41 C42 1_555 1_555
C43 C44 1_555 1_555
C46 C47 1_555 1_555
C47 C48 1_555 1_555
C49 C50 1_555 1_555
C51 C52 1_555 1_555
C53 C72 1_555 1_555
C54 C75 1_555 1_555
C58 C59 1_555 1_555
C58 C75 1_555 1_555
C59 C60 1_555 1_555
C60 C61 1_555 1_555
C62 C63 1_555 1_555
C63 C64 1_555 1_555
C64 C65 1_555 1_555
C65 C67 1_555 1_555
C67 C68 1_555 1_555
C68 C69 1_555 1_555
C69 C70 1_555 1_555
C70 C71 1_555 1_555
C71 C72 1_555 1_555
C73 C74 1_555 1_555
C95 C124 1_555 1_555
C104 C105 1_555 1_555
C104 C112 1_555 1_555
C106 C107 1_555 1_555
C106 C111 1_555 1_555
C107 C108 1_555 1_555
C108 C109 1_555 1_555
C109 C110 1_555 1_555
C110 C111 1_555 1_555
C113 C114 1_555 1_555
C117 C118 1_555 1_555
C118 C119 1_555 1_555
C120 C121 1_555 1_555
C120 C132 1_555 1_555
C121 C122 1_555 1_555
C123 C124 1_555 1_555
C123 C125 1_555 1_555
C126 C127 1_555 1_555
C126 C143 1_555 1_555
C129 C134 1_555 1_555
C130 C135 1_555 1_555
C131 C132 1_555 1_555
C131 C133 1_555 1_555
C133 C134 1_555 1_555
C136 C137 1_555 1_555
C136 C141 1_555 1_555
C137 C138 1_555 1_555
C139 C140 1_555 1_555
C139 C142 1_555 1_555
C140 C141 1_555 1_555
C142 C143 1_555 1_555

#END
