
#######################################################################
#
#                 Cambridge Crystallographic Data Centre
#                                CCDC 
#
#######################################################################
#
# If this CIF has been generated from an entry in the Cambridge 
# Structural Database, then it will include bibliographic, chemical, 
# crystal, experimental, refinement or atomic coordinate data resulting 
# from the CCDC's data processing and validation procedures.
#
#######################################################################

data_YOGMAK
_chemical_formula_moiety         'C91 H40,C1 H2 Cl2'
_chemical_name_systematic        
'1-(3,5,10,12-tetra-t-butyltetradeca-3,4,10,11-tetraene-1,6,8,13-tetrayn-1-yl)-2-methyl-C60fullerene dichloromethane solvate'
_symmetry_cell_setting           monoclinic
_symmetry_space_group_name_H-M   'P 21'
_symmetry_Int_Tables_number      4
_space_group_name_Hall           'P 2yb'
loop_
_symmetry_equiv_pos_site_id
_symmetry_equiv_pos_as_xyz
1 x,y,z
2 -x,1/2+y,-z
_cell_length_a                   10.0034(12)
_cell_length_b                   9.7860(11)
_cell_length_c                   29.935(4)
_cell_angle_alpha                90
_cell_angle_beta                 99.511(8)
_cell_angle_gamma                90
_cell_volume                     2890.15
_exptl_crystal_colour            'dull brown'
_exptl_crystal_description       plate
_cell_formula_units_Z            2
_exptl_crystal_recrystallization_method Dichloromethane/methanol
loop_
_atom_site_label
_atom_site_type_symbol
_atom_site_fract_x
_atom_site_fract_y
_atom_site_fract_z
C1 C 1.063(2) 0.498(2) 0.6566(7)
H1 H 1.0450 0.5117 0.6875
H2 H 1.1220 0.4185 0.6559
H3 H 0.9770 0.4825 0.6362
C2 C 1.134(2) 0.628(2) 0.6410(6)
C3 C 1.042(2) 0.753(2) 0.6475(6)
C4 C 1.0099(18) 0.841(2) 0.6124(7)
C5 C 0.989(2) 0.923(2) 0.5785(7)
C6 C 0.873(2) 0.902(2) 0.5445(7)
C7 C 0.778(2) 0.893(2) 0.5137(7)
C8 C 0.674(2) 0.883(2) 0.4774(7)
C9 C 0.589(2) 0.887(2) 0.4443(7)
C10 C 0.488(2) 0.903(2) 0.4030(7)
C11 C 0.4864(16) 0.808(3) 0.3718(6)
C12 C 0.4761(19) 0.712(2) 0.3409(6)
C13 C 0.551(2) 0.716(2) 0.3047(7)
C14 C 0.608(2) 0.708(2) 0.2717(7)
C15 C 0.670(2) 0.715(2) 0.2300(7)
C16 C 0.570(2) 0.794(3) 0.1949(8)
C17 C 0.603(2) 0.930(3) 0.1956(7)
C18 C 0.559(2) 1.009(2) 0.1574(7)
C19 C 0.646(2) 1.117(2) 0.1442(7)
C20 C 0.625(2) 1.115(2) 0.0939(7)
C21 C 0.738(2) 1.128(3) 0.0710(8)
C22 C 0.753(2) 1.053(2) 0.0328(7)
C23 C 0.894(2) 1.020(2) 0.0349(7)
C24 C 0.927(2) 0.889(3) 0.0202(7)
C25 C 1.152(3) 0.617(3) 0.5935(7)
H4 H 1.1993 0.5318 0.5891
H5 H 1.2047 0.6949 0.5857
H6 H 1.0626 0.6169 0.5740
C26 C 0.996(2) 0.778(2) 0.6889(7)
C27 C 0.960(2) 0.792(2) 0.7244(7)
H7 H 0.9301 0.8032 0.7528
C28 C 1.085(2) 1.051(3) 0.5738(7)
C29 C 1.153(3) 1.018(3) 0.5328(8)
H8 H 1.2132 0.9387 0.5398
H9 H 1.2063 1.0967 0.5258
H10 H 1.0836 0.9967 0.5067
C30 C 1.000(3) 1.178(3) 0.5605(8)
H11 H 0.9348 1.1587 0.5330
H12 H 1.0593 1.2531 0.5548
H13 H 0.9513 1.2025 0.5852
C31 C 0.399(2) 1.026(3) 0.4011(7)
C32 C 0.477(2) 1.153(2) 0.4173(7)
H14 H 0.5399 1.1322 0.4452
H15 H 0.4144 1.2248 0.4231
H16 H 0.5287 1.1834 0.3940
C33 C 0.325(2) 1.044(3) 0.3512(7)
H17 H 0.3918 1.0623 0.3315
H18 H 0.2615 1.1215 0.3497
H19 H 0.2744 0.9609 0.3413
C34 C 0.372(2) 0.596(2) 0.3430(7)
C35 C 0.262(3) 0.612(3) 0.3024(10)
H20 H 0.1894 0.6702 0.3103
H21 H 0.2242 0.5216 0.2931
H22 H 0.2993 0.6533 0.2774
C36 C 0.325(3) 0.592(3) 0.3868(9)
H23 H 0.4021 0.5767 0.4110
H24 H 0.2593 0.5175 0.3868
H25 H 0.2813 0.6791 0.3920
C37 C 0.716(2) 0.565(2) 0.2134(7)
C38 C 0.864(2) 0.560(2) 0.2074(7)
C39 C 0.962(2) 0.657(2) 0.2227(7)
C40 C 0.924(2) 0.792(3) 0.2379(6)
C41 C 0.793(2) 0.824(3) 0.2376(7)
C42 C 0.741(2) 0.950(3) 0.2209(8)
C43 C 0.826(2) 1.054(2) 0.2084(7)
C44 C 0.963(2) 1.022(3) 0.2085(7)
C45 C 1.009(2) 1.080(3) 0.1685(7)
C46 C 1.097(2) 1.016(3) 0.1468(8)
C47 C 1.149(2) 0.879(3) 0.1597(8)
C48 C 1.159(2) 0.801(3) 0.1227(8)
C49 C 1.114(2) 0.877(3) 0.0833(8)
C50 C 1.074(2) 1.015(3) 0.0980(8)
C51 C 0.969(2) 1.084(2) 0.0743(7)
C52 C 0.654(2) 0.956(3) 0.0180(8)
C53 C 0.535(2) 0.940(3) 0.0421(8)
C54 C 0.527(2) 1.007(2) 0.0787(7)
C55 C 0.487(2) 0.951(3) 0.1181(8)
C56 C 0.497(2) 0.731(3) 0.1579(7)
C57 C 0.536(2) 0.598(2) 0.1433(7)
C58 C 0.516(2) 0.601(2) 0.0938(8)
C59 C 0.464(2) 0.730(3) 0.0798(7)
C60 C 0.457(2) 0.811(3) 0.1186(8)
C61 C 0.506(2) 0.790(3) 0.0407(8)
C62 C 0.600(2) 0.720(3) 0.0175(7)
C63 C 0.651(2) 0.596(3) 0.0308(7)
C64 C 0.792(2) 0.564(2) 0.0318(7)
C65 C 0.879(2) 0.659(3) 0.0184(7)
C66 C 0.827(2) 0.791(3) 0.0040(7)
C67 C 0.692(2) 0.819(3) 0.0028(6)
C68 C 1.047(2) 0.825(2) 0.0438(8)
C69 C 1.014(2) 0.673(2) 0.0447(7)
C70 C 1.058(2) 0.588(3) 0.0828(8)
C71 C 0.963(2) 0.499(2) 0.0968(7)
C72 C 0.838(2) 0.477(2) 0.0731(7)
C73 C 0.724(2) 0.459(3) 0.0959(8)
C74 C 0.611(2) 0.529(3) 0.0708(7)
C75 C 0.736(2) 0.461(3) 0.1421(8)
C76 C 0.649(2) 0.528(2) 0.1672(7)
C77 C 0.872(2) 0.478(2) 0.1667(7)
C78 C 0.984(2) 0.497(2) 0.1455(7)
C79 C 1.089(2) 0.593(3) 0.1620(8)
C80 C 1.133(2) 0.657(3) 0.1212(8)
C81 C 0.869(2) 1.149(2) 0.0972(7)
C82 C 0.896(2) 1.151(2) 0.1439(7)
C83 C 0.776(2) 1.131(3) 0.1687(7)
C84 C 1.107(2) 0.812(3) 0.1999(8)
C85 C 1.015(2) 0.891(3) 0.2244(7)
C86 C 0.692(2) 0.451(2) 0.2475(7)
H26 H 0.7358 0.4771 0.2780
H27 H 0.7308 0.3649 0.2389
H28 H 0.5946 0.4398 0.2469
C87 C 0.437(3) 0.458(3) 0.3351(8)
H29 H 0.3765 0.3837 0.3406
H30 H 0.5237 0.4490 0.3558
H31 H 0.4538 0.4530 0.3037
C88 C 1.179(3) 1.076(3) 0.6181(7)
H32 H 1.1248 1.0883 0.6423
H33 H 1.2320 1.1590 0.6154
H34 H 1.2397 0.9981 0.6251
C89 C 1.270(2) 0.648(3) 0.6741(7)
H35 H 1.2515 0.6797 0.7035
H36 H 1.3259 0.7151 0.6615
H37 H 1.3185 0.5602 0.6781
C90 C 0.292(2) 0.994(3) 0.4327(7)
H38 H 0.2512 0.9043 0.4249
H39 H 0.2208 1.0641 0.4284
H40 H 0.3368 0.9941 0.4643
C91 C 1.077(2) 0.672(3) 0.1996(7)
Cl1 Cl 0.3042(7) 0.3017(7) 0.11877(19)
C92 C 0.364(3) 0.3406(15) 0.1722(2)
H41 H 0.3256 0.4315 0.1773
H42 H 0.4624 0.3545 0.1736
Cl2 Cl 0.3480(10) 0.2488(10) 0.2176(2)
C93? C 0.316(8) 0.2006(11) 0.1637(2)
H43? H 0.2293 0.1498 0.1603
H44? H 0.3865 0.1324 0.1602
loop_
_geom_bond_atom_site_label_1
_geom_bond_atom_site_label_2
_geom_bond_site_symmetry_1
_geom_bond_site_symmetry_2
C1 H1 1_555 1_555
H2 C1 1_555 1_555
H3 C1 1_555 1_555
C2 C1 1_555 1_555
C3 C2 1_555 1_555
C4 C3 1_555 1_555
C5 C4 1_555 1_555
C6 C5 1_555 1_555
C7 C6 1_555 1_555
C8 C7 1_555 1_555
C9 C8 1_555 1_555
C10 C9 1_555 1_555
C11 C10 1_555 1_555
C12 C11 1_555 1_555
C13 C12 1_555 1_555
C14 C13 1_555 1_555
C15 C14 1_555 1_555
C16 C15 1_555 1_555
C17 C16 1_555 1_555
C18 C17 1_555 1_555
C19 C18 1_555 1_555
C20 C19 1_555 1_555
C21 C20 1_555 1_555
C22 C21 1_555 1_555
C23 C22 1_555 1_555
C24 C23 1_555 1_555
C25 C2 1_555 1_555
H4 C25 1_555 1_555
H5 C25 1_555 1_555
H6 C25 1_555 1_555
C26 C3 1_555 1_555
C27 C26 1_555 1_555
H7 C27 1_555 1_555
C28 C5 1_555 1_555
C29 C28 1_555 1_555
H8 C29 1_555 1_555
H9 C29 1_555 1_555
H10 C29 1_555 1_555
C30 C28 1_555 1_555
H11 C30 1_555 1_555
H12 C30 1_555 1_555
H13 C30 1_555 1_555
C31 C10 1_555 1_555
C32 C31 1_555 1_555
H14 C32 1_555 1_555
H15 C32 1_555 1_555
H16 C32 1_555 1_555
C33 C31 1_555 1_555
H17 C33 1_555 1_555
H18 C33 1_555 1_555
H19 C33 1_555 1_555
C34 C12 1_555 1_555
C35 C34 1_555 1_555
H20 C35 1_555 1_555
H21 C35 1_555 1_555
H22 C35 1_555 1_555
C36 C34 1_555 1_555
H23 C36 1_555 1_555
H24 C36 1_555 1_555
H25 C36 1_555 1_555
C37 C15 1_555 1_555
C38 C37 1_555 1_555
C39 C38 1_555 1_555
C40 C39 1_555 1_555
C41 C15 1_555 1_555
C42 C17 1_555 1_555
C43 C42 1_555 1_555
C44 C43 1_555 1_555
C45 C44 1_555 1_555
C46 C45 1_555 1_555
C47 C46 1_555 1_555
C48 C47 1_555 1_555
C49 C48 1_555 1_555
C50 C46 1_555 1_555
C51 C23 1_555 1_555
C52 C22 1_555 1_555
C53 C52 1_555 1_555
C54 C20 1_555 1_555
C55 C18 1_555 1_555
C56 C16 1_555 1_555
C57 C56 1_555 1_555
C58 C57 1_555 1_555
C59 C58 1_555 1_555
C60 C55 1_555 1_555
C61 C53 1_555 1_555
C62 C61 1_555 1_555
C63 C62 1_555 1_555
C64 C63 1_555 1_555
C65 C64 1_555 1_555
C66 C24 1_555 1_555
C67 C52 1_555 1_555
C68 C24 1_555 1_555
C69 C65 1_555 1_555
C70 C69 1_555 1_555
C71 C70 1_555 1_555
C72 C64 1_555 1_555
C73 C72 1_555 1_555
C74 C58 1_555 1_555
C75 C73 1_555 1_555
C76 C37 1_555 1_555
C77 C38 1_555 1_555
C78 C71 1_555 1_555
C79 C78 1_555 1_555
C80 C48 1_555 1_555
C81 C21 1_555 1_555
C82 C45 1_555 1_555
C83 C19 1_555 1_555
C84 C47 1_555 1_555
C85 C40 1_555 1_555
C86 C37 1_555 1_555
H26 C86 1_555 1_555
H27 C86 1_555 1_555
H28 C86 1_555 1_555
C87 C34 1_555 1_555
H29 C87 1_555 1_555
H30 C87 1_555 1_555
H31 C87 1_555 1_555
C88 C28 1_555 1_555
H32 C88 1_555 1_555
H33 C88 1_555 1_555
H34 C88 1_555 1_555
C89 C2 1_555 1_555
H35 C89 1_555 1_555
H36 C89 1_555 1_555
H37 C89 1_555 1_555
C90 C31 1_555 1_555
H38 C90 1_555 1_555
H39 C90 1_555 1_555
H40 C90 1_555 1_555
C91 C39 1_555 1_555
Cl1 C92 1_555 1_555
C92 H41 1_555 1_555
H42 C92 1_555 1_555
Cl2 C92 1_555 1_555
C40 C41 1_555 1_555
C41 C42 1_555 1_555
C43 C83 1_555 1_555
C44 C85 1_555 1_555
C49 C50 1_555 1_555
C49 C68 1_555 1_555
C50 C51 1_555 1_555
C51 C81 1_555 1_555
C53 C54 1_555 1_555
C54 C55 1_555 1_555
C56 C60 1_555 1_555
C57 C76 1_555 1_555
C59 C60 1_555 1_555
C59 C61 1_555 1_555
C62 C67 1_555 1_555
C63 C74 1_555 1_555
C65 C66 1_555 1_555
C66 C67 1_555 1_555
C68 C69 1_555 1_555
C70 C80 1_555 1_555
C71 C72 1_555 1_555
C73 C74 1_555 1_555
C75 C76 1_555 1_555
C75 C77 1_555 1_555
C77 C78 1_555 1_555
C79 C80 1_555 1_555
C79 C91 1_555 1_555
C81 C82 1_555 1_555
C82 C83 1_555 1_555
C84 C85 1_555 1_555
C84 C91 1_555 1_555

#END
