
#######################################################################
#
#                 Cambridge Crystallographic Data Centre
#                                CCDC 
#
#######################################################################
#
# If this CIF has been generated from an entry in the Cambridge 
# Structural Database, then it will include bibliographic, chemical, 
# crystal, experimental, refinement or atomic coordinate data resulting 
# from the CCDC's data processing and validation procedures.
#
#######################################################################

data_YOHYEB
_chemical_formula_moiety         'C20 H23 N1 O3 S1'
_chemical_name_systematic        
N-(1-(1-Allyl-1,3-dihydro-2-benzofuran-1-yl)ethyl)-4-methylbenzenesulfonamide
_symmetry_cell_setting           monoclinic
_symmetry_space_group_name_H-M   'P 21/c'
_symmetry_Int_Tables_number      14
_space_group_name_Hall           '-P 2ybc'
loop_
_symmetry_equiv_pos_site_id
_symmetry_equiv_pos_as_xyz
1 x,y,z
2 -x,1/2+y,1/2-z
3 -x,-y,-z
4 x,1/2-y,1/2+z
_cell_length_a                   13.4716(6)
_cell_length_b                   7.6994(3)
_cell_length_c                   18.3347(13)
_cell_angle_alpha                90
_cell_angle_beta                 96.197(7)
_cell_angle_gamma                90
_cell_volume                     1890.62
_exptl_crystal_colour            colorless
_exptl_crystal_description       block
_cell_formula_units_Z            4
loop_
_atom_site_label
_atom_site_type_symbol
_atom_site_fract_x
_atom_site_fract_y
_atom_site_fract_z
S1 S 0.59773(4) 0.05918(7) 0.21520(3)
O1 O 0.74989(12) 0.3998(2) 0.38495(9)
O2 O 0.67836(14) -0.0579(2) 0.20687(11)
O3 O 0.51278(13) 0.0005(3) 0.24870(10)
N1 N 0.64388(14) 0.2188(3) 0.26469(11)
H1 H 0.6021(17) 0.298(3) 0.2726(15)
C1 C 0.4371(3) 0.3372(4) -0.08346(14)
H2 H 0.3759 0.2787 -0.1002
H3 H 0.4848 0.3189 -0.1180
H4 H 0.4246 0.4594 -0.0792
C2 C 0.4779(2) 0.2663(3) -0.00983(13)
C3 C 0.5728(2) 0.1984(4) 0.00216(14)
H5 H 0.6126 0.1956 -0.0363
C4 C 0.61036(19) 0.1342(4) 0.07010(14)
H6 H 0.6747 0.0890 0.0771
C5 C 0.55181(16) 0.1377(3) 0.12754(12)
C6 C 0.74795(16) 0.2776(3) 0.26330(13)
H7 H 0.7822 0.1930 0.2348
C7 C 0.90578(16) 0.3451(3) 0.34636(12)
C8 C 0.9870(2) 0.2793(4) 0.31617(17)
H8 H 0.9815 0.1792 0.2876
C9 C 1.0777(2) 0.3661(5) 0.3295(2)
H9 H 1.1338 0.3231 0.3100
C10 C 1.0853(2) 0.5138(6) 0.3708(2)
H10 H 1.1463 0.5711 0.3785
C11 C 0.8148(2) 0.5357(5) 0.41310(18)
H11 H 0.8191 0.5393 0.4662
H12 H 0.7911 0.6472 0.3938
C12 C 0.91418(19) 0.4935(4) 0.38841(15)
C13 C 1.0042(2) 0.5797(5) 0.40136(19)
H13 H 1.0099 0.6796 0.4300
C14 C 0.79992(16) 0.2770(3) 0.34245(12)
C15 C 0.7948(2) 0.0963(4) 0.37741(17)
H14 H 0.7264 0.0750 0.3868
H15 H 0.8117 0.0104 0.3421
C16 C 0.8611(7) 0.0687(10) 0.4473(4)
H16 H 0.9287 0.0867 0.4438
C17 C 0.8426(12) 0.0295(19) 0.5039(6)
H17 H 0.7766 0.0091 0.5121
H18 H 0.8933 0.0178 0.5422
C18 C 0.7515(2) 0.4523(4) 0.22565(17)
H19 H 0.7188 0.4438 0.1766
H20 H 0.8198 0.4862 0.2240
H21 H 0.7181 0.5374 0.2525
C19 C 0.45653(17) 0.2041(3) 0.11690(12)
H22 H 0.4168 0.2064 0.1554
C20 C 0.4201(2) 0.2676(3) 0.04852(14)
H23 H 0.3556 0.3120 0.0415
C21? C 0.8156(17) 0.111(2) 0.4629(6)
H24? H 0.8143 0.2286 0.4749
C22? C 0.831(2) 0.036(3) 0.5154(9)
H25? H 0.8356 -0.0841 0.5143
H26? H 0.8405 0.0949 0.5600
loop_
_geom_bond_atom_site_label_1
_geom_bond_atom_site_label_2
_geom_bond_site_symmetry_1
_geom_bond_site_symmetry_2
S1 O2 1_555 1_555
O1 C11 1_555 1_555
O3 S1 1_555 1_555
N1 S1 1_555 1_555
H1 N1 1_555 1_555
C1 H2 1_555 1_555
H3 C1 1_555 1_555
H4 C1 1_555 1_555
C2 C1 1_555 1_555
C3 C2 1_555 1_555
H5 C3 1_555 1_555
C4 C3 1_555 1_555
H6 C4 1_555 1_555
C5 S1 1_555 1_555
C6 N1 1_555 1_555
H7 C6 1_555 1_555
C7 C8 1_555 1_555
C8 H8 1_555 1_555
C9 C8 1_555 1_555
H9 C9 1_555 1_555
C10 C9 1_555 1_555
H10 C10 1_555 1_555
C11 H11 1_555 1_555
H12 C11 1_555 1_555
C12 C7 1_555 1_555
C13 C10 1_555 1_555
H13 C13 1_555 1_555
C14 O1 1_555 1_555
C15 C14 1_555 1_555
H14 C15 1_555 1_555
H15 C15 1_555 1_555
C16 C15 1_555 1_555
H16 C16 1_555 1_555
C17 C16 1_555 1_555
H17 C17 1_555 1_555
H18 C17 1_555 1_555
C18 C6 1_555 1_555
H19 C18 1_555 1_555
H20 C18 1_555 1_555
H21 C18 1_555 1_555
C19 C5 1_555 1_555
H22 C19 1_555 1_555
C20 C2 1_555 1_555
H23 C20 1_555 1_555
C4 C5 1_555 1_555
C6 C14 1_555 1_555
C7 C14 1_555 1_555
C11 C12 1_555 1_555
C12 C13 1_555 1_555
C19 C20 1_555 1_555

#END
