
#######################################################################
#
#                 Cambridge Crystallographic Data Centre
#                                CCDC 
#
#######################################################################
#
# If this CIF has been generated from an entry in the Cambridge 
# Structural Database, then it will include bibliographic, chemical, 
# crystal, experimental, refinement or atomic coordinate data resulting 
# from the CCDC's data processing and validation procedures.
#
#######################################################################

data_YOKJOX
_chemical_formula_moiety         'C22 H18 Br2'
_chemical_name_systematic        
endo-1,exo-2-Dibromo-5,6:11,12-dibenzopentacyclo(8.4.0.0^2,7^.0^4,9^.0^8,13^)tetradeca-5,11-diene
_symmetry_cell_setting           orthorhombic
_symmetry_space_group_name_H-M   'P c a 21'
_symmetry_Int_Tables_number      29
_space_group_name_Hall           'P 2c -2ac'
loop_
_symmetry_equiv_pos_site_id
_symmetry_equiv_pos_as_xyz
1 x,y,z
2 -x,-y,1/2+z
3 1/2-x,y,1/2+z
4 1/2+x,-y,z
_cell_length_a                   10.176(3)
_cell_length_b                   12.826(5)
_cell_length_c                   26.717(8)
_cell_angle_alpha                90
_cell_angle_beta                 90
_cell_angle_gamma                90
_cell_volume                     3487.03
_exptl_crystal_colour            colorless
_chemical_melting_point          170-171deg.C
_cell_formula_units_Z            8
loop_
_atom_site_label
_atom_site_type_symbol
_atom_site_fract_x
_atom_site_fract_y
_atom_site_fract_z
Br1 Br -0.3597(2) -0.1184(2) 0.2433(1)
Br2 Br -0.6235(2) 0.2025(3) 0.1227(2)
C1 C -0.4340(20) 0.1293(17) 0.2828(8)
C2 C -0.5243(21) 0.1360(16) 0.3202(9)
C3 C -0.4883(20) 0.1143(16) 0.3688(10)
C4 C -0.3540(20) 0.0830(16) 0.3766(10)
C5 C -0.2639(20) 0.0747(16) 0.3409(8)
C6 C -0.3034(21) 0.0970(15) 0.2916(9)
C7 C -0.2263(19) 0.0892(15) 0.2467(10)
C8 C -0.2228(20) 0.1882(17) 0.2142(8)
C9 C -0.2110(22) 0.1694(19) 0.1590(9)
C10 C -0.1735(20) 0.2716(17) 0.1357(8)
C11 C -0.0588(24) 0.2937(18) 0.1079(9)
C12 C -0.0413(25) 0.3967(18) 0.0906(9)
C13 C -0.1269(22) 0.4731(19) 0.1040(8)
C14 C -0.2429(23) 0.4523(16) 0.1283(10)
C15 C -0.2671(22) 0.3492(17) 0.1454(9)
C16 C -0.3886(19) 0.3102(17) 0.1680(8)
C17 C -0.3562(19) 0.2494(16) 0.2175(8)
C18 C -0.4602(26) 0.1658(19) 0.2270(10)
C19 C -0.4162(20) 0.0748(18) 0.1887(8)
C20 C -0.3526(21) 0.1312(20) 0.1416(9)
C21 C -0.3044(21) 0.0105(17) 0.2105(9)
C22 C -0.4327(20) 0.2253(18) 0.1299(10)
H1 H -0.6139 0.1532 0.3126
H2 H -0.5497 0.1210 0.3958
H3 H -0.3287 0.0672 0.4104
H4 H -0.1752 0.0558 0.3491
H5 H -0.1386 0.0651 0.2533
H6 H -0.1531 0.2325 0.2258
H7 H -0.1448 0.1178 0.1525
H8 H 0.0138 0.2806 0.1299
H9 H 0.0259 0.4124 0.0666
H10 H -0.1027 0.5442 0.0975
H11 H -0.3058 0.5064 0.1349
H12 H -0.4531 0.3637 0.1732
H13 H -0.3535 0.2968 0.2453
H14 H -0.5478 0.1912 0.2216
H15 H -0.4883 0.0309 0.1791
H16 H -0.3477 0.0843 0.1136
H17 H -0.2473 -0.0081 0.1833
H18 H -0.4032 0.2490 0.0977
Br3 Br 0.0435(2) 0.6189(2) 0.3688
Br4 Br 0.3061(2) 0.2908(2) 0.4872(2)
C23 C -0.0539(20) 0.1462(15) 0.4689(8)
C24 C -0.0811(20) 0.0511(17) 0.4823(9)
C25 C -0.1978(27) 0.0289(24) 0.5096(10)
C26 C -0.2839(26) 0.1049(19) 0.5197(9)
C27 C -0.2562(26) 0.2102(20) 0.5041(10)
C28 C -0.1427(22) 0.2293(18) 0.4790(9)
C29 C -0.1043(18) 0.3324(17) 0.4581(8)
C30 C -0.0962(20) 0.3097(17) 0.3986(8)
C31 C -0.0890(18) 0.4141(14) 0.3703(8)
C32 C -0.0121(20) 0.4034(15) 0.3236(9)
C33 C -0.0519(26) 0.4277(19) 0.2733(9)
C34 C 0.0303(24) 0.4134(19) 0.2326(10)
C35 C 0.1621(20) 0.3901(16) 0.2457(11)
C36 C 0.2069(22) 0.3675(17) 0.2925(9)
C37 C 0.1173(21) 0.3730(18) 0.3325(9)
C38 C 0.1437(18) 0.3427(14) 0.3835(7)
C39 C 0.0997(19) 0.4238(16) 0.4243(7)
C40 C 0.0374(18) 0.2514(15) 0.3944(8)
C41 C 0.0420(19) 0.3730(17) 0.4712(8)
C42 C 0.0685(18) 0.1901(17) 0.4419(8)
C43 C -0.0146(21) 0.4887(18) 0.4044(9)
C44 C 0.1126(18) 0.2693(16) 0.4839(9)
H19 H -0.0208 -0.0042 0.4746
H20 H -0.2129 -0.0408 0.5214
H21 H -0.3662 0.0893 0.5356
H22 H -0.3130 0.2669 0.5130
H23 H -0.1688 0.3846 0.4656
H24 H -0.1687 0.2674 0.3878
H25 H -0.1750 0.4401 0.3626
H26 H -0.1391 0.4550 0.2693
H27 H 0.0312 0.4776 0.2142
H28 H 0.2260 0.3861 0.2193
H29 H 0.2965 0.3480 0.2988
H30 H 0.2324 0.3195 0.3885
H31 H 0.1713 0.4688 0.4332
H32 H 0.0352 0.2045 0.3664
H33 H 0.0413 0.4193 0.4994
H34 H 0.1333 0.1369 0.4366
H35 H -0.0713 0.5075 0.4317
H36 H 0.0820 0.2444 0.5157
loop_
_geom_bond_atom_site_label_1
_geom_bond_atom_site_label_2
_geom_bond_site_symmetry_1
_geom_bond_site_symmetry_2
Br1 C21 1_555 1_555
Br2 C22 1_555 1_555
Br3 C43 1_555 1_555
Br4 C44 1_555 1_555
C1 C2 1_555 1_555
C2 C3 1_555 1_555
C3 C4 1_555 1_555
C4 C5 1_555 1_555
C5 C6 1_555 1_555
C6 C1 1_555 1_555
C7 C6 1_555 1_555
C8 C7 1_555 1_555
C9 C8 1_555 1_555
C10 C9 1_555 1_555
C11 C10 1_555 1_555
C12 C11 1_555 1_555
C13 C12 1_555 1_555
C14 C13 1_555 1_555
C15 C10 1_555 1_555
C16 C15 1_555 1_555
C17 C8 1_555 1_555
C18 C1 1_555 1_555
C19 C18 1_555 1_555
C20 C9 1_555 1_555
C21 C7 1_555 1_555
C22 C16 1_555 1_555
C23 C24 1_555 1_555
C24 C25 1_555 1_555
C25 C26 1_555 1_555
C26 C27 1_555 1_555
C27 C28 1_555 1_555
C28 C23 1_555 1_555
C29 C28 1_555 1_555
C30 C29 1_555 1_555
C31 C30 1_555 1_555
C32 C31 1_555 1_555
C33 C32 1_555 1_555
C34 C33 1_555 1_555
C35 C34 1_555 1_555
C36 C35 1_555 1_555
C37 C32 1_555 1_555
C38 C37 1_555 1_555
C39 C38 1_555 1_555
C40 C30 1_555 1_555
C41 C29 1_555 1_555
C42 C23 1_555 1_555
C43 C31 1_555 1_555
C44 C41 1_555 1_555
H1 C2 1_555 1_555
H2 C3 1_555 1_555
H3 C4 1_555 1_555
H4 C5 1_555 1_555
H5 C7 1_555 1_555
H6 C8 1_555 1_555
H7 C9 1_555 1_555
H8 C11 1_555 1_555
H9 C12 1_555 1_555
H10 C13 1_555 1_555
H11 C14 1_555 1_555
H12 C16 1_555 1_555
H13 C17 1_555 1_555
H14 C18 1_555 1_555
H15 C19 1_555 1_555
H16 C20 1_555 1_555
H17 C21 1_555 1_555
H18 C22 1_555 1_555
H19 C24 1_555 1_555
H20 C25 1_555 1_555
H21 C26 1_555 1_555
H22 C27 1_555 1_555
H23 C29 1_555 1_555
H24 C30 1_555 1_555
H25 C31 1_555 1_555
H26 C33 1_555 1_555
H27 C34 1_555 1_555
H28 C35 1_555 1_555
H29 C36 1_555 1_555
H30 C38 1_555 1_555
H31 C39 1_555 1_555
H32 C40 1_555 1_555
H33 C41 1_555 1_555
H34 C42 1_555 1_555
H35 C43 1_555 1_555
H36 C44 1_555 1_555
C14 C15 1_555 1_555
C16 C17 1_555 1_555
C17 C18 1_555 1_555
C19 C20 1_555 1_555
C19 C21 1_555 1_555
C20 C22 1_555 1_555
C36 C37 1_555 1_555
C38 C40 1_555 1_555
C39 C41 1_555 1_555
C39 C43 1_555 1_555
C40 C42 1_555 1_555
C42 C44 1_555 1_555

#END
