
#######################################################################
#
#                 Cambridge Crystallographic Data Centre
#                                CCDC 
#
#######################################################################
#
# If this CIF has been generated from an entry in the Cambridge 
# Structural Database, then it will include bibliographic, chemical, 
# crystal, experimental, refinement or atomic coordinate data resulting 
# from the CCDC's data processing and validation procedures.
#
#######################################################################

data_YOLPUM
_chemical_formula_moiety         'C32 H44 O13'
_chemical_name_systematic        
(2R,3R,4S,5R,7S,8R,13R,15R)-3,5,7,15-Tetra-acetoxy-2-hydroxy-8-isobutyryloxy-9,14-dioxojatropha-6(17),11E-diene
_symmetry_cell_setting           monoclinic
_symmetry_space_group_name_H-M   'P 21'
_symmetry_Int_Tables_number      4
_space_group_name_Hall           'P 2yb'
loop_
_symmetry_equiv_pos_site_id
_symmetry_equiv_pos_as_xyz
1 x,y,z
2 -x,1/2+y,-z
_cell_length_a                   11.3186(3)
_cell_length_b                   15.8687(4)
_cell_length_c                   20.1536(14)
_cell_angle_alpha                90
_cell_angle_beta                 101.153(7)
_cell_angle_gamma                90
_cell_volume                     3551.45
_exptl_crystal_colour            colorless
_exptl_crystal_description       prism
_cell_formula_units_Z            4
loop_
_atom_site_label
_atom_site_type_symbol
_atom_site_fract_x
_atom_site_fract_y
_atom_site_fract_z
O1 O 0.6767(7) 0.2299(5) 1.0537(3)
H1 H 0.6237 0.2675 1.0452
O2 O 0.6944(6) 0.1398(5) 0.8898(3)
O3 O 0.6666(11) 0.0011(7) 0.9063(5)
O4 O 0.6058(6) 0.3241(4) 0.8422(3)
O5 O 0.7153(6) 0.4427(5) 0.8667(3)
O6 O 0.4857(6) 0.1659(4) 0.8050(3)
O7 O 0.3387(9) 0.2198(7) 0.7271(4)
O8 O 0.1752(6) 0.1536(5) 0.9374(3)
O9 O 0.2967(10) 0.1979(7) 1.0317(4)
O10 O 0.0916(6) 0.1697(5) 0.8015(3)
O11 O 0.0266(8) 0.2582(7) 0.7146(4)
O12 O -0.0389(8) 0.2824(6) 0.8566(4)
O13 O 0.5684(6) 0.3882(5) 1.0076(3)
C1 C 0.7346(9) 0.2936(7) 0.9540(5)
H2 H 0.7910 0.2855 0.9226
H3 H 0.7645 0.3407 0.9850
C2 C 0.7259(10) 0.2137(7) 0.9939(5)
C3 C 0.6348(9) 0.1620(8) 0.9445(5)
H4 H 0.6027 0.1123 0.9658
C4 C 0.5391(9) 0.2274(7) 0.9175(5)
H5 H 0.4964 0.2359 0.9561
C5 C 0.4366(9) 0.2091(7) 0.8574(5)
H6 H 0.3987 0.2633 0.8391
C6 C 0.3402(9) 0.1517(7) 0.8776(4)
C7 C 0.2444(9) 0.2043(6) 0.8975(4)
H7 H 0.2826 0.2525 0.9257
C8 C 0.1530(9) 0.2389(7) 0.8375(5)
H8 H 0.1985 0.2687 0.8067
C9 C 0.0665(11) 0.3032(8) 0.8609(5)
C10 C 0.1099(9) 0.3894(8) 0.8868(5)
C11 C 0.2355(10) 0.4052(7) 0.8728(5)
H9 H 0.2444 0.4031 0.8269
C12 C 0.3361(10) 0.4221(7) 0.9199(5)
H10 H 0.3286 0.4201 0.9660
C13 C 0.4584(9) 0.4435(7) 0.9055(5)
H11 H 0.4578 0.4355 0.8562
C14 C 0.5479(9) 0.3838(6) 0.9458(5)
C15 C 0.6079(9) 0.3134(7) 0.9142(4)
C16 C 0.8449(10) 0.1693(9) 1.0168(6)
H12 H 0.8314 0.1160 1.0388
H13 H 0.8986 0.2052 1.0490
H14 H 0.8818 0.1579 0.9776
C17 C 0.3422(10) 0.0710(8) 0.8788(5)
H15 H 0.2793 0.0407 0.8931
H16 H 0.4067 0.0415 0.8653
C18 C 0.1009(10) 0.3955(8) 0.9606(5)
H17 H 0.1499 0.3511 0.9863
H18 H 0.0168 0.3887 0.9650
H19 H 0.1303 0.4507 0.9784
C19 C 0.0304(11) 0.4554(8) 0.8443(6)
H20 H -0.0521 0.4507 0.8521
H21 H 0.0309 0.4460 0.7963
H22 H 0.0616 0.5119 0.8574
C20 C 0.4936(9) 0.5347(7) 0.9254(6)
H23 H 0.5206 0.5382 0.9745
H24 H 0.4238 0.5715 0.9114
H25 H 0.5590 0.5525 0.9030
C21 C 0.7056(13) 0.0573(11) 0.8760(7)
C22 C 0.4203(11) 0.1763(9) 0.7408(6)
C23 C 0.4807(12) 0.1234(10) 0.6938(6)
H26 H 0.4664 0.1490 0.6487
H27 H 0.4469 0.0663 0.6907
H28 H 0.5675 0.1206 0.7117
C24 C 0.0326(10) 0.1885(11) 0.7371(6)
C25 C -0.0111(12) 0.1090(9) 0.7012(6)
H29 H -0.0381 0.0703 0.7345
C26 C 0.2168(12) 0.1551(10) 1.0069(6)
C27 C 0.1505(12) 0.0898(10) 1.0396(7)
H30 H 0.1590 0.1023 1.0879
H31 H 0.1842 0.0340 1.0339
H32 H 0.0650 0.0905 1.0182
C28 C 0.6667(10) 0.3915(8) 0.8251(5)
C29 C 0.6648(13) 0.3933(9) 0.7524(5)
H33 H 0.6503 0.3363 0.7339
H34 H 0.7425 0.4139 0.7444
H35 H 0.6004 0.4309 0.7303
C30 C 0.7763(13) 0.0484(10) 0.8217(7)
H36 H 0.7519 -0.0032 0.7959
H37 H 0.8622 0.0454 0.8418
H38 H 0.7615 0.0971 0.7913
C31 C 0.0880(15) 0.0666(10) 0.6750(7)
H39 H 0.1606 0.0651 0.7106
H40 H 0.1049 0.0979 0.6360
H41 H 0.0638 0.0089 0.6613
C32 C -0.1196(16) 0.1275(14) 0.6449(8)
H42 H -0.1502 0.0747 0.6229
H43 H -0.0950 0.1652 0.6115
H44 H -0.1830 0.1546 0.6642
O14 O 0.3419(6) 0.6404(5) 0.6843(3)
O15 O 0.3744(7) 0.5376(5) 0.5274(4)
H45 H 0.4076 0.5696 0.5034
O16 O 0.3781(11) 0.5262(9) 0.7501(5)
O17 O 0.3876(6) 0.8058(5) 0.5893(3)
O18 O 0.2641(7) 0.8441(5) 0.4939(4)
O19 O 0.4473(7) 0.6771(5) 0.4560(3)
O20 O 1.0495(8) 0.7449(7) 0.6280(4)
O21 O 0.9291(6) 0.7484(5) 0.7295(3)
O22 O 0.9566(9) 0.8874(6) 0.7201(4)
O23 O 0.5221(6) 0.7495(5) 0.7197(3)
O24 O 0.8604(6) 0.5976(5) 0.6609(3)
O25 O 0.7278(9) 0.5319(6) 0.5851(5)
C33 C 0.7008(11) 0.6292(8) 0.7533(5)
H46 H 0.6378 0.6323 0.7783
H47 H 0.7713 0.5975 0.7704
O26 O 0.6368(13) 0.8637(8) 0.7293(6)
C34 C 0.2847(9) 0.6744(7) 0.5441(5)
H48 H 0.2230 0.6999 0.5666
H49 H 0.2529 0.6725 0.4948
C35 C 0.3168(10) 0.5869(7) 0.5712(5)
C36 C 0.2033(11) 0.5361(8) 0.5832(6)
H50 H 0.2293 0.4826 0.6056
H51 H 0.1502 0.5248 0.5396
H52 H 0.1597 0.5692 0.6117
C37 C 0.4092(9) 0.6028(7) 0.6367(5)
H53 H 0.4550 0.5511 0.6547
C38 C 0.4891(9) 0.6713(7) 0.6132(4)
H54 H 0.5402 0.6399 0.5862
C39 C 0.5792(9) 0.7202(7) 0.6656(4)
H55 H 0.6059 0.7707 0.6427
C40 C 0.6903(9) 0.6688(7) 0.6949(5)
C41 C 0.7834(10) 0.6708(8) 0.6497(5)
H56 H 0.7400 0.6704 0.6015
C42 C 0.8616(9) 0.7499(7) 0.6614(5)
H57 H 0.8069 0.7999 0.6567
C43 C 0.9390(11) 0.7570(8) 0.6088(6)
C44 C 0.8900(10) 0.7813(8) 0.5368(5)
C45 C 0.7623(11) 0.8107(8) 0.5291(4)
H58 H 0.7505 0.8602 0.5536
C46 C 0.6658(12) 0.7777(8) 0.4936(5)
H59 H 0.6768 0.7273 0.4701
C47 C 0.5351(9) 0.8101(7) 0.4848(5)
H60 H 0.5299 0.8548 0.5191
C48 C 0.4585(10) 0.7352(8) 0.4962(5)
C49 C 0.4023(9) 0.7256(7) 0.5595(5)
C50 C 0.3297(14) 0.5941(12) 0.7385(7)
C51 C 0.2496(12) 0.6401(11) 0.7762(6)
H61 H 0.2984 0.6744 0.8117
H62 H 0.2021 0.5996 0.7968
H63 H 0.1953 0.6767 0.7451
C52 C 0.5639(17) 0.8201(12) 0.7504(7)
C53 C 0.8285(15) 0.5295(8) 0.6233(6)
C54 C 0.2984(13) 0.9399(10) 0.5859(8)
H64 H 0.2794 0.9259 0.6300
H65 H 0.2316 0.9718 0.5592
H66 H 0.3719 0.9741 0.5925
C55 C 0.9118(11) 0.4571(8) 0.6352(6)
H67 H 0.9145 0.4293 0.5921
H68 H 0.8836 0.4169 0.6657
H69 H 0.9926 0.4769 0.6558
C56 C 0.9717(11) 0.8240(10) 0.7534(6)
C57 C 1.0320(12) 0.8208(8) 0.8252(6)
H70 H 1.0771 0.7663 0.8324
C58 C 0.9312(18) 0.8177(13) 0.8686(7)
H71 H 0.8705 0.7758 0.8495
H72 H 0.8932 0.8732 0.8681
H73 H 0.9669 0.8022 0.9152
C59 C 0.9042(13) 0.7068(10) 0.4924(6)
H74 H 0.8808 0.7232 0.4448
H75 H 0.8527 0.6606 0.5020
H76 H 0.9884 0.6884 0.5015
C60 C 0.4915(9) 0.8461(7) 0.4121(5)
H77 H 0.4047 0.8567 0.4046
H78 H 0.5086 0.8052 0.3788
H79 H 0.5339 0.8989 0.4074
C61 C 0.3176(10) 0.8598(8) 0.5489(7)
C62 C 0.5061(15) 0.8371(12) 0.8113(9)
H80 H 0.5250 0.8947 0.8275
H81 H 0.5376 0.7970 0.8474
H82 H 0.4186 0.8305 0.7982
C63 C 0.9690(12) 0.8559(10) 0.5193(7)
H83 H 0.9598 0.9045 0.5478
H84 H 0.9430 0.8712 0.4716
H85 H 1.0537 0.8386 0.5275
C64 C 1.123(2) 0.8911(13) 0.8411(9)
H86 H 1.0813 0.9450 0.8420
H87 H 1.1729 0.8930 0.8063
H88 H 1.1748 0.8808 0.8854
loop_
_geom_bond_atom_site_label_1
_geom_bond_atom_site_label_2
_geom_bond_site_symmetry_1
_geom_bond_site_symmetry_2
O1 H1 1_555 1_555
O2 C3 1_555 1_555
O3 C21 1_555 1_555
O4 C15 1_555 1_555
O5 C28 1_555 1_555
O6 C5 1_555 1_555
O7 C22 1_555 1_555
O8 C7 1_555 1_555
O9 C26 1_555 1_555
O10 C8 1_555 1_555
O11 C24 1_555 1_555
O12 C9 1_555 1_555
O13 C14 1_555 1_555
C1 H2 1_555 1_555
H3 C1 1_555 1_555
C2 O1 1_555 1_555
C3 C2 1_555 1_555
H4 C3 1_555 1_555
C4 C3 1_555 1_555
H5 C4 1_555 1_555
C5 C4 1_555 1_555
H6 C5 1_555 1_555
C6 C5 1_555 1_555
C7 C6 1_555 1_555
H7 C7 1_555 1_555
C8 C7 1_555 1_555
H8 C8 1_555 1_555
C9 C8 1_555 1_555
C10 C9 1_555 1_555
C11 C10 1_555 1_555
H9 C11 1_555 1_555
C12 C11 1_555 1_555
H10 C12 1_555 1_555
C13 C12 1_555 1_555
H11 C13 1_555 1_555
C14 C13 1_555 1_555
C15 C1 1_555 1_555
C16 C2 1_555 1_555
H12 C16 1_555 1_555
H13 C16 1_555 1_555
H14 C16 1_555 1_555
C17 C6 1_555 1_555
H15 C17 1_555 1_555
H16 C17 1_555 1_555
C18 C10 1_555 1_555
H17 C18 1_555 1_555
H18 C18 1_555 1_555
H19 C18 1_555 1_555
C19 C10 1_555 1_555
H20 C19 1_555 1_555
H21 C19 1_555 1_555
H22 C19 1_555 1_555
C20 C13 1_555 1_555
H23 C20 1_555 1_555
H24 C20 1_555 1_555
H25 C20 1_555 1_555
C21 O2 1_555 1_555
C22 O6 1_555 1_555
C23 C22 1_555 1_555
H26 C23 1_555 1_555
H27 C23 1_555 1_555
H28 C23 1_555 1_555
C24 O10 1_555 1_555
C25 C24 1_555 1_555
H29 C25 1_555 1_555
C26 O8 1_555 1_555
C27 C26 1_555 1_555
H30 C27 1_555 1_555
H31 C27 1_555 1_555
H32 C27 1_555 1_555
C28 O4 1_555 1_555
C29 C28 1_555 1_555
H33 C29 1_555 1_555
H34 C29 1_555 1_555
H35 C29 1_555 1_555
C30 C21 1_555 1_555
H36 C30 1_555 1_555
H37 C30 1_555 1_555
H38 C30 1_555 1_555
C31 C25 1_555 1_555
H39 C31 1_555 1_555
H40 C31 1_555 1_555
H41 C31 1_555 1_555
C32 C25 1_555 1_555
H42 C32 1_555 1_555
H43 C32 1_555 1_555
H44 C32 1_555 1_555
O14 C37 1_555 1_555
O15 H45 1_555 1_555
O16 C50 1_555 1_555
O17 C49 1_555 1_555
O18 C61 1_555 1_555
O19 C48 1_555 1_555
O20 C43 1_555 1_555
O21 C42 1_555 1_555
O22 C56 1_555 1_555
O23 C39 1_555 1_555
O24 C41 1_555 1_555
O25 C53 1_555 1_555
C33 H46 1_555 1_555
H47 C33 1_555 1_555
O26 C52 1_555 1_555
C34 H48 1_555 1_555
H49 C34 1_555 1_555
C35 O15 1_555 1_555
C36 C35 1_555 1_555
H50 C36 1_555 1_555
H51 C36 1_555 1_555
H52 C36 1_555 1_555
C37 C35 1_555 1_555
H53 C37 1_555 1_555
C38 C37 1_555 1_555
H54 C38 1_555 1_555
C39 C38 1_555 1_555
H55 C39 1_555 1_555
C40 C33 1_555 1_555
C41 C40 1_555 1_555
H56 C41 1_555 1_555
C42 C41 1_555 1_555
H57 C42 1_555 1_555
C43 C42 1_555 1_555
C44 C43 1_555 1_555
C45 C44 1_555 1_555
H58 C45 1_555 1_555
C46 C45 1_555 1_555
H59 C46 1_555 1_555
C47 C46 1_555 1_555
H60 C47 1_555 1_555
C48 C47 1_555 1_555
C49 C34 1_555 1_555
C50 O14 1_555 1_555
C51 C50 1_555 1_555
H61 C51 1_555 1_555
H62 C51 1_555 1_555
H63 C51 1_555 1_555
C52 O23 1_555 1_555
C53 O24 1_555 1_555
C54 H64 1_555 1_555
H65 C54 1_555 1_555
H66 C54 1_555 1_555
C55 C53 1_555 1_555
H67 C55 1_555 1_555
H68 C55 1_555 1_555
H69 C55 1_555 1_555
C56 O21 1_555 1_555
C57 C56 1_555 1_555
H70 C57 1_555 1_555
C58 C57 1_555 1_555
H71 C58 1_555 1_555
H72 C58 1_555 1_555
H73 C58 1_555 1_555
C59 C44 1_555 1_555
H74 C59 1_555 1_555
H75 C59 1_555 1_555
H76 C59 1_555 1_555
C60 C47 1_555 1_555
H77 C60 1_555 1_555
H78 C60 1_555 1_555
H79 C60 1_555 1_555
C61 O17 1_555 1_555
C62 C52 1_555 1_555
H80 C62 1_555 1_555
H81 C62 1_555 1_555
H82 C62 1_555 1_555
C63 C44 1_555 1_555
H83 C63 1_555 1_555
H84 C63 1_555 1_555
H85 C63 1_555 1_555
C64 C57 1_555 1_555
H86 C64 1_555 1_555
H87 C64 1_555 1_555
H88 C64 1_555 1_555
C1 C2 1_555 1_555
C4 C15 1_555 1_555
C14 C15 1_555 1_555
C34 C35 1_555 1_555
C38 C49 1_555 1_555
C39 C40 1_555 1_555
C48 C49 1_555 1_555
C54 C61 1_555 1_555

#END
