
#######################################################################
#
#                 Cambridge Crystallographic Data Centre
#                                CCDC 
#
#######################################################################
#
# If this CIF has been generated from an entry in the Cambridge 
# Structural Database, then it will include bibliographic, chemical, 
# crystal, experimental, refinement or atomic coordinate data resulting 
# from the CCDC's data processing and validation procedures.
#
#######################################################################

data_YOLQEX
_chemical_formula_moiety         'C35 H42 O13,0.2(H2 O1)'
_chemical_name_systematic        
'(2R,3R,4S,5R,7S,8R,13R,15R)-3,5,7,15-Tetra-acetoxy-8-(benzoyloxy)-2-hydroxy-9,14-dioxojatropha-6(17),11E-diene hydrate'
_symmetry_cell_setting           orthorhombic
_symmetry_space_group_name_H-M   'P 21 21 21'
_symmetry_Int_Tables_number      19
_space_group_name_Hall           'P 2ac 2ab'
loop_
_symmetry_equiv_pos_site_id
_symmetry_equiv_pos_as_xyz
1 x,y,z
2 1/2+x,1/2-y,-z
3 -x,1/2+y,1/2-z
4 1/2-x,-y,1/2+z
_cell_length_a                   11.2634(3)
_cell_length_b                   15.8807(5)
_cell_length_c                   21.1556(14)
_cell_angle_alpha                90
_cell_angle_beta                 90
_cell_angle_gamma                90
_cell_volume                     3784.12
_exptl_crystal_colour            colorless
_exptl_crystal_description       stick
_cell_formula_units_Z            4
loop_
_atom_site_label
_atom_site_type_symbol
_atom_site_fract_x
_atom_site_fract_y
_atom_site_fract_z
O1 O -0.5829(3) 0.69555(16) 0.89593(12)
O2 O -0.6714(3) 0.5270(2) 0.95083(13)
O3 O -0.1114(2) 0.39214(16) 1.07962(11)
O4 O -0.4834(2) 0.41312(14) 0.86765(11)
O5 O -0.4451(3) 0.30753(17) 0.93216(13)
O6 O -0.0553(2) 0.27972(13) 0.96187(11)
H1 H -0.0246 0.2488 0.9896
O7 O 0.0020(2) 0.55306(13) 0.98130(10)
O8 O 0.0924(2) 0.55058(16) 1.07567(12)
O9 O 0.0472(2) 0.44241(13) 0.85769(11)
O10 O 0.0007(3) 0.3858(2) 0.76386(13)
O11 O -0.5254(2) 0.57185(13) 0.85433(10)
O12 O -0.1157(2) 0.56929(14) 0.86499(10)
O13 O -0.2237(4) 0.68041(17) 0.89332(19)
C1 C 0.0660(3) 0.4034(2) 0.98806(16)
H2 H 0.1408 0.4320 0.9760
H3 H 0.0774 0.3763 1.0298
C2 C 0.0321(3) 0.3379(2) 0.93846(15)
C3 C -0.0378(3) 0.3906(2) 0.89084(15)
H4 H -0.0853 0.3548 0.8613
C4 C -0.1170(3) 0.44492(19) 0.93347(13)
H5 H -0.1774 0.4049 0.9508
C5 C -0.1899(3) 0.51635(19) 0.90444(15)
H6 H -0.2233 0.5515 0.9394
C6 C -0.2918(3) 0.4824(2) 0.86510(15)
C7 C -0.4047(3) 0.46876(19) 0.90223(16)
H7 H -0.3847 0.4425 0.9438
C8 C -0.4735(3) 0.5499(2) 0.91367(14)
H8 H -0.4172 0.5953 0.9270
C9 C -0.5670(4) 0.5374(2) 0.96482(18)
C10 C -0.5281(3) 0.5355(2) 1.03449(16)
C11 C -0.3978(3) 0.5549(2) 1.04207(14)
H9 H -0.3731 0.6090 1.0283
C12 C -0.3142(3) 0.5062(2) 1.06545(14)
H10 H -0.3360 0.4503 1.0765
C13 C -0.1872(3) 0.5313(2) 1.07623(15)
H11 H -0.1688 0.5841 1.0525
C14 C -0.1090(3) 0.4592(2) 1.05258(15)
C15 C -0.0368(3) 0.46704(19) 0.99088(14)
C16 C 0.1382(4) 0.2909(3) 0.9114(2)
H12 H 0.1952 0.3314 0.8941
H13 H 0.1114 0.2530 0.8777
H14 H 0.1762 0.2580 0.9449
C17 C 0.0597(4) 0.4331(2) 0.7952(2)
C18 C 0.1573(4) 0.4877(3) 0.7710(2)
H15 H 0.1905 0.4628 0.7324
H16 H 0.2196 0.4923 0.8031
H17 H 0.1259 0.5438 0.7614
C19 C -0.1442(5) 0.6509(3) 0.8632(2)
C20 C -0.0629(6) 0.6974(3) 0.8194(3)
H18 H -0.0902 0.7557 0.8150
H19 H -0.0633 0.6699 0.7779
H20 H 0.0178 0.6969 0.8366
C21 C -0.2838(4) 0.4658(2) 0.80403(17)
H21 H -0.3507 0.4444 0.7819
H22 H -0.2112 0.4752 0.7823
C22 C -0.4917(4) 0.3323(2) 0.8849(2)
C23 C -0.5638(4) 0.2834(2) 0.83879(19)
H23 H -0.5907 0.2309 0.8585
H24 H -0.5153 0.2703 0.8016
H25 H -0.6328 0.3168 0.8259
C24 C -0.5794(3) 0.6474(2) 0.85201(18)
C25 C -0.6354(3) 0.6617(2) 0.78941(16)
C26 C -0.6096(3) 0.6121(2) 0.73704(16)
H26 H -0.5535 0.5677 0.7406
C27 C -0.6649(4) 0.6270(2) 0.67971(17)
H27 H -0.6464 0.5933 0.6439
C28 C -0.7471(4) 0.6909(3) 0.6748(2)
H28 H -0.7855 0.7012 0.6356
C29 C -0.7736(4) 0.7399(2) 0.72636(19)
H29 H -0.8309 0.7835 0.7229
C30 C -0.7172(4) 0.7257(2) 0.78330(17)
H30 H -0.7350 0.7604 0.8186
C31 C -0.5971(4) 0.6060(3) 1.06863(19)
H31 H -0.5843 0.6596 1.0466
H32 H -0.5688 0.6108 1.1123
H33 H -0.6820 0.5925 1.0687
C32 C -0.5647(4) 0.4501(2) 1.06220(17)
H34 H -0.5461 0.4489 1.1074
H35 H -0.5212 0.4050 1.0406
H36 H -0.6502 0.4418 1.0562
C33 C -0.1652(4) 0.5445(3) 1.14758(15)
H37 H -0.1725 0.4905 1.1697
H38 H -0.2239 0.5842 1.1644
H39 H -0.0852 0.5672 1.1540
C34 C 0.0695(3) 0.5877(2) 1.02763(19)
C35 C 0.1061(4) 0.6756(2) 1.0110(2)
H40 H 0.1485 0.7007 1.0468
H41 H 0.0354 0.7092 1.0015
H42 H 0.1583 0.6743 0.9740
O14 O 0.1610(19) 0.6620(12) 1.1890(8)
H43 H 0.122(15) 0.635(12) 1.160(7)
H44 H 0.18(3) 0.714(6) 1.186(6)
loop_
_geom_bond_atom_site_label_1
_geom_bond_atom_site_label_2
_geom_bond_site_symmetry_1
_geom_bond_site_symmetry_2
O1 C24 1_555 1_555
O2 C9 1_555 1_555
O3 C14 1_555 1_555
O4 C7 1_555 1_555
O5 C22 1_555 1_555
O6 H1 1_555 1_555
O7 C15 1_555 1_555
O8 C34 1_555 1_555
O9 C3 1_555 1_555
O10 C17 1_555 1_555
O11 C8 1_555 1_555
O12 C5 1_555 1_555
O13 C19 1_555 1_555
C1 H2 1_555 1_555
H3 C1 1_555 1_555
C2 O6 1_555 1_555
C3 C2 1_555 1_555
H4 C3 1_555 1_555
C4 C3 1_555 1_555
H5 C4 1_555 1_555
C5 C4 1_555 1_555
H6 C5 1_555 1_555
C6 C5 1_555 1_555
C7 C6 1_555 1_555
H7 C7 1_555 1_555
C8 C7 1_555 1_555
H8 C8 1_555 1_555
C9 C8 1_555 1_555
C10 C9 1_555 1_555
C11 C10 1_555 1_555
H9 C11 1_555 1_555
C12 C11 1_555 1_555
H10 C12 1_555 1_555
C13 C12 1_555 1_555
H11 C13 1_555 1_555
C14 C13 1_555 1_555
C15 C1 1_555 1_555
C16 C2 1_555 1_555
H12 C16 1_555 1_555
H13 C16 1_555 1_555
H14 C16 1_555 1_555
C17 O9 1_555 1_555
C18 C17 1_555 1_555
H15 C18 1_555 1_555
H16 C18 1_555 1_555
H17 C18 1_555 1_555
C19 O12 1_555 1_555
C20 C19 1_555 1_555
H18 C20 1_555 1_555
H19 C20 1_555 1_555
H20 C20 1_555 1_555
C21 C6 1_555 1_555
H21 C21 1_555 1_555
H22 C21 1_555 1_555
C22 O4 1_555 1_555
C23 C22 1_555 1_555
H23 C23 1_555 1_555
H24 C23 1_555 1_555
H25 C23 1_555 1_555
C24 O11 1_555 1_555
C25 C24 1_555 1_555
C26 C25 1_555 1_555
H26 C26 1_555 1_555
C27 C26 1_555 1_555
H27 C27 1_555 1_555
C28 C27 1_555 1_555
H28 C28 1_555 1_555
C29 C28 1_555 1_555
H29 C29 1_555 1_555
C30 C25 1_555 1_555
H30 C30 1_555 1_555
C31 C10 1_555 1_555
H31 C31 1_555 1_555
H32 C31 1_555 1_555
H33 C31 1_555 1_555
C32 C10 1_555 1_555
H34 C32 1_555 1_555
H35 C32 1_555 1_555
H36 C32 1_555 1_555
C33 C13 1_555 1_555
H37 C33 1_555 1_555
H38 C33 1_555 1_555
H39 C33 1_555 1_555
C34 O7 1_555 1_555
C35 C34 1_555 1_555
H40 C35 1_555 1_555
H41 C35 1_555 1_555
H42 C35 1_555 1_555
O14 H43 1_555 1_555
H44 O14 1_555 1_555
C1 C2 1_555 1_555
C4 C15 1_555 1_555
C14 C15 1_555 1_555
C29 C30 1_555 1_555

#END
