
#######################################################################
#
#                 Cambridge Crystallographic Data Centre
#                                CCDC 
#
#######################################################################
#
# If this CIF has been generated from an entry in the Cambridge 
# Structural Database, then it will include bibliographic, chemical, 
# crystal, experimental, refinement or atomic coordinate data resulting 
# from the CCDC's data processing and validation procedures.
#
#######################################################################

data_YONRAW
_chemical_compound_source        'aerial parts of Gentianella azurea'
_chemical_name_common            
'Gentirigenic acid methanol solvate monohydrate'
_chemical_formula_moiety         'C30 H50 O7,2(C1 H4 O1),H2 O1'
_chemical_name_systematic        
'3,20,24,25,28-Pentahydroxy-21,23-epoxydammaran-21-one methanol solvate monohydrate'
_symmetry_cell_setting           orthorhombic
_symmetry_space_group_name_H-M   'P 21 21 2'
_symmetry_Int_Tables_number      18
_space_group_name_Hall           'P 2 2ab'
loop_
_symmetry_equiv_pos_site_id
_symmetry_equiv_pos_as_xyz
1 x,y,z
2 -x,-y,z
3 1/2-x,1/2+y,-z
4 1/2+x,1/2-y,-z
_cell_length_a                   11.2093(3)
_cell_length_b                   38.8302(9)
_cell_length_c                   7.2838(2)
_cell_angle_alpha                90
_cell_angle_beta                 90
_cell_angle_gamma                90
_cell_volume                     3170.34
_exptl_crystal_colour            colorless
_exptl_crystal_description       block
_cell_formula_units_Z            4
loop_
_atom_site_label
_atom_site_type_symbol
_atom_site_fract_x
_atom_site_fract_y
_atom_site_fract_z
O1 O 0.2200(4) 0.11620(10) 0.5437(6)
H1 H 0.2038 0.1106 0.4351
O2 O 0.1083(4) 0.40421(12) 0.4706(6)
H2 H 0.1783 0.4097 0.4416
O3 O 0.2481(4) 0.44554(11) 0.7658(7)
O4 O 0.0557(4) 0.45874(11) 0.7675(7)
O5 O -0.1374(4) 0.44009(11) 1.0274(6)
H3 H -0.0751 0.4472 1.0791
O6 O -0.3116(4) 0.41580(10) 0.7951(6)
H4 H -0.3141 0.4081 0.9028
O7 O 0.1132(5) 0.10765(11) 0.8693(7)
H5 H 0.1551 0.0998 0.7834
C1 C 0.1336(6) 0.20912(14) 0.4486(8)
H6 H 0.0727 0.2189 0.3651
H7 H 0.2123 0.2181 0.4101
C2 C 0.1337(6) 0.16985(14) 0.4294(8)
H8 H 0.0528 0.1609 0.4558
H9 H 0.1540 0.1636 0.3013
C3 C 0.2223(5) 0.15306(14) 0.5586(8)
H10 H 0.3039 0.1609 0.5222
C4 C 0.2047(5) 0.16230(14) 0.7629(8)
C5 C 0.1964(5) 0.20231(13) 0.7767(7)
H11 H 0.2769 0.2106 0.7372
C6 C 0.1838(5) 0.21519(14) 0.9761(7)
H12 H 0.1009 0.2116 1.0190
H13 H 0.2378 0.2020 1.0572
C7 C 0.2153(5) 0.25367(14) 0.9853(8)
H14 H 0.2050 0.2617 1.1133
H15 H 0.3003 0.2566 0.9523
C8 C 0.1391(4) 0.27625(14) 0.8582(8)
C9 C 0.1383(4) 0.26078(14) 0.6598(7)
H16 H 0.2230 0.2624 0.6178
C10 C 0.1074(5) 0.22124(14) 0.6465(7)
C11 C 0.0678(5) 0.28410(14) 0.5250(8)
H17 H 0.0722 0.2741 0.4002
H18 H -0.0172 0.2845 0.5621
C12 C 0.1154(5) 0.32119(14) 0.5193(8)
H19 H 0.1961 0.3214 0.4642
H20 H 0.0625 0.3355 0.4419
C13 C 0.1208(5) 0.33601(14) 0.7109(8)
H21 H 0.0373 0.3363 0.7595
C14 C 0.1963(5) 0.31360(14) 0.8443(7)
C15 C 0.1929(5) 0.33606(14) 1.0208(8)
H22 H 0.1194 0.3315 1.0921
H23 H 0.2630 0.3313 1.0994
C16 C 0.1950(6) 0.37341(16) 0.9522(9)
H24 H 0.2732 0.3841 0.9788
H25 H 0.1319 0.3871 1.0135
C17 C 0.1729(5) 0.37211(14) 0.7416(8)
H26 H 0.2524 0.3729 0.6796
C18 C 0.0127(5) 0.27848(15) 0.9418(8)
H27 H -0.0419 0.2887 0.8521
H28 H 0.0149 0.2928 1.0525
H29 H -0.0150 0.2553 0.9737
C19 C -0.0266(5) 0.21369(15) 0.6877(8)
H30 H -0.0509 0.1926 0.6239
H31 H -0.0755 0.2330 0.6447
H32 H -0.0377 0.2107 0.8202
C20 C 0.0989(5) 0.40209(14) 0.6682(8)
C21 C 0.1466(5) 0.43683(15) 0.7408(9)
C22 C -0.0320(5) 0.40436(14) 0.7163(9)
H33 H -0.0476 0.3941 0.8385
H34 H -0.0814 0.3923 0.6237
C23 C -0.0582(5) 0.44267(14) 0.7170(9)
H35 H -0.0814 0.4502 0.5905
C24 C -0.1500(5) 0.45635(15) 0.8563(9)
H36 H -0.1343 0.4815 0.8742
C25 C -0.2813(5) 0.45225(14) 0.7992(10)
C26 C -0.3041(6) 0.46578(18) 0.6058(11)
H37 H -0.2584 0.4521 0.5173
H38 H -0.2793 0.4899 0.5983
H39 H -0.3894 0.4640 0.5774
C27 C -0.3619(7) 0.47069(17) 0.9351(12)
H40 H -0.4455 0.4666 0.9024
H41 H -0.3454 0.4955 0.9315
H42 H -0.3467 0.4619 1.0591
C28 C 0.3167(5) 0.14966(14) 0.8682(9)
H43 H 0.3011 0.1504 1.0005
H44 H 0.3845 0.1646 0.8390
H45 H 0.3351 0.1260 0.8315
C29 C 0.0949(6) 0.14367(15) 0.8417(9)
H46 H 0.0733 0.1544 0.9606
H47 H 0.0268 0.1469 0.7569
C30 C 0.3282(5) 0.31274(14) 0.7817(8)
H48 H 0.3586 0.3363 0.7719
H49 H 0.3338 0.3014 0.6618
H50 H 0.3757 0.3000 0.8717
O8 O 0.3775(16) 0.4352(4) 0.243(2)
C31 C 0.3416(6) 0.3992(3) 0.3547(12)
O9 O 0.0486(8) 0.4590(3) 0.2495(14)
C32 C 0.1587(17) 0.4734(5) 0.224(3)
O10 O 0.4496(4) 0.40325(14) 0.6841(9)
loop_
_geom_bond_atom_site_label_1
_geom_bond_atom_site_label_2
_geom_bond_site_symmetry_1
_geom_bond_site_symmetry_2
O1 H1 1_555 1_555
O2 H2 1_555 1_555
O3 C21 1_555 1_555
O4 C21 1_555 1_555
O5 H3 1_555 1_555
O6 H4 1_555 1_555
O7 H5 1_555 1_555
C1 H6 1_555 1_555
H7 C1 1_555 1_555
C2 C1 1_555 1_555
H8 C2 1_555 1_555
H9 C2 1_555 1_555
C3 O1 1_555 1_555
H10 C3 1_555 1_555
C4 C3 1_555 1_555
C5 C4 1_555 1_555
H11 C5 1_555 1_555
C6 C5 1_555 1_555
H12 C6 1_555 1_555
H13 C6 1_555 1_555
C7 C6 1_555 1_555
H14 C7 1_555 1_555
H15 C7 1_555 1_555
C8 C7 1_555 1_555
C9 C8 1_555 1_555
H16 C9 1_555 1_555
C10 C1 1_555 1_555
C11 C9 1_555 1_555
H17 C11 1_555 1_555
H18 C11 1_555 1_555
C12 C11 1_555 1_555
H19 C12 1_555 1_555
H20 C12 1_555 1_555
C13 C12 1_555 1_555
H21 C13 1_555 1_555
C14 C8 1_555 1_555
C15 C14 1_555 1_555
H22 C15 1_555 1_555
H23 C15 1_555 1_555
C16 C15 1_555 1_555
H24 C16 1_555 1_555
H25 C16 1_555 1_555
C17 C13 1_555 1_555
H26 C17 1_555 1_555
C18 C8 1_555 1_555
H27 C18 1_555 1_555
H28 C18 1_555 1_555
H29 C18 1_555 1_555
C19 C10 1_555 1_555
H30 C19 1_555 1_555
H31 C19 1_555 1_555
H32 C19 1_555 1_555
C20 O2 1_555 1_555
C21 C20 1_555 1_555
C22 C20 1_555 1_555
H33 C22 1_555 1_555
H34 C22 1_555 1_555
C23 O4 1_555 1_555
H35 C23 1_555 1_555
C24 O5 1_555 1_555
H36 C24 1_555 1_555
C25 O6 1_555 1_555
C26 C25 1_555 1_555
H37 C26 1_555 1_555
H38 C26 1_555 1_555
H39 C26 1_555 1_555
C27 C25 1_555 1_555
H40 C27 1_555 1_555
H41 C27 1_555 1_555
H42 C27 1_555 1_555
C28 C4 1_555 1_555
H43 C28 1_555 1_555
H44 C28 1_555 1_555
H45 C28 1_555 1_555
C29 O7 1_555 1_555
H46 C29 1_555 1_555
H47 C29 1_555 1_555
C30 C14 1_555 1_555
H48 C30 1_555 1_555
H49 C30 1_555 1_555
H50 C30 1_555 1_555
O8 C31 1_555 1_555
O9 C32 1_555 1_555
C2 C3 1_555 1_555
C4 C29 1_555 1_555
C5 C10 1_555 1_555
C9 C10 1_555 1_555
C13 C14 1_555 1_555
C16 C17 1_555 1_555
C17 C20 1_555 1_555
C22 C23 1_555 1_555
C23 C24 1_555 1_555
C24 C25 1_555 1_555

#END
