
#######################################################################
#
#                 Cambridge Crystallographic Data Centre
#                                CCDC 
#
#######################################################################
#
# If this CIF has been generated from an entry in the Cambridge 
# Structural Database, then it will include bibliographic, chemical, 
# crystal, experimental, refinement or atomic coordinate data resulting 
# from the CCDC's data processing and validation procedures.
#
#######################################################################

data_YOQFOB
_chemical_formula_moiety         'C32 H22 O2'
_chemical_name_systematic        
(R)-3,3'-Diphenyl-2,2'-binaphthalene-1,1'-diol
_symmetry_cell_setting           orthorhombic
_symmetry_space_group_name_H-M   'P 21 21 21'
_symmetry_Int_Tables_number      19
_space_group_name_Hall           'P 2ac 2ab'
loop_
_symmetry_equiv_pos_site_id
_symmetry_equiv_pos_as_xyz
1 x,y,z
2 1/2-x,-y,1/2+z
3 -x,1/2+y,1/2-z
4 1/2+x,1/2-y,-z
_cell_length_a                   8.3293(2)
_cell_length_b                   25.9756(4)
_cell_length_c                   32.3117(5)
_cell_angle_alpha                90
_cell_angle_beta                 90
_cell_angle_gamma                90
_cell_volume                     6990.91
_cell_formula_units_Z            12
loop_
_atom_site_label
_atom_site_type_symbol
_atom_site_fract_x
_atom_site_fract_y
_atom_site_fract_z
O1 O 0.8980(4) 0.20816(15) 0.19429(9)
H1 H 0.9033 0.2118 0.1685
O2 O 0.7108(4) 0.29429(12) 0.14447(10)
H2 H 0.6954 0.2849 0.1690
C1 C 0.6181(5) 0.19627(16) 0.17750(13)
C2 C 0.7447(5) 0.19600(17) 0.20524(14)
C3 C 0.7249(5) 0.18119(16) 0.24697(13)
C4 C 0.8558(6) 0.17992(17) 0.27490(14)
H3 H 0.9593 0.1905 0.2659
C5 C 0.8339(7) 0.16339(18) 0.31490(15)
H4 H 0.9220 0.1631 0.3336
C6 C 0.6823(8) 0.14699(19) 0.32832(16)
H5 H 0.6687 0.1348 0.3558
C7 C 0.5535(7) 0.14848(18) 0.30189(14)
H6 H 0.4509 0.1378 0.3115
C8 C 0.5710(6) 0.16561(16) 0.26076(13)
C9 C 0.4397(6) 0.16866(17) 0.23292(14)
H7 H 0.3352 0.1596 0.2422
C10 C 0.4612(5) 0.18448(16) 0.19259(13)
C11 C 0.3208(5) 0.18881(18) 0.16430(13)
C12 C 0.2885(6) 0.23453(19) 0.14317(14)
H8 H 0.3518 0.2643 0.1483
C13 C 0.1638(6) 0.2365(2) 0.11465(16)
H9 H 0.1411 0.2677 0.1004
C14 C 0.0729(6) 0.1929(2) 0.10719(17)
H10 H -0.0102 0.1940 0.0871
C15 C 0.1008(6) 0.1482(2) 0.12832(17)
H11 H 0.0359 0.1188 0.1233
C16 C 0.2238(6) 0.14583(19) 0.15712(15)
H12 H 0.2423 0.1149 0.1720
C17 C 0.6477(5) 0.20530(17) 0.13224(13)
C18 C 0.6951(5) 0.25311(17) 0.11878(14)
C19 C 0.7319(5) 0.26330(18) 0.07610(14)
C20 C 0.7929(6) 0.31103(18) 0.06285(15)
H13 H 0.8079 0.3382 0.0821
C21 C 0.8308(6) 0.3180(2) 0.02170(16)
H14 H 0.8728 0.3501 0.0127
C22 C 0.8081(6) 0.2784(2) -0.00705(16)
H15 H 0.8342 0.2838 -0.0353
C23 C 0.7486(6) 0.23188(19) 0.00543(14)
H16 H 0.7326 0.2054 -0.0144
C24 C 0.7104(6) 0.22264(18) 0.04739(14)
C25 C 0.6545(5) 0.17437(17) 0.06138(14)
H17 H 0.6362 0.1477 0.0418
C26 C 0.6257(5) 0.16493(17) 0.10286(13)
C27 C 0.5698(5) 0.11249(16) 0.11428(13)
C28 C 0.6393(6) 0.08401(18) 0.14623(14)
H18 H 0.7236 0.0987 0.1621
C29 C 0.5872(7) 0.03479(19) 0.15505(16)
H19 H 0.6364 0.0159 0.1768
C30 C 0.4640(7) 0.01286(19) 0.13250(17)
H20 H 0.4282 -0.0210 0.1387
C31 C 0.3938(7) 0.0404(2) 0.10106(16)
H21 H 0.3080 0.0257 0.0857
C32 C 0.4467(6) 0.08930(17) 0.09157(13)
H22 H 0.3987 0.1075 0.0693
O3 O 0.1801(4) 0.26150(12) 0.24676(10)
H23 H 0.1576 0.2725 0.2230
O4 O 0.3961(6) 0.3507(2) 0.19935(14)
H24 H 0.4302 0.3702 0.2181
C33 C 0.1536(5) 0.35195(18) 0.26263(13)
C34 C 0.1792(5) 0.30153(18) 0.27419(14)
C35 C 0.2027(6) 0.28680(19) 0.31607(14)
C36 C 0.2255(8) 0.2353(2) 0.32824(17)
H25 H 0.2296 0.2088 0.3080
C37 C 0.2418(11) 0.2233(3) 0.36939(19)
H26 H 0.2569 0.1885 0.3775
C38 C 0.2366(12) 0.2619(3) 0.3995(2)
H27 H 0.2438 0.2530 0.4280
C39 C 0.2210(9) 0.3123(3) 0.38832(17)
H28 H 0.2237 0.3383 0.4090
C40 C 0.2010(6) 0.3265(2) 0.34632(15)
C41 C 0.1750(6) 0.37791(19) 0.33413(14)
H29 H 0.1750 0.4041 0.3546
C42 C 0.1498(5) 0.39127(17) 0.29361(13)
C43 C 0.1159(5) 0.44594(18) 0.28437(14)
C44 C 0.1924(6) 0.47376(19) 0.25277(15)
H30 H 0.2660 0.4567 0.2350
C45 C 0.1621(8) 0.5257(2) 0.24716(17)
H31 H 0.2172 0.5440 0.2260
C46 C 0.0537(8) 0.5509(2) 0.27165(17)
H32 H 0.0326 0.5865 0.2672
C47 C -0.0252(7) 0.5246(2) 0.30296(17)
H33 H -0.0999 0.5419 0.3203
C48 C 0.0072(6) 0.47239(19) 0.30855(15)
H34 H -0.0478 0.4543 0.3298
C49 C 0.1188(7) 0.36394(19) 0.21805(14)
C50 C 0.2427(10) 0.3643(2) 0.18928(16)
C51 C 0.2131(15) 0.3803(3) 0.1489(2)
C52 C 0.3400(14) 0.3798(3) 0.1183(2)
H35 H 0.4456 0.3686 0.1248
C53 C 0.297(2) 0.3976(6) 0.0772(3)
H36 H 0.3730 0.3969 0.0554
C54 C 0.141(3) 0.4158(7) 0.0700(4)
H37 H 0.1177 0.4297 0.0435
C55 C 0.031(2) 0.4149(3) 0.0963(3)
H38 H -0.0741 0.4257 0.0891
C56 C 0.0654(17) 0.3978(3) 0.1368(2)
C57 C -0.0628(11) 0.3964(2) 0.1661(2)
H39 H -0.1660 0.4084 0.1581
C58 C -0.0406(8) 0.37817(19) 0.20602(17)
C59 C -0.1754(7) 0.37147(19) 0.23612(17)
C60 C -0.2192(6) 0.32245(18) 0.24900(16)
H40 H -0.1608 0.2934 0.2394
C61 C -0.3473(6) 0.3156(2) 0.2757(2)
H41 H -0.3779 0.2820 0.2841
C62 C -0.4312(7) 0.3583(3) 0.2901(3)
H42 H -0.5192 0.3540 0.3085
C63 C -0.3855(8) 0.4070(3) 0.2776(3)
H43 H -0.4414 0.4363 0.2877
C64 C -0.2608(8) 0.4133(2) 0.2507(2)
H44 H -0.2321 0.4470 0.2419
O5 O 0.8307(4) 0.59906(16) 0.06373(11)
H45 H 0.8389 0.6106 0.0395
O6 O 0.6175(7) 0.69526(14) 0.02691(11)
H46 H 0.6082 0.6791 0.0493
C65 C 0.5563(6) 0.58929(17) 0.04183(14)
C66 C 0.6769(6) 0.58433(19) 0.07081(15)
C67 C 0.6484(7) 0.56096(19) 0.11041(15)
C68 C 0.7707(7) 0.5565(2) 0.14033(17)
H47 H 0.8756 0.5691 0.1349
C69 C 0.7355(9) 0.5333(3) 0.17764(18)
H48 H 0.8157 0.5312 0.1985
C70 C 0.5832(9) 0.5129(3) 0.1850(2)
H49 H 0.5621 0.4965 0.2108
C71 C 0.4654(8) 0.5160(2) 0.15657(18)
H50 H 0.3631 0.5013 0.1622
C72 C 0.4936(7) 0.54085(19) 0.11837(16)
C73 C 0.3687(6) 0.54740(19) 0.08857(15)
H51 H 0.2640 0.5348 0.0943
C74 C 0.3990(6) 0.57176(17) 0.05184(14)
C75 C 0.2657(6) 0.58032(19) 0.02208(15)
C76 C 0.1781(7) 0.5397(2) 0.00666(17)
H52 H 0.2019 0.5055 0.0152
C77 C 0.0538(8) 0.5486(4) -0.0217(2)
H53 H -0.0044 0.5203 -0.0327
C78 C 0.0155(8) 0.5973(4) -0.0336(2)
H54 H -0.0692 0.6030 -0.0528
C79 C 0.1003(8) 0.6384(3) -0.01778(18)
H55 H 0.0735 0.6726 -0.0257
C80 C 0.2245(7) 0.6296(2) 0.00968(17)
H56 H 0.2831 0.6581 0.0203
C81 C 0.5942(6) 0.60973(17) -0.00015(14)
C82 C 0.6231(7) 0.66099(19) -0.00547(15)
C83 C 0.6546(8) 0.6835(2) -0.04469(16)
C84 C 0.6864(12) 0.7360(2) -0.0500(2)
H57 H 0.6870 0.7581 -0.0266
C85 C 0.7166(14) 0.7555(3) -0.0884(2)
H58 H 0.7396 0.7911 -0.0916
C86 C 0.7138(12) 0.7238(3) -0.1228(2)
H59 H 0.7291 0.7382 -0.1495
C87 C 0.6893(9) 0.6721(2) -0.11896(17)
H60 H 0.6959 0.6505 -0.1426
C88 C 0.6540(7) 0.65037(19) -0.07973(15)
C89 C 0.6215(6) 0.59781(17) -0.07440(14)
H61 H 0.6183 0.5760 -0.0980
C90 C 0.5944(5) 0.57701(17) -0.03613(13)
C91 C 0.5630(5) 0.52091(18) -0.03206(14)
C92 C 0.4529(6) 0.49632(19) -0.05804(15)
H62 H 0.3954 0.5158 -0.0780
C93 C 0.4271(7) 0.4444(2) -0.05500(17)
H63 H 0.3517 0.4284 -0.0730
C94 C 0.5082(8) 0.4147(2) -0.02640(17)
H64 H 0.4895 0.3787 -0.0245
C95 C 0.6164(7) 0.4384(2) -0.00079(18)
H65 H 0.6733 0.4186 0.0191
C96 C 0.6435(6) 0.49028(18) -0.00354(15)
H66 H 0.7193 0.5058 0.0145
loop_
_geom_bond_atom_site_label_1
_geom_bond_atom_site_label_2
_geom_bond_site_symmetry_1
_geom_bond_site_symmetry_2
O1 H1 1_555 1_555
O2 H2 1_555 1_555
C1 C2 1_555 1_555
C2 O1 1_555 1_555
C3 C2 1_555 1_555
C4 C3 1_555 1_555
H3 C4 1_555 1_555
C5 C4 1_555 1_555
H4 C5 1_555 1_555
C6 C5 1_555 1_555
H5 C6 1_555 1_555
C7 C6 1_555 1_555
H6 C7 1_555 1_555
C8 C3 1_555 1_555
C9 C8 1_555 1_555
H7 C9 1_555 1_555
C10 C1 1_555 1_555
C11 C10 1_555 1_555
C12 C11 1_555 1_555
H8 C12 1_555 1_555
C13 C12 1_555 1_555
H9 C13 1_555 1_555
C14 C13 1_555 1_555
H10 C14 1_555 1_555
C15 C14 1_555 1_555
H11 C15 1_555 1_555
C16 C11 1_555 1_555
H12 C16 1_555 1_555
C17 C1 1_555 1_555
C18 O2 1_555 1_555
C19 C18 1_555 1_555
C20 C19 1_555 1_555
H13 C20 1_555 1_555
C21 C20 1_555 1_555
H14 C21 1_555 1_555
C22 C21 1_555 1_555
H15 C22 1_555 1_555
C23 C22 1_555 1_555
H16 C23 1_555 1_555
C24 C19 1_555 1_555
C25 C24 1_555 1_555
H17 C25 1_555 1_555
C26 C17 1_555 1_555
C27 C26 1_555 1_555
C28 C27 1_555 1_555
H18 C28 1_555 1_555
C29 C28 1_555 1_555
H19 C29 1_555 1_555
C30 C29 1_555 1_555
H20 C30 1_555 1_555
C31 C30 1_555 1_555
H21 C31 1_555 1_555
C32 C27 1_555 1_555
H22 C32 1_555 1_555
O3 H23 1_555 1_555
O4 H24 1_555 1_555
C33 C34 1_555 1_555
C34 O3 1_555 1_555
C35 C34 1_555 1_555
C36 C35 1_555 1_555
H25 C36 1_555 1_555
C37 C36 1_555 1_555
H26 C37 1_555 1_555
C38 C37 1_555 1_555
H27 C38 1_555 1_555
C39 C38 1_555 1_555
H28 C39 1_555 1_555
C40 C35 1_555 1_555
C41 C40 1_555 1_555
H29 C41 1_555 1_555
C42 C33 1_555 1_555
C43 C42 1_555 1_555
C44 C43 1_555 1_555
H30 C44 1_555 1_555
C45 C44 1_555 1_555
H31 C45 1_555 1_555
C46 C45 1_555 1_555
H32 C46 1_555 1_555
C47 C46 1_555 1_555
H33 C47 1_555 1_555
C48 C43 1_555 1_555
H34 C48 1_555 1_555
C49 C33 1_555 1_555
C50 O4 1_555 1_555
C51 C50 1_555 1_555
C52 C51 1_555 1_555
H35 C52 1_555 1_555
C53 C52 1_555 1_555
H36 C53 1_555 1_555
C54 C53 1_555 1_555
H37 C54 1_555 1_555
C55 C54 1_555 1_555
H38 C55 1_555 1_555
C56 C51 1_555 1_555
C57 C56 1_555 1_555
H39 C57 1_555 1_555
C58 C49 1_555 1_555
C59 C58 1_555 1_555
C60 C59 1_555 1_555
H40 C60 1_555 1_555
C61 C60 1_555 1_555
H41 C61 1_555 1_555
C62 C61 1_555 1_555
H42 C62 1_555 1_555
C63 C62 1_555 1_555
H43 C63 1_555 1_555
C64 C59 1_555 1_555
H44 C64 1_555 1_555
O5 H45 1_555 1_555
O6 H46 1_555 1_555
C65 C66 1_555 1_555
C66 O5 1_555 1_555
C67 C66 1_555 1_555
C68 C67 1_555 1_555
H47 C68 1_555 1_555
C69 C68 1_555 1_555
H48 C69 1_555 1_555
C70 C69 1_555 1_555
H49 C70 1_555 1_555
C71 C70 1_555 1_555
H50 C71 1_555 1_555
C72 C67 1_555 1_555
C73 C72 1_555 1_555
H51 C73 1_555 1_555
C74 C65 1_555 1_555
C75 C74 1_555 1_555
C76 C75 1_555 1_555
H52 C76 1_555 1_555
C77 C76 1_555 1_555
H53 C77 1_555 1_555
C78 C77 1_555 1_555
H54 C78 1_555 1_555
C79 C78 1_555 1_555
H55 C79 1_555 1_555
C80 C75 1_555 1_555
H56 C80 1_555 1_555
C81 C65 1_555 1_555
C82 O6 1_555 1_555
C83 C82 1_555 1_555
C84 C83 1_555 1_555
H57 C84 1_555 1_555
C85 C84 1_555 1_555
H58 C85 1_555 1_555
C86 C85 1_555 1_555
H59 C86 1_555 1_555
C87 C86 1_555 1_555
H60 C87 1_555 1_555
C88 C83 1_555 1_555
C89 C88 1_555 1_555
H61 C89 1_555 1_555
C90 C81 1_555 1_555
C91 C90 1_555 1_555
C92 C91 1_555 1_555
H62 C92 1_555 1_555
C93 C92 1_555 1_555
H63 C93 1_555 1_555
C94 C93 1_555 1_555
H64 C94 1_555 1_555
C95 C94 1_555 1_555
H65 C95 1_555 1_555
C96 C91 1_555 1_555
H66 C96 1_555 1_555
C7 C8 1_555 1_555
C9 C10 1_555 1_555
C15 C16 1_555 1_555
C17 C18 1_555 1_555
C23 C24 1_555 1_555
C25 C26 1_555 1_555
C31 C32 1_555 1_555
C39 C40 1_555 1_555
C41 C42 1_555 1_555
C47 C48 1_555 1_555
C49 C50 1_555 1_555
C55 C56 1_555 1_555
C57 C58 1_555 1_555
C63 C64 1_555 1_555
C71 C72 1_555 1_555
C73 C74 1_555 1_555
C79 C80 1_555 1_555
C81 C82 1_555 1_555
C87 C88 1_555 1_555
C89 C90 1_555 1_555
C95 C96 1_555 1_555

#END
