
#######################################################################
#
#                 Cambridge Crystallographic Data Centre
#                                CCDC 
#
#######################################################################
#
# If this CIF has been generated from an entry in the Cambridge 
# Structural Database, then it will include bibliographic, chemical, 
# crystal, experimental, refinement or atomic coordinate data resulting 
# from the CCDC's data processing and validation procedures.
#
#######################################################################

data_YOQVOQ
_chemical_formula_moiety         'C15 H18 O4,2(H2 O1)'
_chemical_name_systematic        
"3',4'-Dihydroxy-2-(2-hydroxy-2-propanyl)-3',4'-dihydro-1'H-spiro[cyclopropane-1,2'-naphthalen]-1'-one dihydrate"
_symmetry_cell_setting           monoclinic
_symmetry_space_group_name_H-M   'P 21/c'
_symmetry_Int_Tables_number      14
_space_group_name_Hall           '-P 2ybc'
loop_
_symmetry_equiv_pos_site_id
_symmetry_equiv_pos_as_xyz
1 x,y,z
2 -x,1/2+y,1/2-z
3 -x,-y,-z
4 x,1/2-y,1/2+z
_cell_length_a                   14.751(11)
_cell_length_b                   6.363(5)
_cell_length_c                   19.945(11)
_cell_angle_alpha                90
_cell_angle_beta                 127.43(4)
_cell_angle_gamma                90
_cell_volume                     1486.59
_exptl_crystal_colour            colorless
_exptl_crystal_description       block
_chemical_melting_point          71-74deg.C
_cell_formula_units_Z            4
loop_
_atom_site_label
_atom_site_type_symbol
_atom_site_fract_x
_atom_site_fract_y
_atom_site_fract_z
C1 C 0.3934(3) -0.0270(7) 0.3779(3)
H1 H 0.4506 -0.0239 0.3692
H2 H 0.3924 -0.1633 0.3981
H3 H 0.4107 0.0775 0.4189
C2 C 0.2768(3) 0.0187(6) 0.2948(2)
C3 C 0.2481(4) -0.1403(7) 0.2272(3)
H4 H 0.1737 -0.1106 0.1759
H5 H 0.2489 -0.2795 0.2461
H6 H 0.3037 -0.1309 0.2169
C4 C 0.1846(3) -0.0004(5) 0.3070(2)
H7 H 0.1627 -0.1465 0.3059
C5 C 0.0877(3) 0.1461(7) 0.2689(2)
H8 H 0.0127 0.0865 0.2434
H9 H 0.0879 0.2687 0.2401
C6 C 0.1731(3) 0.1410(6) 0.3644(2)
C7 C 0.1346(3) 0.0339(5) 0.4101(2)
H10 H 0.0978 -0.0993 0.3816
C8 C 0.2361(3) -0.0121(5) 0.5013(2)
H11 H 0.2853 -0.1129 0.5001
C9 C 0.3054(3) 0.1817(5) 0.5450(2)
C10 C 0.3183(3) 0.3316(5) 0.5013(2)
C11 C 0.2519(3) 0.3205(6) 0.4078(2)
C12 C 0.3926(3) 0.5013(6) 0.5437(2)
H12 H 0.4022 0.5993 0.5139
C13 C 0.4513(3) 0.5230(7) 0.6294(3)
H13 H 0.5013 0.6349 0.6580
C14 C 0.4352(3) 0.3757(8) 0.6727(2)
H14 H 0.4746 0.3900 0.7306
C15 C 0.3631(3) 0.2123(7) 0.6318(2)
H15 H 0.3516 0.1184 0.6617
O1 O 0.2781(2) 0.2157(5) 0.26306(15)
H16 H 0.2843 0.3092 0.2939
O2 O 0.0539(2) 0.1628(4) 0.40711(18)
H17 H 0.0077 0.0886 0.4062
O3 O 0.2043(2) -0.1029(4) 0.54805(16)
H18 H 0.1778 -0.2202 0.5293
O4 O 0.2655(3) 0.4533(5) 0.37139(17)
O5 O 0.0970(2) 0.3758(5) 0.10195(19)
H21 H 0.156(3) 0.310(7) 0.151(2)
H22 H 0.037(4) 0.419(11) 0.103(4)
O6 O 0.0757(3) 0.5662(7) 0.4670(4)
H19 H 0.107(8) 0.433(8) 0.490(6)
H20 H 0.044(5) 0.633(9) 0.488(4)
loop_
_geom_bond_atom_site_label_1
_geom_bond_atom_site_label_2
_geom_bond_site_symmetry_1
_geom_bond_site_symmetry_2
C1 H1 1_555 1_555
H2 C1 1_555 1_555
H3 C1 1_555 1_555
C2 C1 1_555 1_555
C3 C2 1_555 1_555
H4 C3 1_555 1_555
H5 C3 1_555 1_555
H6 C3 1_555 1_555
C4 C2 1_555 1_555
H7 C4 1_555 1_555
C5 C4 1_555 1_555
H8 C5 1_555 1_555
H9 C5 1_555 1_555
C6 C4 1_555 1_555
C7 C6 1_555 1_555
H10 C7 1_555 1_555
C8 C7 1_555 1_555
H11 C8 1_555 1_555
C9 C8 1_555 1_555
C10 C9 1_555 1_555
C11 C6 1_555 1_555
C12 C10 1_555 1_555
H12 C12 1_555 1_555
C13 C12 1_555 1_555
H13 C13 1_555 1_555
C14 C13 1_555 1_555
H14 C14 1_555 1_555
C15 C9 1_555 1_555
H15 C15 1_555 1_555
O1 C2 1_555 1_555
H16 O1 1_555 1_555
O2 C7 1_555 1_555
H17 O2 1_555 1_555
O3 C8 1_555 1_555
H18 O3 1_555 1_555
O4 C11 1_555 1_555
O5 H21 1_555 1_555
O6 H19 1_555 1_555
H20 O6 1_555 1_555
H22 O5 1_555 1_555
C5 C6 1_555 1_555
C10 C11 1_555 1_555
C14 C15 1_555 1_555

#END
