
#######################################################################
#
#                 Cambridge Crystallographic Data Centre
#                                CCDC 
#
#######################################################################
#
# If this CIF has been generated from an entry in the Cambridge 
# Structural Database, then it will include bibliographic, chemical, 
# crystal, experimental, refinement or atomic coordinate data resulting 
# from the CCDC's data processing and validation procedures.
#
#######################################################################

data_YORFOC
_chemical_compound_source        'Plants of Thapsia genus'
_chemical_name_common            '(rac)-basiliolide B'
_chemical_formula_moiety         'C21 H24 O7'
_chemical_name_systematic        
'methyl 10-methoxy-2,6-dimethyl-8,15-dioxo-6-vinyl-9,14-dioxatetracyclo[10.3.1.0^3,13^.0^7,13^]hexadeca-10,12(16)-diene-2-carboxylate'
_chemical_properties_biological  
'Basiliolides are potent inhibitors against sacroendoplasmic reticulum Ca2+-ATPases'
_symmetry_cell_setting           orthorhombic
_symmetry_space_group_name_H-M   'F d d 2'
_symmetry_Int_Tables_number      43
_space_group_name_Hall           'F 2 -2d'
loop_
_symmetry_equiv_pos_site_id
_symmetry_equiv_pos_as_xyz
1 x,y,z
2 -x,-y,z
3 1/4+x,1/4-y,1/4+z
4 1/4-x,1/4+y,1/4+z
5 x,1/2+y,1/2+z
6 -x,1/2-y,1/2+z
7 1/4+x,3/4-y,3/4+z
8 1/4-x,3/4+y,3/4+z
9 1/2+x,y,1/2+z
10 1/2-x,-y,1/2+z
11 3/4+x,1/4-y,3/4+z
12 3/4-x,1/4+y,3/4+z
13 1/2+x,1/2+y,z
14 1/2-x,1/2-y,z
15 3/4+x,3/4-y,1/4+z
16 3/4-x,3/4+y,1/4+z
_cell_length_a                   21.533(4)
_cell_length_b                   30.738(6)
_cell_length_c                   11.627(2)
_cell_angle_alpha                90
_cell_angle_beta                 90
_cell_angle_gamma                90
_cell_volume                     7695.69
_exptl_crystal_colour            colorless
_exptl_crystal_description       block
_cell_formula_units_Z            16
loop_
_atom_site_label
_atom_site_type_symbol
_atom_site_fract_x
_atom_site_fract_y
_atom_site_fract_z
O1 O 0.74710(8) 0.34338(7) 0.70316(18)
O2 O 0.64745(7) 0.33614(6) 0.72093(14)
O3 O 0.56170(8) 0.29981(5) 0.74270(15)
O4 O 0.60322(9) 0.40488(6) 0.17766(17)
O5 O 0.55689(8) 0.46709(5) 0.22170(15)
O6 O 0.45494(9) 0.43212(6) 0.58813(17)
O7 O 0.51508(7) 0.37394(5) 0.56421(13)
C1 C 0.80234(12) 0.36065(12) 0.6518(3)
H1 H 0.8381 0.3495 0.6913
H2 H 0.8019 0.3918 0.6572
H3 H 0.8041 0.3522 0.5723
C2 C 0.69308(10) 0.35577(8) 0.6554(2)
C3 C 0.59657(10) 0.31547(7) 0.6747(2)
C4 C 0.59011(10) 0.31459(6) 0.54526(18)
H4 H 0.6322 0.3097 0.5159
C5 C 0.55140(10) 0.27502(7) 0.5030(2)
C6 C 0.58863(13) 0.23356(8) 0.5309(3)
H5 H 0.5904 0.2296 0.6127
H6 H 0.6300 0.2363 0.5009
H7 H 0.5687 0.2089 0.4964
C7 C 0.48640(11) 0.27278(8) 0.5543(2)
H8 H 0.4693 0.2986 0.5813
C8 C 0.45276(16) 0.23769(11) 0.5634(3)
H9 H 0.4102(16) 0.2372(10) 0.594(3)
H10 H 0.4675(15) 0.2107(12) 0.545(3)
C9 C 0.54614(12) 0.27953(8) 0.3712(2)
H11 H 0.5873 0.2778 0.3377
H12 H 0.5218 0.2555 0.3413
C10 C 0.51602(11) 0.32214(8) 0.3352(2)
H13 H 0.4755 0.3247 0.3711
H14 H 0.5103 0.3224 0.2524
C11 C 0.55692(10) 0.36054(7) 0.37108(18)
H15 H 0.5966 0.3570 0.3310
C12 C 0.53157(9) 0.40640(7) 0.33807(19)
C13 C 0.46319(11) 0.40705(9) 0.2980(2)
H16 H 0.4595 0.3917 0.2264
H17 H 0.4499 0.4366 0.2877
H18 H 0.4376 0.3932 0.3549
C14 C 0.56900(10) 0.42530(7) 0.2384(2)
C15 C 0.58349(14) 0.48690(9) 0.1192(2)
H19 H 0.5717 0.5170 0.1157
H20 H 0.5684 0.4721 0.0521
H21 H 0.6279 0.4847 0.1221
C16 C 0.53800(10) 0.43597(7) 0.4470(2)
H22 H 0.5254 0.4660 0.4311
C17 C 0.49809(11) 0.41538(7) 0.5396(2)
C18 C 0.60329(10) 0.43370(7) 0.49203(19)
H23 H 0.6289 0.4580 0.4970
C19 C 0.57153(9) 0.36012(7) 0.50151(18)
C20 C 0.62170(10) 0.39431(7) 0.52418(18)
C21 C 0.68311(10) 0.38309(7) 0.5691(2)
H24 H 0.7175 0.3960 0.5347
loop_
_geom_bond_atom_site_label_1
_geom_bond_atom_site_label_2
_geom_bond_site_symmetry_1
_geom_bond_site_symmetry_2
O1 C1 1_555 1_555
O2 C2 1_555 1_555
O3 C3 1_555 1_555
O4 C14 1_555 1_555
O5 C14 1_555 1_555
O6 C17 1_555 1_555
O7 C17 1_555 1_555
C1 H1 1_555 1_555
H2 C1 1_555 1_555
H3 C1 1_555 1_555
C2 O1 1_555 1_555
C3 O2 1_555 1_555
C4 C3 1_555 1_555
H4 C4 1_555 1_555
C5 C4 1_555 1_555
C6 C5 1_555 1_555
H5 C6 1_555 1_555
H6 C6 1_555 1_555
H7 C6 1_555 1_555
C7 C5 1_555 1_555
H8 C7 1_555 1_555
C8 C7 1_555 1_555
H9 C8 1_555 1_555
H10 C8 1_555 1_555
C9 C5 1_555 1_555
H11 C9 1_555 1_555
H12 C9 1_555 1_555
C10 C9 1_555 1_555
H13 C10 1_555 1_555
H14 C10 1_555 1_555
C11 C10 1_555 1_555
H15 C11 1_555 1_555
C12 C11 1_555 1_555
C13 C12 1_555 1_555
H16 C13 1_555 1_555
H17 C13 1_555 1_555
H18 C13 1_555 1_555
C14 C12 1_555 1_555
C15 O5 1_555 1_555
H19 C15 1_555 1_555
H20 C15 1_555 1_555
H21 C15 1_555 1_555
C16 C12 1_555 1_555
H22 C16 1_555 1_555
C17 C16 1_555 1_555
C18 C16 1_555 1_555
H23 C18 1_555 1_555
C19 O7 1_555 1_555
C20 C18 1_555 1_555
C21 C2 1_555 1_555
H24 C21 1_555 1_555
C4 C19 1_555 1_555
C11 C19 1_555 1_555
C19 C20 1_555 1_555
C20 C21 1_555 1_555

#END
