
#######################################################################
#
#                 Cambridge Crystallographic Data Centre
#                                CCDC 
#
#######################################################################
#
# If this CIF has been generated from an entry in the Cambridge 
# Structural Database, then it will include bibliographic, chemical, 
# crystal, experimental, refinement or atomic coordinate data resulting 
# from the CCDC's data processing and validation procedures.
#
#######################################################################

data_YORKIZ
_chemical_formula_moiety         'C12 H11 Br2 N1 O4'
_chemical_name_systematic        
cis,cis-2,5-Dibromo-1-cyclopentyl-4-nitrobenzoate
_symmetry_cell_setting           monoclinic
_symmetry_space_group_name_H-M   'P 21/c'
_symmetry_Int_Tables_number      14
_space_group_name_Hall           '-P 2ybc'
loop_
_symmetry_equiv_pos_site_id
_symmetry_equiv_pos_as_xyz
1 x,y,z
2 -x,1/2+y,1/2-z
3 -x,-y,-z
4 x,1/2-y,1/2+z
_cell_length_a                   6.3940(7)
_cell_length_b                   11.297(3)
_cell_length_c                   19.612(8)
_cell_angle_alpha                90
_cell_angle_beta                 94.42(2)
_cell_angle_gamma                90
_cell_volume                     1412.42
_exptl_crystal_colour            colorless
_chemical_melting_point          123-124deg.C
_cell_formula_units_Z            4
loop_
_atom_site_label
_atom_site_type_symbol
_atom_site_fract_x
_atom_site_fract_y
_atom_site_fract_z
Br1 Br 0.6293(2) 1.2202(1) 0.2525(1)
Br2 Br 1.1838(3) 0.9666(2) 0.0912(1)
C1 C 0.9673(18) 1.1103(11) 0.1862(5)
C2 C 0.8194(17) 1.0899(10) 0.2421(5)
C3 C 0.7154(20) 0.9744(11) 0.2243(7)
C4 C 0.8453(22) 0.9100(11) 0.1758(7)
C5 C 1.0455(21) 0.9865(11) 0.1750(6)
O1 O 0.8469(11) 1.1529(7) 0.1267(4)
C6 C 0.9107(20) 1.2519(11) 0.0961(6)
O2 O 1.0681(14) 1.3059(9) 0.1131(5)
C7 C 0.7554(16) 1.2890(9) 0.0402(5)
C8 C 0.5510(18) 1.2444(10) 0.0324(6)
C9 C 0.4090(18) 1.2904(10) -0.0208(5)
C10 C 0.4828(20) 1.3732(10) -0.0625(5)
C11 C 0.6832(20) 1.4191(11) -0.0574(6)
C12 C 0.8159(20) 1.3732(11) -0.0058(5)
N1 N 0.3233(21) 1.4186(11) -0.1171(5)
O3 O 0.3815(16) 1.4989(11) -0.1513(5)
O4 O 0.1485(16) 1.3763(10) -0.1202(5)
loop_
_geom_bond_atom_site_label_1
_geom_bond_atom_site_label_2
_geom_bond_site_symmetry_1
_geom_bond_site_symmetry_2
Br1 C2 1_555 1_555
Br2 C5 1_555 1_555
C1 C2 1_555 1_555
C2 C3 1_555 1_555
C3 C4 1_555 1_555
C4 C5 1_555 1_555
C5 C1 1_555 1_555
O1 C1 1_555 1_555
C6 O1 1_555 1_555
O2 C6 1_555 1_555
C7 C6 1_555 1_555
C8 C7 1_555 1_555
C9 C8 1_555 1_555
C10 C9 1_555 1_555
C11 C10 1_555 1_555
C12 C7 1_555 1_555
N1 C10 1_555 1_555
O3 N1 1_555 1_555
O4 N1 1_555 1_555
C11 C12 1_555 1_555

#END
