
#######################################################################
#
#                 Cambridge Crystallographic Data Centre
#                                CCDC 
#
#######################################################################
#
# If this CIF has been generated from an entry in the Cambridge 
# Structural Database, then it will include bibliographic, chemical, 
# crystal, experimental, refinement or atomic coordinate data resulting 
# from the CCDC's data processing and validation procedures.
#
#######################################################################

data_YORWUZ
_chemical_formula_moiety         'C23 H20 B1 F2 N3 S1'
_chemical_name_systematic        
4-(1,1-Difluoro-3-phenyl-1H-2\l^5^,1\l^5^-[1,3,2]diazaborinino[6,1-b][1,3]benzothiazol-2-yl)-N,N-dimethylaniline
_symmetry_cell_setting           orthorhombic
_symmetry_space_group_name_H-M   'P b c a'
_symmetry_Int_Tables_number      61
_space_group_name_Hall           '-P 2ac 2ab'
loop_
_symmetry_equiv_pos_site_id
_symmetry_equiv_pos_as_xyz
1 x,y,z
2 1/2-x,-y,1/2+z
3 1/2+x,1/2-y,-z
4 -x,1/2+y,1/2-z
5 -x,-y,-z
6 1/2+x,y,1/2-z
7 1/2-x,1/2+y,z
8 x,1/2-y,1/2+z
_cell_length_a                   15.8955(3)
_cell_length_b                   9.83109(15)
_cell_length_c                   26.4038(6)
_cell_angle_alpha                90
_cell_angle_beta                 90
_cell_angle_gamma                90
_cell_volume                     4126.12
_exptl_crystal_colour            yellow
_exptl_crystal_description       block
_cell_formula_units_Z            8
loop_
_atom_site_label
_atom_site_type_symbol
_atom_site_fract_x
_atom_site_fract_y
_atom_site_fract_z
S1 S 0.30863(4) 1.21293(5) 0.66230(2)
B1 B 0.44065(14) 0.9097(2) 0.59357(8)
F1 F 0.52232(7) 0.94698(12) 0.58088(4)
F2 F 0.40246(9) 0.85122(12) 0.55222(4)
N1 N 0.39091(9) 1.03921(15) 0.60901(6)
N2 N 0.44200(10) 0.81127(14) 0.63928(6)
N3 N 0.65407(11) 0.36891(17) 0.59292(7)
C1 C 0.32824(12) 1.25150(19) 0.59875(8)
C2 C 0.30309(13) 1.3654(2) 0.57143(9)
H1 H 0.2720 1.4344 0.5866
C3 C 0.32562(14) 1.3728(2) 0.52111(9)
H2 H 0.3096 1.4480 0.5020
C4 C 0.37182(14) 1.2700(2) 0.49859(9)
H3 H 0.3869 1.2781 0.4647
C5 C 0.39596(13) 1.1561(2) 0.52521(8)
H4 H 0.4265 1.0871 0.5096
C6 C 0.37351(11) 1.14705(18) 0.57585(7)
C7 C 0.36041(12) 1.05769(18) 0.65588(7)
C8 C 0.36783(13) 0.96150(19) 0.69376(7)
H5 H 0.3452 0.9789 0.7256
C9 C 0.40877(12) 0.83914(19) 0.68480(7)
C10 C 0.41198(12) 0.73790(19) 0.72678(7)
C11 C 0.44149(13) 0.7777(2) 0.77413(8)
H6 H 0.4618 0.8655 0.7788
C12 C 0.44074(15) 0.6875(2) 0.81404(8)
H7 H 0.4621 0.7140 0.8453
C13 C 0.40874(15) 0.5585(2) 0.80803(9)
H8 H 0.4071 0.4987 0.8353
C14 C 0.37909(14) 0.5186(2) 0.76132(9)
H9 H 0.3572 0.4316 0.7571
C15 C 0.38166(13) 0.6068(2) 0.72067(8)
H10 H 0.3630 0.5782 0.6891
C16 C 0.49336(11) 0.69158(17) 0.63117(7)
C17 C 0.56980(12) 0.67510(18) 0.65556(7)
H11 H 0.5862 0.7376 0.6801
C18 C 0.62213(12) 0.56738(19) 0.64401(7)
H12 H 0.6727 0.5577 0.6614
C19 C 0.60049(12) 0.47226(18) 0.60658(7)
C20 C 0.52152(12) 0.48758(19) 0.58377(7)
H13 H 0.5035 0.4235 0.5602
C21 C 0.46998(12) 0.59578(19) 0.59549(7)
H14 H 0.4185 0.6046 0.5791
C22 C 0.73550(16) 0.3564(3) 0.61623(11)
H15 H 0.7683 0.4360 0.6089
H16 H 0.7636 0.2775 0.6031
H17 H 0.7289 0.3473 0.6522
C23 C 0.63191(17) 0.2732(2) 0.55363(10)
H18 H 0.5836 0.2216 0.5640
H19 H 0.6783 0.2127 0.5477
H20 H 0.6191 0.3216 0.5230
loop_
_geom_bond_atom_site_label_1
_geom_bond_atom_site_label_2
_geom_bond_site_symmetry_1
_geom_bond_site_symmetry_2
S1 C1 1_555 1_555
B1 F1 1_555 1_555
F2 B1 1_555 1_555
N1 B1 1_555 1_555
N2 B1 1_555 1_555
N3 C19 1_555 1_555
C1 C2 1_555 1_555
C2 H1 1_555 1_555
C3 C2 1_555 1_555
H2 C3 1_555 1_555
C4 C3 1_555 1_555
H3 C4 1_555 1_555
C5 C4 1_555 1_555
H4 C5 1_555 1_555
C6 N1 1_555 1_555
C7 S1 1_555 1_555
C8 C7 1_555 1_555
H5 C8 1_555 1_555
C9 N2 1_555 1_555
C10 C9 1_555 1_555
C11 C10 1_555 1_555
H6 C11 1_555 1_555
C12 C11 1_555 1_555
H7 C12 1_555 1_555
C13 C12 1_555 1_555
H8 C13 1_555 1_555
C14 C13 1_555 1_555
H9 C14 1_555 1_555
C15 C10 1_555 1_555
H10 C15 1_555 1_555
C16 N2 1_555 1_555
C17 C16 1_555 1_555
H11 C17 1_555 1_555
C18 C17 1_555 1_555
H12 C18 1_555 1_555
C19 C18 1_555 1_555
C20 C19 1_555 1_555
H13 C20 1_555 1_555
C21 C16 1_555 1_555
H14 C21 1_555 1_555
C22 N3 1_555 1_555
H15 C22 1_555 1_555
H16 C22 1_555 1_555
H17 C22 1_555 1_555
C23 N3 1_555 1_555
H18 C23 1_555 1_555
H19 C23 1_555 1_555
H20 C23 1_555 1_555
N1 C7 1_555 1_555
C1 C6 1_555 1_555
C5 C6 1_555 1_555
C8 C9 1_555 1_555
C14 C15 1_555 1_555
C20 C21 1_555 1_555

#END
