
#######################################################################
#
#                 Cambridge Crystallographic Data Centre
#                                CCDC 
#
#######################################################################
#
# If this CIF has been generated from an entry in the Cambridge 
# Structural Database, then it will include bibliographic, chemical, 
# crystal, experimental, refinement or atomic coordinate data resulting 
# from the CCDC's data processing and validation procedures.
#
#######################################################################

data_YOTMIE
_chemical_formula_moiety         'C33 H25 N2 1+,F6 P1 1-'
_chemical_name_systematic        
'3-(9-Anthrylmethyl)-1-benzyl-1H-perimidin-3-ium hexafluorophosphate'
_symmetry_cell_setting           triclinic
_symmetry_space_group_name_H-M   'P -1'
_symmetry_Int_Tables_number      2
_space_group_name_Hall           '-P 1'
loop_
_symmetry_equiv_pos_site_id
_symmetry_equiv_pos_as_xyz
1 x,y,z
2 -x,-y,-z
_cell_length_a                   9.9596(13)
_cell_length_b                   11.8644(17)
_cell_length_c                   11.8994(12)
_cell_angle_alpha                94.436(4)
_cell_angle_beta                 95.159(3)
_cell_angle_gamma                110.399(6)
_cell_volume                     1303.64
_exptl_crystal_colour            yellow
_exptl_crystal_description       prism
_cell_formula_units_Z            2
_exptl_crystal_recrystallization_method acetonitrile
loop_
_atom_site_label
_atom_site_type_symbol
_atom_site_fract_x
_atom_site_fract_y
_atom_site_fract_z
N1 N 0.65525(14) 0.26739(12) 0.34502(11)
N2 N 0.76633(15) 0.21452(12) 0.19570(11)
C1 C 0.7929(2) 0.54158(17) 0.41449(17)
H1 H 0.8104 0.5239 0.3391
C2 C 0.8809(2) 0.64882(17) 0.47870(18)
H2 H 0.9593 0.7036 0.4478
C3 C 0.8547(2) 0.67608(17) 0.58745(17)
H3 H 0.9134 0.7505 0.6308
C4 C 0.7426(2) 0.59450(16) 0.63322(16)
H4 H 0.7254 0.6122 0.7087
C5 C 0.65546(19) 0.48705(16) 0.56896(15)
H5 H 0.5785 0.4316 0.6007
C6 C 0.67932(18) 0.45972(15) 0.45940(15)
C7 C 0.57901(18) 0.34585(15) 0.38640(15)
H6 H 0.5035 0.2998 0.4312
H7 H 0.5306 0.3689 0.3204
C8 C 0.68755(18) 0.18549(14) 0.41469(14)
C9 C 0.64948(18) 0.17407(15) 0.52252(14)
H8 H 0.6024 0.2235 0.5550
C10 C 0.68127(19) 0.08799(16) 0.58429(16)
H9 H 0.6532 0.0783 0.6582
C11 C 0.75186(19) 0.01810(16) 0.53968(16)
H10 H 0.7727 -0.0389 0.5832
C12 C 0.79414(19) 0.02947(15) 0.43000(15)
C13 C 0.86924(19) -0.03935(15) 0.38004(16)
H11 H 0.8926 -0.0969 0.4213
C14 C 0.90839(19) -0.02426(15) 0.27382(16)
H12 H 0.9593 -0.0712 0.2427
C15 C 0.87524(18) 0.05926(14) 0.20896(15)
H13 H 0.9025 0.0684 0.1348
C16 C 0.80270(17) 0.12715(14) 0.25529(14)
C17 C 0.69340(17) 0.27509(14) 0.24203(14)
H14 H 0.6660 0.3287 0.1978
C18 C 0.76120(17) 0.11481(14) 0.36533(14)
C19 C 0.81402(19) 0.23771(15) 0.08085(14)
H15 H 0.7622 0.1649 0.0260
H16 H 0.9186 0.2525 0.0851
C20 C 0.78569(18) 0.34486(15) 0.03857(14)
C21 C 0.67085(18) 0.32839(15) -0.04710(14)
C22 C 0.58415(19) 0.21358(15) -0.10874(15)
H17 H 0.6033 0.1432 -0.0922
C23 C 0.4749(2) 0.20365(16) -0.19052(15)
H18 H 0.4210 0.1267 -0.2316
C24 C 0.4395(2) 0.30512(17) -0.21595(16)
H19 H 0.3605 0.2955 -0.2716
C25 C 0.51861(19) 0.41642(17) -0.16064(15)
H20 H 0.4944 0.4843 -0.1780
C26 C 0.63810(19) 0.43274(15) -0.07648(14)
C27 C 0.72088(18) 0.54694(15) -0.02117(14)
H21 H 0.6969 0.6148 -0.0393
C28 C 0.83807(18) 0.56432(15) 0.06025(14)
C29 C 0.92430(19) 0.68278(15) 0.11489(15)
H22 H 0.9021 0.7508 0.0948
C30 C 1.0374(2) 0.69881(16) 0.19508(16)
H23 H 1.0940 0.7779 0.2304
C31 C 1.07145(19) 0.59810(16) 0.22627(15)
H24 H 1.1508 0.6104 0.2825
C32 C 0.99184(18) 0.48391(15) 0.17669(14)
H25 H 1.0161 0.4177 0.1994
C33 C 0.87223(18) 0.46190(15) 0.09092(14)
F1 F 0.40915(11) 0.24779(9) 0.12667(9)
F2 F 0.2510(4) 0.1531(2) 0.2443(3)
F3 F 0.1733(2) 0.1364(2) 0.0581(3)
F4 F 0.3399(3) 0.05825(18) 0.01761(18)
F5 F 0.4188(2) 0.07577(17) 0.2026(2)
F6 F 0.18320(13) -0.02144(10) 0.13375(11)
P1 P 0.29507(5) 0.11278(4) 0.12934(4)
F7? F 0.3311(7) 0.1323(6) 0.2590(4)
F8? F 0.1746(4) 0.1825(3) 0.1473(5)
F9? F 0.2570(6) 0.1275(4) -0.0041(3)
F10? F 0.4147(6) 0.0736(4) 0.1032(8)
loop_
_geom_bond_atom_site_label_1
_geom_bond_atom_site_label_2
_geom_bond_site_symmetry_1
_geom_bond_site_symmetry_2
N1 C7 1_555 1_555
N2 C16 1_555 1_555
C1 H1 1_555 1_555
C2 C1 1_555 1_555
H2 C2 1_555 1_555
C3 C2 1_555 1_555
H3 C3 1_555 1_555
C4 C3 1_555 1_555
H4 C4 1_555 1_555
C5 C4 1_555 1_555
H5 C5 1_555 1_555
C6 C1 1_555 1_555
C7 C6 1_555 1_555
H6 C7 1_555 1_555
H7 C7 1_555 1_555
C8 N1 1_555 1_555
C9 C8 1_555 1_555
H8 C9 1_555 1_555
C10 C9 1_555 1_555
H9 C10 1_555 1_555
C11 C10 1_555 1_555
H10 C11 1_555 1_555
C12 C11 1_555 1_555
C13 C12 1_555 1_555
H11 C13 1_555 1_555
C14 C13 1_555 1_555
H12 C14 1_555 1_555
C15 C14 1_555 1_555
H13 C15 1_555 1_555
C16 C15 1_555 1_555
C17 N1 1_555 1_555
H14 C17 1_555 1_555
C18 C8 1_555 1_555
C19 N2 1_555 1_555
H15 C19 1_555 1_555
H16 C19 1_555 1_555
C20 C19 1_555 1_555
C21 C20 1_555 1_555
C22 C21 1_555 1_555
H17 C22 1_555 1_555
C23 C22 1_555 1_555
H18 C23 1_555 1_555
C24 C23 1_555 1_555
H19 C24 1_555 1_555
C25 C24 1_555 1_555
H20 C25 1_555 1_555
C26 C21 1_555 1_555
C27 C26 1_555 1_555
H21 C27 1_555 1_555
C28 C27 1_555 1_555
C29 C28 1_555 1_555
H22 C29 1_555 1_555
C30 C29 1_555 1_555
H23 C30 1_555 1_555
C31 C30 1_555 1_555
H24 C31 1_555 1_555
C32 C31 1_555 1_555
H25 C32 1_555 1_555
C33 C20 1_555 1_555
F1 P1 1_555 1_555
F2 P1 1_555 1_555
F3 P1 1_555 1_555
F4 P1 1_555 1_555
F5 P1 1_555 1_555
F6 P1 1_555 1_555
N2 C17 1_555 1_555
C5 C6 1_555 1_555
C12 C18 1_555 1_555
C16 C18 1_555 1_555
C25 C26 1_555 1_555
C28 C33 1_555 1_555
C32 C33 1_555 1_555

#END
