
#######################################################################
#
#                 Cambridge Crystallographic Data Centre
#                                CCDC 
#
#######################################################################
#
# If this CIF has been generated from an entry in the Cambridge 
# Structural Database, then it will include bibliographic, chemical, 
# crystal, experimental, refinement or atomic coordinate data resulting 
# from the CCDC's data processing and validation procedures.
#
#######################################################################

data_YOTZEN
_chemical_name_common            
"3,3'-((((2-Methyl-2-propanyl)oxy)carbonyl)imino)dipropanoic acid"
_chemical_formula_moiety         'C11 H19 N1 O6'
_chemical_name_systematic        
"3,3'-[(t-Butoxycarbonyl)azanediyl]dipropanoic acid"
_symmetry_cell_setting           orthorhombic
_symmetry_space_group_name_H-M   'P b c a'
_symmetry_Int_Tables_number      61
_space_group_name_Hall           '-P 2ac 2ab'
loop_
_symmetry_equiv_pos_site_id
_symmetry_equiv_pos_as_xyz
1 x,y,z
2 1/2-x,-y,1/2+z
3 1/2+x,1/2-y,-z
4 -x,1/2+y,1/2-z
5 -x,-y,-z
6 1/2+x,y,1/2-z
7 1/2-x,1/2+y,z
8 x,1/2-y,1/2+z
_cell_length_a                   10.632(2)
_cell_length_b                   14.559(3)
_cell_length_c                   18.257(4)
_cell_angle_alpha                90
_cell_angle_beta                 90
_cell_angle_gamma                90
_cell_volume                     2826.02
_exptl_crystal_colour            colorless
_exptl_crystal_description       block
_cell_formula_units_Z            8
_exptl_crystal_recrystallization_method 'cyclohexane/ethyl acetate'
loop_
_atom_site_label
_atom_site_type_symbol
_atom_site_fract_x
_atom_site_fract_y
_atom_site_fract_z
O1 O 0.1690(2) 0.18631(13) 0.36711(10)
O2 O 0.0153(3) 0.10681(16) 0.31021(11)
O3 O 0.0720(3) -0.04162(19) 0.08342(15)
H1 H 0.031(4) -0.058(3) 0.037(3)
O4 O 0.0484(3) 0.09467(16) 0.03663(14)
O5 O 0.1228(3) 0.49187(18) 0.26626(13)
H2 H 0.066(5) 0.526(3) 0.238(2)
O6 O 0.1031(3) 0.39281(16) 0.17583(15)
N1 N 0.1433(3) 0.20065(16) 0.24663(13)
C1 C 0.2392(4) 0.1974(2) 0.48679(17)
H3 H 0.3223 0.1849 0.4687
H4 H 0.2328 0.1772 0.5367
H5 H 0.2233 0.2622 0.4843
C2 C 0.1697(4) 0.0451(2) 0.4391(2)
H6 H 0.1055 0.0146 0.4112
H7 H 0.1700 0.0217 0.4882
H8 H 0.2501 0.0342 0.4169
C3 C 0.0128(4) 0.1701(3) 0.4649(2)
H9 H -0.0026 0.2343 0.4571
H10 H 0.0038 0.1560 0.5160
H11 H -0.0467 0.1347 0.4371
C4 C 0.1436(4) 0.1469(2) 0.44047(16)
C5 C 0.1046(4) 0.1604(2) 0.30812(18)
C6 C 0.0904(4) 0.1711(2) 0.17744(16)
H12 H 0.1042 0.2185 0.1409
H13 H 0.0003 0.1629 0.1829
C7 C 0.1484(3) 0.0821(2) 0.15127(17)
H14 H 0.2365 0.0922 0.1400
H15 H 0.1437 0.0368 0.1902
C8 C 0.0838(4) 0.0459(3) 0.08533(19)
C9 C 0.2554(4) 0.2605(2) 0.24626(18)
H16 H 0.2844 0.2675 0.1962
H17 H 0.3220 0.2308 0.2738
C10 C 0.2318(4) 0.3548(2) 0.27853(18)
H18 H 0.1970 0.3475 0.3273
H19 H 0.3116 0.3865 0.2833
C11 C 0.1451(4) 0.4125(2) 0.2344(2)
loop_
_geom_bond_atom_site_label_1
_geom_bond_atom_site_label_2
_geom_bond_site_symmetry_1
_geom_bond_site_symmetry_2
O1 C4 1_555 1_555
O2 C5 1_555 1_555
O3 H1 1_555 1_555
O4 C8 1_555 1_555
O5 H2 1_555 1_555
O6 C11 1_555 1_555
N1 C5 1_555 1_555
C1 H3 1_555 1_555
H4 C1 1_555 1_555
H5 C1 1_555 1_555
C2 H6 1_555 1_555
H7 C2 1_555 1_555
H8 C2 1_555 1_555
C3 H9 1_555 1_555
H10 C3 1_555 1_555
H11 C3 1_555 1_555
C4 C1 1_555 1_555
C5 O1 1_555 1_555
C6 N1 1_555 1_555
H12 C6 1_555 1_555
H13 C6 1_555 1_555
C7 C6 1_555 1_555
H14 C7 1_555 1_555
H15 C7 1_555 1_555
C8 O3 1_555 1_555
C9 N1 1_555 1_555
H16 C9 1_555 1_555
H17 C9 1_555 1_555
C10 C9 1_555 1_555
H18 C10 1_555 1_555
H19 C10 1_555 1_555
C11 O5 1_555 1_555
C2 C4 1_555 1_555
C3 C4 1_555 1_555
C7 C8 1_555 1_555
C10 C11 1_555 1_555

#END
