
#######################################################################
#
#                 Cambridge Crystallographic Data Centre
#                                CCDC 
#
#######################################################################
#
# If this CIF has been generated from an entry in the Cambridge 
# Structural Database, then it will include bibliographic, chemical, 
# crystal, experimental, refinement or atomic coordinate data resulting 
# from the CCDC's data processing and validation procedures.
#
#######################################################################

data_YOVNII
_chemical_formula_moiety         'C22 H18 O6'
_chemical_name_systematic        
"Dimethyl 3,3'-((1,2-dioxoethane-1,2-diyl)di-2,1-phenylene)bisacrylate"
_symmetry_cell_setting           monoclinic
_symmetry_space_group_name_H-M   'C 2'
_symmetry_Int_Tables_number      5
_space_group_name_Hall           'C 2y'
loop_
_symmetry_equiv_pos_site_id
_symmetry_equiv_pos_as_xyz
1 x,y,z
2 -x,y,-z
3 1/2+x,1/2+y,z
4 1/2-x,1/2+y,-z
_cell_length_a                   21.979(7)
_cell_length_b                   3.8050(12)
_cell_length_c                   12.816(4)
_cell_angle_alpha                90
_cell_angle_beta                 125.112(4)
_cell_angle_gamma                90
_cell_volume                     876.766
_cell_formula_units_Z            2
loop_
_atom_site_label
_atom_site_type_symbol
_atom_site_fract_x
_atom_site_fract_y
_atom_site_fract_z
C1 C 0.2685(3) 0.9016(16) 0.6501(4)
H1 H 0.2726 1.0138 0.7227
H2 H 0.3015 1.0210 0.6332
H3 H 0.2830 0.6539 0.6700
C2 C 0.1427(3) 0.7760(18) 0.5532(4)
C3 C 0.0672(3) 0.8097(19) 0.4379(5)
H4 H 0.0273 0.7249 0.4399
C4 C 0.0509(2) 0.9570(15) 0.3269(4)
H5 H 0.0911 1.0239 0.3229
C5 C -0.0251(3) 1.0179(16) 0.2137(4)
C6 C -0.0793(3) 1.1481(16) 0.2279(5)
H6 H -0.0670 1.1830 0.3114
C7 C -0.1493(3) 1.2270(15) 0.1253(6)
H7 H -0.1855 1.3083 0.1381
C8 C -0.1680(3) 1.1891(15) 0.0030(5)
H8 H -0.2162 1.2523 -0.0683
C9 C -0.1156(2) 1.0573(13) -0.0150(5)
H9 H -0.1284 1.0300 -0.0991
C10 C -0.0447(2) 0.9654(12) 0.0886(4)
C11 C 0.0086(2) 0.7969(12) 0.0677(3)
O1 O 0.19357(16) 0.9248(12) 0.5401(3)
O2 O 0.1577(2) 0.6336(13) 0.6490(4)
O3 O 0.06292(15) 0.6351(10) 0.1488(3)
C1A C -0.2685(3) 0.9016(16) -0.6501(4)
H1A H -0.2726 1.0138 -0.7227
H2A H -0.3015 1.0210 -0.6332
H3A H -0.2830 0.6539 -0.6700
C2A C -0.1427(3) 0.7760(18) -0.5532(4)
C3A C -0.0672(3) 0.8097(19) -0.4379(5)
H4A H -0.0273 0.7249 -0.4399
C4A C -0.0509(2) 0.9570(15) -0.3269(4)
H5A H -0.0911 1.0239 -0.3229
C5A C 0.0251(3) 1.0179(16) -0.2137(4)
C6A C 0.0793(3) 1.1481(16) -0.2279(5)
H6A H 0.0670 1.1830 -0.3114
C7A C 0.1493(3) 1.2270(15) -0.1253(6)
H7A H 0.1855 1.3083 -0.1381
C8A C 0.1680(3) 1.1891(15) -0.0030(5)
H8A H 0.2162 1.2523 0.0683
C9A C 0.1156(2) 1.0573(13) 0.0150(5)
H9A H 0.1284 1.0300 0.0991
C10A C 0.0447(2) 0.9654(12) -0.0886(4)
C11A C -0.0086(2) 0.7969(12) -0.0677(3)
O1A O -0.19357(16) 0.9248(12) -0.5401(3)
O2A O -0.1577(2) 0.6336(13) -0.6490(4)
O3A O -0.06292(15) 0.6351(10) -0.1488(3)
loop_
_geom_bond_atom_site_label_1
_geom_bond_atom_site_label_2
_geom_bond_site_symmetry_1
_geom_bond_site_symmetry_2
C1 H1 1_555 1_555
H2 C1 1_555 1_555
H3 C1 1_555 1_555
C2 C3 1_555 1_555
C3 H4 1_555 1_555
C4 C3 1_555 1_555
H5 C4 1_555 1_555
C5 C4 1_555 1_555
C6 C5 1_555 1_555
H6 C6 1_555 1_555
C7 C6 1_555 1_555
H7 C7 1_555 1_555
C8 C7 1_555 1_555
H8 C8 1_555 1_555
C9 C8 1_555 1_555
H9 C9 1_555 1_555
C10 C5 1_555 1_555
C11 C10 1_555 1_555
O1 C1 1_555 1_555
O2 C2 1_555 1_555
O3 C11 1_555 1_555
C1A H1A 1_555 1_555
H2A C1A 1_555 1_555
H3A C1A 1_555 1_555
C2A C3A 1_555 1_555
C3A H4A 1_555 1_555
C4A C3A 1_555 1_555
H5A C4A 1_555 1_555
C5A C4A 1_555 1_555
C6A C5A 1_555 1_555
H6A C6A 1_555 1_555
C7A C6A 1_555 1_555
H7A C7A 1_555 1_555
C8A C7A 1_555 1_555
H8A C8A 1_555 1_555
C9A C8A 1_555 1_555
H9A C9A 1_555 1_555
C10A C5A 1_555 1_555
C11A C11 1_555 1_555
O1A C1A 1_555 1_555
O2A C2A 1_555 1_555
O3A C11A 1_555 1_555
C2 O1 1_555 1_555
C9 C10 1_555 1_555
C2A O1A 1_555 1_555
C9A C10A 1_555 1_555
C10A C11A 1_555 1_555

#END
