
#######################################################################
#
#                 Cambridge Crystallographic Data Centre
#                                CCDC 
#
#######################################################################
#
# If this CIF has been generated from an entry in the Cambridge 
# Structural Database, then it will include bibliographic, chemical, 
# crystal, experimental, refinement or atomic coordinate data resulting 
# from the CCDC's data processing and validation procedures.
#
#######################################################################

data_YOVYEP
_chemical_formula_moiety         'C29 H24 N2 O2 S1'
_chemical_name_systematic        
1-((4-methylphenyl)sulfonyl)-2,3,5-triphenyl-1,2-dihydropyrazine
_symmetry_cell_setting           monoclinic
_symmetry_space_group_name_H-M   'P 21/c'
_symmetry_Int_Tables_number      14
_space_group_name_Hall           '-P 2ybc'
loop_
_symmetry_equiv_pos_site_id
_symmetry_equiv_pos_as_xyz
1 x,y,z
2 -x,1/2+y,1/2-z
3 -x,-y,-z
4 x,1/2-y,1/2+z
_cell_length_a                   13.7344(7)
_cell_length_b                   11.3573(6)
_cell_length_c                   15.3726(9)
_cell_angle_alpha                90
_cell_angle_beta                 95.591(5)
_cell_angle_gamma                90
_cell_volume                     2386.5
_cell_formula_units_Z            4
loop_
_atom_site_label
_atom_site_type_symbol
_atom_site_fract_x
_atom_site_fract_y
_atom_site_fract_z
C1 C 0.21634(13) 0.71664(15) 0.54928(11)
H1 H 0.2210 0.6771 0.4954
C2 C 0.13186(13) 0.76641(14) 0.56635(11)
C3 C 0.19923(13) 0.84589(14) 0.69771(11)
C4 C 0.27584(13) 0.74894(14) 0.70160(10)
H2 H 0.3368 0.7787 0.7354
C5 C 0.04164(13) 0.75354(14) 0.50710(11)
C6 C 0.02541(14) 0.65544(16) 0.45265(12)
H3 H 0.0707 0.5920 0.4572
C7 C -0.05586(15) 0.64998(18) 0.39226(13)
H4 H -0.0656 0.5832 0.3552
C8 C -0.12291(15) 0.74076(18) 0.38542(13)
H5 H -0.1781 0.7371 0.3431
C9 C -0.10953(14) 0.83659(17) 0.44007(12)
H6 H -0.1560 0.8988 0.4360
C10 C -0.02860(13) 0.84267(15) 0.50090(12)
H7 H -0.0207 0.9085 0.5390
C11 C 0.20216(14) 0.93673(14) 0.76720(11)
C12 C 0.12604(15) 1.01763(15) 0.76736(12)
H8 H 0.0739 1.0151 0.7220
C13 C 0.12512(18) 1.10140(17) 0.83228(13)
H9 H 0.0726 1.1560 0.8313
C14 C 0.20024(19) 1.10592(17) 0.89843(13)
H10 H 0.1998 1.1637 0.9430
C15 C 0.27588(18) 1.02651(18) 0.89969(14)
H11 H 0.3278 1.0295 0.9453
C16 C 0.27668(16) 0.94209(17) 0.83469(12)
H12 H 0.3290 0.8872 0.8364
C17 C 0.24290(12) 0.63789(14) 0.74625(10)
C18 C 0.16433(14) 0.63995(16) 0.79627(12)
H13 H 0.1285 0.7108 0.8012
C19 C 0.13776(15) 0.53945(16) 0.83910(13)
H14 H 0.0839 0.5418 0.8734
C20 C 0.18894(14) 0.43627(16) 0.83233(12)
H15 H 0.1699 0.3672 0.8612
C21 C 0.26777(15) 0.43357(16) 0.78356(12)
H16 H 0.3038 0.3627 0.7794
C22 C 0.29471(14) 0.53386(15) 0.74058(12)
H17 H 0.3491 0.5313 0.7069
C23 C 0.40705(12) 0.91759(17) 0.58258(11)
C24 C 0.44479(15) 0.97427(19) 0.65845(13)
H18 H 0.4729 0.9298 0.7069
C25 C 0.44142(15) 1.09498(19) 0.66322(13)
H19 H 0.4665 1.1331 0.7157
C26 C 0.40218(13) 1.16255(17) 0.59305(12)
C27 C 0.36641(14) 1.10337(17) 0.51730(12)
H20 H 0.3401 1.1479 0.4682
C28 C 0.36787(13) 0.98273(17) 0.51119(12)
H21 H 0.3424 0.9445 0.4589
C29 C 0.39908(16) 1.29423(19) 0.59886(15)
H22 H 0.4291 1.3285 0.5494
H23 H 0.4351 1.3199 0.6537
H24 H 0.3309 1.3204 0.5972
N1 N 0.29784(11) 0.72322(13) 0.61149(9)
N2 N 0.12990(11) 0.84774(12) 0.63528(9)
O1 O 0.47772(10) 0.72142(13) 0.64486(9)
O2 O 0.40292(9) 0.72368(12) 0.49102(8)
S1 S 0.40521(3) 0.76332(4) 0.57933(3)
loop_
_geom_bond_atom_site_label_1
_geom_bond_atom_site_label_2
_geom_bond_site_symmetry_1
_geom_bond_site_symmetry_2
C1 H1 1_555 1_555
C2 C1 1_555 1_555
C3 C4 1_555 1_555
C4 H2 1_555 1_555
C5 C2 1_555 1_555
C6 C5 1_555 1_555
H3 C6 1_555 1_555
C7 C6 1_555 1_555
H4 C7 1_555 1_555
C8 C7 1_555 1_555
H5 C8 1_555 1_555
C9 C8 1_555 1_555
H6 C9 1_555 1_555
C10 C5 1_555 1_555
H7 C10 1_555 1_555
C11 C3 1_555 1_555
C12 C11 1_555 1_555
H8 C12 1_555 1_555
C13 C12 1_555 1_555
H9 C13 1_555 1_555
C14 C13 1_555 1_555
H10 C14 1_555 1_555
C15 C14 1_555 1_555
H11 C15 1_555 1_555
C16 C11 1_555 1_555
H12 C16 1_555 1_555
C17 C4 1_555 1_555
C18 C17 1_555 1_555
H13 C18 1_555 1_555
C19 C18 1_555 1_555
H14 C19 1_555 1_555
C20 C19 1_555 1_555
H15 C20 1_555 1_555
C21 C20 1_555 1_555
H16 C21 1_555 1_555
C22 C17 1_555 1_555
H17 C22 1_555 1_555
C23 C24 1_555 1_555
C24 H18 1_555 1_555
C25 C24 1_555 1_555
H19 C25 1_555 1_555
C26 C25 1_555 1_555
C27 C26 1_555 1_555
H20 C27 1_555 1_555
C28 C23 1_555 1_555
H21 C28 1_555 1_555
C29 C26 1_555 1_555
H22 C29 1_555 1_555
H23 C29 1_555 1_555
H24 C29 1_555 1_555
N1 C1 1_555 1_555
N2 C2 1_555 1_555
O1 S1 1_555 1_555
O2 S1 1_555 1_555
S1 C23 1_555 1_555
C3 N2 1_555 1_555
C4 N1 1_555 1_555
C9 C10 1_555 1_555
C15 C16 1_555 1_555
C21 C22 1_555 1_555
C27 C28 1_555 1_555
N1 S1 1_555 1_555

#END
