
#######################################################################
#
#                 Cambridge Crystallographic Data Centre
#                                CCDC 
#
#######################################################################
#
# If this CIF has been generated from an entry in the Cambridge 
# Structural Database, then it will include bibliographic, chemical, 
# crystal, experimental, refinement or atomic coordinate data resulting 
# from the CCDC's data processing and validation procedures.
#
#######################################################################

data_YOWJEB
_chemical_formula_moiety         'C15 H17 F2 N1 O5'
_chemical_name_systematic        
2-(1,1-difluoro-2-(morpholin-4-yl)-2-oxoethyl)-4,5-dimethoxybenzaldehyde
_symmetry_cell_setting           monoclinic
_symmetry_space_group_name_H-M   'P 21/c'
_symmetry_Int_Tables_number      14
_space_group_name_Hall           '-P 2ybc'
loop_
_symmetry_equiv_pos_site_id
_symmetry_equiv_pos_as_xyz
1 x,y,z
2 -x,1/2+y,1/2-z
3 -x,-y,-z
4 x,1/2-y,1/2+z
_cell_length_a                   10.3815(4)
_cell_length_b                   8.8496(3)
_cell_length_c                   16.7103(6)
_cell_angle_alpha                90
_cell_angle_beta                 99.942(4)
_cell_angle_gamma                90
_cell_volume                     1512.16
_exptl_crystal_colour            colorless
_exptl_crystal_description       block
_cell_formula_units_Z            4
loop_
_atom_site_label
_atom_site_type_symbol
_atom_site_fract_x
_atom_site_fract_y
_atom_site_fract_z
F1 F 0.62445(11) 0.55059(12) 0.07347(7)
F2 F 0.81560(9) 0.60521(13) 0.14174(6)
O1 O 1.02357(10) 0.84894(14) -0.06613(7)
O2 O 0.84799(12) 1.00516(14) -0.16002(7)
O3 O 0.41531(12) 0.8718(2) -0.07576(9)
O4 O 0.52459(12) 0.72939(17) 0.16510(8)
O5 O 0.85320(13) 1.05129(17) 0.32662(8)
N1 N 0.70554(12) 0.86971(18) 0.20416(8)
C1 C 0.86671(14) 0.75995(17) 0.01479(9)
H1 H 0.9308 0.7090 0.0505
C2 C 0.90097(13) 0.84091(17) -0.04912(9)
C3 C 0.80440(15) 0.92260(18) -0.10184(9)
C4 C 0.67618(15) 0.91160(19) -0.09163(9)
H2 H 0.6120 0.9624 -0.1274
C5 C 0.63975(14) 0.82593(18) -0.02883(9)
C6 C 0.73671(14) 0.75394(17) 0.02633(9)
C7 C 0.70477(14) 0.66937(18) 0.09892(9)
C8 C 0.63756(14) 0.76201(19) 0.15998(9)
C9 C 0.83312(16) 0.9311(2) 0.19448(10)
H3 H 0.8213 1.0265 0.1656
H4 H 0.8767 0.8616 0.1631
C10 C 0.91552(16) 0.9547(3) 0.27707(11)
H5 H 0.9326 0.8577 0.3038
H6 H 0.9988 0.9983 0.2706
C11 C 0.73183(17) 0.9877(2) 0.33800(10)
H7 H 0.6902 1.0548 0.3717
H8 H 0.7479 0.8920 0.3663
C12 C 0.64126(16) 0.9625(2) 0.25866(10)
H9 H 0.5625 0.9122 0.2685
H10 H 0.6164 1.0591 0.2332
C13 C 1.12040(16) 0.7509(2) -0.02221(13)
H11 H 1.0937 0.6477 -0.0319
H12 H 1.1301 0.7723 0.0348
H13 H 1.2024 0.7668 -0.0401
C14 C 0.75215(19) 1.0928(2) -0.21225(11)
H14 H 0.6883 1.0266 -0.2424
H15 H 0.7941 1.1501 -0.2492
H16 H 0.7099 1.1605 -0.1801
C15 C 0.49817(15) 0.8117(2) -0.02731(11)
H17 H 0.4721 0.7533 0.0133
loop_
_geom_bond_atom_site_label_1
_geom_bond_atom_site_label_2
_geom_bond_site_symmetry_1
_geom_bond_site_symmetry_2
F1 C7 1_555 1_555
F2 C7 1_555 1_555
O1 C2 1_555 1_555
O2 C3 1_555 1_555
O3 C15 1_555 1_555
O4 C8 1_555 1_555
O5 C10 1_555 1_555
N1 C8 1_555 1_555
C1 H1 1_555 1_555
C2 C1 1_555 1_555
C3 C2 1_555 1_555
C4 C3 1_555 1_555
H2 C4 1_555 1_555
C5 C4 1_555 1_555
C6 C1 1_555 1_555
C7 C6 1_555 1_555
C8 C7 1_555 1_555
C9 N1 1_555 1_555
H3 C9 1_555 1_555
H4 C9 1_555 1_555
C10 C9 1_555 1_555
H5 C10 1_555 1_555
H6 C10 1_555 1_555
C11 O5 1_555 1_555
H7 C11 1_555 1_555
H8 C11 1_555 1_555
C12 N1 1_555 1_555
H9 C12 1_555 1_555
H10 C12 1_555 1_555
C13 O1 1_555 1_555
H11 C13 1_555 1_555
H12 C13 1_555 1_555
H13 C13 1_555 1_555
C14 O2 1_555 1_555
H14 C14 1_555 1_555
H15 C14 1_555 1_555
H16 C14 1_555 1_555
C15 C5 1_555 1_555
H17 C15 1_555 1_555
C5 C6 1_555 1_555
C11 C12 1_555 1_555

#END
