
#######################################################################
#
#                 Cambridge Crystallographic Data Centre
#                                CCDC 
#
#######################################################################
#
# If this CIF has been generated from an entry in the Cambridge 
# Structural Database, then it will include bibliographic, chemical, 
# crystal, experimental, refinement or atomic coordinate data resulting 
# from the CCDC's data processing and validation procedures.
#
#######################################################################

data_YOXQUZ
_chemical_formula_moiety         'C15 H15 N1 O1'
_chemical_name_systematic        N-(2-ethylphenyl)benzamide
_symmetry_cell_setting           tetragonal
_symmetry_space_group_name_H-M   'P 41'
_symmetry_Int_Tables_number      76
_space_group_name_Hall           'P 4w'
loop_
_symmetry_equiv_pos_site_id
_symmetry_equiv_pos_as_xyz
1 x,y,z
2 -x,-y,1/2+z
3 -y,x,1/4+z
4 y,-x,3/4+z
_cell_length_a                   9.0756(8)
_cell_length_b                   9.0756(8)
_cell_length_c                   15.8240(14)
_cell_angle_alpha                90
_cell_angle_beta                 90
_cell_angle_gamma                90
_cell_volume                     1303.37
_exptl_crystal_colour            colorless
_exptl_crystal_description       needle
_cell_formula_units_Z            4
loop_
_atom_site_label
_atom_site_type_symbol
_atom_site_fract_x
_atom_site_fract_y
_atom_site_fract_z
C1 C 0.3557(7) 0.3380(6) 0.5862(4)
C2 C 0.2577(7) 0.2803(6) 0.6542(4)
C3 C 0.1084(8) 0.3132(9) 0.6509(6)
H1 H 0.0729 0.3739 0.6082
C4 C 0.0129(10) 0.2574(13) 0.7097(8)
H2 H -0.0870 0.2792 0.7060
C5 C 0.0624(15) 0.1717(13) 0.7723(8)
H3 H -0.0024 0.1369 0.8132
C6 C 0.2084(14) 0.1356(10) 0.7760(6)
H4 H 0.2425 0.0735 0.8184
C7 C 0.3046(8) 0.1906(8) 0.7174(4)
H5 H 0.4039 0.1660 0.7208
C8 C 0.6068(8) 0.4121(8) 0.5499(4)
C9 C 0.6007(12) 0.5594(10) 0.5255(6)
H6 H 0.5249 0.6198 0.5446
C10 C 0.7081(18) 0.6149(13) 0.4729(8)
H7 H 0.7050 0.7128 0.4557
C11 C 0.8215(13) 0.523(2) 0.4456(7)
H8 H 0.8980 0.5603 0.4130
C12 C 0.8198(12) 0.3810(15) 0.4664(8)
H9 H 0.8907 0.3182 0.4439
C13 C 0.7151(11) 0.3253(11) 0.5203(6)
C14 C 0.7311(16) 0.1701(16) 0.5534(9)
H10 H 0.8340 0.1505 0.5658
H11 H 0.6756 0.1599 0.6055
C15 C 0.680(3) 0.068(2) 0.4943(12)
H12 H 0.5900 0.1036 0.4699
H13 H 0.6629 -0.0244 0.5217
H14 H 0.7526 0.0560 0.4507
N1 N 0.4978(6) 0.3571(6) 0.6062(3)
H15 H 0.5250 0.3345 0.6567
O1 O 0.3082(5) 0.3634(5) 0.5150(3)
loop_
_geom_bond_atom_site_label_1
_geom_bond_atom_site_label_2
_geom_bond_site_symmetry_1
_geom_bond_site_symmetry_2
C1 C2 1_555 1_555
C2 C3 1_555 1_555
C3 H1 1_555 1_555
C4 C3 1_555 1_555
H2 C4 1_555 1_555
C5 C4 1_555 1_555
H3 C5 1_555 1_555
C6 C5 1_555 1_555
H4 C6 1_555 1_555
C7 C2 1_555 1_555
H5 C7 1_555 1_555
C8 C9 1_555 1_555
C9 H6 1_555 1_555
C10 C9 1_555 1_555
H7 C10 1_555 1_555
C11 C10 1_555 1_555
H8 C11 1_555 1_555
C12 C11 1_555 1_555
H9 C12 1_555 1_555
C13 C8 1_555 1_555
C14 C13 1_555 1_555
H10 C14 1_555 1_555
H11 C14 1_555 1_555
C15 C14 1_555 1_555
H12 C15 1_555 1_555
H13 C15 1_555 1_555
H14 C15 1_555 1_555
N1 C1 1_555 1_555
H15 N1 1_555 1_555
O1 C1 1_555 1_555
C6 C7 1_555 1_555
C8 N1 1_555 1_555
C12 C13 1_555 1_555

#END
