
#######################################################################
#
#                 Cambridge Crystallographic Data Centre
#                                CCDC 
#
#######################################################################
#
# If this CIF has been generated from an entry in the Cambridge 
# Structural Database, then it will include bibliographic, chemical, 
# crystal, experimental, refinement or atomic coordinate data resulting 
# from the CCDC's data processing and validation procedures.
#
#######################################################################

data_YOXVEO
_chemical_formula_moiety         'C26 H22 N2 O3'
_chemical_name_systematic        
N-(3-(4-methoxyphenyl)-2-((4-methoxyphenyl)ethynyl)-1H-indol-1-yl)acetamide
_symmetry_cell_setting           monoclinic
_symmetry_space_group_name_H-M   'P 21/n'
_symmetry_Int_Tables_number      14
_space_group_name_Hall           '-P 2yn'
loop_
_symmetry_equiv_pos_site_id
_symmetry_equiv_pos_as_xyz
1 x,y,z
2 1/2-x,1/2+y,1/2-z
3 -x,-y,-z
4 1/2+x,1/2-y,1/2+z
_cell_length_a                   9.6275(19)
_cell_length_b                   22.502(4)
_cell_length_c                   20.134(4)
_cell_angle_alpha                90
_cell_angle_beta                 103.262(5)
_cell_angle_gamma                90
_cell_volume                     4245.47
_exptl_crystal_colour            colorless
_exptl_crystal_description       prismatic
_cell_formula_units_Z            8
loop_
_atom_site_label
_atom_site_type_symbol
_atom_site_fract_x
_atom_site_fract_y
_atom_site_fract_z
N1 N 0.8262(3) 0.15085(14) 0.43588(16)
N2 N 0.7750(4) 0.09292(16) 0.43136(17)
O1 O 0.9755(3) 0.05875(13) 0.40610(15)
O2 O 0.9666(3) 0.43367(13) 0.23699(14)
O3 O 0.3914(3) 0.05711(13) 0.01072(15)
C1 C 0.9401(4) 0.16881(17) 0.4871(2)
C2 C 0.9934(5) 0.14483(18) 0.5510(2)
H1 H 0.9514 0.1117 0.5660
C3 C 1.1115(5) 0.1719(2) 0.5919(2)
H2 H 1.1509 0.1564 0.6349
C4 C 1.1715(5) 0.2218(2) 0.5696(2)
H3 H 1.2512 0.2390 0.5981
C5 C 1.1171(4) 0.24657(18) 0.5068(2)
H4 H 1.1579 0.2806 0.4931
C6 C 0.9990(4) 0.21973(17) 0.4636(2)
C7 C 0.9172(4) 0.23204(17) 0.39527(19)
C8 C 0.8188(4) 0.18720(18) 0.3794(2)
C9 C 0.7260(4) 0.17109(17) 0.3157(2)
C10 C 0.6553(4) 0.15257(18) 0.2636(2)
C11 C 0.5818(4) 0.12930(19) 0.1991(2)
C12 C 0.5786(4) 0.06869(18) 0.1870(2)
H5 H 0.6202 0.0429 0.2220
C13 C 0.5146(4) 0.04613(19) 0.1237(2)
H6 H 0.5133 0.0053 0.1163
C14 C 0.4520(4) 0.0841(2) 0.0710(2)
C15 C 0.4538(4) 0.1439(2) 0.0825(2)
H7 H 0.4111 0.1695 0.0475
C16 C 0.5191(4) 0.16673(19) 0.1463(2)
H8 H 0.5206 0.2076 0.1535
C17 C 0.3338(6) 0.0938(2) -0.0461(2)
H9 H 0.2590 0.1179 -0.0360
H10 H 0.2959 0.0694 -0.0851
H11 H 0.4075 0.1189 -0.0556
C18 C 0.9338(4) 0.28264(17) 0.35174(19)
C19 C 0.8158(4) 0.31274(18) 0.31485(18)
H12 H 0.7248 0.2994 0.3157
C20 C 0.8310(4) 0.36231(18) 0.2768(2)
H13 H 0.7503 0.3818 0.2523
C21 C 0.9638(4) 0.38316(18) 0.27481(19)
C22 C 1.0831(4) 0.35392(18) 0.31043(19)
H14 H 1.1738 0.3674 0.3092
C23 C 1.0664(4) 0.30408(18) 0.3482(2)
H15 H 1.1474 0.2843 0.3721
C24 C 1.1015(5) 0.4584(2) 0.2367(2)
H16 H 1.1501 0.4683 0.2825
H17 H 1.0888 0.4937 0.2091
H18 H 1.1571 0.4301 0.2183
C25 C 0.8545(5) 0.04980(19) 0.4120(2)
C26 C 0.7819(5) -0.00951(18) 0.4000(2)
H19 H 0.7865 -0.0240 0.3557
H20 H 0.6838 -0.0054 0.4023
H21 H 0.8288 -0.0371 0.4343
H22 H 0.685(4) 0.0905(16) 0.4309(18)
N3 N 0.3482(4) 0.14971(14) 0.43900(17)
N4 N 0.2848(4) 0.09469(16) 0.43776(19)
O4 O 0.4821(3) 0.04885(13) 0.42078(15)
O5 O 0.4747(3) 0.42799(13) 0.22731(14)
O6 O -0.1056(3) 0.06507(13) 0.01010(15)
C27 C 0.4428(4) 0.17375(18) 0.4936(2)
C28 C 0.4842(5) 0.15233(19) 0.5603(2)
H23 H 0.4475 0.1173 0.5738
C29 C 0.5825(5) 0.1862(2) 0.6045(2)
H24 H 0.6133 0.1737 0.6495
C30 C 0.6374(5) 0.2383(2) 0.5844(2)
H25 H 0.7045 0.2598 0.6159
C31 C 0.5943(5) 0.25881(19) 0.5186(2)
H26 H 0.6323 0.2937 0.5055
C32 C 0.4925(4) 0.22657(18) 0.4712(2)
C33 C 0.4274(4) 0.23406(18) 0.3997(2)
C34 C 0.3399(4) 0.18500(17) 0.3812(2)
C35 C 0.2534(4) 0.16741(17) 0.3177(2)
C36 C 0.1804(4) 0.15074(17) 0.2644(2)
C37 C 0.1019(5) 0.12924(18) 0.2001(2)
C38 C 0.1701(5) 0.09700(19) 0.1584(2)
H27 H 0.2671 0.0892 0.1733
C39 C 0.0987(5) 0.07614(19) 0.0959(2)
H28 H 0.1469 0.0545 0.0688
C40 C -0.0451(5) 0.08749(19) 0.0735(2)
C41 C -0.1159(5) 0.1190(2) 0.1129(2)
H29 H -0.2129 0.1266 0.0978
C42 C -0.0415(5) 0.14004(19) 0.1765(2)
H30 H -0.0899 0.1617 0.2034
C43 C -0.2512(5) 0.0767(2) -0.0179(2)
H31 H -0.3073 0.0614 0.0119
H32 H -0.2796 0.0579 -0.0617
H33 H -0.2657 0.1189 -0.0231
C44 C 0.4403(4) 0.28528(17) 0.3557(2)
C45 C 0.4239(4) 0.27880(18) 0.2850(2)
H34 H 0.4063 0.2413 0.2655
C46 C 0.4335(4) 0.32731(18) 0.2438(2)
H35 H 0.4203 0.3223 0.1970
C47 C 0.4627(4) 0.3833(2) 0.2725(2)
C48 C 0.4782(4) 0.39042(18) 0.3416(2)
H36 H 0.4968 0.4279 0.3611
C49 C 0.4662(4) 0.34165(17) 0.3828(2)
H37 H 0.4759 0.3472 0.4294
C50 C 0.5112(5) 0.4857(2) 0.2547(2)
H38 H 0.4382 0.4997 0.2762
H39 H 0.5195 0.5124 0.2186
H40 H 0.6006 0.4839 0.2877
C51 C 0.3587(5) 0.04641(19) 0.42569(19)
C52 C 0.2771(4) -0.01108(17) 0.4207(2)
H41 H 0.2548 -0.0246 0.3743
H42 H 0.1904 -0.0049 0.4356
H43 H 0.3342 -0.0404 0.4491
H44 H 0.198(5) 0.0918(19) 0.436(2)
loop_
_geom_bond_atom_site_label_1
_geom_bond_atom_site_label_2
_geom_bond_site_symmetry_1
_geom_bond_site_symmetry_2
N1 N2 1_555 1_555
N2 C25 1_555 1_555
O1 C25 1_555 1_555
O2 C21 1_555 1_555
O3 C14 1_555 1_555
C1 N1 1_555 1_555
C2 C1 1_555 1_555
H1 C2 1_555 1_555
C3 C2 1_555 1_555
H2 C3 1_555 1_555
C4 C3 1_555 1_555
H3 C4 1_555 1_555
C5 C4 1_555 1_555
H4 C5 1_555 1_555
C6 C1 1_555 1_555
C7 C6 1_555 1_555
C8 N1 1_555 1_555
C9 C8 1_555 1_555
C10 C9 1_555 1_555
C11 C10 1_555 1_555
C12 C11 1_555 1_555
H5 C12 1_555 1_555
C13 C12 1_555 1_555
H6 C13 1_555 1_555
C14 C13 1_555 1_555
C15 C14 1_555 1_555
H7 C15 1_555 1_555
C16 C11 1_555 1_555
H8 C16 1_555 1_555
C17 O3 1_555 1_555
H9 C17 1_555 1_555
H10 C17 1_555 1_555
H11 C17 1_555 1_555
C18 C7 1_555 1_555
C19 C18 1_555 1_555
H12 C19 1_555 1_555
C20 C19 1_555 1_555
H13 C20 1_555 1_555
C21 C20 1_555 1_555
C22 C21 1_555 1_555
H14 C22 1_555 1_555
C23 C18 1_555 1_555
H15 C23 1_555 1_555
C24 O2 1_555 1_555
H16 C24 1_555 1_555
H17 C24 1_555 1_555
H18 C24 1_555 1_555
C25 C26 1_555 1_555
C26 H19 1_555 1_555
H20 C26 1_555 1_555
H21 C26 1_555 1_555
H22 N2 1_555 1_555
N3 N4 1_555 1_555
N4 C51 1_555 1_555
O4 C51 1_555 1_555
O5 C47 1_555 1_555
O6 C40 1_555 1_555
C27 N3 1_555 1_555
C28 C27 1_555 1_555
H23 C28 1_555 1_555
C29 C28 1_555 1_555
H24 C29 1_555 1_555
C30 C29 1_555 1_555
H25 C30 1_555 1_555
C31 C30 1_555 1_555
H26 C31 1_555 1_555
C32 C27 1_555 1_555
C33 C32 1_555 1_555
C34 N3 1_555 1_555
C35 C34 1_555 1_555
C36 C35 1_555 1_555
C37 C36 1_555 1_555
C38 C37 1_555 1_555
H27 C38 1_555 1_555
C39 C38 1_555 1_555
H28 C39 1_555 1_555
C40 C39 1_555 1_555
C41 C40 1_555 1_555
H29 C41 1_555 1_555
C42 C37 1_555 1_555
H30 C42 1_555 1_555
C43 O6 1_555 1_555
H31 C43 1_555 1_555
H32 C43 1_555 1_555
H33 C43 1_555 1_555
C44 C33 1_555 1_555
C45 C44 1_555 1_555
H34 C45 1_555 1_555
C46 C45 1_555 1_555
H35 C46 1_555 1_555
C47 C46 1_555 1_555
C48 C47 1_555 1_555
H36 C48 1_555 1_555
C49 C44 1_555 1_555
H37 C49 1_555 1_555
C50 O5 1_555 1_555
H38 C50 1_555 1_555
H39 C50 1_555 1_555
H40 C50 1_555 1_555
C51 C52 1_555 1_555
C52 H41 1_555 1_555
H42 C52 1_555 1_555
H43 C52 1_555 1_555
H44 N4 1_555 1_555
C5 C6 1_555 1_555
C7 C8 1_555 1_555
C15 C16 1_555 1_555
C22 C23 1_555 1_555
C31 C32 1_555 1_555
C33 C34 1_555 1_555
C41 C42 1_555 1_555
C48 C49 1_555 1_555

#END
