
#######################################################################
#
#                 Cambridge Crystallographic Data Centre
#                                CCDC 
#
#######################################################################
#
# If this CIF has been generated from an entry in the Cambridge 
# Structural Database, then it will include bibliographic, chemical, 
# crystal, experimental, refinement or atomic coordinate data resulting 
# from the CCDC's data processing and validation procedures.
#
#######################################################################

data_YOYPOR
_chemical_formula_moiety         'C29 H34 N6 O3,0.5(C2 H6 O1),2(H2 O1)'
_chemical_name_systematic        
"1,5-bis(1'-Phenyl-3'-methyl-5'-pyrazolone-4'-yl)-1-(4'-aminobutane-1'-imino)-5-pentanone ethanol solvate dihydrate"
_symmetry_cell_setting           triclinic
_symmetry_space_group_name_H-M   'P -1'
_symmetry_Int_Tables_number      2
_space_group_name_Hall           '-P 1'
loop_
_symmetry_equiv_pos_site_id
_symmetry_equiv_pos_as_xyz
1 x,y,z
2 -x,-y,-z
_cell_length_a                   11.544(1)
_cell_length_b                   11.723(5)
_cell_length_c                   12.344(2)
_cell_angle_alpha                80.61(2)
_cell_angle_beta                 84.17(1)
_cell_angle_gamma                78.85(2)
_cell_volume                     1612.79
_cell_formula_units_Z            2
loop_
_atom_site_label
_atom_site_type_symbol
_atom_site_fract_x
_atom_site_fract_y
_atom_site_fract_z
O1 O 0.4987(6) 0.1870(6) 0.6059(6)
O2 O 0.3459(7) 0.5464(6) 0.6547(6)
O3 O -0.0959(6) 0.8142(6) 0.3072(6)
N1 N 0.6085(7) 0.2118(7) 0.7465(7)
N2 N 0.6198(7) 0.3001(7) 0.8065(7)
N3 N -0.0814(7) 0.6829(7) 0.1846(7)
N4 N -0.0134(8) 0.5731(8) 0.1675(7)
N5 N 0.0667(8) 0.7404(8) 0.4486(8)
N6 N 0.3223(7) 1.0533(8) 0.6640(7)
C1 C 0.5383(8) 0.3893(9) 0.7723(9)
C2 C 0.4733(8) 0.3675(9) 0.6909(9)
C3 C 0.5225(9) 0.2504(9) 0.6750(9)
C4 C 0.521(1) 0.497(1) 0.829(1)
C5 C 0.0528(8) 0.6371(9) 0.3071(9)
C6 C -0.0478(9) 0.7202(9) 0.2698(8)
C7 C 0.0647(9) 0.5498(9) 0.2413(9)
C8 C 0.151(1) 0.434(1) 0.238(1)
C9 C 0.6906(9) 0.1060(9) 0.7598(9)
C10 C 0.6584(9) 0.005(1) 0.740(1)
C11 C 0.744(1) -0.101(1) 0.750(1)
C12 C 0.852(1) -0.099(1) 0.780(1)
C13 C 0.884(1) 0.001(1) 0.801(1)
C14 C 0.8012(9) 0.105(1) 0.7892(9)
C15 C -0.1810(9) 0.734(1) 0.1192(9)
C16 C -0.245(1) 0.664(1) 0.086(1)
C17 C -0.341(1) 0.711(1) 0.026(1)
C18 C -0.379(1) 0.827(1) 0.009(1)
C19 C -0.311(1) 0.903(1) 0.042(1)
C20 C -0.211(1) 0.854(1) 0.1000(1)
C21 C 0.3754(9) 0.4409(9) 0.6399(9)
C22 C 0.2987(9) 0.3895(9) 0.5769(9)
C23 C 0.1844(9) 0.4750(1) 0.5365(9)
C24 C 0.2221(9) 0.5679(9) 0.4360(9)
C25 C 0.1123(9) 0.6495(9) 0.3975(9)
C26 C 0.117(1) 0.774(1) 0.545(1)
C27 C 0.170(1) 0.877(1) 0.508(1)
C28 C 0.204(1) 0.925(1) 0.606(1)
C29 C 0.294(1) 1.009(1) 0.567(1)
O4 O 0.3115(9) 0.7437(9) 0.9759(9)
C30 C 0.150(2) 0.709(2) 0.892(2)
C31 C 0.214(2) 0.685(2) 0.980(2)
O5 O 0.4244(7) 0.8520(7) 0.7906(7)
O6 O 0.5218(7) 0.2745(7) 0.3835(7)
loop_
_geom_bond_atom_site_label_1
_geom_bond_atom_site_label_2
_geom_bond_site_symmetry_1
_geom_bond_site_symmetry_2
O1 C3 1_555 1_555
O2 C21 1_555 1_555
O3 C6 1_555 1_555
O4 C31 1_555 1_555
N1 N2 1_555 1_555
N2 C1 1_555 1_555
N3 N4 1_555 1_555
N4 C7 1_555 1_555
N5 C25 1_555 1_555
N6 C29 1_555 1_555
C1 C2 1_555 1_555
C2 C3 1_555 1_555
C3 N1 1_555 1_555
C4 C1 1_555 1_555
C5 C6 1_555 1_555
C6 N3 1_555 1_555
C7 C5 1_555 1_555
C8 C7 1_555 1_555
C9 N1 1_555 1_555
C10 C9 1_555 1_555
C11 C10 1_555 1_555
C12 C11 1_555 1_555
C13 C12 1_555 1_555
C14 C9 1_555 1_555
C15 N3 1_555 1_555
C16 C15 1_555 1_555
C17 C16 1_555 1_555
C18 C17 1_555 1_555
C19 C18 1_555 1_555
C20 C15 1_555 1_555
C21 C2 1_555 1_555
C22 C21 1_555 1_555
C23 C22 1_555 1_555
C24 C23 1_555 1_555
C25 C5 1_555 1_555
C26 N5 1_555 1_555
C27 C26 1_555 1_555
C28 C27 1_555 1_555
C29 C28 1_555 1_555
C30 C31 1_555 1_555
C13 C14 1_555 1_555
C19 C20 1_555 1_555
C24 C25 1_555 1_555

#END
