
#######################################################################
#
#                 Cambridge Crystallographic Data Centre
#                                CCDC 
#
#######################################################################
#
# If this CIF has been generated from an entry in the Cambridge 
# Structural Database, then it will include bibliographic, chemical, 
# crystal, experimental, refinement or atomic coordinate data resulting 
# from the CCDC's data processing and validation procedures.
#
#######################################################################

data_YOYWEO
_chemical_formula_moiety         'C14 H27 N4 O2 1+,Br1 1-'
_chemical_name_systematic        
'1-(8-Carboxyoctyl)-1,3,5,7-tetra-aza-adamantan-1-ium bromide'
_symmetry_cell_setting           triclinic
_symmetry_space_group_name_H-M   'P -1'
_symmetry_Int_Tables_number      2
_space_group_name_Hall           '-P 1'
loop_
_symmetry_equiv_pos_site_id
_symmetry_equiv_pos_as_xyz
1 x,y,z
2 -x,-y,-z
_cell_length_a                   9.759(5)
_cell_length_b                   12.699(7)
_cell_length_c                   14.125(6)
_cell_angle_alpha                96.45(3)
_cell_angle_beta                 99.17(3)
_cell_angle_gamma                104.74(3)
_cell_volume                     1649.69
_chemical_melting_point          170deg.C
_cell_formula_units_Z            4
loop_
_atom_site_label
_atom_site_type_symbol
_atom_site_fract_x
_atom_site_fract_y
_atom_site_fract_z
C1 C 0.1740(6) 0.2473(5) -0.1075(4)
C2 C -0.0539(6) 0.1815(4) -0.0488(4)
C3 C 0.0982(6) 0.3731(4) 0.0086(4)
C4 C 0.0735(7) 0.2393(5) 0.1127(4)
C5 C 0.2959(6) 0.3018(5) 0.0571(4)
C6 C 0.1492(7) 0.1181(5) 0.0029(4)
C7 C -0.0415(6) 0.3165(5) -0.1646(4)
C8 C 0.0492(7) 0.4077(5) -0.2108(4)
C9 C -0.0482(7) 0.4562(6) -0.2757(5)
C10 C 0.0399(7) 0.5437(5) -0.3262(4)
C11 C -0.0543(7) 0.6012(6) -0.3858(4)
C12 C 0.0339(7) 0.6833(5) -0.4419(4)
C13 C -0.0603(8) 0.7439(6) -0.4983(5)
C14 C 0.0325(8) 0.8307(6) -0.5477(5)
N1 N 0.0441(4) 0.2822(4) -0.0811(3)
N2 N 0.2479(5) 0.2119(4) -0.0256(4)
N3 N 0.0238(5) 0.1479(4) 0.0312(3)
N4 N 0.1748(5) 0.3356(4) 0.0869(3)
O1 O 0.1595(7) 0.8681(6) -0.5247(5)
O2 O -0.0435(6) 0.8625(5) -0.6164(4)
Br1 Br 0.1374(1) 0.0441(1) 0.2862(1)
C15 C 0.4307(6) 0.9598(5) 0.6580(4)
C16 C 0.5955(6) 1.0764(5) 0.8056(4)
C17 C 0.3582(6) 1.1065(5) 0.7511(4)
C18 C 0.4821(7) 0.8891(5) 0.8049(5)
C19 C 0.2502(7) 0.9181(5) 0.7538(5)
C20 C 0.4101(7) 1.0304(6) 0.8947(4)
C21 C 0.5595(6) 1.1570(5) 0.6554(4)
C22 C 0.4616(7) 1.1886(5) 0.5750(4)
C23 C 0.5527(7) 1.2675(5) 0.5215(4)
C24 C 0.4623(7) 1.3136(5) 0.4484(4)
C25 C 0.5525(7) 1.3864(5) 0.3870(4)
C26 C 0.4617(7) 1.4389(5) 0.3209(4)
C27 C 0.5486(7) 1.5054(5) 0.2544(4)
C28 C 0.4634(7) 1.5660(5) 0.1960(4)
N5 N 0.4862(5) 1.0783(4) 0.7144(3)
N6 N 0.3688(6) 0.8844(4) 0.7186(4)
N7 N 0.5339(5) 0.9989(4) 0.8628(3)
N8 N 0.2995(5) 1.0289(4) 0.8106(3)
O3 O 0.3725(6) 1.6046(4) 0.2211(3)
O4 O 0.5014(5) 1.5752(4) 0.1102(3)
Br2 Br 0.3080(1) 0.6761(1) 0.9623(1)
loop_
_geom_bond_atom_site_label_1
_geom_bond_atom_site_label_2
_geom_bond_site_symmetry_1
_geom_bond_site_symmetry_2
C1 N1 1_555 1_555
C2 N1 1_555 1_555
C3 N1 1_555 1_555
C4 N3 1_555 1_555
C5 N2 1_555 1_555
C6 N2 1_555 1_555
C7 C8 1_555 1_555
C8 C9 1_555 1_555
C9 C10 1_555 1_555
C10 C11 1_555 1_555
C11 C12 1_555 1_555
C12 C13 1_555 1_555
C13 C14 1_555 1_555
C14 O1 1_555 1_555
N1 C7 1_555 1_555
N2 C1 1_555 1_555
N3 C2 1_555 1_555
N4 C3 1_555 1_555
O2 C14 1_555 1_555
C15 N5 1_555 1_555
C16 N5 1_555 1_555
C17 N5 1_555 1_555
C18 N6 1_555 1_555
C19 N6 1_555 1_555
C20 N7 1_555 1_555
C21 C22 1_555 1_555
C22 C23 1_555 1_555
C23 C24 1_555 1_555
C24 C25 1_555 1_555
C25 C26 1_555 1_555
C26 C27 1_555 1_555
C27 C28 1_555 1_555
C28 O3 1_555 1_555
N5 C21 1_555 1_555
N6 C15 1_555 1_555
N7 C16 1_555 1_555
N8 C17 1_555 1_555
O4 C28 1_555 1_555
C4 N4 1_555 1_555
C5 N4 1_555 1_555
C6 N3 1_555 1_555
C18 N7 1_555 1_555
C19 N8 1_555 1_555
C20 N8 1_555 1_555

#END
