
#######################################################################
#
#                 Cambridge Crystallographic Data Centre
#                                CCDC 
#
#######################################################################
#
# If this CIF has been generated from an entry in the Cambridge 
# Structural Database, then it will include bibliographic, chemical, 
# crystal, experimental, refinement or atomic coordinate data resulting 
# from the CCDC's data processing and validation procedures.
#
#######################################################################

data_YUBVIA
_chemical_formula_moiety         'C24 H32 Li1 N1 O3 S1'
_chemical_name_systematic        
tris(Tetrahydrifuran)-(phenothiazine-N)-lithium
_symmetry_cell_setting           monoclinic
_symmetry_space_group_name_H-M   'P 21/n'
_symmetry_Int_Tables_number      14
_space_group_name_Hall           '-P 2yn'
loop_
_symmetry_equiv_pos_site_id
_symmetry_equiv_pos_as_xyz
1 x,y,z
2 1/2-x,1/2+y,1/2-z
3 -x,-y,-z
4 1/2+x,1/2-y,1/2+z
_cell_length_a                   8.612(2)
_cell_length_b                   15.848(3)
_cell_length_c                   17.013(3)
_cell_angle_alpha                90
_cell_angle_beta                 98.88(3)
_cell_angle_gamma                90
_cell_volume                     2294.15
_exptl_crystal_colour            orange
_chemical_melting_point          'above 300deg.C'
_cell_formula_units_Z            4
loop_
_atom_site_label
_atom_site_type_symbol
_atom_site_fract_x
_atom_site_fract_y
_atom_site_fract_z
Li1 Li 1.3068(12) 0.7410(5) 0.7382(5)
S1 S 1.1383(2) 0.6550(1) 0.9988(1)
N1 N 1.1898(5) 0.7222(2) 0.8303(2)
O1 O 1.2271(4) 0.8370(2) 0.6695(2)
C1 C 1.0711(16) 0.8569(12) 0.6693(9)
C2 C 1.0281(12) 0.9293(8) 0.6193(6)
C3 C 1.1512(36) 0.9614(13) 0.6011(15)
C4 C 1.2947(7) 0.9069(4) 0.6355(5)
O2 O 1.5352(5) 0.7553(3) 0.7764(2)
C5 C 1.6458(10) 0.8022(7) 0.7439(5)
C6 C 1.7528(20) 0.8121(11) 0.8155(18)
C7 C 1.6968(18) 0.7632(9) 0.8822(10)
C8 C 1.6109(14) 0.7212(9) 0.8504(5)
O3 O 1.3115(7) 0.6500(2) 0.6613(2)
C9 C 1.3933(25) 0.5725(12) 0.6816(9)
C10 C 1.4671(14) 0.5415(8) 0.6104(8)
C11 C 1.3953(10) 0.5858(5) 0.5534(6)
C12 C 1.3353(8) 0.6647(4) 0.5827(3)
C13 C 1.0834(6) 0.6591(3) 0.8345(3)
C14 C 1.0072(7) 0.6227(3) 0.7624(3)
C15 C 0.8972(8) 0.5594(3) 0.7599(4)
C16 C 0.8526(6) 0.5300(3) 0.8298(4)
C17 C 0.9234(6) 0.5636(3) 0.9023(3)
C18 C 1.0374(5) 0.6255(3) 0.9048(3)
C19 C 1.2377(5) 0.7720(3) 0.8965(2)
C20 C 1.3118(6) 0.8497(3) 0.8865(3)
C21 C 1.3712(6) 0.9018(3) 0.9495(3)
C22 C 1.3519(6) 0.8811(3) 1.0260(3)
C23 C 1.2735(6) 0.8069(3) 1.0380(3)
C24 C 1.2184(5) 0.7532(3) 0.9755(3)
H1 H 1.0534(16) 0.8694(12) 0.7243(9)
H2 H 1.0044(16) 0.8083(12) 0.6495(9)
H3 H 0.9570(12) 0.9120(8) 0.5706(6)
H4 H 0.9724(12) 0.9712(8) 0.6480(6)
H5 H 1.1646(36) 1.0194(13) 0.6226(15)
H6 H 1.1431(36) 0.9645(13) 0.5425(15)
H7 H 1.3539(7) 0.8886(4) 0.5930(5)
H8 H 1.3663(7) 0.9384(4) 0.6763(5)
H9 H 1.6033(10) 0.8568(7) 0.7219(5)
H10 H 1.6919(10) 0.7705(7) 0.7030(5)
H11 H 1.7621(20) 0.8726(11) 0.8299(18)
H12 H 1.8579(20) 0.7915(11) 0.8078(18)
H13 H 1.7840(18) 0.7314(9) 0.9137(10)
H14 H 1.6488(18) 0.8010(9) 0.9180(10)
H15 H 1.5302(14) 0.7083(9) 0.8843(5)
H16 H 1.6630(14) 0.6675(9) 0.8400(5)
H17 H 1.3193(25) 0.5295(12) 0.6961(9)
H18 H 1.4764(25) 0.5813(12) 0.7280(9)
H19 H 1.5817(14) 0.5524(8) 0.6182(8)
H20 H 1.4481(14) 0.4805(8) 0.6008(8)
H21 H 1.3066(10) 0.5528(5) 0.5247(6)
H22 H 1.4681(10) 0.5991(5) 0.5154(6)
H23 H 1.4122(8) 0.7108(4) 0.5810(3)
H24 H 1.2353(8) 0.6809(4) 0.5493(3)
H25 H 1.0334(7) 0.6431(3) 0.7136(3)
H26 H 0.8518(8) 0.5359(3) 0.7103(4)
H27 H 0.7746(6) 0.4875(3) 0.8283(4)
H28 H 0.8931(6) 0.5437(3) 0.9504(3)
H29 H 1.3214(6) 0.8672(3) 0.8340(3)
H30 H 1.4255(6) 0.9520(3) 0.9398(3)
H31 H 1.3914(6) 0.9167(3) 1.0694(3)
H32 H 1.2571(6) 0.7925(3) 1.0904(3)
C25? C 1.0655(15) 0.8264(10) 0.6194(11)
C26? C 1.0787(21) 0.8940(10) 0.5520(10)
C27? C 1.1673(17) 0.9372(12) 0.5714(11)
C28? C 1.8060(18) 0.8365(9) 0.7937(10)
C29? C 1.7638(20) 0.8116(12) 0.8748(9)
C30? C 1.4606(25) 0.5393(15) 0.6582(15)
C31? C 1.3201(23) 0.5626(12) 0.6970(12)
H33? H 1.3890(7) 0.8896(4) 0.6128(5)
H34? H 1.3247(7) 0.9515(4) 0.6757(5)
H35? H 0.9798(15) 0.8402(10) 0.6499(11)
H36? H 1.0499(15) 0.7686(10) 0.5974(11)
H37? H 1.1019(21) 0.8651(10) 0.5036(10)
H38? H 0.9773(21) 0.9240(10) 0.5383(10)
H39? H 1.1186(17) 0.9880(12) 0.5911(11)
H40? H 1.2165(17) 0.9547(12) 0.5250(11)
H41? H 1.5897(10) 0.8523(7) 0.7188(5)
H42? H 1.6759(10) 0.7679(7) 0.7001(5)
H43? H 1.6610(14) 0.6659(9) 0.8439(5)
H44? H 1.5389(14) 0.7166(9) 0.8903(5)
H45? H 1.8193(18) 0.8981(9) 0.7881(10)
H46? H 1.8997(18) 0.8063(9) 0.7810(10)
H47? H 1.7176(20) 0.8600(12) 0.8999(9)
H48? H 1.8578(20) 0.7916(12) 0.9109(9)
H49? H 0.1842(10) 0.5949(5) 0.5238(6)
H50? H 1.3123(10) 0.5519(5) 0.5211(6)
H51? H 1.4756(25) 0.4774(15) 0.6565(15)
H52? H 1.5582(25) 0.5661(15) 0.6853(15)
H53? H 1.2261(23) 0.5278(12) 0.6783(12)
H54? H 1.3429(23) 0.5627(12) 0.7559(12)
loop_
_geom_bond_atom_site_label_1
_geom_bond_atom_site_label_2
_geom_bond_site_symmetry_1
_geom_bond_site_symmetry_2
Li1 N1 1_555 1_555
S1 C18 1_555 1_555
N1 C13 1_555 1_555
O1 Li1 1_555 1_555
C1 O1 1_555 1_555
C2 C1 1_555 1_555
C3 C2 1_555 1_555
C4 O1 1_555 1_555
O2 Li1 1_555 1_555
C5 O2 1_555 1_555
C6 C5 1_555 1_555
C7 C6 1_555 1_555
C8 O2 1_555 1_555
O3 Li1 1_555 1_555
C9 O3 1_555 1_555
C10 C9 1_555 1_555
C11 C10 1_555 1_555
C12 O3 1_555 1_555
C13 C14 1_555 1_555
C14 C15 1_555 1_555
C15 C16 1_555 1_555
C16 C17 1_555 1_555
C17 C18 1_555 1_555
C18 C13 1_555 1_555
C19 N1 1_555 1_555
C20 C19 1_555 1_555
C21 C20 1_555 1_555
C22 C21 1_555 1_555
C23 C22 1_555 1_555
C24 S1 1_555 1_555
H1 C1 1_555 1_555
H2 C1 1_555 1_555
H3 C2 1_555 1_555
H4 C2 1_555 1_555
H5 C3 1_555 1_555
H6 C3 1_555 1_555
H7 C4 1_555 1_555
H8 C4 1_555 1_555
H9 C5 1_555 1_555
H10 C5 1_555 1_555
H11 C6 1_555 1_555
H12 C6 1_555 1_555
H13 C7 1_555 1_555
H14 C7 1_555 1_555
H15 C8 1_555 1_555
H16 C8 1_555 1_555
H17 C9 1_555 1_555
H18 C9 1_555 1_555
H19 C10 1_555 1_555
H20 C10 1_555 1_555
H21 C11 1_555 1_555
H22 C11 1_555 1_555
H23 C12 1_555 1_555
H24 C12 1_555 1_555
H25 C14 1_555 1_555
H26 C15 1_555 1_555
H27 C16 1_555 1_555
H28 C17 1_555 1_555
H29 C20 1_555 1_555
H30 C21 1_555 1_555
H31 C22 1_555 1_555
H32 C23 1_555 1_555
C3 C4 1_555 1_555
C7 C8 1_555 1_555
C11 C12 1_555 1_555
C19 C24 1_555 1_555
C23 C24 1_555 1_555

#END
