
#######################################################################
#
#                 Cambridge Crystallographic Data Centre
#                                CCDC 
#
#######################################################################
#
# If this CIF has been generated from an entry in the Cambridge 
# Structural Database, then it will include bibliographic, chemical, 
# crystal, experimental, refinement or atomic coordinate data resulting 
# from the CCDC's data processing and validation procedures.
#
#######################################################################

data_YUBVOG
_chemical_formula_moiety         'C38 H52 Li2 N6 O4'
_chemical_name_systematic        
bis((N,N,N',N'-Tetramethylethylenediamine)-(diphenylaminocarbamato-O,O'))-di-lithium
_symmetry_cell_setting           monoclinic
_symmetry_space_group_name_H-M   'P 21/n'
_symmetry_Int_Tables_number      14
_space_group_name_Hall           '-P 2yn'
loop_
_symmetry_equiv_pos_site_id
_symmetry_equiv_pos_as_xyz
1 x,y,z
2 1/2-x,1/2+y,1/2-z
3 -x,-y,-z
4 1/2+x,1/2-y,1/2+z
_cell_length_a                   10.652(2)
_cell_length_b                   19.037(4)
_cell_length_c                   19.146(4)
_cell_angle_alpha                90
_cell_angle_beta                 99.95(3)
_cell_angle_gamma                90
_cell_volume                     3824.07
_exptl_crystal_colour            colorless
_chemical_melting_point          117-120deg.C
_cell_formula_units_Z            4
loop_
_atom_site_label
_atom_site_type_symbol
_atom_site_fract_x
_atom_site_fract_y
_atom_site_fract_z
Li1 Li 0.0180(9) 0.5530(5) 0.2804(5)
Li2 Li -0.0512(9) 0.6726(5) 0.1578(5)
N1 N -0.2906(4) 0.6683(2) 0.3003(2)
N2 N 0.2659(4) 0.5650(2) 0.1428(2)
N3 N 0.0361(5) 0.4728(2) 0.3606(2)
N4 N 0.1399(5) 0.6173(3) 0.3587(2)
N5 N -0.1609(5) 0.6214(3) 0.0662(3)
N6 N -0.0495(5) 0.7643(3) 0.0943(3)
O1 O -0.1490(4) 0.5891(2) 0.2691(2)
O2 O -0.1590(4) 0.6972(2) 0.2221(2)
O3 O 0.1155(4) 0.5291(2) 0.2087(2)
O4 O 0.1153(4) 0.6393(2) 0.1680(2)
C1 C -0.1929(6) 0.6508(3) 0.2606(3)
C2 C 0.1578(5) 0.5780(3) 0.1753(3)
C3 C -0.3412(5) 0.6115(3) 0.3364(3)
C4 C -0.3243(6) 0.6110(3) 0.4103(3)
C5 C -0.3745(6) 0.5573(3) 0.4458(4)
C6 C -0.4407(7) 0.5035(3) 0.4074(4)
C7 C -0.4562(6) 0.5035(3) 0.3347(4)
C8 C -0.4067(5) 0.5575(3) 0.2981(3)
C9 C -0.3376(5) 0.7373(3) 0.3081(3)
C10 C -0.2681(6) 0.7977(3) 0.2989(3)
C11 C -0.3163(6) 0.8641(3) 0.3112(3)
C12 C -0.4343(6) 0.8717(3) 0.3329(3)
C13 C -0.5023(6) 0.8119(3) 0.3410(3)
C14 C -0.4552(5) 0.7452(3) 0.3292(3)
C15 C 0.3146(5) 0.6253(3) 0.1090(3)
C16 C 0.4013(6) 0.6701(3) 0.1493(3)
C17 C 0.4495(6) 0.7261(3) 0.1170(4)
C18 C 0.4111(6) 0.7376(3) 0.0446(4)
C19 C 0.3252(6) 0.6934(3) 0.0047(3)
C20 C 0.2766(5) 0.6365(3) 0.0365(3)
C21 C 0.3313(5) 0.5000(3) 0.1412(3)
C22 C 0.2958(5) 0.4377(3) 0.1734(3)
C23 C 0.3661(6) 0.3754(3) 0.1684(3)
C24 C 0.4664(5) 0.3732(3) 0.1321(4)
C25 C 0.5019(6) 0.4343(3) 0.1006(4)
C26 C 0.4365(5) 0.4970(3) 0.1048(3)
C27 C 0.1844(6) 0.5659(3) 0.4149(3)
C28 C 0.0840(7) 0.5141(3) 0.4250(3)
C29 C 0.0643(7) 0.6732(4) 0.3830(4)
C30 C 0.2495(6) 0.6497(4) 0.3343(4)
C31 C -0.0835(6) 0.4386(3) 0.3697(4)
C32 C 0.1291(7) 0.4198(3) 0.3488(4)
C33 C -0.1925(7) 0.6821(4) 0.0170(4)
C34 C -0.0814(7) 0.7337(4) 0.0227(3)
C35 C -0.1471(7) 0.8146(3) 0.1078(4)
C36 C 0.0748(6) 0.7980(3) 0.1035(4)
C37 C -0.0858(6) 0.5682(4) 0.0363(4)
C38 C -0.2789(6) 0.5883(4) 0.0834(4)
H1 H -0.2779(6) 0.6478(3) 0.4365(3)
H2 H -0.3636(6) 0.5575(3) 0.4961(4)
H3 H -0.4754(7) 0.4664(3) 0.4313(4)
H4 H -0.5015(6) 0.4662(3) 0.3088(4)
H5 H -0.4179(5) 0.5570(3) 0.2477(3)
H6 H -0.1877(6) 0.7937(3) 0.2841(3)
H7 H -0.2678(6) 0.9048(3) 0.3048(3)
H8 H -0.4664(6) 0.9168(3) 0.3417(3)
H9 H -0.5834(6) 0.8159(3) 0.3549(3)
H10 H -0.5042(5) 0.7048(3) 0.3357(3)
H11 H 0.4271(6) 0.6622(3) 0.1987(3)
H12 H 0.5090(6) 0.7570(3) 0.1441(4)
H13 H 0.4447(6) 0.7764(3) 0.0226(4)
H14 H 0.2991(6) 0.7018(3) -0.0445(3)
H15 H 0.2179(5) 0.6054(3) 0.0091(3)
H16 H 0.2256(5) 0.4378(3) 0.1980(3)
H17 H 0.3432(6) 0.3339(3) 0.1908(3)
H18 H 0.5111(5) 0.3306(3) 0.1285(4)
H19 H 0.5719(6) 0.4332(3) 0.0758(4)
H20 H 0.4625(5) 0.5381(3) 0.0832(3)
H21 H 0.2129(6) 0.5911(3) 0.4600(3)
H22 H 0.2588(6) 0.5403(3) 0.4028(3)
H23 H 0.1192(7) 0.4815(3) 0.4638(3)
H24 H 0.0117(7) 0.5394(3) 0.4397(3)
H25 H -0.0080(23) 0.6527(4) 0.4013(21)
H26 H 0.0326(33) 0.7047(13) 0.3434(6)
H27 H 0.1175(13) 0.6999(14) 0.4208(15)
H28 H 0.3009(22) 0.6132(4) 0.3167(20)
H29 H 0.3016(22) 0.6746(18) 0.3739(6)
H30 H 0.2192(6) 0.6831(16) 0.2861(15)
H31 H -0.1478(12) 0.4745(3) 0.3737(20)
H32 H -0.0689(10) 0.4100(16) 0.4128(11)
H33 H -0.1135(20) 0.4086(16) 0.3286(10)
H34 H 0.0934(15) 0.3908(13) 0.3079(13)
H35 H 0.1495(28) 0.3901(13) 0.3910(8)
H36 H 0.2068(15) 0.4430(3) 0.3397(20)
H37 H -0.2683(7) 0.7067(4) 0.0284(4)
H38 H -0.2137(7) 0.6646(4) -0.0323(4)
H39 H -0.0057(7) 0.7090(4) 0.0111(3)
H40 H -0.1039(7) 0.7719(4) -0.0123(3)
H41 H -0.2270(13) 0.7896(4) 0.1093(22)
H42 H -0.1610(28) 0.8496(13) 0.0697(12)
H43 H -0.1186(18) 0.8382(16) 0.1532(11)
H44 H 0.1399(8) 0.7631(5) 0.0981(21)
H45 H 0.0943(18) 0.8189(18) 0.1510(8)
H46 H 0.0739(13) 0.8349(15) 0.0677(14)
H47 H -0.0616(32) 0.5307(11) 0.0711(9)
H48 H -0.0088(20) 0.5899(6) 0.0244(20)
H49 H -0.1368(15) 0.5483(15) -0.0067(12)
H50 H -0.3325(20) 0.5720(20) 0.0396(5)
H51 H -0.3260(21) 0.6229(8) 0.1067(21)
H52 H -0.2557(7) 0.5483(14) 0.1152(18)
loop_
_geom_bond_atom_site_label_1
_geom_bond_atom_site_label_2
_geom_bond_site_symmetry_1
_geom_bond_site_symmetry_2
Li1 N3 1_555 1_555
Li2 N5 1_555 1_555
N1 C1 1_555 1_555
N2 C2 1_555 1_555
N3 C28 1_555 1_555
N4 Li1 1_555 1_555
N5 C33 1_555 1_555
N6 Li2 1_555 1_555
O1 Li1 1_555 1_555
O2 Li2 1_555 1_555
O3 Li1 1_555 1_555
O4 Li2 1_555 1_555
C1 O1 1_555 1_555
C2 O3 1_555 1_555
C3 N1 1_555 1_555
C4 C3 1_555 1_555
C5 C4 1_555 1_555
C6 C5 1_555 1_555
C7 C6 1_555 1_555
C8 C3 1_555 1_555
C9 N1 1_555 1_555
C10 C9 1_555 1_555
C11 C10 1_555 1_555
C12 C11 1_555 1_555
C13 C12 1_555 1_555
C14 C9 1_555 1_555
C15 N2 1_555 1_555
C16 C15 1_555 1_555
C17 C16 1_555 1_555
C18 C17 1_555 1_555
C19 C18 1_555 1_555
C20 C15 1_555 1_555
C21 N2 1_555 1_555
C22 C21 1_555 1_555
C23 C22 1_555 1_555
C24 C23 1_555 1_555
C25 C24 1_555 1_555
C26 C21 1_555 1_555
C27 N4 1_555 1_555
C28 C27 1_555 1_555
C29 N4 1_555 1_555
C30 N4 1_555 1_555
C31 N3 1_555 1_555
C32 N3 1_555 1_555
C33 C34 1_555 1_555
C34 N6 1_555 1_555
C35 N6 1_555 1_555
C36 N6 1_555 1_555
C37 N5 1_555 1_555
C38 N5 1_555 1_555
H1 C4 1_555 1_555
H2 C5 1_555 1_555
H3 C6 1_555 1_555
H4 C7 1_555 1_555
H5 C8 1_555 1_555
H6 C10 1_555 1_555
H7 C11 1_555 1_555
H8 C12 1_555 1_555
H9 C13 1_555 1_555
H10 C14 1_555 1_555
H11 C16 1_555 1_555
H12 C17 1_555 1_555
H13 C18 1_555 1_555
H14 C19 1_555 1_555
H15 C20 1_555 1_555
H16 C22 1_555 1_555
H17 C23 1_555 1_555
H18 C24 1_555 1_555
H19 C25 1_555 1_555
H20 C26 1_555 1_555
H21 C27 1_555 1_555
H22 C27 1_555 1_555
H23 C28 1_555 1_555
H24 C28 1_555 1_555
H25 C29 1_555 1_555
H26 C29 1_555 1_555
H27 C29 1_555 1_555
H28 C30 1_555 1_555
H29 C30 1_555 1_555
H30 C30 1_555 1_555
H31 C31 1_555 1_555
H32 C31 1_555 1_555
H33 C31 1_555 1_555
H34 C32 1_555 1_555
H35 C32 1_555 1_555
H36 C32 1_555 1_555
H37 C33 1_555 1_555
H38 C33 1_555 1_555
H39 C34 1_555 1_555
H40 C34 1_555 1_555
H41 C35 1_555 1_555
H42 C35 1_555 1_555
H43 C35 1_555 1_555
H44 C36 1_555 1_555
H45 C36 1_555 1_555
H46 C36 1_555 1_555
H47 C37 1_555 1_555
H48 C37 1_555 1_555
H49 C37 1_555 1_555
H50 C38 1_555 1_555
H51 C38 1_555 1_555
H52 C38 1_555 1_555
O2 C1 1_555 1_555
O4 C2 1_555 1_555
C7 C8 1_555 1_555
C13 C14 1_555 1_555
C19 C20 1_555 1_555
C25 C26 1_555 1_555

#END
