
#######################################################################
#
#                 Cambridge Crystallographic Data Centre
#                                CCDC 
#
#######################################################################
#
# If this CIF has been generated from an entry in the Cambridge 
# Structural Database, then it will include bibliographic, chemical, 
# crystal, experimental, refinement or atomic coordinate data resulting 
# from the CCDC's data processing and validation procedures.
#
#######################################################################

data_YUCQUJ
_chemical_formula_moiety         '2(C13 H12 O2),3(C10 H8 N2)'
_chemical_name_systematic        
"bis(4,4'-Methylenediphenol) tris(4,4'-bipyridine)"
_symmetry_cell_setting           monoclinic
_symmetry_space_group_name_H-M   'P 21/c'
_symmetry_Int_Tables_number      14
_space_group_name_Hall           '-P 2ybc'
loop_
_symmetry_equiv_pos_site_id
_symmetry_equiv_pos_as_xyz
1 x,y,z
2 -x,1/2+y,1/2-z
3 -x,-y,-z
4 x,1/2-y,1/2+z
_cell_length_a                   19.606(2)
_cell_length_b                   5.7354(6)
_cell_length_c                   25.4316(18)
_cell_angle_alpha                90
_cell_angle_beta                 127.755(5)
_cell_angle_gamma                90
_cell_volume                     2261.01
_exptl_crystal_colour            colorless
_exptl_crystal_description       block
_cell_formula_units_Z            2
loop_
_atom_site_label
_atom_site_type_symbol
_atom_site_fract_x
_atom_site_fract_y
_atom_site_fract_z
N1 N 0.11056(11) 0.8519(3) 0.86394(9)
N2 N -0.09001(18) 1.7374(4) 0.92117(14)
C14 C 0.03104(11) 1.2046(3) 0.88543(9)
C15 C 0.11644(11) 1.1427(4) 0.93340(10)
H13 H 0.1493 1.2187 0.9743
C16 C 0.15242(13) 0.9692(4) 0.92056(11)
H14 H 0.2099 0.9314 0.9537
C17 C 0.02891(14) 0.9140(4) 0.81768(11)
H15 H -0.0021 0.8364 0.7771
C18 C -0.01223(13) 1.0849(4) 0.82604(10)
H16 H -0.0695 1.1205 0.7916
C19 C -0.01131(12) 1.3883(4) 0.89741(10)
C20 C -0.09922(14) 1.3839(4) 0.86562(11)
H17 H -0.1336 1.2650 0.8360
C21 C -0.13467(18) 1.5614(6) 0.87907(15)
H18 H -0.1938 1.5575 0.8572
C22 C -0.00638(19) 1.7353(4) 0.95122(14)
H19 H 0.0268 1.8549 0.9810
C23 C 0.03511(15) 1.5685(4) 0.94149(11)
H20 H 0.0945 1.5770 0.9646
O1 O 0.16109(8) 0.4496(2) 0.84099(7)
H1 H 0.1541 0.5759 0.8522
O2 O 0.27022(8) 0.9862(3) 0.55323(7)
H2 H 0.3015 1.0933 0.5583
C1 C 0.34478(11) 0.4928(3) 0.80898(9)
C2 C 0.29339(12) 0.2992(3) 0.79159(9)
H3 H 0.3001 0.1728 0.7722
C3 C 0.23241(13) 0.2872(3) 0.80200(9)
H4 H 0.1984 0.1545 0.7893
C4 C 0.22140(11) 0.4711(3) 0.83116(9)
C5 C 0.27270(12) 0.6659(3) 0.84973(9)
H5 H 0.2666 0.7908 0.8698
C6 C 0.33302(12) 0.6755(3) 0.83850(9)
H6 H 0.3669 0.8085 0.8511
C7 C 0.40905(12) 0.5113(4) 0.79462(10)
H7 H 0.4603 0.5911 0.8313
H8 H 0.4260 0.3556 0.7919
C8 C 0.37374(11) 0.6403(3) 0.73083(9)
C9 C 0.41147(11) 0.8411(4) 0.72991(9)
H9 H 0.4606 0.8983 0.7697
C10 C 0.37854(11) 0.9602(3) 0.67170(9)
H10 H 0.4051 1.0962 0.6726
C11 C 0.30667(11) 0.8778(4) 0.61251(9)
C12 C 0.26806(13) 0.6763(4) 0.61194(10)
H11 H 0.2195 0.6183 0.5720
C13 C 0.30136(12) 0.5608(4) 0.67043(10)
H12 H 0.2745 0.4254 0.6694
C24 C 0.47205(10) 1.4604(3) 0.50883(8)
N3 N 0.36938(10) 1.3029(3) 0.54424(8)
C25 C 0.42120(13) 1.2642(4) 0.48076(10)
H21 H 0.4200 1.1794 0.4491
C26 C 0.37212(14) 1.1942(4) 0.49982(11)
H22 H 0.3385 1.0609 0.4800
C27 C 0.41740(13) 1.4927(4) 0.57059(10)
H23 H 0.4166 1.5749 0.6017
C28 C 0.46844(12) 1.5757(4) 0.55469(10)
H24 H 0.5008 1.7104 0.5750
C24B C 0.52795(10) 1.5396(3) 0.49117(8)
N3B N 0.63062(10) 1.6971(3) 0.45576(8)
C25B C 0.57880(13) 1.7358(4) 0.51924(10)
H21B H 0.5800 1.8206 0.5509
C26B C 0.62788(14) 1.8058(4) 0.50018(11)
H22B H 0.6615 1.9391 0.5200
C27B C 0.58260(13) 1.5073(4) 0.42941(10)
H23B H 0.5834 1.4251 0.3983
C28B C 0.53156(12) 1.4243(4) 0.44531(10)
H24B H 0.4992 1.2896 0.4250
loop_
_geom_bond_atom_site_label_1
_geom_bond_atom_site_label_2
_geom_bond_site_symmetry_1
_geom_bond_site_symmetry_2
N1 C16 1_555 1_555
O1 H1 1_555 1_555
O2 H2 1_555 1_555
C1 C2 1_555 1_555
C2 H3 1_555 1_555
C3 C2 1_555 1_555
H4 C3 1_555 1_555
C4 O1 1_555 1_555
C5 C4 1_555 1_555
H5 C5 1_555 1_555
C6 C1 1_555 1_555
H6 C6 1_555 1_555
C7 C1 1_555 1_555
H7 C7 1_555 1_555
H8 C7 1_555 1_555
C8 C7 1_555 1_555
C9 C8 1_555 1_555
H9 C9 1_555 1_555
C10 C9 1_555 1_555
H10 C10 1_555 1_555
C11 O2 1_555 1_555
C12 C11 1_555 1_555
H11 C12 1_555 1_555
C13 C8 1_555 1_555
H12 C13 1_555 1_555
N2 C21 1_555 1_555
C14 C15 1_555 1_555
C15 H13 1_555 1_555
C16 C15 1_555 1_555
H14 C16 1_555 1_555
C17 N1 1_555 1_555
H15 C17 1_555 1_555
C18 C14 1_555 1_555
H16 C18 1_555 1_555
C19 C14 1_555 1_555
C20 C19 1_555 1_555
H17 C20 1_555 1_555
C21 C20 1_555 1_555
H18 C21 1_555 1_555
C22 N2 1_555 1_555
H19 C22 1_555 1_555
C23 C19 1_555 1_555
H20 C23 1_555 1_555
C24 C25 1_555 1_555
N3 C26 1_555 1_555
C25 H21 1_555 1_555
C26 C25 1_555 1_555
H22 C26 1_555 1_555
C27 N3 1_555 1_555
H23 C27 1_555 1_555
C28 C24 1_555 1_555
H24 C28 1_555 1_555
C24B C24 1_555 1_555
N3B C26B 1_555 1_555
C25B C24B 1_555 1_555
H21B C25B 1_555 1_555
C26B C25B 1_555 1_555
H22B C26B 1_555 1_555
C27B N3B 1_555 1_555
H23B C27B 1_555 1_555
C28B C24B 1_555 1_555
H24B C28B 1_555 1_555
C3 C4 1_555 1_555
C5 C6 1_555 1_555
C10 C11 1_555 1_555
C12 C13 1_555 1_555
C17 C18 1_555 1_555
C22 C23 1_555 1_555
C27 C28 1_555 1_555
C27B C28B 1_555 1_555

#END
