
#######################################################################
#
#                 Cambridge Crystallographic Data Centre
#                                CCDC 
#
#######################################################################
#
# If this CIF has been generated from an entry in the Cambridge 
# Structural Database, then it will include bibliographic, chemical, 
# crystal, experimental, refinement or atomic coordinate data resulting 
# from the CCDC's data processing and validation procedures.
#
#######################################################################

data_YUCSUK
_chemical_formula_moiety         'C27 H26 Br1 N3 O4,C2 H6 O1'
_chemical_name_systematic        
'Methyl (R)-8-((4-bromophenylamino)carbonyl)-2,3,4,5-tetrahydro-3-oxo-4-(2-phenylethyl)-1H-1,4-benzodiazepine-2-acetate ethanol solvate'
_symmetry_cell_setting           monoclinic
_symmetry_space_group_name_H-M   'P 21'
_symmetry_Int_Tables_number      4
_space_group_name_Hall           'P 2yb'
loop_
_symmetry_equiv_pos_site_id
_symmetry_equiv_pos_as_xyz
1 x,y,z
2 -x,1/2+y,-z
_cell_length_a                   10.596(2)
_cell_length_b                   9.586(2)
_cell_length_c                   14.793(3)
_cell_angle_alpha                90
_cell_angle_beta                 92.57(3)
_cell_angle_gamma                90
_cell_volume                     1501.06
_cell_formula_units_Z            2
loop_
_atom_site_label
_atom_site_type_symbol
_atom_site_fract_x
_atom_site_fract_y
_atom_site_fract_z
Br1 Br 0.3419(2) 0.2991(3) 0.4541(1)
O1 O 1.3476(6) 0.0996(9) 1.1373(5)
O2 O 1.5821(6) 0.3099(11) 1.0839(6)
O3 O 1.6363(7) 0.0868(10) 1.0607(6)
O4 O 0.8549(7) 0.1502(9) 0.7442(5)
N1 N 1.2210(7) 0.2889(11) 1.1420(5)
N2 N 0.7264(7) 0.3328(10) 0.7702(5)
N3 N 1.2387(6) 0.2260(10) 0.9404(5)
C1 C 1.3060(9) 0.2082(12) 1.1011(7)
C2 C 1.3412(7) 0.2529(12) 1.0076(6)
C3 C 0.8276(8) 0.2489(12) 0.7891(7)
C4 C 1.1150(7) 0.2788(12) 0.9446(6)
C5 C 1.0313(8) 0.2437(11) 0.8739(6)
C6 C 0.9074(7) 0.2923(14) 0.8705(5)
C7 C 0.8680(8) 0.3756(12) 0.9408(7)
C8 C 0.9528(9) 0.4094(12) 1.0111(6)
C9 C 1.0748(8) 0.3618(11) 1.0146(6)
C10 C 1.1602(10) 0.4084(12) 1.0954(7)
C11 C 1.1719(8) 0.2534(15) 1.2338(6)
C12 C 1.0444(9) 0.1867(17) 1.2260(7)
C13 C 0.9937(10) 0.1477(17) 1.3143(8)
C14 C 0.9658(19) 0.0078(23) 1.3319(13)
C15 C 0.9199(19) -0.0227(27) 1.4147(14)
C16 C 0.9072(19) 0.0730(38) 1.4808(13)
C17 C 0.9176(24) 0.2080(32) 1.4581(17)
C18 C 0.9691(18) 0.2429(20) 1.3763(11)
C19 C 1.4570(8) 0.1671(13) 0.9812(7)
C20 C 1.5630(10) 0.2006(15) 1.0473(8)
C21 C 1.7425(11) 0.1079(19) 1.1265(11)
C22 C 0.6370(8) 0.3201(15) 0.6943(6)
C23 C 0.6486(12) 0.2270(20) 0.6298(9)
C24 C 0.5610(13) 0.2201(21) 0.5584(9)
C25 C 0.4647(11) 0.3054(21) 0.5512(7)
C26 C 0.4471(12) 0.4071(17) 0.6192(9)
C27 C 0.5344(11) 0.4087(15) 0.6910(9)
H1 H 0.7394(7) 0.4306(10) 0.7856(5)
H2 H 1.2400(6) 0.1312(10) 0.9028(5)
H3 H 1.3618(7) 0.3529(12) 1.0080(6)
H4 H 1.0584(8) 0.1864(11) 0.8278(6)
H5 H 0.7847(8) 0.4070(12) 0.9405(7)
H6 H 0.9255(8) 0.4659(12) 1.0578(6)
H7 H 1.2250(9) 0.4704(12) 1.0738(6)
H8 H 1.1108(9) 0.4596(12) 1.1373(6)
H9 H 1.1678(8) 0.3387(15) 1.2692(6)
H10 H 1.2320(8) 0.1915(15) 1.2650(6)
H11 H 0.9854(9) 0.2494(17) 1.1949(7)
H12 H 1.0495(9) 0.1027(17) 1.1888(7)
H13 H 0.9726(20) -0.0604(23) 1.2889(13)
H14 H 0.8961(19) -0.1142(27) 1.4267(14)
H15 H 0.8928(19) 0.0435(35) 1.5394(12)
H16 H 0.8893(24) 0.2728(31) 1.4986(16)
H17 H 0.9844(18) 0.3346(20) 1.3642(11)
H18 H 1.4377(8) 0.0701(13) 0.9838(7)
H19 H 1.4798(8) 0.1929(13) 0.9215(7)
H20 H 1.8103(45) 0.155(11) 1.0986(24)
H21 H 1.7717(70) 0.0195(20) 1.1500(57)
H22 H 1.7151(32) 0.164(10) 1.1765(41)
H23 H 0.7164(12) 0.1656(20) 0.6322(9)
H24 H 0.5715(13) 0.1538(21) 0.5127(9)
H25 H 0.3816(12) 0.4726(17) 0.6146(9)
H26 H 0.5246(11) 0.4714(15) 0.7384(8)
O5 O 0.2656(8) -0.0031(11) 0.8109(5)
C28 C 0.3260(31) 0.0308(44) 0.7217(18)
C29 C 0.2204(25) 0.0941(39) 0.6693(18)
H27 H 0.3167(8) -0.0655(11) 0.8453(5)
H28 H 0.3954(31) 0.0949(44) 0.7316(18)
H29 H 0.3541(31) -0.0526(44) 0.6928(18)
H30 H 0.2346(25) 0.0796(38) 0.6073(18)
H31 H 0.2242(25) 0.1930(38) 0.6830(18)
C30? C 0.2929(44) -0.0298(67) 0.7079(23)
C31? C 0.4254(36) -0.0423(54) 0.7043(29)
H32? H 0.1459(25) 0.0546(38) 0.6878(18)
H33? H 0.2552(42) -0.1214(63) 0.6902(22)
H34? H 0.2605(42) 0.0398(63) 0.6707(22)
H35? H 0.4498(35) 0.0110(52) 0.6530(28)
H36? H 0.4477(35) -0.1377(52) 0.6970(28)
H37? H 0.4582(35) -0.0047(52) 0.7586(28)
loop_
_geom_bond_atom_site_label_1
_geom_bond_atom_site_label_2
_geom_bond_site_symmetry_1
_geom_bond_site_symmetry_2
Br1 C25 1_555 1_555
O1 C1 1_555 1_555
O2 C20 1_555 1_555
O3 C20 1_555 1_555
O4 C3 1_555 1_555
N1 C1 1_555 1_555
N2 C3 1_555 1_555
N3 C2 1_555 1_555
C1 C2 1_555 1_555
C2 C19 1_555 1_555
C3 C6 1_555 1_555
C4 N3 1_555 1_555
C5 C4 1_555 1_555
C6 C5 1_555 1_555
C7 C6 1_555 1_555
C8 C7 1_555 1_555
C9 C4 1_555 1_555
C10 N1 1_555 1_555
C11 N1 1_555 1_555
C12 C11 1_555 1_555
C13 C12 1_555 1_555
C14 C13 1_555 1_555
C15 C14 1_555 1_555
C16 C15 1_555 1_555
C17 C16 1_555 1_555
C18 C13 1_555 1_555
C19 C20 1_555 1_555
C21 O3 1_555 1_555
C22 N2 1_555 1_555
C23 C22 1_555 1_555
C24 C23 1_555 1_555
C25 C24 1_555 1_555
C26 C25 1_555 1_555
C27 C22 1_555 1_555
H1 N2 1_555 1_555
H2 N3 1_555 1_555
H3 C2 1_555 1_555
H4 C5 1_555 1_555
H5 C7 1_555 1_555
H6 C8 1_555 1_555
H7 C10 1_555 1_555
H8 C10 1_555 1_555
H9 C11 1_555 1_555
H10 C11 1_555 1_555
H11 C12 1_555 1_555
H12 C12 1_555 1_555
H13 C14 1_555 1_555
H14 C15 1_555 1_555
H15 C16 1_555 1_555
H16 C17 1_555 1_555
H17 C18 1_555 1_555
H18 C19 1_555 1_555
H19 C19 1_555 1_555
H20 C21 1_555 1_555
H21 C21 1_555 1_555
H22 C21 1_555 1_555
H23 C23 1_555 1_555
H24 C24 1_555 1_555
H25 C26 1_555 1_555
H26 C27 1_555 1_555
O5 C28 1_555 1_555
C28 C29 1_555 1_555
C29 H30 1_555 1_555
H27 O5 1_555 1_555
H28 C28 1_555 1_555
H29 C28 1_555 1_555
H31 C29 1_555 1_555
C8 C9 1_555 1_555
C9 C10 1_555 1_555
C17 C18 1_555 1_555
C26 C27 1_555 1_555

#END
