
#######################################################################
#
#                 Cambridge Crystallographic Data Centre
#                                CCDC 
#
#######################################################################
#
# If this CIF has been generated from an entry in the Cambridge 
# Structural Database, then it will include bibliographic, chemical, 
# crystal, experimental, refinement or atomic coordinate data resulting 
# from the CCDC's data processing and validation procedures.
#
#######################################################################

data_YUCTUL
_chemical_formula_moiety         'C25 H31 N2 O5 1+,Cl1 1-'
_chemical_name_systematic        
'3-Acetoxy-4-(4-methoxyphenyl)-N-(2-pyrrolidinylmethyl)-1,3,4,5-tetrahydro-7-methoxy-2H-benzazepin-2-one hydrochloride'
_symmetry_cell_setting           orthorhombic
_symmetry_space_group_name_H-M   'P 21 21 21'
_symmetry_Int_Tables_number      19
_space_group_name_Hall           'P 2ac 2ab'
loop_
_symmetry_equiv_pos_site_id
_symmetry_equiv_pos_as_xyz
1 x,y,z
2 1/2-x,-y,1/2+z
3 1/2+x,1/2-y,-z
4 -x,1/2+y,1/2-z
_cell_length_a                   8.873(1)
_cell_length_b                   38.054(3)
_cell_length_c                   7.281(1)
_cell_angle_alpha                90
_cell_angle_beta                 90
_cell_angle_gamma                90
_cell_volume                     2458.45
_cell_formula_units_Z            4
loop_
_atom_site_label
_atom_site_type_symbol
_atom_site_fract_x
_atom_site_fract_y
_atom_site_fract_z
N1 N 0.2664(4) 0.10402(7) 0.1883(4)
C1 C 0.3461(5) 0.1333(1) 0.1374(5)
O1 O 0.4286(4) 0.13394(7) 0.0036(4)
C2 C 0.3223(5) 0.1652(1) 0.2645(5)
C3 C 0.4078(5) 0.1626(1) 0.4483(5)
C4 C 0.3842(5) 0.1263(1) 0.5331(5)
C5 C 0.1270(5) 0.1147(1) 0.6654(6)
C6 C -0.0208(5) 0.1044(1) 0.6468(6)
C7 C -0.0755(5) 0.0941(1) 0.4764(8)
C8 C 0.0187(5) 0.0939(1) 0.3279(6)
C9 C 0.1681(5) 0.10365(9) 0.3462(5)
C10 C 0.2245(5) 0.1141(1) 0.5164(6)
C11 C 0.5725(5) 0.17251(9) 0.4409(5)
C12 C 0.6391(5) 0.1857(1) 0.5961(6)
C13 C 0.7901(6) 0.1961(1) 0.5993(7)
C14 C 0.8769(4) 0.1938(1) 0.4444(6)
C15 C 0.8143(5) 0.1788(1) 0.2892(6)
C16 C 0.6650(5) 0.1686(1) 0.2885(6)
O2 O 1.0201(3) 0.20504(8) 0.4278(5)
C17 C 1.0801(6) 0.2249(1) 0.5731(8)
O3 O 0.3680(3) 0.19664(6) 0.1733(4)
C18 C 0.2787(6) 0.2080(1) 0.0343(6)
O4 O 0.1662(4) 0.19225(8) -0.0093(5)
C19 C 0.3388(8) 0.2403(1) -0.0465(7)
C20 C 0.2874(5) 0.0714(1) 0.0847(5)
C21 C 0.3845(5) 0.04571(9) 0.1945(6)
N2 N 0.3830(4) 0.01047(8) 0.1026(5)
C22 C 0.5208(7) -0.0074(1) 0.1736(8)
C23 C 0.6293(7) 0.0207(2) 0.207(1)
C24 C 0.5491(6) 0.0535(1) 0.2092(8)
O5 O -0.1030(4) 0.10486(9) 0.8078(6)
C25 C -0.2527(8) 0.0999(2) 0.798(1)
H1 H 0.2171 0.1656 0.2923
H2 H 0.3645 0.1800 0.5258
H3 H 0.4100 0.1273 0.6594
H4 H 0.4478 0.1100 0.4721
H5 H 0.1632 0.1220 0.7817
H6 H -0.1782 0.0875 0.4623
H7 H -0.0183 0.0868 0.2111
H8 H 0.5811 0.1874 0.7051
H9 H 0.8323 0.2050 0.7092
H10 H 0.8739 0.1754 0.1824
H11 H 0.6244 0.1585 0.1799
H12 H 1.1805 0.2312 0.5447
H13 H 1.0209 0.2456 0.5886
H14 H 1.0776 0.2114 0.6825
H15 H 0.2742 0.2477 -0.1430
H16 H 0.3427 0.2580 0.0455
H17 H 0.4365 0.2360 -0.0928
H18 H 0.1922 0.0609 0.0620
H19 H 0.3357 0.0765 -0.0283
H20 H 0.3415 0.0474 0.3133
H21 H 0.2617 0.0000 0.0996
H22 H 0.4988 -0.0194 0.2841
H23 H 0.5587 -0.0233 0.0850
H24 H 0.6763 0.0169 0.3207
H25 H 0.7007 0.0208 0.1108
H26 H 0.5689 0.0654 0.3212
H27 H 0.5800 0.0676 0.1089
H28 H -0.2952 0.1175 0.7243
H29 H -0.2713 0.0774 0.7462
H30 H -0.2930 0.1008 0.9185
Cl1 Cl 0.4349(2) 0.01812(4) 0.6869(2)
loop_
_geom_bond_atom_site_label_1
_geom_bond_atom_site_label_2
_geom_bond_site_symmetry_1
_geom_bond_site_symmetry_2
N1 C1 1_555 1_555
C1 O1 1_555 1_555
C2 C1 1_555 1_555
C3 C2 1_555 1_555
C4 C3 1_555 1_555
C5 C6 1_555 1_555
C6 C7 1_555 1_555
C7 C8 1_555 1_555
C8 C9 1_555 1_555
C9 N1 1_555 1_555
C10 C4 1_555 1_555
C11 C3 1_555 1_555
C12 C11 1_555 1_555
C13 C12 1_555 1_555
C14 C13 1_555 1_555
C15 C14 1_555 1_555
C16 C11 1_555 1_555
O2 C14 1_555 1_555
C17 O2 1_555 1_555
O3 C2 1_555 1_555
C18 O3 1_555 1_555
O4 C18 1_555 1_555
C19 C18 1_555 1_555
C20 N1 1_555 1_555
C21 C20 1_555 1_555
N2 C21 1_555 1_555
C22 N2 1_555 1_555
C23 C22 1_555 1_555
C24 C21 1_555 1_555
O5 C6 1_555 1_555
C25 O5 1_555 1_555
H1 C2 1_555 1_555
H2 C3 1_555 1_555
H3 C4 1_555 1_555
H4 C4 1_555 1_555
H5 C5 1_555 1_555
H6 C7 1_555 1_555
H7 C8 1_555 1_555
H8 C12 1_555 1_555
H9 C13 1_555 1_555
H10 C15 1_555 1_555
H11 C16 1_555 1_555
H12 C17 1_555 1_555
H13 C17 1_555 1_555
H14 C17 1_555 1_555
H15 C19 1_555 1_555
H16 C19 1_555 1_555
H17 C19 1_555 1_555
H18 C20 1_555 1_555
H19 C20 1_555 1_555
H20 C21 1_555 1_555
H21 N2 1_555 1_555
H22 C22 1_555 1_555
H23 C22 1_555 1_555
H24 C23 1_555 1_555
H25 C23 1_555 1_555
H26 C24 1_555 1_555
H27 C24 1_555 1_555
H28 C25 1_555 1_555
H29 C25 1_555 1_555
H30 C25 1_555 1_555
C5 C10 1_555 1_555
C9 C10 1_555 1_555
C15 C16 1_555 1_555
C23 C24 1_555 1_555

#END
