
#######################################################################
#
#                 Cambridge Crystallographic Data Centre
#                                CCDC 
#
#######################################################################
#
# If this CIF has been generated from an entry in the Cambridge 
# Structural Database, then it will include bibliographic, chemical, 
# crystal, experimental, refinement or atomic coordinate data resulting 
# from the CCDC's data processing and validation procedures.
#
#######################################################################

data_YUDGAF01
_chemical_formula_moiety         'C44 H28 Cl2 N4 P1 1+,Cl1 1-,C1 H2 Cl2'
_chemical_name_systematic        
'(meso-5,10,15,20-Tetraphenylporphyrinato)dichlorophosphorus(v) chloride dichloromethane solvate'
_symmetry_cell_setting           monoclinic
_symmetry_space_group_name_H-M   'P 21/n'
_symmetry_Int_Tables_number      14
_space_group_name_Hall           '-P 2yn'
loop_
_symmetry_equiv_pos_site_id
_symmetry_equiv_pos_as_xyz
1 x,y,z
2 1/2-x,1/2+y,1/2-z
3 -x,-y,-z
4 1/2+x,1/2-y,1/2+z
_cell_length_a                   10.701(2)
_cell_length_b                   24.860(2)
_cell_length_c                   14.799(2)
_cell_angle_alpha                90
_cell_angle_beta                 94.24(2)
_cell_angle_gamma                90
_cell_volume                     3926.16
_exptl_crystal_colour            purple
_cell_formula_units_Z            4
loop_
_atom_site_label
_atom_site_type_symbol
_atom_site_fract_x
_atom_site_fract_y
_atom_site_fract_z
P1 P 0.1853(1) 0.4195(1) 0.3408(1)
Cl1 Cl 0.0166(1) 0.3830(1) 0.3827(1)
Cl2 Cl 0.3532(1) 0.4560(1) 0.2982(1)
N1 N 0.1239(3) 0.4156(1) 0.2229(2)
N2 N 0.1136(3) 0.4851(1) 0.3504(2)
N3 N 0.2486(3) 0.4242(1) 0.4583(2)
N4 N 0.2533(3) 0.3535(1) 0.3324(2)
C1 C 0.1809(3) 0.3899(1) 0.1525(2)
C2 C 0.1108(4) 0.4012(2) 0.0699(2)
C3 C 0.0078(4) 0.4298(2) 0.0894(2)
C4 C 0.0168(3) 0.4405(1) 0.1838(2)
C5 C -0.0531(3) 0.4784(2) 0.2274(2)
C6 C 0.0014(3) 0.5027(2) 0.3059(2)
C7 C -0.0286(4) 0.5536(2) 0.3417(3)
C8 C 0.0672(4) 0.5690(2) 0.4007(3)
C9 C 0.1556(3) 0.5263(1) 0.4084(2)
C10 C 0.2551(3) 0.5222(1) 0.4740(2)
C11 C 0.2933(3) 0.4711(2) 0.5019(2)
C12 C 0.3581(4) 0.4562(2) 0.5848(3)
C13 C 0.3438(4) 0.4025(2) 0.5960(3)
C14 C 0.2791(3) 0.3816(2) 0.5162(2)
C15 C 0.2709(3) 0.3274(2) 0.4921(2)
C16 C 0.2662(4) 0.3147(1) 0.4013(2)
C17 C 0.3034(4) 0.2656(2) 0.3620(3)
C18 C 0.3271(4) 0.2758(2) 0.2752(3)
C19 C 0.2913(3) 0.3296(1) 0.2544(2)
C20 C 0.2725(3) 0.3516(2) 0.1679(2)
C21 C -0.1743(3) 0.4974(2) 0.1824(2)
C22 C -0.2694(4) 0.4603(2) 0.1629(3)
C23 C -0.3854(5) 0.4772(2) 0.1256(3)
C24 C -0.4055(5) 0.5306(3) 0.1059(3)
C25 C -0.3110(5) 0.5671(2) 0.1225(3)
C26 C -0.1958(4) 0.5512(2) 0.1604(3)
C27 C 0.3050(3) 0.5725(2) 0.5166(2)
C28 C 0.3415(5) 0.6127(2) 0.4600(3)
C29 C 0.3855(5) 0.6611(2) 0.4934(4)
C30 C 0.3953(4) 0.6703(2) 0.5841(4)
C31 C 0.3604(5) 0.6307(2) 0.6422(3)
C32 C 0.3143(4) 0.5822(2) 0.6088(3)
C33 C 0.2884(4) 0.2870(2) 0.5667(2)
C34 C 0.2140(5) 0.2913(2) 0.6393(3)
C35 C 0.2299(5) 0.2563(2) 0.7127(3)
C36 C 0.3207(5) 0.2175(2) 0.7139(3)
C37 C 0.3938(5) 0.2119(2) 0.6406(3)
C38 C 0.3774(4) 0.2462(2) 0.5673(3)
C39 C 0.3398(4) 0.3267(2) 0.0931(2)
C40 C 0.4675(4) 0.3330(2) 0.0945(3)
C41 C 0.5349(5) 0.3109(2) 0.0286(4)
C42 C 0.4756(5) 0.2820(2) -0.0393(3)
C43 C 0.3500(6) 0.2760(2) -0.0422(3)
C44 C 0.2807(5) 0.2986(2) 0.0228(3)
Cl3 Cl 0.5273(1) 0.1726(1) 0.3608(1)
Cl4 Cl 0.2645(4) 0.0406(1) 0.4019(3)
Cl5 Cl 0.1390(7) 0.1349(2) 0.2994(4)
C45 C 0.2667(7) 0.0868(4) 0.3197(5)
Cl6? Cl 0.2419(11) 0.0718(8) 0.4250(9)
Cl7? Cl 0.1341(16) 0.1194(6) 0.2883(7)
loop_
_geom_bond_atom_site_label_1
_geom_bond_atom_site_label_2
_geom_bond_site_symmetry_1
_geom_bond_site_symmetry_2
P1 Cl1 1_555 1_555
Cl2 P1 1_555 1_555
N1 P1 1_555 1_555
N2 P1 1_555 1_555
N3 P1 1_555 1_555
N4 P1 1_555 1_555
C1 N1 1_555 1_555
C2 C1 1_555 1_555
C3 C2 1_555 1_555
C4 N1 1_555 1_555
C5 C4 1_555 1_555
C6 N2 1_555 1_555
C7 C6 1_555 1_555
C8 C7 1_555 1_555
C9 N2 1_555 1_555
C10 C9 1_555 1_555
C11 N3 1_555 1_555
C12 C11 1_555 1_555
C13 C12 1_555 1_555
C14 N3 1_555 1_555
C15 C14 1_555 1_555
C16 N4 1_555 1_555
C17 C16 1_555 1_555
C18 C17 1_555 1_555
C19 N4 1_555 1_555
C20 C1 1_555 1_555
C21 C5 1_555 1_555
C22 C21 1_555 1_555
C23 C22 1_555 1_555
C24 C23 1_555 1_555
C25 C24 1_555 1_555
C26 C21 1_555 1_555
C27 C10 1_555 1_555
C28 C27 1_555 1_555
C29 C28 1_555 1_555
C30 C29 1_555 1_555
C31 C30 1_555 1_555
C32 C27 1_555 1_555
C33 C15 1_555 1_555
C34 C33 1_555 1_555
C35 C34 1_555 1_555
C36 C35 1_555 1_555
C37 C36 1_555 1_555
C38 C33 1_555 1_555
C39 C20 1_555 1_555
C40 C39 1_555 1_555
C41 C40 1_555 1_555
C42 C41 1_555 1_555
C43 C42 1_555 1_555
C44 C39 1_555 1_555
Cl4 C45 1_555 1_555
Cl5 C45 1_555 1_555
C3 C4 1_555 1_555
C5 C6 1_555 1_555
C8 C9 1_555 1_555
C10 C11 1_555 1_555
C13 C14 1_555 1_555
C15 C16 1_555 1_555
C18 C19 1_555 1_555
C19 C20 1_555 1_555
C25 C26 1_555 1_555
C31 C32 1_555 1_555
C37 C38 1_555 1_555
C43 C44 1_555 1_555

#END
