
#######################################################################
#
#                 Cambridge Crystallographic Data Centre
#                                CCDC 
#
#######################################################################
#
# If this CIF has been generated from an entry in the Cambridge 
# Structural Database, then it will include bibliographic, chemical, 
# crystal, experimental, refinement or atomic coordinate data resulting 
# from the CCDC's data processing and validation procedures.
#
#######################################################################

data_YUDREW
_chemical_formula_moiety         'C21 H15 Cl1 O3 S1,0.5(C1 H1 Cl3)'
_chemical_name_systematic        
'10-(2-chlorobenzoyl)-3a,4,10,10a-tetrahydro[1]benzothieno[2,3-f][2]benzofuran-1(3H)-one chloroform solvate'
_symmetry_cell_setting           triclinic
_symmetry_space_group_name_H-M   'P -1'
_symmetry_Int_Tables_number      2
_space_group_name_Hall           '-P 1'
loop_
_symmetry_equiv_pos_site_id
_symmetry_equiv_pos_as_xyz
1 x,y,z
2 -x,-y,-z
_cell_length_a                   10.4970(15)
_cell_length_b                   11.736(2)
_cell_length_c                   15.506(2)
_cell_angle_alpha                88.463(6)
_cell_angle_beta                 87.115(6)
_cell_angle_gamma                87.941(6)
_cell_volume                     1905.98
_exptl_crystal_colour            colorless
_exptl_crystal_description       block
_cell_formula_units_Z            4
_exptl_crystal_recrystallization_method d-chloroform
loop_
_atom_site_label
_atom_site_type_symbol
_atom_site_fract_x
_atom_site_fract_y
_atom_site_fract_z
Cl1 Cl 0.94835(5) 0.10142(4) 0.31394(3)
S1 S 0.30268(5) 0.02457(4) 0.32321(3)
O1 O 0.62757(14) 0.49775(12) 0.41768(10)
O2 O 0.42767(14) 0.54345(12) 0.38115(10)
O3 O 0.72462(14) 0.25995(13) 0.29194(9)
C1 C 0.44028(19) -0.04873(16) 0.35580(12)
C2 C 0.4635(2) -0.16675(16) 0.35570(12)
H1 H 0.4023 -0.2160 0.3354
C3 C 0.5773(2) -0.21008(17) 0.38584(13)
H2 H 0.5957 -0.2899 0.3850
C4 C 0.6658(2) -0.13767(17) 0.41752(13)
H3 H 0.7425 -0.1691 0.4398
C5 C 0.64310(19) -0.02046(17) 0.41693(13)
H4 H 0.7041 0.0279 0.4386
C6 C 0.53003(18) 0.02675(16) 0.38429(12)
C7 C 0.48550(18) 0.14500(15) 0.37621(12)
C8 C 0.55801(17) 0.24825(15) 0.40233(12)
H5 H 0.5538 0.2530 0.4667
C9 C 0.49078(18) 0.35309(16) 0.36357(12)
H6 H 0.5073 0.3508 0.2996
C10 C 0.52808(19) 0.46873(16) 0.39157(13)
C11 C 0.3172(2) 0.48238(17) 0.35417(15)
H7 H 0.3087 0.4906 0.2910
H8 H 0.2374 0.5113 0.3840
C12 C 0.34646(18) 0.35839(16) 0.38052(13)
H9 H 0.3265 0.3478 0.4439
C13 C 0.28621(19) 0.26381(16) 0.33271(13)
H10 H 0.1976 0.2531 0.3557
H11 H 0.2839 0.2841 0.2704
C14 C 0.36583(18) 0.15528(16) 0.34551(12)
C15 C 0.69884(18) 0.24466(15) 0.36862(12)
C16 C 0.79979(18) 0.22370(15) 0.43294(12)
C17 C 0.91431(19) 0.16163(16) 0.41411(12)
C18 C 1.00273(19) 0.13965(17) 0.47665(13)
H12 H 1.0796 0.0974 0.4627
C19 C 0.9785(2) 0.17979(17) 0.55997(13)
H13 H 1.0379 0.1634 0.6032
C20 C 0.8672(2) 0.24392(17) 0.57967(13)
H14 H 0.8514 0.2730 0.6359
C21 C 0.77952(19) 0.26515(16) 0.51682(12)
H15 H 0.7037 0.3089 0.5308
Cl2 Cl -0.00595(5) 0.88672(4) 0.17629(3)
S2 S 0.64455(5) 0.51060(4) 0.16579(3)
O4 O 0.31337(14) 1.01076(12) 0.07568(9)
O5 O 0.51518(14) 1.04164(11) 0.10787(10)
O6 O 0.22201(15) 0.73256(13) 0.19094(9)
C22 C 0.5083(2) 0.44843(16) 0.13133(12)
C23 C 0.4840(2) 0.33195(17) 0.13174(13)
H16 H 0.5450 0.2769 0.1517
C24 C 0.3691(2) 0.29905(17) 0.10238(13)
H17 H 0.3507 0.2204 0.1025
C25 C 0.2795(2) 0.38009(17) 0.07245(13)
H18 H 0.2014 0.3557 0.0520
C26 C 0.3036(2) 0.49559(17) 0.07234(13)
H19 H 0.2421 0.5498 0.0519
C27 C 0.4191(2) 0.53229(16) 0.10244(12)
C28 C 0.46429(19) 0.64658(16) 0.10962(12)
C29 C 0.39084(18) 0.75502(15) 0.08368(12)
H20 H 0.3974 0.7660 0.0195
C30 C 0.45339(19) 0.85335(15) 0.12625(12)
H21 H 0.4360 0.8448 0.1901
C31 C 0.41433(19) 0.97380(16) 0.09980(12)
C32 C 0.6257(2) 0.97282(17) 0.13647(14)
H22 H 0.6322 0.9760 0.1998
H23 H 0.7060 0.9994 0.1077
C33 C 0.59777(18) 0.85255(16) 0.10934(12)
H24 H 0.6175 0.8465 0.0458
C34 C 0.66087(19) 0.75089(16) 0.15561(13)
H25 H 0.7494 0.7380 0.1319
H26 H 0.6636 0.7654 0.2181
C35 C 0.5828(2) 0.64756(16) 0.14175(12)
C36 C 0.24974(19) 0.75498(15) 0.11520(12)
C37 C 0.15099(19) 0.78523(16) 0.05051(12)
C38 C 0.1747(2) 0.75607(17) -0.03623(13)
H27 H 0.2535 0.7185 -0.0527
C39 C 0.0868(2) 0.78040(18) -0.09860(13)
H28 H 0.1049 0.7585 -0.1566
C40 C -0.0279(2) 0.83711(18) -0.07539(14)
H29 H -0.0883 0.8549 -0.1178
C41 C -0.0542(2) 0.86761(17) 0.00952(14)
H30 H -0.1324 0.9070 0.0250
C42 C 0.03321(19) 0.84090(16) 0.07223(13)
Cl3 Cl 0.8907(5) 0.6367(4) 0.2894(3)
Cl4 Cl 0.97789(11) 0.45910(10) 0.40439(8)
Cl5 Cl 1.03454(14) 0.44395(15) 0.22072(11)
C43 C 0.9200(4) 0.4896(4) 0.3005(3)
H31 H 0.8389 0.4491 0.2943
Cl6? Cl 0.8855(8) 0.6336(9) 0.2882(5)
Cl7? Cl 0.9589(2) 0.5516(2) 0.12318(15)
Cl8? Cl 1.0150(4) 0.4116(3) 0.2777(2)
C44? C 0.9996(9) 0.5495(8) 0.2321(6)
H32? H 1.0837 0.5863 0.2348
Cl9? Cl 0.9663(3) 0.4936(3) 0.4401(2)
Cl10? Cl 0.8707(6) 0.6160(4) 0.3011(4)
Cl11? Cl 1.0276(4) 0.4163(4) 0.2569(3)
C45? C 0.9138(13) 0.4888(10) 0.3343(7)
H33? H 0.8350 0.4431 0.3378
loop_
_geom_bond_atom_site_label_1
_geom_bond_atom_site_label_2
_geom_bond_site_symmetry_1
_geom_bond_site_symmetry_2
Cl1 C17 1_555 1_555
S1 C1 1_555 1_555
O1 C10 1_555 1_555
O2 C10 1_555 1_555
O3 C15 1_555 1_555
C1 C2 1_555 1_555
C2 H1 1_555 1_555
C3 C2 1_555 1_555
H2 C3 1_555 1_555
C4 C3 1_555 1_555
H3 C4 1_555 1_555
C5 C4 1_555 1_555
H4 C5 1_555 1_555
C6 C1 1_555 1_555
C7 C6 1_555 1_555
C8 C7 1_555 1_555
H5 C8 1_555 1_555
C9 C8 1_555 1_555
H6 C9 1_555 1_555
C10 C9 1_555 1_555
C11 O2 1_555 1_555
H7 C11 1_555 1_555
H8 C11 1_555 1_555
C12 C9 1_555 1_555
H9 C12 1_555 1_555
C13 C12 1_555 1_555
H10 C13 1_555 1_555
H11 C13 1_555 1_555
C14 S1 1_555 1_555
C15 C8 1_555 1_555
C16 C15 1_555 1_555
C17 C16 1_555 1_555
C18 C17 1_555 1_555
H12 C18 1_555 1_555
C19 C18 1_555 1_555
H13 C19 1_555 1_555
C20 C19 1_555 1_555
H14 C20 1_555 1_555
C21 C16 1_555 1_555
H15 C21 1_555 1_555
Cl2 C42 1_555 1_555
S2 C22 1_555 1_555
O4 C31 1_555 1_555
O5 C31 1_555 1_555
O6 C36 1_555 1_555
C22 C23 1_555 1_555
C23 H16 1_555 1_555
C24 C23 1_555 1_555
H17 C24 1_555 1_555
C25 C24 1_555 1_555
H18 C25 1_555 1_555
C26 C25 1_555 1_555
H19 C26 1_555 1_555
C27 C22 1_555 1_555
C28 C27 1_555 1_555
C29 C28 1_555 1_555
H20 C29 1_555 1_555
C30 C29 1_555 1_555
H21 C30 1_555 1_555
C31 C30 1_555 1_555
C32 O5 1_555 1_555
H22 C32 1_555 1_555
H23 C32 1_555 1_555
C33 C30 1_555 1_555
H24 C33 1_555 1_555
C34 C33 1_555 1_555
H25 C34 1_555 1_555
H26 C34 1_555 1_555
C35 S2 1_555 1_555
C36 C29 1_555 1_555
C37 C36 1_555 1_555
C38 C37 1_555 1_555
H27 C38 1_555 1_555
C39 C38 1_555 1_555
H28 C39 1_555 1_555
C40 C39 1_555 1_555
H29 C40 1_555 1_555
C41 C40 1_555 1_555
H30 C41 1_555 1_555
C42 C37 1_555 1_555
Cl3 C43 1_555 1_555
Cl4 C43 1_555 1_555
Cl5 C43 1_555 1_555
C43 H31 1_555 1_555
C5 C6 1_555 1_555
C7 C14 1_555 1_555
C11 C12 1_555 1_555
C13 C14 1_555 1_555
C20 C21 1_555 1_555
C26 C27 1_555 1_555
C28 C35 1_555 1_555
C32 C33 1_555 1_555
C34 C35 1_555 1_555
C41 C42 1_555 1_555

#END
