
#######################################################################
#
#                 Cambridge Crystallographic Data Centre
#                                CCDC 
#
#######################################################################
#
# If this CIF has been generated from an entry in the Cambridge 
# Structural Database, then it will include bibliographic, chemical, 
# crystal, experimental, refinement or atomic coordinate data resulting 
# from the CCDC's data processing and validation procedures.
#
#######################################################################

data_YUHCUA
_chemical_formula_moiety         'C23 H20 N2 O1,C2 H6 O1'
_chemical_name_systematic        
'2-(4,5-Diphenyl-1H-imidazol-2-yl)-4,6-dimethylphenol ethanol solvate'
_symmetry_cell_setting           triclinic
_symmetry_space_group_name_H-M   'P -1'
_symmetry_Int_Tables_number      2
_space_group_name_Hall           '-P 1'
loop_
_symmetry_equiv_pos_site_id
_symmetry_equiv_pos_as_xyz
1 x,y,z
2 -x,-y,-z
_cell_length_a                   8.2745(17)
_cell_length_b                   11.232(2)
_cell_length_c                   12.311(3)
_cell_angle_alpha                73.11(3)
_cell_angle_beta                 73.80(3)
_cell_angle_gamma                88.26(3)
_cell_volume                     1049.75
_exptl_crystal_colour            colorless
_exptl_crystal_description       block
_chemical_melting_point          '171-172 deg.C'
_cell_formula_units_Z            2
_exptl_crystal_recrystallization_method ethanol
loop_
_atom_site_label
_atom_site_type_symbol
_atom_site_fract_x
_atom_site_fract_y
_atom_site_fract_z
O1 O 0.3637(2) 0.19554(14) 0.58814(14)
H1 H 0.3312 0.2254 0.5215
N1 N 0.2280(2) 0.55090(16) 0.42521(14)
N2 N 0.2482(2) 0.35276(16) 0.43204(15)
H3 H 0.2417 0.6285 0.4467
C1 C 0.3530(3) 0.28453(19) 0.64582(18)
C2 C 0.3940(3) 0.2510(2) 0.75346(19)
C3 C 0.3880(3) 0.3410(2) 0.81116(18)
H4 H 0.4131 0.3185 0.8850
C4 C 0.3469(3) 0.4626(2) 0.76553(18)
C5 C 0.3045(3) 0.4933(2) 0.65965(18)
H5 H 0.2738 0.5756 0.6279
C6 C 0.3060(2) 0.40563(19) 0.59862(17)
C7 C 0.2614(3) 0.43626(19) 0.48688(17)
C8 C 0.2077(2) 0.41645(19) 0.32968(17)
C9 C 0.1962(3) 0.54063(19) 0.32324(17)
C10 C 0.1846(3) 0.34786(19) 0.24870(17)
C11 C 0.2650(3) 0.2366(2) 0.2481(2)
H6 H 0.3335 0.2062 0.2996
C12 C 0.2460(3) 0.1699(2) 0.1732(2)
H7 H 0.3014 0.0945 0.1738
C15 C 0.1720(2) 0.65373(19) 0.23333(18)
C16 C 0.2485(3) 0.6695(2) 0.11250(18)
H13 H 0.3104 0.6044 0.0884
C17 C 0.1440(3) 0.8740(2) 0.0625(2)
H14 H 0.1348 0.9492 0.0047
C18 C 0.2346(3) 0.7792(2) 0.02791(19)
H15 H 0.2871 0.7892 -0.0536
C19 C 0.0665(3) 0.3219(2) 0.0974(2)
H16 H -0.0009 0.3517 0.0450
C20 C 0.0811(3) 0.7501(2) 0.26623(19)
H17 H 0.0284 0.7410 0.3476
C21 C 0.1472(3) 0.2127(2) 0.0978(2)
H18 H 0.1347 0.1670 0.0463
C22 C 0.3498(3) 0.5577(2) 0.8301(2)
H19 H 0.3160 0.6377 0.7866
H20 H 0.4639 0.5680 0.8360
H21 H 0.2712 0.5292 0.9098
C23 C 0.0830(3) 0.3889(2) 0.17302(18)
H22 H 0.0248 0.4631 0.1732
C24 C 0.0666(3) 0.8596(2) 0.1814(2)
H23 H 0.0036 0.9245 0.2049
C25 C 0.4444(3) 0.1209(2) 0.8032(2)
H24 H 0.5597 0.1110 0.7586
H25 H 0.3672 0.0604 0.7969
H26 H 0.4391 0.1066 0.8866
O2 O 0.2741(2) 0.77729(15) 0.47886(15)
H2 H 0.3906 0.8019 0.4632
C13 C 0.1713(4) 0.8756(3) 0.5020(3)
H8 H 0.0521 0.8484 0.5179
H9 H 0.1992 0.9480 0.4299
C14 C 0.188(2) 0.9171(11) 0.6031(10)
H10 H 0.1125 0.9846 0.6128
H11 H 0.3046 0.9471 0.5874
H12 H 0.1577 0.8469 0.6757
C26? C 0.230(5) 0.922(2) 0.588(2)
H27? H 0.1606 0.9901 0.6059
H28? H 0.3480 0.9526 0.5530
H29? H 0.2185 0.8540 0.6609
loop_
_geom_bond_atom_site_label_1
_geom_bond_atom_site_label_2
_geom_bond_site_symmetry_1
_geom_bond_site_symmetry_2
O1 H1 1_555 1_555
O2 H2 1_555 1_555
N1 H3 1_555 1_555
N2 C7 1_555 1_555
C1 O1 1_555 1_555
C2 C1 1_555 1_555
C3 C2 1_555 1_555
H4 C3 1_555 1_555
C4 C3 1_555 1_555
C5 C4 1_555 1_555
H5 C5 1_555 1_555
C6 C1 1_555 1_555
C7 N1 1_555 1_555
C8 N2 1_555 1_555
C9 N1 1_555 1_555
C10 C8 1_555 1_555
C11 C10 1_555 1_555
H6 C11 1_555 1_555
C12 C11 1_555 1_555
H7 C12 1_555 1_555
C13 O2 1_555 1_555
H8 C13 1_555 1_555
H9 C13 1_555 1_555
C14 C13 1_555 1_555
H10 C14 1_555 1_555
H11 C14 1_555 1_555
H12 C14 1_555 1_555
C15 C9 1_555 1_555
C16 C15 1_555 1_555
H13 C16 1_555 1_555
C17 H14 1_555 1_555
C18 C16 1_555 1_555
H15 C18 1_555 1_555
C19 H16 1_555 1_555
C20 C15 1_555 1_555
H17 C20 1_555 1_555
C21 C12 1_555 1_555
H18 C21 1_555 1_555
C22 C4 1_555 1_555
H19 C22 1_555 1_555
H20 C22 1_555 1_555
H21 C22 1_555 1_555
C23 C10 1_555 1_555
H22 C23 1_555 1_555
C24 C17 1_555 1_555
H23 C24 1_555 1_555
C25 C2 1_555 1_555
H24 C25 1_555 1_555
H25 C25 1_555 1_555
H26 C25 1_555 1_555
C5 C6 1_555 1_555
C6 C7 1_555 1_555
C8 C9 1_555 1_555
C17 C18 1_555 1_555
C19 C21 1_555 1_555
C19 C23 1_555 1_555
C20 C24 1_555 1_555

#END
