
#######################################################################
#
#                 Cambridge Crystallographic Data Centre
#                                CCDC 
#
#######################################################################
#
# If this CIF has been generated from an entry in the Cambridge 
# Structural Database, then it will include bibliographic, chemical, 
# crystal, experimental, refinement or atomic coordinate data resulting 
# from the CCDC's data processing and validation procedures.
#
#######################################################################

data_YUHVAA
_chemical_formula_moiety         'C70 H56 O4 Si4,1.07(C4 H10 O1)'
_chemical_name_systematic        
'7,15-dimethyl-1,2,3,4,7,10,11,12,13,15-decaphenyl-6,8,14,16-tetraoxa-5,7,9,15-tetrasiladispiro[4.3.4.3]hexadeca-1,3,10,12-tetraene diethyl ether solvate'
_symmetry_cell_setting           triclinic
_symmetry_space_group_name_H-M   'P -1'
_symmetry_Int_Tables_number      2
_space_group_name_Hall           '-P 1'
loop_
_symmetry_equiv_pos_site_id
_symmetry_equiv_pos_as_xyz
1 x,y,z
2 -x,-y,-z
_cell_length_a                   10.476(5)
_cell_length_b                   12.979(6)
_cell_length_c                   24.589(11)
_cell_angle_alpha                104.557(15)
_cell_angle_beta                 92.741(15)
_cell_angle_gamma                100.26(2)
_cell_volume                     3169.16
_exptl_crystal_colour            'light yellow'
_exptl_crystal_description       block
_cell_formula_units_Z            2
loop_
_atom_site_label
_atom_site_type_symbol
_atom_site_fract_x
_atom_site_fract_y
_atom_site_fract_z
Si1 Si 0.78755(9) 0.23495(8) 0.27020(4)
Si2 Si 0.72327(10) 0.32525(8) 0.16483(4)
Si3 Si 1.02294(12) 0.43911(10) 0.17219(5)
Si4 Si 1.09166(11) 0.32088(10) 0.26595(5)
O1 O 0.7322(2) 0.2691(2) 0.21653(11)
O2 O 0.8680(3) 0.3918(3) 0.15983(14)
O3 O 1.0807(3) 0.3890(2) 0.21930(11)
O4 O 0.9453(3) 0.2679(3) 0.27716(19)
C1 C 0.7192(5) 0.0903(3) 0.26611(18)
C2 C 0.6455(6) 0.0909(3) 0.3104(2)
C3 C 0.6461(4) 0.2014(3) 0.34994(16)
C4 C 0.7133(5) 0.2881(3) 0.33585(18)
C5 C 0.7283(5) -0.0010(4) 0.2179(2)
C6 C 0.8400(4) 0.0050(4) 0.1894(2)
H1 H 0.9088 0.0663 0.2027
C7 C 0.8539(5) -0.0753(4) 0.1424(2)
H2 H 0.9314 -0.0682 0.1240
C8 C 0.7568(5) -0.1651(4) 0.1221(2)
H3 H 0.7655 -0.2200 0.0895
C9 C 0.6461(5) -0.1737(4) 0.1503(2)
H4 H 0.5782 -0.2357 0.1369
C10 C 0.6319(4) -0.0942(4) 0.19740(19)
H5 H 0.5552 -0.1029 0.2162
C11 C 0.5626(4) -0.0057(3) 0.32175(18)
C12 C 0.6179(4) -0.0866(5) 0.3354(4)
H6 H 0.7097 -0.0813 0.3370
C13 C 0.5385(5) -0.1761(4) 0.3466(3)
H7 H 0.5768 -0.2312 0.3560
C14 C 0.4056(5) -0.1851(5) 0.3443(2)
H8 H 0.3522 -0.2466 0.3514
C15 C 0.3498(4) -0.1034(6) 0.3316(4)
H9 H 0.2580 -0.1092 0.3298
C16 C 0.4281(5) -0.0139(4) 0.3215(3)
H10 H 0.3896 0.0429 0.3143
C17 C 0.5712(4) 0.2093(4) 0.40062(17)
C18 C 0.4779(4) 0.2739(4) 0.40937(19)
H11 H 0.4614 0.3136 0.3830
C19 C 0.4087(5) 0.2808(4) 0.4564(2)
H12 H 0.3444 0.3246 0.4621
C20 C 0.4333(9) 0.2239(8) 0.4950(4)
H13 H 0.3862 0.2293 0.5274
C21 C 0.5254(9) 0.1598(8) 0.4870(3)
H14 H 0.5422 0.1212 0.5138
C22 C 0.5942(9) 0.1514(7) 0.4397(3)
H15 H 0.6570 0.1062 0.4338
C23 C 0.7323(4) 0.4037(3) 0.36697(18)
C24 C 0.7216(5) 0.4806(3) 0.3370(2)
H16 H 0.6944 0.4568 0.2977
C25 C 0.7497(7) 0.5908(4) 0.3636(2)
H17 H 0.7415 0.6418 0.3425
C26 C 0.7895(6) 0.6260(4) 0.4202(2)
H18 H 0.8093 0.7015 0.4384
C27 C 0.8009(6) 0.5515(4) 0.4509(2)
H19 H 0.8291 0.5761 0.4901
C28 C 0.7715(4) 0.4414(4) 0.4247(2)
H20 H 0.7779 0.3909 0.4463
C29 C 0.6225(5) 0.4288(5) 0.1826(3)
C30 C 0.4862(5) 0.3964(4) 0.1811(2)
H21 H 0.4473 0.3215 0.1683
C31 C 0.4084(5) 0.4718(5) 0.1980(2)
H22 H 0.3168 0.4482 0.1964
C32 C 0.4620(5) 0.5811(5) 0.2173(2)
H23 H 0.4081 0.6324 0.2297
C33 C 0.5946(5) 0.6150(4) 0.2183(2)
H24 H 0.6324 0.6901 0.2309
C34 C 0.6731(5) 0.5394(4) 0.2009(2)
H25 H 0.7642 0.5643 0.2015
C35 C 0.6672(15) 0.2171(8) 0.0989(3)
H26 H 0.7130 0.1571 0.0978
H27 H 0.6858 0.2463 0.0664
H28 H 0.5732 0.1907 0.0976
C36 C 1.0634(4) 0.5903(3) 0.18755(15)
C37 C 1.1239(4) 0.6135(3) 0.14307(17)
C38 C 1.1522(4) 0.5170(3) 0.09932(18)
C39 C 1.1089(4) 0.4175(3) 0.10736(17)
C40 C 1.0290(4) 0.6698(3) 0.23655(16)
C41 C 1.0584(6) 0.6597(4) 0.29025(17)
H29 H 1.0979 0.6015 0.2948
C42 C 1.0307(7) 0.7339(4) 0.33767(18)
H30 H 1.0535 0.7270 0.3743
C43 C 0.9704(6) 0.8174(4) 0.3320(2)
H31 H 0.9509 0.8677 0.3643
C44 C 0.9389(7) 0.8266(4) 0.2782(2)
H32 H 0.8954 0.8827 0.2737
C45 C 0.9698(4) 0.7554(4) 0.23096(18)
H33 H 0.9508 0.7648 0.1945
C46 C 1.1647(4) 0.7246(3) 0.13602(18)
C47 C 1.2401(5) 0.8079(4) 0.17943(19)
H34 H 1.2684 0.7926 0.2133
C48 C 1.2737(5) 0.9123(4) 0.1733(2)
H35 H 1.3238 0.9683 0.2032
C49 C 1.2346(14) 0.9353(5) 0.1239(5)
H36 H 1.2608 1.0062 0.1192
C50 C 1.1572(9) 0.8548(5) 0.0813(4)
H37 H 1.1278 0.8711 0.0478
C51 C 1.1225(4) 0.7505(4) 0.0872(2)
H38 H 1.0693 0.6957 0.0577
C52 C 1.2298(4) 0.5354(3) 0.05218(18)
C53 C 1.3542(4) 0.5989(3) 0.06316(18)
H39 H 1.3884 0.6350 0.1010
C54 C 1.4293(5) 0.6099(4) 0.0190(2)
H40 H 1.5154 0.6517 0.0268
C55 C 1.3785(7) 0.5600(7) -0.0363(3)
H41 H 1.4293 0.5682 -0.0665
C56 C 1.2542(12) 0.4984(14) -0.0474(2)
H42 H 1.2192 0.4645 -0.0854
C57 C 1.1797(8) 0.4855(9) -0.0035(2)
H43 H 1.0943 0.4424 -0.0115
C58 C 1.1396(4) 0.3123(3) 0.0776(2)
C59 C 1.2591(6) 0.3017(4) 0.0556(3)
H44 H 1.3226 0.3651 0.0575
C60 C 1.2860(5) 0.2009(4) 0.0311(3)
H45 H 1.3669 0.1955 0.0158
C61 C 1.1960(7) 0.1082(4) 0.0287(3)
H46 H 1.2142 0.0389 0.0114
C62 C 1.0789(5) 0.1164(3) 0.0517(3)
H47 H 1.0173 0.0525 0.0507
C63 C 1.0512(4) 0.2172(3) 0.0759(3)
H48 H 0.9707 0.2217 0.0917
C64 C 1.1721(4) 0.4180(3) 0.33247(16)
C65 C 1.3071(4) 0.4534(3) 0.34153(18)
H49 H 1.3599 0.4243 0.3135
C66 C 1.3657(5) 0.5296(4) 0.39017(19)
H50 H 1.4579 0.5514 0.3955
C67 C 1.2915(5) 0.5742(4) 0.43092(19)
H51 H 1.3320 0.6267 0.4643
C68 C 1.1569(5) 0.5419(4) 0.42286(19)
H52 H 1.1047 0.5730 0.4506
C69 C 1.0990(4) 0.4647(4) 0.37460(17)
H53 H 1.0068 0.4425 0.3698
C70 C 1.1837(4) 0.2137(3) 0.2385(2)
H54 H 1.1444 0.1714 0.2007
H55 H 1.1812 0.1659 0.2637
H56 H 1.2743 0.2469 0.2364
O5 O 0.9214(3) 0.0846(2) 0.44737(11)
C71 C 0.8041(5) 0.0172(5) 0.5155(2)
H57 H 0.7260 -0.0061 0.4885
H58 H 0.7784 0.0374 0.5540
H59 H 0.8515 -0.0425 0.5116
C72 C 0.8901(5) 0.1132(4) 0.50386(19)
H60 H 0.8446 0.1751 0.5098
H61 H 0.9709 0.1352 0.5300
C73 C 0.9985(5) 0.1730(4) 0.4320(2)
H62 H 1.0753 0.2056 0.4600
H63 H 0.9467 0.2296 0.4315
C74 C 1.0419(5) 0.1332(4) 0.3752(2)
H64 H 0.9655 0.1022 0.3476
H65 H 1.0932 0.0773 0.3760
H66 H 1.0955 0.1937 0.3646
Si5? Si 0.9877(13) 0.4573(11) 0.1734(6)
Si6? Si 1.0580(11) 0.3612(10) 0.2771(5)
O6? O 0.8461(17) 0.395(3) 0.1505(13)
O7? O 1.036(2) 0.4183(19) 0.2272(8)
O8? O 0.9424(14) 0.260(2) 0.2749(16)
C75? C 0.714(4) 0.0917(13) 0.2671(11)
C76? C 0.658(7) 0.093(2) 0.3159(19)
C77? C 0.671(5) 0.204(2) 0.3576(14)
C78? C 0.720(4) 0.2905(18) 0.3380(10)
C79? C 0.719(4) 0.000(2) 0.2179(17)
C80? C 0.817(4) 0.016(4) 0.1822(19)
H67? H 0.8779 0.0826 0.1912
C81? C 0.825(4) -0.064(4) 0.1340(18)
H68? H 0.8979 -0.0569 0.1127
C82? C 0.727(5) -0.155(4) 0.117(2)
H69? H 0.7383 -0.2174 0.0896
C83? C 0.612(4) -0.152(3) 0.1426(16)
H70? H 0.5374 -0.2063 0.1266
C84? C 0.605(3) -0.072(3) 0.1905(16)
H71? H 0.5229 -0.0658 0.2048
C85? C 0.582(5) -0.002(3) 0.331(2)
C86? C 0.645(4) -0.082(5) 0.341(4)
H72? H 0.7358 -0.0775 0.3377
C87? C 0.572(4) -0.171(4) 0.356(3)
H73? H 0.6148 -0.2228 0.3665
C88? C 0.440(4) -0.183(4) 0.356(3)
H74? H 0.3915 -0.2382 0.3698
C89? C 0.375(4) -0.114(6) 0.335(4)
H75? H 0.2830 -0.1238 0.3331
C90? C 0.447(5) -0.031(4) 0.317(3)
H76? H 0.4059 0.0065 0.2944
C91? C 0.602(5) 0.211(3) 0.4101(14)
C92? C 0.523(4) 0.287(3) 0.4259(15)
H77? H 0.5147 0.3360 0.4037
C93? C 0.456(4) 0.292(4) 0.4735(15)
H78? H 0.4142 0.3515 0.4880
C94? C 0.451(8) 0.208(7) 0.499(3)
H79? H 0.3831 0.1941 0.5223
C95? C 0.545(9) 0.146(8) 0.491(3)
H80? H 0.5636 0.1075 0.5178
C96? C 0.612(10) 0.139(8) 0.443(3)
H81? H 0.6642 0.0858 0.4328
C97? C 0.759(6) 0.404(2) 0.3732(11)
C98? C 0.752(6) 0.488(3) 0.3476(15)
H82? H 0.7392 0.4718 0.3076
C99? C 0.765(8) 0.595(3) 0.380(2)
H83? H 0.7372 0.6473 0.3634
C100? C 0.817(7) 0.623(3) 0.435(2)
H84? H 0.8446 0.6976 0.4544
C101? C 0.828(7) 0.543(3) 0.4612(15)
H85? H 0.8522 0.5612 0.5007
C102? C 0.805(6) 0.435(3) 0.4303(14)
H86? H 0.8195 0.3805 0.4484
C103? C 0.656(5) 0.204(3) 0.1049(9)
C104? C 0.6624(16) 0.2142(12) 0.0495(6)
H87? H 0.7077 0.2805 0.0439
C105? C 0.6056(15) 0.1317(11) 0.0028(6)
H88? H 0.6122 0.1414 -0.0340
C106? C 0.5383(15) 0.0339(11) 0.0102(6)
H89? H 0.5002 -0.0240 -0.0216
C107? C 0.5279(15) 0.0221(12) 0.0635(5)
H90? H 0.4833 -0.0446 0.0687
C108? C 0.5821(15) 0.1069(11) 0.1103(6)
H91? H 0.5685 0.0985 0.1470
C109? C 0.596(2) 0.412(2) 0.1798(14)
H92? H 0.5165 0.3690 0.1884
H93? H 0.5766 0.4375 0.1467
H94? H 0.6290 0.4745 0.2122
C110? C 1.018(3) 0.6066(14) 0.1855(11)
C111? C 1.088(4) 0.6281(18) 0.1434(15)
C112? C 1.125(5) 0.532(2) 0.1024(17)
C113? C 1.100(4) 0.436(2) 0.1165(14)
C114? C 0.988(4) 0.685(2) 0.2359(11)
C115? C 1.038(6) 0.682(4) 0.2888(12)
H95? H 1.0902 0.6308 0.2921
C116? C 1.012(8) 0.756(5) 0.3369(12)
H96? H 1.0233 0.7417 0.3728
C117? C 0.970(7) 0.848(4) 0.3325(15)
H97? H 0.9693 0.9057 0.3650
C118? C 0.929(7) 0.854(3) 0.2788(17)
H98? H 0.9086 0.9200 0.2737
C119? C 0.918(4) 0.764(3) 0.2330(14)
H99? H 0.8626 0.7576 0.1999
C120? C 1.133(4) 0.739(2) 0.1366(16)
C121? C 1.251(5) 0.801(4) 0.168(2)
H100? H 1.2972 0.7729 0.1932
C122? C 1.297(5) 0.903(3) 0.161(2)
H101? H 1.3772 0.9457 0.1802
C123? C 1.225(11) 0.942(4) 0.124(4)
H102? H 1.2314 1.0183 0.1294
C124? C 1.142(9) 0.868(5) 0.081(3)
H103? H 1.1189 0.8867 0.0472
C125? C 1.095(5) 0.765(4) 0.087(2)
H104? H 1.0366 0.7128 0.0583
C126? C 1.209(4) 0.549(3) 0.0570(14)
C127? C 1.324(4) 0.625(4) 0.0690(15)
H105? H 1.3501 0.6678 0.1067
C128? C 1.402(4) 0.640(4) 0.0263(19)
H106? H 1.4801 0.6925 0.0349
C129? C 1.365(6) 0.578(7) -0.0286(18)
H107? H 1.4214 0.5841 -0.0573
C130? C 1.247(10) 0.506(13) -0.0415(18)
H108? H 1.2196 0.4658 -0.0795
C131? C 1.168(8) 0.493(10) 0.0009(17)
H109? H 1.0846 0.4463 -0.0084
C132? C 1.123(4) 0.331(2) 0.084(2)
C133? C 1.245(5) 0.318(3) 0.064(4)
H110? H 1.3083 0.3808 0.0654
C134? C 1.275(5) 0.218(4) 0.044(3)
H111? H 1.3601 0.2118 0.0327
C135? C 1.182(6) 0.125(3) 0.039(4)
H112? H 1.2036 0.0550 0.0277
C136? C 1.056(5) 0.136(3) 0.051(3)
H113? H 0.9882 0.0737 0.0412
C137? C 1.028(4) 0.236(3) 0.076(3)
H114? H 0.9441 0.2410 0.0874
C138? C 1.202(2) 0.294(2) 0.2618(9)
C139? C 1.279(3) 0.275(3) 0.3045(10)
H115? H 1.2593 0.2962 0.3426
C140? C 1.383(3) 0.226(3) 0.2914(10)
H116? H 1.4352 0.2124 0.3208
C141? C 1.414(3) 0.195(3) 0.2369(11)
H117? H 1.4888 0.1639 0.2289
C142? C 1.336(3) 0.209(3) 0.1936(10)
H118? H 1.3562 0.1879 0.1556
C143? C 1.227(3) 0.253(3) 0.2066(9)
H119? H 1.1682 0.2559 0.1767
C144? C 1.084(4) 0.459(2) 0.3467(9)
H120? H 1.1606 0.5155 0.3480
H121? H 1.0989 0.4212 0.3757
H122? H 1.0073 0.4915 0.3536
C145? C 0.363(6) 0.543(5) 0.4314(18)
C146? C 0.448(4) 0.558(6) 0.3854(15)
C147? C 0.364(4) 0.575(4) 0.2419(15)
H123? H 0.3889 0.5391 0.2051
H124? H 1.3023 0.4736 0.4189
O9? O 1.373(3) 0.568(3) 0.3381(11)
C148? C 1.434(4) 0.544(4) 0.2870(13)
H125? H 1.4346 0.4654 0.2749
H126? H 1.5255 0.5840 0.2936
H127? H 0.3870 0.6543 0.2478
H128? H 0.2698 0.5536 0.2429
H129? H 0.3145 0.6024 0.4401
H130? H 0.4178 0.5452 0.4653
H131? H 0.5174 0.6233 0.3997
H132? H 0.4907 0.4942 0.3739
loop_
_geom_bond_atom_site_label_1
_geom_bond_atom_site_label_2
_geom_bond_site_symmetry_1
_geom_bond_site_symmetry_2
Si1 O1 1_555 1_555
Si2 O1 1_555 1_555
Si3 O2 1_555 1_555
Si4 O3 1_555 1_555
O2 Si2 1_555 1_555
O3 Si3 1_555 1_555
O4 Si1 1_555 1_555
C1 Si1 1_555 1_555
C2 C1 1_555 1_555
C3 C2 1_555 1_555
C4 Si1 1_555 1_555
C5 C1 1_555 1_555
C6 C5 1_555 1_555
H1 C6 1_555 1_555
C7 C6 1_555 1_555
H2 C7 1_555 1_555
C8 C7 1_555 1_555
H3 C8 1_555 1_555
C9 C8 1_555 1_555
H4 C9 1_555 1_555
C10 C5 1_555 1_555
H5 C10 1_555 1_555
C11 C2 1_555 1_555
C12 C11 1_555 1_555
H6 C12 1_555 1_555
C13 C12 1_555 1_555
H7 C13 1_555 1_555
C14 C13 1_555 1_555
H8 C14 1_555 1_555
C15 C14 1_555 1_555
H9 C15 1_555 1_555
C16 C11 1_555 1_555
H10 C16 1_555 1_555
C17 C3 1_555 1_555
C18 C17 1_555 1_555
H11 C18 1_555 1_555
C19 C18 1_555 1_555
H12 C19 1_555 1_555
C20 C19 1_555 1_555
H13 C20 1_555 1_555
C21 C20 1_555 1_555
H14 C21 1_555 1_555
C22 C17 1_555 1_555
H15 C22 1_555 1_555
C23 C4 1_555 1_555
C24 C23 1_555 1_555
H16 C24 1_555 1_555
C25 C24 1_555 1_555
H17 C25 1_555 1_555
C26 C25 1_555 1_555
H18 C26 1_555 1_555
C27 C26 1_555 1_555
H19 C27 1_555 1_555
C28 C23 1_555 1_555
H20 C28 1_555 1_555
C29 Si2 1_555 1_555
C30 C29 1_555 1_555
H21 C30 1_555 1_555
C31 C30 1_555 1_555
H22 C31 1_555 1_555
C32 C31 1_555 1_555
H23 C32 1_555 1_555
C33 C32 1_555 1_555
H24 C33 1_555 1_555
C34 C29 1_555 1_555
H25 C34 1_555 1_555
C35 Si2 1_555 1_555
H26 C35 1_555 1_555
H27 C35 1_555 1_555
H28 C35 1_555 1_555
C36 Si3 1_555 1_555
C37 C36 1_555 1_555
C38 C37 1_555 1_555
C39 Si3 1_555 1_555
C40 C36 1_555 1_555
C41 C40 1_555 1_555
H29 C41 1_555 1_555
C42 C41 1_555 1_555
H30 C42 1_555 1_555
C43 C42 1_555 1_555
H31 C43 1_555 1_555
C44 C43 1_555 1_555
H32 C44 1_555 1_555
C45 C40 1_555 1_555
H33 C45 1_555 1_555
C46 C37 1_555 1_555
C47 C46 1_555 1_555
H34 C47 1_555 1_555
C48 C47 1_555 1_555
H35 C48 1_555 1_555
C49 C48 1_555 1_555
H36 C49 1_555 1_555
C50 C49 1_555 1_555
H37 C50 1_555 1_555
C51 C46 1_555 1_555
H38 C51 1_555 1_555
C52 C38 1_555 1_555
C53 C52 1_555 1_555
H39 C53 1_555 1_555
C54 C53 1_555 1_555
H40 C54 1_555 1_555
C55 C54 1_555 1_555
H41 C55 1_555 1_555
C56 C55 1_555 1_555
H42 C56 1_555 1_555
C57 C52 1_555 1_555
H43 C57 1_555 1_555
C58 C39 1_555 1_555
C59 C58 1_555 1_555
H44 C59 1_555 1_555
C60 C59 1_555 1_555
H45 C60 1_555 1_555
C61 C60 1_555 1_555
H46 C61 1_555 1_555
C62 C61 1_555 1_555
H47 C62 1_555 1_555
C63 C58 1_555 1_555
H48 C63 1_555 1_555
C64 Si4 1_555 1_555
C65 C64 1_555 1_555
H49 C65 1_555 1_555
C66 C65 1_555 1_555
H50 C66 1_555 1_555
C67 C66 1_555 1_555
H51 C67 1_555 1_555
C68 C67 1_555 1_555
H52 C68 1_555 1_555
C69 C64 1_555 1_555
H53 C69 1_555 1_555
C70 Si4 1_555 1_555
H54 C70 1_555 1_555
H55 C70 1_555 1_555
H56 C70 1_555 1_555
O5 C72 1_555 1_555
C71 H57 1_555 1_555
H58 C71 1_555 1_555
H59 C71 1_555 1_555
C72 C71 1_555 1_555
H60 C72 1_555 1_555
H61 C72 1_555 1_555
C73 O5 1_555 1_555
H62 C73 1_555 1_555
H63 C73 1_555 1_555
C74 C73 1_555 1_555
H64 C74 1_555 1_555
H65 C74 1_555 1_555
H66 C74 1_555 1_555
Si4 O4 1_555 1_555
C3 C4 1_555 1_555
C9 C10 1_555 1_555
C15 C16 1_555 1_555
C21 C22 1_555 1_555
C27 C28 1_555 1_555
C33 C34 1_555 1_555
C38 C39 1_555 1_555
C44 C45 1_555 1_555
C50 C51 1_555 1_555
C56 C57 1_555 1_555
C62 C63 1_555 1_555
C68 C69 1_555 1_555

#END
