
#######################################################################
#
#                 Cambridge Crystallographic Data Centre
#                                CCDC 
#
#######################################################################
#
# If this CIF has been generated from an entry in the Cambridge 
# Structural Database, then it will include bibliographic, chemical, 
# crystal, experimental, refinement or atomic coordinate data resulting 
# from the CCDC's data processing and validation procedures.
#
#######################################################################

data_YUJXUX
_chemical_name_common            
"(2S)-(1,4:3,6-Dianhydro-D-mannitol-2-yl)-2-nitromethyl-1,4:3,6-dianhydro-D-mannitol 5,5'-dinitrate"
_chemical_formula_moiety         'C13 H17 N3 O14'
_chemical_name_systematic        
"3,3'-Dihydroxy-3-(nitromethyl)dodecahydro-2,3'-bifuro[3,2-b]furan-6,6'-diyl dinitrate"
_symmetry_cell_setting           orthorhombic
_symmetry_space_group_name_H-M   'P 21 21 21'
_symmetry_Int_Tables_number      19
_space_group_name_Hall           'P 2ac 2ab'
loop_
_symmetry_equiv_pos_site_id
_symmetry_equiv_pos_as_xyz
1 x,y,z
2 1/2-x,-y,1/2+z
3 -x,1/2+y,1/2-z
4 1/2+x,1/2-y,-z
_cell_length_a                   8.5610(17)
_cell_length_b                   11.311(2)
_cell_length_c                   18.269(4)
_cell_angle_alpha                90
_cell_angle_beta                 90
_cell_angle_gamma                90
_cell_volume                     1769.05
_exptl_crystal_colour            red
_exptl_crystal_description       prismatic
_chemical_melting_point          '157-159 deg.C'
_cell_formula_units_Z            4
loop_
_atom_site_label
_atom_site_type_symbol
_atom_site_fract_x
_atom_site_fract_y
_atom_site_fract_z
O1 O 0.21541(19) 0.45893(16) 0.10920(10)
O2 O 0.3581(2) 0.19462(16) 0.02333(9)
O3 O 0.5431(2) 0.38528(15) 0.02820(10)
O4 O 0.3341(3) 0.59462(17) 0.00544(10)
O5 O 0.2168(3) 0.7161(2) 0.08481(16)
O6 O 0.1064(5) 0.6709(3) -0.0173(2)
O7 O 0.14705(18) 0.14094(15) 0.13752(9)
O8 O 0.5218(2) 0.16966(17) 0.22597(10)
O9 O 0.2623(2) 0.12609(19) 0.30337(10)
O10 O -0.0403(3) 0.2342(2) 0.23528(11)
O11 O -0.1676(3) 0.3390(3) 0.15560(15)
O12 O -0.1753(3) 0.1486(3) 0.14437(15)
O13 O 0.6627(3) -0.0688(2) 0.19338(15)
O14 O 0.4512(3) -0.15844(19) 0.16796(15)
C1 C 0.1961(3) 0.3611(2) 0.06078(14)
H1 H 0.2064 0.3862 0.0102
H2 H 0.0942 0.3251 0.0673
C2 C 0.3257(3) 0.2741(2) 0.08101(12)
C3 C 0.4619(3) 0.3614(2) 0.09490(12)
H3 H 0.5324 0.3331 0.1333
C4 C 0.3792(3) 0.4768(2) 0.11692(13)
H4 H 0.4049 0.4978 0.1676
C5 C 0.4452(3) 0.5701(2) 0.06343(14)
H5 H 0.4783 0.6422 0.0888
C6 C 0.5810(3) 0.5071(2) 0.02751(18)
H6 H 0.5950 0.5347 -0.0223
H7 H 0.6767 0.5213 0.0545
C7 C 0.2841(3) 0.2093(2) 0.15197(12)
H8 H 0.2573 0.2689 0.1888
C8 C 0.3960(3) 0.1191(2) 0.18791(12)
C9 C 0.2779(3) 0.0565(2) 0.23868(13)
H9 H 0.3081 -0.0252 0.2494
C10 C 0.1229(3) 0.0641(2) 0.19835(14)
H10 H 0.0889 -0.0142 0.1820
C11 C 0.0077(4) 0.1156(3) 0.25480(17)
H11 H -0.0826 0.0635 0.2619
C12 C 0.1016(4) 0.1283(4) 0.32434(17)
H12 H 0.0768 0.2023 0.3485
H13 H 0.0788 0.0638 0.3576
C13 C 0.4675(3) 0.0365(2) 0.13127(12)
H14 H 0.3878 0.0132 0.0964
H15 H 0.5489 0.0780 0.1048
N1 N -0.1374(3) 0.2387(3) 0.17235(15)
N2 N 0.2098(4) 0.6673(3) 0.02711(18)
N3 N 0.5350(3) -0.07137(19) 0.16602(12)
H16 H 0.487(4) 0.207(3) 0.2554(17)
H17 H 0.279(6) 0.177(4) 0.006(2)
loop_
_geom_bond_atom_site_label_1
_geom_bond_atom_site_label_2
_geom_bond_site_symmetry_1
_geom_bond_site_symmetry_2
O1 C1 1_555 1_555
O2 C2 1_555 1_555
O3 C3 1_555 1_555
O4 C5 1_555 1_555
O5 N2 1_555 1_555
O6 N2 1_555 1_555
O7 C7 1_555 1_555
O8 C8 1_555 1_555
O9 C9 1_555 1_555
O10 C11 1_555 1_555
O11 N1 1_555 1_555
O12 N1 1_555 1_555
O13 N3 1_555 1_555
O14 N3 1_555 1_555
C1 H1 1_555 1_555
H2 C1 1_555 1_555
C2 C1 1_555 1_555
C3 C2 1_555 1_555
H3 C3 1_555 1_555
C4 O1 1_555 1_555
H4 C4 1_555 1_555
C5 C4 1_555 1_555
H5 C5 1_555 1_555
C6 O3 1_555 1_555
H6 C6 1_555 1_555
H7 C6 1_555 1_555
C7 C2 1_555 1_555
H8 C7 1_555 1_555
C8 C7 1_555 1_555
C9 C8 1_555 1_555
H9 C9 1_555 1_555
C10 O7 1_555 1_555
H10 C10 1_555 1_555
C11 C10 1_555 1_555
H11 C11 1_555 1_555
C12 O9 1_555 1_555
H12 C12 1_555 1_555
H13 C12 1_555 1_555
C13 C8 1_555 1_555
H14 C13 1_555 1_555
H15 C13 1_555 1_555
N1 O10 1_555 1_555
N2 O4 1_555 1_555
N3 C13 1_555 1_555
H16 O8 1_555 1_555
H17 O2 1_555 1_555
C3 C4 1_555 1_555
C5 C6 1_555 1_555
C9 C10 1_555 1_555
C11 C12 1_555 1_555

#END
