
#######################################################################
#
#                 Cambridge Crystallographic Data Centre
#                                CCDC 
#
#######################################################################
#
# If this CIF has been generated from an entry in the Cambridge 
# Structural Database, then it will include bibliographic, chemical, 
# crystal, experimental, refinement or atomic coordinate data resulting 
# from the CCDC's data processing and validation procedures.
#
#######################################################################

data_YUKMAU
_chemical_formula_moiety         'C17 H17 N1 O4 S1'
_chemical_name_systematic        
N-(6-methoxy-3-methyl-1-benzofuran-2-yl)-4-methylbenzenesulfonamide
_symmetry_cell_setting           monoclinic
_symmetry_space_group_name_H-M   'P 21/n'
_symmetry_Int_Tables_number      14
_space_group_name_Hall           '-P 2yn'
loop_
_symmetry_equiv_pos_site_id
_symmetry_equiv_pos_as_xyz
1 x,y,z
2 1/2-x,1/2+y,1/2-z
3 -x,-y,-z
4 1/2+x,1/2-y,1/2+z
_cell_length_a                   5.0875(14)
_cell_length_b                   23.470(7)
_cell_length_c                   13.287(4)
_cell_angle_alpha                90
_cell_angle_beta                 99.711(4)
_cell_angle_gamma                90
_cell_volume                     1563.78
_exptl_crystal_colour            colorless
_exptl_crystal_description       prism
_cell_formula_units_Z            4
loop_
_atom_site_label
_atom_site_type_symbol
_atom_site_fract_x
_atom_site_fract_y
_atom_site_fract_z
C1 C 0.1150(6) 0.20938(14) 1.1566(3)
C2 C -0.0724(7) 0.22673(16) 1.2152(3)
H1 H -0.1744 0.2603 1.1980
C3 C -0.1084(7) 0.19457(16) 1.2986(3)
H2 H -0.2362 0.2064 1.3388
C4 C 0.0374(7) 0.14530(16) 1.3254(3)
C5 C -0.0035(8) 0.11201(18) 1.4186(3)
H3 H -0.1407 0.1306 1.4507
H4 H 0.1643 0.1106 1.4672
H5 H -0.0606 0.0732 1.3985
C6 C 0.2226(7) 0.12854(17) 1.2656(3)
H6 H 0.3237 0.0948 1.2826
C7 C 0.2619(7) 0.16019(16) 1.1817(3)
H7 H 0.3893 0.1483 1.1414
C8 C -0.0067(6) 0.17258(15) 0.9099(3)
C9 C -0.0916(6) 0.12010(15) 0.9261(3)
C10 C -0.2748(7) 0.10267(16) 0.9979(3)
H8 H -0.3034 0.0614 0.9935
H9 H -0.4461 0.1223 0.9794
H10 H -0.1947 0.1129 1.0679
C11 C 0.0313(6) 0.08344(15) 0.8600(3)
C12 C 0.0397(7) 0.02492(16) 0.8423(3)
H11 H -0.0608 -0.0006 0.8764
C13 C 0.1950(7) 0.00445(16) 0.7748(3)
H12 H 0.2039 -0.0354 0.7636
C14 C 0.3403(7) 0.04171(15) 0.7225(3)
C15 C 0.6318(7) 0.05115(16) 0.6004(3)
H13 H 0.7211 0.0277 0.5553
H14 H 0.7658 0.0718 0.6485
H15 H 0.5135 0.0785 0.5594
C16 C 0.3379(6) 0.10012(15) 0.7376(3)
H16 H 0.4357 0.1256 0.7025
C17 C 0.1828(6) 0.11882(15) 0.8076(3)
N1 N -0.0543(5) 0.22618(12) 0.9511(2)
H17 H -0.1946 0.2464 0.9247
O1 O 0.0747(5) 0.30730(10) 1.06470(19)
O2 O 0.4181(4) 0.23874(10) 1.02754(18)
O3 O 0.1588(4) 0.17433(10) 0.83652(17)
O4 O 0.4793(5) 0.01548(10) 0.65558(19)
S1 S 0.15754(17) 0.25025(4) 1.04950(7)
loop_
_geom_bond_atom_site_label_1
_geom_bond_atom_site_label_2
_geom_bond_site_symmetry_1
_geom_bond_site_symmetry_2
C1 C2 1_555 1_555
C2 H1 1_555 1_555
C3 C2 1_555 1_555
H2 C3 1_555 1_555
C4 C3 1_555 1_555
C5 C4 1_555 1_555
H3 C5 1_555 1_555
H4 C5 1_555 1_555
H5 C5 1_555 1_555
C6 C4 1_555 1_555
H6 C6 1_555 1_555
C7 C1 1_555 1_555
H7 C7 1_555 1_555
C8 C9 1_555 1_555
C9 C10 1_555 1_555
C10 H8 1_555 1_555
H9 C10 1_555 1_555
H10 C10 1_555 1_555
C11 C9 1_555 1_555
C12 C11 1_555 1_555
H11 C12 1_555 1_555
C13 C12 1_555 1_555
H12 C13 1_555 1_555
C14 C13 1_555 1_555
C15 H13 1_555 1_555
H14 C15 1_555 1_555
H15 C15 1_555 1_555
C16 C14 1_555 1_555
H16 C16 1_555 1_555
C17 C11 1_555 1_555
N1 C8 1_555 1_555
H17 N1 1_555 1_555
O1 S1 1_555 1_555
O2 S1 1_555 1_555
O3 C8 1_555 1_555
O4 C14 1_555 1_555
S1 C1 1_555 1_555
C6 C7 1_555 1_555
C15 O4 1_555 1_555
C16 C17 1_555 1_555
C17 O3 1_555 1_555
N1 S1 1_555 1_555

#END
