
#######################################################################
#
#                 Cambridge Crystallographic Data Centre
#                                CCDC 
#
#######################################################################
#
# If this CIF has been generated from an entry in the Cambridge 
# Structural Database, then it will include bibliographic, chemical, 
# crystal, experimental, refinement or atomic coordinate data resulting 
# from the CCDC's data processing and validation procedures.
#
#######################################################################

data_YULSED
_chemical_formula_moiety         'C33 H40 O8 Si1'
_chemical_name_systematic        
1-t-Butyl(dimethyl)siloxy-2,3-bis(methoxycarbonyl)-4-(2,2-dibenzyl-1,3-dioxacyclopenta-4-yl)-7-oxabicyclo(2.2.1)hepta-2,5-diene
_symmetry_cell_setting           orthorhombic
_symmetry_space_group_name_H-M   'P 21 21 21'
_symmetry_Int_Tables_number      19
_space_group_name_Hall           'P 2ac 2ab'
loop_
_symmetry_equiv_pos_site_id
_symmetry_equiv_pos_as_xyz
1 x,y,z
2 1/2-x,-y,1/2+z
3 1/2+x,1/2-y,-z
4 -x,1/2+y,1/2-z
_cell_length_a                   12.748(4)
_cell_length_b                   13.203(4)
_cell_length_c                   19.898(5)
_cell_angle_alpha                90
_cell_angle_beta                 90
_cell_angle_gamma                90
_cell_volume                     3349.07
_exptl_crystal_colour            colorless
_cell_formula_units_Z            4
loop_
_atom_site_label
_atom_site_type_symbol
_atom_site_fract_x
_atom_site_fract_y
_atom_site_fract_z
Si1 Si 0.8260(2) 0.8340(2) 0.9478(1)
O1 O 0.5826(3) 0.5225(3) 0.7547(2)
O2 O 0.7382(3) 0.5979(3) 0.7308(2)
O3 O 0.7209(3) 0.7724(3) 0.8188(2)
O4 O 0.7779(3) 0.9071(3) 0.8859(2)
O5 O 0.7808(7) 0.7716(5) 0.6083(3)
O6 O 0.9406(6) 0.8062(7) 0.6412(3)
O7 O 1.0186(6) 0.9160(6) 0.7721(6)
O8 O 0.9041(4) 1.0339(4) 0.7581(3)
C1 C 0.6047(6) 0.3624(5) 0.8731(3)
C2 C 0.5669(6) 0.2701(7) 0.8944(3)
C3 C 0.6313(9) 0.1852(6) 0.8865(4)
C4 C 0.7291(8) 0.1932(7) 0.8587(5)
C5 C 0.7615(6) 0.2876(6) 0.8380(4)
C6 C 0.7013(5) 0.3727(4) 0.8436(3)
C7 C 0.7379(5) 0.4735(5) 0.8166(3)
C8 C 0.6913(5) 0.5036(4) 0.7491(3)
C9 C 0.7088(5) 0.4237(5) 0.6947(3)
C10 C 0.6747(7) 0.4551(5) 0.6265(3)
C11 C 0.5771(7) 0.4329(7) 0.6016(5)
C12 C 0.5484(8) 0.4656(11) 0.5379(7)
C13 C 0.6212(20) 0.5167(9) 0.4998(5)
C14 C 0.7140(16) 0.5385(11) 0.5241(8)
C15 C 0.7400(9) 0.5097(7) 0.5846(5)
C16 C 0.5698(5) 0.6297(5) 0.7639(3)
C17 C 0.6596(5) 0.6715(4) 0.7235(3)
C18 C 0.6998(4) 0.7727(4) 0.7472(3)
C19 C 0.8060(5) 0.8103(4) 0.7217(3)
C20 C 0.8439(11) 0.7955(6) 0.6508(5)
C21 C 0.8468(31) 0.7612(14) 0.5474(8)
C23 C 0.8403(5) 0.8742(4) 0.7678(3)
C24 C 0.9306(7) 0.9434(6) 0.7671(4)
C25 C 0.9860(7) 1.1125(6) 0.7525(8)
C26 C 0.6246(5) 0.8645(5) 0.7447(3)
C27 C 0.6591(5) 0.9268(5) 0.7900(3)
C28 C 0.7525(5) 0.8776(4) 0.8239(3)
C29 C 0.9377(8) 0.7622(8) 0.9159(5)
C30 C 0.7222(9) 0.7467(8) 0.9789(4)
C31 C 0.8619(10) 0.9249(8) 1.0135(5)
C32 C 0.9049(11) 0.8743(8) 1.0739(5)
C33 C 0.7680(15) 0.9823(11) 1.0368(6)
C34 C 0.9464(16) 1.0002(12) 0.9805(8)
H1 H 0.5600 0.4122 0.8801
H2 H 0.4966 0.2776 0.9182
H3 H 0.6135 0.1176 0.9017
H4 H 0.8052 0.1412 0.8579
H5 H 0.8222 0.2983 0.8289
H6 H 0.8176 0.4771 0.8125
H7 H 0.7326 0.5205 0.8429
H8 H 0.6732 0.3690 0.7063
H9 H 0.7688 0.4151 0.7000
H10 H 0.5351 0.4038 0.6280
H11 H 0.4769 0.4519 0.5213
H12 H 0.6070 0.5484 0.4594
H13 H 0.7639 0.5743 0.4963
H14 H 0.7887 0.5235 0.6052
H15 H 0.5754 0.6459 0.8124
H16 H 0.4984 0.6559 0.7471
H17 H 0.6406 0.6842 0.6773
H18 H 0.8138 0.7367 0.5101
H19 H 0.8907 0.8179 0.5397
H20 H 0.9034 0.7036 0.5594
H24 H 1.0093 1.1082 0.8043
H25 H 0.9495 1.1690 0.7390
H26 H 1.0591 1.0761 0.7562
H27 H 0.5738 0.8733 0.7058
H28 H 0.6266 0.9760 0.8066
H29 H 0.9836 0.7924 0.8788
H30 H 0.9736 0.7330 0.9496
H31 H 0.9179 0.7304 0.8770
H32 H 0.7561 0.6866 0.9995
H33 H 0.6778 0.7770 1.0092
H34 H 0.6827 0.7197 0.9402
H35 H 0.9122 0.9084 1.1085
H36 H 0.9699 0.8361 1.0685
H37 H 0.8792 0.8183 1.0926
H38 H 0.7705 1.0086 1.0801
H39 H 0.7429 1.0325 1.0050
H40 H 0.7038 0.9315 1.0381
H41 H 1.0021 1.0282 0.9991
H42 H 0.9806 0.9661 0.9334
H43 H 0.9108 1.0602 0.9508
C22? C 0.9656(18) 0.7756(17) 0.5688(10)
H21? H 1.0340 0.7861 0.5561
H22? H 0.9404 0.7092 0.5586
H23? H 0.9205 0.8219 0.5375
loop_
_geom_bond_atom_site_label_1
_geom_bond_atom_site_label_2
_geom_bond_site_symmetry_1
_geom_bond_site_symmetry_2
Si1 O4 1_555 1_555
O1 C8 1_555 1_555
O2 C8 1_555 1_555
O3 C18 1_555 1_555
O4 C28 1_555 1_555
O5 C20 1_555 1_555
O6 C20 1_555 1_555
O7 C24 1_555 1_555
O8 C24 1_555 1_555
C1 C2 1_555 1_555
C2 C3 1_555 1_555
C3 C4 1_555 1_555
C4 C5 1_555 1_555
C5 C6 1_555 1_555
C6 C1 1_555 1_555
C7 C6 1_555 1_555
C8 C7 1_555 1_555
C9 C8 1_555 1_555
C10 C9 1_555 1_555
C11 C10 1_555 1_555
C12 C11 1_555 1_555
C13 C12 1_555 1_555
C14 C13 1_555 1_555
C15 C10 1_555 1_555
C16 O1 1_555 1_555
C17 O2 1_555 1_555
C18 C17 1_555 1_555
C19 C18 1_555 1_555
C20 C19 1_555 1_555
C21 O5 1_555 1_555
C23 C19 1_555 1_555
C24 C23 1_555 1_555
C25 O8 1_555 1_555
C26 C18 1_555 1_555
C27 C26 1_555 1_555
C28 O3 1_555 1_555
C29 Si1 1_555 1_555
C30 Si1 1_555 1_555
C31 Si1 1_555 1_555
C32 C31 1_555 1_555
C33 C31 1_555 1_555
C34 C31 1_555 1_555
H1 C1 1_555 1_555
H2 C2 1_555 1_555
H3 C3 1_555 1_555
H4 C4 1_555 1_555
H5 C5 1_555 1_555
H6 C7 1_555 1_555
H7 C7 1_555 1_555
H8 C9 1_555 1_555
H9 C9 1_555 1_555
H10 C11 1_555 1_555
H11 C12 1_555 1_555
H12 C13 1_555 1_555
H13 C14 1_555 1_555
H14 C15 1_555 1_555
H15 C16 1_555 1_555
H16 C16 1_555 1_555
H17 C17 1_555 1_555
H18 C21 1_555 1_555
H19 C21 1_555 1_555
H20 C21 1_555 1_555
H24 C25 1_555 1_555
H25 C25 1_555 1_555
H26 C25 1_555 1_555
H27 C26 1_555 1_555
H28 C27 1_555 1_555
H29 C29 1_555 1_555
H30 C29 1_555 1_555
H31 C29 1_555 1_555
H32 C30 1_555 1_555
H33 C30 1_555 1_555
H34 C30 1_555 1_555
H35 C32 1_555 1_555
H36 C32 1_555 1_555
H37 C32 1_555 1_555
H38 C33 1_555 1_555
H39 C33 1_555 1_555
H40 C33 1_555 1_555
H41 C34 1_555 1_555
H42 C34 1_555 1_555
H43 C34 1_555 1_555
C14 C15 1_555 1_555
C16 C17 1_555 1_555
C23 C28 1_555 1_555
C27 C28 1_555 1_555

#END
