
#######################################################################
#
#                 Cambridge Crystallographic Data Centre
#                                CCDC 
#
#######################################################################
#
# If this CIF has been generated from an entry in the Cambridge 
# Structural Database, then it will include bibliographic, chemical, 
# crystal, experimental, refinement or atomic coordinate data resulting 
# from the CCDC's data processing and validation procedures.
#
#######################################################################

data_YUMLUO
_chemical_formula_moiety         'C17 H27 N1 O6 S1'
_chemical_name_systematic        
N-((2-Furyl)(6-methoxy-2,2-dimethyltetrahydrofuro[3,4-d][1,3]dioxol-4-yl)methyl)-2-methylpropane-2-sulfinamide
_symmetry_cell_setting           monoclinic
_symmetry_space_group_name_H-M   'P 21'
_symmetry_Int_Tables_number      4
_space_group_name_Hall           'P 2yb'
loop_
_symmetry_equiv_pos_site_id
_symmetry_equiv_pos_as_xyz
1 x,y,z
2 -x,1/2+y,-z
_cell_length_a                   9.976(4)
_cell_length_b                   10.371(5)
_cell_length_c                   18.857(9)
_cell_angle_alpha                90
_cell_angle_beta                 95.113(8)
_cell_angle_gamma                90
_cell_volume                     1943.2
_exptl_crystal_colour            colorless
_exptl_crystal_description       block
_chemical_melting_point          '81-82 deg.C'
_cell_formula_units_Z            4
loop_
_atom_site_label
_atom_site_type_symbol
_atom_site_fract_x
_atom_site_fract_y
_atom_site_fract_z
C1 C 0.6185(4) 0.0106(4) 0.05562(19)
H1 H 0.5477 0.0061 0.0177
H2 H 0.6085 -0.0586 0.0886
H3 H 0.7040 0.0033 0.0363
C2 C 0.5926(4) 0.2451(3) 0.03993(18)
H4 H 0.6650 0.2438 0.0096
H5 H 0.5926 0.3261 0.0646
H6 H 0.5086 0.2343 0.0116
C3 C 0.5041(3) 0.1421(5) 0.14458(18)
H7 H 0.5142 0.2198 0.1722
H8 H 0.5127 0.0688 0.1757
H9 H 0.4169 0.1412 0.1185
C4 C 0.6111(3) 0.1368(3) 0.09342(16)
C5 C 1.2077(4) 0.1246(5) 0.2361(2)
H10 H 1.2756 0.1849 0.2319
C6 C 1.2216(4) -0.0023(5) 0.2301(2)
H11 H 1.2993 -0.0469 0.2215
C7 C 1.0955(4) -0.0550(4) 0.2395(2)
H12 H 1.0737 -0.1422 0.2383
C8 C 1.0133(3) 0.0402(4) 0.25041(15)
C9 C 0.8701(3) 0.0519(3) 0.26151(14)
H13 H 0.8560 0.1363 0.2830
C10 C 0.8220(3) -0.0520(3) 0.31140(16)
H14 H 0.8078 -0.1328 0.2848
C11 C 0.8817(3) 0.0080(4) 0.42691(17)
H15 H 0.9078 -0.0316 0.4733
C12 C 1.0844(3) 0.1243(4) 0.4399(2)
H16 H 1.1036 0.0842 0.4856
H17 H 1.1200 0.2103 0.4413
H18 H 1.1251 0.0752 0.4043
C13 C 0.7330(3) 0.0269(3) 0.41741(15)
H19 H 0.7071 0.1159 0.4272
C14 C 0.6917(3) -0.0127(3) 0.34019(15)
H20 H 0.6459 0.0569 0.3125
C15 C 0.5648(4) -0.1230(4) 0.41629(19)
C16 C 0.5552(4) -0.2603(4) 0.4396(2)
H21 H 0.6423 -0.3000 0.4408
H22 H 0.4933 -0.3059 0.4068
H23 H 0.5239 -0.2631 0.4863
C17 C 0.4357(3) -0.0480(4) 0.41885(19)
H24 H 0.4067 -0.0525 0.4660
H25 H 0.3677 -0.0842 0.3855
H26 H 0.4507 0.0404 0.4067
N1 N 0.7824(2) 0.0435(2) 0.19553(11)
H27 H 0.6995 0.0217 0.2066
O1 O 0.8716(2) 0.1743(3) 0.09507(11)
O2 O 1.0804(2) 0.1528(3) 0.24901(12)
O3 O 0.9425(2) 0.1289(2) 0.42278(11)
O4 O 0.6075(2) -0.1217(2) 0.34720(11)
O5 O 0.6691(2) -0.0630(3) 0.45923(11)
O6 O 0.9133(2) -0.0744(2) 0.37202(12)
S1 S 0.76896(7) 0.17289(9) 0.14581(4)
C18 C -0.2093(3) -0.0456(4) 0.65049(18)
H28 H -0.1737 -0.1272 0.6671
H29 H -0.2602 -0.0570 0.6053
H30 H -0.2666 -0.0115 0.6842
C19 C -0.1366(3) 0.1707(4) 0.60628(19)
H31 H -0.1976 0.2156 0.6342
H32 H -0.1807 0.1524 0.5600
H33 H -0.0589 0.2234 0.6014
C20 C -0.0942(3) 0.0475(4) 0.64230(17)
C21 C 0.0907(3) -0.0824(3) 0.65349(16)
H34 H 0.0651 -0.1734 0.6565
C22 C 0.0812(3) -0.0104(3) 0.72310(15)
H35 H 0.0675 -0.0694 0.7624
C23 C 0.2127(3) 0.0625(3) 0.73588(14)
H36 H 0.1935 0.1538 0.7436
C24 C 0.2340(3) -0.0649(3) 0.63752(17)
H37 H 0.2394 -0.0575 0.5860
C25 C 0.4450(3) -0.1618(4) 0.6559(2)
H38 H 0.4578 -0.1505 0.6065
H39 H 0.4898 -0.2390 0.6732
H40 H 0.4817 -0.0891 0.6825
C26 C 0.2999(3) 0.0107(3) 0.80007(13)
H41 H 0.3077 -0.0827 0.7938
C27 C 0.4381(3) 0.0643(3) 0.80736(15)
C28 C 0.4985(3) 0.1648(4) 0.78218(17)
H42 H 0.4588 0.2280 0.7522
C29 C 0.6336(4) 0.1588(5) 0.8089(2)
H43 H 0.7012 0.2166 0.7998
C30 C 0.6464(4) 0.0587(5) 0.8482(2)
H44 H 0.7267 0.0324 0.8729
C31 C 0.1217(3) 0.1496(3) 0.96911(15)
C32 C -0.0178(3) 0.1322(4) 0.93175(17)
H45 H -0.0831 0.1345 0.9662
H46 H -0.0228 0.0507 0.9075
H47 H -0.0359 0.2004 0.8978
C33 C 0.1322(4) 0.2722(4) 1.01333(19)
H48 H 0.0752 0.2653 1.0516
H49 H 0.1043 0.3445 0.9838
H50 H 0.2237 0.2843 1.0325
C34 C 0.1646(3) 0.0353(4) 1.01478(17)
H51 H 0.2582 0.0434 1.0311
H52 H 0.1508 -0.0423 0.9874
H53 H 0.1121 0.0320 1.0550
N2 N 0.2310(2) 0.0323(2) 0.86473(12)
H54 H 0.2622 -0.0263 0.8973
O7 O 0.1810(2) 0.2753(2) 0.85416(11)
O8 O 0.3062(2) -0.1717(2) 0.66420(12)
O9 O -0.0275(2) 0.0752(2) 0.71009(12)
O10 O 0.0044(2) -0.0127(2) 0.60433(10)
O11 O 0.27768(19) 0.0491(2) 0.67155(10)
O12 O 0.5272(2) -0.0046(2) 0.84930(13)
S2 S 0.24341(7) 0.17641(8) 0.90303(4)
H55? H 0.8123 -0.0211 0.1693
H56? H 0.1430 0.0157 0.8540
loop_
_geom_bond_atom_site_label_1
_geom_bond_atom_site_label_2
_geom_bond_site_symmetry_1
_geom_bond_site_symmetry_2
C1 H1 1_555 1_555
H2 C1 1_555 1_555
H3 C1 1_555 1_555
C2 H4 1_555 1_555
H5 C2 1_555 1_555
H6 C2 1_555 1_555
C3 H7 1_555 1_555
H8 C3 1_555 1_555
H9 C3 1_555 1_555
C4 C1 1_555 1_555
C5 H10 1_555 1_555
C6 C5 1_555 1_555
H11 C6 1_555 1_555
C7 C6 1_555 1_555
H12 C7 1_555 1_555
C8 C7 1_555 1_555
C9 C8 1_555 1_555
H13 C9 1_555 1_555
C10 C9 1_555 1_555
H14 C10 1_555 1_555
C11 H15 1_555 1_555
C12 H16 1_555 1_555
H17 C12 1_555 1_555
H18 C12 1_555 1_555
C13 C11 1_555 1_555
H19 C13 1_555 1_555
C14 C10 1_555 1_555
H20 C14 1_555 1_555
C15 C16 1_555 1_555
C16 H21 1_555 1_555
H22 C16 1_555 1_555
H23 C16 1_555 1_555
C17 C15 1_555 1_555
H24 C17 1_555 1_555
H25 C17 1_555 1_555
H26 C17 1_555 1_555
N1 C9 1_555 1_555
H27 N1 1_555 1_555
O1 S1 1_555 1_555
O2 C5 1_555 1_555
O3 C11 1_555 1_555
O4 C14 1_555 1_555
O5 C13 1_555 1_555
O6 C10 1_555 1_555
S1 C4 1_555 1_555
C18 H28 1_555 1_555
H29 C18 1_555 1_555
H30 C18 1_555 1_555
C19 H31 1_555 1_555
H32 C19 1_555 1_555
H33 C19 1_555 1_555
C20 C18 1_555 1_555
C21 H34 1_555 1_555
C22 C21 1_555 1_555
H35 C22 1_555 1_555
C23 C22 1_555 1_555
H36 C23 1_555 1_555
C24 C21 1_555 1_555
H37 C24 1_555 1_555
C25 H38 1_555 1_555
H39 C25 1_555 1_555
H40 C25 1_555 1_555
C26 C23 1_555 1_555
H41 C26 1_555 1_555
C27 C26 1_555 1_555
C28 C27 1_555 1_555
H42 C28 1_555 1_555
C29 C28 1_555 1_555
H43 C29 1_555 1_555
C30 C29 1_555 1_555
H44 C30 1_555 1_555
C31 C32 1_555 1_555
C32 H45 1_555 1_555
H46 C32 1_555 1_555
H47 C32 1_555 1_555
C33 C31 1_555 1_555
H48 C33 1_555 1_555
H49 C33 1_555 1_555
H50 C33 1_555 1_555
C34 C31 1_555 1_555
H51 C34 1_555 1_555
H52 C34 1_555 1_555
H53 C34 1_555 1_555
N2 C26 1_555 1_555
H54 N2 1_555 1_555
O7 S2 1_555 1_555
O8 C24 1_555 1_555
O9 C20 1_555 1_555
O10 C20 1_555 1_555
O11 C23 1_555 1_555
O12 C27 1_555 1_555
S2 C31 1_555 1_555
C2 C4 1_555 1_555
C3 C4 1_555 1_555
C8 O2 1_555 1_555
C11 O6 1_555 1_555
C12 O3 1_555 1_555
C13 C14 1_555 1_555
C15 O4 1_555 1_555
C15 O5 1_555 1_555
N1 S1 1_555 1_555
C19 C20 1_555 1_555
C21 O10 1_555 1_555
C22 O9 1_555 1_555
C24 O11 1_555 1_555
C25 O8 1_555 1_555
C30 O12 1_555 1_555
N2 S2 1_555 1_555

#END
