
#######################################################################
#
#                 Cambridge Crystallographic Data Centre
#                                CCDC 
#
#######################################################################
#
# If this CIF has been generated from an entry in the Cambridge 
# Structural Database, then it will include bibliographic, chemical, 
# crystal, experimental, refinement or atomic coordinate data resulting 
# from the CCDC's data processing and validation procedures.
#
#######################################################################

data_YUMLID
_chemical_compound_source        'dried mycelia of fungus Xylaria nigripes'
_chemical_name_common            'Xylapyrroside A!1$'
_chemical_formula_moiety         'C12 H15 N1 O5'
_chemical_name_systematic        
(2R,4R,5R)-4,5-Dihydroxy-3,4,5,6-tetrahydro-1'H-spiro[pyran-2,3'-pyrrolo[2,1-c][1,4]oxazine]-6'-carbaldehyde
_chemical_properties_biological  'antioxidant activity'
_symmetry_cell_setting           orthorhombic
_symmetry_space_group_name_H-M   'P 21 21 21'
_symmetry_Int_Tables_number      19
_space_group_name_Hall           'P 2ac 2ab'
loop_
_symmetry_equiv_pos_site_id
_symmetry_equiv_pos_as_xyz
1 x,y,z
2 1/2+x,1/2-y,-z
3 -x,1/2+y,1/2-z
4 1/2-x,-y,1/2+z
_cell_length_a                   7.10980(10)
_cell_length_b                   8.64620(10)
_cell_length_c                   18.8598(3)
_cell_angle_alpha                90
_cell_angle_beta                 90
_cell_angle_gamma                90
_cell_volume                     1159.36
_exptl_crystal_colour            colorless
_exptl_crystal_description       prism
_cell_formula_units_Z            4
_exptl_crystal_recrystallization_method acetone
loop_
_atom_site_label
_atom_site_type_symbol
_atom_site_fract_x
_atom_site_fract_y
_atom_site_fract_z
N1 N 0.63724(16) 0.21474(13) 0.19068(6)
O1 O 0.38034(17) 0.12277(13) 0.07505(5)
O2 O 0.59159(13) 0.33548(10) 0.32430(5)
O3 O 0.55006(13) 0.06775(10) 0.32451(5)
O4 O 0.08586(15) 0.19767(12) 0.44154(6)
H1 H 0.0439 0.2862 0.4509
O5 O 0.40063(16) 0.03909(12) 0.50868(5)
H2 H 0.3022 0.0039 0.5273
C1 C 0.6846(2) 0.16988(15) 0.12207(7)
C2 C 0.8758(2) 0.1961(2) 0.11437(8)
H3 H 0.9485 0.1756 0.0731
C3 C 0.9427(2) 0.2580(2) 0.17773(9)
H4 H 1.0687 0.2882 0.1873
C4 C 0.79172(18) 0.26754(16) 0.22440(8)
C5 C 0.7806(2) 0.31560(17) 0.30058(7)
H5 H 0.8428 0.2362 0.3303
H6 H 0.8498 0.4140 0.3069
C6 C 0.5520(3) 0.12175(15) 0.06930(7)
H7 H 0.6020 0.0855 0.0256
C7 C 0.45274(18) 0.20693(15) 0.22369(7)
H8 H 0.3889 0.1101 0.2093
H9 H 0.3751 0.2952 0.2075
C8 C 0.47157(18) 0.21157(15) 0.30405(6)
C9 C 0.28004(18) 0.23787(15) 0.33739(7)
H10 H 0.1879 0.1682 0.3144
H11 H 0.2402 0.3456 0.3278
C10 C 0.27523(19) 0.21009(15) 0.41754(7)
H12 H 0.3401 0.2967 0.4427
C11 C 0.37180(19) 0.05846(15) 0.43412(7)
H13 H 0.2931 -0.0288 0.4159
C12 C 0.5645(2) 0.05086(15) 0.40016(7)
H14 H 0.6449 0.1342 0.4196
H15 H 0.6242 -0.0496 0.4115
loop_
_geom_bond_atom_site_label_1
_geom_bond_atom_site_label_2
_geom_bond_site_symmetry_1
_geom_bond_site_symmetry_2
N1 C1 1_555 1_555
O1 C6 1_555 1_555
O2 C5 1_555 1_555
O3 C8 1_555 1_555
O4 H1 1_555 1_555
O5 H2 1_555 1_555
C1 C2 1_555 1_555
C2 H3 1_555 1_555
C3 C2 1_555 1_555
H4 C3 1_555 1_555
C4 N1 1_555 1_555
C5 C4 1_555 1_555
H5 C5 1_555 1_555
H6 C5 1_555 1_555
C6 C1 1_555 1_555
H7 C6 1_555 1_555
C7 N1 1_555 1_555
H8 C7 1_555 1_555
H9 C7 1_555 1_555
C8 O2 1_555 1_555
C9 C8 1_555 1_555
H10 C9 1_555 1_555
H11 C9 1_555 1_555
C10 O4 1_555 1_555
H12 C10 1_555 1_555
C11 O5 1_555 1_555
H13 C11 1_555 1_555
C12 O3 1_555 1_555
H14 C12 1_555 1_555
H15 C12 1_555 1_555
C3 C4 1_555 1_555
C7 C8 1_555 1_555
C9 C10 1_555 1_555
C10 C11 1_555 1_555
C11 C12 1_555 1_555

#END
