
#######################################################################
#
#                 Cambridge Crystallographic Data Centre
#                                CCDC 
#
#######################################################################
#
# If this CIF has been generated from an entry in the Cambridge 
# Structural Database, then it will include bibliographic, chemical, 
# crystal, experimental, refinement or atomic coordinate data resulting 
# from the CCDC's data processing and validation procedures.
#
#######################################################################

data_YUMLEY
_chemical_formula_moiety         'C22 H17 N1 O1'
_chemical_name_systematic        3,3-Diphenyl-1H-[1,3]oxazolo[3,4-a]indole
_symmetry_cell_setting           triclinic
_symmetry_space_group_name_H-M   'P -1'
_symmetry_Int_Tables_number      2
_space_group_name_Hall           '-P 1'
loop_
_symmetry_equiv_pos_site_id
_symmetry_equiv_pos_as_xyz
1 x,y,z
2 -x,-y,-z
_cell_length_a                   10.5127(12)
_cell_length_b                   11.3097(13)
_cell_length_c                   14.1538(16)
_cell_angle_alpha                85.2950(10)
_cell_angle_beta                 81.3660(10)
_cell_angle_gamma                78.5540(10)
_cell_volume                     1628.29
_exptl_crystal_colour            yellow
_exptl_crystal_description       block
_cell_formula_units_Z            4
loop_
_atom_site_label
_atom_site_type_symbol
_atom_site_fract_x
_atom_site_fract_y
_atom_site_fract_z
O1 O 0.81626(12) 0.17871(11) 0.01234(7)
N1 N 0.77588(12) 0.31207(11) 0.12701(9)
C1 C 0.76778(15) 0.40121(13) 0.19004(11)
C2 C 0.85734(18) 0.42425(15) 0.24486(12)
H1 H 0.9393 0.3747 0.2447
C3 C 0.8200(2) 0.52415(18) 0.30009(15)
H2 H 0.8782 0.5423 0.3377
C4 C 0.6978(3) 0.5974(2) 0.30033(19)
H3 H 0.6753 0.6636 0.3385
C5 C 0.6097(3) 0.57491(19) 0.24593(18)
H4 H 0.5281 0.6254 0.2471
C6 C 0.64244(18) 0.47532(16) 0.18812(14)
C7 C 0.57847(18) 0.42702(19) 0.12221(15)
H5 H 0.4950 0.4576 0.1064
C8 C 0.66190(16) 0.32845(17) 0.08707(12)
C9 C 0.67836(18) 0.22887(19) 0.02126(13)
H6 H 0.6269 0.1688 0.0482
H7 H 0.6524 0.2596 -0.0404
C10 C 0.86689(15) 0.20135(14) 0.09761(10)
C11 C 0.80665(15) 0.11520(14) 0.26739(11)
H8 H 0.7799 0.1934 0.2879
C12 C 0.79770(16) 0.01762(15) 0.33229(12)
H9 H 0.7653 0.0309 0.3961
C13 C 0.83635(16) -0.09873(15) 0.30314(13)
H10 H 0.8302 -0.1639 0.3470
C14 C 0.88412(17) -0.11777(15) 0.20880(13)
H11 H 0.9098 -0.1962 0.1886
C15 C 0.89424(16) -0.02104(15) 0.14373(12)
H12 H 0.9276 -0.0351 0.0801
C16 C 0.85526(14) 0.09683(13) 0.17199(10)
C17 C 1.00497(15) 0.22421(13) 0.06571(10)
C18 C 1.11475(15) 0.14899(15) 0.09309(11)
H13 H 1.1055 0.0831 0.1357
C19 C 1.23873(17) 0.17045(17) 0.05784(12)
H14 H 1.3122 0.1186 0.0763
C20 C 1.25347(18) 0.26799(17) -0.00423(13)
H15 H 1.3368 0.2825 -0.0276
C21 C 1.14495(19) 0.34412(17) -0.03179(13)
H16 H 1.1548 0.4102 -0.0740
C22 C 1.02187(17) 0.32293(15) 0.00272(12)
H17 H 0.9489 0.3751 -0.0162
O2 O 0.14974(11) 0.29176(11) 0.47956(8)
N2 N 0.24901(12) 0.18141(11) 0.35512(9)
C23 C 0.33268(14) 0.09940(13) 0.29628(10)
C24 C 0.46011(15) 0.09679(14) 0.25258(11)
H18 H 0.5045 0.1585 0.2590
C25 C 0.51847(17) -0.00084(15) 0.19934(12)
H19 H 0.6044 -0.0055 0.1697
C26 C 0.4522(2) -0.09239(16) 0.18881(14)
H20 H 0.4943 -0.1568 0.1519
C27 C 0.3264(2) -0.08995(15) 0.23148(13)
H21 H 0.2831 -0.1517 0.2232
C28 C 0.26333(16) 0.00629(14) 0.28785(12)
C29 C 0.13782(17) 0.03549(17) 0.34474(13)
H22 H 0.0716 -0.0096 0.3529
C30 C 0.13404(15) 0.14110(16) 0.38433(12)
C31 C 0.05434(17) 0.22985(18) 0.45241(13)
H23 H -0.0116 0.2856 0.4216
H24 H 0.0116 0.1892 0.5076
C32 C 0.25487(15) 0.29179(14) 0.40085(11)
C33 C 0.38316(15) 0.27875(14) 0.44174(10)
C34 C 0.41933(17) 0.17881(14) 0.50276(11)
H25 H 0.3651 0.1222 0.5173
C35 C 0.53364(18) 0.16260(16) 0.54179(12)
H26 H 0.5560 0.0957 0.5829
C36 C 0.61523(19) 0.24500(17) 0.52026(13)
H27 H 0.6924 0.2346 0.5472
C37 C 0.58185(19) 0.34278(17) 0.45870(14)
H28 H 0.6375 0.3981 0.4432
C38 C 0.46652(17) 0.35985(15) 0.41957(12)
H29 H 0.4450 0.4265 0.3780
C39 C 0.22314(15) 0.40464(14) 0.33538(11)
C40 C 0.24032(16) 0.40039(15) 0.23710(11)
H30 H 0.2706 0.3266 0.2091
C41 C 0.21288(17) 0.50486(15) 0.17958(12)
H31 H 0.2250 0.5006 0.1134
C42 C 0.16807(17) 0.61421(16) 0.21931(14)
H32 H 0.1497 0.6842 0.1805
C43 C 0.1505(2) 0.61968(16) 0.31683(15)
H33 H 0.1202 0.6938 0.3442
C44 C 0.17769(19) 0.51575(16) 0.37493(13)
H34 H 0.1653 0.5206 0.4411
loop_
_geom_bond_atom_site_label_1
_geom_bond_atom_site_label_2
_geom_bond_site_symmetry_1
_geom_bond_site_symmetry_2
O1 C9 1_555 1_555
N1 C1 1_555 1_555
C1 C2 1_555 1_555
C2 H1 1_555 1_555
C3 C2 1_555 1_555
H2 C3 1_555 1_555
C4 C3 1_555 1_555
H3 C4 1_555 1_555
C5 C4 1_555 1_555
H4 C5 1_555 1_555
C6 C1 1_555 1_555
C7 C6 1_555 1_555
H5 C7 1_555 1_555
C8 N1 1_555 1_555
C9 C8 1_555 1_555
H6 C9 1_555 1_555
H7 C9 1_555 1_555
C10 O1 1_555 1_555
C11 H8 1_555 1_555
C12 C11 1_555 1_555
H9 C12 1_555 1_555
C13 C12 1_555 1_555
H10 C13 1_555 1_555
C14 C13 1_555 1_555
H11 C14 1_555 1_555
C15 C14 1_555 1_555
H12 C15 1_555 1_555
C16 C10 1_555 1_555
C17 C10 1_555 1_555
C18 C17 1_555 1_555
H13 C18 1_555 1_555
C19 C18 1_555 1_555
H14 C19 1_555 1_555
C20 C19 1_555 1_555
H15 C20 1_555 1_555
C21 C20 1_555 1_555
H16 C21 1_555 1_555
C22 C17 1_555 1_555
H17 C22 1_555 1_555
O2 C31 1_555 1_555
N2 C23 1_555 1_555
C23 C24 1_555 1_555
C24 H18 1_555 1_555
C25 C24 1_555 1_555
H19 C25 1_555 1_555
C26 C25 1_555 1_555
H20 C26 1_555 1_555
C27 C26 1_555 1_555
H21 C27 1_555 1_555
C28 C23 1_555 1_555
C29 C28 1_555 1_555
H22 C29 1_555 1_555
C30 N2 1_555 1_555
C31 C30 1_555 1_555
H23 C31 1_555 1_555
H24 C31 1_555 1_555
C32 O2 1_555 1_555
C33 C32 1_555 1_555
C34 C33 1_555 1_555
H25 C34 1_555 1_555
C35 C34 1_555 1_555
H26 C35 1_555 1_555
C36 C35 1_555 1_555
H27 C36 1_555 1_555
C37 C36 1_555 1_555
H28 C37 1_555 1_555
C38 C33 1_555 1_555
H29 C38 1_555 1_555
C39 C32 1_555 1_555
C40 C39 1_555 1_555
H30 C40 1_555 1_555
C41 C40 1_555 1_555
H31 C41 1_555 1_555
C42 C41 1_555 1_555
H32 C42 1_555 1_555
C43 C42 1_555 1_555
H33 C43 1_555 1_555
C44 C39 1_555 1_555
H34 C44 1_555 1_555
N1 C10 1_555 1_555
C5 C6 1_555 1_555
C7 C8 1_555 1_555
C11 C16 1_555 1_555
C15 C16 1_555 1_555
C21 C22 1_555 1_555
N2 C32 1_555 1_555
C27 C28 1_555 1_555
C29 C30 1_555 1_555
C37 C38 1_555 1_555
C43 C44 1_555 1_555

#END
