
#######################################################################
#
#                 Cambridge Crystallographic Data Centre
#                                CCDC 
#
#######################################################################
#
# If this CIF has been generated from an entry in the Cambridge 
# Structural Database, then it will include bibliographic, chemical, 
# crystal, experimental, refinement or atomic coordinate data resulting 
# from the CCDC's data processing and validation procedures.
#
#######################################################################

data_YUMNAX
_chemical_compound_source        'aerial parts of Euphorbia dracunculoides Lam.'
_chemical_name_common            'Euphordraculoin G'
_chemical_formula_moiety         'C35 H42 O13'
_chemical_name_systematic        
'2,4,8,12-Tetraacetoxy-7-hydroxy-5,9,12-trimethyl-16-oxo-18-oxapentacyclo[7.7.2.0^1,10^.0^3,7^.0^11,14^]octadec-15-yl benzoate'
_symmetry_cell_setting           orthorhombic
_symmetry_space_group_name_H-M   'P 21 21 21'
_symmetry_Int_Tables_number      19
_space_group_name_Hall           'P 2ac 2ab'
loop_
_symmetry_equiv_pos_site_id
_symmetry_equiv_pos_as_xyz
1 x,y,z
2 1/2+x,1/2-y,-z
3 -x,1/2+y,1/2-z
4 1/2-x,-y,1/2+z
_cell_length_a                   8.2936(12)
_cell_length_b                   16.696(2)
_cell_length_c                   24.010(3)
_cell_angle_alpha                90
_cell_angle_beta                 90
_cell_angle_gamma                90
_cell_volume                     3324.66
_exptl_crystal_colour            colorless
_exptl_crystal_description       prism
_chemical_melting_point          '545-548 K'
_cell_formula_units_Z            4
_exptl_crystal_recrystallization_method acetone/chloroform
loop_
_atom_site_label
_atom_site_type_symbol
_atom_site_fract_x
_atom_site_fract_y
_atom_site_fract_z
O1 O 0.72686(14) 0.56247(7) 0.03943(4)
O2 O 0.99437(13) 0.36087(6) 0.16380(4)
O3 O 0.61288(14) 0.61300(6) 0.25147(4)
O4 O 0.66959(13) 0.52212(6) 0.15855(4)
H1 H 0.5686 0.5189 0.1597
O5 O 0.89224(19) 0.56661(9) -0.03509(5)
O6 O 1.03815(13) 0.64982(6) 0.22915(5)
O7 O 1.33533(14) 0.47906(7) 0.15625(5)
O8 O 1.11197(14) 0.26991(7) 0.10689(4)
O9 O 0.79203(14) 0.42989(7) 0.31784(4)
O10 O 0.74127(18) 0.30802(7) 0.35486(5)
O11 O 1.10176(14) 0.55934(6) 0.07962(4)
O12 O 1.08783(17) 0.43239(7) 0.04867(5)
O13 O 0.56638(16) 0.74483(7) 0.26709(5)
C1 C 0.7202(3) 0.45239(11) -0.02145(7)
H2 H 0.7331 0.4414 -0.0613
H3 H 0.6054 0.4519 -0.0119
H4 H 0.7766 0.4112 0.0002
C2 C 0.7899(2) 0.53287(11) -0.00821(6)
C3 C 0.7994(2) 0.63416(9) 0.06348(6)
H5 H 0.8833 0.6578 0.0385
C4 C 0.86745(19) 0.61315(9) 0.12083(6)
H6 H 0.9296 0.6607 0.1343
C5 C 0.98053(19) 0.54166(9) 0.12211(6)
H7 H 0.9206 0.4917 0.1122
C6 C 1.07199(18) 0.52986(9) 0.17801(6)
C7 C 1.19786(19) 0.46395(9) 0.16999(6)
C8 C 1.14917(19) 0.38017(9) 0.18748(6)
H8 H 1.2327 0.3399 0.1766
C9 C 0.99317(19) 0.30451(8) 0.12267(6)
C10 C 0.8269(2) 0.29116(9) 0.10162(6)
C11 C 0.6964(2) 0.33710(9) 0.11900(6)
H9 H 0.7121 0.3792 0.1451
C12 C 0.5433(2) 0.32156(10) 0.09836(7)
H10 H 0.4544 0.3532 0.1102
C13 C 0.5197(2) 0.25990(11) 0.06041(7)
H11 H 0.4145 0.2489 0.0468
C14 C 0.4041(2) 0.64659(12) 0.31366(8)
H12 H 0.4347 0.6579 0.3523
H13 H 0.3899 0.5887 0.3088
H14 H 0.3029 0.6741 0.3049
C15 C 0.5336(2) 0.67553(10) 0.27548(6)
C16 C 0.75408(18) 0.63176(9) 0.21846(6)
H15 H 0.7649 0.6914 0.2178
C17 C 0.71661(19) 0.60461(9) 0.15867(6)
C18 C 0.5867(2) 0.65783(10) 0.13000(6)
H16 H 0.4923 0.6251 0.1191
H17 H 0.5501 0.7006 0.1556
C19 C 0.6674(2) 0.69457(10) 0.07799(7)
H18 H 0.7221 0.7450 0.0901
C20 C 1.15445(19) 0.60800(9) 0.19621(7)
H19 H 1.2523 0.5964 0.2184
H20 H 1.1856 0.6403 0.1633
C21 C 0.9074(2) 0.59774(8) 0.24743(6)
C22 C 0.95865(18) 0.51222(8) 0.22882(6)
H21 H 0.8625 0.4805 0.2167
C23 C 1.05553(19) 0.46618(9) 0.27310(6)
H22 H 1.1363 0.5015 0.2920
C24 C 0.9625(2) 0.41266(9) 0.31597(6)
C25 C 1.0075(2) 0.33763(9) 0.28219(7)
H23 H 0.9193 0.3176 0.2581
H24 H 1.0535 0.2938 0.3050
C26 C 1.1349(2) 0.38726(9) 0.25084(6)
H25 H 1.2431 0.3796 0.2684
C27 C 0.6497(2) 0.21436(11) 0.04238(7)
H26 H 0.6338 0.1730 0.0157
C28 C 0.8031(2) 0.22919(10) 0.06328(6)
H27 H 0.8917 0.1973 0.0516
C29 C 1.0348(2) 0.41651(11) 0.37401(7)
H28 H 1.0152 0.4696 0.3900
H29 H 1.1511 0.4068 0.3719
H30 H 0.9846 0.3756 0.3976
C30 C 0.6935(2) 0.37167(10) 0.33754(7)
C31 C 0.5218(2) 0.39717(12) 0.33459(8)
H31 H 0.4528 0.3499 0.3304
H32 H 0.5067 0.4328 0.3026
H33 H 0.4928 0.4256 0.3689
C32 C 0.8916(2) 0.61030(10) 0.31020(6)
H34 H 0.9968 0.6024 0.3279
H35 H 0.8142 0.5717 0.3254
H36 H 0.8535 0.6649 0.3176
C33 C 1.1435(2) 0.49868(10) 0.04541(7)
C34 C 1.2680(3) 0.52521(13) 0.00428(8)
H37 H 1.3720 0.5315 0.0232
H38 H 1.2356 0.5765 -0.0120
H39 H 1.2780 0.4850 -0.0252
C35 C 0.5518(2) 0.71648(12) 0.03122(7)
H40 H 0.6123 0.7404 0.0004
H41 H 0.4722 0.7550 0.0450
H42 H 0.4964 0.6681 0.0182
loop_
_geom_bond_atom_site_label_1
_geom_bond_atom_site_label_2
_geom_bond_site_symmetry_1
_geom_bond_site_symmetry_2
O1 C2 1_555 1_555
O2 C8 1_555 1_555
O3 C15 1_555 1_555
O4 H1 1_555 1_555
O5 C2 1_555 1_555
O6 C20 1_555 1_555
O7 C7 1_555 1_555
O8 C9 1_555 1_555
O9 C24 1_555 1_555
O10 C30 1_555 1_555
O11 C5 1_555 1_555
O12 C33 1_555 1_555
O13 C15 1_555 1_555
C1 H2 1_555 1_555
H3 C1 1_555 1_555
H4 C1 1_555 1_555
C2 C1 1_555 1_555
C3 O1 1_555 1_555
H5 C3 1_555 1_555
C4 C3 1_555 1_555
H6 C4 1_555 1_555
C5 C4 1_555 1_555
H7 C5 1_555 1_555
C6 C5 1_555 1_555
C7 C6 1_555 1_555
C8 C7 1_555 1_555
H8 C8 1_555 1_555
C9 O2 1_555 1_555
C10 C9 1_555 1_555
C11 C10 1_555 1_555
H9 C11 1_555 1_555
C12 C11 1_555 1_555
H10 C12 1_555 1_555
C13 C12 1_555 1_555
H11 C13 1_555 1_555
C14 H12 1_555 1_555
H13 C14 1_555 1_555
H14 C14 1_555 1_555
C15 C14 1_555 1_555
C16 O3 1_555 1_555
H15 C16 1_555 1_555
C17 O4 1_555 1_555
C18 C17 1_555 1_555
H16 C18 1_555 1_555
H17 C18 1_555 1_555
C19 C3 1_555 1_555
H18 C19 1_555 1_555
C20 C6 1_555 1_555
H19 C20 1_555 1_555
H20 C20 1_555 1_555
C21 O6 1_555 1_555
C22 C6 1_555 1_555
H21 C22 1_555 1_555
C23 C22 1_555 1_555
H22 C23 1_555 1_555
C24 C23 1_555 1_555
C25 C24 1_555 1_555
H23 C25 1_555 1_555
H24 C25 1_555 1_555
C26 C8 1_555 1_555
H25 C26 1_555 1_555
C27 C13 1_555 1_555
H26 C27 1_555 1_555
C28 C10 1_555 1_555
H27 C28 1_555 1_555
C29 C24 1_555 1_555
H28 C29 1_555 1_555
H29 C29 1_555 1_555
H30 C29 1_555 1_555
C30 O9 1_555 1_555
C31 C30 1_555 1_555
H31 C31 1_555 1_555
H32 C31 1_555 1_555
H33 C31 1_555 1_555
C32 C21 1_555 1_555
H34 C32 1_555 1_555
H35 C32 1_555 1_555
H36 C32 1_555 1_555
C33 O11 1_555 1_555
C34 C33 1_555 1_555
H37 C34 1_555 1_555
H38 C34 1_555 1_555
H39 C34 1_555 1_555
C35 C19 1_555 1_555
H40 C35 1_555 1_555
H41 C35 1_555 1_555
H42 C35 1_555 1_555
C4 C17 1_555 1_555
C16 C17 1_555 1_555
C16 C21 1_555 1_555
C18 C19 1_555 1_555
C21 C22 1_555 1_555
C23 C26 1_555 1_555
C25 C26 1_555 1_555
C27 C28 1_555 1_555

#END
