
#######################################################################
#
#                 Cambridge Crystallographic Data Centre
#                                CCDC 
#
#######################################################################
#
# If this CIF has been generated from an entry in the Cambridge 
# Structural Database, then it will include bibliographic, chemical, 
# crystal, experimental, refinement or atomic coordinate data resulting 
# from the CCDC's data processing and validation procedures.
#
#######################################################################

data_YUMSAC
_chemical_name_common            '2,6-diaminopyridin-1-ium 5-nitrosalicylate'
_chemical_formula_moiety         'C7 H4 N1 O5 1-,C5 H8 N3 1+'
_chemical_name_systematic        
'2,6-diaminopyridin-1-ium 2-hydroxy-5-nitrobenzoate'
_symmetry_cell_setting           monoclinic
_symmetry_space_group_name_H-M   'P 21/c'
_symmetry_Int_Tables_number      14
_space_group_name_Hall           '-P 2ybc'
loop_
_symmetry_equiv_pos_site_id
_symmetry_equiv_pos_as_xyz
1 x,y,z
2 -x,1/2+y,1/2-z
3 -x,-y,-z
4 x,1/2-y,1/2+z
_cell_length_a                   13.7267(12)
_cell_length_b                   3.8713(6)
_cell_length_c                   24.614(2)
_cell_angle_alpha                90
_cell_angle_beta                 105.282(2)
_cell_angle_gamma                90
_cell_volume                     1261.74
_exptl_crystal_colour            colorless
_exptl_crystal_description       block
_cell_formula_units_Z            4
loop_
_atom_site_label
_atom_site_type_symbol
_atom_site_fract_x
_atom_site_fract_y
_atom_site_fract_z
N1 N 0.6551(3) 0.8254(11) 0.15978(16)
H1 H 0.6918 0.7213 0.1889
N2 N 0.5237(3) 0.7694(13) 0.20025(16)
H2 H 0.5645 0.6655 0.2280
H3 H 0.4617 0.8001 0.2003
N3 N 0.7977(3) 0.8488(14) 0.12729(19)
H4 H 0.8299 0.7435 0.1575
H5 H 0.8286 0.9063 0.1024
C1 C 0.5565(4) 0.8820(15) 0.1574(2)
C2 C 0.4974(4) 1.0538(15) 0.1102(2)
H6 H 0.4296 1.0986 0.1071
C3 C 0.5403(5) 1.1549(16) 0.0689(2)
H7 H 0.5009 1.2707 0.0377
C4 C 0.6403(5) 1.0913(15) 0.0718(2)
H8 H 0.6678 1.1594 0.0427
C5 C 0.6992(4) 0.9234(15) 0.1189(2)
N4 N 0.1966(4) 0.3266(13) 0.02949(18)
O1 O 0.2015(3) 0.9438(11) 0.25566(15)
O2 O 0.3289(3) 0.9323(11) 0.21573(15)
O3 O 0.0309(3) 0.6723(11) 0.20489(14)
H9 H 0.0715 0.7768 0.2299
O4 O 0.1442(3) 0.1545(12) -0.01003(15)
O5 O 0.2831(3) 0.4221(12) 0.03119(16)
C6 C 0.2408(4) 0.8641(16) 0.2163(2)
C7 C 0.1743(3) 0.6715(14) 0.16677(18)
C8 C 0.0742(4) 0.5911(14) 0.1640(2)
C9 C 0.0158(4) 0.4119(15) 0.1171(2)
H10 H -0.0503 0.3504 0.1158
C10 C 0.0554(4) 0.3266(14) 0.0731(2)
H11 H 0.0164 0.2093 0.0419
C11 C 0.1538(4) 0.4171(13) 0.07570(19)
C12 C 0.2138(4) 0.5834(14) 0.1219(2)
H12 H 0.2805 0.6368 0.1232
loop_
_geom_bond_atom_site_label_1
_geom_bond_atom_site_label_2
_geom_bond_site_symmetry_1
_geom_bond_site_symmetry_2
N1 H1 1_555 1_555
N2 H2 1_555 1_555
H3 N2 1_555 1_555
N3 H4 1_555 1_555
H5 N3 1_555 1_555
C1 N1 1_555 1_555
C2 C1 1_555 1_555
H6 C2 1_555 1_555
C3 C2 1_555 1_555
H7 C3 1_555 1_555
C4 C3 1_555 1_555
H8 C4 1_555 1_555
C5 N1 1_555 1_555
N4 O4 1_555 1_555
O1 C6 1_555 1_555
O2 C6 1_555 1_555
O3 H9 1_555 1_555
O5 N4 1_555 1_555
C6 C7 1_555 1_555
C7 C8 1_555 1_555
C8 O3 1_555 1_555
C9 C8 1_555 1_555
H10 C9 1_555 1_555
C10 C9 1_555 1_555
H11 C10 1_555 1_555
C11 N4 1_555 1_555
C12 C7 1_555 1_555
H12 C12 1_555 1_555
N2 C1 1_555 1_555
N3 C5 1_555 1_555
C4 C5 1_555 1_555
C10 C11 1_555 1_555
C11 C12 1_555 1_555

#END
