
#######################################################################
#
#                 Cambridge Crystallographic Data Centre
#                                CCDC 
#
#######################################################################
#
# If this CIF has been generated from an entry in the Cambridge 
# Structural Database, then it will include bibliographic, chemical, 
# crystal, experimental, refinement or atomic coordinate data resulting 
# from the CCDC's data processing and validation procedures.
#
#######################################################################

data_YUMTAB
_chemical_formula_moiety         'C9 H16 Cl1 N1 O5 Si1'
_chemical_name_systematic        
'(3R,4S)-1-Chloromethyl-3-methylsilatrane-4-carboxylic acid'
_symmetry_cell_setting           orthorhombic
_symmetry_space_group_name_H-M   'P 21 21 21'
_symmetry_Int_Tables_number      19
_space_group_name_Hall           'P 2ac 2ab'
loop_
_symmetry_equiv_pos_site_id
_symmetry_equiv_pos_as_xyz
1 x,y,z
2 1/2-x,-y,1/2+z
3 1/2+x,1/2-y,-z
4 -x,1/2+y,1/2-z
_cell_length_a                   11.638(4)
_cell_length_b                   15.247(3)
_cell_length_c                   7.051(2)
_cell_angle_alpha                90
_cell_angle_beta                 90
_cell_angle_gamma                90
_cell_volume                     1251.16
_exptl_crystal_colour            colorless
_chemical_melting_point          150deg.C(dec.)
_cell_formula_units_Z            4
loop_
_atom_site_label
_atom_site_type_symbol
_atom_site_fract_x
_atom_site_fract_y
_atom_site_fract_z
Si1 Si 0.50497(9) 0.97327(6) 0.4661(2)
Cl1 Cl 0.6252(1) 0.80282(7) 0.3479(2)
O1 O 0.5614(2) 0.9427(2) 0.6749(4)
O2 O 0.5909(2) 1.0121(2) 0.2985(4)
O3 O 0.3668(2) 0.9959(2) 0.4567(4)
O4 O 0.4645(3) 1.2809(2) 0.6645(5)
O5 O 0.2853(3) 1.2352(2) 0.7170(5)
N1 N 0.5189(3) 1.1022(2) 0.5821(4)
C1 C 0.2166(4) 1.0995(3) 0.3993(8)
C2 C 0.3777(4) 1.2247(2) 0.6496(6)
C3 C 0.4890(4) 0.8590(2) 0.3640(6)
C4 C 0.6023(4) 1.0046(2) 0.8106(6)
C5 C 0.5335(3) 1.0889(2) 0.7889(5)
C6 C 0.6207(4) 1.1026(2) 0.2871(6)
C7 C 0.6209(3) 1.1391(2) 0.4868(6)
C8 C 0.3158(3) 1.0749(2) 0.5262(6)
C9 C 0.4100(3) 1.1452(2) 0.5289(5)
H1 H 0.4434 1.3339 0.7071
loop_
_geom_bond_atom_site_label_1
_geom_bond_atom_site_label_2
_geom_bond_site_symmetry_1
_geom_bond_site_symmetry_2
Si1 O1 1_555 1_555
Cl1 C3 1_555 1_555
O1 C4 1_555 1_555
O2 Si1 1_555 1_555
O3 Si1 1_555 1_555
O4 C2 1_555 1_555
O5 C2 1_555 1_555
N1 Si1 1_555 1_555
C1 C8 1_555 1_555
C2 C9 1_555 1_555
C3 Si1 1_555 1_555
C4 C5 1_555 1_555
C5 N1 1_555 1_555
C6 O2 1_555 1_555
C7 N1 1_555 1_555
C8 O3 1_555 1_555
C9 N1 1_555 1_555
H1 O4 1_555 1_555
C6 C7 1_555 1_555
C8 C9 1_555 1_555

#END
