
#######################################################################
#
#                 Cambridge Crystallographic Data Centre
#                                CCDC 
#
#######################################################################
#
# If this CIF has been generated from an entry in the Cambridge 
# Structural Database, then it will include bibliographic, chemical, 
# crystal, experimental, refinement or atomic coordinate data resulting 
# from the CCDC's data processing and validation procedures.
#
#######################################################################

data_YUNZEN
_chemical_compound_source        'extreme-tolerant Penicillium species'
_chemical_name_common            
'(S)-4,11,12,14,16b-Pentamethyl-2,9-dioxo-2,4a,5,6,15a,16a,16b,16c-octahydro-1H,8aH,9H-8,10,13,16-tetraoxabenzo[4,5]pentaleno[1,6a-g]cyclohepta[bc]acenaphthylen-7-yl 3,3,3-trifluoro-2-methoxy-2-phenylpropanoate'
_chemical_formula_moiety         'C37 H37 F3 O9'
_chemical_name_systematic        '(S)-Brevione H'
_chemical_properties_biological  'inhibitory activity'
_symmetry_cell_setting           orthorhombic
_symmetry_space_group_name_H-M   'P 21 21 21'
_symmetry_Int_Tables_number      19
_space_group_name_Hall           'P 2ac 2ab'
loop_
_symmetry_equiv_pos_site_id
_symmetry_equiv_pos_as_xyz
1 x,y,z
2 1/2-x,-y,1/2+z
3 -x,1/2+y,1/2-z
4 1/2+x,1/2-y,-z
_cell_length_a                   8.4483(17)
_cell_length_b                   15.923(3)
_cell_length_c                   23.947(5)
_cell_angle_alpha                90
_cell_angle_beta                 90
_cell_angle_gamma                90
_cell_volume                     3221.41
_exptl_crystal_colour            colorless
_exptl_crystal_description       plate
_cell_formula_units_Z            4
_exptl_crystal_recrystallization_method methanol/water
loop_
_atom_site_label
_atom_site_type_symbol
_atom_site_fract_x
_atom_site_fract_y
_atom_site_fract_z
F1 F -0.1758(3) 0.5075(2) 0.20718(11)
F2 F 0.0295(4) 0.55125(18) 0.25165(9)
F3 F 0.0370(4) 0.43397(15) 0.20760(11)
O1 O -0.0473(3) 0.63349(14) 0.15342(10)
O2 O 0.3146(4) 0.51930(16) 0.17194(14)
O3 O 0.2546(3) 0.65648(13) 0.16387(9)
O4 O 0.4982(3) 0.68004(14) 0.12182(9)
O5 O 0.1634(3) 0.83295(14) 0.00855(9)
O6 O 0.2887(3) 0.71132(14) -0.00057(9)
O7 O 0.4255(3) 0.89580(13) 0.14247(8)
O8 O 0.7589(3) 0.75723(17) 0.30416(9)
O9 O 0.5374(3) 0.82956(18) 0.47699(9)
C1 C 0.1405(5) 0.4865(3) 0.06422(16)
H1 H 0.2449 0.5042 0.0731
C2 C 0.1132(5) 0.4410(3) 0.01579(18)
H2 H 0.1990 0.4274 -0.0082
C3 C 0.1104(5) 0.6943(3) 0.38310(15)
H3 H 0.0885 0.6796 0.4221
H4 H 0.1155 0.6431 0.3605
H5 H 0.0257 0.7306 0.3690
C4 C -0.1356(5) 0.4820(2) 0.08495(16)
H6 H -0.2223 0.4971 0.1081
C5 C -0.0376(5) 0.4153(2) 0.00232(17)
H7 H -0.0559 0.3836 -0.0307
C6 C 0.2203(4) 0.5742(2) 0.16355(14)
C7 C 0.7564(4) 0.9095(2) 0.12793(14)
H8 H 0.8703 0.9151 0.1347
H9 H 0.7049 0.9640 0.1336
H10 H 0.7387 0.8907 0.0895
C8 C -0.0447(4) 0.6828(2) 0.10318(15)
H11 H -0.0814 0.7399 0.1114
H12 H -0.1146 0.6572 0.0753
H13 H 0.0635 0.6851 0.0885
C9 C -0.0177(6) 0.5121(3) 0.20471(17)
C10 C -0.1618(5) 0.4359(2) 0.03695(17)
H14 H -0.2660 0.4184 0.0278
C11 C 0.6261(4) 0.7417(2) 0.34212(13)
H15 H 0.6503 0.6903 0.3646
C12 C 0.7047(4) 0.7482(2) 0.24733(13)
H16 H 0.7212 0.6896 0.2336
C13 C 0.3502(4) 0.7553(2) 0.42576(13)
H17 H 0.3079 0.7337 0.4596
C14 C 0.7737(4) 0.8104(2) 0.20799(13)
H18 H 0.8823 0.8249 0.2115
C15 C 0.0049(4) 0.9531(2) 0.00338(14)
H19 H -0.0058 1.0102 0.0182
H20 H -0.0953 0.9229 0.0081
H21 H 0.0317 0.9558 -0.0364
C16 C 0.2125(4) 0.93368(19) 0.07997(13)
C17 C 0.1845(4) 1.0155(2) 0.11003(14)
H22 H 0.1263 1.0540 0.0856
H23 H 0.2865 1.0407 0.1201
H24 H 0.1226 1.0052 0.1439
C18 C 0.0172(4) 0.50642(19) 0.09964(14)
C19 C 0.6877(4) 0.8463(2) 0.16790(13)
C20 C 0.6113(4) 0.8161(2) 0.38185(13)
H25 H 0.7178 0.8300 0.3964
H26 H 0.5730 0.8653 0.3605
C21 C 0.4560(4) 0.6274(2) 0.30251(14)
H27 H 0.3677 0.6145 0.2774
H28 H 0.4329 0.6054 0.3398
H29 H 0.5530 0.6014 0.2882
C22 C 0.0423(4) 0.5585(2) 0.15260(14)
C23 C 0.3236(4) 0.7681(2) 0.32272(12)
H30 H 0.3500 0.8291 0.3265
C24 C 0.1321(4) 0.90836(19) 0.03393(13)
C25 C 0.4785(4) 0.72362(19) 0.30578(12)
C26 C 0.2651(4) 0.7398(2) 0.37964(13)
C27 C 0.5319(3) 0.7679(2) 0.25269(12)
H31 H 0.5311 0.8285 0.2634
C28 C 0.5008(4) 0.8016(2) 0.43092(13)
C29 C 0.5072(4) 0.76433(18) 0.10190(12)
H32 H 0.6030 0.7720 0.0779
C30 C 0.3316(4) 0.87759(19) 0.09814(12)
C31 C 0.4292(4) 0.76562(19) 0.20071(12)
C32 C 0.3639(4) 0.80166(19) 0.07420(12)
C33 C 0.5186(4) 0.82030(19) 0.15496(12)
C34 C 0.4211(4) 0.6779(2) 0.17325(12)
H33 H 0.4716 0.6351 0.1981
C35 C 0.2781(4) 0.7755(2) 0.02639(13)
C36 C 0.2041(4) 0.7616(2) 0.27422(12)
H34 H 0.1045 0.7900 0.2850
H35 H 0.1797 0.7017 0.2673
C37 C 0.2684(4) 0.80178(19) 0.21971(12)
H36 H 0.1900 0.7932 0.1895
H37 H 0.2799 0.8630 0.2255
loop_
_geom_bond_atom_site_label_1
_geom_bond_atom_site_label_2
_geom_bond_site_symmetry_1
_geom_bond_site_symmetry_2
F1 C9 1_555 1_555
F2 C9 1_555 1_555
F3 C9 1_555 1_555
O1 C8 1_555 1_555
O2 C6 1_555 1_555
O3 C6 1_555 1_555
O4 C29 1_555 1_555
O5 C24 1_555 1_555
O6 C35 1_555 1_555
O7 C30 1_555 1_555
O8 C11 1_555 1_555
O9 C28 1_555 1_555
C1 H1 1_555 1_555
C2 C1 1_555 1_555
H2 C2 1_555 1_555
C3 H3 1_555 1_555
H4 C3 1_555 1_555
H5 C3 1_555 1_555
C4 H6 1_555 1_555
C5 C2 1_555 1_555
H7 C5 1_555 1_555
C6 C22 1_555 1_555
C7 H8 1_555 1_555
H9 C7 1_555 1_555
H10 C7 1_555 1_555
C8 H11 1_555 1_555
H12 C8 1_555 1_555
H13 C8 1_555 1_555
C9 C22 1_555 1_555
C10 C4 1_555 1_555
H14 C10 1_555 1_555
C11 H15 1_555 1_555
C12 O8 1_555 1_555
H16 C12 1_555 1_555
C13 H17 1_555 1_555
C14 C12 1_555 1_555
H18 C14 1_555 1_555
C15 H19 1_555 1_555
H20 C15 1_555 1_555
H21 C15 1_555 1_555
C16 C17 1_555 1_555
C17 H22 1_555 1_555
H23 C17 1_555 1_555
H24 C17 1_555 1_555
C18 C1 1_555 1_555
C19 C7 1_555 1_555
C20 C11 1_555 1_555
H25 C20 1_555 1_555
H26 C20 1_555 1_555
C21 H27 1_555 1_555
H28 C21 1_555 1_555
H29 C21 1_555 1_555
C22 O1 1_555 1_555
C23 H30 1_555 1_555
C24 C15 1_555 1_555
C25 C11 1_555 1_555
C26 C3 1_555 1_555
C27 C12 1_555 1_555
H31 C27 1_555 1_555
C28 C13 1_555 1_555
C29 H32 1_555 1_555
C30 C16 1_555 1_555
C31 C27 1_555 1_555
C32 C29 1_555 1_555
C33 O7 1_555 1_555
C34 O3 1_555 1_555
H33 C34 1_555 1_555
C35 O5 1_555 1_555
C36 C23 1_555 1_555
H34 C36 1_555 1_555
H35 C36 1_555 1_555
C37 C31 1_555 1_555
H36 C37 1_555 1_555
H37 C37 1_555 1_555
O4 C34 1_555 1_555
C4 C18 1_555 1_555
C5 C10 1_555 1_555
C13 C26 1_555 1_555
C14 C19 1_555 1_555
C16 C24 1_555 1_555
C18 C22 1_555 1_555
C19 C33 1_555 1_555
C20 C28 1_555 1_555
C21 C25 1_555 1_555
C23 C25 1_555 1_555
C23 C26 1_555 1_555
C25 C27 1_555 1_555
C29 C33 1_555 1_555
C30 C32 1_555 1_555
C31 C33 1_555 1_555
C31 C34 1_555 1_555
C32 C35 1_555 1_555
C36 C37 1_555 1_555

#END
