
#######################################################################
#
#                 Cambridge Crystallographic Data Centre
#                                CCDC 
#
#######################################################################
#
# If this CIF has been generated from an entry in the Cambridge 
# Structural Database, then it will include bibliographic, chemical, 
# crystal, experimental, refinement or atomic coordinate data resulting 
# from the CCDC's data processing and validation procedures.
#
#######################################################################

data_YUPBOB
_chemical_formula_moiety         'C20 H17 N5'
_chemical_name_systematic        9-Ethyl-3,6-bis(1H-pyrazol-1-yl)-9H-carbazole
_symmetry_cell_setting           triclinic
_symmetry_space_group_name_H-M   'P -1'
_symmetry_Int_Tables_number      2
_space_group_name_Hall           '-P 1'
loop_
_symmetry_equiv_pos_site_id
_symmetry_equiv_pos_as_xyz
1 x,y,z
2 -x,-y,-z
_cell_length_a                   12.750(3)
_cell_length_b                   13.084(3)
_cell_length_c                   17.528(4)
_cell_angle_alpha                98.19(3)
_cell_angle_beta                 107.60(3)
_cell_angle_gamma                110.76(3)
_cell_volume                     2501.9
_exptl_crystal_colour            'pale yellow'
_exptl_crystal_description       needle
_cell_formula_units_Z            6
_exptl_crystal_recrystallization_method 'ethyl acetate'
_exptl_crystal_preparation       luminescent
loop_
_atom_site_label
_atom_site_type_symbol
_atom_site_fract_x
_atom_site_fract_y
_atom_site_fract_z
N1 N 0.07105(18) 0.13241(17) -0.01856(14)
N2 N 0.08747(17) -0.13782(18) -0.33746(12)
N3 N 0.02759(17) -0.07133(17) -0.33264(12)
N4 N 0.52679(19) 0.07388(18) 0.21500(12)
N5 N 0.44262(17) 0.01543(17) 0.13723(12)
C1 C 0.0763(3) 0.3237(2) 0.01177(17)
H1 H 0.0376 0.3662 0.0319
H2 H 0.0695 0.3276 -0.0437
H3 H 0.1605 0.3554 0.0477
C2 C 0.0159(2) 0.2014(2) 0.01085(17)
H4 H 0.0211 0.1982 0.0667
H5 H -0.0693 0.1701 -0.0250
C3 C 0.0654(2) -0.1706(2) -0.41752(16)
H6 H 0.0956 -0.2174 -0.4397
C4 C -0.0072(3) -0.1281(3) -0.46433(17)
H7 H -0.0351 -0.1401 -0.5218
C5 C -0.0294(3) -0.0648(3) -0.40853(18)
H8 H -0.0759 -0.0239 -0.4206
C6 C 0.0325(2) -0.0211(2) -0.25308(15)
C7 C -0.0496(2) 0.0252(2) -0.24832(17)
H9 H -0.1093 0.0197 -0.2971
C8 C -0.0434(2) 0.0785(2) -0.17291(18)
H10 H -0.0972 0.1103 -0.1699
C9 C 0.0450(2) 0.0840(2) -0.10138(17)
C10 C 0.1249(2) 0.03389(19) -0.10523(15)
C11 C 0.1185(2) -0.01786(19) -0.18209(14)
H11 H 0.1719 -0.0500 -0.1855
C12 C 0.2014(2) 0.05167(19) -0.02054(14)
C13 C 0.1666(2) 0.1138(2) 0.03085(16)
C14 C 0.2240(2) 0.1458(2) 0.11626(17)
H12 H 0.2018 0.1885 0.1501
C15 C 0.3151(2) 0.1129(2) 0.15040(15)
H13 H 0.3541 0.1331 0.2080
C16 C 0.3496(2) 0.05004(19) 0.09993(14)
C17 C 0.2940(2) 0.02005(19) 0.01442(14)
H14 H 0.3181 -0.0207 -0.0193
C18 C 0.4623(3) -0.0716(2) 0.10466(17)
H15 H 0.4156 -0.1235 0.0522
C19 C 0.5617(3) -0.0709(3) 0.16116(18)
H16 H 0.5977 -0.1208 0.1559
C20 C 0.5982(2) 0.0197(3) 0.22828(17)
H17 H 0.6651 0.0406 0.2773
N6 N 0.4596(2) 1.1726(2) 0.55873(13)
N7 N 0.2683(2) 0.7952(3) 0.21232(19)
N8 N 0.2379(2) 0.7993(2) 0.28053(14)
N9 N 0.8185(2) 1.3647(2) 0.38007(14)
N10 N 0.7924(2) 1.4194(2) 0.43811(13)
C21 C 0.3448(3) 1.2273(4) 0.6330(2)
H18 H 0.3390 1.2394 0.6866
H19 H 0.2699 1.1684 0.5926
H20 H 0.3607 1.2965 0.6166
C22 C 0.4454(3) 1.1928(3) 0.63776(17)
H21 H 0.5206 1.2520 0.6794
H22 H 0.4298 1.1239 0.6556
C23 C 0.1902(3) 0.6879(3) 0.1592(2)
H23 H 0.1871 0.6555 0.1073
C24 C 0.1177(3) 0.6396(3) 0.2008(3)
H24 H 0.0553 0.5666 0.1793
C25 C 0.1447(3) 0.7053(3) 0.2716(2)
H25 H 0.1069 0.6902 0.3091
C26 C 0.2917(2) 0.8943(2) 0.35229(16)
C27 C 0.2493(2) 0.8850(3) 0.41690(18)
H26 H 0.1868 0.8173 0.4122
C28 C 0.2987(3) 0.9747(3) 0.48739(18)
H27 H 0.2696 0.9687 0.5300
C29 C 0.3928(3) 1.0743(3) 0.49358(16)
C30 C 0.4366(2) 1.0842(2) 0.42957(15)
C31 C 0.3848(2) 0.9938(2) 0.35825(15)
H28 H 0.4125 1.0001 0.3150
C32 C 0.5361(2) 1.1952(2) 0.45720(15)
C33 C 0.5473(3) 1.2465(3) 0.53758(16)
C34 C 0.6381(3) 1.3529(3) 0.58358(18)
H29 H 0.6446 1.3872 0.6361
C35 C 0.7183(3) 1.4067(3) 0.54944(17)
H30 H 0.7813 1.4777 0.5801
C36 C 0.7080(3) 1.3579(2) 0.47014(16)
C37 C 0.6175(2) 1.2520(2) 0.42336(14)
H31 H 0.6110 1.2193 0.3705
C38 C 0.9015(3) 1.4469(3) 0.36557(18)
H32 H 0.9370 1.4347 0.3280
C39 C 0.9279(3) 1.5525(3) 0.4135(2)
H33 H 0.9825 1.6228 0.4144
C40 C 0.8578(3) 1.5325(3) 0.45869(18)
H34 H 0.8552 1.5872 0.4973
N11 N 0.34932(17) 0.42380(17) -0.15617(12)
N12 N 0.7954(2) 0.63905(18) -0.25845(13)
N13 N 0.6780(2) 0.62071(17) -0.29694(12)
N14 N 0.7853(2) 0.3362(2) 0.06163(13)
N15 N 0.67617(19) 0.31439(16) 0.06725(11)
C41 C 0.1438(2) 0.2908(3) -0.2511(2)
H35 H 0.0598 0.2748 -0.2644
H36 H 0.1583 0.2280 -0.2358
H37 H 0.1639 0.3018 -0.2988
C42 C 0.2211(2) 0.3965(2) -0.17971(17)
H38 H 0.2059 0.4597 -0.1952
H39 H 0.1988 0.3860 -0.1322
C43 C 0.8506(3) 0.6882(2) -0.30495(19)
H40 H 0.9329 0.7111 -0.2937
C44 C 0.7720(3) 0.7012(3) -0.3713(2)
H41 H 0.7902 0.7338 -0.4122
C45 C 0.6615(3) 0.6568(3) -0.36586(18)
H42 H 0.5889 0.6522 -0.4026
C46 C 0.5908(2) 0.5705(2) -0.26230(14)
C47 C 0.4786(2) 0.5756(2) -0.29066(15)
H43 H 0.4622 0.6121 -0.3316
C48 C 0.4197(2) 0.4762(2) -0.19790(14)
C49 C 0.5336(2) 0.47301(19) -0.16688(13)
C50 C 0.6195(2) 0.51923(19) -0.20059(13)
H44 H 0.6942 0.5156 -0.1820
C51 C 0.5321(2) 0.41622(19) -0.10241(13)
C52 C 0.4165(2) 0.38596(19) -0.09901(14)
C53 C 0.3863(2) 0.3303(2) -0.04222(15)
H45 H 0.3095 0.3092 -0.0405
C54 C 0.4722(2) 0.3069(2) 0.01141(15)
H46 H 0.4530 0.2688 0.0496
C55 C 0.5883(2) 0.33907(19) 0.00984(14)
C56 C 0.6183(2) 0.39296(19) -0.04704(13)
H47 H 0.6952 0.4136 -0.0485
C57 C 0.8423(3) 0.3023(3) 0.12249(17)
H48 H 0.9203 0.3072 0.1340
C58 C 0.7723(3) 0.2589(2) 0.16680(16)
H49 H 0.7926 0.2298 0.2117
C59 C 0.6676(3) 0.2682(2) 0.13023(15)
H50 H 0.6012 0.2465 0.1459
C60 C 0.3917(2) 0.5281(2) -0.25958(15)
H51 H 0.3166 0.5308 -0.2794
loop_
_geom_bond_atom_site_label_1
_geom_bond_atom_site_label_2
_geom_bond_site_symmetry_1
_geom_bond_site_symmetry_2
N1 C2 1_555 1_555
N2 N3 1_555 1_555
N3 C5 1_555 1_555
N4 N5 1_555 1_555
N5 C16 1_555 1_555
C1 H1 1_555 1_555
H2 C1 1_555 1_555
H3 C1 1_555 1_555
C2 C1 1_555 1_555
H4 C2 1_555 1_555
H5 C2 1_555 1_555
C3 N2 1_555 1_555
H6 C3 1_555 1_555
C4 C3 1_555 1_555
H7 C4 1_555 1_555
C5 C4 1_555 1_555
H8 C5 1_555 1_555
C6 N3 1_555 1_555
C7 C6 1_555 1_555
H9 C7 1_555 1_555
C8 C7 1_555 1_555
H10 C8 1_555 1_555
C9 N1 1_555 1_555
C10 C9 1_555 1_555
C11 C6 1_555 1_555
H11 C11 1_555 1_555
C12 C10 1_555 1_555
C13 N1 1_555 1_555
C14 C13 1_555 1_555
H12 C14 1_555 1_555
C15 C14 1_555 1_555
H13 C15 1_555 1_555
C16 C15 1_555 1_555
C17 C12 1_555 1_555
H14 C17 1_555 1_555
C18 N5 1_555 1_555
H15 C18 1_555 1_555
C19 C18 1_555 1_555
H16 C19 1_555 1_555
C20 N4 1_555 1_555
H17 C20 1_555 1_555
N6 C22 1_555 1_555
N7 N8 1_555 1_555
N8 C25 1_555 1_555
N9 N10 1_555 1_555
N10 C36 1_555 1_555
C21 H18 1_555 1_555
H19 C21 1_555 1_555
H20 C21 1_555 1_555
C22 C21 1_555 1_555
H21 C22 1_555 1_555
H22 C22 1_555 1_555
C23 N7 1_555 1_555
H23 C23 1_555 1_555
C24 C23 1_555 1_555
H24 C24 1_555 1_555
C25 C24 1_555 1_555
H25 C25 1_555 1_555
C26 N8 1_555 1_555
C27 C26 1_555 1_555
H26 C27 1_555 1_555
C28 C27 1_555 1_555
H27 C28 1_555 1_555
C29 N6 1_555 1_555
C30 C29 1_555 1_555
C31 C26 1_555 1_555
H28 C31 1_555 1_555
C32 C30 1_555 1_555
C33 N6 1_555 1_555
C34 C33 1_555 1_555
H29 C34 1_555 1_555
C35 C34 1_555 1_555
H30 C35 1_555 1_555
C36 C35 1_555 1_555
C37 C32 1_555 1_555
H31 C37 1_555 1_555
C38 N9 1_555 1_555
H32 C38 1_555 1_555
C39 C38 1_555 1_555
H33 C39 1_555 1_555
C40 N10 1_555 1_555
H34 C40 1_555 1_555
N11 C42 1_555 1_555
N12 N13 1_555 1_555
N13 C45 1_555 1_555
N14 N15 1_555 1_555
N15 C55 1_555 1_555
C41 H35 1_555 1_555
H36 C41 1_555 1_555
H37 C41 1_555 1_555
C42 C41 1_555 1_555
H38 C42 1_555 1_555
H39 C42 1_555 1_555
C43 N12 1_555 1_555
H40 C43 1_555 1_555
C44 C43 1_555 1_555
H41 C44 1_555 1_555
C45 C44 1_555 1_555
H42 C45 1_555 1_555
C46 N13 1_555 1_555
C47 C46 1_555 1_555
H43 C47 1_555 1_555
C48 N11 1_555 1_555
C49 C48 1_555 1_555
C50 C46 1_555 1_555
H44 C50 1_555 1_555
C51 C49 1_555 1_555
C52 N11 1_555 1_555
C53 C52 1_555 1_555
H45 C53 1_555 1_555
C54 C53 1_555 1_555
H46 C54 1_555 1_555
C55 C54 1_555 1_555
C56 C51 1_555 1_555
H47 C56 1_555 1_555
C57 N14 1_555 1_555
H48 C57 1_555 1_555
C58 C57 1_555 1_555
H49 C58 1_555 1_555
C59 N15 1_555 1_555
H50 C59 1_555 1_555
C60 C47 1_555 1_555
H51 C60 1_555 1_555
C8 C9 1_555 1_555
C10 C11 1_555 1_555
C12 C13 1_555 1_555
C16 C17 1_555 1_555
C19 C20 1_555 1_555
C28 C29 1_555 1_555
C30 C31 1_555 1_555
C32 C33 1_555 1_555
C36 C37 1_555 1_555
C39 C40 1_555 1_555
C48 C60 1_555 1_555
C49 C50 1_555 1_555
C51 C52 1_555 1_555
C55 C56 1_555 1_555
C58 C59 1_555 1_555

#END
