
#######################################################################
#
#                 Cambridge Crystallographic Data Centre
#                                CCDC 
#
#######################################################################
#
# If this CIF has been generated from an entry in the Cambridge 
# Structural Database, then it will include bibliographic, chemical, 
# crystal, experimental, refinement or atomic coordinate data resulting 
# from the CCDC's data processing and validation procedures.
#
#######################################################################

data_YUPQAC
_chemical_formula_moiety         'C14 H13 Br1 O2'
_chemical_name_systematic        
'endo-Bicyclo[3.2.0]hept-6-en-3-yl 4-bromobenzoate'
_symmetry_cell_setting           triclinic
_symmetry_space_group_name_H-M   'P -1'
_symmetry_Int_Tables_number      2
_space_group_name_Hall           '-P 1'
loop_
_symmetry_equiv_pos_site_id
_symmetry_equiv_pos_as_xyz
1 x,y,z
2 -x,-y,-z
_cell_length_a                   6.6718(2)
_cell_length_b                   8.2358(2)
_cell_length_c                   11.6390(3)
_cell_angle_alpha                74.374(1)
_cell_angle_beta                 88.067(2)
_cell_angle_gamma                83.037(1)
_cell_volume                     611.355
_chemical_melting_point          '103-105 deg.C'
_cell_formula_units_Z            2
_exptl_crystal_recrystallization_method 'ethyl acetate/petroleum'
loop_
_atom_site_label
_atom_site_type_symbol
_atom_site_fract_x
_atom_site_fract_y
_atom_site_fract_z
Br1 Br 0.74353(4) -0.37283(3) 0.52776(2)
O1 O -0.0589(3) 0.1040(3) 0.70981(19)
O2 O 0.1870(2) 0.1153(2) 0.83318(16)
C1 C 0.5478(4) -0.2391(3) 0.5962(2)
C2 C 0.6097(4) -0.1646(3) 0.6799(2)
H1 H 0.7445 -0.1806 0.7026
C3 C 0.4691(3) -0.0664(3) 0.7292(2)
H2 H 0.5095 -0.0145 0.7849
C4 C 0.2671(3) -0.0441(3) 0.69633(19)
C5 C 0.2100(4) -0.1209(3) 0.6117(2)
H3 H 0.0752 -0.1061 0.5890
C6 C 0.3487(4) -0.2181(3) 0.5612(2)
H4 H 0.3094 -0.2688 0.5045
C7 C 0.1127(3) 0.0658(3) 0.7446(2)
C8 C 0.0621(3) 0.2444(3) 0.8766(2)
H5 H -0.0815 0.2307 0.8746
C9 C 0.1302(4) 0.2304(3) 1.0028(2)
H6 H 0.0210 0.2741 1.0474
H7 H 0.1729 0.1130 1.0443
C10 C 0.3059(4) 0.3357(3) 0.9896(2)
H8 H 0.3171 0.3915 1.0532
C11 C 0.5044(4) 0.2605(3) 0.9483(2)
H9 H 0.6015 0.1736 0.9863
C12 C 0.4907(4) 0.3615(4) 0.8399(3)
H10 H 0.5743 0.3706 0.7734
C13 C 0.2918(4) 0.4577(3) 0.8606(2)
H11 H 0.2973 0.5776 0.8562
C14 C 0.1035(4) 0.4210(3) 0.8049(2)
H12 H -0.0102 0.5042 0.8098
H13 H 0.1275 0.4240 0.7217
loop_
_geom_bond_atom_site_label_1
_geom_bond_atom_site_label_2
_geom_bond_site_symmetry_1
_geom_bond_site_symmetry_2
Br1 C1 1_555 1_555
O1 C7 1_555 1_555
O2 C7 1_555 1_555
C1 C2 1_555 1_555
C2 H1 1_555 1_555
C3 C2 1_555 1_555
H2 C3 1_555 1_555
C4 C3 1_555 1_555
C5 C4 1_555 1_555
H3 C5 1_555 1_555
C6 C1 1_555 1_555
H4 C6 1_555 1_555
C7 C4 1_555 1_555
C8 O2 1_555 1_555
H5 C8 1_555 1_555
C9 C8 1_555 1_555
H6 C9 1_555 1_555
H7 C9 1_555 1_555
C10 C9 1_555 1_555
H8 C10 1_555 1_555
C11 C10 1_555 1_555
H9 C11 1_555 1_555
C12 C11 1_555 1_555
H10 C12 1_555 1_555
C13 C10 1_555 1_555
H11 C13 1_555 1_555
C14 C8 1_555 1_555
H12 C14 1_555 1_555
H13 C14 1_555 1_555
C5 C6 1_555 1_555
C12 C13 1_555 1_555
C13 C14 1_555 1_555

#END
