
#######################################################################
#
#                 Cambridge Crystallographic Data Centre
#                                CCDC 
#
#######################################################################
#
# If this CIF has been generated from an entry in the Cambridge 
# Structural Database, then it will include bibliographic, chemical, 
# crystal, experimental, refinement or atomic coordinate data resulting 
# from the CCDC's data processing and validation procedures.
#
#######################################################################

data_YUQFAS
_chemical_formula_moiety         'C8 H8 Br2 O2'
_chemical_name_systematic        1,4-Dibromo-2,5-dimethoxybenzene
_symmetry_cell_setting           monoclinic
_symmetry_space_group_name_H-M   'P 21/n'
_symmetry_Int_Tables_number      14
_space_group_name_Hall           '-P 2yn'
loop_
_symmetry_equiv_pos_site_id
_symmetry_equiv_pos_as_xyz
1 x,y,z
2 1/2-x,1/2+y,1/2-z
3 -x,-y,-z
4 1/2+x,1/2-y,1/2+z
_cell_length_a                   6.5730(10)
_cell_length_b                   8.438(2)
_cell_length_c                   8.756(2)
_cell_angle_alpha                90
_cell_angle_beta                 90.14(3)
_cell_angle_gamma                90
_cell_volume                     485.632
_exptl_crystal_colour            colorless
_exptl_crystal_description       block
_cell_formula_units_Z            2
loop_
_atom_site_label
_atom_site_type_symbol
_atom_site_fract_x
_atom_site_fract_y
_atom_site_fract_z
Br1 Br 0.26386(11) 0.73471(7) 0.78061(8)
O1 O -0.1091(7) 0.5578(5) 0.7000(5)
C1 C -0.0605(9) 0.5256(6) 0.8479(6)
C2 C 0.1090(9) 0.5986(5) 0.9077(7)
C3 C 0.1721(9) 0.5752(5) 1.0558(7)
H1 H 0.2881 0.6260 1.0922
C4 C -0.2593(11) 0.4649(8) 0.6294(8)
H2 H -0.2775 0.4993 0.5257
H3 H -0.3852 0.4761 0.6837
H4 H -0.2181 0.3558 0.6304
Br1B Br -0.26386(11) 0.26529(7) 1.21939(8)
O1B O 0.1091(7) 0.4422(5) 1.3000(5)
C1B C 0.0605(9) 0.4744(6) 1.1521(6)
C2B C -0.1090(9) 0.4014(5) 1.0923(7)
C3B C -0.1721(9) 0.4248(5) 0.9442(7)
H1B H -0.2881 0.3740 0.9078
C4B C 0.2593(11) 0.5351(8) 1.3706(8)
H2B H 0.2775 0.5007 1.4743
H3B H 0.3852 0.5239 1.3163
H4B H 0.2181 0.6442 1.3696
loop_
_geom_bond_atom_site_label_1
_geom_bond_atom_site_label_2
_geom_bond_site_symmetry_1
_geom_bond_site_symmetry_2
Br1 C2 1_555 1_555
O1 C1 1_555 1_555
C1 C2 1_555 1_555
C2 C3 1_555 1_555
C3 H1 1_555 1_555
C4 O1 1_555 1_555
H2 C4 1_555 1_555
H3 C4 1_555 1_555
H4 C4 1_555 1_555
Br1B C2B 1_555 1_555
O1B C1B 1_555 1_555
C1B C3 1_555 1_555
C2B C1B 1_555 1_555
C3B C1 1_555 1_555
H1B C3B 1_555 1_555
C4B O1B 1_555 1_555
H2B C4B 1_555 1_555
H3B C4B 1_555 1_555
H4B C4B 1_555 1_555
C2B C3B 1_555 1_555

#END
