
#######################################################################
#
#                 Cambridge Crystallographic Data Centre
#                                CCDC 
#
#######################################################################
#
# If this CIF has been generated from an entry in the Cambridge 
# Structural Database, then it will include bibliographic, chemical, 
# crystal, experimental, refinement or atomic coordinate data resulting 
# from the CCDC's data processing and validation procedures.
#
#######################################################################

data_YUQMII
_chemical_formula_moiety         'C16 H12 N2 S1'
_chemical_name_systematic        
4,4'-(sulfanediylbis(methylene))dibenzonitrile
_symmetry_cell_setting           orthorhombic
_symmetry_space_group_name_H-M   'P n a 21'
_symmetry_Int_Tables_number      33
_space_group_name_Hall           'P 2c -2n'
loop_
_symmetry_equiv_pos_site_id
_symmetry_equiv_pos_as_xyz
1 x,y,z
2 -x,-y,1/2+z
3 1/2+x,1/2-y,z
4 1/2-x,1/2+y,1/2+z
_cell_length_a                   12.2259(5)
_cell_length_b                   23.8611(11)
_cell_length_c                   4.6470(2)
_cell_angle_alpha                90
_cell_angle_beta                 90
_cell_angle_gamma                90
_cell_volume                     1355.64
_exptl_crystal_colour            colorless
_exptl_crystal_description       block
_cell_formula_units_Z            4
loop_
_atom_site_label
_atom_site_type_symbol
_atom_site_fract_x
_atom_site_fract_y
_atom_site_fract_z
N1 N -0.61644(16) -0.18456(8) -1.1481(5)
N2 N -0.55979(16) -0.63527(10) 0.3688(5)
S1 S -0.93765(3) -0.422917(18) -0.40396(13)
C1 C -0.65906(16) -0.21522(8) -0.9951(4)
C2 C -0.70919(15) -0.25401(8) -0.7997(4)
C3 C -0.82032(15) -0.25008(9) -0.7369(5)
H1 H -0.8636 -0.2216 -0.8227
C4 C -0.86666(16) -0.28769(8) -0.5501(4)
H2 H -0.9426 -0.2852 -0.5090
C5 C -0.80502(13) -0.32928(7) -0.4201(4)
C6 C -0.69399(15) -0.33169(8) -0.4801(5)
H3 H -0.6499 -0.3591 -0.3876
C7 C -0.64667(16) -0.29498(8) -0.6719(5)
H4 H -0.5710 -0.2979 -0.7159
C8 C -0.85666(15) -0.37051(8) -0.2181(4)
H5 H -0.9040 -0.3501 -0.0808
H6 H -0.7986 -0.3895 -0.1061
C9 C -0.83241(15) -0.46471(8) -0.5760(4)
H7 H -0.8664 -0.4878 -0.7286
H8 H -0.7790 -0.4393 -0.6692
C10 C -0.77277(13) -0.50241(7) -0.3716(4)
C11 C -0.81825(15) -0.55316(8) -0.2894(4)
H9 H -0.8867 -0.5643 -0.3677
C12 C -0.76599(16) -0.58774(8) -0.0963(4)
H10 H -0.7986 -0.6222 -0.0402
C13 C -0.66514(15) -0.57190(8) 0.0164(4)
C14 C -0.61867(15) -0.52139(8) -0.0643(5)
H11 H -0.5500 -0.5103 0.0129
C15 C -0.67242(15) -0.48727(8) -0.2569(4)
H12 H -0.6401 -0.4527 -0.3122
C16 C -0.60779(17) -0.60754(10) 0.2152(5)
loop_
_geom_bond_atom_site_label_1
_geom_bond_atom_site_label_2
_geom_bond_site_symmetry_1
_geom_bond_site_symmetry_2
N1 C1 1_555 1_555
N2 C16 1_555 1_555
S1 C8 1_555 1_555
C1 C2 1_555 1_555
C2 C3 1_555 1_555
C3 H1 1_555 1_555
C4 C3 1_555 1_555
H2 C4 1_555 1_555
C5 C4 1_555 1_555
C6 C5 1_555 1_555
H3 C6 1_555 1_555
C7 C2 1_555 1_555
H4 C7 1_555 1_555
C8 C5 1_555 1_555
H5 C8 1_555 1_555
H6 C8 1_555 1_555
C9 S1 1_555 1_555
H7 C9 1_555 1_555
H8 C9 1_555 1_555
C10 C9 1_555 1_555
C11 C10 1_555 1_555
H9 C11 1_555 1_555
C12 C11 1_555 1_555
H10 C12 1_555 1_555
C13 C12 1_555 1_555
C14 C13 1_555 1_555
H11 C14 1_555 1_555
C15 C10 1_555 1_555
H12 C15 1_555 1_555
C16 C13 1_555 1_555
C6 C7 1_555 1_555
C14 C15 1_555 1_555

#END
