
#######################################################################
#
#                 Cambridge Crystallographic Data Centre
#                                CCDC 
#
#######################################################################
#
# If this CIF has been generated from an entry in the Cambridge 
# Structural Database, then it will include bibliographic, chemical, 
# crystal, experimental, refinement or atomic coordinate data resulting 
# from the CCDC's data processing and validation procedures.
#
#######################################################################

data_YUQNAA
_chemical_formula_moiety         'C21 H22 N2 O4'
_chemical_name_systematic        
1,3-bis(4-methoxybenzyl)-6-methylpyrimidine-2,4(1H,3H)-dione
_symmetry_cell_setting           monoclinic
_symmetry_space_group_name_H-M   'P 21/n'
_symmetry_Int_Tables_number      14
_space_group_name_Hall           '-P 2yn'
loop_
_symmetry_equiv_pos_site_id
_symmetry_equiv_pos_as_xyz
1 x,y,z
2 1/2-x,1/2+y,1/2-z
3 -x,-y,-z
4 1/2+x,1/2-y,1/2+z
_cell_length_a                   8.4133(9)
_cell_length_b                   9.9290(10)
_cell_length_c                   21.407(3)
_cell_angle_alpha                90
_cell_angle_beta                 91.614(4)
_cell_angle_gamma                90
_cell_volume                     1787.54
_exptl_crystal_colour            colorless
_exptl_crystal_description       prism
_cell_formula_units_Z            4
_exptl_crystal_recrystallization_method ethanol
loop_
_atom_site_label
_atom_site_type_symbol
_atom_site_fract_x
_atom_site_fract_y
_atom_site_fract_z
O1 O 0.77270(10) -0.03179(8) 0.39409(4)
O2 O 1.05849(10) 0.35414(9) 0.42566(4)
O3 O 0.38155(9) 0.43800(8) 0.57937(3)
O4 O 1.17640(10) -0.48075(8) 0.20574(4)
N1 N 0.91553(10) 0.16121(9) 0.41019(4)
N2 N 0.87518(10) 0.07201(9) 0.30901(4)
C1 C 0.84910(13) 0.06125(12) 0.37267(5)
C2 C 1.00559(13) 0.27014(12) 0.38848(5)
C3 C 1.02826(13) 0.27076(12) 0.32258(5)
H1 H 1.0893 0.3408 0.3049
C4 C 0.96571(13) 0.17502(11) 0.28489(5)
C5 C 0.99072(15) 0.17657(13) 0.21620(5)
H2 H 1.0646 0.2492 0.2061
H3 H 0.8888 0.1915 0.1940
H4 H 1.0353 0.0900 0.2034
C6 C 0.89544(14) 0.14901(13) 0.47867(5)
H5 H 0.9940 0.1808 0.5003
H6 H 0.8820 0.0526 0.4891
C7 C 0.75633(13) 0.22666(12) 0.50352(5)
C8 C 0.77921(13) 0.34760(12) 0.53566(5)
H7 H 0.8833 0.3838 0.5406
C9 C 0.65212(13) 0.41528(12) 0.56044(5)
H8 H 0.6692 0.4972 0.5825
C10 C 0.49895(13) 0.36351(11) 0.55308(5)
C11 C 0.47377(14) 0.24358(12) 0.52095(5)
H9 H 0.3694 0.2080 0.5156
C12 C 0.60341(13) 0.17605(12) 0.49672(5)
H10 H 0.5866 0.0935 0.4751
C13 C 0.22263(13) 0.38888(13) 0.57144(6)
H11 H 0.1932 0.3867 0.5268
H12 H 0.1497 0.4485 0.5933
H13 H 0.2160 0.2978 0.5888
C14 C 0.79638(13) -0.02957(12) 0.26809(6)
H14 H 0.7576 0.0153 0.2293
H15 H 0.7027 -0.0656 0.2895
C15 C 0.90264(13) -0.14602(11) 0.25073(5)
C16 C 0.97928(13) -0.22551(12) 0.29611(5)
H16 H 0.9686 -0.2036 0.3390
C17 C 1.06997(13) -0.33503(12) 0.28015(5)
H17 H 1.1212 -0.3876 0.3118
C18 C 1.08652(13) -0.36866(11) 0.21741(5)
C19 C 1.01334(13) -0.28976(12) 0.17146(5)
H18 H 1.0255 -0.3107 0.1286
C20 C 0.92206(13) -0.17982(12) 0.18864(5)
H19 H 0.8717 -0.1265 0.1570
C21 C 1.18686(15) -0.52057(13) 0.14183(5)
H20 H 1.0798 -0.5359 0.1241
H21 H 1.2489 -0.6038 0.1393
H22 H 1.2391 -0.4493 0.1183
loop_
_geom_bond_atom_site_label_1
_geom_bond_atom_site_label_2
_geom_bond_site_symmetry_1
_geom_bond_site_symmetry_2
O1 C1 1_555 1_555
O2 C2 1_555 1_555
O3 C10 1_555 1_555
O4 C18 1_555 1_555
N1 C1 1_555 1_555
N2 C1 1_555 1_555
C2 N1 1_555 1_555
C3 C2 1_555 1_555
H1 C3 1_555 1_555
C4 N2 1_555 1_555
C5 C4 1_555 1_555
H2 C5 1_555 1_555
H3 C5 1_555 1_555
H4 C5 1_555 1_555
C6 N1 1_555 1_555
H5 C6 1_555 1_555
H6 C6 1_555 1_555
C7 C6 1_555 1_555
C8 C7 1_555 1_555
H7 C8 1_555 1_555
C9 C8 1_555 1_555
H8 C9 1_555 1_555
C10 C9 1_555 1_555
C11 C10 1_555 1_555
H9 C11 1_555 1_555
C12 C7 1_555 1_555
H10 C12 1_555 1_555
C13 O3 1_555 1_555
H11 C13 1_555 1_555
H12 C13 1_555 1_555
H13 C13 1_555 1_555
C14 N2 1_555 1_555
H14 C14 1_555 1_555
H15 C14 1_555 1_555
C15 C14 1_555 1_555
C16 C15 1_555 1_555
H16 C16 1_555 1_555
C17 C16 1_555 1_555
H17 C17 1_555 1_555
C18 C17 1_555 1_555
C19 C18 1_555 1_555
H18 C19 1_555 1_555
C20 C15 1_555 1_555
H19 C20 1_555 1_555
C21 O4 1_555 1_555
H20 C21 1_555 1_555
H21 C21 1_555 1_555
H22 C21 1_555 1_555
C3 C4 1_555 1_555
C11 C12 1_555 1_555
C19 C20 1_555 1_555

#END
