
#######################################################################
#
#                 Cambridge Crystallographic Data Centre
#                                CCDC 
#
#######################################################################
#
# If this CIF has been generated from an entry in the Cambridge 
# Structural Database, then it will include bibliographic, chemical, 
# crystal, experimental, refinement or atomic coordinate data resulting 
# from the CCDC's data processing and validation procedures.
#
#######################################################################

data_YUQSAF
_chemical_formula_moiety         'C11 H10 Cl1 N1 O1'
_chemical_name_systematic        (2-Chloro-6-methylquinolin-3-yl)methanol
_symmetry_cell_setting           monoclinic
_symmetry_space_group_name_H-M   'P 21/c'
_symmetry_Int_Tables_number      14
_space_group_name_Hall           '-P 2ybc'
loop_
_symmetry_equiv_pos_site_id
_symmetry_equiv_pos_as_xyz
1 x,y,z
2 -x,1/2+y,1/2-z
3 -x,-y,-z
4 x,1/2-y,1/2+z
_cell_length_a                   14.8091(17)
_cell_length_b                   4.6387(5)
_cell_length_c                   14.5098(11)
_cell_angle_alpha                90
_cell_angle_beta                 96.594(9)
_cell_angle_gamma                90
_cell_volume                     990.157
_exptl_crystal_colour            colorless
_exptl_crystal_description       plate
_cell_formula_units_Z            4
_exptl_crystal_recrystallization_method chloroform
loop_
_atom_site_label
_atom_site_type_symbol
_atom_site_fract_x
_atom_site_fract_y
_atom_site_fract_z
Cl1 Cl 0.13152(10) 0.6780(3) -0.04947(8)
O1 O 0.0334(3) 0.9035(7) 0.2189(2)
N1 N 0.2440(3) 0.3573(8) 0.0535(2)
C1 C 0.2832(3) 0.2406(10) 0.1357(3)
C2 C 0.3535(3) 0.0442(11) 0.1360(3)
C3 C 0.3939(3) -0.0710(12) 0.2179(4)
C4 C 0.3645(3) 0.0074(11) 0.3034(3)
C5 C 0.2963(3) 0.1980(10) 0.3040(3)
C6 C 0.2534(3) 0.3238(9) 0.2222(3)
C7 C 0.1817(3) 0.5231(9) 0.2194(3)
C8 C 0.1412(3) 0.6383(9) 0.1376(3)
C9 C 0.1799(3) 0.5394(10) 0.0572(3)
C10 C 0.0641(3) 0.8449(9) 0.1312(3)
C11 C 0.4114(4) -0.1220(14) 0.3929(4)
H1 H 0.014(4) 0.756(13) 0.235(4)
H2 H 0.37380 -0.01050 0.08020
H3 H 0.44130 -0.20220 0.21680
H4 H 0.27670 0.24850 0.36050
H5 H 0.16080 0.57900 0.27480
H6 H 0.08270 1.02420 0.10460
H7 H 0.01400 0.76690 0.08970
H8 H 0.37370 -0.09620 0.44180
H9 H 0.46870 -0.02720 0.40930
H10 H 0.42160 -0.32400 0.38410
loop_
_geom_bond_atom_site_label_1
_geom_bond_atom_site_label_2
_geom_bond_site_symmetry_1
_geom_bond_site_symmetry_2
Cl1 C9 1_555 1_555
O1 C10 1_555 1_555
N1 C1 1_555 1_555
C1 C2 1_555 1_555
C2 C3 1_555 1_555
C3 C4 1_555 1_555
C4 C5 1_555 1_555
C5 C6 1_555 1_555
C6 C1 1_555 1_555
C7 C6 1_555 1_555
C8 C7 1_555 1_555
C9 N1 1_555 1_555
C10 C8 1_555 1_555
C11 C4 1_555 1_555
H1 O1 1_555 1_555
H2 C2 1_555 1_555
H3 C3 1_555 1_555
H4 C5 1_555 1_555
H5 C7 1_555 1_555
H6 C10 1_555 1_555
H7 C10 1_555 1_555
H8 C11 1_555 1_555
H9 C11 1_555 1_555
H10 C11 1_555 1_555
C8 C9 1_555 1_555

#END
