
#######################################################################
#
#                 Cambridge Crystallographic Data Centre
#                                CCDC 
#
#######################################################################
#
# If this CIF has been generated from an entry in the Cambridge 
# Structural Database, then it will include bibliographic, chemical, 
# crystal, experimental, refinement or atomic coordinate data resulting 
# from the CCDC's data processing and validation procedures.
#
#######################################################################

data_YUQWOX
_chemical_name_common            4,5-Diaza-9H-fluoren-9-imine
_chemical_formula_moiety         'C11 H7 N3'
_chemical_name_systematic        
5H-Pyrido[3',2':4,5]cyclopenta[1,2-b]pyridin-5-imine
_symmetry_cell_setting           monoclinic
_symmetry_space_group_name_H-M   'P 21/c'
_symmetry_Int_Tables_number      14
_space_group_name_Hall           '-P 2ybc'
loop_
_symmetry_equiv_pos_site_id
_symmetry_equiv_pos_as_xyz
1 x,y,z
2 -x,1/2+y,1/2-z
3 -x,-y,-z
4 x,1/2-y,1/2+z
_cell_length_a                   10.008(2)
_cell_length_b                   12.407(3)
_cell_length_c                   6.8140(14)
_cell_angle_alpha                90
_cell_angle_beta                 99.74(3)
_cell_angle_gamma                90
_cell_volume                     833.893
_exptl_crystal_colour            colorless
_exptl_crystal_description       block
_cell_formula_units_Z            4
loop_
_atom_site_label
_atom_site_type_symbol
_atom_site_fract_x
_atom_site_fract_y
_atom_site_fract_z
N1 N 0.8062(3) 0.5097(2) 0.3404(5)
H1 H 0.7491 0.5497 0.3246
N2 N 0.7922(3) 0.1271(2) 0.3022(4)
N3 N 0.5012(3) 0.2137(2) 0.2363(4)
C1 C 0.9253(4) 0.1124(3) 0.3376(5)
H2 H 0.9567 0.0418 0.3391
C2 C 0.7547(3) 0.2304(2) 0.3049(5)
C3 C 0.8433(3) 0.3171(2) 0.3340(4)
C4 C 0.9804(4) 0.2998(3) 0.3749(5)
H3 H 1.0425 0.3559 0.4027
C5 C 1.0202(4) 0.1925(3) 0.3720(6)
H4 H 1.1119 0.1751 0.3935
C6 C 0.6122(3) 0.2709(2) 0.2711(4)
C7 C 0.6173(3) 0.3850(2) 0.2811(5)
C8 C 0.7604(3) 0.4188(2) 0.3239(5)
C9 C 0.3856(3) 0.2703(3) 0.2096(5)
H5 H 0.3044 0.2324 0.1837
C10 C 0.3791(3) 0.3820(3) 0.2181(6)
H6 H 0.2955 0.4167 0.2002
C11 C 0.4973(3) 0.4412(3) 0.2531(5)
H7 H 0.4959 0.5161 0.2576
loop_
_geom_bond_atom_site_label_1
_geom_bond_atom_site_label_2
_geom_bond_site_symmetry_1
_geom_bond_site_symmetry_2
N1 H1 1_555 1_555
N2 C1 1_555 1_555
N3 C6 1_555 1_555
C1 H2 1_555 1_555
C2 N2 1_555 1_555
C3 C2 1_555 1_555
C4 C3 1_555 1_555
H3 C4 1_555 1_555
C5 C1 1_555 1_555
H4 C5 1_555 1_555
C6 C2 1_555 1_555
C7 C6 1_555 1_555
C8 N1 1_555 1_555
C9 N3 1_555 1_555
H5 C9 1_555 1_555
C10 C9 1_555 1_555
H6 C10 1_555 1_555
C11 C7 1_555 1_555
H7 C11 1_555 1_555
C3 C8 1_555 1_555
C4 C5 1_555 1_555
C7 C8 1_555 1_555
C10 C11 1_555 1_555

#END
