
#######################################################################
#
#                 Cambridge Crystallographic Data Centre
#                                CCDC 
#
#######################################################################
#
# If this CIF has been generated from an entry in the Cambridge 
# Structural Database, then it will include bibliographic, chemical, 
# crystal, experimental, refinement or atomic coordinate data resulting 
# from the CCDC's data processing and validation procedures.
#
#######################################################################

data_YURJUS
_chemical_formula_moiety         'C30 H28 O5'
_chemical_name_systematic        
3,3,6-trimethyl-7-((1,4,4,6,8-pentamethyl-4H-furo[3',2':3,4]naphtho[1,8-bc]furan-7-yl)carbonyl)-2-benzofuran-1(3H)-one
_symmetry_cell_setting           monoclinic
_symmetry_space_group_name_H-M   'P 21/n'
_symmetry_Int_Tables_number      14
_space_group_name_Hall           '-P 2yn'
loop_
_symmetry_equiv_pos_site_id
_symmetry_equiv_pos_as_xyz
1 x,y,z
2 1/2-x,1/2+y,1/2-z
3 -x,-y,-z
4 1/2+x,1/2-y,1/2+z
_cell_length_a                   13.3609(2)
_cell_length_b                   8.61910(10)
_cell_length_c                   21.3593(4)
_cell_angle_alpha                90
_cell_angle_beta                 92.023(2)
_cell_angle_gamma                90
_cell_volume                     2458.18
_cell_formula_units_Z            4
loop_
_atom_site_label
_atom_site_type_symbol
_atom_site_fract_x
_atom_site_fract_y
_atom_site_fract_z
O1 O 0.42807(7) -0.25471(12) 0.02557(5)
O2 O 0.24288(9) 0.19337(14) 0.15949(6)
O3 O 0.13753(9) -0.07225(13) -0.07414(6)
O4 O 0.11180(11) -0.13980(15) -0.17453(6)
O5 O 0.10416(9) -0.36883(16) 0.05314(6)
C1 C 0.22432(11) -0.03873(17) 0.09406(6)
C2 C 0.34852(11) -0.33548(17) 0.00010(7)
C3 C 0.28501(10) -0.15033(16) 0.06257(6)
C4 C 0.44656(11) -0.02582(17) 0.09496(7)
C5 C 0.12749(10) -0.34295(17) -0.10553(7)
C6 C 0.27994(12) 0.07212(18) 0.12519(7)
C7 C 0.26043(10) -0.27993(17) 0.02124(6)
C8 C 0.38871(11) -0.14092(16) 0.06313(7)
C9 C 0.38495(12) 0.07848(18) 0.12569(7)
C10 C 0.55182(12) 0.00081(19) 0.10018(7)
C11 C 0.41912(13) 0.20652(19) 0.15994(7)
C12 C 0.13929(10) -0.43229(17) -0.05140(7)
C13 C 0.37709(12) -0.4667(2) -0.04027(8)
H1 H 0.3860 -0.5584 -0.0152
H2 H 0.4385 -0.4425 -0.0601
H3 H 0.3252 -0.4842 -0.0717
C14 C 0.12736(11) -0.17305(19) -0.11267(8)
C15 C 0.12892(12) -0.59301(19) -0.05714(8)
C16 C 0.32839(15) 0.2922(2) 0.18185(8)
C17 C 0.11224(12) -0.0371(2) 0.09205(8)
H4 H 0.0890 0.0568 0.1108
H5 H 0.0880 -0.1248 0.1147
H6 H 0.0878 -0.0424 0.0493
C18 C 0.10814(11) -0.4077(2) -0.16364(8)
C19 C 0.10055(13) -0.5677(2) -0.16971(9)
H7 H 0.0886 -0.6133 -0.2087
C20 C 0.62472(12) -0.1052(2) 0.07018(9)
H8 H 0.6909 -0.0625 0.0748
H9 H 0.6069 -0.1161 0.0265
H10 H 0.6231 -0.2050 0.0900
C21 C 0.52031(14) 0.2317(2) 0.16521(8)
H11 H 0.5462 0.3154 0.1880
C22 C 0.09865(15) -0.2819(2) -0.21200(8)
C23 C 0.58438(13) 0.1272(2) 0.13502(8)
H12 H 0.6530 0.1448 0.1389
C24 C 0.16293(11) -0.35801(17) 0.01131(7)
C25 C 0.13769(16) -0.6993(2) -0.00154(10)
H13 H 0.2011 -0.6831 0.0200
H14 H 0.1330 -0.8051 -0.0154
H15 H 0.0846 -0.6777 0.0263
C26 C 0.11116(12) -0.6567(2) -0.11667(9)
H16 H 0.1063 -0.7640 -0.1205
C27 C 0.3235(2) 0.3033(3) 0.25227(10)
H17 H 0.2643 0.3591 0.2629
H18 H 0.3816 0.3568 0.2688
H19 H 0.3214 0.2008 0.2698
C28 C 0.31513(18) 0.4488(2) 0.14932(12)
H20 H 0.2569 0.4998 0.1645
H21 H 0.3069 0.4332 0.1049
H22 H 0.3732 0.5119 0.1580
C29 C -0.00482(18) -0.2755(3) -0.24376(12)
H23 H -0.0069 -0.1934 -0.2741
H24 H -0.0539 -0.2566 -0.2129
H25 H -0.0189 -0.3726 -0.2643
C30 C 0.18281(19) -0.2863(3) -0.25824(10)
H26 H 0.1737 -0.2037 -0.2881
H27 H 0.1818 -0.3841 -0.2798
H28 H 0.2460 -0.2737 -0.2360
loop_
_geom_bond_atom_site_label_1
_geom_bond_atom_site_label_2
_geom_bond_site_symmetry_1
_geom_bond_site_symmetry_2
O1 C2 1_555 1_555
O2 C6 1_555 1_555
O3 C14 1_555 1_555
O4 C14 1_555 1_555
O5 C24 1_555 1_555
C1 C3 1_555 1_555
C2 C7 1_555 1_555
C3 C7 1_555 1_555
C4 C8 1_555 1_555
C5 C12 1_555 1_555
C6 C1 1_555 1_555
C7 C24 1_555 1_555
C8 O1 1_555 1_555
C9 C4 1_555 1_555
C10 C4 1_555 1_555
C11 C9 1_555 1_555
C12 C15 1_555 1_555
C13 C2 1_555 1_555
H1 C13 1_555 1_555
H2 C13 1_555 1_555
H3 C13 1_555 1_555
C14 C5 1_555 1_555
C15 C25 1_555 1_555
C16 O2 1_555 1_555
C17 C1 1_555 1_555
H4 C17 1_555 1_555
H5 C17 1_555 1_555
H6 C17 1_555 1_555
C18 C5 1_555 1_555
C19 C18 1_555 1_555
H7 C19 1_555 1_555
C20 C10 1_555 1_555
H8 C20 1_555 1_555
H9 C20 1_555 1_555
H10 C20 1_555 1_555
C21 C11 1_555 1_555
H11 C21 1_555 1_555
C22 O4 1_555 1_555
C23 C10 1_555 1_555
H12 C23 1_555 1_555
C24 C12 1_555 1_555
C25 H13 1_555 1_555
H14 C25 1_555 1_555
H15 C25 1_555 1_555
C26 C15 1_555 1_555
H16 C26 1_555 1_555
C27 C16 1_555 1_555
H17 C27 1_555 1_555
H18 C27 1_555 1_555
H19 C27 1_555 1_555
C28 C16 1_555 1_555
H20 C28 1_555 1_555
H21 C28 1_555 1_555
H22 C28 1_555 1_555
C29 C22 1_555 1_555
H23 C29 1_555 1_555
H24 C29 1_555 1_555
H25 C29 1_555 1_555
C30 C22 1_555 1_555
H26 C30 1_555 1_555
H27 C30 1_555 1_555
H28 C30 1_555 1_555
C3 C8 1_555 1_555
C6 C9 1_555 1_555
C11 C16 1_555 1_555
C18 C22 1_555 1_555
C19 C26 1_555 1_555
C21 C23 1_555 1_555

#END
