
#######################################################################
#
#                 Cambridge Crystallographic Data Centre
#                                CCDC 
#
#######################################################################
#
# If this CIF has been generated from an entry in the Cambridge 
# Structural Database, then it will include bibliographic, chemical, 
# crystal, experimental, refinement or atomic coordinate data resulting 
# from the CCDC's data processing and validation procedures.
#
#######################################################################

data_YURYUF
_chemical_formula_moiety         'C12 H16 N4 2+,2(Cl1 1-),H2 O1'
_chemical_name_systematic        
"6,6'-bis(Ammoniomethyl)-2,2'-bipyridyl dichloride monohydrate"
_symmetry_cell_setting           monoclinic
_symmetry_space_group_name_H-M   'C 2/c'
_symmetry_Int_Tables_number      15
_space_group_name_Hall           '-C 2yn'
loop_
_symmetry_equiv_pos_site_id
_symmetry_equiv_pos_as_xyz
1 x,y,z
2 -x,y,1/2-z
3 1/2+x,1/2+y,z
4 1/2-x,1/2+y,1/2-z
5 -x,-y,-z
6 x,-y,1/2+z
7 1/2-x,1/2-y,-z
8 1/2+x,1/2-y,1/2+z
_cell_length_a                   11.991(2)
_cell_length_b                   5.703(1)
_cell_length_c                   22.109(3)
_cell_angle_alpha                90
_cell_angle_beta                 97.17(1)
_cell_angle_gamma                90
_cell_volume                     1500.09
_exptl_crystal_colour            colorless
_cell_formula_units_Z            4
loop_
_atom_site_label
_atom_site_type_symbol
_atom_site_fract_x
_atom_site_fract_y
_atom_site_fract_z
Cl1 Cl 0.3471(1) 0.1163(2) 0.6777(1)
O1 O 0.5000 0.7028(13) 0.7500
H1 H 0.4643 0.6605 0.7782
H1A H 0.5357 0.6605 0.7218
N1 N 0.0624(4) 0.8556(7) 0.5679(2)
N2 N 0.1190(4) 0.8194(8) 0.6875(2)
C1 C 0.1282(5) 0.6677(9) 0.5848(3)
C2 C 0.1678(5) 0.5193(11) 0.5430(3)
C3 C 0.1405(5) 0.5641(10) 0.4824(3)
C4 C 0.0755(4) 0.7569(10) 0.4650(3)
C5 C 0.0366(4) 0.8977(9) 0.5077(2)
C6 C 0.1498(5) 0.6211(10) 0.6514(3)
H2 H 0.1333 0.7904 0.7281
H3 H 0.1605 0.9432 0.6785
H4 H 0.0508 0.8782 0.6766
H5 H 0.2140 0.3870 0.5573
H6 H 0.1662 0.4626 0.4526
H7 H 0.0593 0.7947 0.4222
H8 H 0.1062 0.4856 0.6610
H9 H 0.2281 0.5814 0.6625
C5D C -0.0366(4) 1.1023(9) 0.4923(2)
N1D N -0.0624(4) 1.1444(7) 0.4321(2)
C4D C -0.0755(4) 1.2431(10) 0.5350(3)
C1D C -0.1282(5) 1.3323(9) 0.4152(3)
C3D C -0.1405(5) 1.4359(10) 0.5176(3)
H7D H -0.0593 1.2053 0.5778
C2D C -0.1678(5) 1.4807(11) 0.4570(3)
C6D C -0.1498(5) 1.3789(10) 0.3486(3)
H6D H -0.1662 1.5374 0.5474
H5D H -0.2140 1.6130 0.4427
N2D N -0.1190(4) 1.1806(8) 0.3125(2)
H8D H -0.1062 1.5144 0.3390
H9D H -0.2281 1.4186 0.3375
H2D H -0.1333 1.2096 0.2719
H3D H -0.1605 1.0568 0.3215
H4D H -0.0508 1.1218 0.3234
loop_
_geom_bond_atom_site_label_1
_geom_bond_atom_site_label_2
_geom_bond_site_symmetry_1
_geom_bond_site_symmetry_2
O1 H1 1_555 1_555
N1 C1 1_555 1_555
N2 C6 1_555 1_555
C1 C2 1_555 1_555
C2 C3 1_555 1_555
C3 C4 1_555 1_555
C4 C5 1_555 1_555
C5 N1 1_555 1_555
C6 C1 1_555 1_555
H2 N2 1_555 1_555
H3 N2 1_555 1_555
H4 N2 1_555 1_555
H5 C2 1_555 1_555
H6 C3 1_555 1_555
H7 C4 1_555 1_555
H8 C6 1_555 1_555
H9 C6 1_555 1_555
H1A O1 1_555 1_555
C5D C5 1_555 1_555
N1D C5D 1_555 1_555
C4D C5D 1_555 1_555
C1D N1D 1_555 1_555
C3D C4D 1_555 1_555
H7D C4D 1_555 1_555
C2D C1D 1_555 1_555
C6D C1D 1_555 1_555
H6D C3D 1_555 1_555
H5D C2D 1_555 1_555
N2D C6D 1_555 1_555
H8D C6D 1_555 1_555
H9D C6D 1_555 1_555
H2D N2D 1_555 1_555
H3D N2D 1_555 1_555
H4D N2D 1_555 1_555
C3D C2D 1_555 1_555

#END
