
#######################################################################
#
#                 Cambridge Crystallographic Data Centre
#                                CCDC 
#
#######################################################################
#
# If this CIF has been generated from an entry in the Cambridge 
# Structural Database, then it will include bibliographic, chemical, 
# crystal, experimental, refinement or atomic coordinate data resulting 
# from the CCDC's data processing and validation procedures.
#
#######################################################################

data_YUSBET
_chemical_formula_moiety         'C42 H82 Ba1 N6 O4 P2,C7 H8'
_chemical_name_systematic        
'bis((2,6-Di-t-butyl-4-methylphenoxy)-(tris(dimethylamino)phosphine oxide-O))-barium toluene solvate'
_symmetry_cell_setting           orthorhombic
_symmetry_space_group_name_H-M   'P c c n'
_symmetry_Int_Tables_number      56
_space_group_name_Hall           '-P 2ab 2ac'
loop_
_symmetry_equiv_pos_site_id
_symmetry_equiv_pos_as_xyz
1 x,y,z
2 1/2-x,1/2-y,z
3 1/2+x,-y,1/2-z
4 -x,1/2+y,1/2-z
5 -x,-y,-z
6 1/2+x,1/2+y,-z
7 1/2-x,y,1/2+z
8 x,1/2-y,1/2+z
_cell_length_a                   18.378(2)
_cell_length_b                   14.800(4)
_cell_length_c                   21.360(5)
_cell_angle_alpha                90
_cell_angle_beta                 90
_cell_angle_gamma                90
_cell_volume                     5809.8
_exptl_crystal_colour            colorless
_cell_formula_units_Z            4
_chemical_properties_physical    'unstable crystal'
loop_
_atom_site_label
_atom_site_type_symbol
_atom_site_fract_x
_atom_site_fract_y
_atom_site_fract_z
Ba1 Ba 0.7500 0.2500 0.4365
P1 P 0.8872(2) 0.1624(2) 0.5705(2)
O1 O 0.7956(4) 0.3773(5) 0.3778(4)
O2 O 0.8417(4) 0.1825(6) 0.5151(4)
C1 C 0.8213(7) 0.4495(8) 0.3475(6)
C2 C 0.7735(6) 0.5089(9) 0.3161(7)
C3 C 0.8011(8) 0.5806(9) 0.2820(6)
C4 C 0.8736(10) 0.5969(8) 0.2808(6)
C5 C 0.9215(7) 0.5401(9) 0.3108(7)
C6 C 0.8967(7) 0.4678(9) 0.3460(6)
C7 C 0.6909(7) 0.4936(1) 0.3186(8)
C8 C 0.9050(9) 0.6750(1) 0.2438(7)
C9 C 0.9501(7) 0.4075 0.3823(6)
C10 C 0.6510(11) 0.5680(3) 0.2844(9)
C11 C 0.6733(9) 0.4051(2) 0.2897(8)
C12 C 0.6659(8) 0.4974 0.3867(7)
C13 C 0.9473(9) 0.3102(2) 0.3587(8)
C14 C 0.9311(8) 0.4087(9) 0.4524(7)
C15 C 1.0302(10) 0.4377(2) 0.3795(8)
N1 N 0.9729(6) 0.1810(9) 0.5579(6)
C16 C 1.0211(11) 0.2370(6) 0.5973(9)
C17 C 1.0089(10) 0.1453(2) 0.5053(9)
N2 N 0.8605(7) 0.2227(7) 0.6298(5)
C18 C 0.8467(10) 0.3180(2) 0.6221(9)
C19 C 0.8603(9) 0.1941(2) 0.6941(9)
N3 N 0.8804(7) 0.0566(8) 0.5895(6)
C20 C 0.8140(11) 0.0085(3) 0.5803(9)
C21 C 0.9344(11) 0.0103(4) 0.6285(10)
H1 H 0.772 0.623 0.258
H2 H 0.977 0.552 0.310
H3 H 0.883 0.734 0.260
H4 H 0.890 0.670 0.198
H5 H 0.960 0.691 0.240
H6 H 0.662 0.573 0.238
H7 H 0.659 0.632 0.303
H8 H 0.593 0.563 0.285
H9 H 0.696 0.351 0.312
H10 H 0.687 0.400 0.244
H11 H 0.617 0.390 0.291
H12 H 0.678 0.557 0.407
H13 H 0.691 0.448 0.413
H14 H 0.612 0.486 0.391
H15 H 0.962 0.306 0.313
H16 H 0.898 0.283 0.363
H17 H 0.983 0.268 0.382
H18 H 0.879 0.383 0.459
H19 H 0.932 0.471 0.471
H20 H 0.965 0.369 0.478
H21 H 1.036 0.503 0.397
H22 H 1.049 0.441 0.335
H23 H 1.068 0.402 0.404
H24 H 1.022 0.214 0.642
H25 H 1.002 0.302 0.599
H26 H 1.078 0.252 0.593
H27 H 0.985 0.169 0.465
H28 H 1.005 0.077 0.504
H29 H 1.065 0.156 0.496
H30 H 0.806 0.325 0.587
H31 H 0.891 0.349 0.603
H32 H 0.829 0.359 0.656
H33 H 0.914 0.175 0.706
H34 H 0.831 0.136 0.698
H35 H 0.846 0.229 0.733
H36 H 0.799 0.012 0.536
H37 H 0.775 0.040 0.607
H38 H 0.808 -0.058 0.593
H39 H 0.942 0.043 0.669
H40 H 0.985 0.015 0.605
H41 H 0.935 -0.057 0.640
O1A O 0.7044(4) 0.1227(5) 0.3778(4)
O2A O 0.6583(4) 0.3175(6) 0.5151(4)
C1A C 0.6787(7) 0.0505(8) 0.3475(6)
P1A P 0.6128(2) 0.3376(2) 0.5705(2)
C2A C 0.7265(6) -0.0089(9) 0.3161(7)
C6A C 0.6033(7) 0.0322(9) 0.3460(6)
N1A N 0.5271(6) 0.3190(9) 0.5579(6)
N2A N 0.6395(7) 0.2773(7) 0.6298(5)
N3A N 0.6196(7) 0.4434(8) 0.5895(6)
C3A C 0.6989(8) -0.0806(9) 0.2820(6)
C7A C 0.8091(7) 0.0064(1) 0.3186(8)
C5A C 0.5785(7) -0.0401(9) 0.3108(7)
C9A C 0.5499(7) 0.0925 0.3823(6)
C16A C 0.4789(11) 0.2630(6) 0.5973(9)
C17A C 0.4911(10) 0.3547(2) 0.5053(9)
C18A C 0.6533(10) 0.1820(2) 0.6221(9)
C19A C 0.6397(9) 0.3059(2) 0.6941(9)
C20A C 0.6860(11) 0.4915(3) 0.5803(9)
C21A C 0.5656(11) 0.4897(4) 0.6285(10)
C4A C 0.6264(10) -0.0969(8) 0.2808(6)
H1A H 0.728 -0.123 0.258
C10A C 0.8490(11) -0.0680(3) 0.2844(9)
C11A C 0.8267(9) 0.0949(2) 0.2897(8)
C12A C 0.8341(8) 0.0026 0.3867(7)
H2A H 0.523 -0.052 0.310
C13A C 0.5527(9) 0.1898(2) 0.3587(8)
C14A C 0.5689(8) 0.0913(9) 0.4524(7)
C15A C 0.4698(10) 0.0623(2) 0.3795(8)
H24A H 0.478 0.286 0.642
H25A H 0.498 0.198 0.599
H26A H 0.422 0.248 0.593
H27A H 0.515 0.331 0.465
H28A H 0.495 0.423 0.504
H29A H 0.435 0.344 0.496
H30A H 0.694 0.175 0.587
H31A H 0.609 0.151 0.603
H32A H 0.671 0.141 0.656
H33A H 0.586 0.325 0.706
H34A H 0.669 0.364 0.698
H35A H 0.654 0.271 0.733
H36A H 0.701 0.488 0.536
H37A H 0.725 0.460 0.607
H38A H 0.692 0.558 0.593
H39A H 0.558 0.457 0.669
H40A H 0.515 0.485 0.605
H41A H 0.565 0.557 0.640
C8A C 0.5950(9) -0.1750(1) 0.2438(7)
H6A H 0.838 -0.073 0.238
H7A H 0.841 -0.132 0.303
H8A H 0.907 -0.063 0.285
H9A H 0.804 0.149 0.312
H10A H 0.813 0.100 0.244
H11A H 0.883 0.110 0.291
H12A H 0.822 -0.057 0.407
H13A H 0.809 0.052 0.413
H14A H 0.888 0.014 0.391
H15A H 0.538 0.194 0.313
H16A H 0.602 0.217 0.363
H17A H 0.517 0.232 0.382
H18A H 0.621 0.117 0.459
H19A H 0.568 0.029 0.471
H20A H 0.535 0.131 0.478
H21A H 0.464 -0.003 0.397
H22A H 0.451 0.059 0.335
H23A H 0.432 0.098 0.404
H3A H 0.617 -0.234 0.260
H4A H 0.610 -0.170 0.198
H5A H 0.540 -0.191 0.240
C22 C 0.2500 0.2500 0.4551(13)
C23 C 0.2936(12) 0.1830(6) 0.4844(11)
C24 C 0.2901(13) 0.1862(6) 0.5439(11)
C25 C 0.2500 0.2500 0.5749(13)
C26 C 0.2500 0.2500 0.3912
H42 H 0.330 0.147 0.472
H43 H 0.313 0.144 0.567
H44 H 0.250 0.250 0.620
C23A C 0.2064(12) 0.3170(6) 0.4844(11)
C24A C 0.2099(13) 0.3138(6) 0.5439(11)
H42A H 0.170 0.353 0.472
H43A H 0.187 0.356 0.567
H45? H 0.278 0.293 0.367
H46? H 0.206 0.259 0.367
H47? H 0.266 0.199 0.366
H48? H 0.234 0.302 0.366
H49? H 0.222 0.207 0.367
H50? H 0.294 0.242 0.366
loop_
_geom_bond_atom_site_label_1
_geom_bond_atom_site_label_2
_geom_bond_site_symmetry_1
_geom_bond_site_symmetry_2
Ba1 O1 1_555 1_555
P1 O2 1_555 1_555
O1 C1 1_555 1_555
O2 Ba1 1_555 1_555
C1 C2 1_555 1_555
C2 C3 1_555 1_555
C3 C4 1_555 1_555
C4 C5 1_555 1_555
C5 C6 1_555 1_555
C6 C1 1_555 1_555
C7 C2 1_555 1_555
C8 C4 1_555 1_555
C9 C6 1_555 1_555
C10 C7 1_555 1_555
C11 C7 1_555 1_555
C12 C7 1_555 1_555
C13 C9 1_555 1_555
C14 C9 1_555 1_555
C15 C9 1_555 1_555
N1 P1 1_555 1_555
C16 N1 1_555 1_555
C17 N1 1_555 1_555
N2 P1 1_555 1_555
C18 N2 1_555 1_555
C19 N2 1_555 1_555
N3 P1 1_555 1_555
C20 N3 1_555 1_555
C21 N3 1_555 1_555
C22 C23 1_555 1_555
C23 C24 1_555 1_555
C24 C25 1_555 1_555
C25 H44 1_555 1_555
C26 C22 1_555 1_555
H1 C3 1_555 1_555
H2 C5 1_555 1_555
H3 C8 1_555 1_555
H4 C8 1_555 1_555
H5 C8 1_555 1_555
H6 C10 1_555 1_555
H7 C10 1_555 1_555
H8 C10 1_555 1_555
H9 C11 1_555 1_555
H10 C11 1_555 1_555
H11 C11 1_555 1_555
H12 C12 1_555 1_555
H13 C12 1_555 1_555
H14 C12 1_555 1_555
H15 C13 1_555 1_555
H16 C13 1_555 1_555
H17 C13 1_555 1_555
H18 C14 1_555 1_555
H19 C14 1_555 1_555
H20 C14 1_555 1_555
H21 C15 1_555 1_555
H22 C15 1_555 1_555
H23 C15 1_555 1_555
H24 C16 1_555 1_555
H25 C16 1_555 1_555
H26 C16 1_555 1_555
H27 C17 1_555 1_555
H28 C17 1_555 1_555
H29 C17 1_555 1_555
H30 C18 1_555 1_555
H31 C18 1_555 1_555
H32 C18 1_555 1_555
H33 C19 1_555 1_555
H34 C19 1_555 1_555
H35 C19 1_555 1_555
H36 C20 1_555 1_555
H37 C20 1_555 1_555
H38 C20 1_555 1_555
H39 C21 1_555 1_555
H40 C21 1_555 1_555
H41 C21 1_555 1_555
H42 C23 1_555 1_555
H43 C24 1_555 1_555
O1A Ba1 1_555 1_555
O2A Ba1 1_555 1_555
C1A O1A 1_555 1_555
P1A O2A 1_555 1_555
C2A C1A 1_555 1_555
C6A C1A 1_555 1_555
N1A P1A 1_555 1_555
N2A P1A 1_555 1_555
N3A P1A 1_555 1_555
C3A C2A 1_555 1_555
C7A C2A 1_555 1_555
C5A C6A 1_555 1_555
C9A C6A 1_555 1_555
C16A N1A 1_555 1_555
C17A N1A 1_555 1_555
C18A N2A 1_555 1_555
C19A N2A 1_555 1_555
C20A N3A 1_555 1_555
C21A N3A 1_555 1_555
C4A C3A 1_555 1_555
H1A C3A 1_555 1_555
C10A C7A 1_555 1_555
C11A C7A 1_555 1_555
C12A C7A 1_555 1_555
H2A C5A 1_555 1_555
C13A C9A 1_555 1_555
C14A C9A 1_555 1_555
C15A C9A 1_555 1_555
H24A C16A 1_555 1_555
H25A C16A 1_555 1_555
H26A C16A 1_555 1_555
H27A C17A 1_555 1_555
H28A C17A 1_555 1_555
H29A C17A 1_555 1_555
H30A C18A 1_555 1_555
H31A C18A 1_555 1_555
H32A C18A 1_555 1_555
H33A C19A 1_555 1_555
H34A C19A 1_555 1_555
H35A C19A 1_555 1_555
H36A C20A 1_555 1_555
H37A C20A 1_555 1_555
H38A C20A 1_555 1_555
H39A C21A 1_555 1_555
H40A C21A 1_555 1_555
H41A C21A 1_555 1_555
C8A C4A 1_555 1_555
H6A C10A 1_555 1_555
H7A C10A 1_555 1_555
H8A C10A 1_555 1_555
H9A C11A 1_555 1_555
H10A C11A 1_555 1_555
H11A C11A 1_555 1_555
H12A C12A 1_555 1_555
H13A C12A 1_555 1_555
H14A C12A 1_555 1_555
H15A C13A 1_555 1_555
H16A C13A 1_555 1_555
H17A C13A 1_555 1_555
H18A C14A 1_555 1_555
H19A C14A 1_555 1_555
H20A C14A 1_555 1_555
H21A C15A 1_555 1_555
H22A C15A 1_555 1_555
H23A C15A 1_555 1_555
H3A C8A 1_555 1_555
H4A C8A 1_555 1_555
H5A C8A 1_555 1_555
C23A C22 1_555 1_555
C24A C25 1_555 1_555
H42A C23A 1_555 1_555
H43A C24A 1_555 1_555
C5A C4A 1_555 1_555
C23A C24A 1_555 1_555

#END
