
#######################################################################
#
#                 Cambridge Crystallographic Data Centre
#                                CCDC 
#
#######################################################################
#
# If this CIF has been generated from an entry in the Cambridge 
# Structural Database, then it will include bibliographic, chemical, 
# crystal, experimental, refinement or atomic coordinate data resulting 
# from the CCDC's data processing and validation procedures.
#
#######################################################################

data_YUSXEQ
_chemical_formula_moiety         'C20 H14 N2'
_chemical_name_systematic        2,4-Diphenylquinazoline
_symmetry_cell_setting           monoclinic
_symmetry_space_group_name_H-M   'P 21/n'
_symmetry_Int_Tables_number      14
_space_group_name_Hall           '-P 2yn'
loop_
_symmetry_equiv_pos_site_id
_symmetry_equiv_pos_as_xyz
1 x,y,z
2 1/2-x,1/2+y,1/2-z
3 -x,-y,-z
4 1/2+x,1/2-y,1/2+z
_cell_length_a                   10.633
_cell_length_b                   6.965
_cell_length_c                   19.786
_cell_angle_alpha                90
_cell_angle_beta                 99.74
_cell_angle_gamma                90
_cell_volume                     1444.21
_exptl_crystal_colour            colorless
_exptl_crystal_description       block
_cell_formula_units_Z            4
loop_
_atom_site_label
_atom_site_type_symbol
_atom_site_fract_x
_atom_site_fract_y
_atom_site_fract_z
N1 N 0.22421(9) 0.19192(13) 0.17267(5)
C1 C 0.28615(11) 0.19348(15) 0.29522(6)
N2 N 0.44544(8) 0.19863(13) 0.22151(5)
C2 C 0.25658(11) 0.18933(15) 0.10895(6)
C3 C 0.31811(11) 0.19512(15) 0.22497(6)
C4 C 0.38519(11) 0.19526(15) 0.09935(6)
C5 C 0.47813(10) 0.20193(15) 0.16017(6)
C6 C 0.15984(11) 0.20707(17) 0.30453(6)
H1 H 0.0953 0.2181 0.2666
C7 C 0.41211(12) 0.18432(17) 0.03195(6)
H2 H 0.4963 0.1876 0.0248
C8 C 0.61739(11) 0.20590(17) 0.15861(6)
C9 C 0.12959(13) 0.20432(18) 0.36945(7)
H3 H 0.0448 0.2144 0.3751
C10 C 0.15911(12) 0.17564(16) 0.05131(6)
H4 H 0.0742 0.1737 0.0572
C11 C 0.22295(14) 0.18687(17) 0.42565(7)
H5 H 0.2019 0.1845 0.4694
C12 C 0.18824(13) 0.16523(17) -0.01267(7)
H6 H 0.1231 0.1554 -0.0503
C13 C 0.37965(12) 0.17647(16) 0.35252(6)
H7 H 0.4648 0.1674 0.3474
C14 C 0.31581(13) 0.16909(18) -0.02256(7)
H8 H 0.3346 0.1612 -0.0667
C15 C 0.34820(13) 0.17277(18) 0.41711(7)
H9 H 0.4121 0.1606 0.4553
C16 C 0.67097(12) 0.34066(18) 0.12060(6)
H10 H 0.6191 0.4310 0.0949
C17 C 0.87783(13) 0.2099(3) 0.15774(7)
H11 H 0.9652 0.2108 0.1573
C18 C 0.69671(12) 0.0744(2) 0.19699(6)
H12 H 0.6628 -0.0151 0.2238
C19 C 0.80055(13) 0.3420(2) 0.12062(7)
H13 H 0.8355 0.4338 0.0951
C20 C 0.82630(13) 0.0756(2) 0.19567(7)
H14 H 0.8788 -0.0153 0.2207
loop_
_geom_bond_atom_site_label_1
_geom_bond_atom_site_label_2
_geom_bond_site_symmetry_1
_geom_bond_site_symmetry_2
N1 C2 1_555 1_555
C1 C3 1_555 1_555
N2 C3 1_555 1_555
C2 C4 1_555 1_555
C3 N1 1_555 1_555
C4 C5 1_555 1_555
C5 N2 1_555 1_555
C6 C1 1_555 1_555
H1 C6 1_555 1_555
C7 C4 1_555 1_555
H2 C7 1_555 1_555
C8 C5 1_555 1_555
C9 C6 1_555 1_555
H3 C9 1_555 1_555
C10 C2 1_555 1_555
H4 C10 1_555 1_555
C11 C9 1_555 1_555
H5 C11 1_555 1_555
C12 C10 1_555 1_555
H6 C12 1_555 1_555
C13 C1 1_555 1_555
H7 C13 1_555 1_555
C14 C7 1_555 1_555
H8 C14 1_555 1_555
C15 C11 1_555 1_555
H9 C15 1_555 1_555
C16 C8 1_555 1_555
H10 C16 1_555 1_555
C17 H11 1_555 1_555
C18 C8 1_555 1_555
H12 C18 1_555 1_555
C19 C16 1_555 1_555
H13 C19 1_555 1_555
C20 C17 1_555 1_555
H14 C20 1_555 1_555
C12 C14 1_555 1_555
C13 C15 1_555 1_555
C17 C19 1_555 1_555
C18 C20 1_555 1_555

#END
