
#######################################################################
#
#                 Cambridge Crystallographic Data Centre
#                                CCDC 
#
#######################################################################
#
# If this CIF has been generated from an entry in the Cambridge 
# Structural Database, then it will include bibliographic, chemical, 
# crystal, experimental, refinement or atomic coordinate data resulting 
# from the CCDC's data processing and validation procedures.
#
#######################################################################

data_YUSXEQ01
_chemical_formula_moiety         'C20 H14 N2'
_chemical_name_systematic        2,4-diphenylquinazoline
_symmetry_cell_setting           monoclinic
_symmetry_space_group_name_H-M   'P 21/c'
_symmetry_Int_Tables_number      14
_space_group_name_Hall           '-P 2ybc'
loop_
_symmetry_equiv_pos_site_id
_symmetry_equiv_pos_as_xyz
1 x,y,z
2 -x,1/2+y,1/2-z
3 -x,-y,-z
4 x,1/2-y,1/2+z
_cell_length_a                   10.617(2)
_cell_length_b                   6.9496(14)
_cell_length_c                   20.782(6)
_cell_angle_alpha                90
_cell_angle_beta                 110.52(3)
_cell_angle_gamma                90
_cell_volume                     1436.08
_exptl_crystal_colour            colorless
_exptl_crystal_description       block
_cell_formula_units_Z            4
loop_
_atom_site_label
_atom_site_type_symbol
_atom_site_fract_x
_atom_site_fract_y
_atom_site_fract_z
N1 N 0.05122(19) 0.6912(3) 0.32715(9)
N2 N 0.22416(19) 0.6983(3) 0.27835(9)
C1 C 0.2852(2) 0.6946(3) 0.40050(11)
C2 C -0.0093(2) 0.6931(3) 0.20449(11)
C3 C 0.3382(3) 0.6691(4) 0.52273(13)
H1 H 0.4014 0.6612 0.5669
C4 C 0.1080(3) 0.6756(4) 0.44867(12)
H2 H 0.0169 0.6741 0.4426
C5 C -0.2405(3) 0.7044(4) 0.13058(13)
H3 H -0.3311 0.7156 0.1249
C6 C 0.4585(2) 0.7053(4) 0.34137(11)
C7 C -0.0695(3) 0.6729(4) 0.08253(13)
H4 H -0.0439 0.6613 0.0443
C8 C 0.1478(2) 0.6882(4) 0.39090(11)
C9 C 0.0929(2) 0.6949(3) 0.27455(11)
C10 C 0.6801(3) 0.8429(5) 0.37967(13)
H5 H 0.7405 0.9348 0.4053
C11 C 0.3798(3) 0.6841(4) 0.46814(12)
H6 H 0.4713 0.6876 0.4753
C12 C 0.3179(2) 0.7017(3) 0.33957(11)
C13 C 0.5498(3) 0.8410(4) 0.37918(13)
H7 H 0.5231 0.9321 0.4046
C14 C -0.1451(2) 0.7063(4) 0.19543(12)
H8 H -0.1714 0.7165 0.2335
C15 C 0.6310(3) 0.5750(5) 0.30436(13)
H9 H 0.6587 0.4840 0.2793
C16 C 0.2008(3) 0.6654(4) 0.51294(13)
H10 H 0.1732 0.6559 0.5506
C17 C 0.4998(2) 0.5738(5) 0.30291(12)
H11 H 0.4391 0.4842 0.2759
C18 C -0.2029(3) 0.6860(4) 0.07410(14)
H12 H -0.2678 0.6824 0.0303
C19 C 0.0270(3) 0.6769(4) 0.14731(12)
H13 H 0.1175 0.6686 0.1525
C20 C 0.7205(3) 0.7100(6) 0.34259(13)
H14 H 0.8085 0.7110 0.3432
loop_
_geom_bond_atom_site_label_1
_geom_bond_atom_site_label_2
_geom_bond_site_symmetry_1
_geom_bond_site_symmetry_2
N1 C8 1_555 1_555
N2 C9 1_555 1_555
C1 C8 1_555 1_555
C2 C9 1_555 1_555
C3 H1 1_555 1_555
C4 H2 1_555 1_555
C5 H3 1_555 1_555
C6 C12 1_555 1_555
C7 H4 1_555 1_555
C8 C4 1_555 1_555
C9 N1 1_555 1_555
C10 H5 1_555 1_555
C11 C1 1_555 1_555
H6 C11 1_555 1_555
C12 N2 1_555 1_555
C13 C6 1_555 1_555
H7 C13 1_555 1_555
C14 C2 1_555 1_555
H8 C14 1_555 1_555
C15 H9 1_555 1_555
C16 C3 1_555 1_555
H10 C16 1_555 1_555
C17 C6 1_555 1_555
H11 C17 1_555 1_555
C18 C5 1_555 1_555
H12 C18 1_555 1_555
C19 C2 1_555 1_555
H13 C19 1_555 1_555
C20 C10 1_555 1_555
H14 C20 1_555 1_555
C1 C12 1_555 1_555
C3 C11 1_555 1_555
C4 C16 1_555 1_555
C5 C14 1_555 1_555
C7 C18 1_555 1_555
C7 C19 1_555 1_555
C10 C13 1_555 1_555
C15 C17 1_555 1_555
C15 C20 1_555 1_555

#END
