
#######################################################################
#
#                 Cambridge Crystallographic Data Centre
#                                CCDC 
#
#######################################################################
#
# If this CIF has been generated from an entry in the Cambridge 
# Structural Database, then it will include bibliographic, chemical, 
# crystal, experimental, refinement or atomic coordinate data resulting 
# from the CCDC's data processing and validation procedures.
#
#######################################################################

data_YUSZAO
_chemical_formula_moiety         'C78 H15 N5,1.5(C6 H5 Cl1)'
_chemical_name_systematic        
'9-cyano-12-ethyl-1,2-(1-cyano-2-(4-(dimethylamino)phenyl)-3-(dicyanomethylene)prop-1-ene-1,3-diyl)-C60fullerene chlorobenzene solvate'
_symmetry_cell_setting           monoclinic
_symmetry_space_group_name_H-M   'P 21/c'
_symmetry_Int_Tables_number      14
_space_group_name_Hall           '-P 2ybc'
loop_
_symmetry_equiv_pos_site_id
_symmetry_equiv_pos_as_xyz
1 x,y,z
2 -x,1/2+y,1/2-z
3 -x,-y,-z
4 x,1/2-y,1/2+z
_cell_length_a                   15.9413(3)
_cell_length_b                   18.6916(3)
_cell_length_c                   17.0131(3)
_cell_angle_alpha                90
_cell_angle_beta                 98.6182(6)
_cell_angle_gamma                90
_cell_volume                     5012.13
_exptl_crystal_colour            brown
_exptl_crystal_description       plate
_cell_formula_units_Z            4
_exptl_crystal_recrystallization_method n-hexane/chlorobenzene
loop_
_atom_site_label
_atom_site_type_symbol
_atom_site_fract_x
_atom_site_fract_y
_atom_site_fract_z
Cl1 Cl 0.65314(4) 0.33608(4) 0.32586(5)
C79 C 0.69769(16) 0.40959(15) 0.28496(15)
C80 C 0.78422(15) 0.40939(15) 0.28068(16)
C81 C 0.81912(17) 0.46806(16) 0.24931(17)
C82 C 0.76995(18) 0.52688(16) 0.22349(17)
C83 C 0.68395(18) 0.52653(16) 0.22826(16)
C84 C 0.64645(17) 0.46761(15) 0.25858(15)
H1 H 0.7958 0.5686 0.2019
H9 H 0.5866(19) 0.4675(15) 0.2613(18)
H12 H 0.652(2) 0.566(2) 0.212(2)
H17 H 0.889(3) 0.462(2) 0.245(3)
H19 H 0.821(3) 0.368(2) 0.303(3)
N1 N 0.50085(14) 0.62065(13) 0.26999(14)
N2 N 0.48182(16) 0.81728(13) 0.37353(16)
N3 N 0.13305(14) 0.70855(13) 0.55728(15)
N4 N 0.38635(16) 0.99038(11) 0.54486(14)
N5 N 0.02907(15) 0.68987(14) 0.36106(18)
C1 C 0.29628(13) 0.59589(11) 0.36381(13)
C2 C 0.21998(13) 0.59665(11) 0.41899(13)
C3 C 0.25278(13) 0.54770(11) 0.48856(12)
C4 C 0.20348(14) 0.50704(12) 0.53096(13)
C5 C 0.23859(15) 0.44483(12) 0.57363(13)
C6 C 0.17430(15) 0.38916(13) 0.56643(13)
C7 C 0.19659(15) 0.31822(13) 0.55854(14)
C8 C 0.28521(16) 0.29942(13) 0.55860(14)
C9 C 0.28758(15) 0.24228(12) 0.50214(16)
C10 C 0.20137(16) 0.22509(12) 0.46677(16)
C11 C 0.18280(16) 0.20732(12) 0.38668(17)
C12 C 0.25027(17) 0.20530(13) 0.33841(17)
C13 C 0.21620(18) 0.23231(13) 0.26019(16)
C14 C 0.26679(18) 0.27418(14) 0.21814(17)
C15 C 0.23088(19) 0.33649(15) 0.17518(15)
C16 C 0.29550(18) 0.39226(15) 0.18352(14)
C17 C 0.27347(17) 0.46326(14) 0.19364(14)
C18 C 0.32578(15) 0.51110(12) 0.24716(14)
C19 C 0.27133(14) 0.57315(12) 0.27188(13)
C20 C 0.18412(14) 0.53766(12) 0.25369(13)
C21 C 0.12021(14) 0.54002(12) 0.29803(14)
C22 C 0.12565(13) 0.57576(12) 0.37927(14)
C23 C 0.08204(13) 0.51706(12) 0.42441(14)
C24 C 0.11495(14) 0.49055(12) 0.49728(14)
C25 C 0.09822(14) 0.41744(13) 0.51855(14)
C26 C 0.04856(13) 0.37268(13) 0.46486(15)
C27 C 0.07177(14) 0.29860(13) 0.45585(15)
C28 C 0.14507(15) 0.27195(13) 0.50244(15)
C29 C 0.05292(14) 0.28016(13) 0.37261(16)
C30 C 0.10712(16) 0.23513(13) 0.33846(16)
C31 C 0.12802(17) 0.25060(14) 0.26012(16)
C32 C 0.09365(17) 0.31041(15) 0.21926(15)
C33 C 0.14597(18) 0.35435(15) 0.17579(15)
C34 C 0.12305(17) 0.42876(14) 0.18592(14)
C35 C 0.18570(16) 0.48108(14) 0.19646(13)
C36 C 0.39595(14) 0.48261(13) 0.29292(15)
C37 C 0.41919(15) 0.40831(13) 0.28525(16)
C38 C 0.37089(17) 0.36386(14) 0.23059(16)
C39 C 0.35350(18) 0.29049(14) 0.25271(17)
C40 C 0.38605(16) 0.26471(13) 0.32757(18)
C41 C 0.43700(15) 0.31064(14) 0.38447(18)
C42 C 0.41701(15) 0.29555(13) 0.46322(17)
C43 C 0.35271(15) 0.23993(12) 0.45492(17)
C44 C 0.33365(17) 0.22114(13) 0.37179(17)
C45 C 0.41438(14) 0.35009(13) 0.51787(15)
C46 C 0.34698(15) 0.35196(13) 0.56646(14)
C47 C 0.32325(15) 0.42622(12) 0.57437(13)
C48 C 0.37488(14) 0.46943(12) 0.53039(14)
C49 C 0.33869(13) 0.52836(11) 0.48687(13)
C50 C 0.36053(13) 0.54507(11) 0.41091(13)
C51 C 0.41437(13) 0.50085(12) 0.37767(14)
C52 C 0.44963(13) 0.43836(12) 0.42035(15)
C53 C 0.45281(14) 0.38118(14) 0.36371(16)
C54 C 0.43145(13) 0.42316(13) 0.49600(15)
C55 C 0.01509(13) 0.40013(13) 0.38684(15)
C56 C 0.01758(14) 0.34265(14) 0.32980(16)
C57 C 0.03762(15) 0.35750(14) 0.25470(16)
C58 C 0.05661(15) 0.43093(14) 0.23436(15)
C59 C 0.05639(14) 0.48481(13) 0.29000(15)
C60 C 0.03370(13) 0.47022(13) 0.36737(15)
C61 C 0.33518(13) 0.67135(12) 0.37781(13)
C62 C 0.40751(14) 0.69464(12) 0.35228(13)
C63 C 0.45764(14) 0.65161(13) 0.30617(14)
C64 C 0.44471(15) 0.76444(13) 0.36759(15)
C65 C 0.28965(13) 0.71200(12) 0.43092(14)
C66 C 0.22610(13) 0.67226(12) 0.45209(13)
C67 C 0.17458(14) 0.69422(12) 0.51032(15)
C68 C 0.31303(13) 0.78453(12) 0.46172(14)
C69 C 0.27151(17) 0.84529(14) 0.42787(16)
C70 C 0.29532(18) 0.91286(14) 0.45493(16)
C71 C 0.36211(16) 0.92284(12) 0.51815(14)
C72 C 0.40312(15) 0.86194(13) 0.55323(15)
C73 C 0.37810(14) 0.79499(13) 0.52549(14)
C74 C 0.46427(19) 1.00050(15) 0.59873(17)
C75 C 0.3452(3) 1.05279(15) 0.50554(19)
C76 C 0.26811(17) 0.63683(14) 0.21211(14)
C77 C 0.20106(18) 0.69352(15) 0.22239(17)
C78 C 0.07120(14) 0.64046(13) 0.36948(16)
H2 H 0.456(2) 0.9791(18) 0.648(2)
H3 H 0.450(2) 0.8665(18) 0.597(2)
H4 H 0.2569(16) 0.6153(14) 0.1617(17)
H5 H 0.403(2) 0.760(2) 0.552(2)
H6 H 0.273(3) 0.954(3) 0.432(3)
H7 H 0.320(2) 0.6623(17) 0.2128(19)
H8 H 0.224(2) 0.8421(19) 0.382(2)
H10 H 0.141(2) 0.6733(18) 0.216(2)
H11 H 0.207(3) 0.725(2) 0.181(3)
H13 H 0.354(2) 1.0556(19) 0.448(2)
H14 H 0.214(2) 0.7171(19) 0.273(2)
H15 H 0.470(2) 1.050(2) 0.614(2)
H16 H 0.279(3) 1.051(2) 0.503(3)
H18 H 0.372(3) 1.091(2) 0.532(3)
H20 H 0.518(3) 0.984(2) 0.575(2)
Cl2? Cl 0.0089(4) 0.4102(3) -0.0933(4)
C85? C -0.0481(12) 0.5514(9) 0.0720(11)
C86? C 0.0120(11) 0.6049(6) 0.0695(10)
C87? C 0.0712(12) 0.5992(6) 0.0176(11)
C88? C 0.0703(9) 0.5400(6) -0.0319(10)
C89? C 0.0101(5) 0.4865(3) -0.0295(4)
C90? C -0.0490(10) 0.4922(7) 0.0225(10)
C91? C -0.0419(17) 0.5612(9) 0.0849(15)
C92? C 0.0219(15) 0.6035(7) 0.0619(14)
C93? C 0.0694(15) 0.5786(8) 0.0055(15)
C94? C 0.0532(13) 0.5112(7) -0.0280(13)
C95? C -0.0105(7) 0.4688(5) -0.0050(7)
C96? C -0.0581(13) 0.4938(8) 0.0514(12)
Cl3? Cl -0.0314(5) 0.3821(4) -0.0481(5)
loop_
_geom_bond_atom_site_label_1
_geom_bond_atom_site_label_2
_geom_bond_site_symmetry_1
_geom_bond_site_symmetry_2
Cl1 C79 1_555 1_555
N1 C63 1_555 1_555
N2 C64 1_555 1_555
N3 C67 1_555 1_555
N4 C71 1_555 1_555
N5 C78 1_555 1_555
C1 C2 1_555 1_555
C2 C3 1_555 1_555
C3 C4 1_555 1_555
C4 C5 1_555 1_555
C5 C6 1_555 1_555
C6 C7 1_555 1_555
C7 C8 1_555 1_555
C8 C9 1_555 1_555
C9 C10 1_555 1_555
C10 C11 1_555 1_555
C11 C12 1_555 1_555
C12 C13 1_555 1_555
C13 C14 1_555 1_555
C14 C15 1_555 1_555
C15 C16 1_555 1_555
C16 C17 1_555 1_555
C17 C18 1_555 1_555
C18 C19 1_555 1_555
C19 C1 1_555 1_555
C20 C19 1_555 1_555
C21 C20 1_555 1_555
C22 C2 1_555 1_555
C23 C22 1_555 1_555
C24 C4 1_555 1_555
C25 C6 1_555 1_555
C26 C25 1_555 1_555
C27 C26 1_555 1_555
C28 C7 1_555 1_555
C29 C27 1_555 1_555
C30 C11 1_555 1_555
C31 C13 1_555 1_555
C32 C31 1_555 1_555
C33 C15 1_555 1_555
C34 C33 1_555 1_555
C35 C17 1_555 1_555
C36 C18 1_555 1_555
C37 C36 1_555 1_555
C38 C16 1_555 1_555
C39 C14 1_555 1_555
C40 C39 1_555 1_555
C41 C40 1_555 1_555
C42 C41 1_555 1_555
C43 C9 1_555 1_555
C44 C12 1_555 1_555
C45 C42 1_555 1_555
C46 C8 1_555 1_555
C47 C5 1_555 1_555
C48 C47 1_555 1_555
C49 C3 1_555 1_555
C50 C1 1_555 1_555
C51 C36 1_555 1_555
C52 C51 1_555 1_555
C53 C37 1_555 1_555
C54 C45 1_555 1_555
C55 C26 1_555 1_555
C56 C29 1_555 1_555
C57 C32 1_555 1_555
C58 C34 1_555 1_555
C59 C21 1_555 1_555
C60 C23 1_555 1_555
C61 C1 1_555 1_555
C62 C61 1_555 1_555
C63 C62 1_555 1_555
C64 C62 1_555 1_555
C65 C61 1_555 1_555
C66 C2 1_555 1_555
C67 C66 1_555 1_555
C68 C65 1_555 1_555
C69 C68 1_555 1_555
C70 C69 1_555 1_555
C71 C70 1_555 1_555
C72 C71 1_555 1_555
C73 C68 1_555 1_555
C74 N4 1_555 1_555
C75 N4 1_555 1_555
C76 C19 1_555 1_555
C77 C76 1_555 1_555
C78 C22 1_555 1_555
C79 C80 1_555 1_555
C80 C81 1_555 1_555
C81 C82 1_555 1_555
C82 C83 1_555 1_555
C83 C84 1_555 1_555
C84 C79 1_555 1_555
H1 C82 1_555 1_555
H2 C74 1_555 1_555
H3 C72 1_555 1_555
H4 C76 1_555 1_555
H5 C73 1_555 1_555
H6 C70 1_555 1_555
H7 C76 1_555 1_555
H8 C69 1_555 1_555
H9 C84 1_555 1_555
H10 C77 1_555 1_555
H11 C77 1_555 1_555
H12 C83 1_555 1_555
H13 C75 1_555 1_555
H14 C77 1_555 1_555
H15 C74 1_555 1_555
H16 C75 1_555 1_555
H17 C81 1_555 1_555
H18 C75 1_555 1_555
H19 C80 1_555 1_555
H20 C74 1_555 1_555
C10 C28 1_555 1_555
C20 C35 1_555 1_555
C21 C22 1_555 1_555
C23 C24 1_555 1_555
C24 C25 1_555 1_555
C27 C28 1_555 1_555
C29 C30 1_555 1_555
C30 C31 1_555 1_555
C32 C33 1_555 1_555
C34 C35 1_555 1_555
C37 C38 1_555 1_555
C38 C39 1_555 1_555
C40 C44 1_555 1_555
C41 C53 1_555 1_555
C42 C43 1_555 1_555
C43 C44 1_555 1_555
C45 C46 1_555 1_555
C46 C47 1_555 1_555
C48 C49 1_555 1_555
C48 C54 1_555 1_555
C49 C50 1_555 1_555
C50 C51 1_555 1_555
C52 C53 1_555 1_555
C52 C54 1_555 1_555
C55 C56 1_555 1_555
C55 C60 1_555 1_555
C56 C57 1_555 1_555
C57 C58 1_555 1_555
C58 C59 1_555 1_555
C59 C60 1_555 1_555
C65 C66 1_555 1_555
C72 C73 1_555 1_555

#END
