
#######################################################################
#
#                 Cambridge Crystallographic Data Centre
#                                CCDC 
#
#######################################################################
#
# If this CIF has been generated from an entry in the Cambridge 
# Structural Database, then it will include bibliographic, chemical, 
# crystal, experimental, refinement or atomic coordinate data resulting 
# from the CCDC's data processing and validation procedures.
#
#######################################################################

data_YUTFIC
_chemical_formula_moiety         'C27 H29 N1 O1'
_chemical_name_systematic        
1,2,3,4,5,6,7,8,13,14-Decahydro-9,12-etheno-1-oxa-8-azatetradecine-13-spiro-9'-(9',10-dihydrophenanthrene)
_symmetry_cell_setting           monoclinic
_symmetry_space_group_name_H-M   'P 21'
_symmetry_Int_Tables_number      4
_space_group_name_Hall           'P 2yb'
loop_
_symmetry_equiv_pos_site_id
_symmetry_equiv_pos_as_xyz
1 x,y,z
2 -x,1/2+y,-z
_cell_length_a                   6.172(1)
_cell_length_b                   13.074(1)
_cell_length_c                   13.194(1)
_cell_angle_alpha                90
_cell_angle_beta                 90.72(1)
_cell_angle_gamma                90
_cell_volume                     1064.58
_exptl_crystal_colour            colorless
_chemical_melting_point          163-164deg.C
_cell_formula_units_Z            2
loop_
_atom_site_label
_atom_site_type_symbol
_atom_site_fract_x
_atom_site_fract_y
_atom_site_fract_z
O1 O 0.9511(2) -0.0689 0.6466(1)
N1 N 0.6571(5) 0.3268(2) 0.6974(2)
C1 C 1.0934(4) 0.0108(2) 1.0988(2)
C2 C 0.9920(5) 0.0247(2) 1.1908(2)
C3 C 0.7947(5) -0.0189(2) 1.2073(2)
C4 C 0.6982(4) -0.0775(2) 1.1333(2)
C5 C 0.5517(4) -0.2356(2) 0.9826(2)
C6 C 0.4622(4) -0.2959(2) 0.9072(2)
C7 C 0.5214(4) -0.2804(2) 0.8086(2)
C8 C 0.6704(4) -0.2057(2) 0.7849(2)
C9 C 0.9359(3) -0.0639(2) 0.8369(1)
C10 C 1.1015(3) -0.0680(3) 0.9243(2)
C11 C 0.9976(3) -0.0492(2) 1.0241(1)
C12 C 0.7959(3) -0.0936(2) 1.0411(1)
C13 C 0.7006(3) -0.1589(2) 0.9603(1)
C14 C 0.7645(3) -0.1440(2) 0.8594(1)
C15 C 0.8384(3) 0.0435(2) 0.8231(1)
C16 C 0.6394(3) 0.0562(2) 0.7770(2)
C17 C 0.5706(4) 0.1498(2) 0.7394(2)
C18 C 0.7061(4) 0.2346(2) 0.7458(2)
C19 C 0.8943(4) 0.2244(2) 0.8031(2)
C20 C 0.9588(4) 0.1315(2) 0.8408(2)
C21 C 0.5465(7) 0.3279(3) 0.5994(2)
C22 C 0.6235(7) 0.2494(3) 0.5228(3)
C23 C 0.8621(7) 0.2358(3) 0.5118(2)
C24 C 0.9328(8) 0.1409(3) 0.4526(2)
C25 C 0.8829(7) 0.0395(3) 0.5044(2)
C26 C 1.0253(5) 0.0199(2) 0.5966(2)
C27 C 1.0634(4) -0.0894(2) 0.7395(2)
H1 H 0.773(4) 0.364(2) 0.696(2)
H2 H 1.241(4) 0.043(2) 1.081(1)
H3 H 1.056(4) 0.071(2) 1.244(2)
H4 H 0.719(4) -0.007(2) 1.266(2)
H5 H 0.558(4) -0.104(2) 1.145(2)
H6 H 0.509(3) -0.245(2) 1.054(2)
H7 H 0.360(4) -0.353(2) 0.928(1)
H8 H 0.453(4) -0.322(2) 0.751(2)
H9 H 0.715(4) -0.193(2) 0.715(2)
H10 H 1.165(4) -0.137(2) 0.926(2)
H11 H 1.223(4) -0.022(2) 0.913(2)
H12 H 0.548(4) -0.005(2) 0.766(1)
H13 H 0.431(4) 0.155(2) 0.707(2)
H14 H 0.988(4) 0.280(2) 0.810(2)
H15 H 1.102(5) 0.124(2) 0.874(2)
H16 H 0.376(7) 0.323(3) 0.612(3)
H17 H 0.573(5) 0.399(3) 0.568(2)
H18 H 0.553(6) 0.176(3) 0.543(2)
H19 H 0.580(5) 0.279(3) 0.456(3)
H20 H 0.943(4) 0.234(2) 0.578(2)
H21 H 0.928(5) 0.298(3) 0.475(2)
H22 H 0.845(5) 0.145(3) 0.383(2)
H23 H 1.130(8) 0.141(4) 0.436(3)
H24 H 0.721(6) 0.050(3) 0.518(2)
H25 H 0.900(5) -0.015(2) 0.462(2)
H26 H 1.019(3) 0.077(2) 0.645(1)
H27 H 1.198(5) 0.009(2) 0.580(2)
H28 H 1.209(4) -0.049(2) 0.740(2)
H29 H 1.103(4) -0.167(2) 0.736(2)
loop_
_geom_bond_atom_site_label_1
_geom_bond_atom_site_label_2
_geom_bond_site_symmetry_1
_geom_bond_site_symmetry_2
O1 C26 1_555 1_555
N1 C18 1_555 1_555
C1 C2 1_555 1_555
C2 C3 1_555 1_555
C3 C4 1_555 1_555
C4 C12 1_555 1_555
C5 C6 1_555 1_555
C6 C7 1_555 1_555
C7 C8 1_555 1_555
C8 C14 1_555 1_555
C9 C10 1_555 1_555
C10 C11 1_555 1_555
C11 C1 1_555 1_555
C12 C11 1_555 1_555
C13 C5 1_555 1_555
C14 C9 1_555 1_555
C15 C9 1_555 1_555
C16 C15 1_555 1_555
C17 C16 1_555 1_555
C18 C17 1_555 1_555
C19 C18 1_555 1_555
C20 C15 1_555 1_555
C21 N1 1_555 1_555
C22 C21 1_555 1_555
C23 C22 1_555 1_555
C24 C23 1_555 1_555
C25 C24 1_555 1_555
C26 C25 1_555 1_555
C27 O1 1_555 1_555
H1 N1 1_555 1_555
H2 C1 1_555 1_555
H3 C2 1_555 1_555
H4 C3 1_555 1_555
H5 C4 1_555 1_555
H6 C5 1_555 1_555
H7 C6 1_555 1_555
H8 C7 1_555 1_555
H9 C8 1_555 1_555
H10 C10 1_555 1_555
H11 C10 1_555 1_555
H12 C16 1_555 1_555
H13 C17 1_555 1_555
H14 C19 1_555 1_555
H15 C20 1_555 1_555
H16 C21 1_555 1_555
H17 C21 1_555 1_555
H18 C22 1_555 1_555
H19 C22 1_555 1_555
H20 C23 1_555 1_555
H21 C23 1_555 1_555
H22 C24 1_555 1_555
H23 C24 1_555 1_555
H24 C25 1_555 1_555
H25 C25 1_555 1_555
H26 C26 1_555 1_555
H27 C26 1_555 1_555
H28 C27 1_555 1_555
H29 C27 1_555 1_555
C9 C27 1_555 1_555
C12 C13 1_555 1_555
C13 C14 1_555 1_555
C19 C20 1_555 1_555

#END
