
#######################################################################
#
#                 Cambridge Crystallographic Data Centre
#                                CCDC 
#
#######################################################################
#
# If this CIF has been generated from an entry in the Cambridge 
# Structural Database, then it will include bibliographic, chemical, 
# crystal, experimental, refinement or atomic coordinate data resulting 
# from the CCDC's data processing and validation procedures.
#
#######################################################################

data_YUTHUS
_chemical_formula_moiety         'C18 H24 I2 O4'
_chemical_name_systematic        'dimethyl 4,5-dibutyl-3,6-diiodophthalate'
_symmetry_cell_setting           monoclinic
_symmetry_space_group_name_H-M   'P 21/c'
_symmetry_Int_Tables_number      14
_space_group_name_Hall           '-P 2ybc'
loop_
_symmetry_equiv_pos_site_id
_symmetry_equiv_pos_as_xyz
1 x,y,z
2 -x,1/2+y,1/2-z
3 -x,-y,-z
4 x,1/2-y,1/2+z
_cell_length_a                   26.396(2)
_cell_length_b                   8.7560(8)
_cell_length_c                   25.7970(18)
_cell_angle_alpha                90
_cell_angle_beta                 91.721(4)
_cell_angle_gamma                90
_cell_volume                     5959.6
_exptl_crystal_colour            colorless
_exptl_crystal_description       prism
_cell_formula_units_Z            12
loop_
_atom_site_label
_atom_site_type_symbol
_atom_site_fract_x
_atom_site_fract_y
_atom_site_fract_z
I1 I 0.404021(9) 0.42186(3) 1.050296(10)
I2 I 0.190837(11) 0.29078(4) 0.890596(13)
O1 O 0.17438(12) 0.2461(4) 1.01678(15)
O2 O 0.18732(10) 0.4954(3) 1.03150(11)
O3 O 0.26937(11) 0.3377(3) 1.10603(11)
O4 O 0.29201(10) 0.5790(3) 1.08824(10)
C1 C 0.25081(14) 0.3644(4) 0.98879(15)
C2 C 0.29305(14) 0.4014(4) 1.02013(14)
C3 C 0.34097(14) 0.4015(4) 0.99877(14)
C4 C 0.34718(15) 0.3743(4) 0.94590(15)
C5 C 0.30458(16) 0.3362(4) 0.91384(15)
C6 C 0.25677(15) 0.3325(5) 0.93669(16)
C7 C 0.19955(15) 0.3590(5) 1.01360(17)
C8 C 0.28396(14) 0.4343(5) 1.07635(15)
C9 C 0.39943(15) 0.3832(5) 0.92243(15)
H1 H 0.4206 0.4566 0.9427
H2 H 0.3958 0.4226 0.8865
C10 C 0.42656(15) 0.2291(5) 0.92147(16)
H3 H 0.4039 0.1528 0.9046
H4 H 0.4336 0.1951 0.9576
C11 C 0.47663(15) 0.2349(5) 0.89255(15)
H5 H 0.4980 0.3179 0.9074
H6 H 0.4950 0.1374 0.8983
C12 C 0.46942(17) 0.2612(5) 0.83442(16)
H7 H 0.4458 0.1851 0.8199
H8 H 0.5021 0.2516 0.8177
H9 H 0.4557 0.3638 0.8282
C13 C 0.31016(17) 0.3019(5) 0.85695(14)
H10 H 0.2866 0.2229 0.8470
H11 H 0.3438 0.2644 0.8516
C14 C 0.3014(6) 0.4416(9) 0.8222(2)
H12 H 0.3316 0.5087 0.8249
H13 H 0.2721 0.5000 0.8348
C15 C 0.2915(2) 0.3992(9) 0.7652(2)
H14 H 0.2648 0.3199 0.7629
H15 H 0.2790 0.4903 0.7460
C16 C 0.3382(3) 0.3410(11) 0.7409(3)
H16 H 0.3646 0.4193 0.7432
H17 H 0.3306 0.3166 0.7044
H18 H 0.3499 0.2488 0.7591
C17 C 0.13906(16) 0.5041(6) 1.05730(18)
H19 H 0.1114 0.4832 1.0322
H20 H 0.1349 0.6065 1.0718
H21 H 0.1385 0.4284 1.0853
C18 C 0.27964(17) 0.6198(6) 1.14100(16)
H22 H 0.2427 0.6228 1.1440
H23 H 0.2939 0.7205 1.1494
H24 H 0.2940 0.5436 1.1651
I3 I 0.465605(10) 0.80247(3) 0.973164(11)
I4 I 0.271503(10) 0.87862(3) 0.785800(10)
O5 O 0.41136(12) 0.7188(4) 0.75196(12)
O6 O 0.38844(11) 0.9669(3) 0.75019(10)
O7 O 0.49301(11) 0.6578(4) 0.85773(12)
O8 O 0.48817(10) 0.8921(3) 0.82231(11)
C22 C 0.37949(15) 0.8350(5) 0.82833(15)
C23 C 0.41716(14) 0.8083(5) 0.86562(15)
C24 C 0.40547(14) 0.8124(4) 0.91811(15)
C25 C 0.35579(14) 0.8359(4) 0.93401(14)
C26 C 0.31720(14) 0.8614(4) 0.89589(15)
C27 C 0.32983(14) 0.8600(5) 0.84354(15)
C28 C 0.39438(15) 0.8306(5) 0.77230(16)
C29 C 0.47024(15) 0.7744(5) 0.84895(16)
C30 C 0.34334(15) 0.8364(4) 0.99083(14)
H34 H 0.3670 0.7668 1.0096
H35 H 0.3087 0.7956 0.9945
C31 C 0.34634(16) 0.9938(5) 1.01641(15)
H36 H 0.3805 1.0370 1.0116
H37 H 0.3214 1.0624 0.9989
C32 C 0.33595(17) 0.9891(5) 1.07404(15)
H38 H 0.3034 0.9359 1.0791
H39 H 0.3324 1.0949 1.0869
C33 C 0.37778(18) 0.9081(6) 1.10608(17)
H40 H 0.3802 0.8016 1.0948
H41 H 0.3696 0.9115 1.1429
H42 H 0.4102 0.9597 1.1010
C34 C 0.26316(14) 0.8894(4) 0.91219(15)
H43 H 0.2457 0.9553 0.8861
H44 H 0.2638 0.9444 0.9457
C35 C 0.23309(14) 0.7403(5) 0.91776(15)
H45 H 0.2327 0.6849 0.8843
H46 H 0.2504 0.6748 0.9441
C36 C 0.17875(15) 0.7682(5) 0.93364(18)
H47 H 0.1613 0.8306 0.9066
H48 H 0.1610 0.6688 0.9353
C37 C 0.17447(19) 0.8486(6) 0.9857(2)
H49 H 0.1961 0.7969 1.0117
H50 H 0.1392 0.8456 0.9964
H51 H 0.1853 0.9551 0.9824
C38 C 0.40418(18) 0.9787(6) 0.69687(16)
H52 H 0.4412 0.9872 0.6963
H53 H 0.3888 1.0694 0.6807
H54 H 0.3932 0.8874 0.6776
C39 C 0.53811(16) 0.8714(6) 0.80125(18)
H55 H 0.5627 0.8498 0.8295
H56 H 0.5481 0.9646 0.7832
H57 H 0.5373 0.7857 0.7768
I5 I 0.134219(10) 0.65515(3) 0.796270(11)
I6 I -0.065684(10) 0.54537(3) 0.617406(10)
O9 O 0.07181(12) 0.6520(4) 0.57311(12)
O10 O 0.04653(11) 0.4089(3) 0.58469(11)
O11 O 0.16003(12) 0.7393(4) 0.67363(14)
O12 O 0.15023(10) 0.4951(3) 0.64902(11)
C40 C 0.04346(14) 0.5734(4) 0.65600(15)
C41 C 0.08291(14) 0.6065(4) 0.69126(16)
C42 C 0.07246(14) 0.6261(5) 0.74364(15)
C43 C 0.02269(15) 0.6140(4) 0.76186(15)
C44 C -0.01715(14) 0.5815(4) 0.72606(15)
C45 C -0.00646(14) 0.5658(5) 0.67339(15)
C46 C 0.05543(14) 0.5525(5) 0.59975(15)
C47 C 0.13562(15) 0.6242(5) 0.67087(16)
C48 C 0.01191(15) 0.6316(5) 0.81878(15)
H58 H -0.0219 0.6791 0.8222
H59 H 0.0374 0.7010 0.8350
C49 C 0.01304(17) 0.4783(5) 0.84795(15)
H60 H -0.0119 0.4081 0.8313
H61 H 0.0470 0.4318 0.8451
C50 C 0.00105(16) 0.4952(5) 0.90545(16)
H62 H -0.0303 0.5562 0.9084
H63 H -0.0054 0.3928 0.9201
C51 C 0.04355(18) 0.5716(6) 0.93723(17)
H64 H 0.0748 0.5120 0.9344
H65 H 0.0342 0.5769 0.9737
H66 H 0.0490 0.6751 0.9240
C52 C -0.07097(14) 0.5679(5) 0.74397(15)
H67 H -0.0704 0.5264 0.7797
H68 H -0.0896 0.4945 0.7213
C53 C -0.09943(14) 0.7214(5) 0.74323(16)
H69 H -0.0836 0.7900 0.7696
H70 H -0.0959 0.7698 0.7088
C54 C -0.15555(15) 0.7048(5) 0.75412(17)
H71 H -0.1719 0.8064 0.7512
H72 H -0.1715 0.6378 0.7274
C55 C -0.16542(19) 0.6391(6) 0.80723(19)
H73 H -0.1555 0.5312 0.8081
H74 H -0.2016 0.6480 0.8143
H75 H -0.1456 0.6954 0.8336
C56 C 0.05632(17) 0.3776(6) 0.53041(16)
H76 H 0.0430 0.4614 0.5088
H77 H 0.0396 0.2819 0.5200
H78 H 0.0929 0.3683 0.5259
C57 C 0.19961(16) 0.4991(6) 0.62511(19)
H79 H 0.2000 0.5808 0.5992
H80 H 0.2060 0.4008 0.6083
H81 H 0.2260 0.5183 0.6518
H25? H 0.2850 0.2283 0.8463
H26? H 0.3429 0.2574 0.8520
C19? C 0.3034(12) 0.4436(16) 0.8223(5)
H27? H 0.3176 0.5340 0.8405
H28? H 0.2668 0.4619 0.8154
C20? C 0.3300(6) 0.423(2) 0.7705(4)
H29? H 0.3388 0.5235 0.7560
H30? H 0.3617 0.3637 0.7762
C21? C 0.2944(7) 0.337(3) 0.7327(6)
H31? H 0.3024 0.2281 0.7336
H32? H 0.2988 0.3766 0.6975
H33? H 0.2593 0.3527 0.7426
loop_
_geom_bond_atom_site_label_1
_geom_bond_atom_site_label_2
_geom_bond_site_symmetry_1
_geom_bond_site_symmetry_2
I1 C3 1_555 1_555
I2 C6 1_555 1_555
O1 C7 1_555 1_555
O2 C7 1_555 1_555
O3 C8 1_555 1_555
O4 C8 1_555 1_555
C1 C2 1_555 1_555
C2 C3 1_555 1_555
C3 C4 1_555 1_555
C4 C5 1_555 1_555
C5 C6 1_555 1_555
C6 C1 1_555 1_555
C7 C1 1_555 1_555
C8 C2 1_555 1_555
C9 C4 1_555 1_555
H1 C9 1_555 1_555
H2 C9 1_555 1_555
C10 C9 1_555 1_555
H3 C10 1_555 1_555
H4 C10 1_555 1_555
C11 C10 1_555 1_555
H5 C11 1_555 1_555
H6 C11 1_555 1_555
C12 C11 1_555 1_555
H7 C12 1_555 1_555
H8 C12 1_555 1_555
H9 C12 1_555 1_555
C13 C5 1_555 1_555
H10 C13 1_555 1_555
H11 C13 1_555 1_555
C14 C13 1_555 1_555
H12 C14 1_555 1_555
H13 C14 1_555 1_555
C15 C14 1_555 1_555
H14 C15 1_555 1_555
H15 C15 1_555 1_555
C16 C15 1_555 1_555
H16 C16 1_555 1_555
H17 C16 1_555 1_555
H18 C16 1_555 1_555
C17 O2 1_555 1_555
H19 C17 1_555 1_555
H20 C17 1_555 1_555
H21 C17 1_555 1_555
C18 O4 1_555 1_555
H22 C18 1_555 1_555
H23 C18 1_555 1_555
H24 C18 1_555 1_555
I3 C24 1_555 1_555
I4 C27 1_555 1_555
O5 C28 1_555 1_555
O6 C28 1_555 1_555
O7 C29 1_555 1_555
O8 C29 1_555 1_555
C22 C23 1_555 1_555
C23 C24 1_555 1_555
C24 C25 1_555 1_555
C25 C26 1_555 1_555
C26 C27 1_555 1_555
C27 C22 1_555 1_555
C28 C22 1_555 1_555
C29 C23 1_555 1_555
C30 C25 1_555 1_555
H34 C30 1_555 1_555
H35 C30 1_555 1_555
C31 C30 1_555 1_555
H36 C31 1_555 1_555
H37 C31 1_555 1_555
C32 C31 1_555 1_555
H38 C32 1_555 1_555
H39 C32 1_555 1_555
C33 C32 1_555 1_555
H40 C33 1_555 1_555
H41 C33 1_555 1_555
H42 C33 1_555 1_555
C34 C26 1_555 1_555
H43 C34 1_555 1_555
H44 C34 1_555 1_555
C35 C34 1_555 1_555
H45 C35 1_555 1_555
H46 C35 1_555 1_555
C36 C35 1_555 1_555
H47 C36 1_555 1_555
H48 C36 1_555 1_555
C37 C36 1_555 1_555
H49 C37 1_555 1_555
H50 C37 1_555 1_555
H51 C37 1_555 1_555
C38 O6 1_555 1_555
H52 C38 1_555 1_555
H53 C38 1_555 1_555
H54 C38 1_555 1_555
C39 O8 1_555 1_555
H55 C39 1_555 1_555
H56 C39 1_555 1_555
H57 C39 1_555 1_555
I5 C42 1_555 1_555
I6 C45 1_555 1_555
O9 C46 1_555 1_555
O10 C46 1_555 1_555
O11 C47 1_555 1_555
O12 C47 1_555 1_555
C40 C41 1_555 1_555
C41 C42 1_555 1_555
C42 C43 1_555 1_555
C43 C44 1_555 1_555
C44 C45 1_555 1_555
C45 C40 1_555 1_555
C46 C40 1_555 1_555
C47 C41 1_555 1_555
C48 C43 1_555 1_555
H58 C48 1_555 1_555
H59 C48 1_555 1_555
C49 C48 1_555 1_555
H60 C49 1_555 1_555
H61 C49 1_555 1_555
C50 C49 1_555 1_555
H62 C50 1_555 1_555
H63 C50 1_555 1_555
C51 C50 1_555 1_555
H64 C51 1_555 1_555
H65 C51 1_555 1_555
H66 C51 1_555 1_555
C52 C44 1_555 1_555
H67 C52 1_555 1_555
H68 C52 1_555 1_555
C53 C52 1_555 1_555
H69 C53 1_555 1_555
H70 C53 1_555 1_555
C54 C53 1_555 1_555
H71 C54 1_555 1_555
H72 C54 1_555 1_555
C55 C54 1_555 1_555
H73 C55 1_555 1_555
H74 C55 1_555 1_555
H75 C55 1_555 1_555
C56 O10 1_555 1_555
H76 C56 1_555 1_555
H77 C56 1_555 1_555
H78 C56 1_555 1_555
C57 O12 1_555 1_555
H79 C57 1_555 1_555
H80 C57 1_555 1_555
H81 C57 1_555 1_555

#END
