
#######################################################################
#
#                 Cambridge Crystallographic Data Centre
#                                CCDC 
#
#######################################################################
#
# If this CIF has been generated from an entry in the Cambridge 
# Structural Database, then it will include bibliographic, chemical, 
# crystal, experimental, refinement or atomic coordinate data resulting 
# from the CCDC's data processing and validation procedures.
#
#######################################################################

data_YUTQOU
_chemical_formula_moiety         'C26 H28 O4'
_chemical_name_systematic        
'Phenyl(2-phenylcyclopropyl)methyl (-)-camphanoate'
_symmetry_cell_setting           orthorhombic
_symmetry_space_group_name_H-M   'P 21 21 21'
_symmetry_Int_Tables_number      19
_space_group_name_Hall           'P 2ac 2ab'
loop_
_symmetry_equiv_pos_site_id
_symmetry_equiv_pos_as_xyz
1 x,y,z
2 1/2-x,-y,1/2+z
3 1/2+x,1/2-y,-z
4 -x,1/2+y,1/2-z
_cell_length_a                   6.3122(7)
_cell_length_b                   12.153(1)
_cell_length_c                   28.515(3)
_cell_angle_alpha                90
_cell_angle_beta                 90
_cell_angle_gamma                90
_cell_volume                     2187.45
_cell_formula_units_Z            4
_exptl_crystal_recrystallization_method dichloromethane/n-hexane
loop_
_atom_site_label
_atom_site_type_symbol
_atom_site_fract_x
_atom_site_fract_y
_atom_site_fract_z
C1 C 0.5103(4) 0.1681(2) 0.24102(8)
C2 C 0.7287(4) 0.1528(2) 0.22142(8)
C3 C 0.8598(4) 0.2405(2) 0.24849(8)
H1 H 1.0099 0.2323 0.2421
H2 H 0.8365 0.2345 0.2820
C4 C 0.7762(4) 0.3525(2) 0.22960(7)
H3 H 0.7190 0.3977 0.2546
H4 H 0.8860 0.3930 0.2132
C5 C 0.6027(3) 0.3138(2) 0.19606(7)
C6 C 0.6975(3) 0.2092(2) 0.17280(7)
C7 C 0.8101(5) 0.0363(2) 0.22358(9)
H5 H 0.8029 0.0102 0.2553
H6 H 0.9545 0.0344 0.2130
H7 H 0.7249 -0.0098 0.2038
C8 C 0.5391(4) 0.1499(2) 0.14128(8)
H8 H 0.5121 0.1938 0.1139
H9 H 0.4091 0.1387 0.1581
H10 H 0.5963 0.0801 0.1320
C9 C 0.9042(4) 0.2269(2) 0.14643(8)
H11 H 0.9627 0.1569 0.1377
H12 H 1.0027 0.2652 0.1662
H13 H 0.8776 0.2697 0.1188
C10 C 0.5015(3) 0.3981(2) 0.16481(7)
C11 C 0.5819(3) 0.5305(2) 0.10550(7)
H14 H 0.4740 0.5766 0.1205
C12 C 0.4922(3) 0.4787(2) 0.06182(7)
C13 C 0.6068(4) 0.3993(2) 0.03735(8)
H15 H 0.7373 0.3756 0.0486
C14 C 0.5258(5) 0.3553(2) -0.00393(9)
H16 H 0.6017 0.3016 -0.0200
C15 C 0.3354(5) 0.3905(2) -0.02112(8)
H17 H 0.2831 0.3615 -0.0490
C16 C 0.2211(5) 0.4690(2) 0.00285(9)
H18 H 0.0907 0.4923 -0.0086
C17 C 0.3004(4) 0.5132(2) 0.04396(9)
H19 H 0.2233 0.5668 0.0598
C18 C 0.7750(4) 0.5981(2) 0.09509(7)
H20 H 0.8799 0.5626 0.0748
C19 C 0.8641(4) 0.6734(2) 0.13131(8)
H21 H 1.0170 0.6797 0.1333
H22 H 0.7911 0.6778 0.1612
C20 C 0.7572(4) 0.7227(2) 0.08956(8)
H23 H 0.8562 0.7532 0.0665
C21 C 0.5519(4) 0.7833(2) 0.09202(7)
C22 C 0.4663(4) 0.8217(2) 0.13393(8)
H24 H 0.5339 0.8057 0.1621
C23 C 0.2815(5) 0.8835(2) 0.13421(9)
H25 H 0.2263 0.9083 0.1625
C24 C 0.1793(5) 0.9084(2) 0.09296(9)
H26 H 0.0565 0.9507 0.0933
C25 C 0.2600(5) 0.8702(2) 0.05113(9)
H27 H 0.1909 0.8860 0.0231
C26 C 0.4428(5) 0.8087(2) 0.05088(8)
H28 H 0.4952 0.7832 0.0224
O1 O 0.4354(2) 0.2677(1) 0.22569(5)
O2 O 0.4058(3) 0.1109(1) 0.26717(6)
O3 O 0.6530(2) 0.4453(1) 0.13832(4)
O4 O 0.3159(2) 0.4198(1) 0.16255(5)
loop_
_geom_bond_atom_site_label_1
_geom_bond_atom_site_label_2
_geom_bond_site_symmetry_1
_geom_bond_site_symmetry_2
C1 C2 1_555 1_555
C2 C3 1_555 1_555
C3 H1 1_555 1_555
H2 C3 1_555 1_555
C4 C3 1_555 1_555
H3 C4 1_555 1_555
H4 C4 1_555 1_555
C5 C4 1_555 1_555
C6 C2 1_555 1_555
C7 C2 1_555 1_555
H5 C7 1_555 1_555
H6 C7 1_555 1_555
H7 C7 1_555 1_555
C8 C6 1_555 1_555
H8 C8 1_555 1_555
H9 C8 1_555 1_555
H10 C8 1_555 1_555
C9 C6 1_555 1_555
H11 C9 1_555 1_555
H12 C9 1_555 1_555
H13 C9 1_555 1_555
C10 C5 1_555 1_555
C11 H14 1_555 1_555
C12 C11 1_555 1_555
C13 C12 1_555 1_555
H15 C13 1_555 1_555
C14 C13 1_555 1_555
H16 C14 1_555 1_555
C15 C14 1_555 1_555
H17 C15 1_555 1_555
C16 C15 1_555 1_555
H18 C16 1_555 1_555
C17 C12 1_555 1_555
H19 C17 1_555 1_555
C18 C11 1_555 1_555
H20 C18 1_555 1_555
C19 C18 1_555 1_555
H21 C19 1_555 1_555
H22 C19 1_555 1_555
C20 C18 1_555 1_555
H23 C20 1_555 1_555
C21 C20 1_555 1_555
C22 C21 1_555 1_555
H24 C22 1_555 1_555
C23 C22 1_555 1_555
H25 C23 1_555 1_555
C24 C23 1_555 1_555
H26 C24 1_555 1_555
C25 C24 1_555 1_555
H27 C25 1_555 1_555
C26 C21 1_555 1_555
H28 C26 1_555 1_555
O1 C1 1_555 1_555
O2 C1 1_555 1_555
O3 C10 1_555 1_555
O4 C10 1_555 1_555
C5 C6 1_555 1_555
C5 O1 1_555 1_555
C11 O3 1_555 1_555
C16 C17 1_555 1_555
C19 C20 1_555 1_555
C25 C26 1_555 1_555

#END
