
#######################################################################
#
#                 Cambridge Crystallographic Data Centre
#                                CCDC 
#
#######################################################################
#
# If this CIF has been generated from an entry in the Cambridge 
# Structural Database, then it will include bibliographic, chemical, 
# crystal, experimental, refinement or atomic coordinate data resulting 
# from the CCDC's data processing and validation procedures.
#
#######################################################################

data_YUVHON
_chemical_formula_moiety         'C11 H14 O3'
_chemical_name_systematic        
2-Hydroxy-6-methyl-11-oxatricyclo[6.2.1.0^1,6^]undec-9-en-5-one
_symmetry_cell_setting           orthorhombic
_symmetry_space_group_name_H-M   'P 21 21 21'
_symmetry_Int_Tables_number      19
_space_group_name_Hall           'P 2ac 2ab'
loop_
_symmetry_equiv_pos_site_id
_symmetry_equiv_pos_as_xyz
1 x,y,z
2 1/2-x,-y,1/2+z
3 1/2+x,1/2-y,-z
4 -x,1/2+y,1/2-z
_cell_length_a                   7.1261(3)
_cell_length_b                   10.5633(5)
_cell_length_c                   12.4640(9)
_cell_angle_alpha                90
_cell_angle_beta                 90
_cell_angle_gamma                90
_cell_volume                     938.229
_cell_formula_units_Z            4
loop_
_atom_site_label
_atom_site_type_symbol
_atom_site_fract_x
_atom_site_fract_y
_atom_site_fract_z
O1 O 0.5384(3) 0.30459(15) 0.36903(13)
O2 O 0.4305(3) 0.39461(17) 0.15756(14)
O3 O 0.4288(3) 0.53818(17) 0.56667(12)
C1 C 0.4615(4) 0.4793(2) 0.24477(18)
C2 C 0.2832(4) 0.5134(2) 0.3036(2)
C3 C 0.3275(4) 0.6059(3) 0.3947(2)
C4 C 0.4646(4) 0.5466(2) 0.47126(18)
C5 C 0.6502(4) 0.4989(2) 0.42434(18)
C6 C 0.7387(4) 0.3947(2) 0.4955(2)
C7 C 0.7130(4) 0.2763(2) 0.4242(2)
C8 C 0.8539(4) 0.2880(2) 0.3343(2)
C9 C 0.7888(4) 0.3780(2) 0.2709(2)
C10 C 0.6048(4) 0.4202(2) 0.31892(18)
C11 C 0.7790(4) 0.6131(3) 0.4054(2)
H1 H 0.518(4) 0.555(2) 0.2201(18)
H2 H 0.333(6) 0.413(3) 0.129(3)
H3 H 0.196(4) 0.552(2) 0.253(2)
H4 H 0.221(4) 0.441(3) 0.332(2)
H5 H 0.386(4) 0.682(3) 0.366(2)
H6 H 0.217(5) 0.626(3) 0.435(2)
H7 H 0.877(5) 0.408(3) 0.508(2)
H8 H 0.666(4) 0.388(2) 0.5605(19)
H9 H 0.708(4) 0.196(2) 0.460(2)
H10 H 0.973(4) 0.247(2) 0.3299(19)
H11 H 0.848(4) 0.412(3) 0.213(2)
H12 H 0.715(5) 0.681(3) 0.361(2)
H13 H 0.895(4) 0.582(2) 0.3711(19)
H14 H 0.808(4) 0.653(3) 0.471(2)
loop_
_geom_bond_atom_site_label_1
_geom_bond_atom_site_label_2
_geom_bond_site_symmetry_1
_geom_bond_site_symmetry_2
O1 C7 1_555 1_555
O2 C1 1_555 1_555
O3 C4 1_555 1_555
C1 C2 1_555 1_555
C2 C3 1_555 1_555
C3 C4 1_555 1_555
C4 C5 1_555 1_555
C5 C6 1_555 1_555
C6 C7 1_555 1_555
C7 C8 1_555 1_555
C8 C9 1_555 1_555
C9 C10 1_555 1_555
C10 O1 1_555 1_555
C11 C5 1_555 1_555
H1 C1 1_555 1_555
H2 O2 1_555 1_555
H3 C2 1_555 1_555
H4 C2 1_555 1_555
H5 C3 1_555 1_555
H6 C3 1_555 1_555
H7 C6 1_555 1_555
H8 C6 1_555 1_555
H9 C7 1_555 1_555
H10 C8 1_555 1_555
H11 C9 1_555 1_555
H12 C11 1_555 1_555
H13 C11 1_555 1_555
H14 C11 1_555 1_555
C1 C10 1_555 1_555
C5 C10 1_555 1_555

#END
