
#######################################################################
#
#                 Cambridge Crystallographic Data Centre
#                                CCDC 
#
#######################################################################
#
# If this CIF has been generated from an entry in the Cambridge 
# Structural Database, then it will include bibliographic, chemical, 
# crystal, experimental, refinement or atomic coordinate data resulting 
# from the CCDC's data processing and validation procedures.
#
#######################################################################

data_YUWRAL
_chemical_formula_moiety         'C19 H24 Br1 N3 O2,C3 H6 O1,H2 O1'
_chemical_name_systematic        
'methyl 2-amino-11-bromo-6,9a-dimethyl-4,5,5a,6,7,8,9,9a-octahydro-3H-phenanthro[1,2-d]imidazole-6-carboxylate acetone solvate monohydrate'
_symmetry_cell_setting           monoclinic
_symmetry_space_group_name_H-M   'C 2'
_symmetry_Int_Tables_number      5
_space_group_name_Hall           'C 2y'
loop_
_symmetry_equiv_pos_site_id
_symmetry_equiv_pos_as_xyz
1 x,y,z
2 -x,y,-z
3 1/2+x,1/2+y,z
4 1/2-x,1/2+y,-z
_cell_length_a                   24.830(5)
_cell_length_b                   7.1410(14)
_cell_length_c                   13.981(3)
_cell_angle_alpha                90
_cell_angle_beta                 107.68(3)
_cell_angle_gamma                90
_cell_volume                     2361.9
_exptl_crystal_colour            colorless
_exptl_crystal_description       block
_cell_formula_units_Z            4
loop_
_atom_site_label
_atom_site_type_symbol
_atom_site_fract_x
_atom_site_fract_y
_atom_site_fract_z
Br1 Br 0.42411(3) 0.91642(16) 0.67019(5)
N1 N 0.42975(19) 0.9441(12) 0.9077(4)
O1 O 0.0844(2) 0.7435(13) 0.7485(5)
C1 C 0.0995(3) 0.9863(12) 0.6407(6)
N2 N 0.3584(2) 0.9942(7) 0.9735(4)
H1 H 0.3414 1.0081 1.0183
O2 O 0.0282(2) 0.9887(10) 0.7204(5)
C2 C 0.0928(3) 0.8516(14) 0.5502(6)
H2 H 0.1022 0.7251 0.5750
H3 H 0.0537 0.8522 0.5081
N3 N 0.4508(2) 0.9495(14) 1.0849(4)
H4 H 0.4860 0.9270 1.0946
H5 H 0.4381 0.9634 1.1354
C3 C 0.1307(3) 0.909(2) 0.4879(5)
H6 H 0.1206 1.0336 0.4612
H7 H 0.1251 0.8233 0.4318
C4 C 0.1932(2) 0.9060(18) 0.5521(5)
H8 H 0.2034 0.7800 0.5769
H9 H 0.2166 0.9400 0.5104
C5 C 0.2049(3) 1.0397(12) 0.6402(5)
C6 C 0.2660(2) 1.0116(10) 0.7107(5)
C7 C 0.3098(3) 0.9833(11) 0.6691(5)
H10 H 0.3011 0.9782 0.5996
C8 C 0.3658(2) 0.9625(10) 0.7270(5)
C9 C 0.3783(2) 0.9687(9) 0.8313(5)
C10 C 0.4148(3) 0.9630(12) 0.9897(5)
C11 C 0.3342(3) 0.9990(9) 0.8704(5)
C12 C 0.2773(2) 1.0242(9) 0.8143(5)
C13 C 0.2349(2) 1.0564(11) 0.8670(5)
H11 H 0.2479 1.1570 0.9151
H12 H 0.2317 0.9443 0.9040
C14 C 0.1766(3) 1.1067(12) 0.7967(5)
H13 H 0.1480 1.0810 0.8292
H14 H 0.1751 1.2391 0.7805
C15 C 0.1652(2) 0.9922(11) 0.7020(5)
H15 H 0.1748 0.8633 0.7251
C16 C 0.0743(3) 1.1796(12) 0.6070(6)
H16 H 0.0350 1.1667 0.5699
H17 H 0.0940 1.2366 0.5652
H18 H 0.0780 1.2568 0.6649
C17 C 0.2011(3) 1.2423(13) 0.6018(6)
H19 H 0.1662 1.2594 0.5491
H20 H 0.2323 1.2672 0.5765
H21 H 0.2025 1.3268 0.6559
C18 C 0.0709(3) 0.896(2) 0.7083(6)
C19 C -0.0016(4) 0.912(2) 0.7858(7)
H22 H -0.0322 0.9943 0.7865
H23 H 0.0239 0.9007 0.8526
H24 H -0.0165 0.7911 0.7617
O3 O 0.2909(5) 0.5275(16) 0.8848(15)
C20 C 0.3355(5) 0.4909(14) 0.7653(8)
H25 H 0.2991 0.5175 0.7185
H26 H 0.3473 0.3677 0.7529
H27 H 0.3624 0.5813 0.7574
C21 C 0.3318(5) 0.5008(14) 0.8710(13)
C22 C 0.3856(7) 0.473(2) 0.9439(9)
H28 H 0.3817 0.4817 1.0100
H29 H 0.4114 0.5676 0.9358
H30 H 0.3998 0.3517 0.9348
O4 O 0.1807(3) 0.5695(10) 0.8678(5)
H31 H 0.2146 0.5376 0.8735
H32 H 0.1618 0.5590 0.8062
loop_
_geom_bond_atom_site_label_1
_geom_bond_atom_site_label_2
_geom_bond_site_symmetry_1
_geom_bond_site_symmetry_2
Br1 C8 1_555 1_555
N1 C9 1_555 1_555
O1 C18 1_555 1_555
C1 C2 1_555 1_555
N2 H1 1_555 1_555
O2 C18 1_555 1_555
C2 H2 1_555 1_555
H3 C2 1_555 1_555
N3 H4 1_555 1_555
H5 N3 1_555 1_555
C3 C2 1_555 1_555
H6 C3 1_555 1_555
H7 C3 1_555 1_555
C4 C3 1_555 1_555
H8 C4 1_555 1_555
H9 C4 1_555 1_555
C5 C4 1_555 1_555
C6 C5 1_555 1_555
C7 C6 1_555 1_555
H10 C7 1_555 1_555
C8 C7 1_555 1_555
C9 C8 1_555 1_555
C10 N1 1_555 1_555
C11 N2 1_555 1_555
C12 C6 1_555 1_555
C13 C12 1_555 1_555
H11 C13 1_555 1_555
H12 C13 1_555 1_555
C14 C13 1_555 1_555
H13 C14 1_555 1_555
H14 C14 1_555 1_555
C15 C1 1_555 1_555
H15 C15 1_555 1_555
C16 C1 1_555 1_555
H16 C16 1_555 1_555
H17 C16 1_555 1_555
H18 C16 1_555 1_555
C17 C5 1_555 1_555
H19 C17 1_555 1_555
H20 C17 1_555 1_555
H21 C17 1_555 1_555
C18 C1 1_555 1_555
C19 O2 1_555 1_555
H22 C19 1_555 1_555
H23 C19 1_555 1_555
H24 C19 1_555 1_555
O3 C21 1_555 1_555
C20 H25 1_555 1_555
H26 C20 1_555 1_555
H27 C20 1_555 1_555
C21 C20 1_555 1_555
C22 C21 1_555 1_555
H28 C22 1_555 1_555
H29 C22 1_555 1_555
H30 C22 1_555 1_555
O4 H31 1_555 1_555
H32 O4 1_555 1_555
N2 C10 1_555 1_555
N3 C10 1_555 1_555
C5 C15 1_555 1_555
C9 C11 1_555 1_555
C11 C12 1_555 1_555
C14 C15 1_555 1_555

#END
