
#######################################################################
#
#                 Cambridge Crystallographic Data Centre
#                                CCDC 
#
#######################################################################
#
# If this CIF has been generated from an entry in the Cambridge 
# Structural Database, then it will include bibliographic, chemical, 
# crystal, experimental, refinement or atomic coordinate data resulting 
# from the CCDC's data processing and validation procedures.
#
#######################################################################

data_YUWVES
_chemical_formula_moiety         'C76 H80 N4 O6,2(C1 H4 O1)'
_chemical_name_systematic        
'25,27-dipropoxy-26,28-((5,10,10,15,20,20-hexamethylporphyrin-5,15-diyl)bis(2-(1,4-phenyleneoxy)ethoxy))calix(4)arene methanol solvate'
_symmetry_cell_setting           monoclinic
_symmetry_space_group_name_H-M   'P 21/n'
_symmetry_Int_Tables_number      14
_space_group_name_Hall           '-P 2yn'
loop_
_symmetry_equiv_pos_site_id
_symmetry_equiv_pos_as_xyz
1 x,y,z
2 1/2-x,1/2+y,1/2-z
3 -x,-y,-z
4 1/2+x,1/2-y,1/2+z
_cell_length_a                   10.5877(5)
_cell_length_b                   17.6496(8)
_cell_length_c                   35.4397(13)
_cell_angle_alpha                90
_cell_angle_beta                 95.510(2)
_cell_angle_gamma                90
_cell_volume                     6591.97
_exptl_crystal_colour            colorless
_exptl_crystal_description       plates
_cell_formula_units_Z            4
loop_
_atom_site_label
_atom_site_type_symbol
_atom_site_fract_x
_atom_site_fract_y
_atom_site_fract_z
O1 O 0.1107(3) 0.45991(15) 0.53589(8)
O2 O 0.2887(2) 0.36211(14) 0.50233(7)
O3 O 0.6614(2) 0.20569(13) 0.61579(7)
O4 O 0.9082(3) 0.24952(14) 0.65449(7)
O5 O 0.2767(3) 0.09585(14) 0.54628(8)
O6 O 0.7096(2) 0.25865(14) 0.48150(7)
N1 N 0.5047(3) 0.62572(19) 0.67668(9)
H9 H 0.5316 0.5787 0.6793
N2 N 0.7933(3) 0.57442(19) 0.71455(9)
H10 H 0.7469 0.5390 0.7025
N3 N 0.6596(3) 0.47332(18) 0.77843(9)
H11 H 0.6302 0.4763 0.7544
N4 N 0.3681(3) 0.53749(18) 0.74303(9)
H12 H 0.3893 0.5821 0.7528
C3 C 0.3802(4) 0.6477(3) 0.67755(11)
C4 C 0.3785(5) 0.7246(3) 0.67280(12)
H13 H 0.3057 0.7563 0.6721
C5 C 0.5046(5) 0.7488(3) 0.66909(11)
H14 H 0.5307 0.7997 0.6657
C6 C 0.5822(4) 0.6870(2) 0.67114(11)
C7 C 0.7229(4) 0.6774(2) 0.66719(11)
C8 C 0.7945(4) 0.6496(2) 0.70354(11)
C9 C 0.8756(4) 0.6858(2) 0.73006(12)
H15 H 0.8952 0.7383 0.7304
C10 C 0.9251(4) 0.6316(2) 0.75687(11)
H16 H 0.9839 0.6417 0.7782
C11 C 0.8744(4) 0.5621(2) 0.74699(11)
C12 C 0.8900(4) 0.4848(2) 0.76510(11)
C13 C 0.7882(4) 0.4741(2) 0.79154(13)
C14 C 0.7918(5) 0.4684(2) 0.83001(12)
H17 H 0.8665 0.4671 0.8471
C15 C 0.6661(5) 0.4648(2) 0.84024(12)
H18 H 0.6421 0.4613 0.8653
C16 C 0.5851(4) 0.4673(2) 0.80787(12)
C17 C 0.4406(4) 0.4637(2) 0.80279(11)
C18 C 0.3869(4) 0.4691(2) 0.76220(12)
C19 C 0.3399(4) 0.4144(2) 0.73727(12)
H19 H 0.3382 0.3616 0.7422
C20 C 0.2942(4) 0.4500(2) 0.70289(12)
H20 H 0.2572 0.4249 0.6808
C21 C 0.3121(4) 0.5264(2) 0.70665(11)
C22 C 0.2725(4) 0.5912(2) 0.68014(11)
C23 C 0.2302(4) 0.5575(2) 0.64097(12)
C24 C 0.1024(4) 0.5463(2) 0.62855(12)
H21 H 0.0394 0.5607 0.6445
C25 C 0.0654(4) 0.5148(2) 0.59353(13)
H22 H -0.0223 0.5086 0.5856
C26 C 0.1538(5) 0.4923(2) 0.57016(12)
C27 C 0.2800(4) 0.5005(2) 0.58202(12)
H23 H 0.3426 0.4840 0.5664
C28 C 0.3158(4) 0.5330(2) 0.61708(13)
H24 H 0.4037 0.5385 0.6249
C29 C 0.1753(4) 0.4784(2) 0.50310(12)
H25 H 0.2579 0.5024 0.5113
H26 H 0.1239 0.5150 0.4870
C30 C 0.1963(4) 0.4084(2) 0.48082(11)
H27 H 0.1156 0.3802 0.4758
H28 H 0.2271 0.4221 0.4562
C31 C 0.4588(4) 0.0959(2) 0.61180(11)
H29 H 0.4968 0.1014 0.6383
H30 H 0.4128 0.0470 0.6097
C32 C 0.2211(4) 0.2870(2) 0.57975(12)
H31 H 0.1732 0.3308 0.5721
C33 C 0.2942(5) 0.2873(3) 0.61404(13)
H32 H 0.2934 0.3301 0.6303
C34 C 0.3691(5) 0.2251(3) 0.62480(13)
H33 H 0.4231 0.2265 0.6478
C35 C 0.3657(4) 0.1605(2) 0.60220(12)
C36 C 0.2843(4) 0.1609(2) 0.56902(12)
C37 C 0.2157(4) 0.2248(2) 0.55638(12)
C38 C 0.1485(4) 0.2287(2) 0.51674(12)
H34 H 0.0934 0.1837 0.5121
H35 H 0.0941 0.2744 0.5143
C39 C 0.4396(4) 0.2318(3) 0.43981(12)
H36 H 0.5068 0.2312 0.4239
C40 C 0.3634(5) 0.1685(3) 0.44187(13)
H37 H 0.3761 0.1254 0.4266
C41 C 0.2683(5) 0.1682(3) 0.46621(14)
H38 H 0.2191 0.1237 0.4683
C42 C 0.2433(4) 0.2315(3) 0.48753(12)
C43 C 0.3165(4) 0.2959(2) 0.48275(11)
C44 C 0.4185(4) 0.2963(2) 0.46089(12)
C45 C 0.5091(4) 0.3630(2) 0.46265(11)
H39 H 0.4606 0.4108 0.4593
H40 H 0.5653 0.3590 0.4420
C46 C 0.7174(4) 0.3542(2) 0.57302(12)
H41 H 0.7608 0.3511 0.5977
C47 C 0.6309(4) 0.4126(2) 0.56467(12)
H42 H 0.6162 0.4498 0.5832
C48 C 0.5669(4) 0.4152(2) 0.52877(13)
H43 H 0.5057 0.4540 0.5232
C49 C 0.5884(4) 0.3637(2) 0.50068(11)
C50 C 0.6820(4) 0.3084(2) 0.50981(12)
C51 C 0.7415(4) 0.3004(2) 0.54614(13)
C52 C 0.8208(4) 0.2305(2) 0.55690(11)
H44 H 0.8695 0.2387 0.5818
H45 H 0.8821 0.2221 0.5379
C53 C 0.5621(4) 0.0955(2) 0.58556(11)
C54 C 0.5633(5) 0.0421(2) 0.55690(14)
H46 H 0.5039 0.0017 0.5560
C55 C 0.6480(5) 0.0456(2) 0.52967(13)
H47 H 0.6493 0.0072 0.5109
C56 C 0.7317(4) 0.1069(3) 0.53025(12)
H48 H 0.7865 0.1117 0.5107
C57 C 0.7365(4) 0.1609(2) 0.55884(13)
C58 C 0.6562(4) 0.1529(2) 0.58702(12)
C59 C 0.7097(4) 0.1784(2) 0.65272(11)
H49 H 0.6769 0.1266 0.6563
H50 H 0.6779 0.2113 0.6723
C60 C 0.8517(4) 0.1767(2) 0.65816(12)
H51 H 0.8788 0.1562 0.6837
H52 H 0.8832 0.1419 0.6392
C61 C 0.8989(4) 0.3030(2) 0.68255(12)
C62 C 0.9486(4) 0.3734(3) 0.67541(12)
H53 H 0.9856 0.3821 0.6524
C63 C 0.9446(4) 0.4310(2) 0.70154(13)
H54 H 0.9806 0.4788 0.6964
C64 C 0.8891(4) 0.4210(2) 0.73533(12)
C65 C 0.8419(4) 0.3498(2) 0.74183(12)
H55 H 0.8041 0.3412 0.7647
C66 C 0.8473(4) 0.2901(2) 0.71638(13)
H56 H 0.8161 0.2414 0.7221
C67 C 0.7773(4) 0.7538(2) 0.65660(12)
H57 H 0.7674 0.7905 0.6769
H58 H 0.7320 0.7719 0.6329
H59 H 0.8676 0.7480 0.6532
C68 C 0.7393(4) 0.6207(2) 0.63463(11)
H60 H 0.8297 0.6147 0.6315
H61 H 0.6950 0.6399 0.6110
H62 H 0.7034 0.5715 0.6408
C69 C 0.1634(4) 0.6344(2) 0.69644(11)
H63 H 0.1934 0.6553 0.7213
H64 H 0.0927 0.5995 0.6991
H65 H 0.1347 0.6757 0.6792
C70 C 0.3870(4) 0.5278(2) 0.82606(11)
H66 H 0.4107 0.5769 0.8160
H67 H 0.4218 0.5235 0.8526
H68 H 0.2943 0.5237 0.8244
C71 C 0.4010(4) 0.3863(2) 0.81865(12)
H69 H 0.4340 0.3453 0.8038
H70 H 0.3082 0.3832 0.8170
H71 H 0.4357 0.3816 0.8452
C72 C 1.0218(4) 0.4809(2) 0.78822(11)
H72 H 1.0279 0.5207 0.8076
H73 H 1.0884 0.4882 0.7712
H74 H 1.0324 0.4312 0.8005
C73 C 0.1952(7) 0.0318(4) 0.55978(19)
H75 H 0.2188 -0.0162 0.5479
H76 H 0.2131 0.0261 0.5876
C74 C 0.0761(9) 0.0434(4) 0.5518(2)
H77 H 0.0576 0.0547 0.5245
H78 H 0.0481 0.0870 0.5665
C75 C 0.0016(5) -0.0337(3) 0.56281(14)
H79 H -0.0902 -0.0259 0.5579
H80 H 0.0230 -0.0452 0.5897
H81 H 0.0274 -0.0760 0.5474
C76 C 0.8095(4) 0.2851(2) 0.46076(12)
H82 H 0.8878 0.2912 0.4781
H83 H 0.7866 0.3353 0.4496
C77 C 0.8333(5) 0.2313(3) 0.43017(14)
H84 H 0.7568 0.2290 0.4118
H85 H 0.8470 0.1802 0.4413
C78 C 0.9460(5) 0.2519(3) 0.40923(13)
H86 H 0.9567 0.2138 0.3897
H87 H 1.0226 0.2536 0.4271
H88 H 0.9320 0.3017 0.3973
O7 O 0.5765(3) 0.46258(14) 0.68933(8)
H1 H 0.5422 0.4504 0.7089
C1 C 0.5965(5) 0.3962(3) 0.66752(13)
H2 H 0.6792 0.3998 0.6587
H3 H 0.5341 0.3927 0.6461
H4 H 0.5922 0.3511 0.6825
O8 O 0.4042(4) 0.68968(19) 0.76914(9)
H5 H 0.4091 0.7125 0.7485
C2 C 0.3159(6) 0.7292(3) 0.79108(19)
H6 H 0.2323 0.7265 0.7780
H7 H 0.3384 0.7814 0.7952
H8 H 0.3152 0.7046 0.8152
loop_
_geom_bond_atom_site_label_1
_geom_bond_atom_site_label_2
_geom_bond_site_symmetry_1
_geom_bond_site_symmetry_2
O1 C26 1_555 1_555
O2 C30 1_555 1_555
O3 C58 1_555 1_555
O4 C60 1_555 1_555
O5 C36 1_555 1_555
O6 C50 1_555 1_555
O7 H1 1_555 1_555
C1 O7 1_555 1_555
H2 C1 1_555 1_555
H3 C1 1_555 1_555
H4 C1 1_555 1_555
O8 H5 1_555 1_555
C2 O8 1_555 1_555
H6 C2 1_555 1_555
H7 C2 1_555 1_555
H8 C2 1_555 1_555
N1 H9 1_555 1_555
N2 H10 1_555 1_555
N3 H11 1_555 1_555
N4 H12 1_555 1_555
C3 N1 1_555 1_555
C4 C3 1_555 1_555
H13 C4 1_555 1_555
C5 C4 1_555 1_555
H14 C5 1_555 1_555
C6 N1 1_555 1_555
C7 C6 1_555 1_555
C8 N2 1_555 1_555
C9 C8 1_555 1_555
H15 C9 1_555 1_555
C10 C9 1_555 1_555
H16 C10 1_555 1_555
C11 N2 1_555 1_555
C12 C11 1_555 1_555
C13 N3 1_555 1_555
C14 C13 1_555 1_555
H17 C14 1_555 1_555
C15 C14 1_555 1_555
H18 C15 1_555 1_555
C16 N3 1_555 1_555
C17 C16 1_555 1_555
C18 N4 1_555 1_555
C19 C18 1_555 1_555
H19 C19 1_555 1_555
C20 C19 1_555 1_555
H20 C20 1_555 1_555
C21 N4 1_555 1_555
C22 C3 1_555 1_555
C23 C22 1_555 1_555
C24 C23 1_555 1_555
H21 C24 1_555 1_555
C25 C24 1_555 1_555
H22 C25 1_555 1_555
C26 C25 1_555 1_555
C27 C26 1_555 1_555
H23 C27 1_555 1_555
C28 C23 1_555 1_555
H24 C28 1_555 1_555
C29 O1 1_555 1_555
H25 C29 1_555 1_555
H26 C29 1_555 1_555
C30 C29 1_555 1_555
H27 C30 1_555 1_555
H28 C30 1_555 1_555
C31 H29 1_555 1_555
H30 C31 1_555 1_555
C32 H31 1_555 1_555
C33 C32 1_555 1_555
H32 C33 1_555 1_555
C34 C33 1_555 1_555
H33 C34 1_555 1_555
C35 C31 1_555 1_555
C36 C35 1_555 1_555
C37 C32 1_555 1_555
C38 C37 1_555 1_555
H34 C38 1_555 1_555
H35 C38 1_555 1_555
C39 H36 1_555 1_555
C40 C39 1_555 1_555
H37 C40 1_555 1_555
C41 C40 1_555 1_555
H38 C41 1_555 1_555
C42 C38 1_555 1_555
C43 O2 1_555 1_555
C44 C39 1_555 1_555
C45 C44 1_555 1_555
H39 C45 1_555 1_555
H40 C45 1_555 1_555
C46 H41 1_555 1_555
C47 C46 1_555 1_555
H42 C47 1_555 1_555
C48 C47 1_555 1_555
H43 C48 1_555 1_555
C49 C45 1_555 1_555
C50 C49 1_555 1_555
C51 C46 1_555 1_555
C52 C51 1_555 1_555
H44 C52 1_555 1_555
H45 C52 1_555 1_555
C53 C31 1_555 1_555
C54 C53 1_555 1_555
H46 C54 1_555 1_555
C55 C54 1_555 1_555
H47 C55 1_555 1_555
C56 C55 1_555 1_555
H48 C56 1_555 1_555
C57 C52 1_555 1_555
C58 C53 1_555 1_555
C59 O3 1_555 1_555
H49 C59 1_555 1_555
H50 C59 1_555 1_555
C60 C59 1_555 1_555
H51 C60 1_555 1_555
H52 C60 1_555 1_555
C61 O4 1_555 1_555
C62 C61 1_555 1_555
H53 C62 1_555 1_555
C63 C62 1_555 1_555
H54 C63 1_555 1_555
C64 C12 1_555 1_555
C65 C64 1_555 1_555
H55 C65 1_555 1_555
C66 C61 1_555 1_555
H56 C66 1_555 1_555
C67 C7 1_555 1_555
H57 C67 1_555 1_555
H58 C67 1_555 1_555
H59 C67 1_555 1_555
C68 C7 1_555 1_555
H60 C68 1_555 1_555
H61 C68 1_555 1_555
H62 C68 1_555 1_555
C69 C22 1_555 1_555
H63 C69 1_555 1_555
H64 C69 1_555 1_555
H65 C69 1_555 1_555
C70 C17 1_555 1_555
H66 C70 1_555 1_555
H67 C70 1_555 1_555
H68 C70 1_555 1_555
C71 C17 1_555 1_555
H69 C71 1_555 1_555
H70 C71 1_555 1_555
H71 C71 1_555 1_555
C72 C12 1_555 1_555
H72 C72 1_555 1_555
H73 C72 1_555 1_555
H74 C72 1_555 1_555
C73 O5 1_555 1_555
H75 C73 1_555 1_555
H76 C73 1_555 1_555
C74 C73 1_555 1_555
H77 C74 1_555 1_555
H78 C74 1_555 1_555
C75 C74 1_555 1_555
H79 C75 1_555 1_555
H80 C75 1_555 1_555
H81 C75 1_555 1_555
C76 O6 1_555 1_555
H82 C76 1_555 1_555
H83 C76 1_555 1_555
C77 C76 1_555 1_555
H84 C77 1_555 1_555
H85 C77 1_555 1_555
C78 C77 1_555 1_555
H86 C78 1_555 1_555
H87 C78 1_555 1_555
H88 C78 1_555 1_555
C5 C6 1_555 1_555
C7 C8 1_555 1_555
C10 C11 1_555 1_555
C12 C13 1_555 1_555
C15 C16 1_555 1_555
C17 C18 1_555 1_555
C20 C21 1_555 1_555
C21 C22 1_555 1_555
C27 C28 1_555 1_555
C34 C35 1_555 1_555
C36 C37 1_555 1_555
C41 C42 1_555 1_555
C42 C43 1_555 1_555
C43 C44 1_555 1_555
C48 C49 1_555 1_555
C50 C51 1_555 1_555
C56 C57 1_555 1_555
C57 C58 1_555 1_555
C63 C64 1_555 1_555
C65 C66 1_555 1_555

#END
