
#######################################################################
#
#                 Cambridge Crystallographic Data Centre
#                                CCDC 
#
#######################################################################
#
# If this CIF has been generated from an entry in the Cambridge 
# Structural Database, then it will include bibliographic, chemical, 
# crystal, experimental, refinement or atomic coordinate data resulting 
# from the CCDC's data processing and validation procedures.
#
#######################################################################

data_YUXNIP
_chemical_formula_moiety         'C19 H20 N2 O9'
_chemical_name_systematic        
'Methyl 3-((2,5-dimethoxy-3-nitrobenzoyl)amino)-2,5-dimethoxybenzoate'
_symmetry_cell_setting           triclinic
_symmetry_space_group_name_H-M   'P -1'
_symmetry_Int_Tables_number      2
_space_group_name_Hall           '-P 1'
loop_
_symmetry_equiv_pos_site_id
_symmetry_equiv_pos_as_xyz
1 x,y,z
2 -x,-y,-z
_cell_length_a                   7.4447(4)
_cell_length_b                   11.7593(7)
_cell_length_c                   12.3555(7)
_cell_angle_alpha                108.3360(10)
_cell_angle_beta                 104.0110(10)
_cell_angle_gamma                100.2460(10)
_cell_volume                     957.545
_exptl_crystal_colour            colorless
_exptl_crystal_description       block
_cell_formula_units_Z            2
loop_
_atom_site_label
_atom_site_type_symbol
_atom_site_fract_x
_atom_site_fract_y
_atom_site_fract_z
O1 O 0.25853(17) 0.27528(10) 0.58095(9)
O2 O 0.17859(18) 0.02885(10) 0.43243(11)
O3 O 0.3554(2) 0.01212(13) 0.30936(16)
O4 O 0.2544(2) 0.37359(12) 0.17256(10)
O5 O 0.23173(18) 0.66480(10) 0.52675(9)
O6 O 0.23364(17) 0.52037(10) 0.79715(9)
O7 O 0.26073(19) 1.01606(10) 0.88813(11)
O8 O 0.3572(3) 0.61751(15) 1.04525(12)
O9 O 0.1737(2) 0.73003(14) 1.10194(11)
N1 N 0.24667(18) 0.49699(11) 0.57816(11)
H1 H 0.250(3) 0.4720(17) 0.6310(17)
N2 N 0.2568(2) 0.68638(14) 1.03172(11)
C1 C 0.2567(2) 0.29124(13) 0.47531(12)
C2 C 0.2621(2) 0.19843(13) 0.37382(13)
C3 C 0.2627(2) 0.22305(14) 0.27016(13)
H2 H 0.2688 0.1610 0.2022
C4 C 0.2544(2) 0.33854(14) 0.26807(13)
C5 C 0.2471(2) 0.43182(13) 0.36874(12)
H3 H 0.2409 0.5102 0.3663
C6 C 0.24907(19) 0.40877(13) 0.47169(12)
C7 C 0.4426(3) 0.2754(2) 0.65188(18)
H4 H 0.4297 0.2000 0.6692
H5 H 0.4891 0.3475 0.7267
H6 H 0.5334 0.2787 0.6076
C8 C 0.2732(2) 0.07142(14) 0.36859(16)
C9 C 0.1812(3) -0.09474(16) 0.4304(2)
H7 H 0.1629 -0.1498 0.3491
H8 H 0.0783 -0.1266 0.4576
H9 H 0.3041 -0.0906 0.4833
C10 C 0.2629(3) 0.28366(19) 0.06674(14)
H10 H 0.3713 0.2507 0.0874
H11 H 0.2785 0.3227 0.0099
H12 H 0.1446 0.2163 0.0308
C11 C 0.23926(19) 0.61556(12) 0.60039(12)
C12 C 0.2370(2) 0.64175(13) 0.81700(12)
C13 C 0.24307(19) 0.68897(12) 0.72668(12)
C14 C 0.2539(2) 0.81419(13) 0.74984(12)
H13 H 0.2611 0.8457 0.6894
C15 C 0.2542(2) 0.89362(13) 0.86029(13)
C16 C 0.2487(2) 0.84829(14) 0.95046(13)
H14 H 0.2484 0.9008 1.0256
C17 C 0.2437(2) 0.72526(14) 0.92867(12)
C18 C 0.0734(3) 0.44181(16) 0.80934(19)
H15 H -0.0043 0.4923 0.8427
H16 H 0.1213 0.4007 0.8626
H17 H -0.0046 0.3796 0.7310
C19 C 0.2791(3) 1.06724(15) 0.79965(16)
H18 H 0.3956 1.0573 0.7804
H19 H 0.2859 1.1551 0.8308
H20 H 0.1684 1.0241 0.7276
loop_
_geom_bond_atom_site_label_1
_geom_bond_atom_site_label_2
_geom_bond_site_symmetry_1
_geom_bond_site_symmetry_2
O1 C1 1_555 1_555
O2 C8 1_555 1_555
O3 C8 1_555 1_555
O4 C4 1_555 1_555
O5 C11 1_555 1_555
O6 C12 1_555 1_555
O7 C15 1_555 1_555
O8 N2 1_555 1_555
O9 N2 1_555 1_555
N1 H1 1_555 1_555
N2 C17 1_555 1_555
C1 C2 1_555 1_555
C2 C3 1_555 1_555
C3 H2 1_555 1_555
C4 C3 1_555 1_555
C5 C4 1_555 1_555
H3 C5 1_555 1_555
C6 N1 1_555 1_555
C7 O1 1_555 1_555
H4 C7 1_555 1_555
H5 C7 1_555 1_555
H6 C7 1_555 1_555
C8 C2 1_555 1_555
C9 O2 1_555 1_555
H7 C9 1_555 1_555
H8 C9 1_555 1_555
H9 C9 1_555 1_555
C10 O4 1_555 1_555
H10 C10 1_555 1_555
H11 C10 1_555 1_555
H12 C10 1_555 1_555
C11 N1 1_555 1_555
C12 C13 1_555 1_555
C13 C11 1_555 1_555
C14 C13 1_555 1_555
H13 C14 1_555 1_555
C15 C14 1_555 1_555
C16 C15 1_555 1_555
H14 C16 1_555 1_555
C17 C12 1_555 1_555
C18 O6 1_555 1_555
H15 C18 1_555 1_555
H16 C18 1_555 1_555
H17 C18 1_555 1_555
C19 O7 1_555 1_555
H18 C19 1_555 1_555
H19 C19 1_555 1_555
H20 C19 1_555 1_555
C1 C6 1_555 1_555
C5 C6 1_555 1_555
C16 C17 1_555 1_555

#END
