
#######################################################################
#
#                 Cambridge Crystallographic Data Centre
#                                CCDC 
#
#######################################################################
#
# If this CIF has been generated from an entry in the Cambridge 
# Structural Database, then it will include bibliographic, chemical, 
# crystal, experimental, refinement or atomic coordinate data resulting 
# from the CCDC's data processing and validation procedures.
#
#######################################################################

data_YUXQEO
_chemical_formula_moiety         'C12 H10 Te2'
_chemical_name_systematic        '(P)-Diphenyl ditelluride'
_symmetry_cell_setting           orthorhombic
_symmetry_space_group_name_H-M   'P 21 21 21'
_symmetry_Int_Tables_number      19
_space_group_name_Hall           'P 2ac 2ab'
loop_
_symmetry_equiv_pos_site_id
_symmetry_equiv_pos_as_xyz
1 x,y,z
2 1/2+x,1/2-y,-z
3 -x,1/2+y,1/2-z
4 1/2-x,-y,1/2+z
_cell_length_a                   5.1563(8)
_cell_length_b                   8.5809(13)
_cell_length_c                   26.784(4)
_cell_angle_alpha                90
_cell_angle_beta                 90
_cell_angle_gamma                90
_cell_volume                     1185.08
_exptl_crystal_colour            orange
_exptl_crystal_description       prism
_cell_formula_units_Z            4
loop_
_atom_site_label
_atom_site_type_symbol
_atom_site_fract_x
_atom_site_fract_y
_atom_site_fract_z
Te1 Te 0.18571(10) 0.92837(6) 0.91334(2)
Te2 Te -0.12315(10) 0.67375(6) 0.919616(19)
C1 C 0.2112(15) 0.9548(9) 0.8339(2)
C2 C 0.0426(17) 1.0539(10) 0.8095(3)
C3 C 0.076(2) 1.0767(10) 0.7584(3)
C4 C 0.2669(18) 1.0043(9) 0.7324(3)
C5 C 0.4342(19) 0.9085(10) 0.7573(3)
C6 C 0.4093(18) 0.8810(10) 0.8080(3)
C7 C 0.1760(14) 0.5033(9) 0.9203(3)
C8 C 0.2528(16) 0.4301(10) 0.8760(2)
C9 C 0.4505(18) 0.3173(9) 0.8775(3)
C10 C 0.5737(15) 0.2826(8) 0.9217(3)
C11 C 0.4921(16) 0.3544(9) 0.9660(3)
C12 C 0.2961(15) 0.4642(8) 0.9642(2)
H1 H -0.0929 1.1051 0.8270
H2 H -0.0376 1.1452 0.7412
H3 H 0.2839 1.0199 0.6974
H4 H 0.5709 0.8595 0.7395
H5 H 0.5255 0.8128 0.8247
H6 H 0.1721 0.4563 0.8453
H7 H 0.4994 0.2647 0.8478
H8 H 0.7132 0.2103 0.9222
H9 H 0.5708 0.3279 0.9969
H10 H 0.2431 0.5138 0.9942
loop_
_geom_bond_atom_site_label_1
_geom_bond_atom_site_label_2
_geom_bond_site_symmetry_1
_geom_bond_site_symmetry_2
Te1 Te2 1_555 1_555
Te2 C7 1_555 1_555
C1 Te1 1_555 1_555
C2 C1 1_555 1_555
C3 C2 1_555 1_555
C4 C3 1_555 1_555
C5 C4 1_555 1_555
C6 C1 1_555 1_555
C7 C8 1_555 1_555
C8 C9 1_555 1_555
C9 C10 1_555 1_555
C10 C11 1_555 1_555
C11 C12 1_555 1_555
C12 C7 1_555 1_555
H1 C2 1_555 1_555
H2 C3 1_555 1_555
H3 C4 1_555 1_555
H4 C5 1_555 1_555
H5 C6 1_555 1_555
H6 C8 1_555 1_555
H7 C9 1_555 1_555
H8 C10 1_555 1_555
H9 C11 1_555 1_555
H10 C12 1_555 1_555
C5 C6 1_555 1_555

#END
