
#######################################################################
#
#                 Cambridge Crystallographic Data Centre
#                                CCDC 
#
#######################################################################
#
# If this CIF has been generated from an entry in the Cambridge 
# Structural Database, then it will include bibliographic, chemical, 
# crystal, experimental, refinement or atomic coordinate data resulting 
# from the CCDC's data processing and validation procedures.
#
#######################################################################

data_YUZNEM
_chemical_formula_moiety         'C114 H118 N8 O24 S8,4(C2 H6 O1)'
_chemical_name_systematic        
'2,6,10,14,18,22,26,30,33,36,39,42-Dodeca-aza-2,6,10,14,18,22,26,30,33,36,39,42-dodeca-p-tosyl-4^4,6^,28^4,6^-tetrakis-(ethoxycarbonyl)-4(1,3),8,12,16,20,24(1,3,4,6),28(1,3)heptabenzena-pentaspiro(7.3.3.3.3.7.3.3.3.3)tritetracosaphane ethanol solvate'
_symmetry_cell_setting           triclinic
_symmetry_space_group_name_H-M   'P -1'
_symmetry_Int_Tables_number      2
_space_group_name_Hall           '-P 1'
loop_
_symmetry_equiv_pos_site_id
_symmetry_equiv_pos_as_xyz
1 x,y,z
2 -x,-y,-z
_cell_length_a                   16.814(1)
_cell_length_b                   17.198(1)
_cell_length_c                   29.223(2)
_cell_angle_alpha                97.62(1)
_cell_angle_beta                 98.78(1)
_cell_angle_gamma                117.09(1)
_cell_volume                     7236.28
_exptl_crystal_colour            colorless
_cell_formula_units_Z            2
loop_
_atom_site_label
_atom_site_type_symbol
_atom_site_fract_x
_atom_site_fract_y
_atom_site_fract_z
C1 C 0.7827(6) 0.3293(6) 0.2701(3)
N1 N 0.8552(5) 0.3119(5) 0.2548(3)
C2 C 0.9499(6) 0.3718(6) 0.2848(3)
C3 C 0.9979(6) 0.4591(6) 0.2703(4)
C4 C 1.0617(6) 0.5393(7) 0.3021(4)
C5 C 1.0993(6) 0.6178(7) 0.2863(4)
C6 C 1.0742(6) 0.6213(7) 0.2386(4)
C7 C 1.0076(6) 0.5383(7) 0.2051(4)
C8 C 0.9749(6) 0.4607(6) 0.2219(3)
C9 C 0.9747(6) 0.5294(7) 0.1521(3)
N2 N 0.9069(5) 0.5608(5) 0.1404(2)
C10 C 0.8114(6) 0.5008(6) 0.1450(3)
C11 C 0.8066(5) 0.4984(6) 0.1951(3)
C12 C 0.7855(5) 0.4197(6) 0.2098(3)
C13 C 0.7936(5) 0.4153(6) 0.2582(3)
C14 C 0.8233(5) 0.4944(6) 0.2919(3)
C15 C 0.8410(5) 0.5730(6) 0.2763(3)
C16 C 0.8293(5) 0.5755(6) 0.2292(3)
C17 C 0.8380(6) 0.6598(6) 0.2147(3)
N3 N 0.8007(4) 0.7044(4) 0.2460(2)
C18 C 0.6994(5) 0.6639(5) 0.2367(3)
C19 C 0.6557(5) 0.5752(5) 0.2516(3)
C20 C 0.6805(5) 0.5759(5) 0.2995(3)
C21 C 0.6530(5) 0.4980(6) 0.3158(3)
C22 C 0.5921(5) 0.4152(5) 0.2842(3)
C23 C 0.5706(5) 0.4156(5) 0.2366(3)
C24 C 0.6004(5) 0.4922(5) 0.2201(3)
C25 C 0.6979(6) 0.4991(6) 0.3652(3)
N4 N 0.7532(4) 0.4519(5) 0.3613(2)
C26 C 0.8399(5) 0.5003(6) 0.3453(3)
C27 C 0.5744(6) 0.4827(6) 0.1670(3)
N5 N 0.5013(5) 0.5081(5) 0.1519(2)
C28 C 0.4050(6) 0.4394(6) 0.1503(3)
C29 C 0.3941(5) 0.4324(6) 0.1996(3)
C30 C 0.3774(5) 0.3528(6) 0.2133(3)
C31 C 0.3788(5) 0.3460(6) 0.2598(3)
C32 C 0.3957(5) 0.4203(6) 0.2945(3)
C33 C 0.4118(5) 0.4982(6) 0.2795(3)
C34 C 0.4086(5) 0.5057(6) 0.2331(3)
C35 C 0.3765(6) 0.2618(6) 0.2729(3)
N6 N 0.4618(5) 0.2595(4) 0.2669(3)
C36 C 0.5496(5) 0.3276(5) 0.2994(3)
C37 C 0.4237(6) 0.5921(6) 0.2200(3)
N7 N 0.4000(5) 0.6459(5) 0.2524(3)
C38 C 0.3005(6) 0.6249(6) 0.2411(4)
C39 C 0.2415(6) 0.5324(7) 0.2470(4)
C40 C 0.1859(7) 0.4591(8) 0.2096(4)
C41 C 0.1453(6) 0.3748(7) 0.2181(4)
C42 C 0.1600(6) 0.3602(7) 0.2638(4)
C43 C 0.2169(6) 0.4338(7) 0.3015(3)
C44 C 0.2529(6) 0.5177(7) 0.2921(4)
C45 C 0.2487(6) 0.4251(7) 0.3509(3)
N8 N 0.3526(5) 0.4718(5) 0.3652(2)
C46 C 0.3940(6) 0.4184(6) 0.3465(3)
S1 S 0.8261(2) 0.2123(2) 0.2272(1)
O1 O 0.9069(4) 0.2157(4) 0.2159(2)
O2 O 0.7473(4) 0.1846(5) 0.1894(2)
C47 C 0.7941(5) 0.1431(5) 0.2669(3)
C48 C 0.8610(5) 0.1375(6) 0.2988(3)
C49 C 0.8345(6) 0.0818(6) 0.3297(3)
C50 C 0.7422(7) 0.0292(6) 0.3289(4)
C51 C 0.6781(6) 0.0359(7) 0.2980(4)
C52 C 0.7026(5) 0.0924(6) 0.2672(3)
C53 C 0.7164(8) -0.0349(7) 0.3617(4)
C54 C 1.0928(7) 0.5447(8) 0.3535(4)
O3 O 1.0691(8) 0.4854(6) 0.3729(3)
O4 O 1.1540(7) 0.6243(6) 0.3762(3)
C55 C 1.1903(10) 0.6374(9) 0.4292(4)
C56 C 1.2766(13) 0.7190(13) 0.4424(7)
C57 C 1.1228(8) 0.7112(9) 0.2291(5)
O5 O 1.1845(10) 0.7728(8) 0.2577(4)
O6 O 1.0948(8) 0.7207(6) 0.1905(4)
C58 C 1.1456(14) 0.8118(9) 0.1775(6)
C59 C 1.1062(18) 0.8628(13) 0.1962(12)
S2 S 0.9087(2) 0.6010(2) 0.0921(1)
O7 O 1.0027(4) 0.6515(4) 0.0905(2)
O8 O 0.8536(5) 0.6433(5) 0.0928(3)
C60 C 0.8539(5) 0.5085(5) 0.0428(3)
C61 C 0.9014(6) 0.4665(6) 0.0278(3)
C62 C 0.8617(7) 0.3990(7) -0.0131(4)
C63 C 0.7751(8) 0.3725(9) -0.0397(4)
C64 C 0.7269(7) 0.4101(9) -0.0228(4)
C65 C 0.7661(6) 0.4804(8) 0.0171(4)
C66 C 0.7365(11) 0.3002(10) -0.0850(4)
S3 S 0.8601(2) 0.8120(2) 0.2669(1)
O9 O 0.8268(5) 0.8328(5) 0.3058(2)
O10 O 0.9554(4) 0.8347(5) 0.2737(3)
C67 C 0.8360(6) 0.8622(6) 0.2218(3)
C68 C 0.7822(8) 0.9034(7) 0.2270(4)
C69 C 0.7688(9) 0.9465(8) 0.1925(4)
C70 C 0.8054(11) 0.9488(9) 0.1536(5)
C71 C 0.8532(9) 0.9045(9) 0.1480(4)
C72 C 0.8692(8) 0.8617(8) 0.1820(4)
C73 C 0.7913(12) 1.0022(9) 0.1185(5)
S4 S 0.7634(2) 0.4038(2) 0.4055(1)
O11 O 0.8164(4) 0.3611(4) 0.3952(2)
O12 O 0.6728(4) 0.3530(4) 0.4115(2)
C74 C 0.8289(5) 0.4899(5) 0.4572(3)
C75 C 0.7856(6) 0.5157(6) 0.4880(3)
C76 C 0.8389(6) 0.5848(7) 0.5278(3)
C77 C 0.9329(7) 0.6267(7) 0.5377(3)
C78 C 0.9742(6) 0.6009(8) 0.5070(4)
C79 C 0.9235(5) 0.5325(7) 0.4667(3)
C80 C 0.9910(8) 0.7006(8) 0.5829(4)
S5 S 0.5113(2) 0.5527(2) 0.1048(1)
O13 O 0.6066(4) 0.6144(4) 0.1116(2)
O14 O 0.4457(5) 0.5840(5) 0.1000(2)
C81 C 0.4764(6) 0.4632(5) 0.0565(3)
C82 C 0.3861(6) 0.4180(7) 0.0295(3)
C83 C 0.3588(8) 0.3421(8) -0.0055(4)
C84 C 0.4194(9) 0.3111(8) -0.0142(4)
C85 C 0.5065(8) 0.3564(7) 0.0120(4)
C86 C 0.5360(7) 0.4322(7) 0.0473(3)
C87 C 0.3867(11) 0.2279(8) -0.0526(5)
S6 S 0.4533(2) 0.1647(2) 0.2443(1)
O15 O 0.5415(4) 0.1828(5) 0.2361(3)
O16 O 0.3729(5) 0.1208(5) 0.2048(3)
C88 C 0.4296(7) 0.0976(6) 0.2860(3)
C89 C 0.3380(8) 0.0350(8) 0.2827(5)
C90 C 0.3193(9) -0.0193(9) 0.3138(5)
C91 C 0.3889(11) -0.0134(11) 0.3484(6)
C92 C 0.4762(10) 0.0489(10) 0.3527(5)
C93 C 0.4983(8) 0.1055(9) 0.3206(4)
C94 C 0.3626(14) -0.0826(10) 0.3791(6)
S7 S 0.4766(2) 0.7493(2) 0.2762(1)
O17 O 0.5629(4) 0.7508(5) 0.2846(3)
O18 O 0.4474(5) 0.7783(5) 0.3152(2)
C95 C 0.4749(6) 0.8120(6) 0.2337(3)
C96 C 0.4283(7) 0.8612(6) 0.2354(4)
C97 C 0.4314(8) 0.9123(7) 0.2022(4)
C98 C 0.4788(9) 0.9153(8) 0.1675(4)
C99 C 0.5241(8) 0.8679(8) 0.1667(4)
C100 C 0.5226(7) 0.8155(7) 0.1990(3)
C101 C 0.4822(11) 0.9749(8) 0.1324(4)
C102 C 0.1668(9) 0.4650(11) 0.1587(4)
O19 O 0.1713(10) 0.5311(8) 0.1469(4)
O20 O 0.1642(19) 0.4050(11) 0.1264(6)
C103 C 0.1194(32) 0.4015(19) 0.0760(5)
C104 C 0.0283(21) 0.3243(29) 0.0617(11)
C107 C 0.1167(7) 0.2674(7) 0.2718(5)
O22 O 0.0900(5) 0.2483(5) 0.3064(3)
O23 O 0.1065(5) 0.2079(5) 0.2359(3)
C108 C 0.0557(10) 0.1121(8) 0.2382(6)
C109 C 0.1171(14) 0.0812(12) 0.2585(14)
S8 S 0.3967(2) 0.5240(2) 0.4217(1)
O24 O 0.3981(5) 0.4633(5) 0.4505(2)
O25 O 0.3495(5) 0.5727(5) 0.4323(3)
C111 C 0.5100(5) 0.5982(6) 0.4217(3)
C112 C 0.5284(6) 0.6653(6) 0.3962(3)
C113 C 0.6183(6) 0.7259(7) 0.3977(4)
C114 C 0.6913(6) 0.7210(7) 0.4242(4)
C115 C 0.6724(6) 0.6569(7) 0.4488(4)
C116 C 0.5832(6) 0.5955(6) 0.4479(3)
C117 C 0.7901(6) 0.7858(8) 0.4224(5)
O26 O 0.5669(18) 0.2361(17) 0.1245(9)
C118 C 0.4635(22) 0.1800(19) 0.1030(13)
C119 C 0.4180(17) 0.2328(20) 0.1153(11)
O27 O 0.4431(20) 0.2538(21) 0.4363(10)
C120 C 0.3401(23) 0.2036(20) 0.4336(10)
C121 C 0.2882(20) 0.2050(24) 0.3884(12)
O28 O 1.0798(22) 0.7979(20) 0.3645(11)
C122 C 1.0204(21) 0.8134(20) 0.3952(14)
C123 C 1.0725(30) 0.8518(29) 0.4451(12)
O29 O 0.8514(23) 1.2350(26) 0.0871(13)
C125 C 0.7882(35) 1.2761(23) 0.0889(17)
C126 C 0.6957(56) 1.2132(94) 0.055(13)
O21? O 0.1121(18) 0.3902(9) 0.1278(5)
C105? C 0.1139(33) 0.3986(18) 0.0765(5)
C106? C 0.1335(28) 0.3318(28) 0.0536(9)
C110? C 0.0899(38) 0.0595(15) 0.2134(24)
C124? C 0.9655(27) 0.7311(29) 0.4106(14)
C127? C 0.6871(82) 1.200(11) 0.071(13)
loop_
_geom_bond_atom_site_label_1
_geom_bond_atom_site_label_2
_geom_bond_site_symmetry_1
_geom_bond_site_symmetry_2
C1 N1 1_555 1_555
N1 C2 1_555 1_555
C2 C3 1_555 1_555
C3 C4 1_555 1_555
C4 C5 1_555 1_555
C5 C6 1_555 1_555
C6 C7 1_555 1_555
C7 C8 1_555 1_555
C8 C3 1_555 1_555
C9 C7 1_555 1_555
N2 C9 1_555 1_555
C10 N2 1_555 1_555
C11 C10 1_555 1_555
C12 C11 1_555 1_555
C13 C1 1_555 1_555
C14 C13 1_555 1_555
C15 C14 1_555 1_555
C16 C11 1_555 1_555
C17 C16 1_555 1_555
N3 C17 1_555 1_555
C18 N3 1_555 1_555
C19 C18 1_555 1_555
C20 C19 1_555 1_555
C21 C20 1_555 1_555
C22 C21 1_555 1_555
C23 C22 1_555 1_555
C24 C19 1_555 1_555
C25 C21 1_555 1_555
N4 C25 1_555 1_555
C26 C14 1_555 1_555
C27 C24 1_555 1_555
N5 C27 1_555 1_555
C28 N5 1_555 1_555
C29 C28 1_555 1_555
C30 C29 1_555 1_555
C31 C30 1_555 1_555
C32 C31 1_555 1_555
C33 C32 1_555 1_555
C34 C29 1_555 1_555
C35 C31 1_555 1_555
N6 C35 1_555 1_555
C36 C22 1_555 1_555
C37 C34 1_555 1_555
N7 C37 1_555 1_555
C38 N7 1_555 1_555
C39 C38 1_555 1_555
C40 C39 1_555 1_555
C41 C40 1_555 1_555
C42 C41 1_555 1_555
C43 C42 1_555 1_555
C44 C39 1_555 1_555
C45 C43 1_555 1_555
N8 C45 1_555 1_555
C46 C32 1_555 1_555
S1 N1 1_555 1_555
O1 S1 1_555 1_555
O2 S1 1_555 1_555
C47 S1 1_555 1_555
C48 C47 1_555 1_555
C49 C48 1_555 1_555
C50 C49 1_555 1_555
C51 C50 1_555 1_555
C52 C47 1_555 1_555
C53 C50 1_555 1_555
C54 C4 1_555 1_555
O3 C54 1_555 1_555
O4 C54 1_555 1_555
C55 O4 1_555 1_555
C56 C55 1_555 1_555
C57 C6 1_555 1_555
O5 C57 1_555 1_555
O6 C57 1_555 1_555
C58 O6 1_555 1_555
C59 C58 1_555 1_555
S2 N2 1_555 1_555
O7 S2 1_555 1_555
O8 S2 1_555 1_555
C60 S2 1_555 1_555
C61 C60 1_555 1_555
C62 C61 1_555 1_555
C63 C62 1_555 1_555
C64 C63 1_555 1_555
C65 C60 1_555 1_555
C66 C63 1_555 1_555
S3 N3 1_555 1_555
O9 S3 1_555 1_555
O10 S3 1_555 1_555
C67 S3 1_555 1_555
C68 C67 1_555 1_555
C69 C68 1_555 1_555
C70 C69 1_555 1_555
C71 C70 1_555 1_555
C72 C67 1_555 1_555
C73 C70 1_555 1_555
S4 N4 1_555 1_555
O11 S4 1_555 1_555
O12 S4 1_555 1_555
C74 S4 1_555 1_555
C75 C74 1_555 1_555
C76 C75 1_555 1_555
C77 C76 1_555 1_555
C78 C77 1_555 1_555
C79 C74 1_555 1_555
C80 C77 1_555 1_555
S5 N5 1_555 1_555
O13 S5 1_555 1_555
O14 S5 1_555 1_555
C81 S5 1_555 1_555
C82 C81 1_555 1_555
C83 C82 1_555 1_555
C84 C83 1_555 1_555
C85 C84 1_555 1_555
C86 C81 1_555 1_555
C87 C84 1_555 1_555
S6 N6 1_555 1_555
O15 S6 1_555 1_555
O16 S6 1_555 1_555
C88 S6 1_555 1_555
C89 C88 1_555 1_555
C90 C89 1_555 1_555
C91 C90 1_555 1_555
C92 C91 1_555 1_555
C93 C88 1_555 1_555
C94 C91 1_555 1_555
S7 N7 1_555 1_555
O17 S7 1_555 1_555
O18 S7 1_555 1_555
C95 S7 1_555 1_555
C96 C95 1_555 1_555
C97 C96 1_555 1_555
C98 C97 1_555 1_555
C99 C98 1_555 1_555
C100 C95 1_555 1_555
C101 C98 1_555 1_555
C102 C40 1_555 1_555
O19 C102 1_555 1_555
O20 C102 1_555 1_555
C103 O20 1_555 1_555
C104 C103 1_555 1_555
C107 C42 1_555 1_555
O22 C107 1_555 1_555
O23 C107 1_555 1_555
C108 O23 1_555 1_555
C109 C108 1_555 1_555
S8 N8 1_555 1_555
O24 S8 1_555 1_555
O25 S8 1_555 1_555
C111 S8 1_555 1_555
C112 C111 1_555 1_555
C113 C112 1_555 1_555
C114 C113 1_555 1_555
C115 C114 1_555 1_555
C116 C111 1_555 1_555
C117 C114 1_555 1_555
O26 C118 1_555 1_555
C118 C119 1_555 1_555
O27 C120 1_555 1_555
C120 C121 1_555 1_555
O28 C122 1_555 1_555
C122 C123 1_555 1_555
O29 C125 1_555 1_555
C125 C126 1_555 1_555
C12 C13 1_555 1_555
C15 C16 1_555 1_555
C23 C24 1_555 1_555
N4 C26 1_555 1_555
C33 C34 1_555 1_555
N6 C36 1_555 1_555
C43 C44 1_555 1_555
N8 C46 1_555 1_555
C51 C52 1_555 1_555
C64 C65 1_555 1_555
C71 C72 1_555 1_555
C78 C79 1_555 1_555
C85 C86 1_555 1_555
C92 C93 1_555 1_555
C99 C100 1_555 1_555
C115 C116 1_555 1_555

#END
