
#######################################################################
#
#                 Cambridge Crystallographic Data Centre
#                                CCDC 
#
#######################################################################
#
# If this CIF has been generated from an entry in the Cambridge 
# Structural Database, then it will include bibliographic, chemical, 
# crystal, experimental, refinement or atomic coordinate data resulting 
# from the CCDC's data processing and validation procedures.
#
#######################################################################

data_ZACJEV
_chemical_formula_moiety         'C51 H37 B1 F2 N2 O2,C1 H1 Cl3'
_chemical_name_systematic        
"difluoro-(1,3-bis(4'-(diphenylamino)biphenyl)propane-1,3-dionato)-boron chloroform solvate"
_symmetry_cell_setting           monoclinic
_symmetry_space_group_name_H-M   'C 2/c'
_symmetry_Int_Tables_number      15
_space_group_name_Hall           '-C 2yn'
loop_
_symmetry_equiv_pos_site_id
_symmetry_equiv_pos_as_xyz
1 x,y,z
2 -x,y,1/2-z
3 1/2+x,1/2+y,z
4 1/2-x,1/2+y,1/2-z
5 -x,-y,-z
6 x,-y,1/2+z
7 1/2-x,1/2-y,-z
8 1/2+x,1/2-y,1/2+z
_cell_length_a                   31.634(3)
_cell_length_b                   14.8880(16)
_cell_length_c                   18.531(2)
_cell_angle_alpha                90
_cell_angle_beta                 95.104(2)
_cell_angle_gamma                90
_cell_volume                     8692.88
_exptl_crystal_colour            red
_exptl_crystal_description       block
_cell_formula_units_Z            8
loop_
_atom_site_label
_atom_site_type_symbol
_atom_site_fract_x
_atom_site_fract_y
_atom_site_fract_z
F1 F 0.28954(7) 0.65338(14) -0.19275(11)
O1 O 0.28887(8) 0.75518(17) -0.28795(12)
O2 O 0.25646(8) 0.79060(16) -0.17760(12)
F2 F 0.32988(7) 0.77932(16) -0.17920(11)
N1 N 0.07406(10) 1.2040(2) 0.13653(16)
C1 C 0.30775(11) 0.7850(2) -0.50185(18)
H1 H 0.3225 0.7410 -0.5249
C2 C 0.24622(11) 0.8829(2) -0.27915(18)
H2 H 0.2353 0.9358 -0.3000
C3 C 0.23832(11) 0.8608(2) -0.20932(18)
C4 C 0.07106(11) 1.1639(3) 0.20655(19)
C5 C 0.29490(10) 0.8638(2) -0.53966(18)
C6 C 0.31530(11) 0.8133(2) -0.66089(18)
H3 H 0.3098 0.7542 -0.6484
C7 C 0.27627(11) 0.8370(2) -0.39543(17)
N2 N 0.35907(10) 0.9359(2) -0.81128(15)
C8 C 0.10357(11) 1.1156(2) -0.04021(19)
H4 H 0.0952 1.1227 -0.0893
C9 C 0.26177(11) 0.9128(2) -0.43402(18)
H5 H 0.2458 0.9554 -0.4118
C10 C 0.15961(11) 1.0056(2) -0.07214(18)
C11 C 0.27054(11) 0.8261(2) -0.31859(18)
C12 C 0.29810(12) 0.8812(2) -0.88824(19)
H6 H 0.2808 0.8926 -0.8512
C13 C 0.34088(12) 0.8982(2) -0.87711(18)
C14 C 0.13671(11) 1.0577(2) -0.01938(18)
C15 C 0.12812(12) 1.0977(2) 0.1060(2)
H7 H 0.1370 1.0918 0.1549
C16 C 0.20984(11) 0.9107(2) -0.16520(18)
C17 C 0.30799(11) 0.8819(2) -0.61231(18)
C18 C 0.19948(11) 0.8736(2) -0.10031(19)
H8 H 0.2091 0.8163 -0.0873
C19 C 0.29876(11) 0.7721(2) -0.43122(19)
H9 H 0.3077 0.7198 -0.4070
C20 C 0.17525(11) 0.9201(2) -0.05490(19)
H10 H 0.1691 0.8938 -0.0115
C21 C 0.34042(11) 0.9184(3) -0.74616(18)
C22 C 0.27075(11) 0.9257(2) -0.50464(18)
H11 H 0.2605 0.9767 -0.5294
C23 C 0.33248(11) 0.9879(2) -0.69853(18)
H12 H 0.3380 1.0470 -0.7109
C24 C 0.09474(11) 1.1554(2) 0.08402(19)
C25 C 0.19277(12) 0.9946(2) -0.18562(18)
H13 H 0.1980 1.0194 -0.2300
C26 C 0.05512(12) 1.2883(3) 0.1203(2)
C27 C 0.33039(11) 0.8307(2) -0.72684(18)
H14 H 0.3339 0.7837 -0.7588
C28 C 0.31656(11) 0.9693(2) -0.63343(19)
H15 H 0.3114 1.0166 -0.6026
C29 C 0.41851(12) 1.0230(3) -0.7578(2)
H16 H 0.4222 0.9803 -0.7212
C30 C 0.16820(12) 1.0405(2) -0.13978(19)
H17 H 0.1570 1.0961 -0.1541
C31 C 0.07443(13) 1.3524(3) 0.0800(2)
H18 H 0.1006 1.3401 0.0629
C32 C 0.34881(15) 0.8454(3) -0.9974(2)
H19 H 0.3661 0.8328 -1.0341
C33 C 0.08239(12) 1.1634(3) 0.00992(19)
H20 H 0.0599 1.2009 -0.0058
C34 C 0.38698(12) 1.0110(3) -0.81356(19)
C35 C 0.14825(12) 1.0487(2) 0.0549(2)
H21 H 0.1699 1.0091 0.0705
C36 C 0.36654(13) 0.8791(3) -0.93244(19)
H22 H 0.3956 0.8891 -0.9255
C37 C 0.05523(15) 1.4343(3) 0.0650(2)
H23 H 0.0682 1.4765 0.0372
C38 C 0.30621(16) 0.8303(3) -1.0086(2)
H24 H 0.2945 0.8085 -1.0530
C39 C 0.38262(13) 1.0731(3) -0.8688(2)
H25 H 0.3613 1.0664 -0.9063
B1 B 0.29206(15) 0.7426(3) -0.2082(2)
C40 C 0.07964(12) 1.2160(3) 0.2687(2)
H26 H 0.0872 1.2761 0.2648
C41 C 0.01640(12) 1.3097(3) 0.1473(2)
H27 H 0.0032 1.2681 0.1753
C42 C 0.07689(13) 1.1775(3) 0.3364(2)
H28 H 0.0827 1.2120 0.3779
C43 C 0.40983(15) 1.1452(3) -0.8684(2)
H29 H 0.4076 1.1854 -0.9070
C44 C 0.06569(14) 1.0886(3) 0.3424(2)
H30 H 0.0640 1.0629 0.3878
C45 C 0.05713(14) 1.0383(3) 0.2809(2)
H31 H 0.0497 0.9782 0.2849
C46 C 0.28045(14) 0.8476(3) -0.9533(2)
H32 H 0.2514 0.8366 -0.9602
C47 C 0.44007(15) 1.1586(4) -0.8122(3)
H33 H 0.4577 1.2087 -0.8118
C48 C -0.00215(14) 1.3918(3) 0.1328(2)
H34 H -0.0278 1.4055 0.1514
C49 C 0.44444(14) 1.0972(3) -0.7557(2)
H35 H 0.4647 1.1061 -0.7168
C50 C 0.01656(15) 1.4539(3) 0.0915(2)
H36 H 0.0035 1.5089 0.0812
C51 C 0.05936(12) 1.0758(3) 0.2128(2)
H37 H 0.0529 1.0412 0.1714
Cl1 Cl 0.03531(5) 0.71245(11) 0.04553(9)
Cl2 Cl 0.02365(6) 0.83664(12) 0.16026(10)
Cl3 Cl 0.08684(6) 0.87006(12) 0.06397(11)
C52 C 0.06073(18) 0.7888(4) 0.1075(3)
H38 H 0.0816 0.7557 0.1395
loop_
_geom_bond_atom_site_label_1
_geom_bond_atom_site_label_2
_geom_bond_site_symmetry_1
_geom_bond_site_symmetry_2
F1 B1 1_555 1_555
O1 C11 1_555 1_555
O2 C3 1_555 1_555
F2 B1 1_555 1_555
N1 C4 1_555 1_555
C1 H1 1_555 1_555
C2 H2 1_555 1_555
C3 C2 1_555 1_555
C4 C40 1_555 1_555
C5 C1 1_555 1_555
C6 H3 1_555 1_555
C7 C9 1_555 1_555
N2 C13 1_555 1_555
C8 H4 1_555 1_555
C9 H5 1_555 1_555
C10 C14 1_555 1_555
C11 C2 1_555 1_555
C12 H6 1_555 1_555
C13 C12 1_555 1_555
C14 C8 1_555 1_555
C15 H7 1_555 1_555
C16 C3 1_555 1_555
C17 C5 1_555 1_555
C18 C16 1_555 1_555
H8 C18 1_555 1_555
C19 C1 1_555 1_555
H9 C19 1_555 1_555
C20 C10 1_555 1_555
H10 C20 1_555 1_555
C21 N2 1_555 1_555
C22 C5 1_555 1_555
H11 C22 1_555 1_555
C23 C21 1_555 1_555
H12 C23 1_555 1_555
C24 N1 1_555 1_555
C25 C16 1_555 1_555
H13 C25 1_555 1_555
C26 N1 1_555 1_555
C27 C6 1_555 1_555
H14 C27 1_555 1_555
C28 C17 1_555 1_555
H15 C28 1_555 1_555
C29 H16 1_555 1_555
C30 C10 1_555 1_555
H17 C30 1_555 1_555
C31 C26 1_555 1_555
H18 C31 1_555 1_555
C32 H19 1_555 1_555
C33 C8 1_555 1_555
H20 C33 1_555 1_555
C34 N2 1_555 1_555
C35 C14 1_555 1_555
H21 C35 1_555 1_555
C36 C13 1_555 1_555
H22 C36 1_555 1_555
C37 C31 1_555 1_555
H23 C37 1_555 1_555
C38 C32 1_555 1_555
H24 C38 1_555 1_555
C39 C34 1_555 1_555
H25 C39 1_555 1_555
B1 O1 1_555 1_555
C40 H26 1_555 1_555
C41 C26 1_555 1_555
H27 C41 1_555 1_555
C42 C40 1_555 1_555
H28 C42 1_555 1_555
C43 C39 1_555 1_555
H29 C43 1_555 1_555
C44 C42 1_555 1_555
H30 C44 1_555 1_555
C45 C44 1_555 1_555
H31 C45 1_555 1_555
C46 C12 1_555 1_555
H32 C46 1_555 1_555
C47 C43 1_555 1_555
H33 C47 1_555 1_555
C48 C41 1_555 1_555
H34 C48 1_555 1_555
C49 C29 1_555 1_555
H35 C49 1_555 1_555
C50 C37 1_555 1_555
H36 C50 1_555 1_555
C51 C4 1_555 1_555
H37 C51 1_555 1_555
Cl1 C52 1_555 1_555
Cl2 C52 1_555 1_555
Cl3 C52 1_555 1_555
C52 H38 1_555 1_555
O2 B1 1_555 1_555
C6 C17 1_555 1_555
C7 C11 1_555 1_555
C7 C19 1_555 1_555
C9 C22 1_555 1_555
C15 C24 1_555 1_555
C15 C35 1_555 1_555
C18 C20 1_555 1_555
C21 C27 1_555 1_555
C23 C28 1_555 1_555
C24 C33 1_555 1_555
C25 C30 1_555 1_555
C29 C34 1_555 1_555
C32 C36 1_555 1_555
C38 C46 1_555 1_555
C45 C51 1_555 1_555
C47 C49 1_555 1_555
C48 C50 1_555 1_555

#END
