
#######################################################################
#
#                 Cambridge Crystallographic Data Centre
#                                CCDC 
#
#######################################################################
#
# If this CIF has been generated from an entry in the Cambridge 
# Structural Database, then it will include bibliographic, chemical, 
# crystal, experimental, refinement or atomic coordinate data resulting 
# from the CCDC's data processing and validation procedures.
#
#######################################################################

data_ZACSII
_chemical_formula_moiety         'C2 H2 N6 O5'
_chemical_name_systematic        N,N'-dinitro-1,2,5-oxadiazole-3,4-diamine
_symmetry_cell_setting           monoclinic
_symmetry_space_group_name_H-M   'P 21/c'
_symmetry_Int_Tables_number      14
_space_group_name_Hall           '-P 2ybc'
loop_
_symmetry_equiv_pos_site_id
_symmetry_equiv_pos_as_xyz
1 x,y,z
2 -x,1/2+y,1/2-z
3 -x,-y,-z
4 x,1/2-y,1/2+z
_cell_length_a                   11.0976(7)
_cell_length_b                   5.7127(4)
_cell_length_c                   10.4325(7)
_cell_angle_alpha                90
_cell_angle_beta                 93.244(3)
_cell_angle_gamma                90
_cell_volume                     660.332
_exptl_crystal_colour            colorless
_exptl_crystal_description       block
_cell_formula_units_Z            4
loop_
_atom_site_label
_atom_site_type_symbol
_atom_site_fract_x
_atom_site_fract_y
_atom_site_fract_z
C1 C 0.31501(3) 0.42757(6) 0.54528(3)
C2 C 0.18627(3) 0.40214(7) 0.53602(3)
N1 N 0.34504(3) 0.57628(6) 0.45748(3)
N2 N 0.40526(3) 0.31536(6) 0.61900(3)
H1 H 0.4809(8) 0.3287(18) 0.5969(10)
N3 N 0.11994(3) 0.04240(7) 0.62109(3)
N4 N 0.14357(3) 0.53613(7) 0.44268(3)
N5 N 0.40034(3) 0.32679(6) 0.75058(3)
N6 N 0.10614(3) 0.28156(7) 0.60904(4)
H2 H 0.0306(8) 0.3203(18) 0.6074(10)
O1 O 0.24046(3) 0.64425(6) 0.39276(3)
O2 O 0.49427(3) 0.27791(7) 0.81198(4)
O3 O 0.21926(4) -0.03826(7) 0.60409(4)
O4 O 0.30396(3) 0.37633(8) 0.79386(3)
O5 O 0.03067(4) -0.06524(8) 0.65185(4)
loop_
_geom_bond_atom_site_label_1
_geom_bond_atom_site_label_2
_geom_bond_site_symmetry_1
_geom_bond_site_symmetry_2
C1 C2 1_555 1_555
C2 N4 1_555 1_555
N1 C1 1_555 1_555
N2 C1 1_555 1_555
H1 N2 1_555 1_555
N3 N6 1_555 1_555
N4 O1 1_555 1_555
N5 N2 1_555 1_555
N6 C2 1_555 1_555
H2 N6 1_555 1_555
O1 N1 1_555 1_555
O2 N5 1_555 1_555
O3 N3 1_555 1_555
O4 N5 1_555 1_555
O5 N3 1_555 1_555

#END
