
#######################################################################
#
#                 Cambridge Crystallographic Data Centre
#                                CCDC 
#
#######################################################################
#
# If this CIF has been generated from an entry in the Cambridge 
# Structural Database, then it will include bibliographic, chemical, 
# crystal, experimental, refinement or atomic coordinate data resulting 
# from the CCDC's data processing and validation procedures.
#
#######################################################################

data_ZACSOO
_chemical_formula_moiety         'C2 N6 O5 2-,2(H4 N1 1+),2(H2 O1)'
_chemical_name_systematic        
'bis(ammonium) 1,2,5-oxadiazole-3,4-diylbis(nitroazanide) dihydrate'
_symmetry_cell_setting           triclinic
_symmetry_space_group_name_H-M   'P -1'
_symmetry_Int_Tables_number      2
_space_group_name_Hall           '-P 1'
loop_
_symmetry_equiv_pos_site_id
_symmetry_equiv_pos_as_xyz
1 x,y,z
2 -x,-y,-z
_cell_length_a                   3.7177(2)
_cell_length_b                   9.6263(5)
_cell_length_c                   14.2216(7)
_cell_angle_alpha                82.456(2)
_cell_angle_beta                 89.502(2)
_cell_angle_gamma                86.436(2)
_cell_volume                     503.577
_exptl_crystal_colour            colorless
_exptl_crystal_description       needle
_cell_formula_units_Z            2
loop_
_atom_site_label
_atom_site_type_symbol
_atom_site_fract_x
_atom_site_fract_y
_atom_site_fract_z
O1 O 0.0460(3) 1.03267(11) 0.40316(7)
O2 O 0.2284(3) 1.16080(10) 0.27571(7)
N1 N 0.1914(3) 1.04265(12) 0.32220(9)
N2 N 0.2951(3) 0.92297(12) 0.29185(8)
C1 C 0.4690(3) 0.93184(14) 0.20562(10)
N3 N 0.5980(3) 1.03811(12) 0.15167(9)
O3 O 0.7610(3) 0.98084(10) 0.07536(7)
N4 N 0.7229(3) 0.83749(12) 0.08249(9)
C2 C 0.5465(3) 0.80519(14) 0.16150(10)
N5 N 0.4348(3) 0.67836(12) 0.20545(9)
N6 N 0.4780(3) 0.57216(12) 0.15732(9)
O4 O 0.6073(3) 0.57884(11) 0.07526(7)
O5 O 0.3774(3) 0.45487(10) 0.19824(7)
N7 N -0.0360(3) 0.29681(13) 0.08172(10)
H1 H -0.148(5) 0.225(2) 0.1160(13)
H2 H 0.074(5) 0.2604(19) 0.0293(14)
H3 H -0.188(5) 0.371(2) 0.0614(13)
H4 H 0.111(5) 0.3285(19) 0.1163(14)
N8 N 0.6281(4) 0.77780(15) 0.47672(10)
H5 H 0.501(5) 0.818(2) 0.4340(15)
H6 H 0.783(5) 0.718(2) 0.4492(13)
H7 H 0.491(5) 0.729(2) 0.5251(14)
H8 H 0.728(5) 0.845(2) 0.4989(14)
O6 O 0.7721(3) 0.35549(12) 0.36658(8)
H9 H 0.902(6) 0.290(2) 0.3408(15)
H10 H 0.635(6) 0.389(2) 0.3205(16)
O7 O 1.1137(3) 0.59857(13) 0.39482(9)
H11 H 1.016(6) 0.526(3) 0.3876(15)
H12 H 1.186(6) 0.628(2) 0.3464(17)
loop_
_geom_bond_atom_site_label_1
_geom_bond_atom_site_label_2
_geom_bond_site_symmetry_1
_geom_bond_site_symmetry_2
O1 N1 1_555 1_555
O2 N1 1_555 1_555
N1 N2 1_555 1_555
N2 C1 1_555 1_555
C1 N3 1_555 1_555
N3 O3 1_555 1_555
O3 N4 1_555 1_555
N4 C2 1_555 1_555
C2 C1 1_555 1_555
N5 C2 1_555 1_555
N6 N5 1_555 1_555
O4 N6 1_555 1_555
O5 N6 1_555 1_555
N7 H1 1_555 1_555
H2 N7 1_555 1_555
H3 N7 1_555 1_555
H4 N7 1_555 1_555
N8 H5 1_555 1_555
H6 N8 1_555 1_555
H7 N8 1_555 1_555
H8 N8 1_555 1_555
O6 H9 1_555 1_555
H10 O6 1_555 1_555
O7 H11 1_555 1_555
H12 O7 1_555 1_555

#END
