
#######################################################################
#
#                 Cambridge Crystallographic Data Centre
#                                CCDC 
#
#######################################################################
#
# If this CIF has been generated from an entry in the Cambridge 
# Structural Database, then it will include bibliographic, chemical, 
# crystal, experimental, refinement or atomic coordinate data resulting 
# from the CCDC's data processing and validation procedures.
#
#######################################################################

data_ZADROL
_chemical_formula_moiety         'C47 H34 N6 O2,C4 H8 O1,2(C4 H8 O2),2(H2 O1)'
_chemical_name_systematic        
"N,N'-bis(5,7-Dimethyl-1,8-naphthyridin-2-yl)-9,9'-spirobi(9H-fluorene)-2,2'-dicarboxamide tetrahydrofuran ethyl acetate solvate dihydrate"
_symmetry_cell_setting           monoclinic
_symmetry_space_group_name_H-M   'C 2'
_symmetry_Int_Tables_number      5
_space_group_name_Hall           'C 2y'
loop_
_symmetry_equiv_pos_site_id
_symmetry_equiv_pos_as_xyz
1 x,y,z
2 -x,y,-z
3 1/2+x,1/2+y,z
4 1/2-x,1/2+y,-z
_cell_length_a                   22.442(2)
_cell_length_b                   14.119(2)
_cell_length_c                   17.729(2)
_cell_angle_alpha                90
_cell_angle_beta                 114.92(2)
_cell_angle_gamma                90
_cell_volume                     5094.57
_cell_formula_units_Z            4
loop_
_atom_site_label
_atom_site_type_symbol
_atom_site_fract_x
_atom_site_fract_y
_atom_site_fract_z
C1 C 0.3022(3) 0.3546 0.2914(4)
C2 C 0.2569(3) 0.3057(6) 0.2241(3)
C3 C 0.2055(3) 0.3568(6) 0.1602(4)
C4 C 0.2026(3) 0.4555(6) 0.1661(4)
C5 C 0.2479(3) 0.5041(6) 0.2344(4)
C6 C 0.2971(3) 0.4537(5) 0.2988(4)
C7 C 0.3456(3) 0.4832(6) 0.3798(4)
C8 C 0.3567(3) 0.5712(6) 0.4198(4)
C9 C 0.4018(3) 0.5761(6) 0.5013(4)
C10 C 0.4370(3) 0.4966(6) 0.5442(4)
C11 C 0.4272(3) 0.4095(6) 0.5029(3)
C12 C 0.3822(3) 0.4035(6) 0.4218(3)
C13 C 0.3628(3) 0.3177(6) 0.3646(3)
C14 C 0.3573(3) 0.2255(6) 0.4046(3)
C15 C 0.3137(3) 0.2042(6) 0.4391(4)
C16 C 0.3171(3) 0.1138(6) 0.4731(4)
C17 C 0.3631(3) 0.0471(6) 0.4720(4)
C18 C 0.4060(3) 0.0687(6) 0.4372(4)
C19 C 0.4031(3) 0.1599(6) 0.4042(4)
C20 C 0.4403(3) 0.2013(6) 0.3616(4)
C21 C 0.4913(3) 0.1634(6) 0.3444(4)
C22 C 0.5135(3) 0.2161(6) 0.2944(4)
C23 C 0.4883(3) 0.3062(6) 0.2667(3)
C24 C 0.4403(3) 0.3461(6) 0.2881(3)
C25 C 0.4163(3) 0.2929(6) 0.3351(3)
C26 C 0.5102(3) 0.3655(6) 0.2127(4)
N1 N 0.5351(3) 0.3133(5) 0.1666(3)
C27 C 0.5631(3) 0.3482(6) 0.1151(3)
C28 C 0.5756(3) 0.4461(6) 0.1088(4)
C29 C 0.6045(3) 0.4720(6) 0.0575(4)
C30 C 0.6206(3) 0.4034(6) 0.0120(3)
C31 C 0.6496(3) 0.4225(6) -0.0445(4)
C32 C 0.6638(4) 0.5230(6) -0.0613(5)
C33 C 0.6620(3) 0.3473(6) -0.0840(4)
C34 C 0.6479(3) 0.2524(6) -0.0678(4)
C35 C 0.6633(4) 0.1713(6) -0.1108(4)
N2 N 0.6221(3) 0.2330(5) -0.0152(3)
C36 C 0.6070(3) 0.3075(6) 0.0234(3)
N3 N 0.5792(2) 0.2813(5) 0.0749(3)
C37 C 0.1577(3) 0.2999(6) 0.0904(4)
N4 N 0.1078(2) 0.3498(5) 0.0299(3)
C38 C 0.0572(3) 0.3151(6) -0.0412(3)
C39 C 0.0459(3) 0.2169(6) -0.0603(4)
C40 C -0.0052(3) 0.1912(6) -0.1336(4)
C41 C -0.0464(3) 0.2602(6) -0.1884(4)
C42 C -0.1000(3) 0.2417(6) -0.2653(4)
C43 C -0.1206(4) 0.1407(6) -0.2937(5)
C44 C -0.1332(3) 0.3178(6) -0.3129(4)
C45 C -0.1136(3) 0.4112(6) -0.2834(4)
C46 C -0.1489(3) 0.4944(6) -0.3375(4)
N5 N -0.0658(2) 0.4298(5) -0.2127(3)
C47 C -0.0309(3) 0.3567(6) -0.1630(4)
N6 N 0.0198(3) 0.3822(5) -0.0907(3)
O1 O 0.5059(2) 0.4512(5) 0.2115(3)
O2 O 0.1634(2) 0.2129(5) 0.0884(3)
H1 H 0.2600 0.2382 0.2206
H2 H 0.1689 0.4902 0.1222
H3 H 0.2454 0.5717 0.2375
H4 H 0.3333 0.6266 0.3909
H5 H 0.4093 0.6359 0.5297
H6 H 0.4678 0.5017 0.6015
H7 H 0.4518 0.3547 0.5312
H8 H 0.2822 0.2500 0.4398
H9 H 0.2875 0.0971 0.4973
H10 H 0.3647 -0.0145 0.4958
H11 H 0.4370 0.0228 0.4356
H12 H 0.5104 0.1030 0.3663
H13 H 0.5463 0.1900 0.2791
H14 H 0.4243 0.4091 0.2706
H15 H 0.5640 0.4927 0.1397
H16 H 0.6139 0.5376 0.0528
H17 H 0.6520 0.5658 -0.0278
H18 H 0.6386 0.5374 -0.1190
H19 H 0.7098 0.5295 -0.0479
H20 H 0.6804 0.3581 -0.1232
H21 H 0.6816 0.1950 -0.1472
H22 H 0.6237 0.1369 -0.1426
H23 H 0.6944 0.1300 -0.0702
H24 H 0.0736 0.1698 -0.0228
H25 H -0.0132 0.1253 -0.1478
H26 H -0.0920 0.0972 -0.2529
H27 H -0.1181 0.1301 -0.3458
H28 H -0.1650 0.1309 -0.3006
H29 H -0.1695 0.3077 -0.3659
H30 H -0.1832 0.4717 -0.3883
H31 H -0.1184 0.5314 -0.3501
H32 H -0.1677 0.5330 -0.3085
loop_
_geom_bond_atom_site_label_1
_geom_bond_atom_site_label_2
_geom_bond_site_symmetry_1
_geom_bond_site_symmetry_2
C1 C2 1_555 1_555
C2 C3 1_555 1_555
C3 C4 1_555 1_555
C4 C5 1_555 1_555
C5 C6 1_555 1_555
C6 C1 1_555 1_555
C7 C6 1_555 1_555
C8 C7 1_555 1_555
C9 C8 1_555 1_555
C10 C9 1_555 1_555
C11 C10 1_555 1_555
C12 C7 1_555 1_555
C13 C1 1_555 1_555
C14 C13 1_555 1_555
C15 C14 1_555 1_555
C16 C15 1_555 1_555
C17 C16 1_555 1_555
C18 C17 1_555 1_555
C19 C14 1_555 1_555
C20 C19 1_555 1_555
C21 C20 1_555 1_555
C22 C21 1_555 1_555
C23 C22 1_555 1_555
C24 C23 1_555 1_555
C25 C13 1_555 1_555
C26 C23 1_555 1_555
N1 C26 1_555 1_555
C27 N1 1_555 1_555
C28 C27 1_555 1_555
C29 C28 1_555 1_555
C30 C29 1_555 1_555
C31 C30 1_555 1_555
C32 C31 1_555 1_555
C33 C31 1_555 1_555
C34 C33 1_555 1_555
C35 C34 1_555 1_555
N2 C34 1_555 1_555
C36 C30 1_555 1_555
N3 C27 1_555 1_555
C37 C3 1_555 1_555
N4 C37 1_555 1_555
C38 N4 1_555 1_555
C39 C38 1_555 1_555
C40 C39 1_555 1_555
C41 C40 1_555 1_555
C42 C41 1_555 1_555
C43 C42 1_555 1_555
C44 C42 1_555 1_555
C45 C44 1_555 1_555
C46 C45 1_555 1_555
N5 C45 1_555 1_555
C47 C41 1_555 1_555
N6 C38 1_555 1_555
O1 C26 1_555 1_555
O2 C37 1_555 1_555
H1 C2 1_555 1_555
H2 C4 1_555 1_555
H3 C5 1_555 1_555
H4 C8 1_555 1_555
H5 C9 1_555 1_555
H6 C10 1_555 1_555
H7 C11 1_555 1_555
H8 C15 1_555 1_555
H9 C16 1_555 1_555
H10 C17 1_555 1_555
H11 C18 1_555 1_555
H12 C21 1_555 1_555
H13 C22 1_555 1_555
H14 C24 1_555 1_555
H15 C28 1_555 1_555
H16 C29 1_555 1_555
H17 C32 1_555 1_555
H18 C32 1_555 1_555
H19 C32 1_555 1_555
H20 C33 1_555 1_555
H21 C35 1_555 1_555
H22 C35 1_555 1_555
H23 C35 1_555 1_555
H24 C39 1_555 1_555
H25 C40 1_555 1_555
H26 C43 1_555 1_555
H27 C43 1_555 1_555
H28 C43 1_555 1_555
H29 C44 1_555 1_555
H30 C46 1_555 1_555
H31 C46 1_555 1_555
H32 C46 1_555 1_555
C11 C12 1_555 1_555
C12 C13 1_555 1_555
C18 C19 1_555 1_555
C20 C25 1_555 1_555
C24 C25 1_555 1_555
N2 C36 1_555 1_555
C36 N3 1_555 1_555
N5 C47 1_555 1_555
C47 N6 1_555 1_555

#END
