
#######################################################################
#
#                 Cambridge Crystallographic Data Centre
#                                CCDC 
#
#######################################################################
#
# If this CIF has been generated from an entry in the Cambridge 
# Structural Database, then it will include bibliographic, chemical, 
# crystal, experimental, refinement or atomic coordinate data resulting 
# from the CCDC's data processing and validation procedures.
#
#######################################################################

data_ZADXIL
_chemical_formula_moiety         'C54 H44 O2 Si2'
_chemical_name_systematic        
1,1,5,5-Tetraphenyl-3,7-bis(diphenylmethylene)-1,5-disila-2,8-dioxacyclo-octane
_symmetry_cell_setting           orthorhombic
_symmetry_space_group_name_H-M   'P b c a'
_symmetry_Int_Tables_number      61
_space_group_name_Hall           '-P 2ac 2ab'
loop_
_symmetry_equiv_pos_site_id
_symmetry_equiv_pos_as_xyz
1 x,y,z
2 1/2-x,-y,1/2+z
3 1/2+x,1/2-y,-z
4 -x,1/2+y,1/2-z
5 -x,-y,-z
6 1/2+x,y,1/2-z
7 1/2-x,1/2+y,z
8 x,1/2-y,1/2+z
_cell_length_a                   11.676(4)
_cell_length_b                   23.057(11)
_cell_length_c                   31.850(15)
_cell_angle_alpha                90
_cell_angle_beta                 90
_cell_angle_gamma                90
_cell_volume                     8574.45
_exptl_crystal_colour            colorless
_chemical_melting_point          189-191deg.C
_cell_formula_units_Z            8
loop_
_atom_site_label
_atom_site_type_symbol
_atom_site_fract_x
_atom_site_fract_y
_atom_site_fract_z
Si1 Si -0.0909(2) 0.2449(1) 0.1318(1)
Si2 Si 0.1583(2) 0.1333(1) 0.1260(1)
O1 O 0.0422(4) 0.2595(2) 0.1454(2)
O2 O -0.1064(4) 0.1786(2) 0.1146(2)
C1 C 0.2091(7) 0.3059(3) 0.1206(2)
C2 C 0.1409(7) 0.2592(4) 0.1210(2)
C3 C 0.1548(7) 0.2050(3) 0.0960(2)
C4 C 0.0227(7) 0.1222(4) 0.1577(2)
C5 C -0.0841(7) 0.1250(4) 0.1322(2)
C6 C -0.1527(7) 0.0796(3) 0.1219(2)
C7 C -0.1271(9) 0.2913(4) 0.2119(3)
C8 C -0.1912(10) 0.3035(4) 0.2483(3)
C9 C -0.2991(9) 0.2802(4) 0.2519(3)
C10 C -0.3463(9) 0.2489(4) 0.2212(3)
C11 C -0.2840(8) 0.2366(4) 0.1854(3)
C12 C -0.1731(7) 0.2585(3) 0.1801(2)
C13 C -0.2731(8) 0.1240(4) 0.0637(3)
C14 C -0.3664(8) 0.1207(4) 0.0364(3)
C15 C -0.4396(8) 0.0744(4) 0.0391(3)
C16 C -0.4210(9) 0.0323(4) 0.0675(3)
C17 C -0.3286(8) 0.0345(4) 0.0947(3)
C18 C -0.2529(7) 0.0809(4) 0.0930(2)
C19 C -0.1641(9) 0.0064(4) 0.1805(3)
C20 C -0.1489(9) -0.0499(4) 0.1961(3)
C21 C -0.0968(9) -0.0913(5) 0.1723(3)
C22 C -0.0587(8) -0.0759(4) 0.1330(3)
C23 C -0.0720(7) -0.0206(3) 0.1171(3)
C24 C -0.1263(7) 0.0211(3) 0.1411(2)
C25 C 0.0988(7) 0.0824(4) 0.0481(2)
C26 C 0.2432(8) 0.0302(3) 0.0851(3)
C27 C 0.2535(8) -0.0082(4) 0.0519(3)
C28 C 0.1847(7) -0.0018(4) 0.0174(3)
C29 C 0.1069(7) 0.0431(3) 0.0153(3)
C30 C 0.1656(7) 0.0770(3) 0.0839(2)
C31 C 0.2739(8) 0.1335(4) 0.2052(3)
C32 C 0.3685(8) 0.1294(4) 0.2314(3)
C33 C 0.4743(9) 0.1201(4) 0.2147(3)
C34 C 0.4893(9) 0.1161(4) 0.1720(3)
C35 C 0.3947(7) 0.1207(3) 0.1460(3)
C36 C 0.2847(7) 0.1284(3) 0.1612(2)
C37 C 0.3335(8) 0.3361(4) 0.0614(3)
C38 C 0.4358(9) 0.3338(4) 0.0389(3)
C39 C 0.5217(9) 0.3000(4) 0.0517(3)
C40 C 0.5138(9) 0.2677(4) 0.0871(3)
C41 C 0.4117(8) 0.2694(4) 0.1106(3)
C42 C 0.3206(8) 0.3026(3) 0.0975(3)
C43 C 0.0797(9) 0.3862(4) 0.1442(3)
C44 C 0.0605(9) 0.4378(4) 0.1661(3)
C45 C 0.1491(9) 0.4651(4) 0.1860(3)
C46 C 0.2558(9) 0.4421(4) 0.1844(3)
C47 C 0.2768(8) 0.3905(4) 0.1627(2)
C48 C 0.1872(7) 0.3605(4) 0.1432(2)
C49 C -0.1095(8) 0.2724(4) 0.0454(3)
C50 C -0.1337(7) 0.3074(4) 0.0110(3)
C51 C -0.1848(7) 0.3605(4) 0.0176(3)
C52 C -0.2113(8) 0.3785(4) 0.0576(3)
C53 C -0.1873(7) 0.3438(3) 0.0912(3)
C54 C -0.1337(7) 0.2897(3) 0.0862(2)
H1 H 0.2359 0.2082 0.1002
H2 H 0.1659 0.2062 0.0662
H3 H 0.0188 0.1515 0.1791
H4 H 0.0262 0.0851 0.1714
H5 H -0.0501 0.3055 0.2093
H6 H -0.1605 0.3272 0.2704
H7 H -0.3434 0.2881 0.2766
H8 H -0.4228 0.2344 0.2244
H9 H -0.3166 0.2127 0.1638
H10 H -0.2212 0.1563 0.0618
H11 H -0.3807 0.1511 0.0164
H12 H -0.5026 0.0717 0.0199
H13 H -0.4745 0.0008 0.0695
H14 H -0.3156 0.0041 0.1147
H15 H -0.2019 0.0353 0.1973
H16 H -0.1734 -0.0591 0.2241
H17 H -0.0892 -0.1302 0.1825
H18 H -0.0206 -0.1047 0.1163
H19 H -0.0441 -0.0106 0.0897
H20 H 0.0454 0.1139 0.0464
H21 H 0.2899 0.0249 0.1096
H22 H 0.3082 -0.0393 0.0529
H23 H 0.1919 -0.0281 -0.0058
H24 H 0.0578 0.0465 -0.0088
H25 H 0.2000 0.1409 0.2173
H26 H 0.3594 0.1316 0.2613
H27 H 0.5395 0.1182 0.2330
H28 H 0.5638 0.1087 0.1605
H29 H 0.4057 0.1192 0.1161
H30 H 0.2716 0.3603 0.0522
H31 H 0.4450 0.3571 0.0141
H32 H 0.5907 0.2986 0.0353
H33 H 0.5769 0.2439 0.0958
H34 H 0.4052 0.2473 0.1361
H35 H 0.0177 0.3675 0.1298
H36 H -0.0147 0.4545 0.1670
H37 H 0.1360 0.5001 0.2015
H38 H 0.3176 0.4623 0.1978
H39 H 0.3528 0.3747 0.1616
H40 H -0.0731 0.2355 0.0412
H41 H -0.1159 0.2945 -0.0169
H42 H -0.2019 0.3850 -0.0060
H43 H -0.2460 0.4157 0.0618
H44 H -0.2078 0.3564 0.1189
loop_
_geom_bond_atom_site_label_1
_geom_bond_atom_site_label_2
_geom_bond_site_symmetry_1
_geom_bond_site_symmetry_2
Si1 O1 1_555 1_555
Si2 C3 1_555 1_555
O1 C2 1_555 1_555
O2 Si1 1_555 1_555
C1 C2 1_555 1_555
C2 C3 1_555 1_555
C3 H1 1_555 1_555
C4 Si2 1_555 1_555
C5 O2 1_555 1_555
C6 C5 1_555 1_555
C7 C8 1_555 1_555
C8 C9 1_555 1_555
C9 C10 1_555 1_555
C10 C11 1_555 1_555
C11 C12 1_555 1_555
C12 Si1 1_555 1_555
C13 C14 1_555 1_555
C14 C15 1_555 1_555
C15 C16 1_555 1_555
C16 C17 1_555 1_555
C17 C18 1_555 1_555
C18 C6 1_555 1_555
C19 C20 1_555 1_555
C20 C21 1_555 1_555
C21 C22 1_555 1_555
C22 C23 1_555 1_555
C23 C24 1_555 1_555
C24 C6 1_555 1_555
C25 C29 1_555 1_555
C26 C27 1_555 1_555
C27 C28 1_555 1_555
C28 C29 1_555 1_555
C29 H24 1_555 1_555
C30 Si2 1_555 1_555
C31 C32 1_555 1_555
C32 C33 1_555 1_555
C33 C34 1_555 1_555
C34 C35 1_555 1_555
C35 C36 1_555 1_555
C36 Si2 1_555 1_555
C37 C38 1_555 1_555
C38 C39 1_555 1_555
C39 C40 1_555 1_555
C40 C41 1_555 1_555
C41 C42 1_555 1_555
C42 C1 1_555 1_555
C43 C44 1_555 1_555
C44 C45 1_555 1_555
C45 C46 1_555 1_555
C46 C47 1_555 1_555
C47 C48 1_555 1_555
C48 C1 1_555 1_555
C49 C50 1_555 1_555
C50 C51 1_555 1_555
C51 C52 1_555 1_555
C52 C53 1_555 1_555
C53 C54 1_555 1_555
C54 Si1 1_555 1_555
H2 C3 1_555 1_555
H3 C4 1_555 1_555
H4 C4 1_555 1_555
H5 C7 1_555 1_555
H6 C8 1_555 1_555
H7 C9 1_555 1_555
H8 C10 1_555 1_555
H9 C11 1_555 1_555
H10 C13 1_555 1_555
H11 C14 1_555 1_555
H12 C15 1_555 1_555
H13 C16 1_555 1_555
H14 C17 1_555 1_555
H15 C19 1_555 1_555
H16 C20 1_555 1_555
H17 C21 1_555 1_555
H18 C22 1_555 1_555
H19 C23 1_555 1_555
H20 C25 1_555 1_555
H21 C26 1_555 1_555
H22 C27 1_555 1_555
H23 C28 1_555 1_555
H25 C31 1_555 1_555
H26 C32 1_555 1_555
H27 C33 1_555 1_555
H28 C34 1_555 1_555
H29 C35 1_555 1_555
H30 C37 1_555 1_555
H31 C38 1_555 1_555
H32 C39 1_555 1_555
H33 C40 1_555 1_555
H34 C41 1_555 1_555
H35 C43 1_555 1_555
H36 C44 1_555 1_555
H37 C45 1_555 1_555
H38 C46 1_555 1_555
H39 C47 1_555 1_555
H40 C49 1_555 1_555
H41 C50 1_555 1_555
H42 C51 1_555 1_555
H43 C52 1_555 1_555
H44 C53 1_555 1_555
C4 C5 1_555 1_555
C7 C12 1_555 1_555
C13 C18 1_555 1_555
C19 C24 1_555 1_555
C25 C30 1_555 1_555
C26 C30 1_555 1_555
C31 C36 1_555 1_555
C37 C42 1_555 1_555
C43 C48 1_555 1_555
C49 C54 1_555 1_555

#END
