
#######################################################################
#
#                 Cambridge Crystallographic Data Centre
#                                CCDC 
#
#######################################################################
#
# If this CIF has been generated from an entry in the Cambridge 
# Structural Database, then it will include bibliographic, chemical, 
# crystal, experimental, refinement or atomic coordinate data resulting 
# from the CCDC's data processing and validation procedures.
#
#######################################################################

data_ZAFFAQ
_chemical_formula_moiety         'C23 H28 N4'
_chemical_name_systematic        
2-((1,3-diisopropyl-1,3-dihydro-2H-benzimidazol-2-ylidene)methylene)-1,3-dimethyl-2,3-dihydro-1H-benzimidazole
_symmetry_cell_setting           monoclinic
_symmetry_space_group_name_H-M   'P 21/c'
_symmetry_Int_Tables_number      14
_space_group_name_Hall           '-P 2ybc'
loop_
_symmetry_equiv_pos_site_id
_symmetry_equiv_pos_as_xyz
1 x,y,z
2 -x,1/2+y,1/2-z
3 -x,-y,-z
4 x,1/2-y,1/2+z
_cell_length_a                   8.9679(3)
_cell_length_b                   13.5843(5)
_cell_length_c                   16.2841(6)
_cell_angle_alpha                90
_cell_angle_beta                 96.5624(19)
_cell_angle_gamma                90
_cell_volume                     1970.77
_exptl_crystal_colour            colorless
_exptl_crystal_description       prism
_cell_formula_units_Z            4
_exptl_crystal_recrystallization_method toluene/hexane
loop_
_atom_site_label
_atom_site_type_symbol
_atom_site_fract_x
_atom_site_fract_y
_atom_site_fract_z
N1 N 0.08820(11) 0.35258(7) 0.29793(6)
N2 N 0.26549(11) 0.35032(7) 0.40414(6)
N3 N 0.25559(11) 0.63459(7) 0.40475(6)
N4 N 0.41641(11) 0.64062(7) 0.31069(6)
C1 C 0.26060(13) 0.49265(9) 0.30908(7)
C2 C 0.20793(12) 0.40780(9) 0.33629(7)
C3 C -0.01001(16) 0.38766(11) 0.22760(9)
C4 C 0.07300(13) 0.26493(8) 0.33923(7)
C5 C -0.02988(14) 0.18921(9) 0.32601(8)
C6 C -0.01685(15) 0.11127(9) 0.38216(9)
C7 C 0.09650(16) 0.10840(10) 0.44719(9)
C8 C 0.20111(15) 0.18482(9) 0.46055(8)
C9 C 0.18615(13) 0.26282(8) 0.40611(7)
C10 C 0.39689(14) 0.37619(10) 0.45934(8)
C11 C 0.30936(12) 0.57966(9) 0.34127(7)
C12 C 0.13322(13) 0.59945(9) 0.44937(7)
C13 C 0.17235(15) 0.60645(10) 0.54243(8)
C14 C -0.01339(14) 0.65018(11) 0.41783(9)
C15 C 0.31474(13) 0.72939(9) 0.40662(7)
C16 C 0.28854(14) 0.81146(9) 0.45315(8)
C17 C 0.37363(16) 0.89574(9) 0.44295(8)
C18 C 0.48000(17) 0.89728(9) 0.38798(8)
C19 C 0.50459(15) 0.81582(9) 0.33890(8)
C20 C 0.41979(13) 0.73204(8) 0.34848(7)
C21 C 0.49797(13) 0.60934(9) 0.24250(7)
C22 C 0.66609(15) 0.60340(11) 0.26845(9)
C23 C 0.45984(15) 0.67322(10) 0.16643(8)
H1 H 0.57509(15) 0.81769(9) 0.30125(8)
H2 H 0.53669(17) 0.95395(9) 0.38352(8)
H3 H 0.35840(16) 0.95179(9) 0.47370(8)
H4 H 0.21663(14) 0.81054(9) 0.49001(8)
H5 H 0.27744(15) 0.18305(9) 0.50429(8)
H6 H 0.10338(16) 0.05463(10) 0.48278(9)
H7 H -0.08603(15) 0.06006(9) 0.37567(9)
H8 H -0.10473(14) 0.19018(9) 0.28150(8)
H9 H 0.46395(13) 0.54251(9) 0.22746(7)
H10 H 0.2641(6) 0.5715(6) 0.55845(10)
H11 H 0.1847(11) 0.67432(11) 0.55819(10)
H12 H 0.0930(5) 0.5780(6) 0.56946(8)
H13 H 0.4506(6) 0.4276(5) 0.4350(3)
H14 H 0.36705(15) 0.3986(7) 0.5109(2)
H15 H 0.4605(5) 0.3195(2) 0.4689(5)
H16 H 0.11994(13) 0.52938(9) 0.43621(7)
H17 H 0.7041(2) 0.66787(16) 0.2831(6)
H18 H 0.68510(16) 0.5603(6) 0.3152(4)
H19 H 0.71519(19) 0.5783(7) 0.2234(2)
H20 H -0.0055(4) 0.71930(17) 0.4298(6)
H21 H -0.0336(6) 0.6408(6) 0.35917(13)
H22 H -0.0937(2) 0.6224(5) 0.4446(5)
H23 H -0.0255(10) 0.45718(18) 0.2330(3)
H24 H 0.0348(6) 0.3749(7) 0.17788(10)
H25 H -0.1047(4) 0.3542(6) 0.2251(4)
H26 H 0.35317(18) 0.6732(6) 0.1514(4)
H27 H 0.4936(10) 0.73930(19) 0.1783(2)
H28 H 0.5087(9) 0.6475(4) 0.12153(18)
loop_
_geom_bond_atom_site_label_1
_geom_bond_atom_site_label_2
_geom_bond_site_symmetry_1
_geom_bond_site_symmetry_2
N1 C2 1_555 1_555
N2 C2 1_555 1_555
N3 C11 1_555 1_555
N4 C11 1_555 1_555
C1 C2 1_555 1_555
C3 N1 1_555 1_555
C4 N1 1_555 1_555
C5 C4 1_555 1_555
C6 C5 1_555 1_555
C7 C6 1_555 1_555
C8 C7 1_555 1_555
C9 N2 1_555 1_555
C10 N2 1_555 1_555
C11 C1 1_555 1_555
C12 N3 1_555 1_555
C13 C12 1_555 1_555
C14 C12 1_555 1_555
C15 N3 1_555 1_555
C16 C15 1_555 1_555
C17 C16 1_555 1_555
C18 C17 1_555 1_555
C19 C18 1_555 1_555
C20 N4 1_555 1_555
C21 N4 1_555 1_555
C22 C21 1_555 1_555
C23 C21 1_555 1_555
H1 C19 1_555 1_555
H2 C18 1_555 1_555
H3 C17 1_555 1_555
H4 C16 1_555 1_555
H5 C8 1_555 1_555
H6 C7 1_555 1_555
H7 C6 1_555 1_555
H8 C5 1_555 1_555
H9 C21 1_555 1_555
H10 C13 1_555 1_555
H11 C13 1_555 1_555
H12 C13 1_555 1_555
H13 C10 1_555 1_555
H14 C10 1_555 1_555
H15 C10 1_555 1_555
H16 C12 1_555 1_555
H17 C22 1_555 1_555
H18 C22 1_555 1_555
H19 C22 1_555 1_555
H20 C14 1_555 1_555
H21 C14 1_555 1_555
H22 C14 1_555 1_555
H23 C3 1_555 1_555
H24 C3 1_555 1_555
H25 C3 1_555 1_555
H26 C23 1_555 1_555
H27 C23 1_555 1_555
H28 C23 1_555 1_555
C4 C9 1_555 1_555
C8 C9 1_555 1_555
C15 C20 1_555 1_555
C19 C20 1_555 1_555

#END
