
#######################################################################
#
#                 Cambridge Crystallographic Data Centre
#                                CCDC 
#
#######################################################################
#
# If this CIF has been generated from an entry in the Cambridge 
# Structural Database, then it will include bibliographic, chemical, 
# crystal, experimental, refinement or atomic coordinate data resulting 
# from the CCDC's data processing and validation procedures.
#
#######################################################################

data_ZAFNEC
_chemical_formula_moiety         'C34 H29 N1 O3 S1'
_chemical_name_systematic        
4-methyl-N-(1-methyl-5-methylene-3,6-diphenyl-5,6-dihydro-4H-cyclopenta[c]furan-4-yl)-N-phenylbenzenesulfonamide
_symmetry_cell_setting           monoclinic
_symmetry_space_group_name_H-M   'P 21'
_symmetry_Int_Tables_number      4
_space_group_name_Hall           'P 2yb'
loop_
_symmetry_equiv_pos_site_id
_symmetry_equiv_pos_as_xyz
1 x,y,z
2 -x,1/2+y,-z
_cell_length_a                   9.8912(4)
_cell_length_b                   14.6519(6)
_cell_length_c                   10.5029(4)
_cell_angle_alpha                90
_cell_angle_beta                 115.4440(10)
_cell_angle_gamma                90
_cell_volume                     1374.49
_exptl_crystal_colour            colorless
_exptl_crystal_description       block
_cell_formula_units_Z            2
loop_
_atom_site_label
_atom_site_type_symbol
_atom_site_fract_x
_atom_site_fract_y
_atom_site_fract_z
S1 S 0.19578(6) 0.57273(4) 0.15099(6)
O1 O 0.27313(19) 0.50064(11) 0.11639(17)
O2 O 0.07500(17) 0.54924(12) 0.18504(17)
O3 O 0.38803(16) 0.82710(10) 0.65342(15)
N1 N 0.31205(19) 0.63500(13) 0.28338(19)
C1 C 0.4957(2) 0.76267(15) 0.7295(2)
C2 C 0.4779(2) 0.68939(15) 0.6456(2)
C3 C 0.5469(2) 0.59676(14) 0.6507(2)
H1 H 0.6395 0.6051 0.6358
C4 C 0.4270(2) 0.55168(15) 0.5183(2)
C5 C 0.3124(2) 0.62201(15) 0.4239(2)
H2 H 0.2102 0.6020 0.4096
C6 C 0.3536(2) 0.70616(15) 0.5147(2)
C7 C 0.3014(2) 0.79095(16) 0.5209(2)
C8 C 0.1813(2) 0.84916(15) 0.4246(2)
C9 C 0.0911(2) 0.81966(17) 0.2880(2)
H3 H 0.1101 0.7622 0.2570
C10 C -0.0255(3) 0.87281(18) 0.1974(3)
H4 H -0.0863 0.8516 0.1047
C11 C -0.0545(3) 0.95638(18) 0.2400(3)
H5 H -0.1358 0.9925 0.1776
C12 C 0.0357(3) 0.98751(18) 0.3749(3)
H6 H 0.0168 1.0453 0.4050
C13 C 0.1528(3) 0.93456(17) 0.4651(3)
H7 H 0.2151 0.9569 0.5567
C14 C 0.5876(2) 0.54267(15) 0.7851(2)
C15 C 0.4893(3) 0.53768(16) 0.8476(2)
H8 H 0.3954 0.5680 0.8050
C16 C 0.5262(3) 0.48934(17) 0.9706(3)
H9 H 0.4582 0.4865 1.0125
C17 C 0.6631(3) 0.44479(17) 1.0331(3)
H10 H 0.6897 0.4122 1.1187
C18 C 0.7604(3) 0.44781(17) 0.9708(3)
H11 H 0.8532 0.4161 1.0121
C19 C 0.7226(2) 0.49721(16) 0.8477(3)
H12 H 0.7906 0.4998 0.8058
C20 C 0.4216(3) 0.46442(17) 0.4884(3)
H13 H 0.4956 0.4241 0.5509
H14 H 0.3437 0.4415 0.4042
C21 C 0.5910(3) 0.78481(17) 0.8793(2)
H15 H 0.6629 0.7353 0.9225
H16 H 0.5280 0.7920 0.9295
H17 H 0.6452 0.8418 0.8850
C22 C 0.4500(2) 0.66494(15) 0.2795(2)
C23 C 0.5609(2) 0.60340(17) 0.2895(2)
H18 H 0.5478 0.5399 0.2989
C24 C 0.6910(3) 0.6356(2) 0.2855(3)
H19 H 0.7666 0.5940 0.2898
C25 C 0.7105(3) 0.7282(2) 0.2752(3)
H20 H 0.8007 0.7502 0.2749
C26 C 0.6009(3) 0.78871(19) 0.2657(3)
H21 H 0.6148 0.8522 0.2576
C27 C 0.4695(3) 0.75720(16) 0.2677(2)
H22 H 0.3933 0.7990 0.2609
C28 C 0.1305(2) 0.64873(16) 0.0069(2)
C29 C 0.2192(3) 0.66935(16) -0.0615(2)
H23 H 0.3182 0.6461 -0.0271
C30 C 0.1625(3) 0.72397(16) -0.1801(3)
H24 H 0.2233 0.7380 -0.2271
C31 C 0.0176(3) 0.75886(18) -0.2319(3)
C32 C -0.0687(3) 0.73676(19) -0.1614(3)
H25 H -0.1679 0.7597 -0.1956
C33 C -0.0137(2) 0.68225(18) -0.0428(2)
H26 H -0.0744 0.6679 0.0042
C34 C -0.0441(3) 0.8200(2) -0.3592(3)
H27 H -0.1474 0.8368 -0.3800
H28 H -0.0422 0.7878 -0.4403
H29 H 0.0173 0.8753 -0.3403
loop_
_geom_bond_atom_site_label_1
_geom_bond_atom_site_label_2
_geom_bond_site_symmetry_1
_geom_bond_site_symmetry_2
S1 O1 1_555 1_555
O2 S1 1_555 1_555
O3 C1 1_555 1_555
N1 S1 1_555 1_555
C1 C2 1_555 1_555
C2 C3 1_555 1_555
C3 H1 1_555 1_555
C4 C3 1_555 1_555
C5 N1 1_555 1_555
H2 C5 1_555 1_555
C6 C2 1_555 1_555
C7 O3 1_555 1_555
C8 C7 1_555 1_555
C9 C8 1_555 1_555
H3 C9 1_555 1_555
C10 C9 1_555 1_555
H4 C10 1_555 1_555
C11 C10 1_555 1_555
H5 C11 1_555 1_555
C12 C11 1_555 1_555
H6 C12 1_555 1_555
C13 C8 1_555 1_555
H7 C13 1_555 1_555
C14 C3 1_555 1_555
C15 C14 1_555 1_555
H8 C15 1_555 1_555
C16 C15 1_555 1_555
H9 C16 1_555 1_555
C17 C16 1_555 1_555
H10 C17 1_555 1_555
C18 C17 1_555 1_555
H11 C18 1_555 1_555
C19 C14 1_555 1_555
H12 C19 1_555 1_555
C20 C4 1_555 1_555
H13 C20 1_555 1_555
H14 C20 1_555 1_555
C21 C1 1_555 1_555
H15 C21 1_555 1_555
H16 C21 1_555 1_555
H17 C21 1_555 1_555
C22 N1 1_555 1_555
C23 C22 1_555 1_555
H18 C23 1_555 1_555
C24 C23 1_555 1_555
H19 C24 1_555 1_555
C25 C24 1_555 1_555
H20 C25 1_555 1_555
C26 C25 1_555 1_555
H21 C26 1_555 1_555
C27 C22 1_555 1_555
H22 C27 1_555 1_555
C28 S1 1_555 1_555
C29 C28 1_555 1_555
H23 C29 1_555 1_555
C30 C29 1_555 1_555
H24 C30 1_555 1_555
C31 C30 1_555 1_555
C32 C31 1_555 1_555
H25 C32 1_555 1_555
C33 C28 1_555 1_555
H26 C33 1_555 1_555
C34 C31 1_555 1_555
H27 C34 1_555 1_555
H28 C34 1_555 1_555
H29 C34 1_555 1_555
C4 C5 1_555 1_555
C5 C6 1_555 1_555
C6 C7 1_555 1_555
C12 C13 1_555 1_555
C18 C19 1_555 1_555
C26 C27 1_555 1_555
C32 C33 1_555 1_555

#END
