
#######################################################################
#
#                 Cambridge Crystallographic Data Centre
#                                CCDC 
#
#######################################################################
#
# If this CIF has been generated from an entry in the Cambridge 
# Structural Database, then it will include bibliographic, chemical, 
# crystal, experimental, refinement or atomic coordinate data resulting 
# from the CCDC's data processing and validation procedures.
#
#######################################################################

data_ZAHDUK
_chemical_formula_moiety         'C35 H63 F3 N4 O6'
_chemical_name_systematic        
't-butyl 2-ethyl-2-((N-(2-ethyl-2-((2-ethyl-2-((trifluoroacetyl)amino)heptanoyl)amino)butanoyl)-2-propylnorvalyl)amino)butanoate'
_symmetry_cell_setting           orthorhombic
_symmetry_space_group_name_H-M   'P 21 21 21'
_symmetry_Int_Tables_number      19
_space_group_name_Hall           'P 2ac 2ab'
loop_
_symmetry_equiv_pos_site_id
_symmetry_equiv_pos_as_xyz
1 x,y,z
2 1/2-x,-y,1/2+z
3 1/2+x,1/2-y,-z
4 -x,1/2+y,1/2-z
_cell_length_a                   10.9482(3)
_cell_length_b                   15.8709(6)
_cell_length_c                   24.4480(9)
_cell_angle_alpha                90
_cell_angle_beta                 90
_cell_angle_gamma                90
_cell_volume                     4248.03
_exptl_crystal_colour            colorless
_exptl_crystal_description       rod
_cell_formula_units_Z            4
loop_
_atom_site_label
_atom_site_type_symbol
_atom_site_fract_x
_atom_site_fract_y
_atom_site_fract_z
C1 C -0.0195(7) 0.3765(5) -0.1575(3)
F1 F 0.0294(10) 0.4228(7) -0.1972(5)
F2 F -0.0332(15) 0.4290(8) -0.1150(4)
F3 F -0.1296(10) 0.3536(7) -0.1744(7)
C2 C 0.0622(11) 0.3063(5) -0.1382(4)
O1 O 0.1712(6) 0.3184(4) -0.1358(4)
N1 N 0.0039(6) 0.2355(3) -0.1262(2)
H1 H -0.0738 0.2349 -0.1313
C3 C 0.0597(6) 0.1585(4) -0.1051(3)
C4 C 0.1238(7) 0.1749(5) -0.0508(3)
H2 H 0.1535 0.1216 -0.0367
H3 H 0.1943 0.2104 -0.0577
C5 C 0.0473(9) 0.2158(5) -0.0078(3)
H4 H -0.0273 0.1836 -0.0033
H5 H 0.0249 0.2719 -0.0200
C6 C 0.1115(11) 0.2226(8) 0.0476(4)
H6 H 0.1832 0.2581 0.0442
H7 H 0.1380 0.1672 0.0594
C7 C 0.0234(14) 0.2605(10) 0.0906(5)
H8 H 0.0186 0.3211 0.0857
H9 H -0.0578 0.2373 0.0855
C8 C 0.067(2) 0.2412(14) 0.1466(7)
H10 H 0.0772 0.1814 0.1504
H11 H 0.0081 0.2608 0.1728
H12 H 0.1437 0.2688 0.1528
C9 C 0.1473(6) 0.1218(4) -0.1476(3)
H13 H 0.2186 0.1580 -0.1495
H14 H 0.1746 0.0672 -0.1347
C10 C 0.0977(8) 0.1111(6) -0.2045(3)
H15 H 0.0125 0.0972 -0.2027
H16 H 0.1411 0.0666 -0.2227
H17 H 0.1079 0.1627 -0.2245
C11 C -0.0510(6) 0.0981(4) -0.0977(3)
O2 O -0.1526(4) 0.1177(3) -0.1141(2)
N2 N -0.0259(4) 0.0248(3) -0.07331(18)
H18 H 0.0477 0.0184 -0.0617
C12 C -0.1097(5) -0.0458(3) -0.0641(2)
C13 C -0.2202(5) -0.0200(4) -0.0303(3)
H19 H -0.2691 0.0189 -0.0517
H20 H -0.2696 -0.0696 -0.0235
C14 C -0.1907(8) 0.0206(5) 0.0235(3)
H21 H -0.1622 -0.0215 0.0486
H22 H -0.2628 0.0468 0.0379
H23 H -0.1284 0.0623 0.0183
C15 C -0.1523(7) -0.0820(4) -0.1195(3)
H24 H -0.2055 -0.1297 -0.1125
H25 H -0.2003 -0.0395 -0.1381
C16 C -0.0513(9) -0.1103(5) -0.1573(3)
H26 H -0.0184 -0.0623 -0.1761
H27 H -0.0834 -0.1496 -0.1834
H28 H 0.0120 -0.1369 -0.1363
C17 C -0.0345(5) -0.1114(3) -0.0341(2)
O3 O 0.0767(3) -0.0996(2) -0.02569(15)
N3 N -0.0873(4) -0.1840(2) -0.01914(16)
H29 H -0.1656 -0.1878 -0.0207
C18 C -0.0167(4) -0.2580(3) -0.00010(19)
C19 C 0.0631(5) -0.2909(3) -0.04687(19)
H30 H 0.1140 -0.2451 -0.0599
H31 H 0.1169 -0.3342 -0.0325
C20 C -0.0067(5) -0.3271(4) -0.0951(2)
H32 H -0.0460 -0.3791 -0.0838
H33 H -0.0703 -0.2878 -0.1057
C21 C 0.0731(7) -0.3448(6) -0.1441(3)
H34 H 0.1095 -0.2932 -0.1565
H35 H 0.0244 -0.3686 -0.1729
H36 H 0.1361 -0.3839 -0.1340
C22 C -0.1101(4) -0.3242(3) 0.0193(2)
H37 H -0.1594 -0.2997 0.0482
H38 H -0.1642 -0.3376 -0.0109
C23 C -0.0533(5) -0.4056(3) 0.0403(3)
H39 H -0.0059 -0.4311 0.0112
H40 H 0.0023 -0.3923 0.0700
C24 C -0.1459(6) -0.4682(4) 0.0603(4)
H41 H -0.1904 -0.4446 0.0905
H42 H -0.1050 -0.5186 0.0721
H43 H -0.2015 -0.4816 0.0312
C25 C 0.0606(5) -0.2338(3) 0.0501(2)
O4 O 0.1642(3) -0.2647(2) 0.05653(13)
N4 N 0.0057(4) -0.1850(3) 0.08690(16)
H44 H -0.0632 -0.1634 0.0774
C26 C 0.0493(5) -0.1640(4) 0.1414(2)
C27 C 0.0523(8) -0.2442(5) 0.1772(3)
H45 H 0.1065 -0.2850 0.1604
H46 H 0.0856 -0.2300 0.2128
C28 C -0.0737(9) -0.2842(5) 0.1848(4)
H47 H -0.1281 -0.2439 0.2011
H48 H -0.0668 -0.3325 0.2083
H49 H -0.1053 -0.3014 0.1499
C29 C 0.1726(6) -0.1185(6) 0.1398(3)
H50 H 0.1971 -0.1053 0.1769
H51 H 0.2332 -0.1563 0.1245
C30 C 0.1714(7) -0.0379(5) 0.1066(4)
H52 H 0.1575 -0.0511 0.0688
H53 H 0.2486 -0.0098 0.1104
H54 H 0.1074 -0.0018 0.1196
C31 C -0.0463(6) -0.1045(4) 0.1640(2)
O5 O -0.1377(4) -0.0843(3) 0.14031(17)
O6 O -0.0194(4) -0.0806(3) 0.21471(16)
C32 C -0.1005(7) -0.0246(6) 0.2475(3)
C33 C -0.0289(8) -0.0169(6) 0.3006(3)
H55 H 0.0526 0.0019 0.2928
H56 H -0.0257 -0.0708 0.3184
H57 H -0.0683 0.0231 0.3242
C34 C -0.1135(10) 0.0582(6) 0.2198(4)
H58 H -0.0340 0.0815 0.2129
H59 H -0.1590 0.0959 0.2427
H60 H -0.1559 0.0508 0.1857
C35 C -0.2217(7) -0.0698(7) 0.2570(3)
H61 H -0.2672 -0.0409 0.2848
H62 H -0.2062 -0.1267 0.2684
H63 H -0.2678 -0.0703 0.2236
F4? F -0.030(3) 0.369(2) -0.2117(4)
F5? F 0.027(2) 0.4514(9) -0.1463(16)
F6? F -0.1322(12) 0.3727(15) -0.1377(11)
loop_
_geom_bond_atom_site_label_1
_geom_bond_atom_site_label_2
_geom_bond_site_symmetry_1
_geom_bond_site_symmetry_2
C1 F1 1_555 1_555
F2 C1 1_555 1_555
F3 C1 1_555 1_555
C2 C1 1_555 1_555
O1 C2 1_555 1_555
N1 C2 1_555 1_555
H1 N1 1_555 1_555
C3 N1 1_555 1_555
C4 C3 1_555 1_555
H2 C4 1_555 1_555
H3 C4 1_555 1_555
C5 C4 1_555 1_555
H4 C5 1_555 1_555
H5 C5 1_555 1_555
C6 C5 1_555 1_555
H6 C6 1_555 1_555
H7 C6 1_555 1_555
C7 C6 1_555 1_555
H8 C7 1_555 1_555
H9 C7 1_555 1_555
C8 C7 1_555 1_555
H10 C8 1_555 1_555
H11 C8 1_555 1_555
H12 C8 1_555 1_555
C9 C3 1_555 1_555
H13 C9 1_555 1_555
H14 C9 1_555 1_555
C10 C9 1_555 1_555
H15 C10 1_555 1_555
H16 C10 1_555 1_555
H17 C10 1_555 1_555
C11 C3 1_555 1_555
O2 C11 1_555 1_555
N2 C11 1_555 1_555
H18 N2 1_555 1_555
C12 N2 1_555 1_555
C13 C12 1_555 1_555
H19 C13 1_555 1_555
H20 C13 1_555 1_555
C14 C13 1_555 1_555
H21 C14 1_555 1_555
H22 C14 1_555 1_555
H23 C14 1_555 1_555
C15 C12 1_555 1_555
H24 C15 1_555 1_555
H25 C15 1_555 1_555
C16 C15 1_555 1_555
H26 C16 1_555 1_555
H27 C16 1_555 1_555
H28 C16 1_555 1_555
C17 C12 1_555 1_555
O3 C17 1_555 1_555
N3 C17 1_555 1_555
H29 N3 1_555 1_555
C18 N3 1_555 1_555
C19 C18 1_555 1_555
H30 C19 1_555 1_555
H31 C19 1_555 1_555
C20 C19 1_555 1_555
H32 C20 1_555 1_555
H33 C20 1_555 1_555
C21 C20 1_555 1_555
H34 C21 1_555 1_555
H35 C21 1_555 1_555
H36 C21 1_555 1_555
C22 C18 1_555 1_555
H37 C22 1_555 1_555
H38 C22 1_555 1_555
C23 C22 1_555 1_555
H39 C23 1_555 1_555
H40 C23 1_555 1_555
C24 C23 1_555 1_555
H41 C24 1_555 1_555
H42 C24 1_555 1_555
H43 C24 1_555 1_555
C25 C18 1_555 1_555
O4 C25 1_555 1_555
N4 C25 1_555 1_555
H44 N4 1_555 1_555
C26 N4 1_555 1_555
C27 C26 1_555 1_555
H45 C27 1_555 1_555
H46 C27 1_555 1_555
C28 C27 1_555 1_555
H47 C28 1_555 1_555
H48 C28 1_555 1_555
H49 C28 1_555 1_555
C29 C26 1_555 1_555
H50 C29 1_555 1_555
H51 C29 1_555 1_555
C30 C29 1_555 1_555
H52 C30 1_555 1_555
H53 C30 1_555 1_555
H54 C30 1_555 1_555
C31 C26 1_555 1_555
O5 C31 1_555 1_555
O6 C31 1_555 1_555
C32 O6 1_555 1_555
C33 C32 1_555 1_555
H55 C33 1_555 1_555
H56 C33 1_555 1_555
H57 C33 1_555 1_555
C34 C32 1_555 1_555
H58 C34 1_555 1_555
H59 C34 1_555 1_555
H60 C34 1_555 1_555
C35 C32 1_555 1_555
H61 C35 1_555 1_555
H62 C35 1_555 1_555
H63 C35 1_555 1_555

#END
