
#######################################################################
#
#                 Cambridge Crystallographic Data Centre
#                                CCDC 
#
#######################################################################
#
# If this CIF has been generated from an entry in the Cambridge 
# Structural Database, then it will include bibliographic, chemical, 
# crystal, experimental, refinement or atomic coordinate data resulting 
# from the CCDC's data processing and validation procedures.
#
#######################################################################

data_ZAHREI
_chemical_formula_moiety         'C7 H17 N2 O1 1+,B1 F4 1-'
_chemical_name_systematic        
'3-(morpholin-4-yl)propan-1-aminium tetrafluoroborate'
_symmetry_cell_setting           monoclinic
_symmetry_space_group_name_H-M   'P 21/c'
_symmetry_Int_Tables_number      14
_space_group_name_Hall           '-P 2ybc'
loop_
_symmetry_equiv_pos_site_id
_symmetry_equiv_pos_as_xyz
1 x,y,z
2 -x,1/2+y,1/2-z
3 -x,-y,-z
4 x,1/2-y,1/2+z
_cell_length_a                   9.978(2)
_cell_length_b                   7.5206(15)
_cell_length_c                   15.058(3)
_cell_angle_alpha                90
_cell_angle_beta                 96.99(3)
_cell_angle_gamma                90
_cell_volume                     1121.56
_cell_formula_units_Z            4
loop_
_atom_site_label
_atom_site_type_symbol
_atom_site_fract_x
_atom_site_fract_y
_atom_site_fract_z
O1 O 0.8663(2) 0.1478(3) -0.06385(13)
N1 N 0.7053(2) 0.2558(3) 0.07119(14)
N2 N 0.8097(2) 0.3949(3) 0.24682(15)
H1 H 0.8522 0.3707 0.3009
H2 H 0.8448 0.4926 0.2256
H3 H 0.8196 0.3041 0.2103
C1 C 0.5752(3) 0.3112(5) 0.0981(2)
H4 H 0.5351 0.2111 0.1257
H5 H 0.5152 0.3437 0.0450
C2 C 0.7563(3) 0.3827(4) 0.0090(2)
H6 H 0.7720 0.4970 0.0383
H7 H 0.6893 0.3988 -0.0427
C3 C 0.8853(3) 0.3160(5) -0.0207(2)
H8 H 0.9175 0.4011 -0.0616
H9 H 0.9533 0.3053 0.0308
C4 C 0.8202(3) 0.0221(4) -0.0031(2)
H10 H 0.8879 0.0085 0.0484
H11 H 0.8071 -0.0927 -0.0323
C5 C 0.6899(3) 0.0827(4) 0.0272(2)
H12 H 0.6212 0.0905 -0.0241
H13 H 0.6604 -0.0040 0.0684
C6 C 0.5857(3) 0.4666(5) 0.1627(2)
H14 H 0.4955 0.5044 0.1718
H15 H 0.6293 0.5652 0.1362
C7 C 0.6643(3) 0.4236(5) 0.2530(2)
H16 H 0.6542 0.5206 0.2941
H17 H 0.6269 0.3174 0.2769
F1 F 0.1597(3) 0.2681(3) 0.30996(18)
F2 F 0.1695(5) 0.2888(4) 0.16356(19)
F3 F 0.2997(3) 0.4538(7) 0.2564(2)
F4 F 0.0920(3) 0.5170(4) 0.2376(3)
B1 B 0.1794(4) 0.3779(5) 0.2395(3)
loop_
_geom_bond_atom_site_label_1
_geom_bond_atom_site_label_2
_geom_bond_site_symmetry_1
_geom_bond_site_symmetry_2
O1 C3 1_555 1_555
N1 C1 1_555 1_555
N2 H1 1_555 1_555
H2 N2 1_555 1_555
H3 N2 1_555 1_555
C1 H4 1_555 1_555
H5 C1 1_555 1_555
C2 N1 1_555 1_555
H6 C2 1_555 1_555
H7 C2 1_555 1_555
C3 C2 1_555 1_555
H8 C3 1_555 1_555
H9 C3 1_555 1_555
C4 O1 1_555 1_555
H10 C4 1_555 1_555
H11 C4 1_555 1_555
C5 N1 1_555 1_555
H12 C5 1_555 1_555
H13 C5 1_555 1_555
C6 C1 1_555 1_555
H14 C6 1_555 1_555
H15 C6 1_555 1_555
C7 N2 1_555 1_555
H16 C7 1_555 1_555
H17 C7 1_555 1_555
F1 B1 1_555 1_555
F2 B1 1_555 1_555
F3 B1 1_555 1_555
F4 B1 1_555 1_555
C4 C5 1_555 1_555
C6 C7 1_555 1_555

#END
