
#######################################################################
#
#                 Cambridge Crystallographic Data Centre
#                                CCDC 
#
#######################################################################
#
# If this CIF has been generated from an entry in the Cambridge 
# Structural Database, then it will include bibliographic, chemical, 
# crystal, experimental, refinement or atomic coordinate data resulting 
# from the CCDC's data processing and validation procedures.
#
#######################################################################

data_ZAMDOJ
_chemical_formula_moiety         'C96 H120 O8 Si4,2(C1 H2 Cl2)'
_chemical_name_systematic        
'(53,54,61,62-tetraoxatridecacyclo[40.6.2.2^2,5^.2^14,17^.2^18,25^.2^26,29^.2^38,41^.1^6,9^.1^10,13^.1^30,33^.1^34,37^.0^19,24^.0^43,48^]tetrahexaconta-2,4,6,8,10,12,14,16,19,21,23,26,28,30,32,34,36,38,40,43,45,47,49,51,55,57,59,63-octacosaene-20,23,44,47-tetrayltetrakis(oxy))tetrakis(triisopropylsilane) dichloromethane solvate'
_symmetry_cell_setting           triclinic
_symmetry_space_group_name_H-M   'P -1'
_symmetry_Int_Tables_number      2
_space_group_name_Hall           '-P 1'
loop_
_symmetry_equiv_pos_site_id
_symmetry_equiv_pos_as_xyz
1 x,y,z
2 -x,-y,-z
_cell_length_a                   12.6079(7)
_cell_length_b                   12.8788(7)
_cell_length_c                   14.2249(8)
_cell_angle_alpha                87.7467(15)
_cell_angle_beta                 82.0261(14)
_cell_angle_gamma                82.0141(16)
_cell_volume                     2264.77
_exptl_crystal_colour            colorless
_exptl_crystal_description       parallelepiped
_cell_formula_units_Z            1
loop_
_atom_site_label
_atom_site_type_symbol
_atom_site_fract_x
_atom_site_fract_y
_atom_site_fract_z
Si1 Si 1.02024(6) -0.22719(5) 0.35871(5)
Si2 Si 1.24786(6) 0.27142(6) 0.09507(6)
O1 O 0.97654(14) -0.10130(13) 0.33914(13)
O2 O 1.14073(14) 0.20790(13) 0.10554(13)
O3 O 0.63738(14) 0.52223(13) 0.32539(13)
O4 O 0.46827(14) 0.70840(13) 0.48340(13)
C1 C 1.0205(2) -0.02529(18) 0.28162(18)
C2 C 1.1180(2) 0.00597(19) 0.29451(19)
H1 H 1.1566 -0.0262 0.3431
C3 C 1.1597(2) 0.0842(2) 0.23671(19)
H2 H 1.2267 0.1054 0.2458
C4 C 1.1034(2) 0.13115(18) 0.16575(18)
C5 C 1.00394(19) 0.10185(17) 0.15294(17)
C6 C 0.94084(19) 0.15351(18) 0.07662(17)
H3 H 0.9935 0.1766 0.0234
C7 C 0.8805(2) 0.07424(19) 0.03851(18)
H4 H 0.8712 0.0772 -0.0267
C8 C 0.8404(2) 0.00082(19) 0.09486(18)
H5 H 0.8033 -0.0484 0.0691
C9 C 0.8523(2) -0.00647(18) 0.19903(18)
H6 H 0.8501 -0.081 0.221
C10 C 0.96139(19) 0.02347(17) 0.21247(17)
C11 C 0.86332(19) 0.25097(18) 0.11356(17)
C12 C 0.7783(2) 0.29457(19) 0.06530(18)
H7 H 0.7713 0.2671 0.0058
C13 C 0.7041(2) 0.37694(19) 0.10232(18)
H8 H 0.6469 0.4051 0.068
C14 C 0.7121(2) 0.41930(18) 0.18928(18)
C15 C 0.7990(2) 0.37854(19) 0.23619(18)
H9 H 0.8076 0.4076 0.2946
C16 C 0.8731(2) 0.29594(19) 0.19858(18)
H10 H 0.9319 0.2694 0.2317
C17 C 0.6306(2) 0.50190(18) 0.23248(18)
C18 C 0.5462(2) 0.5654(2) 0.2033(2)
H11 H 0.5241 0.5674 0.142
C19 C 0.4971(2) 0.6284(2) 0.2809(2)
H12 H 0.4359 0.6807 0.2818
C20 C 0.5543(2) 0.59967(19) 0.3538(2)
C21 C 0.5463(2) 0.62682(19) 0.4515(2)
C22 C 0.5979(2) 0.5852(2) 0.5240(2)
H13 H 0.6549 0.5283 0.5207
C23 C 0.5508(2) 0.6423(2) 0.6058(2)
H14 H 0.5703 0.6309 0.6679
C24 C 0.4730(2) 0.71636(19) 0.57918(18)
C25 C 0.3955(2) 0.79542(19) 0.63143(18)
C26 C 0.3122(2) 0.8557(2) 0.59017(19)
H15 H 0.3077 0.8488 0.5246
C27 C 0.4019(2) 0.8111(2) 0.72633(19)
H16 H 0.4599 0.7737 0.755
C28 C 0.7606(2) 0.06309(18) 0.25948(18)
C29 C 0.6747(2) 0.1195(2) 0.21998(18)
H17 H 0.6684 0.1104 0.1551
C30 C 0.7637(2) 0.07481(19) 0.35612(18)
H18 H 0.8192 0.0342 0.3857
C31 C 0.8906(2) -0.2849(2) 0.3851(2)
H19 H 0.862 -0.2798 0.3227
C32 C 0.8017(3) -0.2224(3) 0.4504(3)
H20 H 0.7339 -0.2514 0.4501
H21 H 0.7928 -0.1491 0.4284
H22 H 0.8208 -0.2264 0.5151
C33 C 0.9041(3) -0.4014(2) 0.4078(3)
H23 H 0.9277 -0.4139 0.4706
H24 H 0.9584 -0.4379 0.3599
H25 H 0.8349 -0.428 0.4077
C34 C 1.1051(2) -0.2361(2) 0.45740(19)
H26 H 1.1588 -0.1858 0.4405
C35 C 1.0378(3) -0.1992(4) 0.5512(2)
H27 H 0.9864 -0.2486 0.5725
H28 H 0.9982 -0.1294 0.5418
H29 H 1.0858 -0.1961 0.5993
C36 C 1.1704(3) -0.3442(2) 0.4711(3)
H30 H 1.217 -0.3405 0.5202
H31 H 1.2151 -0.3655 0.4112
H32 H 1.1208 -0.3957 0.4905
C37 C 1.1040(2) -0.2902(2) 0.25075(19)
H33 H 1.1236 -0.3656 0.2686
C38 C 1.0406(3) -0.2896(3) 0.1667(2)
H34 H 1.017 -0.217 0.1478
H35 H 0.9773 -0.3259 0.185
H36 H 1.0869 -0.3254 0.1133
C39 C 1.2113(2) -0.2470(2) 0.2199(2)
H37 H 1.2574 -0.2943 0.1742
H38 H 1.248 -0.2416 0.2756
H39 H 1.1969 -0.1774 0.1903
C40 C 1.3755(2) 0.1760(3) 0.0872(3)
H40 H 1.3898 0.1596 0.1539
C41 C 1.3668(3) 0.0729(3) 0.0440(3)
H41 H 1.3667 0.0827 -0.0247
H42 H 1.2995 0.0475 0.0724
H43 H 1.4285 0.0214 0.0563
C42 C 1.4744(3) 0.2242(3) 0.0366(3)
H44 H 1.5399 0.1738 0.0387
H45 H 1.4815 0.2884 0.0686
H46 H 1.4646 0.241 -0.0297
C43 C 1.2436(3) 0.3534(3) 0.2034(3)
H47 H 1.2858 0.3084 0.2479
C44 C 1.1340(3) 0.3843(3) 0.2575(3)
H48 H 1.1407 0.4234 0.3136
H49 H 1.1007 0.3212 0.2775
H50 H 1.0886 0.4285 0.2168
C45 C 1.3031(3) 0.4497(2) 0.1796(3)
H51 H 1.2659 0.496 0.1346
H52 H 1.3776 0.4266 0.1511
H53 H 1.3037 0.4876 0.2378
C46 C 1.2324(2) 0.3527(2) -0.0161(2)
H54 H 1.2917 0.3977 -0.0255
C47 C 1.2431(2) 0.2862(2) -0.1046(2)
H55 H 1.187 0.2398 -0.0968
H56 H 1.3145 0.244 -0.1135
H57 H 1.2346 0.3323 -0.1603
C48 C 1.1246(2) 0.4259(2) -0.0058(2)
H58 H 1.1178 0.4661 -0.0651
H59 H 1.1225 0.4743 0.0462
H60 H 1.0647 0.3842 0.0082
Si1A Si -0.02024(6) 1.22719(5) 0.64129(5)
Si2A Si -0.24786(6) 0.72858(6) 0.90493(6)
O1A O 0.02346(14) 1.10130(13) 0.66086(13)
O2A O -0.14073(14) 0.79210(13) 0.89446(13)
O3A O 0.36262(14) 0.47777(13) 0.67461(13)
O4A O 0.53173(14) 0.29160(13) 0.51660(13)
C1A C -0.0205(2) 1.02529(18) 0.71838(18)
C2A C -0.1180(2) 0.99403(19) 0.70549(19)
H1A H -0.1566 1.0262 0.6569
C3A C -0.1597(2) 0.9158(2) 0.76329(19)
H2A H -0.2267 0.8946 0.7542
C4A C -0.1034(2) 0.86885(18) 0.83425(18)
C5A C -0.00394(19) 0.89815(17) 0.84706(17)
C6A C 0.05916(19) 0.84649(18) 0.92338(17)
H3A H 0.0065 0.8234 0.9766
C7A C 0.1195(2) 0.92576(19) 0.96149(18)
H4A H 0.1288 0.9228 1.0267
C8A C 0.1596(2) 0.99918(19) 0.90514(18)
H5A H 0.1967 1.0484 0.9309
C9A C 0.1477(2) 1.00647(18) 0.80097(18)
H6A H 0.1499 1.081 0.779
C10A C 0.03861(19) 0.97653(17) 0.78753(17)
C11A C 0.13668(19) 0.74903(18) 0.88644(17)
C12A C 0.2217(2) 0.70543(19) 0.93470(18)
H7A H 0.2287 0.7329 0.9942
C13A C 0.2959(2) 0.62306(19) 0.89768(18)
H8A H 0.3531 0.5949 0.932
C14A C 0.2879(2) 0.58070(18) 0.81072(18)
C15A C 0.2010(2) 0.62146(19) 0.76381(18)
H9A H 0.1924 0.5924 0.7054
C16A C 0.1269(2) 0.70406(19) 0.80142(18)
H10A H 0.0681 0.7306 0.7683
C17A C 0.3694(2) 0.49810(18) 0.76752(18)
C18A C 0.4538(2) 0.4346(2) 0.7967(2)
H11A H 0.4759 0.4326 0.858
C19A C 0.5029(2) 0.3716(2) 0.7191(2)
H12A H 0.5641 0.3193 0.7182
C20A C 0.4457(2) 0.40033(19) 0.6462(2)
C21A C 0.4537(2) 0.37318(19) 0.5485(2)
C22A C 0.4021(2) 0.4148(2) 0.4760(2)
H13A H 0.3451 0.4717 0.4793
C23A C 0.4492(2) 0.3577(2) 0.3942(2)
H14A H 0.4297 0.3691 0.3321
C24A C 0.5270(2) 0.28364(19) 0.42082(18)
C25A C 0.6045(2) 0.20458(19) 0.36857(18)
C26A C 0.6878(2) 0.1443(2) 0.40983(19)
H15A H 0.6923 0.1512 0.4754
C27A C 0.5981(2) 0.1889(2) 0.27367(19)
H16A H 0.5401 0.2263 0.245
C28A C 0.2394(2) 0.93691(18) 0.74052(18)
C29A C 0.3253(2) 0.8805(2) 0.78002(18)
H17A H 0.3316 0.8896 0.8449
C30A C 0.2363(2) 0.92519(19) 0.64388(18)
H18A H 0.1808 0.9658 0.6143
C31A C 0.1094(2) 1.2849(2) 0.6149(2)
H19A H 0.138 1.2798 0.6773
C32A C 0.1983(3) 1.2224(3) 0.5496(3)
H20A H 0.2661 1.2514 0.5499
H21A H 0.2072 1.1491 0.5716
H22A H 0.1792 1.2264 0.4849
C33A C 0.0959(3) 1.4014(2) 0.5922(3)
H23A H 0.0723 1.4139 0.5294
H24A H 0.0416 1.4379 0.6401
H25A H 0.1651 1.428 0.5923
C34A C -0.1051(2) 1.2361(2) 0.54260(19)
H26A H -0.1588 1.1858 0.5595
C35A C -0.0378(3) 1.1992(4) 0.4488(2)
H27A H 0.0136 1.2486 0.4275
H28A H 0.0018 1.1294 0.4582
H29A H -0.0858 1.1961 0.4007
C36A C -0.1704(3) 1.3442(2) 0.5289(3)
H30A H -0.217 1.3405 0.4798
H31A H -0.2151 1.3655 0.5888
H32A H -0.1208 1.3957 0.5095
C37A C -0.1040(2) 1.2902(2) 0.74925(19)
H33A H -0.1236 1.3656 0.7314
C38A C -0.0406(3) 1.2896(3) 0.8333(2)
H34A H -0.017 1.217 0.8522
H35A H 0.0227 1.3259 0.815
H36A H -0.0869 1.3254 0.8867
C39A C -0.2113(2) 1.2470(2) 0.7801(2)
H37A H -0.2574 1.2943 0.8258
H38A H -0.248 1.2416 0.7244
H39A H -0.1969 1.1774 0.8097
C40A C -0.3755(2) 0.8240(3) 0.9128(3)
H40A H -0.3898 0.8404 0.8461
C41A C -0.3668(3) 0.9271(3) 0.9560(3)
H41A H -0.3667 0.9173 1.0247
H42A H -0.2995 0.9525 0.9276
H43A H -0.4285 0.9786 0.9437
C42A C -0.4744(3) 0.7758(3) 0.9634(3)
H44A H -0.5399 0.8262 0.9613
H45A H -0.4815 0.7116 0.9314
H46A H -0.4646 0.759 1.0297
C43A C -0.2436(3) 0.6466(3) 0.7966(3)
H47A H -0.2858 0.6916 0.7521
C44A C -0.1340(3) 0.6157(3) 0.7425(3)
H48A H -0.1407 0.5766 0.6864
H49A H -0.1007 0.6788 0.7225
H50A H -0.0886 0.5715 0.7832
C45A C -0.3031(3) 0.5503(2) 0.8204(3)
H51A H -0.2659 0.504 0.8654
H52A H -0.3776 0.5734 0.8489
H53A H -0.3037 0.5124 0.7622
C46A C -0.2324(2) 0.6473(2) 1.0161(2)
H54A H -0.2917 0.6023 1.0255
C47A C -0.2431(2) 0.7138(2) 1.1046(2)
H55A H -0.187 0.7602 1.0968
H56A H -0.3145 0.756 1.1135
H57A H -0.2346 0.6677 1.1603
C48A C -0.1246(2) 0.5741(2) 1.0058(2)
H58A H -0.1178 0.5339 1.0651
H59A H -0.1225 0.5257 0.9538
H60A H -0.0647 0.6158 0.9918
Cl1 Cl 0.38544(7) 1.04707(8) 0.40657(7)
Cl2 Cl 0.47574(12) 0.91900(9) 0.24414(9)
C49 C 0.4939(3) 0.9541(3) 0.3593(3)
H61 H 0.4982 0.8909 0.4012
H62 H 0.5626 0.984 0.3563
loop_
_geom_bond_atom_site_label_1
_geom_bond_atom_site_label_2
_geom_bond_site_symmetry_1
_geom_bond_site_symmetry_2
Si1 O1 1_555 1_555
Si2 O2 1_555 1_555
O1 C1 1_555 1_555
O2 C4 1_555 1_555
O3 C17 1_555 1_555
O4 C21 1_555 1_555
C1 C2 1_555 1_555
C2 H1 1_555 1_555
C3 C2 1_555 1_555
H2 C3 1_555 1_555
C4 C3 1_555 1_555
C5 C4 1_555 1_555
C6 C5 1_555 1_555
H3 C6 1_555 1_555
C7 C6 1_555 1_555
H4 C7 1_555 1_555
C8 C7 1_555 1_555
H5 C8 1_555 1_555
C9 C8 1_555 1_555
H6 C9 1_555 1_555
C10 C1 1_555 1_555
C11 C6 1_555 1_555
C12 C11 1_555 1_555
H7 C12 1_555 1_555
C13 C12 1_555 1_555
H8 C13 1_555 1_555
C14 C13 1_555 1_555
C15 C14 1_555 1_555
H9 C15 1_555 1_555
C16 C11 1_555 1_555
H10 C16 1_555 1_555
C17 C14 1_555 1_555
C18 C17 1_555 1_555
H11 C18 1_555 1_555
C19 C18 1_555 1_555
H12 C19 1_555 1_555
C20 O3 1_555 1_555
C21 C20 1_555 1_555
C22 C21 1_555 1_555
H13 C22 1_555 1_555
C23 C22 1_555 1_555
H14 C23 1_555 1_555
C24 O4 1_555 1_555
C25 C24 1_555 1_555
C26 C25 1_555 1_555
H15 C26 1_555 1_555
C27 C25 1_555 1_555
H16 C27 1_555 1_555
C28 C9 1_555 1_555
C29 C28 1_555 1_555
H17 C29 1_555 1_555
C30 C28 1_555 1_555
H18 C30 1_555 1_555
C31 Si1 1_555 1_555
H19 C31 1_555 1_555
C32 C31 1_555 1_555
H20 C32 1_555 1_555
H21 C32 1_555 1_555
H22 C32 1_555 1_555
C33 C31 1_555 1_555
H23 C33 1_555 1_555
H24 C33 1_555 1_555
H25 C33 1_555 1_555
C34 Si1 1_555 1_555
H26 C34 1_555 1_555
C35 C34 1_555 1_555
H27 C35 1_555 1_555
H28 C35 1_555 1_555
H29 C35 1_555 1_555
C36 C34 1_555 1_555
H30 C36 1_555 1_555
H31 C36 1_555 1_555
H32 C36 1_555 1_555
C37 Si1 1_555 1_555
H33 C37 1_555 1_555
C38 C37 1_555 1_555
H34 C38 1_555 1_555
H35 C38 1_555 1_555
H36 C38 1_555 1_555
C39 C37 1_555 1_555
H37 C39 1_555 1_555
H38 C39 1_555 1_555
H39 C39 1_555 1_555
C40 Si2 1_555 1_555
H40 C40 1_555 1_555
C41 C40 1_555 1_555
H41 C41 1_555 1_555
H42 C41 1_555 1_555
H43 C41 1_555 1_555
C42 C40 1_555 1_555
H44 C42 1_555 1_555
H45 C42 1_555 1_555
H46 C42 1_555 1_555
C43 Si2 1_555 1_555
H47 C43 1_555 1_555
C44 C43 1_555 1_555
H48 C44 1_555 1_555
H49 C44 1_555 1_555
H50 C44 1_555 1_555
C45 C43 1_555 1_555
H51 C45 1_555 1_555
H52 C45 1_555 1_555
H53 C45 1_555 1_555
C46 Si2 1_555 1_555
H54 C46 1_555 1_555
C47 C46 1_555 1_555
H55 C47 1_555 1_555
H56 C47 1_555 1_555
H57 C47 1_555 1_555
C48 C46 1_555 1_555
H58 C48 1_555 1_555
H59 C48 1_555 1_555
H60 C48 1_555 1_555
Cl1 C49 1_555 1_555
Cl2 C49 1_555 1_555
C49 H61 1_555 1_555
H62 C49 1_555 1_555
Si1A O1A 1_555 1_555
Si2A O2A 1_555 1_555
O1A C1A 1_555 1_555
O2A C4A 1_555 1_555
O3A C17A 1_555 1_555
O4A C21A 1_555 1_555
C1A C2A 1_555 1_555
C2A H1A 1_555 1_555
C3A C2A 1_555 1_555
H2A C3A 1_555 1_555
C4A C3A 1_555 1_555
C5A C4A 1_555 1_555
C6A C5A 1_555 1_555
H3A C6A 1_555 1_555
C7A C6A 1_555 1_555
H4A C7A 1_555 1_555
C8A C7A 1_555 1_555
H5A C8A 1_555 1_555
C9A C8A 1_555 1_555
H6A C9A 1_555 1_555
C10A C1A 1_555 1_555
C11A C6A 1_555 1_555
C12A C11A 1_555 1_555
H7A C12A 1_555 1_555
C13A C12A 1_555 1_555
H8A C13A 1_555 1_555
C14A C13A 1_555 1_555
C15A C14A 1_555 1_555
H9A C15A 1_555 1_555
C16A C11A 1_555 1_555
H10A C16A 1_555 1_555
C17A C14A 1_555 1_555
C18A C17A 1_555 1_555
H11A C18A 1_555 1_555
C19A C18A 1_555 1_555
H12A C19A 1_555 1_555
C20A O3A 1_555 1_555
C21A C20A 1_555 1_555
C22A C21A 1_555 1_555
H13A C22A 1_555 1_555
C23A C22A 1_555 1_555
H14A C23A 1_555 1_555
C24A O4A 1_555 1_555
C25A C24A 1_555 1_555
C26A C30 1_555 1_555
H15A C26A 1_555 1_555
C27A C29 1_555 1_555
H16A C27A 1_555 1_555
C28A C9A 1_555 1_555
C29A C27 1_555 1_555
H17A C29A 1_555 1_555
C30A C26 1_555 1_555
H18A C30A 1_555 1_555
C31A Si1A 1_555 1_555
H19A C31A 1_555 1_555
C32A C31A 1_555 1_555
H20A C32A 1_555 1_555
H21A C32A 1_555 1_555
H22A C32A 1_555 1_555
C33A C31A 1_555 1_555
H23A C33A 1_555 1_555
H24A C33A 1_555 1_555
H25A C33A 1_555 1_555
C34A Si1A 1_555 1_555
H26A C34A 1_555 1_555
C35A C34A 1_555 1_555
H27A C35A 1_555 1_555
H28A C35A 1_555 1_555
H29A C35A 1_555 1_555
C36A C34A 1_555 1_555
H30A C36A 1_555 1_555
H31A C36A 1_555 1_555
H32A C36A 1_555 1_555
C37A Si1A 1_555 1_555
H33A C37A 1_555 1_555
C38A C37A 1_555 1_555
H34A C38A 1_555 1_555
H35A C38A 1_555 1_555
H36A C38A 1_555 1_555
C39A C37A 1_555 1_555
H37A C39A 1_555 1_555
H38A C39A 1_555 1_555
H39A C39A 1_555 1_555
C40A Si2A 1_555 1_555
H40A C40A 1_555 1_555
C41A C40A 1_555 1_555
H41A C41A 1_555 1_555
H42A C41A 1_555 1_555
H43A C41A 1_555 1_555
C42A C40A 1_555 1_555
H44A C42A 1_555 1_555
H45A C42A 1_555 1_555
H46A C42A 1_555 1_555
C43A Si2A 1_555 1_555
H47A C43A 1_555 1_555
C44A C43A 1_555 1_555
H48A C44A 1_555 1_555
H49A C44A 1_555 1_555
H50A C44A 1_555 1_555
C45A C43A 1_555 1_555
H51A C45A 1_555 1_555
H52A C45A 1_555 1_555
H53A C45A 1_555 1_555
C46A Si2A 1_555 1_555
H54A C46A 1_555 1_555
C47A C46A 1_555 1_555
H55A C47A 1_555 1_555
H56A C47A 1_555 1_555
H57A C47A 1_555 1_555
C48A C46A 1_555 1_555
H58A C48A 1_555 1_555
H59A C48A 1_555 1_555
H60A C48A 1_555 1_555
C5 C10 1_555 1_555
C9 C10 1_555 1_555
C15 C16 1_555 1_555
C19 C20 1_555 1_555
C23 C24 1_555 1_555
C5A C10A 1_555 1_555
C9A C10A 1_555 1_555
C15A C16A 1_555 1_555
C19A C20A 1_555 1_555
C23A C24A 1_555 1_555
C25A C26A 1_555 1_555
C25A C27A 1_555 1_555
C28A C29A 1_555 1_555
C28A C30A 1_555 1_555

#END
