
#######################################################################
#
#                 Cambridge Crystallographic Data Centre
#                                CCDC 
#
#######################################################################
#
# If this CIF has been generated from an entry in the Cambridge 
# Structural Database, then it will include bibliographic, chemical, 
# crystal, experimental, refinement or atomic coordinate data resulting 
# from the CCDC's data processing and validation procedures.
#
#######################################################################

data_ZAMYOE
_chemical_formula_moiety         'C45 H46 N2 O1 Si1'
_chemical_name_systematic        
N,N-dibenzyl-1-(5-((t-butyl(dimethyl)silyl)oxy)-2,4-diphenyl-5H-indeno[1,2-b]pyridin-3-yl)methanamine
_symmetry_cell_setting           triclinic
_symmetry_space_group_name_H-M   'P -1'
_symmetry_Int_Tables_number      2
_space_group_name_Hall           '-P 1'
loop_
_symmetry_equiv_pos_site_id
_symmetry_equiv_pos_as_xyz
1 x,y,z
2 -x,-y,-z
_cell_length_a                   8.738(5)
_cell_length_b                   14.648(9)
_cell_length_c                   14.918(9)
_cell_angle_alpha                88.302(9)
_cell_angle_beta                 75.056(8)
_cell_angle_gamma                76.146(8)
_cell_volume                     1790.12
_exptl_crystal_colour            colorless
_exptl_crystal_description       prismatic
_cell_formula_units_Z            2
loop_
_atom_site_label
_atom_site_type_symbol
_atom_site_fract_x
_atom_site_fract_y
_atom_site_fract_z
Si1 Si 0.7322(2) -0.02674(14) 0.27251(15)
N1 N 0.5149(6) 0.3846(3) 0.2016(3)
N2 N 0.8600(6) 0.5010(3) 0.2844(3)
O1 O 0.7052(6) 0.0839(3) 0.2514(3)
C1 C 0.5461(7) 0.2402(4) 0.1142(4)
C2 C 0.4415(8) 0.2657(5) 0.0562(5)
H1 H 0.3745 0.3260 0.0599
C3 C 0.4402(9) 0.2006(6) -0.0053(5)
H2 H 0.3725 0.2165 -0.0452
C4 C 0.5347(10) 0.1137(6) -0.0099(6)
H3 H 0.5325 0.0704 -0.0536
C5 C 0.6341(8) 0.0868(5) 0.0477(5)
H4 H 0.6975 0.0256 0.0447
C6 C 0.6387(7) 0.1513(4) 0.1093(4)
C7 C 0.7424(7) 0.1426(4) 0.1779(4)
H5 H 0.8580 0.1218 0.1450
C8 C 0.7064(6) 0.2416(4) 0.2129(4)
C9 C 0.5805(7) 0.2951(4) 0.1803(4)
C10 C 0.5749(7) 0.4234(4) 0.2600(4)
C11 C 0.7106(7) 0.3779(4) 0.2900(4)
C12 C 0.7739(6) 0.2831(4) 0.2686(4)
C13 C 0.9139(7) 0.2277(4) 0.2986(4)
C14 C 1.0682(8) 0.2042(5) 0.2394(5)
H6 H 1.0856 0.2229 0.1782
C15 C 1.1949(8) 0.1536(5) 0.2707(8)
H7 H 1.2994 0.1401 0.2310
C16 C 1.1731(11) 0.1229(6) 0.3569(8)
H8 H 1.2617 0.0871 0.3759
C17 C 1.0246(11) 0.1430(6) 0.4168(6)
H9 H 1.0095 0.1216 0.4770
C18 C 0.8951(8) 0.1961(5) 0.3870(5)
H10 H 0.7921 0.2110 0.4282
C19 C 0.4852(7) 0.5209(4) 0.2873(5)
C20 C 0.4731(8) 0.5877(5) 0.2232(5)
H11 H 0.5285 0.5733 0.1613
C21 C 0.3777(9) 0.6777(5) 0.2501(6)
H12 H 0.3734 0.7250 0.2071
C22 C 0.2920(9) 0.6957(6) 0.3387(7)
H13 H 0.2252 0.7555 0.3561
C23 C 0.2996(9) 0.6302(5) 0.4030(6)
H14 H 0.2385 0.6443 0.4641
C24 C 0.3967(8) 0.5437(5) 0.3782(5)
H15 H 0.4044 0.4985 0.4230
C25 C 0.7888(7) 0.4325(4) 0.3414(4)
H16 H 0.7074 0.4646 0.3953
H17 H 0.8731 0.3890 0.3632
C26 C 0.9843(8) 0.4568(4) 0.2038(4)
H18 H 0.9430 0.4126 0.1750
H19 H 1.0784 0.4214 0.2234
C27 C 1.0359(7) 0.5244(4) 0.1348(4)
C28 C 1.1958(8) 0.5292(5) 0.1064(5)
H20 H 1.2743 0.4902 0.1313
C29 C 1.2380(10) 0.5923(6) 0.0406(6)
H21 H 1.3463 0.5962 0.0218
C30 C 1.1305(10) 0.6474(6) 0.0033(6)
H22 H 1.1620 0.6900 -0.0409
C31 C 0.9710(9) 0.6412(5) 0.0304(5)
H23 H 0.8943 0.6777 0.0027
C32 C 0.9262(8) 0.5826(5) 0.0968(5)
H24 H 0.8167 0.5817 0.1174
C33 C 0.9297(8) 0.5533(4) 0.3370(4)
H25 H 0.9913 0.5911 0.2947
H26 H 1.0058 0.5091 0.3640
C34 C 0.8097(8) 0.6163(4) 0.4127(4)
C35 C 0.8420(11) 0.6216(5) 0.4966(5)
H27 H 0.9368 0.5832 0.5071
C36 C 0.7390(15) 0.6815(7) 0.5650(6)
H28 H 0.7626 0.6839 0.6221
C37 C 0.6020(12) 0.7377(7) 0.5503(7)
H29 H 0.5299 0.7785 0.5974
C38 C 0.5697(10) 0.7346(6) 0.4667(7)
H30 H 0.4770 0.7751 0.4559
C39 C 0.6712(9) 0.6729(5) 0.3981(5)
H31 H 0.6459 0.6695 0.3417
C40 C 0.7081(12) -0.0278(6) 0.3975(6)
H32 H 0.7936 -0.0051 0.4119
H33 H 0.7138 -0.0910 0.4182
H34 H 0.6042 0.0119 0.4283
C41 C 0.5748(9) -0.0727(6) 0.2425(6)
H35 H 0.4895 -0.0745 0.2975
H36 H 0.6216 -0.1351 0.2157
H37 H 0.5305 -0.0327 0.1986
C42 C 0.9319(9) -0.0961(6) 0.2101(6)
C43 C 0.9451(11) -0.1993(5) 0.2427(7)
H38 H 1.0535 -0.2365 0.2163
H39 H 0.8681 -0.2253 0.2226
H40 H 0.9220 -0.1997 0.3092
C44 C 0.9583(10) -0.0969(6) 0.1034(6)
H41 H 1.0559 -0.1432 0.0750
H42 H 0.9686 -0.0360 0.0809
H43 H 0.8667 -0.1118 0.0882
C45 C 1.0679(10) -0.0606(7) 0.2356(9)
H44 H 1.0543 -0.0630 0.3015
H45 H 1.0621 0.0032 0.2168
H46 H 1.1722 -0.0996 0.2044
loop_
_geom_bond_atom_site_label_1
_geom_bond_atom_site_label_2
_geom_bond_site_symmetry_1
_geom_bond_site_symmetry_2
Si1 O1 1_555 1_555
N1 C9 1_555 1_555
N2 C25 1_555 1_555
O1 C7 1_555 1_555
C1 C2 1_555 1_555
C2 H1 1_555 1_555
C3 C2 1_555 1_555
H2 C3 1_555 1_555
C4 C3 1_555 1_555
H3 C4 1_555 1_555
C5 C4 1_555 1_555
H4 C5 1_555 1_555
C6 C1 1_555 1_555
C7 C6 1_555 1_555
H5 C7 1_555 1_555
C8 C7 1_555 1_555
C9 C1 1_555 1_555
C10 N1 1_555 1_555
C11 C10 1_555 1_555
C12 C8 1_555 1_555
C13 C12 1_555 1_555
C14 C13 1_555 1_555
H6 C14 1_555 1_555
C15 C14 1_555 1_555
H7 C15 1_555 1_555
C16 C15 1_555 1_555
H8 C16 1_555 1_555
C17 C16 1_555 1_555
H9 C17 1_555 1_555
C18 C13 1_555 1_555
H10 C18 1_555 1_555
C19 C10 1_555 1_555
C20 C19 1_555 1_555
H11 C20 1_555 1_555
C21 C20 1_555 1_555
H12 C21 1_555 1_555
C22 C21 1_555 1_555
H13 C22 1_555 1_555
C23 C22 1_555 1_555
H14 C23 1_555 1_555
C24 C19 1_555 1_555
H15 C24 1_555 1_555
C25 C11 1_555 1_555
H16 C25 1_555 1_555
H17 C25 1_555 1_555
C26 N2 1_555 1_555
H18 C26 1_555 1_555
H19 C26 1_555 1_555
C27 C26 1_555 1_555
C28 C27 1_555 1_555
H20 C28 1_555 1_555
C29 C28 1_555 1_555
H21 C29 1_555 1_555
C30 C29 1_555 1_555
H22 C30 1_555 1_555
C31 C30 1_555 1_555
H23 C31 1_555 1_555
C32 C27 1_555 1_555
H24 C32 1_555 1_555
C33 N2 1_555 1_555
H25 C33 1_555 1_555
H26 C33 1_555 1_555
C34 C33 1_555 1_555
C35 C34 1_555 1_555
H27 C35 1_555 1_555
C36 C35 1_555 1_555
H28 C36 1_555 1_555
C37 C36 1_555 1_555
H29 C37 1_555 1_555
C38 C37 1_555 1_555
H30 C38 1_555 1_555
C39 C34 1_555 1_555
H31 C39 1_555 1_555
C40 Si1 1_555 1_555
H32 C40 1_555 1_555
H33 C40 1_555 1_555
H34 C40 1_555 1_555
C41 Si1 1_555 1_555
H35 C41 1_555 1_555
H36 C41 1_555 1_555
H37 C41 1_555 1_555
C42 Si1 1_555 1_555
C43 C42 1_555 1_555
H38 C43 1_555 1_555
H39 C43 1_555 1_555
H40 C43 1_555 1_555
C44 C42 1_555 1_555
H41 C44 1_555 1_555
H42 C44 1_555 1_555
H43 C44 1_555 1_555
C45 C42 1_555 1_555
H44 C45 1_555 1_555
H45 C45 1_555 1_555
H46 C45 1_555 1_555
C5 C6 1_555 1_555
C8 C9 1_555 1_555
C11 C12 1_555 1_555
C17 C18 1_555 1_555
C23 C24 1_555 1_555
C31 C32 1_555 1_555
C38 C39 1_555 1_555

#END
