
#######################################################################
#
#                 Cambridge Crystallographic Data Centre
#                                CCDC 
#
#######################################################################
#
# If this CIF has been generated from an entry in the Cambridge 
# Structural Database, then it will include bibliographic, chemical, 
# crystal, experimental, refinement or atomic coordinate data resulting 
# from the CCDC's data processing and validation procedures.
#
#######################################################################

data_ZAMZAR
_chemical_formula_moiety         'C24 H22 N2'
_chemical_name_systematic        
4-(2,4-diphenyl-6,7-dihydro-5H-cyclopenta[b]pyridin-3-yl)butanenitrile
_symmetry_cell_setting           monoclinic
_symmetry_space_group_name_H-M   'P 21/n'
_symmetry_Int_Tables_number      14
_space_group_name_Hall           '-P 2yn'
loop_
_symmetry_equiv_pos_site_id
_symmetry_equiv_pos_as_xyz
1 x,y,z
2 1/2-x,1/2+y,1/2-z
3 -x,-y,-z
4 1/2+x,1/2-y,1/2+z
_cell_length_a                   8.9926(14)
_cell_length_b                   9.4215(14)
_cell_length_c                   21.807(3)
_cell_angle_alpha                90
_cell_angle_beta                 96.076(3)
_cell_angle_gamma                90
_cell_volume                     1837.19
_exptl_crystal_colour            colorless
_exptl_crystal_description       prismatic
_cell_formula_units_Z            4
loop_
_atom_site_label
_atom_site_type_symbol
_atom_site_fract_x
_atom_site_fract_y
_atom_site_fract_z
N1 N 0.83965(17) 0.40680(15) 0.03517(6)
N2 N 0.5847(3) -0.1903(2) -0.10517(9)
C1 C 0.9283(2) 0.41392(19) 0.08761(8)
C2 C 1.0076(3) 0.5462(2) 0.11172(9)
H1 H 1.0779 0.5786 0.0839
H2 H 0.9370 0.6217 0.1173
C3 C 1.0876(4) 0.5002(3) 0.17242(12)
H3 H 1.1934 0.5213 0.1733
H4 H 1.0487 0.5521 0.2057
C4 C 1.0666(2) 0.3444(2) 0.18145(8)
H5 H 1.0259 0.3257 0.2201
H6 H 1.1605 0.2940 0.1812
C5 C 0.95790(19) 0.30117(18) 0.12749(7)
C6 C 0.88610(18) 0.17297(17) 0.11448(7)
C7 C 0.79343(18) 0.16032(17) 0.05837(7)
C8 C 0.77515(19) 0.27975(18) 0.02002(7)
C9 C 0.67809(19) 0.28517(18) -0.03995(7)
C10 C 0.6685(2) 0.1770(2) -0.08319(8)
H7 H 0.7243 0.0947 -0.0753
C11 C 0.5770(3) 0.1899(2) -0.13790(8)
H8 H 0.5709 0.1158 -0.1662
C12 C 0.4957(3) 0.3102(2) -0.15077(9)
H9 H 0.4337 0.3178 -0.1876
C13 C 0.5055(2) 0.4201(2) -0.10929(9)
H10 H 0.4512 0.5030 -0.1181
C14 C 0.5962(2) 0.40742(19) -0.05455(8)
H11 H 0.6026 0.4826 -0.0268
C15 C 0.71692(19) 0.02008(17) 0.04250(7)
H12 H 0.6365 0.0353 0.0099
H13 H 0.6729 -0.0146 0.0784
C16 C 0.8221(2) -0.09262(18) 0.02175(8)
H14 H 0.8966 -0.1151 0.0558
H15 H 0.8739 -0.0544 -0.0114
C17 C 0.7413(2) -0.2292(2) -0.00049(9)
H16 H 0.8145 -0.3032 -0.0047
H17 H 0.6773 -0.2601 0.0301
C18 C 0.6516(2) -0.2089(2) -0.05916(10)
C19 C 0.9066(2) 0.05620(18) 0.16086(7)
C20 C 1.0445(2) -0.0085(2) 0.17337(9)
H18 H 1.1233 0.0185 0.1515
C21 C 1.0666(3) -0.1124(2) 0.21761(10)
H19 H 1.1594 -0.1562 0.2250
C22 C 0.9531(3) -0.1513(2) 0.25074(10)
H20 H 0.9687 -0.2206 0.2811
C23 C 0.8164(3) -0.0882(2) 0.23911(9)
H21 H 0.7388 -0.1151 0.2616
C24 C 0.7922(2) 0.0152(2) 0.19437(8)
H22 H 0.6986 0.0574 0.1868
loop_
_geom_bond_atom_site_label_1
_geom_bond_atom_site_label_2
_geom_bond_site_symmetry_1
_geom_bond_site_symmetry_2
N1 C1 1_555 1_555
N2 C18 1_555 1_555
C1 C2 1_555 1_555
C2 H1 1_555 1_555
H2 C2 1_555 1_555
C3 C2 1_555 1_555
H3 C3 1_555 1_555
H4 C3 1_555 1_555
C4 C3 1_555 1_555
H5 C4 1_555 1_555
H6 C4 1_555 1_555
C5 C1 1_555 1_555
C6 C5 1_555 1_555
C7 C6 1_555 1_555
C8 N1 1_555 1_555
C9 C8 1_555 1_555
C10 C9 1_555 1_555
H7 C10 1_555 1_555
C11 C10 1_555 1_555
H8 C11 1_555 1_555
C12 C11 1_555 1_555
H9 C12 1_555 1_555
C13 C12 1_555 1_555
H10 C13 1_555 1_555
C14 C9 1_555 1_555
H11 C14 1_555 1_555
C15 C7 1_555 1_555
H12 C15 1_555 1_555
H13 C15 1_555 1_555
C16 C15 1_555 1_555
H14 C16 1_555 1_555
H15 C16 1_555 1_555
C17 C16 1_555 1_555
H16 C17 1_555 1_555
H17 C17 1_555 1_555
C18 C17 1_555 1_555
C19 C6 1_555 1_555
C20 C19 1_555 1_555
H18 C20 1_555 1_555
C21 C20 1_555 1_555
H19 C21 1_555 1_555
C22 C21 1_555 1_555
H20 C22 1_555 1_555
C23 C22 1_555 1_555
H21 C23 1_555 1_555
C24 C19 1_555 1_555
H22 C24 1_555 1_555
C4 C5 1_555 1_555
C7 C8 1_555 1_555
C13 C14 1_555 1_555
C23 C24 1_555 1_555

#END
