
#######################################################################
#
#                 Cambridge Crystallographic Data Centre
#                                CCDC 
#
#######################################################################
#
# If this CIF has been generated from an entry in the Cambridge 
# Structural Database, then it will include bibliographic, chemical, 
# crystal, experimental, refinement or atomic coordinate data resulting 
# from the CCDC's data processing and validation procedures.
#
#######################################################################

data_ZANNUX
_chemical_formula_moiety         'C31 H34 B1 Br1 O3'
_chemical_name_systematic        
'(S)-Pinanediol (S)-(1-bromo-2((trityloxy)ethyl)boronate)'
_symmetry_cell_setting           orthorhombic
_symmetry_space_group_name_H-M   'P 21 21 21'
_symmetry_Int_Tables_number      19
_space_group_name_Hall           'P 2ac 2ab'
loop_
_symmetry_equiv_pos_site_id
_symmetry_equiv_pos_as_xyz
1 x,y,z
2 1/2-x,-y,1/2+z
3 1/2+x,1/2-y,-z
4 -x,1/2+y,1/2-z
_cell_length_a                   10.096(2)
_cell_length_b                   15.473(2)
_cell_length_c                   17.961(2)
_cell_angle_alpha                90
_cell_angle_beta                 90
_cell_angle_gamma                90
_cell_volume                     2805.78
_exptl_crystal_colour            colorless
_chemical_melting_point          176-177deg.C
_cell_formula_units_Z            4
loop_
_atom_site_label
_atom_site_type_symbol
_atom_site_fract_x
_atom_site_fract_y
_atom_site_fract_z
Br1 Br 0.0811(1) 0.6281(1) 0.1462(1)
B1 B 0.3514(16) 0.6372(8) 0.1065(7)
O1 O 0.4132(8) 0.7407(4) 0.2330(4)
O2 O 0.3369(9) 0.6917(5) 0.0468(4)
O3 O 0.4478(7) 0.5768(4) 0.0968(3)
C1 C 0.6004(10) 0.8094(7) 0.2845(6)
C2 C 0.6772(13) 0.7469(8) 0.2495(7)
C3 C 0.8103(14) 0.7417(9) 0.2635(8)
C4 C 0.8720(13) 0.7970(10) 0.3126(9)
C5 C 0.7982(13) 0.8592(9) 0.3456(8)
C6 C 0.6649(12) 0.8651(9) 0.3337(6)
C7 C 0.4503(10) 0.8948(6) 0.2090(6)
C8 C 0.4537(9) 0.8770(7) 0.1338(6)
C9 C 0.4681(12) 0.9402(9) 0.0803(7)
C10 C 0.4749(13) 1.0253(9) 0.1027(9)
C11 C 0.4736(14) 1.0439(8) 0.1778(9)
C12 C 0.4566(14) 0.9806(7) 0.2307(8)
C13 C 0.3737(13) 0.8331(8) 0.3371(6)
C14 C 0.3987(15) 0.7820(9) 0.3981(7)
C15 C 0.3243(23) 0.7832(11) 0.4600(9)
C16 C 0.2162(21) 0.8361(14) 0.4657(12)
C17 C 0.1895(16) 0.8859(13) 0.4064(10)
C18 C 0.2630(14) 0.8878(9) 0.3410(8)
C19 C 0.4566(12) 0.8210(7) 0.2673(6)
C20 C 0.2758(12) 0.7315(7) 0.2170(7)
C21 C 0.2630(12) 0.6449(7) 0.1778(6)
C22 C 0.4994(11) 0.5859(7) 0.0216(6)
C23 C 0.4200(14) 0.6607(6) -0.0130(5)
C24 C 0.3359(14) 0.6394(9) -0.0812(6)
C25 C 0.3358(13) 0.5429(10) -0.0999(7)
C26 C 0.3239(14) 0.4915(9) -0.0268(8)
C27 C 0.4719(14) 0.5014(8) -0.0186(7)
C28 C 0.4782(14) 0.5091(8) -0.1031(7)
C29 C 0.5805(15) 0.5652(10) -0.1425(7)
C30 C 0.4855(21) 0.4194(10) -0.1386(9)
C31 C 0.6442(12) 0.6055(9) 0.0321(8)
H1 H 0.6366 0.7072 0.2153
H2 H 0.8617 0.6979 0.2389
H3 H 0.9650 0.7919 0.3227
H4 H 0.8405 0.9001 0.3780
H5 H 0.6147 0.9082 0.3598
H6 H 0.4457 0.8179 0.1181
H7 H 0.4730 0.9251 0.0285
H8 H 0.4804 1.0708 0.0664
H9 H 0.4858 1.1027 0.1934
H10 H 0.4493 0.9959 0.2823
H11 H 0.4727 0.7431 0.3963
H12 H 0.3470 0.7467 0.5012
H13 H 0.1622 0.8377 0.5097
H14 H 0.1135 0.9230 0.4091
H15 H 0.2394 0.9248 0.3002
H16 H 0.2249 0.7319 0.2622
H17 H 0.2463 0.7774 0.1852
H18 H 0.2912 0.6022 0.2133
H19 H 0.4819 0.7019 -0.0326
H20 H 0.3695 0.6709 -0.1232
H21 H 0.2464 0.6570 -0.0713
H22 H 0.2752 0.5377 -0.1408
H23 H 0.2945 0.4330 -0.0328
H24 H 0.2725 0.5192 0.0114
H25 H 0.5285 0.4615 0.0070
H26 H 0.5791 0.6224 -0.1218
H27 H 0.5602 0.5680 -0.1947
H28 H 0.6668 0.5404 -0.1359
H29 H 0.4222 0.3817 -0.1154
H30 H 0.5730 0.3963 -0.1320
H31 H 0.4663 0.4239 -0.1908
H32 H 0.6857 0.6126 -0.0156
H33 H 0.6856 0.5586 0.0583
H34 H 0.6536 0.6577 0.0605
loop_
_geom_bond_atom_site_label_1
_geom_bond_atom_site_label_2
_geom_bond_site_symmetry_1
_geom_bond_site_symmetry_2
Br1 C21 1_555 1_555
B1 O2 1_555 1_555
O1 C19 1_555 1_555
O2 C23 1_555 1_555
O3 B1 1_555 1_555
C1 C2 1_555 1_555
C2 C3 1_555 1_555
C3 C4 1_555 1_555
C4 C5 1_555 1_555
C5 C6 1_555 1_555
C6 C1 1_555 1_555
C7 C8 1_555 1_555
C8 C9 1_555 1_555
C9 C10 1_555 1_555
C10 C11 1_555 1_555
C11 C12 1_555 1_555
C12 C7 1_555 1_555
C13 C14 1_555 1_555
C14 C15 1_555 1_555
C15 C16 1_555 1_555
C16 C17 1_555 1_555
C17 C18 1_555 1_555
C18 C13 1_555 1_555
C19 C1 1_555 1_555
C20 O1 1_555 1_555
C21 B1 1_555 1_555
C22 O3 1_555 1_555
C23 C22 1_555 1_555
C24 C23 1_555 1_555
C25 C24 1_555 1_555
C26 C25 1_555 1_555
C27 C22 1_555 1_555
C28 C25 1_555 1_555
C29 C28 1_555 1_555
C30 C28 1_555 1_555
C31 C22 1_555 1_555
H1 C2 1_555 1_555
H2 C3 1_555 1_555
H3 C4 1_555 1_555
H4 C5 1_555 1_555
H5 C6 1_555 1_555
H6 C8 1_555 1_555
H7 C9 1_555 1_555
H8 C10 1_555 1_555
H9 C11 1_555 1_555
H10 C12 1_555 1_555
H11 C14 1_555 1_555
H12 C15 1_555 1_555
H13 C16 1_555 1_555
H14 C17 1_555 1_555
H15 C18 1_555 1_555
H16 C20 1_555 1_555
H17 C20 1_555 1_555
H18 C21 1_555 1_555
H19 C23 1_555 1_555
H20 C24 1_555 1_555
H21 C24 1_555 1_555
H22 C25 1_555 1_555
H23 C26 1_555 1_555
H24 C26 1_555 1_555
H25 C27 1_555 1_555
H26 C29 1_555 1_555
H27 C29 1_555 1_555
H28 C29 1_555 1_555
H29 C30 1_555 1_555
H30 C30 1_555 1_555
H31 C30 1_555 1_555
H32 C31 1_555 1_555
H33 C31 1_555 1_555
H34 C31 1_555 1_555
C7 C19 1_555 1_555
C13 C19 1_555 1_555
C20 C21 1_555 1_555
C26 C27 1_555 1_555
C27 C28 1_555 1_555

#END
