
#######################################################################
#
#                 Cambridge Crystallographic Data Centre
#                                CCDC 
#
#######################################################################
#
# If this CIF has been generated from an entry in the Cambridge 
# Structural Database, then it will include bibliographic, chemical, 
# crystal, experimental, refinement or atomic coordinate data resulting 
# from the CCDC's data processing and validation procedures.
#
#######################################################################

data_ZANNAD
_chemical_formula_moiety         'C34 H41 B1 O3'
_chemical_name_systematic        
(R)-(4\a,5\b)-4,5-Dicyclohexyl-2-((triphenylmethoxy)methyl)-1,3,2-dioxaborolane
_symmetry_cell_setting           monoclinic
_symmetry_space_group_name_H-M   'P 21'
_symmetry_Int_Tables_number      4
_space_group_name_Hall           'P 2yb'
loop_
_symmetry_equiv_pos_site_id
_symmetry_equiv_pos_as_xyz
1 x,y,z
2 -x,1/2+y,-z
_cell_length_a                   14.827(3)
_cell_length_b                   9.225(2)
_cell_length_c                   22.465(4)
_cell_angle_alpha                90
_cell_angle_beta                 107.74(3)
_cell_angle_gamma                90
_cell_volume                     2926.63
_exptl_crystal_colour            colorless
_chemical_melting_point          95-98deg.C
_cell_formula_units_Z            4
loop_
_atom_site_label
_atom_site_type_symbol
_atom_site_fract_x
_atom_site_fract_y
_atom_site_fract_z
O1 O 0.2735(2) 0.2734(4) 0.3826(1)
O2 O 0.1703(2) 0.4931(5) 0.2401(2)
O3 O 0.3236(2) 0.4231(5) 0.2830(1)
B1 B 0.2342(4) 0.4082(7) 0.2840(2)
C1 C 0.2492(3) 0.1972(6) 0.4313(2)
C2 C 0.1961(4) 0.0585(7) 0.4033(2)
C3 C 0.0990(4) 0.0493(8) 0.3821(2)
C4 C 0.0531(5) -0.0775(10) 0.3544(3)
C5 C 0.1049(7) -0.1932(11) 0.3486(3)
C6 C 0.2035(6) -0.1885(8) 0.3680(3)
C7 C 0.2466(5) -0.0640(8) 0.3946(3)
C8 C 0.3436(4) 0.1654(7) 0.4801(2)
C9 C 0.3454(4) 0.0638(8) 0.5284(2)
C10 C 0.4307(5) 0.0337(9) 0.5741(3)
C11 C 0.5132(5) 0.1025(10) 0.5715(3)
C12 C 0.5099(5) 0.2007(9) 0.5258(3)
C13 C 0.4248(4) 0.2317(8) 0.4800(2)
C14 C 0.1918(3) 0.2973(7) 0.4607(2)
C15 C 0.1370(4) 0.2451(8) 0.4977(2)
C16 C 0.0899(5) 0.3341(10) 0.5257(3)
C17 C 0.0961(5) 0.4803(12) 0.5199(3)
C18 C 0.1486(6) 0.5361(9) 0.4847(3)
C19 C 0.1965(4) 0.4486(7) 0.4552(3)
C20 C 0.1983(3) 0.3042(7) 0.3261(2)
C21 C 0.3257(3) 0.5281(7) 0.2337(2)
C22 C 0.3755(3) 0.4675(6) 0.1900(2)
C23 C 0.3302(4) 0.3314(8) 0.1550(3)
C24 C 0.3840(5) 0.2817(9) 0.1105(3)
C25 C 0.4875(5) 0.2523(10) 0.1465(3)
C26 C 0.5344(4) 0.3839(9) 0.1811(3)
C27 C 0.4802(3) 0.4399(8) 0.2249(2)
C28 C 0.2209(4) 0.5697(6) 0.2044(2)
C29 C 0.2003(3) 0.7325(6) 0.2043(2)
C30 C 0.0949(4) 0.7646(8) 0.1827(3)
C31 C 0.0757(5) 0.9266(9) 0.1797(4)
C32 C 0.1237(5) 1.0026(10) 0.1368(4)
C33 C 0.2288(5) 0.9730(7) 0.1579(4)
C34 C 0.2484(4) 0.8094(7) 0.1614(3)
H1 H 0.0619 0.1315 0.3865
H2 H -0.0148 -0.0815 0.3395
H3 H 0.0732 -0.2809 0.3308
H4 H 0.2400 -0.2708 0.3627
H5 H 0.3146 -0.0598 0.4081
H6 H 0.2882 0.0166 0.5295
H7 H 0.4328 -0.0336 0.6071
H8 H 0.5727 0.0804 0.6020
H9 H 0.5668 0.2493 0.5250
H10 H 0.4239 0.3012 0.4480
H11 H 0.1333 0.1424 0.5033
H12 H 0.0518 0.2943 0.5494
H13 H 0.0640 0.5440 0.5405
H14 H 0.1521 0.6393 0.4805
H15 H 0.2330 0.4906 0.4309
H16 H 0.1771 0.2154 0.3040
H17 H 0.1466 0.3489 0.3365
H18 H 0.3625 0.6136 0.2488
H19 H 0.3696 0.5404 0.1585
H20 H 0.3316 0.2557 0.1846
H21 H 0.2657 0.3520 0.1315
H22 H 0.3806 0.3560 0.0800
H23 H 0.3555 0.1944 0.0898
H24 H 0.5202 0.2236 0.1175
H25 H 0.4906 0.1754 0.1758
H26 H 0.5980 0.3596 0.2054
H27 H 0.5360 0.4584 0.1516
H28 H 0.5086 0.5289 0.2436
H29 H 0.4845 0.3691 0.2570
H30 H 0.2017 0.5439 0.1610
H31 H 0.2250 0.7676 0.2463
H32 H 0.0673 0.7237 0.1419
H33 H 0.0665 0.7213 0.2115
H34 H 0.0086 0.9426 0.1640
H35 H 0.0997 0.9667 0.2210
H36 H 0.1133 1.1051 0.1376
H37 H 0.0968 0.9671 0.0949
H38 H 0.2566 1.0161 0.1288
H39 H 0.2564 1.0149 0.1986
H40 H 0.2248 0.7690 0.1201
H41 H 0.3155 0.7939 0.1773
O4 O 0.7281(3) 0.0306(5) 0.1185(2)
O5 O 0.7586(3) -0.0430(5) 0.2779(2)
O6 O 0.7275(3) -0.2179(5) 0.2041(2)
B2 B 0.7594(5) -0.0820(9) 0.2210(3)
C35 C 0.7531(4) 0.1067(6) 0.0693(2)
C36 C 0.8107(4) 0.0090(6) 0.0390(2)
C37 C 0.8074(5) -0.1395(7) 0.0455(3)
C38 C 0.8568(5) -0.2295(9) 0.0181(3)
C39 C 0.9103(5) -0.1738(9) -0.0161(3)
C40 C 0.9154(4) -0.0255(8) -0.0242(3)
C41 C 0.8637(4) 0.0664(7) 0.0044(2)
C42 C 0.8006(4) 0.2505(7) 0.0948(2)
C43 C 0.8979(4) 0.2646(8) 0.1169(2)
C44 C 0.9384(5) 0.3963(9) 0.1427(3)
C45 C 0.8813(6) 0.5113(9) 0.1445(3)
C46 C 0.7869(5) 0.4982(8) 0.1249(3)
C47 C 0.7452(4) 0.3681(6) 0.0999(2)
C48 C 0.6562(4) 0.1349(6) 0.0181(2)
C49 C 0.6488(4) 0.2315(7) -0.0294(2)
C50 C 0.5633(4) 0.2626(9) -0.0722(2)
C51 C 0.4831(5) 0.1999(9) -0.0702(3)
C52 C 0.4868(4) 0.1020(9) -0.0234(3)
C53 C 0.5736(4) 0.0660(8) 0.0211(3)
C54 C 0.7926(5) 0.0217(8) 0.1757(2)
C55 C 0.7212(4) -0.1590(7) 0.3054(2)
C56 C 0.7071(4) -0.2829(7) 0.2566(2)
C57 C 0.7658(4) -0.4187(7) 0.2798(2)
C58 C 0.7372(5) -0.4957(8) 0.3311(3)
C59 C 0.7894(5) -0.6335(8) 0.3509(3)
C60 C 0.8943(6) -0.6114(10) 0.3685(4)
C61 C 0.9253(5) -0.5391(10) 0.3195(4)
C62 C 0.8722(4) -0.3936(8) 0.3013(3)
C63 C 0.6346(4) -0.1135(9) 0.3213(3)
C64 C 0.5565(5) -0.0723(12) 0.2717(3)
C65 C 0.4684(6) -0.0380(15) 0.2970(4)
C66 C 0.4966(7) 0.0795(13) 0.3438(4)
C67 C 0.5716(7) 0.0329(14) 0.3913(4)
C68 C 0.6576(5) -0.0053(11) 0.3744(3)
H42 H 0.7700 -0.1804 0.0695
H43 H 0.8537 -0.3326 0.0230
H44 H 0.9450 -0.2380 -0.0347
H45 H 0.9526 0.0140 -0.0486
H46 H 0.8662 0.1695 -0.0004
H47 H 0.9378 0.1842 0.1146
H48 H 1.0060 0.4058 0.1590
H49 H 0.9093 0.6029 0.1602
H50 H 0.7479 0.5791 0.1280
H51 H 0.6775 0.3595 0.0861
H52 H 0.7049 0.2785 -0.0327
H53 H 0.5608 0.3316 -0.1047
H54 H 0.4239 0.2228 -0.1009
H55 H 0.4295 0.0576 -0.0210
H56 H 0.5760 -0.0047 0.0529
H57 H 0.8508 -0.0149 0.1712
H58 H 0.8029 0.1169 0.1938
H59 H 0.7620 -0.1906 0.3453
H60 H 0.6437 -0.3198 0.2463
H61 H 0.7518 -0.4797 0.2435
H62 H 0.6706 -0.5166 0.3160
H63 H 0.7497 -0.4326 0.3667
H64 H 0.7736 -0.6717 0.3862
H65 H 0.7708 -0.7014 0.3169
H66 H 0.9247 -0.7043 0.3770
H67 H 0.9134 -0.5529 0.4056
H68 H 0.9922 -0.5211 0.3349
H69 H 0.9117 -0.6007 0.2835
H70 H 0.8906 -0.3498 0.2680
H71 H 0.8885 -0.3302 0.3369
H72 H 0.6131 -0.2017 0.3351
H73 H 0.5719 0.0132 0.2524
H74 H 0.5399 -0.1492 0.2415
H75 H 0.4523 -0.1233 0.3161
H76 H 0.4148 -0.0081 0.2630
H77 H 0.4449 0.1029 0.3593
H78 H 0.5142 0.1638 0.3249
H79 H 0.5882 0.1083 0.4222
H80 H 0.5521 -0.0517 0.4090
H81 H 0.6832 0.0809 0.3618
H82 H 0.7036 -0.0469 0.4101
loop_
_geom_bond_atom_site_label_1
_geom_bond_atom_site_label_2
_geom_bond_site_symmetry_1
_geom_bond_site_symmetry_2
O1 C1 1_555 1_555
O2 B1 1_555 1_555
O3 B1 1_555 1_555
B1 C20 1_555 1_555
C1 C2 1_555 1_555
C2 C3 1_555 1_555
C3 C4 1_555 1_555
C4 C5 1_555 1_555
C5 C6 1_555 1_555
C6 C7 1_555 1_555
C7 C2 1_555 1_555
C8 C1 1_555 1_555
C9 C8 1_555 1_555
C10 C9 1_555 1_555
C11 C10 1_555 1_555
C12 C11 1_555 1_555
C13 C8 1_555 1_555
C14 C1 1_555 1_555
C15 C14 1_555 1_555
C16 C15 1_555 1_555
C17 C16 1_555 1_555
C18 C17 1_555 1_555
C19 C14 1_555 1_555
C20 O1 1_555 1_555
C21 O3 1_555 1_555
C22 C21 1_555 1_555
C23 C22 1_555 1_555
C24 C23 1_555 1_555
C25 C24 1_555 1_555
C26 C25 1_555 1_555
C27 C22 1_555 1_555
C28 O2 1_555 1_555
C29 C28 1_555 1_555
C30 C29 1_555 1_555
C31 C30 1_555 1_555
C32 C31 1_555 1_555
C33 C32 1_555 1_555
C34 C29 1_555 1_555
O4 C35 1_555 1_555
O5 B2 1_555 1_555
O6 B2 1_555 1_555
B2 C54 1_555 1_555
C35 C36 1_555 1_555
C36 C37 1_555 1_555
C37 C38 1_555 1_555
C38 C39 1_555 1_555
C39 C40 1_555 1_555
C40 C41 1_555 1_555
C41 C36 1_555 1_555
C42 C35 1_555 1_555
C43 C42 1_555 1_555
C44 C43 1_555 1_555
C45 C44 1_555 1_555
C46 C45 1_555 1_555
C47 C42 1_555 1_555
C48 C35 1_555 1_555
C49 C48 1_555 1_555
C50 C49 1_555 1_555
C51 C50 1_555 1_555
C52 C51 1_555 1_555
C53 C48 1_555 1_555
C54 O4 1_555 1_555
C55 O5 1_555 1_555
C56 O6 1_555 1_555
C57 C56 1_555 1_555
C58 C57 1_555 1_555
C59 C58 1_555 1_555
C60 C59 1_555 1_555
C61 C60 1_555 1_555
C62 C57 1_555 1_555
C63 C55 1_555 1_555
C64 C63 1_555 1_555
C65 C64 1_555 1_555
C66 C65 1_555 1_555
C67 C66 1_555 1_555
C68 C63 1_555 1_555
H1 C3 1_555 1_555
H2 C4 1_555 1_555
H3 C5 1_555 1_555
H4 C6 1_555 1_555
H5 C7 1_555 1_555
H6 C9 1_555 1_555
H7 C10 1_555 1_555
H8 C11 1_555 1_555
H9 C12 1_555 1_555
H10 C13 1_555 1_555
H11 C15 1_555 1_555
H12 C16 1_555 1_555
H13 C17 1_555 1_555
H14 C18 1_555 1_555
H15 C19 1_555 1_555
H16 C20 1_555 1_555
H17 C20 1_555 1_555
H18 C21 1_555 1_555
H19 C22 1_555 1_555
H20 C23 1_555 1_555
H21 C23 1_555 1_555
H22 C24 1_555 1_555
H23 C24 1_555 1_555
H24 C25 1_555 1_555
H25 C25 1_555 1_555
H26 C26 1_555 1_555
H27 C26 1_555 1_555
H28 C27 1_555 1_555
H29 C27 1_555 1_555
H30 C28 1_555 1_555
H31 C29 1_555 1_555
H32 C30 1_555 1_555
H33 C30 1_555 1_555
H34 C31 1_555 1_555
H35 C31 1_555 1_555
H36 C32 1_555 1_555
H37 C32 1_555 1_555
H38 C33 1_555 1_555
H39 C33 1_555 1_555
H40 C34 1_555 1_555
H41 C34 1_555 1_555
H42 C37 1_555 1_555
H43 C38 1_555 1_555
H44 C39 1_555 1_555
H45 C40 1_555 1_555
H46 C41 1_555 1_555
H47 C43 1_555 1_555
H48 C44 1_555 1_555
H49 C45 1_555 1_555
H50 C46 1_555 1_555
H51 C47 1_555 1_555
H52 C49 1_555 1_555
H53 C50 1_555 1_555
H54 C51 1_555 1_555
H55 C52 1_555 1_555
H56 C53 1_555 1_555
H57 C54 1_555 1_555
H58 C54 1_555 1_555
H59 C55 1_555 1_555
H60 C56 1_555 1_555
H61 C57 1_555 1_555
H62 C58 1_555 1_555
H63 C58 1_555 1_555
H64 C59 1_555 1_555
H65 C59 1_555 1_555
H66 C60 1_555 1_555
H67 C60 1_555 1_555
H68 C61 1_555 1_555
H69 C61 1_555 1_555
H70 C62 1_555 1_555
H71 C62 1_555 1_555
H72 C63 1_555 1_555
H73 C64 1_555 1_555
H74 C64 1_555 1_555
H75 C65 1_555 1_555
H76 C65 1_555 1_555
H77 C66 1_555 1_555
H78 C66 1_555 1_555
H79 C67 1_555 1_555
H80 C67 1_555 1_555
H81 C68 1_555 1_555
H82 C68 1_555 1_555
C12 C13 1_555 1_555
C18 C19 1_555 1_555
C21 C28 1_555 1_555
C26 C27 1_555 1_555
C33 C34 1_555 1_555
C46 C47 1_555 1_555
C52 C53 1_555 1_555
C55 C56 1_555 1_555
C61 C62 1_555 1_555
C67 C68 1_555 1_555

#END
