
#######################################################################
#
#                 Cambridge Crystallographic Data Centre
#                                CCDC 
#
#######################################################################
#
# If this CIF has been generated from an entry in the Cambridge 
# Structural Database, then it will include bibliographic, chemical, 
# crystal, experimental, refinement or atomic coordinate data resulting 
# from the CCDC's data processing and validation procedures.
#
#######################################################################

data_ZANNOR
_chemical_formula_moiety         'C31 H34 B1 Cl1 O3'
_chemical_name_systematic        
'(S)-Pinanediol (S)-(1-chloro-2((trityloxy)ethyl)boronate )'
_symmetry_cell_setting           orthorhombic
_symmetry_space_group_name_H-M   'P 21 21 21'
_symmetry_Int_Tables_number      19
_space_group_name_Hall           'P 2ac 2ab'
loop_
_symmetry_equiv_pos_site_id
_symmetry_equiv_pos_as_xyz
1 x,y,z
2 1/2-x,-y,1/2+z
3 1/2+x,1/2-y,-z
4 -x,1/2+y,1/2-z
_cell_length_a                   10.074(2)
_cell_length_b                   15.457(3)
_cell_length_c                   17.825(4)
_cell_angle_alpha                90
_cell_angle_beta                 90
_cell_angle_gamma                90
_cell_volume                     2775.6
_exptl_crystal_colour            colorless
_chemical_melting_point          165-167deg.C
_cell_formula_units_Z            4
loop_
_atom_site_label
_atom_site_type_symbol
_atom_site_fract_x
_atom_site_fract_y
_atom_site_fract_z
Cl1 Cl 0.0896(2) 0.6311(1) 0.1522(1)
B1 B 0.3475(7) 0.6370(5) 0.1072(3)
O1 O 0.4136(3) 0.7400(2) 0.2336(2)
O2 O 0.3289(4) 0.6899(3) 0.0470(2)
O3 O 0.4446(4) 0.5782(3) 0.0984(2)
C1 C 0.6042(6) 0.8076(4) 0.2836(3)
C2 C 0.6768(6) 0.7453(4) 0.2483(3)
C3 C 0.8114(7) 0.7376(5) 0.2617(4)
C4 C 0.8744(7) 0.7943(5) 0.3082(4)
C5 C 0.8040(7) 0.8585(5) 0.3419(4)
C6 C 0.6692(6) 0.8658(4) 0.3310(3)
C7 C 0.4496(5) 0.8936(4) 0.2086(3)
C8 C 0.4542(6) 0.8748(4) 0.1330(3)
C9 C 0.4675(6) 0.9388(5) 0.0795(4)
C10 C 0.4793(7) 1.0230(5) 0.1005(5)
C11 C 0.4728(7) 1.0443(4) 0.1758(4)
C12 C 0.4598(6) 0.9796(4) 0.2296(4)
C13 C 0.3758(6) 0.8331(4) 0.3386(3)
C14 C 0.4065(7) 0.7806(4) 0.3996(3)
C15 C 0.3284(10) 0.7823(6) 0.4635(4)
C16 C 0.2242(10) 0.8355(7) 0.4668(5)
C17 C 0.1891(8) 0.8879(6) 0.4080(5)
C18 C 0.2670(6) 0.8868(5) 0.3439(4)
C19 C 0.4562(5) 0.8213(4) 0.2661(3)
C20 C 0.2734(5) 0.7309(4) 0.2188(3)
C21 C 0.2608(5) 0.6449(4) 0.1807(3)
C22 C 0.4975(5) 0.5868(4) 0.0214(3)
C23 C 0.4157(6) 0.6608(3) -0.0120(3)
C24 C 0.3330(7) 0.6369(5) -0.0816(3)
C25 C 0.3360(7) 0.5419(5) -0.0986(4)
C26 C 0.3198(7) 0.4904(5) -0.0255(3)
C27 C 0.4723(6) 0.5026(4) -0.0165(3)
C28 C 0.4802(7) 0.5073(5) -0.1046(3)
C29 C 0.5798(7) 0.5648(5) -0.1435(3)
C30 C 0.4903(9) 0.4176(5) -0.1378(4)
C31 C 0.6440(6) 0.6078(5) 0.0328(4)
H1 H 0.6341 0.7065 0.2139
H2 H 0.8608 0.6921 0.2380
H3 H 0.9680 0.7889 0.3171
H4 H 0.8489 0.8993 0.3737
H5 H 0.6201 0.9106 0.3559
H6 H 0.4481 0.8155 0.1171
H7 H 0.4685 0.9238 0.0273
H8 H 0.4921 1.0673 0.0634
H9 H 0.4773 1.1039 0.1910
H10 H 0.4579 0.9948 0.2818
H11 H 0.4823 0.7431 0.3974
H12 H 0.3490 0.7454 0.5052
H13 H 0.1721 0.8372 0.5119
H14 H 0.1122 0.9244 0.4111
H15 H 0.2449 0.9240 0.3026
H16 H 0.2237 0.7317 0.2648
H17 H 0.2427 0.7765 0.1866
H18 H 0.2906 0.6020 0.2159
H19 H 0.4760 0.7044 -0.0295
H20 H 0.3676 0.6677 -0.1241
H21 H 0.2426 0.6540 -0.0731
H22 H 0.2756 0.5362 -0.1399
H23 H 0.2667 0.5179 0.0123
H24 H 0.2911 0.4316 -0.0317
H25 H 0.5293 0.4639 0.0107
H26 H 0.5747 0.6221 -0.1230
H27 H 0.5607 0.5666 -0.1962
H28 H 0.6675 0.5421 -0.1359
H29 H 0.4274 0.3802 -0.1136
H30 H 0.5784 0.3956 -0.1302
H31 H 0.4716 0.4201 -0.1905
H32 H 0.6863 0.6145 -0.0151
H33 H 0.6859 0.5616 0.0599
H34 H 0.6522 0.6606 0.0608
loop_
_geom_bond_atom_site_label_1
_geom_bond_atom_site_label_2
_geom_bond_site_symmetry_1
_geom_bond_site_symmetry_2
Cl1 C21 1_555 1_555
B1 O2 1_555 1_555
O1 C19 1_555 1_555
O2 C23 1_555 1_555
O3 B1 1_555 1_555
C1 C2 1_555 1_555
C2 C3 1_555 1_555
C3 C4 1_555 1_555
C4 C5 1_555 1_555
C5 C6 1_555 1_555
C6 C1 1_555 1_555
C7 C8 1_555 1_555
C8 C9 1_555 1_555
C9 C10 1_555 1_555
C10 C11 1_555 1_555
C11 C12 1_555 1_555
C12 C7 1_555 1_555
C13 C14 1_555 1_555
C14 C15 1_555 1_555
C15 C16 1_555 1_555
C16 C17 1_555 1_555
C17 C18 1_555 1_555
C18 C13 1_555 1_555
C19 C1 1_555 1_555
C20 O1 1_555 1_555
C21 B1 1_555 1_555
C22 O3 1_555 1_555
C23 C22 1_555 1_555
C24 C23 1_555 1_555
C25 C24 1_555 1_555
C26 C25 1_555 1_555
C27 C22 1_555 1_555
C28 C25 1_555 1_555
C29 C28 1_555 1_555
C30 C28 1_555 1_555
C31 C22 1_555 1_555
H1 C2 1_555 1_555
H2 C3 1_555 1_555
H3 C4 1_555 1_555
H4 C5 1_555 1_555
H5 C6 1_555 1_555
H6 C8 1_555 1_555
H7 C9 1_555 1_555
H8 C10 1_555 1_555
H9 C11 1_555 1_555
H10 C12 1_555 1_555
H11 C14 1_555 1_555
H12 C15 1_555 1_555
H13 C16 1_555 1_555
H14 C17 1_555 1_555
H15 C18 1_555 1_555
H16 C20 1_555 1_555
H17 C20 1_555 1_555
H18 C21 1_555 1_555
H19 C23 1_555 1_555
H20 C24 1_555 1_555
H21 C24 1_555 1_555
H22 C25 1_555 1_555
H23 C26 1_555 1_555
H24 C26 1_555 1_555
H25 C27 1_555 1_555
H26 C29 1_555 1_555
H27 C29 1_555 1_555
H28 C29 1_555 1_555
H29 C30 1_555 1_555
H30 C30 1_555 1_555
H31 C30 1_555 1_555
H32 C31 1_555 1_555
H33 C31 1_555 1_555
H34 C31 1_555 1_555
C7 C19 1_555 1_555
C13 C19 1_555 1_555
C20 C21 1_555 1_555
C26 C27 1_555 1_555
C27 C28 1_555 1_555

#END
