
#######################################################################
#
#                 Cambridge Crystallographic Data Centre
#                                CCDC 
#
#######################################################################
#
# If this CIF has been generated from an entry in the Cambridge 
# Structural Database, then it will include bibliographic, chemical, 
# crystal, experimental, refinement or atomic coordinate data resulting 
# from the CCDC's data processing and validation procedures.
#
#######################################################################

data_ZAPMUA
_chemical_formula_moiety         'C17 H12 F3 N1 O4 S1'
_chemical_name_systematic        
'2-[1,1-Dioxo-2-(2,4,5-trifluorobenzyl)-2H-1,2-benzothiazin-4-yl]acetic acid'
_symmetry_cell_setting           monoclinic
_symmetry_space_group_name_H-M   'P 21/n'
_symmetry_Int_Tables_number      14
_space_group_name_Hall           '-P 2yn'
loop_
_symmetry_equiv_pos_site_id
_symmetry_equiv_pos_as_xyz
1 x,y,z
2 1/2-x,1/2+y,1/2-z
3 -x,-y,-z
4 1/2+x,1/2-y,1/2+z
_cell_length_a                   8.3290(17)
_cell_length_b                   23.141(5)
_cell_length_c                   8.6692(17)
_cell_angle_alpha                90
_cell_angle_beta                 90.93(3)
_cell_angle_gamma                90
_cell_volume                     1670.69
_exptl_crystal_colour            colorless
_exptl_crystal_description       block
_cell_formula_units_Z            4
loop_
_atom_site_label
_atom_site_type_symbol
_atom_site_fract_x
_atom_site_fract_y
_atom_site_fract_z
S1 S 0.11950(4) 0.232698(14) 0.97865(4)
F1 F 0.69758(14) 0.21289(5) 0.89004(16)
F2 F 0.6328(2) 0.02123(6) 0.73067(19)
F3 F 0.3601(2) 0.01403(5) 0.8862(2)
O1 O 0.4665(2) 0.48147(7) 0.79699(18)
H1 H 0.504(4) 0.5074(14) 0.855(3)
O2 O 0.41807(19) 0.43626(6) 1.01497(15)
O3 O 0.08188(15) 0.19719(5) 1.10801(14)
O4 O 0.08941(14) 0.20919(5) 0.82864(12)
N1 N 0.30918(15) 0.25127(5) 0.99625(14)
C1 C 0.02950(17) 0.30051(6) 0.99039(15)
C2 C -0.11807(18) 0.30537(7) 1.06150(18)
H2 H -0.1616 0.2741 1.1136
C3 C -0.19919(19) 0.35725(8) 1.0537(2)
H3 H -0.2977 0.3614 1.1014
C4 C -0.1331(2) 0.40320(7) 0.9744(2)
H4 H -0.1901 0.4376 0.9658
C5 C 0.0162(2) 0.39876(7) 0.90794(19)
H5 H 0.0589 0.4304 0.8568
C6 C 0.10414(17) 0.34714(6) 0.91652(15)
C7 C 0.26885(18) 0.34231(6) 0.86404(16)
C8 C 0.36224(18) 0.29773(6) 0.90869(17)
H6 H 0.4691 0.2980 0.8792
C9 C 0.3439(2) 0.39103(6) 0.77500(19)
H7 H 0.4296 0.3755 0.7128
H8 H 0.2636 0.4074 0.7054
C10 C 0.41079(18) 0.43834(6) 0.87590(19)
C11 C 0.4227(2) 0.21175(7) 1.07534(18)
H9 H 0.3728 0.1972 1.1679
H10 H 0.5170 0.2336 1.1071
C12 C 0.47589(19) 0.16095(7) 0.97972(17)
C13 C 0.6136(2) 0.16311(7) 0.8936(2)
C14 C 0.6717(2) 0.11724(9) 0.8094(2)
H11 H 0.7667 0.1200 0.7549
C15 C 0.5833(3) 0.06758(8) 0.8099(2)
C16 C 0.4443(3) 0.06386(8) 0.8907(3)
C17 C 0.3901(2) 0.10940(7) 0.9768(2)
H12 H 0.2964 0.1058 1.0329
loop_
_geom_bond_atom_site_label_1
_geom_bond_atom_site_label_2
_geom_bond_site_symmetry_1
_geom_bond_site_symmetry_2
S1 O3 1_555 1_555
F1 C13 1_555 1_555
F2 C15 1_555 1_555
F3 C16 1_555 1_555
O1 H1 1_555 1_555
O2 C10 1_555 1_555
O4 S1 1_555 1_555
N1 S1 1_555 1_555
C1 S1 1_555 1_555
C2 C1 1_555 1_555
H2 C2 1_555 1_555
C3 C2 1_555 1_555
H3 C3 1_555 1_555
C4 C3 1_555 1_555
H4 C4 1_555 1_555
C5 C4 1_555 1_555
H5 C5 1_555 1_555
C6 C1 1_555 1_555
C7 C6 1_555 1_555
C8 N1 1_555 1_555
H6 C8 1_555 1_555
C9 C7 1_555 1_555
H7 C9 1_555 1_555
H8 C9 1_555 1_555
C10 O1 1_555 1_555
C11 N1 1_555 1_555
H9 C11 1_555 1_555
H10 C11 1_555 1_555
C12 C11 1_555 1_555
C13 C12 1_555 1_555
C14 C13 1_555 1_555
H11 C14 1_555 1_555
C15 C14 1_555 1_555
C16 C15 1_555 1_555
C17 C12 1_555 1_555
H12 C17 1_555 1_555
C5 C6 1_555 1_555
C7 C8 1_555 1_555
C9 C10 1_555 1_555
C16 C17 1_555 1_555

#END
