
#######################################################################
#
#                 Cambridge Crystallographic Data Centre
#                                CCDC 
#
#######################################################################
#
# If this CIF has been generated from an entry in the Cambridge 
# Structural Database, then it will include bibliographic, chemical, 
# crystal, experimental, refinement or atomic coordinate data resulting 
# from the CCDC's data processing and validation procedures.
#
#######################################################################

data_ZAPRAL
_chemical_formula_moiety         'C24 H16 Br1 N3 O1 S3'
_chemical_name_systematic        
2-(5-Bromothiophen-2-yl)-5-[5-(10-ethylphenothiazin-3-yl)thiophen-2-yl]-1,3,4-oxadiazole
_symmetry_cell_setting           triclinic
_symmetry_space_group_name_H-M   'P -1'
_symmetry_Int_Tables_number      2
_space_group_name_Hall           '-P 1'
loop_
_symmetry_equiv_pos_site_id
_symmetry_equiv_pos_as_xyz
1 x,y,z
2 -x,-y,-z
_cell_length_a                   7.4300(5)
_cell_length_b                   7.6019(5)
_cell_length_c                   22.1933(14)
_cell_angle_alpha                89.315(4)
_cell_angle_beta                 89.170(4)
_cell_angle_gamma                64.891(4)
_cell_volume                     1134.93
_exptl_crystal_colour            yellow
_exptl_crystal_description       block
_cell_formula_units_Z            2
loop_
_atom_site_label
_atom_site_type_symbol
_atom_site_fract_x
_atom_site_fract_y
_atom_site_fract_z
Br1 Br -0.64760(7) 0.55973(6) 0.18906(2)
C1 C 0.3622(6) 0.2273(5) 0.96143(15)
H1 H 0.2281 0.2762 0.9718
C2 C 0.4887(7) 0.2710(5) 0.99607(17)
H2 H 0.4416 0.3463 1.0304
C3 C 0.6867(7) 0.2023(5) 0.97957(17)
H3 H 0.7731 0.2313 1.0031
C4 C 0.7577(5) 0.0905(5) 0.92832(16)
H4 H 0.8904 0.0489 0.9170
C5 C 0.6325(5) 0.0397(4) 0.89353(14)
C6 C 0.4320(5) 0.1113(4) 0.91116(13)
C7 C 0.9127(5) -0.2003(6) 0.83409(18)
H5 H 0.9822 -0.1174 0.8320
H6 H 0.9341 -0.2683 0.7961
C8 C 0.9994(6) -0.3473(6) 0.8843(2)
H7 H 0.9828 -0.2808 0.9219
H8 H 1.1383 -0.4238 0.8765
H9 H 0.9320 -0.4307 0.8863
C9 C 0.5786(5) -0.0232(4) 0.79035(14)
C10 C 0.6538(5) -0.0294(5) 0.73245(15)
H10 H 0.7888 -0.0638 0.7269
C11 C 0.5316(5) 0.0147(4) 0.68302(15)
H11 H 0.5870 0.0038 0.6446
C12 C 0.3283(5) 0.0748(4) 0.68915(13)
C13 C 0.2503(5) 0.0895(4) 0.74764(14)
H12 H 0.1138 0.1335 0.7532
C14 C 0.3721(5) 0.0401(4) 0.79706(14)
C15 C 0.1960(5) 0.1204(4) 0.63696(14)
C16 C 0.0059(5) 0.1390(4) 0.63392(15)
H13 H -0.0620 0.1199 0.6671
C17 C -0.0786(5) 0.1891(4) 0.57703(14)
H14 H -0.2075 0.2072 0.5685
C18 C 0.0480(5) 0.2087(4) 0.53520(15)
C19 C 0.0111(5) 0.2606(4) 0.47247(14)
C20 C -0.1542(5) 0.3449(4) 0.39177(14)
C21 C -0.3225(5) 0.3959(4) 0.35297(14)
C22 C -0.5041(5) 0.4019(4) 0.36531(16)
H15 H -0.5420 0.3753 0.4032
C23 C -0.6299(5) 0.4525(4) 0.31502(17)
H16 H -0.7589 0.4620 0.3157
C24 C -0.5401(5) 0.4854(4) 0.26594(14)
N1 N 0.6991(4) -0.0788(4) 0.84232(12)
N2 N 0.1313(4) 0.2746(4) 0.43185(12)
N3 N 0.0218(4) 0.3301(4) 0.37835(12)
O1 O -0.1732(3) 0.3035(3) 0.45107(9)
S1 S 0.27273(13) 0.04182(14) 0.86988(4)
S2 S 0.27462(13) 0.16405(12) 0.56662(4)
S3 S -0.30112(13) 0.45375(12) 0.27857(4)
loop_
_geom_bond_atom_site_label_1
_geom_bond_atom_site_label_2
_geom_bond_site_symmetry_1
_geom_bond_site_symmetry_2
Br1 C24 1_555 1_555
C1 H1 1_555 1_555
C2 C1 1_555 1_555
H2 C2 1_555 1_555
C3 C2 1_555 1_555
H3 C3 1_555 1_555
C4 C3 1_555 1_555
H4 C4 1_555 1_555
C5 C4 1_555 1_555
C6 C1 1_555 1_555
C7 H5 1_555 1_555
H6 C7 1_555 1_555
C8 C7 1_555 1_555
H7 C8 1_555 1_555
H8 C8 1_555 1_555
H9 C8 1_555 1_555
C9 C10 1_555 1_555
C10 H10 1_555 1_555
C11 C10 1_555 1_555
H11 C11 1_555 1_555
C12 C11 1_555 1_555
C13 C12 1_555 1_555
H12 C13 1_555 1_555
C14 C9 1_555 1_555
C15 C12 1_555 1_555
C16 C15 1_555 1_555
H13 C16 1_555 1_555
C17 C16 1_555 1_555
H14 C17 1_555 1_555
C18 C17 1_555 1_555
C19 C18 1_555 1_555
C20 C21 1_555 1_555
C21 C22 1_555 1_555
C22 H15 1_555 1_555
C23 C22 1_555 1_555
H16 C23 1_555 1_555
C24 C23 1_555 1_555
N1 C5 1_555 1_555
N2 C19 1_555 1_555
N3 C20 1_555 1_555
O1 C19 1_555 1_555
S1 C6 1_555 1_555
S2 C15 1_555 1_555
S3 C21 1_555 1_555
C5 C6 1_555 1_555
C7 N1 1_555 1_555
C9 N1 1_555 1_555
C13 C14 1_555 1_555
C14 S1 1_555 1_555
C18 S2 1_555 1_555
C20 O1 1_555 1_555
C24 S3 1_555 1_555
N2 N3 1_555 1_555

#END
