
#######################################################################
#
#                 Cambridge Crystallographic Data Centre
#                                CCDC 
#
#######################################################################
#
# If this CIF has been generated from an entry in the Cambridge 
# Structural Database, then it will include bibliographic, chemical, 
# crystal, experimental, refinement or atomic coordinate data resulting 
# from the CCDC's data processing and validation procedures.
#
#######################################################################

data_ZAQDOM
_chemical_name_common            
5-Methyl-N-[2-(trifluoromethyl)phenyl]isoxazole-4-carboxamide
_chemical_formula_moiety         'C12 H9 F3 N2 O2'
_chemical_name_systematic        
5-Methyl-N-(2-(trifluoromethyl)phenyl)-1,2-oxazole-4-carboxamide
_symmetry_cell_setting           monoclinic
_symmetry_space_group_name_H-M   'P 21/c'
_symmetry_Int_Tables_number      14
_space_group_name_Hall           '-P 2ybc'
loop_
_symmetry_equiv_pos_site_id
_symmetry_equiv_pos_as_xyz
1 x,y,z
2 -x,1/2+y,1/2-z
3 -x,-y,-z
4 x,1/2-y,1/2+z
_cell_length_a                   15.839(3)
_cell_length_b                   8.3260(17)
_cell_length_c                   9.4250(19)
_cell_angle_alpha                90
_cell_angle_beta                 101.29(3)
_cell_angle_gamma                90
_cell_volume                     1218.87
_exptl_crystal_colour            colorless
_exptl_crystal_description       block
_cell_formula_units_Z            4
loop_
_atom_site_label
_atom_site_type_symbol
_atom_site_fract_x
_atom_site_fract_y
_atom_site_fract_z
N1 N 0.73554(18) 0.2300(3) 0.9712(3)
H1 H 0.7386 0.2533 1.0610
O1 O 0.67807(16) 0.2925(3) 0.7394(2)
F1 F 0.9108(2) 0.3541(4) 1.0116(3)
C1 C 0.9018(3) -0.0106(6) 0.8447(4)
H2 H 0.9526 0.0039 0.8108
O2 O 0.55089(19) 0.6534(3) 0.9342(3)
N2 N 0.6083(3) 0.6480(4) 1.0694(4)
F2 F 0.97802(18) 0.2773(4) 0.8551(4)
C2 C 0.8701(3) -0.1615(6) 0.8525(5)
H3 H 0.8989 -0.2489 0.8232
F3 F 0.85728(19) 0.3827(3) 0.7915(3)
C3 C 0.7957(3) -0.1853(5) 0.9035(5)
H4 H 0.7746 -0.2886 0.9103
C4 C 0.7526(3) -0.0551(5) 0.9447(4)
H5 H 0.7023 -0.0707 0.9797
C5 C 0.7837(2) 0.0983(4) 0.9344(3)
C6 C 0.8601(2) 0.1205(5) 0.8858(4)
C7 C 0.9005(3) 0.2832(5) 0.8849(5)
C8 C 0.6852(2) 0.3198(4) 0.8696(4)
C9 C 0.6396(2) 0.4541(4) 0.9236(4)
C10 C 0.5722(3) 0.5371(5) 0.8487(4)
C11 C 0.6589(3) 0.5281(5) 1.0597(4)
H6 H 0.7029 0.4948 1.1343
C12 C 0.5197(3) 0.5268(5) 0.7026(4)
H7 H 0.4770 0.6101 0.6897
H8 H 0.4919 0.4240 0.6897
H9 H 0.5559 0.5397 0.6327
loop_
_geom_bond_atom_site_label_1
_geom_bond_atom_site_label_2
_geom_bond_site_symmetry_1
_geom_bond_site_symmetry_2
N1 H1 1_555 1_555
O1 C8 1_555 1_555
F1 C7 1_555 1_555
C1 H2 1_555 1_555
O2 N2 1_555 1_555
N2 C11 1_555 1_555
F2 C7 1_555 1_555
C2 C1 1_555 1_555
H3 C2 1_555 1_555
F3 C7 1_555 1_555
C3 C2 1_555 1_555
H4 C3 1_555 1_555
C4 C3 1_555 1_555
H5 C4 1_555 1_555
C5 N1 1_555 1_555
C6 C1 1_555 1_555
C7 C6 1_555 1_555
C8 N1 1_555 1_555
C9 C8 1_555 1_555
C10 O2 1_555 1_555
C11 C9 1_555 1_555
H6 C11 1_555 1_555
C12 C10 1_555 1_555
H7 C12 1_555 1_555
H8 C12 1_555 1_555
H9 C12 1_555 1_555
C4 C5 1_555 1_555
C5 C6 1_555 1_555
C9 C10 1_555 1_555

#END
