
#######################################################################
#
#                 Cambridge Crystallographic Data Centre
#                                CCDC 
#
#######################################################################
#
# If this CIF has been generated from an entry in the Cambridge 
# Structural Database, then it will include bibliographic, chemical, 
# crystal, experimental, refinement or atomic coordinate data resulting 
# from the CCDC's data processing and validation procedures.
#
#######################################################################

data_ZAQDON
_chemical_formula_moiety         'C21 H17 N3 O2'
_chemical_name_systematic        
7-(4-methoxyphenyl)-5-oxo-6-phenyl-2,3,5,6-tetrahydroimidazo[1,2-a]pyridine-6-carbonitrile
_symmetry_cell_setting           monoclinic
_symmetry_space_group_name_H-M   'P 21/c'
_symmetry_Int_Tables_number      14
_space_group_name_Hall           '-P 2ybc'
loop_
_symmetry_equiv_pos_site_id
_symmetry_equiv_pos_as_xyz
1 x,y,z
2 -x,1/2+y,1/2-z
3 -x,-y,-z
4 x,1/2-y,1/2+z
_cell_length_a                   9.9517(10)
_cell_length_b                   23.171(2)
_cell_length_c                   7.5232(7)
_cell_angle_alpha                90
_cell_angle_beta                 105.529(10)
_cell_angle_gamma                90
_cell_volume                     1671.45
_exptl_crystal_colour            yellow
_exptl_crystal_description       needle
_cell_formula_units_Z            4
loop_
_atom_site_label
_atom_site_type_symbol
_atom_site_fract_x
_atom_site_fract_y
_atom_site_fract_z
O1 O 0.17674(16) 0.22336(7) 0.5121(2)
N1 N -0.33597(16) -0.01856(7) 0.8530(2)
O2 O -0.25395(17) 0.01377(7) 1.14427(18)
C1 C -0.25786(19) 0.02245(8) 0.5994(2)
H1 H -0.2545 0.0207 0.4772
C2 C -0.20098(18) 0.07129(9) 0.9053(2)
C3 C -0.33289(19) -0.02165(9) 0.6684(2)
C4 C -0.19330(18) 0.06565(8) 0.7049(2)
N2 N -0.39419(18) -0.06515(8) 0.5801(2)
C5 C -0.10488(19) 0.10852(9) 0.6417(2)
C6 C -0.2644(2) 0.01837(9) 0.9803(2)
C7 C -0.28956(18) 0.12306(8) 0.9346(2)
C8 C 0.0780(2) 0.18745(9) 0.5497(2)
C9 C -0.2514(2) 0.15657(9) 1.0928(3)
H2 H -0.1682 0.1491 1.1815
C10 C -0.4019(2) -0.07123(10) 0.8977(3)
H3 H -0.4802 -0.0624 0.9470
H4 H -0.3357 -0.0952 0.9849
C11 C -0.5003(2) 0.17827(10) 0.8322(3)
H5 H -0.5844 0.1855 0.7449
C12 C 0.0186(2) 0.09047(10) 0.6055(3)
H6 H 0.0407 0.0514 0.6120
C13 C -0.0561(2) 0.07649(10) 1.0225(3)
N3 N 0.0570(2) 0.08100(11) 1.1082(3)
C14 C -0.41588(19) 0.13344(9) 0.8054(2)
H7 H -0.4437 0.1103 0.7010
C15 C -0.1358(2) 0.16664(10) 0.6242(3)
H8 H -0.2189 0.1797 0.6444
C16 C 0.1086(2) 0.12943(10) 0.5603(3)
H9 H 0.1906 0.1165 0.5369
C17 C -0.4605(2) 0.21225(10) 0.9875(3)
H10 H -0.5168 0.2427 1.0040
C18 C -0.3365(2) 0.20105(10) 1.1191(3)
H11 H -0.3105 0.2235 1.2253
C19 C -0.0467(2) 0.20610(10) 0.5773(3)
H12 H -0.0706 0.2450 0.5646
C20 C 0.1633(3) 0.28349(11) 0.5397(3)
H13 H 0.2382 0.3037 0.5088
H14 H 0.0758 0.2969 0.4625
H15 H 0.1669 0.2906 0.6667
C21 C -0.4496(2) -0.09992(11) 0.7088(3)
H16 H -0.4143 -0.1391 0.7147
H17 H -0.5506 -0.1012 0.6679
loop_
_geom_bond_atom_site_label_1
_geom_bond_atom_site_label_2
_geom_bond_site_symmetry_1
_geom_bond_site_symmetry_2
O1 C8 1_555 1_555
N1 C3 1_555 1_555
O2 C6 1_555 1_555
C1 H1 1_555 1_555
C2 C4 1_555 1_555
C3 C1 1_555 1_555
C4 C1 1_555 1_555
N2 C3 1_555 1_555
C5 C4 1_555 1_555
C6 N1 1_555 1_555
C7 C2 1_555 1_555
C8 C16 1_555 1_555
C9 C7 1_555 1_555
H2 C9 1_555 1_555
C10 N1 1_555 1_555
H3 C10 1_555 1_555
H4 C10 1_555 1_555
C11 H5 1_555 1_555
C12 C5 1_555 1_555
H6 C12 1_555 1_555
C13 C2 1_555 1_555
N3 C13 1_555 1_555
C14 C7 1_555 1_555
H7 C14 1_555 1_555
C15 C5 1_555 1_555
H8 C15 1_555 1_555
C16 C12 1_555 1_555
H9 C16 1_555 1_555
C17 C11 1_555 1_555
H10 C17 1_555 1_555
C18 C9 1_555 1_555
H11 C18 1_555 1_555
C19 C8 1_555 1_555
H12 C19 1_555 1_555
C20 O1 1_555 1_555
H13 C20 1_555 1_555
H14 C20 1_555 1_555
H15 C20 1_555 1_555
C21 N2 1_555 1_555
H16 C21 1_555 1_555
H17 C21 1_555 1_555
C2 C6 1_555 1_555
C10 C21 1_555 1_555
C11 C14 1_555 1_555
C15 C19 1_555 1_555
C17 C18 1_555 1_555

#END
